0:0
     RDKit          3D

 47 49  0  0  0  0  0  0  0  0999 V2000
   -0.5460   24.9670  -26.4460 C   0  0  0  0  0  0  0  0  0  0  0  0
    0.1990   24.2850  -27.5960 C   0  0  0  0  0  0  0  0  0  0  0  0
   -0.7390   23.4370  -28.4930 C   0  0  2  0  0  0  0  0  0  0  0  0
   -1.9160   24.2030  -29.0350 C   0  0  0  0  0  0  0  0  0  0  0  0
   -1.9550   25.4620  -28.9670 O   0  0  0  0  0  0  0  0  0  0  0  0
   -3.0250   23.4490  -29.6710 C   0  0  0  0  0  0  0  0  0  0  0  0
   -3.1490   22.0530  -29.4540 C   0  0  0  0  0  0  0  0  0  0  0  0
   -4.1140   21.3800  -30.0800 O   0  0  0  0  0  0  0  0  0  0  0  0
   -5.0130   21.9390  -30.8870 C   0  0  0  0  0  0  0  0  0  0  0  0
   -6.0400   21.0700  -31.5150 C   0  0  0  0  0  0  0  0  0  0  0  0
   -5.6890   19.9420  -32.2840 C   0  0  0  0  0  0  0  0  0  0  0  0
   -6.6810   19.1490  -32.8710 C   0  0  0  0  0  0  0  0  0  0  0  0
   -8.0280   19.4740  -32.7060 C   0  0  0  0  0  0  0  0  0  0  0  0
   -8.3890   20.5970  -31.9580 C   0  0  0  0  0  0  0  0  0  0  0  0
   -7.4020   21.3930  -31.3680 C   0  0  0  0  0  0  0  0  0  0  0  0
   -4.9560   23.3170  -31.1280 C   0  0  0  0  0  0  0  0  0  0  0  0
   -3.9570   24.0730  -30.5210 C   0  0  0  0  0  0  0  0  0  0  0  0
   -3.8940   25.3100  -30.7600 O   0  0  0  0  0  0  0  0  0  0  0  0
   -2.1940   21.2560  -28.5490 C   0  0  0  0  0  0  0  0  0  0  0  0
   -3.1010   20.4220  -27.5740 C   0  0  0  0  0  0  0  0  0  0  0  0
   -2.4210   19.2870  -26.7990 C   0  0  0  0  0  0  0  0  0  0  0  0
   -1.3420   20.3410  -29.4890 C   0  0  0  0  0  0  0  0  0  0  0  0
   -1.1460   20.8450  -30.9280 C   0  0  0  0  0  0  0  0  0  0  0  0
   -1.3020   22.2320  -27.7730 C   0  0  0  0  0  0  0  0  0  0  0  0
   -1.0530   22.0500  -26.5890 O   0  0  0  0  0  0  0  0  0  0  0  0
   -0.1497   24.6042  -25.4861 H   0  0  0  0  0  0  0  0  0  0  0  0
   -0.4054   26.0559  -26.5127 H   0  0  0  0  0  0  0  0  0  0  0  0
   -1.6183   24.7310  -26.5127 H   0  0  0  0  0  0  0  0  0  0  0  0
    0.6747   25.0591  -28.2161 H   0  0  0  0  0  0  0  0  0  0  0  0
    0.9430   23.6053  -27.1549 H   0  0  0  0  0  0  0  0  0  0  0  0
   -0.0842   23.1281  -29.3212 H   0  0  0  0  0  0  0  0  0  0  0  0
   -4.6289   19.6837  -32.4234 H   0  0  0  0  0  0  0  0  0  0  0  0
   -6.3983   18.2669  -33.4642 H   0  0  0  0  0  0  0  0  0  0  0  0
   -8.8056   18.8458  -33.1650 H   0  0  0  0  0  0  0  0  0  0  0  0
   -9.4508   20.8556  -31.8328 H   0  0  0  0  0  0  0  0  0  0  0  0
   -7.6926   22.2789  -30.7842 H   0  0  0  0  0  0  0  0  0  0  0  0
   -5.6923   23.7969  -31.7895 H   0  0  0  0  0  0  0  0  0  0  0  0
   -3.5272   21.1192  -26.8376 H   0  0  0  0  0  0  0  0  0  0  0  0
   -3.8400   19.9267  -28.2209 H   0  0  0  0  0  0  0  0  0  0  0  0
   -2.5278   19.4652  -25.7188 H   0  0  0  0  0  0  0  0  0  0  0  0
   -2.8942   18.3292  -27.0611 H   0  0  0  0  0  0  0  0  0  0  0  0
   -1.3532   19.2524  -27.0611 H   0  0  0  0  0  0  0  0  0  0  0  0
   -0.3468   20.2265  -29.0346 H   0  0  0  0  0  0  0  0  0  0  0  0
   -1.9080   19.4021  -29.5795 H   0  0  0  0  0  0  0  0  0  0  0  0
   -0.7474   21.8700  -30.9064 H   0  0  0  0  0  0  0  0  0  0  0  0
   -0.4381   20.1873  -31.4536 H   0  0  0  0  0  0  0  0  0  0  0  0
   -2.1123   20.8383  -31.4536 H   0  0  0  0  0  0  0  0  0  0  0  0
  1  2  1  0
  2  3  1  0
  3  4  1  0
  4  5  2  0
  4  6  1  0
  6  7  2  0
  7  8  1  0
  8  9  1  0
  9 10  1  0
 10 11  2  0
 11 12  1  0
 12 13  2  0
 13 14  1  0
 14 15  2  0
  9 16  2  0
 16 17  1  0
 17 18  2  0
  7 19  1  0
 19 20  1  0
 20 21  1  0
 19 22  1  0
 22 23  1  0
 19 24  1  0
 24 25  2  0
 24  3  1  0
 17  6  1  0
 15 10  1  0
  1 26  1  0
  1 27  1  0
  1 28  1  0
  2 29  1  0
  2 30  1  0
  3 31  1  6
 11 32  1  0
 12 33  1  0
 13 34  1  0
 14 35  1  0
 15 36  1  0
 16 37  1  0
 20 38  1  0
 20 39  1  0
 21 40  1  0
 21 41  1  0
 21 42  1  0
 22 43  1  0
 22 44  1  0
 23 45  1  0
 23 46  1  0
 23 47  1  0
M  END
>  <UniqueID>  (1) 
1

>  <SMILES>  (1) 
CC[C@@H]1C(=O)c2c(oc(-c3ccccc3)cc2=O)C(CC)(CC)C1=O

>  <Energy>  (1) 
64.07243049574582

>  <Genealogy>  (1) 
CC[C@@H]1C(=O)c2c(oc(-c3ccccc3)cc2=O)C(CC)(CC)C1=O (chirality)
CC[C@@H]1C(=O)c2c(oc(-c3ccccc3)cc2=O)C(CC)(CC)C1=O (3D coordinates assigned)
CC[C@@H]1C(=O)c2c(oc(-c3ccccc3)cc2=O)C(CC)(CC)C1=O (nonaromatic ring conformer: 64.07243049574582 kcal/mol)

>  <smiles>  (1) 
CCC1C(=O)c2c(oc(-c3ccccc3)cc2=O)C(CC)(CC)C1=O

>  <score_type>  (1) 
oracle

>  <origin>  (1) 
adgpu

>  <m_score__min__energy>  (1) 
-8.9000000000000004

>  <m_primary>  (1) 
energy

$$$$
1:0
     RDKit          3D

 50 52  0  0  0  0  0  0  0  0999 V2000
   -6.1400   25.6560  -29.6510 C   0  0  0  0  0  0  0  0  0  0  0  0
   -5.1960   24.7970  -30.4840 C   0  0  0  0  0  0  0  0  0  0  0  0
   -3.8200   25.2680  -30.3570 N   0  0  0  0  0  0  0  0  0  0  0  0
   -2.8260   24.6970  -29.4980 C   0  0  0  0  0  0  0  0  0  0  0  0
   -1.9800   25.4540  -28.9590 O   0  0  0  0  0  0  0  0  0  0  0  0
   -2.8090   23.2570  -29.1840 C   0  0  0  0  0  0  0  0  0  0  0  0
   -2.7620   22.8650  -27.8380 C   0  0  0  0  0  0  0  0  0  0  0  0
   -2.8410   21.5140  -27.4920 C   0  0  0  0  0  0  0  0  0  0  0  0
   -2.9840   20.5450  -28.4870 C   0  0  0  0  0  0  0  0  0  0  0  0
   -3.0310   20.9230  -29.8300 C   0  0  0  0  0  0  0  0  0  0  0  0
   -2.9100   22.2710  -30.1940 C   0  0  0  0  0  0  0  0  0  0  0  0
   -2.9870   22.6120  -31.5850 N   0  0  0  0  0  0  0  0  0  0  0  0
   -3.7450   21.9080  -32.5790 C   0  0  0  0  0  0  0  0  0  0  0  0
   -3.1980   21.6710  -33.6890 O   0  0  0  0  0  0  0  0  0  0  0  0
   -5.1560   21.4990  -32.3620 C   0  0  0  0  0  0  0  0  0  0  0  0
   -6.1820   22.4560  -32.2640 C   0  0  0  0  0  0  0  0  0  0  0  0
   -7.5100   22.0570  -32.1000 C   0  0  0  0  0  0  0  0  0  0  0  0
   -7.8350   20.7000  -32.0560 C   0  0  0  0  0  0  0  0  0  0  0  0
   -6.8300   19.7310  -32.1660 C   0  0  0  0  0  0  0  0  0  0  0  0
   -7.2520   18.0170  -32.1770 S   0  0  0  0  0  0  0  0  0  0  0  0
   -8.7380   17.8820  -31.9930 O   0  0  0  0  0  0  0  0  0  0  0  0
   -6.5860   17.3420  -31.0100 O   0  0  0  0  0  0  0  0  0  0  0  0
   -6.7800   17.2090  -33.6550 N   0  0  0  0  0  0  0  0  0  0  0  0
   -6.0930   18.1090  -34.6080 C   0  0  0  0  0  0  0  0  0  0  0  0
   -4.5840   17.8460  -34.6920 C   0  0  0  0  0  0  0  0  0  0  0  0
   -4.0960   17.4500  -33.4310 O   0  0  0  0  0  0  0  0  0  0  0  0
   -4.5510   16.1450  -33.1350 C   0  0  0  0  0  0  0  0  0  0  0  0
   -6.0630   15.9440  -33.4030 C   0  0  0  0  0  0  0  0  0  0  0  0
   -5.4950   20.1330  -32.3190 C   0  0  0  0  0  0  0  0  0  0  0  0
   -5.9479   25.4812  -28.5821 H   0  0  0  0  0  0  0  0  0  0  0  0
   -5.9723   26.7177  -29.8848 H   0  0  0  0  0  0  0  0  0  0  0  0
   -7.1812   25.3891  -29.8848 H   0  0  0  0  0  0  0  0  0  0  0  0
   -5.2543   23.7552  -30.1359 H   0  0  0  0  0  0  0  0  0  0  0  0
   -5.4963   24.8647  -31.5401 H   0  0  0  0  0  0  0  0  0  0  0  0
   -2.6623   23.6261  -27.0501 H   0  0  0  0  0  0  0  0  0  0  0  0
   -2.7905   21.2134  -26.4351 H   0  0  0  0  0  0  0  0  0  0  0  0
   -3.0597   19.4825  -28.2123 H   0  0  0  0  0  0  0  0  0  0  0  0
   -3.1640   20.1572  -30.6083 H   0  0  0  0  0  0  0  0  0  0  0  0
   -5.9364   23.5269  -32.3170 H   0  0  0  0  0  0  0  0  0  0  0  0
   -8.3024   22.8141  -32.0052 H   0  0  0  0  0  0  0  0  0  0  0  0
   -8.8837   20.3910  -31.9346 H   0  0  0  0  0  0  0  0  0  0  0  0
   -6.5311   17.9640  -35.6065 H   0  0  0  0  0  0  0  0  0  0  0  0
   -6.2300   19.1393  -34.2479 H   0  0  0  0  0  0  0  0  0  0  0  0
   -4.3930   17.0477  -35.4243 H   0  0  0  0  0  0  0  0  0  0  0  0
   -4.0723   18.7679  -35.0055 H   0  0  0  0  0  0  0  0  0  0  0  0
   -3.9892   15.4311  -33.7552 H   0  0  0  0  0  0  0  0  0  0  0  0
   -4.3877   15.9808  -32.0596 H   0  0  0  0  0  0  0  0  0  0  0  0
   -6.1791   15.2946  -34.2832 H   0  0  0  0  0  0  0  0  0  0  0  0
   -6.4992   15.4945  -32.4987 H   0  0  0  0  0  0  0  0  0  0  0  0
   -4.7045   19.3731  -32.4063 H   0  0  0  0  0  0  0  0  0  0  0  0
  1  2  1  0
  2  3  1  0
  3  4  1  0
  4  5  2  0
  4  6  1  0
  6  7  2  0
  7  8  1  0
  8  9  2  0
  9 10  1  0
 10 11  2  0
 11 12  1  0
 12 13  1  0
 13 14  2  0
 13 15  1  0
 15 16  2  0
 16 17  1  0
 17 18  2  0
 18 19  1  0
 19 20  1  0
 20 21  2  0
 20 22  2  0
 20 23  1  0
 23 24  1  0
 24 25  1  0
 25 26  1  0
 26 27  1  0
 27 28  1  0
 19 29  2  0
 11  6  1  0
 29 15  1  0
 28 23  1  0
  1 30  1  0
  1 31  1  0
  1 32  1  0
  2 33  1  0
  2 34  1  0
  7 35  1  0
  8 36  1  0
  9 37  1  0
 10 38  1  0
 16 39  1  0
 17 40  1  0
 18 41  1  0
 24 42  1  0
 24 43  1  0
 25 44  1  0
 25 45  1  0
 27 46  1  0
 27 47  1  0
 28 48  1  0
 28 49  1  0
 29 50  1  0
M  CHG  2   3  -1  12  -1
M  END
>  <UniqueID>  (2) 
2

>  <SMILES>  (2) 
CC[N-]C(=O)c1ccccc1[N-]C(=O)c1cccc(S(=O)(=O)N2CCOCC2)c1

>  <Energy>  (2) 
74.91773478109558

>  <Genealogy>  (2) 
CC[N-]C(=O)c1ccccc1[N-]C(=O)c1cccc(S(=O)(=O)N2CCOCC2)c1 (protonated)
CC[N-]C(=O)c1ccccc1[N-]C(=O)c1cccc(S(=O)(=O)N2CCOCC2)c1 (3D coordinates assigned)
CC[N-]C(=O)c1ccccc1[N-]C(=O)c1cccc(S(=O)(=O)N2CCOCC2)c1 (nonaromatic ring conformer: 74.91773478109558 kcal/mol)

>  <smiles>  (2) 
CCNC(=O)c1ccccc1NC(=O)c1cccc(S(=O)(=O)N2CCOCC2)c1

>  <score_type>  (2) 
oracle

>  <origin>  (2) 
adgpu

>  <m_score__min__energy>  (2) 
-11.640000000000001

>  <m_primary>  (2) 
energy

$$$$
2:0
     RDKit          3D

 53 56  0  0  0  0  0  0  0  0999 V2000
   -6.0023   18.6603  -35.8746 H   0  0  0  0  0  0  0  0  0  0  0  0
   -5.5290   17.9190  -35.2140 C   0  0  0  0  0  0  0  0  0  0  0  0
   -4.4120   17.2120  -35.6580 C   0  0  0  0  0  0  0  0  0  0  0  0
   -4.0090   17.4137  -36.6614 H   0  0  0  0  0  0  0  0  0  0  0  0
   -3.7890   16.2420  -34.8430 C   0  0  0  0  0  0  0  0  0  0  0  0
   -2.6130   15.5060  -35.3080 N   0  0  0  0  0  0  0  0  0  0  0  0
   -1.3780   15.5270  -34.4930 C   0  0  0  0  0  0  0  0  0  0  0  0
   -1.0137   16.5636  -34.4408 H   0  0  0  0  0  0  0  0  0  0  0  0
   -1.6385   15.1240  -33.5032 H   0  0  0  0  0  0  0  0  0  0  0  0
   -0.2570   14.6480  -35.0540 C   0  0  0  0  0  0  0  0  0  0  0  0
    0.7069   14.9951  -34.6534 H   0  0  0  0  0  0  0  0  0  0  0  0
   -0.4460   13.6063  -34.7554 H   0  0  0  0  0  0  0  0  0  0  0  0
   -0.2210   14.7120  -36.4600 O   0  0  0  0  0  0  0  0  0  0  0  0
   -1.3680   14.0690  -36.9620 C   0  0  0  0  0  0  0  0  0  0  0  0
   -1.2729   13.9629  -38.0527 H   0  0  0  0  0  0  0  0  0  0  0  0
   -1.4537   13.0813  -36.4855 H   0  0  0  0  0  0  0  0  0  0  0  0
   -2.6310   14.8760  -36.6450 C   0  0  0  0  0  0  0  0  0  0  0  0
   -2.7359   15.6682  -37.4009 H   0  0  0  0  0  0  0  0  0  0  0  0
   -3.4749   14.1705  -36.6569 H   0  0  0  0  0  0  0  0  0  0  0  0
   -4.3540   15.9970  -33.5700 C   0  0  0  0  0  0  0  0  0  0  0  0
   -3.9035   15.2329  -32.9194 H   0  0  0  0  0  0  0  0  0  0  0  0
   -5.4810   16.7100  -33.1170 C   0  0  0  0  0  0  0  0  0  0  0  0
   -6.0570   16.4730  -31.8570 O   0  0  0  0  0  0  0  0  0  0  0  0
   -6.1260   17.4290  -30.8030 C   0  0  0  0  0  0  0  0  0  0  0  0
   -6.0885   16.9098  -29.8340 H   0  0  0  0  0  0  0  0  0  0  0  0
   -5.2756   18.1223  -30.8806 H   0  0  0  0  0  0  0  0  0  0  0  0
   -7.0672   17.9930  -30.8806 H   0  0  0  0  0  0  0  0  0  0  0  0
   -6.0550   17.6940  -33.9330 C   0  0  0  0  0  0  0  0  0  0  0  0
   -7.2180   18.3940  -33.4570 N   0  0  0  0  0  0  0  0  0  0  0  0
   -7.2270   19.5360  -32.8360 C   0  0  0  0  0  0  0  0  0  0  0  0
   -6.1500   20.2040  -32.4870 O   0  0  0  0  0  0  0  0  0  0  0  0
   -6.5560   21.2900  -31.8680 C   0  0  0  0  0  0  0  0  0  0  0  0
   -5.6440   22.3200  -31.3190 C   0  0  0  0  0  0  0  0  0  0  0  0
   -4.2740   22.0630  -31.1340 C   0  0  0  0  0  0  0  0  0  0  0  0
   -3.8640   21.0780  -31.4020 H   0  0  0  0  0  0  0  0  0  0  0  0
   -3.4240   23.0500  -30.6110 C   0  0  0  0  0  0  0  0  0  0  0  0
   -1.9610   22.7660  -30.4210 C   0  0  0  0  0  0  0  0  0  0  0  0
   -1.7327   22.7217  -29.3459 H   0  0  0  0  0  0  0  0  0  0  0  0
   -1.7107   21.8025  -30.8890 H   0  0  0  0  0  0  0  0  0  0  0  0
   -1.3684   23.5659  -30.8890 H   0  0  0  0  0  0  0  0  0  0  0  0
   -3.9490   24.3100  -30.2740 C   0  0  0  0  0  0  0  0  0  0  0  0
   -3.1100   25.2950  -29.7590 O   0  0  0  0  0  0  0  0  0  0  0  0
   -5.3160   24.5780  -30.4530 C   0  0  0  0  0  0  0  0  0  0  0  0
   -5.8760   25.9250  -30.0920 C   0  0  0  0  0  0  0  0  0  0  0  0
   -5.9170   26.0236  -28.9972 H   0  0  0  0  0  0  0  0  0  0  0  0
   -5.2311   26.7135  -30.5073 H   0  0  0  0  0  0  0  0  0  0  0  0
   -6.8898   26.0239  -30.5073 H   0  0  0  0  0  0  0  0  0  0  0  0
   -6.1550   23.5810  -30.9750 C   0  0  0  0  0  0  0  0  0  0  0  0
   -7.2256   23.7906  -31.1161 H   0  0  0  0  0  0  0  0  0  0  0  0
   -7.9420   21.2740  -31.8370 C   0  0  0  0  0  0  0  0  0  0  0  0
   -8.5875   22.0427  -31.3871 H   0  0  0  0  0  0  0  0  0  0  0  0
   -8.3590   20.1530  -32.4540 N   0  0  0  0  0  0  0  0  0  0  0  0
   -9.3430   19.8360  -32.5980 H   0  0  0  0  0  0  0  0  0  0  0  0
  1  2  1  0
  2  3  2  0
  3  4  1  0
  3  5  1  0
  5  6  1  0
  6  7  1  0
  7  8  1  0
  7  9  1  0
  7 10  1  0
 10 11  1  0
 10 12  1  0
 10 13  1  0
 13 14  1  0
 14 15  1  0
 14 16  1  0
 14 17  1  0
 17 18  1  0
 17 19  1  0
  5 20  2  0
 20 21  1  0
 20 22  1  0
 22 23  1  0
 23 24  1  0
 24 25  1  0
 24 26  1  0
 24 27  1  0
 22 28  2  0
 28 29  1  0
 29 30  2  0
 30 31  1  0
 31 32  1  0
 32 33  1  0
 33 34  2  0
 34 35  1  0
 34 36  1  0
 36 37  1  0
 37 38  1  0
 37 39  1  0
 37 40  1  0
 36 41  2  0
 41 42  1  0
 41 43  1  0
 43 44  1  0
 44 45  1  0
 44 46  1  0
 44 47  1  0
 43 48  2  0
 48 49  1  0
 32 50  2  0
 50 51  1  0
 50 52  1  0
 52 53  1  0
 28  2  1  0
 52 30  1  0
 17  6  1  0
 48 33  1  0
M  CHG  1  42  -1
M  END
>  <UniqueID>  (3) 
3

>  <SMILES>  (3) 
COc1cc(N2CCOCC2)ccc1/N=c1/[nH]cc(-c2cc(C)c([O-])c(C)c2)o1

>  <Energy>  (3) 
100.78577914122363

>  <Genealogy>  (3) 
COc1cc(N2CCOCC2)ccc1N=c1[nH]cc(-c2cc(C)c([O-])c(C)c2)o1 (protonated)
COc1cc(N2CCOCC2)ccc1/N=c1/[nH]cc(-c2cc(C)c([O-])c(C)c2)o1 (cis-trans isomerization)
COc1cc(N2CCOCC2)ccc1/N=c1/[nH]cc(-c2cc(C)c([O-])c(C)c2)o1 (3D coordinates assigned)
COc1cc(N2CCOCC2)ccc1/N=c1/[nH]cc(-c2cc(C)c([O-])c(C)c2)o1 (nonaromatic ring conformer: 100.78577914122363 kcal/mol)

>  <smiles>  (3) 
COc1cc(N2CCOCC2)ccc1N=c1[nH]cc(-c2cc(C)c(O)c(C)c2)o1

>  <score_type>  (3) 
oracle

>  <origin>  (3) 
adgpu

>  <m_score__min__energy>  (3) 
-10.27

>  <m_primary>  (3) 
energy

$$$$
3:0
     RDKit          3D

 52 55  0  0  0  0  0  0  0  0999 V2000
   -6.0290   17.5990  -33.7640 C   0  0  0  0  0  0  0  0  0  0  0  0
   -6.8670   18.6730  -33.1390 C   0  0  0  0  0  0  0  0  0  0  0  0
   -8.1510   18.3800  -32.6570 C   0  0  0  0  0  0  0  0  0  0  0  0
   -8.9410   19.3880  -32.1010 C   0  0  0  0  0  0  0  0  0  0  0  0
   -8.4730   20.7060  -32.0430 C   0  0  0  0  0  0  0  0  0  0  0  0
   -9.4730   21.9080  -31.2370 Cl  0  0  0  0  0  0  0  0  0  0  0  0
   -7.1980   21.0190  -32.5650 C   0  0  0  0  0  0  0  0  0  0  0  0
   -6.6810   22.3200  -32.5510 O   0  0  0  0  0  0  0  0  0  0  0  0
   -5.5420   22.7150  -31.8400 C   0  0  0  0  0  0  0  0  0  0  0  0
   -4.2280   22.5490  -32.2350 C   0  0  0  0  0  0  0  0  0  0  0  0
   -3.7380   21.9520  -33.4050 O   0  0  0  0  0  0  0  0  0  0  0  0
   -2.9110   20.7890  -33.4540 C   0  0  0  0  0  0  0  0  0  0  0  0
   -3.2120   19.9250  -32.2300 C   0  0  0  0  0  0  0  0  0  0  0  0
   -1.4330   21.1900  -33.4670 C   0  0  0  0  0  0  0  0  0  0  0  0
   -3.4130   23.0370  -31.2830 N   0  0  0  0  0  0  0  0  0  0  0  0
   -4.1600   23.5220  -30.2990 N   0  0  0  0  0  0  0  0  0  0  0  0
   -3.5910   24.1140  -29.1110 C   0  0  0  0  0  0  0  0  0  0  0  0
   -4.2480   24.0030  -27.8760 C   0  0  0  0  0  0  0  0  0  0  0  0
   -3.6860   24.5810  -26.7360 C   0  0  0  0  0  0  0  0  0  0  0  0
   -2.4600   25.2720  -26.8200 C   0  0  0  0  0  0  0  0  0  0  0  0
   -1.7700   25.9250  -25.6350 C   0  0  0  0  0  0  0  0  0  0  0  0
   -0.8670   25.0300  -24.7990 C   0  0  0  0  0  0  0  0  0  0  0  0
   -0.2590   26.1000  -25.6970 C   0  0  0  0  0  0  0  0  0  0  0  0
   -1.8450   25.3670  -28.0760 C   0  0  0  0  0  0  0  0  0  0  0  0
   -2.4160   24.7980  -29.1700 N   0  0  0  0  0  0  0  0  0  0  0  0
   -5.4720   23.3570  -30.6100 C   0  0  0  0  0  0  0  0  0  0  0  0
   -6.6320   23.8710  -29.8040 C   0  0  0  0  0  0  0  0  0  0  0  0
   -6.3990   19.9950  -33.0940 C   0  0  0  0  0  0  0  0  0  0  0  0
   -5.5580   16.9953  -32.9743 H   0  0  0  0  0  0  0  0  0  0  0  0
   -6.6651   16.9542  -34.3882 H   0  0  0  0  0  0  0  0  0  0  0  0
   -5.2489   18.0592  -34.3882 H   0  0  0  0  0  0  0  0  0  0  0  0
   -8.5373   17.3518  -32.7172 H   0  0  0  0  0  0  0  0  0  0  0  0
   -9.9383   19.1447  -31.7057 H   0  0  0  0  0  0  0  0  0  0  0  0
   -3.1209   20.2214  -34.3725 H   0  0  0  0  0  0  0  0  0  0  0  0
   -3.0109   20.5021  -31.3154 H   0  0  0  0  0  0  0  0  0  0  0  0
   -4.2690   19.6210  -32.2468 H   0  0  0  0  0  0  0  0  0  0  0  0
   -2.5727   19.0300  -32.2468 H   0  0  0  0  0  0  0  0  0  0  0  0
   -1.0706   21.2883  -32.4331 H   0  0  0  0  0  0  0  0  0  0  0  0
   -0.8482   20.4180  -33.9886 H   0  0  0  0  0  0  0  0  0  0  0  0
   -1.3186   22.1517  -33.9886 H   0  0  0  0  0  0  0  0  0  0  0  0
   -5.2033   23.4621  -27.8062 H   0  0  0  0  0  0  0  0  0  0  0  0
   -4.2020   24.4969  -25.7682 H   0  0  0  0  0  0  0  0  0  0  0  0
   -2.6150   26.5994  -25.4322 H   0  0  0  0  0  0  0  0  0  0  0  0
   -0.8364   25.1470  -23.7057 H   0  0  0  0  0  0  0  0  0  0  0  0
   -0.7375   23.9435  -24.6863 H   0  0  0  0  0  0  0  0  0  0  0  0
    0.2105   26.9898  -25.2522 H   0  0  0  0  0  0  0  0  0  0  0  0
    0.4912   26.1065  -26.5014 H   0  0  0  0  0  0  0  0  0  0  0  0
   -0.8919   25.9068  -28.1770 H   0  0  0  0  0  0  0  0  0  0  0  0
   -6.4065   23.7711  -28.7320 H   0  0  0  0  0  0  0  0  0  0  0  0
   -6.8053   24.9302  -30.0451 H   0  0  0  0  0  0  0  0  0  0  0  0
   -7.5330   23.2879  -30.0451 H   0  0  0  0  0  0  0  0  0  0  0  0
   -5.3953   20.2306  -33.4775 H   0  0  0  0  0  0  0  0  0  0  0  0
  1  2  1  0
  2  3  2  0
  3  4  1  0
  4  5  2  0
  5  6  1  0
  5  7  1  0
  7  8  1  0
  8  9  1  0
  9 10  1  0
 10 11  1  0
 11 12  1  0
 12 13  1  0
 12 14  1  0
 10 15  2  0
 15 16  1  0
 16 17  1  0
 17 18  2  0
 18 19  1  0
 19 20  2  0
 20 21  1  0
 21 22  1  0
 22 23  1  0
 20 24  1  0
 24 25  2  0
 16 26  1  0
 26 27  1  0
  7 28  2  0
 28  2  1  0
 26  9  2  0
 25 17  1  0
 23 21  1  0
  1 29  1  0
  1 30  1  0
  1 31  1  0
  3 32  1  0
  4 33  1  0
 12 34  1  0
 13 35  1  0
 13 36  1  0
 13 37  1  0
 14 38  1  0
 14 39  1  0
 14 40  1  0
 18 41  1  0
 19 42  1  0
 21 43  1  0
 22 44  1  0
 22 45  1  0
 23 46  1  0
 23 47  1  0
 24 48  1  0
 27 49  1  0
 27 50  1  0
 27 51  1  0
 28 52  1  0
M  END
>  <UniqueID>  (4) 
4

>  <SMILES>  (4) 
Cc1ccc(Cl)c(Oc2c(OC(C)C)nn(-c3ccc(C4CC4)cn3)c2C)c1

>  <Energy>  (4) 
361.48652810563533

>  <Genealogy>  (4) 
Cc1ccc(Cl)c(Oc2c(OC(C)C)nn(-c3ccc(C4CC4)cn3)c2C)c1 (3D coordinates assigned)
Cc1ccc(Cl)c(Oc2c(OC(C)C)nn(-c3ccc(C4CC4)cn3)c2C)c1 (nonaromatic ring conformer: 361.48652810563533 kcal/mol)

>  <smiles>  (4) 
Cc1ccc(Cl)c(Oc2c(OC(C)C)nn(-c3ccc(C4CC4)cn3)c2C)c1

>  <score_type>  (4) 
oracle

>  <origin>  (4) 
adgpu

>  <m_score__min__energy>  (4) 
-9.3300000000000001

>  <m_primary>  (4) 
energy

$$$$
4:0
     RDKit          3D

 53 56  0  0  0  0  0  0  0  0999 V2000
   -0.5285   27.1793  -28.9749 H   0  0  0  0  0  0  0  0  0  0  0  0
   -0.5220   26.8480  -27.9260 C   0  0  0  0  0  0  0  0  0  0  0  0
   -0.6550   27.7860  -26.8990 C   0  0  0  0  0  0  0  0  0  0  0  0
   -0.7342   28.8559  -27.1419 H   0  0  0  0  0  0  0  0  0  0  0  0
   -0.6880   27.3700  -25.5590 C   0  0  0  0  0  0  0  0  0  0  0  0
   -0.7900   28.3800  -24.4560 C   0  0  0  0  0  0  0  0  0  0  0  0
   -0.7383   27.8678  -23.4839 H   0  0  0  0  0  0  0  0  0  0  0  0
    0.0403   29.0969  -24.5374 H   0  0  0  0  0  0  0  0  0  0  0  0
   -1.7469   28.9164  -24.5374 H   0  0  0  0  0  0  0  0  0  0  0  0
   -0.5650   26.0040  -25.2600 C   0  0  0  0  0  0  0  0  0  0  0  0
   -0.5740   25.6698  -24.2120 H   0  0  0  0  0  0  0  0  0  0  0  0
   -0.4310   25.0660  -26.2890 C   0  0  0  0  0  0  0  0  0  0  0  0
   -0.3654   23.9948  -26.0476 H   0  0  0  0  0  0  0  0  0  0  0  0
   -0.3800   25.4830  -27.6240 C   0  0  0  0  0  0  0  0  0  0  0  0
   -0.2990   24.4960  -28.6630 N   0  0  0  0  0  0  0  0  0  0  0  0
   -1.2890   23.9600  -29.3210 C   0  0  0  0  0  0  0  0  0  0  0  0
   -1.0180   22.9600  -30.1960 N   0  0  0  0  0  0  0  0  0  0  0  0
   -2.0100   22.3720  -30.9150 C   0  0  0  0  0  0  0  0  0  0  0  0
   -1.7070   21.3030  -31.8350 N   0  0  0  0  0  0  0  0  0  0  0  0
   -2.7710   20.4380  -32.3700 C   0  0  0  0  0  0  0  0  0  0  0  0
   -2.7493   19.4712  -31.8457 H   0  0  0  0  0  0  0  0  0  0  0  0
   -3.7418   20.9317  -32.2156 H   0  0  0  0  0  0  0  0  0  0  0  0
   -2.5680   20.2020  -33.8730 C   0  0  0  0  0  0  0  0  0  0  0  0
   -3.2029   19.3579  -34.1804 H   0  0  0  0  0  0  0  0  0  0  0  0
   -2.8366   21.1385  -34.3836 H   0  0  0  0  0  0  0  0  0  0  0  0
   -1.1070   19.8800  -34.2620 C   0  0  0  0  0  0  0  0  0  0  0  0
   -1.0924   18.9205  -34.7998 H   0  0  0  0  0  0  0  0  0  0  0  0
   -0.7457   20.7109  -34.8858 H   0  0  0  0  0  0  0  0  0  0  0  0
   -0.1670   19.7760  -33.0570 C   0  0  0  0  0  0  0  0  0  0  0  0
   -0.4222   18.8772  -32.4765 H   0  0  0  0  0  0  0  0  0  0  0  0
    0.8691   19.7138  -33.4211 H   0  0  0  0  0  0  0  0  0  0  0  0
   -0.3000   21.0100  -32.1580 C   0  0  0  0  0  0  0  0  0  0  0  0
    0.2499   20.8298  -31.2225 H   0  0  0  0  0  0  0  0  0  0  0  0
    0.1132   21.8736  -32.6998 H   0  0  0  0  0  0  0  0  0  0  0  0
   -3.2860   22.8040  -30.7550 N   0  0  0  0  0  0  0  0  0  0  0  0
   -3.5790   23.8110  -29.8900 C   0  0  0  0  0  0  0  0  0  0  0  0
   -4.7980   24.2530  -29.7660 N   0  0  0  0  0  0  0  0  0  0  0  0
   -5.9750   23.7250  -30.4010 C   0  0  0  0  0  0  0  0  0  0  0  0
   -6.7930   22.8490  -29.6790 C   0  0  0  0  0  0  0  0  0  0  0  0
   -6.5371   22.5950  -28.6398 H   0  0  0  0  0  0  0  0  0  0  0  0
   -7.9330   22.2940  -30.2680 C   0  0  0  0  0  0  0  0  0  0  0  0
   -8.5715   21.6111  -29.6884 H   0  0  0  0  0  0  0  0  0  0  0  0
   -8.2660   22.6040  -31.5940 C   0  0  0  0  0  0  0  0  0  0  0  0
   -9.4670   21.9760  -32.2380 C   0  0  0  0  0  0  0  0  0  0  0  0
  -10.1549   21.6163  -31.4586 H   0  0  0  0  0  0  0  0  0  0  0  0
   -9.9794   22.7216  -32.8637 H   0  0  0  0  0  0  0  0  0  0  0  0
   -9.1471   21.1298  -32.8637 H   0  0  0  0  0  0  0  0  0  0  0  0
   -7.4210   23.4410  -32.3380 C   0  0  0  0  0  0  0  0  0  0  0  0
   -7.6564   23.6619  -33.3896 H   0  0  0  0  0  0  0  0  0  0  0  0
   -6.2800   23.9960  -31.7480 C   0  0  0  0  0  0  0  0  0  0  0  0
   -5.6189   24.6466  -32.3393 H   0  0  0  0  0  0  0  0  0  0  0  0
   -2.5760   24.4010  -29.1840 N   0  0  0  0  0  0  0  0  0  0  0  0
   -2.8110   25.2130  -28.5710 H   0  0  0  0  0  0  0  0  0  0  0  0
  1  2  1  0
  2  3  2  0
  3  4  1  0
  3  5  1  0
  5  6  1  0
  6  7  1  0
  6  8  1  0
  6  9  1  0
  5 10  2  0
 10 11  1  0
 10 12  1  0
 12 13  1  0
 12 14  2  0
 14 15  1  0
 15 16  2  0
 16 17  1  0
 17 18  1  0
 18 19  1  0
 19 20  1  0
 20 21  1  0
 20 22  1  0
 20 23  1  0
 23 24  1  0
 23 25  1  0
 23 26  1  0
 26 27  1  0
 26 28  1  0
 26 29  1  0
 29 30  1  0
 29 31  1  0
 29 32  1  0
 32 33  1  0
 32 34  1  0
 18 35  2  0
 35 36  1  0
 36 37  2  0
 37 38  1  0
 38 39  2  0
 39 40  1  0
 39 41  1  0
 41 42  1  0
 41 43  2  0
 43 44  1  0
 44 45  1  0
 44 46  1  0
 44 47  1  0
 43 48  1  0
 48 49  1  0
 48 50  2  0
 50 51  1  0
 36 52  1  0
 52 53  1  0
 14  2  1  0
 52 16  1  0
 32 19  1  0
 50 38  1  0
M  CHG  1  17  -1
M  END
>  <UniqueID>  (5) 
5

>  <SMILES>  (5) 
Cc1ccc(/N=c2/[n-]c(N3CCCCC3)n/c(=N\c3ccc(C)cc3)[nH]2)cc1

>  <Energy>  (5) 
70.59389093644347

>  <Genealogy>  (5) 
Cc1ccc(N=c2nc(N3CCCCC3)[n-]c(=Nc3ccc(C)cc3)[nH]2)cc1 (protonated)
Cc1ccc(/N=c2/[n-]c(N3CCCCC3)n/c(=N\c3ccc(C)cc3)[nH]2)cc1 (cis-trans isomerization)
Cc1ccc(/N=c2/[n-]c(N3CCCCC3)n/c(=N\c3ccc(C)cc3)[nH]2)cc1 (3D coordinates assigned)
Cc1ccc(/N=c2/[n-]c(N3CCCCC3)n/c(=N\c3ccc(C)cc3)[nH]2)cc1 (nonaromatic ring conformer: 70.59389093644347 kcal/mol)

>  <smiles>  (5) 
Cc1ccc(N=c2nc(N3CCCCC3)[nH]c(=Nc3ccc(C)cc3)[nH]2)cc1

>  <score_type>  (5) 
oracle

>  <origin>  (5) 
adgpu

>  <m_score__min__energy>  (5) 
-9.1999999999999993

>  <m_primary>  (5) 
energy

$$$$
5:0
     RDKit          3D

 60 63  0  0  0  0  0  0  0  0999 V2000
   -6.0890   25.3610  -29.7550 C   0  0  0  0  0  0  0  0  0  0  0  0
   -4.7590   24.8850  -30.2350 C   0  0  0  0  0  0  0  0  0  0  0  0
   -4.0000   25.6750  -30.8590 O   0  0  0  0  0  0  0  0  0  0  0  0
   -4.3260   23.5610  -29.9020 N   0  0  0  0  0  0  0  0  0  0  0  0
   -3.6030   22.6610  -30.7550 C   0  0  0  0  0  0  0  0  0  0  0  0
   -3.9200   22.5070  -32.1170 C   0  0  0  0  0  0  0  0  0  0  0  0
   -3.2160   21.5920  -32.9040 C   0  0  0  0  0  0  0  0  0  0  0  0
   -2.1920   20.8200  -32.3420 C   0  0  0  0  0  0  0  0  0  0  0  0
   -1.3460   19.6230  -33.3160 S   0  0  0  0  0  0  0  0  0  0  0  0
   -1.3910   19.9970  -34.7710 O   0  0  0  0  0  0  0  0  0  0  0  0
    0.0920   19.5480  -32.8850 O   0  0  0  0  0  0  0  0  0  0  0  0
   -2.0970   18.0850  -33.0720 N   0  0  0  0  0  0  0  0  0  0  0  0
   -3.4580   17.8620  -33.4400 C   0  0  0  0  0  0  0  0  0  0  0  0
   -4.4550   18.7110  -32.9430 C   0  0  0  0  0  0  0  0  0  0  0  0
   -5.8070   18.4950  -33.2600 C   0  0  0  0  0  0  0  0  0  0  0  0
   -6.8580   19.4040  -32.7340 C   0  0  0  0  0  0  0  0  0  0  0  0
   -8.0990   18.8930  -32.3220 C   0  0  0  0  0  0  0  0  0  0  0  0
   -9.0870   19.7460  -31.8280 C   0  0  0  0  0  0  0  0  0  0  0  0
   -8.8580   21.1220  -31.7350 C   0  0  0  0  0  0  0  0  0  0  0  0
   -9.8800   21.9310  -31.2330 O   0  0  0  0  0  0  0  0  0  0  0  0
   -7.6150   21.6540  -32.1440 C   0  0  0  0  0  0  0  0  0  0  0  0
   -7.3370   23.1300  -32.0630 C   0  0  0  0  0  0  0  0  0  0  0  0
   -6.6250   20.7870  -32.6400 C   0  0  0  0  0  0  0  0  0  0  0  0
   -6.1470   17.4090  -34.0820 C   0  0  0  0  0  0  0  0  0  0  0  0
   -5.1570   16.5580  -34.5790 C   0  0  0  0  0  0  0  0  0  0  0  0
   -3.8060   16.7750  -34.2680 C   0  0  0  0  0  0  0  0  0  0  0  0
   -2.8070   15.8550  -34.7540 N   0  0  0  0  0  0  0  0  0  0  0  0
   -1.9330   15.1320  -33.8230 C   0  0  0  0  0  0  0  0  0  0  0  0
   -0.5050   15.0220  -34.3900 C   0  0  0  0  0  0  0  0  0  0  0  0
   -0.4370   14.8010  -35.8520 N   0  0  0  0  0  0  0  0  0  0  0  0
   -1.7240   14.4390  -36.4600 C   0  0  0  0  0  0  0  0  0  0  0  0
   -2.7710   15.5220  -36.1810 C   0  0  0  0  0  0  0  0  0  0  0  0
   -1.8950   20.9500  -30.9800 C   0  0  0  0  0  0  0  0  0  0  0  0
   -2.6000   21.8620  -30.1910 C   0  0  0  0  0  0  0  0  0  0  0  0
   -6.1017   25.3656  -28.6551 H   0  0  0  0  0  0  0  0  0  0  0  0
   -6.2703   26.3798  -30.1280 H   0  0  0  0  0  0  0  0  0  0  0  0
   -6.8756   24.6886  -30.1280 H   0  0  0  0  0  0  0  0  0  0  0  0
   -4.7249   23.1090  -32.5639 H   0  0  0  0  0  0  0  0  0  0  0  0
   -3.4671   21.4777  -33.9688 H   0  0  0  0  0  0  0  0  0  0  0  0
   -4.1765   19.5567  -32.2970 H   0  0  0  0  0  0  0  0  0  0  0  0
   -8.2941   17.8125  -32.3890 H   0  0  0  0  0  0  0  0  0  0  0  0
  -10.0548   19.3318  -31.5089 H   0  0  0  0  0  0  0  0  0  0  0  0
  -10.2290   21.8560  -30.2860 H   0  0  0  0  0  0  0  0  0  0  0  0
   -7.2796   23.4349  -31.0077 H   0  0  0  0  0  0  0  0  0  0  0  0
   -6.3814   23.3510  -32.5610 H   0  0  0  0  0  0  0  0  0  0  0  0
   -8.1467   23.6835  -32.5610 H   0  0  0  0  0  0  0  0  0  0  0  0
   -5.6552   21.1967  -32.9587 H   0  0  0  0  0  0  0  0  0  0  0  0
   -7.2014   17.2267  -34.3368 H   0  0  0  0  0  0  0  0  0  0  0  0
   -5.4391   15.7099  -35.2201 H   0  0  0  0  0  0  0  0  0  0  0  0
   -1.9005   15.6719  -32.8652 H   0  0  0  0  0  0  0  0  0  0  0  0
   -2.3342   14.1183  -33.6765 H   0  0  0  0  0  0  0  0  0  0  0  0
    0.0285   15.9558  -34.1591 H   0  0  0  0  0  0  0  0  0  0  0  0
   -0.0506   14.1374  -33.9199 H   0  0  0  0  0  0  0  0  0  0  0  0
   -0.0950   15.6800  -36.3110 H   0  0  0  0  0  0  0  0  0  0  0  0
   -1.5939   14.3324  -37.5471 H   0  0  0  0  0  0  0  0  0  0  0  0
   -2.0690   13.4893  -36.0252 H   0  0  0  0  0  0  0  0  0  0  0  0
   -2.5180   16.4250  -36.7559 H   0  0  0  0  0  0  0  0  0  0  0  0
   -3.7593   15.1427  -36.4799 H   0  0  0  0  0  0  0  0  0  0  0  0
   -1.1041   20.3321  -30.5298 H   0  0  0  0  0  0  0  0  0  0  0  0
   -2.3661   21.9534  -29.1200 H   0  0  0  0  0  0  0  0  0  0  0  0
  1  2  1  0
  2  3  2  0
  2  4  1  0
  4  5  1  0
  5  6  2  0
  6  7  1  0
  7  8  2  0
  8  9  1  0
  9 10  2  0
  9 11  2  0
  9 12  1  0
 12 13  1  0
 13 14  2  0
 14 15  1  0
 15 16  1  0
 16 17  2  0
 17 18  1  0
 18 19  2  0
 19 20  1  0
 19 21  1  0
 21 22  1  0
 21 23  2  0
 15 24  2  0
 24 25  1  0
 25 26  2  0
 26 27  1  0
 27 28  1  0
 28 29  1  0
 29 30  1  0
 30 31  1  0
 31 32  1  0
  8 33  1  0
 33 34  2  0
 34  5  1  0
 26 13  1  0
 32 27  1  0
 23 16  1  0
  1 35  1  0
  1 36  1  0
  1 37  1  0
  6 38  1  0
  7 39  1  0
 14 40  1  0
 17 41  1  0
 18 42  1  0
 20 43  1  0
 22 44  1  0
 22 45  1  0
 22 46  1  0
 23 47  1  0
 24 48  1  0
 25 49  1  0
 28 50  1  0
 28 51  1  0
 29 52  1  0
 29 53  1  0
 30 54  1  0
 31 55  1  0
 31 56  1  0
 32 57  1  0
 32 58  1  0
 33 59  1  0
 34 60  1  0
M  CHG  2   4  -1  12  -1
M  END
>  <UniqueID>  (6) 
6

>  <SMILES>  (6) 
CC(=O)[N-]c1ccc(S(=O)(=O)[N-]c2cc(-c3ccc(O)c(C)c3)ccc2N2CCNCC2)cc1

>  <Energy>  (6) 
84.85913560139795

>  <Genealogy>  (6) 
CC(=O)[N-]c1ccc(S(=O)(=O)[N-]c2cc(-c3ccc(O)c(C)c3)ccc2N2CCNCC2)cc1 (protonated)
CC(=O)[N-]c1ccc(S(=O)(=O)[N-]c2cc(-c3ccc(O)c(C)c3)ccc2N2CCNCC2)cc1 (3D coordinates assigned)
CC(=O)[N-]c1ccc(S(=O)(=O)[N-]c2cc(-c3ccc(O)c(C)c3)ccc2N2CCNCC2)cc1 (nonaromatic ring conformer: 84.85913560139795 kcal/mol)

>  <smiles>  (6) 
CC(=O)Nc1ccc(S(=O)(=O)Nc2cc(-c3ccc(O)c(C)c3)ccc2N2CCNCC2)cc1

>  <score_type>  (6) 
oracle

>  <origin>  (6) 
adgpu

>  <m_score__min__energy>  (6) 
-11.68

>  <m_primary>  (6) 
energy

$$$$
6:0
     RDKit          3D

 55 58  0  0  0  0  0  0  0  0999 V2000
   -1.1220   20.2440  -33.8630 O   0  0  0  0  0  0  0  0  0  0  0  0
   -1.9220   19.6590  -33.0830 C   0  0  0  0  0  0  0  0  0  0  0  0
   -1.6940   19.6840  -31.6670 N   0  0  0  0  0  0  0  0  0  0  0  0
   -1.8340   20.8100  -30.7880 C   0  0  0  0  0  0  0  0  0  0  0  0
   -0.8700   21.8250  -30.8420 C   0  0  0  0  0  0  0  0  0  0  0  0
   -0.9520   22.9280  -29.9890 C   0  0  0  0  0  0  0  0  0  0  0  0
   -2.0000   23.0290  -29.0640 C   0  0  0  0  0  0  0  0  0  0  0  0
   -2.0970   24.4210  -27.9780 S   0  0  0  0  0  0  0  0  0  0  0  0
   -1.9080   25.6790  -28.7780 O   0  0  0  0  0  0  0  0  0  0  0  0
   -3.4660   24.4650  -27.3620 O   0  0  0  0  0  0  0  0  0  0  0  0
   -0.9010   24.3740  -26.7050 N   0  0  0  0  0  0  0  0  0  0  0  0
   -1.2830   25.2000  -25.5630 C   0  0  0  0  0  0  0  0  0  0  0  0
   -0.5370   24.6350  -24.3690 C   0  0  0  0  0  0  0  0  0  0  0  0
   -0.2870   23.1760  -24.7190 C   0  0  0  0  0  0  0  0  0  0  0  0
   -0.7160   23.0250  -26.1730 C   0  0  0  0  0  0  0  0  0  0  0  0
   -2.9480   22.0010  -28.9830 C   0  0  0  0  0  0  0  0  0  0  0  0
   -2.8650   20.8950  -29.8360 C   0  0  0  0  0  0  0  0  0  0  0  0
   -3.0730   18.9050  -33.6330 C   0  0  0  0  0  0  0  0  0  0  0  0
   -2.8990   17.6040  -34.1370 C   0  0  0  0  0  0  0  0  0  0  0  0
   -3.9860   16.8930  -34.6460 C   0  0  0  0  0  0  0  0  0  0  0  0
   -5.2590   17.4640  -34.6590 C   0  0  0  0  0  0  0  0  0  0  0  0
   -5.4600   18.7650  -34.1630 C   0  0  0  0  0  0  0  0  0  0  0  0
   -6.7580   19.3870  -34.1580 N   0  0  0  0  0  0  0  0  0  0  0  0
   -7.6570   19.7540  -32.7190 S   0  0  0  0  0  0  0  0  0  0  0  0
   -7.4300   18.6720  -31.7010 O   0  0  0  0  0  0  0  0  0  0  0  0
   -9.1220   19.8060  -33.0500 O   0  0  0  0  0  0  0  0  0  0  0  0
   -7.1070   21.2860  -32.0500 C   0  0  0  0  0  0  0  0  0  0  0  0
   -8.0370   22.2960  -31.7710 C   0  0  0  0  0  0  0  0  0  0  0  0
   -7.6140   23.5100  -31.2200 C   0  0  0  0  0  0  0  0  0  0  0  0
   -6.2590   23.7210  -30.9470 C   0  0  0  0  0  0  0  0  0  0  0  0
   -5.6810   25.3770  -30.1910 Br  0  0  0  0  0  0  0  0  0  0  0  0
   -5.3270   22.7160  -31.2270 C   0  0  0  0  0  0  0  0  0  0  0  0
   -5.7470   21.5020  -31.7790 C   0  0  0  0  0  0  0  0  0  0  0  0
   -4.3600   19.4760  -33.6530 C   0  0  0  0  0  0  0  0  0  0  0  0
   -0.0416   21.7528  -31.5621 H   0  0  0  0  0  0  0  0  0  0  0  0
   -0.1911   23.7205  -30.0435 H   0  0  0  0  0  0  0  0  0  0  0  0
   -0.9924   26.2470  -25.7345 H   0  0  0  0  0  0  0  0  0  0  0  0
   -2.3710   25.1854  -25.4016 H   0  0  0  0  0  0  0  0  0  0  0  0
    0.4148   25.1661  -24.2206 H   0  0  0  0  0  0  0  0  0  0  0  0
   -1.1068   24.7451  -23.4345 H   0  0  0  0  0  0  0  0  0  0  0  0
    0.7794   22.9311  -24.6057 H   0  0  0  0  0  0  0  0  0  0  0  0
   -0.8446   22.4970  -24.0572 H   0  0  0  0  0  0  0  0  0  0  0  0
    0.0621   22.4970  -26.7438 H   0  0  0  0  0  0  0  0  0  0  0  0
   -1.6451   22.4412  -26.2501 H   0  0  0  0  0  0  0  0  0  0  0  0
   -3.7616   22.0635  -28.2453 H   0  0  0  0  0  0  0  0  0  0  0  0
   -3.6095   20.0887  -29.7614 H   0  0  0  0  0  0  0  0  0  0  0  0
   -1.8998   17.1440  -34.1299 H   0  0  0  0  0  0  0  0  0  0  0  0
   -3.8386   15.8764  -35.0394 H   0  0  0  0  0  0  0  0  0  0  0  0
   -6.1102   16.8937  -35.0593 H   0  0  0  0  0  0  0  0  0  0  0  0
   -7.2190   19.6060  -35.0690 H   0  0  0  0  0  0  0  0  0  0  0  0
   -9.1035   22.1337  -31.9860 H   0  0  0  0  0  0  0  0  0  0  0  0
   -8.3480   24.2995  -31.0012 H   0  0  0  0  0  0  0  0  0  0  0  0
   -4.2609   22.8813  -31.0123 H   0  0  0  0  0  0  0  0  0  0  0  0
   -5.0108   20.7154  -32.0011 H   0  0  0  0  0  0  0  0  0  0  0  0
   -4.5068   20.4942  -33.2635 H   0  0  0  0  0  0  0  0  0  0  0  0
  1  2  2  0
  2  3  1  0
  3  4  1  0
  4  5  2  0
  5  6  1  0
  6  7  2  0
  7  8  1  0
  8  9  2  0
  8 10  2  0
  8 11  1  0
 11 12  1  0
 12 13  1  0
 13 14  1  0
 14 15  1  0
  7 16  1  0
 16 17  2  0
  2 18  1  0
 18 19  2  0
 19 20  1  0
 20 21  2  0
 21 22  1  0
 22 23  1  0
 23 24  1  0
 24 25  2  0
 24 26  2  0
 24 27  1  0
 27 28  2  0
 28 29  1  0
 29 30  2  0
 30 31  1  0
 30 32  1  0
 32 33  2  0
 22 34  2  0
 17  4  1  0
 34 18  1  0
 15 11  1  0
 33 27  1  0
  5 35  1  0
  6 36  1  0
 12 37  1  0
 12 38  1  0
 13 39  1  0
 13 40  1  0
 14 41  1  0
 14 42  1  0
 15 43  1  0
 15 44  1  0
 16 45  1  0
 17 46  1  0
 19 47  1  0
 20 48  1  0
 21 49  1  0
 23 50  1  0
 28 51  1  0
 29 52  1  0
 32 53  1  0
 33 54  1  0
 34 55  1  0
M  CHG  1   3  -1
M  END
>  <UniqueID>  (7) 
7

>  <SMILES>  (7) 
O=C([N-]c1ccc(S(=O)(=O)N2CCCC2)cc1)c1cccc(NS(=O)(=O)c2ccc(Br)cc2)c1

>  <Energy>  (7) 
66.64861738589195

>  <Genealogy>  (7) 
O=C([N-]c1ccc(S(=O)(=O)N2CCCC2)cc1)c1cccc(NS(=O)(=O)c2ccc(Br)cc2)c1 (protonated)
O=C([N-]c1ccc(S(=O)(=O)N2CCCC2)cc1)c1cccc(NS(=O)(=O)c2ccc(Br)cc2)c1 (3D coordinates assigned)
O=C([N-]c1ccc(S(=O)(=O)N2CCCC2)cc1)c1cccc(NS(=O)(=O)c2ccc(Br)cc2)c1 (nonaromatic ring conformer: 66.64861738589195 kcal/mol)

>  <smiles>  (7) 
O=C(Nc1ccc(S(=O)(=O)N2CCCC2)cc1)c1cccc(NS(=O)(=O)c2ccc(Br)cc2)c1

>  <score_type>  (7) 
oracle

>  <origin>  (7) 
adgpu

>  <m_score__min__energy>  (7) 
-12.19

>  <m_primary>  (7) 
energy

$$$$
7:0
     RDKit          3D

 58 61  0  0  0  0  0  0  0  0999 V2000
   -7.9010   19.5540  -33.7830 H   0  0  0  0  0  0  0  0  0  0  0  0
   -7.4470   20.4390  -33.7520 O   0  0  0  0  0  0  0  0  0  0  0  0
   -6.8260   20.5630  -32.4940 C   0  0  2  0  0  0  0  0  0  0  0  0
   -5.3190   20.5200  -32.7010 C   0  0  0  0  0  0  0  0  0  0  0  0
   -4.4270   21.2850  -32.0310 N   0  0  0  0  0  0  0  0  0  0  0  0
   -3.1440   21.0540  -32.4210 C   0  0  0  0  0  0  0  0  0  0  0  0
   -2.2876   21.5836  -31.9781 H   0  0  0  0  0  0  0  0  0  0  0  0
   -2.9950   20.0960  -33.4240 C   0  0  0  0  0  0  0  0  0  0  0  0
   -1.7230   19.6460  -34.0460 C   0  0  0  0  0  0  0  0  0  0  0  0
   -0.6380   20.5330  -34.1590 C   0  0  0  0  0  0  0  0  0  0  0  0
   -0.7460   21.5693  -33.8064 H   0  0  0  0  0  0  0  0  0  0  0  0
    0.5780   20.1160  -34.7140 C   0  0  0  0  0  0  0  0  0  0  0  0
    1.6530   21.0650  -34.8140 N   0  0  0  0  0  0  0  0  0  0  0  0
    1.5640   22.3040  -35.2000 C   0  0  0  0  0  0  0  0  0  0  0  0
    2.6780   23.0830  -35.1910 N   0  0  0  0  0  0  0  0  0  0  0  0
    2.6420   24.3790  -35.6070 C   0  0  0  0  0  0  0  0  0  0  0  0
    3.8900   25.2110  -35.5890 C   0  0  0  0  0  0  0  0  0  0  0  0
    4.6660   24.9050  -36.6920 F   0  0  0  0  0  0  0  0  0  0  0  0
    4.6230   24.9630  -34.4410 F   0  0  0  0  0  0  0  0  0  0  0  0
    3.5570   26.5530  -35.6250 F   0  0  0  0  0  0  0  0  0  0  0  0
    1.4360   24.9180  -36.0680 C   0  0  0  0  0  0  0  0  0  0  0  0
    1.3827   25.9616  -36.4116 H   0  0  0  0  0  0  0  0  0  0  0  0
    0.3040   24.1060  -36.0830 C   0  0  0  0  0  0  0  0  0  0  0  0
   -0.6562   24.5059  -36.4409 H   0  0  0  0  0  0  0  0  0  0  0  0
    0.3880   22.8200  -35.6550 N   0  0  0  0  0  0  0  0  0  0  0  0
    0.6910   18.8120  -35.2260 C   0  0  0  0  0  0  0  0  0  0  0  0
    1.6329   18.4874  -35.6923 H   0  0  0  0  0  0  0  0  0  0  0  0
   -0.3890   17.9230  -35.1460 C   0  0  0  0  0  0  0  0  0  0  0  0
   -0.2480   16.5200  -35.6570 C   0  0  0  0  0  0  0  0  0  0  0  0
   -0.1782   15.8254  -34.8069 H   0  0  0  0  0  0  0  0  0  0  0  0
   -1.1248   16.2630  -36.2694 H   0  0  0  0  0  0  0  0  0  0  0  0
    0.6624   16.4426  -36.2694 H   0  0  0  0  0  0  0  0  0  0  0  0
   -1.5840   18.3350  -34.5370 C   0  0  0  0  0  0  0  0  0  0  0  0
   -2.4200   17.6263  -34.4426 H   0  0  0  0  0  0  0  0  0  0  0  0
   -4.5360   19.5370  -33.8210 S   0  0  0  0  0  0  0  0  0  0  0  0
   -7.2330   19.3310  -31.6580 C   0  0  0  0  0  0  0  0  0  0  0  0
   -7.1535   19.5717  -30.5876 H   0  0  0  0  0  0  0  0  0  0  0  0
   -8.2706   19.0534  -31.8953 H   0  0  0  0  0  0  0  0  0  0  0  0
   -6.5650   18.4899  -31.8953 H   0  0  0  0  0  0  0  0  0  0  0  0
   -7.2820   21.9110  -31.8170 C   0  0  2  0  0  0  0  0  0  0  0  0
   -8.3753   21.8276  -31.7292 H   0  0  0  0  0  0  0  0  0  0  0  0
   -7.0410   23.1810  -32.6920 C   0  0  0  0  0  0  0  0  0  0  0  0
   -6.8349   22.8635  -33.7248 H   0  0  0  0  0  0  0  0  0  0  0  0
   -7.9458   23.8037  -32.6322 H   0  0  0  0  0  0  0  0  0  0  0  0
   -5.8620   24.0250  -32.1930 C   0  0  0  0  0  0  0  0  0  0  0  0
   -4.9491   23.4117  -32.2119 H   0  0  0  0  0  0  0  0  0  0  0  0
   -5.7576   24.8993  -32.8523 H   0  0  0  0  0  0  0  0  0  0  0  0
   -6.1010   24.5280  -30.7500 C   0  0  2  0  0  0  0  0  0  0  0  0
   -6.7454   25.4169  -30.8173 H   0  0  0  0  0  0  0  0  0  0  0  0
   -4.7940   24.9170  -30.1150 C   0  0  0  0  0  0  0  0  0  0  0  0
   -4.5200   24.5550  -28.9400 O   0  0  0  0  0  0  0  0  0  0  0  0
   -3.8720   25.6700  -30.8320 O   0  0  0  0  0  0  0  0  0  0  0  0
   -6.8750   23.5100  -29.8730 C   0  0  0  0  0  0  0  0  0  0  0  0
   -6.4944   23.5685  -28.8426 H   0  0  0  0  0  0  0  0  0  0  0  0
   -7.9435   23.7671  -29.9198 H   0  0  0  0  0  0  0  0  0  0  0  0
   -6.7140   22.0720  -30.3780 C   0  0  0  0  0  0  0  0  0  0  0  0
   -5.6452   21.8118  -30.3835 H   0  0  0  0  0  0  0  0  0  0  0  0
   -7.2740   21.4039  -29.7071 H   0  0  0  0  0  0  0  0  0  0  0  0
  1  2  1  0
  3  2  1  6
  3  4  1  0
  4  5  2  0
  5  6  1  0
  6  7  1  0
  6  8  2  0
  8  9  1  0
  9 10  2  0
 10 11  1  0
 10 12  1  0
 12 13  1  0
 13 14  2  0
 14 15  1  0
 15 16  2  0
 16 17  1  0
 17 18  1  0
 17 19  1  0
 17 20  1  0
 16 21  1  0
 21 22  1  0
 21 23  2  0
 23 24  1  0
 23 25  1  0
 12 26  2  0
 26 27  1  0
 26 28  1  0
 28 29  1  0
 29 30  1  0
 29 31  1  0
 29 32  1  0
 28 33  2  0
 33 34  1  0
  8 35  1  0
  3 36  1  0
 36 37  1  0
 36 38  1  0
 36 39  1  0
  3 40  1  0
 40 41  1  1
 40 42  1  0
 42 43  1  0
 42 44  1  0
 42 45  1  0
 45 46  1  0
 45 47  1  0
 45 48  1  0
 48 49  1  6
 48 50  1  0
 50 51  2  0
 50 52  1  0
 48 53  1  0
 53 54  1  0
 53 55  1  0
 53 56  1  0
 56 57  1  0
 56 58  1  0
 35  4  1  0
 56 40  1  0
 33  9  1  0
 25 14  1  0
M  CHG  2  25  -1  52  -1
M  END
>  <UniqueID>  (8) 
8

>  <SMILES>  (8) 
Cc1cc(/N=c2/nc(C(F)(F)F)cc[n-]2)cc(-c2cnc([C@](C)(O)C3CCC(C(=O)[O-])CC3)s2)c1

>  <Energy>  (8) 
106.07974980683075

>  <Genealogy>  (8) 
Cc1cc(N=c2nc(C(F)(F)F)cc[n-]2)cc(-c2cnc(C(C)(O)C3CCC(C(=O)[O-])CC3)s2)c1 (protonated)
Cc1cc(N=c2nc(C(F)(F)F)cc[n-]2)cc(-c2cnc([C@](C)(O)C3CCC(C(=O)[O-])CC3)s2)c1 (chirality)
Cc1cc(/N=c2/nc(C(F)(F)F)cc[n-]2)cc(-c2cnc([C@](C)(O)C3CCC(C(=O)[O-])CC3)s2)c1 (cis-trans isomerization)
Cc1cc(/N=c2/nc(C(F)(F)F)cc[n-]2)cc(-c2cnc([C@](C)(O)C3CCC(C(=O)[O-])CC3)s2)c1 (3D coordinates assigned)
Cc1cc(/N=c2/nc(C(F)(F)F)cc[n-]2)cc(-c2cnc([C@](C)(O)C3CCC(C(=O)[O-])CC3)s2)c1 (nonaromatic ring conformer: 106.07974980683075 kcal/mol)

>  <smiles>  (8) 
Cc1cc(N=c2nc(C(F)(F)F)cc[nH]2)cc(-c2cnc(C(C)(O)C3CCC(C(=O)O)CC3)s2)c1

>  <score_type>  (8) 
oracle

>  <origin>  (8) 
adgpu

>  <m_score__min__energy>  (8) 
-12.77

>  <m_primary>  (8) 
energy

$$$$
8:0
     RDKit          3D

 38 41  0  0  0  0  0  0  0  0999 V2000
   -2.5506   23.0482  -26.7234 H   0  0  0  0  0  0  0  0  0  0  0  0
   -2.8780   23.4680  -27.6860 C   0  0  0  0  0  0  0  0  0  0  0  0
   -4.1120   22.8680  -28.6580 S   0  0  0  0  0  0  0  0  0  0  0  0
   -3.9000   24.0550  -29.8400 C   0  0  0  0  0  0  0  0  0  0  0  0
   -4.6120   24.2040  -30.9180 N   0  0  0  0  0  0  0  0  0  0  0  0
   -5.6480   23.3260  -31.3870 C   0  0  0  0  0  0  0  0  0  0  0  0
   -5.2860   22.1210  -31.9990 C   0  0  0  0  0  0  0  0  0  0  0  0
   -4.2226   21.8774  -32.1398 H   0  0  0  0  0  0  0  0  0  0  0  0
   -6.2680   21.2240  -32.4330 C   0  0  0  0  0  0  0  0  0  0  0  0
   -5.9742   20.2926  -32.9392 H   0  0  0  0  0  0  0  0  0  0  0  0
   -7.6260   21.5080  -32.2250 C   0  0  0  0  0  0  0  0  0  0  0  0
   -8.6800   20.5640  -32.7230 C   0  0  0  0  0  0  0  0  0  0  0  0
   -9.1941   20.1035  -31.8665 H   0  0  0  0  0  0  0  0  0  0  0  0
   -9.4086   21.1171  -33.3339 H   0  0  0  0  0  0  0  0  0  0  0  0
   -8.2102   19.7791  -33.3339 H   0  0  0  0  0  0  0  0  0  0  0  0
   -7.9900   22.7070  -31.5950 C   0  0  0  0  0  0  0  0  0  0  0  0
   -9.0531   22.9433  -31.4402 H   0  0  0  0  0  0  0  0  0  0  0  0
   -7.0080   23.6030  -31.1630 C   0  0  0  0  0  0  0  0  0  0  0  0
   -7.3005   24.5286  -30.6457 H   0  0  0  0  0  0  0  0  0  0  0  0
   -2.9180   24.9160  -29.5060 N   0  0  0  0  0  0  0  0  0  0  0  0
   -2.3430   24.5910  -28.3150 C   0  0  0  0  0  0  0  0  0  0  0  0
   -1.2450   25.3800  -27.7410 C   0  0  0  0  0  0  0  0  0  0  0  0
   -0.0030   25.3420  -28.1590 O   0  0  0  0  0  0  0  0  0  0  0  0
    0.7490   26.1450  -27.4650 N   0  0  0  0  0  0  0  0  0  0  0  0
   -0.0430   26.7390  -26.5460 C   0  0  0  0  0  0  0  0  0  0  0  0
    0.4450   27.7310  -25.5560 C   0  0  0  0  0  0  0  0  0  0  0  0
    0.4880   29.1060  -25.8590 C   0  0  0  0  0  0  0  0  0  0  0  0
    0.1551   29.4587  -26.8463 H   0  0  0  0  0  0  0  0  0  0  0  0
    0.9510   30.0250  -24.9130 C   0  0  0  0  0  0  0  0  0  0  0  0
    0.9798   31.0970  -25.1580 H   0  0  0  0  0  0  0  0  0  0  0  0
    1.3770   29.5860  -23.6580 C   0  0  0  0  0  0  0  0  0  0  0  0
    1.7423   30.3113  -22.9161 H   0  0  0  0  0  0  0  0  0  0  0  0
    1.3390   28.2250  -23.3450 C   0  0  0  0  0  0  0  0  0  0  0  0
    1.6732   27.8794  -22.3556 H   0  0  0  0  0  0  0  0  0  0  0  0
    0.8770   27.3020  -24.2870 C   0  0  0  0  0  0  0  0  0  0  0  0
    0.8507   26.2316  -24.0347 H   0  0  0  0  0  0  0  0  0  0  0  0
   -1.3380   26.2710  -26.6930 C   0  0  0  0  0  0  0  0  0  0  0  0
   -2.2302   26.5454  -26.1110 H   0  0  0  0  0  0  0  0  0  0  0  0
  1  2  1  0
  2  3  1  0
  3  4  1  0
  4  5  2  0
  5  6  1  0
  6  7  2  0
  7  8  1  0
  7  9  1  0
  9 10  1  0
  9 11  2  0
 11 12  1  0
 12 13  1  0
 12 14  1  0
 12 15  1  0
 11 16  1  0
 16 17  1  0
 16 18  2  0
 18 19  1  0
  4 20  1  0
 20 21  1  0
 21 22  1  0
 22 23  1  0
 23 24  1  0
 24 25  2  0
 25 26  1  0
 26 27  2  0
 27 28  1  0
 27 29  1  0
 29 30  1  0
 29 31  2  0
 31 32  1  0
 31 33  1  0
 33 34  1  0
 33 35  2  0
 35 36  1  0
 25 37  1  0
 37 38  1  0
 21  2  2  0
 37 22  2  0
 18  6  1  0
 35 26  1  0
M  CHG  1  20  -1
M  END
>  <UniqueID>  (9) 
9

>  <SMILES>  (9) 
Cc1ccc(/N=c2/[n-]c(-c3cc(-c4ccccc4)no3)cs2)cc1

>  <Energy>  (9) 
110.1017281074831

>  <Genealogy>  (9) 
Cc1ccc(N=c2[n-]c(-c3cc(-c4ccccc4)no3)cs2)cc1 (protonated)
Cc1ccc(/N=c2/[n-]c(-c3cc(-c4ccccc4)no3)cs2)cc1 (cis-trans isomerization)
Cc1ccc(/N=c2/[n-]c(-c3cc(-c4ccccc4)no3)cs2)cc1 (3D coordinates assigned)
Cc1ccc(/N=c2/[n-]c(-c3cc(-c4ccccc4)no3)cs2)cc1 (optimized conformer: 110.1017281074831 kcal/mol)

>  <smiles>  (9) 
Cc1ccc(N=c2[nH]c(-c3cc(-c4ccccc4)no3)cs2)cc1

>  <score_type>  (9) 
oracle

>  <origin>  (9) 
adgpu

>  <m_score__min__energy>  (9) 
-10.52

>  <m_primary>  (9) 
energy

$$$$
9:0
     RDKit          3D

 39 41  0  0  0  0  0  0  0  0999 V2000
   -2.1930   20.1530  -28.0810 O   0  0  0  0  0  0  0  0  0  0  0  0
   -1.9520   20.6280  -29.2230 C   0  0  0  0  0  0  0  0  0  0  0  0
   -1.1220   19.8750  -30.1190 N   0  0  0  0  0  0  0  0  0  0  0  0
   -0.6440   20.3190  -31.3970 C   0  0  0  0  0  0  0  0  0  0  0  0
    0.6700   20.0170  -31.7720 C   0  0  0  0  0  0  0  0  0  0  0  0
    1.1710   20.4530  -33.0030 C   0  0  0  0  0  0  0  0  0  0  0  0
    0.3540   21.1860  -33.8750 C   0  0  0  0  0  0  0  0  0  0  0  0
    0.9880   21.8000  -35.3990 S   0  0  0  0  0  0  0  0  0  0  0  0
    2.4900   21.8770  -35.3590 O   0  0  0  0  0  0  0  0  0  0  0  0
    0.5730   20.8780  -36.5100 O   0  0  0  0  0  0  0  0  0  0  0  0
    0.3480   23.3850  -35.6970 N   0  0  0  0  0  0  0  0  0  0  0  0
    0.9900   24.3110  -36.3440 C   0  0  0  0  0  0  0  0  0  0  0  0
    0.4020   25.5680  -36.5160 C   0  0  0  0  0  0  0  0  0  0  0  0
    1.1030   26.5660  -37.1970 C   0  0  0  0  0  0  0  0  0  0  0  0
    2.3770   26.3010  -37.7030 C   0  0  0  0  0  0  0  0  0  0  0  0
    2.9320   25.0320  -37.5200 C   0  0  0  0  0  0  0  0  0  0  0  0
    2.2350   24.0760  -36.8510 N   0  0  0  0  0  0  0  0  0  0  0  0
   -0.9730   21.4540  -33.5200 C   0  0  0  0  0  0  0  0  0  0  0  0
   -1.4730   21.0170  -32.2910 C   0  0  0  0  0  0  0  0  0  0  0  0
   -2.4910   21.9600  -29.5850 C   0  0  0  0  0  0  0  0  0  0  0  0
   -3.5890   22.0630  -30.4570 C   0  0  0  0  0  0  0  0  0  0  0  0
   -4.0980   23.3150  -30.8100 C   0  0  0  0  0  0  0  0  0  0  0  0
   -3.5260   24.4790  -30.2870 C   0  0  0  0  0  0  0  0  0  0  0  0
   -4.0370   25.7210  -30.6470 O   0  0  0  0  0  0  0  0  0  0  0  0
   -2.4450   24.3920  -29.4020 C   0  0  0  0  0  0  0  0  0  0  0  0
   -1.8870   25.5560  -28.8770 O   0  0  0  0  0  0  0  0  0  0  0  0
   -1.9330   23.1350  -29.0490 C   0  0  0  0  0  0  0  0  0  0  0  0
    1.3120   19.4339  -31.0954 H   0  0  0  0  0  0  0  0  0  0  0  0
    2.2078   20.2203  -33.2873 H   0  0  0  0  0  0  0  0  0  0  0  0
   -0.6038   25.7691  -36.1185 H   0  0  0  0  0  0  0  0  0  0  0  0
    0.6517   27.5597  -37.3345 H   0  0  0  0  0  0  0  0  0  0  0  0
    2.9368   27.0816  -38.2390 H   0  0  0  0  0  0  0  0  0  0  0  0
    3.9327   24.8067  -37.9172 H   0  0  0  0  0  0  0  0  0  0  0  0
   -1.6240   22.0102  -34.2106 H   0  0  0  0  0  0  0  0  0  0  0  0
   -2.5201   21.2202  -32.0221 H   0  0  0  0  0  0  0  0  0  0  0  0
   -4.0505   21.1513  -30.8641 H   0  0  0  0  0  0  0  0  0  0  0  0
   -4.9509   23.3855  -31.5011 H   0  0  0  0  0  0  0  0  0  0  0  0
   -2.3550   26.4510  -28.9610 H   0  0  0  0  0  0  0  0  0  0  0  0
   -1.0884   23.0672  -28.3475 H   0  0  0  0  0  0  0  0  0  0  0  0
  1  2  2  0
  2  3  1  0
  3  4  1  0
  4  5  2  0
  5  6  1  0
  6  7  2  0
  7  8  1  0
  8  9  2  0
  8 10  2  0
  8 11  1  0
 11 12  2  3
 12 13  1  0
 13 14  2  0
 14 15  1  0
 15 16  2  0
 16 17  1  0
  7 18  1  0
 18 19  2  0
  2 20  1  0
 20 21  2  0
 21 22  1  0
 22 23  2  0
 23 24  1  0
 23 25  1  0
 25 26  1  0
 25 27  2  0
 19  4  1  0
 27 20  1  0
 17 12  1  0
  5 28  1  0
  6 29  1  0
 13 30  1  0
 14 31  1  0
 15 32  1  0
 16 33  1  0
 18 34  1  0
 19 35  1  0
 21 36  1  0
 22 37  1  0
 26 38  1  0
 27 39  1  0
M  CHG  3   3  -1  17  -1  24  -1
M  END
>  <UniqueID>  (10) 
10

>  <SMILES>  (10) 
O=C([N-]c1ccc(S(=O)(=O)N=c2cccc[n-]2)cc1)c1ccc([O-])c(O)c1

>  <Energy>  (10) 
51.1553363564274

>  <Genealogy>  (10) 
O=C([N-]c1ccc(S(=O)(=O)N=c2cccc[n-]2)cc1)c1ccc([O-])c(O)c1 (protonated)
O=C([N-]c1ccc(S(=O)(=O)N=c2cccc[n-]2)cc1)c1ccc([O-])c(O)c1 (3D coordinates assigned)
O=C([N-]c1ccc(S(=O)(=O)N=c2cccc[n-]2)cc1)c1ccc([O-])c(O)c1 (optimized conformer: 51.1553363564274 kcal/mol)

>  <smiles>  (10) 
O=C(Nc1ccc(S(=O)(=O)N=c2cccc[nH]2)cc1)c1ccc(O)c(O)c1

>  <score_type>  (10) 
oracle

>  <origin>  (10) 
adgpu

>  <m_score__min__energy>  (10) 
-11.68

>  <m_primary>  (10) 
energy

$$$$
10:0
     RDKit          3D

 36 38  0  0  0  0  0  0  0  0999 V2000
   -9.5830   22.2830  -31.9140 O   0  0  0  0  0  0  0  0  0  0  0  0
   -8.0830   22.2050  -31.9700 S   0  0  0  0  0  0  0  0  0  0  0  0
   -7.5800   23.1590  -33.0150 O   0  0  0  0  0  0  0  0  0  0  0  0
   -7.4360   22.6620  -30.4260 N   0  0  0  0  0  0  0  0  0  0  0  0
   -6.1650   23.2930  -30.2180 C   0  0  0  0  0  0  0  0  0  0  0  0
   -6.1170   24.6880  -30.1260 C   0  0  0  0  0  0  0  0  0  0  0  0
   -4.8990   25.3450  -29.9510 C   0  0  0  0  0  0  0  0  0  0  0  0
   -3.7100   24.6150  -29.8620 C   0  0  0  0  0  0  0  0  0  0  0  0
   -2.5050   25.2930  -29.7070 O   0  0  0  0  0  0  0  0  0  0  0  0
   -3.7410   23.2100  -29.9270 C   0  0  0  0  0  0  0  0  0  0  0  0
   -2.4710   22.4030  -29.8690 C   0  0  0  0  0  0  0  0  0  0  0  0
   -1.4210   23.1140  -30.4650 O   0  0  0  0  0  0  0  0  0  0  0  0
   -4.9700   22.5550  -30.1150 C   0  0  0  0  0  0  0  0  0  0  0  0
   -7.5600   20.5750  -32.3860 C   0  0  0  0  0  0  0  0  0  0  0  0
   -8.3200   19.4730  -31.9810 C   0  0  0  0  0  0  0  0  0  0  0  0
   -7.9260   18.1780  -32.3300 C   0  0  0  0  0  0  0  0  0  0  0  0
   -6.7600   17.9640  -33.0910 C   0  0  0  0  0  0  0  0  0  0  0  0
   -6.3230   16.5970  -33.4770 C   0  0  0  0  0  0  0  0  0  0  0  0
   -5.0240   16.1090  -33.3160 C   0  0  0  0  0  0  0  0  0  0  0  0
   -4.9940   14.5250  -33.8740 S   0  0  0  0  0  0  0  0  0  0  0  0
   -6.6170   14.5130  -34.2980 C   0  0  0  0  0  0  0  0  0  0  0  0
   -7.1950   15.7000  -34.0200 N   0  0  0  0  0  0  0  0  0  0  0  0
   -5.9950   19.0810  -33.4790 C   0  0  0  0  0  0  0  0  0  0  0  0
   -6.3930   20.3740  -33.1310 C   0  0  0  0  0  0  0  0  0  0  0  0
   -7.0471   25.2715  -30.1922 H   0  0  0  0  0  0  0  0  0  0  0  0
   -4.8739   26.4426  -29.8827 H   0  0  0  0  0  0  0  0  0  0  0  0
   -2.2196   22.1954  -28.8184 H   0  0  0  0  0  0  0  0  0  0  0  0
   -2.6198   21.4581  -30.4121 H   0  0  0  0  0  0  0  0  0  0  0  0
   -1.5420   24.0660  -30.2080 H   0  0  0  0  0  0  0  0  0  0  0  0
   -4.9988   21.4574  -30.1822 H   0  0  0  0  0  0  0  0  0  0  0  0
   -9.2319   19.6260  -31.3851 H   0  0  0  0  0  0  0  0  0  0  0  0
   -8.5318   17.3184  -32.0075 H   0  0  0  0  0  0  0  0  0  0  0  0
   -4.1714   16.6640  -32.8977 H   0  0  0  0  0  0  0  0  0  0  0  0
   -7.1396   13.6533  -34.7427 H   0  0  0  0  0  0  0  0  0  0  0  0
   -5.0741   18.9337  -34.0624 H   0  0  0  0  0  0  0  0  0  0  0  0
   -5.7868   21.2370  -33.4438 H   0  0  0  0  0  0  0  0  0  0  0  0
  1  2  2  0
  2  3  2  0
  2  4  1  0
  4  5  1  0
  5  6  2  0
  6  7  1  0
  7  8  2  0
  8  9  1  0
  8 10  1  0
 10 11  1  0
 11 12  1  0
 10 13  2  0
  2 14  1  0
 14 15  2  0
 15 16  1  0
 16 17  2  0
 17 18  1  0
 18 19  2  0
 19 20  1  0
 20 21  1  0
 21 22  2  0
 17 23  1  0
 23 24  2  0
 13  5  1  0
 24 14  1  0
 22 18  1  0
  6 25  1  0
  7 26  1  0
 11 27  1  0
 11 28  1  0
 12 29  1  0
 13 30  1  0
 15 31  1  0
 16 32  1  0
 19 33  1  0
 21 34  1  0
 23 35  1  0
 24 36  1  0
M  CHG  2   4  -1   9  -1
M  END
>  <UniqueID>  (11) 
11

>  <SMILES>  (11) 
O=S(=O)([N-]c1ccc([O-])c(CO)c1)c1ccc(-c2cscn2)cc1

>  <Energy>  (11) 
73.24183576166116

>  <Genealogy>  (11) 
O=S(=O)([N-]c1ccc([O-])c(CO)c1)c1ccc(-c2cscn2)cc1 (protonated)
O=S(=O)([N-]c1ccc([O-])c(CO)c1)c1ccc(-c2cscn2)cc1 (3D coordinates assigned)
O=S(=O)([N-]c1ccc([O-])c(CO)c1)c1ccc(-c2cscn2)cc1 (optimized conformer: 73.24183576166116 kcal/mol)

>  <smiles>  (11) 
O=S(=O)(Nc1ccc(O)c(CO)c1)c1ccc(-c2cscn2)cc1

>  <score_type>  (11) 
oracle

>  <origin>  (11) 
adgpu

>  <m_score__min__energy>  (11) 
-11.25

>  <m_primary>  (11) 
energy

$$$$
11:0
     RDKit          3D

 69 75  0  0  0  0  0  0  0  0999 V2000
    4.7529   24.7970  -35.4975 H   0  0  0  0  0  0  0  0  0  0  0  0
    3.6750   24.8900  -35.6960 C   0  0  0  0  0  0  0  0  0  0  0  0
    3.1690   26.0690  -36.1360 N   0  0  0  0  0  0  0  0  0  0  0  0
    1.8450   26.2300  -36.3910 C   0  0  0  0  0  0  0  0  0  0  0  0
    1.3720   27.4680  -36.8420 C   0  0  0  0  0  0  0  0  0  0  0  0
    2.0735   28.3028  -36.9873 H   0  0  0  0  0  0  0  0  0  0  0  0
    0.0130   27.6470  -37.1080 C   0  0  0  0  0  0  0  0  0  0  0  0
   -0.5740   29.2040  -37.6680 Cl  0  0  0  0  0  0  0  0  0  0  0  0
   -0.8810   26.5870  -36.9290 C   0  0  0  0  0  0  0  0  0  0  0  0
   -1.9506   26.7309  -37.1419 H   0  0  0  0  0  0  0  0  0  0  0  0
   -0.4220   25.3460  -36.4810 C   0  0  0  0  0  0  0  0  0  0  0  0
   -1.1321   24.5172  -36.3435 H   0  0  0  0  0  0  0  0  0  0  0  0
    0.9470   25.1500  -36.2040 C   0  0  0  0  0  0  0  0  0  0  0  0
    1.4540   23.9050  -35.7620 C   0  0  0  0  0  0  0  0  0  0  0  0
    0.6380   22.8960  -35.6010 N   0  0  0  0  0  0  0  0  0  0  0  0
    1.0000   21.5460  -35.2680 C   0  0  0  0  0  0  0  0  0  0  0  0
    2.0110   20.9140  -35.9980 C   0  0  0  0  0  0  0  0  0  0  0  0
    2.5093   21.4505  -36.8189 H   0  0  0  0  0  0  0  0  0  0  0  0
    2.3920   19.6070  -35.6920 C   0  0  0  0  0  0  0  0  0  0  0  0
    3.1711   19.1115  -36.2898 H   0  0  0  0  0  0  0  0  0  0  0  0
    1.7880   18.9190  -34.6260 C   0  0  0  0  0  0  0  0  0  0  0  0
    2.2090   17.5360  -34.2890 C   0  0  0  0  0  0  0  0  0  0  0  0
    3.5720   17.2040  -34.2060 C   0  0  0  0  0  0  0  0  0  0  0  0
    4.3338   17.9750  -34.3938 H   0  0  0  0  0  0  0  0  0  0  0  0
    3.9670   15.9030  -33.8870 C   0  0  0  0  0  0  0  0  0  0  0  0
    5.0376   15.6609  -33.8142 H   0  0  0  0  0  0  0  0  0  0  0  0
    3.0130   14.9040  -33.6590 C   0  0  0  0  0  0  0  0  0  0  0  0
    3.4660   13.5880  -33.2990 N   0  0  0  0  0  0  0  0  0  0  0  0
    3.3430   13.0140  -32.1400 C   0  0  0  0  0  0  0  0  0  0  0  0
    2.6740   13.5420  -31.0930 N   0  0  0  0  0  0  0  0  0  0  0  0
    2.6720   12.7120  -30.0120 C   0  0  0  0  0  0  0  0  0  0  0  0
    2.0100   13.1040  -28.7400 C   0  0  0  0  0  0  0  0  0  0  0  0
    1.3320   12.1640  -27.9350 C   0  0  0  0  0  0  0  0  0  0  0  0
    1.2822   11.1114  -28.2504 H   0  0  0  0  0  0  0  0  0  0  0  0
    0.7230   12.5590  -26.7400 C   0  0  0  0  0  0  0  0  0  0  0  0
    0.2002   11.8167  -26.1190 H   0  0  0  0  0  0  0  0  0  0  0  0
    0.7770   13.8940  -26.3330 C   0  0  0  0  0  0  0  0  0  0  0  0
    0.2996   14.2019  -25.3911 H   0  0  0  0  0  0  0  0  0  0  0  0
    1.4370   14.8370  -27.1220 C   0  0  0  0  0  0  0  0  0  0  0  0
    1.4757   15.8888  -26.8024 H   0  0  0  0  0  0  0  0  0  0  0  0
    2.0490   14.4490  -28.3170 C   0  0  0  0  0  0  0  0  0  0  0  0
    2.5658   15.1994  -28.9333 H   0  0  0  0  0  0  0  0  0  0  0  0
    3.3470   11.5010  -30.2180 C   0  0  0  0  0  0  0  0  0  0  0  0
    3.4653   10.6956  -29.4782 H   0  0  0  0  0  0  0  0  0  0  0  0
    3.9460   11.4900  -31.7920 S   0  0  0  0  0  0  0  0  0  0  0  0
    1.6470   15.2400  -33.7070 C   0  0  0  0  0  0  0  0  0  0  0  0
    0.8875   14.4751  -33.4877 H   0  0  0  0  0  0  0  0  0  0  0  0
    1.2500   16.5410  -34.0320 C   0  0  0  0  0  0  0  0  0  0  0  0
    0.1794   16.7875  -34.0869 H   0  0  0  0  0  0  0  0  0  0  0  0
    0.7930   19.5650  -33.8730 C   0  0  0  0  0  0  0  0  0  0  0  0
    0.3234   19.0404  -33.0279 H   0  0  0  0  0  0  0  0  0  0  0  0
    0.3920   20.8730  -34.1880 C   0  0  0  0  0  0  0  0  0  0  0  0
   -0.5830   21.5500  -33.3780 N   0  0  0  0  0  0  0  0  0  0  0  0
   -0.5500   22.5940  -33.3620 H   0  0  0  0  0  0  0  0  0  0  0  0
   -1.6980   20.8720  -32.7750 C   0  0  0  0  0  0  0  0  0  0  0  0
   -1.6710   19.6190  -32.6380 O   0  0  0  0  0  0  0  0  0  0  0  0
   -2.8970   21.6220  -32.3280 C   0  0  0  0  0  0  0  0  0  0  0  0
   -2.8040   22.5100  -31.2390 C   0  0  0  0  0  0  0  0  0  0  0  0
   -1.8369   22.6566  -30.7358 H   0  0  0  0  0  0  0  0  0  0  0  0
   -3.9310   23.2070  -30.7920 C   0  0  0  0  0  0  0  0  0  0  0  0
   -3.8449   23.9047  -29.9460 H   0  0  0  0  0  0  0  0  0  0  0  0
   -5.1670   23.0190  -31.4180 C   0  0  0  0  0  0  0  0  0  0  0  0
   -6.7050   23.9670  -30.8010 Br  0  0  0  0  0  0  0  0  0  0  0  0
   -5.2740   22.1300  -32.4910 C   0  0  0  0  0  0  0  0  0  0  0  0
   -6.2469   21.9775  -32.9810 H   0  0  0  0  0  0  0  0  0  0  0  0
   -4.1500   21.4340  -32.9440 C   0  0  0  0  0  0  0  0  0  0  0  0
   -4.2443   20.7344  -33.7876 H   0  0  0  0  0  0  0  0  0  0  0  0
    2.8350   23.7950  -35.4940 C   0  0  0  0  0  0  0  0  0  0  0  0
    3.2494   22.8450  -35.1255 H   0  0  0  0  0  0  0  0  0  0  0  0
  1  2  1  0
  2  3  1  0
  3  4  1  0
  4  5  2  0
  5  6  1  0
  5  7  1  0
  7  8  1  0
  7  9  2  0
  9 10  1  0
  9 11  1  0
 11 12  1  0
 11 13  2  0
 13 14  1  0
 14 15  2  0
 15 16  1  0
 16 17  2  0
 17 18  1  0
 17 19  1  0
 19 20  1  0
 19 21  2  0
 21 22  1  0
 22 23  2  0
 23 24  1  0
 23 25  1  0
 25 26  1  0
 25 27  2  0
 27 28  1  0
 28 29  2  3
 29 30  1  0
 30 31  1  0
 31 32  1  0
 32 33  2  0
 33 34  1  0
 33 35  1  0
 35 36  1  0
 35 37  2  0
 37 38  1  0
 37 39  1  0
 39 40  1  0
 39 41  2  0
 41 42  1  0
 31 43  2  0
 43 44  1  0
 43 45  1  0
 27 46  1  0
 46 47  1  0
 46 48  2  0
 48 49  1  0
 21 50  1  0
 50 51  1  0
 50 52  2  0
 52 53  1  0
 53 54  1  0
 53 55  1  0
 55 56  2  0
 55 57  1  0
 57 58  2  0
 58 59  1  0
 58 60  1  0
 60 61  1  0
 60 62  2  0
 62 63  1  0
 62 64  1  0
 64 65  1  0
 64 66  2  0
 66 67  1  0
 14 68  1  0
 68 69  1  0
 68  2  2  0
 13  4  1  0
 52 16  1  0
 66 57  1  0
 48 22  1  0
 45 29  1  0
 41 32  1  0
M  CHG  2   3  -1  30  -1
M  END
>  <UniqueID>  (12) 
12

>  <SMILES>  (12) 
O=C(Nc1cc(-c2ccc(N=c3[n-]c(-c4ccccc4)cs3)cc2)ccc1/N=c1\cc[n-]c2cc(Cl)ccc12)c1ccc(Br)cc1

>  <Energy>  (12) 
143.11544100355417

>  <Genealogy>  (12) 
O=C(Nc1cc(-c2ccc(N=c3[n-]c(-c4ccccc4)cs3)cc2)ccc1N=c1cc[n-]c2cc(Cl)ccc12)c1ccc(Br)cc1 (protonated)
O=C(Nc1cc(-c2ccc(N=c3[n-]c(-c4ccccc4)cs3)cc2)ccc1/N=c1\cc[n-]c2cc(Cl)ccc12)c1ccc(Br)cc1 (cis-trans isomerization)
O=C(Nc1cc(-c2ccc(N=c3[n-]c(-c4ccccc4)cs3)cc2)ccc1/N=c1\cc[n-]c2cc(Cl)ccc12)c1ccc(Br)cc1 (3D coordinates assigned)
O=C(Nc1cc(-c2ccc(N=c3[n-]c(-c4ccccc4)cs3)cc2)ccc1/N=c1\cc[n-]c2cc(Cl)ccc12)c1ccc(Br)cc1 (optimized conformer: 143.11544100355417 kcal/mol)

>  <smiles>  (12) 
O=C(Nc1cc(-c2ccc(N=c3[nH]c(-c4ccccc4)cs3)cc2)ccc1N=c1cc[nH]c2cc(Cl)ccc12)c1ccc(Br)cc1

>  <score_type>  (12) 
oracle

>  <origin>  (12) 
adgpu

>  <m_score__min__energy>  (12) 
-10.24

>  <m_primary>  (12) 
energy

$$$$
12:0
     RDKit          3D

 38 40  0  0  0  0  0  0  0  0999 V2000
   -2.7490   19.8850  -33.7810 C   0  0  0  0  0  0  0  0  0  0  0  0
   -2.8520   18.1110  -33.8290 S   0  0  0  0  0  0  0  0  0  0  0  0
   -2.2900   17.6100  -35.1310 O   0  0  0  0  0  0  0  0  0  0  0  0
   -2.0460   17.5290  -32.7020 O   0  0  0  0  0  0  0  0  0  0  0  0
   -4.5350   17.6180  -33.6750 C   0  0  0  0  0  0  0  0  0  0  0  0
   -4.9010   16.2840  -33.8950 C   0  0  0  0  0  0  0  0  0  0  0  0
   -6.2400   15.9020  -33.8000 C   0  0  0  0  0  0  0  0  0  0  0  0
   -7.2200   16.8450  -33.4800 C   0  0  0  0  0  0  0  0  0  0  0  0
   -6.8610   18.1840  -33.2350 C   0  0  0  0  0  0  0  0  0  0  0  0
   -7.8380   19.1960  -32.9360 N   0  0  0  0  0  0  0  0  0  0  0  0
   -7.6280   20.3060  -32.2920 C   0  0  0  0  0  0  0  0  0  0  0  0
   -6.4170   20.7280  -31.8710 N   0  0  0  0  0  0  0  0  0  0  0  0
   -6.4800   21.9450  -31.2600 C   0  0  0  0  0  0  0  0  0  0  0  0
   -5.2580   22.5950  -30.7130 C   0  0  0  0  0  0  0  0  0  0  0  0
   -4.0670   21.8550  -30.5940 C   0  0  0  0  0  0  0  0  0  0  0  0
   -2.9070   22.4420  -30.0820 C   0  0  0  0  0  0  0  0  0  0  0  0
   -2.9060   23.7870  -29.6740 C   0  0  0  0  0  0  0  0  0  0  0  0
   -1.6780   24.4110  -29.1300 C   0  0  0  0  0  0  0  0  0  0  0  0
   -1.5980   25.8240  -28.9570 N   0  0  0  0  0  0  0  0  0  0  0  0
   -0.6880   23.6980  -28.8120 O   0  0  0  0  0  0  0  0  0  0  0  0
   -4.0940   24.5280  -29.7890 C   0  0  0  0  0  0  0  0  0  0  0  0
   -5.2550   23.9430  -30.3000 C   0  0  0  0  0  0  0  0  0  0  0  0
   -7.7680   22.4940  -31.2120 C   0  0  0  0  0  0  0  0  0  0  0  0
   -8.8320   21.4210  -31.9520 S   0  0  0  0  0  0  0  0  0  0  0  0
   -5.5190   18.5660  -33.3630 C   0  0  0  0  0  0  0  0  0  0  0  0
   -2.7294   20.2230  -32.7344 H   0  0  0  0  0  0  0  0  0  0  0  0
   -1.8303   20.2128  -34.2895 H   0  0  0  0  0  0  0  0  0  0  0  0
   -3.6236   20.3170  -34.2895 H   0  0  0  0  0  0  0  0  0  0  0  0
   -4.1326   15.5369  -34.1428 H   0  0  0  0  0  0  0  0  0  0  0  0
   -6.5249   14.8545  -33.9777 H   0  0  0  0  0  0  0  0  0  0  0  0
   -8.2752   16.5403  -33.4193 H   0  0  0  0  0  0  0  0  0  0  0  0
   -4.0490   20.8009  -30.9081 H   0  0  0  0  0  0  0  0  0  0  0  0
   -1.9863   21.8461  -29.9975 H   0  0  0  0  0  0  0  0  0  0  0  0
   -1.2070   26.4360  -29.7080 H   0  0  0  0  0  0  0  0  0  0  0  0
   -4.1101   25.5815  -29.4729 H   0  0  0  0  0  0  0  0  0  0  0  0
   -6.1756   24.5397  -30.3809 H   0  0  0  0  0  0  0  0  0  0  0  0
   -8.0380   23.4626  -30.7660 H   0  0  0  0  0  0  0  0  0  0  0  0
   -5.2354   19.6188  -33.2174 H   0  0  0  0  0  0  0  0  0  0  0  0
  1  2  1  0
  2  3  2  0
  2  4  2  0
  2  5  1  0
  5  6  2  0
  6  7  1  0
  7  8  2  0
  8  9  1  0
  9 10  1  0
 10 11  2  3
 11 12  1  0
 12 13  1  0
 13 14  1  0
 14 15  2  0
 15 16  1  0
 16 17  2  0
 17 18  1  0
 18 19  1  0
 18 20  2  0
 17 21  1  0
 21 22  2  0
 13 23  2  0
 23 24  1  0
  9 25  2  0
 25  5  1  0
 24 11  1  0
 22 14  1  0
  1 26  1  0
  1 27  1  0
  1 28  1  0
  6 29  1  0
  7 30  1  0
  8 31  1  0
 15 32  1  0
 16 33  1  0
 19 34  1  0
 21 35  1  0
 22 36  1  0
 23 37  1  0
 25 38  1  0
M  CHG  2  12  -1  19  -1
M  END
>  <UniqueID>  (13) 
13

>  <SMILES>  (13) 
CS(=O)(=O)c1cccc(N=c2[n-]c(-c3ccc(C([NH-])=O)cc3)cs2)c1

>  <Energy>  (13) 
75.91971936955564

>  <Genealogy>  (13) 
CS(=O)(=O)c1cccc(N=c2[n-]c(-c3ccc(C([NH-])=O)cc3)cs2)c1 (protonated)
CS(=O)(=O)c1cccc(N=c2[n-]c(-c3ccc(C([NH-])=O)cc3)cs2)c1 (3D coordinates assigned)
CS(=O)(=O)c1cccc(N=c2[n-]c(-c3ccc(C([NH-])=O)cc3)cs2)c1 (optimized conformer: 75.91971936955564 kcal/mol)

>  <smiles>  (13) 
CS(=O)(=O)c1cccc(N=c2[nH]c(-c3ccc(C(N)=O)cc3)cs2)c1

>  <score_type>  (13) 
oracle

>  <origin>  (13) 
adgpu

>  <m_score__min__energy>  (13) 
-11.26

>  <m_primary>  (13) 
energy

$$$$
13:0
     RDKit          3D

 46 48  0  0  0  0  0  0  0  0999 V2000
   -2.1250   18.8210  -33.8410 C   0  0  0  0  0  0  0  0  0  0  0  0
   -2.5090   19.5540  -32.5560 C   0  0  0  0  0  0  0  0  0  0  0  0
   -4.0140   19.6720  -32.3960 C   0  0  0  0  0  0  0  0  0  0  0  0
   -4.5880   20.6780  -31.6730 C   0  0  0  0  0  0  0  0  0  0  0  0
   -6.0540   20.9210  -31.6990 C   0  0  0  0  0  0  0  0  0  0  0  0
   -6.9610   19.8640  -31.4970 C   0  0  0  0  0  0  0  0  0  0  0  0
   -8.3390   20.1010  -31.5330 C   0  0  0  0  0  0  0  0  0  0  0  0
   -8.8210   21.3880  -31.7850 C   0  0  0  0  0  0  0  0  0  0  0  0
   -7.9270   22.4400  -32.0050 C   0  0  0  0  0  0  0  0  0  0  0  0
   -6.5490   22.2080  -31.9680 C   0  0  0  0  0  0  0  0  0  0  0  0
   -3.7820   21.6070  -30.8480 C   0  0  0  0  0  0  0  0  0  0  0  0
   -3.8310   22.9910  -31.0780 C   0  0  0  0  0  0  0  0  0  0  0  0
   -3.0400   23.8590  -30.3200 C   0  0  0  0  0  0  0  0  0  0  0  0
   -2.1770   23.3530  -29.3390 C   0  0  0  0  0  0  0  0  0  0  0  0
   -1.1940   24.4490  -28.3750 S   0  0  0  0  0  0  0  0  0  0  0  0
   -1.4170   26.0680  -28.9370 N   0  0  0  0  0  0  0  0  0  0  0  0
   -1.6010   24.3620  -26.9310 O   0  0  0  0  0  0  0  0  0  0  0  0
    0.2550   24.0700  -28.4920 O   0  0  0  0  0  0  0  0  0  0  0  0
   -2.1130   21.9690  -29.1210 C   0  0  0  0  0  0  0  0  0  0  0  0
   -2.9040   21.1010  -29.8780 C   0  0  0  0  0  0  0  0  0  0  0  0
   -4.8490   18.6280  -33.0490 C   0  0  0  0  0  0  0  0  0  0  0  0
   -5.3310   18.8120  -34.3580 C   0  0  0  0  0  0  0  0  0  0  0  0
   -6.1140   17.8260  -34.9660 C   0  0  0  0  0  0  0  0  0  0  0  0
   -6.4150   16.6470  -34.2800 C   0  0  0  0  0  0  0  0  0  0  0  0
   -5.9300   16.4500  -32.9850 C   0  0  0  0  0  0  0  0  0  0  0  0
   -5.1470   17.4310  -32.3720 C   0  0  0  0  0  0  0  0  0  0  0  0
   -1.6283   17.8728  -33.5878 H   0  0  0  0  0  0  0  0  0  0  0  0
   -3.0308   18.6145  -34.4300 H   0  0  0  0  0  0  0  0  0  0  0  0
   -1.4396   19.4481  -34.4300 H   0  0  0  0  0  0  0  0  0  0  0  0
   -2.1029   19.0004  -31.6966 H   0  0  0  0  0  0  0  0  0  0  0  0
   -2.0923   20.5707  -32.6076 H   0  0  0  0  0  0  0  0  0  0  0  0
   -6.5847   18.8474  -31.3101 H   0  0  0  0  0  0  0  0  0  0  0  0
   -9.0437   19.2737  -31.3628 H   0  0  0  0  0  0  0  0  0  0  0  0
   -9.9049   21.5736  -31.8103 H   0  0  0  0  0  0  0  0  0  0  0  0
   -8.3084   23.4517  -32.2075 H   0  0  0  0  0  0  0  0  0  0  0  0
   -5.8491   23.0368  -32.1503 H   0  0  0  0  0  0  0  0  0  0  0  0
   -4.4943   23.3938  -31.8576 H   0  0  0  0  0  0  0  0  0  0  0  0
   -3.0952   24.9437  -30.4943 H   0  0  0  0  0  0  0  0  0  0  0  0
   -1.2330   26.0610  -29.9660 H   0  0  0  0  0  0  0  0  0  0  0  0
   -1.4380   21.5657  -28.3517 H   0  0  0  0  0  0  0  0  0  0  0  0
   -2.8379   20.0155  -29.7125 H   0  0  0  0  0  0  0  0  0  0  0  0
   -5.0908   19.7354  -34.9053 H   0  0  0  0  0  0  0  0  0  0  0  0
   -6.4939   17.9791  -35.9869 H   0  0  0  0  0  0  0  0  0  0  0  0
   -7.0337   15.8741  -34.7594 H   0  0  0  0  0  0  0  0  0  0  0  0
   -6.1652   15.5201  -32.4466 H   0  0  0  0  0  0  0  0  0  0  0  0
   -4.7614   17.2669  -31.3549 H   0  0  0  0  0  0  0  0  0  0  0  0
  1  2  1  0
  2  3  1  0
  3  4  2  3
  4  5  1  0
  5  6  2  0
  6  7  1  0
  7  8  2  0
  8  9  1  0
  9 10  2  0
  4 11  1  0
 11 12  2  0
 12 13  1  0
 13 14  2  0
 14 15  1  0
 15 16  1  0
 15 17  2  0
 15 18  2  0
 14 19  1  0
 19 20  2  0
  3 21  1  0
 21 22  2  0
 22 23  1  0
 23 24  2  0
 24 25  1  0
 25 26  2  0
 10  5  1  0
 20 11  1  0
 26 21  1  0
  1 27  1  0
  1 28  1  0
  1 29  1  0
  2 30  1  0
  2 31  1  0
  6 32  1  0
  7 33  1  0
  8 34  1  0
  9 35  1  0
 10 36  1  0
 12 37  1  0
 13 38  1  0
 16 39  1  0
 19 40  1  0
 20 41  1  0
 22 42  1  0
 23 43  1  0
 24 44  1  0
 25 45  1  0
 26 46  1  0
M  CHG  1  16  -1
M  END
>  <UniqueID>  (14) 
14

>  <SMILES>  (14) 
CCC(=C(c1ccccc1)c1ccc(S([NH-])(=O)=O)cc1)c1ccccc1

>  <Energy>  (14) 
65.11240153145368

>  <Genealogy>  (14) 
CCC(=C(c1ccccc1)c1ccc(S([NH-])(=O)=O)cc1)c1ccccc1 (protonated)
CCC(=C(c1ccccc1)c1ccc(S([NH-])(=O)=O)cc1)c1ccccc1 (3D coordinates assigned)
CCC(=C(c1ccccc1)c1ccc(S([NH-])(=O)=O)cc1)c1ccccc1 (optimized conformer: 65.11240153145368 kcal/mol)

>  <smiles>  (14) 
CCC(=C(c1ccccc1)c1ccc(S(N)(=O)=O)cc1)c1ccccc1

>  <score_type>  (14) 
oracle

>  <origin>  (14) 
adgpu

>  <m_score__min__energy>  (14) 
-11.33

>  <m_primary>  (14) 
energy

$$$$
14:0
     RDKit          3D

 28 29  0  0  0  0  0  0  0  0999 V2000
   -2.7540   24.9240  -29.6970 N   0  0  0  0  0  0  0  0  0  0  0  0
   -3.9550   24.6520  -30.0980 C   0  0  0  0  0  0  0  0  0  0  0  0
   -5.0060   25.2870  -29.5260 N   0  0  0  0  0  0  0  0  0  0  0  0
   -6.2810   25.0330  -29.9110 C   0  0  0  0  0  0  0  0  0  0  0  0
   -7.2230   25.6490  -29.3470 O   0  0  0  0  0  0  0  0  0  0  0  0
   -6.5320   24.0930  -30.9280 C   0  0  0  0  0  0  0  0  0  0  0  0
   -7.8630   23.7980  -31.3830 N   0  0  0  0  0  0  0  0  0  0  0  0
   -8.1110   23.4180  -32.5460 O   0  0  0  0  0  0  0  0  0  0  0  0
   -5.4310   23.4430  -31.5190 C   0  0  0  0  0  0  0  0  0  0  0  0
   -5.6440   22.4770  -32.5710 N   0  0  0  0  0  0  0  0  0  0  0  0
   -5.0820   21.1250  -32.5680 C   0  0  0  0  0  0  0  0  0  0  0  0
   -6.1650   20.0990  -32.3600 C   0  0  0  0  0  0  0  0  0  0  0  0
   -7.5140   20.4850  -32.2940 C   0  0  0  0  0  0  0  0  0  0  0  0
   -8.5120   19.5250  -32.0990 C   0  0  0  0  0  0  0  0  0  0  0  0
   -8.1720   18.1750  -31.9760 C   0  0  0  0  0  0  0  0  0  0  0  0
   -6.8330   17.7820  -32.0490 C   0  0  0  0  0  0  0  0  0  0  0  0
   -5.8320   18.7390  -32.2440 C   0  0  0  0  0  0  0  0  0  0  0  0
   -4.1680   23.7350  -31.0850 N   0  0  0  0  0  0  0  0  0  0  0  0
   -1.9110   24.4610  -30.1070 H   0  0  0  0  0  0  0  0  0  0  0  0
   -6.1800   22.7580  -33.4220 H   0  0  0  0  0  0  0  0  0  0  0  0
   -4.5872   20.9374  -33.5324 H   0  0  0  0  0  0  0  0  0  0  0  0
   -4.3564   21.0453  -31.7451 H   0  0  0  0  0  0  0  0  0  0  0  0
   -7.7863   21.5459  -32.3960 H   0  0  0  0  0  0  0  0  0  0  0  0
   -9.5665   19.8330  -32.0423 H   0  0  0  0  0  0  0  0  0  0  0  0
   -8.9586   17.4217  -31.8217 H   0  0  0  0  0  0  0  0  0  0  0  0
   -6.5661   16.7192  -31.9530 H   0  0  0  0  0  0  0  0  0  0  0  0
   -4.7795   18.4256  -32.3068 H   0  0  0  0  0  0  0  0  0  0  0  0
   -3.3450   23.2450  -31.4980 H   0  0  0  0  0  0  0  0  0  0  0  0
  1  2  2  3
  2  3  1  0
  3  4  1  0
  4  5  2  0
  4  6  1  0
  6  7  1  0
  7  8  2  0
  6  9  2  0
  9 10  1  0
 10 11  1  0
 11 12  1  0
 12 13  2  0
 13 14  1  0
 14 15  2  0
 15 16  1  0
 16 17  2  0
  9 18  1  0
 18  2  1  0
 17 12  1  0
  1 19  1  0
 10 20  1  0
 11 21  1  0
 11 22  1  0
 13 23  1  0
 14 24  1  0
 15 25  1  0
 16 26  1  0
 17 27  1  0
 18 28  1  0
M  CHG  1   3  -1
M  END
>  <UniqueID>  (15) 
15

>  <SMILES>  (15) 
N=c1[n-]c(=O)c(N=O)c(NCc2ccccc2)[nH]1

>  <Energy>  (15) 
31.649434115619496

>  <Genealogy>  (15) 
N=c1[n-]c(=O)c(N=O)c(NCc2ccccc2)[nH]1 (protonated)
N=c1[n-]c(=O)c(N=O)c(NCc2ccccc2)[nH]1 (3D coordinates assigned)
N=c1[n-]c(=O)c(N=O)c(NCc2ccccc2)[nH]1 (optimized conformer: 31.649434115619496 kcal/mol)

>  <smiles>  (15) 
N=c1[nH]c(NCc2ccccc2)c(N=O)c(=O)[nH]1

>  <score_type>  (15) 
oracle

>  <origin>  (15) 
adgpu

>  <m_score__min__energy>  (15) 
-7.9800000000000004

>  <m_primary>  (15) 
energy

$$$$
15:0
     RDKit          3D

 48 51  0  0  0  0  0  0  0  0999 V2000
   -5.8050   21.0920  -32.4880 C   0  0  0  0  0  0  0  0  0  0  0  0
   -5.1030   22.1440  -31.7330 N   0  0  0  0  0  0  0  0  0  0  0  0
   -3.8690   21.8820  -31.1790 C   0  0  0  0  0  0  0  0  0  0  0  0
   -3.3310   20.7490  -31.3100 O   0  0  0  0  0  0  0  0  0  0  0  0
   -3.2370   22.8950  -30.4620 C   0  0  0  0  0  0  0  0  0  0  0  0
   -3.8540   24.0920  -30.2930 C   0  0  0  0  0  0  0  0  0  0  0  0
   -3.0840   24.9380  -29.5840 N   0  0  0  0  0  0  0  0  0  0  0  0
   -1.9800   24.1890  -29.3330 C   0  0  0  0  0  0  0  0  0  0  0  0
   -0.9550   24.6330  -28.6640 N   0  0  0  0  0  0  0  0  0  0  0  0
   -0.8630   25.9760  -28.0940 C   0  0  0  0  0  0  0  0  0  0  0  0
   -0.8120   25.9090  -26.5910 C   0  0  0  0  0  0  0  0  0  0  0  0
   -0.5930   24.6840  -25.9370 C   0  0  0  0  0  0  0  0  0  0  0  0
   -0.5190   24.6360  -24.5410 C   0  0  0  0  0  0  0  0  0  0  0  0
   -0.6610   25.8060  -23.7910 C   0  0  0  0  0  0  0  0  0  0  0  0
   -0.8740   27.0280  -24.4340 C   0  0  0  0  0  0  0  0  0  0  0  0
   -0.9480   27.0810  -25.8300 C   0  0  0  0  0  0  0  0  0  0  0  0
   -2.0350   22.9320  -29.8480 N   0  0  0  0  0  0  0  0  0  0  0  0
   -0.9650   21.9290  -29.8150 C   0  0  0  0  0  0  0  0  0  0  0  0
   -1.2420   20.9080  -28.7450 C   0  0  0  0  0  0  0  0  0  0  0  0
   -0.3170   19.8800  -28.4900 C   0  0  0  0  0  0  0  0  0  0  0  0
   -0.5920   18.9090  -27.5230 C   0  0  0  0  0  0  0  0  0  0  0  0
   -1.7920   18.9500  -26.8090 C   0  0  0  0  0  0  0  0  0  0  0  0
   -2.7210   19.9620  -27.0630 C   0  0  0  0  0  0  0  0  0  0  0  0
   -2.4490   20.9360  -28.0290 C   0  0  0  0  0  0  0  0  0  0  0  0
   -5.0940   24.3510  -30.7890 N   0  0  0  0  0  0  0  0  0  0  0  0
   -5.7180   25.6680  -30.6000 C   0  0  0  0  0  0  0  0  0  0  0  0
   -5.7160   23.3670  -31.5250 C   0  0  0  0  0  0  0  0  0  0  0  0
   -6.8600   23.5870  -32.0150 O   0  0  0  0  0  0  0  0  0  0  0  0
   -6.2748   20.3879  -31.7855 H   0  0  0  0  0  0  0  0  0  0  0  0
   -6.5793   21.5497  -33.1212 H   0  0  0  0  0  0  0  0  0  0  0  0
   -5.0851   20.5527  -33.1212 H   0  0  0  0  0  0  0  0  0  0  0  0
    0.0495   26.4651  -28.4656 H   0  0  0  0  0  0  0  0  0  0  0  0
   -1.7512   26.5513  -28.3943 H   0  0  0  0  0  0  0  0  0  0  0  0
   -0.4796   23.7610  -26.5245 H   0  0  0  0  0  0  0  0  0  0  0  0
   -0.3487   23.6754  -24.0329 H   0  0  0  0  0  0  0  0  0  0  0  0
   -0.6051   25.7651  -22.6932 H   0  0  0  0  0  0  0  0  0  0  0  0
   -0.9836   27.9488  -23.8423 H   0  0  0  0  0  0  0  0  0  0  0  0
   -1.1134   28.0449  -26.3335 H   0  0  0  0  0  0  0  0  0  0  0  0
   -0.9086   21.4257  -30.7915 H   0  0  0  0  0  0  0  0  0  0  0  0
   -0.0107   22.4297  -29.5946 H   0  0  0  0  0  0  0  0  0  0  0  0
    0.6267   19.8399  -29.0538 H   0  0  0  0  0  0  0  0  0  0  0  0
    0.1381   18.1107  -27.3237 H   0  0  0  0  0  0  0  0  0  0  0  0
   -2.0053   18.1858  -26.0471 H   0  0  0  0  0  0  0  0  0  0  0  0
   -3.6671   19.9928  -26.5028 H   0  0  0  0  0  0  0  0  0  0  0  0
   -3.1851   21.7286  -28.2288 H   0  0  0  0  0  0  0  0  0  0  0  0
   -5.8166   25.8761  -29.5244 H   0  0  0  0  0  0  0  0  0  0  0  0
   -5.0906   26.4414  -31.0671 H   0  0  0  0  0  0  0  0  0  0  0  0
   -6.7139   25.6723  -31.0671 H   0  0  0  0  0  0  0  0  0  0  0  0
  1  2  1  0
  2  3  1  0
  3  4  2  0
  3  5  1  0
  5  6  2  0
  6  7  1  0
  7  8  1  0
  8  9  2  3
  9 10  1  0
 10 11  1  0
 11 12  2  0
 12 13  1  0
 13 14  2  0
 14 15  1  0
 15 16  2  0
  8 17  1  0
 17 18  1  0
 18 19  1  0
 19 20  2  0
 20 21  1  0
 21 22  2  0
 22 23  1  0
 23 24  2  0
  6 25  1  0
 25 26  1  0
 25 27  1  0
 27 28  2  0
 27  2  1  0
 17  5  1  0
 24 19  1  0
 16 11  1  0
  1 29  1  0
  1 30  1  0
  1 31  1  0
 10 32  1  0
 10 33  1  0
 12 34  1  0
 13 35  1  0
 14 36  1  0
 15 37  1  0
 16 38  1  0
 18 39  1  0
 18 40  1  0
 20 41  1  0
 21 42  1  0
 22 43  1  0
 23 44  1  0
 24 45  1  0
 26 46  1  0
 26 47  1  0
 26 48  1  0
M  CHG  1   7  -1
M  END
>  <UniqueID>  (16) 
16

>  <SMILES>  (16) 
Cn1c(=O)c2c([n-]c(=NCc3ccccc3)n2Cc2ccccc2)n(C)c1=O

>  <Energy>  (16) 
96.3740812311165

>  <Genealogy>  (16) 
Cn1c(=O)c2c([n-]c(=NCc3ccccc3)n2Cc2ccccc2)n(C)c1=O (protonated)
Cn1c(=O)c2c([n-]c(=NCc3ccccc3)n2Cc2ccccc2)n(C)c1=O (3D coordinates assigned)
Cn1c(=O)c2c([n-]c(=NCc3ccccc3)n2Cc2ccccc2)n(C)c1=O (optimized conformer: 96.3740812311165 kcal/mol)

>  <smiles>  (16) 
Cn1c(=O)c2c([nH]c(=NCc3ccccc3)n2Cc2ccccc2)n(C)c1=O

>  <score_type>  (16) 
oracle

>  <origin>  (16) 
adgpu

>  <m_score__min__energy>  (16) 
-9.0700000000000003

>  <m_primary>  (16) 
energy

$$$$
16:0
     RDKit          3D

 38 41  0  0  0  0  0  0  0  0999 V2000
   -1.3030   22.4310  -31.4790 O   0  0  0  0  0  0  0  0  0  0  0  0
   -2.0770   22.6560  -30.5100 C   0  0  0  0  0  0  0  0  0  0  0  0
   -1.5750   22.4710  -29.1780 N   0  0  0  0  0  0  0  0  0  0  0  0
   -1.6640   21.2700  -28.3980 C   0  0  0  0  0  0  0  0  0  0  0  0
   -2.8920   20.9240  -27.8200 C   0  0  0  0  0  0  0  0  0  0  0  0
   -3.0020   19.7780  -27.0270 C   0  0  0  0  0  0  0  0  0  0  0  0
   -1.8860   18.9550  -26.8230 C   0  0  0  0  0  0  0  0  0  0  0  0
   -1.9800   17.8150  -26.0290 O   0  0  0  0  0  0  0  0  0  0  0  0
   -0.6660   19.2790  -27.4250 C   0  0  0  0  0  0  0  0  0  0  0  0
   -0.5540   20.4260  -28.2160 C   0  0  0  0  0  0  0  0  0  0  0  0
   -3.4890   23.0350  -30.7720 C   0  0  0  0  0  0  0  0  0  0  0  0
   -4.3730   22.0890  -31.3430 C   0  0  0  0  0  0  0  0  0  0  0  0
   -5.7030   22.4570  -31.5270 C   0  0  0  0  0  0  0  0  0  0  0  0
   -6.8080   21.7910  -32.0190 C   0  0  0  0  0  0  0  0  0  0  0  0
   -6.9120   20.3700  -32.4110 C   0  0  0  0  0  0  0  0  0  0  0  0
   -6.0330   19.8140  -33.3570 C   0  0  0  0  0  0  0  0  0  0  0  0
   -6.1350   18.4650  -33.7080 C   0  0  0  0  0  0  0  0  0  0  0  0
   -7.1050   17.6560  -33.1080 C   0  0  0  0  0  0  0  0  0  0  0  0
   -7.2050   16.3150  -33.4570 O   0  0  0  0  0  0  0  0  0  0  0  0
   -7.9690   18.1960  -32.1510 C   0  0  0  0  0  0  0  0  0  0  0  0
   -7.8690   19.5460  -31.7980 C   0  0  0  0  0  0  0  0  0  0  0  0
   -7.8480   22.6590  -32.0480 N   0  0  0  0  0  0  0  0  0  0  0  0
   -7.4450   23.8370  -31.5790 N   0  0  0  0  0  0  0  0  0  0  0  0
   -6.1460   23.7170  -31.2570 C   0  0  0  0  0  0  0  0  0  0  0  0
   -5.3070   24.6940  -30.7300 C   0  0  0  0  0  0  0  0  0  0  0  0
   -3.9660   24.3460  -30.4740 C   0  0  0  0  0  0  0  0  0  0  0  0
   -3.1220   25.2980  -29.9130 O   0  0  0  0  0  0  0  0  0  0  0  0
   -3.7748   21.5576  -27.9910 H   0  0  0  0  0  0  0  0  0  0  0  0
   -3.9657   19.5218  -26.5625 H   0  0  0  0  0  0  0  0  0  0  0  0
   -1.2230   17.1440  -25.9730 H   0  0  0  0  0  0  0  0  0  0  0  0
    0.2086   18.6289  -27.2755 H   0  0  0  0  0  0  0  0  0  0  0  0
    0.4048   20.6690  -28.6973 H   0  0  0  0  0  0  0  0  0  0  0  0
   -4.0186   21.0891  -31.6339 H   0  0  0  0  0  0  0  0  0  0  0  0
   -5.2611   20.4439  -33.8232 H   0  0  0  0  0  0  0  0  0  0  0  0
   -5.4514   18.0391  -34.4572 H   0  0  0  0  0  0  0  0  0  0  0  0
   -8.7286   17.5586  -31.6748 H   0  0  0  0  0  0  0  0  0  0  0  0
   -8.5436   19.9639  -31.0363 H   0  0  0  0  0  0  0  0  0  0  0  0
   -5.6795   25.7074  -30.5196 H   0  0  0  0  0  0  0  0  0  0  0  0
  1  2  2  0
  2  3  1  0
  3  4  1  0
  4  5  2  0
  5  6  1  0
  6  7  2  0
  7  8  1  0
  7  9  1  0
  9 10  2  0
  2 11  1  0
 11 12  2  0
 12 13  1  0
 13 14  2  0
 14 15  1  0
 15 16  2  0
 16 17  1  0
 17 18  2  0
 18 19  1  0
 18 20  1  0
 20 21  2  0
 14 22  1  0
 22 23  1  0
 23 24  2  0
 24 25  1  0
 25 26  2  0
 26 27  1  0
 10  4  1  0
 26 11  1  0
 24 13  1  0
 21 15  1  0
  5 28  1  0
  6 29  1  0
  8 30  1  0
  9 31  1  0
 10 32  1  0
 12 33  1  0
 16 34  1  0
 17 35  1  0
 20 36  1  0
 21 37  1  0
 25 38  1  0
M  CHG  4   3  -1  19  -1  22  -1  27  -1
M  END
>  <UniqueID>  (17) 
17

>  <SMILES>  (17) 
O=C([N-]c1ccc(O)cc1)c1cc2c(-c3ccc([O-])cc3)[n-]nc2cc1[O-]

>  <Energy>  (17) 
91.19002734343813

>  <Genealogy>  (17) 
O=C([N-]c1ccc(O)cc1)c1cc2c(-c3ccc([O-])cc3)[n-]nc2cc1[O-] (protonated)
O=C([N-]c1ccc(O)cc1)c1cc2c(-c3ccc([O-])cc3)[n-]nc2cc1[O-] (3D coordinates assigned)
O=C([N-]c1ccc(O)cc1)c1cc2c(-c3ccc([O-])cc3)[n-]nc2cc1[O-] (optimized conformer: 91.19002734343813 kcal/mol)

>  <smiles>  (17) 
O=C(Nc1ccc(O)cc1)c1cc2c(-c3ccc(O)cc3)[nH]nc2cc1O

>  <score_type>  (17) 
oracle

>  <origin>  (17) 
adgpu

>  <m_score__min__energy>  (17) 
-11.720000000000001

>  <m_primary>  (17) 
energy

$$$$
17:0
     RDKit          3D

 51 55  0  0  0  0  0  0  0  0999 V2000
   -5.5180   26.0090  -31.2410 H   0  0  0  0  0  0  0  0  0  0  0  0
   -4.6300   25.9740  -30.6960 N   0  0  0  0  0  0  0  0  0  0  0  0
   -4.0080   24.8730  -30.4090 C   0  0  0  0  0  0  0  0  0  0  0  0
   -2.8490   24.9220  -29.6920 N   0  0  0  0  0  0  0  0  0  0  0  0
   -2.1460   23.7980  -29.3550 C   0  0  0  0  0  0  0  0  0  0  0  0
   -1.2189   23.8907  -28.7702 H   0  0  0  0  0  0  0  0  0  0  0  0
   -2.5980   22.5200  -29.7500 C   0  0  0  0  0  0  0  0  0  0  0  0
   -1.8360   21.3020  -29.3960 C   0  0  0  0  0  0  0  0  0  0  0  0
   -1.9730   20.7270  -28.1210 C   0  0  0  0  0  0  0  0  0  0  0  0
   -2.6529   21.1827  -27.3861 H   0  0  0  0  0  0  0  0  0  0  0  0
   -1.2510   19.5800  -27.7810 C   0  0  0  0  0  0  0  0  0  0  0  0
   -1.3732   19.1309  -26.7843 H   0  0  0  0  0  0  0  0  0  0  0  0
   -0.3720   19.0000  -28.7050 C   0  0  0  0  0  0  0  0  0  0  0  0
    0.5140   17.5390  -28.2880 S   0  0  0  0  0  0  0  0  0  0  0  0
   -0.1220   16.8750  -27.0980 O   0  0  0  0  0  0  0  0  0  0  0  0
    0.4770   16.5700  -29.4370 O   0  0  0  0  0  0  0  0  0  0  0  0
    2.1790   17.9660  -27.9180 C   0  0  0  0  0  0  0  0  0  0  0  0
    2.9600   17.1280  -27.1080 C   0  0  0  0  0  0  0  0  0  0  0  0
    2.5249   16.2090  -26.6884 H   0  0  0  0  0  0  0  0  0  0  0  0
    4.2910   17.4590  -26.8330 C   0  0  0  0  0  0  0  0  0  0  0  0
    4.8998   16.8019  -26.1946 H   0  0  0  0  0  0  0  0  0  0  0  0
    4.8480   18.6230  -27.3680 C   0  0  0  0  0  0  0  0  0  0  0  0
    5.8938   18.8835  -27.1479 H   0  0  0  0  0  0  0  0  0  0  0  0
    4.0770   19.4570  -28.1830 C   0  0  0  0  0  0  0  0  0  0  0  0
    4.5174   20.3717  -28.6066 H   0  0  0  0  0  0  0  0  0  0  0  0
    2.7460   19.1290  -28.4600 C   0  0  0  0  0  0  0  0  0  0  0  0
    2.1422   19.7847  -29.1046 H   0  0  0  0  0  0  0  0  0  0  0  0
   -0.2280   19.5700  -29.9760 C   0  0  0  0  0  0  0  0  0  0  0  0
    0.4554   19.1140  -30.7075 H   0  0  0  0  0  0  0  0  0  0  0  0
   -0.9510   20.7180  -30.3180 C   0  0  0  0  0  0  0  0  0  0  0  0
   -0.8258   21.1661  -31.3148 H   0  0  0  0  0  0  0  0  0  0  0  0
   -3.7940   22.4760  -30.4830 C   0  0  0  0  0  0  0  0  0  0  0  0
   -4.5300   21.4070  -30.9570 C   0  0  0  0  0  0  0  0  0  0  0  0
   -4.2905   20.3376  -30.8618 H   0  0  0  0  0  0  0  0  0  0  0  0
   -5.6380   21.9710  -31.5800 C   0  0  0  0  0  0  0  0  0  0  0  0
   -6.7370   21.2020  -32.1980 C   0  0  0  0  0  0  0  0  0  0  0  0
   -7.8600   21.7570  -32.3460 O   0  0  0  0  0  0  0  0  0  0  0  0
   -6.5620   19.8030  -32.6520 C   0  0  0  0  0  0  0  0  0  0  0  0
   -5.8780   19.5350  -33.8510 C   0  0  0  0  0  0  0  0  0  0  0  0
   -5.4631   20.3655  -34.4410 H   0  0  0  0  0  0  0  0  0  0  0  0
   -5.7220   18.2190  -34.2980 C   0  0  0  0  0  0  0  0  0  0  0  0
   -5.1782   18.0173  -35.2326 H   0  0  0  0  0  0  0  0  0  0  0  0
   -6.2560   17.1600  -33.5590 C   0  0  0  0  0  0  0  0  0  0  0  0
   -6.1276   16.1249  -33.9085 H   0  0  0  0  0  0  0  0  0  0  0  0
   -6.9530   17.4170  -32.3760 C   0  0  0  0  0  0  0  0  0  0  0  0
   -7.3777   16.5836  -31.7972 H   0  0  0  0  0  0  0  0  0  0  0  0
   -7.1120   18.7310  -31.9260 C   0  0  0  0  0  0  0  0  0  0  0  0
   -7.6704   18.9278  -30.9989 H   0  0  0  0  0  0  0  0  0  0  0  0
   -5.6120   23.3210  -31.4800 N   0  0  0  0  0  0  0  0  0  0  0  0
   -6.3450   23.9870  -31.8100 H   0  0  0  0  0  0  0  0  0  0  0  0
   -4.4820   23.6160  -30.8090 C   0  0  0  0  0  0  0  0  0  0  0  0
  1  2  1  0
  2  3  2  0
  3  4  1  0
  4  5  1  0
  5  6  1  0
  5  7  2  0
  7  8  1  0
  8  9  2  0
  9 10  1  0
  9 11  1  0
 11 12  1  0
 11 13  2  0
 13 14  1  0
 14 15  2  0
 14 16  2  0
 14 17  1  0
 17 18  2  0
 18 19  1  0
 18 20  1  0
 20 21  1  0
 20 22  2  0
 22 23  1  0
 22 24  1  0
 24 25  1  0
 24 26  2  0
 26 27  1  0
 13 28  1  0
 28 29  1  0
 28 30  2  0
 30 31  1  0
  7 32  1  0
 32 33  1  0
 33 34  1  0
 33 35  2  0
 35 36  1  0
 36 37  2  0
 36 38  1  0
 38 39  2  0
 39 40  1  0
 39 41  1  0
 41 42  1  0
 41 43  2  0
 43 44  1  0
 43 45  1  0
 45 46  1  0
 45 47  2  0
 47 48  1  0
 35 49  1  0
 49 50  1  0
 49 51  1  0
 51  3  1  0
 30  8  1  0
 51 32  2  0
 26 17  1  0
 47 38  1  0
M  CHG  1   4  -1
M  END
>  <UniqueID>  (18) 
18

>  <SMILES>  (18) 
[H]/N=c1/[n-]cc(-c2ccc(S(=O)(=O)c3ccccc3)cc2)c2cc(C(=O)c3ccccc3)[nH]c12

>  <Energy>  (18) 
104.96884137126693

>  <Genealogy>  (18) 
N=c1[n-]cc(-c2ccc(S(=O)(=O)c3ccccc3)cc2)c2cc(C(=O)c3ccccc3)[nH]c12 (protonated)
[H]/N=c1/[n-]cc(-c2ccc(S(=O)(=O)c3ccccc3)cc2)c2cc(C(=O)c3ccccc3)[nH]c12 (cis-trans isomerization)
[H]/N=c1/[n-]cc(-c2ccc(S(=O)(=O)c3ccccc3)cc2)c2cc(C(=O)c3ccccc3)[nH]c12 (3D coordinates assigned)
[H]/N=c1/[n-]cc(-c2ccc(S(=O)(=O)c3ccccc3)cc2)c2cc(C(=O)c3ccccc3)[nH]c12 (optimized conformer: 104.96884137126693 kcal/mol)

>  <smiles>  (18) 
N=c1[nH]cc(-c2ccc(S(=O)(=O)c3ccccc3)cc2)c2cc(C(=O)c3ccccc3)[nH]c12

>  <score_type>  (18) 
oracle

>  <origin>  (18) 
adgpu

>  <m_score__min__energy>  (18) 
-11.140000000000001

>  <m_primary>  (18) 
energy

$$$$
18:0
     RDKit          3D

 55 58  0  0  0  0  0  0  0  0999 V2000
   -0.9760   18.8760  -27.8570 C   0  0  0  0  0  0  0  0  0  0  0  0
   -0.9950   20.3790  -27.8850 C   0  0  0  0  0  0  0  0  0  0  0  0
   -1.2320   21.0680  -26.6860 C   0  0  0  0  0  0  0  0  0  0  0  0
   -1.2100   22.4620  -26.6490 C   0  0  0  0  0  0  0  0  0  0  0  0
   -0.9350   23.1940  -27.8090 C   0  0  0  0  0  0  0  0  0  0  0  0
   -0.8270   24.9510  -27.7510 S   0  0  0  0  0  0  0  0  0  0  0  0
    0.6230   25.3490  -27.7370 O   0  0  0  0  0  0  0  0  0  0  0  0
   -1.4750   25.5550  -28.9660 O   0  0  0  0  0  0  0  0  0  0  0  0
   -1.6160   25.5270  -26.3130 N   0  0  0  0  0  0  0  0  0  0  0  0
   -3.0520   25.3070  -26.1520 C   0  0  0  0  0  0  0  0  0  0  0  0
   -0.9100   26.4250  -25.4380 C   0  0  0  0  0  0  0  0  0  0  0  0
   -0.6390   27.7470  -25.8350 C   0  0  0  0  0  0  0  0  0  0  0  0
    0.0910   28.5990  -25.0010 C   0  0  0  0  0  0  0  0  0  0  0  0
    0.5550   28.1390  -23.7660 C   0  0  0  0  0  0  0  0  0  0  0  0
    0.2720   26.8330  -23.3550 C   0  0  0  0  0  0  0  0  0  0  0  0
   -0.4600   25.9790  -24.1840 C   0  0  0  0  0  0  0  0  0  0  0  0
   -0.7090   22.5180  -29.0140 C   0  0  0  0  0  0  0  0  0  0  0  0
   -0.7840   21.1210  -29.0760 C   0  0  0  0  0  0  0  0  0  0  0  0
   -0.6500   20.4940  -30.3580 N   0  0  0  0  0  0  0  0  0  0  0  0
   -0.9850   21.0900  -31.6220 C   0  0  0  0  0  0  0  0  0  0  0  0
   -0.0560   21.3370  -32.4360 O   0  0  0  0  0  0  0  0  0  0  0  0
   -2.3820   21.4150  -31.9960 C   0  0  0  0  0  0  0  0  0  0  0  0
   -3.0000   20.7320  -33.0570 C   0  0  0  0  0  0  0  0  0  0  0  0
   -4.3310   20.9950  -33.3860 C   0  0  0  0  0  0  0  0  0  0  0  0
   -5.0610   21.9420  -32.6630 C   0  0  0  0  0  0  0  0  0  0  0  0
   -4.4560   22.6430  -31.6100 C   0  0  0  0  0  0  0  0  0  0  0  0
   -5.2050   23.6090  -30.8540 N   0  0  0  0  0  0  0  0  0  0  0  0
   -4.7630   24.8050  -30.4150 C   0  0  0  0  0  0  0  0  0  0  0  0
   -3.4830   25.2970  -30.6460 O   0  0  0  0  0  0  0  0  0  0  0  0
   -5.7520   25.4770  -29.7240 C   0  0  0  0  0  0  0  0  0  0  0  0
   -6.8590   24.6470  -29.7350 C   0  0  0  0  0  0  0  0  0  0  0  0
   -6.4850   23.5120  -30.4270 C   0  0  0  0  0  0  0  0  0  0  0  0
   -7.3080   22.4020  -30.6120 O   0  0  0  0  0  0  0  0  0  0  0  0
   -3.1100   22.3970  -31.3000 C   0  0  0  0  0  0  0  0  0  0  0  0
   -0.9716   18.5287  -26.8133 H   0  0  0  0  0  0  0  0  0  0  0  0
   -1.8693   18.4884  -28.3686 H   0  0  0  0  0  0  0  0  0  0  0  0
   -0.0732   18.5111  -28.3686 H   0  0  0  0  0  0  0  0  0  0  0  0
   -1.4374   20.5025  -25.7651 H   0  0  0  0  0  0  0  0  0  0  0  0
   -1.4097   22.9881  -25.7038 H   0  0  0  0  0  0  0  0  0  0  0  0
   -3.2993   25.2691  -25.0808 H   0  0  0  0  0  0  0  0  0  0  0  0
   -3.6047   26.1309  -26.6270 H   0  0  0  0  0  0  0  0  0  0  0  0
   -3.3327   24.3554  -26.6270 H   0  0  0  0  0  0  0  0  0  0  0  0
   -1.0033   28.1122  -26.8065 H   0  0  0  0  0  0  0  0  0  0  0  0
    0.3001   29.6316  -25.3171 H   0  0  0  0  0  0  0  0  0  0  0  0
    1.1431   28.8045  -23.1169 H   0  0  0  0  0  0  0  0  0  0  0  0
    0.6265   26.4768  -22.3765 H   0  0  0  0  0  0  0  0  0  0  0  0
   -0.6847   24.9541  -23.8537 H   0  0  0  0  0  0  0  0  0  0  0  0
   -0.4698   23.0906  -29.9222 H   0  0  0  0  0  0  0  0  0  0  0  0
   -2.4318   19.9858  -33.6317 H   0  0  0  0  0  0  0  0  0  0  0  0
   -4.8069   20.4546  -34.2176 H   0  0  0  0  0  0  0  0  0  0  0  0
   -6.1124   22.1380  -32.9204 H   0  0  0  0  0  0  0  0  0  0  0  0
   -5.6752   26.4709  -29.2590 H   0  0  0  0  0  0  0  0  0  0  0  0
   -7.8409   24.8506  -29.2828 H   0  0  0  0  0  0  0  0  0  0  0  0
   -7.3740   21.9280  -31.5040 H   0  0  0  0  0  0  0  0  0  0  0  0
   -2.6192   22.9776  -30.5050 H   0  0  0  0  0  0  0  0  0  0  0  0
  1  2  1  0
  2  3  2  0
  3  4  1  0
  4  5  2  0
  5  6  1  0
  6  7  2  0
  6  8  2  0
  6  9  1  0
  9 10  1  0
  9 11  1  0
 11 12  2  0
 12 13  1  0
 13 14  2  0
 14 15  1  0
 15 16  2  0
  5 17  1  0
 17 18  2  0
 18 19  1  0
 19 20  1  0
 20 21  2  0
 20 22  1  0
 22 23  2  0
 23 24  1  0
 24 25  2  0
 25 26  1  0
 26 27  1  0
 27 28  1  0
 28 29  1  0
 28 30  2  0
 30 31  1  0
 31 32  2  0
 32 33  1  0
 26 34  2  0
 18  2  1  0
 34 22  1  0
 16 11  1  0
 32 27  1  0
  1 35  1  0
  1 36  1  0
  1 37  1  0
  3 38  1  0
  4 39  1  0
 10 40  1  0
 10 41  1  0
 10 42  1  0
 12 43  1  0
 13 44  1  0
 14 45  1  0
 15 46  1  0
 16 47  1  0
 17 48  1  0
 23 49  1  0
 24 50  1  0
 25 51  1  0
 30 52  1  0
 31 53  1  0
 33 54  1  0
 34 55  1  0
M  CHG  2  19  -1  29  -1
M  END
>  <UniqueID>  (19) 
19

>  <SMILES>  (19) 
Cc1ccc(S(=O)(=O)N(C)c2ccccc2)cc1[N-]C(=O)c1cccc(-n2c([O-])ccc2O)c1

>  <Energy>  (19) 
105.96079868707601

>  <Genealogy>  (19) 
Cc1ccc(S(=O)(=O)N(C)c2ccccc2)cc1[N-]C(=O)c1cccc(-n2c([O-])ccc2O)c1 (protonated)
Cc1ccc(S(=O)(=O)N(C)c2ccccc2)cc1[N-]C(=O)c1cccc(-n2c([O-])ccc2O)c1 (3D coordinates assigned)
Cc1ccc(S(=O)(=O)N(C)c2ccccc2)cc1[N-]C(=O)c1cccc(-n2c([O-])ccc2O)c1 (optimized conformer: 105.96079868707601 kcal/mol)

>  <smiles>  (19) 
Cc1ccc(S(=O)(=O)N(C)c2ccccc2)cc1NC(=O)c1cccc(-n2c(O)ccc2O)c1

>  <score_type>  (19) 
oracle

>  <origin>  (19) 
adgpu

>  <m_score__min__energy>  (19) 
-12.880000000000001

>  <m_primary>  (19) 
energy

$$$$
19:0
     RDKit          3D

 50 52  0  0  0  0  0  0  0  0999 V2000
    0.7516   22.0399  -27.1382 H   0  0  0  0  0  0  0  0  0  0  0  0
   -0.2150   21.9320  -27.6520 C   0  0  0  0  0  0  0  0  0  0  0  0
   -0.6714   20.9372  -27.7619 H   0  0  0  0  0  0  0  0  0  0  0  0
   -0.8340   23.0080  -28.1420 C   0  0  0  0  0  0  0  0  0  0  0  0
   -2.0250   22.9170  -28.7810 N   0  0  0  0  0  0  0  0  0  0  0  0
   -2.3230   24.1870  -29.1260 C   0  0  0  0  0  0  0  0  0  0  0  0
   -3.4150   24.5630  -29.8110 C   0  0  0  0  0  0  0  0  0  0  0  0
   -3.5251   25.6293  -30.0578 H   0  0  0  0  0  0  0  0  0  0  0  0
   -4.4810   23.6360  -30.2560 C   0  0  0  0  0  0  0  0  0  0  0  0
   -5.8390   23.8700  -29.9750 C   0  0  0  0  0  0  0  0  0  0  0  0
   -6.1318   24.7557  -29.3920 H   0  0  0  0  0  0  0  0  0  0  0  0
   -6.8190   22.9840  -30.4320 C   0  0  0  0  0  0  0  0  0  0  0  0
   -7.8766   23.1710  -30.1941 H   0  0  0  0  0  0  0  0  0  0  0  0
   -6.4650   21.8560  -31.1930 C   0  0  0  0  0  0  0  0  0  0  0  0
   -7.5060   20.9140  -31.6770 C   0  0  0  0  0  0  0  0  0  0  0  0
   -8.8320   21.3480  -31.8680 C   0  0  0  0  0  0  0  0  0  0  0  0
   -9.1002   22.3937  -31.6570 H   0  0  0  0  0  0  0  0  0  0  0  0
   -9.8100   20.4590  -32.3240 C   0  0  0  0  0  0  0  0  0  0  0  0
  -10.8434   20.8068  -32.4696 H   0  0  0  0  0  0  0  0  0  0  0  0
   -9.4770   19.1300  -32.5950 C   0  0  0  0  0  0  0  0  0  0  0  0
  -10.2477   18.4327  -32.9553 H   0  0  0  0  0  0  0  0  0  0  0  0
   -8.1670   18.6860  -32.4090 C   0  0  0  0  0  0  0  0  0  0  0  0
   -7.8440   17.3960  -32.6750 F   0  0  0  0  0  0  0  0  0  0  0  0
   -7.1830   19.5710  -31.9530 C   0  0  0  0  0  0  0  0  0  0  0  0
   -6.1519   19.2158  -31.8094 H   0  0  0  0  0  0  0  0  0  0  0  0
   -5.1090   21.6390  -31.4950 C   0  0  0  0  0  0  0  0  0  0  0  0
   -4.8166   20.7652  -32.0959 H   0  0  0  0  0  0  0  0  0  0  0  0
   -4.1290   22.5260  -31.0370 C   0  0  0  0  0  0  0  0  0  0  0  0
   -3.0733   22.3512  -31.2917 H   0  0  0  0  0  0  0  0  0  0  0  0
   -1.3080   25.0130  -28.7000 C   0  0  0  0  0  0  0  0  0  0  0  0
   -1.2470   26.2630  -28.8660 O   0  0  0  0  0  0  0  0  0  0  0  0
   -0.3660   24.2840  -28.0730 N   0  0  0  0  0  0  0  0  0  0  0  0
    0.8680   24.8050  -27.4670 C   0  0  0  0  0  0  0  0  0  0  0  0
    1.7270   24.2478  -27.8691 H   0  0  0  0  0  0  0  0  0  0  0  0
    0.9479   25.8748  -27.7101 H   0  0  0  0  0  0  0  0  0  0  0  0
    0.8480   24.6570  -25.9360 C   0  0  0  0  0  0  0  0  0  0  0  0
    1.3646   23.7230  -25.6697 H   0  0  0  0  0  0  0  0  0  0  0  0
    1.3476   25.5437  -25.5187 H   0  0  0  0  0  0  0  0  0  0  0  0
   -0.5820   24.6150  -25.3370 C   0  0  0  0  0  0  0  0  0  0  0  0
   -1.1383   23.8086  -25.8372 H   0  0  0  0  0  0  0  0  0  0  0  0
   -0.4588   24.4538  -24.2559 H   0  0  0  0  0  0  0  0  0  0  0  0
   -1.3570   25.8680  -25.4840 N   0  0  0  0  0  0  0  0  0  0  0  0
   -2.7630   25.6400  -25.8490 C   0  0  0  0  0  0  0  0  0  0  0  0
   -3.3677   25.5419  -24.9354 H   0  0  0  0  0  0  0  0  0  0  0  0
   -3.1303   26.4903  -26.4423 H   0  0  0  0  0  0  0  0  0  0  0  0
   -2.8428   24.7172  -26.4423 H   0  0  0  0  0  0  0  0  0  0  0  0
   -1.2400   26.7600  -24.3190 C   0  0  0  0  0  0  0  0  0  0  0  0
   -1.3176   26.1683  -23.3949 H   0  0  0  0  0  0  0  0  0  0  0  0
   -0.2670   27.2723  -24.3457 H   0  0  0  0  0  0  0  0  0  0  0  0
   -2.0480   27.5059  -24.3457 H   0  0  0  0  0  0  0  0  0  0  0  0
  1  2  1  0
  2  3  1  0
  2  4  2  0
  4  5  1  0
  5  6  1  0
  6  7  2  0
  7  8  1  0
  7  9  1  0
  9 10  2  0
 10 11  1  0
 10 12  1  0
 12 13  1  0
 12 14  2  0
 14 15  1  0
 15 16  2  0
 16 17  1  0
 16 18  1  0
 18 19  1  0
 18 20  2  0
 20 21  1  0
 20 22  1  0
 22 23  1  0
 22 24  2  0
 24 25  1  0
 14 26  1  0
 26 27  1  0
 26 28  2  0
 28 29  1  0
  6 30  1  0
 30 31  2  0
 30 32  1  0
 32 33  1  0
 33 34  1  0
 33 35  1  0
 33 36  1  0
 36 37  1  0
 36 38  1  0
 36 39  1  0
 39 40  1  0
 39 41  1  0
 39 42  1  0
 42 43  1  0
 43 44  1  0
 43 45  1  0
 43 46  1  0
 42 47  1  0
 47 48  1  0
 47 49  1  0
 47 50  1  0
 32  4  1  0
 28  9  1  0
 24 15  1  0
M  CHG  1   5  -1
M  END
>  <UniqueID>  (20) 
20

>  <SMILES>  (20) 
C=c1[n-]/c(=C\c2ccc(-c3cccc(F)c3)cc2)c(=O)n1CCCN(C)C

>  <Energy>  (20) 
97.76053988206168

>  <Genealogy>  (20) 
C=c1[n-]c(=Cc2ccc(-c3cccc(F)c3)cc2)c(=O)n1CCCN(C)C (protonated)
C=c1[n-]/c(=C\c2ccc(-c3cccc(F)c3)cc2)c(=O)n1CCCN(C)C (cis-trans isomerization)
C=c1[n-]/c(=C\c2ccc(-c3cccc(F)c3)cc2)c(=O)n1CCCN(C)C (3D coordinates assigned)
C=c1[n-]/c(=C\c2ccc(-c3cccc(F)c3)cc2)c(=O)n1CCCN(C)C (optimized conformer: 97.76053988206168 kcal/mol)

>  <smiles>  (20) 
C=c1[nH]c(=Cc2ccc(-c3cccc(F)c3)cc2)c(=O)n1CCCN(C)C

>  <score_type>  (20) 
oracle

>  <origin>  (20) 
adgpu

>  <m_score__min__energy>  (20) 
-8.9700000000000006

>  <m_primary>  (20) 
energy

$$$$
20:0
     RDKit          3D

 49 51  0  0  0  0  0  0  0  0999 V2000
   -0.5060   27.6580  -27.5090 C   0  0  0  0  0  0  0  0  0  0  0  0
   -0.9470   26.5650  -28.3080 O   0  0  0  0  0  0  0  0  0  0  0  0
   -1.1400   25.2580  -27.8320 C   0  0  0  0  0  0  0  0  0  0  0  0
   -0.4600   24.7650  -26.7000 C   0  0  0  0  0  0  0  0  0  0  0  0
   -0.6750   23.4550  -26.2630 C   0  0  0  0  0  0  0  0  0  0  0  0
   -1.5570   22.6220  -26.9530 C   0  0  0  0  0  0  0  0  0  0  0  0
   -2.2340   23.1010  -28.0760 C   0  0  0  0  0  0  0  0  0  0  0  0
   -2.0500   24.4250  -28.5040 C   0  0  0  0  0  0  0  0  0  0  0  0
   -2.7310   24.9220  -29.6600 N   0  0  0  0  0  0  0  0  0  0  0  0
   -4.1280   24.1660  -30.3600 S   0  0  0  0  0  0  0  0  0  0  0  0
   -4.8380   25.1670  -31.2270 O   0  0  0  0  0  0  0  0  0  0  0  0
   -5.0610   23.7420  -29.2600 O   0  0  0  0  0  0  0  0  0  0  0  0
   -3.7020   22.7620  -31.3360 C   0  0  0  0  0  0  0  0  0  0  0  0
   -4.5510   22.3420  -32.3690 C   0  0  0  0  0  0  0  0  0  0  0  0
   -4.2380   21.2080  -33.1220 C   0  0  0  0  0  0  0  0  0  0  0  0
   -3.0690   20.4730  -32.8540 C   0  0  0  0  0  0  0  0  0  0  0  0
   -2.7350   19.2680  -33.6490 C   0  0  0  0  0  0  0  0  0  0  0  0
   -1.6120   18.7110  -33.5100 O   0  0  0  0  0  0  0  0  0  0  0  0
   -3.6870   18.7270  -34.5730 N   0  0  0  0  0  0  0  0  0  0  0  0
   -4.6630   17.7020  -34.2200 C   0  0  0  0  0  0  0  0  0  0  0  0
   -5.8390   18.3250  -33.5180 C   0  0  0  0  0  0  0  0  0  0  0  0
   -6.2660   17.8180  -32.2800 C   0  0  0  0  0  0  0  0  0  0  0  0
   -7.3350   18.4140  -31.6050 C   0  0  0  0  0  0  0  0  0  0  0  0
   -7.9970   19.5200  -32.1600 C   0  0  0  0  0  0  0  0  0  0  0  0
   -9.1130   20.1850  -31.4120 C   0  0  0  0  0  0  0  0  0  0  0  0
   -7.5550   20.0420  -33.3860 C   0  0  0  0  0  0  0  0  0  0  0  0
   -6.4870   19.4450  -34.0630 C   0  0  0  0  0  0  0  0  0  0  0  0
   -2.2210   20.9010  -31.8160 C   0  0  0  0  0  0  0  0  0  0  0  0
   -2.5360   22.0360  -31.0640 C   0  0  0  0  0  0  0  0  0  0  0  0
   -0.6102   27.3998  -26.4448 H   0  0  0  0  0  0  0  0  0  0  0  0
    0.5493   27.8732  -27.7325 H   0  0  0  0  0  0  0  0  0  0  0  0
   -1.1165   28.5453  -27.7325 H   0  0  0  0  0  0  0  0  0  0  0  0
    0.2432   25.4144  -26.1580 H   0  0  0  0  0  0  0  0  0  0  0  0
   -0.1480   23.0797  -25.3734 H   0  0  0  0  0  0  0  0  0  0  0  0
   -1.7186   21.5887  -26.6122 H   0  0  0  0  0  0  0  0  0  0  0  0
   -2.9153   22.4372  -28.6284 H   0  0  0  0  0  0  0  0  0  0  0  0
   -5.4683   22.9082  -32.5878 H   0  0  0  0  0  0  0  0  0  0  0  0
   -4.9109   20.8872  -33.9309 H   0  0  0  0  0  0  0  0  0  0  0  0
   -5.0102   17.2001  -35.1352 H   0  0  0  0  0  0  0  0  0  0  0  0
   -4.1894   16.9713  -33.5479 H   0  0  0  0  0  0  0  0  0  0  0  0
   -5.7570   16.9480  -31.8396 H   0  0  0  0  0  0  0  0  0  0  0  0
   -7.6593   18.0138  -30.6331 H   0  0  0  0  0  0  0  0  0  0  0  0
   -8.9414   20.0828  -30.3303 H   0  0  0  0  0  0  0  0  0  0  0  0
   -9.1485   21.2517  -31.6784 H   0  0  0  0  0  0  0  0  0  0  0  0
  -10.0680   19.7086  -31.6784 H   0  0  0  0  0  0  0  0  0  0  0  0
   -8.0511   20.9246  -33.8160 H   0  0  0  0  0  0  0  0  0  0  0  0
   -6.1528   19.8549  -35.0275 H   0  0  0  0  0  0  0  0  0  0  0  0
   -1.3026   20.3376  -31.5946 H   0  0  0  0  0  0  0  0  0  0  0  0
   -1.8651   22.3604  -30.2549 H   0  0  0  0  0  0  0  0  0  0  0  0
  1  2  1  0
  2  3  1  0
  3  4  2  0
  4  5  1  0
  5  6  2  0
  6  7  1  0
  7  8  2  0
  8  9  1  0
  9 10  1  0
 10 11  2  0
 10 12  2  0
 10 13  1  0
 13 14  2  0
 14 15  1  0
 15 16  2  0
 16 17  1  0
 17 18  2  0
 17 19  1  0
 19 20  1  0
 20 21  1  0
 21 22  2  0
 22 23  1  0
 23 24  2  0
 24 25  1  0
 24 26  1  0
 26 27  2  0
 16 28  1  0
 28 29  2  0
  8  3  1  0
 29 13  1  0
 27 21  1  0
  1 30  1  0
  1 31  1  0
  1 32  1  0
  4 33  1  0
  5 34  1  0
  6 35  1  0
  7 36  1  0
 14 37  1  0
 15 38  1  0
 20 39  1  0
 20 40  1  0
 22 41  1  0
 23 42  1  0
 25 43  1  0
 25 44  1  0
 25 45  1  0
 26 46  1  0
 27 47  1  0
 28 48  1  0
 29 49  1  0
M  CHG  2   9  -1  19  -1
M  END
>  <UniqueID>  (21) 
21

>  <SMILES>  (21) 
COc1ccccc1[N-]S(=O)(=O)c1ccc(C(=O)[N-]Cc2ccc(C)cc2)cc1

>  <Energy>  (21) 
57.303606223868655

>  <Genealogy>  (21) 
COc1ccccc1[N-]S(=O)(=O)c1ccc(C(=O)[N-]Cc2ccc(C)cc2)cc1 (protonated)
COc1ccccc1[N-]S(=O)(=O)c1ccc(C(=O)[N-]Cc2ccc(C)cc2)cc1 (3D coordinates assigned)
COc1ccccc1[N-]S(=O)(=O)c1ccc(C(=O)[N-]Cc2ccc(C)cc2)cc1 (optimized conformer: 57.303606223868655 kcal/mol)

>  <smiles>  (21) 
COc1ccccc1NS(=O)(=O)c1ccc(C(=O)NCc2ccc(C)cc2)cc1

>  <score_type>  (21) 
oracle

>  <origin>  (21) 
adgpu

>  <m_score__min__energy>  (21) 
-11.35

>  <m_primary>  (21) 
energy

$$$$
21:0
     RDKit          3D

 47 49  0  0  1  0  0  0  0  0999 V2000
    4.4170   25.8360  -22.4060 C   0  0  0  0  0  0  0  0  0  0  0  0
    4.3080   24.6590  -23.0100 C   0  0  0  0  0  0  0  0  0  0  0  0
    3.5200   24.6620  -24.2630 C   0  0  0  0  0  0  0  0  0  0  0  0
    4.1400   24.3180  -25.2910 O   0  0  0  0  0  0  0  0  0  0  0  0
    2.1580   25.0380  -24.2480 N   0  0  0  0  0  0  0  0  0  0  0  0
    1.2980   25.0840  -25.3630 C   0  0  0  0  0  0  0  0  0  0  0  0
    1.5530   24.5260  -26.5900 C   0  0  0  0  0  0  0  0  0  0  0  0
    0.6580   24.6060  -27.6580 C   0  0  0  0  0  0  0  0  0  0  0  0
   -0.5650   25.2800  -27.5100 C   0  0  0  0  0  0  0  0  0  0  0  0
   -1.4840   25.4140  -28.5780 N   0  0  0  0  0  0  0  0  0  0  0  0
   -2.3960   24.5700  -28.7990 C   0  0  0  0  0  0  0  0  0  0  0  0
   -3.2220   24.8030  -29.8550 N   0  0  0  0  0  0  0  0  0  0  0  0
   -4.2260   23.9660  -30.1790 C   0  0  0  0  0  0  0  0  0  0  0  0
   -4.9600   24.2490  -31.1810 N   0  0  0  0  0  0  0  0  0  0  0  0
   -6.0190   23.4040  -31.5540 C   0  0  0  0  0  0  0  0  0  0  0  0
   -7.3500   23.7540  -31.5310 C   0  0  0  0  0  0  0  0  0  0  0  0
   -8.3330   22.8790  -31.9090 C   0  0  0  0  0  0  0  0  0  0  0  0
   -7.9790   21.6060  -32.3270 C   0  0  0  0  0  0  0  0  0  0  0  0
   -6.6630   21.2110  -32.3660 C   0  0  0  0  0  0  0  0  0  0  0  0
   -6.2370   19.5940  -32.8990 S   0  0  0  0  0  0  0  0  0  0  0  0
   -6.4660   19.4970  -34.6040 N   0  0  0  0  0  0  0  0  0  0  0  0
   -7.0980   18.5700  -32.2470 O   0  0  0  0  0  0  0  0  0  0  0  0
   -4.7780   19.3570  -32.5750 O   0  0  0  0  0  0  0  0  0  0  0  0
   -5.6860   22.1170  -31.9780 C   0  0  0  0  0  0  0  0  0  0  0  0
   -4.4520   22.8600  -29.4630 N   0  0  0  0  0  0  0  0  0  0  0  0
   -3.6420   22.6160  -28.4150 C   0  0  0  0  0  0  0  0  0  0  0  0
   -2.6040   23.4420  -28.0470 C   0  0  0  0  0  0  0  0  0  0  0  0
   -1.5990   23.0730  -26.6890 Cl  0  0  0  0  0  0  0  0  0  0  0  0
   -0.7990   25.8370  -26.2580 C   0  0  0  0  0  0  0  0  0  0  0  0
    0.0980   25.7450  -25.2180 C   0  0  0  0  0  0  0  0  0  0  0  0
    4.9861   25.9226  -21.4686 H   0  0  0  0  0  0  0  0  0  0  0  0
    3.9382   26.7248  -22.8428 H   0  0  0  0  0  0  0  0  0  0  0  0
    4.7707   23.7457  -22.6077 H   0  0  0  0  0  0  0  0  0  0  0  0
    1.7750   25.3040  -23.2990 H   0  0  0  0  0  0  0  0  0  0  0  0
    2.5035   23.9927  -26.7385 H   0  0  0  0  0  0  0  0  0  0  0  0
    0.9120   24.1386  -28.6208 H   0  0  0  0  0  0  0  0  0  0  0  0
   -3.0840   25.6630  -30.4490 H   0  0  0  0  0  0  0  0  0  0  0  0
   -7.6317   24.7644  -31.1998 H   0  0  0  0  0  0  0  0  0  0  0  0
   -9.3899   23.1825  -31.8813 H   0  0  0  0  0  0  0  0  0  0  0  0
   -8.7647   20.8995  -32.6328 H   0  0  0  0  0  0  0  0  0  0  0  0
   -7.2970   20.0510  -34.9180 H   0  0  0  0  0  0  0  0  0  0  0  0
   -6.6320   18.4760  -34.8310 H   0  0  0  0  0  0  0  0  0  0  0  0
   -4.6287   21.8147  -32.0052 H   0  0  0  0  0  0  0  0  0  0  0  0
   -5.2060   22.1900  -29.6710 H   0  0  0  0  0  0  0  0  0  0  0  0
   -3.8195   21.7074  -27.8209 H   0  0  0  0  0  0  0  0  0  0  0  0
   -1.7435   26.3755  -26.0909 H   0  0  0  0  0  0  0  0  0  0  0  0
   -0.1483   26.2087  -24.2514 H   0  0  0  0  0  0  0  0  0  0  0  0
  1  2  2  0
  2  3  1  0
  3  4  2  0
  3  5  1  0
  5  6  1  0
  6  7  2  0
  7  8  1  0
  8  9  2  0
  9 10  1  0
 10 11  2  0
 11 12  1  0
 12 13  1  0
 13 14  2  0
 14 15  1  0
 15 16  2  0
 16 17  1  0
 17 18  2  0
 18 19  1  0
 19 20  1  0
 20 21  1  0
 20 22  2  0
 20 23  2  0
 19 24  2  0
 13 25  1  0
 25 26  1  0
 26 27  2  0
 27 28  1  0
  9 29  1  0
 29 30  2  0
 30  6  1  0
 27 11  1  0
 24 15  1  0
  1 31  1  0
  1 32  1  0
  2 33  1  0
  5 34  1  0
  7 35  1  0
  8 36  1  0
 12 37  1  0
 16 38  1  0
 17 39  1  0
 18 40  1  0
 21 41  1  0
 21 42  1  0
 24 43  1  0
 25 44  1  0
 26 45  1  0
 29 46  1  0
 30 47  1  0
M  END
>  <smiles>  (22) 
C=CC(=O)Nc1ccc(N=c2[nH]c(=Nc3cccc(S(N)(=O)=O)c3)[nH]cc2Cl)cc1

>  <score_type>  (22) 
oracle

>  <origin>  (22) 
adgpu

>  <m_score__min__energy>  (22) 
-9.9900000000000002

>  <m_primary>  (22) 
energy

$$$$
22:0
     RDKit          3D

 39 42  0  0  0  0  0  0  0  0999 V2000
   -1.5440   15.5800  -36.4800 N   0  0  0  0  0  0  0  0  0  0  0  0
   -0.9680   16.7150  -35.3100 S   0  0  0  0  0  0  0  0  0  0  0  0
   -0.1710   15.9930  -34.2600 O   0  0  0  0  0  0  0  0  0  0  0  0
   -0.0780   17.7210  -35.9840 O   0  0  0  0  0  0  0  0  0  0  0  0
   -2.3330   17.5360  -34.5610 C   0  0  0  0  0  0  0  0  0  0  0  0
   -3.5440   16.8350  -34.3360 C   0  0  0  0  0  0  0  0  0  0  0  0
   -4.6490   17.4850  -33.7550 C   0  0  0  0  0  0  0  0  0  0  0  0
   -4.5020   18.8280  -33.4060 C   0  0  0  0  0  0  0  0  0  0  0  0
   -3.3450   19.5100  -33.6420 C   0  0  0  0  0  0  0  0  0  0  0  0
   -2.2340   18.9010  -34.2180 C   0  0  0  0  0  0  0  0  0  0  0  0
   -3.4730   20.7980  -33.2770 N   0  0  0  0  0  0  0  0  0  0  0  0
   -4.7470   20.8650  -32.8080 C   0  0  0  0  0  0  0  0  0  0  0  0
   -5.2970   22.1170  -32.2570 C   0  0  0  0  0  0  0  0  0  0  0  0
   -6.6270   22.5080  -32.2300 C   0  0  0  0  0  0  0  0  0  0  0  0
   -6.6500   23.7320  -31.5950 C   0  0  0  0  0  0  0  0  0  0  0  0
   -5.3350   24.0010  -31.2710 C   0  0  0  0  0  0  0  0  0  0  0  0
   -4.8660   25.1660  -30.5900 N   0  0  0  0  0  0  0  0  0  0  0  0
   -3.6570   25.2960  -30.3120 O   0  0  0  0  0  0  0  0  0  0  0  0
   -5.7540   26.1560  -30.2360 O   0  0  0  0  0  0  0  0  0  0  0  0
   -4.5530   23.0270  -31.6690 O   0  0  0  0  0  0  0  0  0  0  0  0
   -5.4050   19.6720  -32.8760 N   0  0  0  0  0  0  0  0  0  0  0  0
   -6.7880   19.3900  -32.6050 C   0  0  0  0  0  0  0  0  0  0  0  0
   -7.1400   18.4780  -31.5980 C   0  0  0  0  0  0  0  0  0  0  0  0
   -8.4850   18.2070  -31.3340 C   0  0  0  0  0  0  0  0  0  0  0  0
   -9.4850   18.8490  -32.0690 C   0  0  0  0  0  0  0  0  0  0  0  0
   -9.1420   19.7640  -33.0690 C   0  0  0  0  0  0  0  0  0  0  0  0
   -7.7960   20.0360  -33.3350 C   0  0  0  0  0  0  0  0  0  0  0  0
   -1.0030   15.7470  -37.3570 H   0  0  0  0  0  0  0  0  0  0  0  0
   -2.5370   15.8320  -36.6870 H   0  0  0  0  0  0  0  0  0  0  0  0
   -3.6210   15.7745  -34.6177 H   0  0  0  0  0  0  0  0  0  0  0  0
   -5.5959   16.9526  -33.5820 H   0  0  0  0  0  0  0  0  0  0  0  0
   -1.3079   19.4660  -34.4001 H   0  0  0  0  0  0  0  0  0  0  0  0
   -7.4882   21.9547  -32.6329 H   0  0  0  0  0  0  0  0  0  0  0  0
   -7.5292   24.3605  -31.3901 H   0  0  0  0  0  0  0  0  0  0  0  0
   -6.3546   17.9750  -31.0148 H   0  0  0  0  0  0  0  0  0  0  0  0
   -8.7568   17.4879  -30.5472 H   0  0  0  0  0  0  0  0  0  0  0  0
  -10.5435   18.6343  -31.8606 H   0  0  0  0  0  0  0  0  0  0  0  0
   -9.9302   20.2696  -33.6462 H   0  0  0  0  0  0  0  0  0  0  0  0
   -7.5274   20.7590  -34.1193 H   0  0  0  0  0  0  0  0  0  0  0  0
  1  2  1  0
  2  3  2  0
  2  4  2  0
  2  5  1  0
  5  6  2  0
  6  7  1  0
  7  8  2  0
  8  9  1  0
  9 10  2  0
  9 11  1  0
 11 12  2  0
 12 13  1  0
 13 14  2  0
 14 15  1  0
 15 16  2  0
 16 17  1  0
 17 18  2  0
 17 19  1  0
 16 20  1  0
 12 21  1  0
 21 22  1  0
 22 23  2  0
 23 24  1  0
 24 25  2  0
 25 26  1  0
 26 27  2  0
 10  5  1  0
 20 13  1  0
 27 22  1  0
 21  8  1  0
  1 28  1  0
  1 29  1  0
  6 30  1  0
  7 31  1  0
 10 32  1  0
 14 33  1  0
 15 34  1  0
 23 35  1  0
 24 36  1  0
 25 37  1  0
 26 38  1  0
 27 39  1  0
M  CHG  2  17   1  19  -1
M  END
>  <UniqueID>  (23) 
22

>  <SMILES>  (23) 
NS(=O)(=O)c1ccc2c(c1)nc(-c1ccc([N+](=O)[O-])o1)n2-c1ccccc1

>  <Energy>  (23) 
113.40899324277481

>  <Genealogy>  (23) 
NS(=O)(=O)c1ccc2c(c1)nc(-c1ccc([N+](=O)[O-])o1)n2-c1ccccc1 (3D coordinates assigned)
NS(=O)(=O)c1ccc2c(c1)nc(-c1ccc([N+](=O)[O-])o1)n2-c1ccccc1 (optimized conformer: 113.40899324277481 kcal/mol)

>  <smiles>  (23) 
NS(=O)(=O)c1ccc2c(c1)nc(-c1ccc([N+](=O)[O-])o1)n2-c1ccccc1

>  <score_type>  (23) 
oracle

>  <origin>  (23) 
adgpu

>  <m_score__min__energy>  (23) 
-8.4900000000000002

>  <m_primary>  (23) 
energy

$$$$
23:0
     RDKit          3D

 54 57  0  0  1  0  0  0  0  0999 V2000
   -9.8450   20.4450  -32.3340 C   0  0  0  0  0  0  0  0  0  0  0  0
   -8.5790   19.6440  -32.3330 C   0  0  0  0  0  0  0  0  0  0  0  0
   -8.3390   18.9910  -31.2950 O   0  0  0  0  0  0  0  0  0  0  0  0
   -7.7210   19.6450  -33.4580 N   0  0  0  0  0  0  0  0  0  0  0  0
   -6.5100   18.9360  -33.5760 C   0  0  0  0  0  0  0  0  0  0  0  0
   -6.5840   17.5440  -33.4620 C   0  0  0  0  0  0  0  0  0  0  0  0
   -5.4450   16.7760  -33.5650 C   0  0  0  0  0  0  0  0  0  0  0  0
   -4.1890   17.3050  -33.7810 C   0  0  0  0  0  0  0  0  0  0  0  0
   -4.1150   18.6810  -33.8950 C   0  0  0  0  0  0  0  0  0  0  0  0
   -2.8540   19.3130  -34.1200 N   0  0  0  0  0  0  0  0  0  0  0  0
   -2.4090   20.0790  -33.1790 C   0  0  0  0  0  0  0  0  0  0  0  0
   -3.0780   20.2910  -32.0290 N   0  0  0  0  0  0  0  0  0  0  0  0
   -2.5460   21.1010  -31.1000 C   0  0  0  0  0  0  0  0  0  0  0  0
   -3.2280   21.2690  -30.0160 N   0  0  0  0  0  0  0  0  0  0  0  0
   -2.7450   22.1110  -28.9750 C   0  0  0  0  0  0  0  0  0  0  0  0
   -2.2010   21.5190  -27.8510 C   0  0  0  0  0  0  0  0  0  0  0  0
   -1.7030   22.2400  -26.7850 C   0  0  0  0  0  0  0  0  0  0  0  0
   -1.1580   21.5780  -25.6610 N   0  0  0  0  0  0  0  0  0  0  0  0
   -1.7720   23.6260  -26.8870 C   0  0  0  0  0  0  0  0  0  0  0  0
   -2.3090   24.2550  -27.9940 C   0  0  0  0  0  0  0  0  0  0  0  0
   -2.7930   23.4840  -29.0330 C   0  0  0  0  0  0  0  0  0  0  0  0
   -3.4880   24.2740  -30.4690 S   0  0  0  0  0  0  0  0  0  0  0  0
   -5.1100   23.5450  -30.7480 C   0  0  0  0  0  0  0  0  0  0  0  0
   -6.0020   23.5080  -29.6960 C   0  0  0  0  0  0  0  0  0  0  0  0
   -7.2380   22.9470  -29.9250 C   0  0  0  0  0  0  0  0  0  0  0  0
   -7.6240   22.4280  -31.1440 C   0  0  0  0  0  0  0  0  0  0  0  0
   -6.7220   22.4650  -32.2100 C   0  0  0  0  0  0  0  0  0  0  0  0
   -5.4880   23.0300  -31.9630 C   0  0  0  0  0  0  0  0  0  0  0  0
   -1.3480   21.7220  -31.2750 N   0  0  0  0  0  0  0  0  0  0  0  0
   -0.6290   21.5440  -32.4180 C   0  0  0  0  0  0  0  0  0  0  0  0
   -1.1950   20.7080  -33.3580 C   0  0  0  0  0  0  0  0  0  0  0  0
   -0.2290   20.4240  -34.9770 Br  0  0  0  0  0  0  0  0  0  0  0  0
   -5.2780   19.4600  -33.7890 C   0  0  0  0  0  0  0  0  0  0  0  0
  -10.1554   20.6414  -31.2972 H   0  0  0  0  0  0  0  0  0  0  0  0
   -9.6744   21.3998  -32.8528 H   0  0  0  0  0  0  0  0  0  0  0  0
  -10.6348   19.8819  -32.8528 H   0  0  0  0  0  0  0  0  0  0  0  0
   -8.0530   20.2480  -34.2710 H   0  0  0  0  0  0  0  0  0  0  0  0
   -7.5566   17.0600  -33.2892 H   0  0  0  0  0  0  0  0  0  0  0  0
   -5.5418   15.6844  -33.4701 H   0  0  0  0  0  0  0  0  0  0  0  0
   -3.2960   16.6673  -33.8582 H   0  0  0  0  0  0  0  0  0  0  0  0
   -3.9840   19.8350  -31.8690 H   0  0  0  0  0  0  0  0  0  0  0  0
   -2.1632   20.4207  -27.8038 H   0  0  0  0  0  0  0  0  0  0  0  0
   -0.5300   22.0520  -24.9520 H   0  0  0  0  0  0  0  0  0  0  0  0
   -1.3890   20.5520  -25.5200 H   0  0  0  0  0  0  0  0  0  0  0  0
   -1.3868   24.2406  -26.0600 H   0  0  0  0  0  0  0  0  0  0  0  0
   -2.3504   25.3529  -28.0471 H   0  0  0  0  0  0  0  0  0  0  0  0
   -5.7347   23.9127  -28.7087 H   0  0  0  0  0  0  0  0  0  0  0  0
   -7.9559   22.9105  -29.0924 H   0  0  0  0  0  0  0  0  0  0  0  0
   -8.6256   21.9923  -31.2741 H   0  0  0  0  0  0  0  0  0  0  0  0
   -6.9834   22.0625  -33.1998 H   0  0  0  0  0  0  0  0  0  0  0  0
   -4.7632   23.0703  -32.7895 H   0  0  0  0  0  0  0  0  0  0  0  0
   -0.9850   22.3420  -30.5140 H   0  0  0  0  0  0  0  0  0  0  0  0
    0.3414   22.0357  -32.5812 H   0  0  0  0  0  0  0  0  0  0  0  0
   -5.1848   20.5520  -33.8837 H   0  0  0  0  0  0  0  0  0  0  0  0
  1  2  1  0
  2  3  2  0
  2  4  1  0
  4  5  1  0
  5  6  2  0
  6  7  1  0
  7  8  2  0
  8  9  1  0
  9 10  1  0
 10 11  2  0
 11 12  1  0
 12 13  1  0
 13 14  2  0
 14 15  1  0
 15 16  2  0
 16 17  1  0
 17 18  1  0
 17 19  2  0
 19 20  1  0
 20 21  2  0
 21 22  1  0
 22 23  1  0
 23 24  2  0
 24 25  1  0
 25 26  2  0
 26 27  1  0
 27 28  2  0
 13 29  1  0
 29 30  1  0
 30 31  2  0
 31 32  1  0
  9 33  2  0
 33  5  1  0
 31 11  1  0
 21 15  1  0
 28 23  1  0
  1 34  1  0
  1 35  1  0
  1 36  1  0
  4 37  1  0
  6 38  1  0
  7 39  1  0
  8 40  1  0
 12 41  1  0
 16 42  1  0
 18 43  1  0
 18 44  1  0
 19 45  1  0
 20 46  1  0
 24 47  1  0
 25 48  1  0
 26 49  1  0
 27 50  1  0
 28 51  1  0
 29 52  1  0
 30 53  1  0
 33 54  1  0
M  END
>  <smiles>  (24) 
CC(=O)Nc1cccc(N=c2[nH]c(=Nc3cc(N)ccc3Sc3ccccc3)[nH]cc2Br)c1

>  <score_type>  (24) 
oracle

>  <origin>  (24) 
adgpu

>  <m_score__min__energy>  (24) 
-9.7899999999999991

>  <m_primary>  (24) 
energy

$$$$
24:0
     RDKit          3D

 39 41  0  0  1  0  0  0  0  0999 V2000
   -1.1780   22.5740  -26.8030 C   0  0  0  0  0  0  0  0  0  0  0  0
   -1.6930   23.4320  -27.9100 C   0  0  0  0  0  0  0  0  0  0  0  0
   -2.7540   23.2270  -28.7550 C   0  0  0  0  0  0  0  0  0  0  0  0
   -2.8650   24.2760  -29.6210 C   0  0  0  0  0  0  0  0  0  0  0  0
   -3.6960   24.5070  -30.5680 N   0  0  0  0  0  0  0  0  0  0  0  0
   -4.7180   23.5490  -30.8260 C   0  0  0  0  0  0  0  0  0  0  0  0
   -5.7190   23.3720  -30.1220 O   0  0  0  0  0  0  0  0  0  0  0  0
   -4.5570   22.7430  -31.9890 N   0  0  0  0  0  0  0  0  0  0  0  0
   -5.4940   21.7440  -32.3780 C   0  0  0  0  0  0  0  0  0  0  0  0
   -6.7960   21.9180  -32.0080 C   0  0  0  0  0  0  0  0  0  0  0  0
   -7.7440   20.9900  -32.3540 C   0  0  0  0  0  0  0  0  0  0  0  0
   -9.5640   21.2140  -31.8490 Br  0  0  0  0  0  0  0  0  0  0  0  0
   -7.3870   19.8910  -33.0690 C   0  0  0  0  0  0  0  0  0  0  0  0
   -6.0740   19.7310  -33.4320 C   0  0  0  0  0  0  0  0  0  0  0  0
   -5.0630   20.6140  -33.1250 C   0  0  0  0  0  0  0  0  0  0  0  0
   -3.7830   20.5650  -33.4170 O   0  0  0  0  0  0  0  0  0  0  0  0
   -2.5510   20.7380  -32.9590 C   0  0  0  0  0  0  0  0  0  0  0  0
   -1.3870   20.9820  -33.6470 C   0  0  0  0  0  0  0  0  0  0  0  0
   -0.1520   21.1450  -33.0540 C   0  0  0  0  0  0  0  0  0  0  0  0
   -0.0650   21.0620  -31.6910 C   0  0  0  0  0  0  0  0  0  0  0  0
   -1.1860   20.8200  -30.9390 C   0  0  0  0  0  0  0  0  0  0  0  0
   -2.3940   20.6620  -31.5520 C   0  0  0  0  0  0  0  0  0  0  0  0
   -1.8630   25.1230  -29.3000 N   0  0  0  0  0  0  0  0  0  0  0  0
   -1.1650   24.6170  -28.2800 N   0  0  0  0  0  0  0  0  0  0  0  0
   -1.4474   23.0228  -25.8355 H   0  0  0  0  0  0  0  0  0  0  0  0
   -1.6236   21.5711  -26.8787 H   0  0  0  0  0  0  0  0  0  0  0  0
   -0.0834   22.4956  -26.8787 H   0  0  0  0  0  0  0  0  0  0  0  0
   -3.4161   22.3488  -28.7373 H   0  0  0  0  0  0  0  0  0  0  0  0
   -3.7200   22.8540  -32.6240 H   0  0  0  0  0  0  0  0  0  0  0  0
   -7.0863   22.8073  -31.4293 H   0  0  0  0  0  0  0  0  0  0  0  0
   -8.1399   19.1408  -33.3525 H   0  0  0  0  0  0  0  0  0  0  0  0
   -5.8097   18.8330  -34.0097 H   0  0  0  0  0  0  0  0  0  0  0  0
   -1.4435   21.0520  -34.7433 H   0  0  0  0  0  0  0  0  0  0  0  0
    0.7432   21.3375  -33.6636 H   0  0  0  0  0  0  0  0  0  0  0  0
    0.9089   21.1900  -31.1960 H   0  0  0  0  0  0  0  0  0  0  0  0
   -1.1110   20.7535  -29.8436 H   0  0  0  0  0  0  0  0  0  0  0  0
   -3.2808   20.4681  -30.9307 H   0  0  0  0  0  0  0  0  0  0  0  0
   -1.6210   26.0510  -29.7510 H   0  0  0  0  0  0  0  0  0  0  0  0
   -0.3490   25.0620  -27.8390 H   0  0  0  0  0  0  0  0  0  0  0  0
  1  2  1  0
  2  3  2  0
  3  4  1  0
  4  5  2  0
  5  6  1  0
  6  7  2  0
  6  8  1  0
  8  9  1  0
  9 10  2  0
 10 11  1  0
 11 12  1  0
 11 13  2  0
 13 14  1  0
 14 15  2  0
 15 16  1  0
 16 17  1  0
 17 18  2  0
 18 19  1  0
 19 20  2  0
 20 21  1  0
 21 22  2  0
  4 23  1  0
 23 24  1  0
 24  2  1  0
 15  9  1  0
 22 17  1  0
  1 25  1  0
  1 26  1  0
  1 27  1  0
  3 28  1  0
  8 29  1  0
 10 30  1  0
 13 31  1  0
 14 32  1  0
 18 33  1  0
 19 34  1  0
 20 35  1  0
 21 36  1  0
 22 37  1  0
 23 38  1  0
 24 39  1  0
M  END
>  <smiles>  (25) 
Cc1cc(=NC(=O)Nc2cc(Br)ccc2Oc2ccccc2)[nH][nH]1

>  <score_type>  (25) 
oracle

>  <origin>  (25) 
adgpu

>  <m_score__min__energy>  (25) 
-8.5700000000000003

>  <m_primary>  (25) 
energy

$$$$
25:0
     RDKit          3D

 46 48  0  0  0  0  0  0  0  0999 V2000
   -7.9900   22.2820  -29.8360 C   0  0  0  0  0  0  0  0  0  0  0  0
   -8.9840   22.1940  -30.9920 C   0  0  0  0  0  0  0  0  0  0  0  0
   -8.3220   21.5670  -32.2370 C   0  0  0  0  0  0  0  0  0  0  0  0
   -7.4840   20.3690  -31.9590 N   0  0  0  0  0  0  0  0  0  0  0  0
   -8.0900   19.1450  -32.5240 C   0  0  0  0  0  0  0  0  0  0  0  0
   -7.4020   17.8700  -32.0000 C   0  0  0  0  0  0  0  0  0  0  0  0
   -6.1070   18.1560  -31.2340 C   0  0  0  0  0  0  0  0  0  0  0  0
   -5.2290   19.2440  -31.8900 C   0  0  1  0  0  0  0  0  0  0  0  0
   -4.3400   18.6690  -32.9870 C   0  0  0  0  0  0  0  0  0  0  0  0
   -2.9670   18.9840  -33.0090 C   0  0  0  0  0  0  0  0  0  0  0  0
   -2.1310   18.4530  -33.9960 C   0  0  0  0  0  0  0  0  0  0  0  0
   -2.6510   17.6000  -34.9700 C   0  0  0  0  0  0  0  0  0  0  0  0
   -4.0080   17.2740  -34.9580 C   0  0  0  0  0  0  0  0  0  0  0  0
   -4.8500   17.8010  -33.9730 C   0  0  0  0  0  0  0  0  0  0  0  0
   -6.0570   20.4900  -32.3680 C   0  0  2  0  0  0  0  0  0  0  0  0
   -5.4220   21.7580  -31.8150 C   0  0  0  0  0  0  0  0  0  0  0  0
   -4.2610   21.6900  -31.0230 C   0  0  0  0  0  0  0  0  0  0  0  0
   -3.6670   22.8580  -30.5360 C   0  0  0  0  0  0  0  0  0  0  0  0
   -4.2190   24.1050  -30.8440 C   0  0  0  0  0  0  0  0  0  0  0  0
   -3.6280   25.2650  -30.3600 O   0  0  0  0  0  0  0  0  0  0  0  0
   -5.3630   24.1840  -31.6450 C   0  0  0  0  0  0  0  0  0  0  0  0
   -5.9600   23.0180  -32.1330 C   0  0  0  0  0  0  0  0  0  0  0  0
   -8.5333   22.2339  -28.8808 H   0  0  0  0  0  0  0  0  0  0  0  0
   -7.2811   21.4431  -29.8973 H   0  0  0  0  0  0  0  0  0  0  0  0
   -7.4395   23.2324  -29.8973 H   0  0  0  0  0  0  0  0  0  0  0  0
   -9.8386   21.5725  -30.6863 H   0  0  0  0  0  0  0  0  0  0  0  0
   -9.3209   23.2100  -31.2456 H   0  0  0  0  0  0  0  0  0  0  0  0
   -9.1180   21.2733  -32.9371 H   0  0  0  0  0  0  0  0  0  0  0  0
   -7.6452   22.3311  -32.6470 H   0  0  0  0  0  0  0  0  0  0  0  0
   -9.1542   19.1145  -32.2472 H   0  0  0  0  0  0  0  0  0  0  0  0
   -7.9656   19.1756  -33.6165 H   0  0  0  0  0  0  0  0  0  0  0  0
   -8.0984   17.3480  -31.3273 H   0  0  0  0  0  0  0  0  0  0  0  0
   -7.1366   17.2581  -32.8747 H   0  0  0  0  0  0  0  0  0  0  0  0
   -6.3694   18.4864  -30.2182 H   0  0  0  0  0  0  0  0  0  0  0  0
   -5.5205   17.2254  -31.2324 H   0  0  0  0  0  0  0  0  0  0  0  0
   -4.5573   19.6217  -31.1050 H   0  0  0  0  0  0  0  0  0  0  0  0
   -2.5490   19.6536  -32.2429 H   0  0  0  0  0  0  0  0  0  0  0  0
   -1.0611   18.7083  -34.0046 H   0  0  0  0  0  0  0  0  0  0  0  0
   -1.9920   17.1848  -35.7467 H   0  0  0  0  0  0  0  0  0  0  0  0
   -4.4168   16.6004  -35.7256 H   0  0  0  0  0  0  0  0  0  0  0  0
   -5.9176   17.5360  -33.9681 H   0  0  0  0  0  0  0  0  0  0  0  0
   -6.0410   20.5385  -33.4668 H   0  0  0  0  0  0  0  0  0  0  0  0
   -3.8180   20.7116  -30.7855 H   0  0  0  0  0  0  0  0  0  0  0  0
   -2.7646   22.7959  -29.9100 H   0  0  0  0  0  0  0  0  0  0  0  0
   -5.7938   25.1657  -31.8914 H   0  0  0  0  0  0  0  0  0  0  0  0
   -6.8550   23.0863  -32.7689 H   0  0  0  0  0  0  0  0  0  0  0  0
  1  2  1  0
  2  3  1  0
  3  4  1  0
  4  5  1  0
  5  6  1  0
  6  7  1  0
  7  8  1  0
  8  9  1  0
  9 10  2  0
 10 11  1  0
 11 12  2  0
 12 13  1  0
 13 14  2  0
  8 15  1  0
 15 16  1  0
 16 17  2  0
 17 18  1  0
 18 19  2  0
 19 20  1  0
 19 21  1  0
 21 22  2  0
 15  4  1  0
 22 16  1  0
 14  9  1  0
  1 23  1  0
  1 24  1  0
  1 25  1  0
  2 26  1  0
  2 27  1  0
  3 28  1  0
  3 29  1  0
  5 30  1  0
  5 31  1  0
  6 32  1  0
  6 33  1  0
  7 34  1  0
  7 35  1  0
  8 36  1  1
 10 37  1  0
 11 38  1  0
 12 39  1  0
 13 40  1  0
 14 41  1  0
 15 42  1  6
 17 43  1  0
 18 44  1  0
 21 45  1  0
 22 46  1  0
M  CHG  1  20  -1
M  END
>  <UniqueID>  (26) 
23

>  <SMILES>  (26) 
CCCN1CCC[C@@H](c2ccccc2)[C@@H]1c1ccc([O-])cc1

>  <Energy>  (26) 
57.78837731172304

>  <Genealogy>  (26) 
CCCN1CCCC(c2ccccc2)C1c1ccc([O-])cc1 (protonated)
CCCN1CCC[C@@H](c2ccccc2)[C@@H]1c1ccc([O-])cc1 (chirality)
CCCN1CCC[C@@H](c2ccccc2)[C@@H]1c1ccc([O-])cc1 (3D coordinates assigned)
CCCN1CCC[C@@H](c2ccccc2)[C@@H]1c1ccc([O-])cc1 (nonaromatic ring conformer: 57.78837731172304 kcal/mol)

>  <smiles>  (26) 
CCCN1CCCC(c2ccccc2)C1c1ccc(O)cc1

>  <score_type>  (26) 
oracle

>  <origin>  (26) 
adgpu

>  <m_score__min__energy>  (26) 
-10.640000000000001

>  <m_primary>  (26) 
energy

$$$$
26:0
     RDKit          3D

 26 27  0  0  0  0  0  0  0  0999 V2000
   -6.9370   24.5920  -30.4650 C   0  0  0  0  0  0  0  0  0  0  0  0
   -6.1570   23.5110  -30.5920 C   0  0  0  0  0  0  0  0  0  0  0  0
   -6.6480   22.3300  -31.3450 C   0  0  0  0  0  0  0  0  0  0  0  0
   -7.9360   21.8160  -31.1090 C   0  0  0  0  0  0  0  0  0  0  0  0
   -8.3840   20.7110  -31.8360 C   0  0  0  0  0  0  0  0  0  0  0  0
   -7.5810   20.1350  -32.7670 N   0  0  0  0  0  0  0  0  0  0  0  0
   -6.3300   20.6050  -33.0190 C   0  0  0  0  0  0  0  0  0  0  0  0
   -5.8390   21.7080  -32.3160 C   0  0  0  0  0  0  0  0  0  0  0  0
   -4.5780   22.1450  -32.5600 F   0  0  0  0  0  0  0  0  0  0  0  0
   -4.7820   23.4890  -30.0370 C   0  0  0  0  0  0  0  0  0  0  0  0
   -4.3210   22.4980  -29.2980 O   0  0  0  0  0  0  0  0  0  0  0  0
   -3.0800   22.7630  -28.9480 C   0  0  0  0  0  0  0  0  0  0  0  0
   -2.2350   21.8710  -28.1030 C   0  0  0  0  0  0  0  0  0  0  0  0
   -2.7050   23.9820  -29.4700 C   0  0  0  0  0  0  0  0  0  0  0  0
   -1.4730   24.6100  -29.3120 O   0  0  0  0  0  0  0  0  0  0  0  0
   -3.7910   24.4510  -30.1650 C   0  0  0  0  0  0  0  0  0  0  0  0
   -3.8740   25.6720  -30.8250 O   0  0  0  0  0  0  0  0  0  0  0  0
   -6.5755   25.4686  -29.9074 H   0  0  0  0  0  0  0  0  0  0  0  0
   -7.9392   24.6034  -30.9182 H   0  0  0  0  0  0  0  0  0  0  0  0
   -8.5874   22.2824  -30.3552 H   0  0  0  0  0  0  0  0  0  0  0  0
   -9.3904   20.3061  -31.6538 H   0  0  0  0  0  0  0  0  0  0  0  0
   -5.7029   20.1153  -33.7785 H   0  0  0  0  0  0  0  0  0  0  0  0
   -2.4314   22.0783  -27.0407 H   0  0  0  0  0  0  0  0  0  0  0  0
   -2.4772   20.8207  -28.3225 H   0  0  0  0  0  0  0  0  0  0  0  0
   -1.1731   22.0560  -28.3225 H   0  0  0  0  0  0  0  0  0  0  0  0
   -0.8350   24.7070  -30.0910 H   0  0  0  0  0  0  0  0  0  0  0  0
  1  2  2  0
  2  3  1  0
  3  4  2  0
  4  5  1  0
  5  6  2  0
  6  7  1  0
  7  8  2  0
  8  9  1  0
  2 10  1  0
 10 11  1  0
 11 12  1  0
 12 13  1  0
 12 14  2  0
 14 15  1  0
 14 16  1  0
 16 17  1  0
  8  3  1  0
 16 10  2  0
  1 18  1  0
  1 19  1  0
  4 20  1  0
  5 21  1  0
  7 22  1  0
 13 23  1  0
 13 24  1  0
 13 25  1  0
 15 26  1  0
M  CHG  1  17  -1
M  END
>  <UniqueID>  (27) 
24

>  <SMILES>  (27) 
C=C(c1ccncc1F)c1oc(C)c(O)c1[O-]

>  <Energy>  (27) 
62.77911450872224

>  <Genealogy>  (27) 
C=C(c1ccncc1F)c1oc(C)c(O)c1[O-] (protonated)
C=C(c1ccncc1F)c1oc(C)c(O)c1[O-] (3D coordinates assigned)
C=C(c1ccncc1F)c1oc(C)c(O)c1[O-] (optimized conformer: 62.77911450872224 kcal/mol)

>  <smiles>  (27) 
C=C(c1ccncc1F)c1oc(C)c(O)c1O

>  <score_type>  (27) 
oracle

>  <origin>  (27) 
adgpu

>  <m_score__min__energy>  (27) 
-9.1400000000000006

>  <m_primary>  (27) 
energy

$$$$
27:0
     RDKit          3D

 57 60  0  0  0  0  0  0  0  0999 V2000
   -4.5719   24.7541  -25.8643 H   0  0  0  0  0  0  0  0  0  0  0  0
   -3.9030   24.5660  -26.7170 C   0  0  0  0  0  0  0  0  0  0  0  0
   -4.2860   23.6690  -27.7190 C   0  0  0  0  0  0  0  0  0  0  0  0
   -5.2617   23.1646  -27.6586 H   0  0  0  0  0  0  0  0  0  0  0  0
   -3.4330   23.4100  -28.7990 C   0  0  0  0  0  0  0  0  0  0  0  0
   -3.8830   22.5300  -29.8410 N   0  0  0  0  0  0  0  0  0  0  0  0
   -5.1080   22.3310  -30.2410 C   0  0  0  0  0  0  0  0  0  0  0  0
   -5.3350   21.3810  -31.1820 N   0  0  0  0  0  0  0  0  0  0  0  0
   -6.5900   21.1340  -31.6390 C   0  0  0  0  0  0  0  0  0  0  0  0
   -6.8170   20.1540  -32.6730 N   0  0  0  0  0  0  0  0  0  0  0  0
   -5.8680   20.0530  -33.7960 C   0  0  0  0  0  0  0  0  0  0  0  0
   -6.0003   20.9238  -34.4550 H   0  0  0  0  0  0  0  0  0  0  0  0
   -4.8484   20.0244  -33.3843 H   0  0  0  0  0  0  0  0  0  0  0  0
   -6.0940   18.7720  -34.6110 C   0  0  0  0  0  0  0  0  0  0  0  0
   -6.9566   18.9118  -35.2791 H   0  0  0  0  0  0  0  0  0  0  0  0
   -5.1945   18.5573  -35.2067 H   0  0  0  0  0  0  0  0  0  0  0  0
   -6.3560   17.6460  -33.7060 N   0  0  0  0  0  0  0  0  0  0  0  0
   -5.4220   16.5570  -33.6200 C   0  0  0  0  0  0  0  0  0  0  0  0
   -4.1030   16.8260  -33.2270 C   0  0  0  0  0  0  0  0  0  0  0  0
   -3.7808   17.8669  -33.0767 H   0  0  0  0  0  0  0  0  0  0  0  0
   -3.1960   15.7860  -33.0250 C   0  0  0  0  0  0  0  0  0  0  0  0
   -2.1598   16.0103  -32.7317 H   0  0  0  0  0  0  0  0  0  0  0  0
   -3.6000   14.4640  -33.1940 C   0  0  0  0  0  0  0  0  0  0  0  0
   -2.8840   13.6489  -33.0123 H   0  0  0  0  0  0  0  0  0  0  0  0
   -4.9120   14.1600  -33.5940 C   0  0  0  0  0  0  0  0  0  0  0  0
   -5.3020   12.7160  -33.7650 C   0  0  0  0  0  0  0  0  0  0  0  0
   -5.4277   12.2506  -32.7763 H   0  0  0  0  0  0  0  0  0  0  0  0
   -6.2487   12.6553  -34.3218 H   0  0  0  0  0  0  0  0  0  0  0  0
   -4.5146   12.1870  -34.3218 H   0  0  0  0  0  0  0  0  0  0  0  0
   -5.8270   15.2180  -33.8550 C   0  0  0  0  0  0  0  0  0  0  0  0
   -7.2320   14.9290  -34.3330 C   0  0  0  0  0  0  0  0  0  0  0  0
   -7.8939   14.7929  -33.4650 H   0  0  0  0  0  0  0  0  0  0  0  0
   -7.5931   15.7717  -34.9409 H   0  0  0  0  0  0  0  0  0  0  0  0
   -7.2312   14.0122  -34.9409 H   0  0  0  0  0  0  0  0  0  0  0  0
   -7.3950   17.7680  -32.6710 C   0  0  0  0  0  0  0  0  0  0  0  0
   -8.2233   17.0856  -32.9122 H   0  0  0  0  0  0  0  0  0  0  0  0
   -6.9497   17.5098  -31.6989 H   0  0  0  0  0  0  0  0  0  0  0  0
   -7.9340   19.1990  -32.5920 C   0  0  0  0  0  0  0  0  0  0  0  0
   -8.6274   19.3754  -33.4275 H   0  0  0  0  0  0  0  0  0  0  0  0
   -8.4634   19.3371  -31.6377 H   0  0  0  0  0  0  0  0  0  0  0  0
   -7.6300   21.8560  -31.1410 N   0  0  0  0  0  0  0  0  0  0  0  0
   -7.4140   22.8170  -30.2100 C   0  0  0  0  0  0  0  0  0  0  0  0
   -8.2615   23.3921  -29.8089 H   0  0  0  0  0  0  0  0  0  0  0  0
   -6.1550   23.0720  -29.7710 N   0  0  0  0  0  0  0  0  0  0  0  0
   -6.0230   23.8640  -29.1080 H   0  0  0  0  0  0  0  0  0  0  0  0
   -2.2130   24.1030  -28.8950 C   0  0  0  0  0  0  0  0  0  0  0  0
   -1.5659   23.9507  -29.7714 H   0  0  0  0  0  0  0  0  0  0  0  0
   -1.8150   24.9880  -27.8800 C   0  0  0  0  0  0  0  0  0  0  0  0
   -0.5150   25.6840  -27.9520 C   0  0  0  0  0  0  0  0  0  0  0  0
   -0.4900   26.9430  -27.9330 O   0  0  0  0  0  0  0  0  0  0  0  0
    0.7300   24.9660  -27.9890 N   0  0  0  0  0  0  0  0  0  0  0  0
    0.9360   23.6370  -27.4330 C   0  0  0  0  0  0  0  0  0  0  0  0
    0.9272   23.6937  -26.3345 H   0  0  0  0  0  0  0  0  0  0  0  0
    0.1307   22.9688  -27.7721 H   0  0  0  0  0  0  0  0  0  0  0  0
    1.9058   23.2439  -27.7721 H   0  0  0  0  0  0  0  0  0  0  0  0
   -2.6730   25.2240  -26.7960 C   0  0  0  0  0  0  0  0  0  0  0  0
   -2.3767   25.9293  -26.0056 H   0  0  0  0  0  0  0  0  0  0  0  0
  1  2  1  0
  2  3  2  0
  3  4  1  0
  3  5  1  0
  5  6  1  0
  6  7  2  0
  7  8  1  0
  8  9  2  0
  9 10  1  0
 10 11  1  0
 11 12  1  0
 11 13  1  0
 11 14  1  0
 14 15  1  0
 14 16  1  0
 14 17  1  0
 17 18  1  0
 18 19  2  0
 19 20  1  0
 19 21  1  0
 21 22  1  0
 21 23  2  0
 23 24  1  0
 23 25  1  0
 25 26  1  0
 26 27  1  0
 26 28  1  0
 26 29  1  0
 25 30  2  0
 30 31  1  0
 31 32  1  0
 31 33  1  0
 31 34  1  0
 17 35  1  0
 35 36  1  0
 35 37  1  0
 35 38  1  0
 38 39  1  0
 38 40  1  0
  9 41  1  0
 41 42  2  0
 42 43  1  0
 42 44  1  0
 44 45  1  0
  5 46  2  0
 46 47  1  0
 46 48  1  0
 48 49  1  0
 49 50  2  0
 49 51  1  0
 51 52  1  0
 52 53  1  0
 52 54  1  0
 52 55  1  0
 48 56  2  0
 56 57  1  0
 56  2  1  0
 44  7  1  0
 38 10  1  0
 30 18  1  0
M  CHG  1  51  -1
M  END
>  <UniqueID>  (28) 
25

>  <SMILES>  (28) 
C[N-]C(=O)c1cccc(/N=c2/nc(N3CCN(c4cccc(C)c4C)CC3)nc[nH]2)c1

>  <Energy>  (28) 
81.38765493352834

>  <Genealogy>  (28) 
C[N-]C(=O)c1cccc(N=c2nc(N3CCN(c4cccc(C)c4C)CC3)nc[nH]2)c1 (protonated)
C[N-]C(=O)c1cccc(/N=c2/nc(N3CCN(c4cccc(C)c4C)CC3)nc[nH]2)c1 (cis-trans isomerization)
C[N-]C(=O)c1cccc(/N=c2/nc(N3CCN(c4cccc(C)c4C)CC3)nc[nH]2)c1 (3D coordinates assigned)
C[N-]C(=O)c1cccc(/N=c2/nc(N3CCN(c4cccc(C)c4C)CC3)nc[nH]2)c1 (nonaromatic ring conformer: 81.38765493352834 kcal/mol)

>  <smiles>  (28) 
CNC(=O)c1cccc(N=c2nc(N3CCN(c4cccc(C)c4C)CC3)nc[nH]2)c1

>  <score_type>  (28) 
oracle

>  <origin>  (28) 
adgpu

>  <m_score__min__energy>  (28) 
-9.1899999999999995

>  <m_primary>  (28) 
energy

$$$$
28:0
     RDKit          3D

 52 54  0  0  0  0  0  0  0  0999 V2000
   -2.0010   25.6730  -25.6870 C   0  0  0  0  0  0  0  0  0  0  0  0
   -1.5210   24.9230  -26.7990 O   0  0  0  0  0  0  0  0  0  0  0  0
   -2.3420   24.2660  -27.7240 C   0  0  0  0  0  0  0  0  0  0  0  0
   -3.6990   24.1100  -27.4160 C   0  0  0  0  0  0  0  0  0  0  0  0
   -4.5610   23.4650  -28.3080 C   0  0  0  0  0  0  0  0  0  0  0  0
   -4.0710   22.9510  -29.5170 C   0  0  0  0  0  0  0  0  0  0  0  0
   -4.9440   22.3230  -30.4670 N   0  0  0  0  0  0  0  0  0  0  0  0
   -5.8290   23.0260  -31.3640 C   0  0  0  0  0  0  0  0  0  0  0  0
   -6.0650   24.6450  -31.2340 S   0  0  0  0  0  0  0  0  0  0  0  0
   -6.5610   22.3130  -32.3720 N   0  0  0  0  0  0  0  0  0  0  0  0
   -6.9070   20.9220  -32.2700 C   0  0  0  0  0  0  0  0  0  0  0  0
   -8.2230   20.5440  -31.9510 C   0  0  0  0  0  0  0  0  0  0  0  0
   -8.5850   19.1960  -31.9200 C   0  0  0  0  0  0  0  0  0  0  0  0
   -7.6450   18.2130  -32.2280 C   0  0  0  0  0  0  0  0  0  0  0  0
   -6.3390   18.5750  -32.5630 C   0  0  0  0  0  0  0  0  0  0  0  0
   -5.9590   19.9260  -32.5880 C   0  0  0  0  0  0  0  0  0  0  0  0
   -4.6030   20.2780  -32.9050 N   0  0  0  0  0  0  0  0  0  0  0  0
   -3.5020   19.4570  -32.3970 C   0  0  0  0  0  0  0  0  0  0  0  0
   -2.3300   19.4700  -33.3910 C   0  0  0  0  0  0  0  0  0  0  0  0
   -2.0180   20.8210  -33.9510 N   0  0  0  0  0  0  0  0  0  0  0  0
   -0.6050   21.1250  -33.8040 C   0  0  0  0  0  0  0  0  0  0  0  0
    0.2280   20.4750  -32.7360 C   0  0  0  0  0  0  0  0  0  0  0  0
   -0.0690   21.9270  -34.5570 O   0  0  0  0  0  0  0  0  0  0  0  0
   -2.8180   21.9200  -33.3670 C   0  0  0  0  0  0  0  0  0  0  0  0
   -4.3170   21.6080  -33.4550 C   0  0  0  0  0  0  0  0  0  0  0  0
   -2.7180   23.1270  -29.8380 C   0  0  0  0  0  0  0  0  0  0  0  0
   -1.8550   23.7710  -28.9480 C   0  0  0  0  0  0  0  0  0  0  0  0
   -1.6882   25.1842  -24.7525 H   0  0  0  0  0  0  0  0  0  0  0  0
   -1.5863   26.6911  -25.7249 H   0  0  0  0  0  0  0  0  0  0  0  0
   -3.0992   25.7228  -25.7249 H   0  0  0  0  0  0  0  0  0  0  0  0
   -4.0902   24.4983  -26.4640 H   0  0  0  0  0  0  0  0  0  0  0  0
   -5.6276   23.3604  -28.0604 H   0  0  0  0  0  0  0  0  0  0  0  0
   -4.9590   21.2810  -30.4630 H   0  0  0  0  0  0  0  0  0  0  0  0
   -6.8680   22.8350  -33.2250 H   0  0  0  0  0  0  0  0  0  0  0  0
   -8.9730   21.3160  -31.7242 H   0  0  0  0  0  0  0  0  0  0  0  0
   -9.6126   18.9090  -31.6524 H   0  0  0  0  0  0  0  0  0  0  0  0
   -7.9328   17.1515  -32.2070 H   0  0  0  0  0  0  0  0  0  0  0  0
   -5.6025   17.7959  -32.8091 H   0  0  0  0  0  0  0  0  0  0  0  0
   -3.1639   19.8597  -31.4308 H   0  0  0  0  0  0  0  0  0  0  0  0
   -3.8539   18.4226  -32.2694 H   0  0  0  0  0  0  0  0  0  0  0  0
   -1.4344   19.0955  -32.8737 H   0  0  0  0  0  0  0  0  0  0  0  0
   -2.6273   18.8364  -34.2396 H   0  0  0  0  0  0  0  0  0  0  0  0
   -2.2480   20.7970  -34.9730 H   0  0  0  0  0  0  0  0  0  0  0  0
   -0.1499   20.7699  -31.7460 H   0  0  0  0  0  0  0  0  0  0  0  0
    0.1694   19.3815  -32.8400 H   0  0  0  0  0  0  0  0  0  0  0  0
    1.2745   20.7977  -32.8400 H   0  0  0  0  0  0  0  0  0  0  0  0
   -2.5377   22.0486  -32.3111 H   0  0  0  0  0  0  0  0  0  0  0  0
   -2.6158   22.8422  -33.9316 H   0  0  0  0  0  0  0  0  0  0  0  0
   -4.8771   22.3630  -32.8839 H   0  0  0  0  0  0  0  0  0  0  0  0
   -4.6206   21.6264  -34.5121 H   0  0  0  0  0  0  0  0  0  0  0  0
   -2.3325   22.7549  -30.7987 H   0  0  0  0  0  0  0  0  0  0  0  0
   -0.7922   23.8915  -29.2046 H   0  0  0  0  0  0  0  0  0  0  0  0
  1  2  1  0
  2  3  1  0
  3  4  2  0
  4  5  1  0
  5  6  2  0
  6  7  1  0
  7  8  1  0
  8  9  2  0
  8 10  1  0
 10 11  1  0
 11 12  2  0
 12 13  1  0
 13 14  2  0
 14 15  1  0
 15 16  2  0
 16 17  1  0
 17 18  1  0
 18 19  1  0
 19 20  1  0
 20 21  1  0
 21 22  1  0
 21 23  2  0
 20 24  1  0
 24 25  1  0
  6 26  1  0
 26 27  2  0
 27  3  1  0
 16 11  1  0
 25 17  1  0
  1 28  1  0
  1 29  1  0
  1 30  1  0
  4 31  1  0
  5 32  1  0
  7 33  1  0
 10 34  1  0
 12 35  1  0
 13 36  1  0
 14 37  1  0
 15 38  1  0
 18 39  1  0
 18 40  1  0
 19 41  1  0
 19 42  1  0
 20 43  1  0
 22 44  1  0
 22 45  1  0
 22 46  1  0
 24 47  1  0
 24 48  1  0
 25 49  1  0
 25 50  1  0
 26 51  1  0
 27 52  1  0
M  CHG  1  20   1
M  END
>  <UniqueID>  (29) 
26

>  <SMILES>  (29) 
COc1ccc(NC(=S)Nc2ccccc2N2CC[NH+](C(C)=O)CC2)cc1

>  <Energy>  (29) 
72.98765659107616

>  <Genealogy>  (29) 
COc1ccc(NC(=S)Nc2ccccc2N2CC[NH+](C(C)=O)CC2)cc1 (protonated)
COc1ccc(NC(=S)Nc2ccccc2N2CC[NH+](C(C)=O)CC2)cc1 (3D coordinates assigned)
COc1ccc(NC(=S)Nc2ccccc2N2CC[NH+](C(C)=O)CC2)cc1 (nonaromatic ring conformer: 72.98765659107616 kcal/mol)

>  <smiles>  (29) 
COc1ccc(NC(=S)Nc2ccccc2N2CCN(C(C)=O)CC2)cc1

>  <score_type>  (29) 
oracle

>  <origin>  (29) 
adgpu

>  <m_score__min__energy>  (29) 
-7.6500000000000004

>  <m_primary>  (29) 
energy

$$$$
29:0
     RDKit          3D

 41 43  0  0  0  0  0  0  0  0999 V2000
   -3.8370   25.6730  -30.9250 O   0  0  0  0  0  0  0  0  0  0  0  0
   -3.9620   24.6610  -29.9780 C   0  0  0  0  0  0  0  0  0  0  0  0
   -5.0140   23.7260  -30.0650 C   0  0  0  0  0  0  0  0  0  0  0  0
   -6.0730   23.8270  -31.1370 C   0  0  0  0  0  0  0  0  0  0  0  0
   -5.6210   23.1910  -32.3850 N   0  0  0  0  0  0  0  0  0  0  0  0
   -5.3970   21.7430  -32.2370 C   0  0  0  0  0  0  0  0  0  0  0  0
   -6.6970   20.9820  -32.2970 C   0  0  0  0  0  0  0  0  0  0  0  0
   -7.9130   21.6250  -32.0120 C   0  0  0  0  0  0  0  0  0  0  0  0
   -9.1110   20.9020  -32.0230 C   0  0  0  0  0  0  0  0  0  0  0  0
   -9.1040   19.5400  -32.3330 C   0  0  0  0  0  0  0  0  0  0  0  0
   -7.9020   18.8990  -32.6420 C   0  0  0  0  0  0  0  0  0  0  0  0
   -6.7020   19.6170  -32.6320 C   0  0  0  0  0  0  0  0  0  0  0  0
   -5.1070   22.7060  -29.1050 C   0  0  0  0  0  0  0  0  0  0  0  0
   -4.1850   22.6330  -28.0620 C   0  0  0  0  0  0  0  0  0  0  0  0
   -3.1580   23.5720  -27.9650 C   0  0  0  0  0  0  0  0  0  0  0  0
   -3.0360   24.5930  -28.9270 C   0  0  0  0  0  0  0  0  0  0  0  0
   -2.0220   25.5640  -28.8690 O   0  0  0  0  0  0  0  0  0  0  0  0
   -0.8070   25.4450  -28.1290 C   0  0  0  0  0  0  0  0  0  0  0  0
   -0.8970   26.2120  -26.8470 C   0  0  0  0  0  0  0  0  0  0  0  0
   -1.3550   25.7200  -25.6420 C   0  0  0  0  0  0  0  0  0  0  0  0
   -1.2730   26.7740  -24.7570 C   0  0  0  0  0  0  0  0  0  0  0  0
   -0.7760   27.8410  -25.4780 C   0  0  0  0  0  0  0  0  0  0  0  0
   -0.5650   27.4770  -26.7220 O   0  0  0  0  0  0  0  0  0  0  0  0
   -6.9875   23.3251  -30.7880 H   0  0  0  0  0  0  0  0  0  0  0  0
   -6.2700   24.8907  -31.3365 H   0  0  0  0  0  0  0  0  0  0  0  0
   -6.3870   23.3150  -33.0890 H   0  0  0  0  0  0  0  0  0  0  0  0
   -4.7405   21.3965  -33.0488 H   0  0  0  0  0  0  0  0  0  0  0  0
   -4.9312   21.5606  -31.2573 H   0  0  0  0  0  0  0  0  0  0  0  0
   -7.9235   22.7001  -31.7795 H   0  0  0  0  0  0  0  0  0  0  0  0
  -10.0594   21.4068  -31.7872 H   0  0  0  0  0  0  0  0  0  0  0  0
  -10.0459   18.9717  -32.3338 H   0  0  0  0  0  0  0  0  0  0  0  0
   -7.8993   17.8281  -32.8935 H   0  0  0  0  0  0  0  0  0  0  0  0
   -5.7588   19.1118  -32.8872 H   0  0  0  0  0  0  0  0  0  0  0  0
   -5.9122   21.9599  -29.1762 H   0  0  0  0  0  0  0  0  0  0  0  0
   -4.2676   21.8319  -27.3127 H   0  0  0  0  0  0  0  0  0  0  0  0
   -2.4403   23.5146  -27.1334 H   0  0  0  0  0  0  0  0  0  0  0  0
   -0.6226   24.3842  -27.9040 H   0  0  0  0  0  0  0  0  0  0  0  0
    0.0178   25.8538  -28.7311 H   0  0  0  0  0  0  0  0  0  0  0  0
   -1.7109   24.7007  -25.4316 H   0  0  0  0  0  0  0  0  0  0  0  0
   -1.5480   26.7662  -23.6920 H   0  0  0  0  0  0  0  0  0  0  0  0
   -0.5853   28.8452  -25.0716 H   0  0  0  0  0  0  0  0  0  0  0  0
  1  2  1  0
  2  3  2  0
  3  4  1  0
  4  5  1  0
  5  6  1  0
  6  7  1  0
  7  8  2  0
  8  9  1  0
  9 10  2  0
 10 11  1  0
 11 12  2  0
  3 13  1  0
 13 14  2  0
 14 15  1  0
 15 16  2  0
 16 17  1  0
 17 18  1  0
 18 19  1  0
 19 20  2  0
 20 21  1  0
 21 22  2  0
 22 23  1  0
 16  2  1  0
 23 19  1  0
 12  7  1  0
  4 24  1  0
  4 25  1  0
  5 26  1  0
  6 27  1  0
  6 28  1  0
  8 29  1  0
  9 30  1  0
 10 31  1  0
 11 32  1  0
 12 33  1  0
 13 34  1  0
 14 35  1  0
 15 36  1  0
 18 37  1  0
 18 38  1  0
 20 39  1  0
 21 40  1  0
 22 41  1  0
M  CHG  1   1  -1
M  END
>  <UniqueID>  (30) 
27

>  <SMILES>  (30) 
[O-]c1c(CNCc2ccccc2)cccc1OCc1ccco1

>  <Energy>  (30) 
66.15988746421229

>  <Genealogy>  (30) 
[O-]c1c(CNCc2ccccc2)cccc1OCc1ccco1 (protonated)
[O-]c1c(CNCc2ccccc2)cccc1OCc1ccco1 (3D coordinates assigned)
[O-]c1c(CNCc2ccccc2)cccc1OCc1ccco1 (optimized conformer: 66.15988746421229 kcal/mol)

>  <smiles>  (30) 
Oc1c(CNCc2ccccc2)cccc1OCc1ccco1

>  <score_type>  (30) 
oracle

>  <origin>  (30) 
adgpu

>  <m_score__min__energy>  (30) 
-11.970000000000001

>  <m_primary>  (30) 
energy

$$$$
30:0
     RDKit          3D

 49 52  0  0  0  0  0  0  0  0999 V2000
   -5.6790   17.6740  -34.4710 C   0  0  0  0  0  0  0  0  0  0  0  0
   -6.5910   18.3510  -33.4900 C   0  0  0  0  0  0  0  0  0  0  0  0
   -7.6350   17.6240  -32.8920 C   0  0  0  0  0  0  0  0  0  0  0  0
   -8.4780   18.2400  -31.9630 C   0  0  0  0  0  0  0  0  0  0  0  0
   -8.2830   19.5790  -31.6170 C   0  0  0  0  0  0  0  0  0  0  0  0
   -7.2360   20.3130  -32.1970 C   0  0  0  0  0  0  0  0  0  0  0  0
   -7.0350   21.6870  -31.8380 N   0  0  0  0  0  0  0  0  0  0  0  0
   -5.9740   22.4640  -32.4990 C   0  0  0  0  0  0  0  0  0  0  0  0
   -5.7340   23.7920  -31.7750 C   0  0  0  0  0  0  0  0  0  0  0  0
   -5.7610   23.5570  -30.3240 N   0  0  0  0  0  0  0  0  0  0  0  0
   -4.5670   23.6930  -29.5280 C   0  0  0  0  0  0  0  0  0  0  0  0
   -4.6040   24.3720  -28.3000 C   0  0  0  0  0  0  0  0  0  0  0  0
   -3.4520   24.4790  -27.5130 C   0  0  0  0  0  0  0  0  0  0  0  0
   -2.2420   23.9110  -27.9490 C   0  0  0  0  0  0  0  0  0  0  0  0
   -1.0520   23.9730  -27.1510 N   0  0  0  0  0  0  0  0  0  0  0  0
   -0.1800   25.1020  -27.0280 C   0  0  0  0  0  0  0  0  0  0  0  0
    0.7680   25.2290  -27.8470 O   0  0  0  0  0  0  0  0  0  0  0  0
   -0.4000   26.1500  -26.0150 C   0  0  0  0  0  0  0  0  0  0  0  0
   -0.6500   25.9600  -24.6590 C   0  0  0  0  0  0  0  0  0  0  0  0
   -0.8760   27.1550  -23.9660 C   0  0  0  0  0  0  0  0  0  0  0  0
   -0.8120   28.2890  -24.7670 C   0  0  0  0  0  0  0  0  0  0  0  0
   -0.4780   27.8010  -26.3410 S   0  0  0  0  0  0  0  0  0  0  0  0
   -2.2110   23.2060  -29.1560 C   0  0  0  0  0  0  0  0  0  0  0  0
   -3.3610   23.1010  -29.9450 C   0  0  0  0  0  0  0  0  0  0  0  0
   -6.9600   22.9460  -29.7250 C   0  0  0  0  0  0  0  0  0  0  0  0
   -7.8630   22.3080  -30.7970 C   0  0  0  0  0  0  0  0  0  0  0  0
   -6.3890   19.6950  -33.1310 C   0  0  0  0  0  0  0  0  0  0  0  0
   -4.9119   17.1045  -33.9258 H   0  0  0  0  0  0  0  0  0  0  0  0
   -6.2637   16.9895  -35.1031 H   0  0  0  0  0  0  0  0  0  0  0  0
   -5.1930   18.4318  -35.1031 H   0  0  0  0  0  0  0  0  0  0  0  0
   -7.7889   16.5673  -33.1560 H   0  0  0  0  0  0  0  0  0  0  0  0
   -9.2976   17.6685  -31.5029 H   0  0  0  0  0  0  0  0  0  0  0  0
   -8.9517   20.0600  -30.8879 H   0  0  0  0  0  0  0  0  0  0  0  0
   -5.0430   21.8782  -32.4941 H   0  0  0  0  0  0  0  0  0  0  0  0
   -6.2884   22.6793  -33.5309 H   0  0  0  0  0  0  0  0  0  0  0  0
   -4.7537   24.1983  -32.0648 H   0  0  0  0  0  0  0  0  0  0  0  0
   -6.5185   24.5125  -32.0498 H   0  0  0  0  0  0  0  0  0  0  0  0
   -5.5455   24.8233  -27.9538 H   0  0  0  0  0  0  0  0  0  0  0  0
   -3.4932   25.0092  -26.5501 H   0  0  0  0  0  0  0  0  0  0  0  0
   -0.6682   24.9700  -24.1799 H   0  0  0  0  0  0  0  0  0  0  0  0
   -1.0850   27.1931  -22.8867 H   0  0  0  0  0  0  0  0  0  0  0  0
   -0.9551   29.3262  -24.4296 H   0  0  0  0  0  0  0  0  0  0  0  0
   -1.2759   22.7308  -29.4873 H   0  0  0  0  0  0  0  0  0  0  0  0
   -3.3222   22.5521  -30.8975 H   0  0  0  0  0  0  0  0  0  0  0  0
   -6.6471   22.1687  -29.0123 H   0  0  0  0  0  0  0  0  0  0  0  0
   -7.5326   23.7356  -29.2164 H   0  0  0  0  0  0  0  0  0  0  0  0
   -8.4987   21.5413  -30.3301 H   0  0  0  0  0  0  0  0  0  0  0  0
   -8.4943   23.0862  -31.2507 H   0  0  0  0  0  0  0  0  0  0  0  0
   -5.5641   20.2649  -33.5836 H   0  0  0  0  0  0  0  0  0  0  0  0
  1  2  1  0
  2  3  2  0
  3  4  1  0
  4  5  2  0
  5  6  1  0
  6  7  1  0
  7  8  1  0
  8  9  1  0
  9 10  1  0
 10 11  1  0
 11 12  2  0
 12 13  1  0
 13 14  2  0
 14 15  1  0
 15 16  1  0
 16 17  2  0
 16 18  1  0
 18 19  2  0
 19 20  1  0
 20 21  2  0
 21 22  1  0
 14 23  1  0
 23 24  2  0
 10 25  1  0
 25 26  1  0
  6 27  2  0
 27  2  1  0
 26  7  1  0
 24 11  1  0
 22 18  1  0
  1 28  1  0
  1 29  1  0
  1 30  1  0
  3 31  1  0
  4 32  1  0
  5 33  1  0
  8 34  1  0
  8 35  1  0
  9 36  1  0
  9 37  1  0
 12 38  1  0
 13 39  1  0
 19 40  1  0
 20 41  1  0
 21 42  1  0
 23 43  1  0
 24 44  1  0
 25 45  1  0
 25 46  1  0
 26 47  1  0
 26 48  1  0
 27 49  1  0
M  CHG  1  15  -1
M  END
>  <UniqueID>  (31) 
28

>  <SMILES>  (31) 
Cc1cccc(N2CCN(c3ccc([N-]C(=O)c4cccs4)cc3)CC2)c1

>  <Energy>  (31) 
93.06713621660421

>  <Genealogy>  (31) 
Cc1cccc(N2CCN(c3ccc([N-]C(=O)c4cccs4)cc3)CC2)c1 (protonated)
Cc1cccc(N2CCN(c3ccc([N-]C(=O)c4cccs4)cc3)CC2)c1 (3D coordinates assigned)
Cc1cccc(N2CCN(c3ccc([N-]C(=O)c4cccs4)cc3)CC2)c1 (nonaromatic ring conformer: 93.06713621660421 kcal/mol)

>  <smiles>  (31) 
Cc1cccc(N2CCN(c3ccc(NC(=O)c4cccs4)cc3)CC2)c1

>  <score_type>  (31) 
oracle

>  <origin>  (31) 
adgpu

>  <m_score__min__energy>  (31) 
-9.8900000000000006

>  <m_primary>  (31) 
energy

$$$$
31:0
     RDKit          3D

 22 22  0  0  0  0  0  0  0  0999 V2000
   -5.0150   26.6850  -31.5810 H   0  0  0  0  0  0  0  0  0  0  0  0
   -5.5500   25.9140  -31.1220 N   0  0  0  0  0  0  0  0  0  0  0  0
   -4.9440   24.9620  -30.4920 C   0  0  0  0  0  0  0  0  0  0  0  0
   -3.6010   24.8840  -30.3810 N   0  0  0  0  0  0  0  0  0  0  0  0
   -3.2220   23.7880  -29.6650 C   0  0  0  0  0  0  0  0  0  0  0  0
   -1.7950   23.4780  -29.4390 C   0  0  0  0  0  0  0  0  0  0  0  0
   -1.3940   22.2600  -29.6550 N   0  0  0  0  0  0  0  0  0  0  0  0
   -0.0820   21.8660  -29.5110 O   0  0  0  0  0  0  0  0  0  0  0  0
    0.2550   20.8010  -28.6380 C   0  0  0  0  0  0  0  0  0  0  0  0
    0.1495   21.1344  -27.5951 H   0  0  0  0  0  0  0  0  0  0  0  0
   -0.4178   19.9502  -28.8208 H   0  0  0  0  0  0  0  0  0  0  0  0
    1.2948   20.4921  -28.8208 H   0  0  0  0  0  0  0  0  0  0  0  0
   -0.8430   24.5300  -29.0050 C   0  0  0  0  0  0  0  0  0  0  0  0
    0.3320   24.2230  -28.6650 O   0  0  0  0  0  0  0  0  0  0  0  0
   -1.2520   25.9020  -28.9880 N   0  0  0  0  0  0  0  0  0  0  0  0
   -0.8410   26.8330  -27.9470 C   0  0  0  0  0  0  0  0  0  0  0  0
   -1.0370   26.3891  -26.9598 H   0  0  0  0  0  0  0  0  0  0  0  0
    0.2339   27.0440  -28.0473 H   0  0  0  0  0  0  0  0  0  0  0  0
   -1.4094   27.7694  -28.0473 H   0  0  0  0  0  0  0  0  0  0  0  0
   -4.2820   22.9880  -29.2220 C   0  0  0  0  0  0  0  0  0  0  0  0
   -4.1878   22.0592  -28.6402 H   0  0  0  0  0  0  0  0  0  0  0  0
   -5.7250   23.6890  -29.7310 S   0  0  0  0  0  0  0  0  0  0  0  0
  1  2  1  0
  2  3  2  3
  3  4  1  0
  4  5  1  0
  5  6  1  0
  6  7  2  0
  7  8  1  0
  8  9  1  0
  9 10  1  0
  9 11  1  0
  9 12  1  0
  6 13  1  0
 13 14  2  0
 13 15  1  0
 15 16  1  0
 16 17  1  0
 16 18  1  0
 16 19  1  0
  5 20  2  0
 20 21  1  0
 20 22  1  0
 22  3  1  0
M  CHG  2   4  -1  15  -1
M  END
>  <UniqueID>  (32) 
29

>  <SMILES>  (32) 
C[N-]C(=O)/C(=N\OC)c1csc(=N)[n-]1

>  <Energy>  (32) 
47.45433202256134

>  <Genealogy>  (32) 
C[N-]C(=O)C(=NOC)c1csc(=N)[n-]1 (protonated)
C[N-]C(=O)/C(=N\OC)c1csc(=N)[n-]1 (cis-trans isomerization)
C[N-]C(=O)/C(=N\OC)c1csc(=N)[n-]1 (3D coordinates assigned)
C[N-]C(=O)/C(=N\OC)c1csc(=N)[n-]1 (optimized conformer: 47.45433202256134 kcal/mol)

>  <smiles>  (32) 
CNC(=O)C(=NOC)c1csc(=N)[nH]1

>  <score_type>  (32) 
oracle

>  <origin>  (32) 
adgpu

>  <m_score__min__energy>  (32) 
-7.6699999999999999

>  <m_primary>  (32) 
energy

$$$$
32:0
     RDKit          3D

 45 47  0  0  0  0  0  0  0  0999 V2000
   -2.3680   24.6100  -28.2310 C   0  0  0  0  0  0  0  0  0  0  0  0
   -2.9540   25.2790  -29.3440 O   0  0  0  0  0  0  0  0  0  0  0  0
   -4.0940   24.8320  -30.0290 C   0  0  0  0  0  0  0  0  0  0  0  0
   -5.3350   25.4900  -29.9250 C   0  0  0  0  0  0  0  0  0  0  0  0
   -6.4470   25.0150  -30.6210 C   0  0  0  0  0  0  0  0  0  0  0  0
   -6.3410   23.8830  -31.4390 C   0  0  0  0  0  0  0  0  0  0  0  0
   -7.5530   23.3650  -32.1650 C   0  0  0  0  0  0  0  0  0  0  0  0
   -7.3040   22.0140  -32.6610 N   0  0  0  0  0  0  0  0  0  0  0  0
   -7.5590   20.8450  -31.8680 C   0  0  0  0  0  0  0  0  0  0  0  0
   -8.1440   20.9550  -30.7580 O   0  0  0  0  0  0  0  0  0  0  0  0
   -7.1940   19.5000  -32.3500 C   0  0  0  0  0  0  0  0  0  0  0  0
   -5.7820   19.1640  -33.2010 S   0  0  0  0  0  0  0  0  0  0  0  0
   -6.1250   17.5240  -33.3730 C   0  0  0  0  0  0  0  0  0  0  0  0
   -5.2690   16.5260  -34.0540 C   0  0  0  0  0  0  0  0  0  0  0  0
   -5.5220   15.1520  -33.8980 C   0  0  0  0  0  0  0  0  0  0  0  0
   -4.7070   14.2210  -34.5450 C   0  0  0  0  0  0  0  0  0  0  0  0
   -3.6750   14.6390  -35.3230 N   0  0  0  0  0  0  0  0  0  0  0  0
   -3.4050   15.9600  -35.4950 C   0  0  0  0  0  0  0  0  0  0  0  0
   -4.1940   16.9260  -34.8660 C   0  0  0  0  0  0  0  0  0  0  0  0
   -7.3160   17.2230  -32.8070 N   0  0  0  0  0  0  0  0  0  0  0  0
   -7.9230   18.3070  -32.2490 C   0  0  0  0  0  0  0  0  0  0  0  0
   -9.2740   18.1790  -31.6170 C   0  0  0  0  0  0  0  0  0  0  0  0
   -5.1080   23.2200  -31.5430 C   0  0  0  0  0  0  0  0  0  0  0  0
   -3.9800   23.6920  -30.8410 C   0  0  0  0  0  0  0  0  0  0  0  0
   -2.7320   23.0540  -30.9220 O   0  0  0  0  0  0  0  0  0  0  0  0
   -2.5210   21.7640  -31.4860 C   0  0  0  0  0  0  0  0  0  0  0  0
   -2.7510   25.0473  -27.2972 H   0  0  0  0  0  0  0  0  0  0  0  0
   -2.6259   23.5413  -28.2683 H   0  0  0  0  0  0  0  0  0  0  0  0
   -1.2747   24.7249  -28.2683 H   0  0  0  0  0  0  0  0  0  0  0  0
   -5.4281   26.3841  -29.2910 H   0  0  0  0  0  0  0  0  0  0  0  0
   -7.4130   25.5327  -30.5267 H   0  0  0  0  0  0  0  0  0  0  0  0
   -8.4097   23.3468  -31.4752 H   0  0  0  0  0  0  0  0  0  0  0  0
   -7.7711   24.0259  -33.0169 H   0  0  0  0  0  0  0  0  0  0  0  0
   -7.0230   21.9080  -33.6610 H   0  0  0  0  0  0  0  0  0  0  0  0
   -6.3581   14.8119  -33.2692 H   0  0  0  0  0  0  0  0  0  0  0  0
   -4.9014   13.1451  -34.4242 H   0  0  0  0  0  0  0  0  0  0  0  0
   -2.5627   16.2693  -36.1314 H   0  0  0  0  0  0  0  0  0  0  0  0
   -3.9749   17.9949  -35.0056 H   0  0  0  0  0  0  0  0  0  0  0  0
   -9.1690   18.1889  -30.5221 H   0  0  0  0  0  0  0  0  0  0  0  0
   -9.9076   19.0211  -31.9323 H   0  0  0  0  0  0  0  0  0  0  0  0
   -9.7381   17.2329  -31.9323 H   0  0  0  0  0  0  0  0  0  0  0  0
   -5.0212   22.3253  -32.1771 H   0  0  0  0  0  0  0  0  0  0  0  0
   -2.4003   21.0263  -30.6790 H   0  0  0  0  0  0  0  0  0  0  0  0
   -3.3862   21.4895  -32.1074 H   0  0  0  0  0  0  0  0  0  0  0  0
   -1.6134   21.7795  -32.1074 H   0  0  0  0  0  0  0  0  0  0  0  0
  1  2  1  0
  2  3  1  0
  3  4  2  0
  4  5  1  0
  5  6  2  0
  6  7  1  0
  7  8  1  0
  8  9  1  0
  9 10  2  0
  9 11  1  0
 11 12  1  0
 12 13  1  0
 13 14  1  0
 14 15  2  0
 15 16  1  0
 16 17  2  0
 17 18  1  0
 18 19  2  0
 13 20  2  0
 20 21  1  0
 21 22  1  0
  6 23  1  0
 23 24  2  0
 24 25  1  0
 25 26  1  0
 24  3  1  0
 21 11  2  0
 19 14  1  0
  1 27  1  0
  1 28  1  0
  1 29  1  0
  4 30  1  0
  5 31  1  0
  7 32  1  0
  7 33  1  0
  8 34  1  0
 15 35  1  0
 16 36  1  0
 18 37  1  0
 19 38  1  0
 22 39  1  0
 22 40  1  0
 22 41  1  0
 23 42  1  0
 26 43  1  0
 26 44  1  0
 26 45  1  0
M  END
>  <UniqueID>  (33) 
30

>  <SMILES>  (33) 
COc1ccc(CNC(=O)c2sc(-c3ccncc3)nc2C)cc1OC

>  <Energy>  (33) 
77.21669320912193

>  <Genealogy>  (33) 
COc1ccc(CNC(=O)c2sc(-c3ccncc3)nc2C)cc1OC (3D coordinates assigned)
COc1ccc(CNC(=O)c2sc(-c3ccncc3)nc2C)cc1OC (optimized conformer: 77.21669320912193 kcal/mol)

>  <smiles>  (33) 
COc1ccc(CNC(=O)c2sc(-c3ccncc3)nc2C)cc1OC

>  <score_type>  (33) 
oracle

>  <origin>  (33) 
adgpu

>  <m_score__min__energy>  (33) 
-7.9000000000000004

>  <m_primary>  (33) 
energy

$$$$
33:0
     RDKit          3D

 37 38  0  0  0  0  0  0  0  0999 V2000
   -6.1870   24.4950  -31.2820 C   0  0  0  0  0  0  0  0  0  0  0  0
   -5.2990   25.4880  -30.5970 C   0  0  0  0  0  0  0  0  0  0  0  0
   -5.8190   26.5030  -30.0630 O   0  0  0  0  0  0  0  0  0  0  0  0
   -3.8810   25.3010  -30.4920 N   0  0  0  0  0  0  0  0  0  0  0  0
   -3.1960   24.0750  -30.1960 C   0  0  0  0  0  0  0  0  0  0  0  0
   -2.0710   24.1130  -29.3660 C   0  0  0  0  0  0  0  0  0  0  0  0
   -1.3530   22.9450  -29.0950 C   0  0  0  0  0  0  0  0  0  0  0  0
   -1.7530   21.7310  -29.6580 C   0  0  0  0  0  0  0  0  0  0  0  0
   -2.8750   21.6740  -30.4930 C   0  0  0  0  0  0  0  0  0  0  0  0
   -3.2330   20.4190  -31.0860 N   0  0  0  0  0  0  0  0  0  0  0  0
   -3.1900   20.1170  -32.4860 C   0  0  0  0  0  0  0  0  0  0  0  0
   -2.4120   19.2290  -32.9290 O   0  0  0  0  0  0  0  0  0  0  0  0
   -4.0560   20.8850  -33.4320 C   0  0  0  0  0  0  0  0  0  0  0  0
   -5.4630   20.7180  -33.0690 N   0  0  0  0  0  0  0  0  0  0  0  0
   -6.2120   21.7070  -32.6040 N   0  0  0  0  0  0  0  0  0  0  0  0
   -7.4210   21.1960  -32.2990 C   0  0  0  0  0  0  0  0  0  0  0  0
   -8.5390   21.9890  -31.6970 C   0  0  0  0  0  0  0  0  0  0  0  0
   -9.7420   21.3510  -31.9290 F   0  0  0  0  0  0  0  0  0  0  0  0
   -8.3390   22.1080  -30.3340 F   0  0  0  0  0  0  0  0  0  0  0  0
   -8.5840   23.2520  -32.2590 F   0  0  0  0  0  0  0  0  0  0  0  0
   -7.4290   19.8370  -32.5600 C   0  0  0  0  0  0  0  0  0  0  0  0
   -8.7290   18.6970  -32.2490 Cl  0  0  0  0  0  0  0  0  0  0  0  0
   -6.1710   19.5660  -33.0600 C   0  0  0  0  0  0  0  0  0  0  0  0
   -5.6260   18.2100  -33.3930 C   0  0  0  0  0  0  0  0  0  0  0  0
   -3.5760   22.8570  -30.7870 C   0  0  0  0  0  0  0  0  0  0  0  0
   -6.7205   23.8984  -30.5274 H   0  0  0  0  0  0  0  0  0  0  0  0
   -6.9158   25.0274  -31.9108 H   0  0  0  0  0  0  0  0  0  0  0  0
   -5.5768   23.8300  -31.9108 H   0  0  0  0  0  0  0  0  0  0  0  0
   -1.7495   25.0676  -28.9240 H   0  0  0  0  0  0  0  0  0  0  0  0
   -0.4719   22.9818  -28.4376 H   0  0  0  0  0  0  0  0  0  0  0  0
   -1.1832   20.8147  -29.4441 H   0  0  0  0  0  0  0  0  0  0  0  0
   -3.7914   21.9516  -33.3841 H   0  0  0  0  0  0  0  0  0  0  0  0
   -3.8990   20.5075  -34.4532 H   0  0  0  0  0  0  0  0  0  0  0  0
   -5.4068   17.6645  -32.4633 H   0  0  0  0  0  0  0  0  0  0  0  0
   -6.3690   17.6502  -33.9800 H   0  0  0  0  0  0  0  0  0  0  0  0
   -4.7023   18.3201  -33.9800 H   0  0  0  0  0  0  0  0  0  0  0  0
   -4.4269   22.8294  -31.4836 H   0  0  0  0  0  0  0  0  0  0  0  0
  1  2  1  0
  2  3  2  0
  2  4  1  0
  4  5  1  0
  5  6  2  0
  6  7  1  0
  7  8  2  0
  8  9  1  0
  9 10  1  0
 10 11  1  0
 11 12  2  0
 11 13  1  0
 13 14  1  0
 14 15  1  0
 15 16  2  0
 16 17  1  0
 17 18  1  0
 17 19  1  0
 17 20  1  0
 16 21  1  0
 21 22  1  0
 21 23  2  0
 23 24  1  0
  9 25  2  0
 25  5  1  0
 23 14  1  0
  1 26  1  0
  1 27  1  0
  1 28  1  0
  6 29  1  0
  7 30  1  0
  8 31  1  0
 13 32  1  0
 13 33  1  0
 24 34  1  0
 24 35  1  0
 24 36  1  0
 25 37  1  0
M  CHG  2   4  -1  10  -1
M  END
>  <UniqueID>  (34) 
31

>  <SMILES>  (34) 
CC(=O)[N-]c1cccc([N-]C(=O)Cn2nc(C(F)(F)F)c(Cl)c2C)c1

>  <Energy>  (34) 
69.93046580567399

>  <Genealogy>  (34) 
CC(=O)[N-]c1cccc([N-]C(=O)Cn2nc(C(F)(F)F)c(Cl)c2C)c1 (protonated)
CC(=O)[N-]c1cccc([N-]C(=O)Cn2nc(C(F)(F)F)c(Cl)c2C)c1 (3D coordinates assigned)
CC(=O)[N-]c1cccc([N-]C(=O)Cn2nc(C(F)(F)F)c(Cl)c2C)c1 (optimized conformer: 69.93046580567399 kcal/mol)

>  <smiles>  (34) 
CC(=O)Nc1cccc(NC(=O)Cn2nc(C(F)(F)F)c(Cl)c2C)c1

>  <score_type>  (34) 
oracle

>  <origin>  (34) 
adgpu

>  <m_score__min__energy>  (34) 
-9.4900000000000002

>  <m_primary>  (34) 
energy

$$$$
34:0
     RDKit          3D

 42 44  0  0  0  0  0  0  0  0999 V2000
   -0.6430   18.7580  -34.8660 C   0  0  0  0  0  0  0  0  0  0  0  0
   -1.4480   19.3560  -33.7570 C   0  0  0  0  0  0  0  0  0  0  0  0
   -1.0220   20.3720  -32.9740 N   0  0  0  0  0  0  0  0  0  0  0  0
   -1.9720   20.6690  -32.0930 N   0  0  0  0  0  0  0  0  0  0  0  0
   -1.8580   21.7000  -31.0950 C   0  0  0  0  0  0  0  0  0  0  0  0
   -2.9780   22.4770  -30.7520 C   0  0  0  0  0  0  0  0  0  0  0  0
   -2.8770   23.4760  -29.7790 C   0  0  0  0  0  0  0  0  0  0  0  0
   -1.6590   23.7050  -29.1270 C   0  0  0  0  0  0  0  0  0  0  0  0
   -1.5310   24.9730  -27.9120 S   0  0  0  0  0  0  0  0  0  0  0  0
   -1.2410   26.4890  -28.6880 N   0  0  0  0  0  0  0  0  0  0  0  0
   -2.8080   25.0490  -27.1200 O   0  0  0  0  0  0  0  0  0  0  0  0
   -0.3980   24.6680  -26.9730 O   0  0  0  0  0  0  0  0  0  0  0  0
   -0.5390   22.9340  -29.4640 C   0  0  0  0  0  0  0  0  0  0  0  0
   -0.6370   21.9360  -30.4370 C   0  0  0  0  0  0  0  0  0  0  0  0
   -3.0140   19.8350  -32.3010 C   0  0  0  0  0  0  0  0  0  0  0  0
   -4.0700   19.8140  -31.6140 O   0  0  0  0  0  0  0  0  0  0  0  0
   -2.7240   18.9910  -33.3480 C   0  0  0  0  0  0  0  0  0  0  0  0
   -3.5730   17.9600  -33.8590 N   0  0  0  0  0  0  0  0  0  0  0  0
   -4.2300   17.1900  -33.0890 N   0  0  0  0  0  0  0  0  0  0  0  0
   -5.0820   16.1550  -33.5900 C   0  0  0  0  0  0  0  0  0  0  0  0
   -4.5610   14.8660  -33.7490 C   0  0  0  0  0  0  0  0  0  0  0  0
   -5.3670   13.8320  -34.2360 C   0  0  0  0  0  0  0  0  0  0  0  0
   -6.7060   14.0770  -34.5680 C   0  0  0  0  0  0  0  0  0  0  0  0
   -7.7030   12.7630  -35.1830 S   0  0  0  0  0  0  0  0  0  0  0  0
   -6.8400   11.6450  -35.6940 O   0  0  0  0  0  0  0  0  0  0  0  0
   -8.5610   13.2700  -36.3070 O   0  0  0  0  0  0  0  0  0  0  0  0
   -8.6800   12.1820  -33.9460 O   0  0  0  0  0  0  0  0  0  0  0  0
   -7.2320   15.3670  -34.4140 C   0  0  0  0  0  0  0  0  0  0  0  0
   -6.4260   16.4020  -33.9260 C   0  0  0  0  0  0  0  0  0  0  0  0
    0.1719   18.1526  -34.4424 H   0  0  0  0  0  0  0  0  0  0  0  0
   -1.2899   18.1197  -35.4858 H   0  0  0  0  0  0  0  0  0  0  0  0
   -0.2187   19.5617  -35.4858 H   0  0  0  0  0  0  0  0  0  0  0  0
   -0.1050   20.8650  -33.0550 H   0  0  0  0  0  0  0  0  0  0  0  0
   -3.9409   22.2978  -31.2527 H   0  0  0  0  0  0  0  0  0  0  0  0
   -3.7575   24.0843  -29.5247 H   0  0  0  0  0  0  0  0  0  0  0  0
   -1.2260   26.3070  -29.7170 H   0  0  0  0  0  0  0  0  0  0  0  0
    0.4220   23.1151  -28.9603 H   0  0  0  0  0  0  0  0  0  0  0  0
    0.2461   21.3310  -30.6902 H   0  0  0  0  0  0  0  0  0  0  0  0
   -3.5112   14.6648  -33.4894 H   0  0  0  0  0  0  0  0  0  0  0  0
   -4.9480   12.8224  -34.3589 H   0  0  0  0  0  0  0  0  0  0  0  0
   -8.2812   15.5665  -34.6774 H   0  0  0  0  0  0  0  0  0  0  0  0
   -6.8446   17.4120  -33.8047 H   0  0  0  0  0  0  0  0  0  0  0  0
  1  2  1  0
  2  3  1  0
  3  4  1  0
  4  5  1  0
  5  6  2  0
  6  7  1  0
  7  8  2  0
  8  9  1  0
  9 10  1  0
  9 11  2  0
  9 12  2  0
  8 13  1  0
 13 14  2  0
  4 15  1  0
 15 16  2  0
 15 17  1  0
 17 18  1  0
 18 19  2  3
 19 20  1  0
 20 21  2  0
 21 22  1  0
 22 23  2  0
 23 24  1  0
 24 25  2  0
 24 26  2  0
 24 27  1  0
 23 28  1  0
 28 29  2  0
 17  2  2  0
 29 20  1  0
 14  5  1  0
  1 30  1  0
  1 31  1  0
  1 32  1  0
  3 33  1  0
  6 34  1  0
  7 35  1  0
 10 36  1  0
 13 37  1  0
 14 38  1  0
 21 39  1  0
 22 40  1  0
 28 41  1  0
 29 42  1  0
M  CHG  2  10  -1  27  -1
M  END
>  <UniqueID>  (35) 
32

>  <SMILES>  (35) 
Cc1[nH]n(-c2ccc(S([NH-])(=O)=O)cc2)c(=O)c1N=Nc1ccc(S(=O)(=O)[O-])cc1

>  <Energy>  (35) 
83.41640295782466

>  <Genealogy>  (35) 
Cc1[nH]n(-c2ccc(S([NH-])(=O)=O)cc2)c(=O)c1N=Nc1ccc(S(=O)(=O)[O-])cc1 (protonated)
Cc1[nH]n(-c2ccc(S([NH-])(=O)=O)cc2)c(=O)c1N=Nc1ccc(S(=O)(=O)[O-])cc1 (3D coordinates assigned)
Cc1[nH]n(-c2ccc(S([NH-])(=O)=O)cc2)c(=O)c1N=Nc1ccc(S(=O)(=O)[O-])cc1 (optimized conformer: 83.41640295782466 kcal/mol)

>  <smiles>  (35) 
Cc1[nH]n(-c2ccc(S(N)(=O)=O)cc2)c(=O)c1N=Nc1ccc(S(=O)(=O)O)cc1

>  <score_type>  (35) 
oracle

>  <origin>  (35) 
adgpu

>  <m_score__min__energy>  (35) 
-8.6500000000000004

>  <m_primary>  (35) 
energy

$$$$
35:0
     RDKit          3D

 35 37  0  0  0  0  0  0  0  0999 V2000
   -3.0490   20.6500  -32.7520 C   0  0  0  0  0  0  0  0  0  0  0  0
   -4.2670   20.4680  -33.4660 O   0  0  0  0  0  0  0  0  0  0  0  0
   -4.8900   19.2270  -33.6810 C   0  0  0  0  0  0  0  0  0  0  0  0
   -4.2330   18.1760  -34.3530 C   0  0  0  0  0  0  0  0  0  0  0  0
   -4.8850   16.9630  -34.5820 C   0  0  0  0  0  0  0  0  0  0  0  0
   -6.1970   16.7810  -34.1460 C   0  0  0  0  0  0  0  0  0  0  0  0
   -6.8600   17.8090  -33.4750 C   0  0  0  0  0  0  0  0  0  0  0  0
   -6.2150   19.0340  -33.2280 C   0  0  0  0  0  0  0  0  0  0  0  0
   -6.9390   20.1040  -32.4980 C   0  0  0  0  0  0  0  0  0  0  0  0
   -7.9710   19.7770  -31.6030 C   0  0  0  0  0  0  0  0  0  0  0  0
   -8.6430   20.7810  -30.9020 C   0  0  0  0  0  0  0  0  0  0  0  0
   -8.2930   22.1210  -31.0870 C   0  0  0  0  0  0  0  0  0  0  0  0
   -7.2700   22.4660  -31.9820 C   0  0  0  0  0  0  0  0  0  0  0  0
   -6.8610   23.9040  -32.1470 C   0  0  0  0  0  0  0  0  0  0  0  0
   -5.5160   24.1300  -31.5310 C   0  0  0  0  0  0  0  0  0  0  0  0
   -5.1090   25.2630  -30.8700 C   0  0  0  0  0  0  0  0  0  0  0  0
   -3.8660   25.0650  -30.3970 N   0  0  0  0  0  0  0  0  0  0  0  0
   -3.5630   23.8070  -30.7830 C   0  0  0  0  0  0  0  0  0  0  0  0
   -4.5500   23.1980  -31.4720 N   0  0  0  0  0  0  0  0  0  0  0  0
   -6.5860   21.4540  -32.6740 C   0  0  0  0  0  0  0  0  0  0  0  0
   -3.2497   20.6200  -31.6709 H   0  0  0  0  0  0  0  0  0  0  0  0
   -2.3453   19.8470  -33.0167 H   0  0  0  0  0  0  0  0  0  0  0  0
   -2.6108   21.6236  -33.0167 H   0  0  0  0  0  0  0  0  0  0  0  0
   -3.1981   18.3129  -34.6997 H   0  0  0  0  0  0  0  0  0  0  0  0
   -4.3630   16.1495  -35.1072 H   0  0  0  0  0  0  0  0  0  0  0  0
   -6.7099   15.8257  -34.3313 H   0  0  0  0  0  0  0  0  0  0  0  0
   -7.8959   17.6600  -33.1363 H   0  0  0  0  0  0  0  0  0  0  0  0
   -8.2516   18.7240  -31.4533 H   0  0  0  0  0  0  0  0  0  0  0  0
   -9.4497   20.5161  -30.2026 H   0  0  0  0  0  0  0  0  0  0  0  0
   -8.8216   22.9078  -30.5288 H   0  0  0  0  0  0  0  0  0  0  0  0
   -6.8162   24.1489  -33.2185 H   0  0  0  0  0  0  0  0  0  0  0  0
   -7.5991   24.5480  -31.6464 H   0  0  0  0  0  0  0  0  0  0  0  0
   -5.7022   26.1812  -30.7477 H   0  0  0  0  0  0  0  0  0  0  0  0
   -2.6010   23.3239  -30.5567 H   0  0  0  0  0  0  0  0  0  0  0  0
   -5.7674   21.7190  -33.3593 H   0  0  0  0  0  0  0  0  0  0  0  0
  1  2  1  0
  2  3  1  0
  3  4  2  0
  4  5  1  0
  5  6  2  0
  6  7  1  0
  7  8  2  0
  8  9  1  0
  9 10  2  0
 10 11  1  0
 11 12  2  0
 12 13  1  0
 13 14  1  0
 14 15  1  0
 15 16  2  0
 16 17  1  0
 17 18  1  0
 18 19  2  0
 13 20  2  0
  8  3  1  0
 20  9  1  0
 19 15  1  0
  1 21  1  0
  1 22  1  0
  1 23  1  0
  4 24  1  0
  5 25  1  0
  6 26  1  0
  7 27  1  0
 10 28  1  0
 11 29  1  0
 12 30  1  0
 14 31  1  0
 14 32  1  0
 16 33  1  0
 18 34  1  0
 20 35  1  0
M  CHG  1  17  -1
M  END
>  <UniqueID>  (36) 
33

>  <SMILES>  (36) 
COc1ccccc1-c1cccc(Cc2c[n-]cn2)c1

>  <Energy>  (36) 
68.70326108076088

>  <Genealogy>  (36) 
COc1ccccc1-c1cccc(Cc2c[n-]cn2)c1 (protonated)
COc1ccccc1-c1cccc(Cc2c[n-]cn2)c1 (3D coordinates assigned)
COc1ccccc1-c1cccc(Cc2c[n-]cn2)c1 (optimized conformer: 68.70326108076088 kcal/mol)

>  <smiles>  (36) 
COc1ccccc1-c1cccc(Cc2c[nH]cn2)c1

>  <score_type>  (36) 
oracle

>  <origin>  (36) 
adgpu

>  <m_score__min__energy>  (36) 
-8.7799999999999994

>  <m_primary>  (36) 
energy

$$$$
36:0
     RDKit          3D

 36 38  0  0  0  0  0  0  0  0999 V2000
   -2.4410   20.2760  -27.9530 O   0  0  0  0  0  0  0  0  0  0  0  0
   -1.9970   20.7950  -29.0110 C   0  0  0  0  0  0  0  0  0  0  0  0
   -1.6590   19.9330  -30.1070 N   0  0  0  0  0  0  0  0  0  0  0  0
   -1.2400   20.3490  -31.4150 C   0  0  0  0  0  0  0  0  0  0  0  0
   -2.1750   20.9420  -32.2700 C   0  0  0  0  0  0  0  0  0  0  0  0
   -1.7970   21.3690  -33.5460 C   0  0  0  0  0  0  0  0  0  0  0  0
   -0.4710   21.2370  -33.9730 C   0  0  0  0  0  0  0  0  0  0  0  0
   -0.1350   21.6600  -35.2680 O   0  0  0  0  0  0  0  0  0  0  0  0
    0.7830   22.6740  -35.5790 C   0  0  0  0  0  0  0  0  0  0  0  0
    2.1650   22.5220  -35.3600 C   0  0  0  0  0  0  0  0  0  0  0  0
    3.0450   23.5630  -35.6700 C   0  0  0  0  0  0  0  0  0  0  0  0
    2.5540   24.7650  -36.1860 C   0  0  0  0  0  0  0  0  0  0  0  0
    1.1810   24.9300  -36.3870 C   0  0  0  0  0  0  0  0  0  0  0  0
    0.2980   23.8890  -36.0790 C   0  0  0  0  0  0  0  0  0  0  0  0
    0.4720   20.6440  -33.1150 C   0  0  0  0  0  0  0  0  0  0  0  0
    0.0950   20.2170  -31.8400 C   0  0  0  0  0  0  0  0  0  0  0  0
   -1.7880   22.2610  -29.0690 C   0  0  0  0  0  0  0  0  0  0  0  0
   -2.7630   23.0890  -29.6510 C   0  0  0  0  0  0  0  0  0  0  0  0
   -2.5740   24.4740  -29.7090 C   0  0  0  0  0  0  0  0  0  0  0  0
   -3.5430   25.2790  -30.2980 O   0  0  0  0  0  0  0  0  0  0  0  0
   -1.4130   25.0460  -29.1770 C   0  0  0  0  0  0  0  0  0  0  0  0
   -1.2260   26.4230  -29.2370 O   0  0  0  0  0  0  0  0  0  0  0  0
   -0.4440   24.2320  -28.5810 C   0  0  0  0  0  0  0  0  0  0  0  0
    0.7070   24.7950  -28.0430 O   0  0  0  0  0  0  0  0  0  0  0  0
   -0.6320   22.8470  -28.5220 C   0  0  0  0  0  0  0  0  0  0  0  0
   -3.2148   21.0731  -31.9358 H   0  0  0  0  0  0  0  0  0  0  0  0
   -2.5464   21.8115  -34.2187 H   0  0  0  0  0  0  0  0  0  0  0  0
    2.5539   21.5811  -34.9436 H   0  0  0  0  0  0  0  0  0  0  0  0
    4.1254   23.4357  -35.5075 H   0  0  0  0  0  0  0  0  0  0  0  0
    3.2482   25.5814  -36.4340 H   0  0  0  0  0  0  0  0  0  0  0  0
    0.7941   25.8786  -36.7875 H   0  0  0  0  0  0  0  0  0  0  0  0
   -0.7829   24.0257  -36.2304 H   0  0  0  0  0  0  0  0  0  0  0  0
    1.5119   20.5158  -33.4498 H   0  0  0  0  0  0  0  0  0  0  0  0
    0.8440   19.7761  -31.1657 H   0  0  0  0  0  0  0  0  0  0  0  0
   -3.6810   22.6452  -30.0637 H   0  0  0  0  0  0  0  0  0  0  0  0
    0.1290   22.2121  -28.0448 H   0  0  0  0  0  0  0  0  0  0  0  0
  1  2  2  0
  2  3  1  0
  3  4  1  0
  4  5  2  0
  5  6  1  0
  6  7  2  0
  7  8  1  0
  8  9  1  0
  9 10  2  0
 10 11  1  0
 11 12  2  0
 12 13  1  0
 13 14  2  0
  7 15  1  0
 15 16  2  0
  2 17  1  0
 17 18  2  0
 18 19  1  0
 19 20  1  0
 19 21  2  0
 21 22  1  0
 21 23  1  0
 23 24  1  0
 23 25  2  0
 16  4  1  0
 25 17  1  0
 14  9  1  0
  5 26  1  0
  6 27  1  0
 10 28  1  0
 11 29  1  0
 12 30  1  0
 13 31  1  0
 14 32  1  0
 15 33  1  0
 16 34  1  0
 18 35  1  0
 25 36  1  0
M  CHG  4   3  -1  20  -1  22  -1  24  -1
M  END
>  <UniqueID>  (37) 
34

>  <SMILES>  (37) 
O=C([N-]c1ccc(Oc2ccccc2)cc1)c1cc([O-])c([O-])c([O-])c1

>  <Energy>  (37) 
53.14101960376068

>  <Genealogy>  (37) 
O=C([N-]c1ccc(Oc2ccccc2)cc1)c1cc([O-])c([O-])c([O-])c1 (protonated)
O=C([N-]c1ccc(Oc2ccccc2)cc1)c1cc([O-])c([O-])c([O-])c1 (3D coordinates assigned)
O=C([N-]c1ccc(Oc2ccccc2)cc1)c1cc([O-])c([O-])c([O-])c1 (optimized conformer: 53.14101960376068 kcal/mol)

>  <smiles>  (37) 
O=C(Nc1ccc(Oc2ccccc2)cc1)c1cc(O)c(O)c(O)c1

>  <score_type>  (37) 
oracle

>  <origin>  (37) 
adgpu

>  <m_score__min__energy>  (37) 
-13.16

>  <m_primary>  (37) 
energy

$$$$
37:0
     RDKit          3D

 55 58  0  0  0  0  0  0  0  0999 V2000
   -3.8030   24.4540  -27.0260 C   0  0  0  0  0  0  0  0  0  0  0  0
   -4.6100   24.0610  -28.2190 C   0  0  0  0  0  0  0  0  0  0  0  0
   -4.4860   22.9040  -28.7030 O   0  0  0  0  0  0  0  0  0  0  0  0
   -5.4880   25.0140  -28.8310 N   0  0  0  0  0  0  0  0  0  0  0  0
   -6.4780   24.6520  -29.8480 C   0  0  0  0  0  0  0  0  0  0  0  0
   -5.8470   24.5520  -31.2500 C   0  0  2  0  0  0  0  0  0  0  0  0
   -6.4290   23.3770  -32.0860 C   0  0  0  0  0  0  0  0  0  0  0  0
   -5.3410   22.4080  -32.1870 N   0  0  0  0  0  0  0  0  0  0  0  0
   -5.5220   21.0010  -32.4290 C   0  0  0  0  0  0  0  0  0  0  0  0
   -6.6670   20.3280  -31.9630 C   0  0  0  0  0  0  0  0  0  0  0  0
   -6.8660   18.9780  -32.2650 C   0  0  0  0  0  0  0  0  0  0  0  0
   -5.9290   18.2860  -33.0400 C   0  0  0  0  0  0  0  0  0  0  0  0
   -6.1880   16.9280  -33.4300 C   0  0  0  0  0  0  0  0  0  0  0  0
   -6.4480   15.8110  -33.7990 C   0  0  0  0  0  0  0  0  0  0  0  0
   -6.6860   14.4270  -34.2410 C   0  0  0  0  0  0  0  0  0  0  0  0
   -5.4920   13.5730  -34.0410 N   0  0  0  0  0  0  0  0  0  0  0  0
   -5.0600   13.5040  -32.6120 C   0  0  0  0  0  0  0  0  0  0  0  0
   -3.5730   13.8420  -32.3650 C   0  0  0  0  0  0  0  0  0  0  0  0
   -3.1300   14.9720  -33.2440 C   0  0  0  0  0  0  0  0  0  0  0  0
   -2.3150   16.0100  -32.7690 C   0  0  0  0  0  0  0  0  0  0  0  0
   -1.9050   17.0280  -33.6360 C   0  0  0  0  0  0  0  0  0  0  0  0
   -2.2920   17.0020  -34.9810 C   0  0  0  0  0  0  0  0  0  0  0  0
   -3.0960   15.9620  -35.4590 C   0  0  0  0  0  0  0  0  0  0  0  0
   -3.5210   14.9500  -34.5860 C   0  0  0  0  0  0  0  0  0  0  0  0
   -4.4200   13.8310  -35.0350 C   0  0  0  0  0  0  0  0  0  0  0  0
   -4.7880   18.9460  -33.5070 C   0  0  0  0  0  0  0  0  0  0  0  0
   -4.5860   20.2960  -33.2040 C   0  0  0  0  0  0  0  0  0  0  0  0
   -4.1850   23.0420  -31.6720 C   0  0  0  0  0  0  0  0  0  0  0  0
   -3.0260   22.5500  -31.7220 O   0  0  0  0  0  0  0  0  0  0  0  0
   -4.4530   24.2860  -31.1480 O   0  0  0  0  0  0  0  0  0  0  0  0
   -4.3499   24.1877  -26.1095 H   0  0  0  0  0  0  0  0  0  0  0  0
   -2.8390   23.9245  -27.0448 H   0  0  0  0  0  0  0  0  0  0  0  0
   -3.6255   25.5394  -27.0448 H   0  0  0  0  0  0  0  0  0  0  0  0
   -5.4230   26.0140  -28.5360 H   0  0  0  0  0  0  0  0  0  0  0  0
   -6.9187   23.6789  -29.5856 H   0  0  0  0  0  0  0  0  0  0  0  0
   -7.2457   25.4394  -29.8737 H   0  0  0  0  0  0  0  0  0  0  0  0
   -6.0619   25.5146  -31.7371 H   0  0  0  0  0  0  0  0  0  0  0  0
   -7.2963   22.9324  -31.5760 H   0  0  0  0  0  0  0  0  0  0  0  0
   -6.7798   23.7080  -33.0746 H   0  0  0  0  0  0  0  0  0  0  0  0
   -7.4098   20.8679  -31.3574 H   0  0  0  0  0  0  0  0  0  0  0  0
   -7.7612   18.4584  -31.8926 H   0  0  0  0  0  0  0  0  0  0  0  0
   -7.5240   14.0082  -33.6646 H   0  0  0  0  0  0  0  0  0  0  0  0
   -6.9166   14.4462  -35.3164 H   0  0  0  0  0  0  0  0  0  0  0  0
   -5.6720   14.2132  -32.0354 H   0  0  0  0  0  0  0  0  0  0  0  0
   -5.1947   12.4581  -32.2991 H   0  0  0  0  0  0  0  0  0  0  0  0
   -3.4390   14.1305  -31.3120 H   0  0  0  0  0  0  0  0  0  0  0  0
   -2.9665   12.9548  -32.5995 H   0  0  0  0  0  0  0  0  0  0  0  0
   -1.9986   16.0234  -31.7156 H   0  0  0  0  0  0  0  0  0  0  0  0
   -1.2778   17.8500  -33.2606 H   0  0  0  0  0  0  0  0  0  0  0  0
   -1.9635   17.8003  -35.6628 H   0  0  0  0  0  0  0  0  0  0  0  0
   -3.3943   15.9379  -36.5175 H   0  0  0  0  0  0  0  0  0  0  0  0
   -4.8799   14.1037  -35.9963 H   0  0  0  0  0  0  0  0  0  0  0  0
   -3.8149   12.9184  -35.1401 H   0  0  0  0  0  0  0  0  0  0  0  0
   -4.0485   18.4025  -34.1134 H   0  0  0  0  0  0  0  0  0  0  0  0
   -3.6872   20.8101  -33.5753 H   0  0  0  0  0  0  0  0  0  0  0  0
  1  2  1  0
  2  3  2  0
  2  4  1  0
  4  5  1  0
  5  6  1  0
  6  7  1  0
  7  8  1  0
  8  9  1  0
  9 10  2  0
 10 11  1  0
 11 12  2  0
 12 13  1  0
 13 14  3  0
 14 15  1  0
 15 16  1  0
 16 17  1  0
 17 18  1  0
 18 19  1  0
 19 20  2  0
 20 21  1  0
 21 22  2  0
 22 23  1  0
 23 24  2  0
 24 25  1  0
 12 26  1  0
 26 27  2  0
  8 28  1  0
 28 29  2  0
 28 30  1  0
 30  6  1  0
 27  9  1  0
 25 16  1  0
 24 19  1  0
  1 31  1  0
  1 32  1  0
  1 33  1  0
  4 34  1  0
  5 35  1  0
  5 36  1  0
  6 37  1  6
  7 38  1  0
  7 39  1  0
 10 40  1  0
 11 41  1  0
 15 42  1  0
 15 43  1  0
 17 44  1  0
 17 45  1  0
 18 46  1  0
 18 47  1  0
 20 48  1  0
 21 49  1  0
 22 50  1  0
 23 51  1  0
 25 52  1  0
 25 53  1  0
 26 54  1  0
 27 55  1  0
M  END
>  <UniqueID>  (38) 
35

>  <SMILES>  (38) 
CC(=O)NC[C@@H]1CN(c2ccc(C#CCN3CCc4ccccc4C3)cc2)C(=O)O1

>  <Energy>  (38) 
76.62094605151589

>  <Genealogy>  (38) 
CC(=O)NC[C@@H]1CN(c2ccc(C#CCN3CCc4ccccc4C3)cc2)C(=O)O1 (chirality)
CC(=O)NC[C@@H]1CN(c2ccc(C#CCN3CCc4ccccc4C3)cc2)C(=O)O1 (3D coordinates assigned)
CC(=O)NC[C@@H]1CN(c2ccc(C#CCN3CCc4ccccc4C3)cc2)C(=O)O1 (nonaromatic ring conformer: 76.62094605151589 kcal/mol)

>  <smiles>  (38) 
CC(=O)NCC1CN(c2ccc(C#CCN3CCc4ccccc4C3)cc2)C(=O)O1

>  <score_type>  (38) 
oracle

>  <origin>  (38) 
adgpu

>  <m_score__min__energy>  (38) 
-8.8900000000000006

>  <m_primary>  (38) 
energy

$$$$
38:0
     RDKit          3D

 54 57  0  0  0  0  0  0  0  0999 V2000
   -4.1672   24.3546  -30.5741 H   0  0  0  0  0  0  0  0  0  0  0  0
   -3.1820   24.2770  -30.0910 C   0  0  0  0  0  0  0  0  0  0  0  0
   -2.7460   25.2760  -29.2850 N   0  0  0  0  0  0  0  0  0  0  0  0
   -1.5380   25.2230  -28.6680 C   0  0  0  0  0  0  0  0  0  0  0  0
   -1.1370   26.2780  -27.8390 C   0  0  0  0  0  0  0  0  0  0  0  0
   -1.7992   27.1444  -27.6945 H   0  0  0  0  0  0  0  0  0  0  0  0
    0.1020   26.2330  -27.1950 C   0  0  0  0  0  0  0  0  0  0  0  0
    0.5990   27.5580  -26.1570 Cl  0  0  0  0  0  0  0  0  0  0  0  0
    0.9470   25.1350  -27.3760 C   0  0  0  0  0  0  0  0  0  0  0  0
    1.9220   25.1043  -26.8676 H   0  0  0  0  0  0  0  0  0  0  0  0
    0.5580   24.0750  -28.2010 C   0  0  0  0  0  0  0  0  0  0  0  0
    1.2291   23.2143  -28.3384 H   0  0  0  0  0  0  0  0  0  0  0  0
   -0.6900   24.1030  -28.8580 C   0  0  0  0  0  0  0  0  0  0  0  0
   -1.1160   23.0560  -29.7080 C   0  0  0  0  0  0  0  0  0  0  0  0
   -0.3460   22.0140  -29.8810 N   0  0  0  0  0  0  0  0  0  0  0  0
   -0.5520   20.9020  -30.7670 C   0  0  0  0  0  0  0  0  0  0  0  0
   -0.9930   21.1430  -32.0720 C   0  0  0  0  0  0  0  0  0  0  0  0
   -1.1345   22.1772  -32.4190 H   0  0  0  0  0  0  0  0  0  0  0  0
   -1.2550   20.0780  -32.9380 C   0  0  0  0  0  0  0  0  0  0  0  0
   -1.5919   20.2785  -33.9658 H   0  0  0  0  0  0  0  0  0  0  0  0
   -1.0900   18.7510  -32.5020 C   0  0  0  0  0  0  0  0  0  0  0  0
   -1.3750   17.6360  -33.3660 N   0  0  0  0  0  0  0  0  0  0  0  0
   -0.5890   16.9920  -33.6080 H   0  0  0  0  0  0  0  0  0  0  0  0
   -2.6330   17.4480  -34.0370 C   0  0  0  0  0  0  0  0  0  0  0  0
   -3.3920   18.4370  -34.2300 O   0  0  0  0  0  0  0  0  0  0  0  0
   -3.0270   16.1130  -34.5520 C   0  0  0  0  0  0  0  0  0  0  0  0
   -3.7060   15.2010  -33.7340 C   0  0  0  0  0  0  0  0  0  0  0  0
   -3.9465   15.4766  -32.6966 H   0  0  0  0  0  0  0  0  0  0  0  0
   -4.0840   13.9380  -34.2220 C   0  0  0  0  0  0  0  0  0  0  0  0
   -4.7620   13.0050  -33.4200 O   0  0  0  0  0  0  0  0  0  0  0  0
   -4.6190   12.8960  -32.0070 C   0  0  0  0  0  0  0  0  0  0  0  0
   -5.4004   13.4916  -31.5124 H   0  0  0  0  0  0  0  0  0  0  0  0
   -4.7176   11.8418  -31.7087 H   0  0  0  0  0  0  0  0  0  0  0  0
   -3.6286   13.2704  -31.7087 H   0  0  0  0  0  0  0  0  0  0  0  0
   -3.7860   13.5780  -35.5470 C   0  0  0  0  0  0  0  0  0  0  0  0
   -4.1960   12.2940  -35.9580 O   0  0  0  0  0  0  0  0  0  0  0  0
   -5.5280   11.8740  -36.2310 C   0  0  0  0  0  0  0  0  0  0  0  0
   -6.0609   11.7060  -35.2835 H   0  0  0  0  0  0  0  0  0  0  0  0
   -6.0464   12.6523  -36.8103 H   0  0  0  0  0  0  0  0  0  0  0  0
   -5.5062   10.9391  -36.8103 H   0  0  0  0  0  0  0  0  0  0  0  0
   -3.1100   14.4970  -36.3900 C   0  0  0  0  0  0  0  0  0  0  0  0
   -2.8150   14.1440  -37.7170 O   0  0  0  0  0  0  0  0  0  0  0  0
   -2.0230   13.0270  -38.1100 C   0  0  0  0  0  0  0  0  0  0  0  0
   -1.6537   12.5061  -37.2143 H   0  0  0  0  0  0  0  0  0  0  0  0
   -2.6346   12.3367  -38.7096 H   0  0  0  0  0  0  0  0  0  0  0  0
   -1.1692   13.3757  -38.7096 H   0  0  0  0  0  0  0  0  0  0  0  0
   -2.7420   15.7560  -35.8780 C   0  0  0  0  0  0  0  0  0  0  0  0
   -2.2214   16.4728  -36.5301 H   0  0  0  0  0  0  0  0  0  0  0  0
   -0.7040   18.5120  -31.1740 C   0  0  0  0  0  0  0  0  0  0  0  0
   -0.6070   17.4782  -30.8108 H   0  0  0  0  0  0  0  0  0  0  0  0
   -0.4420   19.5790  -30.3100 C   0  0  0  0  0  0  0  0  0  0  0  0
   -0.1486   19.3815  -29.2684 H   0  0  0  0  0  0  0  0  0  0  0  0
   -2.3890   23.1520  -30.3110 C   0  0  0  0  0  0  0  0  0  0  0  0
   -2.7552   22.3386  -30.9547 H   0  0  0  0  0  0  0  0  0  0  0  0
  1  2  1  0
  2  3  1  0
  3  4  1  0
  4  5  2  0
  5  6  1  0
  5  7  1  0
  7  8  1  0
  7  9  2  0
  9 10  1  0
  9 11  1  0
 11 12  1  0
 11 13  2  0
 13 14  1  0
 14 15  2  0
 15 16  1  0
 16 17  2  0
 17 18  1  0
 17 19  1  0
 19 20  1  0
 19 21  2  0
 21 22  1  0
 22 23  1  0
 22 24  1  0
 24 25  2  0
 24 26  1  0
 26 27  2  0
 27 28  1  0
 27 29  1  0
 29 30  1  0
 30 31  1  0
 31 32  1  0
 31 33  1  0
 31 34  1  0
 29 35  2  0
 35 36  1  0
 36 37  1  0
 37 38  1  0
 37 39  1  0
 37 40  1  0
 35 41  1  0
 41 42  1  0
 42 43  1  0
 43 44  1  0
 43 45  1  0
 43 46  1  0
 41 47  2  0
 47 48  1  0
 21 49  1  0
 49 50  1  0
 49 51  2  0
 51 52  1  0
 14 53  1  0
 53 54  1  0
 53  2  2  0
 13  4  1  0
 51 16  1  0
 47 26  1  0
M  CHG  1   3  -1
M  END
>  <UniqueID>  (39) 
36

>  <SMILES>  (39) 
COc1cc(C(=O)Nc2ccc(/N=c3\cc[n-]c4cc(Cl)ccc34)cc2)cc(OC)c1OC

>  <Energy>  (39) 
80.3996841643316

>  <Genealogy>  (39) 
COc1cc(C(=O)Nc2ccc(N=c3cc[n-]c4cc(Cl)ccc34)cc2)cc(OC)c1OC (protonated)
COc1cc(C(=O)Nc2ccc(/N=c3\cc[n-]c4cc(Cl)ccc34)cc2)cc(OC)c1OC (cis-trans isomerization)
COc1cc(C(=O)Nc2ccc(/N=c3\cc[n-]c4cc(Cl)ccc34)cc2)cc(OC)c1OC (3D coordinates assigned)
COc1cc(C(=O)Nc2ccc(/N=c3\cc[n-]c4cc(Cl)ccc34)cc2)cc(OC)c1OC (optimized conformer: 80.3996841643316 kcal/mol)

>  <smiles>  (39) 
COc1cc(C(=O)Nc2ccc(N=c3cc[nH]c4cc(Cl)ccc34)cc2)cc(OC)c1OC

>  <score_type>  (39) 
oracle

>  <origin>  (39) 
adgpu

>  <m_score__min__energy>  (39) 
-7.2800000000000002

>  <m_primary>  (39) 
energy

$$$$
39:0
     RDKit          3D

 37 38  0  0  0  0  0  0  0  0999 V2000
   -7.2320   18.2060  -32.6170 C   0  0  0  0  0  0  0  0  0  0  0  0
   -8.4210   19.0710  -32.3690 C   0  0  0  0  0  0  0  0  0  0  0  0
   -9.4980   18.5480  -31.9790 O   0  0  0  0  0  0  0  0  0  0  0  0
   -8.3520   20.4690  -32.6790 N   0  0  0  0  0  0  0  0  0  0  0  0
   -7.5700   21.4580  -31.9950 C   0  0  0  0  0  0  0  0  0  0  0  0
   -6.3080   21.7870  -32.5090 C   0  0  0  0  0  0  0  0  0  0  0  0
   -5.5040   22.7300  -31.8620 C   0  0  0  0  0  0  0  0  0  0  0  0
   -5.9460   23.3430  -30.6820 C   0  0  0  0  0  0  0  0  0  0  0  0
   -4.9310   24.5080  -29.8360 S   0  0  0  0  0  0  0  0  0  0  0  0
   -5.8160   25.4380  -29.0560 O   0  0  0  0  0  0  0  0  0  0  0  0
   -4.1140   25.3100  -30.8090 O   0  0  0  0  0  0  0  0  0  0  0  0
   -3.8660   23.6770  -28.7470 N   0  0  0  0  0  0  0  0  0  0  0  0
   -2.8440   22.7730  -29.2020 C   0  0  0  0  0  0  0  0  0  0  0  0
   -3.1990   21.5780  -29.8560 C   0  0  0  0  0  0  0  0  0  0  0  0
   -2.2200   20.6960  -30.3130 C   0  0  0  0  0  0  0  0  0  0  0  0
   -0.8710   20.9960  -30.1310 C   0  0  0  0  0  0  0  0  0  0  0  0
   -0.4970   22.1770  -29.4890 C   0  0  0  0  0  0  0  0  0  0  0  0
   -1.4710   23.0740  -29.0180 C   0  0  0  0  0  0  0  0  0  0  0  0
   -0.9500   24.5370  -28.1720 S   0  0  0  0  0  0  0  0  0  0  0  0
   -1.5910   25.9300  -28.9670 N   0  0  0  0  0  0  0  0  0  0  0  0
   -1.4470   24.5240  -26.7530 O   0  0  0  0  0  0  0  0  0  0  0  0
    0.5520   24.6020  -28.1600 O   0  0  0  0  0  0  0  0  0  0  0  0
   -7.1980   23.0020  -30.1540 C   0  0  0  0  0  0  0  0  0  0  0  0
   -8.0030   22.0600  -30.8000 C   0  0  0  0  0  0  0  0  0  0  0  0
   -6.8001   17.8918  -31.6553 H   0  0  0  0  0  0  0  0  0  0  0  0
   -7.5377   17.3177  -33.1893 H   0  0  0  0  0  0  0  0  0  0  0  0
   -6.4810   18.7703  -33.1893 H   0  0  0  0  0  0  0  0  0  0  0  0
   -5.9480   21.3000  -33.4273 H   0  0  0  0  0  0  0  0  0  0  0  0
   -4.5210   22.9917  -32.2806 H   0  0  0  0  0  0  0  0  0  0  0  0
   -4.0590   23.7840  -27.7290 H   0  0  0  0  0  0  0  0  0  0  0  0
   -4.2614   21.3370  -30.0084 H   0  0  0  0  0  0  0  0  0  0  0  0
   -2.5126   19.7632  -30.8173 H   0  0  0  0  0  0  0  0  0  0  0  0
   -0.1000   20.3005  -30.4941 H   0  0  0  0  0  0  0  0  0  0  0  0
    0.5695   22.4080  -29.3503 H   0  0  0  0  0  0  0  0  0  0  0  0
   -2.5360   25.6680  -29.3280 H   0  0  0  0  0  0  0  0  0  0  0  0
   -7.5490   23.4780  -29.2265 H   0  0  0  0  0  0  0  0  0  0  0  0
   -8.9793   21.7882  -30.3721 H   0  0  0  0  0  0  0  0  0  0  0  0
  1  2  1  0
  2  3  2  0
  2  4  1  0
  4  5  1  0
  5  6  2  0
  6  7  1  0
  7  8  2  0
  8  9  1  0
  9 10  2  0
  9 11  2  0
  9 12  1  0
 12 13  1  0
 13 14  2  0
 14 15  1  0
 15 16  2  0
 16 17  1  0
 17 18  2  0
 18 19  1  0
 19 20  1  0
 19 21  2  0
 19 22  2  0
  8 23  1  0
 23 24  2  0
 24  5  1  0
 18 13  1  0
  1 25  1  0
  1 26  1  0
  1 27  1  0
  6 28  1  0
  7 29  1  0
 12 30  1  0
 14 31  1  0
 15 32  1  0
 16 33  1  0
 17 34  1  0
 20 35  1  0
 23 36  1  0
 24 37  1  0
M  CHG  2   4  -1  20  -1
M  END
>  <UniqueID>  (40) 
37

>  <SMILES>  (40) 
CC(=O)[N-]c1ccc(S(=O)(=O)Nc2ccccc2S([NH-])(=O)=O)cc1

>  <Energy>  (40) 
43.54904693827601

>  <Genealogy>  (40) 
CC(=O)[N-]c1ccc(S(=O)(=O)Nc2ccccc2S([NH-])(=O)=O)cc1 (protonated)
CC(=O)[N-]c1ccc(S(=O)(=O)Nc2ccccc2S([NH-])(=O)=O)cc1 (3D coordinates assigned)
CC(=O)[N-]c1ccc(S(=O)(=O)Nc2ccccc2S([NH-])(=O)=O)cc1 (optimized conformer: 43.54904693827601 kcal/mol)

>  <smiles>  (40) 
CC(=O)Nc1ccc(S(=O)(=O)Nc2ccccc2S(N)(=O)=O)cc1

>  <score_type>  (40) 
oracle

>  <origin>  (40) 
adgpu

>  <m_score__min__energy>  (40) 
-10.800000000000001

>  <m_primary>  (40) 
energy

$$$$
40:0
     RDKit          3D

 39 41  0  0  0  0  0  0  0  0999 V2000
   -1.6270   20.2240  -28.2960 O   0  0  0  0  0  0  0  0  0  0  0  0
   -1.4180   20.9110  -29.3300 C   0  0  0  0  0  0  0  0  0  0  0  0
   -1.1400   20.2290  -30.5610 N   0  0  0  0  0  0  0  0  0  0  0  0
   -2.0860   19.9360  -31.6010 C   0  0  0  0  0  0  0  0  0  0  0  0
   -3.2030   20.7560  -31.8360 C   0  0  0  0  0  0  0  0  0  0  0  0
   -4.1120   20.4360  -32.8480 C   0  0  0  0  0  0  0  0  0  0  0  0
   -3.9290   19.2790  -33.6280 C   0  0  0  0  0  0  0  0  0  0  0  0
   -4.8120   18.9080  -34.6560 O   0  0  0  0  0  0  0  0  0  0  0  0
   -5.9530   18.0640  -34.4980 C   0  0  0  0  0  0  0  0  0  0  0  0
   -6.9020   18.6300  -33.4750 C   0  0  0  0  0  0  0  0  0  0  0  0
   -7.1760   20.0080  -33.4540 C   0  0  0  0  0  0  0  0  0  0  0  0
   -8.0470   20.5390  -32.4990 C   0  0  0  0  0  0  0  0  0  0  0  0
   -8.6450   19.7000  -31.5530 C   0  0  0  0  0  0  0  0  0  0  0  0
   -8.3670   18.3310  -31.5590 C   0  0  0  0  0  0  0  0  0  0  0  0
   -7.4960   17.7960  -32.5140 C   0  0  0  0  0  0  0  0  0  0  0  0
   -2.8250   18.4560  -33.3760 C   0  0  0  0  0  0  0  0  0  0  0  0
   -1.9150   18.7760  -32.3640 C   0  0  0  0  0  0  0  0  0  0  0  0
   -1.4150   22.3900  -29.2320 C   0  0  0  0  0  0  0  0  0  0  0  0
   -0.3460   23.0510  -28.6040 C   0  0  0  0  0  0  0  0  0  0  0  0
   -0.3330   24.4480  -28.5080 C   0  0  0  0  0  0  0  0  0  0  0  0
    0.7250   25.0860  -27.8730 O   0  0  0  0  0  0  0  0  0  0  0  0
   -1.3840   25.1960  -29.0500 C   0  0  0  0  0  0  0  0  0  0  0  0
   -1.3740   26.5830  -28.9520 O   0  0  0  0  0  0  0  0  0  0  0  0
   -2.4450   24.5470  -29.6920 C   0  0  0  0  0  0  0  0  0  0  0  0
   -3.4870   25.2870  -30.2390 O   0  0  0  0  0  0  0  0  0  0  0  0
   -2.4580   23.1520  -29.7880 C   0  0  0  0  0  0  0  0  0  0  0  0
   -3.3624   21.6537  -31.2206 H   0  0  0  0  0  0  0  0  0  0  0  0
   -4.9749   21.0918  -33.0359 H   0  0  0  0  0  0  0  0  0  0  0  0
   -6.4735   17.9775  -35.4632 H   0  0  0  0  0  0  0  0  0  0  0  0
   -5.6143   17.0755  -34.1544 H   0  0  0  0  0  0  0  0  0  0  0  0
   -6.7028   20.6717  -34.1926 H   0  0  0  0  0  0  0  0  0  0  0  0
   -8.2625   21.6176  -32.4912 H   0  0  0  0  0  0  0  0  0  0  0  0
   -9.3341   20.1181  -30.8044 H   0  0  0  0  0  0  0  0  0  0  0  0
   -8.8338   17.6726  -30.8116 H   0  0  0  0  0  0  0  0  0  0  0  0
   -7.2756   16.7183  -32.5122 H   0  0  0  0  0  0  0  0  0  0  0  0
   -2.6721   17.5493  -33.9797 H   0  0  0  0  0  0  0  0  0  0  0  0
   -1.0603   18.1123  -32.1667 H   0  0  0  0  0  0  0  0  0  0  0  0
    0.4866   22.4670  -28.1848 H   0  0  0  0  0  0  0  0  0  0  0  0
   -3.2895   22.6474  -30.3018 H   0  0  0  0  0  0  0  0  0  0  0  0
  1  2  2  0
  2  3  1  0
  3  4  1  0
  4  5  2  0
  5  6  1  0
  6  7  2  0
  7  8  1  0
  8  9  1  0
  9 10  1  0
 10 11  2  0
 11 12  1  0
 12 13  2  0
 13 14  1  0
 14 15  2  0
  7 16  1  0
 16 17  2  0
  2 18  1  0
 18 19  2  0
 19 20  1  0
 20 21  1  0
 20 22  2  0
 22 23  1  0
 22 24  1  0
 24 25  1  0
 24 26  2  0
 17  4  1  0
 26 18  1  0
 15 10  1  0
  5 27  1  0
  6 28  1  0
  9 29  1  0
  9 30  1  0
 11 31  1  0
 12 32  1  0
 13 33  1  0
 14 34  1  0
 15 35  1  0
 16 36  1  0
 17 37  1  0
 19 38  1  0
 26 39  1  0
M  CHG  4   3  -1  21  -1  23  -1  25  -1
M  END
>  <UniqueID>  (41) 
38

>  <SMILES>  (41) 
O=C([N-]c1ccc(OCc2ccccc2)cc1)c1cc([O-])c([O-])c([O-])c1

>  <Energy>  (41) 
49.227941959404056

>  <Genealogy>  (41) 
O=C([N-]c1ccc(OCc2ccccc2)cc1)c1cc([O-])c([O-])c([O-])c1 (protonated)
O=C([N-]c1ccc(OCc2ccccc2)cc1)c1cc([O-])c([O-])c([O-])c1 (3D coordinates assigned)
O=C([N-]c1ccc(OCc2ccccc2)cc1)c1cc([O-])c([O-])c([O-])c1 (optimized conformer: 49.227941959404056 kcal/mol)

>  <smiles>  (41) 
O=C(Nc1ccc(OCc2ccccc2)cc1)c1cc(O)c(O)c(O)c1

>  <score_type>  (41) 
oracle

>  <origin>  (41) 
adgpu

>  <m_score__min__energy>  (41) 
-14.050000000000001

>  <m_primary>  (41) 
energy

$$$$
41:0
     RDKit          3D

 65 69  0  0  0  0  0  0  0  0999 V2000
   -6.1250   24.9810  -30.5900 C   0  0  0  0  0  0  0  0  0  0  0  0
   -6.6170   23.6880  -31.1880 C   0  0  0  0  0  0  0  0  0  0  0  0
   -7.9940   23.5400  -31.4260 C   0  0  0  0  0  0  0  0  0  0  0  0
   -8.4980   22.3710  -31.9930 C   0  0  0  0  0  0  0  0  0  0  0  0
   -7.6330   21.3270  -32.3490 C   0  0  0  0  0  0  0  0  0  0  0  0
   -8.1170   20.1080  -32.9370 N   0  0  0  0  0  0  0  0  0  0  0  0
   -7.8450   18.7760  -32.4840 C   0  0  0  0  0  0  0  0  0  0  0  0
   -8.5960   18.2770  -31.6040 O   0  0  0  0  0  0  0  0  0  0  0  0
   -6.6990   17.9850  -32.9950 C   0  0  0  0  0  0  0  0  0  0  0  0
   -6.8810   16.6390  -33.3500 C   0  0  0  0  0  0  0  0  0  0  0  0
   -5.8240   15.8990  -33.8840 C   0  0  0  0  0  0  0  0  0  0  0  0
   -4.5710   16.4870  -34.0610 C   0  0  0  0  0  0  0  0  0  0  0  0
   -4.3530   17.8190  -33.6660 C   0  0  0  0  0  0  0  0  0  0  0  0
   -3.0190   18.4870  -33.8880 C   0  0  0  0  0  0  0  0  0  0  0  0
   -2.3180   17.8880  -34.9200 F   0  0  0  0  0  0  0  0  0  0  0  0
   -2.2480   18.4020  -32.7380 F   0  0  0  0  0  0  0  0  0  0  0  0
   -3.2220   19.8180  -34.1970 F   0  0  0  0  0  0  0  0  0  0  0  0
   -5.4240   18.5620  -33.1360 C   0  0  0  0  0  0  0  0  0  0  0  0
   -6.2690   21.4440  -32.0720 C   0  0  0  0  0  0  0  0  0  0  0  0
   -5.7390   22.6140  -31.4940 C   0  0  0  0  0  0  0  0  0  0  0  0
   -4.2850   22.6650  -31.1810 C   0  0  0  0  0  0  0  0  0  0  0  0
   -3.3520   21.9770  -31.9710 C   0  0  0  0  0  0  0  0  0  0  0  0
   -1.9970   21.9780  -31.5880 C   0  0  0  0  0  0  0  0  0  0  0  0
   -0.9910   21.2470  -32.3310 N   0  0  0  0  0  0  0  0  0  0  0  0
   -0.9450   21.3140  -33.8020 C   0  0  0  0  0  0  0  0  0  0  0  0
    0.4050   20.8360  -34.3450 C   0  0  0  0  0  0  0  0  0  0  0  0
    0.7760   19.6060  -33.7610 O   0  0  0  0  0  0  0  0  0  0  0  0
    1.0240   19.8020  -32.3860 C   0  0  0  0  0  0  0  0  0  0  0  0
   -0.2700   20.1610  -31.6470 C   0  0  0  0  0  0  0  0  0  0  0  0
   -1.6370   22.6640  -30.4700 N   0  0  0  0  0  0  0  0  0  0  0  0
   -2.5400   23.3480  -29.7170 C   0  0  0  0  0  0  0  0  0  0  0  0
   -2.1070   24.0810  -28.5520 N   0  0  0  0  0  0  0  0  0  0  0  0
   -0.6860   24.4060  -28.3850 C   0  0  0  0  0  0  0  0  0  0  0  0
   -0.5080   25.5690  -27.4020 C   0  0  0  0  0  0  0  0  0  0  0  0
   -1.2250   25.3360  -26.2050 O   0  0  0  0  0  0  0  0  0  0  0  0
   -2.6120   25.3180  -26.4840 C   0  0  0  0  0  0  0  0  0  0  0  0
   -2.9700   24.1200  -27.3640 C   0  0  0  0  0  0  0  0  0  0  0  0
   -3.8520   23.3320  -30.0760 N   0  0  0  0  0  0  0  0  0  0  0  0
   -6.1516   24.9110  -29.4926 H   0  0  0  0  0  0  0  0  0  0  0  0
   -5.0927   25.1685  -30.9205 H   0  0  0  0  0  0  0  0  0  0  0  0
   -6.7716   25.8073  -30.9205 H   0  0  0  0  0  0  0  0  0  0  0  0
   -8.6821   24.3564  -31.1617 H   0  0  0  0  0  0  0  0  0  0  0  0
   -9.5800   22.2670  -32.1620 H   0  0  0  0  0  0  0  0  0  0  0  0
   -7.8628   16.1641  -33.2066 H   0  0  0  0  0  0  0  0  0  0  0  0
   -5.9799   14.8474  -34.1665 H   0  0  0  0  0  0  0  0  0  0  0  0
   -3.7516   15.9071  -34.5107 H   0  0  0  0  0  0  0  0  0  0  0  0
   -5.2623   19.6057  -32.8285 H   0  0  0  0  0  0  0  0  0  0  0  0
   -5.5962   20.6068  -32.3097 H   0  0  0  0  0  0  0  0  0  0  0  0
   -3.6746   21.4439  -32.8775 H   0  0  0  0  0  0  0  0  0  0  0  0
   -1.7415   20.6767  -34.2137 H   0  0  0  0  0  0  0  0  0  0  0  0
   -1.0861   22.3623  -34.1038 H   0  0  0  0  0  0  0  0  0  0  0  0
    0.3301   20.7090  -35.4351 H   0  0  0  0  0  0  0  0  0  0  0  0
    1.1693   21.5873  -34.0972 H   0  0  0  0  0  0  0  0  0  0  0  0
    1.4390   18.8773  -31.9587 H   0  0  0  0  0  0  0  0  0  0  0  0
    1.7383   20.6305  -32.2704 H   0  0  0  0  0  0  0  0  0  0  0  0
   -0.9169   19.2724  -31.6042 H   0  0  0  0  0  0  0  0  0  0  0  0
   -0.0092   20.5007  -30.6338 H   0  0  0  0  0  0  0  0  0  0  0  0
   -0.1565   23.5225  -27.9988 H   0  0  0  0  0  0  0  0  0  0  0  0
   -0.2737   24.7017  -29.3610 H   0  0  0  0  0  0  0  0  0  0  0  0
    0.5606   25.6796  -27.1654 H   0  0  0  0  0  0  0  0  0  0  0  0
   -0.8962   26.4857  -27.8700 H   0  0  0  0  0  0  0  0  0  0  0  0
   -3.1698   25.2511  -25.5383 H   0  0  0  0  0  0  0  0  0  0  0  0
   -2.8775   26.2419  -27.0187 H   0  0  0  0  0  0  0  0  0  0  0  0
   -2.8346   23.1932  -26.7871 H   0  0  0  0  0  0  0  0  0  0  0  0
   -4.0173   24.2148  -27.6868 H   0  0  0  0  0  0  0  0  0  0  0  0
  1  2  1  0
  2  3  2  0
  3  4  1  0
  4  5  2  0
  5  6  1  0
  6  7  1  0
  7  8  2  0
  7  9  1  0
  9 10  2  0
 10 11  1  0
 11 12  2  0
 12 13  1  0
 13 14  1  0
 14 15  1  0
 14 16  1  0
 14 17  1  0
 13 18  2  0
  5 19  1  0
 19 20  2  0
 20 21  1  0
 21 22  2  0
 22 23  1  0
 23 24  1  0
 24 25  1  0
 25 26  1  0
 26 27  1  0
 27 28  1  0
 28 29  1  0
 23 30  2  0
 30 31  1  0
 31 32  1  0
 32 33  1  0
 33 34  1  0
 34 35  1  0
 35 36  1  0
 36 37  1  0
 31 38  2  0
 20  2  1  0
 38 21  1  0
 18  9  1  0
 29 24  1  0
 37 32  1  0
  1 39  1  0
  1 40  1  0
  1 41  1  0
  3 42  1  0
  4 43  1  0
 10 44  1  0
 11 45  1  0
 12 46  1  0
 18 47  1  0
 19 48  1  0
 22 49  1  0
 25 50  1  0
 25 51  1  0
 26 52  1  0
 26 53  1  0
 28 54  1  0
 28 55  1  0
 29 56  1  0
 29 57  1  0
 33 58  1  0
 33 59  1  0
 34 60  1  0
 34 61  1  0
 36 62  1  0
 36 63  1  0
 37 64  1  0
 37 65  1  0
M  CHG  1   6  -1
M  END
>  <UniqueID>  (42) 
39

>  <SMILES>  (42) 
Cc1ccc([N-]C(=O)c2cccc(C(F)(F)F)c2)cc1-c1cc(N2CCOCC2)nc(N2CCOCC2)n1

>  <Energy>  (42) 
88.83220439923777

>  <Genealogy>  (42) 
Cc1ccc([N-]C(=O)c2cccc(C(F)(F)F)c2)cc1-c1cc(N2CCOCC2)nc(N2CCOCC2)n1 (protonated)
Cc1ccc([N-]C(=O)c2cccc(C(F)(F)F)c2)cc1-c1cc(N2CCOCC2)nc(N2CCOCC2)n1 (3D coordinates assigned)
Cc1ccc([N-]C(=O)c2cccc(C(F)(F)F)c2)cc1-c1cc(N2CCOCC2)nc(N2CCOCC2)n1 (nonaromatic ring conformer: 88.83220439923777 kcal/mol)

>  <smiles>  (42) 
Cc1ccc(NC(=O)c2cccc(C(F)(F)F)c2)cc1-c1cc(N2CCOCC2)nc(N2CCOCC2)n1

>  <score_type>  (42) 
oracle

>  <origin>  (42) 
adgpu

>  <m_score__min__energy>  (42) 
-11.300000000000001

>  <m_primary>  (42) 
energy

$$$$
42:0
     RDKit          3D

 42 44  0  0  0  0  0  0  0  0999 V2000
   -5.7250   26.0320  -30.1140 C   0  0  0  0  0  0  0  0  0  0  0  0
   -5.9410   24.5760  -30.4030 C   0  0  0  0  0  0  0  0  0  0  0  0
   -7.1980   24.1210  -30.8270 C   0  0  0  0  0  0  0  0  0  0  0  0
   -7.3940   22.7700  -31.1490 C   0  0  0  0  0  0  0  0  0  0  0  0
   -8.7480   22.2760  -31.5630 C   0  0  0  0  0  0  0  0  0  0  0  0
   -6.3280   21.8690  -31.0200 C   0  0  0  0  0  0  0  0  0  0  0  0
   -5.0730   22.3100  -30.5790 C   0  0  0  0  0  0  0  0  0  0  0  0
   -3.9840   21.3910  -30.4330 N   0  0  0  0  0  0  0  0  0  0  0  0
   -2.8310   21.4090  -31.2800 C   0  0  0  0  0  0  0  0  0  0  0  0
   -2.5690   21.2220  -32.6320 C   0  0  0  0  0  0  0  0  0  0  0  0
   -3.3400   20.9160  -33.8060 N   0  0  0  0  0  0  0  0  0  0  0  0
   -3.6610   19.4770  -33.8720 C   0  0  1  0  0  0  0  0  0  0  0  0
   -2.5450   18.6490  -33.2230 C   0  0  0  0  0  0  0  0  0  0  0  0
   -4.9850   19.1810  -33.2100 C   0  0  0  0  0  0  0  0  0  0  0  0
   -5.1980   18.2060  -32.2400 C   0  0  0  0  0  0  0  0  0  0  0  0
   -6.5390   18.0880  -31.8580 C   0  0  0  0  0  0  0  0  0  0  0  0
   -7.3770   18.9620  -32.5340 C   0  0  0  0  0  0  0  0  0  0  0  0
   -9.1110   19.0840  -32.3260 Cl  0  0  0  0  0  0  0  0  0  0  0  0
   -6.4680   19.8780  -33.6090 S   0  0  0  0  0  0  0  0  0  0  0  0
   -1.2190   21.3820  -32.3880 C   0  0  0  0  0  0  0  0  0  0  0  0
   -0.1790   21.3600  -33.0970 O   0  0  0  0  0  0  0  0  0  0  0  0
   -1.4780   21.5560  -31.0450 C   0  0  0  0  0  0  0  0  0  0  0  0
   -0.7720   21.7600  -30.0230 O   0  0  0  0  0  0  0  0  0  0  0  0
   -4.8750   23.6690  -30.3050 C   0  0  0  0  0  0  0  0  0  0  0  0
   -5.7015   26.1903  -29.0257 H   0  0  0  0  0  0  0  0  0  0  0  0
   -4.7691   26.3549  -30.5522 H   0  0  0  0  0  0  0  0  0  0  0  0
   -6.5460   26.6185  -30.5522 H   0  0  0  0  0  0  0  0  0  0  0  0
   -8.0362   24.8287  -30.9076 H   0  0  0  0  0  0  0  0  0  0  0  0
   -9.3480   22.0571  -30.6674 H   0  0  0  0  0  0  0  0  0  0  0  0
   -9.2524   23.0480  -32.1626 H   0  0  0  0  0  0  0  0  0  0  0  0
   -8.6367   21.3605  -32.1626 H   0  0  0  0  0  0  0  0  0  0  0  0
   -6.4777   20.8076  -31.2668 H   0  0  0  0  0  0  0  0  0  0  0  0
   -4.0820   20.6000  -29.7580 H   0  0  0  0  0  0  0  0  0  0  0  0
   -2.7950   21.2040  -34.6520 H   0  0  0  0  0  0  0  0  0  0  0  0
   -4.2160   21.4820  -33.7830 H   0  0  0  0  0  0  0  0  0  0  0  0
   -3.7407   19.1972  -34.9328 H   0  0  0  0  0  0  0  0  0  0  0  0
   -2.6306   18.7125  -32.1282 H   0  0  0  0  0  0  0  0  0  0  0  0
   -2.6371   17.5990  -33.5377 H   0  0  0  0  0  0  0  0  0  0  0  0
   -1.5668   19.0416  -33.5377 H   0  0  0  0  0  0  0  0  0  0  0  0
   -4.3921   17.5892  -31.8157 H   0  0  0  0  0  0  0  0  0  0  0  0
   -6.8924   17.3747  -31.0989 H   0  0  0  0  0  0  0  0  0  0  0  0
   -3.8775   24.0276  -30.0111 H   0  0  0  0  0  0  0  0  0  0  0  0
  1  2  1  0
  2  3  2  0
  3  4  1  0
  4  5  1  0
  4  6  2  0
  6  7  1  0
  7  8  1  0
  8  9  1  0
  9 10  2  0
 10 11  1  0
 11 12  1  0
 12 13  1  0
 12 14  1  0
 14 15  2  0
 15 16  1  0
 16 17  2  0
 17 18  1  0
 17 19  1  0
 10 20  1  0
 20 21  2  0
 20 22  1  0
 22 23  2  0
  7 24  2  0
 24  2  1  0
 22  9  1  0
 19 14  1  0
  1 25  1  0
  1 26  1  0
  1 27  1  0
  3 28  1  0
  5 29  1  0
  5 30  1  0
  5 31  1  0
  6 32  1  0
  8 33  1  0
 11 34  1  0
 11 35  1  0
 12 36  1  6
 13 37  1  0
 13 38  1  0
 13 39  1  0
 15 40  1  0
 16 41  1  0
 24 42  1  0
M  CHG  1  11   1
M  END
>  <UniqueID>  (43) 
40

>  <SMILES>  (43) 
Cc1cc(C)cc(Nc2c([NH2+][C@@H](C)c3ccc(Cl)s3)c(=O)c2=O)c1

>  <Energy>  (43) 
58.555050348150566

>  <Genealogy>  (43) 
Cc1cc(C)cc(Nc2c([NH2+]C(C)c3ccc(Cl)s3)c(=O)c2=O)c1 (protonated)
Cc1cc(C)cc(Nc2c([NH2+][C@@H](C)c3ccc(Cl)s3)c(=O)c2=O)c1 (chirality)
Cc1cc(C)cc(Nc2c([NH2+][C@@H](C)c3ccc(Cl)s3)c(=O)c2=O)c1 (3D coordinates assigned)
Cc1cc(C)cc(Nc2c([NH2+][C@@H](C)c3ccc(Cl)s3)c(=O)c2=O)c1 (optimized conformer: 58.555050348150566 kcal/mol)

>  <smiles>  (43) 
Cc1cc(C)cc(Nc2c(NC(C)c3ccc(Cl)s3)c(=O)c2=O)c1

>  <score_type>  (43) 
oracle

>  <origin>  (43) 
adgpu

>  <m_score__min__energy>  (43) 
-8.4399999999999995

>  <m_primary>  (43) 
energy

$$$$
43:0
     RDKit          3D

 40 43  0  0  0  0  0  0  0  0999 V2000
   -1.5900   20.5620  -32.4500 O   0  0  0  0  0  0  0  0  0  0  0  0
   -2.0180   21.1050  -31.3920 C   0  0  0  0  0  0  0  0  0  0  0  0
   -1.2990   20.9390  -30.1960 C   0  0  0  0  0  0  0  0  0  0  0  0
   -0.1160   20.1760  -30.1260 C   0  0  0  0  0  0  0  0  0  0  0  0
    0.5640   20.0480  -28.9100 C   0  0  0  0  0  0  0  0  0  0  0  0
    0.0750   20.6750  -27.7620 C   0  0  0  0  0  0  0  0  0  0  0  0
   -1.0980   21.4330  -27.8230 C   0  0  0  0  0  0  0  0  0  0  0  0
   -1.7840   21.5650  -29.0350 C   0  0  0  0  0  0  0  0  0  0  0  0
   -2.9180   22.3000  -29.0950 N   0  0  0  0  0  0  0  0  0  0  0  0
   -3.6160   22.4490  -30.2490 C   0  0  0  0  0  0  0  0  0  0  0  0
   -4.8280   23.2910  -30.2060 C   0  0  0  0  0  0  0  0  0  0  0  0
   -6.0880   22.6990  -30.0220 C   0  0  0  0  0  0  0  0  0  0  0  0
   -7.2370   23.4950  -29.9800 C   0  0  0  0  0  0  0  0  0  0  0  0
   -7.1350   24.8820  -30.1090 C   0  0  0  0  0  0  0  0  0  0  0  0
   -5.8810   25.4790  -30.2740 C   0  0  0  0  0  0  0  0  0  0  0  0
   -4.7270   24.6890  -30.3180 C   0  0  0  0  0  0  0  0  0  0  0  0
   -3.4870   25.2970  -30.4880 O   0  0  0  0  0  0  0  0  0  0  0  0
   -3.1720   21.8550  -31.4140 N   0  0  0  0  0  0  0  0  0  0  0  0
   -3.8980   22.0650  -32.6880 C   0  0  0  0  0  0  0  0  0  0  0  0
   -4.8750   20.9460  -32.9450 C   0  0  0  0  0  0  0  0  0  0  0  0
   -6.2490   21.1430  -32.7270 C   0  0  0  0  0  0  0  0  0  0  0  0
   -7.1540   20.1000  -32.9500 C   0  0  0  0  0  0  0  0  0  0  0  0
   -6.6960   18.8580  -33.3990 C   0  0  0  0  0  0  0  0  0  0  0  0
   -5.3330   18.6590  -33.6300 C   0  0  0  0  0  0  0  0  0  0  0  0
   -4.4250   19.6990  -33.4110 C   0  0  0  0  0  0  0  0  0  0  0  0
    0.2729   19.6808  -31.0280 H   0  0  0  0  0  0  0  0  0  0  0  0
    1.4868   19.4516  -28.8581 H   0  0  0  0  0  0  0  0  0  0  0  0
    0.6136   20.5723  -26.8084 H   0  0  0  0  0  0  0  0  0  0  0  0
   -1.4818   21.9259  -26.9176 H   0  0  0  0  0  0  0  0  0  0  0  0
   -6.1713   21.6078  -29.9108 H   0  0  0  0  0  0  0  0  0  0  0  0
   -8.2236   23.0276  -29.8450 H   0  0  0  0  0  0  0  0  0  0  0  0
   -8.0412   25.5050  -30.0808 H   0  0  0  0  0  0  0  0  0  0  0  0
   -5.8018   26.5720  -30.3694 H   0  0  0  0  0  0  0  0  0  0  0  0
   -4.4470   23.0168  -32.6363 H   0  0  0  0  0  0  0  0  0  0  0  0
   -3.1659   22.0859  -33.5087 H   0  0  0  0  0  0  0  0  0  0  0  0
   -6.6142   22.1208  -32.3798 H   0  0  0  0  0  0  0  0  0  0  0  0
   -8.2280   20.2574  -32.7717 H   0  0  0  0  0  0  0  0  0  0  0  0
   -7.4087   18.0378  -33.5703 H   0  0  0  0  0  0  0  0  0  0  0  0
   -4.9733   17.6819  -33.9850 H   0  0  0  0  0  0  0  0  0  0  0  0
   -3.3538   19.5406  -33.6043 H   0  0  0  0  0  0  0  0  0  0  0  0
  1  2  2  0
  2  3  1  0
  3  4  2  0
  4  5  1  0
  5  6  2  0
  6  7  1  0
  7  8  2  0
  8  9  1  0
  9 10  2  0
 10 11  1  0
 11 12  2  0
 12 13  1  0
 13 14  2  0
 14 15  1  0
 15 16  2  0
 16 17  1  0
 10 18  1  0
 18 19  1  0
 19 20  1  0
 20 21  2  0
 21 22  1  0
 22 23  2  0
 23 24  1  0
 24 25  2  0
 18  2  1  0
 25 20  1  0
  8  3  1  0
 16 11  1  0
  4 26  1  0
  5 27  1  0
  6 28  1  0
  7 29  1  0
 12 30  1  0
 13 31  1  0
 14 32  1  0
 15 33  1  0
 19 34  1  0
 19 35  1  0
 21 36  1  0
 22 37  1  0
 23 38  1  0
 24 39  1  0
 25 40  1  0
M  CHG  1  17  -1
M  END
>  <UniqueID>  (44) 
41

>  <SMILES>  (44) 
O=c1c2ccccc2nc(-c2ccccc2[O-])n1Cc1ccccc1

>  <Energy>  (44) 
59.34430923116991

>  <Genealogy>  (44) 
O=c1c2ccccc2nc(-c2ccccc2[O-])n1Cc1ccccc1 (protonated)
O=c1c2ccccc2nc(-c2ccccc2[O-])n1Cc1ccccc1 (3D coordinates assigned)
O=c1c2ccccc2nc(-c2ccccc2[O-])n1Cc1ccccc1 (optimized conformer: 59.34430923116991 kcal/mol)

>  <smiles>  (44) 
O=c1c2ccccc2nc(-c2ccccc2O)n1Cc1ccccc1

>  <score_type>  (44) 
oracle

>  <origin>  (44) 
adgpu

>  <m_score__min__energy>  (44) 
-11.32

>  <m_primary>  (44) 
energy

$$$$
44:0
     RDKit          3D

 51 54  0  0  0  0  0  0  0  0999 V2000
   -0.9240   19.2890  -33.7990 C   0  0  0  0  0  0  0  0  0  0  0  0
   -2.3130   18.7220  -33.8900 C   0  0  0  0  0  0  0  0  0  0  0  0
   -2.6670   17.5160  -34.4880 C   0  0  0  0  0  0  0  0  0  0  0  0
   -1.8030   16.5480  -35.1870 C   0  0  0  0  0  0  0  0  0  0  0  0
   -0.5730   16.5270  -34.9130 O   0  0  0  0  0  0  0  0  0  0  0  0
   -2.3440   15.6560  -36.1770 N   0  0  0  0  0  0  0  0  0  0  0  0
   -1.5770   14.6540  -36.8660 C   0  0  0  0  0  0  0  0  0  0  0  0
   -0.7920   13.7200  -36.1660 C   0  0  0  0  0  0  0  0  0  0  0  0
   -0.0350   12.7730  -36.8640 C   0  0  0  0  0  0  0  0  0  0  0  0
   -0.0430   12.7600  -38.2610 C   0  0  0  0  0  0  0  0  0  0  0  0
   -0.8000   13.7010  -38.9630 C   0  0  0  0  0  0  0  0  0  0  0  0
   -1.5570   14.6490  -38.2680 C   0  0  0  0  0  0  0  0  0  0  0  0
   -4.0280   17.3650  -34.3090 C   0  0  0  0  0  0  0  0  0  0  0  0
   -4.4550   18.4620  -33.5830 C   0  0  0  0  0  0  0  0  0  0  0  0
   -5.8530   18.6830  -33.1420 C   0  0  0  0  0  0  0  0  0  0  0  0
   -6.5070   17.7140  -32.3640 C   0  0  0  0  0  0  0  0  0  0  0  0
   -7.8250   17.9160  -31.9430 C   0  0  0  0  0  0  0  0  0  0  0  0
   -8.5040   19.0830  -32.3050 C   0  0  0  0  0  0  0  0  0  0  0  0
   -9.7830   19.2780  -31.8980 F   0  0  0  0  0  0  0  0  0  0  0  0
   -7.8670   20.0450  -33.0930 C   0  0  0  0  0  0  0  0  0  0  0  0
   -6.5500   19.8460  -33.5150 C   0  0  0  0  0  0  0  0  0  0  0  0
   -3.4100   19.2850  -33.3280 N   0  0  0  0  0  0  0  0  0  0  0  0
   -3.4310   20.4550  -32.4940 C   0  0  0  0  0  0  0  0  0  0  0  0
   -2.6940   20.4890  -31.3010 C   0  0  0  0  0  0  0  0  0  0  0  0
   -2.6920   21.6400  -30.5080 C   0  0  0  0  0  0  0  0  0  0  0  0
   -3.4170   22.7720  -30.9060 C   0  0  0  0  0  0  0  0  0  0  0  0
   -3.4210   24.2170  -29.9000 S   0  0  0  0  0  0  0  0  0  0  0  0
   -4.2230   25.5000  -30.7370 N   0  0  0  0  0  0  0  0  0  0  0  0
   -4.1350   23.9360  -28.6080 O   0  0  0  0  0  0  0  0  0  0  0  0
   -2.0090   24.6280  -29.5930 O   0  0  0  0  0  0  0  0  0  0  0  0
   -4.1550   22.7390  -32.0980 C   0  0  0  0  0  0  0  0  0  0  0  0
   -4.1560   21.5880  -32.8900 C   0  0  0  0  0  0  0  0  0  0  0  0
   -0.6433   19.4036  -32.7416 H   0  0  0  0  0  0  0  0  0  0  0  0
   -0.2166   18.6077  -34.2944 H   0  0  0  0  0  0  0  0  0  0  0  0
   -0.8955   20.2707  -34.2944 H   0  0  0  0  0  0  0  0  0  0  0  0
   -3.3690   15.6900  -36.3760 H   0  0  0  0  0  0  0  0  0  0  0  0
   -0.7733   13.7343  -35.0663 H   0  0  0  0  0  0  0  0  0  0  0  0
    0.5678   12.0370  -36.3117 H   0  0  0  0  0  0  0  0  0  0  0  0
    0.5464   12.0093  -38.8078 H   0  0  0  0  0  0  0  0  0  0  0  0
   -0.8005   13.6961  -40.0630 H   0  0  0  0  0  0  0  0  0  0  0  0
   -2.1411   15.3963  -38.8251 H   0  0  0  0  0  0  0  0  0  0  0  0
   -4.6508   16.5345  -34.6728 H   0  0  0  0  0  0  0  0  0  0  0  0
   -5.9792   16.7904  -32.0840 H   0  0  0  0  0  0  0  0  0  0  0  0
   -8.3278   17.1562  -31.3266 H   0  0  0  0  0  0  0  0  0  0  0  0
   -8.4034   20.9609  -33.3817 H   0  0  0  0  0  0  0  0  0  0  0  0
   -6.0559   20.6028  -34.1421 H   0  0  0  0  0  0  0  0  0  0  0  0
   -2.1157   19.6070  -30.9885 H   0  0  0  0  0  0  0  0  0  0  0  0
   -2.1198   21.6577  -29.5687 H   0  0  0  0  0  0  0  0  0  0  0  0
   -3.4850   26.0480  -31.2330 H   0  0  0  0  0  0  0  0  0  0  0  0
   -4.7340   23.6207  -32.4099 H   0  0  0  0  0  0  0  0  0  0  0  0
   -4.7285   21.5705  -33.8291 H   0  0  0  0  0  0  0  0  0  0  0  0
  1  2  1  0
  2  3  2  0
  3  4  1  0
  4  5  2  0
  4  6  1  0
  6  7  1  0
  7  8  2  0
  8  9  1  0
  9 10  2  0
 10 11  1  0
 11 12  2  0
  3 13  1  0
 13 14  2  0
 14 15  1  0
 15 16  2  0
 16 17  1  0
 17 18  2  0
 18 19  1  0
 18 20  1  0
 20 21  2  0
 14 22  1  0
 22 23  1  0
 23 24  2  0
 24 25  1  0
 25 26  2  0
 26 27  1  0
 27 28  1  0
 27 29  2  0
 27 30  2  0
 26 31  1  0
 31 32  2  0
 22  2  1  0
 32 23  1  0
 12  7  1  0
 21 15  1  0
  1 33  1  0
  1 34  1  0
  1 35  1  0
  6 36  1  0
  8 37  1  0
  9 38  1  0
 10 39  1  0
 11 40  1  0
 12 41  1  0
 13 42  1  0
 16 43  1  0
 17 44  1  0
 20 45  1  0
 21 46  1  0
 24 47  1  0
 25 48  1  0
 28 49  1  0
 31 50  1  0
 32 51  1  0
M  CHG  1  28  -1
M  END
>  <UniqueID>  (45) 
42

>  <SMILES>  (45) 
Cc1c(C(=O)Nc2ccccc2)cc(-c2ccc(F)cc2)n1-c1ccc(S([NH-])(=O)=O)cc1

>  <Energy>  (45) 
99.52202472352275

>  <Genealogy>  (45) 
Cc1c(C(=O)Nc2ccccc2)cc(-c2ccc(F)cc2)n1-c1ccc(S([NH-])(=O)=O)cc1 (protonated)
Cc1c(C(=O)Nc2ccccc2)cc(-c2ccc(F)cc2)n1-c1ccc(S([NH-])(=O)=O)cc1 (3D coordinates assigned)
Cc1c(C(=O)Nc2ccccc2)cc(-c2ccc(F)cc2)n1-c1ccc(S([NH-])(=O)=O)cc1 (optimized conformer: 99.52202472352275 kcal/mol)

>  <smiles>  (45) 
Cc1c(C(=O)Nc2ccccc2)cc(-c2ccc(F)cc2)n1-c1ccc(S(N)(=O)=O)cc1

>  <score_type>  (45) 
oracle

>  <origin>  (45) 
adgpu

>  <m_score__min__energy>  (45) 
-10.51

>  <m_primary>  (45) 
energy

$$$$
45:0
     RDKit          3D

 56 58  0  0  0  0  0  0  0  0999 V2000
   -0.4570   22.2180  -26.5660 C   0  0  0  0  0  0  0  0  0  0  0  0
   -1.2910   22.9430  -27.5890 C   0  0  0  0  0  0  0  0  0  0  0  0
   -1.2700   24.3500  -27.5770 C   0  0  0  0  0  0  0  0  0  0  0  0
   -1.9840   25.0840  -28.5210 C   0  0  0  0  0  0  0  0  0  0  0  0
   -2.7290   24.4270  -29.5100 C   0  0  0  0  0  0  0  0  0  0  0  0
   -3.4970   25.1560  -30.4790 N   0  0  0  0  0  0  0  0  0  0  0  0
   -4.9240   25.1250  -30.6010 C   0  0  0  0  0  0  0  0  0  0  0  0
   -5.5660   26.1930  -30.4290 O   0  0  0  0  0  0  0  0  0  0  0  0
   -5.6580   23.8670  -30.8790 C   0  0  0  0  0  0  0  0  0  0  0  0
   -7.0360   23.7650  -30.6180 C   0  0  0  0  0  0  0  0  0  0  0  0
   -7.7170   22.5740  -30.8760 C   0  0  0  0  0  0  0  0  0  0  0  0
   -7.0350   21.4750  -31.4020 C   0  0  0  0  0  0  0  0  0  0  0  0
   -5.6650   21.5640  -31.6820 C   0  0  0  0  0  0  0  0  0  0  0  0
   -4.7980   20.1750  -32.3410 S   0  0  0  0  0  0  0  0  0  0  0  0
   -5.1800   19.9970  -33.7840 O   0  0  0  0  0  0  0  0  0  0  0  0
   -5.2070   18.9340  -31.5950 O   0  0  0  0  0  0  0  0  0  0  0  0
   -3.0670   20.3750  -32.2220 N   0  0  0  0  0  0  0  0  0  0  0  0
   -2.6200   21.5340  -33.0200 C   0  0  0  0  0  0  0  0  0  0  0  0
   -1.0870   21.5370  -33.2000 C   0  0  0  0  0  0  0  0  0  0  0  0
   -0.4660   20.6710  -32.2720 O   0  0  0  0  0  0  0  0  0  0  0  0
   -0.8400   19.3290  -32.5390 C   0  0  0  0  0  0  0  0  0  0  0  0
   -2.3710   19.1500  -32.6510 C   0  0  0  0  0  0  0  0  0  0  0  0
   -4.9830   22.7630  -31.4290 C   0  0  0  0  0  0  0  0  0  0  0  0
   -2.7620   23.0310  -29.5290 C   0  0  0  0  0  0  0  0  0  0  0  0
   -2.0410   22.2720  -28.5910 C   0  0  0  0  0  0  0  0  0  0  0  0
   -2.1120   20.5000  -28.7470 S   0  0  0  0  0  0  0  0  0  0  0  0
   -3.4920   20.1230  -29.2060 O   0  0  0  0  0  0  0  0  0  0  0  0
   -1.1460   20.0090  -29.7890 O   0  0  0  0  0  0  0  0  0  0  0  0
   -1.7850   19.6940  -27.2290 N   0  0  0  0  0  0  0  0  0  0  0  0
   -3.0280   19.1680  -26.6570 C   0  0  0  0  0  0  0  0  0  0  0  0
   -0.8210   18.6070  -27.4340 C   0  0  0  0  0  0  0  0  0  0  0  0
   -0.7856   22.5037  -25.5559 H   0  0  0  0  0  0  0  0  0  0  0  0
   -0.5773   21.1325  -26.6974 H   0  0  0  0  0  0  0  0  0  0  0  0
    0.6012   22.4882  -26.6974 H   0  0  0  0  0  0  0  0  0  0  0  0
   -0.6816   24.8773  -26.8116 H   0  0  0  0  0  0  0  0  0  0  0  0
   -1.9632   26.1834  -28.4904 H   0  0  0  0  0  0  0  0  0  0  0  0
   -7.5804   24.6285  -30.2082 H   0  0  0  0  0  0  0  0  0  0  0  0
   -8.7940   22.5011  -30.6643 H   0  0  0  0  0  0  0  0  0  0  0  0
   -7.5748   20.5366  -31.5971 H   0  0  0  0  0  0  0  0  0  0  0  0
   -2.8460   20.5530  -31.2130 H   0  0  0  0  0  0  0  0  0  0  0  0
   -3.0965   21.4915  -34.0105 H   0  0  0  0  0  0  0  0  0  0  0  0
   -2.9076   22.4524  -32.4873 H   0  0  0  0  0  0  0  0  0  0  0  0
   -0.8440   21.2049  -34.2201 H   0  0  0  0  0  0  0  0  0  0  0  0
   -0.7162   22.5583  -33.0284 H   0  0  0  0  0  0  0  0  0  0  0  0
   -0.3784   19.0166  -33.4873 H   0  0  0  0  0  0  0  0  0  0  0  0
   -0.4931   18.7125  -31.6966 H   0  0  0  0  0  0  0  0  0  0  0  0
   -2.6343   18.9315  -33.6964 H   0  0  0  0  0  0  0  0  0  0  0  0
   -2.6803   18.3190  -32.0000 H   0  0  0  0  0  0  0  0  0  0  0  0
   -3.9109   22.8404  -31.6628 H   0  0  0  0  0  0  0  0  0  0  0  0
   -3.3635   22.5157  -30.2923 H   0  0  0  0  0  0  0  0  0  0  0  0
   -2.9662   19.1941  -25.5590 H   0  0  0  0  0  0  0  0  0  0  0  0
   -3.8753   19.7847  -26.9914 H   0  0  0  0  0  0  0  0  0  0  0  0
   -3.1752   18.1304  -26.9914 H   0  0  0  0  0  0  0  0  0  0  0  0
   -0.4840   18.2270  -26.4583 H   0  0  0  0  0  0  0  0  0  0  0  0
   -1.3001   17.7936  -27.9987 H   0  0  0  0  0  0  0  0  0  0  0  0
    0.0438   18.9855  -27.9987 H   0  0  0  0  0  0  0  0  0  0  0  0
  1  2  1  0
  2  3  2  0
  3  4  1  0
  4  5  2  0
  5  6  1  0
  6  7  1  0
  7  8  2  0
  7  9  1  0
  9 10  2  0
 10 11  1  0
 11 12  2  0
 12 13  1  0
 13 14  1  0
 14 15  2  0
 14 16  2  0
 14 17  1  0
 17 18  1  0
 18 19  1  0
 19 20  1  0
 20 21  1  0
 21 22  1  0
 13 23  2  0
  5 24  1  0
 24 25  2  0
 25 26  1  0
 26 27  2  0
 26 28  2  0
 26 29  1  0
 29 30  1  0
 29 31  1  0
 25  2  1  0
 23  9  1  0
 22 17  1  0
  1 32  1  0
  1 33  1  0
  1 34  1  0
  3 35  1  0
  4 36  1  0
 10 37  1  0
 11 38  1  0
 12 39  1  0
 17 40  1  0
 18 41  1  0
 18 42  1  0
 19 43  1  0
 19 44  1  0
 21 45  1  0
 21 46  1  0
 22 47  1  0
 22 48  1  0
 23 49  1  0
 24 50  1  0
 30 51  1  0
 30 52  1  0
 30 53  1  0
 31 54  1  0
 31 55  1  0
 31 56  1  0
M  CHG  2   6  -1  17   1
M  END
>  <UniqueID>  (46) 
43

>  <SMILES>  (46) 
Cc1ccc([N-]C(=O)c2cccc(S(=O)(=O)[NH+]3CCOCC3)c2)cc1S(=O)(=O)N(C)C

>  <Energy>  (46) 
71.39901888670467

>  <Genealogy>  (46) 
Cc1ccc([N-]C(=O)c2cccc(S(=O)(=O)[NH+]3CCOCC3)c2)cc1S(=O)(=O)N(C)C (protonated)
Cc1ccc([N-]C(=O)c2cccc(S(=O)(=O)[NH+]3CCOCC3)c2)cc1S(=O)(=O)N(C)C (3D coordinates assigned)
Cc1ccc([N-]C(=O)c2cccc(S(=O)(=O)[NH+]3CCOCC3)c2)cc1S(=O)(=O)N(C)C (nonaromatic ring conformer: 71.39901888670467 kcal/mol)

>  <smiles>  (46) 
Cc1ccc(NC(=O)c2cccc(S(=O)(=O)N3CCOCC3)c2)cc1S(=O)(=O)N(C)C

>  <score_type>  (46) 
oracle

>  <origin>  (46) 
adgpu

>  <m_score__min__energy>  (46) 
-11.1

>  <m_primary>  (46) 
energy

$$$$
46:0
     RDKit          3D

 47 49  0  0  0  0  0  0  0  0999 V2000
    2.1270   18.9070  -31.3790 C   0  0  0  0  0  0  0  0  0  0  0  0
    1.7260   19.3960  -32.6560 O   0  0  0  0  0  0  0  0  0  0  0  0
    0.4230   19.8050  -32.9720 C   0  0  0  0  0  0  0  0  0  0  0  0
    0.0830   21.1560  -33.1690 C   0  0  0  0  0  0  0  0  0  0  0  0
   -1.2350   21.5160  -33.4670 C   0  0  0  0  0  0  0  0  0  0  0  0
   -2.2350   20.5350  -33.5630 C   0  0  0  0  0  0  0  0  0  0  0  0
   -3.6050   20.8610  -33.8410 N   0  0  0  0  0  0  0  0  0  0  0  0
   -4.9510   20.6000  -32.7750 S   0  0  0  0  0  0  0  0  0  0  0  0
   -4.5620   19.5450  -31.7780 O   0  0  0  0  0  0  0  0  0  0  0  0
   -6.1530   20.1060  -33.5300 O   0  0  0  0  0  0  0  0  0  0  0  0
   -5.3270   22.1000  -31.9260 C   0  0  0  0  0  0  0  0  0  0  0  0
   -6.6410   22.3960  -31.5420 C   0  0  0  0  0  0  0  0  0  0  0  0
   -6.9190   23.5680  -30.8330 C   0  0  0  0  0  0  0  0  0  0  0  0
   -5.8840   24.4470  -30.4740 C   0  0  0  0  0  0  0  0  0  0  0  0
   -6.1940   25.6810  -29.6730 C   0  0  0  0  0  0  0  0  0  0  0  0
   -4.5550   24.1330  -30.8200 C   0  0  0  0  0  0  0  0  0  0  0  0
   -3.4860   24.9990  -30.4000 N   0  0  0  0  0  0  0  0  0  0  0  0
   -2.7820   24.9200  -29.1530 C   0  0  0  0  0  0  0  0  0  0  0  0
   -1.7330   25.5940  -28.9710 O   0  0  0  0  0  0  0  0  0  0  0  0
   -3.3240   24.0600  -28.0850 C   0  0  0  0  0  0  0  0  0  0  0  0
   -2.9850   22.7820  -27.8480 C   0  0  0  0  0  0  0  0  0  0  0  0
   -2.1590   21.9260  -28.7230 C   0  0  0  0  0  0  0  0  0  0  0  0
   -2.6260   20.8230  -29.4080 C   0  0  0  0  0  0  0  0  0  0  0  0
   -1.5500   20.3440  -30.1240 C   0  0  0  0  0  0  0  0  0  0  0  0
   -0.4960   21.1880  -29.8400 C   0  0  0  0  0  0  0  0  0  0  0  0
   -0.8920   22.1240  -29.0090 O   0  0  0  0  0  0  0  0  0  0  0  0
   -4.2960   22.9840  -31.5870 C   0  0  0  0  0  0  0  0  0  0  0  0
   -1.8880   19.1890  -33.3980 C   0  0  0  0  0  0  0  0  0  0  0  0
   -0.5710   18.8290  -33.0950 C   0  0  0  0  0  0  0  0  0  0  0  0
    1.6409   19.4998  -30.5902 H   0  0  0  0  0  0  0  0  0  0  0  0
    1.8303   17.8523  -31.2805 H   0  0  0  0  0  0  0  0  0  0  0  0
    3.2193   18.9914  -31.2805 H   0  0  0  0  0  0  0  0  0  0  0  0
    0.8577   21.9328  -33.0882 H   0  0  0  0  0  0  0  0  0  0  0  0
   -1.4899   22.5740  -33.6272 H   0  0  0  0  0  0  0  0  0  0  0  0
   -7.4566   21.7041  -31.7991 H   0  0  0  0  0  0  0  0  0  0  0  0
   -7.9566   23.8038  -30.5540 H   0  0  0  0  0  0  0  0  0  0  0  0
   -6.1350   25.4461  -28.6000 H   0  0  0  0  0  0  0  0  0  0  0  0
   -5.4658   26.4687  -29.9165 H   0  0  0  0  0  0  0  0  0  0  0  0
   -7.2080   26.0311  -29.9165 H   0  0  0  0  0  0  0  0  0  0  0  0
   -4.0771   24.5072  -27.4195 H   0  0  0  0  0  0  0  0  0  0  0  0
   -3.3571   22.3315  -26.9160 H   0  0  0  0  0  0  0  0  0  0  0  0
   -3.6458   20.4112  -29.3870 H   0  0  0  0  0  0  0  0  0  0  0  0
   -1.5347   19.4667  -30.7874 H   0  0  0  0  0  0  0  0  0  0  0  0
    0.5211   21.0913  -30.2477 H   0  0  0  0  0  0  0  0  0  0  0  0
   -3.2700   22.7768  -31.9252 H   0  0  0  0  0  0  0  0  0  0  0  0
   -2.6562   18.4093  -33.5074 H   0  0  0  0  0  0  0  0  0  0  0  0
   -0.3147   17.7688  -32.9522 H   0  0  0  0  0  0  0  0  0  0  0  0
  1  2  1  0
  2  3  1  0
  3  4  2  0
  4  5  1  0
  5  6  2  0
  6  7  1  0
  7  8  1  0
  8  9  2  0
  8 10  2  0
  8 11  1  0
 11 12  2  0
 12 13  1  0
 13 14  2  0
 14 15  1  0
 14 16  1  0
 16 17  1  0
 17 18  1  0
 18 19  2  0
 18 20  1  0
 20 21  2  3
 21 22  1  0
 22 23  2  0
 23 24  1  0
 24 25  2  0
 25 26  1  0
 16 27  2  0
  6 28  1  0
 28 29  2  0
 29  3  1  0
 27 11  1  0
 26 22  1  0
  1 30  1  0
  1 31  1  0
  1 32  1  0
  4 33  1  0
  5 34  1  0
 12 35  1  0
 13 36  1  0
 15 37  1  0
 15 38  1  0
 15 39  1  0
 20 40  1  0
 21 41  1  0
 23 42  1  0
 24 43  1  0
 25 44  1  0
 27 45  1  0
 28 46  1  0
 29 47  1  0
M  CHG  2   7  -1  17  -1
M  END
>  <UniqueID>  (47) 
44

>  <SMILES>  (47) 
COc1ccc([N-]S(=O)(=O)c2ccc(C)c([N-]C(=O)C=Cc3ccco3)c2)cc1

>  <Energy>  (47) 
84.72272033658261

>  <Genealogy>  (47) 
COc1ccc([N-]S(=O)(=O)c2ccc(C)c([N-]C(=O)C=Cc3ccco3)c2)cc1 (protonated)
COc1ccc([N-]S(=O)(=O)c2ccc(C)c([N-]C(=O)C=Cc3ccco3)c2)cc1 (3D coordinates assigned)
COc1ccc([N-]S(=O)(=O)c2ccc(C)c([N-]C(=O)C=Cc3ccco3)c2)cc1 (optimized conformer: 84.72272033658261 kcal/mol)

>  <smiles>  (47) 
COc1ccc(NS(=O)(=O)c2ccc(C)c(NC(=O)C=Cc3ccco3)c2)cc1

>  <score_type>  (47) 
oracle

>  <origin>  (47) 
adgpu

>  <m_score__min__energy>  (47) 
-10.44

>  <m_primary>  (47) 
energy

$$$$
47:0
     RDKit          3D

 28 30  0  0  0  0  0  0  0  0999 V2000
   -4.8300   15.8650  -32.4730 H   0  0  0  0  0  0  0  0  0  0  0  0
   -5.3620   15.3950  -33.2390 N   0  0  0  0  0  0  0  0  0  0  0  0
   -6.5200   16.0030  -33.8080 C   0  0  0  0  0  0  0  0  0  0  0  0
   -7.2420   15.3420  -34.5990 O   0  0  0  0  0  0  0  0  0  0  0  0
   -6.9430   17.3140  -33.4040 N   0  0  0  0  0  0  0  0  0  0  0  0
   -6.2250   18.3730  -33.1220 C   0  0  0  0  0  0  0  0  0  0  0  0
   -4.8380   18.3800  -33.3870 C   0  0  0  0  0  0  0  0  0  0  0  0
   -4.4567   17.4723  -33.8777 H   0  0  0  0  0  0  0  0  0  0  0  0
   -3.8740   19.3540  -33.1260 C   0  0  0  0  0  0  0  0  0  0  0  0
   -2.8480   19.0922  -33.4240 H   0  0  0  0  0  0  0  0  0  0  0  0
   -4.0220   20.6050  -32.5450 C   0  0  0  0  0  0  0  0  0  0  0  0
   -3.1024   21.1891  -32.3930 H   0  0  0  0  0  0  0  0  0  0  0  0
   -5.2070   21.1960  -32.1360 C   0  0  0  0  0  0  0  0  0  0  0  0
   -5.3160   22.4700  -31.5930 C   0  0  0  0  0  0  0  0  0  0  0  0
   -4.3540   23.4460  -31.3100 C   0  0  0  0  0  0  0  0  0  0  0  0
   -3.2885   23.2685  -31.5180 H   0  0  0  0  0  0  0  0  0  0  0  0
   -4.7910   24.6620  -30.7510 C   0  0  0  0  0  0  0  0  0  0  0  0
   -3.8660   25.6570  -30.4550 O   0  0  0  0  0  0  0  0  0  0  0  0
   -6.1610   24.8770  -30.4910 C   0  0  0  0  0  0  0  0  0  0  0  0
   -6.4916   25.8312  -30.0549 H   0  0  0  0  0  0  0  0  0  0  0  0
   -7.1060   23.8790  -30.7860 C   0  0  0  0  0  0  0  0  0  0  0  0
   -8.1764   24.0353  -30.5867 H   0  0  0  0  0  0  0  0  0  0  0  0
   -6.6450   22.6850  -31.3390 C   0  0  0  0  0  0  0  0  0  0  0  0
   -7.3780   21.6200  -31.6890 N   0  0  0  0  0  0  0  0  0  0  0  0
   -8.4140   21.5240  -31.5950 H   0  0  0  0  0  0  0  0  0  0  0  0
   -6.5100   20.6970  -32.1790 C   0  0  0  0  0  0  0  0  0  0  0  0
   -6.9590   19.4540  -32.6140 C   0  0  0  0  0  0  0  0  0  0  0  0
   -8.0459   19.2969  -32.5501 H   0  0  0  0  0  0  0  0  0  0  0  0
  1  2  1  0
  2  3  1  0
  3  4  2  0
  3  5  1  0
  5  6  2  0
  6  7  1  0
  7  8  1  0
  7  9  2  0
  9 10  1  0
  9 11  1  0
 11 12  1  0
 11 13  2  0
 13 14  1  0
 14 15  2  0
 15 16  1  0
 15 17  1  0
 17 18  1  0
 17 19  2  0
 19 20  1  0
 19 21  1  0
 21 22  1  0
 21 23  2  0
 23 24  1  0
 24 25  1  0
 24 26  1  0
 26 27  2  0
 27 28  1  0
 27  6  1  0
 26 13  1  0
 23 14  1  0
M  CHG  2   2  -1  18  -1
M  END
>  <UniqueID>  (48) 
45

>  <SMILES>  (48) 
[NH-]C(=O)/N=c1\cccc2c(c1)[nH]c1ccc([O-])cc12

>  <Energy>  (48) 
88.99603276602257

>  <Genealogy>  (48) 
[NH-]C(=O)N=c1cccc2c(c1)[nH]c1ccc([O-])cc12 (protonated)
[NH-]C(=O)/N=c1\cccc2c(c1)[nH]c1ccc([O-])cc12 (cis-trans isomerization)
[NH-]C(=O)/N=c1\cccc2c(c1)[nH]c1ccc([O-])cc12 (3D coordinates assigned)
[NH-]C(=O)/N=c1\cccc2c(c1)[nH]c1ccc([O-])cc12 (optimized conformer: 88.99603276602257 kcal/mol)

>  <smiles>  (48) 
NC(=O)N=c1cccc2c(c1)[nH]c1ccc(O)cc12

>  <score_type>  (48) 
oracle

>  <origin>  (48) 
adgpu

>  <m_score__min__energy>  (48) 
-9.9000000000000004

>  <m_primary>  (48) 
energy

$$$$
48:0
     RDKit          3D

 49 52  0  0  0  0  0  0  0  0999 V2000
    0.0700   20.0020  -28.7780 C   0  0  0  0  0  0  0  0  0  0  0  0
   -1.0190   20.9410  -29.2270 C   0  0  0  0  0  0  0  0  0  0  0  0
   -1.6630   20.6930  -30.4470 C   0  0  0  0  0  0  0  0  0  0  0  0
   -2.7240   21.5000  -30.8880 C   0  0  0  0  0  0  0  0  0  0  0  0
   -3.4100   21.1700  -32.1080 N   0  0  0  0  0  0  0  0  0  0  0  0
   -3.2540   19.6220  -32.8770 S   0  0  0  0  0  0  0  0  0  0  0  0
   -2.2110   18.8220  -32.1490 O   0  0  0  0  0  0  0  0  0  0  0  0
   -2.8160   19.8150  -34.3020 O   0  0  0  0  0  0  0  0  0  0  0  0
   -4.8030   18.7630  -32.8780 C   0  0  0  0  0  0  0  0  0  0  0  0
   -4.8260   17.3720  -33.0710 C   0  0  0  0  0  0  0  0  0  0  0  0
   -6.0320   16.6680  -33.0110 C   0  0  0  0  0  0  0  0  0  0  0  0
   -7.2280   17.3390  -32.7560 C   0  0  0  0  0  0  0  0  0  0  0  0
   -7.2260   18.7260  -32.5650 C   0  0  0  0  0  0  0  0  0  0  0  0
   -8.4130   19.4210  -32.2990 C   0  0  0  0  0  0  0  0  0  0  0  0
   -8.3820   20.8030  -32.1070 C   0  0  0  0  0  0  0  0  0  0  0  0
   -7.1650   21.4800  -32.1880 C   0  0  0  0  0  0  0  0  0  0  0  0
   -6.0190   20.7960  -32.4460 N   0  0  0  0  0  0  0  0  0  0  0  0
   -6.0100   19.4460  -32.6320 C   0  0  0  0  0  0  0  0  0  0  0  0
   -3.1080   22.6180  -30.1180 C   0  0  0  0  0  0  0  0  0  0  0  0
   -4.4240   23.6860  -30.6270 S   0  0  0  0  0  0  0  0  0  0  0  0
   -3.8750   25.3250  -30.5950 N   0  0  0  0  0  0  0  0  0  0  0  0
   -5.5990   23.5440  -29.6990 O   0  0  0  0  0  0  0  0  0  0  0  0
   -4.8690   23.3280  -32.0170 O   0  0  0  0  0  0  0  0  0  0  0  0
   -2.4390   22.8920  -28.9180 C   0  0  0  0  0  0  0  0  0  0  0  0
   -1.3960   22.0700  -28.4640 C   0  0  0  0  0  0  0  0  0  0  0  0
   -0.7270   22.4140  -27.1890 C   0  0  0  0  0  0  0  0  0  0  0  0
    0.2830   23.3890  -27.1540 C   0  0  0  0  0  0  0  0  0  0  0  0
    0.9040   23.7170  -25.9440 C   0  0  0  0  0  0  0  0  0  0  0  0
    0.5160   23.0780  -24.7620 C   0  0  0  0  0  0  0  0  0  0  0  0
   -0.4970   22.1150  -24.7880 C   0  0  0  0  0  0  0  0  0  0  0  0
   -1.1200   21.7850  -25.9960 C   0  0  0  0  0  0  0  0  0  0  0  0
    0.1010   19.9753  -27.6788 H   0  0  0  0  0  0  0  0  0  0  0  0
   -0.1344   18.9923  -29.1637 H   0  0  0  0  0  0  0  0  0  0  0  0
    1.0386   20.3527  -29.1637 H   0  0  0  0  0  0  0  0  0  0  0  0
   -1.3309   19.8501  -31.0708 H   0  0  0  0  0  0  0  0  0  0  0  0
   -4.1200   21.8250  -32.5030 H   0  0  0  0  0  0  0  0  0  0  0  0
   -3.8883   16.8328  -33.2708 H   0  0  0  0  0  0  0  0  0  0  0  0
   -6.0380   15.5789  -33.1657 H   0  0  0  0  0  0  0  0  0  0  0  0
   -8.1730   16.7783  -32.7050 H   0  0  0  0  0  0  0  0  0  0  0  0
   -9.3680   18.8782  -32.2416 H   0  0  0  0  0  0  0  0  0  0  0  0
   -9.3098   21.3540  -31.8935 H   0  0  0  0  0  0  0  0  0  0  0  0
   -7.1327   22.5699  -32.0428 H   0  0  0  0  0  0  0  0  0  0  0  0
   -2.8370   25.2960  -30.4930 H   0  0  0  0  0  0  0  0  0  0  0  0
   -2.7364   23.7668  -28.3211 H   0  0  0  0  0  0  0  0  0  0  0  0
    0.5870   23.8967  -28.0813 H   0  0  0  0  0  0  0  0  0  0  0  0
    1.6980   24.4780  -25.9223 H   0  0  0  0  0  0  0  0  0  0  0  0
    1.0080   23.3332  -23.8118 H   0  0  0  0  0  0  0  0  0  0  0  0
   -0.8046   21.6161  -23.8571 H   0  0  0  0  0  0  0  0  0  0  0  0
   -1.9203   21.0305  -26.0119 H   0  0  0  0  0  0  0  0  0  0  0  0
  1  2  1  0
  2  3  2  0
  3  4  1  0
  4  5  1  0
  5  6  1  0
  6  7  2  0
  6  8  2  0
  6  9  1  0
  9 10  2  0
 10 11  1  0
 11 12  2  0
 12 13  1  0
 13 14  2  0
 14 15  1  0
 15 16  2  0
 16 17  1  0
 17 18  2  0
  4 19  2  0
 19 20  1  0
 20 21  1  0
 20 22  2  0
 20 23  2  0
 19 24  1  0
 24 25  2  0
 25 26  1  0
 26 27  2  0
 27 28  1  0
 28 29  2  0
 29 30  1  0
 30 31  2  0
 25  2  1  0
 31 26  1  0
 18  9  1  0
 18 13  1  0
  1 32  1  0
  1 33  1  0
  1 34  1  0
  3 35  1  0
  5 36  1  0
 10 37  1  0
 11 38  1  0
 12 39  1  0
 14 40  1  0
 15 41  1  0
 16 42  1  0
 21 43  1  0
 24 44  1  0
 27 45  1  0
 28 46  1  0
 29 47  1  0
 30 48  1  0
 31 49  1  0
M  CHG  1  21  -1
M  END
>  <UniqueID>  (49) 
46

>  <SMILES>  (49) 
Cc1cc(NS(=O)(=O)c2cccc3cccnc23)c(S([NH-])(=O)=O)cc1-c1ccccc1

>  <Energy>  (49) 
68.16606550133878

>  <Genealogy>  (49) 
Cc1cc(NS(=O)(=O)c2cccc3cccnc23)c(S([NH-])(=O)=O)cc1-c1ccccc1 (protonated)
Cc1cc(NS(=O)(=O)c2cccc3cccnc23)c(S([NH-])(=O)=O)cc1-c1ccccc1 (3D coordinates assigned)
Cc1cc(NS(=O)(=O)c2cccc3cccnc23)c(S([NH-])(=O)=O)cc1-c1ccccc1 (optimized conformer: 68.16606550133878 kcal/mol)

>  <smiles>  (49) 
Cc1cc(NS(=O)(=O)c2cccc3cccnc23)c(S(N)(=O)=O)cc1-c1ccccc1

>  <score_type>  (49) 
oracle

>  <origin>  (49) 
adgpu

>  <m_score__min__energy>  (49) 
-12.710000000000001

>  <m_primary>  (49) 
energy

$$$$
