0:0
     RDKit          3D

 43 46  0  0  0  0  0  0  0  0999 V2000
   -7.1660   23.6920  -29.7880 O   0  0  0  0  0  0  0  0  0  0  0  0
   -5.9770   23.7580  -30.7060 S   0  0  0  0  0  0  0  0  0  0  0  0
   -6.1140   24.9610  -31.5970 O   0  0  0  0  0  0  0  0  0  0  0  0
   -4.5120   23.8640  -29.7340 C   0  0  0  0  0  0  0  0  0  0  0  0
   -3.2540   23.6450  -30.3140 C   0  0  0  0  0  0  0  0  0  0  0  0
   -2.0980   23.7170  -29.5310 C   0  0  0  0  0  0  0  0  0  0  0  0
   -2.1880   24.0140  -28.1650 C   0  0  0  0  0  0  0  0  0  0  0  0
   -0.7270   24.1120  -27.1790 S   0  0  0  0  0  0  0  0  0  0  0  0
   -0.3660   22.7370  -26.6890 O   0  0  0  0  0  0  0  0  0  0  0  0
    0.4070   24.6140  -28.0300 O   0  0  0  0  0  0  0  0  0  0  0  0
   -0.9350   25.1780  -25.8110 N   0  0  0  0  0  0  0  0  0  0  0  0
    0.2570   25.1530  -24.9520 C   0  0  0  0  0  0  0  0  0  0  0  0
    0.0480   26.0810  -23.7360 C   0  0  0  0  0  0  0  0  0  0  0  0
   -1.1420   26.8470  -23.8430 O   0  0  0  0  0  0  0  0  0  0  0  0
   -1.1590   27.5370  -25.0770 C   0  0  0  0  0  0  0  0  0  0  0  0
   -1.2070   26.5520  -26.2630 C   0  0  0  0  0  0  0  0  0  0  0  0
   -3.4460   24.2350  -27.5860 C   0  0  0  0  0  0  0  0  0  0  0  0
   -4.6020   24.1610  -28.3690 C   0  0  0  0  0  0  0  0  0  0  0  0
   -5.9170   22.3170  -31.7080 C   0  0  0  0  0  0  0  0  0  0  0  0
   -4.7330   21.8970  -32.2440 N   0  0  0  0  0  0  0  0  0  0  0  0
   -4.6610   20.7830  -33.0380 C   0  0  0  0  0  0  0  0  0  0  0  0
   -5.7870   20.0590  -33.3200 N   0  0  0  0  0  0  0  0  0  0  0  0
   -6.9640   20.4720  -32.7930 C   0  0  0  0  0  0  0  0  0  0  0  0
   -8.1590   19.8880  -32.9680 N   0  0  0  0  0  0  0  0  0  0  0  0
   -9.0340   20.6440  -32.2620 C   0  0  0  0  0  0  0  0  0  0  0  0
   -8.3830   21.7090  -31.6420 C   0  0  0  0  0  0  0  0  0  0  0  0
   -7.0570   21.5740  -31.9990 C   0  0  0  0  0  0  0  0  0  0  0  0
   -3.1767   23.4161  -31.3871 H   0  0  0  0  0  0  0  0  0  0  0  0
   -1.1139   23.5397  -29.9894 H   0  0  0  0  0  0  0  0  0  0  0  0
    0.4320   24.1254  -24.6008 H   0  0  0  0  0  0  0  0  0  0  0  0
    1.1263   25.5019  -25.5287 H   0  0  0  0  0  0  0  0  0  0  0  0
   -0.0080   25.4652  -22.8262 H   0  0  0  0  0  0  0  0  0  0  0  0
    0.8964   26.7800  -23.6955 H   0  0  0  0  0  0  0  0  0  0  0  0
   -2.0460   28.1866  -25.1133 H   0  0  0  0  0  0  0  0  0  0  0  0
   -0.2389   28.1346  -25.1560 H   0  0  0  0  0  0  0  0  0  0  0  0
   -2.2055   26.5895  -26.7231 H   0  0  0  0  0  0  0  0  0  0  0  0
   -0.4380   26.8419  -26.9942 H   0  0  0  0  0  0  0  0  0  0  0  0
   -3.5235   24.4671  -26.5136 H   0  0  0  0  0  0  0  0  0  0  0  0
   -5.5863   24.3369  -27.9105 H   0  0  0  0  0  0  0  0  0  0  0  0
   -3.6914   20.4685  -33.4515 H   0  0  0  0  0  0  0  0  0  0  0  0
   -8.3720   19.0330  -33.5270 H   0  0  0  0  0  0  0  0  0  0  0  0
  -10.1132   20.4441  -32.1881 H   0  0  0  0  0  0  0  0  0  0  0  0
   -8.8293   22.4879  -31.0062 H   0  0  0  0  0  0  0  0  0  0  0  0
  1  2  2  0
  2  3  2  0
  2  4  1  0
  4  5  2  0
  5  6  1  0
  6  7  2  0
  7  8  1  0
  8  9  2  0
  8 10  2  0
  8 11  1  0
 11 12  1  0
 12 13  1  0
 13 14  1  0
 14 15  1  0
 15 16  1  0
  7 17  1  0
 17 18  2  0
  2 19  1  0
 19 20  2  0
 20 21  1  0
 21 22  2  0
 22 23  1  0
 23 24  1  0
 24 25  1  0
 25 26  2  0
 26 27  1  0
 18  4  1  0
 27 19  1  0
 16 11  1  0
 27 23  2  0
  5 28  1  0
  6 29  1  0
 12 30  1  0
 12 31  1  0
 13 32  1  0
 13 33  1  0
 15 34  1  0
 15 35  1  0
 16 36  1  0
 16 37  1  0
 17 38  1  0
 18 39  1  0
 21 40  1  0
 24 41  1  0
 25 42  1  0
 26 43  1  0
M  END
>  <UniqueID>  (1) 
1

>  <SMILES>  (1) 
O=S(=O)(c1ccc(S(=O)(=O)N2CCOCC2)cc1)c1ncnc2[nH]ccc12

>  <Energy>  (1) 
90.60517846423475

>  <Genealogy>  (1) 
O=S(=O)(c1ccc(S(=O)(=O)N2CCOCC2)cc1)c1ncnc2[nH]ccc12 (3D coordinates assigned)
O=S(=O)(c1ccc(S(=O)(=O)N2CCOCC2)cc1)c1ncnc2[nH]ccc12 (nonaromatic ring conformer: 90.60517846423475 kcal/mol)

>  <smiles>  (1) 
O=S(=O)(c1ccc(S(=O)(=O)N2CCOCC2)cc1)c1ncnc2[nH]ccc12

>  <score_type>  (1) 
oracle

>  <origin>  (1) 
adgpu

>  <m_score__min__energy>  (1) 
-9.2599999999999998

>  <m_primary>  (1) 
energy

$$$$
1:0
     RDKit          3D

 40 42  0  0  0  0  0  0  0  0999 V2000
   -9.4950   21.9340  -31.5020 C   0  0  0  0  0  0  0  0  0  0  0  0
   -8.3480   21.6930  -32.3110 O   0  0  0  0  0  0  0  0  0  0  0  0
   -7.5970   20.5070  -32.2930 C   0  0  0  0  0  0  0  0  0  0  0  0
   -8.2050   19.2390  -32.1910 C   0  0  0  0  0  0  0  0  0  0  0  0
   -7.4240   18.0810  -32.1700 C   0  0  0  0  0  0  0  0  0  0  0  0
   -6.0350   18.1730  -32.2580 C   0  0  0  0  0  0  0  0  0  0  0  0
   -5.2800   17.0480  -32.2350 F   0  0  0  0  0  0  0  0  0  0  0  0
   -5.4210   19.4220  -32.3630 C   0  0  0  0  0  0  0  0  0  0  0  0
   -6.1970   20.5970  -32.3770 C   0  0  0  0  0  0  0  0  0  0  0  0
   -5.5940   21.8990  -32.4500 N   0  0  0  0  0  0  0  0  0  0  0  0
   -5.7030   23.1360  -31.2370 S   0  0  0  0  0  0  0  0  0  0  0  0
   -6.8890   22.8380  -30.3650 O   0  0  0  0  0  0  0  0  0  0  0  0
   -5.9090   24.4610  -31.9170 O   0  0  0  0  0  0  0  0  0  0  0  0
   -4.2490   23.1790  -30.2270 C   0  0  0  0  0  0  0  0  0  0  0  0
   -3.8350   22.0090  -29.5700 C   0  0  0  0  0  0  0  0  0  0  0  0
   -2.6590   21.9860  -28.7980 C   0  0  0  0  0  0  0  0  0  0  0  0
   -2.2180   20.7770  -28.1480 N   0  0  0  0  0  0  0  0  0  0  0  0
   -1.1560   20.0080  -28.4620 C   0  0  0  0  0  0  0  0  0  0  0  0
   -1.1410   18.9800  -27.5470 C   0  0  0  0  0  0  0  0  0  0  0  0
   -0.1050   17.9150  -27.4200 C   0  0  0  0  0  0  0  0  0  0  0  0
   -2.1640   19.1570  -26.6890 N   0  0  0  0  0  0  0  0  0  0  0  0
   -2.8020   20.2500  -27.0810 N   0  0  0  0  0  0  0  0  0  0  0  0
   -1.9140   23.1680  -28.6660 C   0  0  0  0  0  0  0  0  0  0  0  0
   -2.3320   24.3430  -29.2920 C   0  0  0  0  0  0  0  0  0  0  0  0
   -3.4960   24.3640  -30.0660 C   0  0  0  0  0  0  0  0  0  0  0  0
   -3.8750   25.5760  -30.6460 O   0  0  0  0  0  0  0  0  0  0  0  0
   -9.2138   21.8749  -30.4402 H   0  0  0  0  0  0  0  0  0  0  0  0
   -9.8939   22.9356  -31.7205 H   0  0  0  0  0  0  0  0  0  0  0  0
  -10.2633   21.1777  -31.7205 H   0  0  0  0  0  0  0  0  0  0  0  0
   -9.3004   19.1612  -32.1276 H   0  0  0  0  0  0  0  0  0  0  0  0
   -7.9050   17.0955  -32.0840 H   0  0  0  0  0  0  0  0  0  0  0  0
   -4.3254   19.4889  -32.4352 H   0  0  0  0  0  0  0  0  0  0  0  0
   -4.4404   21.0950  -29.6605 H   0  0  0  0  0  0  0  0  0  0  0  0
   -0.4441   20.1698  -29.2848 H   0  0  0  0  0  0  0  0  0  0  0  0
    0.0881   17.7164  -26.3554 H   0  0  0  0  0  0  0  0  0  0  0  0
   -0.4633   16.9952  -27.9054 H   0  0  0  0  0  0  0  0  0  0  0  0
    0.8243   18.2477  -27.9054 H   0  0  0  0  0  0  0  0  0  0  0  0
   -0.9932   23.1682  -28.0643 H   0  0  0  0  0  0  0  0  0  0  0  0
   -1.7394   25.2624  -29.1752 H   0  0  0  0  0  0  0  0  0  0  0  0
   -4.1770   25.6640  -31.6060 H   0  0  0  0  0  0  0  0  0  0  0  0
  1  2  1  0
  2  3  1  0
  3  4  2  0
  4  5  1  0
  5  6  2  0
  6  7  1  0
  6  8  1  0
  8  9  2  0
  9 10  1  0
 10 11  1  0
 11 12  2  0
 11 13  2  0
 11 14  1  0
 14 15  2  0
 15 16  1  0
 16 17  1  0
 17 18  1  0
 18 19  2  0
 19 20  1  0
 19 21  1  0
 21 22  2  0
 16 23  2  0
 23 24  1  0
 24 25  2  0
 25 26  1  0
  9  3  1  0
 25 14  1  0
 22 17  1  0
  1 27  1  0
  1 28  1  0
  1 29  1  0
  4 30  1  0
  5 31  1  0
  8 32  1  0
 15 33  1  0
 18 34  1  0
 20 35  1  0
 20 36  1  0
 20 37  1  0
 23 38  1  0
 24 39  1  0
 26 40  1  0
M  CHG  1  10  -1
M  END
>  <UniqueID>  (2) 
2

>  <SMILES>  (2) 
COc1ccc(F)cc1[N-]S(=O)(=O)c1cc(-n2cc(C)nn2)ccc1O

>  <Energy>  (2) 
82.77856304284784

>  <Genealogy>  (2) 
COc1ccc(F)cc1[N-]S(=O)(=O)c1cc(-n2cc(C)nn2)ccc1O (protonated)
COc1ccc(F)cc1[N-]S(=O)(=O)c1cc(-n2cc(C)nn2)ccc1O (3D coordinates assigned)
COc1ccc(F)cc1[N-]S(=O)(=O)c1cc(-n2cc(C)nn2)ccc1O (optimized conformer: 82.77856304284784 kcal/mol)

>  <smiles>  (2) 
COc1ccc(F)cc1NS(=O)(=O)c1cc(-n2cc(C)nn2)ccc1O

>  <score_type>  (2) 
oracle

>  <origin>  (2) 
adgpu

>  <m_score__min__energy>  (2) 
-9.5999999999999996

>  <m_primary>  (2) 
energy

$$$$
2:0
     RDKit          3D

 62 65  0  0  0  0  0  0  0  0999 V2000
    3.8140   18.6200  -27.5150 C   0  0  0  0  0  0  0  0  0  0  0  0
    2.8870   17.8230  -28.3840 C   0  0  0  0  0  0  0  0  0  0  0  0
    3.2960   16.7270  -28.8540 O   0  0  0  0  0  0  0  0  0  0  0  0
    1.5480   18.2810  -28.6720 N   0  0  0  0  0  0  0  0  0  0  0  0
    0.9590   19.3730  -27.8780 C   0  0  0  0  0  0  0  0  0  0  0  0
   -0.5200   19.5870  -28.2120 C   0  0  0  0  0  0  0  0  0  0  0  0
   -0.7060   19.6080  -29.6680 N   0  0  0  0  0  0  0  0  0  0  0  0
   -1.6380   20.5240  -30.2710 C   0  0  0  0  0  0  0  0  0  0  0  0
   -2.4540   20.0980  -31.1340 O   0  0  0  0  0  0  0  0  0  0  0  0
   -1.6470   21.9610  -29.9160 C   0  0  0  0  0  0  0  0  0  0  0  0
   -0.6340   22.5040  -29.1110 C   0  0  0  0  0  0  0  0  0  0  0  0
   -0.6390   23.8620  -28.7960 C   0  0  0  0  0  0  0  0  0  0  0  0
   -1.6510   24.7000  -29.2750 C   0  0  0  0  0  0  0  0  0  0  0  0
   -1.5880   26.0520  -28.9650 O   0  0  0  0  0  0  0  0  0  0  0  0
   -2.6850   24.1670  -30.0760 C   0  0  0  0  0  0  0  0  0  0  0  0
   -3.7700   24.9510  -30.5980 N   0  0  0  0  0  0  0  0  0  0  0  0
   -5.4220   24.9390  -30.0760 S   0  0  0  0  0  0  0  0  0  0  0  0
   -6.0520   26.2770  -30.3450 O   0  0  0  0  0  0  0  0  0  0  0  0
   -5.5010   24.6320  -28.6060 O   0  0  0  0  0  0  0  0  0  0  0  0
   -6.2790   23.6800  -30.9600 C   0  0  0  0  0  0  0  0  0  0  0  0
   -7.6630   23.7860  -31.1540 C   0  0  0  0  0  0  0  0  0  0  0  0
   -8.3540   22.7880  -31.8440 C   0  0  0  0  0  0  0  0  0  0  0  0
   -7.6690   21.6750  -32.3400 C   0  0  0  0  0  0  0  0  0  0  0  0
   -6.2870   21.5530  -32.1400 C   0  0  0  0  0  0  0  0  0  0  0  0
   -5.4150   20.1500  -32.7540 S   0  0  0  0  0  0  0  0  0  0  0  0
   -5.0020   19.2990  -31.5860 O   0  0  0  0  0  0  0  0  0  0  0  0
   -4.1870   20.6000  -33.4970 O   0  0  0  0  0  0  0  0  0  0  0  0
   -6.4500   19.2250  -33.8220 N   0  0  0  0  0  0  0  0  0  0  0  0
   -5.6480   18.3840  -34.7180 C   0  0  0  0  0  0  0  0  0  0  0  0
   -5.5080   17.0100  -34.0800 C   0  0  0  0  0  0  0  0  0  0  0  0
   -6.5710   16.9520  -32.9990 C   0  0  0  0  0  0  0  0  0  0  0  0
   -7.2840   18.2960  -33.0530 C   0  0  0  0  0  0  0  0  0  0  0  0
   -5.5940   22.5590  -31.4530 C   0  0  0  0  0  0  0  0  0  0  0  0
   -2.6560   22.8040  -30.4060 C   0  0  0  0  0  0  0  0  0  0  0  0
   -0.0920   18.5640  -30.5000 C   0  0  0  0  0  0  0  0  0  0  0  0
    0.7230   17.5700  -29.6620 C   0  0  0  0  0  0  0  0  0  0  0  0
    3.5850   18.4231  -26.4573 H   0  0  0  0  0  0  0  0  0  0  0  0
    4.8540   18.3297  -27.7252 H   0  0  0  0  0  0  0  0  0  0  0  0
    3.6829   19.6917  -27.7252 H   0  0  0  0  0  0  0  0  0  0  0  0
    1.0504   19.1258  -26.8101 H   0  0  0  0  0  0  0  0  0  0  0  0
    1.5007   20.2999  -28.1177 H   0  0  0  0  0  0  0  0  0  0  0  0
   -1.1136   18.7676  -27.7804 H   0  0  0  0  0  0  0  0  0  0  0  0
   -0.8507   20.5479  -27.7910 H   0  0  0  0  0  0  0  0  0  0  0  0
    0.1672   21.8555  -28.7270 H   0  0  0  0  0  0  0  0  0  0  0  0
    0.1602   24.2781  -28.1650 H   0  0  0  0  0  0  0  0  0  0  0  0
   -8.2065   24.6581  -30.7615 H   0  0  0  0  0  0  0  0  0  0  0  0
   -9.4395   22.8778  -31.9976 H   0  0  0  0  0  0  0  0  0  0  0  0
   -8.2155   20.8935  -32.8883 H   0  0  0  0  0  0  0  0  0  0  0  0
   -6.1504   18.2929  -35.6923 H   0  0  0  0  0  0  0  0  0  0  0  0
   -4.6563   18.8333  -34.8750 H   0  0  0  0  0  0  0  0  0  0  0  0
   -5.6768   16.2206  -34.8273 H   0  0  0  0  0  0  0  0  0  0  0  0
   -4.5000   16.8530  -33.6685 H   0  0  0  0  0  0  0  0  0  0  0  0
   -7.2783   16.1338  -33.1996 H   0  0  0  0  0  0  0  0  0  0  0  0
   -6.1333   16.7631  -32.0077 H   0  0  0  0  0  0  0  0  0  0  0  0
   -8.2617   18.1797  -33.5434 H   0  0  0  0  0  0  0  0  0  0  0  0
   -7.4454   18.6823  -32.0358 H   0  0  0  0  0  0  0  0  0  0  0  0
   -4.5084   22.4694  -31.2996 H   0  0  0  0  0  0  0  0  0  0  0  0
   -3.4373   22.3891  -31.0598 H   0  0  0  0  0  0  0  0  0  0  0  0
   -0.8869   18.0164  -31.0276 H   0  0  0  0  0  0  0  0  0  0  0  0
    0.5918   19.0522  -31.2100 H   0  0  0  0  0  0  0  0  0  0  0  0
    0.0353   16.8900  -29.1379 H   0  0  0  0  0  0  0  0  0  0  0  0
    1.3846   17.0007  -30.3315 H   0  0  0  0  0  0  0  0  0  0  0  0
  1  2  1  0
  2  3  2  0
  2  4  1  0
  4  5  1  0
  5  6  1  0
  6  7  1  0
  7  8  1  0
  8  9  2  0
  8 10  1  0
 10 11  2  0
 11 12  1  0
 12 13  2  0
 13 14  1  0
 13 15  1  0
 15 16  1  0
 16 17  1  0
 17 18  2  0
 17 19  2  0
 17 20  1  0
 20 21  2  0
 21 22  1  0
 22 23  2  0
 23 24  1  0
 24 25  1  0
 25 26  2  0
 25 27  2  0
 25 28  1  0
 28 29  1  0
 29 30  1  0
 30 31  1  0
 31 32  1  0
 24 33  2  0
 15 34  2  0
  7 35  1  0
 35 36  1  0
 36  4  1  0
 34 10  1  0
 33 20  1  0
 32 28  1  0
  1 37  1  0
  1 38  1  0
  1 39  1  0
  5 40  1  0
  5 41  1  0
  6 42  1  0
  6 43  1  0
 11 44  1  0
 12 45  1  0
 21 46  1  0
 22 47  1  0
 23 48  1  0
 29 49  1  0
 29 50  1  0
 30 51  1  0
 30 52  1  0
 31 53  1  0
 31 54  1  0
 32 55  1  0
 32 56  1  0
 33 57  1  0
 34 58  1  0
 35 59  1  0
 35 60  1  0
 36 61  1  0
 36 62  1  0
M  CHG  2  14  -1  16  -1
M  END
>  <UniqueID>  (3) 
3

>  <SMILES>  (3) 
CC(=O)N1CCN(C(=O)c2ccc([O-])c([N-]S(=O)(=O)c3cccc(S(=O)(=O)N4CCCC4)c3)c2)CC1

>  <Energy>  (3) 
76.60328647770231

>  <Genealogy>  (3) 
CC(=O)N1CCN(C(=O)c2ccc([O-])c([N-]S(=O)(=O)c3cccc(S(=O)(=O)N4CCCC4)c3)c2)CC1 (protonated)
CC(=O)N1CCN(C(=O)c2ccc([O-])c([N-]S(=O)(=O)c3cccc(S(=O)(=O)N4CCCC4)c3)c2)CC1 (3D coordinates assigned)
CC(=O)N1CCN(C(=O)c2ccc([O-])c([N-]S(=O)(=O)c3cccc(S(=O)(=O)N4CCCC4)c3)c2)CC1 (nonaromatic ring conformer: 76.60328647770231 kcal/mol)

>  <smiles>  (3) 
CC(=O)N1CCN(C(=O)c2ccc(O)c(NS(=O)(=O)c3cccc(S(=O)(=O)N4CCCC4)c3)c2)CC1

>  <score_type>  (3) 
oracle

>  <origin>  (3) 
adgpu

>  <m_score__min__energy>  (3) 
-15.140000000000001

>  <m_primary>  (3) 
energy

$$$$
3:0
     RDKit          3D

 50 52  0  0  0  0  0  0  0  0999 V2000
   -0.8769   26.6229  -29.0056 H   0  0  0  0  0  0  0  0  0  0  0  0
   -0.9170   25.6970  -28.4130 C   0  0  0  0  0  0  0  0  0  0  0  0
   -1.9250   24.7310  -28.6840 C   0  0  0  0  0  0  0  0  0  0  0  0
   -2.8920   24.9200  -29.7240 N   0  0  0  0  0  0  0  0  0  0  0  0
   -3.4860   23.8910  -30.5220 C   0  0  0  0  0  0  0  0  0  0  0  0
   -4.5110   24.1600  -31.2020 O   0  0  0  0  0  0  0  0  0  0  0  0
   -2.8980   22.5870  -30.5960 N   0  0  0  0  0  0  0  0  0  0  0  0
   -1.6160   22.3120  -31.2340 C   0  0  0  0  0  0  0  0  0  0  0  0
   -0.8123   22.4023  -30.4884 H   0  0  0  0  0  0  0  0  0  0  0  0
   -1.4573   23.0357  -32.0470 H   0  0  0  0  0  0  0  0  0  0  0  0
   -1.6080   20.8940  -31.8180 C   0  0  0  0  0  0  0  0  0  0  0  0
   -2.2245   20.2431  -31.1806 H   0  0  0  0  0  0  0  0  0  0  0  0
   -0.5657   20.5440  -31.8505 H   0  0  0  0  0  0  0  0  0  0  0  0
   -2.1660   20.8620  -33.2470 C   0  0  0  0  0  0  0  0  0  0  0  0
   -3.1243   21.4018  -33.2662 H   0  0  0  0  0  0  0  0  0  0  0  0
   -2.2964   19.8090  -33.5371 H   0  0  0  0  0  0  0  0  0  0  0  0
   -1.2510   21.4870  -34.2090 N   0  0  0  0  0  0  0  0  0  0  0  0
   -1.4920   22.4560  -34.5180 H   0  0  0  0  0  0  0  0  0  0  0  0
    0.0800   21.0040  -34.4930 C   0  0  0  0  0  0  0  0  0  0  0  0
    0.9330   21.7240  -35.2780 C   0  0  0  0  0  0  0  0  0  0  0  0
    0.5310   22.9540  -35.7080 N   0  0  0  0  0  0  0  0  0  0  0  0
    1.3120   23.7680  -36.4700 C   0  0  0  0  0  0  0  0  0  0  0  0
    0.8640   24.9800  -36.8620 C   0  0  0  0  0  0  0  0  0  0  0  0
    1.7420   25.8880  -37.6860 C   0  0  0  0  0  0  0  0  0  0  0  0
    2.3494   26.5161  -37.0177 H   0  0  0  0  0  0  0  0  0  0  0  0
    2.4042   25.2808  -38.3206 H   0  0  0  0  0  0  0  0  0  0  0  0
    1.1129   26.5294  -38.3206 H   0  0  0  0  0  0  0  0  0  0  0  0
   -0.5200   25.4470  -36.4830 C   0  0  0  0  0  0  0  0  0  0  0  0
   -0.6095   25.4772  -35.3871 H   0  0  0  0  0  0  0  0  0  0  0  0
   -0.6925   26.4531  -36.8928 H   0  0  0  0  0  0  0  0  0  0  0  0
   -1.2668   24.7511  -36.8928 H   0  0  0  0  0  0  0  0  0  0  0  0
    2.5550   23.3510  -36.8230 N   0  0  0  0  0  0  0  0  0  0  0  0
    3.0280   22.1410  -36.4390 C   0  0  0  0  0  0  0  0  0  0  0  0
    4.1860   21.7890  -36.7910 O   0  0  0  0  0  0  0  0  0  0  0  0
    2.2350   21.2910  -35.6560 C   0  0  0  0  0  0  0  0  0  0  0  0
    2.6950   20.1660  -35.3200 O   0  0  0  0  0  0  0  0  0  0  0  0
    0.4710   19.7080  -33.8270 C   0  0  0  0  0  0  0  0  0  0  0  0
    0.4338   19.8313  -32.7346 H   0  0  0  0  0  0  0  0  0  0  0  0
   -0.2277   18.9144  -34.1304 H   0  0  0  0  0  0  0  0  0  0  0  0
    1.4920   19.4333  -34.1304 H   0  0  0  0  0  0  0  0  0  0  0  0
   -1.9510   23.5270  -27.9520 C   0  0  0  0  0  0  0  0  0  0  0  0
   -2.7015   22.7509  -28.1627 H   0  0  0  0  0  0  0  0  0  0  0  0
   -0.9960   23.3510  -26.9530 C   0  0  0  0  0  0  0  0  0  0  0  0
   -0.7690   22.3330  -26.0580 C   0  0  0  0  0  0  0  0  0  0  0  0
   -1.3449   21.3989  -25.9816 H   0  0  0  0  0  0  0  0  0  0  0  0
    0.2890   22.6820  -25.2860 N   0  0  0  0  0  0  0  0  0  0  0  0
    0.7340   23.8790  -25.6640 N   0  0  0  0  0  0  0  0  0  0  0  0
   -0.0460   24.2880  -26.6800 C   0  0  0  0  0  0  0  0  0  0  0  0
    0.0320   25.4800  -27.3920 C   0  0  0  0  0  0  0  0  0  0  0  0
    0.8068   26.2277  -27.1669 H   0  0  0  0  0  0  0  0  0  0  0  0
  1  2  1  0
  2  3  2  0
  3  4  1  0
  4  5  1  0
  5  6  2  0
  5  7  1  0
  7  8  1  0
  8  9  1  0
  8 10  1  0
  8 11  1  0
 11 12  1  0
 11 13  1  0
 11 14  1  0
 14 15  1  0
 14 16  1  0
 14 17  1  0
 17 18  1  0
 17 19  1  0
 19 20  2  0
 20 21  1  0
 21 22  1  0
 22 23  2  3
 23 24  1  0
 24 25  1  0
 24 26  1  0
 24 27  1  0
 23 28  1  0
 28 29  1  0
 28 30  1  0
 28 31  1  0
 22 32  1  0
 32 33  1  0
 33 34  2  0
 33 35  1  0
 35 36  2  0
 19 37  1  0
 37 38  1  0
 37 39  1  0
 37 40  1  0
  3 41  1  0
 41 42  1  0
 41 43  2  0
 43 44  1  0
 44 45  1  0
 44 46  2  0
 46 47  1  0
 47 48  1  0
 48 49  2  0
 49 50  1  0
 49  2  1  0
 35 20  1  0
 48 43  1  0
M  CHG  5   4  -1   7  -1  21  -1  32  -1  47  -1
M  END
>  <UniqueID>  (4) 
4

>  <SMILES>  (4) 
CC(C)=c1[n-]c(=O)c(=O)/c(=C(\C)NCCC[N-]C(=O)[N-]c2ccc3[n-]ncc3c2)[n-]1

>  <Energy>  (4) 
96.29761310767246

>  <Genealogy>  (4) 
CC(C)=c1[n-]c(=O)c(=O)c(=C(C)NCCC[N-]C(=O)[N-]c2ccc3[n-]ncc3c2)[n-]1 (protonated)
CC(C)=c1[n-]c(=O)c(=O)/c(=C(\C)NCCC[N-]C(=O)[N-]c2ccc3[n-]ncc3c2)[n-]1 (cis-trans isomerization)
CC(C)=c1[n-]c(=O)c(=O)/c(=C(\C)NCCC[N-]C(=O)[N-]c2ccc3[n-]ncc3c2)[n-]1 (3D coordinates assigned)
CC(C)=c1[n-]c(=O)c(=O)/c(=C(\C)NCCC[N-]C(=O)[N-]c2ccc3[n-]ncc3c2)[n-]1 (optimized conformer: 96.29761310767246 kcal/mol)

>  <smiles>  (4) 
CC(C)=c1[nH]c(=O)c(=O)c(=C(C)NCCCNC(=O)Nc2ccc3[nH]ncc3c2)[nH]1

>  <score_type>  (4) 
oracle

>  <origin>  (4) 
adgpu

>  <m_score__min__energy>  (4) 
-11.41

>  <m_primary>  (4) 
energy

$$$$
4:0
     RDKit          3D

 50 53  0  0  0  0  0  0  0  0999 V2000
    0.0590   26.7600  -23.4980 C   0  0  0  0  0  0  0  0  0  0  0  0
   -1.2270   26.5420  -24.0670 O   0  0  0  0  0  0  0  0  0  0  0  0
   -1.4490   26.1650  -25.4000 C   0  0  0  0  0  0  0  0  0  0  0  0
   -2.5250   25.3160  -25.6820 C   0  0  0  0  0  0  0  0  0  0  0  0
   -2.7850   24.9080  -26.9930 C   0  0  0  0  0  0  0  0  0  0  0  0
   -1.9620   25.3300  -28.0430 C   0  0  0  0  0  0  0  0  0  0  0  0
   -2.2760   24.9090  -29.3780 N   0  0  0  0  0  0  0  0  0  0  0  0
   -3.5820   24.8430  -29.9610 C   0  0  0  0  0  0  0  0  0  0  0  0
   -3.8910   25.6720  -30.8570 O   0  0  0  0  0  0  0  0  0  0  0  0
   -4.5240   23.8520  -29.5290 N   0  0  0  0  0  0  0  0  0  0  0  0
   -5.6470   23.3510  -30.2680 C   0  0  0  0  0  0  0  0  0  0  0  0
   -6.6990   24.2260  -30.5590 C   0  0  0  0  0  0  0  0  0  0  0  0
   -7.7970   23.7870  -31.3000 C   0  0  0  0  0  0  0  0  0  0  0  0
   -7.8510   22.4730  -31.7670 C   0  0  0  0  0  0  0  0  0  0  0  0
   -6.8000   21.5760  -31.4980 C   0  0  0  0  0  0  0  0  0  0  0  0
   -6.8650   20.1870  -32.0180 C   0  0  0  0  0  0  0  0  0  0  0  0
   -8.0160   19.3960  -31.8730 C   0  0  0  0  0  0  0  0  0  0  0  0
   -8.0110   18.1030  -32.3950 C   0  0  0  0  0  0  0  0  0  0  0  0
   -6.9100   17.6330  -33.0340 N   0  0  0  0  0  0  0  0  0  0  0  0
   -5.8000   18.4050  -33.1780 C   0  0  0  0  0  0  0  0  0  0  0  0
   -4.6460   17.8920  -33.8600 N   0  0  0  0  0  0  0  0  0  0  0  0
   -4.7230   16.9430  -34.9570 C   0  0  0  0  0  0  0  0  0  0  0  0
   -3.2820   16.5500  -35.2580 C   0  0  0  0  0  0  0  0  0  0  0  0
   -2.4070   17.6060  -34.5810 C   0  0  0  0  0  0  0  0  0  0  0  0
   -3.2840   18.2610  -33.5220 C   0  0  0  0  0  0  0  0  0  0  0  0
   -5.7900   19.6680  -32.6730 N   0  0  0  0  0  0  0  0  0  0  0  0
   -5.6890   22.0320  -30.7610 C   0  0  0  0  0  0  0  0  0  0  0  0
   -0.8960   26.2060  -27.7710 C   0  0  0  0  0  0  0  0  0  0  0  0
   -0.6350   26.6130  -26.4580 C   0  0  0  0  0  0  0  0  0  0  0  0
   -0.0185   26.7469  -22.4008 H   0  0  0  0  0  0  0  0  0  0  0  0
    0.7449   25.9653  -23.8267 H   0  0  0  0  0  0  0  0  0  0  0  0
    0.4447   27.7363  -23.8267 H   0  0  0  0  0  0  0  0  0  0  0  0
   -3.1722   24.9665  -24.8641 H   0  0  0  0  0  0  0  0  0  0  0  0
   -3.6422   24.2508  -27.2009 H   0  0  0  0  0  0  0  0  0  0  0  0
   -6.6605   25.2657  -30.2018 H   0  0  0  0  0  0  0  0  0  0  0  0
   -8.6235   24.4797  -31.5169 H   0  0  0  0  0  0  0  0  0  0  0  0
   -8.7211   22.1358  -32.3495 H   0  0  0  0  0  0  0  0  0  0  0  0
   -8.9047   19.7888  -31.3574 H   0  0  0  0  0  0  0  0  0  0  0  0
   -8.8999   17.4638  -32.2888 H   0  0  0  0  0  0  0  0  0  0  0  0
   -5.3083   16.0600  -34.6609 H   0  0  0  0  0  0  0  0  0  0  0  0
   -5.2198   17.3767  -35.8374 H   0  0  0  0  0  0  0  0  0  0  0  0
   -3.0641   15.5529  -34.8478 H   0  0  0  0  0  0  0  0  0  0  0  0
   -3.0944   16.5052  -36.3409 H   0  0  0  0  0  0  0  0  0  0  0  0
   -1.5308   17.1336  -34.1130 H   0  0  0  0  0  0  0  0  0  0  0  0
   -2.0315   18.3433  -35.3058 H   0  0  0  0  0  0  0  0  0  0  0  0
   -3.0219   17.8868  -32.5214 H   0  0  0  0  0  0  0  0  0  0  0  0
   -3.1512   19.3528  -33.5022 H   0  0  0  0  0  0  0  0  0  0  0  0
   -4.8464   21.3515  -30.5688 H   0  0  0  0  0  0  0  0  0  0  0  0
   -0.2648   26.5727  -28.5939 H   0  0  0  0  0  0  0  0  0  0  0  0
    0.2101   27.2861  -26.2513 H   0  0  0  0  0  0  0  0  0  0  0  0
  1  2  1  0
  2  3  1  0
  3  4  2  0
  4  5  1  0
  5  6  2  0
  6  7  1  0
  7  8  1  0
  8  9  2  0
  8 10  1  0
 10 11  1  0
 11 12  2  0
 12 13  1  0
 13 14  2  0
 14 15  1  0
 15 16  1  0
 16 17  2  0
 17 18  1  0
 18 19  2  0
 19 20  1  0
 20 21  1  0
 21 22  1  0
 22 23  1  0
 23 24  1  0
 24 25  1  0
 20 26  2  0
 15 27  2  0
  6 28  1  0
 28 29  2  0
 29  3  1  0
 27 11  1  0
 26 16  1  0
 25 21  1  0
  1 30  1  0
  1 31  1  0
  1 32  1  0
  4 33  1  0
  5 34  1  0
 12 35  1  0
 13 36  1  0
 14 37  1  0
 17 38  1  0
 18 39  1  0
 22 40  1  0
 22 41  1  0
 23 42  1  0
 23 43  1  0
 24 44  1  0
 24 45  1  0
 25 46  1  0
 25 47  1  0
 27 48  1  0
 28 49  1  0
 29 50  1  0
M  CHG  2   7  -1  10  -1
M  END
>  <UniqueID>  (5) 
5

>  <SMILES>  (5) 
COc1ccc([N-]C(=O)[N-]c2cccc(-c3ccnc(N4CCCC4)n3)c2)cc1

>  <Energy>  (5) 
62.95321736048489

>  <Genealogy>  (5) 
COc1ccc([N-]C(=O)[N-]c2cccc(-c3ccnc(N4CCCC4)n3)c2)cc1 (protonated)
COc1ccc([N-]C(=O)[N-]c2cccc(-c3ccnc(N4CCCC4)n3)c2)cc1 (3D coordinates assigned)
COc1ccc([N-]C(=O)[N-]c2cccc(-c3ccnc(N4CCCC4)n3)c2)cc1 (nonaromatic ring conformer: 62.95321736048489 kcal/mol)

>  <smiles>  (5) 
COc1ccc(NC(=O)Nc2cccc(-c3ccnc(N4CCCC4)n3)c2)cc1

>  <score_type>  (5) 
oracle

>  <origin>  (5) 
adgpu

>  <m_score__min__energy>  (5) 
-12.390000000000001

>  <m_primary>  (5) 
energy

$$$$
5:0
     RDKit          3D

 35 37  0  0  0  0  0  0  0  0999 V2000
   -1.2080   26.3660  -26.0540 C   0  0  0  0  0  0  0  0  0  0  0  0
   -1.2500   25.0100  -26.7000 C   0  0  0  0  0  0  0  0  0  0  0  0
   -1.2380   23.8520  -25.9090 C   0  0  0  0  0  0  0  0  0  0  0  0
   -1.2710   22.5900  -26.5060 C   0  0  0  0  0  0  0  0  0  0  0  0
   -1.2360   21.1470  -25.5090 Cl  0  0  0  0  0  0  0  0  0  0  0  0
   -1.3240   22.4740  -27.8950 C   0  0  0  0  0  0  0  0  0  0  0  0
   -1.3680   23.6220  -28.7050 C   0  0  0  0  0  0  0  0  0  0  0  0
   -1.4190   23.5170  -30.1370 N   0  0  0  0  0  0  0  0  0  0  0  0
   -2.2800   22.6560  -30.8940 C   0  0  0  0  0  0  0  0  0  0  0  0
   -1.7760   21.6640  -31.4850 O   0  0  0  0  0  0  0  0  0  0  0  0
   -3.7330   22.9140  -31.0240 C   0  0  0  0  0  0  0  0  0  0  0  0
   -4.5860   21.8640  -31.4030 C   0  0  0  0  0  0  0  0  0  0  0  0
   -5.9690   22.0710  -31.5080 C   0  0  0  0  0  0  0  0  0  0  0  0
   -6.8250   21.0190  -31.8700 C   0  0  0  0  0  0  0  0  0  0  0  0
   -8.2030   21.2350  -31.9670 C   0  0  0  0  0  0  0  0  0  0  0  0
   -8.7350   22.5020  -31.7050 C   0  0  0  0  0  0  0  0  0  0  0  0
   -7.8940   23.5570  -31.3450 C   0  0  0  0  0  0  0  0  0  0  0  0
   -6.5080   23.3520  -31.2430 C   0  0  0  0  0  0  0  0  0  0  0  0
   -5.6540   24.4030  -30.8860 C   0  0  0  0  0  0  0  0  0  0  0  0
   -4.2750   24.1930  -30.7870 C   0  0  0  0  0  0  0  0  0  0  0  0
   -3.4510   25.2690  -30.4720 O   0  0  0  0  0  0  0  0  0  0  0  0
   -1.3120   24.8960  -28.1030 C   0  0  0  0  0  0  0  0  0  0  0  0
   -1.3260   26.0550  -28.8830 O   0  0  0  0  0  0  0  0  0  0  0  0
   -1.2116   26.2512  -24.9600 H   0  0  0  0  0  0  0  0  0  0  0  0
   -0.2931   26.8919  -26.3645 H   0  0  0  0  0  0  0  0  0  0  0  0
   -2.0886   26.9475  -26.3645 H   0  0  0  0  0  0  0  0  0  0  0  0
   -1.2024   23.9382  -24.8130 H   0  0  0  0  0  0  0  0  0  0  0  0
   -1.3314   21.4771  -28.3598 H   0  0  0  0  0  0  0  0  0  0  0  0
   -4.1654   20.8709  -31.6193 H   0  0  0  0  0  0  0  0  0  0  0  0
   -6.4104   20.0216  -32.0780 H   0  0  0  0  0  0  0  0  0  0  0  0
   -8.8699   20.4072  -32.2498 H   0  0  0  0  0  0  0  0  0  0  0  0
   -9.8196   22.6678  -31.7828 H   0  0  0  0  0  0  0  0  0  0  0  0
   -8.3179   24.5513  -31.1407 H   0  0  0  0  0  0  0  0  0  0  0  0
   -6.0708   25.4004  -30.6821 H   0  0  0  0  0  0  0  0  0  0  0  0
   -1.6230   26.0580  -29.8500 H   0  0  0  0  0  0  0  0  0  0  0  0
  1  2  1  0
  2  3  2  0
  3  4  1  0
  4  5  1  0
  4  6  2  0
  6  7  1  0
  7  8  1  0
  8  9  1  0
  9 10  2  0
  9 11  1  0
 11 12  2  0
 12 13  1  0
 13 14  2  0
 14 15  1  0
 15 16  2  0
 16 17  1  0
 17 18  2  0
 18 19  1  0
 19 20  2  0
 20 21  1  0
  7 22  2  0
 22 23  1  0
 22  2  1  0
 20 11  1  0
 18 13  1  0
  1 24  1  0
  1 25  1  0
  1 26  1  0
  3 27  1  0
  6 28  1  0
 12 29  1  0
 14 30  1  0
 15 31  1  0
 16 32  1  0
 17 33  1  0
 19 34  1  0
 23 35  1  0
M  CHG  2   8  -1  21  -1
M  END
>  <UniqueID>  (6) 
6

>  <SMILES>  (6) 
Cc1cc(Cl)cc([N-]C(=O)c2cc3ccccc3cc2[O-])c1O

>  <Energy>  (6) 
49.2874076114396

>  <Genealogy>  (6) 
Cc1cc(Cl)cc([N-]C(=O)c2cc3ccccc3cc2[O-])c1O (protonated)
Cc1cc(Cl)cc([N-]C(=O)c2cc3ccccc3cc2[O-])c1O (3D coordinates assigned)
Cc1cc(Cl)cc([N-]C(=O)c2cc3ccccc3cc2[O-])c1O (optimized conformer: 49.2874076114396 kcal/mol)

>  <smiles>  (6) 
Cc1cc(Cl)cc(NC(=O)c2cc3ccccc3cc2O)c1O

>  <score_type>  (6) 
oracle

>  <origin>  (6) 
adgpu

>  <m_score__min__energy>  (6) 
-12.81

>  <m_primary>  (6) 
energy

$$$$
6:0
     RDKit          3D

 43 45  0  0  0  0  0  0  0  0999 V2000
   -0.9350   19.2410  -31.1640 C   0  0  0  0  0  0  0  0  0  0  0  0
   -1.7710   20.0480  -30.2210 C   0  0  0  0  0  0  0  0  0  0  0  0
   -3.0180   20.0970  -30.3990 O   0  0  0  0  0  0  0  0  0  0  0  0
   -1.1640   20.8180  -29.1640 N   0  0  0  0  0  0  0  0  0  0  0  0
   -0.3620   20.1280  -28.1440 C   0  0  0  0  0  0  0  0  0  0  0  0
    0.9230   20.9090  -27.8780 C   0  0  0  0  0  0  0  0  0  0  0  0
    0.5990   22.3250  -27.4000 C   0  0  0  0  0  0  0  0  0  0  0  0
   -0.4160   23.0090  -28.2830 C   0  0  0  0  0  0  0  0  0  0  0  0
   -0.5390   24.4030  -28.2230 C   0  0  0  0  0  0  0  0  0  0  0  0
   -1.5260   25.0670  -28.9560 C   0  0  0  0  0  0  0  0  0  0  0  0
   -1.5610   26.4540  -28.9110 O   0  0  0  0  0  0  0  0  0  0  0  0
   -2.4420   24.3290  -29.7320 C   0  0  0  0  0  0  0  0  0  0  0  0
   -3.5150   24.9360  -30.4700 N   0  0  0  0  0  0  0  0  0  0  0  0
   -5.1890   24.4810  -30.4220 S   0  0  0  0  0  0  0  0  0  0  0  0
   -5.6040   24.2600  -28.9940 O   0  0  0  0  0  0  0  0  0  0  0  0
   -6.0130   25.5940  -31.0040 O   0  0  0  0  0  0  0  0  0  0  0  0
   -5.4530   23.0300  -31.3860 C   0  0  0  0  0  0  0  0  0  0  0  0
   -4.4020   22.4980  -32.1450 C   0  0  0  0  0  0  0  0  0  0  0  0
   -4.6030   21.3490  -32.9130 C   0  0  0  0  0  0  0  0  0  0  0  0
   -5.8520   20.7250  -32.9270 C   0  0  0  0  0  0  0  0  0  0  0  0
   -6.9120   21.2350  -32.1560 C   0  0  0  0  0  0  0  0  0  0  0  0
   -8.2750   20.5920  -32.2090 C   0  0  0  0  0  0  0  0  0  0  0  0
   -8.4470   19.9920  -33.4420 F   0  0  0  0  0  0  0  0  0  0  0  0
   -8.4040   19.6340  -31.2180 F   0  0  0  0  0  0  0  0  0  0  0  0
   -9.2670   21.5390  -32.0250 F   0  0  0  0  0  0  0  0  0  0  0  0
   -6.7090   22.4070  -31.4060 C   0  0  0  0  0  0  0  0  0  0  0  0
   -2.3110   22.9370  -29.8020 C   0  0  0  0  0  0  0  0  0  0  0  0
   -1.2980   22.2600  -29.0950 C   0  0  0  0  0  0  0  0  0  0  0  0
   -0.2600   18.5894  -30.5898 H   0  0  0  0  0  0  0  0  0  0  0  0
   -1.5890   18.6240  -31.7977 H   0  0  0  0  0  0  0  0  0  0  0  0
   -0.3415   19.9164  -31.7977 H   0  0  0  0  0  0  0  0  0  0  0  0
   -0.9426   20.0528  -27.2127 H   0  0  0  0  0  0  0  0  0  0  0  0
   -0.1059   19.1208  -28.5046 H   0  0  0  0  0  0  0  0  0  0  0  0
    1.5082   20.3906  -27.1042 H   0  0  0  0  0  0  0  0  0  0  0  0
    1.5012   20.9719  -28.8117 H   0  0  0  0  0  0  0  0  0  0  0  0
    0.1982   22.2701  -26.3771 H   0  0  0  0  0  0  0  0  0  0  0  0
    1.5277   22.9134  -27.4363 H   0  0  0  0  0  0  0  0  0  0  0  0
    0.1501   24.9823  -27.5909 H   0  0  0  0  0  0  0  0  0  0  0  0
   -3.4165   22.9865  -32.1359 H   0  0  0  0  0  0  0  0  0  0  0  0
   -3.7757   20.9348  -33.5080 H   0  0  0  0  0  0  0  0  0  0  0  0
   -6.0080   19.8286  -33.5451 H   0  0  0  0  0  0  0  0  0  0  0  0
   -7.5416   22.8382  -30.8308 H   0  0  0  0  0  0  0  0  0  0  0  0
   -3.0133   22.3602  -30.4217 H   0  0  0  0  0  0  0  0  0  0  0  0
  1  2  1  0
  2  3  2  0
  2  4  1  0
  4  5  1  0
  5  6  1  0
  6  7  1  0
  7  8  1  0
  8  9  2  0
  9 10  1  0
 10 11  1  0
 10 12  2  0
 12 13  1  0
 13 14  1  0
 14 15  2  0
 14 16  2  0
 14 17  1  0
 17 18  2  0
 18 19  1  0
 19 20  2  0
 20 21  1  0
 21 22  1  0
 22 23  1  0
 22 24  1  0
 22 25  1  0
 21 26  2  0
 12 27  1  0
 27 28  2  0
 28  4  1  0
 28  8  1  0
 26 17  1  0
  1 29  1  0
  1 30  1  0
  1 31  1  0
  5 32  1  0
  5 33  1  0
  6 34  1  0
  6 35  1  0
  7 36  1  0
  7 37  1  0
  9 38  1  0
 18 39  1  0
 19 40  1  0
 20 41  1  0
 26 42  1  0
 27 43  1  0
M  CHG  2  11  -1  13  -1
M  END
>  <UniqueID>  (7) 
7

>  <SMILES>  (7) 
CC(=O)N1CCCc2cc([O-])c([N-]S(=O)(=O)c3cccc(C(F)(F)F)c3)cc21

>  <Energy>  (7) 
56.10173312759447

>  <Genealogy>  (7) 
CC(=O)N1CCCc2cc([O-])c([N-]S(=O)(=O)c3cccc(C(F)(F)F)c3)cc21 (protonated)
CC(=O)N1CCCc2cc([O-])c([N-]S(=O)(=O)c3cccc(C(F)(F)F)c3)cc21 (3D coordinates assigned)
CC(=O)N1CCCc2cc([O-])c([N-]S(=O)(=O)c3cccc(C(F)(F)F)c3)cc21 (nonaromatic ring conformer: 56.10173312759447 kcal/mol)

>  <smiles>  (7) 
CC(=O)N1CCCc2cc(O)c(NS(=O)(=O)c3cccc(C(F)(F)F)c3)cc21

>  <score_type>  (7) 
oracle

>  <origin>  (7) 
adgpu

>  <m_score__min__energy>  (7) 
-12.82

>  <m_primary>  (7) 
energy

$$$$
7:0
     RDKit          3D

 58 61  0  0  0  0  0  0  0  0999 V2000
   -6.2060   14.6390  -34.2670 C   0  0  0  0  0  0  0  0  0  0  0  0
   -5.8530   16.0500  -33.9000 C   0  0  0  0  0  0  0  0  0  0  0  0
   -4.8470   16.7280  -34.6100 C   0  0  0  0  0  0  0  0  0  0  0  0
   -4.4890   18.0300  -34.2470 C   0  0  0  0  0  0  0  0  0  0  0  0
   -5.1220   18.6630  -33.1670 C   0  0  0  0  0  0  0  0  0  0  0  0
   -4.6380   20.2920  -32.7120 S   0  0  0  0  0  0  0  0  0  0  0  0
   -3.7750   20.9100  -33.7770 O   0  0  0  0  0  0  0  0  0  0  0  0
   -3.8310   20.2210  -31.4450 O   0  0  0  0  0  0  0  0  0  0  0  0
   -6.0610   21.2740  -32.4830 N   0  0  0  0  0  0  0  0  0  0  0  0
   -7.3400   20.8230  -33.0400 C   0  0  0  0  0  0  0  0  0  0  0  0
   -8.4240   20.9160  -31.9710 C   0  0  0  0  0  0  0  0  0  0  0  0
   -8.5740   22.3680  -31.4990 C   0  0  0  0  0  0  0  0  0  0  0  0
   -7.2460   23.0130  -31.1790 C   0  0  0  0  0  0  0  0  0  0  0  0
   -7.2320   24.2020  -30.4370 C   0  0  0  0  0  0  0  0  0  0  0  0
   -6.0360   24.8760  -30.1920 C   0  0  0  0  0  0  0  0  0  0  0  0
   -6.0690   26.0600  -29.4570 O   0  0  0  0  0  0  0  0  0  0  0  0
   -4.8300   24.3580  -30.6930 C   0  0  0  0  0  0  0  0  0  0  0  0
   -3.6030   25.0530  -30.4830 N   0  0  0  0  0  0  0  0  0  0  0  0
   -2.5760   24.6580  -29.1500 S   0  0  0  0  0  0  0  0  0  0  0  0
   -1.5590   25.7500  -28.9690 O   0  0  0  0  0  0  0  0  0  0  0  0
   -3.3980   24.5620  -27.8950 O   0  0  0  0  0  0  0  0  0  0  0  0
   -1.7460   23.1350  -29.4550 C   0  0  0  0  0  0  0  0  0  0  0  0
   -1.7900   22.5510  -30.7250 C   0  0  0  0  0  0  0  0  0  0  0  0
   -1.1520   21.3340  -30.9600 C   0  0  0  0  0  0  0  0  0  0  0  0
   -0.4500   20.6820  -29.9300 C   0  0  0  0  0  0  0  0  0  0  0  0
    0.2440   19.3800  -30.2230 C   0  0  0  0  0  0  0  0  0  0  0  0
   -0.3710   21.2890  -28.6530 C   0  0  0  0  0  0  0  0  0  0  0  0
    0.3820   20.6400  -27.5190 C   0  0  0  0  0  0  0  0  0  0  0  0
   -1.0310   22.5090  -28.4270 C   0  0  0  0  0  0  0  0  0  0  0  0
   -4.8340   23.1750  -31.4400 C   0  0  0  0  0  0  0  0  0  0  0  0
   -6.0350   22.4900  -31.6960 C   0  0  0  0  0  0  0  0  0  0  0  0
   -6.1150   17.9840  -32.4530 C   0  0  0  0  0  0  0  0  0  0  0  0
   -6.4740   16.6810  -32.8100 C   0  0  0  0  0  0  0  0  0  0  0  0
   -6.3539   14.0480  -33.3511 H   0  0  0  0  0  0  0  0  0  0  0  0
   -7.1328   14.6352  -34.8595 H   0  0  0  0  0  0  0  0  0  0  0  0
   -5.3902   14.1992  -34.8595 H   0  0  0  0  0  0  0  0  0  0  0  0
   -4.3407   16.2337  -35.4522 H   0  0  0  0  0  0  0  0  0  0  0  0
   -3.7075   18.5603  -34.8109 H   0  0  0  0  0  0  0  0  0  0  0  0
   -7.6125   21.4602  -33.8943 H   0  0  0  0  0  0  0  0  0  0  0  0
   -7.2453   19.7795  -33.3749 H   0  0  0  0  0  0  0  0  0  0  0  0
   -9.3798   20.5690  -32.3906 H   0  0  0  0  0  0  0  0  0  0  0  0
   -8.1411   20.2860  -31.1148 H   0  0  0  0  0  0  0  0  0  0  0  0
   -9.0654   22.9482  -32.2939 H   0  0  0  0  0  0  0  0  0  0  0  0
   -9.1720   22.3590  -30.5758 H   0  0  0  0  0  0  0  0  0  0  0  0
   -8.1754   24.6082  -30.0433 H   0  0  0  0  0  0  0  0  0  0  0  0
   -5.4750   26.2120  -28.6540 H   0  0  0  0  0  0  0  0  0  0  0  0
   -2.3298   23.0536  -31.5411 H   0  0  0  0  0  0  0  0  0  0  0  0
   -1.1980   20.8792  -31.9605 H   0  0  0  0  0  0  0  0  0  0  0  0
    0.5082   18.8844  -29.2772 H   0  0  0  0  0  0  0  0  0  0  0  0
   -0.4269   18.7293  -30.8030 H   0  0  0  0  0  0  0  0  0  0  0  0
    1.1582   19.5742  -30.8030 H   0  0  0  0  0  0  0  0  0  0  0  0
   -0.0256   20.9913  -26.5596 H   0  0  0  0  0  0  0  0  0  0  0  0
    0.2741   19.5473  -27.5851 H   0  0  0  0  0  0  0  0  0  0  0  0
    1.4468   20.9080  -27.5851 H   0  0  0  0  0  0  0  0  0  0  0  0
   -0.9853   22.9767  -27.4324 H   0  0  0  0  0  0  0  0  0  0  0  0
   -3.8866   22.7761  -31.8316 H   0  0  0  0  0  0  0  0  0  0  0  0
   -6.6155   18.4776  -31.6069 H   0  0  0  0  0  0  0  0  0  0  0  0
   -7.2457   16.1481  -32.2351 H   0  0  0  0  0  0  0  0  0  0  0  0
  1  2  1  0
  2  3  2  0
  3  4  1  0
  4  5  2  0
  5  6  1  0
  6  7  2  0
  6  8  2  0
  6  9  1  0
  9 10  1  0
 10 11  1  0
 11 12  1  0
 12 13  1  0
 13 14  2  0
 14 15  1  0
 15 16  1  0
 15 17  2  0
 17 18  1  0
 18 19  1  0
 19 20  2  0
 19 21  2  0
 19 22  1  0
 22 23  2  0
 23 24  1  0
 24 25  2  0
 25 26  1  0
 25 27  1  0
 27 28  1  0
 27 29  2  0
 17 30  1  0
 30 31  2  0
  5 32  1  0
 32 33  2  0
 33  2  1  0
 31  9  1  0
 31 13  1  0
 29 22  1  0
  1 34  1  0
  1 35  1  0
  1 36  1  0
  3 37  1  0
  4 38  1  0
 10 39  1  0
 10 40  1  0
 11 41  1  0
 11 42  1  0
 12 43  1  0
 12 44  1  0
 14 45  1  0
 16 46  1  0
 23 47  1  0
 24 48  1  0
 26 49  1  0
 26 50  1  0
 26 51  1  0
 28 52  1  0
 28 53  1  0
 28 54  1  0
 29 55  1  0
 30 56  1  0
 32 57  1  0
 33 58  1  0
M  CHG  1  18  -1
M  END
>  <UniqueID>  (8) 
8

>  <SMILES>  (8) 
Cc1ccc(S(=O)(=O)N2CCCc3cc(O)c([N-]S(=O)(=O)c4ccc(C)c(C)c4)cc32)cc1

>  <Energy>  (8) 
69.6092256343313

>  <Genealogy>  (8) 
Cc1ccc(S(=O)(=O)N2CCCc3cc(O)c([N-]S(=O)(=O)c4ccc(C)c(C)c4)cc32)cc1 (protonated)
Cc1ccc(S(=O)(=O)N2CCCc3cc(O)c([N-]S(=O)(=O)c4ccc(C)c(C)c4)cc32)cc1 (3D coordinates assigned)
Cc1ccc(S(=O)(=O)N2CCCc3cc(O)c([N-]S(=O)(=O)c4ccc(C)c(C)c4)cc32)cc1 (nonaromatic ring conformer: 69.6092256343313 kcal/mol)

>  <smiles>  (8) 
Cc1ccc(S(=O)(=O)N2CCCc3cc(O)c(NS(=O)(=O)c4ccc(C)c(C)c4)cc32)cc1

>  <score_type>  (8) 
oracle

>  <origin>  (8) 
adgpu

>  <m_score__min__energy>  (8) 
-12.949999999999999

>  <m_primary>  (8) 
energy

$$$$
8:0
     RDKit          3D

 44 46  0  0  0  0  0  0  0  0999 V2000
   -0.8420   26.9520  -27.9060 C   0  0  0  0  0  0  0  0  0  0  0  0
   -1.4590   26.1020  -28.8680 O   0  0  0  0  0  0  0  0  0  0  0  0
   -1.7620   24.7480  -28.6530 C   0  0  0  0  0  0  0  0  0  0  0  0
   -1.0970   23.9770  -27.6790 C   0  0  0  0  0  0  0  0  0  0  0  0
   -1.4260   22.6300  -27.5000 C   0  0  0  0  0  0  0  0  0  0  0  0
   -2.4170   22.0400  -28.2890 C   0  0  0  0  0  0  0  0  0  0  0  0
   -3.0850   22.7970  -29.2530 C   0  0  0  0  0  0  0  0  0  0  0  0
   -2.7650   24.1480  -29.4350 C   0  0  0  0  0  0  0  0  0  0  0  0
   -3.4820   24.9160  -30.4000 N   0  0  0  0  0  0  0  0  0  0  0  0
   -5.2110   24.8720  -30.4580 S   0  0  0  0  0  0  0  0  0  0  0  0
   -5.7540   24.9440  -29.0590 O   0  0  0  0  0  0  0  0  0  0  0  0
   -5.7220   26.0520  -31.2350 O   0  0  0  0  0  0  0  0  0  0  0  0
   -5.7430   23.3740  -31.2190 C   0  0  0  0  0  0  0  0  0  0  0  0
   -4.7970   22.4770  -31.7270 C   0  0  0  0  0  0  0  0  0  0  0  0
   -5.2040   21.2570  -32.2690 C   0  0  0  0  0  0  0  0  0  0  0  0
   -6.5690   20.9140  -32.3220 C   0  0  0  0  0  0  0  0  0  0  0  0
   -7.5140   21.7960  -31.7550 C   0  0  0  0  0  0  0  0  0  0  0  0
   -7.0990   23.0310  -31.2320 C   0  0  0  0  0  0  0  0  0  0  0  0
   -8.9660   21.4150  -31.7180 C   0  0  0  0  0  0  0  0  0  0  0  0
   -9.1070   19.9040  -31.5540 C   0  0  0  0  0  0  0  0  0  0  0  0
   -8.3910   19.1740  -32.6940 C   0  0  0  0  0  0  0  0  0  0  0  0
   -7.0070   19.6470  -32.8770 N   0  0  0  0  0  0  0  0  0  0  0  0
   -6.1940   18.9130  -33.8110 C   0  0  0  0  0  0  0  0  0  0  0  0
   -5.3800   17.7340  -33.3730 C   0  0  0  0  0  0  0  0  0  0  0  0
   -6.1200   19.2950  -35.0090 O   0  0  0  0  0  0  0  0  0  0  0  0
   -1.0946   26.6039  -26.8936 H   0  0  0  0  0  0  0  0  0  0  0  0
    0.2494   26.9267  -28.0407 H   0  0  0  0  0  0  0  0  0  0  0  0
   -1.2043   27.9819  -28.0407 H   0  0  0  0  0  0  0  0  0  0  0  0
   -0.3154   24.4370  -27.0566 H   0  0  0  0  0  0  0  0  0  0  0  0
   -0.9040   22.0338  -26.7370 H   0  0  0  0  0  0  0  0  0  0  0  0
   -2.6708   20.9787  -28.1504 H   0  0  0  0  0  0  0  0  0  0  0  0
   -3.8656   22.3305  -29.8719 H   0  0  0  0  0  0  0  0  0  0  0  0
   -3.7279   22.7344  -31.6991 H   0  0  0  0  0  0  0  0  0  0  0  0
   -4.4510   20.5562  -32.6588 H   0  0  0  0  0  0  0  0  0  0  0  0
   -7.8445   23.7330  -30.8301 H   0  0  0  0  0  0  0  0  0  0  0  0
   -9.4533   21.9201  -30.8710 H   0  0  0  0  0  0  0  0  0  0  0  0
   -9.4430   21.7212  -32.6607 H   0  0  0  0  0  0  0  0  0  0  0  0
   -8.6633   19.6007  -30.5942 H   0  0  0  0  0  0  0  0  0  0  0  0
  -10.1748   19.6408  -31.5769 H   0  0  0  0  0  0  0  0  0  0  0  0
   -8.3703   18.0978  -32.4674 H   0  0  0  0  0  0  0  0  0  0  0  0
   -8.9426   19.3774  -33.6237 H   0  0  0  0  0  0  0  0  0  0  0  0
   -5.3530   17.6950  -32.2740 H   0  0  0  0  0  0  0  0  0  0  0  0
   -5.8337   16.8104  -33.7617 H   0  0  0  0  0  0  0  0  0  0  0  0
   -4.3555   17.8310  -33.7617 H   0  0  0  0  0  0  0  0  0  0  0  0
  1  2  1  0
  2  3  1  0
  3  4  2  0
  4  5  1  0
  5  6  2  0
  6  7  1  0
  7  8  2  0
  8  9  1  0
  9 10  1  0
 10 11  2  0
 10 12  2  0
 10 13  1  0
 13 14  2  0
 14 15  1  0
 15 16  2  0
 16 17  1  0
 17 18  2  0
 17 19  1  0
 19 20  1  0
 20 21  1  0
 21 22  1  0
 22 23  1  0
 23 24  1  0
 23 25  2  0
  8  3  1  0
 18 13  1  0
 22 16  1  0
  1 26  1  0
  1 27  1  0
  1 28  1  0
  4 29  1  0
  5 30  1  0
  6 31  1  0
  7 32  1  0
 14 33  1  0
 15 34  1  0
 18 35  1  0
 19 36  1  0
 19 37  1  0
 20 38  1  0
 20 39  1  0
 21 40  1  0
 21 41  1  0
 24 42  1  0
 24 43  1  0
 24 44  1  0
M  CHG  1   9  -1
M  END
>  <UniqueID>  (9) 
9

>  <SMILES>  (9) 
COc1ccccc1[N-]S(=O)(=O)c1ccc2c(c1)CCCN2C(C)=O

>  <Energy>  (9) 
57.49850981961879

>  <Genealogy>  (9) 
COc1ccccc1[N-]S(=O)(=O)c1ccc2c(c1)CCCN2C(C)=O (protonated)
COc1ccccc1[N-]S(=O)(=O)c1ccc2c(c1)CCCN2C(C)=O (3D coordinates assigned)
COc1ccccc1[N-]S(=O)(=O)c1ccc2c(c1)CCCN2C(C)=O (nonaromatic ring conformer: 57.49850981961879 kcal/mol)

>  <smiles>  (9) 
COc1ccccc1NS(=O)(=O)c1ccc2c(c1)CCCN2C(C)=O

>  <score_type>  (9) 
oracle

>  <origin>  (9) 
adgpu

>  <m_score__min__energy>  (9) 
-11.619999999999999

>  <m_primary>  (9) 
energy

$$$$
9:0
     RDKit          3D

 55 58  0  0  0  0  0  0  0  0999 V2000
   -2.5030   18.2130  -34.0720 C   0  0  0  0  0  0  0  0  0  0  0  0
   -3.5540   19.0840  -33.5600 N   0  0  0  0  0  0  0  0  0  0  0  0
   -4.8090   18.7120  -33.3950 N   0  0  0  0  0  0  0  0  0  0  0  0
   -5.4450   19.8040  -32.9260 C   0  0  0  0  0  0  0  0  0  0  0  0
   -6.8410   19.8260  -32.6030 N   0  0  0  0  0  0  0  0  0  0  0  0
   -7.5830   21.0450  -32.3500 C   0  0  0  0  0  0  0  0  0  0  0  0
   -8.9650   20.5940  -31.8970 C   0  0  0  0  0  0  0  0  0  0  0  0
   -9.0800   19.1230  -32.2970 C   0  0  0  0  0  0  0  0  0  0  0  0
   -7.6530   18.6290  -32.4950 C   0  0  0  0  0  0  0  0  0  0  0  0
   -4.6320   20.8750  -32.7860 N   0  0  0  0  0  0  0  0  0  0  0  0
   -3.4510   20.3820  -33.2090 C   0  0  0  0  0  0  0  0  0  0  0  0
   -2.1790   21.1770  -33.2020 C   0  0  0  0  0  0  0  0  0  0  0  0
   -1.5040   21.0930  -31.8320 C   0  0  0  0  0  0  0  0  0  0  0  0
   -2.1030   22.0950  -30.8950 C   0  0  0  0  0  0  0  0  0  0  0  0
   -1.4110   22.8610  -29.9840 C   0  0  0  0  0  0  0  0  0  0  0  0
   -2.3080   23.5640  -29.2720 N   0  0  0  0  0  0  0  0  0  0  0  0
   -2.0000   24.4670  -28.2000 C   0  0  0  0  0  0  0  0  0  0  0  0
   -0.9850   25.4260  -28.3570 C   0  0  0  0  0  0  0  0  0  0  0  0
   -0.6910   26.3160  -27.3200 C   0  0  0  0  0  0  0  0  0  0  0  0
   -1.4160   26.2660  -26.1260 C   0  0  0  0  0  0  0  0  0  0  0  0
   -2.4420   25.3310  -25.9720 C   0  0  0  0  0  0  0  0  0  0  0  0
   -2.7390   24.4380  -27.0060 C   0  0  0  0  0  0  0  0  0  0  0  0
   -3.5220   23.1970  -29.7530 C   0  0  0  0  0  0  0  0  0  0  0  0
   -4.8430   23.5800  -29.1510 C   0  0  0  0  0  0  0  0  0  0  0  0
   -5.6160   24.8660  -30.1170 S   0  0  0  0  0  0  0  0  0  0  0  0
   -6.7510   24.1680  -31.2950 C   0  0  0  0  0  0  0  0  0  0  0  0
   -4.5620   25.6530  -30.8470 O   0  0  0  0  0  0  0  0  0  0  0  0
   -6.3680   25.7850  -29.1960 O   0  0  0  0  0  0  0  0  0  0  0  0
   -3.4280   22.2820  -30.7420 N   0  0  0  0  0  0  0  0  0  0  0  0
   -1.9582   17.7615  -33.2297 H   0  0  0  0  0  0  0  0  0  0  0  0
   -2.9520   17.4186  -34.6863 H   0  0  0  0  0  0  0  0  0  0  0  0
   -1.8058   18.8017  -34.6863 H   0  0  0  0  0  0  0  0  0  0  0  0
   -7.0940   21.6360  -31.5616 H   0  0  0  0  0  0  0  0  0  0  0  0
   -7.6351   21.6838  -33.2440 H   0  0  0  0  0  0  0  0  0  0  0  0
   -9.0643   20.7026  -30.8069 H   0  0  0  0  0  0  0  0  0  0  0  0
   -9.7582   21.2004  -32.3586 H   0  0  0  0  0  0  0  0  0  0  0  0
   -9.5765   18.5482  -31.5013 H   0  0  0  0  0  0  0  0  0  0  0  0
   -9.6795   18.9997  -33.2110 H   0  0  0  0  0  0  0  0  0  0  0  0
   -7.3328   18.0234  -31.6344 H   0  0  0  0  0  0  0  0  0  0  0  0
   -7.5615   17.9915  -33.3867 H   0  0  0  0  0  0  0  0  0  0  0  0
   -1.4973   20.7766  -33.9669 H   0  0  0  0  0  0  0  0  0  0  0  0
   -2.4152   22.2292  -33.4190 H   0  0  0  0  0  0  0  0  0  0  0  0
   -1.6434   20.0826  -31.4202 H   0  0  0  0  0  0  0  0  0  0  0  0
   -0.4315   21.3082  -31.9479 H   0  0  0  0  0  0  0  0  0  0  0  0
   -0.3184   22.8920  -29.8609 H   0  0  0  0  0  0  0  0  0  0  0  0
   -0.4198   25.4765  -29.2993 H   0  0  0  0  0  0  0  0  0  0  0  0
    0.1124   27.0571  -27.4438 H   0  0  0  0  0  0  0  0  0  0  0  0
   -1.1787   26.9625  -25.3083 H   0  0  0  0  0  0  0  0  0  0  0  0
   -3.0176   25.2971  -25.0352 H   0  0  0  0  0  0  0  0  0  0  0  0
   -3.5545   23.7100  -26.8839 H   0  0  0  0  0  0  0  0  0  0  0  0
   -5.5005   22.6984  -29.1285 H   0  0  0  0  0  0  0  0  0  0  0  0
   -4.6756   23.9522  -28.1295 H   0  0  0  0  0  0  0  0  0  0  0  0
   -7.5701   23.6643  -30.7609 H   0  0  0  0  0  0  0  0  0  0  0  0
   -7.1629   24.9691  -31.9264 H   0  0  0  0  0  0  0  0  0  0  0  0
   -6.2219   23.4390  -31.9264 H   0  0  0  0  0  0  0  0  0  0  0  0
  1  2  1  0
  2  3  1  0
  3  4  2  0
  4  5  1  0
  5  6  1  0
  6  7  1  0
  7  8  1  0
  8  9  1  0
  4 10  1  0
 10 11  2  0
 11 12  1  0
 12 13  1  0
 13 14  1  0
 14 15  2  0
 15 16  1  0
 16 17  1  0
 17 18  2  0
 18 19  1  0
 19 20  2  0
 20 21  1  0
 21 22  2  0
 16 23  1  0
 23 24  1  0
 24 25  1  0
 25 26  1  0
 25 27  2  0
 25 28  2  0
 23 29  2  0
 11  2  1  0
 29 14  1  0
  9  5  1  0
 22 17  1  0
  1 30  1  0
  1 31  1  0
  1 32  1  0
  6 33  1  0
  6 34  1  0
  7 35  1  0
  7 36  1  0
  8 37  1  0
  8 38  1  0
  9 39  1  0
  9 40  1  0
 12 41  1  0
 12 42  1  0
 13 43  1  0
 13 44  1  0
 15 45  1  0
 18 46  1  0
 19 47  1  0
 20 48  1  0
 21 49  1  0
 22 50  1  0
 24 51  1  0
 24 52  1  0
 26 53  1  0
 26 54  1  0
 26 55  1  0
M  END
>  <UniqueID>  (10) 
10

>  <SMILES>  (10) 
Cn1nc(N2CCCC2)nc1CCc1cn(-c2ccccc2)c(CS(C)(=O)=O)n1

>  <Energy>  (10) 
109.110789257308

>  <Genealogy>  (10) 
Cn1nc(N2CCCC2)nc1CCc1cn(-c2ccccc2)c(CS(C)(=O)=O)n1 (3D coordinates assigned)
Cn1nc(N2CCCC2)nc1CCc1cn(-c2ccccc2)c(CS(C)(=O)=O)n1 (nonaromatic ring conformer: 109.110789257308 kcal/mol)

>  <smiles>  (10) 
Cn1nc(N2CCCC2)nc1CCc1cn(-c2ccccc2)c(CS(C)(=O)=O)n1

>  <score_type>  (10) 
oracle

>  <origin>  (10) 
adgpu

>  <m_score__min__energy>  (10) 
-9.7699999999999996

>  <m_primary>  (10) 
energy

$$$$
10:0
     RDKit          3D

 48 50  0  0  0  0  0  0  0  0999 V2000
   -9.3370   21.8030  -30.9220 C   0  0  0  0  0  0  0  0  0  0  0  0
   -8.2810   21.0300  -31.6660 C   0  0  0  0  0  0  0  0  0  0  0  0
   -8.6060   19.7680  -32.1900 C   0  0  0  0  0  0  0  0  0  0  0  0
   -7.6560   19.0160  -32.8800 C   0  0  0  0  0  0  0  0  0  0  0  0
   -6.3660   19.5180  -33.0690 C   0  0  0  0  0  0  0  0  0  0  0  0
   -5.1660   18.6080  -33.9840 S   0  0  0  0  0  0  0  0  0  0  0  0
   -5.6690   18.2760  -35.3610 O   0  0  0  0  0  0  0  0  0  0  0  0
   -4.8830   17.3200  -33.2630 O   0  0  0  0  0  0  0  0  0  0  0  0
   -3.7000   19.5280  -34.0940 N   0  0  0  0  0  0  0  0  0  0  0  0
   -2.7810   19.7710  -33.0190 C   0  0  0  0  0  0  0  0  0  0  0  0
   -2.7100   21.0160  -32.3700 C   0  0  0  0  0  0  0  0  0  0  0  0
   -1.8100   21.2190  -31.3140 C   0  0  0  0  0  0  0  0  0  0  0  0
   -0.9600   20.1780  -30.9120 C   0  0  0  0  0  0  0  0  0  0  0  0
   -1.0040   18.9480  -31.5790 C   0  0  0  0  0  0  0  0  0  0  0  0
   -1.9110   18.7420  -32.6270 C   0  0  0  0  0  0  0  0  0  0  0  0
   -1.9530   17.5150  -33.2880 O   0  0  0  0  0  0  0  0  0  0  0  0
    0.0000   20.4290  -29.7850 C   0  0  0  0  0  0  0  0  0  0  0  0
   -0.7080   21.1990  -28.6640 C   0  0  0  0  0  0  0  0  0  0  0  0
   -1.4200   22.4860  -29.1480 C   0  0  0  0  0  0  0  0  0  0  0  0
   -1.6590   22.5730  -30.6710 C   0  0  0  0  0  0  0  0  0  0  0  0
   -6.0280   20.7730  -32.5530 C   0  0  0  0  0  0  0  0  0  0  0  0
   -6.9700   21.5440  -31.8410 C   0  0  0  0  0  0  0  0  0  0  0  0
   -6.6050   22.8370  -31.3090 N   0  0  0  0  0  0  0  0  0  0  0  0
   -5.2220   23.2220  -31.0260 C   0  0  0  0  0  0  0  0  0  0  0  0
   -5.1270   24.6830  -30.7110 C   0  0  0  0  0  0  0  0  0  0  0  0
   -3.8480   25.2940  -30.5510 N   0  0  0  0  0  0  0  0  0  0  0  0
   -6.1730   25.3710  -30.5770 O   0  0  0  0  0  0  0  0  0  0  0  0
   -9.1806   21.6885  -29.8392 H   0  0  0  0  0  0  0  0  0  0  0  0
   -9.2705   22.8674  -31.1916 H   0  0  0  0  0  0  0  0  0  0  0  0
  -10.3315   21.4179  -31.1916 H   0  0  0  0  0  0  0  0  0  0  0  0
   -9.6218   19.3683  -32.0544 H   0  0  0  0  0  0  0  0  0  0  0  0
   -7.9228   18.0252  -33.2764 H   0  0  0  0  0  0  0  0  0  0  0  0
   -3.3659   21.8378  -32.6932 H   0  0  0  0  0  0  0  0  0  0  0  0
   -0.3225   18.1385  -31.2786 H   0  0  0  0  0  0  0  0  0  0  0  0
   -2.7690   17.2210  -33.8090 H   0  0  0  0  0  0  0  0  0  0  0  0
    0.3645   19.4675  -29.3943 H   0  0  0  0  0  0  0  0  0  0  0  0
    0.8485   21.0232  -30.1551 H   0  0  0  0  0  0  0  0  0  0  0  0
   -1.4589   20.5369  -28.2082 H   0  0  0  0  0  0  0  0  0  0  0  0
    0.0668   21.5097  -27.9477 H   0  0  0  0  0  0  0  0  0  0  0  0
   -2.3974   22.5431  -28.6465 H   0  0  0  0  0  0  0  0  0  0  0  0
   -0.7474   23.3194  -28.8968 H   0  0  0  0  0  0  0  0  0  0  0  0
   -2.5767   23.1522  -30.8507 H   0  0  0  0  0  0  0  0  0  0  0  0
   -0.7783   23.0570  -31.1184 H   0  0  0  0  0  0  0  0  0  0  0  0
   -5.0115   21.1649  -32.7049 H   0  0  0  0  0  0  0  0  0  0  0  0
   -7.3520   23.5470  -31.1290 H   0  0  0  0  0  0  0  0  0  0  0  0
   -4.8563   22.6435  -30.1648 H   0  0  0  0  0  0  0  0  0  0  0  0
   -4.6105   23.0143  -31.9164 H   0  0  0  0  0  0  0  0  0  0  0  0
   -3.5090   26.0100  -31.2310 H   0  0  0  0  0  0  0  0  0  0  0  0
  1  2  1  0
  2  3  2  0
  3  4  1  0
  4  5  2  0
  5  6  1  0
  6  7  2  0
  6  8  2  0
  6  9  1  0
  9 10  1  0
 10 11  2  0
 11 12  1  0
 12 13  2  0
 13 14  1  0
 14 15  2  0
 15 16  1  0
 13 17  1  0
 17 18  1  0
 18 19  1  0
 19 20  1  0
  5 21  1  0
 21 22  2  0
 22 23  1  0
 23 24  1  0
 24 25  1  0
 25 26  1  0
 25 27  2  0
 22  2  1  0
 15 10  1  0
 20 12  1  0
  1 28  1  0
  1 29  1  0
  1 30  1  0
  3 31  1  0
  4 32  1  0
 11 33  1  0
 14 34  1  0
 16 35  1  0
 17 36  1  0
 17 37  1  0
 18 38  1  0
 18 39  1  0
 19 40  1  0
 19 41  1  0
 20 42  1  0
 20 43  1  0
 21 44  1  0
 23 45  1  0
 24 46  1  0
 24 47  1  0
 26 48  1  0
M  CHG  2   9  -1  26  -1
M  END
>  <UniqueID>  (11) 
11

>  <SMILES>  (11) 
Cc1ccc(S(=O)(=O)[N-]c2cc3c(cc2O)CCCC3)cc1NCC([NH-])=O

>  <Energy>  (11) 
56.490230673797704

>  <Genealogy>  (11) 
Cc1ccc(S(=O)(=O)[N-]c2cc3c(cc2O)CCCC3)cc1NCC([NH-])=O (protonated)
Cc1ccc(S(=O)(=O)[N-]c2cc3c(cc2O)CCCC3)cc1NCC([NH-])=O (3D coordinates assigned)
Cc1ccc(S(=O)(=O)[N-]c2cc3c(cc2O)CCCC3)cc1NCC([NH-])=O (nonaromatic ring conformer: 56.490230673797704 kcal/mol)

>  <smiles>  (11) 
Cc1ccc(S(=O)(=O)Nc2cc3c(cc2O)CCCC3)cc1NCC(N)=O

>  <score_type>  (11) 
oracle

>  <origin>  (11) 
adgpu

>  <m_score__min__energy>  (11) 
-12.58

>  <m_primary>  (11) 
energy

$$$$
11:0
     RDKit          3D

 60 63  0  0  0  0  0  0  0  0999 V2000
   -0.2870   28.7990  -27.0900 C   0  0  0  0  0  0  0  0  0  0  0  0
   -0.3190   27.7190  -26.0430 C   0  0  0  0  0  0  0  0  0  0  0  0
   -0.8240   28.0180  -24.7660 C   0  0  0  0  0  0  0  0  0  0  0  0
   -0.8780   27.0340  -23.7790 C   0  0  0  0  0  0  0  0  0  0  0  0
   -0.4310   25.7420  -24.0500 C   0  0  0  0  0  0  0  0  0  0  0  0
    0.1020   25.4160  -25.3110 C   0  0  0  0  0  0  0  0  0  0  0  0
    0.5660   24.0270  -25.5720 C   0  0  0  0  0  0  0  0  0  0  0  0
    1.2000   23.4000  -24.6820 O   0  0  0  0  0  0  0  0  0  0  0  0
    0.3670   23.3960  -26.8450 N   0  0  0  0  0  0  0  0  0  0  0  0
   -0.7460   22.5520  -27.1770 C   0  0  0  0  0  0  0  0  0  0  0  0
   -0.9680   21.3680  -26.4500 C   0  0  0  0  0  0  0  0  0  0  0  0
   -2.0610   20.5500  -26.7400 C   0  0  0  0  0  0  0  0  0  0  0  0
   -2.9430   20.9040  -27.7600 C   0  0  0  0  0  0  0  0  0  0  0  0
   -2.7340   22.0750  -28.4950 C   0  0  0  0  0  0  0  0  0  0  0  0
   -1.6310   22.9080  -28.2250 C   0  0  0  0  0  0  0  0  0  0  0  0
   -1.4690   24.1680  -28.9940 C   0  0  0  0  0  0  0  0  0  0  0  0
   -0.3220   24.5650  -29.3340 O   0  0  0  0  0  0  0  0  0  0  0  0
   -2.6300   24.9140  -29.3840 N   0  0  0  0  0  0  0  0  0  0  0  0
   -3.8760   24.3880  -29.8660 C   0  0  0  0  0  0  0  0  0  0  0  0
   -5.1080   24.7070  -29.2660 C   0  0  0  0  0  0  0  0  0  0  0  0
   -6.2880   24.1050  -29.7170 C   0  0  0  0  0  0  0  0  0  0  0  0
   -6.2500   23.1580  -30.7490 C   0  0  0  0  0  0  0  0  0  0  0  0
   -7.7190   22.3000  -31.2300 S   0  0  0  0  0  0  0  0  0  0  0  0
   -8.6780   22.2650  -30.0720 O   0  0  0  0  0  0  0  0  0  0  0  0
   -8.3770   23.0440  -32.3610 O   0  0  0  0  0  0  0  0  0  0  0  0
   -7.3560   20.6700  -31.7530 N   0  0  0  0  0  0  0  0  0  0  0  0
   -8.5960   19.8920  -31.8840 C   0  0  0  0  0  0  0  0  0  0  0  0
   -8.2790   18.4010  -32.1140 C   0  0  0  0  0  0  0  0  0  0  0  0
   -6.8770   18.1830  -32.7090 C   0  0  0  0  0  0  0  0  0  0  0  0
   -6.5190   19.3010  -33.6910 C   0  0  0  0  0  0  0  0  0  0  0  0
   -6.6060   20.6940  -33.0280 C   0  0  0  0  0  0  0  0  0  0  0  0
   -5.0230   22.8390  -31.3480 C   0  0  0  0  0  0  0  0  0  0  0  0
   -3.8450   23.4490  -30.9050 C   0  0  0  0  0  0  0  0  0  0  0  0
    0.1590   26.4110  -26.3160 C   0  0  0  0  0  0  0  0  0  0  0  0
    0.7020   26.0870  -27.5650 O   0  0  0  0  0  0  0  0  0  0  0  0
   -0.2578   29.7836  -26.6004 H   0  0  0  0  0  0  0  0  0  0  0  0
    0.6079   28.6749  -27.7176 H   0  0  0  0  0  0  0  0  0  0  0  0
   -1.1876   28.7281  -27.7176 H   0  0  0  0  0  0  0  0  0  0  0  0
   -1.1791   29.0350  -24.5434 H   0  0  0  0  0  0  0  0  0  0  0  0
   -1.2750   27.2786  -22.7827 H   0  0  0  0  0  0  0  0  0  0  0  0
   -0.4955   24.9690  -23.2701 H   0  0  0  0  0  0  0  0  0  0  0  0
   -0.2735   21.0844  -25.6455 H   0  0  0  0  0  0  0  0  0  0  0  0
   -2.2263   19.6272  -26.1645 H   0  0  0  0  0  0  0  0  0  0  0  0
   -3.8056   20.2604  -27.9872 H   0  0  0  0  0  0  0  0  0  0  0  0
   -3.4394   22.3488  -29.2934 H   0  0  0  0  0  0  0  0  0  0  0  0
   -5.1438   25.4321  -28.4396 H   0  0  0  0  0  0  0  0  0  0  0  0
   -7.2505   24.3767  -29.2589 H   0  0  0  0  0  0  0  0  0  0  0  0
   -9.1882   19.9979  -30.9631 H   0  0  0  0  0  0  0  0  0  0  0  0
   -9.1633   20.2713  -32.7468 H   0  0  0  0  0  0  0  0  0  0  0  0
   -8.3391   17.8745  -31.1500 H   0  0  0  0  0  0  0  0  0  0  0  0
   -9.0128   18.0099  -32.8341 H   0  0  0  0  0  0  0  0  0  0  0  0
   -6.1383   18.1696  -31.8941 H   0  0  0  0  0  0  0  0  0  0  0  0
   -6.8706   17.2253  -33.2501 H   0  0  0  0  0  0  0  0  0  0  0  0
   -5.4926   19.1421  -34.0532 H   0  0  0  0  0  0  0  0  0  0  0  0
   -7.2394   19.2712  -34.5218 H   0  0  0  0  0  0  0  0  0  0  0  0
   -5.5858   21.0546  -32.8302 H   0  0  0  0  0  0  0  0  0  0  0  0
   -7.1439   21.3595  -33.7191 H   0  0  0  0  0  0  0  0  0  0  0  0
   -4.9868   22.1071  -32.1684 H   0  0  0  0  0  0  0  0  0  0  0  0
   -2.8858   23.1891  -31.3766 H   0  0  0  0  0  0  0  0  0  0  0  0
    0.6730   25.1530  -27.9560 H   0  0  0  0  0  0  0  0  0  0  0  0
  1  2  1  0
  2  3  2  0
  3  4  1  0
  4  5  2  0
  5  6  1  0
  6  7  1  0
  7  8  2  0
  7  9  1  0
  9 10  1  0
 10 11  2  0
 11 12  1  0
 12 13  2  0
 13 14  1  0
 14 15  2  0
 15 16  1  0
 16 17  2  0
 16 18  1  0
 18 19  1  0
 19 20  2  0
 20 21  1  0
 21 22  2  0
 22 23  1  0
 23 24  2  0
 23 25  2  0
 23 26  1  0
 26 27  1  0
 27 28  1  0
 28 29  1  0
 29 30  1  0
 30 31  1  0
 22 32  1  0
 32 33  2  0
  6 34  2  0
 34 35  1  0
 34  2  1  0
 15 10  1  0
 33 19  1  0
 31 26  1  0
  1 36  1  0
  1 37  1  0
  1 38  1  0
  3 39  1  0
  4 40  1  0
  5 41  1  0
 11 42  1  0
 12 43  1  0
 13 44  1  0
 14 45  1  0
 20 46  1  0
 21 47  1  0
 27 48  1  0
 27 49  1  0
 28 50  1  0
 28 51  1  0
 29 52  1  0
 29 53  1  0
 30 54  1  0
 30 55  1  0
 31 56  1  0
 31 57  1  0
 32 58  1  0
 33 59  1  0
 35 60  1  0
M  CHG  2   9  -1  18  -1
M  END
>  <UniqueID>  (12) 
12

>  <SMILES>  (12) 
Cc1cccc(C(=O)[N-]c2ccccc2C(=O)[N-]c2ccc(S(=O)(=O)N3CCCCC3)cc2)c1O

>  <Energy>  (12) 
82.39575622867423

>  <Genealogy>  (12) 
Cc1cccc(C(=O)[N-]c2ccccc2C(=O)[N-]c2ccc(S(=O)(=O)N3CCCCC3)cc2)c1O (protonated)
Cc1cccc(C(=O)[N-]c2ccccc2C(=O)[N-]c2ccc(S(=O)(=O)N3CCCCC3)cc2)c1O (3D coordinates assigned)
Cc1cccc(C(=O)[N-]c2ccccc2C(=O)[N-]c2ccc(S(=O)(=O)N3CCCCC3)cc2)c1O (nonaromatic ring conformer: 82.39575622867423 kcal/mol)

>  <smiles>  (12) 
Cc1cccc(C(=O)Nc2ccccc2C(=O)Nc2ccc(S(=O)(=O)N3CCCCC3)cc2)c1O

>  <score_type>  (12) 
oracle

>  <origin>  (12) 
adgpu

>  <m_score__min__energy>  (12) 
-12.91

>  <m_primary>  (12) 
energy

$$$$
12:0
     RDKit          3D

 43 45  0  0  0  0  0  0  0  0999 V2000
   -3.0410   24.8920  -26.5280 C   0  0  0  0  0  0  0  0  0  0  0  0
   -1.5770   24.8920  -26.4130 N   0  0  0  0  0  0  0  0  0  0  0  0
   -1.1380   26.0110  -25.5720 C   0  0  0  0  0  0  0  0  0  0  0  0
   -0.8610   25.0280  -28.0000 S   0  0  0  0  0  0  0  0  0  0  0  0
   -1.1570   26.3870  -28.5710 O   0  0  0  0  0  0  0  0  0  0  0  0
    0.6320   24.8860  -27.8870 O   0  0  0  0  0  0  0  0  0  0  0  0
   -1.4800   23.7920  -29.0980 C   0  0  0  0  0  0  0  0  0  0  0  0
   -0.7380   22.6310  -29.3500 C   0  0  0  0  0  0  0  0  0  0  0  0
   -1.2470   21.6410  -30.1950 C   0  0  0  0  0  0  0  0  0  0  0  0
   -2.5050   21.7990  -30.7830 C   0  0  0  0  0  0  0  0  0  0  0  0
   -3.2570   22.9550  -30.5310 C   0  0  0  0  0  0  0  0  0  0  0  0
   -4.8720   23.1380  -31.2070 S   0  0  0  0  0  0  0  0  0  0  0  0
   -5.1780   24.5860  -31.4710 O   0  0  0  0  0  0  0  0  0  0  0  0
   -5.8710   22.5960  -30.2240 O   0  0  0  0  0  0  0  0  0  0  0  0
   -4.9900   22.2540  -32.6960 N   0  0  0  0  0  0  0  0  0  0  0  0
   -5.7510   21.0380  -32.8280 C   0  0  0  0  0  0  0  0  0  0  0  0
   -5.1310   19.8380  -33.2190 C   0  0  0  0  0  0  0  0  0  0  0  0
   -5.8650   18.6530  -33.3190 C   0  0  0  0  0  0  0  0  0  0  0  0
   -4.9900   17.0310  -33.8210 Br  0  0  0  0  0  0  0  0  0  0  0  0
   -7.2350   18.6490  -33.0430 C   0  0  0  0  0  0  0  0  0  0  0  0
   -7.8750   19.8340  -32.6620 C   0  0  0  0  0  0  0  0  0  0  0  0
   -9.2440   19.8490  -32.3640 C   0  0  0  0  0  0  0  0  0  0  0  0
   -9.8550   21.0380  -31.9660 C   0  0  0  0  0  0  0  0  0  0  0  0
   -9.0920   22.2030  -31.8670 C   0  0  0  0  0  0  0  0  0  0  0  0
   -7.7640   22.1760  -32.1580 N   0  0  0  0  0  0  0  0  0  0  0  0
   -7.1350   21.0350  -32.5540 C   0  0  0  0  0  0  0  0  0  0  0  0
   -2.7360   23.9540  -29.7000 C   0  0  0  0  0  0  0  0  0  0  0  0
   -3.4065   23.8549  -26.5567 H   0  0  0  0  0  0  0  0  0  0  0  0
   -3.4769   25.4105  -25.6613 H   0  0  0  0  0  0  0  0  0  0  0  0
   -3.3362   25.4105  -27.4521 H   0  0  0  0  0  0  0  0  0  0  0  0
   -1.2454   25.7372  -24.5120 H   0  0  0  0  0  0  0  0  0  0  0  0
   -0.0836   26.2394  -25.7867 H   0  0  0  0  0  0  0  0  0  0  0  0
   -1.7558   26.8954  -25.7867 H   0  0  0  0  0  0  0  0  0  0  0  0
    0.2483   22.4981  -28.8814 H   0  0  0  0  0  0  0  0  0  0  0  0
   -0.6562   20.7355  -30.3977 H   0  0  0  0  0  0  0  0  0  0  0  0
   -2.9052   21.0160  -31.4438 H   0  0  0  0  0  0  0  0  0  0  0  0
   -4.6040   22.7180  -33.5480 H   0  0  0  0  0  0  0  0  0  0  0  0
   -4.0553   19.8319  -33.4489 H   0  0  0  0  0  0  0  0  0  0  0  0
   -7.8101   17.7149  -33.1252 H   0  0  0  0  0  0  0  0  0  0  0  0
   -9.8356   18.9251  -32.4438 H   0  0  0  0  0  0  0  0  0  0  0  0
  -10.9296   21.0577  -31.7319 H   0  0  0  0  0  0  0  0  0  0  0  0
   -9.5661   23.1446  -31.5530 H   0  0  0  0  0  0  0  0  0  0  0  0
   -3.3153   24.8713  -29.5183 H   0  0  0  0  0  0  0  0  0  0  0  0
  1  2  1  0
  2  3  1  0
  2  4  1  0
  4  5  2  0
  4  6  2  0
  4  7  1  0
  7  8  2  0
  8  9  1  0
  9 10  2  0
 10 11  1  0
 11 12  1  0
 12 13  2  0
 12 14  2  0
 12 15  1  0
 15 16  1  0
 16 17  2  0
 17 18  1  0
 18 19  1  0
 18 20  2  0
 20 21  1  0
 21 22  2  0
 22 23  1  0
 23 24  2  0
 24 25  1  0
 25 26  2  0
 11 27  2  0
 27  7  1  0
 26 16  1  0
 26 21  1  0
  1 28  1  0
  1 29  1  0
  1 30  1  0
  3 31  1  0
  3 32  1  0
  3 33  1  0
  8 34  1  0
  9 35  1  0
 10 36  1  0
 15 37  1  0
 17 38  1  0
 20 39  1  0
 22 40  1  0
 23 41  1  0
 24 42  1  0
 27 43  1  0
M  END
>  <UniqueID>  (13) 
13

>  <SMILES>  (13) 
CN(C)S(=O)(=O)c1cccc(S(=O)(=O)Nc2cc(Br)cc3cccnc23)c1

>  <Energy>  (13) 
45.731929437700565

>  <Genealogy>  (13) 
CN(C)S(=O)(=O)c1cccc(S(=O)(=O)Nc2cc(Br)cc3cccnc23)c1 (3D coordinates assigned)
CN(C)S(=O)(=O)c1cccc(S(=O)(=O)Nc2cc(Br)cc3cccnc23)c1 (optimized conformer: 45.731929437700565 kcal/mol)

>  <smiles>  (13) 
CN(C)S(=O)(=O)c1cccc(S(=O)(=O)Nc2cc(Br)cc3cccnc23)c1

>  <score_type>  (13) 
oracle

>  <origin>  (13) 
adgpu

>  <m_score__min__energy>  (13) 
-10.82

>  <m_primary>  (13) 
energy

$$$$
13:0
     RDKit          3D

 75 79  0  0  0  0  0  0  0  0999 V2000
   -3.9200   15.4830  -34.9890 C   0  0  0  0  0  0  0  0  0  0  0  0
   -4.8910   16.3780  -34.2690 C   0  0  0  0  0  0  0  0  0  0  0  0
   -6.1430   15.8760  -33.8790 C   0  0  0  0  0  0  0  0  0  0  0  0
   -7.0700   16.7010  -33.2390 C   0  0  0  0  0  0  0  0  0  0  0  0
   -6.7680   18.0500  -32.9830 C   0  0  0  0  0  0  0  0  0  0  0  0
   -7.7770   18.9460  -32.3720 C   0  0  0  0  0  0  0  0  0  0  0  0
   -8.9760   18.9060  -32.7600 O   0  0  0  0  0  0  0  0  0  0  0  0
   -7.3950   19.8480  -31.3250 N   0  0  0  0  0  0  0  0  0  0  0  0
   -7.1350   21.2510  -31.4660 C   0  0  0  0  0  0  0  0  0  0  0  0
   -8.1450   22.0740  -31.9760 C   0  0  0  0  0  0  0  0  0  0  0  0
   -7.9670   23.4580  -32.0340 C   0  0  0  0  0  0  0  0  0  0  0  0
   -6.7830   24.0320  -31.5690 C   0  0  0  0  0  0  0  0  0  0  0  0
   -5.7640   23.2220  -31.0430 C   0  0  0  0  0  0  0  0  0  0  0  0
   -4.2870   23.9420  -30.3920 S   0  0  0  0  0  0  0  0  0  0  0  0
   -4.3530   23.9380  -28.8890 O   0  0  0  0  0  0  0  0  0  0  0  0
   -4.1940   25.3720  -30.8490 O   0  0  0  0  0  0  0  0  0  0  0  0
   -2.8580   23.0520  -30.8750 N   0  0  0  0  0  0  0  0  0  0  0  0
   -2.1490   22.5280  -29.6910 C   0  0  0  0  0  0  0  0  0  0  0  0
   -0.9420   21.6910  -30.1230 C   0  0  0  0  0  0  0  0  0  0  0  0
   -1.3620   20.4890  -30.9930 C   0  0  0  0  0  0  0  0  0  0  0  0
   -2.7950   20.6050  -31.5350 C   0  0  0  0  0  0  0  0  0  0  0  0
   -3.1300   22.0520  -31.9400 C   0  0  0  0  0  0  0  0  0  0  0  0
   -5.9380   21.8320  -31.0090 C   0  0  0  0  0  0  0  0  0  0  0  0
   -5.5110   18.5480  -33.3620 C   0  0  0  0  0  0  0  0  0  0  0  0
   -4.5660   17.7240  -33.9960 C   0  0  0  0  0  0  0  0  0  0  0  0
   -3.3050   18.2710  -34.4160 N   0  0  0  0  0  0  0  0  0  0  0  0
   -2.0990   18.1160  -33.6510 C   0  0  0  0  0  0  0  0  0  0  0  0
   -2.0710   17.3200  -32.6730 O   0  0  0  0  0  0  0  0  0  0  0  0
   -0.8900   18.9020  -33.9600 C   0  0  0  0  0  0  0  0  0  0  0  0
   -0.8800   20.2650  -34.1840 C   0  0  0  0  0  0  0  0  0  0  0  0
    0.4510   20.5640  -34.4370 C   0  0  0  0  0  0  0  0  0  0  0  0
    1.0470   21.9060  -34.8070 C   0  0  2  0  0  0  0  0  0  0  0  0
    0.2010   22.7680  -35.7390 C   0  0  0  0  0  0  0  0  0  0  0  0
    1.2040   23.7370  -36.3340 C   0  0  0  0  0  0  0  0  0  0  0  0
    2.5820   23.1490  -36.0220 C   0  0  0  0  0  0  0  0  0  0  0  0
    2.3920   21.8250  -35.4040 N   0  0  0  0  0  0  0  0  0  0  0  0
    2.5100   20.7640  -36.4260 C   0  0  0  0  0  0  0  0  0  0  0  0
    1.1930   19.4390  -34.3500 N   0  0  0  0  0  0  0  0  0  0  0  0
    0.3810   18.4400  -34.0430 N   0  0  0  0  0  0  0  0  0  0  0  0
    0.8480   17.0700  -33.8620 C   0  0  0  0  0  0  0  0  0  0  0  0
   -3.3183   14.9284  -34.2540 H   0  0  0  0  0  0  0  0  0  0  0  0
   -4.4745   14.7726  -35.6198 H   0  0  0  0  0  0  0  0  0  0  0  0
   -3.2571   16.0935  -35.6198 H   0  0  0  0  0  0  0  0  0  0  0  0
   -6.3956   14.8243  -34.0793 H   0  0  0  0  0  0  0  0  0  0  0  0
   -8.0442   16.2923  -32.9327 H   0  0  0  0  0  0  0  0  0  0  0  0
   -9.0850   21.6283  -32.3335 H   0  0  0  0  0  0  0  0  0  0  0  0
   -8.7616   24.0968  -32.4470 H   0  0  0  0  0  0  0  0  0  0  0  0
   -6.6477   25.1227  -31.6147 H   0  0  0  0  0  0  0  0  0  0  0  0
   -1.8044   23.3696  -29.0722 H   0  0  0  0  0  0  0  0  0  0  0  0
   -2.8369   21.8931  -29.1134 H   0  0  0  0  0  0  0  0  0  0  0  0
   -0.2560   22.3272  -30.7016 H   0  0  0  0  0  0  0  0  0  0  0  0
   -0.4521   21.3037  -29.2174 H   0  0  0  0  0  0  0  0  0  0  0  0
   -0.6707   20.4161  -31.8455 H   0  0  0  0  0  0  0  0  0  0  0  0
   -1.3259   19.5945  -30.3538 H   0  0  0  0  0  0  0  0  0  0  0  0
   -2.8976   19.9544  -32.4160 H   0  0  0  0  0  0  0  0  0  0  0  0
   -3.4905   20.2996  -30.7394 H   0  0  0  0  0  0  0  0  0  0  0  0
   -2.5278   22.3132  -32.8227 H   0  0  0  0  0  0  0  0  0  0  0  0
   -4.2107   22.0857  -32.1421 H   0  0  0  0  0  0  0  0  0  0  0  0
   -5.1327   21.1903  -30.6221 H   0  0  0  0  0  0  0  0  0  0  0  0
   -5.2622   19.6001  -33.1593 H   0  0  0  0  0  0  0  0  0  0  0  0
   -3.2990   18.8740  -35.2670 H   0  0  0  0  0  0  0  0  0  0  0  0
   -1.7346   20.9573  -34.1659 H   0  0  0  0  0  0  0  0  0  0  0  0
    1.0925   22.3876  -33.8191 H   0  0  0  0  0  0  0  0  0  0  0  0
   -0.2671   22.1557  -36.5238 H   0  0  0  0  0  0  0  0  0  0  0  0
   -0.6270   23.2736  -35.2205 H   0  0  0  0  0  0  0  0  0  0  0  0
    1.0593   23.8195  -37.4213 H   0  0  0  0  0  0  0  0  0  0  0  0
    1.0895   24.7480  -35.9159 H   0  0  0  0  0  0  0  0  0  0  0  0
    3.1613   23.0458  -36.9514 H   0  0  0  0  0  0  0  0  0  0  0  0
    3.1300   23.8118  -35.3361 H   0  0  0  0  0  0  0  0  0  0  0  0
    2.6185   19.7880  -35.9304 H   0  0  0  0  0  0  0  0  0  0  0  0
    1.6070   20.7579  -37.0541 H   0  0  0  0  0  0  0  0  0  0  0  0
    3.3923   20.9564  -37.0541 H   0  0  0  0  0  0  0  0  0  0  0  0
    0.9239   16.8474  -32.7874 H   0  0  0  0  0  0  0  0  0  0  0  0
    0.1360   16.3749  -34.3310 H   0  0  0  0  0  0  0  0  0  0  0  0
    1.8363   16.9545  -34.3310 H   0  0  0  0  0  0  0  0  0  0  0  0
  1  2  1  0
  2  3  2  0
  3  4  1  0
  4  5  2  0
  5  6  1  0
  6  7  2  0
  6  8  1  0
  8  9  1  0
  9 10  2  0
 10 11  1  0
 11 12  2  0
 12 13  1  0
 13 14  1  0
 14 15  2  0
 14 16  2  0
 14 17  1  0
 17 18  1  0
 18 19  1  0
 19 20  1  0
 20 21  1  0
 21 22  1  0
 13 23  2  0
  5 24  1  0
 24 25  2  0
 25 26  1  0
 26 27  1  0
 27 28  2  0
 27 29  1  0
 29 30  2  0
 30 31  1  0
 31 32  1  0
 32 33  1  0
 33 34  1  0
 34 35  1  0
 35 36  1  0
 36 37  1  0
 31 38  2  0
 38 39  1  0
 39 40  1  0
 25  2  1  0
 39 29  1  0
 23  9  1  0
 36 32  1  0
 22 17  1  0
  1 41  1  0
  1 42  1  0
  1 43  1  0
  3 44  1  0
  4 45  1  0
 10 46  1  0
 11 47  1  0
 12 48  1  0
 18 49  1  0
 18 50  1  0
 19 51  1  0
 19 52  1  0
 20 53  1  0
 20 54  1  0
 21 55  1  0
 21 56  1  0
 22 57  1  0
 22 58  1  0
 23 59  1  0
 24 60  1  0
 26 61  1  0
 30 62  1  0
 32 63  1  1
 33 64  1  0
 33 65  1  0
 34 66  1  0
 34 67  1  0
 35 68  1  0
 35 69  1  0
 37 70  1  0
 37 71  1  0
 37 72  1  0
 40 73  1  0
 40 74  1  0
 40 75  1  0
M  CHG  1   8  -1
M  END
>  <UniqueID>  (14) 
14

>  <SMILES>  (14) 
Cc1ccc(C(=O)[N-]c2cccc(S(=O)(=O)N3CCCCC3)c2)cc1NC(=O)c1cc([C@@H]2CCCN2C)nn1C

>  <Energy>  (14) 
134.66068737651008

>  <Genealogy>  (14) 
Cc1ccc(C(=O)[N-]c2cccc(S(=O)(=O)N3CCCCC3)c2)cc1NC(=O)c1cc(C2CCCN2C)nn1C (protonated)
Cc1ccc(C(=O)[N-]c2cccc(S(=O)(=O)N3CCCCC3)c2)cc1NC(=O)c1cc([C@@H]2CCCN2C)nn1C (chirality)
Cc1ccc(C(=O)[N-]c2cccc(S(=O)(=O)N3CCCCC3)c2)cc1NC(=O)c1cc([C@@H]2CCCN2C)nn1C (3D coordinates assigned)
Cc1ccc(C(=O)[N-]c2cccc(S(=O)(=O)N3CCCCC3)c2)cc1NC(=O)c1cc([C@@H]2CCCN2C)nn1C (nonaromatic ring conformer: 134.66068737651008 kcal/mol)

>  <smiles>  (14) 
Cc1ccc(C(=O)Nc2cccc(S(=O)(=O)N3CCCCC3)c2)cc1NC(=O)c1cc(C2CCCN2C)nn1C

>  <score_type>  (14) 
oracle

>  <origin>  (14) 
adgpu

>  <m_score__min__energy>  (14) 
-12.949999999999999

>  <m_primary>  (14) 
energy

$$$$
14:0
     RDKit          3D

 57 60  0  0  0  0  0  0  0  0999 V2000
   -1.9290   24.7070  -28.8840 O   0  0  0  0  0  0  0  0  0  0  0  0
   -1.8740   23.7310  -29.6790 C   0  0  0  0  0  0  0  0  0  0  0  0
   -0.6490   22.9880  -29.7560 N   0  0  0  0  0  0  0  0  0  0  0  0
   -0.4880   21.5910  -30.0440 C   0  0  0  0  0  0  0  0  0  0  0  0
   -0.9210   20.6600  -29.0920 C   0  0  0  0  0  0  0  0  0  0  0  0
   -0.7740   19.2910  -29.3230 C   0  0  0  0  0  0  0  0  0  0  0  0
   -0.1850   18.8410  -30.5060 C   0  0  0  0  0  0  0  0  0  0  0  0
    0.2700   19.7600  -31.4590 C   0  0  0  0  0  0  0  0  0  0  0  0
    0.9970   19.1660  -32.9500 S   0  0  0  0  0  0  0  0  0  0  0  0
    2.2040   19.9880  -33.3000 O   0  0  0  0  0  0  0  0  0  0  0  0
    1.4320   17.7450  -32.7260 O   0  0  0  0  0  0  0  0  0  0  0  0
   -0.1720   19.2220  -34.2540 N   0  0  0  0  0  0  0  0  0  0  0  0
    0.4640   19.5470  -35.5500 C   0  0  0  0  0  0  0  0  0  0  0  0
    0.2720   21.0190  -35.9560 C   0  0  0  0  0  0  0  0  0  0  0  0
    0.2650   21.8420  -34.8120 O   0  0  0  0  0  0  0  0  0  0  0  0
   -0.9060   21.6130  -34.0470 C   0  0  0  0  0  0  0  0  0  0  0  0
   -1.2990   20.1200  -33.9410 C   0  0  0  0  0  0  0  0  0  0  0  0
    0.1300   21.1360  -31.2230 C   0  0  0  0  0  0  0  0  0  0  0  0
   -3.0830   23.3720  -30.4630 C   0  0  0  0  0  0  0  0  0  0  0  0
   -3.2390   22.0470  -30.9070 C   0  0  0  0  0  0  0  0  0  0  0  0
   -4.3620   21.6670  -31.6550 C   0  0  0  0  0  0  0  0  0  0  0  0
   -4.4980   20.0190  -32.2700 S   0  0  0  0  0  0  0  0  0  0  0  0
   -4.6610   20.0690  -33.7630 O   0  0  0  0  0  0  0  0  0  0  0  0
   -3.2130   19.2920  -31.9800 O   0  0  0  0  0  0  0  0  0  0  0  0
   -5.8270   19.1150  -31.5740 N   0  0  0  0  0  0  0  0  0  0  0  0
   -7.1090   19.8430  -31.5980 C   0  0  0  0  0  0  0  0  0  0  0  0
   -7.9270   19.5610  -32.8670 C   0  0  0  0  0  0  0  0  0  0  0  0
   -8.0760   18.1730  -33.0680 O   0  0  0  0  0  0  0  0  0  0  0  0
   -6.8090   17.6030  -33.3060 C   0  0  0  0  0  0  0  0  0  0  0  0
   -5.9180   17.7270  -32.0660 C   0  0  0  0  0  0  0  0  0  0  0  0
   -5.3320   22.6230  -31.9760 C   0  0  0  0  0  0  0  0  0  0  0  0
   -5.1770   23.9480  -31.5630 C   0  0  0  0  0  0  0  0  0  0  0  0
   -4.0520   24.3320  -30.8260 C   0  0  0  0  0  0  0  0  0  0  0  0
   -3.8950   25.6730  -30.4910 O   0  0  0  0  0  0  0  0  0  0  0  0
   -1.3802   21.0097  -28.1556 H   0  0  0  0  0  0  0  0  0  0  0  0
   -1.1225   18.5664  -28.5723 H   0  0  0  0  0  0  0  0  0  0  0  0
   -0.0782   17.7617  -30.6898 H   0  0  0  0  0  0  0  0  0  0  0  0
    1.5419   19.3411  -35.4740 H   0  0  0  0  0  0  0  0  0  0  0  0
   -0.0168   18.9257  -36.3199 H   0  0  0  0  0  0  0  0  0  0  0  0
    1.0959   21.3239  -36.6180 H   0  0  0  0  0  0  0  0  0  0  0  0
   -0.6893   21.1245  -36.4802 H   0  0  0  0  0  0  0  0  0  0  0  0
   -0.7384   22.0007  -33.0313 H   0  0  0  0  0  0  0  0  0  0  0  0
   -1.7314   22.1264  -34.5620 H   0  0  0  0  0  0  0  0  0  0  0  0
   -1.6400   19.9157  -32.9153 H   0  0  0  0  0  0  0  0  0  0  0  0
   -2.0961   19.9285  -34.6745 H   0  0  0  0  0  0  0  0  0  0  0  0
    0.5042   21.8604  -31.9614 H   0  0  0  0  0  0  0  0  0  0  0  0
   -2.4699   21.2990  -30.6643 H   0  0  0  0  0  0  0  0  0  0  0  0
   -7.7021   19.5402  -30.7225 H   0  0  0  0  0  0  0  0  0  0  0  0
   -6.8805   20.9189  -31.5822 H   0  0  0  0  0  0  0  0  0  0  0  0
   -8.9216   20.0195  -32.7644 H   0  0  0  0  0  0  0  0  0  0  0  0
   -7.3964   19.9877  -33.7309 H   0  0  0  0  0  0  0  0  0  0  0  0
   -6.9330   16.5391  -33.5567 H   0  0  0  0  0  0  0  0  0  0  0  0
   -6.3313   18.1384  -34.1398 H   0  0  0  0  0  0  0  0  0  0  0  0
   -6.3348   17.0959  -31.2672 H   0  0  0  0  0  0  0  0  0  0  0  0
   -4.9048   17.4045  -32.3480 H   0  0  0  0  0  0  0  0  0  0  0  0
   -6.2197   22.3299  -32.5557 H   0  0  0  0  0  0  0  0  0  0  0  0
   -5.9440   24.6939  -31.8187 H   0  0  0  0  0  0  0  0  0  0  0  0
  1  2  2  0
  2  3  1  0
  3  4  1  0
  4  5  2  0
  5  6  1  0
  6  7  2  0
  7  8  1  0
  8  9  1  0
  9 10  2  0
  9 11  2  0
  9 12  1  0
 12 13  1  0
 13 14  1  0
 14 15  1  0
 15 16  1  0
 16 17  1  0
  8 18  2  0
  2 19  1  0
 19 20  2  0
 20 21  1  0
 21 22  1  0
 22 23  2  0
 22 24  2  0
 22 25  1  0
 25 26  1  0
 26 27  1  0
 27 28  1  0
 28 29  1  0
 29 30  1  0
 21 31  2  0
 31 32  1  0
 32 33  2  0
 33 34  1  0
 18  4  1  0
 33 19  1  0
 17 12  1  0
 30 25  1  0
  5 35  1  0
  6 36  1  0
  7 37  1  0
 13 38  1  0
 13 39  1  0
 14 40  1  0
 14 41  1  0
 16 42  1  0
 16 43  1  0
 17 44  1  0
 17 45  1  0
 18 46  1  0
 20 47  1  0
 26 48  1  0
 26 49  1  0
 27 50  1  0
 27 51  1  0
 29 52  1  0
 29 53  1  0
 30 54  1  0
 30 55  1  0
 31 56  1  0
 32 57  1  0
M  CHG  2   3  -1  34  -1
M  END
>  <UniqueID>  (15) 
15

>  <SMILES>  (15) 
O=C([N-]c1cccc(S(=O)(=O)N2CCOCC2)c1)c1cc(S(=O)(=O)N2CCOCC2)ccc1[O-]

>  <Energy>  (15) 
79.75667524779888

>  <Genealogy>  (15) 
O=C([N-]c1cccc(S(=O)(=O)N2CCOCC2)c1)c1cc(S(=O)(=O)N2CCOCC2)ccc1[O-] (protonated)
O=C([N-]c1cccc(S(=O)(=O)N2CCOCC2)c1)c1cc(S(=O)(=O)N2CCOCC2)ccc1[O-] (3D coordinates assigned)
O=C([N-]c1cccc(S(=O)(=O)N2CCOCC2)c1)c1cc(S(=O)(=O)N2CCOCC2)ccc1[O-] (nonaromatic ring conformer: 79.75667524779888 kcal/mol)

>  <smiles>  (15) 
O=C(Nc1cccc(S(=O)(=O)N2CCOCC2)c1)c1cc(S(=O)(=O)N2CCOCC2)ccc1O

>  <score_type>  (15) 
oracle

>  <origin>  (15) 
adgpu

>  <m_score__min__energy>  (15) 
-13.76

>  <m_primary>  (15) 
energy

$$$$
15:0
     RDKit          3D

 57 61  0  0  1  0  0  0  0  0999 V2000
   -0.6590   23.0200  -28.9870 C   0  0  0  0  0  0  0  0  0  0  0  0
   -1.4050   23.5030  -30.0720 O   0  0  0  0  0  0  0  0  0  0  0  0
   -2.5460   22.8770  -30.5070 C   0  0  0  0  0  0  0  0  0  0  0  0
   -3.7300   23.2060  -29.8600 C   0  0  0  0  0  0  0  0  0  0  0  0
   -4.9420   22.6440  -30.2060 C   0  0  0  0  0  0  0  0  0  0  0  0
   -4.9450   21.7270  -31.2330 C   0  0  0  0  0  0  0  0  0  0  0  0
   -6.2170   21.1040  -31.6340 C   0  0  0  0  0  0  0  0  0  0  0  0
   -6.2800   19.8450  -32.1950 C   0  0  0  0  0  0  0  0  0  0  0  0
   -7.5000   19.2650  -32.5720 C   0  0  0  0  0  0  0  0  0  0  0  0
   -7.5520   18.1020  -33.0890 N   0  0  0  0  0  0  0  0  0  0  0  0
   -6.3600   17.3380  -33.3060 C   0  0  0  0  0  0  0  0  0  0  0  0
   -5.8320   16.5050  -32.3410 C   0  0  0  0  0  0  0  0  0  0  0  0
   -4.6650   15.7800  -32.6010 C   0  0  0  0  0  0  0  0  0  0  0  0
   -4.0420   15.9040  -33.8380 C   0  0  0  0  0  0  0  0  0  0  0  0
   -2.9350   15.3610  -34.3970 N   0  0  0  0  0  0  0  0  0  0  0  0
   -2.7940   15.8400  -35.6450 C   0  0  0  0  0  0  0  0  0  0  0  0
   -3.8220   16.6970  -35.8840 N   0  0  0  0  0  0  0  0  0  0  0  0
   -4.6060   16.7470  -34.7690 C   0  0  0  0  0  0  0  0  0  0  0  0
   -5.7430   17.4710  -34.5540 C   0  0  0  0  0  0  0  0  0  0  0  0
   -8.6380   19.9540  -32.3830 N   0  0  0  0  0  0  0  0  0  0  0  0
   -8.5780   21.1820  -31.8360 C   0  0  0  0  0  0  0  0  0  0  0  0
   -9.8600   21.9050  -31.6460 C   0  0  0  0  0  0  0  0  0  0  0  0
   -7.3870   21.7460  -31.4690 N   0  0  0  0  0  0  0  0  0  0  0  0
   -3.7710   21.4110  -31.8640 C   0  0  0  0  0  0  0  0  0  0  0  0
   -2.5310   21.9670  -31.5310 C   0  0  0  0  0  0  0  0  0  0  0  0
   -1.3490   21.5520  -32.2730 C   0  0  0  0  0  0  0  0  0  0  0  0
   -0.3790   21.1610  -31.5780 O   0  0  0  0  0  0  0  0  0  0  0  0
   -1.1950   21.5500  -33.6670 N   0  0  0  0  0  0  0  0  0  0  0  0
   -0.0960   21.1590  -34.4520 C   0  0  0  0  0  0  0  0  0  0  0  0
    0.3980   19.8600  -34.2240 C   0  0  0  0  0  0  0  0  0  0  0  0
    1.4760   19.3440  -34.8980 C   0  0  0  0  0  0  0  0  0  0  0  0
    2.1290   20.0910  -35.8440 C   0  0  0  0  0  0  0  0  0  0  0  0
    1.6730   21.3520  -36.0870 C   0  0  0  0  0  0  0  0  0  0  0  0
    0.5670   21.8780  -35.3920 C   0  0  0  0  0  0  0  0  0  0  0  0
    0.2280   23.1520  -35.7380 O   0  0  0  0  0  0  0  0  0  0  0  0
   -1.1374   23.3298  -28.0462 H   0  0  0  0  0  0  0  0  0  0  0  0
   -0.6154   21.9218  -29.0319 H   0  0  0  0  0  0  0  0  0  0  0  0
    0.3609   23.4296  -29.0319 H   0  0  0  0  0  0  0  0  0  0  0  0
   -3.7007   23.9411  -29.0422 H   0  0  0  0  0  0  0  0  0  0  0  0
   -5.8694   22.9180  -29.6818 H   0  0  0  0  0  0  0  0  0  0  0  0
   -5.3484   19.2811  -32.3507 H   0  0  0  0  0  0  0  0  0  0  0  0
   -6.3303   16.4111  -31.3649 H   0  0  0  0  0  0  0  0  0  0  0  0
   -4.2427   15.1161  -31.8323 H   0  0  0  0  0  0  0  0  0  0  0  0
   -1.9886   15.5837  -36.3490 H   0  0  0  0  0  0  0  0  0  0  0  0
   -3.9960   17.2370  -36.7720 H   0  0  0  0  0  0  0  0  0  0  0  0
   -6.1568   18.1316  -35.3301 H   0  0  0  0  0  0  0  0  0  0  0  0
  -10.0611   22.0184  -30.5705 H   0  0  0  0  0  0  0  0  0  0  0  0
   -9.7934   22.8986  -32.1133 H   0  0  0  0  0  0  0  0  0  0  0  0
  -10.6758   21.3339  -32.1133 H   0  0  0  0  0  0  0  0  0  0  0  0
   -7.4790   22.6990  -31.0580 H   0  0  0  0  0  0  0  0  0  0  0  0
   -3.8051   20.6760  -32.6816 H   0  0  0  0  0  0  0  0  0  0  0  0
   -2.0380   21.8870  -34.2080 H   0  0  0  0  0  0  0  0  0  0  0  0
   -0.1024   19.2315  -33.4726 H   0  0  0  0  0  0  0  0  0  0  0  0
    1.8191   18.3224  -34.6774 H   0  0  0  0  0  0  0  0  0  0  0  0
    2.9937   19.6854  -36.3897 H   0  0  0  0  0  0  0  0  0  0  0  0
    2.1793   21.9718  -36.8416 H   0  0  0  0  0  0  0  0  0  0  0  0
   -0.6990   23.4060  -36.0260 H   0  0  0  0  0  0  0  0  0  0  0  0
  1  2  1  0
  2  3  1  0
  3  4  2  0
  4  5  1  0
  5  6  2  0
  6  7  1  0
  7  8  2  0
  8  9  1  0
  9 10  2  0
 10 11  1  0
 11 12  2  0
 12 13  1  0
 13 14  2  0
 14 15  1  0
 15 16  2  0
 16 17  1  0
 17 18  1  0
 18 19  2  0
  9 20  1  0
 20 21  2  0
 21 22  1  0
 21 23  1  0
  6 24  1  0
 24 25  2  0
 25 26  1  0
 26 27  2  0
 26 28  1  0
 28 29  1  0
 29 30  2  0
 30 31  1  0
 31 32  2  0
 32 33  1  0
 33 34  2  0
 34 35  1  0
 25  3  1  0
 34 29  1  0
 23  7  1  0
 19 11  1  0
 18 14  1  0
  1 36  1  0
  1 37  1  0
  1 38  1  0
  4 39  1  0
  5 40  1  0
  8 41  1  0
 12 42  1  0
 13 43  1  0
 16 44  1  0
 17 45  1  0
 19 46  1  0
 22 47  1  0
 22 48  1  0
 22 49  1  0
 23 50  1  0
 24 51  1  0
 28 52  1  0
 30 53  1  0
 31 54  1  0
 32 55  1  0
 33 56  1  0
 35 57  1  0
M  END
>  <smiles>  (16) 
COc1ccc(-c2cc(=Nc3ccc4nc[nH]c4c3)nc(C)[nH]2)cc1C(=O)Nc1ccccc1O

>  <score_type>  (16) 
oracle

>  <origin>  (16) 
adgpu

>  <m_score__min__energy>  (16) 
-9.6600000000000001

>  <m_primary>  (16) 
energy

$$$$
16:0
     RDKit          3D

 59 62  0  0  0  0  0  0  0  0999 V2000
   -2.2570   22.5840  -30.3880 O   0  0  0  0  0  0  0  0  0  0  0  0
   -3.0640   22.5710  -31.3550 C   0  0  0  0  0  0  0  0  0  0  0  0
   -2.6380   22.0060  -32.6020 N   0  0  0  0  0  0  0  0  0  0  0  0
   -2.5920   20.6030  -32.9000 C   0  0  0  0  0  0  0  0  0  0  0  0
   -1.4740   19.8190  -32.5620 C   0  0  0  0  0  0  0  0  0  0  0  0
   -1.4610   18.4530  -32.8520 C   0  0  0  0  0  0  0  0  0  0  0  0
   -2.5550   17.8610  -33.4880 C   0  0  0  0  0  0  0  0  0  0  0  0
   -3.6630   18.6380  -33.8500 C   0  0  0  0  0  0  0  0  0  0  0  0
   -5.0590   17.8710  -34.6040 S   0  0  0  0  0  0  0  0  0  0  0  0
   -4.5820   17.0740  -35.7870 O   0  0  0  0  0  0  0  0  0  0  0  0
   -6.0140   18.9230  -35.0980 O   0  0  0  0  0  0  0  0  0  0  0  0
   -5.8600   16.8000  -33.4740 N   0  0  0  0  0  0  0  0  0  0  0  0
   -6.4640   15.6300  -34.1440 C   0  0  0  0  0  0  0  0  0  0  0  0
   -5.4160   14.6050  -34.6110 C   0  0  0  0  0  0  0  0  0  0  0  0
   -4.2710   14.4070  -33.5990 C   0  0  0  0  0  0  0  0  0  0  0  0
   -4.6200   14.9700  -32.2220 C   0  0  0  0  0  0  0  0  0  0  0  0
   -4.9880   16.4630  -32.3190 C   0  0  0  0  0  0  0  0  0  0  0  0
   -3.6730   20.0110  -33.5640 C   0  0  0  0  0  0  0  0  0  0  0  0
   -4.4120   23.1600  -31.1840 C   0  0  0  0  0  0  0  0  0  0  0  0
   -5.5470   22.3700  -31.4260 C   0  0  0  0  0  0  0  0  0  0  0  0
   -6.8340   22.9180  -31.3200 C   0  0  0  0  0  0  0  0  0  0  0  0
   -8.2550   21.9340  -31.6790 S   0  0  0  0  0  0  0  0  0  0  0  0
   -8.8350   21.4160  -30.3910 O   0  0  0  0  0  0  0  0  0  0  0  0
   -9.2920   22.8050  -32.3290 O   0  0  0  0  0  0  0  0  0  0  0  0
   -7.8960   20.5890  -32.7440 N   0  0  0  0  0  0  0  0  0  0  0  0
   -9.0910   19.7920  -33.0800 C   0  0  0  0  0  0  0  0  0  0  0  0
   -9.4620   18.7690  -31.9810 C   0  0  0  0  0  0  0  0  0  0  0  0
   -8.4750   18.6450  -30.9760 O   0  0  0  0  0  0  0  0  0  0  0  0
   -7.2080   18.4750  -31.5690 C   0  0  0  0  0  0  0  0  0  0  0  0
   -6.7610   19.7700  -32.2680 C   0  0  0  0  0  0  0  0  0  0  0  0
   -6.9850   24.2560  -30.9330 C   0  0  0  0  0  0  0  0  0  0  0  0
   -5.8620   25.0410  -30.6640 C   0  0  0  0  0  0  0  0  0  0  0  0
   -4.5790   24.5010  -30.7810 C   0  0  0  0  0  0  0  0  0  0  0  0
   -3.4800   25.2980  -30.4740 O   0  0  0  0  0  0  0  0  0  0  0  0
   -0.6077   20.2831  -32.0680 H   0  0  0  0  0  0  0  0  0  0  0  0
   -0.5879   17.8421  -32.5792 H   0  0  0  0  0  0  0  0  0  0  0  0
   -2.5463   16.7826  -33.7049 H   0  0  0  0  0  0  0  0  0  0  0  0
   -7.1492   15.1362  -33.4393 H   0  0  0  0  0  0  0  0  0  0  0  0
   -6.9918   15.9952  -35.0373 H   0  0  0  0  0  0  0  0  0  0  0  0
   -5.9170   13.6381  -34.7663 H   0  0  0  0  0  0  0  0  0  0  0  0
   -4.9700   14.9917  -35.5392 H   0  0  0  0  0  0  0  0  0  0  0  0
   -4.0659   13.3307  -33.5010 H   0  0  0  0  0  0  0  0  0  0  0  0
   -3.3894   14.9478  -33.9735 H   0  0  0  0  0  0  0  0  0  0  0  0
   -5.4753   14.4136  -31.8110 H   0  0  0  0  0  0  0  0  0  0  0  0
   -3.7438   14.8646  -31.5654 H   0  0  0  0  0  0  0  0  0  0  0  0
   -5.5120   16.7502  -31.3954 H   0  0  0  0  0  0  0  0  0  0  0  0
   -4.0461   17.0128  -32.4621 H   0  0  0  0  0  0  0  0  0  0  0  0
   -4.5347   20.6259  -33.8630 H   0  0  0  0  0  0  0  0  0  0  0  0
   -5.4261   21.3119  -31.7012 H   0  0  0  0  0  0  0  0  0  0  0  0
   -9.9402   20.4764  -33.2233 H   0  0  0  0  0  0  0  0  0  0  0  0
   -8.8626   19.2250  -33.9946 H   0  0  0  0  0  0  0  0  0  0  0  0
  -10.4025   19.0893  -31.5090 H   0  0  0  0  0  0  0  0  0  0  0  0
   -9.5560   17.7872  -32.4682 H   0  0  0  0  0  0  0  0  0  0  0  0
   -6.4764   18.2130  -30.7905 H   0  0  0  0  0  0  0  0  0  0  0  0
   -7.2709   17.6710  -32.3171 H   0  0  0  0  0  0  0  0  0  0  0  0
   -6.1715   20.3671  -31.5567 H   0  0  0  0  0  0  0  0  0  0  0  0
   -6.1698   19.4817  -33.1497 H   0  0  0  0  0  0  0  0  0  0  0  0
   -7.9917   24.6896  -30.8407 H   0  0  0  0  0  0  0  0  0  0  0  0
   -5.9883   26.0901  -30.3584 H   0  0  0  0  0  0  0  0  0  0  0  0
  1  2  2  0
  2  3  1  0
  3  4  1  0
  4  5  2  0
  5  6  1  0
  6  7  2  0
  7  8  1  0
  8  9  1  0
  9 10  2  0
  9 11  2  0
  9 12  1  0
 12 13  1  0
 13 14  1  0
 14 15  1  0
 15 16  1  0
 16 17  1  0
  8 18  2  0
  2 19  1  0
 19 20  2  0
 20 21  1  0
 21 22  1  0
 22 23  2  0
 22 24  2  0
 22 25  1  0
 25 26  1  0
 26 27  1  0
 27 28  1  0
 28 29  1  0
 29 30  1  0
 21 31  2  0
 31 32  1  0
 32 33  2  0
 33 34  1  0
 18  4  1  0
 33 19  1  0
 17 12  1  0
 30 25  1  0
  5 35  1  0
  6 36  1  0
  7 37  1  0
 13 38  1  0
 13 39  1  0
 14 40  1  0
 14 41  1  0
 15 42  1  0
 15 43  1  0
 16 44  1  0
 16 45  1  0
 17 46  1  0
 17 47  1  0
 18 48  1  0
 20 49  1  0
 26 50  1  0
 26 51  1  0
 27 52  1  0
 27 53  1  0
 29 54  1  0
 29 55  1  0
 30 56  1  0
 30 57  1  0
 31 58  1  0
 32 59  1  0
M  CHG  2   3  -1  34  -1
M  END
>  <UniqueID>  (17) 
16

>  <SMILES>  (17) 
O=C([N-]c1cccc(S(=O)(=O)N2CCCCC2)c1)c1cc(S(=O)(=O)N2CCOCC2)ccc1[O-]

>  <Energy>  (17) 
85.48004141182304

>  <Genealogy>  (17) 
O=C([N-]c1cccc(S(=O)(=O)N2CCCCC2)c1)c1cc(S(=O)(=O)N2CCOCC2)ccc1[O-] (protonated)
O=C([N-]c1cccc(S(=O)(=O)N2CCCCC2)c1)c1cc(S(=O)(=O)N2CCOCC2)ccc1[O-] (3D coordinates assigned)
O=C([N-]c1cccc(S(=O)(=O)N2CCCCC2)c1)c1cc(S(=O)(=O)N2CCOCC2)ccc1[O-] (nonaromatic ring conformer: 85.48004141182304 kcal/mol)

>  <smiles>  (17) 
O=C(Nc1cccc(S(=O)(=O)N2CCCCC2)c1)c1cc(S(=O)(=O)N2CCOCC2)ccc1O

>  <score_type>  (17) 
oracle

>  <origin>  (17) 
adgpu

>  <m_score__min__energy>  (17) 
-14.949999999999999

>  <m_primary>  (17) 
energy

$$$$
17:0
     RDKit          3D

 49 52  0  0  0  0  0  0  0  0999 V2000
   -0.4580   19.2100  -29.5120 C   0  0  0  0  0  0  0  0  0  0  0  0
   -0.0220   20.1570  -28.4710 N   0  0  0  0  0  0  0  0  0  0  0  0
   -0.7250   19.9580  -27.1890 C   0  0  0  0  0  0  0  0  0  0  0  0
   -2.2290   20.2550  -27.2910 C   0  0  0  0  0  0  0  0  0  0  0  0
   -2.5130   21.5100  -28.0720 C   0  0  0  0  0  0  0  0  0  0  0  0
   -3.8070   22.0500  -28.0490 C   0  0  0  0  0  0  0  0  0  0  0  0
   -4.1140   23.1830  -28.8050 C   0  0  0  0  0  0  0  0  0  0  0  0
   -3.1350   23.8030  -29.5870 C   0  0  0  0  0  0  0  0  0  0  0  0
   -3.4980   24.9570  -30.3580 N   0  0  0  0  0  0  0  0  0  0  0  0
   -4.8080   25.2830  -30.8410 C   0  0  0  0  0  0  0  0  0  0  0  0
   -5.5190   26.1280  -30.2360 O   0  0  0  0  0  0  0  0  0  0  0  0
   -5.3690   24.5710  -31.9480 N   0  0  0  0  0  0  0  0  0  0  0  0
   -6.1600   23.3750  -31.8710 C   0  0  0  0  0  0  0  0  0  0  0  0
   -7.5030   23.4220  -31.4700 C   0  0  0  0  0  0  0  0  0  0  0  0
   -8.2560   22.2550  -31.3910 C   0  0  0  0  0  0  0  0  0  0  0  0
   -7.6800   21.0160  -31.6790 C   0  0  0  0  0  0  0  0  0  0  0  0
   -8.7210   19.5980  -31.6020 Cl  0  0  0  0  0  0  0  0  0  0  0  0
   -6.3140   20.9370  -32.0330 C   0  0  0  0  0  0  0  0  0  0  0  0
   -5.5690   19.3620  -32.3840 S   0  0  0  0  0  0  0  0  0  0  0  0
   -5.7820   18.4290  -31.2250 O   0  0  0  0  0  0  0  0  0  0  0  0
   -4.0860   19.5040  -32.5910 O   0  0  0  0  0  0  0  0  0  0  0  0
   -6.3540   18.6790  -33.8440 C   0  0  0  0  0  0  0  0  0  0  0  0
   -6.0800   17.2070  -34.1050 C   0  0  0  0  0  0  0  0  0  0  0  0
   -5.3870   18.2720  -34.9420 C   0  0  0  0  0  0  0  0  0  0  0  0
   -5.5590   22.1270  -32.1420 C   0  0  0  0  0  0  0  0  0  0  0  0
   -4.2210   22.0680  -32.5340 O   0  0  0  0  0  0  0  0  0  0  0  0
   -1.8450   23.2440  -29.6420 C   0  0  0  0  0  0  0  0  0  0  0  0
   -1.5320   22.0960  -28.8990 C   0  0  0  0  0  0  0  0  0  0  0  0
   -0.1180   21.5590  -28.9250 C   0  0  0  0  0  0  0  0  0  0  0  0
   -0.8730   18.3087  -29.0372 H   0  0  0  0  0  0  0  0  0  0  0  0
   -1.2291   19.6827  -30.1380 H   0  0  0  0  0  0  0  0  0  0  0  0
    0.4025   18.9315  -30.1380 H   0  0  0  0  0  0  0  0  0  0  0  0
   -0.5924   18.9129  -26.8724 H   0  0  0  0  0  0  0  0  0  0  0  0
   -0.2944   20.6592  -26.4591 H   0  0  0  0  0  0  0  0  0  0  0  0
   -2.7234   19.4086  -27.7901 H   0  0  0  0  0  0  0  0  0  0  0  0
   -2.6127   20.4003  -26.2704 H   0  0  0  0  0  0  0  0  0  0  0  0
   -4.5852   21.5779  -27.4313 H   0  0  0  0  0  0  0  0  0  0  0  0
   -5.1352   23.5914  -28.7851 H   0  0  0  0  0  0  0  0  0  0  0  0
   -7.9640   24.3880  -31.2163 H   0  0  0  0  0  0  0  0  0  0  0  0
   -9.3151   22.3087  -31.0989 H   0  0  0  0  0  0  0  0  0  0  0  0
   -7.2616   19.2978  -33.7859 H   0  0  0  0  0  0  0  0  0  0  0  0
   -5.5031   16.6173  -33.3774 H   0  0  0  0  0  0  0  0  0  0  0  0
   -6.7017   16.3266  -34.3250 H   0  0  0  0  0  0  0  0  0  0  0  0
   -4.3087   18.4521  -34.8199 H   0  0  0  0  0  0  0  0  0  0  0  0
   -5.2999   18.4806  -36.0185 H   0  0  0  0  0  0  0  0  0  0  0  0
   -3.6030   22.8690  -32.5060 H   0  0  0  0  0  0  0  0  0  0  0  0
   -1.0749   23.7114  -30.2733 H   0  0  0  0  0  0  0  0  0  0  0  0
    0.2606   21.6198  -29.9560 H   0  0  0  0  0  0  0  0  0  0  0  0
    0.4776   22.1700  -28.2307 H   0  0  0  0  0  0  0  0  0  0  0  0
  1  2  1  0
  2  3  1  0
  3  4  1  0
  4  5  1  0
  5  6  2  0
  6  7  1  0
  7  8  2  0
  8  9  1  0
  9 10  1  0
 10 11  2  0
 10 12  1  0
 12 13  1  0
 13 14  2  0
 14 15  1  0
 15 16  2  0
 16 17  1  0
 16 18  1  0
 18 19  1  0
 19 20  2  0
 19 21  2  0
 19 22  1  0
 22 23  1  0
 23 24  1  0
 18 25  2  0
 25 26  1  0
  8 27  1  0
 27 28  2  0
 28 29  1  0
 29  2  1  0
 28  5  1  0
 25 13  1  0
 24 22  1  0
  1 30  1  0
  1 31  1  0
  1 32  1  0
  3 33  1  0
  3 34  1  0
  4 35  1  0
  4 36  1  0
  6 37  1  0
  7 38  1  0
 14 39  1  0
 15 40  1  0
 22 41  1  0
 23 42  1  0
 23 43  1  0
 24 44  1  0
 24 45  1  0
 26 46  1  0
 27 47  1  0
 29 48  1  0
 29 49  1  0
M  CHG  2   9  -1  12  -1
M  END
>  <UniqueID>  (18) 
17

>  <SMILES>  (18) 
CN1CCc2ccc([N-]C(=O)[N-]c3ccc(Cl)c(S(=O)(=O)C4CC4)c3O)cc2C1

>  <Energy>  (18) 
329.94470430951714

>  <Genealogy>  (18) 
CN1CCc2ccc([N-]C(=O)[N-]c3ccc(Cl)c(S(=O)(=O)C4CC4)c3O)cc2C1 (protonated)
CN1CCc2ccc([N-]C(=O)[N-]c3ccc(Cl)c(S(=O)(=O)C4CC4)c3O)cc2C1 (3D coordinates assigned)
CN1CCc2ccc([N-]C(=O)[N-]c3ccc(Cl)c(S(=O)(=O)C4CC4)c3O)cc2C1 (nonaromatic ring conformer: 329.94470430951714 kcal/mol)

>  <smiles>  (18) 
CN1CCc2ccc(NC(=O)Nc3ccc(Cl)c(S(=O)(=O)C4CC4)c3O)cc2C1

>  <score_type>  (18) 
oracle

>  <origin>  (18) 
adgpu

>  <m_score__min__energy>  (18) 
-13.48

>  <m_primary>  (18) 
energy

$$$$
18:0
     RDKit          3D

 53 57  0  0  0  0  0  0  0  0999 V2000
   -1.6550   15.1720  -34.9620 C   0  0  0  0  0  0  0  0  0  0  0  0
   -2.7120   15.9480  -34.2200 C   0  0  0  0  0  0  0  0  0  0  0  0
   -3.8860   15.2770  -33.8450 C   0  0  0  0  0  0  0  0  0  0  0  0
   -4.9080   15.9480  -33.1800 C   0  0  0  0  0  0  0  0  0  0  0  0
   -4.7890   17.3070  -32.8860 C   0  0  0  0  0  0  0  0  0  0  0  0
   -5.8690   17.9710  -32.2110 N   0  0  0  0  0  0  0  0  0  0  0  0
   -7.2240   17.9450  -32.6820 C   0  0  0  0  0  0  0  0  0  0  0  0
   -7.5910   17.0590  -33.5010 O   0  0  0  0  0  0  0  0  0  0  0  0
   -8.1980   18.8610  -32.1690 N   0  0  0  0  0  0  0  0  0  0  0  0
   -7.9700   20.2490  -31.8910 C   0  0  0  0  0  0  0  0  0  0  0  0
   -9.0280   21.1660  -32.0900 C   0  0  0  0  0  0  0  0  0  0  0  0
   -8.8410   22.5400  -31.8560 C   0  0  0  0  0  0  0  0  0  0  0  0
   -7.5830   22.9610  -31.4340 C   0  0  0  0  0  0  0  0  0  0  0  0
   -7.1850   24.2160  -31.1860 N   0  0  0  0  0  0  0  0  0  0  0  0
   -5.8740   24.0820  -30.8480 C   0  0  0  0  0  0  0  0  0  0  0  0
   -5.4550   22.7740  -30.8580 N   0  0  0  0  0  0  0  0  0  0  0  0
   -6.5520   22.0940  -31.2500 C   0  0  0  0  0  0  0  0  0  0  0  0
   -6.6990   20.7230  -31.4860 C   0  0  0  0  0  0  0  0  0  0  0  0
   -4.1440   22.1450  -30.6340 C   0  0  0  0  0  0  0  0  0  0  0  0
   -2.9560   23.0700  -30.8590 C   0  0  0  0  0  0  0  0  0  0  0  0
   -2.8960   24.1540  -29.7920 C   0  0  0  0  0  0  0  0  0  0  0  0
   -3.6920   25.2950  -30.1970 N   0  0  0  0  0  0  0  0  0  0  0  0
   -5.0910   25.2910  -30.4860 C   0  0  0  0  0  0  0  0  0  0  0  0
   -5.6990   26.3920  -30.4400 O   0  0  0  0  0  0  0  0  0  0  0  0
   -3.5960   17.9840  -33.2020 C   0  0  0  0  0  0  0  0  0  0  0  0
   -3.4560   19.3190  -32.8370 O   0  0  0  0  0  0  0  0  0  0  0  0
   -2.5430   17.3120  -33.8640 C   0  0  0  0  0  0  0  0  0  0  0  0
   -1.0450   18.1950  -34.2680 S   0  0  0  0  0  0  0  0  0  0  0  0
   -0.5290   17.7250  -35.5980 O   0  0  0  0  0  0  0  0  0  0  0  0
    0.0220   17.9030  -33.2500 O   0  0  0  0  0  0  0  0  0  0  0  0
   -1.2760   19.9740  -34.3410 C   0  0  0  0  0  0  0  0  0  0  0  0
   -0.7210   20.7970  -33.1870 C   0  0  0  0  0  0  0  0  0  0  0  0
    0.0200   20.7510  -34.5130 C   0  0  0  0  0  0  0  0  0  0  0  0
   -0.9861   14.6809  -34.2400 H   0  0  0  0  0  0  0  0  0  0  0  0
   -2.1351   14.4103  -35.5939 H   0  0  0  0  0  0  0  0  0  0  0  0
   -1.0721   15.8583  -35.5939 H   0  0  0  0  0  0  0  0  0  0  0  0
   -3.9998   14.2083  -34.0794 H   0  0  0  0  0  0  0  0  0  0  0  0
   -5.8165   15.4030  -32.8839 H   0  0  0  0  0  0  0  0  0  0  0  0
   -5.6890   18.3670  -31.2610 H   0  0  0  0  0  0  0  0  0  0  0  0
  -10.0077   20.8006  -32.4315 H   0  0  0  0  0  0  0  0  0  0  0  0
   -9.6614   23.2581  -32.0016 H   0  0  0  0  0  0  0  0  0  0  0  0
   -5.8514   20.0331  -31.3605 H   0  0  0  0  0  0  0  0  0  0  0  0
   -4.1080   21.7853  -29.5951 H   0  0  0  0  0  0  0  0  0  0  0  0
   -4.0547   21.3341  -31.3719 H   0  0  0  0  0  0  0  0  0  0  0  0
   -2.0288   22.4792  -30.8235 H   0  0  0  0  0  0  0  0  0  0  0  0
   -3.0696   23.5522  -31.8411 H   0  0  0  0  0  0  0  0  0  0  0  0
   -3.2879   23.7546  -28.8450 H   0  0  0  0  0  0  0  0  0  0  0  0
   -1.8513   24.4721  -29.6599 H   0  0  0  0  0  0  0  0  0  0  0  0
   -2.2553   19.9298  -34.8401 H   0  0  0  0  0  0  0  0  0  0  0  0
   -1.2316   21.7197  -32.8740 H   0  0  0  0  0  0  0  0  0  0  0  0
   -0.4556   20.5887  -32.1400 H   0  0  0  0  0  0  0  0  0  0  0  0
    0.0460   21.6406  -35.1594 H   0  0  0  0  0  0  0  0  0  0  0  0
    1.0442   20.4957  -34.8227 H   0  0  0  0  0  0  0  0  0  0  0  0
  1  2  1  0
  2  3  2  0
  3  4  1  0
  4  5  2  0
  5  6  1  0
  6  7  1  0
  7  8  2  0
  7  9  1  0
  9 10  1  0
 10 11  2  0
 11 12  1  0
 12 13  2  0
 13 14  1  0
 14 15  2  0
 15 16  1  0
 16 17  1  0
 17 18  2  0
 16 19  1  0
 19 20  1  0
 20 21  1  0
 21 22  1  0
 22 23  1  0
 23 24  2  0
  5 25  1  0
 25 26  1  0
 25 27  2  0
 27 28  1  0
 28 29  2  0
 28 30  2  0
 28 31  1  0
 31 32  1  0
 32 33  1  0
 27  2  1  0
 33 31  1  0
 18 10  1  0
 17 13  1  0
 23 15  1  0
  1 34  1  0
  1 35  1  0
  1 36  1  0
  3 37  1  0
  4 38  1  0
  6 39  1  0
 11 40  1  0
 12 41  1  0
 18 42  1  0
 19 43  1  0
 19 44  1  0
 20 45  1  0
 20 46  1  0
 21 47  1  0
 21 48  1  0
 31 49  1  0
 32 50  1  0
 32 51  1  0
 33 52  1  0
 33 53  1  0
M  CHG  3   9  -1  22  -1  26  -1
M  END
>  <UniqueID>  (19) 
18

>  <SMILES>  (19) 
Cc1ccc(NC(=O)[N-]c2ccc3nc4n(c3c2)CCC[N-]C4=O)c([O-])c1S(=O)(=O)C1CC1

>  <Energy>  (19) 
374.7080412877447

>  <Genealogy>  (19) 
Cc1ccc(NC(=O)[N-]c2ccc3nc4n(c3c2)CCC[N-]C4=O)c([O-])c1S(=O)(=O)C1CC1 (protonated)
Cc1ccc(NC(=O)[N-]c2ccc3nc4n(c3c2)CCC[N-]C4=O)c([O-])c1S(=O)(=O)C1CC1 (3D coordinates assigned)
Cc1ccc(NC(=O)[N-]c2ccc3nc4n(c3c2)CCC[N-]C4=O)c([O-])c1S(=O)(=O)C1CC1 (nonaromatic ring conformer: 374.7080412877447 kcal/mol)

>  <smiles>  (19) 
Cc1ccc(NC(=O)Nc2ccc3nc4n(c3c2)CCCNC4=O)c(O)c1S(=O)(=O)C1CC1

>  <score_type>  (19) 
oracle

>  <origin>  (19) 
adgpu

>  <m_score__min__energy>  (19) 
-12.390000000000001

>  <m_primary>  (19) 
energy

$$$$
19:0
     RDKit          3D

 41 43  0  0  0  0  0  0  0  0999 V2000
   -8.6500   19.2910  -32.2400 C   0  0  0  0  0  0  0  0  0  0  0  0
   -7.4170   19.9330  -32.7990 C   0  0  0  0  0  0  0  0  0  0  0  0
   -6.8320   19.3710  -33.7660 O   0  0  0  0  0  0  0  0  0  0  0  0
   -6.8650   21.1900  -32.2280 C   0  0  0  0  0  0  0  0  0  0  0  0
   -5.4990   21.5260  -32.3660 C   0  0  0  0  0  0  0  0  0  0  0  0
   -4.9980   22.7110  -31.8170 C   0  0  0  0  0  0  0  0  0  0  0  0
   -5.8480   23.5730  -31.1150 C   0  0  0  0  0  0  0  0  0  0  0  0
   -5.2280   25.0420  -30.3700 S   0  0  0  0  0  0  0  0  0  0  0  0
   -5.8460   25.1900  -29.0110 O   0  0  0  0  0  0  0  0  0  0  0  0
   -5.5700   26.2510  -31.1980 O   0  0  0  0  0  0  0  0  0  0  0  0
   -3.5040   24.9240  -30.2050 N   0  0  0  0  0  0  0  0  0  0  0  0
   -2.8280   23.8900  -29.4810 C   0  0  0  0  0  0  0  0  0  0  0  0
   -1.9630   22.9940  -30.1310 C   0  0  0  0  0  0  0  0  0  0  0  0
   -1.3230   21.9620  -29.4160 C   0  0  0  0  0  0  0  0  0  0  0  0
   -1.5650   21.8120  -28.0370 C   0  0  0  0  0  0  0  0  0  0  0  0
   -2.3960   22.7300  -27.3820 C   0  0  0  0  0  0  0  0  0  0  0  0
   -3.0260   23.7630  -28.0940 C   0  0  0  0  0  0  0  0  0  0  0  0
   -3.8500   24.6410  -27.4040 O   0  0  0  0  0  0  0  0  0  0  0  0
   -0.8800   20.7160  -27.2520 C   0  0  0  0  0  0  0  0  0  0  0  0
   -0.5100   19.5240  -28.1490 C   0  0  0  0  0  0  0  0  0  0  0  0
    0.2910   20.0020  -29.3690 C   0  0  0  0  0  0  0  0  0  0  0  0
   -0.4510   21.0380  -30.0970 N   0  0  0  0  0  0  0  0  0  0  0  0
   -7.2080   23.2500  -30.9800 C   0  0  0  0  0  0  0  0  0  0  0  0
   -7.7140   22.0710  -31.5340 C   0  0  0  0  0  0  0  0  0  0  0  0
   -8.6085   19.3126  -31.1410 H   0  0  0  0  0  0  0  0  0  0  0  0
   -9.5381   19.8412  -32.5843 H   0  0  0  0  0  0  0  0  0  0  0  0
   -8.7085   18.2479  -32.5843 H   0  0  0  0  0  0  0  0  0  0  0  0
   -4.8237   20.8494  -32.9102 H   0  0  0  0  0  0  0  0  0  0  0  0
   -3.9346   22.9656  -31.9372 H   0  0  0  0  0  0  0  0  0  0  0  0
   -1.7831   23.0992  -31.2111 H   0  0  0  0  0  0  0  0  0  0  0  0
   -2.5567   22.6405  -26.2975 H   0  0  0  0  0  0  0  0  0  0  0  0
   -4.3910   25.3660  -27.8730 H   0  0  0  0  0  0  0  0  0  0  0  0
    0.0374   21.1208  -26.7998 H   0  0  0  0  0  0  0  0  0  0  0  0
   -1.5760   20.3609  -26.4778 H   0  0  0  0  0  0  0  0  0  0  0  0
    0.0980   18.8113  -27.5725 H   0  0  0  0  0  0  0  0  0  0  0  0
   -1.4336   19.0377  -28.4961 H   0  0  0  0  0  0  0  0  0  0  0  0
    1.2528   20.4153  -29.0313 H   0  0  0  0  0  0  0  0  0  0  0  0
    0.4605   19.1474  -30.0405 H   0  0  0  0  0  0  0  0  0  0  0  0
   -0.2640   21.1580  -31.1200 H   0  0  0  0  0  0  0  0  0  0  0  0
   -7.8794   23.9295  -30.4346 H   0  0  0  0  0  0  0  0  0  0  0  0
   -8.7820   21.8306  -31.4268 H   0  0  0  0  0  0  0  0  0  0  0  0
  1  2  1  0
  2  3  2  0
  2  4  1  0
  4  5  2  0
  5  6  1  0
  6  7  2  0
  7  8  1  0
  8  9  2  0
  8 10  2  0
  8 11  1  0
 11 12  1  0
 12 13  2  0
 13 14  1  0
 14 15  2  0
 15 16  1  0
 16 17  2  0
 17 18  1  0
 15 19  1  0
 19 20  1  0
 20 21  1  0
 21 22  1  0
  7 23  1  0
 23 24  2  0
 24  4  1  0
 17 12  1  0
 22 14  1  0
  1 25  1  0
  1 26  1  0
  1 27  1  0
  5 28  1  0
  6 29  1  0
 13 30  1  0
 16 31  1  0
 18 32  1  0
 19 33  1  0
 19 34  1  0
 20 35  1  0
 20 36  1  0
 21 37  1  0
 21 38  1  0
 22 39  1  0
 23 40  1  0
 24 41  1  0
M  CHG  1  11  -1
M  END
>  <UniqueID>  (20) 
19

>  <SMILES>  (20) 
CC(=O)c1ccc(S(=O)(=O)[N-]c2cc3c(cc2O)CCCN3)cc1

>  <Energy>  (20) 
45.65759927603676

>  <Genealogy>  (20) 
CC(=O)c1ccc(S(=O)(=O)[N-]c2cc3c(cc2O)CCCN3)cc1 (protonated)
CC(=O)c1ccc(S(=O)(=O)[N-]c2cc3c(cc2O)CCCN3)cc1 (3D coordinates assigned)
CC(=O)c1ccc(S(=O)(=O)[N-]c2cc3c(cc2O)CCCN3)cc1 (nonaromatic ring conformer: 45.65759927603676 kcal/mol)

>  <smiles>  (20) 
CC(=O)c1ccc(S(=O)(=O)Nc2cc3c(cc2O)CCCN3)cc1

>  <score_type>  (20) 
oracle

>  <origin>  (20) 
adgpu

>  <m_score__min__energy>  (20) 
-11.58

>  <m_primary>  (20) 
energy

$$$$
20:0
     RDKit          3D

 34 36  0  0  0  0  0  0  0  0999 V2000
   -9.1980   23.3830  -32.6100 H   0  0  0  0  0  0  0  0  0  0  0  0
   -8.4350   23.6890  -31.9630 N   0  0  0  0  0  0  0  0  0  0  0  0
   -7.3910   22.9510  -31.7470 C   0  0  0  0  0  0  0  0  0  0  0  0
   -7.2790   21.7500  -32.3740 N   0  0  0  0  0  0  0  0  0  0  0  0
   -6.2080   20.9300  -32.2010 C   0  0  0  0  0  0  0  0  0  0  0  0
   -6.1600   19.6410  -32.9200 C   0  0  0  0  0  0  0  0  0  0  0  0
   -7.1830   18.3220  -32.6770 S   0  0  0  0  0  0  0  0  0  0  0  0
   -6.4800   17.3340  -33.8410 C   0  0  0  0  0  0  0  0  0  0  0  0
   -6.8650   15.9190  -34.1140 C   0  0  0  0  0  0  0  0  0  0  0  0
   -7.0095   15.3880  -33.1615 H   0  0  0  0  0  0  0  0  0  0  0  0
   -7.8014   15.8985  -34.6909 H   0  0  0  0  0  0  0  0  0  0  0  0
   -6.0681   15.4269  -34.6909 H   0  0  0  0  0  0  0  0  0  0  0  0
   -5.4160   18.0120  -34.4210 C   0  0  0  0  0  0  0  0  0  0  0  0
   -4.7741   17.5765  -35.2009 H   0  0  0  0  0  0  0  0  0  0  0  0
   -5.2420   19.3050  -33.9140 C   0  0  0  0  0  0  0  0  0  0  0  0
   -4.4566   19.9900  -34.2659 H   0  0  0  0  0  0  0  0  0  0  0  0
   -5.1750   21.3240  -31.3390 C   0  0  0  0  0  0  0  0  0  0  0  0
   -4.3025   20.6704  -31.1922 H   0  0  0  0  0  0  0  0  0  0  0  0
   -5.2530   22.5520  -30.6630 C   0  0  0  0  0  0  0  0  0  0  0  0
   -4.1500   22.9340  -29.7480 C   0  0  0  0  0  0  0  0  0  0  0  0
   -3.7850   22.0990  -28.6800 C   0  0  0  0  0  0  0  0  0  0  0  0
   -4.3279   21.1572  -28.5117 H   0  0  0  0  0  0  0  0  0  0  0  0
   -2.7350   22.4580  -27.8290 C   0  0  0  0  0  0  0  0  0  0  0  0
   -2.4601   21.8003  -26.9912 H   0  0  0  0  0  0  0  0  0  0  0  0
   -2.0330   23.6490  -28.0380 C   0  0  0  0  0  0  0  0  0  0  0  0
   -0.9900   23.9840  -27.1740 O   0  0  0  0  0  0  0  0  0  0  0  0
   -0.4700   24.8470  -27.2700 H   0  0  0  0  0  0  0  0  0  0  0  0
   -2.3850   24.4850  -29.1110 C   0  0  0  0  0  0  0  0  0  0  0  0
   -1.6970   25.6720  -29.3360 O   0  0  0  0  0  0  0  0  0  0  0  0
   -3.4350   24.1250  -29.9620 C   0  0  0  0  0  0  0  0  0  0  0  0
   -3.7032   24.7788  -30.8050 H   0  0  0  0  0  0  0  0  0  0  0  0
   -6.3750   23.3850  -30.8740 C   0  0  0  0  0  0  0  0  0  0  0  0
   -6.4660   24.6870  -30.2470 C   0  0  0  0  0  0  0  0  0  0  0  0
   -6.5390   25.7280  -29.7460 N   0  0  0  0  0  0  0  0  0  0  0  0
  1  2  1  0
  2  3  2  0
  3  4  1  0
  4  5  1  0
  5  6  1  0
  6  7  1  0
  7  8  1  0
  8  9  1  0
  9 10  1  0
  9 11  1  0
  9 12  1  0
  8 13  2  0
 13 14  1  0
 13 15  1  0
 15 16  1  0
  5 17  2  0
 17 18  1  0
 17 19  1  0
 19 20  1  0
 20 21  2  0
 21 22  1  0
 21 23  1  0
 23 24  1  0
 23 25  2  0
 25 26  1  0
 26 27  1  0
 25 28  1  0
 28 29  1  0
 28 30  2  0
 30 31  1  0
 19 32  2  0
 32 33  1  0
 33 34  3  0
 32  3  1  0
 15  6  2  0
 30 20  1  0
M  CHG  2   4  -1  29  -1
M  END
>  <UniqueID>  (21) 
20

>  <SMILES>  (21) 
[H]/N=c1\[n-]c(-c2ccc(C)s2)cc(-c2ccc(O)c([O-])c2)c1C#N

>  <Energy>  (21) 
70.74612715531613

>  <Genealogy>  (21) 
Cc1ccc(-c2cc(-c3ccc(O)c([O-])c3)c(C#N)c(=N)[n-]2)s1 (protonated)
[H]/N=c1\[n-]c(-c2ccc(C)s2)cc(-c2ccc(O)c([O-])c2)c1C#N (cis-trans isomerization)
[H]/N=c1\[n-]c(-c2ccc(C)s2)cc(-c2ccc(O)c([O-])c2)c1C#N (3D coordinates assigned)
[H]/N=c1\[n-]c(-c2ccc(C)s2)cc(-c2ccc(O)c([O-])c2)c1C#N (optimized conformer: 70.74612715531613 kcal/mol)

>  <smiles>  (21) 
Cc1ccc(-c2cc(-c3ccc(O)c(O)c3)c(C#N)c(=N)[nH]2)s1

>  <score_type>  (21) 
oracle

>  <origin>  (21) 
adgpu

>  <m_score__min__energy>  (21) 
-10.720000000000001

>  <m_primary>  (21) 
energy

$$$$
21:0
     RDKit          3D

 46 48  0  0  0  0  0  0  0  0999 V2000
   -3.8640   24.5430  -28.2050 O   0  0  0  0  0  0  0  0  0  0  0  0
   -3.2100   24.9290  -29.2100 C   0  0  0  0  0  0  0  0  0  0  0  0
   -1.8180   25.2420  -29.0870 N   0  0  0  0  0  0  0  0  0  0  0  0
   -0.7480   24.2840  -29.3410 C   0  0  0  0  0  0  0  0  0  0  0  0
   -1.1630   22.9050  -28.8980 C   0  0  0  0  0  0  0  0  0  0  0  0
   -1.0740   21.8230  -29.7900 C   0  0  0  0  0  0  0  0  0  0  0  0
   -1.4740   20.5440  -29.3920 C   0  0  0  0  0  0  0  0  0  0  0  0
   -1.9700   20.3350  -28.1030 C   0  0  0  0  0  0  0  0  0  0  0  0
   -2.0690   21.4050  -27.2100 C   0  0  0  0  0  0  0  0  0  0  0  0
   -1.6700   22.6910  -27.6010 C   0  0  0  0  0  0  0  0  0  0  0  0
   -1.7770   23.7560  -26.7060 O   0  0  0  0  0  0  0  0  0  0  0  0
   -3.8910   25.1020  -30.4570 N   0  0  0  0  0  0  0  0  0  0  0  0
   -4.7910   24.1660  -31.0690 C   0  0  0  0  0  0  0  0  0  0  0  0
   -6.1360   24.4890  -31.3270 C   0  0  0  0  0  0  0  0  0  0  0  0
   -6.9750   23.5590  -31.9470 C   0  0  0  0  0  0  0  0  0  0  0  0
   -6.4780   22.3100  -32.3280 C   0  0  0  0  0  0  0  0  0  0  0  0
   -5.1340   21.9880  -32.1010 C   0  0  0  0  0  0  0  0  0  0  0  0
   -4.4970   20.4200  -32.6020 S   0  0  0  0  0  0  0  0  0  0  0  0
   -3.6660   20.5990  -33.8420 O   0  0  0  0  0  0  0  0  0  0  0  0
   -3.6060   19.8780  -31.5190 O   0  0  0  0  0  0  0  0  0  0  0  0
   -5.7740   19.2730  -32.9270 N   0  0  0  0  0  0  0  0  0  0  0  0
   -5.2100   17.9580  -33.2740 C   0  0  0  0  0  0  0  0  0  0  0  0
   -6.3190   16.8880  -33.3310 C   0  0  0  0  0  0  0  0  0  0  0  0
   -7.6030   17.4820  -33.3120 O   0  0  0  0  0  0  0  0  0  0  0  0
   -7.8040   18.1550  -32.0810 C   0  0  0  0  0  0  0  0  0  0  0  0
   -6.6680   19.1520  -31.7680 C   0  0  0  0  0  0  0  0  0  0  0  0
   -4.2940   22.9230  -31.4770 C   0  0  0  0  0  0  0  0  0  0  0  0
   -0.5246   24.2670  -30.4179 H   0  0  0  0  0  0  0  0  0  0  0  0
    0.1450   24.5874  -28.7749 H   0  0  0  0  0  0  0  0  0  0  0  0
   -0.6874   21.9833  -30.8073 H   0  0  0  0  0  0  0  0  0  0  0  0
   -1.3981   19.7012  -30.0947 H   0  0  0  0  0  0  0  0  0  0  0  0
   -2.2828   19.3276  -27.7909 H   0  0  0  0  0  0  0  0  0  0  0  0
   -2.4615   21.2378  -26.1961 H   0  0  0  0  0  0  0  0  0  0  0  0
   -2.0890   24.6720  -27.0050 H   0  0  0  0  0  0  0  0  0  0  0  0
   -6.5281   25.4759  -31.0400 H   0  0  0  0  0  0  0  0  0  0  0  0
   -8.0290   23.8109  -32.1355 H   0  0  0  0  0  0  0  0  0  0  0  0
   -7.1441   21.5776  -32.8075 H   0  0  0  0  0  0  0  0  0  0  0  0
   -4.7199   18.0230  -34.2567 H   0  0  0  0  0  0  0  0  0  0  0  0
   -4.4805   17.6709  -32.5024 H   0  0  0  0  0  0  0  0  0  0  0  0
   -6.2072   16.3040  -34.2565 H   0  0  0  0  0  0  0  0  0  0  0  0
   -6.2223   16.2380  -32.4489 H   0  0  0  0  0  0  0  0  0  0  0  0
   -8.7550   18.7057  -32.1298 H   0  0  0  0  0  0  0  0  0  0  0  0
   -7.8190   17.3991  -31.2820 H   0  0  0  0  0  0  0  0  0  0  0  0
   -7.1006   20.1366  -31.5369 H   0  0  0  0  0  0  0  0  0  0  0  0
   -6.0932   18.7858  -30.9046 H   0  0  0  0  0  0  0  0  0  0  0  0
   -3.2355   22.6767  -31.3070 H   0  0  0  0  0  0  0  0  0  0  0  0
  1  2  2  0
  2  3  1  0
  3  4  1  0
  4  5  1  0
  5  6  2  0
  6  7  1  0
  7  8  2  0
  8  9  1  0
  9 10  2  0
 10 11  1  0
  2 12  1  0
 12 13  1  0
 13 14  2  0
 14 15  1  0
 15 16  2  0
 16 17  1  0
 17 18  1  0
 18 19  2  0
 18 20  2  0
 18 21  1  0
 21 22  1  0
 22 23  1  0
 23 24  1  0
 24 25  1  0
 25 26  1  0
 17 27  2  0
 10  5  1  0
 27 13  1  0
 26 21  1  0
  4 28  1  0
  4 29  1  0
  6 30  1  0
  7 31  1  0
  8 32  1  0
  9 33  1  0
 11 34  1  0
 14 35  1  0
 15 36  1  0
 16 37  1  0
 22 38  1  0
 22 39  1  0
 23 40  1  0
 23 41  1  0
 25 42  1  0
 25 43  1  0
 26 44  1  0
 26 45  1  0
 27 46  1  0
M  CHG  2   3  -1  12  -1
M  END
>  <UniqueID>  (22) 
21

>  <SMILES>  (22) 
O=C([N-]Cc1ccccc1O)[N-]c1cccc(S(=O)(=O)N2CCOCC2)c1

>  <Energy>  (22) 
55.590141290754005

>  <Genealogy>  (22) 
O=C([N-]Cc1ccccc1O)[N-]c1cccc(S(=O)(=O)N2CCOCC2)c1 (protonated)
O=C([N-]Cc1ccccc1O)[N-]c1cccc(S(=O)(=O)N2CCOCC2)c1 (3D coordinates assigned)
O=C([N-]Cc1ccccc1O)[N-]c1cccc(S(=O)(=O)N2CCOCC2)c1 (nonaromatic ring conformer: 55.590141290754005 kcal/mol)

>  <smiles>  (22) 
O=C(NCc1ccccc1O)Nc1cccc(S(=O)(=O)N2CCOCC2)c1

>  <score_type>  (22) 
oracle

>  <origin>  (22) 
adgpu

>  <m_score__min__energy>  (22) 
-12.26

>  <m_primary>  (22) 
energy

$$$$
22:0
     RDKit          3D

 46 48  0  0  0  0  0  0  0  0999 V2000
   -2.8990   20.5190  -31.7150 C   0  0  0  0  0  0  0  0  0  0  0  0
   -2.7520   21.8250  -30.9950 C   0  0  0  0  0  0  0  0  0  0  0  0
   -1.5900   22.2810  -30.4060 C   0  0  0  0  0  0  0  0  0  0  0  0
   -1.9300   23.5290  -29.9140 C   0  0  0  0  0  0  0  0  0  0  0  0
   -1.0340   24.4520  -29.2060 C   0  0  0  0  0  0  0  0  0  0  0  0
   -1.4500   25.7920  -28.9520 N   0  0  0  0  0  0  0  0  0  0  0  0
    0.1010   24.0650  -28.8230 O   0  0  0  0  0  0  0  0  0  0  0  0
   -3.2220   23.7990  -30.1860 N   0  0  0  0  0  0  0  0  0  0  0  0
   -3.7200   22.7530  -30.8280 N   0  0  0  0  0  0  0  0  0  0  0  0
   -5.0730   22.7000  -31.3010 C   0  0  0  0  0  0  0  0  0  0  0  0
   -5.6820   21.4530  -31.5070 C   0  0  0  0  0  0  0  0  0  0  0  0
   -6.9980   21.3730  -31.9810 C   0  0  0  0  0  0  0  0  0  0  0  0
   -7.7500   19.7970  -32.2370 S   0  0  0  0  0  0  0  0  0  0  0  0
   -8.2820   19.2870  -30.9270 O   0  0  0  0  0  0  0  0  0  0  0  0
   -8.9090   19.9450  -33.1840 O   0  0  0  0  0  0  0  0  0  0  0  0
   -6.6140   18.6410  -32.8880 N   0  0  0  0  0  0  0  0  0  0  0  0
   -6.0920   19.1020  -34.1790 C   0  0  0  0  0  0  0  0  0  0  0  0
   -4.9290   18.1950  -34.6260 C   0  0  0  0  0  0  0  0  0  0  0  0
   -5.0420   16.8050  -34.1240 N   0  0  0  0  0  0  0  0  0  0  0  0
   -4.2510   16.5850  -32.9010 C   0  0  0  0  0  0  0  0  0  0  0  0
   -6.4460   16.3790  -33.9550 C   0  0  0  0  0  0  0  0  0  0  0  0
   -7.2450   17.3150  -33.0180 C   0  0  0  0  0  0  0  0  0  0  0  0
   -7.7070   22.5500  -32.2540 C   0  0  0  0  0  0  0  0  0  0  0  0
   -7.1010   23.7950  -32.0710 C   0  0  0  0  0  0  0  0  0  0  0  0
   -5.7810   23.8770  -31.6070 C   0  0  0  0  0  0  0  0  0  0  0  0
   -5.1650   25.1190  -31.4720 O   0  0  0  0  0  0  0  0  0  0  0  0
   -2.9907   19.7043  -30.9816 H   0  0  0  0  0  0  0  0  0  0  0  0
   -3.7996   20.5475  -32.3459 H   0  0  0  0  0  0  0  0  0  0  0  0
   -2.0146   20.3466  -32.3459 H   0  0  0  0  0  0  0  0  0  0  0  0
   -0.6179   21.7702  -30.3423 H   0  0  0  0  0  0  0  0  0  0  0  0
   -2.4620   26.0480  -28.9550 H   0  0  0  0  0  0  0  0  0  0  0  0
   -5.1217   20.5305  -31.2946 H   0  0  0  0  0  0  0  0  0  0  0  0
   -6.8937   19.0651  -34.9312 H   0  0  0  0  0  0  0  0  0  0  0  0
   -5.7279   20.1348  -34.0756 H   0  0  0  0  0  0  0  0  0  0  0  0
   -4.9099   18.1685  -35.7255 H   0  0  0  0  0  0  0  0  0  0  0  0
   -4.0054   18.6189  -34.2050 H   0  0  0  0  0  0  0  0  0  0  0  0
   -4.8837   16.7610  -32.0185 H   0  0  0  0  0  0  0  0  0  0  0  0
   -3.8800   15.5496  -32.8856 H   0  0  0  0  0  0  0  0  0  0  0  0
   -3.3987   17.2802  -32.8856 H   0  0  0  0  0  0  0  0  0  0  0  0
   -6.9323   16.3700  -34.9417 H   0  0  0  0  0  0  0  0  0  0  0  0
   -6.4370   15.3790  -33.4969 H   0  0  0  0  0  0  0  0  0  0  0  0
   -8.2588   17.4432  -33.4252 H   0  0  0  0  0  0  0  0  0  0  0  0
   -7.2708   16.8532  -32.0200 H   0  0  0  0  0  0  0  0  0  0  0  0
   -8.7449   22.4934  -32.6139 H   0  0  0  0  0  0  0  0  0  0  0  0
   -7.6620   24.7150  -32.2920 H   0  0  0  0  0  0  0  0  0  0  0  0
   -4.1650   25.2330  -31.5960 H   0  0  0  0  0  0  0  0  0  0  0  0
  1  2  1  0
  2  3  2  0
  3  4  1  0
  4  5  1  0
  5  6  1  0
  5  7  2  0
  4  8  2  0
  8  9  1  0
  9 10  1  0
 10 11  2  0
 11 12  1  0
 12 13  1  0
 13 14  2  0
 13 15  2  0
 13 16  1  0
 16 17  1  0
 17 18  1  0
 18 19  1  0
 19 20  1  0
 19 21  1  0
 21 22  1  0
 12 23  2  0
 23 24  1  0
 24 25  2  0
 25 26  1  0
  9  2  1  0
 25 10  1  0
 22 16  1  0
  1 27  1  0
  1 28  1  0
  1 29  1  0
  3 30  1  0
  6 31  1  0
 11 32  1  0
 17 33  1  0
 17 34  1  0
 18 35  1  0
 18 36  1  0
 20 37  1  0
 20 38  1  0
 20 39  1  0
 21 40  1  0
 21 41  1  0
 22 42  1  0
 22 43  1  0
 23 44  1  0
 24 45  1  0
 26 46  1  0
M  CHG  1   6  -1
M  END
>  <UniqueID>  (23) 
22

>  <SMILES>  (23) 
Cc1cc(C([NH-])=O)nn1-c1cc(S(=O)(=O)N2CCN(C)CC2)ccc1O

>  <Energy>  (23) 
88.71105033147471

>  <Genealogy>  (23) 
Cc1cc(C([NH-])=O)nn1-c1cc(S(=O)(=O)N2CCN(C)CC2)ccc1O (protonated)
Cc1cc(C([NH-])=O)nn1-c1cc(S(=O)(=O)N2CCN(C)CC2)ccc1O (3D coordinates assigned)
Cc1cc(C([NH-])=O)nn1-c1cc(S(=O)(=O)N2CCN(C)CC2)ccc1O (nonaromatic ring conformer: 88.71105033147471 kcal/mol)

>  <smiles>  (23) 
Cc1cc(C(N)=O)nn1-c1cc(S(=O)(=O)N2CCN(C)CC2)ccc1O

>  <score_type>  (23) 
oracle

>  <origin>  (23) 
adgpu

>  <m_score__min__energy>  (23) 
-11.859999999999999

>  <m_primary>  (23) 
energy

$$$$
23:0
     RDKit          3D

 62 65  0  0  0  0  0  0  0  0999 V2000
    0.2060   20.1580  -33.0340 O   0  0  0  0  0  0  0  0  0  0  0  0
   -0.7750   20.3260  -33.8050 C   0  0  0  0  0  0  0  0  0  0  0  0
   -0.6010   21.0140  -35.0520 N   0  0  0  0  0  0  0  0  0  0  0  0
    0.4700   21.9350  -35.3120 C   0  0  0  0  0  0  0  0  0  0  0  0
    1.7930   21.5400  -35.0680 C   0  0  0  0  0  0  0  0  0  0  0  0
    2.8530   22.4030  -35.3540 C   0  0  0  0  0  0  0  0  0  0  0  0
    2.6020   23.6610  -35.9050 C   0  0  0  0  0  0  0  0  0  0  0  0
    1.2870   24.0650  -36.1740 C   0  0  0  0  0  0  0  0  0  0  0  0
    0.9730   25.6400  -36.9060 S   0  0  0  0  0  0  0  0  0  0  0  0
    1.1520   25.5350  -38.3960 O   0  0  0  0  0  0  0  0  0  0  0  0
    1.9810   26.6310  -36.3920 O   0  0  0  0  0  0  0  0  0  0  0  0
   -0.6390   26.2210  -36.5550 N   0  0  0  0  0  0  0  0  0  0  0  0
   -1.2560   26.8190  -37.7450 C   0  0  0  0  0  0  0  0  0  0  0  0
   -1.1080   28.3310  -37.6590 C   0  0  0  0  0  0  0  0  0  0  0  0
   -0.6570   28.6230  -36.2410 C   0  0  0  0  0  0  0  0  0  0  0  0
   -0.6130   27.2760  -35.5360 C   0  0  0  0  0  0  0  0  0  0  0  0
    0.2220   23.1980  -35.8800 C   0  0  0  0  0  0  0  0  0  0  0  0
   -2.1000   19.7900  -33.4310 C   0  0  0  0  0  0  0  0  0  0  0  0
   -2.7110   18.8030  -34.2220 C   0  0  0  0  0  0  0  0  0  0  0  0
   -3.9720   18.3080  -33.8860 C   0  0  0  0  0  0  0  0  0  0  0  0
   -4.6370   18.7760  -32.7430 C   0  0  0  0  0  0  0  0  0  0  0  0
   -6.2200   18.1310  -32.3040 S   0  0  0  0  0  0  0  0  0  0  0  0
   -6.8780   17.5860  -33.5420 O   0  0  0  0  0  0  0  0  0  0  0  0
   -6.0410   16.9970  -31.3350 O   0  0  0  0  0  0  0  0  0  0  0  0
   -7.2150   19.3980  -31.6120 N   0  0  0  0  0  0  0  0  0  0  0  0
   -8.6390   18.9920  -31.5020 C   0  0  0  0  0  0  0  0  0  0  0  0
   -9.5970   19.6660  -32.5080 C   0  0  0  0  0  0  0  0  0  0  0  0
   -9.8530   21.1780  -32.2750 C   0  0  0  0  0  0  0  0  0  0  0  0
   -9.0360   21.8320  -31.1470 C   0  0  0  0  0  0  0  0  0  0  0  0
   -7.5250   21.9160  -31.4270 C   0  0  0  0  0  0  0  0  0  0  0  0
   -6.9300   20.7250  -32.2030 C   0  0  0  0  0  0  0  0  0  0  0  0
   -4.0230   19.7510  -31.9440 C   0  0  0  0  0  0  0  0  0  0  0  0
   -2.7730   20.2700  -32.2960 C   0  0  0  0  0  0  0  0  0  0  0  0
   -1.2400   20.7660  -35.8410 H   0  0  0  0  0  0  0  0  0  0  0  0
    1.9973   20.5438  -34.6486 H   0  0  0  0  0  0  0  0  0  0  0  0
    3.8870   22.0912  -35.1449 H   0  0  0  0  0  0  0  0  0  0  0  0
    3.4396   24.3379  -36.1289 H   0  0  0  0  0  0  0  0  0  0  0  0
   -0.7525   26.4480  -38.6499 H   0  0  0  0  0  0  0  0  0  0  0  0
   -2.3208   26.5472  -37.7937 H   0  0  0  0  0  0  0  0  0  0  0  0
   -0.3561   28.6837  -38.3802 H   0  0  0  0  0  0  0  0  0  0  0  0
   -2.0515   28.8439  -37.8970 H   0  0  0  0  0  0  0  0  0  0  0  0
    0.3404   29.0869  -36.2439 H   0  0  0  0  0  0  0  0  0  0  0  0
   -1.3379   29.3233  -35.7351 H   0  0  0  0  0  0  0  0  0  0  0  0
    0.3097   27.1970  -34.9424 H   0  0  0  0  0  0  0  0  0  0  0  0
   -1.4762   27.1729  -34.8620 H   0  0  0  0  0  0  0  0  0  0  0  0
   -0.8113   23.5080  -36.0949 H   0  0  0  0  0  0  0  0  0  0  0  0
   -2.1922   18.4177  -35.1121 H   0  0  0  0  0  0  0  0  0  0  0  0
   -4.4473   17.5462  -34.5214 H   0  0  0  0  0  0  0  0  0  0  0  0
   -8.6951   17.9043  -31.6558 H   0  0  0  0  0  0  0  0  0  0  0  0
   -8.9707   19.3137  -30.5038 H   0  0  0  0  0  0  0  0  0  0  0  0
   -9.1708   19.5455  -33.5149 H   0  0  0  0  0  0  0  0  0  0  0  0
  -10.5704   19.1708  -32.3768 H   0  0  0  0  0  0  0  0  0  0  0  0
   -9.6198   21.7074  -33.2106 H   0  0  0  0  0  0  0  0  0  0  0  0
  -10.9054   21.2574  -31.9648 H   0  0  0  0  0  0  0  0  0  0  0  0
   -9.4154   22.8531  -30.9941 H   0  0  0  0  0  0  0  0  0  0  0  0
   -9.1571   21.1939  -30.2592 H   0  0  0  0  0  0  0  0  0  0  0  0
   -7.3382   22.8292  -32.0112 H   0  0  0  0  0  0  0  0  0  0  0  0
   -7.0335   21.9129  -30.4429 H   0  0  0  0  0  0  0  0  0  0  0  0
   -7.3407   20.7411  -33.2233 H   0  0  0  0  0  0  0  0  0  0  0  0
   -5.8375   20.8499  -32.1746 H   0  0  0  0  0  0  0  0  0  0  0  0
   -4.5276   20.1098  -31.0348 H   0  0  0  0  0  0  0  0  0  0  0  0
   -2.3147   21.0582  -31.6806 H   0  0  0  0  0  0  0  0  0  0  0  0
  1  2  2  0
  2  3  1  0
  3  4  1  0
  4  5  2  0
  5  6  1  0
  6  7  2  0
  7  8  1  0
  8  9  1  0
  9 10  2  0
  9 11  2  0
  9 12  1  0
 12 13  1  0
 13 14  1  0
 14 15  1  0
 15 16  1  0
  8 17  2  0
  2 18  1  0
 18 19  2  0
 19 20  1  0
 20 21  2  0
 21 22  1  0
 22 23  2  0
 22 24  2  0
 22 25  1  0
 25 26  1  0
 26 27  1  0
 27 28  1  0
 28 29  1  0
 29 30  1  0
 30 31  1  0
 21 32  1  0
 32 33  2  0
 17  4  1  0
 33 18  1  0
 16 12  1  0
 31 25  1  0
  3 34  1  0
  5 35  1  0
  6 36  1  0
  7 37  1  0
 13 38  1  0
 13 39  1  0
 14 40  1  0
 14 41  1  0
 15 42  1  0
 15 43  1  0
 16 44  1  0
 16 45  1  0
 17 46  1  0
 19 47  1  0
 20 48  1  0
 26 49  1  0
 26 50  1  0
 27 51  1  0
 27 52  1  0
 28 53  1  0
 28 54  1  0
 29 55  1  0
 29 56  1  0
 30 57  1  0
 30 58  1  0
 31 59  1  0
 31 60  1  0
 32 61  1  0
 33 62  1  0
M  END
>  <UniqueID>  (24) 
23

>  <SMILES>  (24) 
O=C(Nc1cccc(S(=O)(=O)N2CCCC2)c1)c1ccc(S(=O)(=O)N2CCCCCC2)cc1

>  <Energy>  (24) 
84.50755172415778

>  <Genealogy>  (24) 
O=C(Nc1cccc(S(=O)(=O)N2CCCC2)c1)c1ccc(S(=O)(=O)N2CCCCCC2)cc1 (3D coordinates assigned)
O=C(Nc1cccc(S(=O)(=O)N2CCCC2)c1)c1ccc(S(=O)(=O)N2CCCCCC2)cc1 (nonaromatic ring conformer: 84.50755172415778 kcal/mol)

>  <smiles>  (24) 
O=C(Nc1cccc(S(=O)(=O)N2CCCC2)c1)c1ccc(S(=O)(=O)N2CCCCCC2)cc1

>  <score_type>  (24) 
oracle

>  <origin>  (24) 
adgpu

>  <m_score__min__energy>  (24) 
-9.0099999999999998

>  <m_primary>  (24) 
energy

$$$$
24:0
     RDKit          3D

 46 48  0  0  0  0  0  0  0  0999 V2000
   -0.6320   25.3280  -24.0420 C   0  0  0  0  0  0  0  0  0  0  0  0
    0.5420   24.5120  -24.4070 N   0  0  0  0  0  0  0  0  0  0  0  0
    0.2570   23.0630  -24.2830 C   0  0  0  0  0  0  0  0  0  0  0  0
   -0.8000   22.5970  -25.3020 C   0  0  0  0  0  0  0  0  0  0  0  0
   -0.6350   23.3000  -26.5790 N   0  0  0  0  0  0  0  0  0  0  0  0
   -1.7320   23.3820  -27.5090 C   0  0  0  0  0  0  0  0  0  0  0  0
   -2.7240   22.3850  -27.5320 C   0  0  0  0  0  0  0  0  0  0  0  0
   -3.7760   22.4550  -28.4490 C   0  0  0  0  0  0  0  0  0  0  0  0
   -3.8470   23.5160  -29.3610 C   0  0  0  0  0  0  0  0  0  0  0  0
   -5.1560   23.6040  -30.5370 S   0  0  0  0  0  0  0  0  0  0  0  0
   -5.0280   24.8930  -31.3010 O   0  0  0  0  0  0  0  0  0  0  0  0
   -6.4910   23.5870  -29.8470 O   0  0  0  0  0  0  0  0  0  0  0  0
   -5.0610   22.2130  -31.6310 C   0  0  0  0  0  0  0  0  0  0  0  0
   -3.8230   21.5840  -31.8270 C   0  0  0  0  0  0  0  0  0  0  0  0
   -3.7160   20.4800  -32.6720 C   0  0  0  0  0  0  0  0  0  0  0  0
   -4.8420   19.9900  -33.3310 C   0  0  0  0  0  0  0  0  0  0  0  0
   -6.0940   20.5980  -33.1520 C   0  0  0  0  0  0  0  0  0  0  0  0
   -7.2310   20.0650  -33.8450 N   0  0  0  0  0  0  0  0  0  0  0  0
   -6.2080   21.7180  -32.2960 C   0  0  0  0  0  0  0  0  0  0  0  0
   -7.4930   22.3500  -32.0990 C   0  0  0  0  0  0  0  0  0  0  0  0
   -8.5220   22.8570  -31.9410 N   0  0  0  0  0  0  0  0  0  0  0  0
   -2.8610   24.5080  -29.3450 C   0  0  0  0  0  0  0  0  0  0  0  0
   -1.8070   24.4400  -28.4290 C   0  0  0  0  0  0  0  0  0  0  0  0
    0.6630   23.9120  -26.8760 C   0  0  0  0  0  0  0  0  0  0  0  0
    1.0700   24.8850  -25.7510 C   0  0  0  0  0  0  0  0  0  0  0  0
   -0.7131   25.3844  -22.9464 H   0  0  0  0  0  0  0  0  0  0  0  0
   -0.5164   26.3415  -24.4537 H   0  0  0  0  0  0  0  0  0  0  0  0
   -1.5417   24.8665  -24.4537 H   0  0  0  0  0  0  0  0  0  0  0  0
    1.2870   24.7330  -23.7030 H   0  0  0  0  0  0  0  0  0  0  0  0
    1.1874   22.5015  -24.4536 H   0  0  0  0  0  0  0  0  0  0  0  0
   -0.1378   22.8781  -23.2731 H   0  0  0  0  0  0  0  0  0  0  0  0
   -0.6889   21.5153  -25.4684 H   0  0  0  0  0  0  0  0  0  0  0  0
   -1.7998   22.8210  -24.9017 H   0  0  0  0  0  0  0  0  0  0  0  0
   -2.6713   21.5450  -26.8237 H   0  0  0  0  0  0  0  0  0  0  0  0
   -4.5510   21.6744  -28.4548 H   0  0  0  0  0  0  0  0  0  0  0  0
   -2.9296   21.9644  -31.3102 H   0  0  0  0  0  0  0  0  0  0  0  0
   -2.7400   19.9944  -32.8189 H   0  0  0  0  0  0  0  0  0  0  0  0
   -4.7486   19.1195  -33.9969 H   0  0  0  0  0  0  0  0  0  0  0  0
   -7.2430   20.0220  -34.8890 H   0  0  0  0  0  0  0  0  0  0  0  0
   -8.0720   19.7090  -33.3400 H   0  0  0  0  0  0  0  0  0  0  0  0
   -2.9151   25.3453  -30.0563 H   0  0  0  0  0  0  0  0  0  0  0  0
   -1.0316   25.2203  -28.4291 H   0  0  0  0  0  0  0  0  0  0  0  0
    1.4238   23.1225  -26.9650 H   0  0  0  0  0  0  0  0  0  0  0  0
    0.5855   24.4713  -27.8200 H   0  0  0  0  0  0  0  0  0  0  0  0
    2.1683   24.9108  -25.6963 H   0  0  0  0  0  0  0  0  0  0  0  0
    0.6358   25.8636  -26.0036 H   0  0  0  0  0  0  0  0  0  0  0  0
  1  2  1  0
  2  3  1  0
  3  4  1  0
  4  5  1  0
  5  6  1  0
  6  7  2  0
  7  8  1  0
  8  9  2  0
  9 10  1  0
 10 11  2  0
 10 12  2  0
 10 13  1  0
 13 14  2  0
 14 15  1  0
 15 16  2  0
 16 17  1  0
 17 18  1  0
 17 19  2  0
 19 20  1  0
 20 21  3  0
  9 22  1  0
 22 23  2  0
  5 24  1  0
 24 25  1  0
 25  2  1  0
 23  6  1  0
 19 13  1  0
  1 26  1  0
  1 27  1  0
  1 28  1  0
  2 29  1  0
  3 30  1  0
  3 31  1  0
  4 32  1  0
  4 33  1  0
  7 34  1  0
  8 35  1  0
 14 36  1  0
 15 37  1  0
 16 38  1  0
 18 39  1  0
 18 40  1  0
 22 41  1  0
 23 42  1  0
 24 43  1  0
 24 44  1  0
 25 45  1  0
 25 46  1  0
M  CHG  1   2   1
M  END
>  <UniqueID>  (25) 
24

>  <SMILES>  (25) 
C[NH+]1CCN(c2ccc(S(=O)(=O)c3cccc(N)c3C#N)cc2)CC1

>  <Energy>  (25) 
61.90714615451938

>  <Genealogy>  (25) 
C[NH+]1CCN(c2ccc(S(=O)(=O)c3cccc(N)c3C#N)cc2)CC1 (protonated)
C[NH+]1CCN(c2ccc(S(=O)(=O)c3cccc(N)c3C#N)cc2)CC1 (3D coordinates assigned)
C[NH+]1CCN(c2ccc(S(=O)(=O)c3cccc(N)c3C#N)cc2)CC1 (nonaromatic ring conformer: 61.90714615451938 kcal/mol)

>  <smiles>  (25) 
CN1CCN(c2ccc(S(=O)(=O)c3cccc(N)c3C#N)cc2)CC1

>  <score_type>  (25) 
oracle

>  <origin>  (25) 
adgpu

>  <m_score__min__energy>  (25) 
-8.2899999999999991

>  <m_primary>  (25) 
energy

$$$$
25:0
     RDKit          3D

 52 54  0  0  0  0  0  0  0  0999 V2000
   -9.4790   21.4950  -30.9790 C   0  0  0  0  0  0  0  0  0  0  0  0
   -8.5530   20.5880  -31.7200 C   0  0  0  0  0  0  0  0  0  0  0  0
   -8.7170   19.2510  -31.7700 N   0  0  0  0  0  0  0  0  0  0  0  0
   -7.7190   18.7430  -32.4780 N   0  0  0  0  0  0  0  0  0  0  0  0
   -7.5870   17.3210  -32.7710 C   0  0  0  0  0  0  0  0  0  0  0  0
   -6.8890   19.7300  -32.8780 C   0  0  0  0  0  0  0  0  0  0  0  0
   -5.7170   19.5550  -33.7970 C   0  0  0  0  0  0  0  0  0  0  0  0
   -7.4080   20.9290  -32.4290 C   0  0  0  0  0  0  0  0  0  0  0  0
   -6.8740   22.2350  -32.6980 N   0  0  0  0  0  0  0  0  0  0  0  0
   -5.9860   23.1500  -31.5220 S   0  0  0  0  0  0  0  0  0  0  0  0
   -6.1050   24.6060  -31.8670 O   0  0  0  0  0  0  0  0  0  0  0  0
   -6.5930   22.9230  -30.1660 O   0  0  0  0  0  0  0  0  0  0  0  0
   -4.2970   22.6020  -31.4710 C   0  0  0  0  0  0  0  0  0  0  0  0
   -3.8750   21.7150  -32.4730 C   0  0  0  0  0  0  0  0  0  0  0  0
   -2.5520   21.2850  -32.5360 C   0  0  0  0  0  0  0  0  0  0  0  0
   -1.6250   21.7470  -31.6090 C   0  0  0  0  0  0  0  0  0  0  0  0
   -2.0130   22.6290  -30.5930 C   0  0  0  0  0  0  0  0  0  0  0  0
   -1.0040   23.1170  -29.6920 N   0  0  0  0  0  0  0  0  0  0  0  0
   -0.9390   22.7460  -28.3010 C   0  0  0  0  0  0  0  0  0  0  0  0
   -1.1080   21.4000  -27.9190 C   0  0  0  0  0  0  0  0  0  0  0  0
   -1.0710   21.0310  -26.5740 C   0  0  0  0  0  0  0  0  0  0  0  0
   -0.8780   21.9990  -25.5890 C   0  0  0  0  0  0  0  0  0  0  0  0
   -0.7180   23.3390  -25.9480 C   0  0  0  0  0  0  0  0  0  0  0  0
   -0.7440   23.7270  -27.2980 C   0  0  0  0  0  0  0  0  0  0  0  0
   -0.5140   25.4320  -27.7050 S   0  0  0  0  0  0  0  0  0  0  0  0
   -1.2360   25.7750  -29.2370 N   0  0  0  0  0  0  0  0  0  0  0  0
    0.9530   25.7560  -27.7850 O   0  0  0  0  0  0  0  0  0  0  0  0
   -1.1460   26.2910  -26.6460 O   0  0  0  0  0  0  0  0  0  0  0  0
   -3.3750   23.0110  -30.4700 C   0  0  0  0  0  0  0  0  0  0  0  0
   -3.8300   23.8250  -29.2830 C   0  0  0  0  0  0  0  0  0  0  0  0
   -9.3387   21.3576  -29.8967 H   0  0  0  0  0  0  0  0  0  0  0  0
   -9.2618   22.5395  -31.2472 H   0  0  0  0  0  0  0  0  0  0  0  0
  -10.5187   21.2562  -31.2472 H   0  0  0  0  0  0  0  0  0  0  0  0
   -7.5345   16.7558  -31.8288 H   0  0  0  0  0  0  0  0  0  0  0  0
   -8.4577   16.9841  -33.3527 H   0  0  0  0  0  0  0  0  0  0  0  0
   -6.6691   17.1501  -33.3527 H   0  0  0  0  0  0  0  0  0  0  0  0
   -4.8018   19.4184  -33.2022 H   0  0  0  0  0  0  0  0  0  0  0  0
   -5.8774   18.6708  -34.4315 H   0  0  0  0  0  0  0  0  0  0  0  0
   -5.6121   20.4474  -34.4315 H   0  0  0  0  0  0  0  0  0  0  0  0
   -7.2370   22.7620  -33.5230 H   0  0  0  0  0  0  0  0  0  0  0  0
   -4.5989   21.3545  -33.2187 H   0  0  0  0  0  0  0  0  0  0  0  0
   -2.2403   20.5792  -33.3200 H   0  0  0  0  0  0  0  0  0  0  0  0
   -0.5777   21.4169  -31.6741 H   0  0  0  0  0  0  0  0  0  0  0  0
   -0.4260   23.9230  -30.0200 H   0  0  0  0  0  0  0  0  0  0  0  0
   -1.2708   20.6321  -28.6896 H   0  0  0  0  0  0  0  0  0  0  0  0
   -1.1942   19.9754  -26.2903 H   0  0  0  0  0  0  0  0  0  0  0  0
   -0.8518   21.7070  -24.5288 H   0  0  0  0  0  0  0  0  0  0  0  0
   -0.5701   24.0983  -25.1660 H   0  0  0  0  0  0  0  0  0  0  0  0
   -1.2280   26.8090  -29.3590 H   0  0  0  0  0  0  0  0  0  0  0  0
   -3.5426   23.3109  -28.3540 H   0  0  0  0  0  0  0  0  0  0  0  0
   -3.3555   24.8169  -29.3150 H   0  0  0  0  0  0  0  0  0  0  0  0
   -4.9235   23.9404  -29.3150 H   0  0  0  0  0  0  0  0  0  0  0  0
  1  2  1  0
  2  3  2  0
  3  4  1  0
  4  5  1  0
  4  6  1  0
  6  7  1  0
  6  8  2  0
  8  9  1  0
  9 10  1  0
 10 11  2  0
 10 12  2  0
 10 13  1  0
 13 14  2  0
 14 15  1  0
 15 16  2  0
 16 17  1  0
 17 18  1  0
 18 19  1  0
 19 20  2  0
 20 21  1  0
 21 22  2  0
 22 23  1  0
 23 24  2  0
 24 25  1  0
 25 26  1  0
 25 27  2  0
 25 28  2  0
 17 29  2  0
 29 30  1  0
  8  2  1  0
 29 13  1  0
 24 19  1  0
  1 31  1  0
  1 32  1  0
  1 33  1  0
  5 34  1  0
  5 35  1  0
  5 36  1  0
  7 37  1  0
  7 38  1  0
  7 39  1  0
  9 40  1  0
 14 41  1  0
 15 42  1  0
 16 43  1  0
 18 44  1  0
 20 45  1  0
 21 46  1  0
 22 47  1  0
 23 48  1  0
 26 49  1  0
 30 50  1  0
 30 51  1  0
 30 52  1  0
M  CHG  1  26  -1
M  END
>  <UniqueID>  (26) 
25

>  <SMILES>  (26) 
Cc1nn(C)c(C)c1NS(=O)(=O)c1cccc(Nc2ccccc2S([NH-])(=O)=O)c1C

>  <Energy>  (26) 
97.78839490711596

>  <Genealogy>  (26) 
Cc1nn(C)c(C)c1NS(=O)(=O)c1cccc(Nc2ccccc2S([NH-])(=O)=O)c1C (protonated)
Cc1nn(C)c(C)c1NS(=O)(=O)c1cccc(Nc2ccccc2S([NH-])(=O)=O)c1C (3D coordinates assigned)
Cc1nn(C)c(C)c1NS(=O)(=O)c1cccc(Nc2ccccc2S([NH-])(=O)=O)c1C (optimized conformer: 97.78839490711596 kcal/mol)

>  <smiles>  (26) 
Cc1nn(C)c(C)c1NS(=O)(=O)c1cccc(Nc2ccccc2S(N)(=O)=O)c1C

>  <score_type>  (26) 
oracle

>  <origin>  (26) 
adgpu

>  <m_score__min__energy>  (26) 
-12.41

>  <m_primary>  (26) 
energy

$$$$
26:0
     RDKit          3D

 58 61  0  0  0  0  0  0  0  0999 V2000
    2.9190   15.6530  -26.3230 C   0  0  0  0  0  0  0  0  0  0  0  0
    3.3670   17.1550  -27.1780 S   0  0  0  0  0  0  0  0  0  0  0  0
    4.3520   17.9310  -26.3450 O   0  0  0  0  0  0  0  0  0  0  0  0
    4.0110   16.7840  -28.4840 O   0  0  0  0  0  0  0  0  0  0  0  0
    1.9420   18.1170  -27.4860 N   0  0  0  0  0  0  0  0  0  0  0  0
    2.0660   18.8020  -28.7830 C   0  0  0  0  0  0  0  0  0  0  0  0
    0.9340   19.8280  -28.9310 C   0  0  0  0  0  0  0  0  0  0  0  0
   -0.2650   19.3890  -28.2030 N   0  0  0  0  0  0  0  0  0  0  0  0
   -1.1160   20.3370  -27.5240 C   0  0  0  0  0  0  0  0  0  0  0  0
   -1.6840   19.9980  -26.4500 O   0  0  0  0  0  0  0  0  0  0  0  0
   -1.3420   21.7080  -28.0480 C   0  0  0  0  0  0  0  0  0  0  0  0
   -0.2470   22.4990  -28.4270 C   0  0  0  0  0  0  0  0  0  0  0  0
   -0.4380   23.8130  -28.8580 C   0  0  0  0  0  0  0  0  0  0  0  0
   -1.7240   24.3550  -28.9110 C   0  0  0  0  0  0  0  0  0  0  0  0
   -1.9000   25.6660  -29.3390 O   0  0  0  0  0  0  0  0  0  0  0  0
   -2.8340   23.5770  -28.5480 C   0  0  0  0  0  0  0  0  0  0  0  0
   -4.1390   24.1690  -28.5880 N   0  0  0  0  0  0  0  0  0  0  0  0
   -4.9510   24.6790  -30.0340 S   0  0  0  0  0  0  0  0  0  0  0  0
   -6.0430   25.6650  -29.7150 O   0  0  0  0  0  0  0  0  0  0  0  0
   -3.9560   25.3560  -30.9360 O   0  0  0  0  0  0  0  0  0  0  0  0
   -5.5950   23.2650  -30.8600 C   0  0  0  0  0  0  0  0  0  0  0  0
   -4.7630   22.4430  -31.6290 C   0  0  0  0  0  0  0  0  0  0  0  0
   -5.2880   21.3340  -32.2980 C   0  0  0  0  0  0  0  0  0  0  0  0
   -6.6510   21.0180  -32.1930 C   0  0  0  0  0  0  0  0  0  0  0  0
   -7.5020   21.8560  -31.4290 C   0  0  0  0  0  0  0  0  0  0  0  0
   -6.9600   22.9670  -30.7620 C   0  0  0  0  0  0  0  0  0  0  0  0
   -8.9630   21.5260  -31.2240 C   0  0  0  0  0  0  0  0  0  0  0  0
   -9.5070   20.5720  -32.2940 C   0  0  0  0  0  0  0  0  0  0  0  0
   -8.5600   19.3830  -32.4800 C   0  0  0  0  0  0  0  0  0  0  0  0
   -7.1980   19.8610  -32.9920 C   0  0  0  0  0  0  0  0  0  0  0  0
   -2.6360   22.2590  -28.1020 C   0  0  0  0  0  0  0  0  0  0  0  0
   -0.4940   17.9470  -28.0700 C   0  0  0  0  0  0  0  0  0  0  0  0
    0.7430   17.2550  -27.4590 C   0  0  0  0  0  0  0  0  0  0  0  0
    2.9689   15.8205  -25.2370 H   0  0  0  0  0  0  0  0  0  0  0  0
    1.8953   15.3633  -26.6026 H   0  0  0  0  0  0  0  0  0  0  0  0
    3.6167   14.8499  -26.6026 H   0  0  0  0  0  0  0  0  0  0  0  0
    3.0366   19.3172  -28.8341 H   0  0  0  0  0  0  0  0  0  0  0  0
    1.9993   18.0632  -29.5953 H   0  0  0  0  0  0  0  0  0  0  0  0
    1.2681   20.7948  -28.5264 H   0  0  0  0  0  0  0  0  0  0  0  0
    0.6834   19.9260  -29.9976 H   0  0  0  0  0  0  0  0  0  0  0  0
    0.7695   22.0807  -28.3842 H   0  0  0  0  0  0  0  0  0  0  0  0
    0.4270   24.4233  -29.1568 H   0  0  0  0  0  0  0  0  0  0  0  0
   -3.6898   22.6712  -31.7072 H   0  0  0  0  0  0  0  0  0  0  0  0
   -4.6275   20.7039  -32.9117 H   0  0  0  0  0  0  0  0  0  0  0  0
   -7.6149   23.6102  -30.1559 H   0  0  0  0  0  0  0  0  0  0  0  0
   -9.0827   21.0543  -30.2375 H   0  0  0  0  0  0  0  0  0  0  0  0
   -9.5304   22.4657  -31.2955 H   0  0  0  0  0  0  0  0  0  0  0  0
  -10.4952   20.2030  -31.9820 H   0  0  0  0  0  0  0  0  0  0  0  0
   -9.5899   21.1147  -33.2472 H   0  0  0  0  0  0  0  0  0  0  0  0
   -8.4257   18.8721  -31.5152 H   0  0  0  0  0  0  0  0  0  0  0  0
   -8.9955   18.6914  -33.2162 H   0  0  0  0  0  0  0  0  0  0  0  0
   -6.4862   19.0244  -32.9331 H   0  0  0  0  0  0  0  0  0  0  0  0
   -7.3339   20.2061  -34.0276 H   0  0  0  0  0  0  0  0  0  0  0  0
   -3.5000   21.6527  -27.7924 H   0  0  0  0  0  0  0  0  0  0  0  0
   -1.3626   17.7776  -27.4167 H   0  0  0  0  0  0  0  0  0  0  0  0
   -0.6805   17.5238  -29.0681 H   0  0  0  0  0  0  0  0  0  0  0  0
    0.5205   16.9921  -26.4143 H   0  0  0  0  0  0  0  0  0  0  0  0
    0.9592   16.3612  -28.0627 H   0  0  0  0  0  0  0  0  0  0  0  0
  1  2  1  0
  2  3  2  0
  2  4  2  0
  2  5  1  0
  5  6  1  0
  6  7  1  0
  7  8  1  0
  8  9  1  0
  9 10  2  0
  9 11  1  0
 11 12  2  0
 12 13  1  0
 13 14  2  0
 14 15  1  0
 14 16  1  0
 16 17  1  0
 17 18  1  0
 18 19  2  0
 18 20  2  0
 18 21  1  0
 21 22  2  0
 22 23  1  0
 23 24  2  0
 24 25  1  0
 25 26  2  0
 25 27  1  0
 27 28  1  0
 28 29  1  0
 29 30  1  0
 16 31  2  0
  8 32  1  0
 32 33  1  0
 33  5  1  0
 31 11  1  0
 26 21  1  0
 30 24  1  0
  1 34  1  0
  1 35  1  0
  1 36  1  0
  6 37  1  0
  6 38  1  0
  7 39  1  0
  7 40  1  0
 12 41  1  0
 13 42  1  0
 22 43  1  0
 23 44  1  0
 26 45  1  0
 27 46  1  0
 27 47  1  0
 28 48  1  0
 28 49  1  0
 29 50  1  0
 29 51  1  0
 30 52  1  0
 30 53  1  0
 31 54  1  0
 32 55  1  0
 32 56  1  0
 33 57  1  0
 33 58  1  0
M  CHG  2  15  -1  17  -1
M  END
>  <UniqueID>  (27) 
26

>  <SMILES>  (27) 
CS(=O)(=O)N1CCN(C(=O)c2ccc([O-])c([N-]S(=O)(=O)c3ccc4c(c3)CCCC4)c2)CC1

>  <Energy>  (27) 
69.9778541681596

>  <Genealogy>  (27) 
CS(=O)(=O)N1CCN(C(=O)c2ccc([O-])c([N-]S(=O)(=O)c3ccc4c(c3)CCCC4)c2)CC1 (protonated)
CS(=O)(=O)N1CCN(C(=O)c2ccc([O-])c([N-]S(=O)(=O)c3ccc4c(c3)CCCC4)c2)CC1 (3D coordinates assigned)
CS(=O)(=O)N1CCN(C(=O)c2ccc([O-])c([N-]S(=O)(=O)c3ccc4c(c3)CCCC4)c2)CC1 (nonaromatic ring conformer: 69.9778541681596 kcal/mol)

>  <smiles>  (27) 
CS(=O)(=O)N1CCN(C(=O)c2ccc(O)c(NS(=O)(=O)c3ccc4c(c3)CCCC4)c2)CC1

>  <score_type>  (27) 
oracle

>  <origin>  (27) 
adgpu

>  <m_score__min__energy>  (27) 
-15.380000000000001

>  <m_primary>  (27) 
energy

$$$$
27:0
     RDKit          3D

 51 53  0  0  0  0  0  0  0  0999 V2000
   -0.7620   18.4060  -27.5110 C   0  0  0  0  0  0  0  0  0  0  0  0
    0.6660   18.6250  -27.8970 C   0  0  0  0  0  0  0  0  0  0  0  0
    1.5140   17.7220  -27.6820 O   0  0  0  0  0  0  0  0  0  0  0  0
    1.0600   19.8960  -28.4320 N   0  0  0  0  0  0  0  0  0  0  0  0
    0.2530   21.0800  -28.4510 C   0  0  0  0  0  0  0  0  0  0  0  0
    0.2790   22.0140  -27.3920 C   0  0  0  0  0  0  0  0  0  0  0  0
   -0.4930   23.1770  -27.4590 C   0  0  0  0  0  0  0  0  0  0  0  0
   -1.3020   23.4210  -28.5800 C   0  0  0  0  0  0  0  0  0  0  0  0
   -2.2840   24.8800  -28.6430 S   0  0  0  0  0  0  0  0  0  0  0  0
   -1.3750   26.0750  -28.6040 O   0  0  0  0  0  0  0  0  0  0  0  0
   -3.2080   24.9560  -27.4620 O   0  0  0  0  0  0  0  0  0  0  0  0
   -3.1930   24.9220  -30.1190 N   0  0  0  0  0  0  0  0  0  0  0  0
   -4.2620   24.0390  -30.4880 C   0  0  0  0  0  0  0  0  0  0  0  0
   -4.0660   22.9410  -31.3440 C   0  0  0  0  0  0  0  0  0  0  0  0
   -5.1330   22.0940  -31.6720 C   0  0  0  0  0  0  0  0  0  0  0  0
   -4.8630   20.7080  -32.7300 S   0  0  0  0  0  0  0  0  0  0  0  0
   -3.7890   21.0380  -33.7310 O   0  0  0  0  0  0  0  0  0  0  0  0
   -4.3870   19.5510  -31.8890 O   0  0  0  0  0  0  0  0  0  0  0  0
   -6.3430   20.2450  -33.5480 N   0  0  0  0  0  0  0  0  0  0  0  0
   -6.1250   19.1930  -34.5560 C   0  0  0  0  0  0  0  0  0  0  0  0
   -5.8830   17.8050  -33.9320 C   0  0  0  0  0  0  0  0  0  0  0  0
   -6.7680   17.5280  -32.7030 C   0  0  0  0  0  0  0  0  0  0  0  0
   -7.9410   18.5040  -32.6060 C   0  0  0  0  0  0  0  0  0  0  0  0
   -7.4400   19.9600  -32.5830 C   0  0  0  0  0  0  0  0  0  0  0  0
   -6.4040   22.3410  -31.1430 C   0  0  0  0  0  0  0  0  0  0  0  0
   -6.6060   23.4240  -30.2870 C   0  0  0  0  0  0  0  0  0  0  0  0
   -5.5390   24.2720  -29.9560 C   0  0  0  0  0  0  0  0  0  0  0  0
   -5.7410   25.3480  -29.0950 O   0  0  0  0  0  0  0  0  0  0  0  0
   -1.3180   22.4970  -29.6420 C   0  0  0  0  0  0  0  0  0  0  0  0
   -0.5340   21.3410  -29.5820 C   0  0  0  0  0  0  0  0  0  0  0  0
   -0.8475   18.3929  -26.4144 H   0  0  0  0  0  0  0  0  0  0  0  0
   -1.3806   19.2198  -27.9173 H   0  0  0  0  0  0  0  0  0  0  0  0
   -1.1083   17.4442  -27.9173 H   0  0  0  0  0  0  0  0  0  0  0  0
    0.9096   21.8253  -26.5107 H   0  0  0  0  0  0  0  0  0  0  0  0
   -0.4667   23.9021  -26.6323 H   0  0  0  0  0  0  0  0  0  0  0  0
   -3.0666   22.7452  -31.7597 H   0  0  0  0  0  0  0  0  0  0  0  0
   -7.0132   19.1371  -35.2026 H   0  0  0  0  0  0  0  0  0  0  0  0
   -5.2217   19.4617  -35.1233 H   0  0  0  0  0  0  0  0  0  0  0  0
   -6.0922   17.0387  -34.6929 H   0  0  0  0  0  0  0  0  0  0  0  0
   -4.8368   17.7776  -33.5934 H   0  0  0  0  0  0  0  0  0  0  0  0
   -7.1637   16.5041  -32.7746 H   0  0  0  0  0  0  0  0  0  0  0  0
   -6.1473   17.6545  -31.8037 H   0  0  0  0  0  0  0  0  0  0  0  0
   -8.6003   18.3631  -33.4752 H   0  0  0  0  0  0  0  0  0  0  0  0
   -8.4893   18.3049  -31.6734 H   0  0  0  0  0  0  0  0  0  0  0  0
   -8.2876   20.6199  -32.8200 H   0  0  0  0  0  0  0  0  0  0  0  0
   -7.0294   20.1363  -31.5778 H   0  0  0  0  0  0  0  0  0  0  0  0
   -7.2449   21.6809  -31.4021 H   0  0  0  0  0  0  0  0  0  0  0  0
   -7.6061   23.6136  -29.8700 H   0  0  0  0  0  0  0  0  0  0  0  0
   -5.0070   25.6720  -28.4740 H   0  0  0  0  0  0  0  0  0  0  0  0
   -1.9499   22.6853  -30.5225 H   0  0  0  0  0  0  0  0  0  0  0  0
   -0.5345   20.6339  -30.4246 H   0  0  0  0  0  0  0  0  0  0  0  0
  1  2  1  0
  2  3  2  0
  2  4  1  0
  4  5  1  0
  5  6  2  0
  6  7  1  0
  7  8  2  0
  8  9  1  0
  9 10  2  0
  9 11  2  0
  9 12  1  0
 12 13  1  0
 13 14  2  0
 14 15  1  0
 15 16  1  0
 16 17  2  0
 16 18  2  0
 16 19  1  0
 19 20  1  0
 20 21  1  0
 21 22  1  0
 22 23  1  0
 23 24  1  0
 15 25  2  0
 25 26  1  0
 26 27  2  0
 27 28  1  0
  8 29  1  0
 29 30  2  0
 30  5  1  0
 27 13  1  0
 24 19  1  0
  1 31  1  0
  1 32  1  0
  1 33  1  0
  6 34  1  0
  7 35  1  0
 14 36  1  0
 20 37  1  0
 20 38  1  0
 21 39  1  0
 21 40  1  0
 22 41  1  0
 22 42  1  0
 23 43  1  0
 23 44  1  0
 24 45  1  0
 24 46  1  0
 25 47  1  0
 26 48  1  0
 28 49  1  0
 29 50  1  0
 30 51  1  0
M  CHG  2   4  -1  12  -1
M  END
>  <UniqueID>  (28) 
27

>  <SMILES>  (28) 
CC(=O)[N-]c1ccc(S(=O)(=O)[N-]c2cc(S(=O)(=O)N3CCCCC3)ccc2O)cc1

>  <Energy>  (28) 
64.44221949047395

>  <Genealogy>  (28) 
CC(=O)[N-]c1ccc(S(=O)(=O)[N-]c2cc(S(=O)(=O)N3CCCCC3)ccc2O)cc1 (protonated)
CC(=O)[N-]c1ccc(S(=O)(=O)[N-]c2cc(S(=O)(=O)N3CCCCC3)ccc2O)cc1 (3D coordinates assigned)
CC(=O)[N-]c1ccc(S(=O)(=O)[N-]c2cc(S(=O)(=O)N3CCCCC3)ccc2O)cc1 (nonaromatic ring conformer: 64.44221949047395 kcal/mol)

>  <smiles>  (28) 
CC(=O)Nc1ccc(S(=O)(=O)Nc2cc(S(=O)(=O)N3CCCCC3)ccc2O)cc1

>  <score_type>  (28) 
oracle

>  <origin>  (28) 
adgpu

>  <m_score__min__energy>  (28) 
-11.33

>  <m_primary>  (28) 
energy

$$$$
28:0
     RDKit          3D

 40 43  0  0  0  0  0  0  0  0999 V2000
   -5.2700   23.7730  -31.6540 O   0  0  0  0  0  0  0  0  0  0  0  0
   -4.3840   23.4320  -30.8180 C   0  0  0  0  0  0  0  0  0  0  0  0
   -4.3190   22.0630  -30.4910 C   0  0  0  0  0  0  0  0  0  0  0  0
   -5.2650   21.1430  -31.1760 C   0  0  0  0  0  0  0  0  0  0  0  0
   -4.7800   19.9800  -31.7990 C   0  0  0  0  0  0  0  0  0  0  0  0
   -5.6530   19.0950  -32.4550 C   0  0  0  0  0  0  0  0  0  0  0  0
   -5.1080   17.8710  -33.0950 C   0  0  0  0  0  0  0  0  0  0  0  0
   -4.7440   17.8440  -34.4490 C   0  0  0  0  0  0  0  0  0  0  0  0
   -4.2360   16.6670  -35.0030 C   0  0  0  0  0  0  0  0  0  0  0  0
   -3.8620   16.6910  -36.2040 O   0  0  0  0  0  0  0  0  0  0  0  0
   -4.1220   15.5060  -34.2030 C   0  0  0  0  0  0  0  0  0  0  0  0
   -3.6550   14.2400  -34.6720 C   0  0  0  0  0  0  0  0  0  0  0  0
   -3.3810   13.9550  -36.0130 O   0  0  0  0  0  0  0  0  0  0  0  0
   -3.4760   13.1920  -33.7600 C   0  0  0  0  0  0  0  0  0  0  0  0
   -3.8010   13.3470  -32.4140 C   0  0  0  0  0  0  0  0  0  0  0  0
   -3.6290   12.2880  -31.5300 O   0  0  0  0  0  0  0  0  0  0  0  0
   -4.3070   14.5610  -31.9540 C   0  0  0  0  0  0  0  0  0  0  0  0
   -4.4670   15.6360  -32.8310 C   0  0  0  0  0  0  0  0  0  0  0  0
   -4.9380   16.7820  -32.3530 O   0  0  0  0  0  0  0  0  0  0  0  0
   -7.0330   19.3790  -32.4580 C   0  0  0  0  0  0  0  0  0  0  0  0
   -7.5190   20.5320  -31.8380 C   0  0  0  0  0  0  0  0  0  0  0  0
   -6.6440   21.4150  -31.2020 C   0  0  0  0  0  0  0  0  0  0  0  0
   -7.1500   22.5630  -30.6000 O   0  0  0  0  0  0  0  0  0  0  0  0
   -3.4530   21.4500  -29.5840 C   0  0  0  0  0  0  0  0  0  0  0  0
   -2.4610   22.0060  -28.7960 C   0  0  0  0  0  0  0  0  0  0  0  0
   -2.0460   23.3250  -28.7000 C   0  0  0  0  0  0  0  0  0  0  0  0
   -1.0030   23.5660  -27.8090 O   0  0  0  0  0  0  0  0  0  0  0  0
   -2.5470   24.4300  -29.3880 C   0  0  0  0  0  0  0  0  0  0  0  0
   -1.9330   25.6480  -29.1010 O   0  0  0  0  0  0  0  0  0  0  0  0
   -3.5860   24.4780  -30.3260 C   0  0  0  0  0  0  0  0  0  0  0  0
   -3.8660   25.7450  -30.8380 O   0  0  0  0  0  0  0  0  0  0  0  0
   -3.7026   19.7595  -31.7728 H   0  0  0  0  0  0  0  0  0  0  0  0
   -4.8579   18.7442  -35.0708 H   0  0  0  0  0  0  0  0  0  0  0  0
   -3.3330   14.6410  -36.7490 H   0  0  0  0  0  0  0  0  0  0  0  0
   -3.0724   12.2312  -34.1121 H   0  0  0  0  0  0  0  0  0  0  0  0
   -4.5818   14.6732  -30.8948 H   0  0  0  0  0  0  0  0  0  0  0  0
   -7.7321   18.6881  -32.9519 H   0  0  0  0  0  0  0  0  0  0  0  0
   -8.5979   20.7460  -31.8507 H   0  0  0  0  0  0  0  0  0  0  0  0
   -3.5780   20.3621  -29.4802 H   0  0  0  0  0  0  0  0  0  0  0  0
   -1.9222   21.2967  -28.1505 H   0  0  0  0  0  0  0  0  0  0  0  0
  1  2  2  0
  2  3  1  0
  3  4  1  0
  4  5  2  0
  5  6  1  0
  6  7  1  0
  7  8  2  0
  8  9  1  0
  9 10  2  0
  9 11  1  0
 11 12  2  0
 12 13  1  0
 12 14  1  0
 14 15  2  0
 15 16  1  0
 15 17  1  0
 17 18  2  0
 18 19  1  0
  6 20  2  0
 20 21  1  0
 21 22  2  0
 22 23  1  0
  3 24  2  0
 24 25  1  0
 25 26  2  0
 26 27  1  0
 26 28  1  0
 28 29  1  0
 28 30  2  0
 30 31  1  0
 30  2  1  0
 22  4  1  0
 19  7  1  0
 18 11  1  0
  5 32  1  0
  8 33  1  0
 13 34  1  0
 14 35  1  0
 17 36  1  0
 20 37  1  0
 21 38  1  0
 24 39  1  0
 25 40  1  0
M  CHG  5  16  -1  23  -1  27  -1  29  -1  31  -1
M  END
>  <UniqueID>  (29) 
28

>  <SMILES>  (29) 
O=c1c(-c2cc(-c3cc(=O)c4c(O)cc([O-])cc4o3)ccc2[O-])ccc([O-])c([O-])c1[O-]

>  <Energy>  (29) 
93.4339003024035

>  <Genealogy>  (29) 
O=c1c(-c2cc(-c3cc(=O)c4c(O)cc([O-])cc4o3)ccc2[O-])ccc([O-])c([O-])c1[O-] (protonated)
O=c1c(-c2cc(-c3cc(=O)c4c(O)cc([O-])cc4o3)ccc2[O-])ccc([O-])c([O-])c1[O-] (3D coordinates assigned)
O=c1c(-c2cc(-c3cc(=O)c4c(O)cc([O-])cc4o3)ccc2[O-])ccc([O-])c([O-])c1[O-] (optimized conformer: 93.4339003024035 kcal/mol)

>  <smiles>  (29) 
O=c1c(-c2cc(-c3cc(=O)c4c(O)cc(O)cc4o3)ccc2O)ccc(O)c(O)c1O

>  <score_type>  (29) 
oracle

>  <origin>  (29) 
adgpu

>  <m_score__min__energy>  (29) 
-13.789999999999999

>  <m_primary>  (29) 
energy

$$$$
30:0
     RDKit          3D

 38 40  0  0  0  0  0  0  0  0999 V2000
   -3.9648   22.5484  -32.5771 H   0  0  0  0  0  0  0  0  0  0  0  0
   -3.8770   21.5740  -33.0800 C   0  0  0  0  0  0  0  0  0  0  0  0
   -2.9581   21.3188  -33.6282 H   0  0  0  0  0  0  0  0  0  0  0  0
   -4.8870   20.7000  -33.0250 C   0  0  0  0  0  0  0  0  0  0  0  0
   -6.1810   20.9010  -32.5200 C   0  0  0  0  0  0  0  0  0  0  0  0
   -6.7030   21.9100  -31.7980 C   0  0  0  0  0  0  0  0  0  0  0  0
   -7.7998   21.9848  -31.7597 H   0  0  0  0  0  0  0  0  0  0  0  0
   -5.9350   22.9210  -31.0560 C   0  0  0  0  0  0  0  0  0  0  0  0
   -5.2220   23.9120  -31.6440 N   0  0  0  0  0  0  0  0  0  0  0  0
   -4.6560   24.5330  -30.5960 C   0  0  0  0  0  0  0  0  0  0  0  0
   -3.8620   25.6680  -30.7070 O   0  0  0  0  0  0  0  0  0  0  0  0
   -5.0180   23.8960  -29.4310 C   0  0  0  0  0  0  0  0  0  0  0  0
   -4.6600   24.2410  -28.0870 N   0  0  0  0  0  0  0  0  0  0  0  0
   -5.3960   24.6800  -27.4900 H   0  0  0  0  0  0  0  0  0  0  0  0
   -3.3600   24.0230  -27.5150 C   0  0  0  0  0  0  0  0  0  0  0  0
   -2.6570   22.8270  -27.7390 C   0  0  0  0  0  0  0  0  0  0  0  0
   -3.0921   22.0486  -28.3830 H   0  0  0  0  0  0  0  0  0  0  0  0
   -1.4070   22.6220  -27.1470 C   0  0  0  0  0  0  0  0  0  0  0  0
   -0.8531   21.6927  -27.3460 H   0  0  0  0  0  0  0  0  0  0  0  0
   -0.8560   23.5950  -26.3010 C   0  0  0  0  0  0  0  0  0  0  0  0
    0.5020   23.3910  -25.6970 C   0  0  0  0  0  0  0  0  0  0  0  0
    0.4210   23.4032  -24.6001 H   0  0  0  0  0  0  0  0  0  0  0  0
    0.9069   22.4219  -26.0240 H   0  0  0  0  0  0  0  0  0  0  0  0
    1.1738   24.1983  -26.0240 H   0  0  0  0  0  0  0  0  0  0  0  0
   -1.5600   24.7870  -26.0710 C   0  0  0  0  0  0  0  0  0  0  0  0
   -1.1268   25.5634  -25.4232 H   0  0  0  0  0  0  0  0  0  0  0  0
   -2.8110   24.9910  -26.6630 C   0  0  0  0  0  0  0  0  0  0  0  0
   -3.3676   25.9175  -26.4584 H   0  0  0  0  0  0  0  0  0  0  0  0
   -5.8110   22.9050  -29.7450 O   0  0  0  0  0  0  0  0  0  0  0  0
   -6.9180   19.7920  -32.9100 C   0  0  0  0  0  0  0  0  0  0  0  0
   -7.9909   19.6218  -32.7373 H   0  0  0  0  0  0  0  0  0  0  0  0
   -6.0420   18.9440  -33.5570 C   0  0  0  0  0  0  0  0  0  0  0  0
   -6.4110   17.6470  -34.1990 C   0  0  0  0  0  0  0  0  0  0  0  0
   -6.6236   16.8998  -33.4202 H   0  0  0  0  0  0  0  0  0  0  0  0
   -7.3045   17.7887  -34.8248 H   0  0  0  0  0  0  0  0  0  0  0  0
   -5.5767   17.2972  -34.8248 H   0  0  0  0  0  0  0  0  0  0  0  0
   -4.8170   19.4950  -33.6290 N   0  0  0  0  0  0  0  0  0  0  0  0
   -3.9900   19.0910  -34.1250 H   0  0  0  0  0  0  0  0  0  0  0  0
  1  2  1  0
  2  3  1  0
  2  4  2  0
  4  5  1  0
  5  6  2  0
  6  7  1  0
  6  8  1  0
  8  9  2  0
  9 10  1  0
 10 11  1  0
 10 12  2  0
 12 13  1  0
 13 14  1  0
 13 15  1  0
 15 16  2  0
 16 17  1  0
 16 18  1  0
 18 19  1  0
 18 20  2  0
 20 21  1  0
 21 22  1  0
 21 23  1  0
 21 24  1  0
 20 25  1  0
 25 26  1  0
 25 27  2  0
 27 28  1  0
 12 29  1  0
  5 30  1  0
 30 31  1  0
 30 32  2  0
 32 33  1  0
 33 34  1  0
 33 35  1  0
 33 36  1  0
 32 37  1  0
 37 38  1  0
 37  4  1  0
 29  8  1  0
 27 15  1  0
M  CHG  1  11  -1
M  END
>  <UniqueID>  (30) 
29

>  <SMILES>  (30) 
C=c1[nH]c(C)c/c1=C/c1nc([O-])c(Nc2ccc(C)cc2)o1

>  <Energy>  (30) 
112.29556469318518

>  <Genealogy>  (30) 
C=c1[nH]c(C)cc1=Cc1nc([O-])c(Nc2ccc(C)cc2)o1 (protonated)
C=c1[nH]c(C)c/c1=C/c1nc([O-])c(Nc2ccc(C)cc2)o1 (cis-trans isomerization)
C=c1[nH]c(C)c/c1=C/c1nc([O-])c(Nc2ccc(C)cc2)o1 (3D coordinates assigned)
C=c1[nH]c(C)c/c1=C/c1nc([O-])c(Nc2ccc(C)cc2)o1 (optimized conformer: 112.29556469318518 kcal/mol)

>  <smiles>  (30) 
C=c1[nH]c(C)cc1=Cc1nc(O)c(Nc2ccc(C)cc2)o1

>  <score_type>  (30) 
oracle

>  <origin>  (30) 
adgpu

>  <m_score__min__energy>  (30) 
-10.91

>  <m_primary>  (30) 
energy

$$$$
31:0
     RDKit          3D

 52 55  0  0  0  0  0  0  0  0999 V2000
   -0.8890   23.8320  -30.0210 O   0  0  0  0  0  0  0  0  0  0  0  0
   -1.6400   22.8180  -30.0510 C   0  0  0  0  0  0  0  0  0  0  0  0
   -1.1530   21.5530  -29.5830 N   0  0  0  0  0  0  0  0  0  0  0  0
   -1.5480   20.9130  -28.3610 C   0  0  0  0  0  0  0  0  0  0  0  0
   -2.6430   20.0300  -28.3280 C   0  0  0  0  0  0  0  0  0  0  0  0
   -3.0350   19.4350  -27.1260 C   0  0  0  0  0  0  0  0  0  0  0  0
   -2.3440   19.7180  -25.9460 C   0  0  0  0  0  0  0  0  0  0  0  0
   -1.2640   20.6030  -25.9650 C   0  0  0  0  0  0  0  0  0  0  0  0
   -0.8680   21.2110  -27.1650 C   0  0  0  0  0  0  0  0  0  0  0  0
    0.5460   22.3220  -27.1490 S   0  0  0  0  0  0  0  0  0  0  0  0
   -0.3770   23.6620  -26.3960 C   0  0  0  0  0  0  0  0  0  0  0  0
   -1.4130   24.2810  -27.1060 C   0  0  0  0  0  0  0  0  0  0  0  0
   -2.1370   25.3250  -26.5220 C   0  0  0  0  0  0  0  0  0  0  0  0
   -1.8210   25.7580  -25.2300 C   0  0  0  0  0  0  0  0  0  0  0  0
   -0.7790   25.1490  -24.5230 C   0  0  0  0  0  0  0  0  0  0  0  0
   -0.0540   24.1050  -25.1070 C   0  0  0  0  0  0  0  0  0  0  0  0
   -3.0430   22.9590  -30.4990 C   0  0  0  0  0  0  0  0  0  0  0  0
   -3.7170   21.8450  -31.0300 C   0  0  0  0  0  0  0  0  0  0  0  0
   -5.0480   21.9510  -31.4570 C   0  0  0  0  0  0  0  0  0  0  0  0
   -5.8890   20.5410  -32.1070 S   0  0  0  0  0  0  0  0  0  0  0  0
   -4.9220   19.3930  -32.2080 O   0  0  0  0  0  0  0  0  0  0  0  0
   -6.3660   20.8610  -33.4960 O   0  0  0  0  0  0  0  0  0  0  0  0
   -7.2590   20.0630  -31.1260 N   0  0  0  0  0  0  0  0  0  0  0  0
   -8.2280   21.1590  -30.9320 C   0  0  0  0  0  0  0  0  0  0  0  0
   -9.2110   21.3160  -32.1180 C   0  0  0  0  0  0  0  0  0  0  0  0
   -9.1300   20.2600  -33.0550 O   0  0  0  0  0  0  0  0  0  0  0  0
   -9.1730   19.0230  -32.3810 C   0  0  0  0  0  0  0  0  0  0  0  0
   -7.8780   18.8010  -31.5830 C   0  0  0  0  0  0  0  0  0  0  0  0
   -5.7090   23.1810  -31.3650 C   0  0  0  0  0  0  0  0  0  0  0  0
   -5.0530   24.2910  -30.8300 C   0  0  0  0  0  0  0  0  0  0  0  0
   -3.7310   24.1860  -30.3880 C   0  0  0  0  0  0  0  0  0  0  0  0
   -3.1250   25.2980  -29.8140 O   0  0  0  0  0  0  0  0  0  0  0  0
   -3.1936   19.8068  -29.2538 H   0  0  0  0  0  0  0  0  0  0  0  0
   -3.8894   18.7424  -27.1093 H   0  0  0  0  0  0  0  0  0  0  0  0
   -2.6503   19.2440  -25.0018 H   0  0  0  0  0  0  0  0  0  0  0  0
   -0.7213   20.8243  -25.0342 H   0  0  0  0  0  0  0  0  0  0  0  0
   -1.6577   23.9455  -28.1246 H   0  0  0  0  0  0  0  0  0  0  0  0
   -2.9550   25.8058  -27.0786 H   0  0  0  0  0  0  0  0  0  0  0  0
   -2.3922   26.5777  -24.7698 H   0  0  0  0  0  0  0  0  0  0  0  0
   -0.5297   25.4911  -23.5077 H   0  0  0  0  0  0  0  0  0  0  0  0
    0.7704   23.6315  -24.5536 H   0  0  0  0  0  0  0  0  0  0  0  0
   -3.1945   20.8804  -31.1112 H   0  0  0  0  0  0  0  0  0  0  0  0
   -8.8088   20.9558  -30.0202 H   0  0  0  0  0  0  0  0  0  0  0  0
   -7.6547   22.0946  -30.8544 H   0  0  0  0  0  0  0  0  0  0  0  0
  -10.2358   21.3516  -31.7198 H   0  0  0  0  0  0  0  0  0  0  0  0
   -8.9392   22.2418  -32.6461 H   0  0  0  0  0  0  0  0  0  0  0  0
  -10.0295   19.0161  -31.6908 H   0  0  0  0  0  0  0  0  0  0  0  0
   -9.2776   18.2168  -33.1221 H   0  0  0  0  0  0  0  0  0  0  0  0
   -8.1103   18.1850  -30.7017 H   0  0  0  0  0  0  0  0  0  0  0  0
   -7.1595   18.3050  -32.2521 H   0  0  0  0  0  0  0  0  0  0  0  0
   -6.7477   23.2734  -31.7150 H   0  0  0  0  0  0  0  0  0  0  0  0
   -5.5795   25.2540  -30.7558 H   0  0  0  0  0  0  0  0  0  0  0  0
  1  2  2  0
  2  3  1  0
  3  4  1  0
  4  5  2  0
  5  6  1  0
  6  7  2  0
  7  8  1  0
  8  9  2  0
  9 10  1  0
 10 11  1  0
 11 12  2  0
 12 13  1  0
 13 14  2  0
 14 15  1  0
 15 16  2  0
  2 17  1  0
 17 18  2  0
 18 19  1  0
 19 20  1  0
 20 21  2  0
 20 22  2  0
 20 23  1  0
 23 24  1  0
 24 25  1  0
 25 26  1  0
 26 27  1  0
 27 28  1  0
 19 29  2  0
 29 30  1  0
 30 31  2  0
 31 32  1  0
  9  4  1  0
 16 11  1  0
 31 17  1  0
 28 23  1  0
  5 33  1  0
  6 34  1  0
  7 35  1  0
  8 36  1  0
 12 37  1  0
 13 38  1  0
 14 39  1  0
 15 40  1  0
 16 41  1  0
 18 42  1  0
 24 43  1  0
 24 44  1  0
 25 45  1  0
 25 46  1  0
 27 47  1  0
 27 48  1  0
 28 49  1  0
 28 50  1  0
 29 51  1  0
 30 52  1  0
M  CHG  2   3  -1  32  -1
M  END
>  <UniqueID>  (31) 
30

>  <SMILES>  (31) 
O=C([N-]c1ccccc1Sc1ccccc1)c1cc(S(=O)(=O)N2CCOCC2)ccc1[O-]

>  <Energy>  (31) 
68.5627272534638

>  <Genealogy>  (31) 
O=C([N-]c1ccccc1Sc1ccccc1)c1cc(S(=O)(=O)N2CCOCC2)ccc1[O-] (protonated)
O=C([N-]c1ccccc1Sc1ccccc1)c1cc(S(=O)(=O)N2CCOCC2)ccc1[O-] (3D coordinates assigned)
O=C([N-]c1ccccc1Sc1ccccc1)c1cc(S(=O)(=O)N2CCOCC2)ccc1[O-] (nonaromatic ring conformer: 68.5627272534638 kcal/mol)

>  <smiles>  (31) 
O=C(Nc1ccccc1Sc1ccccc1)c1cc(S(=O)(=O)N2CCOCC2)ccc1O

>  <score_type>  (31) 
oracle

>  <origin>  (31) 
adgpu

>  <m_score__min__energy>  (31) 
-14.460000000000001

>  <m_primary>  (31) 
energy

$$$$
32:0
     RDKit          3D

 57 60  0  0  0  0  0  0  0  0999 V2000
   -8.4820   22.6920  -31.2990 C   0  0  0  0  0  0  0  0  0  0  0  0
   -7.3160   21.7530  -31.3650 C   0  0  0  0  0  0  0  0  0  0  0  0
   -6.0790   21.9350  -30.7640 C   0  0  0  0  0  0  0  0  0  0  0  0
   -5.5740   23.1440  -30.1920 N   0  0  0  0  0  0  0  0  0  0  0  0
   -4.0050   23.7030  -30.6630 S   0  0  0  0  0  0  0  0  0  0  0  0
   -4.0330   25.1950  -30.8420 O   0  0  0  0  0  0  0  0  0  0  0  0
   -3.6080   23.0720  -31.9690 O   0  0  0  0  0  0  0  0  0  0  0  0
   -2.8490   23.2810  -29.3950 C   0  0  0  0  0  0  0  0  0  0  0  0
   -2.8520   21.9870  -28.8540 C   0  0  0  0  0  0  0  0  0  0  0  0
   -2.0040   21.6600  -27.7870 C   0  0  0  0  0  0  0  0  0  0  0  0
   -2.0300   20.0300  -27.1220 S   0  0  0  0  0  0  0  0  0  0  0  0
   -3.4600   19.5810  -27.0120 O   0  0  0  0  0  0  0  0  0  0  0  0
   -1.4070   20.0180  -25.7530 O   0  0  0  0  0  0  0  0  0  0  0  0
   -1.1500   18.9450  -28.1730 N   0  0  0  0  0  0  0  0  0  0  0  0
   -0.7570   19.6490  -29.4090 C   0  0  0  0  0  0  0  0  0  0  0  0
    0.4190   18.9330  -30.0910 C   0  0  0  0  0  0  0  0  0  0  0  0
    1.5900   18.8450  -29.2880 O   0  0  0  0  0  0  0  0  0  0  0  0
    1.3390   18.9510  -27.8930 C   0  0  0  0  0  0  0  0  0  0  0  0
   -0.0040   18.3310  -27.4670 C   0  0  0  0  0  0  0  0  0  0  0  0
   -1.1550   22.6380  -27.2530 C   0  0  0  0  0  0  0  0  0  0  0  0
   -1.1520   23.9300  -27.7830 C   0  0  0  0  0  0  0  0  0  0  0  0
   -2.0000   24.2580  -28.8460 C   0  0  0  0  0  0  0  0  0  0  0  0
   -2.0020   25.5580  -29.3360 O   0  0  0  0  0  0  0  0  0  0  0  0
   -5.3100   20.8850  -31.2110 C   0  0  0  0  0  0  0  0  0  0  0  0
   -4.0800   20.7290  -30.9880 O   0  0  0  0  0  0  0  0  0  0  0  0
   -6.0460   20.0990  -32.0210 N   0  0  0  0  0  0  0  0  0  0  0  0
   -5.5390   19.0050  -32.8010 C   0  0  0  0  0  0  0  0  0  0  0  0
   -6.0650   17.7140  -32.6360 C   0  0  0  0  0  0  0  0  0  0  0  0
   -5.5900   16.6560  -33.4170 C   0  0  0  0  0  0  0  0  0  0  0  0
   -4.5930   16.8830  -34.3700 C   0  0  0  0  0  0  0  0  0  0  0  0
   -4.0750   18.1680  -34.5490 C   0  0  0  0  0  0  0  0  0  0  0  0
   -4.5500   19.2290  -33.7700 C   0  0  0  0  0  0  0  0  0  0  0  0
   -7.2700   20.6170  -32.1060 N   0  0  0  0  0  0  0  0  0  0  0  0
   -8.3570   20.0910  -32.9340 C   0  0  0  0  0  0  0  0  0  0  0  0
   -8.7317   22.8931  -30.2468 H   0  0  0  0  0  0  0  0  0  0  0  0
   -8.2218   23.6356  -31.8009 H   0  0  0  0  0  0  0  0  0  0  0  0
   -9.3484   22.2366  -31.8009 H   0  0  0  0  0  0  0  0  0  0  0  0
   -5.9110   23.4140  -29.2420 H   0  0  0  0  0  0  0  0  0  0  0  0
   -3.5250   21.2229  -29.2703 H   0  0  0  0  0  0  0  0  0  0  0  0
   -1.6137   19.6737  -30.0985 H   0  0  0  0  0  0  0  0  0  0  0  0
   -0.4462   20.6719  -29.1499 H   0  0  0  0  0  0  0  0  0  0  0  0
    0.0995   17.9125  -30.3488 H   0  0  0  0  0  0  0  0  0  0  0  0
    0.6849   19.5311  -30.9751 H   0  0  0  0  0  0  0  0  0  0  0  0
    2.1477   18.4371  -27.3527 H   0  0  0  0  0  0  0  0  0  0  0  0
    1.2943   20.0230  -27.6506 H   0  0  0  0  0  0  0  0  0  0  0  0
    0.0153   17.2544  -27.6917 H   0  0  0  0  0  0  0  0  0  0  0  0
   -0.1338   18.5119  -26.3898 H   0  0  0  0  0  0  0  0  0  0  0  0
   -0.4890   22.3876  -26.4141 H   0  0  0  0  0  0  0  0  0  0  0  0
   -0.4801   24.6929  -27.3628 H   0  0  0  0  0  0  0  0  0  0  0  0
   -6.8532   17.5342  -31.8901 H   0  0  0  0  0  0  0  0  0  0  0  0
   -6.0010   15.6447  -33.2814 H   0  0  0  0  0  0  0  0  0  0  0  0
   -4.2158   16.0488  -34.9798 H   0  0  0  0  0  0  0  0  0  0  0  0
   -3.2936   18.3458  -35.3025 H   0  0  0  0  0  0  0  0  0  0  0  0
   -4.1466   20.2416  -33.9180 H   0  0  0  0  0  0  0  0  0  0  0  0
   -9.1571   19.7038  -32.2860 H   0  0  0  0  0  0  0  0  0  0  0  0
   -8.7565   20.8955  -33.5690 H   0  0  0  0  0  0  0  0  0  0  0  0
   -7.9740   19.2785  -33.5690 H   0  0  0  0  0  0  0  0  0  0  0  0
  1  2  1  0
  2  3  2  0
  3  4  1  0
  4  5  1  0
  5  6  2  0
  5  7  2  0
  5  8  1  0
  8  9  2  0
  9 10  1  0
 10 11  1  0
 11 12  2  0
 11 13  2  0
 11 14  1  0
 14 15  1  0
 15 16  1  0
 16 17  1  0
 17 18  1  0
 18 19  1  0
 10 20  2  0
 20 21  1  0
 21 22  2  0
 22 23  1  0
  3 24  1  0
 24 25  2  0
 24 26  1  0
 26 27  1  0
 27 28  2  0
 28 29  1  0
 29 30  2  0
 30 31  1  0
 31 32  2  0
 26 33  1  0
 33 34  1  0
 33  2  1  0
 22  8  1  0
 32 27  1  0
 19 14  1  0
  1 35  1  0
  1 36  1  0
  1 37  1  0
  4 38  1  0
  9 39  1  0
 15 40  1  0
 15 41  1  0
 16 42  1  0
 16 43  1  0
 18 44  1  0
 18 45  1  0
 19 46  1  0
 19 47  1  0
 20 48  1  0
 21 49  1  0
 28 50  1  0
 29 51  1  0
 30 52  1  0
 31 53  1  0
 32 54  1  0
 34 55  1  0
 34 56  1  0
 34 57  1  0
M  CHG  1  23  -1
M  END
>  <UniqueID>  (32) 
31

>  <SMILES>  (32) 
Cc1c(NS(=O)(=O)c2cc(S(=O)(=O)N3CCOCC3)ccc2[O-])c(=O)n(-c2ccccc2)n1C

>  <Energy>  (32) 
118.09620784145922

>  <Genealogy>  (32) 
Cc1c(NS(=O)(=O)c2cc(S(=O)(=O)N3CCOCC3)ccc2[O-])c(=O)n(-c2ccccc2)n1C (protonated)
Cc1c(NS(=O)(=O)c2cc(S(=O)(=O)N3CCOCC3)ccc2[O-])c(=O)n(-c2ccccc2)n1C (3D coordinates assigned)
Cc1c(NS(=O)(=O)c2cc(S(=O)(=O)N3CCOCC3)ccc2[O-])c(=O)n(-c2ccccc2)n1C (nonaromatic ring conformer: 118.09620784145922 kcal/mol)

>  <smiles>  (32) 
Cc1c(NS(=O)(=O)c2cc(S(=O)(=O)N3CCOCC3)ccc2O)c(=O)n(-c2ccccc2)n1C

>  <score_type>  (32) 
oracle

>  <origin>  (32) 
adgpu

>  <m_score__min__energy>  (32) 
-13.289999999999999

>  <m_primary>  (32) 
energy

$$$$
33:0
     RDKit          3D

 58 61  0  0  0  0  0  0  0  0999 V2000
   -3.6260   17.6050  -34.8710 O   0  0  0  0  0  0  0  0  0  0  0  0
   -4.0930   18.6030  -34.2600 C   0  0  0  0  0  0  0  0  0  0  0  0
   -5.4600   18.9600  -34.4950 N   0  0  0  0  0  0  0  0  0  0  0  0
   -6.4840   19.1470  -33.5090 C   0  0  0  0  0  0  0  0  0  0  0  0
   -7.2340   18.0350  -33.1100 C   0  0  0  0  0  0  0  0  0  0  0  0
   -8.2350   18.1670  -32.1460 C   0  0  0  0  0  0  0  0  0  0  0  0
   -8.4900   19.4110  -31.5680 C   0  0  0  0  0  0  0  0  0  0  0  0
   -7.7380   20.5330  -31.9470 C   0  0  0  0  0  0  0  0  0  0  0  0
   -8.0940   22.1070  -31.2380 S   0  0  0  0  0  0  0  0  0  0  0  0
   -8.5780   23.0330  -32.3210 O   0  0  0  0  0  0  0  0  0  0  0  0
   -9.1850   21.9570  -30.2150 O   0  0  0  0  0  0  0  0  0  0  0  0
   -6.6660   22.7510  -30.4650 N   0  0  0  0  0  0  0  0  0  0  0  0
   -5.5970   22.9960  -31.4300 C   0  0  0  0  0  0  0  0  0  0  0  0
   -4.7100   24.0690  -30.8200 C   0  0  0  0  0  0  0  0  0  0  0  0
   -5.5870   24.7780  -29.7990 C   0  0  0  0  0  0  0  0  0  0  0  0
   -6.9220   24.0510  -29.8420 C   0  0  0  0  0  0  0  0  0  0  0  0
   -6.7300   20.3990  -32.9130 C   0  0  0  0  0  0  0  0  0  0  0  0
   -3.2330   19.3830  -33.3970 N   0  0  0  0  0  0  0  0  0  0  0  0
   -1.9590   18.8070  -32.9330 C   0  0  0  0  0  0  0  0  0  0  0  0
   -0.9290   19.9130  -32.6540 C   0  0  0  0  0  0  0  0  0  0  0  0
   -1.4390   20.9510  -31.7270 N   0  0  0  0  0  0  0  0  0  0  0  0
   -0.8400   20.9180  -30.3730 C   0  0  0  0  0  0  0  0  0  0  0  0
   -1.3880   21.9790  -29.4290 C   0  0  0  0  0  0  0  0  0  0  0  0
   -1.2830   23.3340  -29.8010 C   0  0  0  0  0  0  0  0  0  0  0  0
   -1.7450   24.3480  -28.9600 C   0  0  0  0  0  0  0  0  0  0  0  0
   -1.6170   25.6790  -29.3390 O   0  0  0  0  0  0  0  0  0  0  0  0
   -2.3390   24.0260  -27.7410 C   0  0  0  0  0  0  0  0  0  0  0  0
   -2.4890   22.6900  -27.3720 C   0  0  0  0  0  0  0  0  0  0  0  0
   -2.0320   21.6600  -28.2030 C   0  0  0  0  0  0  0  0  0  0  0  0
   -2.2490   20.3460  -27.7810 O   0  0  0  0  0  0  0  0  0  0  0  0
   -2.9060   21.1540  -31.7410 C   0  0  0  0  0  0  0  0  0  0  0  0
   -3.5080   20.7980  -33.1040 C   0  0  0  0  0  0  0  0  0  0  0  0
   -7.0336   17.0509  -33.5587 H   0  0  0  0  0  0  0  0  0  0  0  0
   -8.8236   17.2890  -31.8416 H   0  0  0  0  0  0  0  0  0  0  0  0
   -9.2832   19.5123  -30.8127 H   0  0  0  0  0  0  0  0  0  0  0  0
   -5.0192   22.0756  -31.6004 H   0  0  0  0  0  0  0  0  0  0  0  0
   -6.0010   23.3158  -32.4019 H   0  0  0  0  0  0  0  0  0  0  0  0
   -3.8367   23.6146  -30.3292 H   0  0  0  0  0  0  0  0  0  0  0  0
   -4.3212   24.7624  -31.5803 H   0  0  0  0  0  0  0  0  0  0  0  0
   -5.1427   24.7084  -28.7951 H   0  0  0  0  0  0  0  0  0  0  0  0
   -5.6960   25.8489  -30.0256 H   0  0  0  0  0  0  0  0  0  0  0  0
   -7.3133   23.9139  -28.8231 H   0  0  0  0  0  0  0  0  0  0  0  0
   -7.6697   24.6244  -30.4095 H   0  0  0  0  0  0  0  0  0  0  0  0
   -6.1304   21.2736  -33.2057 H   0  0  0  0  0  0  0  0  0  0  0  0
   -2.1361   18.2378  -32.0086 H   0  0  0  0  0  0  0  0  0  0  0  0
   -1.5634   18.1473  -33.7193 H   0  0  0  0  0  0  0  0  0  0  0  0
   -0.0327   19.4550  -32.2103 H   0  0  0  0  0  0  0  0  0  0  0  0
   -0.7036   20.4054  -33.6115 H   0  0  0  0  0  0  0  0  0  0  0  0
   -1.0344   19.9290  -29.9325 H   0  0  0  0  0  0  0  0  0  0  0  0
    0.2339   21.1231  -30.4943 H   0  0  0  0  0  0  0  0  0  0  0  0
   -0.8303   23.5967  -30.7685 H   0  0  0  0  0  0  0  0  0  0  0  0
   -2.6890   24.8250  -27.0709 H   0  0  0  0  0  0  0  0  0  0  0  0
   -2.9726   22.4419  -26.4157 H   0  0  0  0  0  0  0  0  0  0  0  0
   -2.5880   20.0900  -26.8640 H   0  0  0  0  0  0  0  0  0  0  0  0
   -3.3628   20.5155  -30.9705 H   0  0  0  0  0  0  0  0  0  0  0  0
   -3.1098   22.2161  -31.5399 H   0  0  0  0  0  0  0  0  0  0  0  0
   -4.5950   20.9650  -33.0815 H   0  0  0  0  0  0  0  0  0  0  0  0
   -3.0602   21.4317  -33.8837 H   0  0  0  0  0  0  0  0  0  0  0  0
  1  2  2  0
  2  3  1  0
  3  4  1  0
  4  5  2  0
  5  6  1  0
  6  7  2  0
  7  8  1  0
  8  9  1  0
  9 10  2  0
  9 11  2  0
  9 12  1  0
 12 13  1  0
 13 14  1  0
 14 15  1  0
 15 16  1  0
  8 17  2  0
  2 18  1  0
 18 19  1  0
 19 20  1  0
 20 21  1  0
 21 22  1  0
 22 23  1  0
 23 24  2  0
 24 25  1  0
 25 26  1  0
 25 27  2  0
 27 28  1  0
 28 29  2  0
 29 30  1  0
 21 31  1  0
 31 32  1  0
 17  4  1  0
 32 18  1  0
 16 12  1  0
 29 23  1  0
  5 33  1  0
  6 34  1  0
  7 35  1  0
 13 36  1  0
 13 37  1  0
 14 38  1  0
 14 39  1  0
 15 40  1  0
 15 41  1  0
 16 42  1  0
 16 43  1  0
 17 44  1  0
 19 45  1  0
 19 46  1  0
 20 47  1  0
 20 48  1  0
 22 49  1  0
 22 50  1  0
 24 51  1  0
 27 52  1  0
 28 53  1  0
 30 54  1  0
 31 55  1  0
 31 56  1  0
 32 57  1  0
 32 58  1  0
M  CHG  2   3  -1  26  -1
M  END
>  <UniqueID>  (33) 
32

>  <SMILES>  (33) 
O=C([N-]c1cccc(S(=O)(=O)N2CCCC2)c1)N1CCN(Cc2cc([O-])ccc2O)CC1

>  <Energy>  (33) 
76.90108002647402

>  <Genealogy>  (33) 
O=C([N-]c1cccc(S(=O)(=O)N2CCCC2)c1)N1CCN(Cc2cc([O-])ccc2O)CC1 (protonated)
O=C([N-]c1cccc(S(=O)(=O)N2CCCC2)c1)N1CCN(Cc2cc([O-])ccc2O)CC1 (3D coordinates assigned)
O=C([N-]c1cccc(S(=O)(=O)N2CCCC2)c1)N1CCN(Cc2cc([O-])ccc2O)CC1 (nonaromatic ring conformer: 76.90108002647402 kcal/mol)

>  <smiles>  (33) 
O=C(Nc1cccc(S(=O)(=O)N2CCCC2)c1)N1CCN(Cc2cc(O)ccc2O)CC1

>  <score_type>  (33) 
oracle

>  <origin>  (33) 
adgpu

>  <m_score__min__energy>  (33) 
-12.75

>  <m_primary>  (33) 
energy

$$$$
34:0
     RDKit          3D

 47 50  0  0  0  0  0  0  0  0999 V2000
   -2.2940   21.1260  -30.1350 O   0  0  0  0  0  0  0  0  0  0  0  0
   -2.4320   22.3760  -30.2150 C   0  0  0  0  0  0  0  0  0  0  0  0
   -3.2770   22.9410  -31.2240 N   0  0  0  0  0  0  0  0  0  0  0  0
   -4.6150   23.4170  -31.0170 C   0  0  0  0  0  0  0  0  0  0  0  0
   -5.6790   22.5300  -31.2190 C   0  0  0  0  0  0  0  0  0  0  0  0
   -7.0040   22.9500  -31.0430 C   0  0  0  0  0  0  0  0  0  0  0  0
   -8.3340   21.8170  -31.2930 S   0  0  0  0  0  0  0  0  0  0  0  0
   -9.1590   21.7420  -30.0390 O   0  0  0  0  0  0  0  0  0  0  0  0
   -9.2160   22.3230  -32.4010 O   0  0  0  0  0  0  0  0  0  0  0  0
   -7.7510   20.2200  -31.6950 N   0  0  0  0  0  0  0  0  0  0  0  0
   -7.3020   20.1750  -33.0960 C   0  0  0  0  0  0  0  0  0  0  0  0
   -6.5630   18.8540  -33.3780 C   0  0  0  0  0  0  0  0  0  0  0  0
   -6.9730   17.7310  -32.4100 C   0  0  0  0  0  0  0  0  0  0  0  0
   -8.4570   17.8340  -32.0460 C   0  0  0  0  0  0  0  0  0  0  0  0
   -8.8060   19.2150  -31.4450 C   0  0  0  0  0  0  0  0  0  0  0  0
   -7.2640   24.2760  -30.6740 C   0  0  0  0  0  0  0  0  0  0  0  0
   -6.2110   25.1770  -30.5000 C   0  0  0  0  0  0  0  0  0  0  0  0
   -4.8890   24.7600  -30.6850 C   0  0  0  0  0  0  0  0  0  0  0  0
   -3.8650   25.6940  -30.5720 O   0  0  0  0  0  0  0  0  0  0  0  0
   -1.6270   23.2760  -29.3640 C   0  0  0  0  0  0  0  0  0  0  0  0
   -0.3110   23.4150  -29.6780 N   0  0  0  0  0  0  0  0  0  0  0  0
    0.5230   24.1560  -28.9500 N   0  0  0  0  0  0  0  0  0  0  0  0
    0.1060   24.8190  -27.8450 C   0  0  0  0  0  0  0  0  0  0  0  0
    0.9380   25.4980  -27.1830 O   0  0  0  0  0  0  0  0  0  0  0  0
   -1.2430   24.7490  -27.4610 C   0  0  0  0  0  0  0  0  0  0  0  0
   -1.7170   25.4430  -26.3320 C   0  0  0  0  0  0  0  0  0  0  0  0
   -3.0680   25.3950  -25.9900 C   0  0  0  0  0  0  0  0  0  0  0  0
   -3.9620   24.6700  -26.7760 C   0  0  0  0  0  0  0  0  0  0  0  0
   -3.5090   23.9710  -27.8970 C   0  0  0  0  0  0  0  0  0  0  0  0
   -2.1400   23.9760  -28.2430 C   0  0  0  0  0  0  0  0  0  0  0  0
   -5.4726   21.4921  -31.5191 H   0  0  0  0  0  0  0  0  0  0  0  0
   -8.1759   20.2508  -33.7598 H   0  0  0  0  0  0  0  0  0  0  0  0
   -6.6158   21.0150  -33.2791 H   0  0  0  0  0  0  0  0  0  0  0  0
   -6.7911   18.5346  -34.4056 H   0  0  0  0  0  0  0  0  0  0  0  0
   -5.4871   19.0372  -33.2407 H   0  0  0  0  0  0  0  0  0  0  0  0
   -6.7867   16.7581  -32.8883 H   0  0  0  0  0  0  0  0  0  0  0  0
   -6.3790   17.8281  -31.4893 H   0  0  0  0  0  0  0  0  0  0  0  0
   -9.0580   17.6787  -32.9541 H   0  0  0  0  0  0  0  0  0  0  0  0
   -8.6777   17.0662  -31.2898 H   0  0  0  0  0  0  0  0  0  0  0  0
   -9.7453   19.5691  -31.8948 H   0  0  0  0  0  0  0  0  0  0  0  0
   -8.9023   19.0928  -30.3561 H   0  0  0  0  0  0  0  0  0  0  0  0
   -8.3011   24.6089  -30.5207 H   0  0  0  0  0  0  0  0  0  0  0  0
   -6.4224   26.2186  -30.2164 H   0  0  0  0  0  0  0  0  0  0  0  0
   -1.0175   26.0268  -25.7157 H   0  0  0  0  0  0  0  0  0  0  0  0
   -3.4285   25.9299  -25.0990 H   0  0  0  0  0  0  0  0  0  0  0  0
   -5.0296   24.6483  -26.5121 H   0  0  0  0  0  0  0  0  0  0  0  0
   -4.2254   23.4113  -28.5162 H   0  0  0  0  0  0  0  0  0  0  0  0
  1  2  2  0
  2  3  1  0
  3  4  1  0
  4  5  2  0
  5  6  1  0
  6  7  1  0
  7  8  2  0
  7  9  2  0
  7 10  1  0
 10 11  1  0
 11 12  1  0
 12 13  1  0
 13 14  1  0
 14 15  1  0
  6 16  2  0
 16 17  1  0
 17 18  2  0
 18 19  1  0
  2 20  1  0
 20 21  2  0
 21 22  1  0
 22 23  1  0
 23 24  2  0
 23 25  1  0
 25 26  2  0
 26 27  1  0
 27 28  2  0
 28 29  1  0
 29 30  2  0
 18  4  1  0
 30 20  1  0
 15 10  1  0
 30 25  1  0
  5 31  1  0
 11 32  1  0
 11 33  1  0
 12 34  1  0
 12 35  1  0
 13 36  1  0
 13 37  1  0
 14 38  1  0
 14 39  1  0
 15 40  1  0
 15 41  1  0
 16 42  1  0
 17 43  1  0
 26 44  1  0
 27 45  1  0
 28 46  1  0
 29 47  1  0
M  CHG  3   3  -1  19  -1  22  -1
M  END
>  <UniqueID>  (34) 
33

>  <SMILES>  (34) 
O=C([N-]c1cc(S(=O)(=O)N2CCCCC2)ccc1[O-])c1n[n-]c(=O)c2ccccc12

>  <Energy>  (34) 
70.43604108515197

>  <Genealogy>  (34) 
O=C([N-]c1cc(S(=O)(=O)N2CCCCC2)ccc1[O-])c1n[n-]c(=O)c2ccccc12 (protonated)
O=C([N-]c1cc(S(=O)(=O)N2CCCCC2)ccc1[O-])c1n[n-]c(=O)c2ccccc12 (3D coordinates assigned)
O=C([N-]c1cc(S(=O)(=O)N2CCCCC2)ccc1[O-])c1n[n-]c(=O)c2ccccc12 (nonaromatic ring conformer: 70.43604108515197 kcal/mol)

>  <smiles>  (34) 
O=C(Nc1cc(S(=O)(=O)N2CCCCC2)ccc1O)c1n[nH]c(=O)c2ccccc12

>  <score_type>  (34) 
oracle

>  <origin>  (34) 
adgpu

>  <m_score__min__energy>  (34) 
-14.91

>  <m_primary>  (34) 
energy

$$$$
35:0
     RDKit          3D

 54 57  0  0  0  0  0  0  0  0999 V2000
   -7.1870   18.4330  -32.6040 O   0  0  0  0  0  0  0  0  0  0  0  0
   -6.5850   19.4630  -33.0070 C   0  0  0  0  0  0  0  0  0  0  0  0
   -5.6170   19.3320  -33.9970 O   0  0  0  0  0  0  0  0  0  0  0  0
   -6.9050   20.7930  -32.4430 C   0  0  0  0  0  0  0  0  0  0  0  0
   -8.2000   21.0680  -31.9700 C   0  0  0  0  0  0  0  0  0  0  0  0
   -8.4980   22.3120  -31.4090 C   0  0  0  0  0  0  0  0  0  0  0  0
   -7.5130   23.2980  -31.3250 C   0  0  0  0  0  0  0  0  0  0  0  0
   -6.2290   23.0560  -31.8240 C   0  0  0  0  0  0  0  0  0  0  0  0
   -5.2310   24.0750  -31.7000 N   0  0  0  0  0  0  0  0  0  0  0  0
   -4.5810   24.4690  -30.4860 C   0  0  0  0  0  0  0  0  0  0  0  0
   -5.0650   25.4310  -29.8320 O   0  0  0  0  0  0  0  0  0  0  0  0
   -3.2430   23.8860  -30.0810 C   0  0  2  0  0  0  0  0  0  0  0  0
   -3.2170   22.3440  -30.1400 C   0  0  0  0  0  0  0  0  0  0  0  0
   -2.1790   21.7710  -29.2090 C   0  0  0  0  0  0  0  0  0  0  0  0
   -2.5400   20.7930  -28.2660 C   0  0  0  0  0  0  0  0  0  0  0  0
   -1.5850   20.2770  -27.3860 C   0  0  0  0  0  0  0  0  0  0  0  0
   -0.2680   20.7420  -27.4300 C   0  0  0  0  0  0  0  0  0  0  0  0
    0.0960   21.7220  -28.3560 C   0  0  0  0  0  0  0  0  0  0  0  0
   -0.8540   22.2370  -29.2440 C   0  0  0  0  0  0  0  0  0  0  0  0
   -2.8920   24.3590  -28.7350 N   0  0  0  0  0  0  0  0  0  0  0  0
   -2.0090   25.3230  -28.4220 C   0  0  0  0  0  0  0  0  0  0  0  0
   -1.2350   26.0190  -29.3450 O   0  0  0  0  0  0  0  0  0  0  0  0
   -1.9980   25.5020  -27.0580 C   0  0  0  0  0  0  0  0  0  0  0  0
   -1.1080   26.4280  -26.2880 C   0  0  0  0  0  0  0  0  0  0  0  0
    0.2740   25.8430  -26.1800 C   0  0  0  0  0  0  0  0  0  0  0  0
    0.5380   24.8210  -25.2530 C   0  0  0  0  0  0  0  0  0  0  0  0
    1.8130   24.2520  -25.1770 C   0  0  0  0  0  0  0  0  0  0  0  0
    2.8310   24.6890  -26.0320 C   0  0  0  0  0  0  0  0  0  0  0  0
    4.0960   24.1120  -25.9450 O   0  0  0  0  0  0  0  0  0  0  0  0
    2.5690   25.6990  -26.9670 C   0  0  0  0  0  0  0  0  0  0  0  0
    1.2950   26.2710  -27.0440 C   0  0  0  0  0  0  0  0  0  0  0  0
   -2.8710   24.6460  -26.4870 N   0  0  0  0  0  0  0  0  0  0  0  0
   -3.3990   23.9810  -27.5380 C   0  0  0  0  0  0  0  0  0  0  0  0
   -4.2840   23.0940  -27.4030 O   0  0  0  0  0  0  0  0  0  0  0  0
   -5.9200   21.7940  -32.3610 C   0  0  0  0  0  0  0  0  0  0  0  0
   -8.9832   20.2990  -32.0421 H   0  0  0  0  0  0  0  0  0  0  0  0
   -9.5113   22.5154  -31.0324 H   0  0  0  0  0  0  0  0  0  0  0  0
   -7.7478   24.2690  -30.8645 H   0  0  0  0  0  0  0  0  0  0  0  0
   -2.4951   24.2343  -30.8085 H   0  0  0  0  0  0  0  0  0  0  0  0
   -4.2064   21.9589  -29.8521 H   0  0  0  0  0  0  0  0  0  0  0  0
   -2.9622   22.0430  -31.1669 H   0  0  0  0  0  0  0  0  0  0  0  0
   -3.5783   20.4325  -28.2206 H   0  0  0  0  0  0  0  0  0  0  0  0
   -1.8704   19.5037  -26.6576 H   0  0  0  0  0  0  0  0  0  0  0  0
    0.4821   20.3361  -26.7352 H   0  0  0  0  0  0  0  0  0  0  0  0
    1.1323   22.0897  -28.3871 H   0  0  0  0  0  0  0  0  0  0  0  0
   -0.5630   23.0089  -29.9717 H   0  0  0  0  0  0  0  0  0  0  0  0
   -1.0540   27.3964  -26.8068 H   0  0  0  0  0  0  0  0  0  0  0  0
   -1.5205   26.5681  -25.2779 H   0  0  0  0  0  0  0  0  0  0  0  0
   -0.2609   24.4672  -24.5847 H   0  0  0  0  0  0  0  0  0  0  0  0
    2.0164   23.4585  -24.4429 H   0  0  0  0  0  0  0  0  0  0  0  0
    4.9320   24.6300  -26.1900 H   0  0  0  0  0  0  0  0  0  0  0  0
    3.3668   26.0428  -27.6418 H   0  0  0  0  0  0  0  0  0  0  0  0
    1.0920   27.0591  -27.7841 H   0  0  0  0  0  0  0  0  0  0  0  0
   -4.9007   21.5878  -32.7196 H   0  0  0  0  0  0  0  0  0  0  0  0
  1  2  2  0
  2  3  1  0
  2  4  1  0
  4  5  2  0
  5  6  1  0
  6  7  2  0
  7  8  1  0
  8  9  1  0
  9 10  1  0
 10 11  2  0
 10 12  1  0
 12 13  1  0
 13 14  1  0
 14 15  2  0
 15 16  1  0
 16 17  2  0
 17 18  1  0
 18 19  2  0
 12 20  1  0
 20 21  1  0
 21 22  1  0
 21 23  2  0
 23 24  1  0
 24 25  1  0
 25 26  2  0
 26 27  1  0
 27 28  2  0
 28 29  1  0
 28 30  1  0
 30 31  2  0
 23 32  1  0
 32 33  1  0
 33 34  2  0
  8 35  2  0
 35  4  1  0
 19 14  1  0
 33 20  1  0
 31 25  1  0
  5 36  1  0
  6 37  1  0
  7 38  1  0
 12 39  1  6
 13 40  1  0
 13 41  1  0
 15 42  1  0
 16 43  1  0
 17 44  1  0
 18 45  1  0
 19 46  1  0
 24 47  1  0
 24 48  1  0
 26 49  1  0
 27 50  1  0
 29 51  1  0
 30 52  1  0
 31 53  1  0
 35 54  1  0
M  CHG  4   3  -1   9  -1  22  -1  32  -1
M  END
>  <UniqueID>  (35) 
34

>  <SMILES>  (35) 
O=C([O-])c1cccc([N-]C(=O)[C@H](Cc2ccccc2)n2c([O-])c(Cc3ccc(O)cc3)[n-]c2=O)c1

>  <Energy>  (35) 
91.75120670692652

>  <Genealogy>  (35) 
O=C([O-])c1cccc([N-]C(=O)C(Cc2ccccc2)n2c([O-])c(Cc3ccc(O)cc3)[n-]c2=O)c1 (protonated)
O=C([O-])c1cccc([N-]C(=O)[C@H](Cc2ccccc2)n2c([O-])c(Cc3ccc(O)cc3)[n-]c2=O)c1 (chirality)
O=C([O-])c1cccc([N-]C(=O)[C@H](Cc2ccccc2)n2c([O-])c(Cc3ccc(O)cc3)[n-]c2=O)c1 (3D coordinates assigned)
O=C([O-])c1cccc([N-]C(=O)[C@H](Cc2ccccc2)n2c([O-])c(Cc3ccc(O)cc3)[n-]c2=O)c1 (optimized conformer: 91.75120670692652 kcal/mol)

>  <smiles>  (35) 
O=C(O)c1cccc(NC(=O)C(Cc2ccccc2)n2c(O)c(Cc3ccc(O)cc3)[nH]c2=O)c1

>  <score_type>  (35) 
oracle

>  <origin>  (35) 
adgpu

>  <m_score__min__energy>  (35) 
-14.57

>  <m_primary>  (35) 
energy

$$$$
36:0
     RDKit          3D

 56 59  0  0  0  0  0  0  0  0999 V2000
   -4.6740   25.6680  -31.2080 O   0  0  0  0  0  0  0  0  0  0  0  0
   -4.7790   24.6600  -30.4580 C   0  0  0  0  0  0  0  0  0  0  0  0
   -3.9960   24.5780  -29.2600 N   0  0  0  0  0  0  0  0  0  0  0  0
   -2.6860   24.0040  -29.1590 C   0  0  0  0  0  0  0  0  0  0  0  0
   -2.5680   22.6080  -29.1240 C   0  0  0  0  0  0  0  0  0  0  0  0
   -1.3100   22.0010  -29.0200 C   0  0  0  0  0  0  0  0  0  0  0  0
   -1.1780   20.2440  -29.0310 S   0  0  0  0  0  0  0  0  0  0  0  0
    0.1420   19.8290  -28.4410 O   0  0  0  0  0  0  0  0  0  0  0  0
   -2.2820   19.6650  -28.1910 O   0  0  0  0  0  0  0  0  0  0  0  0
   -1.3280   19.6680  -30.6710 N   0  0  0  0  0  0  0  0  0  0  0  0
   -2.5700   20.1330  -31.2870 C   0  0  0  0  0  0  0  0  0  0  0  0
   -2.3140   20.1940  -32.7860 C   0  0  0  0  0  0  0  0  0  0  0  0
   -0.8000   20.2170  -32.9360 C   0  0  0  0  0  0  0  0  0  0  0  0
   -0.2550   20.1890  -31.5180 C   0  0  0  0  0  0  0  0  0  0  0  0
   -0.1600   22.7980  -28.9460 C   0  0  0  0  0  0  0  0  0  0  0  0
   -0.2720   24.1910  -28.9440 C   0  0  0  0  0  0  0  0  0  0  0  0
   -1.5280   24.7980  -29.0330 C   0  0  0  0  0  0  0  0  0  0  0  0
   -1.6160   26.1840  -28.9620 O   0  0  0  0  0  0  0  0  0  0  0  0
   -5.6700   23.5400  -30.8430 C   0  0  0  0  0  0  0  0  0  0  0  0
   -7.0240   23.7740  -31.1490 C   0  0  0  0  0  0  0  0  0  0  0  0
   -7.8630   22.7160  -31.5110 C   0  0  0  0  0  0  0  0  0  0  0  0
   -7.3640   21.4090  -31.5710 C   0  0  0  0  0  0  0  0  0  0  0  0
   -8.4350   20.0860  -32.0230 S   0  0  0  0  0  0  0  0  0  0  0  0
   -9.6540   20.6250  -32.7180 O   0  0  0  0  0  0  0  0  0  0  0  0
   -8.8580   19.3620  -30.7760 O   0  0  0  0  0  0  0  0  0  0  0  0
   -7.5920   18.9900  -33.0900 N   0  0  0  0  0  0  0  0  0  0  0  0
   -7.0450   17.8310  -32.3460 C   0  0  0  0  0  0  0  0  0  0  0  0
   -5.5160   17.9070  -32.1920 C   0  0  0  0  0  0  0  0  0  0  0  0
   -4.8360   17.9790  -33.4350 O   0  0  0  0  0  0  0  0  0  0  0  0
   -5.5150   18.7520  -34.4190 C   0  0  0  0  0  0  0  0  0  0  0  0
   -6.5630   19.7230  -33.8510 C   0  0  0  0  0  0  0  0  0  0  0  0
   -6.0170   21.1690  -31.2740 C   0  0  0  0  0  0  0  0  0  0  0  0
   -5.1760   22.2250  -30.9130 C   0  0  0  0  0  0  0  0  0  0  0  0
   -3.4717   21.9832  -29.1787 H   0  0  0  0  0  0  0  0  0  0  0  0
   -3.3880   19.4304  -31.0697 H   0  0  0  0  0  0  0  0  0  0  0  0
   -2.8642   21.1173  -30.8939 H   0  0  0  0  0  0  0  0  0  0  0  0
   -2.7369   19.3097  -33.2851 H   0  0  0  0  0  0  0  0  0  0  0  0
   -2.7844   21.0755  -33.2461 H   0  0  0  0  0  0  0  0  0  0  0  0
   -0.4553   19.3368  -33.4985 H   0  0  0  0  0  0  0  0  0  0  0  0
   -0.4566   21.1035  -33.4894 H   0  0  0  0  0  0  0  0  0  0  0  0
    0.6259   19.5325  -31.4623 H   0  0  0  0  0  0  0  0  0  0  0  0
    0.0577   21.1920  -31.1921 H   0  0  0  0  0  0  0  0  0  0  0  0
    0.8323   22.3266  -28.8894 H   0  0  0  0  0  0  0  0  0  0  0  0
    0.6326   24.8128  -28.8720 H   0  0  0  0  0  0  0  0  0  0  0  0
   -7.4250   24.7973  -31.1029 H   0  0  0  0  0  0  0  0  0  0  0  0
   -8.9190   22.9109  -31.7496 H   0  0  0  0  0  0  0  0  0  0  0  0
   -7.5008   17.8056  -31.3452 H   0  0  0  0  0  0  0  0  0  0  0  0
   -7.2816   16.9213  -32.9174 H   0  0  0  0  0  0  0  0  0  0  0  0
   -5.2671   18.8027  -31.6040 H   0  0  0  0  0  0  0  0  0  0  0  0
   -5.1896   16.9833  -31.6917 H   0  0  0  0  0  0  0  0  0  0  0  0
   -4.7668   19.3384  -34.9726 H   0  0  0  0  0  0  0  0  0  0  0  0
   -6.0593   18.0403  -35.0571 H   0  0  0  0  0  0  0  0  0  0  0  0
   -6.0651   20.4429  -33.1848 H   0  0  0  0  0  0  0  0  0  0  0  0
   -7.0478   20.2495  -34.6863 H   0  0  0  0  0  0  0  0  0  0  0  0
   -5.6190   20.1448  -31.3250 H   0  0  0  0  0  0  0  0  0  0  0  0
   -4.1191   22.0262  -30.6817 H   0  0  0  0  0  0  0  0  0  0  0  0
  1  2  2  0
  2  3  1  0
  3  4  1  0
  4  5  2  0
  5  6  1  0
  6  7  1  0
  7  8  2  0
  7  9  2  0
  7 10  1  0
 10 11  1  0
 11 12  1  0
 12 13  1  0
 13 14  1  0
  6 15  2  0
 15 16  1  0
 16 17  2  0
 17 18  1  0
  2 19  1  0
 19 20  2  0
 20 21  1  0
 21 22  2  0
 22 23  1  0
 23 24  2  0
 23 25  2  0
 23 26  1  0
 26 27  1  0
 27 28  1  0
 28 29  1  0
 29 30  1  0
 30 31  1  0
 22 32  1  0
 32 33  2  0
 17  4  1  0
 33 19  1  0
 14 10  1  0
 31 26  1  0
  5 34  1  0
 11 35  1  0
 11 36  1  0
 12 37  1  0
 12 38  1  0
 13 39  1  0
 13 40  1  0
 14 41  1  0
 14 42  1  0
 15 43  1  0
 16 44  1  0
 20 45  1  0
 21 46  1  0
 27 47  1  0
 27 48  1  0
 28 49  1  0
 28 50  1  0
 30 51  1  0
 30 52  1  0
 31 53  1  0
 31 54  1  0
 32 55  1  0
 33 56  1  0
M  CHG  2   3  -1  18  -1
M  END
>  <UniqueID>  (36) 
35

>  <SMILES>  (36) 
O=C([N-]c1cc(S(=O)(=O)N2CCCC2)ccc1[O-])c1ccc(S(=O)(=O)N2CCOCC2)cc1

>  <Energy>  (36) 
77.43397032029799

>  <Genealogy>  (36) 
O=C([N-]c1cc(S(=O)(=O)N2CCCC2)ccc1[O-])c1ccc(S(=O)(=O)N2CCOCC2)cc1 (protonated)
O=C([N-]c1cc(S(=O)(=O)N2CCCC2)ccc1[O-])c1ccc(S(=O)(=O)N2CCOCC2)cc1 (3D coordinates assigned)
O=C([N-]c1cc(S(=O)(=O)N2CCCC2)ccc1[O-])c1ccc(S(=O)(=O)N2CCOCC2)cc1 (nonaromatic ring conformer: 77.43397032029799 kcal/mol)

>  <smiles>  (36) 
O=C(Nc1cc(S(=O)(=O)N2CCCC2)ccc1O)c1ccc(S(=O)(=O)N2CCOCC2)cc1

>  <score_type>  (36) 
oracle

>  <origin>  (36) 
adgpu

>  <m_score__min__energy>  (36) 
-15.56

>  <m_primary>  (36) 
energy

$$$$
37:0
     RDKit          3D

 43 46  0  0  0  0  0  0  0  0999 V2000
   -4.2670   25.6740  -30.8700 N   0  0  0  0  0  0  0  0  0  0  0  0
   -4.2830   24.3340  -29.7790 S   0  0  0  0  0  0  0  0  0  0  0  0
   -5.1260   23.2320  -30.3550 O   0  0  0  0  0  0  0  0  0  0  0  0
   -4.8780   24.7550  -28.4640 O   0  0  0  0  0  0  0  0  0  0  0  0
   -2.6300   23.7650  -29.5360 C   0  0  0  0  0  0  0  0  0  0  0  0
   -2.3180   22.4170  -29.7600 C   0  0  0  0  0  0  0  0  0  0  0  0
   -1.0040   21.9550  -29.6040 C   0  0  0  0  0  0  0  0  0  0  0  0
   -0.5870   20.2800  -29.9540 S   0  0  0  0  0  0  0  0  0  0  0  0
    0.9050   20.1240  -29.8600 O   0  0  0  0  0  0  0  0  0  0  0  0
   -1.2370   19.3400  -28.9770 O   0  0  0  0  0  0  0  0  0  0  0  0
   -1.0980   19.8840  -31.5640 N   0  0  0  0  0  0  0  0  0  0  0  0
   -2.4620   19.7170  -31.9800 C   0  0  0  0  0  0  0  0  0  0  0  0
   -3.5200   20.3570  -31.3090 C   0  0  0  0  0  0  0  0  0  0  0  0
   -4.8340   20.2150  -31.7580 C   0  0  0  0  0  0  0  0  0  0  0  0
   -5.1170   19.4100  -32.8750 C   0  0  0  0  0  0  0  0  0  0  0  0
   -4.0670   18.7510  -33.5290 C   0  0  0  0  0  0  0  0  0  0  0  0
   -2.7480   18.9020  -33.0930 C   0  0  0  0  0  0  0  0  0  0  0  0
   -1.7340   18.2410  -33.7870 O   0  0  0  0  0  0  0  0  0  0  0  0
   -6.5310   19.2230  -33.3680 C   0  0  0  0  0  0  0  0  0  0  0  0
   -7.5530   20.0510  -32.6270 C   0  0  0  0  0  0  0  0  0  0  0  0
   -8.8940   20.0230  -33.0400 C   0  0  0  0  0  0  0  0  0  0  0  0
   -9.8570   20.7810  -32.3640 C   0  0  0  0  0  0  0  0  0  0  0  0
   -9.4890   21.5630  -31.2670 C   0  0  0  0  0  0  0  0  0  0  0  0
   -8.1560   21.5910  -30.8430 C   0  0  0  0  0  0  0  0  0  0  0  0
   -7.1860   20.8400  -31.5190 C   0  0  0  0  0  0  0  0  0  0  0  0
   -5.8580   20.8920  -31.0910 O   0  0  0  0  0  0  0  0  0  0  0  0
    0.0000   22.8460  -29.2120 C   0  0  0  0  0  0  0  0  0  0  0  0
   -0.3010   24.1900  -28.9860 C   0  0  0  0  0  0  0  0  0  0  0  0
   -1.6090   24.6570  -29.1550 C   0  0  0  0  0  0  0  0  0  0  0  0
   -1.8790   26.0050  -28.9530 O   0  0  0  0  0  0  0  0  0  0  0  0
   -4.2580   26.5420  -30.2930 H   0  0  0  0  0  0  0  0  0  0  0  0
   -3.1107   21.7161  -30.0606 H   0  0  0  0  0  0  0  0  0  0  0  0
   -3.3100   20.9744  -30.4232 H   0  0  0  0  0  0  0  0  0  0  0  0
   -4.2836   18.1080  -34.3948 H   0  0  0  0  0  0  0  0  0  0  0  0
   -0.7600   18.3140  -33.5260 H   0  0  0  0  0  0  0  0  0  0  0  0
   -6.5662   19.5006  -34.4318 H   0  0  0  0  0  0  0  0  0  0  0  0
   -6.7912   18.1679  -33.1973 H   0  0  0  0  0  0  0  0  0  0  0  0
   -9.1895   19.4025  -33.8989 H   0  0  0  0  0  0  0  0  0  0  0  0
  -10.9051   20.7608  -32.6972 H   0  0  0  0  0  0  0  0  0  0  0  0
  -10.2474   22.1571  -30.7361 H   0  0  0  0  0  0  0  0  0  0  0  0
   -7.8689   22.2045  -29.9763 H   0  0  0  0  0  0  0  0  0  0  0  0
    1.0312   22.4861  -29.0812 H   0  0  0  0  0  0  0  0  0  0  0  0
    0.4929   24.8845  -28.6739 H   0  0  0  0  0  0  0  0  0  0  0  0
  1  2  1  0
  2  3  2  0
  2  4  2  0
  2  5  1  0
  5  6  2  0
  6  7  1  0
  7  8  1  0
  8  9  2  0
  8 10  2  0
  8 11  1  0
 11 12  1  0
 12 13  2  0
 13 14  1  0
 14 15  2  0
 15 16  1  0
 16 17  2  0
 17 18  1  0
 15 19  1  0
 19 20  1  0
 20 21  2  0
 21 22  1  0
 22 23  2  0
 23 24  1  0
 24 25  2  0
 25 26  1  0
  7 27  2  0
 27 28  1  0
 28 29  2  0
 29 30  1  0
 29  5  1  0
 17 12  1  0
 25 20  1  0
 26 14  1  0
  1 31  1  0
  6 32  1  0
 13 33  1  0
 16 34  1  0
 18 35  1  0
 19 36  1  0
 19 37  1  0
 21 38  1  0
 22 39  1  0
 23 40  1  0
 24 41  1  0
 27 42  1  0
 28 43  1  0
M  CHG  3   1  -1  11  -1  30  -1
M  END
>  <UniqueID>  (37) 
36

>  <SMILES>  (37) 
[NH-]S(=O)(=O)c1cc(S(=O)(=O)[N-]c2cc3c(cc2O)Cc2ccccc2O3)ccc1[O-]

>  <Energy>  (37) 
54.55507288542728

>  <Genealogy>  (37) 
[NH-]S(=O)(=O)c1cc(S(=O)(=O)[N-]c2cc3c(cc2O)Cc2ccccc2O3)ccc1[O-] (protonated)
[NH-]S(=O)(=O)c1cc(S(=O)(=O)[N-]c2cc3c(cc2O)Cc2ccccc2O3)ccc1[O-] (3D coordinates assigned)
[NH-]S(=O)(=O)c1cc(S(=O)(=O)[N-]c2cc3c(cc2O)Cc2ccccc2O3)ccc1[O-] (nonaromatic ring conformer: 54.55507288542728 kcal/mol)

>  <smiles>  (37) 
NS(=O)(=O)c1cc(S(=O)(=O)Nc2cc3c(cc2O)Cc2ccccc2O3)ccc1O

>  <score_type>  (37) 
oracle

>  <origin>  (37) 
adgpu

>  <m_score__min__energy>  (37) 
-13.34

>  <m_primary>  (37) 
energy

$$$$
38:0
     RDKit          3D

 52 54  0  0  0  0  0  0  0  0999 V2000
   -2.9480   21.9050  -31.1240 C   0  0  0  0  0  0  0  0  0  0  0  0
   -3.1590   21.3390  -32.5270 C   0  0  0  0  0  0  0  0  0  0  0  0
   -2.9650   19.8150  -32.5890 C   0  0  0  0  0  0  0  0  0  0  0  0
   -3.2170   19.2080  -33.9810 C   0  0  0  0  0  0  0  0  0  0  0  0
   -4.2560   18.1620  -33.9400 N   0  0  0  0  0  0  0  0  0  0  0  0
   -3.9860   16.8470  -34.2650 C   0  0  0  0  0  0  0  0  0  0  0  0
   -2.8140   16.5150  -34.5980 O   0  0  0  0  0  0  0  0  0  0  0  0
   -4.9890   15.8880  -34.2330 N   0  0  0  0  0  0  0  0  0  0  0  0
   -4.6980   14.4860  -34.6020 C   0  0  0  0  0  0  0  0  0  0  0  0
   -3.9480   13.7520  -33.4810 C   0  0  0  0  0  0  0  0  0  0  0  0
   -4.5550   14.0110  -32.1050 C   0  0  0  0  0  0  0  0  0  0  0  0
   -6.2710   16.2430  -33.8750 C   0  0  0  0  0  0  0  0  0  0  0  0
   -7.2030   15.3940  -33.8370 O   0  0  0  0  0  0  0  0  0  0  0  0
   -6.5210   17.5630  -33.5500 C   0  0  0  0  0  0  0  0  0  0  0  0
   -7.6740   18.1290  -33.1650 N   0  0  0  0  0  0  0  0  0  0  0  0
   -7.3090   19.4260  -32.9870 C   0  0  0  0  0  0  0  0  0  0  0  0
   -8.2560   20.4690  -32.4890 C   0  0  0  0  0  0  0  0  0  0  0  0
   -7.4940   21.5650  -31.7980 C   0  0  0  0  0  0  0  0  0  0  0  0
   -7.7730   21.8860  -30.4600 C   0  0  0  0  0  0  0  0  0  0  0  0
   -7.0910   22.9310  -29.8290 C   0  0  0  0  0  0  0  0  0  0  0  0
   -6.1350   23.6770  -30.5320 C   0  0  0  0  0  0  0  0  0  0  0  0
   -5.2680   24.9850  -29.7340 S   0  0  0  0  0  0  0  0  0  0  0  0
   -3.7850   25.2860  -30.5670 N   0  0  0  0  0  0  0  0  0  0  0  0
   -6.1100   26.2300  -29.7380 O   0  0  0  0  0  0  0  0  0  0  0  0
   -4.9730   24.6070  -28.3100 O   0  0  0  0  0  0  0  0  0  0  0  0
   -5.8600   23.3620  -31.8690 C   0  0  0  0  0  0  0  0  0  0  0  0
   -6.5410   22.3170  -32.5020 C   0  0  0  0  0  0  0  0  0  0  0  0
   -5.9960   19.6830  -33.2260 N   0  0  0  0  0  0  0  0  0  0  0  0
   -5.5330   18.4770  -33.5880 C   0  0  0  0  0  0  0  0  0  0  0  0
   -3.2301   21.1483  -30.3771 H   0  0  0  0  0  0  0  0  0  0  0  0
   -1.8894   22.1734  -30.9923 H   0  0  0  0  0  0  0  0  0  0  0  0
   -3.5726   22.8009  -30.9923 H   0  0  0  0  0  0  0  0  0  0  0  0
   -4.1827   21.5767  -32.8518 H   0  0  0  0  0  0  0  0  0  0  0  0
   -2.4060   21.7962  -33.1857 H   0  0  0  0  0  0  0  0  0  0  0  0
   -1.9305   19.5857  -32.2938 H   0  0  0  0  0  0  0  0  0  0  0  0
   -3.7076   19.3717  -31.9093 H   0  0  0  0  0  0  0  0  0  0  0  0
   -3.5416   20.0063  -34.6646 H   0  0  0  0  0  0  0  0  0  0  0  0
   -2.2805   18.7477  -34.3290 H   0  0  0  0  0  0  0  0  0  0  0  0
   -5.6462   13.9642  -34.7987 H   0  0  0  0  0  0  0  0  0  0  0  0
   -4.0599   14.4907  -35.4980 H   0  0  0  0  0  0  0  0  0  0  0  0
   -3.9809   12.6713  -33.6834 H   0  0  0  0  0  0  0  0  0  0  0  0
   -2.9149   14.1295  -33.4671 H   0  0  0  0  0  0  0  0  0  0  0  0
   -3.8408   13.7062  -31.3259 H   0  0  0  0  0  0  0  0  0  0  0  0
   -4.7784   15.0828  -31.9986 H   0  0  0  0  0  0  0  0  0  0  0  0
   -5.4834   13.4306  -31.9986 H   0  0  0  0  0  0  0  0  0  0  0  0
   -8.8126   20.8916  -33.3385 H   0  0  0  0  0  0  0  0  0  0  0  0
   -8.9569   20.0105  -31.7759 H   0  0  0  0  0  0  0  0  0  0  0  0
   -8.5311   21.3132  -29.9058 H   0  0  0  0  0  0  0  0  0  0  0  0
   -7.3056   23.1686  -28.7766 H   0  0  0  0  0  0  0  0  0  0  0  0
   -3.9290   26.1440  -31.1470 H   0  0  0  0  0  0  0  0  0  0  0  0
   -5.1052   23.9390  -32.4235 H   0  0  0  0  0  0  0  0  0  0  0  0
   -6.3287   22.0837  -33.5558 H   0  0  0  0  0  0  0  0  0  0  0  0
  1  2  1  0
  2  3  1  0
  3  4  1  0
  4  5  1  0
  5  6  1  0
  6  7  2  0
  6  8  1  0
  8  9  1  0
  9 10  1  0
 10 11  1  0
  8 12  1  0
 12 13  2  0
 12 14  1  0
 14 15  1  0
 15 16  1  0
 16 17  1  0
 17 18  1  0
 18 19  2  0
 19 20  1  0
 20 21  2  0
 21 22  1  0
 22 23  1  0
 22 24  2  0
 22 25  2  0
 21 26  1  0
 26 27  2  0
 16 28  2  0
 28 29  1  0
 29  5  1  0
 29 14  2  0
 27 18  1  0
  1 30  1  0
  1 31  1  0
  1 32  1  0
  2 33  1  0
  2 34  1  0
  3 35  1  0
  3 36  1  0
  4 37  1  0
  4 38  1  0
  9 39  1  0
  9 40  1  0
 10 41  1  0
 10 42  1  0
 11 43  1  0
 11 44  1  0
 11 45  1  0
 17 46  1  0
 17 47  1  0
 19 48  1  0
 20 49  1  0
 23 50  1  0
 26 51  1  0
 27 52  1  0
M  CHG  2  15  -1  23  -1
M  END
>  <UniqueID>  (38) 
37

>  <SMILES>  (38) 
CCCCn1c(=O)n(CCC)c(=O)c2[n-]c(Cc3ccc(S([NH-])(=O)=O)cc3)nc21

>  <Energy>  (38) 
82.9535356823933

>  <Genealogy>  (38) 
CCCCn1c(=O)n(CCC)c(=O)c2[n-]c(Cc3ccc(S([NH-])(=O)=O)cc3)nc21 (protonated)
CCCCn1c(=O)n(CCC)c(=O)c2[n-]c(Cc3ccc(S([NH-])(=O)=O)cc3)nc21 (3D coordinates assigned)
CCCCn1c(=O)n(CCC)c(=O)c2[n-]c(Cc3ccc(S([NH-])(=O)=O)cc3)nc21 (optimized conformer: 82.9535356823933 kcal/mol)

>  <smiles>  (38) 
CCCCn1c(=O)n(CCC)c(=O)c2[nH]c(Cc3ccc(S(N)(=O)=O)cc3)nc21

>  <score_type>  (38) 
oracle

>  <origin>  (38) 
adgpu

>  <m_score__min__energy>  (38) 
-10.5

>  <m_primary>  (38) 
energy

$$$$
39:0
     RDKit          3D

 45 47  0  0  0  0  0  0  0  0999 V2000
   -1.2350   21.4800  -33.6150 C   0  0  0  0  0  0  0  0  0  0  0  0
   -1.4880   20.3090  -32.6630 C   0  0  0  0  0  0  0  0  0  0  0  0
   -0.1610   19.6650  -32.2440 C   0  0  0  0  0  0  0  0  0  0  0  0
   -2.2250   20.7710  -31.4810 N   0  0  0  0  0  0  0  0  0  0  0  0
   -1.6470   21.6730  -30.5240 C   0  0  0  0  0  0  0  0  0  0  0  0
   -0.4920   22.1390  -30.7170 O   0  0  0  0  0  0  0  0  0  0  0  0
   -2.3870   22.0320  -29.2980 C   0  0  0  0  0  0  0  0  0  0  0  0
   -2.7810   21.1550  -28.3020 C   0  0  0  0  0  0  0  0  0  0  0  0
   -3.3370   21.8440  -27.2890 N   0  0  0  0  0  0  0  0  0  0  0  0
   -3.3150   23.1280  -27.6090 N   0  0  0  0  0  0  0  0  0  0  0  0
   -3.8650   24.1700  -26.7460 C   0  0  0  0  0  0  0  0  0  0  0  0
   -2.7430   23.2900  -28.8240 C   0  0  0  0  0  0  0  0  0  0  0  0
   -2.6160   24.5820  -29.5290 C   0  0  0  0  0  0  0  0  0  0  0  0
   -1.6230   25.3230  -29.3010 O   0  0  0  0  0  0  0  0  0  0  0  0
   -3.6100   24.9770  -30.4830 N   0  0  0  0  0  0  0  0  0  0  0  0
   -4.7990   24.2540  -30.8300 C   0  0  0  0  0  0  0  0  0  0  0  0
   -6.0400   24.8150  -30.5120 C   0  0  0  0  0  0  0  0  0  0  0  0
   -7.2210   24.1520  -30.8450 C   0  0  0  0  0  0  0  0  0  0  0  0
   -7.1730   22.9290  -31.5160 C   0  0  0  0  0  0  0  0  0  0  0  0
   -5.9400   22.3580  -31.8780 C   0  0  0  0  0  0  0  0  0  0  0  0
   -5.9120   21.1010  -32.5890 N   0  0  0  0  0  0  0  0  0  0  0  0
   -6.9620   20.4240  -33.1030 C   0  0  0  0  0  0  0  0  0  0  0  0
   -6.4950   19.2690  -33.6930 C   0  0  0  0  0  0  0  0  0  0  0  0
   -5.1300   19.3030  -33.5000 C   0  0  0  0  0  0  0  0  0  0  0  0
   -4.7990   20.4210  -32.8280 N   0  0  0  0  0  0  0  0  0  0  0  0
   -4.7520   23.0340  -31.5320 C   0  0  0  0  0  0  0  0  0  0  0  0
   -1.0381   22.3912  -33.0312 H   0  0  0  0  0  0  0  0  0  0  0  0
   -0.3646   21.2556  -34.2491 H   0  0  0  0  0  0  0  0  0  0  0  0
   -2.1204   21.6349  -34.2491 H   0  0  0  0  0  0  0  0  0  0  0  0
   -2.0930   19.5534  -33.1856 H   0  0  0  0  0  0  0  0  0  0  0  0
   -0.0986   19.6347  -31.1462 H   0  0  0  0  0  0  0  0  0  0  0  0
   -0.1083   18.6411  -32.6426 H   0  0  0  0  0  0  0  0  0  0  0  0
    0.6759   20.2572  -32.6426 H   0  0  0  0  0  0  0  0  0  0  0  0
   -3.2210   20.4810  -31.3570 H   0  0  0  0  0  0  0  0  0  0  0  0
   -2.6583   20.0623  -28.3339 H   0  0  0  0  0  0  0  0  0  0  0  0
   -3.7170   23.8896  -25.6927 H   0  0  0  0  0  0  0  0  0  0  0  0
   -3.3518   25.1218  -26.9477 H   0  0  0  0  0  0  0  0  0  0  0  0
   -4.9404   24.2833  -26.9477 H   0  0  0  0  0  0  0  0  0  0  0  0
   -6.0849   25.7854  -29.9959 H   0  0  0  0  0  0  0  0  0  0  0  0
   -8.1924   24.5939  -30.5783 H   0  0  0  0  0  0  0  0  0  0  0  0
   -8.1088   22.4068  -31.7640 H   0  0  0  0  0  0  0  0  0  0  0  0
   -8.0142   20.7415  -33.0582 H   0  0  0  0  0  0  0  0  0  0  0  0
   -7.0816   18.4918  -34.2047 H   0  0  0  0  0  0  0  0  0  0  0  0
   -4.4211   18.5348  -33.8425 H   0  0  0  0  0  0  0  0  0  0  0  0
   -3.7792   22.6044  -31.8131 H   0  0  0  0  0  0  0  0  0  0  0  0
  1  2  1  0
  2  3  1  0
  2  4  1  0
  4  5  1  0
  5  6  2  0
  5  7  1  0
  7  8  1  0
  8  9  2  0
  9 10  1  0
 10 11  1  0
 10 12  1  0
 12 13  1  0
 13 14  2  0
 13 15  1  0
 15 16  1  0
 16 17  2  0
 17 18  1  0
 18 19  2  0
 19 20  1  0
 20 21  1  0
 21 22  1  0
 22 23  2  0
 23 24  1  0
 24 25  2  0
 20 26  2  0
 12  7  2  0
 26 16  1  0
 25 21  1  0
  1 27  1  0
  1 28  1  0
  1 29  1  0
  2 30  1  0
  3 31  1  0
  3 32  1  0
  3 33  1  0
  4 34  1  0
  8 35  1  0
 11 36  1  0
 11 37  1  0
 11 38  1  0
 17 39  1  0
 18 40  1  0
 19 41  1  0
 22 42  1  0
 23 43  1  0
 24 44  1  0
 26 45  1  0
M  CHG  1  15  -1
M  END
>  <UniqueID>  (39) 
38

>  <SMILES>  (39) 
CC(C)NC(=O)c1cnn(C)c1C(=O)[N-]c1cccc(-n2cccn2)c1

>  <Energy>  (39) 
110.56634907297384

>  <Genealogy>  (39) 
CC(C)NC(=O)c1cnn(C)c1C(=O)[N-]c1cccc(-n2cccn2)c1 (protonated)
CC(C)NC(=O)c1cnn(C)c1C(=O)[N-]c1cccc(-n2cccn2)c1 (3D coordinates assigned)
CC(C)NC(=O)c1cnn(C)c1C(=O)[N-]c1cccc(-n2cccn2)c1 (optimized conformer: 110.56634907297384 kcal/mol)

>  <smiles>  (39) 
CC(C)NC(=O)c1cnn(C)c1C(=O)Nc1cccc(-n2cccn2)c1

>  <score_type>  (39) 
oracle

>  <origin>  (39) 
adgpu

>  <m_score__min__energy>  (39) 
-8.9399999999999995

>  <m_primary>  (39) 
energy

$$$$
40:0
     RDKit          3D

 49 53  0  0  0  0  0  0  0  0999 V2000
   -5.7410   26.0580  -29.7560 O   0  0  0  0  0  0  0  0  0  0  0  0
   -5.0350   25.4090  -30.5720 C   0  0  0  0  0  0  0  0  0  0  0  0
   -5.6700   24.7620  -31.6800 N   0  0  0  0  0  0  0  0  0  0  0  0
   -5.8960   23.3520  -31.8190 C   0  0  0  0  0  0  0  0  0  0  0  0
   -7.1690   22.8340  -31.4770 C   0  0  0  0  0  0  0  0  0  0  0  0
   -7.4390   21.4610  -31.6340 C   0  0  0  0  0  0  0  0  0  0  0  0
   -6.4160   20.6530  -32.0990 C   0  0  0  0  0  0  0  0  0  0  0  0
   -5.1980   21.1270  -32.4630 C   0  0  0  0  0  0  0  0  0  0  0  0
   -4.9030   22.4870  -32.3460 C   0  0  0  0  0  0  0  0  0  0  0  0
   -4.3700   20.0110  -33.0150 C   0  0  0  0  0  0  0  0  0  0  0  0
   -5.3260   18.7820  -32.9500 C   0  0  0  0  0  0  0  0  0  0  0  0
   -6.5570   19.2840  -32.3440 N   0  0  0  0  0  0  0  0  0  0  0  0
   -7.8460   18.6690  -32.2950 C   0  0  0  0  0  0  0  0  0  0  0  0
   -7.9750   17.4370  -32.5260 O   0  0  0  0  0  0  0  0  0  0  0  0
   -9.0610   19.5370  -32.0550 C   0  0  0  0  0  0  0  0  0  0  0  0
   -8.7400   20.8100  -31.2240 C   0  0  0  0  0  0  0  0  0  0  0  0
   -3.6200   25.2940  -30.3710 N   0  0  0  0  0  0  0  0  0  0  0  0
   -3.0100   24.4160  -29.4180 C   0  0  0  0  0  0  0  0  0  0  0  0
   -3.6960   23.2550  -29.0560 C   0  0  0  0  0  0  0  0  0  0  0  0
   -3.1330   22.3540  -28.1570 C   0  0  0  0  0  0  0  0  0  0  0  0
   -1.8720   22.5950  -27.6070 C   0  0  0  0  0  0  0  0  0  0  0  0
   -1.2510   21.4190  -26.4520 Cl  0  0  0  0  0  0  0  0  0  0  0  0
   -1.1620   23.7680  -27.9520 C   0  0  0  0  0  0  0  0  0  0  0  0
    0.4330   24.0970  -27.2380 S   0  0  0  0  0  0  0  0  0  0  0  0
    1.2850   24.8960  -28.1860 O   0  0  0  0  0  0  0  0  0  0  0  0
    1.1450   22.8020  -26.9640 O   0  0  0  0  0  0  0  0  0  0  0  0
    0.1920   24.9780  -25.6970 C   0  0  0  0  0  0  0  0  0  0  0  0
   -0.4760   24.1630  -24.6040 C   0  0  0  0  0  0  0  0  0  0  0  0
   -1.2540   25.2530  -25.3240 C   0  0  0  0  0  0  0  0  0  0  0  0
   -1.7610   24.7060  -28.8230 C   0  0  0  0  0  0  0  0  0  0  0  0
   -1.1310   25.9310  -29.0510 O   0  0  0  0  0  0  0  0  0  0  0  0
   -7.9484   23.5057  -31.0879 H   0  0  0  0  0  0  0  0  0  0  0  0
   -3.9228   22.8786  -32.6555 H   0  0  0  0  0  0  0  0  0  0  0  0
   -4.0690   20.2205  -34.0521 H   0  0  0  0  0  0  0  0  0  0  0  0
   -3.4342   19.8558  -32.4580 H   0  0  0  0  0  0  0  0  0  0  0  0
   -5.5240   18.3938  -33.9600 H   0  0  0  0  0  0  0  0  0  0  0  0
   -4.8913   17.9540  -32.3708 H   0  0  0  0  0  0  0  0  0  0  0  0
   -9.4688   19.8469  -33.0285 H   0  0  0  0  0  0  0  0  0  0  0  0
   -9.7842   18.9407  -31.4793 H   0  0  0  0  0  0  0  0  0  0  0  0
   -9.5554   21.5353  -31.3620 H   0  0  0  0  0  0  0  0  0  0  0  0
   -8.6416   20.5042  -30.1720 H   0  0  0  0  0  0  0  0  0  0  0  0
   -4.6884   23.0510  -29.4844 H   0  0  0  0  0  0  0  0  0  0  0  0
   -3.6855   21.4449  -27.8774 H   0  0  0  0  0  0  0  0  0  0  0  0
    1.1020   25.5912  -25.7732 H   0  0  0  0  0  0  0  0  0  0  0  0
   -0.7214   23.1051  -24.7787 H   0  0  0  0  0  0  0  0  0  0  0  0
   -0.2467   23.9360  -23.5524 H   0  0  0  0  0  0  0  0  0  0  0  0
   -2.0624   24.9838  -26.0198 H   0  0  0  0  0  0  0  0  0  0  0  0
   -1.8210   26.1416  -25.0094 H   0  0  0  0  0  0  0  0  0  0  0  0
   -0.1260   26.0500  -29.0190 H   0  0  0  0  0  0  0  0  0  0  0  0
  1  2  2  0
  2  3  1  0
  3  4  1  0
  4  5  2  0
  5  6  1  0
  6  7  2  0
  7  8  1  0
  8  9  2  0
  8 10  1  0
 10 11  1  0
 11 12  1  0
 12 13  1  0
 13 14  2  0
 13 15  1  0
 15 16  1  0
  2 17  1  0
 17 18  1  0
 18 19  2  0
 19 20  1  0
 20 21  2  0
 21 22  1  0
 21 23  1  0
 23 24  1  0
 24 25  2  0
 24 26  2  0
 24 27  1  0
 27 28  1  0
 28 29  1  0
 23 30  2  0
 30 31  1  0
  9  4  1  0
 30 18  1  0
 16  6  1  0
 29 27  1  0
 12  7  1  0
  5 32  1  0
  9 33  1  0
 10 34  1  0
 10 35  1  0
 11 36  1  0
 11 37  1  0
 15 38  1  0
 15 39  1  0
 16 40  1  0
 16 41  1  0
 19 42  1  0
 20 43  1  0
 27 44  1  0
 28 45  1  0
 28 46  1  0
 29 47  1  0
 29 48  1  0
 31 49  1  0
M  CHG  2   3  -1  17  -1
M  END
>  <UniqueID>  (40) 
39

>  <SMILES>  (40) 
O=C([N-]c1cc2c3c(c1)CCN3C(=O)CC2)[N-]c1ccc(Cl)c(S(=O)(=O)C2CC2)c1O

>  <Energy>  (40) 
348.07380223166564

>  <Genealogy>  (40) 
O=C([N-]c1cc2c3c(c1)CCN3C(=O)CC2)[N-]c1ccc(Cl)c(S(=O)(=O)C2CC2)c1O (protonated)
O=C([N-]c1cc2c3c(c1)CCN3C(=O)CC2)[N-]c1ccc(Cl)c(S(=O)(=O)C2CC2)c1O (3D coordinates assigned)
O=C([N-]c1cc2c3c(c1)CCN3C(=O)CC2)[N-]c1ccc(Cl)c(S(=O)(=O)C2CC2)c1O (nonaromatic ring conformer: 348.07380223166564 kcal/mol)

>  <smiles>  (40) 
O=C(Nc1cc2c3c(c1)CCN3C(=O)CC2)Nc1ccc(Cl)c(S(=O)(=O)C2CC2)c1O

>  <score_type>  (40) 
oracle

>  <origin>  (40) 
adgpu

>  <m_score__min__energy>  (40) 
-14.619999999999999

>  <m_primary>  (40) 
energy

$$$$
41:0
     RDKit          3D

 36 38  0  0  0  0  0  0  0  0999 V2000
   -7.8070   17.6080  -32.3260 C   0  0  0  0  0  0  0  0  0  0  0  0
   -7.7230   19.0630  -32.0070 C   0  0  0  0  0  0  0  0  0  0  0  0
   -6.5650   19.7750  -31.7790 C   0  0  0  0  0  0  0  0  0  0  0  0
   -7.0120   21.0730  -31.6050 C   0  0  0  0  0  0  0  0  0  0  0  0
   -6.1980   22.2770  -31.3220 C   0  0  0  0  0  0  0  0  0  0  0  0
   -6.6020   23.5520  -31.7580 C   0  0  0  0  0  0  0  0  0  0  0  0
   -5.8190   24.6750  -31.4780 C   0  0  0  0  0  0  0  0  0  0  0  0
   -4.6290   24.5440  -30.7590 C   0  0  0  0  0  0  0  0  0  0  0  0
   -3.8650   25.6750  -30.4940 O   0  0  0  0  0  0  0  0  0  0  0  0
   -4.2130   23.2790  -30.3130 C   0  0  0  0  0  0  0  0  0  0  0  0
   -2.7200   23.1060  -29.3890 S   0  0  0  0  0  0  0  0  0  0  0  0
   -1.5630   23.5150  -30.2540 O   0  0  0  0  0  0  0  0  0  0  0  0
   -2.5170   21.6820  -28.9520 O   0  0  0  0  0  0  0  0  0  0  0  0
   -2.7720   24.1280  -27.9890 N   0  0  0  0  0  0  0  0  0  0  0  0
   -1.6280   24.6760  -27.3180 C   0  0  0  0  0  0  0  0  0  0  0  0
   -1.2510   24.2590  -26.0280 C   0  0  0  0  0  0  0  0  0  0  0  0
   -0.1330   24.8200  -25.4040 C   0  0  0  0  0  0  0  0  0  0  0  0
    0.6190   25.7960  -26.0590 C   0  0  0  0  0  0  0  0  0  0  0  0
    0.2560   26.2120  -27.3420 C   0  0  0  0  0  0  0  0  0  0  0  0
   -0.8650   25.6560  -27.9740 C   0  0  0  0  0  0  0  0  0  0  0  0
   -1.2280   26.0740  -29.2540 O   0  0  0  0  0  0  0  0  0  0  0  0
   -4.9980   22.1520  -30.6010 C   0  0  0  0  0  0  0  0  0  0  0  0
   -8.3200   21.0840  -31.7400 O   0  0  0  0  0  0  0  0  0  0  0  0
   -8.7810   19.8940  -31.9900 N   0  0  0  0  0  0  0  0  0  0  0  0
   -7.8404   17.0290  -31.3913 H   0  0  0  0  0  0  0  0  0  0  0  0
   -8.7179   17.4129  -32.9110 H   0  0  0  0  0  0  0  0  0  0  0  0
   -6.9246   17.3093  -32.9110 H   0  0  0  0  0  0  0  0  0  0  0  0
   -5.5313   19.4005  -31.7437 H   0  0  0  0  0  0  0  0  0  0  0  0
   -7.5393   23.6656  -32.3224 H   0  0  0  0  0  0  0  0  0  0  0  0
   -6.1417   25.6674  -31.8258 H   0  0  0  0  0  0  0  0  0  0  0  0
   -1.8388   23.4880  -25.5082 H   0  0  0  0  0  0  0  0  0  0  0  0
    0.1546   24.4913  -24.3944 H   0  0  0  0  0  0  0  0  0  0  0  0
    1.4972   26.2375  -25.5652 H   0  0  0  0  0  0  0  0  0  0  0  0
    0.8520   26.9788  -27.8585 H   0  0  0  0  0  0  0  0  0  0  0  0
   -2.0200   25.6720  -29.7400 H   0  0  0  0  0  0  0  0  0  0  0  0
   -4.6704   21.1593  -30.2585 H   0  0  0  0  0  0  0  0  0  0  0  0
  1  2  1  0
  2  3  1  0
  3  4  2  0
  4  5  1  0
  5  6  2  0
  6  7  1  0
  7  8  2  0
  8  9  1  0
  8 10  1  0
 10 11  1  0
 11 12  2  0
 11 13  2  0
 11 14  1  0
 14 15  1  0
 15 16  2  0
 16 17  1  0
 17 18  2  0
 18 19  1  0
 19 20  2  0
 20 21  1  0
 10 22  2  0
  4 23  1  0
 23 24  1  0
 24  2  2  0
 22  5  1  0
 20 15  1  0
  1 25  1  0
  1 26  1  0
  1 27  1  0
  3 28  1  0
  6 29  1  0
  7 30  1  0
 16 31  1  0
 17 32  1  0
 18 33  1  0
 19 34  1  0
 21 35  1  0
 22 36  1  0
M  CHG  2   9  -1  14  -1
M  END
>  <UniqueID>  (41) 
40

>  <SMILES>  (41) 
Cc1cc(-c2ccc([O-])c(S(=O)(=O)[N-]c3ccccc3O)c2)on1

>  <Energy>  (41) 
72.1365426839407

>  <Genealogy>  (41) 
Cc1cc(-c2ccc([O-])c(S(=O)(=O)[N-]c3ccccc3O)c2)on1 (protonated)
Cc1cc(-c2ccc([O-])c(S(=O)(=O)[N-]c3ccccc3O)c2)on1 (3D coordinates assigned)
Cc1cc(-c2ccc([O-])c(S(=O)(=O)[N-]c3ccccc3O)c2)on1 (optimized conformer: 72.1365426839407 kcal/mol)

>  <smiles>  (41) 
Cc1cc(-c2ccc(O)c(S(=O)(=O)Nc3ccccc3O)c2)on1

>  <score_type>  (41) 
oracle

>  <origin>  (41) 
adgpu

>  <m_score__min__energy>  (41) 
-13.09

>  <m_primary>  (41) 
energy

$$$$
42:0
     RDKit          3D

 44 47  0  0  0  0  0  0  0  0999 V2000
   -5.2350   23.8920  -31.6770 O   0  0  0  0  0  0  0  0  0  0  0  0
   -4.7900   22.7300  -31.8700 C   0  0  0  0  0  0  0  0  0  0  0  0
   -5.6510   21.7610  -32.4830 N   0  0  0  0  0  0  0  0  0  0  0  0
   -7.0560   21.5970  -32.2350 C   0  0  0  0  0  0  0  0  0  0  0  0
   -7.8480   22.6690  -31.7940 C   0  0  0  0  0  0  0  0  0  0  0  0
   -9.1860   22.5110  -31.6430 N   0  0  0  0  0  0  0  0  0  0  0  0
   -9.7850   21.3280  -31.9250 C   0  0  0  0  0  0  0  0  0  0  0  0
   -9.0450   20.2800  -32.3690 N   0  0  0  0  0  0  0  0  0  0  0  0
   -7.6980   20.3790  -32.5320 C   0  0  0  0  0  0  0  0  0  0  0  0
   -6.9660   19.2310  -33.0020 N   0  0  0  0  0  0  0  0  0  0  0  0
   -6.1170   19.2970  -34.1960 C   0  0  0  0  0  0  0  0  0  0  0  0
   -4.8590   18.4520  -33.9770 C   0  0  0  0  0  0  0  0  0  0  0  0
   -5.1970   17.1420  -33.5610 O   0  0  0  0  0  0  0  0  0  0  0  0
   -5.8190   17.1880  -32.2900 C   0  0  0  0  0  0  0  0  0  0  0  0
   -7.1590   17.9270  -32.3650 C   0  0  0  0  0  0  0  0  0  0  0  0
   -3.3860   22.4210  -31.5110 C   0  0  0  0  0  0  0  0  0  0  0  0
   -2.6280   21.5180  -32.2770 C   0  0  0  0  0  0  0  0  0  0  0  0
   -1.3050   21.2370  -31.9330 C   0  0  0  0  0  0  0  0  0  0  0  0
   -0.7190   21.8600  -30.8290 C   0  0  0  0  0  0  0  0  0  0  0  0
   -1.4520   22.7760  -30.0590 C   0  0  0  0  0  0  0  0  0  0  0  0
   -0.8470   23.4230  -28.9250 N   0  0  0  0  0  0  0  0  0  0  0  0
   -0.9270   24.7280  -28.5890 C   0  0  0  0  0  0  0  0  0  0  0  0
   -1.6040   25.6880  -29.3320 O   0  0  0  0  0  0  0  0  0  0  0  0
   -0.2240   24.9880  -27.4300 C   0  0  0  0  0  0  0  0  0  0  0  0
    0.3180   23.7800  -27.0310 C   0  0  0  0  0  0  0  0  0  0  0  0
   -0.0850   22.8500  -27.9690 C   0  0  0  0  0  0  0  0  0  0  0  0
    0.2250   21.4960  -27.9210 O   0  0  0  0  0  0  0  0  0  0  0  0
   -2.7850   23.0540  -30.4090 C   0  0  0  0  0  0  0  0  0  0  0  0
   -7.3817   23.6398  -31.5704 H   0  0  0  0  0  0  0  0  0  0  0  0
  -10.8715   21.2172  -31.7940 H   0  0  0  0  0  0  0  0  0  0  0  0
   -6.6726   18.9092  -35.0625 H   0  0  0  0  0  0  0  0  0  0  0  0
   -5.8282   20.3419  -34.3825 H   0  0  0  0  0  0  0  0  0  0  0  0
   -4.2940   18.3962  -34.9192 H   0  0  0  0  0  0  0  0  0  0  0  0
   -4.2505   18.9243  -33.1917 H   0  0  0  0  0  0  0  0  0  0  0  0
   -5.9931   16.1610  -31.9366 H   0  0  0  0  0  0  0  0  0  0  0  0
   -5.1586   17.7263  -31.5942 H   0  0  0  0  0  0  0  0  0  0  0  0
   -7.8720   17.3331  -32.9556 H   0  0  0  0  0  0  0  0  0  0  0  0
   -7.5535   18.0719  -31.3485 H   0  0  0  0  0  0  0  0  0  0  0  0
   -3.0805   21.0300  -33.1528 H   0  0  0  0  0  0  0  0  0  0  0  0
   -0.7221   20.5228  -32.5331 H   0  0  0  0  0  0  0  0  0  0  0  0
    0.3232   21.6314  -30.5615 H   0  0  0  0  0  0  0  0  0  0  0  0
   -0.1166   25.9597  -26.9257 H   0  0  0  0  0  0  0  0  0  0  0  0
    0.9439   23.5968  -26.1452 H   0  0  0  0  0  0  0  0  0  0  0  0
   -3.3643   23.7751  -29.8137 H   0  0  0  0  0  0  0  0  0  0  0  0
  1  2  2  0
  2  3  1  0
  3  4  1  0
  4  5  2  0
  5  6  1  0
  6  7  2  0
  7  8  1  0
  8  9  2  0
  9 10  1  0
 10 11  1  0
 11 12  1  0
 12 13  1  0
 13 14  1  0
 14 15  1  0
  2 16  1  0
 16 17  2  0
 17 18  1  0
 18 19  2  0
 19 20  1  0
 20 21  1  0
 21 22  1  0
 22 23  1  0
 22 24  2  0
 24 25  1  0
 25 26  2  0
 26 27  1  0
 20 28  2  0
  9  4  1  0
 15 10  1  0
 28 16  1  0
 26 21  1  0
  5 29  1  0
  7 30  1  0
 11 31  1  0
 11 32  1  0
 12 33  1  0
 12 34  1  0
 14 35  1  0
 14 36  1  0
 15 37  1  0
 15 38  1  0
 17 39  1  0
 18 40  1  0
 19 41  1  0
 24 42  1  0
 25 43  1  0
 28 44  1  0
M  CHG  3   3  -1  23  -1  27  -1
M  END
>  <UniqueID>  (42) 
41

>  <SMILES>  (42) 
O=C([N-]c1cncnc1N1CCOCC1)c1cccc(-n2c([O-])ccc2[O-])c1

>  <Energy>  (42) 
95.04437364079229

>  <Genealogy>  (42) 
O=C([N-]c1cncnc1N1CCOCC1)c1cccc(-n2c([O-])ccc2[O-])c1 (protonated)
O=C([N-]c1cncnc1N1CCOCC1)c1cccc(-n2c([O-])ccc2[O-])c1 (3D coordinates assigned)
O=C([N-]c1cncnc1N1CCOCC1)c1cccc(-n2c([O-])ccc2[O-])c1 (nonaromatic ring conformer: 95.04437364079229 kcal/mol)

>  <smiles>  (42) 
O=C(Nc1cncnc1N1CCOCC1)c1cccc(-n2c(O)ccc2O)c1

>  <score_type>  (42) 
oracle

>  <origin>  (42) 
adgpu

>  <m_score__min__energy>  (42) 
-11.6

>  <m_primary>  (42) 
energy

$$$$
43:0
     RDKit          3D

 50 52  0  0  0  0  0  0  0  0999 V2000
   -8.0680   18.1760  -31.2160 C   0  0  0  0  0  0  0  0  0  0  0  0
   -9.1440   18.7040  -32.1580 C   0  0  0  0  0  0  0  0  0  0  0  0
   -8.6250   19.8100  -32.9620 N   0  0  0  0  0  0  0  0  0  0  0  0
   -7.4960   20.6360  -32.5930 C   0  0  0  0  0  0  0  0  0  0  0  0
   -7.6220   21.6410  -31.6110 C   0  0  0  0  0  0  0  0  0  0  0  0
   -6.5450   22.4800  -31.2890 C   0  0  0  0  0  0  0  0  0  0  0  0
   -6.7280   23.5180  -30.3110 N   0  0  0  0  0  0  0  0  0  0  0  0
   -5.5200   24.7100  -29.9550 S   0  0  0  0  0  0  0  0  0  0  0  0
   -6.1250   25.7810  -29.0910 O   0  0  0  0  0  0  0  0  0  0  0  0
   -5.0370   25.3290  -31.2360 O   0  0  0  0  0  0  0  0  0  0  0  0
   -4.1530   23.9490  -29.1460 C   0  0  0  0  0  0  0  0  0  0  0  0
   -4.0460   24.0170  -27.7510 C   0  0  0  0  0  0  0  0  0  0  0  0
   -2.9480   23.4480  -27.1030 C   0  0  0  0  0  0  0  0  0  0  0  0
   -1.9540   22.8010  -27.8420 C   0  0  0  0  0  0  0  0  0  0  0  0
   -2.0600   22.7090  -29.2380 C   0  0  0  0  0  0  0  0  0  0  0  0
   -0.9710   22.0490  -30.0310 C   0  0  0  0  0  0  0  0  0  0  0  0
   -3.1570   23.2970  -29.8880 C   0  0  0  0  0  0  0  0  0  0  0  0
   -5.3130   22.2870  -31.9310 C   0  0  0  0  0  0  0  0  0  0  0  0
   -5.1700   21.2930  -32.8960 C   0  0  0  0  0  0  0  0  0  0  0  0
   -6.2540   20.4730  -33.2480 C   0  0  0  0  0  0  0  0  0  0  0  0
   -6.0660   19.4290  -34.2180 N   0  0  0  0  0  0  0  0  0  0  0  0
   -5.6350   18.0970  -33.8860 C   0  0  0  0  0  0  0  0  0  0  0  0
   -6.4920   17.0130  -34.1330 C   0  0  0  0  0  0  0  0  0  0  0  0
   -6.0890   15.7080  -33.8340 C   0  0  0  0  0  0  0  0  0  0  0  0
   -4.8230   15.4730  -33.2930 C   0  0  0  0  0  0  0  0  0  0  0  0
   -3.9550   16.5430  -33.0590 C   0  0  0  0  0  0  0  0  0  0  0  0
   -4.3540   17.8490  -33.3590 C   0  0  0  0  0  0  0  0  0  0  0  0
   -8.3845   18.3313  -30.1740 H   0  0  0  0  0  0  0  0  0  0  0  0
   -7.9172   17.1015  -31.3971 H   0  0  0  0  0  0  0  0  0  0  0  0
   -7.1259   18.7141  -31.3971 H   0  0  0  0  0  0  0  0  0  0  0  0
   -9.4697   17.8930  -32.8259 H   0  0  0  0  0  0  0  0  0  0  0  0
   -9.9926   19.0674  -31.5598 H   0  0  0  0  0  0  0  0  0  0  0  0
   -9.1320   20.0060  -33.8530 H   0  0  0  0  0  0  0  0  0  0  0  0
   -8.5816   21.7689  -31.0887 H   0  0  0  0  0  0  0  0  0  0  0  0
   -7.6770   23.6670  -29.9020 H   0  0  0  0  0  0  0  0  0  0  0  0
   -4.8290   24.5200  -27.1646 H   0  0  0  0  0  0  0  0  0  0  0  0
   -2.8651   23.5092  -26.0078 H   0  0  0  0  0  0  0  0  0  0  0  0
   -1.0860   22.3626  -27.3278 H   0  0  0  0  0  0  0  0  0  0  0  0
   -0.2360   21.6035  -29.3445 H   0  0  0  0  0  0  0  0  0  0  0  0
   -1.4048   21.2617  -30.6650 H   0  0  0  0  0  0  0  0  0  0  0  0
   -0.4737   22.7978  -30.6650 H   0  0  0  0  0  0  0  0  0  0  0  0
   -3.2357   23.2461  -30.9840 H   0  0  0  0  0  0  0  0  0  0  0  0
   -4.4550   22.9243  -31.6709 H   0  0  0  0  0  0  0  0  0  0  0  0
   -4.1968   21.1487  -33.3880 H   0  0  0  0  0  0  0  0  0  0  0  0
   -6.3050   19.6390  -35.2140 H   0  0  0  0  0  0  0  0  0  0  0  0
   -7.4878   17.1916  -34.5649 H   0  0  0  0  0  0  0  0  0  0  0  0
   -6.7698   14.8654  -34.0251 H   0  0  0  0  0  0  0  0  0  0  0  0
   -4.5094   14.4467  -33.0513 H   0  0  0  0  0  0  0  0  0  0  0  0
   -2.9559   16.3573  -32.6379 H   0  0  0  0  0  0  0  0  0  0  0  0
   -3.6633   18.6866  -33.1822 H   0  0  0  0  0  0  0  0  0  0  0  0
  1  2  1  0
  2  3  1  0
  3  4  1  0
  4  5  2  0
  5  6  1  0
  6  7  1  0
  7  8  1  0
  8  9  2  0
  8 10  2  0
  8 11  1  0
 11 12  2  0
 12 13  1  0
 13 14  2  0
 14 15  1  0
 15 16  1  0
 15 17  2  0
  6 18  2  0
 18 19  1  0
 19 20  2  0
 20 21  1  0
 21 22  1  0
 22 23  2  0
 23 24  1  0
 24 25  2  0
 25 26  1  0
 26 27  2  0
 20  4  1  0
 27 22  1  0
 17 11  1  0
  1 28  1  0
  1 29  1  0
  1 30  1  0
  2 31  1  0
  2 32  1  0
  3 33  1  0
  5 34  1  0
  7 35  1  0
 12 36  1  0
 13 37  1  0
 14 38  1  0
 16 39  1  0
 16 40  1  0
 16 41  1  0
 17 42  1  0
 18 43  1  0
 19 44  1  0
 21 45  1  0
 23 46  1  0
 24 47  1  0
 25 48  1  0
 26 49  1  0
 27 50  1  0
M  END
>  <UniqueID>  (43) 
42

>  <SMILES>  (43) 
CCNc1cc(NS(=O)(=O)c2cccc(C)c2)ccc1Nc1ccccc1

>  <Energy>  (43) 
58.47488568261933

>  <Genealogy>  (43) 
CCNc1cc(NS(=O)(=O)c2cccc(C)c2)ccc1Nc1ccccc1 (3D coordinates assigned)
CCNc1cc(NS(=O)(=O)c2cccc(C)c2)ccc1Nc1ccccc1 (optimized conformer: 58.47488568261933 kcal/mol)

>  <smiles>  (43) 
CCNc1cc(NS(=O)(=O)c2cccc(C)c2)ccc1Nc1ccccc1

>  <score_type>  (43) 
oracle

>  <origin>  (43) 
adgpu

>  <m_score__min__energy>  (43) 
-9.9800000000000004

>  <m_primary>  (43) 
energy

$$$$
44:0
     RDKit          3D

 28 30  0  0  0  0  0  0  0  0999 V2000
   -1.2630   26.0490  -29.3420 O   0  0  0  0  0  0  0  0  0  0  0  0
   -1.2370   24.9780  -28.4560 C   0  0  0  0  0  0  0  0  0  0  0  0
   -0.2300   24.9350  -27.4850 C   0  0  0  0  0  0  0  0  0  0  0  0
   -0.1660   23.8770  -26.5750 C   0  0  0  0  0  0  0  0  0  0  0  0
    0.8430   23.8530  -25.6150 O   0  0  0  0  0  0  0  0  0  0  0  0
   -1.1170   22.8520  -26.6360 C   0  0  0  0  0  0  0  0  0  0  0  0
   -2.1260   22.8860  -27.6020 C   0  0  0  0  0  0  0  0  0  0  0  0
   -2.2010   23.9470  -28.5240 C   0  0  0  0  0  0  0  0  0  0  0  0
   -3.2840   23.9560  -29.5390 C   0  0  0  0  0  0  0  0  0  0  0  0
   -4.1690   22.9490  -29.6960 N   0  0  0  0  0  0  0  0  0  0  0  0
   -4.9370   23.3980  -30.7090 C   0  0  0  0  0  0  0  0  0  0  0  0
   -6.0770   22.6470  -31.2750 C   0  0  0  0  0  0  0  0  0  0  0  0
   -5.8560   21.5660  -32.1480 C   0  0  0  0  0  0  0  0  0  0  0  0
   -6.9380   20.8570  -32.6810 C   0  0  0  0  0  0  0  0  0  0  0  0
   -8.2460   21.2190  -32.3510 C   0  0  0  0  0  0  0  0  0  0  0  0
   -8.4760   22.2910  -31.4850 C   0  0  0  0  0  0  0  0  0  0  0  0
   -7.3980   23.0030  -30.9480 C   0  0  0  0  0  0  0  0  0  0  0  0
   -4.5440   24.6100  -31.1460 N   0  0  0  0  0  0  0  0  0  0  0  0
   -3.5040   24.9600  -30.4100 N   0  0  0  0  0  0  0  0  0  0  0  0
    0.5172   25.7409  -27.4380 H   0  0  0  0  0  0  0  0  0  0  0  0
    0.6640   24.1080  -24.6520 H   0  0  0  0  0  0  0  0  0  0  0  0
   -1.0700   22.0171  -25.9213 H   0  0  0  0  0  0  0  0  0  0  0  0
   -2.8689   22.0758  -27.6424 H   0  0  0  0  0  0  0  0  0  0  0  0
   -4.8281   21.2770  -32.4126 H   0  0  0  0  0  0  0  0  0  0  0  0
   -6.7580   20.0120  -33.3619 H   0  0  0  0  0  0  0  0  0  0  0  0
   -9.0946   20.6604  -32.7727 H   0  0  0  0  0  0  0  0  0  0  0  0
   -9.5062   22.5756  -31.2250 H   0  0  0  0  0  0  0  0  0  0  0  0
   -7.5845   23.8459  -30.2663 H   0  0  0  0  0  0  0  0  0  0  0  0
  1  2  1  0
  2  3  2  0
  3  4  1  0
  4  5  1  0
  4  6  2  0
  6  7  1  0
  7  8  2  0
  8  9  1  0
  9 10  2  0
 10 11  1  0
 11 12  1  0
 12 13  2  0
 13 14  1  0
 14 15  2  0
 15 16  1  0
 16 17  2  0
 11 18  2  0
 18 19  1  0
  8  2  1  0
 19  9  1  0
 17 12  1  0
  3 20  1  0
  5 21  1  0
  6 22  1  0
  7 23  1  0
 13 24  1  0
 14 25  1  0
 15 26  1  0
 16 27  1  0
 17 28  1  0
M  CHG  2   1  -1  19  -1
M  END
>  <UniqueID>  (44) 
43

>  <SMILES>  (44) 
[O-]c1cc(O)ccc1-c1nc(-c2ccccc2)n[n-]1

>  <Energy>  (44) 
65.13229393068865

>  <Genealogy>  (44) 
[O-]c1cc(O)ccc1-c1nc(-c2ccccc2)n[n-]1 (protonated)
[O-]c1cc(O)ccc1-c1nc(-c2ccccc2)n[n-]1 (3D coordinates assigned)
[O-]c1cc(O)ccc1-c1nc(-c2ccccc2)n[n-]1 (optimized conformer: 65.13229393068865 kcal/mol)

>  <smiles>  (44) 
Oc1ccc(-c2nc(-c3ccccc3)n[nH]2)c(O)c1

>  <score_type>  (44) 
oracle

>  <origin>  (44) 
adgpu

>  <m_score__min__energy>  (44) 
-11.48

>  <m_primary>  (44) 
energy

$$$$
45:0
     RDKit          3D

 54 57  0  0  0  0  0  0  0  0999 V2000
    0.9950   19.3800  -37.0810 C   0  0  0  0  0  0  0  0  0  0  0  0
    0.3370   19.7830  -35.7940 C   0  0  0  0  0  0  0  0  0  0  0  0
    0.1860   21.1380  -35.4670 C   0  0  0  0  0  0  0  0  0  0  0  0
   -0.4570   21.5090  -34.2830 C   0  0  0  0  0  0  0  0  0  0  0  0
   -0.9750   20.5320  -33.4110 C   0  0  0  0  0  0  0  0  0  0  0  0
   -1.6690   20.9440  -32.1680 C   0  0  0  0  0  0  0  0  0  0  0  0
   -1.5000   20.4020  -30.8980 C   0  0  0  0  0  0  0  0  0  0  0  0
   -2.3740   21.1060  -30.1000 C   0  0  0  0  0  0  0  0  0  0  0  0
   -3.0150   22.0040  -30.8670 N   0  0  0  0  0  0  0  0  0  0  0  0
   -4.2140   23.1200  -30.3150 S   0  0  0  0  0  0  0  0  0  0  0  0
   -4.1810   23.1720  -28.8140 O   0  0  0  0  0  0  0  0  0  0  0  0
   -3.9120   24.4960  -30.8440 O   0  0  0  0  0  0  0  0  0  0  0  0
   -5.8070   22.5980  -30.8880 C   0  0  0  0  0  0  0  0  0  0  0  0
   -5.9580   21.2790  -31.3460 C   0  0  0  0  0  0  0  0  0  0  0  0
   -7.1900   20.8260  -31.8290 C   0  0  0  0  0  0  0  0  0  0  0  0
   -7.3330   19.1780  -32.4400 S   0  0  0  0  0  0  0  0  0  0  0  0
   -8.7800   18.8340  -32.6630 O   0  0  0  0  0  0  0  0  0  0  0  0
   -6.7660   18.2390  -31.4110 O   0  0  0  0  0  0  0  0  0  0  0  0
   -6.4420   19.0240  -33.9380 N   0  0  0  0  0  0  0  0  0  0  0  0
   -6.1330   17.6190  -34.2310 C   0  0  0  0  0  0  0  0  0  0  0  0
   -4.7500   17.3250  -33.6710 C   0  0  0  0  0  0  0  0  0  0  0  0
   -4.1020   18.6790  -33.4490 C   0  0  0  0  0  0  0  0  0  0  0  0
   -5.1470   19.7100  -33.8550 C   0  0  0  0  0  0  0  0  0  0  0  0
   -8.2870   21.6950  -31.8540 C   0  0  0  0  0  0  0  0  0  0  0  0
   -8.1500   23.0100  -31.4060 C   0  0  0  0  0  0  0  0  0  0  0  0
   -6.9140   23.4820  -30.9350 C   0  0  0  0  0  0  0  0  0  0  0  0
   -6.8100   24.9120  -30.4700 C   0  0  0  0  0  0  0  0  0  0  0  0
   -2.6000   21.9210  -32.1190 N   0  0  0  0  0  0  0  0  0  0  0  0
   -0.8340   19.1750  -33.7550 C   0  0  0  0  0  0  0  0  0  0  0  0
   -0.1890   18.8050  -34.9380 C   0  0  0  0  0  0  0  0  0  0  0  0
    1.9143   18.8170  -36.8622 H   0  0  0  0  0  0  0  0  0  0  0  0
    0.3074   18.7479  -37.6621 H   0  0  0  0  0  0  0  0  0  0  0  0
    1.2456   20.2797  -37.6621 H   0  0  0  0  0  0  0  0  0  0  0  0
    0.5751   21.9119  -36.1449 H   0  0  0  0  0  0  0  0  0  0  0  0
   -0.5595   22.5745  -34.0297 H   0  0  0  0  0  0  0  0  0  0  0  0
   -0.8196   19.5914  -30.5980 H   0  0  0  0  0  0  0  0  0  0  0  0
   -2.5220   20.9585  -29.0200 H   0  0  0  0  0  0  0  0  0  0  0  0
   -5.0974   20.5942  -31.3246 H   0  0  0  0  0  0  0  0  0  0  0  0
   -7.0200   19.4360  -34.7080 H   0  0  0  0  0  0  0  0  0  0  0  0
   -6.8774   16.9641  -33.7545 H   0  0  0  0  0  0  0  0  0  0  0  0
   -6.1570   17.4366  -35.3155 H   0  0  0  0  0  0  0  0  0  0  0  0
   -4.8294   16.7771  -32.7205 H   0  0  0  0  0  0  0  0  0  0  0  0
   -4.1590   16.6988  -34.3555 H   0  0  0  0  0  0  0  0  0  0  0  0
   -3.8305   18.8049  -32.3905 H   0  0  0  0  0  0  0  0  0  0  0  0
   -3.1775   18.7867  -34.0353 H   0  0  0  0  0  0  0  0  0  0  0  0
   -5.1949   20.5111  -33.1027 H   0  0  0  0  0  0  0  0  0  0  0  0
   -4.8871   20.1610  -34.8241 H   0  0  0  0  0  0  0  0  0  0  0  0
   -9.2592   21.3409  -32.2275 H   0  0  0  0  0  0  0  0  0  0  0  0
   -9.0194   23.6837  -31.4221 H   0  0  0  0  0  0  0  0  0  0  0  0
   -6.8079   24.9408  -29.3704 H   0  0  0  0  0  0  0  0  0  0  0  0
   -5.8773   25.3543  -30.8501 H   0  0  0  0  0  0  0  0  0  0  0  0
   -7.6689   25.4846  -30.8501 H   0  0  0  0  0  0  0  0  0  0  0  0
   -1.2350   18.3986  -33.0868 H   0  0  0  0  0  0  0  0  0  0  0  0
   -0.0934   17.7407  -35.1991 H   0  0  0  0  0  0  0  0  0  0  0  0
  1  2  1  0
  2  3  2  0
  3  4  1  0
  4  5  2  0
  5  6  1  0
  6  7  1  0
  7  8  2  0
  8  9  1  0
  9 10  1  0
 10 11  2  0
 10 12  2  0
 10 13  1  0
 13 14  2  0
 14 15  1  0
 15 16  1  0
 16 17  2  0
 16 18  2  0
 16 19  1  0
 19 20  1  0
 20 21  1  0
 21 22  1  0
 22 23  1  0
 15 24  2  0
 24 25  1  0
 25 26  2  0
 26 27  1  0
  9 28  1  0
  5 29  1  0
 29 30  2  0
 30  2  1  0
 28  6  2  0
 26 13  1  0
 23 19  1  0
  1 31  1  0
  1 32  1  0
  1 33  1  0
  3 34  1  0
  4 35  1  0
  7 36  1  0
  8 37  1  0
 14 38  1  0
 19 39  1  0
 20 40  1  0
 20 41  1  0
 21 42  1  0
 21 43  1  0
 22 44  1  0
 22 45  1  0
 23 46  1  0
 23 47  1  0
 24 48  1  0
 25 49  1  0
 27 50  1  0
 27 51  1  0
 27 52  1  0
 29 53  1  0
 30 54  1  0
M  CHG  1  19   1
M  END
>  <UniqueID>  (45) 
44

>  <SMILES>  (45) 
Cc1ccc(-c2ccn(S(=O)(=O)c3cc(S(=O)(=O)[NH+]4CCCC4)ccc3C)n2)cc1

>  <Energy>  (45) 
90.93533793279771

>  <Genealogy>  (45) 
Cc1ccc(-c2ccn(S(=O)(=O)c3cc(S(=O)(=O)[NH+]4CCCC4)ccc3C)n2)cc1 (protonated)
Cc1ccc(-c2ccn(S(=O)(=O)c3cc(S(=O)(=O)[NH+]4CCCC4)ccc3C)n2)cc1 (3D coordinates assigned)
Cc1ccc(-c2ccn(S(=O)(=O)c3cc(S(=O)(=O)[NH+]4CCCC4)ccc3C)n2)cc1 (nonaromatic ring conformer: 90.93533793279771 kcal/mol)

>  <smiles>  (45) 
Cc1ccc(-c2ccn(S(=O)(=O)c3cc(S(=O)(=O)N4CCCC4)ccc3C)n2)cc1

>  <score_type>  (45) 
oracle

>  <origin>  (45) 
adgpu

>  <m_score__min__energy>  (45) 
-9.8800000000000008

>  <m_primary>  (45) 
energy

$$$$
46:0
     RDKit          3D

 55 58  0  0  0  0  0  0  0  0999 V2000
   -4.2480   25.6680  -31.1420 O   0  0  0  0  0  0  0  0  0  0  0  0
   -5.2430   24.8830  -30.3320 S   0  0  0  0  0  0  0  0  0  0  0  0
   -6.4630   25.7260  -30.0960 O   0  0  0  0  0  0  0  0  0  0  0  0
   -4.5280   24.4770  -28.8040 N   0  0  0  0  0  0  0  0  0  0  0  0
   -3.3640   23.6550  -28.6320 C   0  0  0  0  0  0  0  0  0  0  0  0
   -3.4540   22.3170  -28.2110 C   0  0  0  0  0  0  0  0  0  0  0  0
   -2.3030   21.5240  -28.0900 C   0  0  0  0  0  0  0  0  0  0  0  0
   -1.0330   22.0950  -28.3330 C   0  0  0  0  0  0  0  0  0  0  0  0
   -0.9500   23.4310  -28.7480 C   0  0  0  0  0  0  0  0  0  0  0  0
   -2.1050   24.2030  -28.9030 C   0  0  0  0  0  0  0  0  0  0  0  0
   -1.9930   25.5220  -29.3300 O   0  0  0  0  0  0  0  0  0  0  0  0
    0.2350   21.2760  -28.2730 C   0  0  0  0  0  0  0  0  0  0  0  0
    0.0620   19.9560  -27.5150 C   0  0  0  0  0  0  0  0  0  0  0  0
   -1.2180   19.2440  -27.9490 C   0  0  0  0  0  0  0  0  0  0  0  0
   -2.4470   20.0950  -27.6190 C   0  0  0  0  0  0  0  0  0  0  0  0
   -5.7160   23.4060  -31.1750 C   0  0  0  0  0  0  0  0  0  0  0  0
   -4.7360   22.4530  -31.4880 C   0  0  0  0  0  0  0  0  0  0  0  0
   -5.0660   21.3070  -32.2190 C   0  0  0  0  0  0  0  0  0  0  0  0
   -3.8100   20.1570  -32.6730 S   0  0  0  0  0  0  0  0  0  0  0  0
   -3.0650   20.6700  -33.8750 O   0  0  0  0  0  0  0  0  0  0  0  0
   -2.8410   20.0250  -31.5310 O   0  0  0  0  0  0  0  0  0  0  0  0
   -4.5200   18.6000  -33.0240 N   0  0  0  0  0  0  0  0  0  0  0  0
   -5.4630   18.2190  -31.9590 C   0  0  0  0  0  0  0  0  0  0  0  0
   -5.9700   16.7800  -32.1690 C   0  0  0  0  0  0  0  0  0  0  0  0
   -5.7390   16.2720  -33.5980 C   0  0  0  0  0  0  0  0  0  0  0  0
   -6.0180   17.3740  -34.6220 C   0  0  0  0  0  0  0  0  0  0  0  0
   -5.2130   18.6600  -34.3270 C   0  0  0  0  0  0  0  0  0  0  0  0
   -6.3890   21.1020  -32.6250 C   0  0  0  0  0  0  0  0  0  0  0  0
   -7.3780   22.0310  -32.2900 C   0  0  0  0  0  0  0  0  0  0  0  0
   -7.0490   23.1830  -31.5630 C   0  0  0  0  0  0  0  0  0  0  0  0
   -8.0420   24.1040  -31.2300 O   0  0  0  0  0  0  0  0  0  0  0  0
   -4.4381   21.8867  -27.9737 H   0  0  0  0  0  0  0  0  0  0  0  0
    0.0343   23.8768  -28.9539 H   0  0  0  0  0  0  0  0  0  0  0  0
    0.5550   21.0502  -29.3009 H   0  0  0  0  0  0  0  0  0  0  0  0
    0.9843   21.8706  -27.7299 H   0  0  0  0  0  0  0  0  0  0  0  0
    0.9244   19.3055  -27.7225 H   0  0  0  0  0  0  0  0  0  0  0  0
   -0.0037   20.1738  -26.4388 H   0  0  0  0  0  0  0  0  0  0  0  0
   -1.1824   19.0659  -29.0339 H   0  0  0  0  0  0  0  0  0  0  0  0
   -1.2929   18.2888  -27.4086 H   0  0  0  0  0  0  0  0  0  0  0  0
   -3.3264   19.6493  -28.1069 H   0  0  0  0  0  0  0  0  0  0  0  0
   -2.5582   20.1126  -26.5248 H   0  0  0  0  0  0  0  0  0  0  0  0
   -3.6989   22.6080  -31.1558 H   0  0  0  0  0  0  0  0  0  0  0  0
   -4.9541   18.2840  -30.9860 H   0  0  0  0  0  0  0  0  0  0  0  0
   -6.3230   18.9042  -31.9868 H   0  0  0  0  0  0  0  0  0  0  0  0
   -5.4414   16.1154  -31.4698 H   0  0  0  0  0  0  0  0  0  0  0  0
   -7.0551   16.7811  -31.9888 H   0  0  0  0  0  0  0  0  0  0  0  0
   -4.6941   15.9432  -33.6987 H   0  0  0  0  0  0  0  0  0  0  0  0
   -6.4259   15.4341  -33.7880 H   0  0  0  0  0  0  0  0  0  0  0  0
   -5.7448   17.0062  -35.6220 H   0  0  0  0  0  0  0  0  0  0  0  0
   -7.0877   17.6242  -34.5670 H   0  0  0  0  0  0  0  0  0  0  0  0
   -4.4637   18.7983  -35.1203 H   0  0  0  0  0  0  0  0  0  0  0  0
   -5.9216   19.5007  -34.2933 H   0  0  0  0  0  0  0  0  0  0  0  0
   -6.6514   20.2077  -33.2092 H   0  0  0  0  0  0  0  0  0  0  0  0
   -8.4195   21.8571  -32.5984 H   0  0  0  0  0  0  0  0  0  0  0  0
   -7.8370   24.9360  -30.6880 H   0  0  0  0  0  0  0  0  0  0  0  0
  1  2  2  0
  2  3  2  0
  2  4  1  0
  4  5  1  0
  5  6  2  0
  6  7  1  0
  7  8  2  0
  8  9  1  0
  9 10  2  0
 10 11  1  0
  8 12  1  0
 12 13  1  0
 13 14  1  0
 14 15  1  0
  2 16  1  0
 16 17  2  0
 17 18  1  0
 18 19  1  0
 19 20  2  0
 19 21  2  0
 19 22  1  0
 22 23  1  0
 23 24  1  0
 24 25  1  0
 25 26  1  0
 26 27  1  0
 18 28  2  0
 28 29  1  0
 29 30  2  0
 30 31  1  0
 10  5  1  0
 30 16  1  0
 15  7  1  0
 27 22  1  0
  6 32  1  0
  9 33  1  0
 12 34  1  0
 12 35  1  0
 13 36  1  0
 13 37  1  0
 14 38  1  0
 14 39  1  0
 15 40  1  0
 15 41  1  0
 17 42  1  0
 23 43  1  0
 23 44  1  0
 24 45  1  0
 24 46  1  0
 25 47  1  0
 25 48  1  0
 26 49  1  0
 26 50  1  0
 27 51  1  0
 27 52  1  0
 28 53  1  0
 29 54  1  0
 31 55  1  0
M  CHG  2   4  -1  11  -1
M  END
>  <UniqueID>  (46) 
45

>  <SMILES>  (46) 
O=S(=O)([N-]c1cc2c(cc1[O-])CCCC2)c1cc(S(=O)(=O)N2CCCCC2)ccc1O

>  <Energy>  (46) 
58.52512159517965

>  <Genealogy>  (46) 
O=S(=O)([N-]c1cc2c(cc1[O-])CCCC2)c1cc(S(=O)(=O)N2CCCCC2)ccc1O (protonated)
O=S(=O)([N-]c1cc2c(cc1[O-])CCCC2)c1cc(S(=O)(=O)N2CCCCC2)ccc1O (3D coordinates assigned)
O=S(=O)([N-]c1cc2c(cc1[O-])CCCC2)c1cc(S(=O)(=O)N2CCCCC2)ccc1O (nonaromatic ring conformer: 58.52512159517965 kcal/mol)

>  <smiles>  (46) 
O=S(=O)(Nc1cc2c(cc1O)CCCC2)c1cc(S(=O)(=O)N2CCCCC2)ccc1O

>  <score_type>  (46) 
oracle

>  <origin>  (46) 
adgpu

>  <m_score__min__energy>  (46) 
-14.08

>  <m_primary>  (46) 
energy

$$$$
47:0
     RDKit          3D

 44 46  0  0  0  0  0  0  0  0999 V2000
   -5.7010   19.1280  -34.1820 C   0  0  0  0  0  0  0  0  0  0  0  0
   -5.4700   20.3600  -33.3630 C   0  0  0  0  0  0  0  0  0  0  0  0
   -4.4050   21.0120  -33.5360 O   0  0  0  0  0  0  0  0  0  0  0  0
   -6.4690   20.8390  -32.4380 N   0  0  0  0  0  0  0  0  0  0  0  0
   -7.7860   20.1720  -32.4520 C   0  0  0  0  0  0  0  0  0  0  0  0
   -8.7650   20.7810  -31.4400 C   0  0  0  0  0  0  0  0  0  0  0  0
   -8.7830   22.3030  -31.5630 C   0  0  0  0  0  0  0  0  0  0  0  0
   -7.4020   22.8440  -31.3280 C   0  0  0  0  0  0  0  0  0  0  0  0
   -7.2270   24.1000  -30.7320 C   0  0  0  0  0  0  0  0  0  0  0  0
   -5.9450   24.5990  -30.4850 C   0  0  0  0  0  0  0  0  0  0  0  0
   -5.8180   25.8600  -29.8980 O   0  0  0  0  0  0  0  0  0  0  0  0
   -4.8150   23.8310  -30.8230 C   0  0  0  0  0  0  0  0  0  0  0  0
   -3.5060   24.3490  -30.5380 N   0  0  0  0  0  0  0  0  0  0  0  0
   -2.7570   24.3900  -28.9730 S   0  0  0  0  0  0  0  0  0  0  0  0
   -1.5790   25.3200  -29.0150 O   0  0  0  0  0  0  0  0  0  0  0  0
   -3.7490   24.9100  -27.9670 O   0  0  0  0  0  0  0  0  0  0  0  0
   -2.1930   22.7800  -28.5290 C   0  0  0  0  0  0  0  0  0  0  0  0
   -3.0730   21.8880  -27.9010 C   0  0  0  0  0  0  0  0  0  0  0  0
   -2.6360   20.6070  -27.5410 C   0  0  0  0  0  0  0  0  0  0  0  0
   -1.3140   20.2120  -27.7990 C   0  0  0  0  0  0  0  0  0  0  0  0
   -0.8490   18.8250  -27.4650 C   0  0  0  0  0  0  0  0  0  0  0  0
   -0.4390   21.1060  -28.4350 C   0  0  0  0  0  0  0  0  0  0  0  0
   -0.8730   22.3850  -28.7930 C   0  0  0  0  0  0  0  0  0  0  0  0
   -4.9940   22.5750  -31.4350 C   0  0  0  0  0  0  0  0  0  0  0  0
   -6.2820   22.0970  -31.7410 C   0  0  0  0  0  0  0  0  0  0  0  0
   -5.8621   18.2688  -33.5144 H   0  0  0  0  0  0  0  0  0  0  0  0
   -6.5881   19.2706  -34.8167 H   0  0  0  0  0  0  0  0  0  0  0  0
   -4.8225   18.9396  -34.8167 H   0  0  0  0  0  0  0  0  0  0  0  0
   -8.2174   20.2647  -33.4596 H   0  0  0  0  0  0  0  0  0  0  0  0
   -7.6300   19.1193  -32.1735 H   0  0  0  0  0  0  0  0  0  0  0  0
   -9.7750   20.3902  -31.6330 H   0  0  0  0  0  0  0  0  0  0  0  0
   -8.4414   20.5099  -30.4243 H   0  0  0  0  0  0  0  0  0  0  0  0
   -9.1198   22.5848  -32.5716 H   0  0  0  0  0  0  0  0  0  0  0  0
   -9.4716   22.7218  -30.8143 H   0  0  0  0  0  0  0  0  0  0  0  0
   -8.1072   24.6992  -30.4558 H   0  0  0  0  0  0  0  0  0  0  0  0
   -5.1550   26.0500  -29.1550 H   0  0  0  0  0  0  0  0  0  0  0  0
   -4.1083   22.1945  -27.6906 H   0  0  0  0  0  0  0  0  0  0  0  0
   -3.3316   19.9076  -27.0541 H   0  0  0  0  0  0  0  0  0  0  0  0
   -0.8088   18.7049  -26.3723 H   0  0  0  0  0  0  0  0  0  0  0  0
   -1.5502   18.0911  -27.8889 H   0  0  0  0  0  0  0  0  0  0  0  0
    0.1529   18.6621  -27.8889 H   0  0  0  0  0  0  0  0  0  0  0  0
    0.5943   20.7981  -28.6529 H   0  0  0  0  0  0  0  0  0  0  0  0
   -0.1784   23.0834  -29.2827 H   0  0  0  0  0  0  0  0  0  0  0  0
   -4.1152   21.9593  -31.6771 H   0  0  0  0  0  0  0  0  0  0  0  0
  1  2  1  0
  2  3  2  0
  2  4  1  0
  4  5  1  0
  5  6  1  0
  6  7  1  0
  7  8  1  0
  8  9  2  0
  9 10  1  0
 10 11  1  0
 10 12  2  0
 12 13  1  0
 13 14  1  0
 14 15  2  0
 14 16  2  0
 14 17  1  0
 17 18  2  0
 18 19  1  0
 19 20  2  0
 20 21  1  0
 20 22  1  0
 22 23  2  0
 12 24  1  0
 24 25  2  0
 25  4  1  0
 25  8  1  0
 23 17  1  0
  1 26  1  0
  1 27  1  0
  1 28  1  0
  5 29  1  0
  5 30  1  0
  6 31  1  0
  6 32  1  0
  7 33  1  0
  7 34  1  0
  9 35  1  0
 11 36  1  0
 18 37  1  0
 19 38  1  0
 21 39  1  0
 21 40  1  0
 21 41  1  0
 22 42  1  0
 23 43  1  0
 24 44  1  0
M  CHG  1  13  -1
M  END
>  <UniqueID>  (47) 
46

>  <SMILES>  (47) 
CC(=O)N1CCCc2cc(O)c([N-]S(=O)(=O)c3ccc(C)cc3)cc21

>  <Energy>  (47) 
51.94490125841802

>  <Genealogy>  (47) 
CC(=O)N1CCCc2cc(O)c([N-]S(=O)(=O)c3ccc(C)cc3)cc21 (protonated)
CC(=O)N1CCCc2cc(O)c([N-]S(=O)(=O)c3ccc(C)cc3)cc21 (3D coordinates assigned)
CC(=O)N1CCCc2cc(O)c([N-]S(=O)(=O)c3ccc(C)cc3)cc21 (nonaromatic ring conformer: 51.94490125841802 kcal/mol)

>  <smiles>  (47) 
CC(=O)N1CCCc2cc(O)c(NS(=O)(=O)c3ccc(C)cc3)cc21

>  <score_type>  (47) 
oracle

>  <origin>  (47) 
adgpu

>  <m_score__min__energy>  (47) 
-10.460000000000001

>  <m_primary>  (47) 
energy

$$$$
48:0
     RDKit          3D

 35 37  0  0  0  0  0  0  0  0999 V2000
   -8.8500   19.0100  -32.0690 C   0  0  0  0  0  0  0  0  0  0  0  0
   -8.2230   20.1220  -32.7010 O   0  0  0  0  0  0  0  0  0  0  0  0
   -6.8360   20.2620  -32.8610 C   0  0  0  0  0  0  0  0  0  0  0  0
   -6.1130   19.1820  -33.3770 C   0  0  0  0  0  0  0  0  0  0  0  0
   -4.7290   19.2730  -33.5590 C   0  0  0  0  0  0  0  0  0  0  0  0
   -4.0480   20.4570  -33.2380 C   0  0  0  0  0  0  0  0  0  0  0  0
   -2.5830   20.5320  -33.4190 C   0  0  0  0  0  0  0  0  0  0  0  0
   -1.9750   20.2460  -34.5870 N   0  0  0  0  0  0  0  0  0  0  0  0
   -0.6640   20.3310  -34.4160 N   0  0  0  0  0  0  0  0  0  0  0  0
   -0.4180   20.6690  -33.1370 C   0  0  0  0  0  0  0  0  0  0  0  0
   -1.6150   20.8180  -32.4650 C   0  0  0  0  0  0  0  0  0  0  0  0
   -1.7760   21.2910  -31.0730 C   0  0  0  0  0  0  0  0  0  0  0  0
   -1.5570   20.4300  -29.9850 C   0  0  0  0  0  0  0  0  0  0  0  0
   -1.7210   20.8810  -28.7140 N   0  0  0  0  0  0  0  0  0  0  0  0
   -2.1080   22.1560  -28.4480 C   0  0  0  0  0  0  0  0  0  0  0  0
   -2.3630   23.0440  -29.4990 C   0  0  0  0  0  0  0  0  0  0  0  0
   -2.8580   24.7020  -29.1710 S   0  0  0  0  0  0  0  0  0  0  0  0
   -3.8200   25.2870  -30.4820 N   0  0  0  0  0  0  0  0  0  0  0  0
   -3.6550   24.7510  -27.8990 O   0  0  0  0  0  0  0  0  0  0  0  0
   -1.6450   25.5750  -29.0140 O   0  0  0  0  0  0  0  0  0  0  0  0
   -2.1950   22.6040  -30.8160 C   0  0  0  0  0  0  0  0  0  0  0  0
   -4.7690   21.5350  -32.6980 C   0  0  0  0  0  0  0  0  0  0  0  0
   -6.1510   21.4440  -32.5170 C   0  0  0  0  0  0  0  0  0  0  0  0
   -8.7854   19.1246  -30.9769 H   0  0  0  0  0  0  0  0  0  0  0  0
   -9.9067   18.9645  -32.3710 H   0  0  0  0  0  0  0  0  0  0  0  0
   -8.3420   18.0822  -32.3710 H   0  0  0  0  0  0  0  0  0  0  0  0
   -6.6375   18.2522  -33.6423 H   0  0  0  0  0  0  0  0  0  0  0  0
   -4.1716   18.4117  -33.9559 H   0  0  0  0  0  0  0  0  0  0  0  0
    0.5804   20.8053  -32.6958 H   0  0  0  0  0  0  0  0  0  0  0  0
   -1.2520   19.3881  -30.1625 H   0  0  0  0  0  0  0  0  0  0  0  0
   -2.2209   22.4903  -27.4061 H   0  0  0  0  0  0  0  0  0  0  0  0
   -3.1590   25.6210  -31.2180 H   0  0  0  0  0  0  0  0  0  0  0  0
   -2.3922   23.2903  -31.6527 H   0  0  0  0  0  0  0  0  0  0  0  0
   -4.2411   22.4578  -32.4156 H   0  0  0  0  0  0  0  0  0  0  0  0
   -6.7068   22.2988  -32.1042 H   0  0  0  0  0  0  0  0  0  0  0  0
  1  2  1  0
  2  3  1  0
  3  4  2  0
  4  5  1  0
  5  6  2  0
  6  7  1  0
  7  8  1  0
  8  9  1  0
  9 10  2  0
 10 11  1  0
 11 12  1  0
 12 13  2  0
 13 14  1  0
 14 15  2  0
 15 16  1  0
 16 17  1  0
 17 18  1  0
 17 19  2  0
 17 20  2  0
 16 21  2  0
  6 22  1  0
 22 23  2  0
 23  3  1  0
 11  7  2  0
 21 12  1  0
  1 24  1  0
  1 25  1  0
  1 26  1  0
  4 27  1  0
  5 28  1  0
 10 29  1  0
 13 30  1  0
 15 31  1  0
 18 32  1  0
 21 33  1  0
 22 34  1  0
 23 35  1  0
M  CHG  2   8  -1  18  -1
M  END
>  <UniqueID>  (48) 
47

>  <SMILES>  (48) 
COc1ccc(-c2[n-]ncc2-c2cncc(S([NH-])(=O)=O)c2)cc1

>  <Energy>  (48) 
75.1256730143273

>  <Genealogy>  (48) 
COc1ccc(-c2[n-]ncc2-c2cncc(S([NH-])(=O)=O)c2)cc1 (protonated)
COc1ccc(-c2[n-]ncc2-c2cncc(S([NH-])(=O)=O)c2)cc1 (3D coordinates assigned)
COc1ccc(-c2[n-]ncc2-c2cncc(S([NH-])(=O)=O)c2)cc1 (optimized conformer: 75.1256730143273 kcal/mol)

>  <smiles>  (48) 
COc1ccc(-c2[nH]ncc2-c2cncc(S(N)(=O)=O)c2)cc1

>  <score_type>  (48) 
oracle

>  <origin>  (48) 
adgpu

>  <m_score__min__energy>  (48) 
-10.029999999999999

>  <m_primary>  (48) 
energy

$$$$
