0:0
     RDKit          3D

 21 22  0  0  0  0  0  0  0  0999 V2000
   -0.0530   24.5020  -28.2400 O   0  0  0  0  0  0  0  0  0  0  0  0
   -1.1240   24.1010  -28.7660 C   0  0  0  0  0  0  0  0  0  0  0  0
   -1.4480   22.7840  -28.7230 N   0  0  0  0  0  0  0  0  0  0  0  0
   -2.5980   22.3290  -29.2810 C   0  0  0  0  0  0  0  0  0  0  0  0
   -3.4800   23.2210  -29.9100 C   0  0  0  0  0  0  0  0  0  0  0  0
   -4.7440   22.7280  -30.5110 C   0  0  0  0  0  0  0  0  0  0  0  0
   -4.7210   21.8550  -31.6140 C   0  0  0  0  0  0  0  0  0  0  0  0
   -5.9160   21.4030  -32.1820 C   0  0  0  0  0  0  0  0  0  0  0  0
   -7.1430   21.8200  -31.6590 C   0  0  0  0  0  0  0  0  0  0  0  0
   -8.3010   21.3800  -32.2110 F   0  0  0  0  0  0  0  0  0  0  0  0
   -7.1760   22.6920  -30.5680 C   0  0  0  0  0  0  0  0  0  0  0  0
   -5.9840   23.1480  -29.9970 C   0  0  0  0  0  0  0  0  0  0  0  0
   -3.1170   24.5800  -29.9510 C   0  0  0  0  0  0  0  0  0  0  0  0
   -3.9250   25.5140  -30.5930 O   0  0  0  0  0  0  0  0  0  0  0  0
   -1.9530   24.9860  -29.3760 N   0  0  0  0  0  0  0  0  0  0  0  0
   -2.8399   21.2567  -29.2402 H   0  0  0  0  0  0  0  0  0  0  0  0
   -3.7579   21.5263  -32.0317 H   0  0  0  0  0  0  0  0  0  0  0  0
   -5.8903   20.7179  -33.0422 H   0  0  0  0  0  0  0  0  0  0  0  0
   -8.1421   23.0206  -30.1572 H   0  0  0  0  0  0  0  0  0  0  0  0
   -6.0161   23.8387  -29.1415 H   0  0  0  0  0  0  0  0  0  0  0  0
   -3.8670   25.6520  -31.5950 H   0  0  0  0  0  0  0  0  0  0  0  0
  1  2  2  0
  2  3  1  0
  3  4  2  0
  4  5  1  0
  5  6  1  0
  6  7  2  0
  7  8  1  0
  8  9  2  0
  9 10  1  0
  9 11  1  0
 11 12  2  0
  5 13  2  0
 13 14  1  0
 13 15  1  0
 15  2  1  0
 12  6  1  0
  4 16  1  0
  7 17  1  0
  8 18  1  0
 11 19  1  0
 12 20  1  0
 14 21  1  0
M  CHG  1  15  -1
M  END
>  <UniqueID>  (1) 
1

>  <SMILES>  (1) 
O=c1ncc(-c2ccc(F)cc2)c(O)[n-]1

>  <Energy>  (1) 
28.903899221763815

>  <Genealogy>  (1) 
O=c1ncc(-c2ccc(F)cc2)c(O)[n-]1 (protonated)
O=c1ncc(-c2ccc(F)cc2)c(O)[n-]1 (3D coordinates assigned)
O=c1ncc(-c2ccc(F)cc2)c(O)[n-]1 (optimized conformer: 28.903899221763815 kcal/mol)

>  <smiles>  (1) 
O=c1ncc(-c2ccc(F)cc2)c(O)[nH]1

>  <score_type>  (1) 
oracle

>  <origin>  (1) 
adgpu

>  <m_score__min__energy>  (1) 
-7.4800000000000004

>  <m_primary>  (1) 
energy

$$$$
1:0
     RDKit          3D

 43 45  0  0  0  0  0  0  0  0999 V2000
   -2.6660   19.6750  -27.0810 C   0  0  0  0  0  0  0  0  0  0  0  0
   -2.0340   20.6100  -28.0710 C   0  0  0  0  0  0  0  0  0  0  0  0
   -2.4680   21.9430  -28.1490 C   0  0  0  0  0  0  0  0  0  0  0  0
   -1.8550   22.8390  -29.0350 C   0  0  0  0  0  0  0  0  0  0  0  0
   -2.3870   24.5170  -29.1130 S   0  0  0  0  0  0  0  0  0  0  0  0
   -3.0630   24.9150  -27.8300 O   0  0  0  0  0  0  0  0  0  0  0  0
   -1.1870   25.3960  -29.3290 O   0  0  0  0  0  0  0  0  0  0  0  0
   -3.4920   24.7400  -30.4280 N   0  0  0  0  0  0  0  0  0  0  0  0
   -4.5340   23.8200  -30.7770 C   0  0  0  0  0  0  0  0  0  0  0  0
   -5.8940   24.0510  -30.6580 C   0  0  0  0  0  0  0  0  0  0  0  0
   -6.5370   25.2990  -30.1350 C   0  0  0  0  0  0  0  0  0  0  0  0
   -6.5600   22.9790  -31.1540 N   0  0  0  0  0  0  0  0  0  0  0  0
   -8.0160   22.8400  -31.2370 C   0  0  0  0  0  0  0  0  0  0  0  0
   -5.6720   22.0860  -31.5880 N   0  0  0  0  0  0  0  0  0  0  0  0
   -5.9740   20.8470  -32.2500 C   0  0  0  0  0  0  0  0  0  0  0  0
   -6.8880   19.9480  -31.6770 C   0  0  0  0  0  0  0  0  0  0  0  0
   -7.1720   18.7360  -32.3140 C   0  0  0  0  0  0  0  0  0  0  0  0
   -6.5370   18.4100  -33.5170 C   0  0  0  0  0  0  0  0  0  0  0  0
   -5.6160   19.2950  -34.0840 C   0  0  0  0  0  0  0  0  0  0  0  0
   -5.3340   20.5110  -33.4540 C   0  0  0  0  0  0  0  0  0  0  0  0
   -4.4340   22.5720  -31.3620 C   0  0  0  0  0  0  0  0  0  0  0  0
   -3.3700   21.9720  -31.6700 O   0  0  0  0  0  0  0  0  0  0  0  0
   -0.8070   22.3990  -29.8510 C   0  0  0  0  0  0  0  0  0  0  0  0
   -0.3610   21.0760  -29.7710 C   0  0  0  0  0  0  0  0  0  0  0  0
   -0.9630   20.1850  -28.8750 C   0  0  0  0  0  0  0  0  0  0  0  0
   -0.4990   18.9110  -28.7970 F   0  0  0  0  0  0  0  0  0  0  0  0
   -2.4374   20.0132  -26.0596 H   0  0  0  0  0  0  0  0  0  0  0  0
   -3.7560   19.6663  -27.2290 H   0  0  0  0  0  0  0  0  0  0  0  0
   -2.2678   18.6604  -27.2290 H   0  0  0  0  0  0  0  0  0  0  0  0
   -3.2950   22.2864  -27.5101 H   0  0  0  0  0  0  0  0  0  0  0  0
   -6.5286   25.2826  -29.0352 H   0  0  0  0  0  0  0  0  0  0  0  0
   -5.9789   26.1767  -30.4929 H   0  0  0  0  0  0  0  0  0  0  0  0
   -7.5757   25.3540  -30.4929 H   0  0  0  0  0  0  0  0  0  0  0  0
   -8.4389   22.7996  -30.2223 H   0  0  0  0  0  0  0  0  0  0  0  0
   -8.4365   23.7021  -31.7755 H   0  0  0  0  0  0  0  0  0  0  0  0
   -8.2658   21.9139  -31.7755 H   0  0  0  0  0  0  0  0  0  0  0  0
   -7.3812   20.1975  -30.7259 H   0  0  0  0  0  0  0  0  0  0  0  0
   -7.8959   18.0379  -31.8684 H   0  0  0  0  0  0  0  0  0  0  0  0
   -6.7627   17.4565  -34.0170 H   0  0  0  0  0  0  0  0  0  0  0  0
   -5.1125   19.0348  -35.0267 H   0  0  0  0  0  0  0  0  0  0  0  0
   -4.6091   21.2062  -33.9026 H   0  0  0  0  0  0  0  0  0  0  0  0
   -0.3325   23.0958  -30.5576 H   0  0  0  0  0  0  0  0  0  0  0  0
    0.4643   20.7350  -30.4133 H   0  0  0  0  0  0  0  0  0  0  0  0
  1  2  1  0
  2  3  2  0
  3  4  1  0
  4  5  1  0
  5  6  2  0
  5  7  2  0
  5  8  1  0
  8  9  1  0
  9 10  2  0
 10 11  1  0
 10 12  1  0
 12 13  1  0
 12 14  1  0
 14 15  1  0
 15 16  2  0
 16 17  1  0
 17 18  2  0
 18 19  1  0
 19 20  2  0
 14 21  1  0
 21 22  2  0
  4 23  2  0
 23 24  1  0
 24 25  2  0
 25 26  1  0
 25  2  1  0
 21  9  1  0
 20 15  1  0
  1 27  1  0
  1 28  1  0
  1 29  1  0
  3 30  1  0
 11 31  1  0
 11 32  1  0
 11 33  1  0
 13 34  1  0
 13 35  1  0
 13 36  1  0
 16 37  1  0
 17 38  1  0
 18 39  1  0
 19 40  1  0
 20 41  1  0
 23 42  1  0
 24 43  1  0
M  CHG  1   8  -1
M  END
>  <UniqueID>  (2) 
2

>  <SMILES>  (2) 
Cc1cc(S(=O)(=O)[N-]c2c(C)n(C)n(-c3ccccc3)c2=O)ccc1F

>  <Energy>  (2) 
88.38939241098934

>  <Genealogy>  (2) 
Cc1cc(S(=O)(=O)[N-]c2c(C)n(C)n(-c3ccccc3)c2=O)ccc1F (protonated)
Cc1cc(S(=O)(=O)[N-]c2c(C)n(C)n(-c3ccccc3)c2=O)ccc1F (3D coordinates assigned)
Cc1cc(S(=O)(=O)[N-]c2c(C)n(C)n(-c3ccccc3)c2=O)ccc1F (optimized conformer: 88.38939241098934 kcal/mol)

>  <smiles>  (2) 
Cc1cc(S(=O)(=O)Nc2c(C)n(C)n(-c3ccccc3)c2=O)ccc1F

>  <score_type>  (2) 
oracle

>  <origin>  (2) 
adgpu

>  <m_score__min__energy>  (2) 
-10.130000000000001

>  <m_primary>  (2) 
energy

$$$$
2:0
     RDKit          3D

 32 34  0  0  0  0  0  0  0  0999 V2000
   -9.3890   19.8950  -32.6630 C   0  0  0  0  0  0  0  0  0  0  0  0
   -8.3190   20.7910  -32.1140 C   0  0  0  0  0  0  0  0  0  0  0  0
   -8.6490   22.0520  -31.5970 C   0  0  0  0  0  0  0  0  0  0  0  0
   -7.6500   22.9040  -31.1190 C   0  0  0  0  0  0  0  0  0  0  0  0
   -6.2980   22.5150  -31.1600 C   0  0  0  0  0  0  0  0  0  0  0  0
   -5.2490   23.4320  -30.6480 C   0  0  0  0  0  0  0  0  0  0  0  0
   -4.4860   23.2720  -29.5010 C   0  0  0  0  0  0  0  0  0  0  0  0
   -3.6690   24.3890  -29.4700 C   0  0  0  0  0  0  0  0  0  0  0  0
   -2.6520   24.7110  -28.4370 C   0  0  0  0  0  0  0  0  0  0  0  0
   -1.3250   25.0050  -28.8030 C   0  0  0  0  0  0  0  0  0  0  0  0
   -0.3700   25.3090  -27.8270 C   0  0  0  0  0  0  0  0  0  0  0  0
   -0.7270   25.3220  -26.4780 C   0  0  0  0  0  0  0  0  0  0  0  0
   -2.0390   25.0340  -26.1010 C   0  0  0  0  0  0  0  0  0  0  0  0
   -2.9990   24.7300  -27.0720 C   0  0  0  0  0  0  0  0  0  0  0  0
   -3.9450   25.1530  -30.5460 N   0  0  0  0  0  0  0  0  0  0  0  0
   -4.8970   24.5810  -31.2620 N   0  0  0  0  0  0  0  0  0  0  0  0
   -5.9700   21.2560  -31.6980 C   0  0  0  0  0  0  0  0  0  0  0  0
   -6.9720   20.4060  -32.1760 C   0  0  0  0  0  0  0  0  0  0  0  0
   -9.9417   19.4322  -31.8321 H   0  0  0  0  0  0  0  0  0  0  0  0
  -10.0817   20.4864  -33.2798 H   0  0  0  0  0  0  0  0  0  0  0  0
   -8.9284   19.1092  -33.2798 H   0  0  0  0  0  0  0  0  0  0  0  0
   -9.7009   22.3725  -31.5676 H   0  0  0  0  0  0  0  0  0  0  0  0
   -7.9225   23.8870  -30.7072 H   0  0  0  0  0  0  0  0  0  0  0  0
   -4.5220   22.4436  -28.7782 H   0  0  0  0  0  0  0  0  0  0  0  0
   -1.0367   24.9956  -29.8645 H   0  0  0  0  0  0  0  0  0  0  0  0
    0.6642   25.5382  -28.1234 H   0  0  0  0  0  0  0  0  0  0  0  0
    0.0259   25.5593  -25.7120 H   0  0  0  0  0  0  0  0  0  0  0  0
   -2.3193   25.0460  -25.0374 H   0  0  0  0  0  0  0  0  0  0  0  0
   -4.0317   24.5043  -26.7676 H   0  0  0  0  0  0  0  0  0  0  0  0
   -3.4850   26.0490  -30.8150 H   0  0  0  0  0  0  0  0  0  0  0  0
   -4.9177   20.9387  -31.7426 H   0  0  0  0  0  0  0  0  0  0  0  0
   -6.7020   19.4291  -32.6034 H   0  0  0  0  0  0  0  0  0  0  0  0
  1  2  1  0
  2  3  2  0
  3  4  1  0
  4  5  2  0
  5  6  1  0
  6  7  1  0
  7  8  2  0
  8  9  1  0
  9 10  2  0
 10 11  1  0
 11 12  2  0
 12 13  1  0
 13 14  2  0
  8 15  1  0
 15 16  1  0
  5 17  1  0
 17 18  2  0
 18  2  1  0
 16  6  2  0
 14  9  1  0
  1 19  1  0
  1 20  1  0
  1 21  1  0
  3 22  1  0
  4 23  1  0
  7 24  1  0
 10 25  1  0
 11 26  1  0
 12 27  1  0
 13 28  1  0
 14 29  1  0
 15 30  1  0
 17 31  1  0
 18 32  1  0
M  END
>  <UniqueID>  (3) 
3

>  <SMILES>  (3) 
Cc1ccc(-c2cc(-c3ccccc3)[nH]n2)cc1

>  <Energy>  (3) 
67.37303451945218

>  <Genealogy>  (3) 
Cc1ccc(-c2cc(-c3ccccc3)[nH]n2)cc1 (3D coordinates assigned)
Cc1ccc(-c2cc(-c3ccccc3)[nH]n2)cc1 (optimized conformer: 67.37303451945218 kcal/mol)

>  <smiles>  (3) 
Cc1ccc(-c2cc(-c3ccccc3)[nH]n2)cc1

>  <score_type>  (3) 
oracle

>  <origin>  (3) 
adgpu

>  <m_score__min__energy>  (3) 
-8.3800000000000008

>  <m_primary>  (3) 
energy

$$$$
3:0
     RDKit          3D

 27 28  0  0  0  0  0  0  0  0999 V2000
   -2.3430   24.6120  -28.6750 C   0  0  0  0  0  0  0  0  0  0  0  0
   -3.1430   25.1670  -29.7150 O   0  0  0  0  0  0  0  0  0  0  0  0
   -4.2630   24.5370  -30.2750 C   0  0  0  0  0  0  0  0  0  0  0  0
   -5.5740   25.0140  -30.0810 C   0  0  0  0  0  0  0  0  0  0  0  0
   -6.6600   24.3490  -30.6580 C   0  0  0  0  0  0  0  0  0  0  0  0
   -6.4560   23.1890  -31.4250 C   0  0  0  0  0  0  0  0  0  0  0  0
   -7.5540   22.5040  -32.0510 N   0  0  0  0  0  0  0  0  0  0  0  0
   -7.5710   21.0940  -32.3320 C   0  0  0  0  0  0  0  0  0  0  0  0
   -8.5660   20.2900  -31.7680 C   0  0  0  0  0  0  0  0  0  0  0  0
   -8.5750   18.9280  -32.0650 C   0  0  0  0  0  0  0  0  0  0  0  0
   -9.4500   18.1760  -31.5620 O   0  0  0  0  0  0  0  0  0  0  0  0
   -7.6390   18.4110  -32.9000 N   0  0  0  0  0  0  0  0  0  0  0  0
   -6.6880   19.2030  -33.4610 C   0  0  0  0  0  0  0  0  0  0  0  0
   -5.5870   18.5430  -34.4750 S   0  0  0  0  0  0  0  0  0  0  0  0
   -6.6610   20.5370  -33.1850 N   0  0  0  0  0  0  0  0  0  0  0  0
   -5.1490   22.7290  -31.6340 C   0  0  0  0  0  0  0  0  0  0  0  0
   -4.0630   23.3940  -31.0570 C   0  0  0  0  0  0  0  0  0  0  0  0
   -2.7591   24.9007  -27.6985 H   0  0  0  0  0  0  0  0  0  0  0  0
   -2.3380   23.5154  -28.7617 H   0  0  0  0  0  0  0  0  0  0  0  0
   -1.3141   24.9913  -28.7617 H   0  0  0  0  0  0  0  0  0  0  0  0
   -5.7442   25.9143  -29.4724 H   0  0  0  0  0  0  0  0  0  0  0  0
   -7.6793   24.7356  -30.5110 H   0  0  0  0  0  0  0  0  0  0  0  0
   -8.3970   23.0640  -32.3130 H   0  0  0  0  0  0  0  0  0  0  0  0
   -9.3271   20.7238  -31.1027 H   0  0  0  0  0  0  0  0  0  0  0  0
   -5.9470   21.1410  -33.6520 H   0  0  0  0  0  0  0  0  0  0  0  0
   -4.9763   21.8386  -32.2563 H   0  0  0  0  0  0  0  0  0  0  0  0
   -3.0429   23.0156  -31.2191 H   0  0  0  0  0  0  0  0  0  0  0  0
  1  2  1  0
  2  3  1  0
  3  4  2  0
  4  5  1  0
  5  6  2  0
  6  7  1  0
  7  8  1  0
  8  9  2  0
  9 10  1  0
 10 11  2  0
 10 12  1  0
 12 13  1  0
 13 14  2  0
 13 15  1  0
  6 16  1  0
 16 17  2  0
 17  3  1  0
 15  8  1  0
  1 18  1  0
  1 19  1  0
  1 20  1  0
  4 21  1  0
  5 22  1  0
  7 23  1  0
  9 24  1  0
 15 25  1  0
 16 26  1  0
 17 27  1  0
M  CHG  1  12  -1
M  END
>  <UniqueID>  (4) 
4

>  <SMILES>  (4) 
COc1ccc(Nc2cc(=O)[n-]c(=S)[nH]2)cc1

>  <Energy>  (4) 
32.480098625830344

>  <Genealogy>  (4) 
COc1ccc(Nc2cc(=O)[n-]c(=S)[nH]2)cc1 (protonated)
COc1ccc(Nc2cc(=O)[n-]c(=S)[nH]2)cc1 (3D coordinates assigned)
COc1ccc(Nc2cc(=O)[n-]c(=S)[nH]2)cc1 (optimized conformer: 32.480098625830344 kcal/mol)

>  <smiles>  (4) 
COc1ccc(Nc2cc(=O)[nH]c(=S)[nH]2)cc1

>  <score_type>  (4) 
oracle

>  <origin>  (4) 
adgpu

>  <m_score__min__energy>  (4) 
-7.0300000000000002

>  <m_primary>  (4) 
energy

$$$$
4:0
     RDKit          3D

 46 48  0  0  0  0  0  0  0  0999 V2000
   -0.2570   20.3790  -30.1600 C   0  0  0  0  0  0  0  0  0  0  0  0
   -0.7580   21.2400  -31.1760 O   0  0  0  0  0  0  0  0  0  0  0  0
   -1.9260   22.0110  -31.0630 C   0  0  0  0  0  0  0  0  0  0  0  0
   -3.0580   21.7760  -31.8620 C   0  0  0  0  0  0  0  0  0  0  0  0
   -4.2140   22.5570  -31.7180 C   0  0  0  0  0  0  0  0  0  0  0  0
   -4.2660   23.5590  -30.7210 C   0  0  0  0  0  0  0  0  0  0  0  0
   -3.1080   23.8220  -29.9650 C   0  0  0  0  0  0  0  0  0  0  0  0
   -1.9460   23.0580  -30.1330 C   0  0  0  0  0  0  0  0  0  0  0  0
   -0.8030   23.3060  -29.3680 O   0  0  0  0  0  0  0  0  0  0  0  0
   -0.6860   24.6200  -28.2770 S   0  0  0  0  0  0  0  0  0  0  0  0
   -1.3450   26.0660  -28.9640 N   0  0  0  0  0  0  0  0  0  0  0  0
   -1.4520   24.2840  -27.0300 O   0  0  0  0  0  0  0  0  0  0  0  0
    0.7590   24.8400  -27.9210 O   0  0  0  0  0  0  0  0  0  0  0  0
   -5.5220   24.4180  -30.5800 C   0  0  2  0  0  0  0  0  0  0  0  0
   -5.7420   24.9850  -29.1630 C   0  0  0  0  0  0  0  0  0  0  0  0
   -6.7350   23.7120  -31.0720 N   0  0  0  0  0  0  0  0  0  0  0  0
   -7.1850   22.5850  -30.2130 C   0  0  0  0  0  0  0  0  0  0  0  0
   -7.9440   21.5610  -31.0170 C   0  0  0  0  0  0  0  0  0  0  0  0
   -9.2100   21.8670  -31.5470 C   0  0  0  0  0  0  0  0  0  0  0  0
   -9.8980   20.9240  -32.3160 C   0  0  0  0  0  0  0  0  0  0  0  0
   -9.3230   19.6770  -32.5770 C   0  0  0  0  0  0  0  0  0  0  0  0
   -8.0580   19.3710  -32.0690 C   0  0  0  0  0  0  0  0  0  0  0  0
   -7.3670   20.3100  -31.2960 C   0  0  0  0  0  0  0  0  0  0  0  0
   -6.5280   23.2840  -32.4690 C   0  0  0  0  0  0  0  0  0  0  0  0
   -5.4050   22.2400  -32.5890 C   0  0  0  0  0  0  0  0  0  0  0  0
   -0.5003   20.7972  -29.1721 H   0  0  0  0  0  0  0  0  0  0  0  0
   -0.7180   19.3854  -30.2612 H   0  0  0  0  0  0  0  0  0  0  0  0
    0.8346   20.2888  -30.2612 H   0  0  0  0  0  0  0  0  0  0  0  0
   -3.0371   20.9694  -32.6097 H   0  0  0  0  0  0  0  0  0  0  0  0
   -3.1158   24.6407  -29.2304 H   0  0  0  0  0  0  0  0  0  0  0  0
   -1.2380   25.9840  -30.0030 H   0  0  0  0  0  0  0  0  0  0  0  0
   -5.3442   25.2902  -31.2263 H   0  0  0  0  0  0  0  0  0  0  0  0
   -5.4496   24.2313  -28.4170 H   0  0  0  0  0  0  0  0  0  0  0  0
   -5.1294   25.8890  -29.0306 H   0  0  0  0  0  0  0  0  0  0  0  0
   -6.8040   25.2392  -29.0306 H   0  0  0  0  0  0  0  0  0  0  0  0
   -6.3052   22.1055  -29.7590 H   0  0  0  0  0  0  0  0  0  0  0  0
   -7.8523   22.9833  -29.4345 H   0  0  0  0  0  0  0  0  0  0  0  0
   -9.6606   22.8521  -31.3558 H   0  0  0  0  0  0  0  0  0  0  0  0
  -10.8940   21.1638  -32.7166 H   0  0  0  0  0  0  0  0  0  0  0  0
   -9.8665   18.9366  -33.1823 H   0  0  0  0  0  0  0  0  0  0  0  0
   -7.6049   18.3905  -32.2771 H   0  0  0  0  0  0  0  0  0  0  0  0
   -6.3677   20.0684  -30.9048 H   0  0  0  0  0  0  0  0  0  0  0  0
   -7.4628   22.8459  -32.8489 H   0  0  0  0  0  0  0  0  0  0  0  0
   -6.2363   24.1672  -33.0563 H   0  0  0  0  0  0  0  0  0  0  0  0
   -5.8048   21.2587  -32.2936 H   0  0  0  0  0  0  0  0  0  0  0  0
   -5.0607   22.2436  -33.6337 H   0  0  0  0  0  0  0  0  0  0  0  0
  1  2  1  0
  2  3  1  0
  3  4  2  0
  4  5  1  0
  5  6  2  0
  6  7  1  0
  7  8  2  0
  8  9  1  0
  9 10  1  0
 10 11  1  0
 10 12  2  0
 10 13  2  0
  6 14  1  0
 14 15  1  0
 14 16  1  0
 16 17  1  0
 17 18  1  0
 18 19  2  0
 19 20  1  0
 20 21  2  0
 21 22  1  0
 22 23  2  0
 16 24  1  0
 24 25  1  0
  8  3  1  0
 23 18  1  0
 25  5  1  0
  1 26  1  0
  1 27  1  0
  1 28  1  0
  4 29  1  0
  7 30  1  0
 11 31  1  0
 14 32  1  6
 15 33  1  0
 15 34  1  0
 15 35  1  0
 17 36  1  0
 17 37  1  0
 19 38  1  0
 20 39  1  0
 21 40  1  0
 22 41  1  0
 23 42  1  0
 24 43  1  0
 24 44  1  0
 25 45  1  0
 25 46  1  0
M  CHG  1  11  -1
M  END
>  <UniqueID>  (5) 
5

>  <SMILES>  (5) 
COc1cc2c(cc1OS([NH-])(=O)=O)[C@H](C)N(Cc1ccccc1)CC2

>  <Energy>  (5) 
59.26577017102877

>  <Genealogy>  (5) 
COc1cc2c(cc1OS([NH-])(=O)=O)C(C)N(Cc1ccccc1)CC2 (protonated)
COc1cc2c(cc1OS([NH-])(=O)=O)[C@H](C)N(Cc1ccccc1)CC2 (chirality)
COc1cc2c(cc1OS([NH-])(=O)=O)[C@H](C)N(Cc1ccccc1)CC2 (3D coordinates assigned)
COc1cc2c(cc1OS([NH-])(=O)=O)[C@H](C)N(Cc1ccccc1)CC2 (nonaromatic ring conformer: 59.26577017102877 kcal/mol)

>  <smiles>  (5) 
COc1cc2c(cc1OS(N)(=O)=O)C(C)N(Cc1ccccc1)CC2

>  <score_type>  (5) 
oracle

>  <origin>  (5) 
adgpu

>  <m_score__min__energy>  (5) 
-10.69

>  <m_primary>  (5) 
energy

$$$$
5:0
     RDKit          3D

 58 61  0  0  0  0  0  0  0  0999 V2000
   -0.8740   26.3690  -27.7990 C   0  0  0  0  0  0  0  0  0  0  0  0
   -1.6130   26.0210  -28.9650 O   0  0  0  0  0  0  0  0  0  0  0  0
   -2.0550   24.7230  -29.2670 C   0  0  0  0  0  0  0  0  0  0  0  0
   -1.1740   23.6600  -29.0510 C   0  0  0  0  0  0  0  0  0  0  0  0
   -1.5620   22.3500  -29.3330 C   0  0  0  0  0  0  0  0  0  0  0  0
   -2.8390   22.0790  -29.8480 C   0  0  0  0  0  0  0  0  0  0  0  0
   -3.2480   20.6520  -30.1110 C   0  0  0  0  0  0  0  0  0  0  0  0
   -3.1780   20.3530  -31.5830 C   0  0  0  0  0  0  0  0  0  0  0  0
   -4.2850   19.8840  -32.2090 N   0  0  0  0  0  0  0  0  0  0  0  0
   -4.2580   19.5530  -33.5230 C   0  0  0  0  0  0  0  0  0  0  0  0
   -5.5010   19.0710  -34.2010 C   0  0  0  0  0  0  0  0  0  0  0  0
   -6.6920   19.2790  -33.3010 C   0  0  0  0  0  0  0  0  0  0  0  0
   -7.1950   20.5770  -33.1090 C   0  0  0  0  0  0  0  0  0  0  0  0
   -8.2760   20.7960  -32.2540 C   0  0  0  0  0  0  0  0  0  0  0  0
   -8.8600   19.7270  -31.5760 C   0  0  0  0  0  0  0  0  0  0  0  0
   -8.3620   18.4330  -31.7450 C   0  0  0  0  0  0  0  0  0  0  0  0
   -7.2700   18.1950  -32.6040 C   0  0  0  0  0  0  0  0  0  0  0  0
   -6.7350   16.9080  -32.7810 O   0  0  0  0  0  0  0  0  0  0  0  0
   -5.5250   16.4470  -32.1910 C   0  0  0  0  0  0  0  0  0  0  0  0
   -3.1090   19.7140  -34.2270 N   0  0  0  0  0  0  0  0  0  0  0  0
   -1.9930   20.1730  -33.6520 N   0  0  0  0  0  0  0  0  0  0  0  0
   -0.8140   20.3060  -34.4690 C   0  0  0  0  0  0  0  0  0  0  0  0
   -0.1830   19.1730  -35.0150 C   0  0  0  0  0  0  0  0  0  0  0  0
    0.9750   19.3150  -35.7870 C   0  0  0  0  0  0  0  0  0  0  0  0
    1.5170   20.5820  -36.0110 C   0  0  0  0  0  0  0  0  0  0  0  0
    0.9070   21.7110  -35.4580 C   0  0  0  0  0  0  0  0  0  0  0  0
   -0.2510   21.5740  -34.6860 C   0  0  0  0  0  0  0  0  0  0  0  0
   -1.9880   20.4820  -32.3160 C   0  0  0  0  0  0  0  0  0  0  0  0
   -0.9270   20.8570  -31.7430 O   0  0  0  0  0  0  0  0  0  0  0  0
   -3.7440   23.1410  -30.0600 C   0  0  0  0  0  0  0  0  0  0  0  0
   -5.0280   22.8490  -30.5520 O   0  0  0  0  0  0  0  0  0  0  0  0
   -5.5310   23.2810  -31.8110 C   0  0  0  0  0  0  0  0  0  0  0  0
   -3.3430   24.4600  -29.7710 C   0  0  0  0  0  0  0  0  0  0  0  0
   -1.4521   26.0968  -26.9037 H   0  0  0  0  0  0  0  0  0  0  0  0
    0.0832   25.8270  -27.7962 H   0  0  0  0  0  0  0  0  0  0  0  0
   -0.6821   27.4521  -27.7962 H   0  0  0  0  0  0  0  0  0  0  0  0
   -0.1668   23.8577  -28.6556 H   0  0  0  0  0  0  0  0  0  0  0  0
   -0.8609   21.5223  -29.1501 H   0  0  0  0  0  0  0  0  0  0  0  0
   -2.5706   19.9746  -29.5703 H   0  0  0  0  0  0  0  0  0  0  0  0
   -4.2817   20.5059  -29.7645 H   0  0  0  0  0  0  0  0  0  0  0  0
   -5.6477   19.6328  -35.1353 H   0  0  0  0  0  0  0  0  0  0  0  0
   -5.3988   17.9985  -34.4231 H   0  0  0  0  0  0  0  0  0  0  0  0
   -6.7339   21.4255  -33.6358 H   0  0  0  0  0  0  0  0  0  0  0  0
   -8.6681   21.8143  -32.1147 H   0  0  0  0  0  0  0  0  0  0  0  0
   -9.7149   19.9030  -30.9065 H   0  0  0  0  0  0  0  0  0  0  0  0
   -8.8249   17.5943  -31.2043 H   0  0  0  0  0  0  0  0  0  0  0  0
   -5.6150   16.4813  -31.0952 H   0  0  0  0  0  0  0  0  0  0  0  0
   -5.3320   15.4124  -32.5108 H   0  0  0  0  0  0  0  0  0  0  0  0
   -4.6925   17.0910  -32.5108 H   0  0  0  0  0  0  0  0  0  0  0  0
   -0.6018   18.1720  -34.8342 H   0  0  0  0  0  0  0  0  0  0  0  0
    1.4595   18.4266  -36.2184 H   0  0  0  0  0  0  0  0  0  0  0  0
    2.4245   20.6915  -36.6230 H   0  0  0  0  0  0  0  0  0  0  0  0
    1.3380   22.7083  -35.6300 H   0  0  0  0  0  0  0  0  0  0  0  0
   -0.7236   22.4647  -34.2462 H   0  0  0  0  0  0  0  0  0  0  0  0
   -6.3567   23.9902  -31.6522 H   0  0  0  0  0  0  0  0  0  0  0  0
   -4.7274   23.7747  -32.3771 H   0  0  0  0  0  0  0  0  0  0  0  0
   -5.8977   22.4120  -32.3771 H   0  0  0  0  0  0  0  0  0  0  0  0
   -4.0424   25.2919  -29.9406 H   0  0  0  0  0  0  0  0  0  0  0  0
  1  2  1  0
  2  3  1  0
  3  4  2  0
  4  5  1  0
  5  6  2  0
  6  7  1  0
  7  8  1  0
  8  9  2  0
  9 10  1  0
 10 11  1  0
 11 12  1  0
 12 13  2  0
 13 14  1  0
 14 15  2  0
 15 16  1  0
 16 17  2  0
 17 18  1  0
 18 19  1  0
 10 20  2  0
 20 21  1  0
 21 22  1  0
 22 23  2  0
 23 24  1  0
 24 25  2  0
 25 26  1  0
 26 27  2  0
 21 28  1  0
 28 29  2  0
  6 30  1  0
 30 31  1  0
 31 32  1  0
 30 33  2  0
 33  3  1  0
 28  8  1  0
 17 12  1  0
 27 22  1  0
  1 34  1  0
  1 35  1  0
  1 36  1  0
  4 37  1  0
  5 38  1  0
  7 39  1  0
  7 40  1  0
 11 41  1  0
 11 42  1  0
 13 43  1  0
 14 44  1  0
 15 45  1  0
 16 46  1  0
 19 47  1  0
 19 48  1  0
 19 49  1  0
 23 50  1  0
 24 51  1  0
 25 52  1  0
 26 53  1  0
 27 54  1  0
 32 55  1  0
 32 56  1  0
 32 57  1  0
 33 58  1  0
M  END
>  <UniqueID>  (6) 
6

>  <SMILES>  (6) 
COc1ccc(Cc2nc(Cc3ccccc3OC)nn(-c3ccccc3)c2=O)c(OC)c1

>  <Energy>  (6) 
65.63296555937178

>  <Genealogy>  (6) 
COc1ccc(Cc2nc(Cc3ccccc3OC)nn(-c3ccccc3)c2=O)c(OC)c1 (3D coordinates assigned)
COc1ccc(Cc2nc(Cc3ccccc3OC)nn(-c3ccccc3)c2=O)c(OC)c1 (optimized conformer: 65.63296555937178 kcal/mol)

>  <smiles>  (6) 
COc1ccc(Cc2nc(Cc3ccccc3OC)nn(-c3ccccc3)c2=O)c(OC)c1

>  <score_type>  (6) 
oracle

>  <origin>  (6) 
adgpu

>  <m_score__min__energy>  (6) 
-8.9800000000000004

>  <m_primary>  (6) 
energy

$$$$
6:0
     RDKit          3D

 40 43  0  0  0  0  0  0  0  0999 V2000
   -5.4690   18.5300  -34.5280 C   0  0  0  0  0  0  0  0  0  0  0  0
   -5.6140   19.5460  -33.4910 N   0  0  0  0  0  0  0  0  0  0  0  0
   -4.6660   20.4560  -33.1300 C   0  0  0  0  0  0  0  0  0  0  0  0
   -5.2300   21.3600  -32.2450 C   0  0  0  0  0  0  0  0  0  0  0  0
   -4.7510   22.5290  -31.6540 C   0  0  0  0  0  0  0  0  0  0  0  0
   -5.6620   23.3000  -30.8890 C   0  0  0  0  0  0  0  0  0  0  0  0
   -5.1160   24.8010  -30.1480 S   0  0  0  0  0  0  0  0  0  0  0  0
   -3.8680   25.3030  -30.8190 O   0  0  0  0  0  0  0  0  0  0  0  0
   -6.1990   25.8330  -30.2940 O   0  0  0  0  0  0  0  0  0  0  0  0
   -4.7910   24.5450  -28.4620 N   0  0  0  0  0  0  0  0  0  0  0  0
   -3.6510   23.8210  -27.9660 C   0  0  0  0  0  0  0  0  0  0  0  0
   -2.6650   24.5090  -27.2420 C   0  0  0  0  0  0  0  0  0  0  0  0
   -1.5490   23.8320  -26.7390 C   0  0  0  0  0  0  0  0  0  0  0  0
   -1.4070   22.4610  -26.9580 C   0  0  0  0  0  0  0  0  0  0  0  0
   -2.3760   21.7660  -27.6840 C   0  0  0  0  0  0  0  0  0  0  0  0
   -3.4920   22.4380  -28.1890 C   0  0  0  0  0  0  0  0  0  0  0  0
   -7.0170   22.8850  -30.7480 C   0  0  0  0  0  0  0  0  0  0  0  0
   -7.4540   21.6970  -31.3710 C   0  0  0  0  0  0  0  0  0  0  0  0
   -6.5220   20.9770  -32.0820 C   0  0  0  0  0  0  0  0  0  0  0  0
   -6.7530   19.8720  -32.8340 C   0  0  0  0  0  0  0  0  0  0  0  0
   -8.1500   19.3610  -33.0710 C   0  0  0  0  0  0  0  0  0  0  0  0
   -9.1070   19.7770  -31.9150 C   0  0  0  0  0  0  0  0  0  0  0  0
   -8.8340   21.1670  -31.3530 C   0  0  0  0  0  0  0  0  0  0  0  0
   -9.7650   21.8250  -30.8190 O   0  0  0  0  0  0  0  0  0  0  0  0
   -5.3284   17.5449  -34.0591 H   0  0  0  0  0  0  0  0  0  0  0  0
   -6.3738   18.5126  -35.1534 H   0  0  0  0  0  0  0  0  0  0  0  0
   -4.5955   18.7664  -35.1534 H   0  0  0  0  0  0  0  0  0  0  0  0
   -3.6244   20.4703  -33.4833 H   0  0  0  0  0  0  0  0  0  0  0  0
   -3.7036   22.8416  -31.7771 H   0  0  0  0  0  0  0  0  0  0  0  0
   -5.5190   24.8700  -27.7870 H   0  0  0  0  0  0  0  0  0  0  0  0
   -2.7707   25.5901  -27.0686 H   0  0  0  0  0  0  0  0  0  0  0  0
   -0.7832   24.3803  -26.1708 H   0  0  0  0  0  0  0  0  0  0  0  0
   -0.5316   21.9280  -26.5586 H   0  0  0  0  0  0  0  0  0  0  0  0
   -2.2605   20.6862  -27.8589 H   0  0  0  0  0  0  0  0  0  0  0  0
   -4.2502   21.8854  -28.7633 H   0  0  0  0  0  0  0  0  0  0  0  0
   -7.7203   23.4885  -30.1555 H   0  0  0  0  0  0  0  0  0  0  0  0
   -8.5282   19.7766  -34.0167 H   0  0  0  0  0  0  0  0  0  0  0  0
   -8.1155   18.2624  -33.1156 H   0  0  0  0  0  0  0  0  0  0  0  0
  -10.1389   19.7544  -32.2954 H   0  0  0  0  0  0  0  0  0  0  0  0
   -8.9421   19.0641  -31.0937 H   0  0  0  0  0  0  0  0  0  0  0  0
  1  2  1  0
  2  3  1  0
  3  4  2  0
  4  5  1  0
  5  6  2  0
  6  7  1  0
  7  8  2  0
  7  9  2  0
  7 10  1  0
 10 11  1  0
 11 12  2  0
 12 13  1  0
 13 14  2  0
 14 15  1  0
 15 16  2  0
  6 17  1  0
 17 18  2  0
 18 19  1  0
 19 20  2  0
 20 21  1  0
 21 22  1  0
 22 23  1  0
 23 24  2  0
 20  2  1  0
 19  4  1  0
 16 11  1  0
 23 18  1  0
  1 25  1  0
  1 26  1  0
  1 27  1  0
  3 28  1  0
  5 29  1  0
 10 30  1  0
 12 31  1  0
 13 32  1  0
 14 33  1  0
 15 34  1  0
 16 35  1  0
 17 36  1  0
 21 37  1  0
 21 38  1  0
 22 39  1  0
 22 40  1  0
M  END
>  <UniqueID>  (7) 
7

>  <SMILES>  (7) 
Cn1cc2cc(S(=O)(=O)Nc3ccccc3)cc3c2c1CCC3=O

>  <Energy>  (7) 
87.20371715285164

>  <Genealogy>  (7) 
Cn1cc2cc(S(=O)(=O)Nc3ccccc3)cc3c2c1CCC3=O (3D coordinates assigned)
Cn1cc2cc(S(=O)(=O)Nc3ccccc3)cc3c2c1CCC3=O (nonaromatic ring conformer: 87.20371715285164 kcal/mol)

>  <smiles>  (7) 
Cn1cc2cc(S(=O)(=O)Nc3ccccc3)cc3c2c1CCC3=O

>  <score_type>  (7) 
oracle

>  <origin>  (7) 
adgpu

>  <m_score__min__energy>  (7) 
-10.23

>  <m_primary>  (7) 
energy

$$$$
7:0
     RDKit          3D

 48 50  0  0  0  0  0  0  0  0999 V2000
   -3.8540   18.5530  -25.9660 C   0  0  0  0  0  0  0  0  0  0  0  0
   -2.4310   18.6240  -25.9650 O   0  0  0  0  0  0  0  0  0  0  0  0
   -1.6650   19.2920  -26.9330 C   0  0  0  0  0  0  0  0  0  0  0  0
   -1.9790   20.5990  -27.3590 C   0  0  0  0  0  0  0  0  0  0  0  0
   -1.1790   21.2520  -28.3100 C   0  0  0  0  0  0  0  0  0  0  0  0
   -1.4630   22.6830  -28.6920 C   0  0  0  0  0  0  0  0  0  0  0  0
   -2.6120   22.7560  -29.6110 N   0  0  0  0  0  0  0  0  0  0  0  0
   -3.2660   21.5060  -30.0360 C   0  0  0  0  0  0  0  0  0  0  0  0
   -2.7140   21.0230  -31.3550 C   0  0  0  0  0  0  0  0  0  0  0  0
   -1.5180   21.5600  -31.8640 C   0  0  0  0  0  0  0  0  0  0  0  0
   -0.9860   21.0850  -33.0670 C   0  0  0  0  0  0  0  0  0  0  0  0
   -1.6470   20.0790  -33.7760 C   0  0  0  0  0  0  0  0  0  0  0  0
   -2.8460   19.5540  -33.2900 C   0  0  0  0  0  0  0  0  0  0  0  0
   -3.3840   20.0270  -32.0890 C   0  0  0  0  0  0  0  0  0  0  0  0
   -3.1300   24.0370  -30.0330 C   0  0  0  0  0  0  0  0  0  0  0  0
   -2.8760   25.0760  -29.3650 O   0  0  0  0  0  0  0  0  0  0  0  0
   -3.9670   24.1330  -31.1940 N   0  0  0  0  0  0  0  0  0  0  0  0
   -5.2580   23.5270  -31.3150 C   0  0  0  0  0  0  0  0  0  0  0  0
   -5.4230   22.4790  -32.2300 C   0  0  0  0  0  0  0  0  0  0  0  0
   -6.6660   21.8600  -32.3800 C   0  0  0  0  0  0  0  0  0  0  0  0
   -7.7620   22.2970  -31.6290 C   0  0  0  0  0  0  0  0  0  0  0  0
   -9.3230   21.5210  -31.8220 Cl  0  0  0  0  0  0  0  0  0  0  0  0
   -7.6150   23.3640  -30.7370 C   0  0  0  0  0  0  0  0  0  0  0  0
   -6.3730   23.9890  -30.5800 C   0  0  0  0  0  0  0  0  0  0  0  0
   -6.2720   25.3990  -29.5330 Cl  0  0  0  0  0  0  0  0  0  0  0  0
   -0.0760   20.5830  -28.8560 C   0  0  0  0  0  0  0  0  0  0  0  0
    0.2350   19.2860  -28.4460 C   0  0  0  0  0  0  0  0  0  0  0  0
   -0.5480   18.6400  -27.4860 C   0  0  0  0  0  0  0  0  0  0  0  0
   -0.2010   17.3480  -27.0910 O   0  0  0  0  0  0  0  0  0  0  0  0
   -4.2209   18.5347  -24.9292 H   0  0  0  0  0  0  0  0  0  0  0  0
   -4.2646   19.4318  -26.4848 H   0  0  0  0  0  0  0  0  0  0  0  0
   -4.1751   17.6377  -26.4848 H   0  0  0  0  0  0  0  0  0  0  0  0
   -2.8587   21.1115  -26.9424 H   0  0  0  0  0  0  0  0  0  0  0  0
   -1.6889   23.2615  -27.7841 H   0  0  0  0  0  0  0  0  0  0  0  0
   -0.5781   23.0976  -29.1970 H   0  0  0  0  0  0  0  0  0  0  0  0
   -3.0957   20.7338  -29.2713 H   0  0  0  0  0  0  0  0  0  0  0  0
   -4.3419   21.6997  -30.1583 H   0  0  0  0  0  0  0  0  0  0  0  0
   -0.9983   22.3577  -31.3131 H   0  0  0  0  0  0  0  0  0  0  0  0
   -0.0460   21.5040  -33.4554 H   0  0  0  0  0  0  0  0  0  0  0  0
   -1.2227   19.7003  -34.7176 H   0  0  0  0  0  0  0  0  0  0  0  0
   -3.3686   18.7666  -33.8530 H   0  0  0  0  0  0  0  0  0  0  0  0
   -4.3351   19.6186  -31.7165 H   0  0  0  0  0  0  0  0  0  0  0  0
   -4.5680   22.1415  -32.8342 H   0  0  0  0  0  0  0  0  0  0  0  0
   -6.7831   21.0278  -33.0897 H   0  0  0  0  0  0  0  0  0  0  0  0
   -8.4807   23.7139  -30.1555 H   0  0  0  0  0  0  0  0  0  0  0  0
    0.5480   21.0826  -29.6117 H   0  0  0  0  0  0  0  0  0  0  0  0
    1.1025   18.7686  -28.8816 H   0  0  0  0  0  0  0  0  0  0  0  0
   -0.6850   16.8630  -26.3460 H   0  0  0  0  0  0  0  0  0  0  0  0
  1  2  1  0
  2  3  1  0
  3  4  2  0
  4  5  1  0
  5  6  1  0
  6  7  1  0
  7  8  1  0
  8  9  1  0
  9 10  2  0
 10 11  1  0
 11 12  2  0
 12 13  1  0
 13 14  2  0
  7 15  1  0
 15 16  2  0
 15 17  1  0
 17 18  1  0
 18 19  2  0
 19 20  1  0
 20 21  2  0
 21 22  1  0
 21 23  1  0
 23 24  2  0
 24 25  1  0
  5 26  2  0
 26 27  1  0
 27 28  2  0
 28 29  1  0
 28  3  1  0
 14  9  1  0
 24 18  1  0
  1 30  1  0
  1 31  1  0
  1 32  1  0
  4 33  1  0
  6 34  1  0
  6 35  1  0
  8 36  1  0
  8 37  1  0
 10 38  1  0
 11 39  1  0
 12 40  1  0
 13 41  1  0
 14 42  1  0
 19 43  1  0
 20 44  1  0
 23 45  1  0
 26 46  1  0
 27 47  1  0
 29 48  1  0
M  CHG  1  17  -1
M  END
>  <UniqueID>  (8) 
8

>  <SMILES>  (8) 
COc1cc(CN(Cc2ccccc2)C(=O)[N-]c2ccc(Cl)cc2Cl)ccc1O

>  <Energy>  (8) 
51.957399836584194

>  <Genealogy>  (8) 
COc1cc(CN(Cc2ccccc2)C(=O)[N-]c2ccc(Cl)cc2Cl)ccc1O (protonated)
COc1cc(CN(Cc2ccccc2)C(=O)[N-]c2ccc(Cl)cc2Cl)ccc1O (3D coordinates assigned)
COc1cc(CN(Cc2ccccc2)C(=O)[N-]c2ccc(Cl)cc2Cl)ccc1O (optimized conformer: 51.957399836584194 kcal/mol)

>  <smiles>  (8) 
COc1cc(CN(Cc2ccccc2)C(=O)Nc2ccc(Cl)cc2Cl)ccc1O

>  <score_type>  (8) 
oracle

>  <origin>  (8) 
adgpu

>  <m_score__min__energy>  (8) 
-9.9499999999999993

>  <m_primary>  (8) 
energy

$$$$
8:0
     RDKit          3D

 49 53  0  0  0  0  0  0  0  0999 V2000
   -1.1780   27.6580  -36.1800 C   0  0  0  0  0  0  0  0  0  0  0  0
    0.1650   27.8730  -35.7600 O   0  0  0  0  0  0  0  0  0  0  0  0
    1.1660   26.8900  -35.7710 C   0  0  0  0  0  0  0  0  0  0  0  0
    2.5360   27.2090  -35.8190 C   0  0  0  0  0  0  0  0  0  0  0  0
    3.4930   26.1930  -35.8280 C   0  0  0  0  0  0  0  0  0  0  0  0
    3.0990   24.8540  -35.7900 C   0  0  0  0  0  0  0  0  0  0  0  0
    1.7360   24.5160  -35.7430 C   0  0  0  0  0  0  0  0  0  0  0  0
    1.3160   23.0970  -35.7030 C   0  0  0  0  0  0  0  0  0  0  0  0
    0.2510   22.6600  -34.9950 N   0  0  0  0  0  0  0  0  0  0  0  0
    0.2300   21.3380  -35.2340 C   0  0  0  0  0  0  0  0  0  0  0  0
   -0.7640   20.4150  -34.6700 C   0  0  0  0  0  0  0  0  0  0  0  0
   -0.5400   19.0950  -34.5050 N   0  0  0  0  0  0  0  0  0  0  0  0
   -1.6890   18.6240  -33.9780 C   0  0  0  0  0  0  0  0  0  0  0  0
   -1.8600   17.2150  -33.5640 C   0  0  0  0  0  0  0  0  0  0  0  0
   -0.8930   16.6080  -32.7460 C   0  0  0  0  0  0  0  0  0  0  0  0
   -1.0480   15.2800  -32.3350 C   0  0  0  0  0  0  0  0  0  0  0  0
   -2.1750   14.5520  -32.7260 C   0  0  0  0  0  0  0  0  0  0  0  0
   -2.3680   12.8860  -32.2090 Cl  0  0  0  0  0  0  0  0  0  0  0  0
   -3.1530   15.1560  -33.5220 C   0  0  0  0  0  0  0  0  0  0  0  0
   -3.0020   16.4820  -33.9340 C   0  0  0  0  0  0  0  0  0  0  0  0
   -2.5940   19.6720  -33.8450 C   0  0  0  0  0  0  0  0  0  0  0  0
   -4.0090   19.6150  -33.4210 C   0  0  0  0  0  0  0  0  0  0  0  0
   -4.4190   20.2910  -32.2590 C   0  0  0  0  0  0  0  0  0  0  0  0
   -5.7560   20.2530  -31.8550 C   0  0  0  0  0  0  0  0  0  0  0  0
   -6.6990   19.5520  -32.6150 C   0  0  0  0  0  0  0  0  0  0  0  0
   -8.3770   19.5070  -32.1060 Cl  0  0  0  0  0  0  0  0  0  0  0  0
   -6.3030   18.8930  -33.7820 C   0  0  0  0  0  0  0  0  0  0  0  0
   -4.9650   18.9280  -34.1880 C   0  0  0  0  0  0  0  0  0  0  0  0
   -1.9940   20.7960  -34.2750 N   0  0  0  0  0  0  0  0  0  0  0  0
    1.2660   21.0020  -36.0700 C   0  0  0  0  0  0  0  0  0  0  0  0
    1.9590   22.1140  -36.3720 N   0  0  0  0  0  0  0  0  0  0  0  0
    0.7770   25.5450  -35.7330 C   0  0  0  0  0  0  0  0  0  0  0  0
   -1.8261   27.5543  -35.2973 H   0  0  0  0  0  0  0  0  0  0  0  0
   -1.5148   28.5137  -36.7836 H   0  0  0  0  0  0  0  0  0  0  0  0
   -1.2309   26.7400  -36.7836 H   0  0  0  0  0  0  0  0  0  0  0  0
    2.8533   28.2618  -35.8495 H   0  0  0  0  0  0  0  0  0  0  0  0
    4.5623   26.4483  -35.8652 H   0  0  0  0  0  0  0  0  0  0  0  0
    3.8597   24.0595  -35.7969 H   0  0  0  0  0  0  0  0  0  0  0  0
   -0.0092   17.1799  -32.4269 H   0  0  0  0  0  0  0  0  0  0  0  0
   -0.2815   14.8079  -31.7029 H   0  0  0  0  0  0  0  0  0  0  0  0
   -4.0435   14.5855  -33.8245 H   0  0  0  0  0  0  0  0  0  0  0  0
   -3.7800   16.9554  -34.5509 H   0  0  0  0  0  0  0  0  0  0  0  0
   -3.6835   20.8529  -31.6646 H   0  0  0  0  0  0  0  0  0  0  0  0
   -6.0678   20.7749  -30.9382 H   0  0  0  0  0  0  0  0  0  0  0  0
   -7.0448   18.3458  -34.3823 H   0  0  0  0  0  0  0  0  0  0  0  0
   -4.6597   18.4153  -35.1121 H   0  0  0  0  0  0  0  0  0  0  0  0
   -2.4090   21.7530  -34.3330 H   0  0  0  0  0  0  0  0  0  0  0  0
    1.4921   19.9887  -36.4334 H   0  0  0  0  0  0  0  0  0  0  0  0
   -0.2924   25.2901  -35.6948 H   0  0  0  0  0  0  0  0  0  0  0  0
  1  2  1  0
  2  3  1  0
  3  4  2  0
  4  5  1  0
  5  6  2  0
  6  7  1  0
  7  8  1  0
  8  9  2  0
  9 10  1  0
 10 11  1  0
 11 12  2  0
 12 13  1  0
 13 14  1  0
 14 15  2  0
 15 16  1  0
 16 17  2  0
 17 18  1  0
 17 19  1  0
 19 20  2  0
 13 21  2  0
 21 22  1  0
 22 23  2  0
 23 24  1  0
 24 25  2  0
 25 26  1  0
 25 27  1  0
 27 28  2  0
 21 29  1  0
 10 30  2  0
 30 31  1  0
  7 32  2  0
 32  3  1  0
 31  8  1  0
 29 11  1  0
 20 14  1  0
 28 22  1  0
  1 33  1  0
  1 34  1  0
  1 35  1  0
  4 36  1  0
  5 37  1  0
  6 38  1  0
 15 39  1  0
 16 40  1  0
 19 41  1  0
 20 42  1  0
 23 43  1  0
 24 44  1  0
 27 45  1  0
 28 46  1  0
 29 47  1  0
 30 48  1  0
 32 49  1  0
M  CHG  1  31  -1
M  END
>  <UniqueID>  (9) 
9

>  <SMILES>  (9) 
COc1cccc(-c2nc(-c3nc(-c4ccc(Cl)cc4)c(-c4ccc(Cl)cc4)[nH]3)c[n-]2)c1

>  <Energy>  (9) 
119.01248629879875

>  <Genealogy>  (9) 
COc1cccc(-c2nc(-c3nc(-c4ccc(Cl)cc4)c(-c4ccc(Cl)cc4)[nH]3)c[n-]2)c1 (protonated)
COc1cccc(-c2nc(-c3nc(-c4ccc(Cl)cc4)c(-c4ccc(Cl)cc4)[nH]3)c[n-]2)c1 (3D coordinates assigned)
COc1cccc(-c2nc(-c3nc(-c4ccc(Cl)cc4)c(-c4ccc(Cl)cc4)[nH]3)c[n-]2)c1 (optimized conformer: 119.01248629879875 kcal/mol)

>  <smiles>  (9) 
COc1cccc(-c2nc(-c3nc(-c4ccc(Cl)cc4)c(-c4ccc(Cl)cc4)[nH]3)c[nH]2)c1

>  <score_type>  (9) 
oracle

>  <origin>  (9) 
adgpu

>  <m_score__min__energy>  (9) 
-9.2899999999999991

>  <m_primary>  (9) 
energy

$$$$
9:0
     RDKit          3D

 43 46  0  0  0  0  0  0  0  0999 V2000
   -3.6000   23.0260  -31.2650 O   0  0  0  0  0  0  0  0  0  0  0  0
   -3.2230   23.9220  -30.4630 C   0  0  0  0  0  0  0  0  0  0  0  0
   -3.8590   25.2060  -30.4800 N   0  0  0  0  0  0  0  0  0  0  0  0
   -5.2570   25.4210  -30.1270 C   0  0  0  0  0  0  0  0  0  0  0  0
   -6.1030   24.2840  -30.6330 C   0  0  0  0  0  0  0  0  0  0  0  0
   -6.6590   23.3660  -29.7260 C   0  0  0  0  0  0  0  0  0  0  0  0
   -7.4640   22.3210  -30.1890 C   0  0  0  0  0  0  0  0  0  0  0  0
   -7.7240   22.1880  -31.5550 C   0  0  0  0  0  0  0  0  0  0  0  0
   -7.1790   23.1000  -32.4620 C   0  0  0  0  0  0  0  0  0  0  0  0
   -6.3720   24.1480  -32.0040 C   0  0  0  0  0  0  0  0  0  0  0  0
   -2.1300   23.6700  -29.5000 C   0  0  0  0  0  0  0  0  0  0  0  0
   -1.8690   22.3840  -29.1440 N   0  0  0  0  0  0  0  0  0  0  0  0
   -0.8910   22.0360  -28.2650 C   0  0  0  0  0  0  0  0  0  0  0  0
   -0.6870   20.5960  -27.9930 C   0  0  0  0  0  0  0  0  0  0  0  0
   -1.7520   19.8100  -27.5200 C   0  0  0  0  0  0  0  0  0  0  0  0
   -1.5560   18.4570  -27.2290 C   0  0  0  0  0  0  0  0  0  0  0  0
   -0.2940   17.8790  -27.3900 C   0  0  0  0  0  0  0  0  0  0  0  0
   -0.1130   16.5290  -27.0950 O   0  0  0  0  0  0  0  0  0  0  0  0
    0.7760   18.6600  -27.8450 C   0  0  0  0  0  0  0  0  0  0  0  0
    0.5860   20.0150  -28.1410 C   0  0  0  0  0  0  0  0  0  0  0  0
    1.6620   20.7730  -28.5900 O   0  0  0  0  0  0  0  0  0  0  0  0
   -0.1090   23.0480  -27.6640 C   0  0  0  0  0  0  0  0  0  0  0  0
    0.8800   22.7820  -26.6970 C   0  0  0  0  0  0  0  0  0  0  0  0
    1.6180   23.8290  -26.1450 C   0  0  0  0  0  0  0  0  0  0  0  0
    1.3610   25.1390  -26.5480 C   0  0  0  0  0  0  0  0  0  0  0  0
    0.3880   25.3910  -27.4630 N   0  0  0  0  0  0  0  0  0  0  0  0
   -0.3510   24.3940  -28.0230 C   0  0  0  0  0  0  0  0  0  0  0  0
   -1.3590   24.7080  -28.9420 C   0  0  0  0  0  0  0  0  0  0  0  0
   -1.5850   26.0380  -29.2840 O   0  0  0  0  0  0  0  0  0  0  0  0
   -5.3497   25.4835  -29.0327 H   0  0  0  0  0  0  0  0  0  0  0  0
   -5.6030   26.3579  -30.5881 H   0  0  0  0  0  0  0  0  0  0  0  0
   -6.4604   23.4699  -28.6491 H   0  0  0  0  0  0  0  0  0  0  0  0
   -7.8936   21.6019  -29.4760 H   0  0  0  0  0  0  0  0  0  0  0  0
   -8.3580   21.3650  -31.9165 H   0  0  0  0  0  0  0  0  0  0  0  0
   -7.3843   22.9944  -33.5375 H   0  0  0  0  0  0  0  0  0  0  0  0
   -5.9475   24.8669  -32.7203 H   0  0  0  0  0  0  0  0  0  0  0  0
   -2.7448   20.2620  -27.3781 H   0  0  0  0  0  0  0  0  0  0  0  0
   -2.3978   17.8454  -26.8722 H   0  0  0  0  0  0  0  0  0  0  0  0
   -0.6600   16.0660  -26.3790 H   0  0  0  0  0  0  0  0  0  0  0  0
    1.7703   18.2065  -27.9703 H   0  0  0  0  0  0  0  0  0  0  0  0
    1.0706   21.7471  -26.3767 H   0  0  0  0  0  0  0  0  0  0  0  0
    2.3975   23.6227  -25.3968 H   0  0  0  0  0  0  0  0  0  0  0  0
    1.9461   25.9690  -26.1251 H   0  0  0  0  0  0  0  0  0  0  0  0
  1  2  2  0
  2  3  1  0
  3  4  1  0
  4  5  1  0
  5  6  2  0
  6  7  1  0
  7  8  2  0
  8  9  1  0
  9 10  2  0
  2 11  1  0
 11 12  2  0
 12 13  1  0
 13 14  1  0
 14 15  2  0
 15 16  1  0
 16 17  2  0
 17 18  1  0
 17 19  1  0
 19 20  2  0
 20 21  1  0
 13 22  2  0
 22 23  1  0
 23 24  2  0
 24 25  1  0
 25 26  2  0
 26 27  1  0
 27 28  2  0
 28 29  1  0
 10  5  1  0
 28 11  1  0
 20 14  1  0
 27 22  1  0
  4 30  1  0
  4 31  1  0
  6 32  1  0
  7 33  1  0
  8 34  1  0
  9 35  1  0
 10 36  1  0
 15 37  1  0
 16 38  1  0
 18 39  1  0
 19 40  1  0
 23 41  1  0
 24 42  1  0
 25 43  1  0
M  CHG  3   3  -1  21  -1  29  -1
M  END
>  <UniqueID>  (10) 
10

>  <SMILES>  (10) 
O=C([N-]Cc1ccccc1)c1nc(-c2ccc(O)cc2[O-])c2cccnc2c1[O-]

>  <Energy>  (10) 
59.572382953128624

>  <Genealogy>  (10) 
O=C([N-]Cc1ccccc1)c1nc(-c2ccc(O)cc2[O-])c2cccnc2c1[O-] (protonated)
O=C([N-]Cc1ccccc1)c1nc(-c2ccc(O)cc2[O-])c2cccnc2c1[O-] (3D coordinates assigned)
O=C([N-]Cc1ccccc1)c1nc(-c2ccc(O)cc2[O-])c2cccnc2c1[O-] (optimized conformer: 59.572382953128624 kcal/mol)

>  <smiles>  (10) 
O=C(NCc1ccccc1)c1nc(-c2ccc(O)cc2O)c2cccnc2c1O

>  <score_type>  (10) 
oracle

>  <origin>  (10) 
adgpu

>  <m_score__min__energy>  (10) 
-13.470000000000001

>  <m_primary>  (10) 
energy

$$$$
10:0
     RDKit          3D

 26 27  0  0  0  0  0  0  0  0999 V2000
   -6.0190   17.5410  -33.8870 C   0  0  0  0  0  0  0  0  0  0  0  0
   -6.9080   18.4780  -33.1240 C   0  0  0  0  0  0  0  0  0  0  0  0
   -7.9640   17.9750  -32.3500 C   0  0  0  0  0  0  0  0  0  0  0  0
   -8.7590   18.8430  -31.5970 C   0  0  0  0  0  0  0  0  0  0  0  0
   -8.5020   20.2160  -31.6070 C   0  0  0  0  0  0  0  0  0  0  0  0
   -7.4540   20.7360  -32.3760 C   0  0  0  0  0  0  0  0  0  0  0  0
   -7.2220   22.1190  -32.3440 O   0  0  0  0  0  0  0  0  0  0  0  0
   -6.0720   22.7340  -31.8330 C   0  0  0  0  0  0  0  0  0  0  0  0
   -6.1400   24.0620  -31.4080 C   0  0  0  0  0  0  0  0  0  0  0  0
   -4.9800   24.6710  -30.9190 C   0  0  0  0  0  0  0  0  0  0  0  0
   -5.0070   26.0250  -30.4670 N   0  0  0  0  0  0  0  0  0  0  0  0
   -3.8180   23.9660  -30.8730 N   0  0  0  0  0  0  0  0  0  0  0  0
   -3.7660   22.6770  -31.2990 C   0  0  0  0  0  0  0  0  0  0  0  0
   -2.3580   21.8540  -31.2370 S   0  0  0  0  0  0  0  0  0  0  0  0
   -4.8830   22.0730  -31.7780 N   0  0  0  0  0  0  0  0  0  0  0  0
   -6.6410   19.8570  -33.1170 C   0  0  0  0  0  0  0  0  0  0  0  0
   -5.4387   16.9293  -33.1806 H   0  0  0  0  0  0  0  0  0  0  0  0
   -6.6348   16.8851  -34.5200 H   0  0  0  0  0  0  0  0  0  0  0  0
   -5.3317   18.1215  -34.5200 H   0  0  0  0  0  0  0  0  0  0  0  0
   -8.1669   16.8940  -32.3357 H   0  0  0  0  0  0  0  0  0  0  0  0
   -9.5889   18.4443  -30.9951 H   0  0  0  0  0  0  0  0  0  0  0  0
   -9.1273   20.8932  -31.0066 H   0  0  0  0  0  0  0  0  0  0  0  0
   -7.0876   24.6185  -31.4568 H   0  0  0  0  0  0  0  0  0  0  0  0
   -5.0030   26.2520  -29.4470 H   0  0  0  0  0  0  0  0  0  0  0  0
   -5.0310   26.8090  -31.1570 H   0  0  0  0  0  0  0  0  0  0  0  0
   -5.7919   20.2525  -33.6937 H   0  0  0  0  0  0  0  0  0  0  0  0
  1  2  1  0
  2  3  2  0
  3  4  1  0
  4  5  2  0
  5  6  1  0
  6  7  1  0
  7  8  1  0
  8  9  1  0
  9 10  2  0
 10 11  1  0
 10 12  1  0
 12 13  1  0
 13 14  2  0
 13 15  1  0
  6 16  2  0
 16  2  1  0
 15  8  2  0
  1 17  1  0
  1 18  1  0
  1 19  1  0
  3 20  1  0
  4 21  1  0
  5 22  1  0
  9 23  1  0
 11 24  1  0
 11 25  1  0
 16 26  1  0
M  CHG  1  12  -1
M  END
>  <UniqueID>  (11) 
11

>  <SMILES>  (11) 
Cc1cccc(Oc2cc(N)[n-]c(=S)n2)c1

>  <Energy>  (11) 
29.765387016584118

>  <Genealogy>  (11) 
Cc1cccc(Oc2cc(N)[n-]c(=S)n2)c1 (protonated)
Cc1cccc(Oc2cc(N)[n-]c(=S)n2)c1 (3D coordinates assigned)
Cc1cccc(Oc2cc(N)[n-]c(=S)n2)c1 (optimized conformer: 29.765387016584118 kcal/mol)

>  <smiles>  (11) 
Cc1cccc(Oc2cc(N)[nH]c(=S)n2)c1

>  <score_type>  (11) 
oracle

>  <origin>  (11) 
adgpu

>  <m_score__min__energy>  (11) 
-7.9800000000000004

>  <m_primary>  (11) 
energy

$$$$
11:0
     RDKit          3D

 40 41  0  0  0  0  0  0  0  0999 V2000
   -8.6810   18.7020  -31.6580 C   0  0  0  0  0  0  0  0  0  0  0  0
   -9.0830   20.0010  -32.3500 C   0  0  0  0  0  0  0  0  0  0  0  0
   -9.2190   21.1490  -31.3450 C   0  0  0  0  0  0  0  0  0  0  0  0
   -7.9010   21.5120  -30.8200 N   0  0  0  0  0  0  0  0  0  0  0  0
   -7.0180   22.4060  -32.0190 S   0  0  0  0  0  0  0  0  0  0  0  0
   -6.5270   21.4690  -33.0890 O   0  0  0  0  0  0  0  0  0  0  0  0
   -7.9320   23.4150  -32.6560 O   0  0  0  0  0  0  0  0  0  0  0  0
   -5.6590   23.2470  -31.2770 C   0  0  0  0  0  0  0  0  0  0  0  0
   -4.3860   22.6650  -31.2550 C   0  0  0  0  0  0  0  0  0  0  0  0
   -3.3200   23.3230  -30.6340 C   0  0  0  0  0  0  0  0  0  0  0  0
   -3.5200   24.5710  -30.0180 C   0  0  0  0  0  0  0  0  0  0  0  0
   -2.4630   25.2700  -29.3460 N   0  0  0  0  0  0  0  0  0  0  0  0
   -1.4330   24.5880  -28.1290 S   0  0  0  0  0  0  0  0  0  0  0  0
   -0.0040   24.9370  -28.4430 O   0  0  0  0  0  0  0  0  0  0  0  0
   -1.7980   25.1690  -26.7920 O   0  0  0  0  0  0  0  0  0  0  0  0
   -1.6480   22.8420  -28.0690 C   0  0  0  0  0  0  0  0  0  0  0  0
   -2.8280   22.3010  -27.5380 C   0  0  0  0  0  0  0  0  0  0  0  0
   -3.0110   20.9160  -27.5060 C   0  0  0  0  0  0  0  0  0  0  0  0
   -2.0150   20.0650  -27.9940 C   0  0  0  0  0  0  0  0  0  0  0  0
   -0.8320   20.6010  -28.5150 C   0  0  0  0  0  0  0  0  0  0  0  0
   -0.6480   21.9860  -28.5530 C   0  0  0  0  0  0  0  0  0  0  0  0
   -4.7940   25.1530  -30.0470 C   0  0  0  0  0  0  0  0  0  0  0  0
   -5.8590   24.4930  -30.6690 C   0  0  0  0  0  0  0  0  0  0  0  0
   -8.7235   18.8392  -30.5674 H   0  0  0  0  0  0  0  0  0  0  0  0
   -9.3729   17.8996  -31.9538 H   0  0  0  0  0  0  0  0  0  0  0  0
   -7.6569   18.4307  -31.9538 H   0  0  0  0  0  0  0  0  0  0  0  0
   -8.3150   20.2639  -33.0923 H   0  0  0  0  0  0  0  0  0  0  0  0
  -10.0580   19.8479  -32.8357 H   0  0  0  0  0  0  0  0  0  0  0  0
   -9.6647   22.0211  -31.8458 H   0  0  0  0  0  0  0  0  0  0  0  0
   -9.8635   20.8274  -30.5136 H   0  0  0  0  0  0  0  0  0  0  0  0
   -7.3680   20.6280  -30.6450 H   0  0  0  0  0  0  0  0  0  0  0  0
   -4.2236   21.6855  -31.7285 H   0  0  0  0  0  0  0  0  0  0  0  0
   -2.3210   22.8625  -30.6273 H   0  0  0  0  0  0  0  0  0  0  0  0
   -3.6103   22.9677  -27.1463 H   0  0  0  0  0  0  0  0  0  0  0  0
   -3.9406   20.4945  -27.0960 H   0  0  0  0  0  0  0  0  0  0  0  0
   -2.1611   18.9750  -27.9685 H   0  0  0  0  0  0  0  0  0  0  0  0
   -0.0461   19.9317  -28.8950 H   0  0  0  0  0  0  0  0  0  0  0  0
    0.2826   22.4053  -28.9632 H   0  0  0  0  0  0  0  0  0  0  0  0
   -4.9577   26.1345  -29.5780 H   0  0  0  0  0  0  0  0  0  0  0  0
   -6.8575   24.9543  -30.6807 H   0  0  0  0  0  0  0  0  0  0  0  0
  1  2  1  0
  2  3  1  0
  3  4  1  0
  4  5  1  0
  5  6  2  0
  5  7  2  0
  5  8  1  0
  8  9  2  0
  9 10  1  0
 10 11  2  0
 11 12  1  0
 12 13  1  0
 13 14  2  0
 13 15  2  0
 13 16  1  0
 16 17  2  0
 17 18  1  0
 18 19  2  0
 19 20  1  0
 20 21  2  0
 11 22  1  0
 22 23  2  0
 23  8  1  0
 21 16  1  0
  1 24  1  0
  1 25  1  0
  1 26  1  0
  2 27  1  0
  2 28  1  0
  3 29  1  0
  3 30  1  0
  4 31  1  0
  9 32  1  0
 10 33  1  0
 17 34  1  0
 18 35  1  0
 19 36  1  0
 20 37  1  0
 21 38  1  0
 22 39  1  0
 23 40  1  0
M  CHG  1  12  -1
M  END
>  <UniqueID>  (12) 
12

>  <SMILES>  (12) 
CCCNS(=O)(=O)c1ccc([N-]S(=O)(=O)c2ccccc2)cc1

>  <Energy>  (12) 
35.314412054578234

>  <Genealogy>  (12) 
CCCNS(=O)(=O)c1ccc([N-]S(=O)(=O)c2ccccc2)cc1 (protonated)
CCCNS(=O)(=O)c1ccc([N-]S(=O)(=O)c2ccccc2)cc1 (3D coordinates assigned)
CCCNS(=O)(=O)c1ccc([N-]S(=O)(=O)c2ccccc2)cc1 (optimized conformer: 35.314412054578234 kcal/mol)

>  <smiles>  (12) 
CCCNS(=O)(=O)c1ccc(NS(=O)(=O)c2ccccc2)cc1

>  <score_type>  (12) 
oracle

>  <origin>  (12) 
adgpu

>  <m_score__min__energy>  (12) 
-9.9000000000000004

>  <m_primary>  (12) 
energy

$$$$
12:0
     RDKit          3D

 46 49  0  0  0  0  0  0  0  0999 V2000
    1.7690   24.5010  -27.6620 H   0  0  0  0  0  0  0  0  0  0  0  0
    0.8530   24.7900  -28.0730 N   0  0  0  0  0  0  0  0  0  0  0  0
    0.0380   23.9250  -28.5820 C   0  0  0  0  0  0  0  0  0  0  0  0
   -1.1420   24.3370  -29.1000 N   0  0  0  0  0  0  0  0  0  0  0  0
   -2.0200   23.4600  -29.6510 C   0  0  0  0  0  0  0  0  0  0  0  0
   -3.2220   23.9420  -30.1910 C   0  0  0  0  0  0  0  0  0  0  0  0
   -3.5050   25.3040  -30.1600 O   0  0  0  0  0  0  0  0  0  0  0  0
   -4.1090   23.0290  -30.7650 C   0  0  0  0  0  0  0  0  0  0  0  0
   -5.3250   23.2330  -31.3870 C   0  0  0  0  0  0  0  0  0  0  0  0
   -6.0270   24.5480  -31.5870 C   0  0  0  0  0  0  0  0  0  0  0  0
   -6.2631   24.9902  -30.6079 H   0  0  0  0  0  0  0  0  0  0  0  0
   -5.3734   25.2307  -32.1497 H   0  0  0  0  0  0  0  0  0  0  0  0
   -6.9580   24.3848  -32.1497 H   0  0  0  0  0  0  0  0  0  0  0  0
   -5.7190   21.9860  -31.8700 C   0  0  0  0  0  0  0  0  0  0  0  0
   -6.9390   21.7640  -32.7230 C   0  0  0  0  0  0  0  0  0  0  0  0
   -7.8145   21.6047  -32.0763 H   0  0  0  0  0  0  0  0  0  0  0  0
   -7.1079   22.6462  -33.3580 H   0  0  0  0  0  0  0  0  0  0  0  0
   -6.7863   20.8789  -33.3580 H   0  0  0  0  0  0  0  0  0  0  0  0
   -4.8360   21.0180  -31.4760 N   0  0  0  0  0  0  0  0  0  0  0  0
   -4.9380   19.5520  -31.6710 C   0  0  0  0  0  0  0  0  0  0  0  0
   -4.4147   19.0843  -30.8240 H   0  0  0  0  0  0  0  0  0  0  0  0
   -4.2360   19.1230  -32.9620 C   0  0  0  0  0  0  0  0  0  0  0  0
   -3.3216   18.5642  -32.7139 H   0  0  0  0  0  0  0  0  0  0  0  0
   -4.9093   18.4819  -33.5499 H   0  0  0  0  0  0  0  0  0  0  0  0
   -3.9727   20.0146  -33.5499 H   0  0  0  0  0  0  0  0  0  0  0  0
   -6.3820   19.0280  -31.6010 C   0  0  0  0  0  0  0  0  0  0  0  0
   -6.6819   18.9192  -30.5483 H   0  0  0  0  0  0  0  0  0  0  0  0
   -7.0549   19.7393  -32.1023 H   0  0  0  0  0  0  0  0  0  0  0  0
   -6.4421   18.0507  -32.1023 H   0  0  0  0  0  0  0  0  0  0  0  0
   -3.8260   21.6830  -30.8450 C   0  0  0  0  0  0  0  0  0  0  0  0
   -2.5910   21.1820  -30.3740 C   0  0  0  0  0  0  0  0  0  0  0  0
   -2.2160   19.8700  -30.6320 O   0  0  0  0  0  0  0  0  0  0  0  0
   -1.7030   22.0710  -29.7030 C   0  0  0  0  0  0  0  0  0  0  0  0
   -0.4750   21.6670  -29.1120 C   0  0  0  0  0  0  0  0  0  0  0  0
   -0.0640   20.2580  -28.9680 C   0  0  0  0  0  0  0  0  0  0  0  0
   -0.5220   19.5010  -27.8780 C   0  0  0  0  0  0  0  0  0  0  0  0
   -1.1633   19.9685  -27.1163 H   0  0  0  0  0  0  0  0  0  0  0  0
   -0.1650   18.1540  -27.7580 C   0  0  0  0  0  0  0  0  0  0  0  0
   -0.5153   17.5677  -26.8957 H   0  0  0  0  0  0  0  0  0  0  0  0
    0.6360   17.5520  -28.7320 C   0  0  0  0  0  0  0  0  0  0  0  0
    0.9800   16.2460  -28.6140 F   0  0  0  0  0  0  0  0  0  0  0  0
    1.0770   18.2940  -29.8320 C   0  0  0  0  0  0  0  0  0  0  0  0
    1.7037   17.8179  -30.6005 H   0  0  0  0  0  0  0  0  0  0  0  0
    0.7220   19.6410  -29.9560 C   0  0  0  0  0  0  0  0  0  0  0  0
    1.0589   20.2190  -30.8292 H   0  0  0  0  0  0  0  0  0  0  0  0
    0.3550   22.6060  -28.5850 N   0  0  0  0  0  0  0  0  0  0  0  0
  1  2  1  0
  2  3  2  0
  3  4  1  0
  4  5  2  0
  5  6  1  0
  6  7  1  0
  6  8  2  0
  8  9  1  0
  9 10  1  0
 10 11  1  0
 10 12  1  0
 10 13  1  0
  9 14  2  0
 14 15  1  0
 15 16  1  0
 15 17  1  0
 15 18  1  0
 14 19  1  0
 19 20  1  0
 20 21  1  0
 20 22  1  0
 22 23  1  0
 22 24  1  0
 22 25  1  0
 20 26  1  0
 26 27  1  0
 26 28  1  0
 26 29  1  0
 19 30  1  0
 30 31  2  0
 31 32  1  0
 31 33  1  0
 33 34  2  0
 34 35  1  0
 35 36  2  0
 36 37  1  0
 36 38  1  0
 38 39  1  0
 38 40  2  0
 40 41  1  0
 40 42  1  0
 42 43  1  0
 42 44  2  0
 44 45  1  0
 34 46  1  0
 46  3  1  0
 33  5  1  0
 44 35  1  0
 30  8  1  0
M  CHG  3   7  -1  32  -1  46  -1
M  END
>  <UniqueID>  (13) 
13

>  <SMILES>  (13) 
[H]/N=c1/nc2c([O-])c3c(C)c(C)n(C(C)C)c3c([O-])c2c(-c2ccc(F)cc2)[n-]1

>  <Energy>  (13) 
102.85264543149621

>  <Genealogy>  (13) 
Cc1c(C)n(C(C)C)c2c([O-])c3c(-c4ccc(F)cc4)[n-]c(=N)nc3c([O-])c12 (protonated)
[H]/N=c1/nc2c([O-])c3c(C)c(C)n(C(C)C)c3c([O-])c2c(-c2ccc(F)cc2)[n-]1 (cis-trans isomerization)
[H]/N=c1/nc2c([O-])c3c(C)c(C)n(C(C)C)c3c([O-])c2c(-c2ccc(F)cc2)[n-]1 (3D coordinates assigned)
[H]/N=c1/nc2c([O-])c3c(C)c(C)n(C(C)C)c3c([O-])c2c(-c2ccc(F)cc2)[n-]1 (optimized conformer: 102.85264543149621 kcal/mol)

>  <smiles>  (13) 
Cc1c(C)n(C(C)C)c2c(O)c3c(-c4ccc(F)cc4)[nH]c(=N)nc3c(O)c12

>  <score_type>  (13) 
oracle

>  <origin>  (13) 
adgpu

>  <m_score__min__energy>  (13) 
-11.539999999999999

>  <m_primary>  (13) 
energy

$$$$
13:0
     RDKit          3D

 41 43  0  0  0  0  0  0  0  0999 V2000
   -1.1490   23.7510  -28.0250 C   0  0  0  0  0  0  0  0  0  0  0  0
   -2.4020   24.2140  -28.6940 C   0  0  0  0  0  0  0  0  0  0  0  0
   -2.3920   25.2960  -29.3390 O   0  0  0  0  0  0  0  0  0  0  0  0
   -3.6200   23.4750  -28.5200 N   0  0  0  0  0  0  0  0  0  0  0  0
   -4.8290   23.7280  -29.2550 C   0  0  0  0  0  0  0  0  0  0  0  0
   -5.3710   25.0210  -29.3520 C   0  0  0  0  0  0  0  0  0  0  0  0
   -6.5260   25.2460  -30.1020 C   0  0  0  0  0  0  0  0  0  0  0  0
   -7.1490   24.1900  -30.7680 C   0  0  0  0  0  0  0  0  0  0  0  0
   -6.6210   22.8890  -30.6940 C   0  0  0  0  0  0  0  0  0  0  0  0
   -7.2870   21.7800  -31.4240 C   0  0  0  0  0  0  0  0  0  0  0  0
   -6.5560   20.6990  -31.9500 C   0  0  0  0  0  0  0  0  0  0  0  0
   -7.2210   19.6660  -32.6320 C   0  0  0  0  0  0  0  0  0  0  0  0
   -6.4600   18.5200  -33.1960 C   0  0  0  0  0  0  0  0  0  0  0  0
   -5.7580   18.6530  -34.4070 C   0  0  0  0  0  0  0  0  0  0  0  0
   -5.0440   17.5730  -34.9360 C   0  0  0  0  0  0  0  0  0  0  0  0
   -5.0300   16.3390  -34.2710 C   0  0  0  0  0  0  0  0  0  0  0  0
   -4.2310   15.1940  -34.8180 C   0  0  0  0  0  0  0  0  0  0  0  0
   -5.7130   16.2060  -33.0540 C   0  0  0  0  0  0  0  0  0  0  0  0
   -6.4280   17.2840  -32.5240 C   0  0  0  0  0  0  0  0  0  0  0  0
   -8.6160   19.7320  -32.7660 C   0  0  0  0  0  0  0  0  0  0  0  0
   -9.3120   20.8110  -32.2210 C   0  0  0  0  0  0  0  0  0  0  0  0
   -8.6410   21.7960  -31.5710 N   0  0  0  0  0  0  0  0  0  0  0  0
   -5.4470   22.6740  -29.9460 C   0  0  0  0  0  0  0  0  0  0  0  0
   -1.2771   23.7983  -26.9335 H   0  0  0  0  0  0  0  0  0  0  0  0
   -0.9350   22.7144  -28.3245 H   0  0  0  0  0  0  0  0  0  0  0  0
   -0.3124   24.3993  -28.3245 H   0  0  0  0  0  0  0  0  0  0  0  0
   -3.6500   22.7650  -27.7530 H   0  0  0  0  0  0  0  0  0  0  0  0
   -4.8825   25.8596  -28.8343 H   0  0  0  0  0  0  0  0  0  0  0  0
   -6.9471   26.2600  -30.1684 H   0  0  0  0  0  0  0  0  0  0  0  0
   -8.0601   24.3767  -31.3554 H   0  0  0  0  0  0  0  0  0  0  0  0
   -5.4635   20.6625  -31.8273 H   0  0  0  0  0  0  0  0  0  0  0  0
   -5.7705   19.6138  -34.9424 H   0  0  0  0  0  0  0  0  0  0  0  0
   -4.4904   17.6925  -35.8790 H   0  0  0  0  0  0  0  0  0  0  0  0
   -3.8191   14.6038  -33.9861 H   0  0  0  0  0  0  0  0  0  0  0  0
   -4.8804   14.5552  -35.4346 H   0  0  0  0  0  0  0  0  0  0  0  0
   -3.4073   15.5831  -35.4346 H   0  0  0  0  0  0  0  0  0  0  0  0
   -5.6862   15.2484  -32.5133 H   0  0  0  0  0  0  0  0  0  0  0  0
   -6.9699   17.1652  -31.5741 H   0  0  0  0  0  0  0  0  0  0  0  0
   -9.1583   18.9367  -33.2983 H   0  0  0  0  0  0  0  0  0  0  0  0
  -10.4064   20.8639  -32.3181 H   0  0  0  0  0  0  0  0  0  0  0  0
   -5.0084   21.6662  -29.9028 H   0  0  0  0  0  0  0  0  0  0  0  0
  1  2  1  0
  2  3  2  0
  2  4  1  0
  4  5  1  0
  5  6  2  0
  6  7  1  0
  7  8  2  0
  8  9  1  0
  9 10  1  0
 10 11  2  0
 11 12  1  0
 12 13  1  0
 13 14  2  0
 14 15  1  0
 15 16  2  0
 16 17  1  0
 16 18  1  0
 18 19  2  0
 12 20  2  0
 20 21  1  0
 21 22  2  0
  9 23  2  0
 23  5  1  0
 22 10  1  0
 19 13  1  0
  1 24  1  0
  1 25  1  0
  1 26  1  0
  4 27  1  0
  6 28  1  0
  7 29  1  0
  8 30  1  0
 11 31  1  0
 14 32  1  0
 15 33  1  0
 17 34  1  0
 17 35  1  0
 17 36  1  0
 18 37  1  0
 19 38  1  0
 20 39  1  0
 21 40  1  0
 23 41  1  0
M  END
>  <UniqueID>  (14) 
14

>  <SMILES>  (14) 
CC(=O)Nc1cccc(-c2cc(-c3ccc(C)cc3)ccn2)c1

>  <Energy>  (14) 
54.151751968120884

>  <Genealogy>  (14) 
CC(=O)Nc1cccc(-c2cc(-c3ccc(C)cc3)ccn2)c1 (3D coordinates assigned)
CC(=O)Nc1cccc(-c2cc(-c3ccc(C)cc3)ccn2)c1 (optimized conformer: 54.151751968120884 kcal/mol)

>  <smiles>  (14) 
CC(=O)Nc1cccc(-c2cc(-c3ccc(C)cc3)ccn2)c1

>  <score_type>  (14) 
oracle

>  <origin>  (14) 
adgpu

>  <m_score__min__energy>  (14) 
-8.9900000000000002

>  <m_primary>  (14) 
energy

$$$$
14:0
     RDKit          3D

 43 44  0  0  0  0  0  0  0  0999 V2000
   -8.7900   21.1840  -31.9650 C   0  0  0  0  0  0  0  0  0  0  0  0
   -7.5080   20.7080  -31.2920 C   0  0  0  0  0  0  0  0  0  0  0  0
   -6.3530   21.4790  -31.7790 N   0  0  0  0  0  0  0  0  0  0  0  0
   -5.5040   20.9430  -32.8540 C   0  0  0  0  0  0  0  0  0  0  0  0
   -6.1310   19.6880  -33.4530 C   0  0  0  0  0  0  0  0  0  0  0  0
   -6.0450   22.7600  -31.1920 C   0  0  0  0  0  0  0  0  0  0  0  0
   -7.0700   23.6700  -30.8910 C   0  0  0  0  0  0  0  0  0  0  0  0
   -6.7680   24.9100  -30.3240 C   0  0  0  0  0  0  0  0  0  0  0  0
   -5.4430   25.2480  -30.0410 C   0  0  0  0  0  0  0  0  0  0  0  0
   -4.4090   24.3450  -30.3130 C   0  0  0  0  0  0  0  0  0  0  0  0
   -3.0900   24.7210  -30.0220 O   0  0  0  0  0  0  0  0  0  0  0  0
   -2.5630   24.8980  -28.7330 C   0  0  0  0  0  0  0  0  0  0  0  0
   -1.2990   25.4810  -28.5980 C   0  0  0  0  0  0  0  0  0  0  0  0
   -0.7420   25.6840  -27.3320 C   0  0  0  0  0  0  0  0  0  0  0  0
   -1.4530   25.3190  -26.1750 C   0  0  0  0  0  0  0  0  0  0  0  0
   -0.8690   25.5240  -24.8260 C   0  0  0  0  0  0  0  0  0  0  0  0
    0.1320   24.6210  -24.3370 N   0  0  0  0  0  0  0  0  0  0  0  0
   -1.2600   26.5110  -24.0750 N   0  0  0  0  0  0  0  0  0  0  0  0
   -2.7320   24.7510  -26.3130 C   0  0  0  0  0  0  0  0  0  0  0  0
   -3.2850   24.5500  -27.5790 C   0  0  0  0  0  0  0  0  0  0  0  0
   -4.7140   23.1090  -30.9110 C   0  0  0  0  0  0  0  0  0  0  0  0
   -9.5277   21.4579  -31.1964 H   0  0  0  0  0  0  0  0  0  0  0  0
   -8.5711   22.0608  -32.5922 H   0  0  0  0  0  0  0  0  0  0  0  0
   -9.1964   20.3768  -32.5922 H   0  0  0  0  0  0  0  0  0  0  0  0
   -7.5994   20.8413  -30.2039 H   0  0  0  0  0  0  0  0  0  0  0  0
   -7.3534   19.6458  -31.5324 H   0  0  0  0  0  0  0  0  0  0  0  0
   -5.3930   21.7034  -33.6410 H   0  0  0  0  0  0  0  0  0  0  0  0
   -4.5201   20.6847  -32.4355 H   0  0  0  0  0  0  0  0  0  0  0  0
   -6.4637   19.0220  -32.6432 H   0  0  0  0  0  0  0  0  0  0  0  0
   -6.9942   19.9699  -34.0739 H   0  0  0  0  0  0  0  0  0  0  0  0
   -5.3873   19.1671  -34.0739 H   0  0  0  0  0  0  0  0  0  0  0  0
   -8.1165   23.4053  -31.1027 H   0  0  0  0  0  0  0  0  0  0  0  0
   -7.5758   25.6222  -30.0998 H   0  0  0  0  0  0  0  0  0  0  0  0
   -5.2107   26.2294  -29.6019 H   0  0  0  0  0  0  0  0  0  0  0  0
   -0.7385   25.7823  -29.4953 H   0  0  0  0  0  0  0  0  0  0  0  0
    0.2585   26.1319  -27.2403 H   0  0  0  0  0  0  0  0  0  0  0  0
    0.5280   23.8750  -24.9490 H   0  0  0  0  0  0  0  0  0  0  0  0
    0.5210   24.7260  -23.3740 H   0  0  0  0  0  0  0  0  0  0  0  0
   -0.8470   26.6570  -23.1270 H   0  0  0  0  0  0  0  0  0  0  0  0
   -2.0130   27.1680  -24.3790 H   0  0  0  0  0  0  0  0  0  0  0  0
   -3.3010   24.4629  -25.4167 H   0  0  0  0  0  0  0  0  0  0  0  0
   -4.2916   24.1167  -27.6736 H   0  0  0  0  0  0  0  0  0  0  0  0
   -3.9027   22.4094  -31.1608 H   0  0  0  0  0  0  0  0  0  0  0  0
  1  2  1  0
  2  3  1  0
  3  4  1  0
  4  5  1  0
  3  6  1  0
  6  7  2  0
  7  8  1  0
  8  9  2  0
  9 10  1  0
 10 11  1  0
 11 12  1  0
 12 13  2  0
 13 14  1  0
 14 15  2  0
 15 16  1  0
 16 17  1  0
 16 18  2  0
 15 19  1  0
 19 20  2  0
 10 21  2  0
 21  6  1  0
 20 12  1  0
  1 22  1  0
  1 23  1  0
  1 24  1  0
  2 25  1  0
  2 26  1  0
  4 27  1  0
  4 28  1  0
  5 29  1  0
  5 30  1  0
  5 31  1  0
  7 32  1  0
  8 33  1  0
  9 34  1  0
 13 35  1  0
 14 36  1  0
 17 37  1  0
 17 38  1  0
 18 39  1  0
 18 40  1  0
 19 41  1  0
 20 42  1  0
 21 43  1  0
M  CHG  1  18   1
M  END
>  <UniqueID>  (15) 
15

>  <SMILES>  (15) 
CCN(CC)c1cccc(Oc2ccc(C(N)=[NH2+])cc2)c1

>  <Energy>  (15) 
48.33032222127817

>  <Genealogy>  (15) 
CCN(CC)c1cccc(Oc2ccc(C(N)=[NH2+])cc2)c1 (protonated)
CCN(CC)c1cccc(Oc2ccc(C(N)=[NH2+])cc2)c1 (3D coordinates assigned)
CCN(CC)c1cccc(Oc2ccc(C(N)=[NH2+])cc2)c1 (optimized conformer: 48.33032222127817 kcal/mol)

>  <smiles>  (15) 
CCN(CC)c1cccc(Oc2ccc(C(=N)N)cc2)c1

>  <score_type>  (15) 
oracle

>  <origin>  (15) 
adgpu

>  <m_score__min__energy>  (15) 
-7.8899999999999997

>  <m_primary>  (15) 
energy

$$$$
15:0
     RDKit          3D

 40 42  0  0  0  0  0  0  0  0999 V2000
   -6.8730   21.1740  -33.4610 O   0  0  0  0  0  0  0  0  0  0  0  0
   -6.1150   21.2360  -32.4540 C   0  0  0  0  0  0  0  0  0  0  0  0
   -5.2920   20.1070  -32.1130 N   0  0  0  0  0  0  0  0  0  0  0  0
   -5.4860   18.8040  -32.6810 C   0  0  0  0  0  0  0  0  0  0  0  0
   -4.4070   18.1740  -33.3190 C   0  0  0  0  0  0  0  0  0  0  0  0
   -4.5590   16.9010  -33.8760 C   0  0  0  0  0  0  0  0  0  0  0  0
   -5.7850   16.2400  -33.7840 C   0  0  0  0  0  0  0  0  0  0  0  0
   -6.8580   16.8440  -33.1240 C   0  0  0  0  0  0  0  0  0  0  0  0
   -6.7160   18.1200  -32.5650 C   0  0  0  0  0  0  0  0  0  0  0  0
   -8.0660   18.7880  -31.6530 Cl  0  0  0  0  0  0  0  0  0  0  0  0
   -6.0500   22.4850  -31.6600 C   0  0  0  0  0  0  0  0  0  0  0  0
   -7.2270   23.0960  -31.1950 C   0  0  0  0  0  0  0  0  0  0  0  0
   -7.1650   24.2900  -30.4720 C   0  0  0  0  0  0  0  0  0  0  0  0
   -5.9310   24.8920  -30.2150 C   0  0  0  0  0  0  0  0  0  0  0  0
   -4.7470   24.2990  -30.6670 C   0  0  0  0  0  0  0  0  0  0  0  0
   -3.5020   24.9680  -30.4170 N   0  0  0  0  0  0  0  0  0  0  0  0
   -2.3790   24.5460  -29.1630 S   0  0  0  0  0  0  0  0  0  0  0  0
   -2.9980   24.8600  -27.8290 O   0  0  0  0  0  0  0  0  0  0  0  0
   -1.1260   25.3580  -29.3270 O   0  0  0  0  0  0  0  0  0  0  0  0
   -1.9650   22.8360  -29.2700 C   0  0  0  0  0  0  0  0  0  0  0  0
   -2.6610   21.8850  -28.5080 C   0  0  0  0  0  0  0  0  0  0  0  0
   -2.3650   20.5250  -28.6430 C   0  0  0  0  0  0  0  0  0  0  0  0
   -1.3730   20.1080  -29.5360 C   0  0  0  0  0  0  0  0  0  0  0  0
   -0.6720   21.0530  -30.2910 C   0  0  0  0  0  0  0  0  0  0  0  0
   -0.9660   22.4140  -30.1600 C   0  0  0  0  0  0  0  0  0  0  0  0
   -4.8110   23.0790  -31.3620 C   0  0  0  0  0  0  0  0  0  0  0  0
   -4.3930   20.2870  -31.6110 H   0  0  0  0  0  0  0  0  0  0  0  0
   -3.4350   18.6852  -33.3813 H   0  0  0  0  0  0  0  0  0  0  0  0
   -3.7121   16.4199  -34.3871 H   0  0  0  0  0  0  0  0  0  0  0  0
   -5.9064   15.2425  -34.2316 H   0  0  0  0  0  0  0  0  0  0  0  0
   -7.8189   16.3147  -33.0431 H   0  0  0  0  0  0  0  0  0  0  0  0
   -8.2026   22.6316  -31.4014 H   0  0  0  0  0  0  0  0  0  0  0  0
   -8.0904   24.7572  -30.1042 H   0  0  0  0  0  0  0  0  0  0  0  0
   -5.8898   25.8374  -29.6542 H   0  0  0  0  0  0  0  0  0  0  0  0
   -3.4407   22.2099  -27.8034 H   0  0  0  0  0  0  0  0  0  0  0  0
   -2.9135   19.7818  -28.0456 H   0  0  0  0  0  0  0  0  0  0  0  0
   -1.1444   19.0375  -29.6443 H   0  0  0  0  0  0  0  0  0  0  0  0
    0.1122   20.7255  -30.9894 H   0  0  0  0  0  0  0  0  0  0  0  0
   -0.4129   23.1550  -30.7559 H   0  0  0  0  0  0  0  0  0  0  0  0
   -3.8808   22.5831  -31.6765 H   0  0  0  0  0  0  0  0  0  0  0  0
  1  2  2  0
  2  3  1  0
  3  4  1  0
  4  5  2  0
  5  6  1  0
  6  7  2  0
  7  8  1  0
  8  9  2  0
  9 10  1  0
  2 11  1  0
 11 12  2  0
 12 13  1  0
 13 14  2  0
 14 15  1  0
 15 16  1  0
 16 17  1  0
 17 18  2  0
 17 19  2  0
 17 20  1  0
 20 21  2  0
 21 22  1  0
 22 23  2  0
 23 24  1  0
 24 25  2  0
 15 26  2  0
  9  4  1  0
 26 11  1  0
 25 20  1  0
  3 27  1  0
  5 28  1  0
  6 29  1  0
  7 30  1  0
  8 31  1  0
 12 32  1  0
 13 33  1  0
 14 34  1  0
 21 35  1  0
 22 36  1  0
 23 37  1  0
 24 38  1  0
 25 39  1  0
 26 40  1  0
M  CHG  1  16  -1
M  END
>  <UniqueID>  (16) 
16

>  <SMILES>  (16) 
O=C(Nc1ccccc1Cl)c1cccc([N-]S(=O)(=O)c2ccccc2)c1

>  <Energy>  (16) 
52.710784314698174

>  <Genealogy>  (16) 
O=C(Nc1ccccc1Cl)c1cccc([N-]S(=O)(=O)c2ccccc2)c1 (protonated)
O=C(Nc1ccccc1Cl)c1cccc([N-]S(=O)(=O)c2ccccc2)c1 (3D coordinates assigned)
O=C(Nc1ccccc1Cl)c1cccc([N-]S(=O)(=O)c2ccccc2)c1 (optimized conformer: 52.710784314698174 kcal/mol)

>  <smiles>  (16) 
O=C(Nc1ccccc1Cl)c1cccc(NS(=O)(=O)c2ccccc2)c1

>  <score_type>  (16) 
oracle

>  <origin>  (16) 
adgpu

>  <m_score__min__energy>  (16) 
-10.550000000000001

>  <m_primary>  (16) 
energy

$$$$
16:0
     RDKit          3D

 51 53  0  0  0  0  0  0  0  0999 V2000
   -6.7570   19.0690  -33.4190 C   0  0  0  0  0  0  0  0  0  0  0  0
   -7.4700   20.0670  -32.6960 O   0  0  0  0  0  0  0  0  0  0  0  0
   -6.8750   21.1610  -32.0480 C   0  0  0  0  0  0  0  0  0  0  0  0
   -5.4810   21.3590  -32.0550 C   0  0  0  0  0  0  0  0  0  0  0  0
   -4.9220   22.4670  -31.4170 C   0  0  0  0  0  0  0  0  0  0  0  0
   -5.7380   23.3920  -30.7590 C   0  0  0  0  0  0  0  0  0  0  0  0
   -5.0370   24.8360  -30.0360 S   0  0  0  0  0  0  0  0  0  0  0  0
   -3.8620   25.3120  -30.8420 O   0  0  0  0  0  0  0  0  0  0  0  0
   -6.0670   25.9300  -30.0020 O   0  0  0  0  0  0  0  0  0  0  0  0
   -4.5440   24.4660  -28.4200 N   0  0  0  0  0  0  0  0  0  0  0  0
   -3.5810   23.4310  -28.1720 C   0  0  0  0  0  0  0  0  0  0  0  0
   -4.0070   22.1040  -28.0080 C   0  0  0  0  0  0  0  0  0  0  0  0
   -3.0760   21.0850  -27.7860 C   0  0  0  0  0  0  0  0  0  0  0  0
   -1.7130   21.3850  -27.7190 C   0  0  0  0  0  0  0  0  0  0  0  0
   -1.2790   22.7030  -27.8710 C   0  0  0  0  0  0  0  0  0  0  0  0
   -2.2040   23.7320  -28.1040 C   0  0  0  0  0  0  0  0  0  0  0  0
   -1.7300   25.1250  -28.1930 C   0  0  0  0  0  0  0  0  0  0  0  0
   -1.5750   25.6310  -29.3380 O   0  0  0  0  0  0  0  0  0  0  0  0
   -1.4280   25.8950  -27.0090 N   0  0  0  0  0  0  0  0  0  0  0  0
   -0.7990   27.2210  -27.1240 C   0  0  0  0  0  0  0  0  0  0  0  0
    0.2960   27.3790  -26.0640 C   0  0  0  0  0  0  0  0  0  0  0  0
   -0.1880   27.0510  -24.6350 C   0  0  0  0  0  0  0  0  0  0  0  0
   -1.5890   26.4270  -24.5850 C   0  0  0  0  0  0  0  0  0  0  0  0
   -1.7690   25.3660  -25.6770 C   0  0  0  0  0  0  0  0  0  0  0  0
   -7.1250   23.2050  -30.7480 C   0  0  0  0  0  0  0  0  0  0  0  0
   -7.6990   22.0880  -31.3780 C   0  0  0  0  0  0  0  0  0  0  0  0
   -9.1910   21.9180  -31.3840 C   0  0  0  0  0  0  0  0  0  0  0  0
   -6.2672   18.3835  -32.7118 H   0  0  0  0  0  0  0  0  0  0  0  0
   -7.4573   18.5041  -34.0519 H   0  0  0  0  0  0  0  0  0  0  0  0
   -5.9956   19.5483  -34.0519 H   0  0  0  0  0  0  0  0  0  0  0  0
   -4.8287   20.6359  -32.5665 H   0  0  0  0  0  0  0  0  0  0  0  0
   -3.8319   22.6136  -31.4319 H   0  0  0  0  0  0  0  0  0  0  0  0
   -5.1740   24.7710  -27.6450 H   0  0  0  0  0  0  0  0  0  0  0  0
   -5.0796   21.8643  -28.0544 H   0  0  0  0  0  0  0  0  0  0  0  0
   -3.4168   20.0463  -27.6640 H   0  0  0  0  0  0  0  0  0  0  0  0
   -0.9814   20.5819  -27.5463 H   0  0  0  0  0  0  0  0  0  0  0  0
   -0.2059   22.9362  -27.8078 H   0  0  0  0  0  0  0  0  0  0  0  0
   -0.3546   27.3271  -28.1246 H   0  0  0  0  0  0  0  0  0  0  0  0
   -1.5637   27.9965  -26.9695 H   0  0  0  0  0  0  0  0  0  0  0  0
    1.1262   26.7027  -26.3156 H   0  0  0  0  0  0  0  0  0  0  0  0
    0.6061   28.4344  -26.0696 H   0  0  0  0  0  0  0  0  0  0  0  0
    0.5229   26.3447  -24.1814 H   0  0  0  0  0  0  0  0  0  0  0  0
   -0.2412   28.0036  -24.0876 H   0  0  0  0  0  0  0  0  0  0  0  0
   -1.7363   25.9567  -23.6016 H   0  0  0  0  0  0  0  0  0  0  0  0
   -2.3287   27.2239  -24.7518 H   0  0  0  0  0  0  0  0  0  0  0  0
   -1.1146   24.5103  -25.4546 H   0  0  0  0  0  0  0  0  0  0  0  0
   -2.8256   25.0602  -25.6886 H   0  0  0  0  0  0  0  0  0  0  0  0
   -7.7706   23.9381  -30.2423 H   0  0  0  0  0  0  0  0  0  0  0  0
   -9.5594   21.8760  -30.3484 H   0  0  0  0  0  0  0  0  0  0  0  0
   -9.6549   22.7691  -31.9040 H   0  0  0  0  0  0  0  0  0  0  0  0
   -9.4516   20.9844  -31.9040 H   0  0  0  0  0  0  0  0  0  0  0  0
  1  2  1  0
  2  3  1  0
  3  4  2  0
  4  5  1  0
  5  6  2  0
  6  7  1  0
  7  8  2  0
  7  9  2  0
  7 10  1  0
 10 11  1  0
 11 12  2  0
 12 13  1  0
 13 14  2  0
 14 15  1  0
 15 16  2  0
 16 17  1  0
 17 18  2  0
 17 19  1  0
 19 20  1  0
 20 21  1  0
 21 22  1  0
 22 23  1  0
 23 24  1  0
  6 25  1  0
 25 26  2  0
 26 27  1  0
 26  3  1  0
 16 11  1  0
 24 19  1  0
  1 28  1  0
  1 29  1  0
  1 30  1  0
  4 31  1  0
  5 32  1  0
 10 33  1  0
 12 34  1  0
 13 35  1  0
 14 36  1  0
 15 37  1  0
 20 38  1  0
 20 39  1  0
 21 40  1  0
 21 41  1  0
 22 42  1  0
 22 43  1  0
 23 44  1  0
 23 45  1  0
 24 46  1  0
 24 47  1  0
 25 48  1  0
 27 49  1  0
 27 50  1  0
 27 51  1  0
M  END
>  <UniqueID>  (17) 
17

>  <SMILES>  (17) 
COc1ccc(S(=O)(=O)Nc2ccccc2C(=O)N2CCCCC2)cc1C

>  <Energy>  (17) 
64.0022580239949

>  <Genealogy>  (17) 
COc1ccc(S(=O)(=O)Nc2ccccc2C(=O)N2CCCCC2)cc1C (3D coordinates assigned)
COc1ccc(S(=O)(=O)Nc2ccccc2C(=O)N2CCCCC2)cc1C (nonaromatic ring conformer: 64.0022580239949 kcal/mol)

>  <smiles>  (17) 
COc1ccc(S(=O)(=O)Nc2ccccc2C(=O)N2CCCCC2)cc1C

>  <score_type>  (17) 
oracle

>  <origin>  (17) 
adgpu

>  <m_score__min__energy>  (17) 
-10.220000000000001

>  <m_primary>  (17) 
energy

$$$$
17:0
     RDKit          3D

 36 37  0  0  0  0  0  0  0  0999 V2000
   -0.4070   26.9170  -27.3500 C   0  0  0  0  0  0  0  0  0  0  0  0
   -0.8770   25.7140  -28.0940 C   0  0  0  0  0  0  0  0  0  0  0  0
   -0.1830   24.5580  -28.1520 N   0  0  0  0  0  0  0  0  0  0  0  0
   -0.9530   23.7720  -28.9290 C   0  0  0  0  0  0  0  0  0  0  0  0
   -0.6010   22.3570  -29.2610 C   0  0  0  0  0  0  0  0  0  0  0  0
   -2.0730   24.4860  -29.3270 C   0  0  0  0  0  0  0  0  0  0  0  0
   -3.1960   24.0550  -30.1770 C   0  0  0  0  0  0  0  0  0  0  0  0
   -3.8660   24.9320  -30.7850 O   0  0  0  0  0  0  0  0  0  0  0  0
   -3.4870   22.6640  -30.3790 N   0  0  0  0  0  0  0  0  0  0  0  0
   -4.7790   22.1680  -30.7740 C   0  0  0  0  0  0  0  0  0  0  0  0
   -5.9330   22.8010  -30.2990 C   0  0  0  0  0  0  0  0  0  0  0  0
   -7.2000   22.3530  -30.6830 C   0  0  0  0  0  0  0  0  0  0  0  0
   -7.3430   21.2640  -31.5660 C   0  0  0  0  0  0  0  0  0  0  0  0
   -8.6590   20.7960  -31.9660 N   0  0  0  0  0  0  0  0  0  0  0  0
   -8.8110   19.5320  -32.6990 C   0  0  0  0  0  0  0  0  0  0  0  0
   -9.8600   21.5780  -31.6480 C   0  0  0  0  0  0  0  0  0  0  0  0
   -6.1740   20.6440  -32.0560 C   0  0  0  0  0  0  0  0  0  0  0  0
   -4.9090   21.0940  -31.6690 C   0  0  0  0  0  0  0  0  0  0  0  0
   -1.9940   25.6760  -28.7860 O   0  0  0  0  0  0  0  0  0  0  0  0
   -0.4798   26.7308  -26.2683 H   0  0  0  0  0  0  0  0  0  0  0  0
    0.6394   27.1272  -27.6163 H   0  0  0  0  0  0  0  0  0  0  0  0
   -1.0338   27.7809  -27.6163 H   0  0  0  0  0  0  0  0  0  0  0  0
   -0.4591   21.7866  -28.3312 H   0  0  0  0  0  0  0  0  0  0  0  0
   -1.4141   21.9050  -29.8480 H   0  0  0  0  0  0  0  0  0  0  0  0
    0.3291   22.3386  -29.8480 H   0  0  0  0  0  0  0  0  0  0  0  0
   -2.6900   21.9910  -30.3520 H   0  0  0  0  0  0  0  0  0  0  0  0
   -5.8421   23.6593  -29.6170 H   0  0  0  0  0  0  0  0  0  0  0  0
   -8.0962   22.8564  -30.2913 H   0  0  0  0  0  0  0  0  0  0  0  0
   -8.9107   18.7027  -31.9832 H   0  0  0  0  0  0  0  0  0  0  0  0
   -9.7098   19.5806  -33.3313 H   0  0  0  0  0  0  0  0  0  0  0  0
   -7.9263   19.3662  -33.3313 H   0  0  0  0  0  0  0  0  0  0  0  0
   -9.9717   21.6507  -30.5561 H   0  0  0  0  0  0  0  0  0  0  0  0
   -9.7640   22.5873  -32.0748 H   0  0  0  0  0  0  0  0  0  0  0  0
  -10.7442   21.0820  -32.0748 H   0  0  0  0  0  0  0  0  0  0  0  0
   -6.2596   19.7959  -32.7513 H   0  0  0  0  0  0  0  0  0  0  0  0
   -4.0090   20.6035  -32.0682 H   0  0  0  0  0  0  0  0  0  0  0  0
  1  2  1  0
  2  3  2  0
  3  4  1  0
  4  5  1  0
  4  6  2  0
  6  7  1  0
  7  8  2  0
  7  9  1  0
  9 10  1  0
 10 11  2  0
 11 12  1  0
 12 13  2  0
 13 14  1  0
 14 15  1  0
 14 16  1  0
 13 17  1  0
 17 18  2  0
  6 19  1  0
 19  2  1  0
 18 10  1  0
  1 20  1  0
  1 21  1  0
  1 22  1  0
  5 23  1  0
  5 24  1  0
  5 25  1  0
  9 26  1  0
 11 27  1  0
 12 28  1  0
 15 29  1  0
 15 30  1  0
 15 31  1  0
 16 32  1  0
 16 33  1  0
 16 34  1  0
 17 35  1  0
 18 36  1  0
M  END
>  <UniqueID>  (18) 
18

>  <SMILES>  (18) 
Cc1nc(C)c(C(=O)Nc2ccc(N(C)C)cc2)o1

>  <Energy>  (18) 
69.13708485456165

>  <Genealogy>  (18) 
Cc1nc(C)c(C(=O)Nc2ccc(N(C)C)cc2)o1 (3D coordinates assigned)
Cc1nc(C)c(C(=O)Nc2ccc(N(C)C)cc2)o1 (optimized conformer: 69.13708485456165 kcal/mol)

>  <smiles>  (18) 
Cc1nc(C)c(C(=O)Nc2ccc(N(C)C)cc2)o1

>  <score_type>  (18) 
oracle

>  <origin>  (18) 
adgpu

>  <m_score__min__energy>  (18) 
-7.0300000000000002

>  <m_primary>  (18) 
energy

$$$$
18:0
     RDKit          3D

 31 32  0  0  0  0  0  0  0  0999 V2000
   -3.2784   21.1437  -27.5091 H   0  0  0  0  0  0  0  0  0  0  0  0
   -3.0420   22.2110  -27.6320 C   0  0  0  0  0  0  0  0  0  0  0  0
   -2.4646   22.7390  -26.8588 H   0  0  0  0  0  0  0  0  0  0  0  0
   -3.4550   22.8640  -28.7170 C   0  0  0  0  0  0  0  0  0  0  0  0
   -3.2180   24.2030  -28.9790 C   0  0  0  0  0  0  0  0  0  0  0  0
   -2.6574   24.9169  -28.3577 H   0  0  0  0  0  0  0  0  0  0  0  0
   -3.8360   24.4480  -30.1860 C   0  0  0  0  0  0  0  0  0  0  0  0
   -3.8690   25.6710  -30.8430 O   0  0  0  0  0  0  0  0  0  0  0  0
   -4.4090   23.2660  -30.6190 C   0  0  0  0  0  0  0  0  0  0  0  0
   -5.1220   23.1230  -31.7490 C   0  0  0  0  0  0  0  0  0  0  0  0
   -5.2991   24.0183  -32.3630 H   0  0  0  0  0  0  0  0  0  0  0  0
   -5.6830   21.8400  -32.2190 C   0  0  0  0  0  0  0  0  0  0  0  0
   -4.8440   20.9190  -32.8570 C   0  0  0  0  0  0  0  0  0  0  0  0
   -3.7875   21.1720  -33.0296 H   0  0  0  0  0  0  0  0  0  0  0  0
   -5.3370   19.6820  -33.2760 C   0  0  0  0  0  0  0  0  0  0  0  0
   -4.6697   18.9728  -33.7876 H   0  0  0  0  0  0  0  0  0  0  0  0
   -6.6830   19.3360  -33.0480 C   0  0  0  0  0  0  0  0  0  0  0  0
   -7.2100   18.0980  -33.4550 O   0  0  0  0  0  0  0  0  0  0  0  0
   -6.4360   17.0280  -33.9860 C   0  0  0  0  0  0  0  0  0  0  0  0
   -6.0099   16.4389  -33.1606 H   0  0  0  0  0  0  0  0  0  0  0  0
   -7.0777   16.3827  -34.6039 H   0  0  0  0  0  0  0  0  0  0  0  0
   -5.6223   17.4355  -34.6039 H   0  0  0  0  0  0  0  0  0  0  0  0
   -7.5270   20.2500  -32.3870 C   0  0  0  0  0  0  0  0  0  0  0  0
   -8.9570   19.8880  -32.1040 C   0  0  0  0  0  0  0  0  0  0  0  0
   -9.1167   19.8476  -31.0164 H   0  0  0  0  0  0  0  0  0  0  0  0
   -9.6212   20.6463  -32.5442 H   0  0  0  0  0  0  0  0  0  0  0  0
   -9.1804   18.9050  -32.5442 H   0  0  0  0  0  0  0  0  0  0  0  0
   -7.0180   21.4870  -31.9610 C   0  0  0  0  0  0  0  0  0  0  0  0
   -7.6713   22.1871  -31.4196 H   0  0  0  0  0  0  0  0  0  0  0  0
   -4.1780   22.2960  -29.7070 N   0  0  0  0  0  0  0  0  0  0  0  0
   -4.5190   21.3090  -29.7230 H   0  0  0  0  0  0  0  0  0  0  0  0
  1  2  1  0
  2  3  1  0
  2  4  2  0
  4  5  1  0
  5  6  1  0
  5  7  2  0
  7  8  1  0
  7  9  1  0
  9 10  2  0
 10 11  1  0
 10 12  1  0
 12 13  2  0
 13 14  1  0
 13 15  1  0
 15 16  1  0
 15 17  2  0
 17 18  1  0
 18 19  1  0
 19 20  1  0
 19 21  1  0
 19 22  1  0
 17 23  1  0
 23 24  1  0
 24 25  1  0
 24 26  1  0
 24 27  1  0
 23 28  2  0
 28 29  1  0
  9 30  1  0
 30 31  1  0
 30  4  1  0
 28 12  1  0
M  CHG  1   8  -1
M  END
>  <UniqueID>  (19) 
19

>  <SMILES>  (19) 
C=c1cc([O-])/c(=C/c2ccc(OC)c(C)c2)[nH]1

>  <Energy>  (19) 
63.60618011182718

>  <Genealogy>  (19) 
C=c1cc([O-])c(=Cc2ccc(OC)c(C)c2)[nH]1 (protonated)
C=c1cc([O-])/c(=C/c2ccc(OC)c(C)c2)[nH]1 (cis-trans isomerization)
C=c1cc([O-])/c(=C/c2ccc(OC)c(C)c2)[nH]1 (3D coordinates assigned)
C=c1cc([O-])/c(=C/c2ccc(OC)c(C)c2)[nH]1 (optimized conformer: 63.60618011182718 kcal/mol)

>  <smiles>  (19) 
C=c1cc(O)c(=Cc2ccc(OC)c(C)c2)[nH]1

>  <score_type>  (19) 
oracle

>  <origin>  (19) 
adgpu

>  <m_score__min__energy>  (19) 
-9.5700000000000003

>  <m_primary>  (19) 
energy

$$$$
19:0
     RDKit          3D

 55 59  0  0  0  0  0  0  0  0999 V2000
   -6.4537   16.0360  -32.7795 H   0  0  0  0  0  0  0  0  0  0  0  0
   -5.9030   16.9880  -32.8000 C   0  0  0  0  0  0  0  0  0  0  0  0
   -4.6210   16.9490  -33.1940 C   0  0  0  0  0  0  0  0  0  0  0  0
   -3.9250   15.4690  -33.9320 S   0  0  0  0  0  0  0  0  0  0  0  0
   -2.6580   16.5260  -34.6700 C   0  0  0  0  0  0  0  0  0  0  0  0
   -1.9790   16.2010  -35.7370 N   0  0  0  0  0  0  0  0  0  0  0  0
   -1.2640   16.8620  -36.1160 H   0  0  0  0  0  0  0  0  0  0  0  0
   -2.1030   14.9410  -36.4130 C   0  0  0  0  0  0  0  0  0  0  0  0
   -1.4120   13.8050  -35.9580 C   0  0  0  0  0  0  0  0  0  0  0  0
   -0.7376   13.8836  -35.0925 H   0  0  0  0  0  0  0  0  0  0  0  0
   -1.5790   12.5750  -36.6020 C   0  0  0  0  0  0  0  0  0  0  0  0
   -1.0238   11.6919  -36.2529 H   0  0  0  0  0  0  0  0  0  0  0  0
   -2.4510   12.4670  -37.6890 C   0  0  0  0  0  0  0  0  0  0  0  0
   -2.5764   11.5006  -38.1993 H   0  0  0  0  0  0  0  0  0  0  0  0
   -3.1640   13.5870  -38.1280 C   0  0  0  0  0  0  0  0  0  0  0  0
   -3.8554   13.5001  -38.9792 H   0  0  0  0  0  0  0  0  0  0  0  0
   -2.9980   14.8170  -37.4850 C   0  0  0  0  0  0  0  0  0  0  0  0
   -3.5727   15.6924  -37.8219 H   0  0  0  0  0  0  0  0  0  0  0  0
   -2.5460   17.8190  -34.0630 N   0  0  0  0  0  0  0  0  0  0  0  0
   -1.4430   18.7310  -34.2170 C   0  0  0  0  0  0  0  0  0  0  0  0
   -0.1420   18.2420  -34.4120 C   0  0  0  0  0  0  0  0  0  0  0  0
    0.0370   17.1570  -34.4375 H   0  0  0  0  0  0  0  0  0  0  0  0
    0.9280   19.1280  -34.5740 C   0  0  0  0  0  0  0  0  0  0  0  0
    1.9434   18.7368  -34.7351 H   0  0  0  0  0  0  0  0  0  0  0  0
    0.7120   20.5130  -34.5320 C   0  0  0  0  0  0  0  0  0  0  0  0
    1.8540   21.4620  -34.7450 C   0  0  0  0  0  0  0  0  0  0  0  0
    2.2464   21.7881  -33.7705 H   0  0  0  0  0  0  0  0  0  0  0  0
    2.6505   20.9561  -35.3104 H   0  0  0  0  0  0  0  0  0  0  0  0
    1.5025   22.3377  -35.3104 H   0  0  0  0  0  0  0  0  0  0  0  0
   -0.5910   21.0030  -34.3610 C   0  0  0  0  0  0  0  0  0  0  0  0
   -0.7720   22.0880  -34.3543 H   0  0  0  0  0  0  0  0  0  0  0  0
   -1.6610   20.1170  -34.1990 C   0  0  0  0  0  0  0  0  0  0  0  0
   -2.6789   20.5088  -34.0567 H   0  0  0  0  0  0  0  0  0  0  0  0
   -3.6540   18.0490  -33.2010 C   0  0  0  0  0  0  0  0  0  0  0  0
   -3.7150   19.0480  -32.4340 O   0  0  0  0  0  0  0  0  0  0  0  0
   -6.6350   18.2020  -32.3920 C   0  0  0  0  0  0  0  0  0  0  0  0
   -6.0910   19.3730  -32.1650 O   0  0  0  0  0  0  0  0  0  0  0  0
   -7.0380   20.2310  -31.8570 C   0  0  0  0  0  0  0  0  0  0  0  0
   -6.7720   21.6510  -31.5290 C   0  0  0  0  0  0  0  0  0  0  0  0
   -7.8430   22.5580  -31.4730 C   0  0  0  0  0  0  0  0  0  0  0  0
   -8.8666   22.2071  -31.6710 H   0  0  0  0  0  0  0  0  0  0  0  0
   -7.6180   23.9010  -31.1680 C   0  0  0  0  0  0  0  0  0  0  0  0
   -8.4644   24.6023  -31.1261 H   0  0  0  0  0  0  0  0  0  0  0  0
   -6.3240   24.3580  -30.9160 C   0  0  0  0  0  0  0  0  0  0  0  0
   -6.1550   25.4183  -30.6770 H   0  0  0  0  0  0  0  0  0  0  0  0
   -5.2350   23.4700  -30.9660 C   0  0  0  0  0  0  0  0  0  0  0  0
   -3.8600   23.9520  -30.6980 C   0  0  0  0  0  0  0  0  0  0  0  0
   -2.8910   23.1470  -30.6800 O   0  0  0  0  0  0  0  0  0  0  0  0
   -3.6190   25.3000  -30.4640 O   0  0  0  0  0  0  0  0  0  0  0  0
   -5.4680   22.1170  -31.2730 C   0  0  0  0  0  0  0  0  0  0  0  0
   -4.6220   21.4151  -31.3135 H   0  0  0  0  0  0  0  0  0  0  0  0
   -8.2670   19.5920  -31.8920 C   0  0  0  0  0  0  0  0  0  0  0  0
   -9.2513   20.0363  -31.6827 H   0  0  0  0  0  0  0  0  0  0  0  0
   -8.0030   18.2850  -32.2430 C   0  0  0  0  0  0  0  0  0  0  0  0
   -8.7344   17.4743  -32.3768 H   0  0  0  0  0  0  0  0  0  0  0  0
  1  2  1  0
  2  3  2  3
  3  4  1  0
  4  5  1  0
  5  6  2  0
  6  7  1  0
  6  8  1  0
  8  9  2  0
  9 10  1  0
  9 11  1  0
 11 12  1  0
 11 13  2  0
 13 14  1  0
 13 15  1  0
 15 16  1  0
 15 17  2  0
 17 18  1  0
  5 19  1  0
 19 20  1  0
 20 21  2  0
 21 22  1  0
 21 23  1  0
 23 24  1  0
 23 25  2  0
 25 26  1  0
 26 27  1  0
 26 28  1  0
 26 29  1  0
 25 30  1  0
 30 31  1  0
 30 32  2  0
 32 33  1  0
 19 34  1  0
 34 35  2  0
  2 36  1  0
 36 37  1  0
 37 38  1  0
 38 39  1  0
 39 40  2  0
 40 41  1  0
 40 42  1  0
 42 43  1  0
 42 44  2  0
 44 45  1  0
 44 46  1  0
 46 47  1  0
 47 48  2  0
 47 49  1  0
 46 50  2  0
 50 51  1  0
 38 52  2  0
 52 53  1  0
 52 54  1  0
 54 55  1  0
 34  3  1  0
 54 36  2  0
 17  8  1  0
 32 20  1  0
 50 39  1  0
M  CHG  2   6   1  49  -1
M  END
>  <UniqueID>  (20) 
20

>  <SMILES>  (20) 
Cc1ccc(N2C(=O)C(=Cc3ccc(-c4cccc(C(=O)[O-])c4)o3)S/C2=[NH+]\c2ccccc2)cc1

>  <Energy>  (20) 
124.95638854563752

>  <Genealogy>  (20) 
Cc1ccc(N2C(=O)C(=Cc3ccc(-c4cccc(C(=O)[O-])c4)o3)SC2=[NH+]c2ccccc2)cc1 (protonated)
Cc1ccc(N2C(=O)C(=Cc3ccc(-c4cccc(C(=O)[O-])c4)o3)S/C2=[NH+]\c2ccccc2)cc1 (cis-trans isomerization)
Cc1ccc(N2C(=O)C(=Cc3ccc(-c4cccc(C(=O)[O-])c4)o3)S/C2=[NH+]\c2ccccc2)cc1 (3D coordinates assigned)
Cc1ccc(N2C(=O)C(=Cc3ccc(-c4cccc(C(=O)[O-])c4)o3)S/C2=[NH+]\c2ccccc2)cc1 (nonaromatic ring conformer: 124.95638854563752 kcal/mol)

>  <smiles>  (20) 
Cc1ccc(N2C(=O)C(=Cc3ccc(-c4cccc(C(=O)O)c4)o3)SC2=Nc2ccccc2)cc1

>  <score_type>  (20) 
oracle

>  <origin>  (20) 
adgpu

>  <m_score__min__energy>  (20) 
-11.69

>  <m_primary>  (20) 
energy

$$$$
20:0
     RDKit          3D

 31 33  0  0  1  0  0  0  0  0999 V2000
   -3.7020   24.0380  -28.0490 O   0  0  0  0  0  0  0  0  0  0  0  0
   -4.1600   24.1390  -29.2060 C   0  0  0  0  0  0  0  0  0  0  0  0
   -4.9090   23.2190  -29.9340 C   0  0  0  0  0  0  0  0  0  0  0  0
   -5.1960   23.7650  -31.1810 C   0  0  0  0  0  0  0  0  0  0  0  0
   -5.9380   23.1570  -32.2290 N   0  0  0  0  0  0  0  0  0  0  0  0
   -7.1430   22.4390  -32.0280 C   0  0  0  0  0  0  0  0  0  0  0  0
   -8.3280   23.1220  -31.9620 C   0  0  0  0  0  0  0  0  0  0  0  0
   -9.4970   22.3850  -31.7630 C   0  0  0  0  0  0  0  0  0  0  0  0
   -9.4780   21.0120  -31.6350 C   0  0  0  0  0  0  0  0  0  0  0  0
   -8.2820   20.3250  -31.7020 C   0  0  0  0  0  0  0  0  0  0  0  0
   -7.1300   21.0670  -31.8990 C   0  0  0  0  0  0  0  0  0  0  0  0
   -5.9060   20.3070  -31.9630 N   0  0  0  0  0  0  0  0  0  0  0  0
   -5.6970   19.6140  -33.0430 C   0  0  0  0  0  0  0  0  0  0  0  0
   -4.6120   18.8160  -33.3350 C   0  0  0  0  0  0  0  0  0  0  0  0
   -4.8550   18.2990  -34.5900 C   0  0  0  0  0  0  0  0  0  0  0  0
   -6.0350   18.7620  -35.0410 N   0  0  0  0  0  0  0  0  0  0  0  0
   -6.5260   19.5510  -34.0990 N   0  0  0  0  0  0  0  0  0  0  0  0
   -4.6230   24.9740  -31.1670 N   0  0  0  0  0  0  0  0  0  0  0  0
   -4.0130   25.1910  -30.0000 N   0  0  0  0  0  0  0  0  0  0  0  0
   -5.2221   22.2251  -29.5818 H   0  0  0  0  0  0  0  0  0  0  0  0
   -5.5770   23.2410  -33.2110 H   0  0  0  0  0  0  0  0  0  0  0  0
   -8.3580   24.2170  -32.0626 H   0  0  0  0  0  0  0  0  0  0  0  0
  -10.4597   22.9141  -31.7068 H   0  0  0  0  0  0  0  0  0  0  0  0
  -10.4181   20.4626  -31.4791 H   0  0  0  0  0  0  0  0  0  0  0  0
   -8.2460   19.2301  -31.6026 H   0  0  0  0  0  0  0  0  0  0  0  0
   -3.7341   18.6300  -32.6988 H   0  0  0  0  0  0  0  0  0  0  0  0
   -4.1887   17.6154  -35.1366 H   0  0  0  0  0  0  0  0  0  0  0  0
   -6.4910   18.5440  -35.9690 H   0  0  0  0  0  0  0  0  0  0  0  0
   -7.4320   20.0370  -34.1960 H   0  0  0  0  0  0  0  0  0  0  0  0
   -4.6160   25.6880  -31.9180 H   0  0  0  0  0  0  0  0  0  0  0  0
   -3.4860   26.0660  -29.7330 H   0  0  0  0  0  0  0  0  0  0  0  0
  1  2  2  0
  2  3  1  0
  3  4  2  0
  4  5  1  0
  5  6  1  0
  6  7  2  0
  7  8  1  0
  8  9  2  0
  9 10  1  0
 10 11  2  0
 11 12  1  0
 12 13  2  0
 13 14  1  0
 14 15  2  0
 15 16  1  0
 16 17  1  0
  4 18  1  0
 18 19  1  0
 19  2  1  0
 11  6  1  0
 17 13  1  0
  3 20  1  0
  5 21  1  0
  7 22  1  0
  8 23  1  0
  9 24  1  0
 10 25  1  0
 14 26  1  0
 15 27  1  0
 16 28  1  0
 17 29  1  0
 18 30  1  0
 19 31  1  0
M  END
>  <smiles>  (21) 
O=c1cc(Nc2ccccc2N=c2cc[nH][nH]2)[nH][nH]1

>  <score_type>  (21) 
oracle

>  <origin>  (21) 
adgpu

>  <m_score__min__energy>  (21) 
-8.1699999999999999

>  <m_primary>  (21) 
energy

$$$$
21:0
     RDKit          3D

 37 39  0  0  0  0  0  0  0  0999 V2000
   -8.7160   18.5070  -31.6140 C   0  0  0  0  0  0  0  0  0  0  0  0
   -8.8700   19.6810  -32.4050 O   0  0  0  0  0  0  0  0  0  0  0  0
   -8.1260   20.8570  -32.2280 C   0  0  0  0  0  0  0  0  0  0  0  0
   -8.7080   22.0590  -31.7810 C   0  0  0  0  0  0  0  0  0  0  0  0
   -7.9220   23.2050  -31.6180 C   0  0  0  0  0  0  0  0  0  0  0  0
   -6.5470   23.1640  -31.8780 C   0  0  0  0  0  0  0  0  0  0  0  0
   -5.7720   24.3600  -31.7220 N   0  0  0  0  0  0  0  0  0  0  0  0
   -4.6460   24.5080  -30.8500 C   0  0  0  0  0  0  0  0  0  0  0  0
   -4.2380   25.6680  -30.5750 O   0  0  0  0  0  0  0  0  0  0  0  0
   -4.0130   23.3560  -30.2690 N   0  0  0  0  0  0  0  0  0  0  0  0
   -2.7550   23.4160  -29.5770 C   0  0  0  0  0  0  0  0  0  0  0  0
   -2.5850   24.3040  -28.5010 C   0  0  0  0  0  0  0  0  0  0  0  0
   -1.3510   24.4050  -27.8510 C   0  0  0  0  0  0  0  0  0  0  0  0
   -1.1520   25.5200  -26.5120 Cl  0  0  0  0  0  0  0  0  0  0  0  0
   -0.2750   23.6200  -28.2730 C   0  0  0  0  0  0  0  0  0  0  0  0
   -0.4350   22.7260  -29.3320 C   0  0  0  0  0  0  0  0  0  0  0  0
   -1.6740   22.5980  -29.9760 C   0  0  0  0  0  0  0  0  0  0  0  0
   -1.8000   21.6770  -31.0680 N   0  0  0  0  0  0  0  0  0  0  0  0
   -0.8200   21.2300  -31.8710 C   0  0  0  0  0  0  0  0  0  0  0  0
   -1.3120   20.4340  -32.8390 N   0  0  0  0  0  0  0  0  0  0  0  0
   -2.6370   20.4390  -32.5760 C   0  0  0  0  0  0  0  0  0  0  0  0
   -2.9490   21.2020  -31.5100 N   0  0  0  0  0  0  0  0  0  0  0  0
   -5.9720   21.9720  -32.3510 C   0  0  0  0  0  0  0  0  0  0  0  0
   -6.7570   20.8270  -32.5150 C   0  0  0  0  0  0  0  0  0  0  0  0
   -8.7513   18.7759  -30.5480 H   0  0  0  0  0  0  0  0  0  0  0  0
   -9.5294   17.8023  -31.8415 H   0  0  0  0  0  0  0  0  0  0  0  0
   -7.7484   18.0359  -31.8415 H   0  0  0  0  0  0  0  0  0  0  0  0
   -9.7847   22.0970  -31.5591 H   0  0  0  0  0  0  0  0  0  0  0  0
   -8.3873   24.1439  -31.2835 H   0  0  0  0  0  0  0  0  0  0  0  0
   -4.4550   22.4240  -30.4180 H   0  0  0  0  0  0  0  0  0  0  0  0
   -3.4296   24.9247  -28.1674 H   0  0  0  0  0  0  0  0  0  0  0  0
    0.6993   23.7069  -27.7698 H   0  0  0  0  0  0  0  0  0  0  0  0
    0.4180   22.1163  -29.6646 H   0  0  0  0  0  0  0  0  0  0  0  0
    0.2444   21.4813  -31.7531 H   0  0  0  0  0  0  0  0  0  0  0  0
   -3.3791   19.8819  -33.1667 H   0  0  0  0  0  0  0  0  0  0  0  0
   -4.8995   21.9399  -32.5932 H   0  0  0  0  0  0  0  0  0  0  0  0
   -6.2947   19.8951  -32.8725 H   0  0  0  0  0  0  0  0  0  0  0  0
  1  2  1  0
  2  3  1  0
  3  4  2  0
  4  5  1  0
  5  6  2  0
  6  7  1  0
  7  8  1  0
  8  9  2  0
  8 10  1  0
 10 11  1  0
 11 12  2  0
 12 13  1  0
 13 14  1  0
 13 15  2  0
 15 16  1  0
 16 17  2  0
 17 18  1  0
 18 19  1  0
 19 20  2  0
 20 21  1  0
 21 22  2  0
  6 23  1  0
 23 24  2  0
 24  3  1  0
 17 11  1  0
 22 18  1  0
  1 25  1  0
  1 26  1  0
  1 27  1  0
  4 28  1  0
  5 29  1  0
 10 30  1  0
 12 31  1  0
 15 32  1  0
 16 33  1  0
 19 34  1  0
 21 35  1  0
 23 36  1  0
 24 37  1  0
M  CHG  1   7  -1
M  END
>  <UniqueID>  (22) 
21

>  <SMILES>  (22) 
COc1ccc([N-]C(=O)Nc2cc(Cl)ccc2-n2cncn2)cc1

>  <Energy>  (22) 
85.82074354520776

>  <Genealogy>  (22) 
COc1ccc([N-]C(=O)Nc2cc(Cl)ccc2-n2cncn2)cc1 (protonated)
COc1ccc([N-]C(=O)Nc2cc(Cl)ccc2-n2cncn2)cc1 (3D coordinates assigned)
COc1ccc([N-]C(=O)Nc2cc(Cl)ccc2-n2cncn2)cc1 (optimized conformer: 85.82074354520776 kcal/mol)

>  <smiles>  (22) 
COc1ccc(NC(=O)Nc2cc(Cl)ccc2-n2cncn2)cc1

>  <score_type>  (22) 
oracle

>  <origin>  (22) 
adgpu

>  <m_score__min__energy>  (22) 
-8.7699999999999996

>  <m_primary>  (22) 
energy

$$$$
22:0
     RDKit          3D

 36 38  0  0  0  0  0  0  0  0999 V2000
   -4.3560   25.6070  -30.7650 O   0  0  0  0  0  0  0  0  0  0  0  0
   -3.9020   24.7590  -29.9480 C   0  0  0  0  0  0  0  0  0  0  0  0
   -2.6180   24.8750  -29.5050 N   0  0  0  0  0  0  0  0  0  0  0  0
   -2.0750   23.9760  -28.6360 C   0  0  0  0  0  0  0  0  0  0  0  0
   -0.7490   24.1160  -28.1960 C   0  0  0  0  0  0  0  0  0  0  0  0
   -0.2000   23.1860  -27.3090 C   0  0  0  0  0  0  0  0  0  0  0  0
   -0.9670   22.1090  -26.8550 C   0  0  0  0  0  0  0  0  0  0  0  0
   -2.2880   21.9570  -27.2860 C   0  0  0  0  0  0  0  0  0  0  0  0
   -2.8490   22.8870  -28.1740 C   0  0  0  0  0  0  0  0  0  0  0  0
   -4.1690   22.7550  -28.6190 C   0  0  0  0  0  0  0  0  0  0  0  0
   -4.7140   23.6990  -29.4990 C   0  0  0  0  0  0  0  0  0  0  0  0
   -6.1240   23.5210  -29.9990 C   0  0  0  0  0  0  0  0  0  0  0  0
   -6.1460   23.6460  -31.4620 N   0  0  0  0  0  0  0  0  0  0  0  0
   -7.3870   23.0990  -32.0270 C   0  0  0  0  0  0  0  0  0  0  0  0
   -7.2220   21.6350  -32.3370 C   0  0  0  0  0  0  0  0  0  0  0  0
   -8.3360   20.7800  -32.3050 C   0  0  0  0  0  0  0  0  0  0  0  0
   -8.1940   19.4240  -32.6160 C   0  0  0  0  0  0  0  0  0  0  0  0
   -6.9400   18.9120  -32.9640 C   0  0  0  0  0  0  0  0  0  0  0  0
   -6.7480   17.0610  -33.3900 Br  0  0  0  0  0  0  0  0  0  0  0  0
   -5.8270   19.7590  -33.0010 C   0  0  0  0  0  0  0  0  0  0  0  0
   -5.9660   21.1150  -32.6910 C   0  0  0  0  0  0  0  0  0  0  0  0
   -2.0390   25.6750  -29.8500 H   0  0  0  0  0  0  0  0  0  0  0  0
   -0.1401   24.9607  -28.5507 H   0  0  0  0  0  0  0  0  0  0  0  0
    0.8390   23.3018  -26.9669 H   0  0  0  0  0  0  0  0  0  0  0  0
   -0.5300   21.3796  -26.1571 H   0  0  0  0  0  0  0  0  0  0  0  0
   -2.8883   21.1074  -26.9285 H   0  0  0  0  0  0  0  0  0  0  0  0
   -4.7807   21.9073  -28.2768 H   0  0  0  0  0  0  0  0  0  0  0  0
   -6.4919   22.5252  -29.7109 H   0  0  0  0  0  0  0  0  0  0  0  0
   -6.7695   24.2937  -29.5560 H   0  0  0  0  0  0  0  0  0  0  0  0
   -6.1170   24.6660  -31.6940 H   0  0  0  0  0  0  0  0  0  0  0  0
   -8.2029   23.2259  -31.3002 H   0  0  0  0  0  0  0  0  0  0  0  0
   -7.6226   23.6364  -32.9574 H   0  0  0  0  0  0  0  0  0  0  0  0
   -9.3247   21.1789  -32.0341 H   0  0  0  0  0  0  0  0  0  0  0  0
   -9.0699   18.7592  -32.5869 H   0  0  0  0  0  0  0  0  0  0  0  0
   -4.8403   19.3570  -33.2746 H   0  0  0  0  0  0  0  0  0  0  0  0
   -5.0884   21.7774  -32.7244 H   0  0  0  0  0  0  0  0  0  0  0  0
  1  2  2  0
  2  3  1  0
  3  4  1  0
  4  5  2  0
  5  6  1  0
  6  7  2  0
  7  8  1  0
  8  9  2  0
  9 10  1  0
 10 11  2  0
 11 12  1  0
 12 13  1  0
 13 14  1  0
 14 15  1  0
 15 16  2  0
 16 17  1  0
 17 18  2  0
 18 19  1  0
 18 20  1  0
 20 21  2  0
 11  2  1  0
 21 15  1  0
  9  4  1  0
  3 22  1  0
  5 23  1  0
  6 24  1  0
  7 25  1  0
  8 26  1  0
 10 27  1  0
 12 28  1  0
 12 29  1  0
 13 30  1  0
 14 31  1  0
 14 32  1  0
 16 33  1  0
 17 34  1  0
 20 35  1  0
 21 36  1  0
M  END
>  <UniqueID>  (23) 
22

>  <SMILES>  (23) 
O=c1[nH]c2ccccc2cc1CNCc1ccc(Br)cc1

>  <Energy>  (23) 
40.86444091972849

>  <Genealogy>  (23) 
O=c1[nH]c2ccccc2cc1CNCc1ccc(Br)cc1 (3D coordinates assigned)
O=c1[nH]c2ccccc2cc1CNCc1ccc(Br)cc1 (optimized conformer: 40.86444091972849 kcal/mol)

>  <smiles>  (23) 
O=c1[nH]c2ccccc2cc1CNCc1ccc(Br)cc1

>  <score_type>  (23) 
oracle

>  <origin>  (23) 
adgpu

>  <m_score__min__energy>  (23) 
-9.1300000000000008

>  <m_primary>  (23) 
energy

$$$$
23:0
     RDKit          3D

 31 32  0  0  0  0  0  0  0  0999 V2000
   -4.9100   19.7510  -33.4060 C   0  0  0  0  0  0  0  0  0  0  0  0
   -4.9400   21.3850  -32.6040 S   0  0  0  0  0  0  0  0  0  0  0  0
   -6.7160   21.3580  -32.3200 C   0  0  0  0  0  0  0  0  0  0  0  0
   -7.3990   20.2230  -32.6270 N   0  0  0  0  0  0  0  0  0  0  0  0
   -8.7390   20.1110  -32.4380 C   0  0  0  0  0  0  0  0  0  0  0  0
   -9.4610   21.1800  -31.9120 C   0  0  0  0  0  0  0  0  0  0  0  0
   -8.7950   22.3630  -31.5930 C   0  0  0  0  0  0  0  0  0  0  0  0
   -7.4120   22.4770  -31.8090 C   0  0  0  0  0  0  0  0  0  0  0  0
   -6.7120   23.7630  -31.4390 C   0  0  0  0  0  0  0  0  0  0  0  0
   -5.6600   23.5130  -30.4540 N   0  0  0  0  0  0  0  0  0  0  0  0
   -4.6020   24.4560  -30.2340 C   0  0  0  0  0  0  0  0  0  0  0  0
   -4.6000   25.5510  -30.8620 O   0  0  0  0  0  0  0  0  0  0  0  0
   -3.5130   24.1550  -29.2790 C   0  0  0  0  0  0  0  0  0  0  0  0
   -3.6210   23.0910  -28.3670 C   0  0  0  0  0  0  0  0  0  0  0  0
   -2.5750   22.8390  -27.4770 C   0  0  0  0  0  0  0  0  0  0  0  0
   -1.4350   23.6430  -27.4980 C   0  0  0  0  0  0  0  0  0  0  0  0
   -1.3580   24.6930  -28.4140 C   0  0  0  0  0  0  0  0  0  0  0  0
   -2.3860   24.9230  -29.2730 N   0  0  0  0  0  0  0  0  0  0  0  0
   -4.8956   18.9651  -32.6365 H   0  0  0  0  0  0  0  0  0  0  0  0
   -5.8061   19.6338  -34.0330 H   0  0  0  0  0  0  0  0  0  0  0  0
   -4.0102   19.6668  -34.0330 H   0  0  0  0  0  0  0  0  0  0  0  0
   -9.2548   19.1755  -32.7004 H   0  0  0  0  0  0  0  0  0  0  0  0
  -10.5454   21.0919  -31.7499 H   0  0  0  0  0  0  0  0  0  0  0  0
   -9.3551   23.2102  -31.1705 H   0  0  0  0  0  0  0  0  0  0  0  0
   -6.2641   24.2033  -32.3421 H   0  0  0  0  0  0  0  0  0  0  0  0
   -7.4483   24.4541  -31.0029 H   0  0  0  0  0  0  0  0  0  0  0  0
   -5.6930   22.6370  -29.8840 H   0  0  0  0  0  0  0  0  0  0  0  0
   -4.5229   22.4614  -28.3545 H   0  0  0  0  0  0  0  0  0  0  0  0
   -2.6497   22.0078  -26.7604 H   0  0  0  0  0  0  0  0  0  0  0  0
   -0.6063   23.4514  -26.8005 H   0  0  0  0  0  0  0  0  0  0  0  0
   -0.4650   25.3348  -28.4409 H   0  0  0  0  0  0  0  0  0  0  0  0
  1  2  1  0
  2  3  1  0
  3  4  2  0
  4  5  1  0
  5  6  2  0
  6  7  1  0
  7  8  2  0
  8  9  1  0
  9 10  1  0
 10 11  1  0
 11 12  2  0
 11 13  1  0
 13 14  2  0
 14 15  1  0
 15 16  2  0
 16 17  1  0
 17 18  2  0
  8  3  1  0
 18 13  1  0
  1 19  1  0
  1 20  1  0
  1 21  1  0
  5 22  1  0
  6 23  1  0
  7 24  1  0
  9 25  1  0
  9 26  1  0
 10 27  1  0
 14 28  1  0
 15 29  1  0
 16 30  1  0
 17 31  1  0
M  END
>  <UniqueID>  (24) 
23

>  <SMILES>  (24) 
CSc1ncccc1CNC(=O)c1ccccn1

>  <Energy>  (24) 
27.799339351964786

>  <Genealogy>  (24) 
CSc1ncccc1CNC(=O)c1ccccn1 (3D coordinates assigned)
CSc1ncccc1CNC(=O)c1ccccn1 (optimized conformer: 27.799339351964786 kcal/mol)

>  <smiles>  (24) 
CSc1ncccc1CNC(=O)c1ccccn1

>  <score_type>  (24) 
oracle

>  <origin>  (24) 
adgpu

>  <m_score__min__energy>  (24) 
-7.2199999999999998

>  <m_primary>  (24) 
energy

$$$$
24:0
     RDKit          3D

 28 30  0  0  0  0  0  0  0  0999 V2000
  -10.5640   21.4520  -31.7450 F   0  0  0  0  0  0  0  0  0  0  0  0
   -9.3530   22.0060  -31.4910 C   0  0  0  0  0  0  0  0  0  0  0  0
   -8.6270   21.6100  -30.3630 C   0  0  0  0  0  0  0  0  0  0  0  0
   -7.3770   22.1800  -30.0990 C   0  0  0  0  0  0  0  0  0  0  0  0
   -6.8460   23.1500  -30.9640 C   0  0  0  0  0  0  0  0  0  0  0  0
   -5.5570   23.7300  -30.6990 N   0  0  0  0  0  0  0  0  0  0  0  0
   -4.3380   23.3320  -31.1460 C   0  0  0  0  0  0  0  0  0  0  0  0
   -4.0500   22.0780  -31.8790 C   0  0  0  0  0  0  0  0  0  0  0  0
   -5.0100   21.5470  -32.7540 C   0  0  0  0  0  0  0  0  0  0  0  0
   -4.7310   20.3710  -33.4520 C   0  0  0  0  0  0  0  0  0  0  0  0
   -3.5300   19.7530  -33.2970 N   0  0  0  0  0  0  0  0  0  0  0  0
   -2.5740   20.2540  -32.4710 C   0  0  0  0  0  0  0  0  0  0  0  0
   -2.8120   21.4290  -31.7540 C   0  0  0  0  0  0  0  0  0  0  0  0
   -3.3780   24.2250  -30.8210 N   0  0  0  0  0  0  0  0  0  0  0  0
   -3.9800   25.1980  -30.1590 N   0  0  0  0  0  0  0  0  0  0  0  0
   -5.2880   24.9030  -30.0860 C   0  0  0  0  0  0  0  0  0  0  0  0
   -6.4090   25.9150  -29.4480 S   0  0  0  0  0  0  0  0  0  0  0  0
   -7.5810   23.5440  -32.0940 C   0  0  0  0  0  0  0  0  0  0  0  0
   -8.8300   22.9720  -32.3550 C   0  0  0  0  0  0  0  0  0  0  0  0
   -9.0392   20.8499  -29.6830 H   0  0  0  0  0  0  0  0  0  0  0  0
   -6.8084   21.8672  -29.2109 H   0  0  0  0  0  0  0  0  0  0  0  0
   -5.9765   22.0545  -32.8890 H   0  0  0  0  0  0  0  0  0  0  0  0
   -5.4848   19.9431  -34.1293 H   0  0  0  0  0  0  0  0  0  0  0  0
   -1.6108   19.7331  -32.3669 H   0  0  0  0  0  0  0  0  0  0  0  0
   -2.0340   21.8429  -31.0956 H   0  0  0  0  0  0  0  0  0  0  0  0
   -3.5040   26.0510  -29.7910 H   0  0  0  0  0  0  0  0  0  0  0  0
   -7.1730   24.3048  -32.7757 H   0  0  0  0  0  0  0  0  0  0  0  0
   -9.4018   23.2829  -33.2418 H   0  0  0  0  0  0  0  0  0  0  0  0
  1  2  1  0
  2  3  2  0
  3  4  1  0
  4  5  2  0
  5  6  1  0
  6  7  1  0
  7  8  1  0
  8  9  2  0
  9 10  1  0
 10 11  2  0
 11 12  1  0
 12 13  2  0
  7 14  2  0
 14 15  1  0
 15 16  1  0
 16 17  2  0
  5 18  1  0
 18 19  2  0
 19  2  1  0
 16  6  1  0
 13  8  1  0
  3 20  1  0
  4 21  1  0
  9 22  1  0
 10 23  1  0
 12 24  1  0
 13 25  1  0
 15 26  1  0
 18 27  1  0
 19 28  1  0
M  END
>  <UniqueID>  (25) 
24

>  <SMILES>  (25) 
Fc1ccc(-n2c(-c3ccncc3)n[nH]c2=S)cc1

>  <Energy>  (25) 
78.04145881424301

>  <Genealogy>  (25) 
Fc1ccc(-n2c(-c3ccncc3)n[nH]c2=S)cc1 (3D coordinates assigned)
Fc1ccc(-n2c(-c3ccncc3)n[nH]c2=S)cc1 (optimized conformer: 78.04145881424301 kcal/mol)

>  <smiles>  (25) 
Fc1ccc(-n2c(-c3ccncc3)n[nH]c2=S)cc1

>  <score_type>  (25) 
oracle

>  <origin>  (25) 
adgpu

>  <m_score__min__energy>  (25) 
-7.1200000000000001

>  <m_primary>  (25) 
energy

$$$$
25:0
     RDKit          3D

 45 47  0  0  0  0  0  0  0  0999 V2000
   -4.0590   24.5290  -26.8360 C   0  0  0  0  0  0  0  0  0  0  0  0
   -3.7010   24.3110  -28.1970 O   0  0  0  0  0  0  0  0  0  0  0  0
   -4.6240   24.1700  -29.2440 C   0  0  0  0  0  0  0  0  0  0  0  0
   -4.8160   25.1670  -30.2200 C   0  0  0  0  0  0  0  0  0  0  0  0
   -5.7420   24.9770  -31.2470 C   0  0  0  0  0  0  0  0  0  0  0  0
   -6.4900   23.7890  -31.3200 C   0  0  0  0  0  0  0  0  0  0  0  0
   -7.4410   23.5580  -32.4630 C   0  0  0  0  0  0  0  0  0  0  0  0
   -8.9820   22.7390  -31.9060 S   0  0  0  0  0  0  0  0  0  0  0  0
   -8.4140   21.0770  -32.2660 C   0  0  0  0  0  0  0  0  0  0  0  0
   -9.1470   20.0190  -31.8450 N   0  0  0  0  0  0  0  0  0  0  0  0
   -8.7190   18.7470  -32.0300 C   0  0  0  0  0  0  0  0  0  0  0  0
   -9.4340   17.7970  -31.6110 O   0  0  0  0  0  0  0  0  0  0  0  0
   -7.4880   18.5010  -32.6650 C   0  0  0  0  0  0  0  0  0  0  0  0
   -6.9760   17.0890  -32.8250 C   0  0  0  0  0  0  0  0  0  0  0  0
   -6.7300   19.6210  -33.0900 C   0  0  0  0  0  0  0  0  0  0  0  0
   -5.3400   19.4810  -33.6740 C   0  0  0  0  0  0  0  0  0  0  0  0
   -4.3260   20.1810  -32.8060 C   0  0  0  0  0  0  0  0  0  0  0  0
   -3.2970   20.9400  -33.3910 C   0  0  0  0  0  0  0  0  0  0  0  0
   -2.3700   21.6100  -32.5880 C   0  0  0  0  0  0  0  0  0  0  0  0
   -2.4550   21.5200  -31.1950 C   0  0  0  0  0  0  0  0  0  0  0  0
   -1.1890   22.4400  -30.1000 Br  0  0  0  0  0  0  0  0  0  0  0  0
   -3.4670   20.7570  -30.6050 C   0  0  0  0  0  0  0  0  0  0  0  0
   -4.3980   20.0870  -31.4060 C   0  0  0  0  0  0  0  0  0  0  0  0
   -7.2250   20.8770  -32.8900 N   0  0  0  0  0  0  0  0  0  0  0  0
   -6.2970   22.7960  -30.3490 C   0  0  0  0  0  0  0  0  0  0  0  0
   -5.3730   22.9900  -29.3170 C   0  0  0  0  0  0  0  0  0  0  0  0
   -3.3046   24.0696  -26.1803 H   0  0  0  0  0  0  0  0  0  0  0  0
   -4.1073   25.6100  -26.6382 H   0  0  0  0  0  0  0  0  0  0  0  0
   -5.0416   24.0758  -26.6382 H   0  0  0  0  0  0  0  0  0  0  0  0
   -4.2339   26.0992  -30.1728 H   0  0  0  0  0  0  0  0  0  0  0  0
   -5.8874   25.7618  -32.0040 H   0  0  0  0  0  0  0  0  0  0  0  0
   -7.6960   24.5273  -32.9162 H   0  0  0  0  0  0  0  0  0  0  0  0
   -6.9470   22.8998  -33.1929 H   0  0  0  0  0  0  0  0  0  0  0  0
   -6.8143   16.6430  -31.8326 H   0  0  0  0  0  0  0  0  0  0  0  0
   -7.7148   16.4917  -33.3795 H   0  0  0  0  0  0  0  0  0  0  0  0
   -6.0261   17.1040  -33.3795 H   0  0  0  0  0  0  0  0  0  0  0  0
   -5.0823   18.4138  -33.7418 H   0  0  0  0  0  0  0  0  0  0  0  0
   -5.3278   19.9401  -34.6736 H   0  0  0  0  0  0  0  0  0  0  0  0
   -3.2213   21.0067  -34.4864 H   0  0  0  0  0  0  0  0  0  0  0  0
   -1.5726   22.2089  -33.0522 H   0  0  0  0  0  0  0  0  0  0  0  0
   -3.5314   20.6833  -29.5094 H   0  0  0  0  0  0  0  0  0  0  0  0
   -5.1898   19.4840  -30.9377 H   0  0  0  0  0  0  0  0  0  0  0  0
   -6.6680   21.7130  -33.1840 H   0  0  0  0  0  0  0  0  0  0  0  0
   -6.8744   21.8610  -30.3990 H   0  0  0  0  0  0  0  0  0  0  0  0
   -5.2338   22.2081  -28.5559 H   0  0  0  0  0  0  0  0  0  0  0  0
  1  2  1  0
  2  3  1  0
  3  4  2  0
  4  5  1  0
  5  6  2  0
  6  7  1  0
  7  8  1  0
  8  9  1  0
  9 10  2  0
 10 11  1  0
 11 12  2  0
 11 13  1  0
 13 14  1  0
 13 15  2  0
 15 16  1  0
 16 17  1  0
 17 18  2  0
 18 19  1  0
 19 20  2  0
 20 21  1  0
 20 22  1  0
 22 23  2  0
 15 24  1  0
  6 25  1  0
 25 26  2  0
 26  3  1  0
 24  9  1  0
 23 17  1  0
  1 27  1  0
  1 28  1  0
  1 29  1  0
  4 30  1  0
  5 31  1  0
  7 32  1  0
  7 33  1  0
 14 34  1  0
 14 35  1  0
 14 36  1  0
 16 37  1  0
 16 38  1  0
 18 39  1  0
 19 40  1  0
 22 41  1  0
 23 42  1  0
 24 43  1  0
 25 44  1  0
 26 45  1  0
M  END
>  <UniqueID>  (26) 
25

>  <SMILES>  (26) 
COc1ccc(CSc2nc(=O)c(C)c(Cc3ccc(Br)cc3)[nH]2)cc1

>  <Energy>  (26) 
41.78749040222339

>  <Genealogy>  (26) 
COc1ccc(CSc2nc(=O)c(C)c(Cc3ccc(Br)cc3)[nH]2)cc1 (3D coordinates assigned)
COc1ccc(CSc2nc(=O)c(C)c(Cc3ccc(Br)cc3)[nH]2)cc1 (optimized conformer: 41.78749040222339 kcal/mol)

>  <smiles>  (26) 
COc1ccc(CSc2nc(=O)c(C)c(Cc3ccc(Br)cc3)[nH]2)cc1

>  <score_type>  (26) 
oracle

>  <origin>  (26) 
adgpu

>  <m_score__min__energy>  (26) 
-9.3900000000000006

>  <m_primary>  (26) 
energy

$$$$
26:0
     RDKit          3D

 48 50  0  0  0  0  0  0  0  0999 V2000
   -9.9800   21.1930  -31.1890 H   0  0  0  0  0  0  0  0  0  0  0  0
   -9.5730   20.6150  -31.9580 N   0  0  0  0  0  0  0  0  0  0  0  0
   -8.3270   20.7040  -32.3010 C   0  0  0  0  0  0  0  0  0  0  0  0
   -7.8580   19.9260  -33.3090 N   0  0  0  0  0  0  0  0  0  0  0  0
   -6.5590   19.9860  -33.7030 C   0  0  0  0  0  0  0  0  0  0  0  0
   -6.0830   19.1870  -34.7480 O   0  0  0  0  0  0  0  0  0  0  0  0
   -5.2170   18.0670  -34.5630 C   0  0  0  0  0  0  0  0  0  0  0  0
   -5.7086   17.1629  -34.9516 H   0  0  0  0  0  0  0  0  0  0  0  0
   -4.2776   18.2544  -35.1038 H   0  0  0  0  0  0  0  0  0  0  0  0
   -4.8970   17.8660  -33.0770 C   0  0  0  0  0  0  0  0  0  0  0  0
   -3.8817   17.4537  -32.9812 H   0  0  0  0  0  0  0  0  0  0  0  0
   -4.9697   18.8397  -32.5703 H   0  0  0  0  0  0  0  0  0  0  0  0
   -5.8570   16.9360  -32.4440 N   0  0  0  0  0  0  0  0  0  0  0  0
   -6.8600   16.4660  -33.4180 C   0  0  0  0  0  0  0  0  0  0  0  0
   -7.7295   16.0586  -32.8813 H   0  0  0  0  0  0  0  0  0  0  0  0
   -7.1804   17.3077  -34.0495 H   0  0  0  0  0  0  0  0  0  0  0  0
   -6.4182   15.6812  -34.0495 H   0  0  0  0  0  0  0  0  0  0  0  0
   -6.5380   17.5880  -31.3150 C   0  0  0  0  0  0  0  0  0  0  0  0
   -6.1328   17.2000  -30.3688 H   0  0  0  0  0  0  0  0  0  0  0  0
   -6.3741   18.6745  -31.3659 H   0  0  0  0  0  0  0  0  0  0  0  0
   -7.6164   17.3770  -31.3659 H   0  0  0  0  0  0  0  0  0  0  0  0
   -5.6850   20.8580  -33.0550 C   0  0  0  0  0  0  0  0  0  0  0  0
   -4.6283   20.9137  -33.3553 H   0  0  0  0  0  0  0  0  0  0  0  0
   -6.1720   21.6630  -32.0150 C   0  0  0  0  0  0  0  0  0  0  0  0
   -5.2720   22.6130  -31.3140 C   0  0  0  0  0  0  0  0  0  0  0  0
   -3.9000   22.3370  -31.1780 C   0  0  0  0  0  0  0  0  0  0  0  0
   -3.4856   21.4077  -31.5959 H   0  0  0  0  0  0  0  0  0  0  0  0
   -3.0590   23.2360  -30.5150 C   0  0  0  0  0  0  0  0  0  0  0  0
   -1.9857   23.0130  -30.4238 H   0  0  0  0  0  0  0  0  0  0  0  0
   -3.5710   24.4160  -29.9670 C   0  0  0  0  0  0  0  0  0  0  0  0
   -2.6920   25.2980  -29.3230 O   0  0  0  0  0  0  0  0  0  0  0  0
   -1.8990   24.9890  -28.2080 C   0  0  0  0  0  0  0  0  0  0  0  0
   -0.6320   24.3890  -28.3380 C   0  0  0  0  0  0  0  0  0  0  0  0
   -0.2437   24.1375  -29.3360 H   0  0  0  0  0  0  0  0  0  0  0  0
    0.1340   24.1120  -27.2010 C   0  0  0  0  0  0  0  0  0  0  0  0
    1.1203   23.6365  -27.3062 H   0  0  0  0  0  0  0  0  0  0  0  0
   -0.3510   24.4380  -25.9320 C   0  0  0  0  0  0  0  0  0  0  0  0
    0.3930   24.1690  -24.8310 F   0  0  0  0  0  0  0  0  0  0  0  0
   -1.6010   25.0510  -25.7980 C   0  0  0  0  0  0  0  0  0  0  0  0
   -1.9808   25.3129  -24.7994 H   0  0  0  0  0  0  0  0  0  0  0  0
   -2.3680   25.3310  -26.9330 C   0  0  0  0  0  0  0  0  0  0  0  0
   -3.3458   25.8229  -26.8241 H   0  0  0  0  0  0  0  0  0  0  0  0
   -4.9380   24.7070  -30.1180 C   0  0  0  0  0  0  0  0  0  0  0  0
   -5.3458   25.6451  -29.7133 H   0  0  0  0  0  0  0  0  0  0  0  0
   -5.7820   23.8100  -30.7800 C   0  0  0  0  0  0  0  0  0  0  0  0
   -6.8522   24.0421  -30.8838 H   0  0  0  0  0  0  0  0  0  0  0  0
   -7.4880   21.5680  -31.6600 N   0  0  0  0  0  0  0  0  0  0  0  0
   -7.8560   22.1480  -30.8720 H   0  0  0  0  0  0  0  0  0  0  0  0
  1  2  1  0
  2  3  2  0
  3  4  1  0
  4  5  2  0
  5  6  1  0
  6  7  1  0
  7  8  1  0
  7  9  1  0
  7 10  1  0
 10 11  1  0
 10 12  1  0
 10 13  1  0
 13 14  1  0
 14 15  1  0
 14 16  1  0
 14 17  1  0
 13 18  1  0
 18 19  1  0
 18 20  1  0
 18 21  1  0
  5 22  1  0
 22 23  1  0
 22 24  2  0
 24 25  1  0
 25 26  2  0
 26 27  1  0
 26 28  1  0
 28 29  1  0
 28 30  2  0
 30 31  1  0
 31 32  1  0
 32 33  2  0
 33 34  1  0
 33 35  1  0
 35 36  1  0
 35 37  2  0
 37 38  1  0
 37 39  1  0
 39 40  1  0
 39 41  2  0
 41 42  1  0
 30 43  1  0
 43 44  1  0
 43 45  2  0
 45 46  1  0
 24 47  1  0
 47 48  1  0
 47  3  1  0
 45 25  1  0
 41 32  1  0
M  END
>  <UniqueID>  (27) 
26

>  <SMILES>  (27) 
[H]/N=c1/nc(OCCN(C)C)cc(-c2ccc(Oc3ccc(F)cc3)cc2)[nH]1

>  <Energy>  (27) 
59.74425898887731

>  <Genealogy>  (27) 
[H]/N=c1/nc(OCCN(C)C)cc(-c2ccc(Oc3ccc(F)cc3)cc2)[nH]1 (cis-trans isomerization)
[H]/N=c1/nc(OCCN(C)C)cc(-c2ccc(Oc3ccc(F)cc3)cc2)[nH]1 (3D coordinates assigned)
[H]/N=c1/nc(OCCN(C)C)cc(-c2ccc(Oc3ccc(F)cc3)cc2)[nH]1 (optimized conformer: 59.74425898887731 kcal/mol)

>  <smiles>  (27) 
CN(C)CCOc1cc(-c2ccc(Oc3ccc(F)cc3)cc2)[nH]c(=N)n1

>  <score_type>  (27) 
oracle

>  <origin>  (27) 
adgpu

>  <m_score__min__energy>  (27) 
-8.0299999999999994

>  <m_primary>  (27) 
energy

$$$$
27:0
     RDKit          3D

 56 58  0  0  0  0  0  0  0  0999 V2000
   -5.1620   24.6280  -29.1110 C   0  0  0  0  0  0  0  0  0  0  0  0
   -4.3450   23.3950  -29.3890 C   0  0  0  0  0  0  0  0  0  0  0  0
   -4.6900   22.5580  -30.4640 C   0  0  0  0  0  0  0  0  0  0  0  0
   -3.9730   21.3770  -30.6980 C   0  0  0  0  0  0  0  0  0  0  0  0
   -4.4420   20.4360  -31.6680 N   0  0  0  0  0  0  0  0  0  0  0  0
   -5.3620   19.3680  -31.2810 C   0  0  0  0  0  0  0  0  0  0  0  0
   -6.7710   19.7410  -31.6580 C   0  0  0  0  0  0  0  0  0  0  0  0
   -7.1790   21.0870  -31.6190 C   0  0  0  0  0  0  0  0  0  0  0  0
   -8.4910   21.4380  -31.9540 C   0  0  0  0  0  0  0  0  0  0  0  0
   -9.4080   20.4480  -32.3160 C   0  0  0  0  0  0  0  0  0  0  0  0
   -9.0170   19.1050  -32.3380 C   0  0  0  0  0  0  0  0  0  0  0  0
   -7.7060   18.7470  -32.0050 C   0  0  0  0  0  0  0  0  0  0  0  0
   -7.3500   17.4370  -32.0290 F   0  0  0  0  0  0  0  0  0  0  0  0
   -3.9230   20.6330  -33.3150 S   0  0  0  0  0  0  0  0  0  0  0  0
   -4.2000   22.0330  -33.7900 O   0  0  0  0  0  0  0  0  0  0  0  0
   -4.6640   19.6610  -34.2000 O   0  0  0  0  0  0  0  0  0  0  0  0
   -2.1840   20.3360  -33.3960 C   0  0  0  0  0  0  0  0  0  0  0  0
   -1.2920   21.2980  -32.9040 C   0  0  0  0  0  0  0  0  0  0  0  0
    0.0790   21.0280  -32.8490 C   0  0  0  0  0  0  0  0  0  0  0  0
    0.5670   19.7880  -33.2800 C   0  0  0  0  0  0  0  0  0  0  0  0
    1.9730   19.4940  -33.1810 C   0  0  0  0  0  0  0  0  0  0  0  0
    3.1030   19.2590  -33.0960 N   0  0  0  0  0  0  0  0  0  0  0  0
   -0.3200   18.8260  -33.7820 C   0  0  0  0  0  0  0  0  0  0  0  0
   -1.6910   19.0990  -33.8360 C   0  0  0  0  0  0  0  0  0  0  0  0
   -2.8920   21.0380  -29.8720 C   0  0  0  0  0  0  0  0  0  0  0  0
   -2.5560   21.8480  -28.7870 C   0  0  0  0  0  0  0  0  0  0  0  0
   -3.2890   23.0250  -28.5190 C   0  0  0  0  0  0  0  0  0  0  0  0
   -3.0380   23.8350  -27.3890 O   0  0  0  0  0  0  0  0  0  0  0  0
   -1.8200   24.5540  -27.0820 C   0  0  0  0  0  0  0  0  0  0  0  0
   -2.1150   25.7100  -26.0860 C   0  0  0  0  0  0  0  0  0  0  0  0
   -0.8710   23.5510  -26.4020 C   0  0  0  0  0  0  0  0  0  0  0  0
   -1.1360   25.0490  -28.3510 C   0  0  0  0  0  0  0  0  0  0  0  0
   -1.6090   26.0430  -28.9710 O   0  0  0  0  0  0  0  0  0  0  0  0
   -0.0030   24.4230  -28.8490 O   0  0  0  0  0  0  0  0  0  0  0  0
   -5.2552   24.7687  -28.0240 H   0  0  0  0  0  0  0  0  0  0  0  0
   -4.6653   25.5043  -29.5529 H   0  0  0  0  0  0  0  0  0  0  0  0
   -6.1627   24.5121  -29.5529 H   0  0  0  0  0  0  0  0  0  0  0  0
   -5.5263   22.8311  -31.1244 H   0  0  0  0  0  0  0  0  0  0  0  0
   -5.0802   18.4391  -31.7984 H   0  0  0  0  0  0  0  0  0  0  0  0
   -5.3064   19.2201  -30.1924 H   0  0  0  0  0  0  0  0  0  0  0  0
   -6.4624   21.8675  -31.3235 H   0  0  0  0  0  0  0  0  0  0  0  0
   -8.8007   22.4933  -31.9324 H   0  0  0  0  0  0  0  0  0  0  0  0
  -10.4383   20.7248  -32.5839 H   0  0  0  0  0  0  0  0  0  0  0  0
   -9.7429   18.3275  -32.6181 H   0  0  0  0  0  0  0  0  0  0  0  0
   -1.6722   22.2709  -32.5591 H   0  0  0  0  0  0  0  0  0  0  0  0
    0.7745   21.7899  -32.4671 H   0  0  0  0  0  0  0  0  0  0  0  0
    0.0619   17.8562  -34.1336 H   0  0  0  0  0  0  0  0  0  0  0  0
   -2.3855   18.3400  -34.2253 H   0  0  0  0  0  0  0  0  0  0  0  0
   -2.3068   20.1302  -30.0802 H   0  0  0  0  0  0  0  0  0  0  0  0
   -1.7147   21.5681  -28.1360 H   0  0  0  0  0  0  0  0  0  0  0  0
   -2.0203   25.3387  -25.0549 H   0  0  0  0  0  0  0  0  0  0  0  0
   -1.3965   26.5268  -26.2491 H   0  0  0  0  0  0  0  0  0  0  0  0
   -3.1370   26.0827  -26.2491 H   0  0  0  0  0  0  0  0  0  0  0  0
   -0.9598   23.6449  -25.3096 H   0  0  0  0  0  0  0  0  0  0  0  0
   -1.1399   22.5284  -26.7052 H   0  0  0  0  0  0  0  0  0  0  0  0
    0.1649   23.7629  -26.7052 H   0  0  0  0  0  0  0  0  0  0  0  0
  1  2  1  0
  2  3  2  0
  3  4  1  0
  4  5  1  0
  5  6  1  0
  6  7  1  0
  7  8  2  0
  8  9  1  0
  9 10  2  0
 10 11  1  0
 11 12  2  0
 12 13  1  0
  5 14  1  0
 14 15  2  0
 14 16  2  0
 14 17  1  0
 17 18  2  0
 18 19  1  0
 19 20  2  0
 20 21  1  0
 21 22  3  0
 20 23  1  0
 23 24  2  0
  4 25  2  0
 25 26  1  0
 26 27  2  0
 27 28  1  0
 28 29  1  0
 29 30  1  0
 29 31  1  0
 29 32  1  0
 32 33  2  0
 32 34  1  0
 27  2  1  0
 12  7  1  0
 24 17  1  0
  1 35  1  0
  1 36  1  0
  1 37  1  0
  3 38  1  0
  6 39  1  0
  6 40  1  0
  8 41  1  0
  9 42  1  0
 10 43  1  0
 11 44  1  0
 18 45  1  0
 19 46  1  0
 23 47  1  0
 24 48  1  0
 25 49  1  0
 26 50  1  0
 30 51  1  0
 30 52  1  0
 30 53  1  0
 31 54  1  0
 31 55  1  0
 31 56  1  0
M  CHG  1  34  -1
M  END
>  <UniqueID>  (28) 
27

>  <SMILES>  (28) 
Cc1cc(N(Cc2ccccc2F)S(=O)(=O)c2ccc(C#N)cc2)ccc1OC(C)(C)C(=O)[O-]

>  <Energy>  (28) 
64.42697134401219

>  <Genealogy>  (28) 
Cc1cc(N(Cc2ccccc2F)S(=O)(=O)c2ccc(C#N)cc2)ccc1OC(C)(C)C(=O)[O-] (protonated)
Cc1cc(N(Cc2ccccc2F)S(=O)(=O)c2ccc(C#N)cc2)ccc1OC(C)(C)C(=O)[O-] (3D coordinates assigned)
Cc1cc(N(Cc2ccccc2F)S(=O)(=O)c2ccc(C#N)cc2)ccc1OC(C)(C)C(=O)[O-] (optimized conformer: 64.42697134401219 kcal/mol)

>  <smiles>  (28) 
Cc1cc(N(Cc2ccccc2F)S(=O)(=O)c2ccc(C#N)cc2)ccc1OC(C)(C)C(=O)O

>  <score_type>  (28) 
oracle

>  <origin>  (28) 
adgpu

>  <m_score__min__energy>  (28) 
-11.31

>  <m_primary>  (28) 
energy

$$$$
28:0
     RDKit          3D

 28 29  0  0  0  0  0  0  0  0999 V2000
   -3.7600   22.1810  -29.2390 C   0  0  0  0  0  0  0  0  0  0  0  0
   -2.8380   23.2830  -28.8190 C   0  0  0  0  0  0  0  0  0  0  0  0
   -2.7450   24.5370  -29.3840 C   0  0  0  0  0  0  0  0  0  0  0  0
   -3.4980   25.0250  -30.5020 N   0  0  0  0  0  0  0  0  0  0  0  0
   -4.9170   25.2160  -30.5300 C   0  0  0  0  0  0  0  0  0  0  0  0
   -5.3720   26.3770  -30.3590 O   0  0  0  0  0  0  0  0  0  0  0  0
   -5.8540   24.1010  -30.8100 C   0  0  0  0  0  0  0  0  0  0  0  0
   -5.8480   23.4730  -32.0670 C   0  0  0  0  0  0  0  0  0  0  0  0
   -6.7260   22.4190  -32.3360 C   0  0  0  0  0  0  0  0  0  0  0  0
   -7.6100   21.9730  -31.3500 C   0  0  0  0  0  0  0  0  0  0  0  0
   -8.7100   20.6490  -31.6900 Cl  0  0  0  0  0  0  0  0  0  0  0  0
   -7.6130   22.5800  -30.0910 C   0  0  0  0  0  0  0  0  0  0  0  0
   -6.7370   23.6340  -29.8180 C   0  0  0  0  0  0  0  0  0  0  0  0
   -1.6950   25.1430  -28.7230 C   0  0  0  0  0  0  0  0  0  0  0  0
   -1.2280   26.2880  -28.9590 O   0  0  0  0  0  0  0  0  0  0  0  0
   -1.1870   24.3100  -27.7940 N   0  0  0  0  0  0  0  0  0  0  0  0
   -1.8840   23.1830  -27.8640 N   0  0  0  0  0  0  0  0  0  0  0  0
   -1.6190   22.0210  -27.0230 C   0  0  0  0  0  0  0  0  0  0  0  0
   -4.1725   21.6879  -28.3464 H   0  0  0  0  0  0  0  0  0  0  0  0
   -4.5813   22.5990  -29.8396 H   0  0  0  0  0  0  0  0  0  0  0  0
   -3.2036   21.4463  -29.8396 H   0  0  0  0  0  0  0  0  0  0  0  0
   -5.1479   23.8130  -32.8444 H   0  0  0  0  0  0  0  0  0  0  0  0
   -6.7210   21.9397  -33.3261 H   0  0  0  0  0  0  0  0  0  0  0  0
   -8.3064   22.2273  -29.3133 H   0  0  0  0  0  0  0  0  0  0  0  0
   -6.7374   24.1015  -28.8223 H   0  0  0  0  0  0  0  0  0  0  0  0
   -1.6853   22.3119  -25.9642 H   0  0  0  0  0  0  0  0  0  0  0  0
   -2.3616   21.2377  -27.2353 H   0  0  0  0  0  0  0  0  0  0  0  0
   -0.6103   21.6371  -27.2353 H   0  0  0  0  0  0  0  0  0  0  0  0
  1  2  1  0
  2  3  2  0
  3  4  1  0
  4  5  1  0
  5  6  2  0
  5  7  1  0
  7  8  2  0
  8  9  1  0
  9 10  2  0
 10 11  1  0
 10 12  1  0
 12 13  2  0
  3 14  1  0
 14 15  2  0
 14 16  1  0
 16 17  1  0
 17 18  1  0
 17  2  1  0
 13  7  1  0
  1 19  1  0
  1 20  1  0
  1 21  1  0
  8 22  1  0
  9 23  1  0
 12 24  1  0
 13 25  1  0
 18 26  1  0
 18 27  1  0
 18 28  1  0
M  CHG  2   4  -1  16  -1
M  END
>  <UniqueID>  (29) 
28

>  <SMILES>  (29) 
Cc1c([N-]C(=O)c2ccc(Cl)cc2)c(=O)[n-]n1C

>  <Energy>  (29) 
66.79449380169058

>  <Genealogy>  (29) 
Cc1c([N-]C(=O)c2ccc(Cl)cc2)c(=O)[n-]n1C (protonated)
Cc1c([N-]C(=O)c2ccc(Cl)cc2)c(=O)[n-]n1C (3D coordinates assigned)
Cc1c([N-]C(=O)c2ccc(Cl)cc2)c(=O)[n-]n1C (optimized conformer: 66.79449380169058 kcal/mol)

>  <smiles>  (29) 
Cc1c(NC(=O)c2ccc(Cl)cc2)c(=O)[nH]n1C

>  <score_type>  (29) 
oracle

>  <origin>  (29) 
adgpu

>  <m_score__min__energy>  (29) 
-9.7300000000000004

>  <m_primary>  (29) 
energy

$$$$
29:0
     RDKit          3D

 34 37  0  0  0  0  0  0  0  0999 V2000
    0.2360   24.3450  -28.6830 O   0  0  0  0  0  0  0  0  0  0  0  0
   -0.7520   24.9970  -28.2510 C   0  0  0  0  0  0  0  0  0  0  0  0
   -1.8110   25.3260  -29.1580 N   0  0  0  0  0  0  0  0  0  0  0  0
   -2.8020   24.4180  -29.6590 C   0  0  0  0  0  0  0  0  0  0  0  0
   -2.5880   23.0300  -29.6710 C   0  0  0  0  0  0  0  0  0  0  0  0
   -3.5800   22.1670  -30.1460 C   0  0  0  0  0  0  0  0  0  0  0  0
   -4.8090   22.6760  -30.6010 C   0  0  0  0  0  0  0  0  0  0  0  0
   -5.8590   21.7640  -31.1060 C   0  0  0  0  0  0  0  0  0  0  0  0
   -7.1650   22.1320  -31.2230 N   0  0  0  0  0  0  0  0  0  0  0  0
   -7.7420   21.0240  -31.7070 C   0  0  0  0  0  0  0  0  0  0  0  0
   -9.0840   20.8280  -32.0230 C   0  0  0  0  0  0  0  0  0  0  0  0
   -9.4600   19.5670  -32.5220 C   0  0  0  0  0  0  0  0  0  0  0  0
   -8.4940   18.5470  -32.6900 C   0  0  0  0  0  0  0  0  0  0  0  0
   -7.1460   18.7830  -32.3600 C   0  0  0  0  0  0  0  0  0  0  0  0
   -6.8120   20.0430  -31.8680 C   0  0  0  0  0  0  0  0  0  0  0  0
   -5.6040   20.4850  -31.4940 N   0  0  0  0  0  0  0  0  0  0  0  0
   -5.0270   24.0640  -30.5620 C   0  0  0  0  0  0  0  0  0  0  0  0
   -4.0330   24.9240  -30.0870 C   0  0  0  0  0  0  0  0  0  0  0  0
   -0.8200   25.3400  -26.8180 C   0  0  0  0  0  0  0  0  0  0  0  0
   -0.6440   24.4490  -25.7640 C   0  0  0  0  0  0  0  0  0  0  0  0
   -0.8150   25.0370  -24.5050 C   0  0  0  0  0  0  0  0  0  0  0  0
   -1.1380   26.3870  -24.5590 C   0  0  0  0  0  0  0  0  0  0  0  0
   -1.2140   26.8460  -26.1730 S   0  0  0  0  0  0  0  0  0  0  0  0
   -1.6352   22.6199  -29.3049 H   0  0  0  0  0  0  0  0  0  0  0  0
   -3.3977   21.0824  -30.1639 H   0  0  0  0  0  0  0  0  0  0  0  0
   -9.8240   21.6305  -31.8874 H   0  0  0  0  0  0  0  0  0  0  0  0
  -10.5109   19.3733  -32.7829 H   0  0  0  0  0  0  0  0  0  0  0  0
   -8.7978   17.5645  -33.0805 H   0  0  0  0  0  0  0  0  0  0  0  0
   -6.3834   18.0004  -32.4861 H   0  0  0  0  0  0  0  0  0  0  0  0
   -5.9865   24.4762  -30.9077 H   0  0  0  0  0  0  0  0  0  0  0  0
   -4.2206   26.0072  -30.0496 H   0  0  0  0  0  0  0  0  0  0  0  0
   -0.3950   23.3870  -25.9059 H   0  0  0  0  0  0  0  0  0  0  0  0
   -0.7040   24.4821  -23.5617 H   0  0  0  0  0  0  0  0  0  0  0  0
   -1.3138   27.0427  -23.6935 H   0  0  0  0  0  0  0  0  0  0  0  0
  1  2  2  0
  2  3  1  0
  3  4  1  0
  4  5  2  0
  5  6  1  0
  6  7  2  0
  7  8  1  0
  8  9  2  0
  9 10  1  0
 10 11  2  0
 11 12  1  0
 12 13  2  0
 13 14  1  0
 14 15  2  0
 15 16  1  0
  7 17  1  0
 17 18  2  0
  2 19  1  0
 19 20  2  0
 20 21  1  0
 21 22  2  0
 22 23  1  0
 18  4  1  0
 23 19  1  0
 16  8  1  0
 15 10  1  0
  5 24  1  0
  6 25  1  0
 11 26  1  0
 12 27  1  0
 13 28  1  0
 14 29  1  0
 17 30  1  0
 18 31  1  0
 20 32  1  0
 21 33  1  0
 22 34  1  0
M  CHG  2   3  -1  16  -1
M  END
>  <UniqueID>  (30) 
29

>  <SMILES>  (30) 
O=C([N-]c1ccc(-c2nc3ccccc3[n-]2)cc1)c1cccs1

>  <Energy>  (30) 
105.65419502224078

>  <Genealogy>  (30) 
O=C([N-]c1ccc(-c2nc3ccccc3[n-]2)cc1)c1cccs1 (protonated)
O=C([N-]c1ccc(-c2nc3ccccc3[n-]2)cc1)c1cccs1 (3D coordinates assigned)
O=C([N-]c1ccc(-c2nc3ccccc3[n-]2)cc1)c1cccs1 (optimized conformer: 105.65419502224078 kcal/mol)

>  <smiles>  (30) 
O=C(Nc1ccc(-c2nc3ccccc3[nH]2)cc1)c1cccs1

>  <score_type>  (30) 
oracle

>  <origin>  (30) 
adgpu

>  <m_score__min__energy>  (30) 
-9.8100000000000005

>  <m_primary>  (30) 
energy

$$$$
30:0
     RDKit          3D

 41 44  0  0  0  0  0  0  0  0999 V2000
   -0.2190   18.0530  -27.4940 C   0  0  0  0  0  0  0  0  0  0  0  0
   -1.5620   18.5250  -27.4520 O   0  0  0  0  0  0  0  0  0  0  0  0
   -2.0200   19.6700  -28.1210 C   0  0  0  0  0  0  0  0  0  0  0  0
   -2.9870   20.4650  -27.4940 C   0  0  0  0  0  0  0  0  0  0  0  0
   -3.4760   21.6140  -28.1200 C   0  0  0  0  0  0  0  0  0  0  0  0
   -3.0060   21.9800  -29.3900 C   0  0  0  0  0  0  0  0  0  0  0  0
   -3.5040   23.1650  -30.0320 N   0  0  0  0  0  0  0  0  0  0  0  0
   -4.5590   23.3030  -30.8680 C   0  0  0  0  0  0  0  0  0  0  0  0
   -5.3470   22.2070  -31.4670 C   0  0  0  0  0  0  0  0  0  0  0  0
   -4.8260   20.9760  -31.8570 C   0  0  0  0  0  0  0  0  0  0  0  0
   -5.7950   20.0770  -32.3360 C   0  0  0  0  0  0  0  0  0  0  0  0
   -5.4590   18.7080  -32.7840 C   0  0  0  0  0  0  0  0  0  0  0  0
   -5.7460   17.6050  -31.9610 C   0  0  0  0  0  0  0  0  0  0  0  0
   -5.4480   16.3080  -32.3880 C   0  0  0  0  0  0  0  0  0  0  0  0
   -4.8720   16.0980  -33.6460 C   0  0  0  0  0  0  0  0  0  0  0  0
   -4.5020   14.4710  -34.1810 Cl  0  0  0  0  0  0  0  0  0  0  0  0
   -4.5980   17.1890  -34.4770 C   0  0  0  0  0  0  0  0  0  0  0  0
   -4.8940   18.4880  -34.0520 C   0  0  0  0  0  0  0  0  0  0  0  0
   -7.0820   20.6210  -32.3130 C   0  0  0  0  0  0  0  0  0  0  0  0
   -8.2710   20.0100  -32.8160 N   0  0  0  0  0  0  0  0  0  0  0  0
   -7.0160   22.1820  -31.6990 S   0  0  0  0  0  0  0  0  0  0  0  0
   -4.7890   24.6020  -31.1480 N   0  0  0  0  0  0  0  0  0  0  0  0
   -3.8850   25.3140  -30.4910 N   0  0  0  0  0  0  0  0  0  0  0  0
   -3.1120   24.4380  -29.8240 C   0  0  0  0  0  0  0  0  0  0  0  0
   -1.9060   24.8980  -28.8150 S   0  0  0  0  0  0  0  0  0  0  0  0
   -2.0320   21.1940  -30.0190 C   0  0  0  0  0  0  0  0  0  0  0  0
   -1.5420   20.0440  -29.3920 C   0  0  0  0  0  0  0  0  0  0  0  0
    0.1556   17.9213  -26.4682 H   0  0  0  0  0  0  0  0  0  0  0  0
   -0.1854   17.0892  -28.0231 H   0  0  0  0  0  0  0  0  0  0  0  0
    0.4101   18.7839  -28.0231 H   0  0  0  0  0  0  0  0  0  0  0  0
   -3.3648   20.1825  -26.5003 H   0  0  0  0  0  0  0  0  0  0  0  0
   -4.2320   22.2337  -27.6155 H   0  0  0  0  0  0  0  0  0  0  0  0
   -3.7556   20.7298  -31.7960 H   0  0  0  0  0  0  0  0  0  0  0  0
   -6.2078   17.7637  -30.9753 H   0  0  0  0  0  0  0  0  0  0  0  0
   -5.6666   15.4508  -31.7342 H   0  0  0  0  0  0  0  0  0  0  0  0
   -4.1485   17.0249  -35.4675 H   0  0  0  0  0  0  0  0  0  0  0  0
   -4.6837   19.3416  -34.7132 H   0  0  0  0  0  0  0  0  0  0  0  0
   -8.3820   19.8590  -33.8430 H   0  0  0  0  0  0  0  0  0  0  0  0
   -9.0070   19.6420  -32.1770 H   0  0  0  0  0  0  0  0  0  0  0  0
   -1.6511   21.4824  -31.0098 H   0  0  0  0  0  0  0  0  0  0  0  0
   -0.7802   19.4290  -29.8935 H   0  0  0  0  0  0  0  0  0  0  0  0
  1  2  1  0
  2  3  1  0
  3  4  2  0
  4  5  1  0
  5  6  2  0
  6  7  1  0
  7  8  1  0
  8  9  1  0
  9 10  2  0
 10 11  1  0
 11 12  1  0
 12 13  2  0
 13 14  1  0
 14 15  2  0
 15 16  1  0
 15 17  1  0
 17 18  2  0
 11 19  2  0
 19 20  1  0
 19 21  1  0
  8 22  2  0
 22 23  1  0
 23 24  1  0
 24 25  2  0
  6 26  1  0
 26 27  2  0
 27  3  1  0
 24  7  1  0
 21  9  1  0
 18 12  1  0
  1 28  1  0
  1 29  1  0
  1 30  1  0
  4 31  1  0
  5 32  1  0
 10 33  1  0
 13 34  1  0
 14 35  1  0
 17 36  1  0
 18 37  1  0
 20 38  1  0
 20 39  1  0
 26 40  1  0
 27 41  1  0
M  CHG  1  23  -1
M  END
>  <UniqueID>  (31) 
30

>  <SMILES>  (31) 
COc1ccc(-n2c(-c3cc(-c4ccc(Cl)cc4)c(N)s3)n[n-]c2=S)cc1

>  <Energy>  (31) 
119.96663789274218

>  <Genealogy>  (31) 
COc1ccc(-n2c(-c3cc(-c4ccc(Cl)cc4)c(N)s3)n[n-]c2=S)cc1 (protonated)
COc1ccc(-n2c(-c3cc(-c4ccc(Cl)cc4)c(N)s3)n[n-]c2=S)cc1 (3D coordinates assigned)
COc1ccc(-n2c(-c3cc(-c4ccc(Cl)cc4)c(N)s3)n[n-]c2=S)cc1 (optimized conformer: 119.96663789274218 kcal/mol)

>  <smiles>  (31) 
COc1ccc(-n2c(-c3cc(-c4ccc(Cl)cc4)c(N)s3)n[nH]c2=S)cc1

>  <score_type>  (31) 
oracle

>  <origin>  (31) 
adgpu

>  <m_score__min__energy>  (31) 
-9.9600000000000009

>  <m_primary>  (31) 
energy

$$$$
31:0
     RDKit          3D

 38 39  0  0  0  0  0  0  0  0999 V2000
   -2.4540   25.2900  -26.6340 C   0  0  0  0  0  0  0  0  0  0  0  0
   -1.3560   25.6890  -27.6080 C   0  0  0  0  0  0  0  0  0  0  0  0
   -1.8100   25.6380  -28.9460 O   0  0  0  0  0  0  0  0  0  0  0  0
   -2.1590   24.3700  -29.4430 C   0  0  0  0  0  0  0  0  0  0  0  0
   -1.4400   23.2350  -29.0650 C   0  0  0  0  0  0  0  0  0  0  0  0
   -1.7430   21.9830  -29.5230 C   0  0  0  0  0  0  0  0  0  0  0  0
   -1.0110   20.7500  -29.1400 C   0  0  0  0  0  0  0  0  0  0  0  0
   -1.7170   20.0180  -28.0770 C   0  0  0  0  0  0  0  0  0  0  0  0
   -2.9750   20.4530  -27.6830 C   0  0  0  0  0  0  0  0  0  0  0  0
   -3.6850   19.8430  -26.7160 N   0  0  0  0  0  0  0  0  0  0  0  0
   -3.1700   18.7530  -26.0830 C   0  0  0  0  0  0  0  0  0  0  0  0
   -3.8490   18.1620  -25.1500 N   0  0  0  0  0  0  0  0  0  0  0  0
   -1.9540   18.3190  -26.4530 N   0  0  0  0  0  0  0  0  0  0  0  0
   -1.2220   18.9150  -27.4200 C   0  0  0  0  0  0  0  0  0  0  0  0
   -0.0690   18.4560  -27.7360 N   0  0  0  0  0  0  0  0  0  0  0  0
   -2.8170   21.8290  -30.4060 C   0  0  0  0  0  0  0  0  0  0  0  0
   -3.5280   22.9670  -30.7780 C   0  0  0  0  0  0  0  0  0  0  0  0
   -3.2180   24.2210  -30.3130 C   0  0  0  0  0  0  0  0  0  0  0  0
   -3.9260   25.3380  -30.6860 O   0  0  0  0  0  0  0  0  0  0  0  0
   -5.3250   25.4080  -30.4110 C   0  0  0  0  0  0  0  0  0  0  0  0
   -2.0945   25.4206  -25.6026 H   0  0  0  0  0  0  0  0  0  0  0  0
   -3.3375   25.9245  -26.7975 H   0  0  0  0  0  0  0  0  0  0  0  0
   -2.7240   24.2363  -26.7975 H   0  0  0  0  0  0  0  0  0  0  0  0
   -1.0301   26.7144  -27.3795 H   0  0  0  0  0  0  0  0  0  0  0  0
   -0.5216   24.9807  -27.4982 H   0  0  0  0  0  0  0  0  0  0  0  0
   -0.5952   23.3526  -28.3704 H   0  0  0  0  0  0  0  0  0  0  0  0
   -0.9183   20.0996  -30.0223 H   0  0  0  0  0  0  0  0  0  0  0  0
   -0.0186   21.0382  -28.7631 H   0  0  0  0  0  0  0  0  0  0  0  0
   -3.4093   21.3322  -28.1815 H   0  0  0  0  0  0  0  0  0  0  0  0
   -4.6270   20.2120  -26.4580 H   0  0  0  0  0  0  0  0  0  0  0  0
   -4.7950   18.5370  -24.8950 H   0  0  0  0  0  0  0  0  0  0  0  0
   -1.5360   17.4800  -25.9780 H   0  0  0  0  0  0  0  0  0  0  0  0
    0.3300   17.6190  -27.2530 H   0  0  0  0  0  0  0  0  0  0  0  0
   -3.0919   20.8376  -30.7952 H   0  0  0  0  0  0  0  0  0  0  0  0
   -4.3732   22.8567  -31.4733 H   0  0  0  0  0  0  0  0  0  0  0  0
   -5.4848   25.4160  -29.3227 H   0  0  0  0  0  0  0  0  0  0  0  0
   -5.7392   26.3280  -30.8492 H   0  0  0  0  0  0  0  0  0  0  0  0
   -5.8290   24.5340  -30.8492 H   0  0  0  0  0  0  0  0  0  0  0  0
  1  2  1  0
  2  3  1  0
  3  4  1  0
  4  5  2  0
  5  6  1  0
  6  7  1  0
  7  8  1  0
  8  9  2  0
  9 10  1  0
 10 11  1  0
 11 12  2  3
 11 13  1  0
 13 14  1  0
 14 15  2  3
  6 16  2  0
 16 17  1  0
 17 18  2  0
 18 19  1  0
 19 20  1  0
 18  4  1  0
 14  8  1  0
  1 21  1  0
  1 22  1  0
  1 23  1  0
  2 24  1  0
  2 25  1  0
  5 26  1  0
  7 27  1  0
  7 28  1  0
  9 29  1  0
 10 30  1  0
 12 31  1  0
 13 32  1  0
 15 33  1  0
 16 34  1  0
 17 35  1  0
 20 36  1  0
 20 37  1  0
 20 38  1  0
M  END
>  <smiles>  (32) 
CCOc1cc(Cc2c[nH]c(=N)[nH]c2=N)ccc1OC

>  <score_type>  (32) 
oracle

>  <origin>  (32) 
adgpu

>  <m_score__min__energy>  (32) 
-7.6399999999999997

>  <m_primary>  (32) 
energy

$$$$
32:0
     RDKit          3D

 49 51  0  0  0  0  0  0  0  0999 V2000
   -1.8960   21.5520  -32.8040 C   0  0  0  0  0  0  0  0  0  0  0  0
   -3.0070   20.5960  -32.3570 C   0  0  0  0  0  0  0  0  0  0  0  0
   -3.1950   20.6160  -30.8350 C   0  0  0  0  0  0  0  0  0  0  0  0
   -4.2670   20.9350  -33.0200 N   0  0  0  0  0  0  0  0  0  0  0  0
   -4.6950   19.8040  -33.7660 C   0  0  0  0  0  0  0  0  0  0  0  0
   -5.7980   19.7580  -34.3760 O   0  0  0  0  0  0  0  0  0  0  0  0
   -3.7820   18.7180  -33.7120 N   0  0  0  0  0  0  0  0  0  0  0  0
   -4.1370   17.3130  -33.9010 C   0  0  0  0  0  0  0  0  0  0  0  0
   -5.5470   17.0890  -33.4550 C   0  0  0  0  0  0  0  0  0  0  0  0
   -6.3380   16.4300  -34.1820 O   0  0  0  0  0  0  0  0  0  0  0  0
   -5.9920   17.6570  -32.2190 N   0  0  0  0  0  0  0  0  0  0  0  0
   -7.0610   18.6010  -32.0740 C   0  0  0  0  0  0  0  0  0  0  0  0
   -8.3730   18.1820  -32.3200 C   0  0  0  0  0  0  0  0  0  0  0  0
   -9.4420   19.0690  -32.1500 C   0  0  0  0  0  0  0  0  0  0  0  0
   -9.2070   20.3770  -31.7190 C   0  0  0  0  0  0  0  0  0  0  0  0
   -7.8990   20.8020  -31.4480 C   0  0  0  0  0  0  0  0  0  0  0  0
   -7.5810   22.4410  -30.8880 S   0  0  0  0  0  0  0  0  0  0  0  0
   -7.8300   22.5030  -29.4070 O   0  0  0  0  0  0  0  0  0  0  0  0
   -8.4970   23.4110  -31.5820 O   0  0  0  0  0  0  0  0  0  0  0  0
   -5.9200   22.8550  -31.2340 N   0  0  0  0  0  0  0  0  0  0  0  0
   -5.8320   24.1350  -31.9710 C   0  0  0  0  0  0  0  0  0  0  0  0
   -5.3500   25.2890  -31.0740 C   0  0  0  0  0  0  0  0  0  0  0  0
   -4.0790   25.0490  -30.4890 O   0  0  0  0  0  0  0  0  0  0  0  0
   -3.8490   23.6850  -30.1560 C   0  0  0  0  0  0  0  0  0  0  0  0
   -5.1300   22.8500  -29.9880 C   0  0  0  0  0  0  0  0  0  0  0  0
   -6.8300   19.9120  -31.6170 C   0  0  0  0  0  0  0  0  0  0  0  0
   -2.7530   19.1920  -32.8460 C   0  0  0  0  0  0  0  0  0  0  0  0
   -1.7600   18.4900  -32.5090 O   0  0  0  0  0  0  0  0  0  0  0  0
   -1.4008   21.9781  -31.9190 H   0  0  0  0  0  0  0  0  0  0  0  0
   -1.1590   21.0013  -33.4070 H   0  0  0  0  0  0  0  0  0  0  0  0
   -2.3306   22.3629  -33.4070 H   0  0  0  0  0  0  0  0  0  0  0  0
   -2.2165   20.5119  -30.3433 H   0  0  0  0  0  0  0  0  0  0  0  0
   -3.6566   21.5683  -30.5350 H   0  0  0  0  0  0  0  0  0  0  0  0
   -3.8467   19.7821  -30.5350 H   0  0  0  0  0  0  0  0  0  0  0  0
   -4.8040   21.8260  -32.8990 H   0  0  0  0  0  0  0  0  0  0  0  0
   -4.0435   17.0515  -34.9654 H   0  0  0  0  0  0  0  0  0  0  0  0
   -3.4604   16.6814  -33.3066 H   0  0  0  0  0  0  0  0  0  0  0  0
   -8.5653   17.1500  -32.6487 H   0  0  0  0  0  0  0  0  0  0  0  0
  -10.4698   18.7356  -32.3562 H   0  0  0  0  0  0  0  0  0  0  0  0
  -10.0488   21.0737  -31.5923 H   0  0  0  0  0  0  0  0  0  0  0  0
   -5.1253   24.0157  -32.8055 H   0  0  0  0  0  0  0  0  0  0  0  0
   -6.8397   24.3865  -32.3334 H   0  0  0  0  0  0  0  0  0  0  0  0
   -5.2876   26.2028  -31.6832 H   0  0  0  0  0  0  0  0  0  0  0  0
   -6.0745   25.3890  -30.2523 H   0  0  0  0  0  0  0  0  0  0  0  0
   -3.2450   23.2321  -30.9560 H   0  0  0  0  0  0  0  0  0  0  0  0
   -3.3396   23.6802  -29.1811 H   0  0  0  0  0  0  0  0  0  0  0  0
   -4.8563   21.8144  -29.7376 H   0  0  0  0  0  0  0  0  0  0  0  0
   -5.7363   23.2888  -29.1818 H   0  0  0  0  0  0  0  0  0  0  0  0
   -5.8045   20.2398  -31.3912 H   0  0  0  0  0  0  0  0  0  0  0  0
  1  2  1  0
  2  3  1  0
  2  4  1  0
  4  5  1  0
  5  6  2  0
  5  7  1  0
  7  8  1  0
  8  9  1  0
  9 10  2  0
  9 11  1  0
 11 12  1  0
 12 13  2  0
 13 14  1  0
 14 15  2  0
 15 16  1  0
 16 17  1  0
 17 18  2  0
 17 19  2  0
 17 20  1  0
 20 21  1  0
 21 22  1  0
 22 23  1  0
 23 24  1  0
 24 25  1  0
 16 26  2  0
  7 27  1  0
 27 28  2  0
 27  2  1  0
 26 12  1  0
 25 20  1  0
  1 29  1  0
  1 30  1  0
  1 31  1  0
  3 32  1  0
  3 33  1  0
  3 34  1  0
  4 35  1  0
  8 36  1  0
  8 37  1  0
 13 38  1  0
 14 39  1  0
 15 40  1  0
 21 41  1  0
 21 42  1  0
 22 43  1  0
 22 44  1  0
 24 45  1  0
 24 46  1  0
 25 47  1  0
 25 48  1  0
 26 49  1  0
M  CHG  1  11  -1
M  END
>  <UniqueID>  (33) 
31

>  <SMILES>  (33) 
CC1(C)NC(=O)N(CC(=O)[N-]c2cccc(S(=O)(=O)N3CCOCC3)c2)C1=O

>  <Energy>  (33) 
76.26112165848507

>  <Genealogy>  (33) 
CC1(C)NC(=O)N(CC(=O)[N-]c2cccc(S(=O)(=O)N3CCOCC3)c2)C1=O (protonated)
CC1(C)NC(=O)N(CC(=O)[N-]c2cccc(S(=O)(=O)N3CCOCC3)c2)C1=O (3D coordinates assigned)
CC1(C)NC(=O)N(CC(=O)[N-]c2cccc(S(=O)(=O)N3CCOCC3)c2)C1=O (nonaromatic ring conformer: 76.26112165848507 kcal/mol)

>  <smiles>  (33) 
CC1(C)NC(=O)N(CC(=O)Nc2cccc(S(=O)(=O)N3CCOCC3)c2)C1=O

>  <score_type>  (33) 
oracle

>  <origin>  (33) 
adgpu

>  <m_score__min__energy>  (33) 
-11.01

>  <m_primary>  (33) 
energy

$$$$
33:0
     RDKit          3D

 30 32  0  0  0  0  0  0  0  0999 V2000
   -0.9580   25.9430  -28.9050 O   0  0  0  0  0  0  0  0  0  0  0  0
   -1.9910   25.2960  -28.5890 C   0  0  0  0  0  0  0  0  0  0  0  0
   -2.8360   24.8630  -29.5610 N   0  0  0  0  0  0  0  0  0  0  0  0
   -3.9630   24.1600  -29.2600 C   0  0  0  0  0  0  0  0  0  0  0  0
   -4.8700   23.6980  -30.3400 C   0  0  0  0  0  0  0  0  0  0  0  0
   -6.1450   24.2690  -30.4980 C   0  0  0  0  0  0  0  0  0  0  0  0
   -6.9840   23.8150  -31.5190 C   0  0  0  0  0  0  0  0  0  0  0  0
   -6.5680   22.8310  -32.3570 N   0  0  0  0  0  0  0  0  0  0  0  0
   -5.3360   22.2630  -32.2420 C   0  0  0  0  0  0  0  0  0  0  0  0
   -4.9310   21.2330  -33.1010 O   0  0  0  0  0  0  0  0  0  0  0  0
   -5.5270   19.9660  -33.1840 C   0  0  0  0  0  0  0  0  0  0  0  0
   -4.8960   18.9810  -33.9580 C   0  0  0  0  0  0  0  0  0  0  0  0
   -5.4600   17.7060  -34.0760 C   0  0  0  0  0  0  0  0  0  0  0  0
   -6.6640   17.4110  -33.4310 C   0  0  0  0  0  0  0  0  0  0  0  0
   -7.2110   16.1750  -33.5490 F   0  0  0  0  0  0  0  0  0  0  0  0
   -7.3110   18.3920  -32.6760 C   0  0  0  0  0  0  0  0  0  0  0  0
   -6.7500   19.6670  -32.5550 C   0  0  0  0  0  0  0  0  0  0  0  0
   -4.4720   22.6820  -31.2260 C   0  0  0  0  0  0  0  0  0  0  0  0
   -4.2480   23.8850  -27.9570 N   0  0  0  0  0  0  0  0  0  0  0  0
   -3.4320   24.2990  -26.9540 C   0  0  0  0  0  0  0  0  0  0  0  0
   -2.2740   25.0200  -27.2490 C   0  0  0  0  0  0  0  0  0  0  0  0
   -1.1210   25.6050  -25.8380 Br  0  0  0  0  0  0  0  0  0  0  0  0
   -6.4803   25.0689  -29.8214 H   0  0  0  0  0  0  0  0  0  0  0  0
   -7.9840   24.2559  -31.6442 H   0  0  0  0  0  0  0  0  0  0  0  0
   -3.9529   19.2121  -34.4749 H   0  0  0  0  0  0  0  0  0  0  0  0
   -4.9552   16.9352  -34.6770 H   0  0  0  0  0  0  0  0  0  0  0  0
   -8.2632   18.1612  -32.1759 H   0  0  0  0  0  0  0  0  0  0  0  0
   -7.2664   20.4392  -31.9660 H   0  0  0  0  0  0  0  0  0  0  0  0
   -3.4809   22.2167  -31.1200 H   0  0  0  0  0  0  0  0  0  0  0  0
   -3.6836   24.0661  -25.9088 H   0  0  0  0  0  0  0  0  0  0  0  0
  1  2  2  0
  2  3  1  0
  3  4  2  0
  4  5  1  0
  5  6  2  0
  6  7  1  0
  7  8  2  0
  8  9  1  0
  9 10  1  0
 10 11  1  0
 11 12  2  0
 12 13  1  0
 13 14  2  0
 14 15  1  0
 14 16  1  0
 16 17  2  0
  9 18  2  0
  4 19  1  0
 19 20  1  0
 20 21  2  0
 21 22  1  0
 21  2  1  0
 18  5  1  0
 17 11  1  0
  6 23  1  0
  7 24  1  0
 12 25  1  0
 13 26  1  0
 16 27  1  0
 17 28  1  0
 18 29  1  0
 20 30  1  0
M  CHG  1  19  -1
M  END
>  <UniqueID>  (34) 
32

>  <SMILES>  (34) 
O=c1nc(-c2ccnc(Oc3ccc(F)cc3)c2)[n-]cc1Br

>  <Energy>  (34) 
41.769421871618746

>  <Genealogy>  (34) 
O=c1nc(-c2ccnc(Oc3ccc(F)cc3)c2)[n-]cc1Br (protonated)
O=c1nc(-c2ccnc(Oc3ccc(F)cc3)c2)[n-]cc1Br (3D coordinates assigned)
O=c1nc(-c2ccnc(Oc3ccc(F)cc3)c2)[n-]cc1Br (optimized conformer: 41.769421871618746 kcal/mol)

>  <smiles>  (34) 
O=c1nc(-c2ccnc(Oc3ccc(F)cc3)c2)[nH]cc1Br

>  <score_type>  (34) 
oracle

>  <origin>  (34) 
adgpu

>  <m_score__min__energy>  (34) 
-8.6099999999999994

>  <m_primary>  (34) 
energy

$$$$
34:0
     RDKit          3D

 44 47  0  0  1  0  0  0  0  0999 V2000
   -0.5020   24.3020  -24.3910 C   0  0  0  0  0  0  0  0  0  0  0  0
   -0.3520   23.6760  -25.6690 O   0  0  0  0  0  0  0  0  0  0  0  0
   -1.0480   24.1710  -26.7640 C   0  0  0  0  0  0  0  0  0  0  0  0
   -2.3210   23.7510  -27.0880 C   0  0  0  0  0  0  0  0  0  0  0  0
   -2.9360   24.3070  -28.2030 C   0  0  0  0  0  0  0  0  0  0  0  0
   -4.1240   23.9240  -28.5160 N   0  0  0  0  0  0  0  0  0  0  0  0
   -4.9720   24.5680  -29.8990 S   0  0  0  0  0  0  0  0  0  0  0  0
   -6.0630   25.4380  -29.4020 O   0  0  0  0  0  0  0  0  0  0  0  0
   -4.0240   25.2890  -30.8160 O   0  0  0  0  0  0  0  0  0  0  0  0
   -5.6570   23.1870  -30.7220 C   0  0  0  0  0  0  0  0  0  0  0  0
   -4.8900   22.1770  -31.2670 C   0  0  0  0  0  0  0  0  0  0  0  0
   -5.4310   21.0880  -31.9160 C   0  0  0  0  0  0  0  0  0  0  0  0
   -6.7940   20.9790  -32.0410 C   0  0  0  0  0  0  0  0  0  0  0  0
   -7.3280   19.8880  -32.6790 C   0  0  0  0  0  0  0  0  0  0  0  0
   -6.5590   18.8060  -33.2590 C   0  0  0  0  0  0  0  0  0  0  0  0
   -6.1160   18.9110  -34.5800 C   0  0  0  0  0  0  0  0  0  0  0  0
   -5.3590   17.9310  -35.1780 C   0  0  0  0  0  0  0  0  0  0  0  0
   -5.0070   16.7940  -34.4790 C   0  0  0  0  0  0  0  0  0  0  0  0
   -4.2600   15.8660  -35.1260 F   0  0  0  0  0  0  0  0  0  0  0  0
   -5.4250   16.6590  -33.1820 C   0  0  0  0  0  0  0  0  0  0  0  0
   -4.9870   15.2170  -32.2760 Cl  0  0  0  0  0  0  0  0  0  0  0  0
   -6.1910   17.6620  -32.5920 C   0  0  0  0  0  0  0  0  0  0  0  0
   -8.6740   19.8250  -32.7580 N   0  0  0  0  0  0  0  0  0  0  0  0
   -9.4690   20.7910  -32.2370 C   0  0  0  0  0  0  0  0  0  0  0  0
   -8.9270   21.9040  -31.5880 C   0  0  0  0  0  0  0  0  0  0  0  0
   -7.5610   21.9860  -31.4970 C   0  0  0  0  0  0  0  0  0  0  0  0
   -7.0260   23.0770  -30.8470 C   0  0  0  0  0  0  0  0  0  0  0  0
   -2.3260   25.2290  -28.9600 N   0  0  0  0  0  0  0  0  0  0  0  0
   -1.0760   25.6190  -28.6140 C   0  0  0  0  0  0  0  0  0  0  0  0
   -0.4430   25.0990  -27.5300 N   0  0  0  0  0  0  0  0  0  0  0  0
   -0.3246   23.5617  -23.5970 H   0  0  0  0  0  0  0  0  0  0  0  0
    0.2251   25.1221  -24.2968 H   0  0  0  0  0  0  0  0  0  0  0  0
   -1.5218   24.7035  -24.2968 H   0  0  0  0  0  0  0  0  0  0  0  0
   -2.8369   22.9943  -26.4786 H   0  0  0  0  0  0  0  0  0  0  0  0
   -3.7956   22.2444  -31.1792 H   0  0  0  0  0  0  0  0  0  0  0  0
   -4.7739   20.3099  -32.3318 H   0  0  0  0  0  0  0  0  0  0  0  0
   -6.3814   19.8068  -35.1606 H   0  0  0  0  0  0  0  0  0  0  0  0
   -5.0316   18.0541  -36.2209 H   0  0  0  0  0  0  0  0  0  0  0  0
   -6.5148   17.5330  -31.5487 H   0  0  0  0  0  0  0  0  0  0  0  0
  -10.5613   20.6974  -32.3265 H   0  0  0  0  0  0  0  0  0  0  0  0
   -9.5736   22.6869  -31.1649 H   0  0  0  0  0  0  0  0  0  0  0  0
   -7.6852   23.8534  -30.4315 H   0  0  0  0  0  0  0  0  0  0  0  0
   -0.5609   26.3748  -29.2252 H   0  0  0  0  0  0  0  0  0  0  0  0
    0.5240   25.4100  -27.2760 H   0  0  0  0  0  0  0  0  0  0  0  0
  1  2  1  0
  2  3  1  0
  3  4  2  0
  4  5  1  0
  5  6  2  0
  6  7  1  0
  7  8  2  0
  7  9  2  0
  7 10  1  0
 10 11  2  0
 11 12  1  0
 12 13  2  0
 13 14  1  0
 14 15  1  0
 15 16  2  0
 16 17  1  0
 17 18  2  0
 18 19  1  0
 18 20  1  0
 20 21  1  0
 20 22  2  0
 14 23  2  0
 23 24  1  0
 24 25  2  0
 25 26  1  0
 26 27  2  0
  5 28  1  0
 28 29  2  0
 29 30  1  0
 30  3  1  0
 27 10  1  0
 26 13  1  0
 22 15  1  0
  1 31  1  0
  1 32  1  0
  1 33  1  0
  4 34  1  0
 11 35  1  0
 12 36  1  0
 16 37  1  0
 17 38  1  0
 22 39  1  0
 24 40  1  0
 25 41  1  0
 27 42  1  0
 29 43  1  0
 30 44  1  0
M  END
>  <smiles>  (35) 
COc1cc(=NS(=O)(=O)c2ccc3c(-c4ccc(F)c(Cl)c4)nccc3c2)nc[nH]1

>  <score_type>  (35) 
oracle

>  <origin>  (35) 
adgpu

>  <m_score__min__energy>  (35) 
-10.81

>  <m_primary>  (35) 
energy

$$$$
35:0
     RDKit          3D

 17 18  0  0  0  0  0  0  0  0999 V2000
   -1.7990   23.6040  -27.5980 S   0  0  0  0  0  0  0  0  0  0  0  0
   -2.8780   23.9220  -28.7830 C   0  0  0  0  0  0  0  0  0  0  0  0
   -3.9950   23.2010  -28.9870 N   0  0  0  0  0  0  0  0  0  0  0  0
   -4.5430   23.8360  -30.0500 C   0  0  0  0  0  0  0  0  0  0  0  0
   -5.8140   23.4280  -30.6850 C   0  0  0  0  0  0  0  0  0  0  0  0
   -6.7680   22.6910  -29.9650 C   0  0  0  0  0  0  0  0  0  0  0  0
   -7.9630   22.3170  -30.5840 C   0  0  0  0  0  0  0  0  0  0  0  0
   -8.2000   22.6640  -31.8770 N   0  0  0  0  0  0  0  0  0  0  0  0
   -7.2960   23.3770  -32.5990 C   0  0  0  0  0  0  0  0  0  0  0  0
   -6.0890   23.7720  -32.0190 C   0  0  0  0  0  0  0  0  0  0  0  0
   -3.7990   24.8840  -30.4660 N   0  0  0  0  0  0  0  0  0  0  0  0
   -2.7540   24.9280  -29.6610 N   0  0  0  0  0  0  0  0  0  0  0  0
   -6.5753   22.4097  -28.9192 H   0  0  0  0  0  0  0  0  0  0  0  0
   -8.7140   21.7404  -30.0241 H   0  0  0  0  0  0  0  0  0  0  0  0
   -7.5159   23.6437  -33.6433 H   0  0  0  0  0  0  0  0  0  0  0  0
   -5.3574   24.3494  -32.6033 H   0  0  0  0  0  0  0  0  0  0  0  0
   -1.9830   25.6300  -29.7190 H   0  0  0  0  0  0  0  0  0  0  0  0
  1  2  2  0
  2  3  1  0
  3  4  1  0
  4  5  1  0
  5  6  2  0
  6  7  1  0
  7  8  2  0
  8  9  1  0
  9 10  2  0
  4 11  2  0
 11 12  1  0
 12  2  1  0
 10  5  1  0
  6 13  1  0
  7 14  1  0
  9 15  1  0
 10 16  1  0
 12 17  1  0
M  CHG  1   3  -1
M  END
>  <UniqueID>  (36) 
33

>  <SMILES>  (36) 
S=c1[n-]c(-c2ccncc2)n[nH]1

>  <Energy>  (36) 
51.97059423233879

>  <Genealogy>  (36) 
S=c1[n-]c(-c2ccncc2)n[nH]1 (protonated)
S=c1[n-]c(-c2ccncc2)n[nH]1 (3D coordinates assigned)
S=c1[n-]c(-c2ccncc2)n[nH]1 (optimized conformer: 51.97059423233879 kcal/mol)

>  <smiles>  (36) 
S=c1[nH]nc(-c2ccncc2)[nH]1

>  <score_type>  (36) 
oracle

>  <origin>  (36) 
adgpu

>  <m_score__min__energy>  (36) 
-6.8300000000000001

>  <m_primary>  (36) 
energy

$$$$
36:0
     RDKit          3D

 43 45  0  0  0  0  0  0  0  0999 V2000
   -6.8530   17.6810  -30.8470 C   0  0  0  0  0  0  0  0  0  0  0  0
   -6.7360   18.6170  -31.9670 N   0  0  0  0  0  0  0  0  0  0  0  0
   -5.6870   18.4580  -32.9460 C   0  0  0  0  0  0  0  0  0  0  0  0
   -4.4570   19.1260  -32.7920 C   0  0  0  0  0  0  0  0  0  0  0  0
   -3.4430   18.9740  -33.7440 C   0  0  0  0  0  0  0  0  0  0  0  0
   -3.6480   18.1640  -34.8630 C   0  0  0  0  0  0  0  0  0  0  0  0
   -4.8660   17.5030  -35.0310 C   0  0  0  0  0  0  0  0  0  0  0  0
   -5.8820   17.6480  -34.0820 C   0  0  0  0  0  0  0  0  0  0  0  0
   -7.8650   19.9400  -32.0750 S   0  0  0  0  0  0  0  0  0  0  0  0
   -8.3750   20.0430  -33.4860 O   0  0  0  0  0  0  0  0  0  0  0  0
   -9.0290   19.6760  -31.1630 O   0  0  0  0  0  0  0  0  0  0  0  0
   -7.0990   21.4570  -31.6150 C   0  0  0  0  0  0  0  0  0  0  0  0
   -6.0290   21.9790  -32.3530 C   0  0  0  0  0  0  0  0  0  0  0  0
   -5.4280   23.1810  -31.9720 C   0  0  0  0  0  0  0  0  0  0  0  0
   -5.8850   23.8820  -30.8410 C   0  0  0  0  0  0  0  0  0  0  0  0
   -5.2440   25.1540  -30.4320 C   0  0  0  0  0  0  0  0  0  0  0  0
   -5.9580   26.1520  -30.1440 O   0  0  0  0  0  0  0  0  0  0  0  0
   -3.8140   25.2660  -30.4200 N   0  0  0  0  0  0  0  0  0  0  0  0
   -2.8930   24.4080  -29.7310 C   0  0  0  0  0  0  0  0  0  0  0  0
   -2.6240   23.0970  -30.1670 C   0  0  0  0  0  0  0  0  0  0  0  0
   -1.7020   22.3000  -29.4780 C   0  0  0  0  0  0  0  0  0  0  0  0
   -1.3750   20.6660  -30.0240 Cl  0  0  0  0  0  0  0  0  0  0  0  0
   -1.0330   22.8110  -28.3610 C   0  0  0  0  0  0  0  0  0  0  0  0
   -1.2780   24.1210  -27.9380 C   0  0  0  0  0  0  0  0  0  0  0  0
   -0.4280   24.7660  -26.5450 Cl  0  0  0  0  0  0  0  0  0  0  0  0
   -2.1990   24.9180  -28.6270 C   0  0  0  0  0  0  0  0  0  0  0  0
   -6.9610   23.3530  -30.1040 C   0  0  0  0  0  0  0  0  0  0  0  0
   -7.5610   22.1500  -30.4900 C   0  0  0  0  0  0  0  0  0  0  0  0
   -6.7839   18.2337  -29.8985 H   0  0  0  0  0  0  0  0  0  0  0  0
   -7.8227   17.1645  -30.9006 H   0  0  0  0  0  0  0  0  0  0  0  0
   -6.0403   16.9417  -30.9006 H   0  0  0  0  0  0  0  0  0  0  0  0
   -4.2922   19.7719  -31.9170 H   0  0  0  0  0  0  0  0  0  0  0  0
   -2.4826   19.4935  -33.6108 H   0  0  0  0  0  0  0  0  0  0  0  0
   -2.8504   18.0470  -35.6114 H   0  0  0  0  0  0  0  0  0  0  0  0
   -5.0268   16.8659  -35.9132 H   0  0  0  0  0  0  0  0  0  0  0  0
   -6.8400   17.1262  -34.2231 H   0  0  0  0  0  0  0  0  0  0  0  0
   -5.6599   21.4393  -33.2376 H   0  0  0  0  0  0  0  0  0  0  0  0
   -4.5905   23.5828  -32.5611 H   0  0  0  0  0  0  0  0  0  0  0  0
   -3.1401   22.6972  -31.0523 H   0  0  0  0  0  0  0  0  0  0  0  0
   -0.3141   22.1822  -27.8153 H   0  0  0  0  0  0  0  0  0  0  0  0
   -2.3790   25.9524  -28.2990 H   0  0  0  0  0  0  0  0  0  0  0  0
   -7.3326   23.8893  -29.2184 H   0  0  0  0  0  0  0  0  0  0  0  0
   -8.4010   21.7460  -29.9060 H   0  0  0  0  0  0  0  0  0  0  0  0
  1  2  1  0
  2  3  1  0
  3  4  2  0
  4  5  1  0
  5  6  2  0
  6  7  1  0
  7  8  2  0
  2  9  1  0
  9 10  2  0
  9 11  2  0
  9 12  1  0
 12 13  2  0
 13 14  1  0
 14 15  2  0
 15 16  1  0
 16 17  2  0
 16 18  1  0
 18 19  1  0
 19 20  2  0
 20 21  1  0
 21 22  1  0
 21 23  2  0
 23 24  1  0
 24 25  1  0
 24 26  2  0
 15 27  1  0
 27 28  2  0
  8  3  1  0
 28 12  1  0
 26 19  1  0
  1 29  1  0
  1 30  1  0
  1 31  1  0
  4 32  1  0
  5 33  1  0
  6 34  1  0
  7 35  1  0
  8 36  1  0
 13 37  1  0
 14 38  1  0
 20 39  1  0
 23 40  1  0
 26 41  1  0
 27 42  1  0
 28 43  1  0
M  CHG  1  18  -1
M  END
>  <UniqueID>  (37) 
34

>  <SMILES>  (37) 
CN(c1ccccc1)S(=O)(=O)c1ccc(C(=O)[N-]c2cc(Cl)cc(Cl)c2)cc1

>  <Energy>  (37) 
54.13445373017458

>  <Genealogy>  (37) 
CN(c1ccccc1)S(=O)(=O)c1ccc(C(=O)[N-]c2cc(Cl)cc(Cl)c2)cc1 (protonated)
CN(c1ccccc1)S(=O)(=O)c1ccc(C(=O)[N-]c2cc(Cl)cc(Cl)c2)cc1 (3D coordinates assigned)
CN(c1ccccc1)S(=O)(=O)c1ccc(C(=O)[N-]c2cc(Cl)cc(Cl)c2)cc1 (optimized conformer: 54.13445373017458 kcal/mol)

>  <smiles>  (37) 
CN(c1ccccc1)S(=O)(=O)c1ccc(C(=O)Nc2cc(Cl)cc(Cl)c2)cc1

>  <score_type>  (37) 
oracle

>  <origin>  (37) 
adgpu

>  <m_score__min__energy>  (37) 
-11.07

>  <m_primary>  (37) 
energy

$$$$
37:0
     RDKit          3D

 37 39  0  0  0  0  0  0  0  0999 V2000
   -0.7850   22.3060  -26.3180 C   0  0  0  0  0  0  0  0  0  0  0  0
   -1.5210   23.1080  -27.3500 C   0  0  0  0  0  0  0  0  0  0  0  0
   -0.9140   24.2270  -27.9420 C   0  0  0  0  0  0  0  0  0  0  0  0
   -1.5820   24.9460  -28.9370 C   0  0  0  0  0  0  0  0  0  0  0  0
   -2.8470   24.5390  -29.3770 C   0  0  0  0  0  0  0  0  0  0  0  0
   -3.5040   25.2900  -30.4070 N   0  0  0  0  0  0  0  0  0  0  0  0
   -4.9210   25.3880  -30.6020 C   0  0  0  0  0  0  0  0  0  0  0  0
   -5.4770   26.5100  -30.4710 O   0  0  0  0  0  0  0  0  0  0  0  0
   -5.7260   24.2260  -31.0200 C   0  0  0  0  0  0  0  0  0  0  0  0
   -7.0940   24.0930  -30.8840 C   0  0  0  0  0  0  0  0  0  0  0  0
   -7.4050   22.8540  -31.4050 C   0  0  0  0  0  0  0  0  0  0  0  0
   -6.2040   22.3060  -31.8300 C   0  0  0  0  0  0  0  0  0  0  0  0
   -5.9880   20.9760  -32.4430 C   0  0  0  0  0  0  0  0  0  0  0  0
   -4.8420   20.7570  -33.2260 C   0  0  0  0  0  0  0  0  0  0  0  0
   -4.6130   19.5110  -33.8100 C   0  0  0  0  0  0  0  0  0  0  0  0
   -5.5230   18.4690  -33.6250 C   0  0  0  0  0  0  0  0  0  0  0  0
   -6.6780   18.6620  -32.8480 C   0  0  0  0  0  0  0  0  0  0  0  0
   -7.6140   17.5850  -32.6590 N   0  0  0  0  0  0  0  0  0  0  0  0
   -7.3840   16.4500  -33.1260 O   0  0  0  0  0  0  0  0  0  0  0  0
   -8.7800   17.7870  -31.9560 O   0  0  0  0  0  0  0  0  0  0  0  0
   -6.9030   19.9220  -32.2600 C   0  0  0  0  0  0  0  0  0  0  0  0
   -5.2290   23.1540  -31.5900 O   0  0  0  0  0  0  0  0  0  0  0  0
   -3.4640   23.4310  -28.7710 C   0  0  0  0  0  0  0  0  0  0  0  0
   -2.7960   22.7100  -27.7770 C   0  0  0  0  0  0  0  0  0  0  0  0
   -1.0875   22.6357  -25.3131 H   0  0  0  0  0  0  0  0  0  0  0  0
   -1.0256   21.2398  -26.4420 H   0  0  0  0  0  0  0  0  0  0  0  0
    0.2979   22.4544  -26.4420 H   0  0  0  0  0  0  0  0  0  0  0  0
    0.0910   24.5390  -27.6215 H   0  0  0  0  0  0  0  0  0  0  0  0
   -1.1108   25.8372  -29.3771 H   0  0  0  0  0  0  0  0  0  0  0  0
   -7.7917   24.8242  -30.4498 H   0  0  0  0  0  0  0  0  0  0  0  0
   -8.4023   22.3944  -31.4701 H   0  0  0  0  0  0  0  0  0  0  0  0
   -4.1208   21.5733  -33.3795 H   0  0  0  0  0  0  0  0  0  0  0  0
   -3.7114   19.3490  -34.4189 H   0  0  0  0  0  0  0  0  0  0  0  0
   -5.3349   17.4902  -34.0905 H   0  0  0  0  0  0  0  0  0  0  0  0
   -7.8043   20.0843  -31.6506 H   0  0  0  0  0  0  0  0  0  0  0  0
   -4.4760   23.1302  -29.0800 H   0  0  0  0  0  0  0  0  0  0  0  0
   -3.2727   21.8263  -27.3277 H   0  0  0  0  0  0  0  0  0  0  0  0
  1  2  1  0
  2  3  2  0
  3  4  1  0
  4  5  2  0
  5  6  1  0
  6  7  1  0
  7  8  2  0
  7  9  1  0
  9 10  2  0
 10 11  1  0
 11 12  2  0
 12 13  1  0
 13 14  2  0
 14 15  1  0
 15 16  2  0
 16 17  1  0
 17 18  1  0
 18 19  2  0
 18 20  1  0
 17 21  2  0
 12 22  1  0
  5 23  1  0
 23 24  2  0
 24  2  1  0
 22  9  1  0
 21 13  1  0
  1 25  1  0
  1 26  1  0
  1 27  1  0
  3 28  1  0
  4 29  1  0
 10 30  1  0
 11 31  1  0
 14 32  1  0
 15 33  1  0
 16 34  1  0
 21 35  1  0
 23 36  1  0
 24 37  1  0
M  CHG  3   6  -1  18   1  20  -1
M  END
>  <UniqueID>  (38) 
35

>  <SMILES>  (38) 
Cc1ccc([N-]C(=O)c2ccc(-c3cccc([N+](=O)[O-])c3)o2)cc1

>  <Energy>  (38) 
70.46113047378995

>  <Genealogy>  (38) 
Cc1ccc([N-]C(=O)c2ccc(-c3cccc([N+](=O)[O-])c3)o2)cc1 (protonated)
Cc1ccc([N-]C(=O)c2ccc(-c3cccc([N+](=O)[O-])c3)o2)cc1 (3D coordinates assigned)
Cc1ccc([N-]C(=O)c2ccc(-c3cccc([N+](=O)[O-])c3)o2)cc1 (optimized conformer: 70.46113047378995 kcal/mol)

>  <smiles>  (38) 
Cc1ccc(NC(=O)c2ccc(-c3cccc([N+](=O)[O-])c3)o2)cc1

>  <score_type>  (38) 
oracle

>  <origin>  (38) 
adgpu

>  <m_score__min__energy>  (38) 
-10.02

>  <m_primary>  (38) 
energy

$$$$
38:0
     RDKit          3D

 41 43  0  0  0  0  0  0  0  0999 V2000
   -9.5370   20.7500  -32.0230 C   0  0  0  0  0  0  0  0  0  0  0  0
   -8.1890   21.4100  -31.9580 C   0  0  0  0  0  0  0  0  0  0  0  0
   -8.0100   22.5820  -31.2050 C   0  0  0  0  0  0  0  0  0  0  0  0
   -6.7590   23.2180  -31.1640 C   0  0  0  0  0  0  0  0  0  0  0  0
   -6.5690   24.4870  -30.3790 C   0  0  0  0  0  0  0  0  0  0  0  0
   -5.5570   24.2890  -29.3440 N   0  0  0  0  0  0  0  0  0  0  0  0
   -4.1530   24.4630  -29.6010 C   0  0  0  0  0  0  0  0  0  0  0  0
   -3.7810   25.0370  -30.6620 O   0  0  0  0  0  0  0  0  0  0  0  0
   -3.1350   23.9930  -28.6320 C   0  0  0  0  0  0  0  0  0  0  0  0
   -2.3660   24.9240  -27.9140 C   0  0  0  0  0  0  0  0  0  0  0  0
   -1.3980   24.4900  -27.0070 C   0  0  0  0  0  0  0  0  0  0  0  0
   -1.1800   23.1260  -26.8090 C   0  0  0  0  0  0  0  0  0  0  0  0
   -1.9270   22.1750  -27.5250 C   0  0  0  0  0  0  0  0  0  0  0  0
   -1.6880   20.7220  -27.3240 C   0  0  0  0  0  0  0  0  0  0  0  0
   -2.6660   19.9130  -26.7210 C   0  0  0  0  0  0  0  0  0  0  0  0
   -2.4220   18.5490  -26.5430 C   0  0  0  0  0  0  0  0  0  0  0  0
   -1.2450   18.0060  -26.9520 N   0  0  0  0  0  0  0  0  0  0  0  0
   -0.2800   18.7620  -27.5390 C   0  0  0  0  0  0  0  0  0  0  0  0
   -0.4820   20.1300  -27.7350 C   0  0  0  0  0  0  0  0  0  0  0  0
   -2.9020   22.6190  -28.4390 C   0  0  0  0  0  0  0  0  0  0  0  0
   -5.6900   22.6850  -31.9010 C   0  0  0  0  0  0  0  0  0  0  0  0
   -5.8680   21.5280  -32.6630 C   0  0  0  0  0  0  0  0  0  0  0  0
   -7.1120   20.8920  -32.6980 C   0  0  0  0  0  0  0  0  0  0  0  0
   -7.2680   19.7760  -33.4540 F   0  0  0  0  0  0  0  0  0  0  0  0
   -9.9063   20.5692  -31.0027 H   0  0  0  0  0  0  0  0  0  0  0  0
  -10.2408   21.4054  -32.5569 H   0  0  0  0  0  0  0  0  0  0  0  0
   -9.4509   19.7921  -32.5569 H   0  0  0  0  0  0  0  0  0  0  0  0
   -8.8561   23.0047  -30.6433 H   0  0  0  0  0  0  0  0  0  0  0  0
   -6.2437   25.2895  -31.0574 H   0  0  0  0  0  0  0  0  0  0  0  0
   -7.5218   24.7629  -29.9035 H   0  0  0  0  0  0  0  0  0  0  0  0
   -5.8810   24.0470  -28.3820 H   0  0  0  0  0  0  0  0  0  0  0  0
   -2.5277   26.0012  -28.0675 H   0  0  0  0  0  0  0  0  0  0  0  0
   -0.8043   25.2265  -26.4457 H   0  0  0  0  0  0  0  0  0  0  0  0
   -0.4188   22.7931  -26.0881 H   0  0  0  0  0  0  0  0  0  0  0  0
   -3.6192   20.3516  -26.3907 H   0  0  0  0  0  0  0  0  0  0  0  0
   -3.1847   17.9126  -26.0704 H   0  0  0  0  0  0  0  0  0  0  0  0
    0.6627   18.2951  -27.8606 H   0  0  0  0  0  0  0  0  0  0  0  0
    0.2999   20.7414  -28.2092 H   0  0  0  0  0  0  0  0  0  0  0  0
   -3.4883   21.8830  -29.0087 H   0  0  0  0  0  0  0  0  0  0  0  0
   -4.7081   23.1804  -31.8784 H   0  0  0  0  0  0  0  0  0  0  0  0
   -5.0257   21.1157  -33.2379 H   0  0  0  0  0  0  0  0  0  0  0  0
  1  2  1  0
  2  3  2  0
  3  4  1  0
  4  5  1  0
  5  6  1  0
  6  7  1  0
  7  8  2  0
  7  9  1  0
  9 10  2  0
 10 11  1  0
 11 12  2  0
 12 13  1  0
 13 14  1  0
 14 15  2  0
 15 16  1  0
 16 17  2  0
 17 18  1  0
 18 19  2  0
 13 20  2  0
  4 21  2  0
 21 22  1  0
 22 23  2  0
 23 24  1  0
 23  2  1  0
 20  9  1  0
 19 14  1  0
  1 25  1  0
  1 26  1  0
  1 27  1  0
  3 28  1  0
  5 29  1  0
  5 30  1  0
  6 31  1  0
 10 32  1  0
 11 33  1  0
 12 34  1  0
 15 35  1  0
 16 36  1  0
 18 37  1  0
 19 38  1  0
 20 39  1  0
 21 40  1  0
 22 41  1  0
M  END
>  <UniqueID>  (39) 
36

>  <SMILES>  (39) 
Cc1cc(CNC(=O)c2cccc(-c3ccncc3)c2)ccc1F

>  <Energy>  (39) 
49.10941907038828

>  <Genealogy>  (39) 
Cc1cc(CNC(=O)c2cccc(-c3ccncc3)c2)ccc1F (3D coordinates assigned)
Cc1cc(CNC(=O)c2cccc(-c3ccncc3)c2)ccc1F (optimized conformer: 49.10941907038828 kcal/mol)

>  <smiles>  (39) 
Cc1cc(CNC(=O)c2cccc(-c3ccncc3)c2)ccc1F

>  <score_type>  (39) 
oracle

>  <origin>  (39) 
adgpu

>  <m_score__min__energy>  (39) 
-9.0500000000000007

>  <m_primary>  (39) 
energy

$$$$
39:0
     RDKit          3D

 42 45  0  0  0  0  0  0  0  0999 V2000
   -3.6550   13.5090  -31.9850 C   0  0  0  0  0  0  0  0  0  0  0  0
   -4.6900   14.3950  -31.5740 O   0  0  0  0  0  0  0  0  0  0  0  0
   -4.9780   15.6180  -32.1960 C   0  0  0  0  0  0  0  0  0  0  0  0
   -4.4900   15.8390  -33.4880 C   0  0  0  0  0  0  0  0  0  0  0  0
   -4.7500   17.0410  -34.1510 C   0  0  0  0  0  0  0  0  0  0  0  0
   -5.5030   18.0460  -33.5260 C   0  0  0  0  0  0  0  0  0  0  0  0
   -5.8140   19.3220  -34.2600 C   0  0  0  0  0  0  0  0  0  0  0  0
   -6.0970   20.3920  -33.3050 N   0  0  0  0  0  0  0  0  0  0  0  0
   -5.2350   21.3700  -32.9380 C   0  0  0  0  0  0  0  0  0  0  0  0
   -5.8660   22.2790  -32.0930 C   0  0  0  0  0  0  0  0  0  0  0  0
   -5.2630   23.4430  -31.4190 C   0  0  0  0  0  0  0  0  0  0  0  0
   -4.0150   23.4580  -31.2580 O   0  0  0  0  0  0  0  0  0  0  0  0
   -6.0640   24.5860  -30.8440 C   0  0  0  0  0  0  0  0  0  0  0  0
   -5.7470   24.8800  -29.3860 C   0  0  0  0  0  0  0  0  0  0  0  0
   -5.3670   25.8860  -30.4610 C   0  0  0  0  0  0  0  0  0  0  0  0
   -7.1540   21.8080  -31.9330 C   0  0  0  0  0  0  0  0  0  0  0  0
   -8.2260   22.3110  -31.1960 C   0  0  0  0  0  0  0  0  0  0  0  0
   -9.4470   21.6150  -31.2490 C   0  0  0  0  0  0  0  0  0  0  0  0
   -9.5690   20.4470  -32.0320 C   0  0  0  0  0  0  0  0  0  0  0  0
   -8.4710   19.9620  -32.7660 C   0  0  0  0  0  0  0  0  0  0  0  0
   -7.2680   20.6700  -32.6940 C   0  0  0  0  0  0  0  0  0  0  0  0
   -6.0000   17.8270  -32.2320 C   0  0  0  0  0  0  0  0  0  0  0  0
   -5.7390   16.6240  -31.5690 C   0  0  0  0  0  0  0  0  0  0  0  0
   -3.1608   13.0859  -31.0980 H   0  0  0  0  0  0  0  0  0  0  0  0
   -4.0862   12.6958  -32.5873 H   0  0  0  0  0  0  0  0  0  0  0  0
   -2.9180   14.0604  -32.5873 H   0  0  0  0  0  0  0  0  0  0  0  0
   -3.8959   15.0591  -33.9868 H   0  0  0  0  0  0  0  0  0  0  0  0
   -4.3623   17.2000  -35.1681 H   0  0  0  0  0  0  0  0  0  0  0  0
   -4.9504   19.6056  -34.8795 H   0  0  0  0  0  0  0  0  0  0  0  0
   -6.6959   19.1654  -34.8986 H   0  0  0  0  0  0  0  0  0  0  0  0
   -4.1858   21.4367  -33.2615 H   0  0  0  0  0  0  0  0  0  0  0  0
   -6.9508   24.3717  -31.4585 H   0  0  0  0  0  0  0  0  0  0  0  0
   -6.5606   25.1089  -28.6820 H   0  0  0  0  0  0  0  0  0  0  0  0
   -5.2035   24.3535  -28.5876 H   0  0  0  0  0  0  0  0  0  0  0  0
   -5.9062   26.8419  -30.5352 H   0  0  0  0  0  0  0  0  0  0  0  0
   -4.4359   26.3880  -30.7628 H   0  0  0  0  0  0  0  0  0  0  0  0
   -8.1197   23.2241  -30.5918 H   0  0  0  0  0  0  0  0  0  0  0  0
  -10.3116   21.9829  -30.6771 H   0  0  0  0  0  0  0  0  0  0  0  0
  -10.5295   19.9120  -32.0686 H   0  0  0  0  0  0  0  0  0  0  0  0
   -8.5568   19.0524  -33.3785 H   0  0  0  0  0  0  0  0  0  0  0  0
   -6.5981   18.6060  -31.7366 H   0  0  0  0  0  0  0  0  0  0  0  0
   -6.1296   16.4624  -30.5534 H   0  0  0  0  0  0  0  0  0  0  0  0
  1  2  1  0
  2  3  1  0
  3  4  2  0
  4  5  1  0
  5  6  2  0
  6  7  1  0
  7  8  1  0
  8  9  1  0
  9 10  2  0
 10 11  1  0
 11 12  2  0
 11 13  1  0
 13 14  1  0
 14 15  1  0
 10 16  1  0
 16 17  2  0
 17 18  1  0
 18 19  2  0
 19 20  1  0
 20 21  2  0
  6 22  1  0
 22 23  2  0
 23  3  1  0
 21  8  1  0
 15 13  1  0
 21 16  1  0
  1 24  1  0
  1 25  1  0
  1 26  1  0
  4 27  1  0
  5 28  1  0
  7 29  1  0
  7 30  1  0
  9 31  1  0
 13 32  1  0
 14 33  1  0
 14 34  1  0
 15 35  1  0
 15 36  1  0
 17 37  1  0
 18 38  1  0
 19 39  1  0
 20 40  1  0
 22 41  1  0
 23 42  1  0
M  END
>  <UniqueID>  (40) 
37

>  <SMILES>  (40) 
COc1ccc(Cn2cc(C(=O)C3CC3)c3ccccc32)cc1

>  <Energy>  (40) 
348.2516068287463

>  <Genealogy>  (40) 
COc1ccc(Cn2cc(C(=O)C3CC3)c3ccccc32)cc1 (3D coordinates assigned)
COc1ccc(Cn2cc(C(=O)C3CC3)c3ccccc32)cc1 (nonaromatic ring conformer: 348.2516068287463 kcal/mol)

>  <smiles>  (40) 
COc1ccc(Cn2cc(C(=O)C3CC3)c3ccccc32)cc1

>  <score_type>  (40) 
oracle

>  <origin>  (40) 
adgpu

>  <m_score__min__energy>  (40) 
-8.5099999999999998

>  <m_primary>  (40) 
energy

$$$$
40:0
     RDKit          3D

 53 56  0  0  0  0  0  0  0  0999 V2000
   -0.3700   30.8211  -27.0386 H   0  0  0  0  0  0  0  0  0  0  0  0
   -0.4400   29.7740  -26.7090 C   0  0  0  0  0  0  0  0  0  0  0  0
   -0.1600   28.7270  -27.4510 O   0  0  0  0  0  0  0  0  0  0  0  0
   -0.3510   27.6370  -26.7410 C   0  0  0  0  0  0  0  0  0  0  0  0
   -0.1290   26.2690  -27.2670 C   0  0  0  0  0  0  0  0  0  0  0  0
    1.0230   25.5330  -26.9380 C   0  0  0  0  0  0  0  0  0  0  0  0
    1.7844   25.9758  -26.2791 H   0  0  0  0  0  0  0  0  0  0  0  0
    1.2070   24.2440  -27.4420 C   0  0  0  0  0  0  0  0  0  0  0  0
    2.1112   23.6763  -27.1772 H   0  0  0  0  0  0  0  0  0  0  0  0
    0.2490   23.6730  -28.2800 C   0  0  0  0  0  0  0  0  0  0  0  0
    0.3982   22.6540  -28.6664 H   0  0  0  0  0  0  0  0  0  0  0  0
   -0.9040   24.3910  -28.6330 C   0  0  0  0  0  0  0  0  0  0  0  0
   -1.9510   23.7590  -29.5210 C   0  0  2  0  0  0  0  0  0  0  0  0
   -1.5605   23.6795  -30.5463 H   0  0  0  0  0  0  0  0  0  0  0  0
   -3.1540   24.5980  -29.5340 N   0  0  0  0  0  0  0  0  0  0  0  0
   -4.2450   24.3330  -30.1920 C   0  0  0  0  0  0  0  0  0  0  0  0
   -4.3400   23.2140  -30.9620 N   0  0  0  0  0  0  0  0  0  0  0  0
   -5.4730   22.9130  -31.6500 C   0  0  0  0  0  0  0  0  0  0  0  0
   -5.5180   21.7110  -32.4360 N   0  0  0  0  0  0  0  0  0  0  0  0
   -4.3860   21.0440  -32.9570 C   0  0  0  0  0  0  0  0  0  0  0  0
   -3.1970   21.4100  -32.7580 O   0  0  0  0  0  0  0  0  0  0  0  0
   -4.7220   19.9540  -33.7240 O   0  0  0  0  0  0  0  0  0  0  0  0
   -6.1380   19.8430  -33.7980 C   0  0  0  0  0  0  0  0  0  0  0  0
   -6.4616   18.8417  -33.4777 H   0  0  0  0  0  0  0  0  0  0  0  0
   -6.5037   19.9867  -34.8254 H   0  0  0  0  0  0  0  0  0  0  0  0
   -6.6970   20.9310  -32.8300 C   0  0  1  0  0  0  0  0  0  0  0  0
   -7.4614   21.5643  -33.3039 H   0  0  0  0  0  0  0  0  0  0  0  0
   -7.4220   20.2900  -31.6080 C   0  0  0  0  0  0  0  0  0  0  0  0
   -6.7264   20.4083  -30.7641 H   0  0  0  0  0  0  0  0  0  0  0  0
   -7.6880   18.7920  -31.8120 C   0  0  0  0  0  0  0  0  0  0  0  0
   -7.7756   18.2985  -30.8328 H   0  0  0  0  0  0  0  0  0  0  0  0
   -8.6238   18.6591  -32.3747 H   0  0  0  0  0  0  0  0  0  0  0  0
   -6.8552   18.3450  -32.3747 H   0  0  0  0  0  0  0  0  0  0  0  0
   -8.7290   21.0130  -31.2380 C   0  0  0  0  0  0  0  0  0  0  0  0
   -8.8222   21.0646  -30.1432 H   0  0  0  0  0  0  0  0  0  0  0  0
   -8.7148   22.0315  -31.6532 H   0  0  0  0  0  0  0  0  0  0  0  0
   -9.5843   20.4597  -31.6532 H   0  0  0  0  0  0  0  0  0  0  0  0
   -6.5640   23.7910  -31.5840 C   0  0  0  0  0  0  0  0  0  0  0  0
   -7.7010   23.5720  -32.2890 F   0  0  0  0  0  0  0  0  0  0  0  0
   -6.4520   24.9350  -30.7940 C   0  0  0  0  0  0  0  0  0  0  0  0
   -7.2964   25.6364  -30.7223 H   0  0  0  0  0  0  0  0  0  0  0  0
   -5.3040   25.1860  -30.1130 N   0  0  0  0  0  0  0  0  0  0  0  0
   -5.2390   26.0480  -29.5260 H   0  0  0  0  0  0  0  0  0  0  0  0
   -2.2840   22.3490  -29.0210 C   0  0  0  0  0  0  0  0  0  0  0  0
   -2.2859   22.3410  -27.9210 H   0  0  0  0  0  0  0  0  0  0  0  0
   -3.2766   22.0535  -29.3916 H   0  0  0  0  0  0  0  0  0  0  0  0
   -1.5285   21.6406  -29.3916 H   0  0  0  0  0  0  0  0  0  0  0  0
   -1.0900   25.6860  -28.1130 C   0  0  0  0  0  0  0  0  0  0  0  0
   -1.9987   26.2494  -28.3716 H   0  0  0  0  0  0  0  0  0  0  0  0
   -0.7800   27.9840  -25.4690 C   0  0  0  0  0  0  0  0  0  0  0  0
   -1.0257   27.3011  -24.6424 H   0  0  0  0  0  0  0  0  0  0  0  0
   -0.8350   29.3610  -25.4540 C   0  0  0  0  0  0  0  0  0  0  0  0
   -1.1337   30.0014  -24.6110 H   0  0  0  0  0  0  0  0  0  0  0  0
  1  2  1  0
  2  3  1  0
  3  4  1  0
  4  5  1  0
  5  6  2  0
  6  7  1  0
  6  8  1  0
  8  9  1  0
  8 10  2  0
 10 11  1  0
 10 12  1  0
 12 13  1  0
 13 14  1  6
 13 15  1  0
 15 16  2  0
 16 17  1  0
 17 18  2  0
 18 19  1  0
 19 20  1  0
 20 21  2  0
 20 22  1  0
 22 23  1  0
 23 24  1  0
 23 25  1  0
 23 26  1  0
 26 27  1  6
 26 28  1  0
 28 29  1  0
 28 30  1  0
 30 31  1  0
 30 32  1  0
 30 33  1  0
 28 34  1  0
 34 35  1  0
 34 36  1  0
 34 37  1  0
 18 38  1  0
 38 39  1  0
 38 40  2  0
 40 41  1  0
 40 42  1  0
 42 43  1  0
 13 44  1  0
 44 45  1  0
 44 46  1  0
 44 47  1  0
 12 48  2  0
 48 49  1  0
  4 50  2  0
 50 51  1  0
 50 52  1  0
 52 53  1  0
 52  2  2  0
 48  5  1  0
 42 16  1  0
 26 19  1  0
M  END
>  <UniqueID>  (41) 
38

>  <SMILES>  (41) 
CC(C)[C@@H]1COC(=O)N1c1n/c(=N\[C@H](C)c2cccc(-c3ccco3)c2)[nH]cc1F

>  <Energy>  (41) 
97.9087382953719

>  <Genealogy>  (41) 
CC(C)[C@@H]1COC(=O)N1c1nc(=N[C@H](C)c2cccc(-c3ccco3)c2)[nH]cc1F (chirality)
CC(C)[C@@H]1COC(=O)N1c1n/c(=N\[C@H](C)c2cccc(-c3ccco3)c2)[nH]cc1F (cis-trans isomerization)
CC(C)[C@@H]1COC(=O)N1c1n/c(=N\[C@H](C)c2cccc(-c3ccco3)c2)[nH]cc1F (3D coordinates assigned)
CC(C)[C@@H]1COC(=O)N1c1n/c(=N\[C@H](C)c2cccc(-c3ccco3)c2)[nH]cc1F (nonaromatic ring conformer: 97.9087382953719 kcal/mol)

>  <smiles>  (41) 
CC(N=c1nc(N2C(=O)OCC2C(C)C)c(F)c[nH]1)c1cccc(-c2ccco2)c1

>  <score_type>  (41) 
oracle

>  <origin>  (41) 
adgpu

>  <m_score__min__energy>  (41) 
-9.0700000000000003

>  <m_primary>  (41) 
energy

$$$$
41:0
     RDKit          3D

 29 31  0  0  0  0  0  0  0  0999 V2000
   -8.8060   23.2705  -30.8416 H   0  0  0  0  0  0  0  0  0  0  0  0
   -8.4020   22.3630  -31.3140 C   0  0  0  0  0  0  0  0  0  0  0  0
   -9.3100   21.1150  -31.9870 S   0  0  0  0  0  0  0  0  0  0  0  0
   -7.9550   20.2410  -32.4420 C   0  0  0  0  0  0  0  0  0  0  0  0
   -8.0100   19.0800  -33.0210 N   0  0  0  0  0  0  0  0  0  0  0  0
   -6.8940   18.2910  -33.4680 C   0  0  0  0  0  0  0  0  0  0  0  0
   -6.6630   17.0500  -32.8600 C   0  0  0  0  0  0  0  0  0  0  0  0
   -7.3197   16.7105  -32.0454 H   0  0  0  0  0  0  0  0  0  0  0  0
   -5.6040   16.2400  -33.2810 C   0  0  0  0  0  0  0  0  0  0  0  0
   -5.4214   15.2740  -32.7876 H   0  0  0  0  0  0  0  0  0  0  0  0
   -4.7780   16.6560  -34.3270 C   0  0  0  0  0  0  0  0  0  0  0  0
   -3.9398   16.0218  -34.6513 H   0  0  0  0  0  0  0  0  0  0  0  0
   -5.0160   17.8780  -34.9620 C   0  0  0  0  0  0  0  0  0  0  0  0
   -4.3703   18.2010  -35.7919 H   0  0  0  0  0  0  0  0  0  0  0  0
   -6.0750   18.6910  -34.5430 C   0  0  0  0  0  0  0  0  0  0  0  0
   -6.2689   19.6454  -35.0543 H   0  0  0  0  0  0  0  0  0  0  0  0
   -6.8100   20.8620  -32.0840 N   0  0  0  0  0  0  0  0  0  0  0  0
   -7.0450   22.0490  -31.4580 C   0  0  0  0  0  0  0  0  0  0  0  0
   -5.9270   22.9100  -30.9910 C   0  0  0  0  0  0  0  0  0  0  0  0
   -6.1300   24.2580  -30.6380 C   0  0  0  0  0  0  0  0  0  0  0  0
   -7.1373   24.6944  -30.7075 H   0  0  0  0  0  0  0  0  0  0  0  0
   -5.0620   25.0460  -30.2000 C   0  0  0  0  0  0  0  0  0  0  0  0
   -5.2332   26.0982  -29.9289 H   0  0  0  0  0  0  0  0  0  0  0  0
   -3.7790   24.5040  -30.1050 C   0  0  0  0  0  0  0  0  0  0  0  0
   -2.7250   25.2980  -29.6680 O   0  0  0  0  0  0  0  0  0  0  0  0
   -3.5620   23.1630  -30.4460 C   0  0  0  0  0  0  0  0  0  0  0  0
   -1.9550   22.4610  -30.3310 Cl  0  0  0  0  0  0  0  0  0  0  0  0
   -4.6290   22.3720  -30.8850 C   0  0  0  0  0  0  0  0  0  0  0  0
   -4.4529   21.3191  -31.1502 H   0  0  0  0  0  0  0  0  0  0  0  0
  1  2  1  0
  2  3  1  0
  3  4  1  0
  4  5  2  0
  5  6  1  0
  6  7  2  0
  7  8  1  0
  7  9  1  0
  9 10  1  0
  9 11  2  0
 11 12  1  0
 11 13  1  0
 13 14  1  0
 13 15  2  0
 15 16  1  0
  4 17  1  0
 17 18  1  0
 18 19  1  0
 19 20  2  0
 20 21  1  0
 20 22  1  0
 22 23  1  0
 22 24  2  0
 24 25  1  0
 24 26  1  0
 26 27  1  0
 26 28  2  0
 28 29  1  0
 18  2  2  0
 28 19  1  0
 15  6  1  0
M  CHG  2  17  -1  25  -1
M  END
>  <UniqueID>  (42) 
39

>  <SMILES>  (42) 
[O-]c1ccc(-c2cs/c(=N/c3ccccc3)[n-]2)cc1Cl

>  <Energy>  (42) 
69.99868999235882

>  <Genealogy>  (42) 
[O-]c1ccc(-c2csc(=Nc3ccccc3)[n-]2)cc1Cl (protonated)
[O-]c1ccc(-c2cs/c(=N/c3ccccc3)[n-]2)cc1Cl (cis-trans isomerization)
[O-]c1ccc(-c2cs/c(=N/c3ccccc3)[n-]2)cc1Cl (3D coordinates assigned)
[O-]c1ccc(-c2cs/c(=N/c3ccccc3)[n-]2)cc1Cl (optimized conformer: 69.99868999235882 kcal/mol)

>  <smiles>  (42) 
Oc1ccc(-c2csc(=Nc3ccccc3)[nH]2)cc1Cl

>  <score_type>  (42) 
oracle

>  <origin>  (42) 
adgpu

>  <m_score__min__energy>  (42) 
-11.43

>  <m_primary>  (42) 
energy

$$$$
42:0
     RDKit          3D

 35 37  0  0  0  0  0  0  0  0999 V2000
   -9.4210   19.0420  -32.7220 C   0  0  0  0  0  0  0  0  0  0  0  0
   -9.4660   20.4070  -32.3210 O   0  0  0  0  0  0  0  0  0  0  0  0
   -8.3600   21.1340  -31.8560 C   0  0  0  0  0  0  0  0  0  0  0  0
   -8.4930   22.2550  -31.0210 C   0  0  0  0  0  0  0  0  0  0  0  0
   -7.3620   22.9460  -30.5830 C   0  0  0  0  0  0  0  0  0  0  0  0
   -6.0750   22.5360  -30.9700 C   0  0  0  0  0  0  0  0  0  0  0  0
   -4.8960   23.2940  -30.4870 C   0  0  0  0  0  0  0  0  0  0  0  0
   -3.9540   22.7860  -29.6670 N   0  0  0  0  0  0  0  0  0  0  0  0
   -3.1150   23.8350  -29.5230 C   0  0  0  0  0  0  0  0  0  0  0  0
   -1.8850   23.7950  -28.6940 C   0  0  0  0  0  0  0  0  0  0  0  0
   -1.5880   22.6350  -27.9520 C   0  0  0  0  0  0  0  0  0  0  0  0
   -0.4360   22.5700  -27.1640 C   0  0  0  0  0  0  0  0  0  0  0  0
    0.4350   23.6580  -27.1030 C   0  0  0  0  0  0  0  0  0  0  0  0
    1.5790   23.5910  -26.3180 O   0  0  0  0  0  0  0  0  0  0  0  0
    0.1550   24.8160  -27.8320 C   0  0  0  0  0  0  0  0  0  0  0  0
   -0.9960   24.8920  -28.6260 C   0  0  0  0  0  0  0  0  0  0  0  0
   -1.2400   26.0620  -29.3370 O   0  0  0  0  0  0  0  0  0  0  0  0
   -3.5300   24.9130  -30.2180 N   0  0  0  0  0  0  0  0  0  0  0  0
   -4.6290   24.5400  -30.7980 O   0  0  0  0  0  0  0  0  0  0  0  0
   -5.9310   21.4100  -31.8110 C   0  0  0  0  0  0  0  0  0  0  0  0
   -4.6440   20.9980  -32.1970 O   0  0  0  0  0  0  0  0  0  0  0  0
   -3.8580   21.6250  -33.2050 C   0  0  0  0  0  0  0  0  0  0  0  0
   -7.0820   20.7200  -32.2440 C   0  0  0  0  0  0  0  0  0  0  0  0
   -9.3998   18.3984  -31.8302 H   0  0  0  0  0  0  0  0  0  0  0  0
  -10.3119   18.8068  -33.3228 H   0  0  0  0  0  0  0  0  0  0  0  0
   -8.5166   18.8660  -33.3228 H   0  0  0  0  0  0  0  0  0  0  0  0
   -9.4935   22.5904  -30.7104 H   0  0  0  0  0  0  0  0  0  0  0  0
   -7.4796   23.8214  -29.9274 H   0  0  0  0  0  0  0  0  0  0  0  0
   -2.2693   21.7724  -27.9933 H   0  0  0  0  0  0  0  0  0  0  0  0
   -0.2152   21.6580  -26.5899 H   0  0  0  0  0  0  0  0  0  0  0  0
    0.8425   25.6732  -27.7822 H   0  0  0  0  0  0  0  0  0  0  0  0
   -3.0816   22.2444  -32.7322 H   0  0  0  0  0  0  0  0  0  0  0  0
   -3.3825   20.8554  -33.8308 H   0  0  0  0  0  0  0  0  0  0  0  0
   -4.5027   22.2597  -33.8308 H   0  0  0  0  0  0  0  0  0  0  0  0
   -6.9728   19.8419  -32.8975 H   0  0  0  0  0  0  0  0  0  0  0  0
  1  2  1  0
  2  3  1  0
  3  4  2  0
  4  5  1  0
  5  6  2  0
  6  7  1  0
  7  8  2  0
  8  9  1  0
  9 10  1  0
 10 11  2  0
 11 12  1  0
 12 13  2  0
 13 14  1  0
 13 15  1  0
 15 16  2  0
 16 17  1  0
  9 18  2  0
 18 19  1  0
  6 20  1  0
 20 21  1  0
 21 22  1  0
 20 23  2  0
 23  3  1  0
 19  7  1  0
 16 10  1  0
  1 24  1  0
  1 25  1  0
  1 26  1  0
  4 27  1  0
  5 28  1  0
 11 29  1  0
 12 30  1  0
 15 31  1  0
 22 32  1  0
 22 33  1  0
 22 34  1  0
 23 35  1  0
M  CHG  2  14  -1  17  -1
M  END
>  <UniqueID>  (43) 
40

>  <SMILES>  (43) 
COc1ccc(-c2nc(-c3ccc([O-])cc3[O-])no2)c(OC)c1

>  <Energy>  (43) 
73.3238856069891

>  <Genealogy>  (43) 
COc1ccc(-c2nc(-c3ccc([O-])cc3[O-])no2)c(OC)c1 (protonated)
COc1ccc(-c2nc(-c3ccc([O-])cc3[O-])no2)c(OC)c1 (3D coordinates assigned)
COc1ccc(-c2nc(-c3ccc([O-])cc3[O-])no2)c(OC)c1 (optimized conformer: 73.3238856069891 kcal/mol)

>  <smiles>  (43) 
COc1ccc(-c2nc(-c3ccc(O)cc3O)no2)c(OC)c1

>  <score_type>  (43) 
oracle

>  <origin>  (43) 
adgpu

>  <m_score__min__energy>  (43) 
-10.619999999999999

>  <m_primary>  (43) 
energy

$$$$
43:0
     RDKit          3D

 32 33  0  0  0  0  0  0  0  0999 V2000
   -5.5220   20.7800  -33.0980 C   0  0  0  0  0  0  0  0  0  0  0  0
   -6.8890   21.0550  -32.5360 C   0  0  0  0  0  0  0  0  0  0  0  0
   -7.8220   20.0110  -32.4180 C   0  0  0  0  0  0  0  0  0  0  0  0
   -9.0950   20.2540  -31.8980 C   0  0  0  0  0  0  0  0  0  0  0  0
   -9.4510   21.5430  -31.4990 C   0  0  0  0  0  0  0  0  0  0  0  0
   -8.5340   22.5890  -31.6080 C   0  0  0  0  0  0  0  0  0  0  0  0
   -7.2400   22.3530  -32.1070 C   0  0  0  0  0  0  0  0  0  0  0  0
   -6.2940   23.4250  -32.2490 N   0  0  0  0  0  0  0  0  0  0  0  0
   -5.1830   23.6870  -31.3830 C   0  0  0  0  0  0  0  0  0  0  0  0
   -4.8160   24.8790  -31.2110 O   0  0  0  0  0  0  0  0  0  0  0  0
   -4.4330   22.6080  -30.8020 N   0  0  0  0  0  0  0  0  0  0  0  0
   -3.5470   22.7570  -29.6800 C   0  0  0  0  0  0  0  0  0  0  0  0
   -3.5300   21.8210  -28.6320 C   0  0  0  0  0  0  0  0  0  0  0  0
   -2.6430   21.9750  -27.5660 C   0  0  0  0  0  0  0  0  0  0  0  0
   -1.7570   23.0540  -27.5370 C   0  0  0  0  0  0  0  0  0  0  0  0
   -1.7440   23.9910  -28.5850 C   0  0  0  0  0  0  0  0  0  0  0  0
   -0.8250   25.1000  -28.5670 N   0  0  0  0  0  0  0  0  0  0  0  0
    0.3550   24.9430  -28.1910 O   0  0  0  0  0  0  0  0  0  0  0  0
   -1.2340   26.3530  -28.9630 O   0  0  0  0  0  0  0  0  0  0  0  0
   -2.6400   23.8280  -29.6570 C   0  0  0  0  0  0  0  0  0  0  0  0
   -4.8085   20.6365  -32.2732 H   0  0  0  0  0  0  0  0  0  0  0  0
   -5.5558   19.8707  -33.7160 H   0  0  0  0  0  0  0  0  0  0  0  0
   -5.2015   21.6317  -33.7160 H   0  0  0  0  0  0  0  0  0  0  0  0
   -7.5476   18.9948  -32.7376 H   0  0  0  0  0  0  0  0  0  0  0  0
   -9.8170   19.4296  -31.8029 H   0  0  0  0  0  0  0  0  0  0  0  0
  -10.4570   21.7349  -31.0976 H   0  0  0  0  0  0  0  0  0  0  0  0
   -8.8247   23.6047  -31.3018 H   0  0  0  0  0  0  0  0  0  0  0  0
   -4.4700   21.6800  -31.2820 H   0  0  0  0  0  0  0  0  0  0  0  0
   -4.2187   20.9635  -28.6521 H   0  0  0  0  0  0  0  0  0  0  0  0
   -2.6416   21.2432  -26.7448 H   0  0  0  0  0  0  0  0  0  0  0  0
   -1.0655   23.1714  -26.6896 H   0  0  0  0  0  0  0  0  0  0  0  0
   -2.6298   24.5489  -30.4878 H   0  0  0  0  0  0  0  0  0  0  0  0
  1  2  1  0
  2  3  2  0
  3  4  1  0
  4  5  2  0
  5  6  1  0
  6  7  2  0
  7  8  1  0
  8  9  1  0
  9 10  2  0
  9 11  1  0
 11 12  1  0
 12 13  2  0
 13 14  1  0
 14 15  2  0
 15 16  1  0
 16 17  1  0
 17 18  2  0
 17 19  1  0
 16 20  2  0
  7  2  1  0
 20 12  1  0
  1 21  1  0
  1 22  1  0
  1 23  1  0
  3 24  1  0
  4 25  1  0
  5 26  1  0
  6 27  1  0
 11 28  1  0
 13 29  1  0
 14 30  1  0
 15 31  1  0
 20 32  1  0
M  CHG  3   8  -1  17   1  19  -1
M  END
>  <UniqueID>  (44) 
41

>  <SMILES>  (44) 
Cc1ccccc1[N-]C(=O)Nc1cccc([N+](=O)[O-])c1

>  <Energy>  (44) 
40.76128975603014

>  <Genealogy>  (44) 
Cc1ccccc1[N-]C(=O)Nc1cccc([N+](=O)[O-])c1 (protonated)
Cc1ccccc1[N-]C(=O)Nc1cccc([N+](=O)[O-])c1 (3D coordinates assigned)
Cc1ccccc1[N-]C(=O)Nc1cccc([N+](=O)[O-])c1 (optimized conformer: 40.76128975603014 kcal/mol)

>  <smiles>  (44) 
Cc1ccccc1NC(=O)Nc1cccc([N+](=O)[O-])c1

>  <score_type>  (44) 
oracle

>  <origin>  (44) 
adgpu

>  <m_score__min__energy>  (44) 
-8.5099999999999998

>  <m_primary>  (44) 
energy

$$$$
44:0
     RDKit          3D

 30 32  0  0  0  0  0  0  0  0999 V2000
   -2.2350   23.6570  -27.6120 C   0  0  0  0  0  0  0  0  0  0  0  0
   -3.1390   24.1880  -28.6720 C   0  0  0  0  0  0  0  0  0  0  0  0
   -4.5120   24.0830  -28.6880 C   0  0  0  0  0  0  0  0  0  0  0  0
   -4.8830   24.7840  -29.8190 C   0  0  0  0  0  0  0  0  0  0  0  0
   -6.2510   24.9610  -30.3390 C   0  0  0  0  0  0  0  0  0  0  0  0
   -7.0750   25.6410  -29.6720 O   0  0  0  0  0  0  0  0  0  0  0  0
   -6.6580   24.4340  -31.6090 N   0  0  0  0  0  0  0  0  0  0  0  0
   -6.6090   23.0560  -32.0040 C   0  0  0  0  0  0  0  0  0  0  0  0
   -7.7850   22.3010  -31.9830 C   0  0  0  0  0  0  0  0  0  0  0  0
   -7.7690   20.9520  -32.3460 C   0  0  0  0  0  0  0  0  0  0  0  0
   -6.5680   20.3270  -32.7280 C   0  0  0  0  0  0  0  0  0  0  0  0
   -6.5690   18.9340  -33.1030 N   0  0  0  0  0  0  0  0  0  0  0  0
   -7.0470   17.8840  -32.4050 C   0  0  0  0  0  0  0  0  0  0  0  0
   -6.8640   16.7270  -33.0720 N   0  0  0  0  0  0  0  0  0  0  0  0
   -6.2520   17.1370  -34.2030 C   0  0  0  0  0  0  0  0  0  0  0  0
   -6.0650   18.4700  -34.2330 N   0  0  0  0  0  0  0  0  0  0  0  0
   -5.3800   21.0830  -32.7190 C   0  0  0  0  0  0  0  0  0  0  0  0
   -5.4000   22.4330  -32.3550 C   0  0  0  0  0  0  0  0  0  0  0  0
   -3.7850   25.2690  -30.4320 N   0  0  0  0  0  0  0  0  0  0  0  0
   -2.7210   24.9160  -29.7250 N   0  0  0  0  0  0  0  0  0  0  0  0
   -2.6485   23.8999  -26.6220 H   0  0  0  0  0  0  0  0  0  0  0  0
   -2.1497   22.5653  -27.7160 H   0  0  0  0  0  0  0  0  0  0  0  0
   -1.2399   24.1141  -27.7160 H   0  0  0  0  0  0  0  0  0  0  0  0
   -5.1613   23.5627  -27.9685 H   0  0  0  0  0  0  0  0  0  0  0  0
   -8.7308   22.7728  -31.6782 H   0  0  0  0  0  0  0  0  0  0  0  0
   -8.7043   20.3731  -32.3330 H   0  0  0  0  0  0  0  0  0  0  0  0
   -7.5252   17.9617  -31.4174 H   0  0  0  0  0  0  0  0  0  0  0  0
   -5.9407   16.4577  -35.0103 H   0  0  0  0  0  0  0  0  0  0  0  0
   -4.4287   20.6078  -33.0005 H   0  0  0  0  0  0  0  0  0  0  0  0
   -4.4637   23.0103  -32.3435 H   0  0  0  0  0  0  0  0  0  0  0  0
  1  2  1  0
  2  3  1  0
  3  4  2  0
  4  5  1  0
  5  6  2  0
  5  7  1  0
  7  8  1  0
  8  9  2  0
  9 10  1  0
 10 11  2  0
 11 12  1  0
 12 13  1  0
 13 14  2  0
 14 15  1  0
 15 16  2  0
 11 17  1  0
 17 18  2  0
  4 19  1  0
 19 20  1  0
 20  2  2  0
 18  8  1  0
 16 12  1  0
  1 21  1  0
  1 22  1  0
  1 23  1  0
  3 24  1  0
  9 25  1  0
 10 26  1  0
 13 27  1  0
 15 28  1  0
 17 29  1  0
 18 30  1  0
M  CHG  2   7  -1  19  -1
M  END
>  <UniqueID>  (45) 
42

>  <SMILES>  (45) 
Cc1cc(C(=O)[N-]c2ccc(-n3cncn3)cc2)[n-]n1

>  <Energy>  (45) 
100.44533716052806

>  <Genealogy>  (45) 
Cc1cc(C(=O)[N-]c2ccc(-n3cncn3)cc2)[n-]n1 (protonated)
Cc1cc(C(=O)[N-]c2ccc(-n3cncn3)cc2)[n-]n1 (3D coordinates assigned)
Cc1cc(C(=O)[N-]c2ccc(-n3cncn3)cc2)[n-]n1 (optimized conformer: 100.44533716052806 kcal/mol)

>  <smiles>  (45) 
Cc1cc(C(=O)Nc2ccc(-n3cncn3)cc2)[nH]n1

>  <score_type>  (45) 
oracle

>  <origin>  (45) 
adgpu

>  <m_score__min__energy>  (45) 
-9.9499999999999993

>  <m_primary>  (45) 
energy

$$$$
45:0
     RDKit          3D

 44 47  0  0  1  0  0  0  0  0999 V2000
   -2.8510   21.2500  -27.7140 C   0  0  0  0  0  0  0  0  0  0  0  0
   -2.9500   22.4800  -28.5370 C   0  0  0  0  0  0  0  0  0  0  0  0
   -3.7030   22.4730  -29.6960 C   0  0  0  0  0  0  0  0  0  0  0  0
   -3.7480   23.6530  -30.4100 C   0  0  0  0  0  0  0  0  0  0  0  0
   -4.4100   23.7940  -31.5070 N   0  0  0  0  0  0  0  0  0  0  0  0
   -5.1230   22.6580  -31.9860 C   0  0  0  0  0  0  0  0  0  0  0  0
   -4.4970   21.6350  -32.7030 C   0  0  0  0  0  0  0  0  0  0  0  0
   -3.0880   21.5720  -33.0570 C   0  0  0  0  0  0  0  0  0  0  0  0
   -1.9650   21.5310  -33.3560 N   0  0  0  0  0  0  0  0  0  0  0  0
   -5.4280   20.7020  -33.0170 N   0  0  0  0  0  0  0  0  0  0  0  0
   -6.6040   21.1360  -32.5070 C   0  0  0  0  0  0  0  0  0  0  0  0
   -7.8760   20.5580  -32.5440 C   0  0  0  0  0  0  0  0  0  0  0  0
   -8.9200   21.2330  -31.9290 C   0  0  0  0  0  0  0  0  0  0  0  0
   -8.6960   22.4490  -31.2950 C   0  0  0  0  0  0  0  0  0  0  0  0
   -7.4210   22.9890  -31.2800 C   0  0  0  0  0  0  0  0  0  0  0  0
   -6.4070   22.3320  -31.8790 N   0  0  0  0  0  0  0  0  0  0  0  0
   -3.0780   24.7470  -29.9720 N   0  0  0  0  0  0  0  0  0  0  0  0
   -2.3600   24.6880  -28.8320 C   0  0  0  0  0  0  0  0  0  0  0  0
   -1.7440   25.7600  -28.4660 N   0  0  0  0  0  0  0  0  0  0  0  0
   -0.9560   25.8090  -27.2790 C   0  0  0  0  0  0  0  0  0  0  0  0
    0.4370   25.9260  -27.3610 C   0  0  0  0  0  0  0  0  0  0  0  0
    1.1880   25.9720  -26.1960 C   0  0  0  0  0  0  0  0  0  0  0  0
    0.5480   25.9000  -24.9620 C   0  0  0  0  0  0  0  0  0  0  0  0
   -0.8240   25.7840  -24.8570 C   0  0  0  0  0  0  0  0  0  0  0  0
   -1.5420   25.7400  -26.0290 C   0  0  0  0  0  0  0  0  0  0  0  0
   -3.0360   25.6130  -25.9040 C   0  0  0  0  0  0  0  0  0  0  0  0
   -2.2850   23.5640  -28.1020 N   0  0  0  0  0  0  0  0  0  0  0  0
   -2.8727   21.5195  -26.6478 H   0  0  0  0  0  0  0  0  0  0  0  0
   -3.6987   20.5871  -27.9419 H   0  0  0  0  0  0  0  0  0  0  0  0
   -1.9082   20.7312  -27.9419 H   0  0  0  0  0  0  0  0  0  0  0  0
   -4.2389   21.5730  -30.0320 H   0  0  0  0  0  0  0  0  0  0  0  0
   -8.0445   19.5944  -33.0470 H   0  0  0  0  0  0  0  0  0  0  0  0
   -9.9323   20.8027  -31.9433 H   0  0  0  0  0  0  0  0  0  0  0  0
   -9.5271   22.9798  -30.8076 H   0  0  0  0  0  0  0  0  0  0  0  0
   -7.2357   23.9515  -30.7807 H   0  0  0  0  0  0  0  0  0  0  0  0
   -3.1090   25.6530  -30.5140 H   0  0  0  0  0  0  0  0  0  0  0  0
    0.9318   25.9810  -28.3419 H   0  0  0  0  0  0  0  0  0  0  0  0
    2.2829   26.0648  -26.2468 H   0  0  0  0  0  0  0  0  0  0  0  0
    1.1527   25.9366  -24.0438 H   0  0  0  0  0  0  0  0  0  0  0  0
   -1.3215   25.7291  -23.8774 H   0  0  0  0  0  0  0  0  0  0  0  0
   -3.3142   25.5893  -24.8400 H   0  0  0  0  0  0  0  0  0  0  0  0
   -3.5191   26.4733  -26.3903 H   0  0  0  0  0  0  0  0  0  0  0  0
   -3.3669   24.6835  -26.3903 H   0  0  0  0  0  0  0  0  0  0  0  0
   -1.7170   23.5450  -27.2170 H   0  0  0  0  0  0  0  0  0  0  0  0
  1  2  1  0
  2  3  2  0
  3  4  1  0
  4  5  2  0
  5  6  1  0
  6  7  2  0
  7  8  1  0
  8  9  3  0
  7 10  1  0
 10 11  2  0
 11 12  1  0
 12 13  2  0
 13 14  1  0
 14 15  2  0
 15 16  1  0
  4 17  1  0
 17 18  1  0
 18 19  2  0
 19 20  1  0
 20 21  2  0
 21 22  1  0
 22 23  2  0
 23 24  1  0
 24 25  2  0
 25 26  1  0
 18 27  1  0
 27  2  1  0
 16  6  1  0
 25 20  1  0
 16 11  1  0
  1 28  1  0
  1 29  1  0
  1 30  1  0
  3 31  1  0
 12 32  1  0
 13 33  1  0
 14 34  1  0
 15 35  1  0
 17 36  1  0
 21 37  1  0
 22 38  1  0
 23 39  1  0
 24 40  1  0
 26 41  1  0
 26 42  1  0
 26 43  1  0
 27 44  1  0
M  END
>  <smiles>  (46) 
Cc1cc(=Nc2c(C#N)nc3ccccn23)[nH]c(=Nc2ccccc2C)[nH]1

>  <score_type>  (46) 
oracle

>  <origin>  (46) 
adgpu

>  <m_score__min__energy>  (46) 
-9.2400000000000002

>  <m_primary>  (46) 
energy

$$$$
46:0
     RDKit          3D

 56 59  0  0  0  0  0  0  0  0999 V2000
   -3.2000   22.4330  -29.8020 F   0  0  0  0  0  0  0  0  0  0  0  0
   -2.6270   23.1470  -28.8000 C   0  0  0  0  0  0  0  0  0  0  0  0
   -2.7880   24.5330  -28.7530 C   0  0  0  0  0  0  0  0  0  0  0  0
   -3.5850   25.1650  -29.7150 O   0  0  0  0  0  0  0  0  0  0  0  0
   -5.0060   25.0470  -29.7730 C   0  0  0  0  0  0  0  0  0  0  0  0
   -5.4870   24.9430  -31.2250 C   0  0  0  0  0  0  0  0  0  0  0  0
   -6.1650   23.6260  -31.5010 C   0  0  0  0  0  0  0  0  0  0  0  0
   -5.4430   22.5650  -32.0720 C   0  0  0  0  0  0  0  0  0  0  0  0
   -6.0650   21.3340  -32.3020 C   0  0  0  0  0  0  0  0  0  0  0  0
   -7.4010   21.1430  -31.9410 C   0  0  0  0  0  0  0  0  0  0  0  0
   -8.1250   22.1920  -31.3660 C   0  0  0  0  0  0  0  0  0  0  0  0
   -7.5140   23.4310  -31.1520 C   0  0  0  0  0  0  0  0  0  0  0  0
   -2.1560   25.2510  -27.7860 N   0  0  0  0  0  0  0  0  0  0  0  0
   -1.3550   24.6510  -26.8650 C   0  0  0  0  0  0  0  0  0  0  0  0
   -0.6940   25.4290  -25.8460 N   0  0  0  0  0  0  0  0  0  0  0  0
   -1.5130   26.1160  -24.8380 C   0  0  0  0  0  0  0  0  0  0  0  0
   -0.6410   26.8820  -23.8420 C   0  0  0  0  0  0  0  0  0  0  0  0
    0.4960   26.0510  -23.4390 N   0  0  0  0  0  0  0  0  0  0  0  0
    1.4250   25.7890  -24.5560 C   0  0  0  0  0  0  0  0  0  0  0  0
    0.7440   25.7260  -25.9440 C   0  0  0  0  0  0  0  0  0  0  0  0
   -1.1830   23.3020  -26.9120 N   0  0  0  0  0  0  0  0  0  0  0  0
   -1.8040   22.5330  -27.8460 C   0  0  0  0  0  0  0  0  0  0  0  0
   -1.5540   21.1170  -27.8750 N   0  0  0  0  0  0  0  0  0  0  0  0
   -1.0870   20.4520  -29.0960 C   0  0  0  0  0  0  0  0  0  0  0  0
   -0.0140   19.3930  -28.7680 C   0  0  0  0  0  0  0  0  0  0  0  0
   -0.0950   18.8690  -27.3890 N   0  0  0  0  0  0  0  0  0  0  0  0
   -1.4690   18.8590  -26.8770 C   0  0  0  0  0  0  0  0  0  0  0  0
   -2.0020   20.2940  -26.7480 C   0  0  0  0  0  0  0  0  0  0  0  0
   -5.3152   24.1444  -29.2256 H   0  0  0  0  0  0  0  0  0  0  0  0
   -5.4522   25.9436  -29.3181 H   0  0  0  0  0  0  0  0  0  0  0  0
   -6.1993   25.7576  -31.4226 H   0  0  0  0  0  0  0  0  0  0  0  0
   -4.6071   25.0167  -31.8810 H   0  0  0  0  0  0  0  0  0  0  0  0
   -4.3849   22.7030  -32.3391 H   0  0  0  0  0  0  0  0  0  0  0  0
   -5.5005   20.5133  -32.7687 H   0  0  0  0  0  0  0  0  0  0  0  0
   -7.8828   20.1685  -32.1089 H   0  0  0  0  0  0  0  0  0  0  0  0
   -9.1770   22.0421  -31.0816 H   0  0  0  0  0  0  0  0  0  0  0  0
   -8.0901   24.2567  -30.7090 H   0  0  0  0  0  0  0  0  0  0  0  0
   -2.1852   26.8242  -25.3445 H   0  0  0  0  0  0  0  0  0  0  0  0
   -2.0897   25.3599  -24.2850 H   0  0  0  0  0  0  0  0  0  0  0  0
   -0.2707   27.8040  -24.3140 H   0  0  0  0  0  0  0  0  0  0  0  0
   -1.2392   27.1355  -22.9544 H   0  0  0  0  0  0  0  0  0  0  0  0
    0.1430   25.1420  -23.0550 H   0  0  0  0  0  0  0  0  0  0  0  0
    1.0150   26.5400  -22.6730 H   0  0  0  0  0  0  0  0  0  0  0  0
    2.1761   26.5924  -24.5761 H   0  0  0  0  0  0  0  0  0  0  0  0
    1.8668   24.7981  -24.3747 H   0  0  0  0  0  0  0  0  0  0  0  0
    0.8716   26.6968  -26.4453 H   0  0  0  0  0  0  0  0  0  0  0  0
    1.2178   24.9142  -26.5155 H   0  0  0  0  0  0  0  0  0  0  0  0
   -1.9397   19.9609  -29.5877 H   0  0  0  0  0  0  0  0  0  0  0  0
   -0.6441   21.2078  -29.7613 H   0  0  0  0  0  0  0  0  0  0  0  0
   -0.1326   18.5514  -29.4663 H   0  0  0  0  0  0  0  0  0  0  0  0
    0.9640   19.8869  -28.8660 H   0  0  0  0  0  0  0  0  0  0  0  0
    0.4900   19.4750  -26.7640 H   0  0  0  0  0  0  0  0  0  0  0  0
   -2.1102   18.2950  -27.5703 H   0  0  0  0  0  0  0  0  0  0  0  0
   -1.4769   18.3845  -25.8846 H   0  0  0  0  0  0  0  0  0  0  0  0
   -3.1016   20.2706  -26.7328 H   0  0  0  0  0  0  0  0  0  0  0  0
   -1.6163   20.7317  -25.8155 H   0  0  0  0  0  0  0  0  0  0  0  0
  1  2  1  0
  2  3  2  0
  3  4  1  0
  4  5  1  0
  5  6  1  0
  6  7  1  0
  7  8  2  0
  8  9  1  0
  9 10  2  0
 10 11  1  0
 11 12  2  0
  3 13  1  0
 13 14  2  0
 14 15  1  0
 15 16  1  0
 16 17  1  0
 17 18  1  0
 18 19  1  0
 19 20  1  0
 14 21  1  0
 21 22  2  0
 22 23  1  0
 23 24  1  0
 24 25  1  0
 25 26  1  0
 26 27  1  0
 27 28  1  0
 22  2  1  0
 28 23  1  0
 12  7  1  0
 20 15  1  0
  5 29  1  0
  5 30  1  0
  6 31  1  0
  6 32  1  0
  8 33  1  0
  9 34  1  0
 10 35  1  0
 11 36  1  0
 12 37  1  0
 16 38  1  0
 16 39  1  0
 17 40  1  0
 17 41  1  0
 18 42  1  0
 18 43  1  0
 19 44  1  0
 19 45  1  0
 20 46  1  0
 20 47  1  0
 24 48  1  0
 24 49  1  0
 25 50  1  0
 25 51  1  0
 26 52  1  0
 27 53  1  0
 27 54  1  0
 28 55  1  0
 28 56  1  0
M  CHG  1  18   1
M  END
>  <UniqueID>  (47) 
43

>  <SMILES>  (47) 
Fc1c(OCCc2ccccc2)nc(N2CC[NH2+]CC2)nc1N1CCNCC1

>  <Energy>  (47) 
64.15613800496122

>  <Genealogy>  (47) 
Fc1c(OCCc2ccccc2)nc(N2CC[NH2+]CC2)nc1N1CCNCC1 (protonated)
Fc1c(OCCc2ccccc2)nc(N2CC[NH2+]CC2)nc1N1CCNCC1 (3D coordinates assigned)
Fc1c(OCCc2ccccc2)nc(N2CC[NH2+]CC2)nc1N1CCNCC1 (nonaromatic ring conformer: 64.15613800496122 kcal/mol)

>  <smiles>  (47) 
Fc1c(OCCc2ccccc2)nc(N2CCNCC2)nc1N1CCNCC1

>  <score_type>  (47) 
oracle

>  <origin>  (47) 
adgpu

>  <m_score__min__energy>  (47) 
-9.0700000000000003

>  <m_primary>  (47) 
energy

$$$$
47:0
     RDKit          3D

 41 44  0  0  0  0  0  0  0  0999 V2000
   -4.3780   18.0050  -34.1340 H   0  0  0  0  0  0  0  0  0  0  0  0
   -3.5400   18.6270  -34.1140 N   0  0  0  0  0  0  0  0  0  0  0  0
   -3.5100   19.7410  -33.4520 C   0  0  0  0  0  0  0  0  0  0  0  0
   -4.5590   20.2930  -32.7270 C   0  0  0  0  0  0  0  0  0  0  0  0
   -5.9150   19.7400  -32.5340 C   0  0  0  0  0  0  0  0  0  0  0  0
   -7.0450   20.4750  -32.9300 C   0  0  0  0  0  0  0  0  0  0  0  0
   -6.9194   21.4625  -33.3980 H   0  0  0  0  0  0  0  0  0  0  0  0
   -8.3280   19.9570  -32.7320 C   0  0  0  0  0  0  0  0  0  0  0  0
   -9.2086   20.5370  -33.0452 H   0  0  0  0  0  0  0  0  0  0  0  0
   -8.4940   18.7040  -32.1370 C   0  0  0  0  0  0  0  0  0  0  0  0
   -9.7390   18.2040  -31.9440 F   0  0  0  0  0  0  0  0  0  0  0  0
   -7.3750   17.9670  -31.7380 C   0  0  0  0  0  0  0  0  0  0  0  0
   -7.5057   16.9805  -31.2692 H   0  0  0  0  0  0  0  0  0  0  0  0
   -6.0900   18.4820  -31.9340 C   0  0  0  0  0  0  0  0  0  0  0  0
   -5.2123   17.8996  -31.6170 H   0  0  0  0  0  0  0  0  0  0  0  0
   -4.0730   21.5380  -32.3260 C   0  0  0  0  0  0  0  0  0  0  0  0
   -4.7610   22.5490  -31.4920 C   0  0  0  0  0  0  0  0  0  0  0  0
   -5.8260   23.2920  -32.0290 C   0  0  0  0  0  0  0  0  0  0  0  0
   -6.1472   23.1172  -33.0664 H   0  0  0  0  0  0  0  0  0  0  0  0
   -6.4790   24.2520  -31.2510 C   0  0  0  0  0  0  0  0  0  0  0  0
   -7.3173   24.8241  -31.6752 H   0  0  0  0  0  0  0  0  0  0  0  0
   -6.0700   24.4870  -29.9360 C   0  0  0  0  0  0  0  0  0  0  0  0
   -6.5882   25.2405  -29.3246 H   0  0  0  0  0  0  0  0  0  0  0  0
   -5.0020   23.7640  -29.3980 C   0  0  0  0  0  0  0  0  0  0  0  0
   -4.6766   23.9521  -28.3642 H   0  0  0  0  0  0  0  0  0  0  0  0
   -4.3460   22.8010  -30.1730 C   0  0  0  0  0  0  0  0  0  0  0  0
   -3.5016   22.2386  -29.7479 H   0  0  0  0  0  0  0  0  0  0  0  0
   -2.8160   21.6870  -32.7940 N   0  0  0  0  0  0  0  0  0  0  0  0
   -2.1900   22.5070  -32.6250 H   0  0  0  0  0  0  0  0  0  0  0  0
   -2.4670   20.5990  -33.4660 N   0  0  0  0  0  0  0  0  0  0  0  0
   -1.1930   20.4250  -34.1130 C   0  0  0  0  0  0  0  0  0  0  0  0
   -0.6270   19.1450  -34.2570 C   0  0  0  0  0  0  0  0  0  0  0  0
   -1.1652   18.2631  -33.8794 H   0  0  0  0  0  0  0  0  0  0  0  0
    0.6170   18.9880  -34.8780 C   0  0  0  0  0  0  0  0  0  0  0  0
    1.0517   17.9838  -34.9900 H   0  0  0  0  0  0  0  0  0  0  0  0
    1.3080   20.1040  -35.3560 C   0  0  0  0  0  0  0  0  0  0  0  0
    2.2847   19.9774  -35.8460 H   0  0  0  0  0  0  0  0  0  0  0  0
    0.7590   21.3820  -35.2120 C   0  0  0  0  0  0  0  0  0  0  0  0
    1.6270   22.7830  -35.8110 Cl  0  0  0  0  0  0  0  0  0  0  0  0
   -0.4850   21.5420  -34.5900 C   0  0  0  0  0  0  0  0  0  0  0  0
   -0.9116   22.5492  -34.4736 H   0  0  0  0  0  0  0  0  0  0  0  0
  1  2  1  0
  2  3  2  0
  3  4  1  0
  4  5  1  0
  5  6  2  0
  6  7  1  0
  6  8  1  0
  8  9  1  0
  8 10  2  0
 10 11  1  0
 10 12  1  0
 12 13  1  0
 12 14  2  0
 14 15  1  0
  4 16  2  0
 16 17  1  0
 17 18  2  0
 18 19  1  0
 18 20  1  0
 20 21  1  0
 20 22  2  0
 22 23  1  0
 22 24  1  0
 24 25  1  0
 24 26  2  0
 26 27  1  0
 16 28  1  0
 28 29  1  0
 28 30  1  0
 30 31  1  0
 31 32  2  0
 32 33  1  0
 32 34  1  0
 34 35  1  0
 34 36  2  0
 36 37  1  0
 36 38  1  0
 38 39  1  0
 38 40  2  0
 40 41  1  0
 30  3  1  0
 40 31  1  0
 14  5  1  0
 26 17  1  0
M  END
>  <UniqueID>  (48) 
44

>  <SMILES>  (48) 
[H]/N=c1\c(-c2ccc(F)cc2)c(-c2ccccc2)[nH]n1-c1cccc(Cl)c1

>  <Energy>  (48) 
92.80493999834485

>  <Genealogy>  (48) 
[H]/N=c1\c(-c2ccc(F)cc2)c(-c2ccccc2)[nH]n1-c1cccc(Cl)c1 (cis-trans isomerization)
[H]/N=c1\c(-c2ccc(F)cc2)c(-c2ccccc2)[nH]n1-c1cccc(Cl)c1 (3D coordinates assigned)
[H]/N=c1\c(-c2ccc(F)cc2)c(-c2ccccc2)[nH]n1-c1cccc(Cl)c1 (optimized conformer: 92.80493999834485 kcal/mol)

>  <smiles>  (48) 
N=c1c(-c2ccc(F)cc2)c(-c2ccccc2)[nH]n1-c1cccc(Cl)c1

>  <score_type>  (48) 
oracle

>  <origin>  (48) 
adgpu

>  <m_score__min__energy>  (48) 
-8.4100000000000001

>  <m_primary>  (48) 
energy

$$$$
48:0
     RDKit          3D

 29 30  0  0  0  0  0  0  0  0999 V2000
   -8.5070   22.5020  -31.5710 C   0  0  0  0  0  0  0  0  0  0  0  0
   -7.1860   23.1120  -31.2000 C   0  0  0  0  0  0  0  0  0  0  0  0
   -7.1380   24.2740  -30.4140 C   0  0  0  0  0  0  0  0  0  0  0  0
   -5.9100   24.8580  -30.0910 C   0  0  0  0  0  0  0  0  0  0  0  0
   -4.7090   24.2870  -30.5470 C   0  0  0  0  0  0  0  0  0  0  0  0
   -3.4360   24.8840  -30.2500 N   0  0  0  0  0  0  0  0  0  0  0  0
   -2.5290   24.3890  -29.2500 C   0  0  0  0  0  0  0  0  0  0  0  0
   -2.8590   23.2570  -28.5070 C   0  0  0  0  0  0  0  0  0  0  0  0
   -1.9750   22.8130  -27.5220 C   0  0  0  0  0  0  0  0  0  0  0  0
   -2.2830   21.7950  -26.8420 O   0  0  0  0  0  0  0  0  0  0  0  0
   -0.7960   23.4770  -27.2980 N   0  0  0  0  0  0  0  0  0  0  0  0
    0.1210   23.0230  -26.2410 C   0  0  0  0  0  0  0  0  0  0  0  0
   -0.5150   24.6130  -28.0160 C   0  0  0  0  0  0  0  0  0  0  0  0
    0.5370   25.2720  -27.7980 O   0  0  0  0  0  0  0  0  0  0  0  0
   -1.3740   25.0480  -28.9730 N   0  0  0  0  0  0  0  0  0  0  0  0
   -4.7620   23.1490  -31.3640 C   0  0  0  0  0  0  0  0  0  0  0  0
   -5.9900   22.5610  -31.6880 C   0  0  0  0  0  0  0  0  0  0  0  0
   -6.0100   21.4600  -32.4800 F   0  0  0  0  0  0  0  0  0  0  0  0
   -9.0622   22.2456  -30.6567 H   0  0  0  0  0  0  0  0  0  0  0  0
   -9.0898   23.2222  -32.1641 H   0  0  0  0  0  0  0  0  0  0  0  0
   -8.3367   21.5914  -32.1641 H   0  0  0  0  0  0  0  0  0  0  0  0
   -8.0719   24.7274  -30.0503 H   0  0  0  0  0  0  0  0  0  0  0  0
   -5.8831   25.7698  -29.4763 H   0  0  0  0  0  0  0  0  0  0  0  0
   -3.1160   25.6770  -30.8520 H   0  0  0  0  0  0  0  0  0  0  0  0
   -3.8016   22.7216  -28.6939 H   0  0  0  0  0  0  0  0  0  0  0  0
   -0.3182   23.2405  -25.2562 H   0  0  0  0  0  0  0  0  0  0  0  0
    0.2849   21.9396  -26.3382 H   0  0  0  0  0  0  0  0  0  0  0  0
    1.0819   23.5494  -26.3382 H   0  0  0  0  0  0  0  0  0  0  0  0
   -3.8299   22.7142  -31.7540 H   0  0  0  0  0  0  0  0  0  0  0  0
  1  2  1  0
  2  3  2  0
  3  4  1  0
  4  5  2  0
  5  6  1  0
  6  7  1  0
  7  8  2  0
  8  9  1  0
  9 10  2  0
  9 11  1  0
 11 12  1  0
 11 13  1  0
 13 14  2  0
 13 15  1  0
  5 16  1  0
 16 17  2  0
 17 18  1  0
 17  2  1  0
 15  7  1  0
  1 19  1  0
  1 20  1  0
  1 21  1  0
  3 22  1  0
  4 23  1  0
  6 24  1  0
  8 25  1  0
 12 26  1  0
 12 27  1  0
 12 28  1  0
 16 29  1  0
M  CHG  1  15  -1
M  END
>  <UniqueID>  (49) 
45

>  <SMILES>  (49) 
Cc1ccc(Nc2cc(=O)n(C)c(=O)[n-]2)cc1F

>  <Energy>  (49) 
36.95159014114367

>  <Genealogy>  (49) 
Cc1ccc(Nc2cc(=O)n(C)c(=O)[n-]2)cc1F (protonated)
Cc1ccc(Nc2cc(=O)n(C)c(=O)[n-]2)cc1F (3D coordinates assigned)
Cc1ccc(Nc2cc(=O)n(C)c(=O)[n-]2)cc1F (optimized conformer: 36.95159014114367 kcal/mol)

>  <smiles>  (49) 
Cc1ccc(Nc2cc(=O)n(C)c(=O)[nH]2)cc1F

>  <score_type>  (49) 
oracle

>  <origin>  (49) 
adgpu

>  <m_score__min__energy>  (49) 
-7.7999999999999998

>  <m_primary>  (49) 
energy

$$$$
