0:0
     RDKit          3D

 54 58  0  0  0  0  0  0  0  0999 V2000
   -1.3340   25.2970  -29.2620 O   0  0  0  0  0  0  0  0  0  0  0  0
   -2.5630   24.4380  -29.1310 S   0  0  0  0  0  0  0  0  0  0  0  0
   -3.3700   24.9250  -27.9560 O   0  0  0  0  0  0  0  0  0  0  0  0
   -3.5190   24.5860  -30.5710 N   0  0  0  0  0  0  0  0  0  0  0  0
   -4.7820   23.9390  -30.7230 C   0  0  0  0  0  0  0  0  0  0  0  0
   -4.8720   22.7260  -31.4290 C   0  0  0  0  0  0  0  0  0  0  0  0
   -6.1230   22.1270  -31.5580 C   0  0  0  0  0  0  0  0  0  0  0  0
   -7.2640   22.6980  -31.0290 C   0  0  0  0  0  0  0  0  0  0  0  0
   -7.2010   23.9130  -30.3450 C   0  0  0  0  0  0  0  0  0  0  0  0
   -5.9480   24.5410  -30.1960 C   0  0  0  0  0  0  0  0  0  0  0  0
   -5.8520   25.7560  -29.5170 O   0  0  0  0  0  0  0  0  0  0  0  0
   -8.4720   21.8390  -31.2640 C   0  0  0  0  0  0  0  0  0  0  0  0
   -7.8450   20.6770  -31.9790 C   0  0  0  0  0  0  0  0  0  0  0  0
   -8.4680   19.5100  -32.4230 C   0  0  0  0  0  0  0  0  0  0  0  0
   -7.6860   18.5260  -33.0520 C   0  0  0  0  0  0  0  0  0  0  0  0
   -6.3010   18.7170  -33.2230 C   0  0  0  0  0  0  0  0  0  0  0  0
   -5.6860   19.8950  -32.7670 C   0  0  0  0  0  0  0  0  0  0  0  0
   -6.4860   20.8620  -32.1550 C   0  0  0  0  0  0  0  0  0  0  0  0
   -2.0560   22.7690  -28.8600 C   0  0  0  0  0  0  0  0  0  0  0  0
   -2.2600   22.1730  -27.6100 C   0  0  0  0  0  0  0  0  0  0  0  0
   -1.8400   20.8610  -27.3810 C   0  0  0  0  0  0  0  0  0  0  0  0
   -1.2320   20.1270  -28.4040 C   0  0  0  0  0  0  0  0  0  0  0  0
   -0.8410   18.8520  -28.1540 F   0  0  0  0  0  0  0  0  0  0  0  0
   -1.0410   20.7070  -29.6700 C   0  0  0  0  0  0  0  0  0  0  0  0
   -0.3090   19.7880  -30.9920 S   0  0  0  0  0  0  0  0  0  0  0  0
    0.3200   18.5450  -30.4260 O   0  0  0  0  0  0  0  0  0  0  0  0
    0.7900   20.6070  -31.6090 O   0  0  0  0  0  0  0  0  0  0  0  0
   -1.4530   19.3380  -32.2410 N   0  0  0  0  0  0  0  0  0  0  0  0
   -0.8150   19.1280  -33.5580 C   0  0  0  0  0  0  0  0  0  0  0  0
   -0.9100   20.3600  -34.4750 C   0  0  0  0  0  0  0  0  0  0  0  0
   -1.0770   21.5340  -33.7150 O   0  0  0  0  0  0  0  0  0  0  0  0
   -2.3510   21.5260  -33.1040 C   0  0  0  0  0  0  0  0  0  0  0  0
   -2.6210   20.2370  -32.2970 C   0  0  0  0  0  0  0  0  0  0  0  0
   -1.4520   22.0320  -29.8890 C   0  0  0  0  0  0  0  0  0  0  0  0
   -3.9768   22.2618  -31.8684 H   0  0  0  0  0  0  0  0  0  0  0  0
   -8.1110   24.3713  -29.9305 H   0  0  0  0  0  0  0  0  0  0  0  0
   -5.0300   25.9960  -28.9760 H   0  0  0  0  0  0  0  0  0  0  0  0
   -8.9405   21.5293  -30.3182 H   0  0  0  0  0  0  0  0  0  0  0  0
   -9.2856   22.3325  -31.8158 H   0  0  0  0  0  0  0  0  0  0  0  0
   -9.5492   19.3632  -32.2836 H   0  0  0  0  0  0  0  0  0  0  0  0
   -8.1587   17.6007  -33.4131 H   0  0  0  0  0  0  0  0  0  0  0  0
   -5.6980   17.9402  -33.7159 H   0  0  0  0  0  0  0  0  0  0  0  0
   -4.6040   20.0512  -32.8888 H   0  0  0  0  0  0  0  0  0  0  0  0
   -2.7524   22.7396  -26.8060 H   0  0  0  0  0  0  0  0  0  0  0  0
   -1.9881   20.4032  -26.3918 H   0  0  0  0  0  0  0  0  0  0  0  0
    0.2472   18.8903  -33.3991 H   0  0  0  0  0  0  0  0  0  0  0  0
   -1.3497   18.3054  -34.0554 H   0  0  0  0  0  0  0  0  0  0  0  0
    0.0133   20.4415  -35.0673 H   0  0  0  0  0  0  0  0  0  0  0  0
   -1.7794   20.2412  -35.1383 H   0  0  0  0  0  0  0  0  0  0  0  0
   -2.4195   22.3874  -32.4233 H   0  0  0  0  0  0  0  0  0  0  0  0
   -3.1025   21.5778  -33.9056 H   0  0  0  0  0  0  0  0  0  0  0  0
   -2.8971   20.5176  -31.2699 H   0  0  0  0  0  0  0  0  0  0  0  0
   -3.4310   19.6935  -32.8055 H   0  0  0  0  0  0  0  0  0  0  0  0
   -1.2990   22.4951  -30.8749 H   0  0  0  0  0  0  0  0  0  0  0  0
  1  2  2  0
  2  3  2  0
  2  4  1  0
  4  5  1  0
  5  6  2  0
  6  7  1  0
  7  8  2  0
  8  9  1  0
  9 10  2  0
 10 11  1  0
  8 12  1  0
 12 13  1  0
 13 14  2  0
 14 15  1  0
 15 16  2  0
 16 17  1  0
 17 18  2  0
  2 19  1  0
 19 20  2  0
 20 21  1  0
 21 22  2  0
 22 23  1  0
 22 24  1  0
 24 25  1  0
 25 26  2  0
 25 27  2  0
 25 28  1  0
 28 29  1  0
 29 30  1  0
 30 31  1  0
 31 32  1  0
 32 33  1  0
 24 34  2  0
 10  5  1  0
 18 13  1  0
 34 19  1  0
 18  7  1  0
 33 28  1  0
  6 35  1  0
  9 36  1  0
 11 37  1  0
 12 38  1  0
 12 39  1  0
 14 40  1  0
 15 41  1  0
 16 42  1  0
 17 43  1  0
 20 44  1  0
 21 45  1  0
 29 46  1  0
 29 47  1  0
 30 48  1  0
 30 49  1  0
 32 50  1  0
 32 51  1  0
 33 52  1  0
 33 53  1  0
 34 54  1  0
M  CHG  1   4  -1
M  END
>  <UniqueID>  (1) 
1

>  <SMILES>  (1) 
O=S(=O)([N-]c1cc2c(cc1O)Cc1ccccc1-2)c1ccc(F)c(S(=O)(=O)N2CCOCC2)c1

>  <Energy>  (1) 
95.55085341437399

>  <Genealogy>  (1) 
O=S(=O)([N-]c1cc2c(cc1O)Cc1ccccc1-2)c1ccc(F)c(S(=O)(=O)N2CCOCC2)c1 (protonated)
O=S(=O)([N-]c1cc2c(cc1O)Cc1ccccc1-2)c1ccc(F)c(S(=O)(=O)N2CCOCC2)c1 (3D coordinates assigned)
O=S(=O)([N-]c1cc2c(cc1O)Cc1ccccc1-2)c1ccc(F)c(S(=O)(=O)N2CCOCC2)c1 (nonaromatic ring conformer: 95.55085341437399 kcal/mol)

>  <smiles>  (1) 
O=S(=O)(Nc1cc2c(cc1O)Cc1ccccc1-2)c1ccc(F)c(S(=O)(=O)N2CCOCC2)c1

>  <score_type>  (1) 
oracle

>  <origin>  (1) 
adgpu

>  <m_score__min__energy>  (1) 
-12.81

>  <m_primary>  (1) 
energy

$$$$
1:0
     RDKit          3D

 33 35  0  0  0  0  0  0  0  0999 V2000
   -6.1470   25.2270  -29.4560 C   0  0  0  0  0  0  0  0  0  0  0  0
   -5.2130   24.9330  -30.5800 C   0  0  0  0  0  0  0  0  0  0  0  0
   -5.6540   24.4190  -31.6440 O   0  0  0  0  0  0  0  0  0  0  0  0
   -3.8330   25.2980  -30.4700 N   0  0  0  0  0  0  0  0  0  0  0  0
   -2.8330   24.4620  -29.8730 C   0  0  0  0  0  0  0  0  0  0  0  0
   -1.9850   25.0230  -28.9140 C   0  0  0  0  0  0  0  0  0  0  0  0
   -0.9950   24.2840  -28.3520 N   0  0  0  0  0  0  0  0  0  0  0  0
   -0.7940   22.9820  -28.6740 C   0  0  0  0  0  0  0  0  0  0  0  0
    0.1480   22.3520  -28.1210 O   0  0  0  0  0  0  0  0  0  0  0  0
   -1.6380   22.3480  -29.6070 C   0  0  0  0  0  0  0  0  0  0  0  0
   -1.4690   20.9940  -29.9430 C   0  0  0  0  0  0  0  0  0  0  0  0
   -2.3370   20.3750  -30.8420 C   0  0  0  0  0  0  0  0  0  0  0  0
   -3.4000   21.0890  -31.4160 C   0  0  0  0  0  0  0  0  0  0  0  0
   -4.3340   20.4170  -32.3560 C   0  0  0  0  0  0  0  0  0  0  0  0
   -3.8840   19.3820  -33.1970 C   0  0  0  0  0  0  0  0  0  0  0  0
   -4.7670   18.7510  -34.0790 C   0  0  0  0  0  0  0  0  0  0  0  0
   -6.1060   19.1450  -34.1310 C   0  0  0  0  0  0  0  0  0  0  0  0
   -6.5650   20.1700  -33.3030 C   0  0  0  0  0  0  0  0  0  0  0  0
   -5.6870   20.8050  -32.4200 C   0  0  0  0  0  0  0  0  0  0  0  0
   -3.5720   22.4440  -31.0870 C   0  0  0  0  0  0  0  0  0  0  0  0
   -2.6860   23.0940  -30.2050 C   0  0  0  0  0  0  0  0  0  0  0  0
   -5.6308   25.0645  -28.4983 H   0  0  0  0  0  0  0  0  0  0  0  0
   -6.4800   26.2734  -29.5201 H   0  0  0  0  0  0  0  0  0  0  0  0
   -7.0194   24.5600  -29.5201 H   0  0  0  0  0  0  0  0  0  0  0  0
   -2.1211   26.0720  -28.6123 H   0  0  0  0  0  0  0  0  0  0  0  0
   -0.6463   20.4184  -29.4938 H   0  0  0  0  0  0  0  0  0  0  0  0
   -2.1870   19.3171  -31.1036 H   0  0  0  0  0  0  0  0  0  0  0  0
   -2.8306   19.0673  -33.1603 H   0  0  0  0  0  0  0  0  0  0  0  0
   -4.4065   17.9432  -34.7328 H   0  0  0  0  0  0  0  0  0  0  0  0
   -6.7990   18.6470  -34.8251 H   0  0  0  0  0  0  0  0  0  0  0  0
   -7.6199   20.4790  -33.3452 H   0  0  0  0  0  0  0  0  0  0  0  0
   -6.0548   21.6131  -31.7707 H   0  0  0  0  0  0  0  0  0  0  0  0
   -4.4106   23.0057  -31.5243 H   0  0  0  0  0  0  0  0  0  0  0  0
  1  2  1  0
  2  3  2  0
  2  4  1  0
  4  5  1  0
  5  6  2  0
  6  7  1  0
  7  8  1  0
  8  9  2  0
  8 10  1  0
 10 11  2  0
 11 12  1  0
 12 13  2  0
 13 14  1  0
 14 15  2  0
 15 16  1  0
 16 17  2  0
 17 18  1  0
 18 19  2  0
 13 20  1  0
 20 21  2  0
 21  5  1  0
 21 10  1  0
 19 14  1  0
  1 22  1  0
  1 23  1  0
  1 24  1  0
  6 25  1  0
 11 26  1  0
 12 27  1  0
 15 28  1  0
 16 29  1  0
 17 30  1  0
 18 31  1  0
 19 32  1  0
 20 33  1  0
M  CHG  2   4  -1   7  -1
M  END
>  <UniqueID>  (2) 
2

>  <SMILES>  (2) 
CC(=O)[N-]c1c[n-]c(=O)c2ccc(-c3ccccc3)cc12

>  <Energy>  (2) 
52.41333427096493

>  <Genealogy>  (2) 
CC(=O)[N-]c1c[n-]c(=O)c2ccc(-c3ccccc3)cc12 (protonated)
CC(=O)[N-]c1c[n-]c(=O)c2ccc(-c3ccccc3)cc12 (3D coordinates assigned)
CC(=O)[N-]c1c[n-]c(=O)c2ccc(-c3ccccc3)cc12 (optimized conformer: 52.41333427096493 kcal/mol)

>  <smiles>  (2) 
CC(=O)Nc1c[nH]c(=O)c2ccc(-c3ccccc3)cc12

>  <score_type>  (2) 
oracle

>  <origin>  (2) 
adgpu

>  <m_score__min__energy>  (2) 
-9.6999999999999993

>  <m_primary>  (2) 
energy

$$$$
2:0
     RDKit          3D

 44 47  0  0  0  0  0  0  0  0999 V2000
   -5.3370   25.9810  -31.0430 O   0  0  0  0  0  0  0  0  0  0  0  0
   -5.7970   24.9650  -30.0350 S   0  0  0  0  0  0  0  0  0  0  0  0
   -7.1350   25.3840  -29.4930 O   0  0  0  0  0  0  0  0  0  0  0  0
   -4.6540   24.8910  -28.7310 N   0  0  0  0  0  0  0  0  0  0  0  0
   -3.5820   23.9300  -28.6670 C   0  0  0  0  0  0  0  0  0  0  0  0
   -3.8220   22.5870  -28.3180 C   0  0  0  0  0  0  0  0  0  0  0  0
   -2.7700   21.6630  -28.2730 C   0  0  0  0  0  0  0  0  0  0  0  0
   -1.4660   22.0740  -28.5790 C   0  0  0  0  0  0  0  0  0  0  0  0
   -1.2160   23.4070  -28.9230 C   0  0  0  0  0  0  0  0  0  0  0  0
   -2.2640   24.3330  -28.9620 C   0  0  0  0  0  0  0  0  0  0  0  0
   -1.9900   25.6510  -29.3080 O   0  0  0  0  0  0  0  0  0  0  0  0
   -0.3660   21.0480  -28.5600 C   0  0  0  0  0  0  0  0  0  0  0  0
   -0.4940   20.1620  -27.3110 C   0  0  0  0  0  0  0  0  0  0  0  0
   -1.9270   19.6240  -27.0530 C   0  0  0  0  0  0  0  0  0  0  0  0
   -3.0180   20.2090  -27.9740 C   0  0  0  0  0  0  0  0  0  0  0  0
   -5.9060   23.3950  -30.8270 C   0  0  0  0  0  0  0  0  0  0  0  0
   -4.7950   22.8450  -31.4750 C   0  0  0  0  0  0  0  0  0  0  0  0
   -4.8990   21.6130  -32.1260 C   0  0  0  0  0  0  0  0  0  0  0  0
   -6.1160   20.9060  -32.1360 C   0  0  0  0  0  0  0  0  0  0  0  0
   -6.2080   19.6390  -32.8200 N   0  0  0  0  0  0  0  0  0  0  0  0
   -6.6410   18.4640  -32.3120 C   0  0  0  0  0  0  0  0  0  0  0  0
   -6.5580   17.5030  -33.2960 C   0  0  0  0  0  0  0  0  0  0  0  0
   -6.0580   18.1680  -34.3960 C   0  0  0  0  0  0  0  0  0  0  0  0
   -5.8520   19.4610  -34.0830 N   0  0  0  0  0  0  0  0  0  0  0  0
   -7.2290   21.4680  -31.4780 C   0  0  0  0  0  0  0  0  0  0  0  0
   -7.1210   22.7000  -30.8290 C   0  0  0  0  0  0  0  0  0  0  0  0
   -4.7000   25.6580  -28.0250 H   0  0  0  0  0  0  0  0  0  0  0  0
   -4.8448   22.2605  -28.0786 H   0  0  0  0  0  0  0  0  0  0  0  0
   -0.1918   23.7280  -29.1636 H   0  0  0  0  0  0  0  0  0  0  0  0
   -0.4379   20.4204  -29.4605 H   0  0  0  0  0  0  0  0  0  0  0  0
    0.6063   21.5620  -28.5395 H   0  0  0  0  0  0  0  0  0  0  0  0
    0.1810   19.3014  -27.4285 H   0  0  0  0  0  0  0  0  0  0  0  0
   -0.2351   20.7941  -26.4488 H   0  0  0  0  0  0  0  0  0  0  0  0
   -1.9121   18.5329  -27.1918 H   0  0  0  0  0  0  0  0  0  0  0  0
   -2.1911   19.9302  -26.0300 H   0  0  0  0  0  0  0  0  0  0  0  0
   -3.0263   19.6466  -28.9193 H   0  0  0  0  0  0  0  0  0  0  0  0
   -3.9856   20.1243  -27.4577 H   0  0  0  0  0  0  0  0  0  0  0  0
   -3.8362   23.3842  -31.4721 H   0  0  0  0  0  0  0  0  0  0  0  0
   -4.0204   21.1912  -32.6361 H   0  0  0  0  0  0  0  0  0  0  0  0
   -6.9997   18.3019  -31.2848 H   0  0  0  0  0  0  0  0  0  0  0  0
   -6.8304   16.4399  -33.2208 H   0  0  0  0  0  0  0  0  0  0  0  0
   -5.8584   17.7124  -35.3771 H   0  0  0  0  0  0  0  0  0  0  0  0
   -8.1897   20.9322  -31.4757 H   0  0  0  0  0  0  0  0  0  0  0  0
   -7.9958   23.1266  -30.3165 H   0  0  0  0  0  0  0  0  0  0  0  0
  1  2  2  0
  2  3  2  0
  2  4  1  0
  4  5  1  0
  5  6  2  0
  6  7  1  0
  7  8  2  0
  8  9  1  0
  9 10  2  0
 10 11  1  0
  8 12  1  0
 12 13  1  0
 13 14  1  0
 14 15  1  0
  2 16  1  0
 16 17  2  0
 17 18  1  0
 18 19  2  0
 19 20  1  0
 20 21  1  0
 21 22  2  0
 22 23  1  0
 23 24  2  0
 19 25  1  0
 25 26  2  0
 10  5  1  0
 26 16  1  0
 15  7  1  0
 24 20  1  0
  4 27  1  0
  6 28  1  0
  9 29  1  0
 12 30  1  0
 12 31  1  0
 13 32  1  0
 13 33  1  0
 14 34  1  0
 14 35  1  0
 15 36  1  0
 15 37  1  0
 17 38  1  0
 18 39  1  0
 21 40  1  0
 22 41  1  0
 23 42  1  0
 25 43  1  0
 26 44  1  0
M  CHG  1  11  -1
M  END
>  <UniqueID>  (3) 
3

>  <SMILES>  (3) 
O=S(=O)(Nc1cc2c(cc1[O-])CCCC2)c1ccc(-n2cccn2)cc1

>  <Energy>  (3) 
86.96426567392186

>  <Genealogy>  (3) 
O=S(=O)(Nc1cc2c(cc1[O-])CCCC2)c1ccc(-n2cccn2)cc1 (protonated)
O=S(=O)(Nc1cc2c(cc1[O-])CCCC2)c1ccc(-n2cccn2)cc1 (3D coordinates assigned)
O=S(=O)(Nc1cc2c(cc1[O-])CCCC2)c1ccc(-n2cccn2)cc1 (nonaromatic ring conformer: 86.96426567392186 kcal/mol)

>  <smiles>  (3) 
O=S(=O)(Nc1cc2c(cc1O)CCCC2)c1ccc(-n2cccn2)cc1

>  <score_type>  (3) 
oracle

>  <origin>  (3) 
adgpu

>  <m_score__min__energy>  (3) 
-13.109999999999999

>  <m_primary>  (3) 
energy

$$$$
3:0
     RDKit          3D

 62 66  0  0  0  0  0  0  0  0999 V2000
   -1.4220   24.2500  -28.1900 C   0  0  0  0  0  0  0  0  0  0  0  0
   -2.0880   24.8860  -29.3220 N   0  0  0  0  0  0  0  0  0  0  0  0
   -3.3110   24.6350  -29.6840 C   0  0  0  0  0  0  0  0  0  0  0  0
   -4.0650   23.7160  -29.0150 N   0  0  0  0  0  0  0  0  0  0  0  0
   -5.3440   23.4540  -29.3870 C   0  0  0  0  0  0  0  0  0  0  0  0
   -5.9130   24.1360  -30.4700 C   0  0  0  0  0  0  0  0  0  0  0  0
   -7.3510   23.9040  -30.8620 C   0  0  0  0  0  0  0  0  0  0  0  0
   -7.4620   23.1110  -32.1710 C   0  0  0  0  0  0  0  0  0  0  0  0
   -7.0180   21.7250  -31.9990 N   0  0  0  0  0  0  0  0  0  0  0  0
   -7.9430   20.6330  -32.0690 C   0  0  0  0  0  0  0  0  0  0  0  0
   -9.1730   20.8390  -31.8900 O   0  0  0  0  0  0  0  0  0  0  0  0
   -7.4710   19.2710  -32.3720 C   0  0  0  0  0  0  0  0  0  0  0  0
   -8.2010   18.0800  -32.3430 C   0  0  0  0  0  0  0  0  0  0  0  0
   -7.3880   17.0310  -32.6190 N   0  0  0  0  0  0  0  0  0  0  0  0
   -6.1800   17.5290  -32.8200 N   0  0  0  0  0  0  0  0  0  0  0  0
   -5.0530   16.8420  -33.1150 C   0  0  0  0  0  0  0  0  0  0  0  0
   -3.8660   17.5670  -33.2840 C   0  0  0  0  0  0  0  0  0  0  0  0
   -3.8920   18.9790  -33.1410 C   0  0  0  0  0  0  0  0  0  0  0  0
   -2.7030   19.7740  -33.3230 N   0  0  0  0  0  0  0  0  0  0  0  0
   -1.6810   19.4350  -34.3020 C   0  0  0  0  0  0  0  0  0  0  0  0
   -0.5550   20.4390  -34.0970 C   0  0  0  0  0  0  0  0  0  0  0  0
   -1.1480   21.5770  -33.2690 C   0  0  0  0  0  0  0  0  0  0  0  0
   -2.3930   20.9990  -32.5900 C   0  0  2  0  0  0  0  0  0  0  0  0
   -2.1370   20.7150  -31.1170 C   0  0  0  0  0  0  0  0  0  0  0  0
   -3.0390   21.1780  -30.1380 C   0  0  0  0  0  0  0  0  0  0  0  0
   -2.8190   20.9110  -28.7870 C   0  0  0  0  0  0  0  0  0  0  0  0
   -1.7090   20.1670  -28.3930 C   0  0  0  0  0  0  0  0  0  0  0  0
   -0.8150   19.6810  -29.3490 C   0  0  0  0  0  0  0  0  0  0  0  0
   -1.0220   19.9420  -30.7190 C   0  0  0  0  0  0  0  0  0  0  0  0
   -0.1460   19.4490  -31.7010 O   0  0  0  0  0  0  0  0  0  0  0  0
    0.6140   18.2510  -31.5800 C   0  0  0  0  0  0  0  0  0  0  0  0
   -5.0730   19.6000  -32.8320 N   0  0  0  0  0  0  0  0  0  0  0  0
   -6.1950   18.8560  -32.6790 C   0  0  0  0  0  0  0  0  0  0  0  0
   -5.1220   25.0740  -31.1440 C   0  0  0  0  0  0  0  0  0  0  0  0
   -3.8440   25.3020  -30.7410 N   0  0  0  0  0  0  0  0  0  0  0  0
   -1.8365   24.6458  -27.2511 H   0  0  0  0  0  0  0  0  0  0  0  0
   -1.5840   23.1628  -28.2328 H   0  0  0  0  0  0  0  0  0  0  0  0
   -0.3435   24.4619  -28.2328 H   0  0  0  0  0  0  0  0  0  0  0  0
   -5.9339   22.7056  -28.8375 H   0  0  0  0  0  0  0  0  0  0  0  0
   -7.8525   23.3413  -30.0608 H   0  0  0  0  0  0  0  0  0  0  0  0
   -7.8273   24.8839  -31.0135 H   0  0  0  0  0  0  0  0  0  0  0  0
   -8.5112   23.1118  -32.5014 H   0  0  0  0  0  0  0  0  0  0  0  0
   -6.8149   23.5901  -32.9205 H   0  0  0  0  0  0  0  0  0  0  0  0
   -6.0010   21.5150  -31.8930 H   0  0  0  0  0  0  0  0  0  0  0  0
   -9.2771   18.0047  -32.1279 H   0  0  0  0  0  0  0  0  0  0  0  0
   -5.0678   15.7470  -33.2191 H   0  0  0  0  0  0  0  0  0  0  0  0
   -2.9261   17.0486  -33.5244 H   0  0  0  0  0  0  0  0  0  0  0  0
   -1.3155   18.4111  -34.1343 H   0  0  0  0  0  0  0  0  0  0  0  0
   -2.0760   19.4760  -35.3278 H   0  0  0  0  0  0  0  0  0  0  0  0
    0.2812   19.9700  -33.5577 H   0  0  0  0  0  0  0  0  0  0  0  0
   -0.1616   20.8034  -35.0574 H   0  0  0  0  0  0  0  0  0  0  0  0
   -0.4243   21.9181  -32.5141 H   0  0  0  0  0  0  0  0  0  0  0  0
   -1.3972   22.4452  -33.8967 H   0  0  0  0  0  0  0  0  0  0  0  0
   -3.2341   21.7075  -32.6149 H   0  0  0  0  0  0  0  0  0  0  0  0
   -3.9246   21.7552  -30.4423 H   0  0  0  0  0  0  0  0  0  0  0  0
   -3.5232   21.2886  -28.0310 H   0  0  0  0  0  0  0  0  0  0  0  0
   -1.5365   19.9620  -27.3261 H   0  0  0  0  0  0  0  0  0  0  0  0
    0.0569   19.0904  -29.0311 H   0  0  0  0  0  0  0  0  0  0  0  0
    0.7625   18.0169  -30.5155 H   0  0  0  0  0  0  0  0  0  0  0  0
    0.0749   17.4242  -32.0655 H   0  0  0  0  0  0  0  0  0  0  0  0
    1.5917   18.3864  -32.0655 H   0  0  0  0  0  0  0  0  0  0  0  0
   -5.5350   25.6270  -32.0005 H   0  0  0  0  0  0  0  0  0  0  0  0
  1  2  1  0
  2  3  2  3
  3  4  1  0
  4  5  2  0
  5  6  1  0
  6  7  1  0
  7  8  1  0
  8  9  1  0
  9 10  1  0
 10 11  2  0
 10 12  1  0
 12 13  1  0
 13 14  2  0
 14 15  1  0
 15 16  1  0
 16 17  2  0
 17 18  1  0
 18 19  1  0
 19 20  1  0
 20 21  1  0
 21 22  1  0
 22 23  1  0
 23 24  1  0
 24 25  2  0
 25 26  1  0
 26 27  2  0
 27 28  1  0
 28 29  2  0
 29 30  1  0
 30 31  1  0
 18 32  2  0
 32 33  1  0
  6 34  2  0
 34 35  1  0
 35  3  1  0
 33 12  2  0
 33 15  1  0
 23 19  1  0
 29 24  1  0
  1 36  1  0
  1 37  1  0
  1 38  1  0
  5 39  1  0
  7 40  1  0
  7 41  1  0
  8 42  1  0
  8 43  1  0
  9 44  1  0
 13 45  1  0
 16 46  1  0
 17 47  1  0
 20 48  1  0
 20 49  1  0
 21 50  1  0
 21 51  1  0
 22 52  1  0
 22 53  1  0
 23 54  1  1
 25 55  1  0
 26 56  1  0
 27 57  1  0
 28 58  1  0
 31 59  1  0
 31 60  1  0
 31 61  1  0
 34 62  1  0
M  CHG  1  35  -1
M  END
>  <UniqueID>  (4) 
4

>  <SMILES>  (4) 
CN=c1ncc(CCNC(=O)c2cnn3ccc(N4CCC[C@@H]4c4ccccc4OC)nc23)c[n-]1

>  <Energy>  (4) 
101.525744606894

>  <Genealogy>  (4) 
CN=c1ncc(CCNC(=O)c2cnn3ccc(N4CCCC4c4ccccc4OC)nc23)c[n-]1 (protonated)
CN=c1ncc(CCNC(=O)c2cnn3ccc(N4CCC[C@@H]4c4ccccc4OC)nc23)c[n-]1 (chirality)
CN=c1ncc(CCNC(=O)c2cnn3ccc(N4CCC[C@@H]4c4ccccc4OC)nc23)c[n-]1 (3D coordinates assigned)
CN=c1ncc(CCNC(=O)c2cnn3ccc(N4CCC[C@@H]4c4ccccc4OC)nc23)c[n-]1 (nonaromatic ring conformer: 101.525744606894 kcal/mol)

>  <smiles>  (4) 
CN=c1ncc(CCNC(=O)c2cnn3ccc(N4CCCC4c4ccccc4OC)nc23)c[nH]1

>  <score_type>  (4) 
oracle

>  <origin>  (4) 
adgpu

>  <m_score__min__energy>  (4) 
-10.630000000000001

>  <m_primary>  (4) 
energy

$$$$
4:0
     RDKit          3D

 43 46  0  0  0  0  0  0  0  0999 V2000
   -3.2330   24.9490  -26.0770 C   0  0  0  0  0  0  0  0  0  0  0  0
   -2.1420   25.7090  -26.6960 N   0  0  0  0  0  0  0  0  0  0  0  0
   -1.5940   26.8900  -26.0220 C   0  0  0  0  0  0  0  0  0  0  0  0
   -1.6850   25.3850  -28.0250 C   0  0  0  0  0  0  0  0  0  0  0  0
   -1.1300   26.2740  -28.7280 O   0  0  0  0  0  0  0  0  0  0  0  0
   -1.8460   24.0300  -28.5950 C   0  0  0  0  0  0  0  0  0  0  0  0
   -1.2890   22.9240  -27.9350 C   0  0  0  0  0  0  0  0  0  0  0  0
   -1.4250   21.6420  -28.4700 C   0  0  0  0  0  0  0  0  0  0  0  0
   -2.0820   21.4570  -29.6870 C   0  0  0  0  0  0  0  0  0  0  0  0
   -2.5930   22.5560  -30.3920 C   0  0  0  0  0  0  0  0  0  0  0  0
   -3.1960   22.3380  -31.6770 N   0  0  0  0  0  0  0  0  0  0  0  0
   -2.7090   21.3940  -32.6400 C   0  0  0  0  0  0  0  0  0  0  0  0
   -3.1840   20.2550  -33.2830 C   0  0  0  0  0  0  0  0  0  0  0  0
   -4.3940   19.4890  -33.2940 N   0  0  0  0  0  0  0  0  0  0  0  0
   -5.5590   19.9470  -32.9540 C   0  0  0  0  0  0  0  0  0  0  0  0
   -5.8020   21.2480  -32.6590 N   0  0  0  0  0  0  0  0  0  0  0  0
   -7.1060   21.4270  -32.3330 C   0  0  0  0  0  0  0  0  0  0  0  0
   -7.6650   22.6500  -31.9570 C   0  0  0  0  0  0  0  0  0  0  0  0
   -9.0290   22.6940  -31.6260 C   0  0  0  0  0  0  0  0  0  0  0  0
   -9.8160   21.5260  -31.6770 C   0  0  0  0  0  0  0  0  0  0  0  0
   -9.2430   20.3020  -32.0580 C   0  0  0  0  0  0  0  0  0  0  0  0
   -7.8890   20.2830  -32.3800 C   0  0  0  0  0  0  0  0  0  0  0  0
   -6.9410   18.9790  -32.8520 S   0  0  0  0  0  0  0  0  0  0  0  0
   -1.9580   20.0980  -33.8960 C   0  0  0  0  0  0  0  0  0  0  0  0
   -1.4610   19.2500  -34.6830 O   0  0  0  0  0  0  0  0  0  0  0  0
   -1.5100   21.2640  -33.3120 C   0  0  0  0  0  0  0  0  0  0  0  0
   -0.4380   21.9210  -33.3510 O   0  0  0  0  0  0  0  0  0  0  0  0
   -2.5130   23.8430  -29.8210 C   0  0  0  0  0  0  0  0  0  0  0  0
   -3.1170   24.9260  -30.4530 O   0  0  0  0  0  0  0  0  0  0  0  0
   -3.1466   25.0092  -24.9821 H   0  0  0  0  0  0  0  0  0  0  0  0
   -4.1987   25.3709  -26.3923 H   0  0  0  0  0  0  0  0  0  0  0  0
   -3.1720   23.8969  -26.3923 H   0  0  0  0  0  0  0  0  0  0  0  0
   -1.6576   26.7529  -24.9324 H   0  0  0  0  0  0  0  0  0  0  0  0
   -0.5419   27.0236  -26.3139 H   0  0  0  0  0  0  0  0  0  0  0  0
   -2.1713   27.7797  -26.3139 H   0  0  0  0  0  0  0  0  0  0  0  0
   -0.7425   23.0680  -26.9913 H   0  0  0  0  0  0  0  0  0  0  0  0
   -1.0134   20.7758  -27.9312 H   0  0  0  0  0  0  0  0  0  0  0  0
   -2.1998   20.4426  -30.0959 H   0  0  0  0  0  0  0  0  0  0  0  0
   -4.0910   22.8310  -31.8960 H   0  0  0  0  0  0  0  0  0  0  0  0
   -7.0493   23.5608  -31.9208 H   0  0  0  0  0  0  0  0  0  0  0  0
   -9.4868   23.6477  -31.3245 H   0  0  0  0  0  0  0  0  0  0  0  0
  -10.8838   21.5734  -31.4172 H   0  0  0  0  0  0  0  0  0  0  0  0
   -9.8473   19.3838  -32.1008 H   0  0  0  0  0  0  0  0  0  0  0  0
  1  2  1  0
  2  3  1  0
  2  4  1  0
  4  5  2  0
  4  6  1  0
  6  7  2  0
  7  8  1  0
  8  9  2  0
  9 10  1  0
 10 11  1  0
 11 12  1  0
 12 13  2  0
 13 14  1  0
 14 15  2  3
 15 16  1  0
 16 17  1  0
 17 18  2  0
 18 19  1  0
 19 20  2  0
 20 21  1  0
 21 22  2  0
 22 23  1  0
 13 24  1  0
 24 25  2  0
 24 26  1  0
 26 27  2  0
 10 28  2  0
 28 29  1  0
 28  6  1  0
 26 12  1  0
 23 15  1  0
 22 17  1  0
  1 30  1  0
  1 31  1  0
  1 32  1  0
  3 33  1  0
  3 34  1  0
  3 35  1  0
  7 36  1  0
  8 37  1  0
  9 38  1  0
 11 39  1  0
 18 40  1  0
 19 41  1  0
 20 42  1  0
 21 43  1  0
M  CHG  2  16  -1  29  -1
M  END
>  <UniqueID>  (5) 
5

>  <SMILES>  (5) 
CN(C)C(=O)c1cccc(Nc2c(N=c3[n-]c4ccccc4s3)c(=O)c2=O)c1[O-]

>  <Energy>  (5) 
82.36102487669613

>  <Genealogy>  (5) 
CN(C)C(=O)c1cccc(Nc2c(N=c3[n-]c4ccccc4s3)c(=O)c2=O)c1[O-] (protonated)
CN(C)C(=O)c1cccc(Nc2c(N=c3[n-]c4ccccc4s3)c(=O)c2=O)c1[O-] (3D coordinates assigned)
CN(C)C(=O)c1cccc(Nc2c(N=c3[n-]c4ccccc4s3)c(=O)c2=O)c1[O-] (optimized conformer: 82.36102487669613 kcal/mol)

>  <smiles>  (5) 
CN(C)C(=O)c1cccc(Nc2c(N=c3[nH]c4ccccc4s3)c(=O)c2=O)c1O

>  <score_type>  (5) 
oracle

>  <origin>  (5) 
adgpu

>  <m_score__min__energy>  (5) 
-13.289999999999999

>  <m_primary>  (5) 
energy

$$$$
5:0
     RDKit          3D

 61 64  0  0  0  0  0  0  0  0999 V2000
    3.1110   17.6430  -27.6140 C   0  0  0  0  0  0  0  0  0  0  0  0
    1.7980   18.3150  -27.8870 C   0  0  0  0  0  0  0  0  0  0  0  0
    1.7650   19.6130  -28.4180 C   0  0  0  0  0  0  0  0  0  0  0  0
    0.5410   20.2550  -28.6350 C   0  0  0  0  0  0  0  0  0  0  0  0
   -0.6600   19.6120  -28.3110 C   0  0  0  0  0  0  0  0  0  0  0  0
   -2.1910   20.4410  -28.5710 S   0  0  0  0  0  0  0  0  0  0  0  0
   -2.5630   20.3320  -30.0220 O   0  0  0  0  0  0  0  0  0  0  0  0
   -3.2820   19.8060  -27.7540 O   0  0  0  0  0  0  0  0  0  0  0  0
   -2.0360   22.1380  -28.0930 C   0  0  0  0  0  0  0  0  0  0  0  0
   -1.4320   22.4500  -26.8640 C   0  0  0  0  0  0  0  0  0  0  0  0
   -1.2710   23.7860  -26.4570 C   0  0  0  0  0  0  0  0  0  0  0  0
   -0.6510   24.1010  -25.1970 N   0  0  0  0  0  0  0  0  0  0  0  0
    0.2930   23.4090  -24.7600 O   0  0  0  0  0  0  0  0  0  0  0  0
   -1.0890   25.1700  -24.4490 O   0  0  0  0  0  0  0  0  0  0  0  0
   -1.7280   24.8120  -27.2980 C   0  0  0  0  0  0  0  0  0  0  0  0
   -2.3360   24.5110  -28.5170 C   0  0  0  0  0  0  0  0  0  0  0  0
   -2.4930   23.1790  -28.9300 C   0  0  0  0  0  0  0  0  0  0  0  0
   -3.1660   22.8860  -30.1680 N   0  0  0  0  0  0  0  0  0  0  0  0
   -4.5040   23.3130  -30.4740 C   0  0  0  0  0  0  0  0  0  0  0  0
   -5.4900   22.3450  -30.7140 C   0  0  0  0  0  0  0  0  0  0  0  0
   -6.8000   22.7250  -31.0350 C   0  0  0  0  0  0  0  0  0  0  0  0
   -8.0310   21.5040  -31.3540 S   0  0  0  0  0  0  0  0  0  0  0  0
   -8.9520   22.0150  -32.4280 O   0  0  0  0  0  0  0  0  0  0  0  0
   -8.8390   21.2570  -30.1100 O   0  0  0  0  0  0  0  0  0  0  0  0
   -7.2720   20.0210  -31.8820 N   0  0  0  0  0  0  0  0  0  0  0  0
   -6.4940   20.2690  -33.1200 C   0  0  0  0  0  0  0  0  0  0  0  0
   -6.1550   18.9760  -33.8960 C   0  0  0  0  0  0  0  0  0  0  0  0
   -6.2440   17.7380  -33.0040 C   0  0  0  0  0  0  0  0  0  0  0  0
   -7.6410   17.6070  -32.3760 C   0  0  0  0  0  0  0  0  0  0  0  0
   -8.2920   18.9750  -32.0830 C   0  0  0  0  0  0  0  0  0  0  0  0
   -7.1210   24.0830  -31.1380 C   0  0  0  0  0  0  0  0  0  0  0  0
   -6.1410   25.0540  -30.9220 C   0  0  0  0  0  0  0  0  0  0  0  0
   -4.8330   24.6790  -30.6030 C   0  0  0  0  0  0  0  0  0  0  0  0
   -3.8660   25.6640  -30.4450 O   0  0  0  0  0  0  0  0  0  0  0  0
   -0.6290   18.3190  -27.7690 C   0  0  0  0  0  0  0  0  0  0  0  0
    0.5940   17.6770  -27.5510 C   0  0  0  0  0  0  0  0  0  0  0  0
    3.2639   17.5647  -26.5275 H   0  0  0  0  0  0  0  0  0  0  0  0
    3.1068   16.6362  -28.0572 H   0  0  0  0  0  0  0  0  0  0  0  0
    3.9252   18.2353  -28.0572 H   0  0  0  0  0  0  0  0  0  0  0  0
    2.7051   20.1281  -28.6647 H   0  0  0  0  0  0  0  0  0  0  0  0
    0.5220   21.2687  -29.0617 H   0  0  0  0  0  0  0  0  0  0  0  0
   -1.0801   21.6378  -26.2109 H   0  0  0  0  0  0  0  0  0  0  0  0
   -1.6059   25.8620  -26.9937 H   0  0  0  0  0  0  0  0  0  0  0  0
   -2.6962   25.3265  -29.1614 H   0  0  0  0  0  0  0  0  0  0  0  0
   -2.7070   22.2240  -30.8320 H   0  0  0  0  0  0  0  0  0  0  0  0
   -5.2326   21.2775  -30.6497 H   0  0  0  0  0  0  0  0  0  0  0  0
   -6.6220   19.7230  -31.1170 H   0  0  0  0  0  0  0  0  0  0  0  0
   -7.0824   20.9267  -33.7767 H   0  0  0  0  0  0  0  0  0  0  0  0
   -5.5410   20.7294  -32.8202 H   0  0  0  0  0  0  0  0  0  0  0  0
   -6.8635   18.8654  -34.7301 H   0  0  0  0  0  0  0  0  0  0  0  0
   -5.1214   19.0590  -34.2631 H   0  0  0  0  0  0  0  0  0  0  0  0
   -6.0371   16.8433  -33.6096 H   0  0  0  0  0  0  0  0  0  0  0  0
   -5.5053   17.8368  -32.1949 H   0  0  0  0  0  0  0  0  0  0  0  0
   -8.2882   17.0505  -33.0699 H   0  0  0  0  0  0  0  0  0  0  0  0
   -7.5264   17.0809  -31.4168 H   0  0  0  0  0  0  0  0  0  0  0  0
   -8.9318   19.2567  -32.9323 H   0  0  0  0  0  0  0  0  0  0  0  0
   -8.8858   18.8870  -31.1612 H   0  0  0  0  0  0  0  0  0  0  0  0
   -8.1479   24.3864  -31.3898 H   0  0  0  0  0  0  0  0  0  0  0  0
   -6.3999   26.1200  -31.0034 H   0  0  0  0  0  0  0  0  0  0  0  0
   -1.5695   17.8083  -27.5146 H   0  0  0  0  0  0  0  0  0  0  0  0
    0.6124   16.6676  -27.1143 H   0  0  0  0  0  0  0  0  0  0  0  0
  1  2  1  0
  2  3  2  0
  3  4  1  0
  4  5  2  0
  5  6  1  0
  6  7  2  0
  6  8  2  0
  6  9  1  0
  9 10  2  0
 10 11  1  0
 11 12  1  0
 12 13  2  0
 12 14  1  0
 11 15  2  0
 15 16  1  0
 16 17  2  0
 17 18  1  0
 18 19  1  0
 19 20  2  0
 20 21  1  0
 21 22  1  0
 22 23  2  0
 22 24  2  0
 22 25  1  0
 25 26  1  0
 26 27  1  0
 27 28  1  0
 28 29  1  0
 29 30  1  0
 21 31  2  0
 31 32  1  0
 32 33  2  0
 33 34  1  0
  5 35  1  0
 35 36  2  0
 36  2  1  0
 17  9  1  0
 33 19  1  0
 30 25  1  0
  1 37  1  0
  1 38  1  0
  1 39  1  0
  3 40  1  0
  4 41  1  0
 10 42  1  0
 15 43  1  0
 16 44  1  0
 18 45  1  0
 20 46  1  0
 25 47  1  0
 26 48  1  0
 26 49  1  0
 27 50  1  0
 27 51  1  0
 28 52  1  0
 28 53  1  0
 29 54  1  0
 29 55  1  0
 30 56  1  0
 30 57  1  0
 31 58  1  0
 32 59  1  0
 35 60  1  0
 36 61  1  0
M  CHG  4  12   1  14  -1  25   1  34  -1
M  END
>  <UniqueID>  (6) 
6

>  <SMILES>  (6) 
Cc1ccc(S(=O)(=O)c2cc([N+](=O)[O-])ccc2Nc2cc(S(=O)(=O)[NH+]3CCCCC3)ccc2[O-])cc1

>  <Energy>  (6) 
77.08719703995264

>  <Genealogy>  (6) 
Cc1ccc(S(=O)(=O)c2cc([N+](=O)[O-])ccc2Nc2cc(S(=O)(=O)[NH+]3CCCCC3)ccc2[O-])cc1 (protonated)
Cc1ccc(S(=O)(=O)c2cc([N+](=O)[O-])ccc2Nc2cc(S(=O)(=O)[NH+]3CCCCC3)ccc2[O-])cc1 (3D coordinates assigned)
Cc1ccc(S(=O)(=O)c2cc([N+](=O)[O-])ccc2Nc2cc(S(=O)(=O)[NH+]3CCCCC3)ccc2[O-])cc1 (nonaromatic ring conformer: 77.08719703995264 kcal/mol)

>  <smiles>  (6) 
Cc1ccc(S(=O)(=O)c2cc([N+](=O)[O-])ccc2Nc2cc(S(=O)(=O)N3CCCCC3)ccc2O)cc1

>  <score_type>  (6) 
oracle

>  <origin>  (6) 
adgpu

>  <m_score__min__energy>  (6) 
-14.529999999999999

>  <m_primary>  (6) 
energy

$$$$
6:0
     RDKit          3D

 59 62  0  0  0  0  0  0  0  0999 V2000
   -0.6180   21.7000  -29.6500 O   0  0  0  0  0  0  0  0  0  0  0  0
   -1.3520   22.7250  -29.6670 C   0  0  0  0  0  0  0  0  0  0  0  0
   -2.3710   22.8720  -30.6720 N   0  0  0  0  0  0  0  0  0  0  0  0
   -2.6470   21.8930  -31.6880 C   0  0  0  0  0  0  0  0  0  0  0  0
   -1.6780   21.5310  -32.6420 C   0  0  0  0  0  0  0  0  0  0  0  0
   -1.9630   20.5540  -33.5990 C   0  0  0  0  0  0  0  0  0  0  0  0
   -3.2070   19.9210  -33.6060 C   0  0  0  0  0  0  0  0  0  0  0  0
   -4.1720   20.2520  -32.6460 C   0  0  0  0  0  0  0  0  0  0  0  0
   -5.7340   19.4300  -32.6390 S   0  0  0  0  0  0  0  0  0  0  0  0
   -5.6310   18.1860  -31.7990 O   0  0  0  0  0  0  0  0  0  0  0  0
   -6.0850   19.0150  -34.0410 O   0  0  0  0  0  0  0  0  0  0  0  0
   -6.9970   20.4530  -32.0010 N   0  0  0  0  0  0  0  0  0  0  0  0
   -6.8910   21.8090  -32.5640 C   0  0  0  0  0  0  0  0  0  0  0  0
   -7.8380   22.7710  -31.8230 C   0  0  0  0  0  0  0  0  0  0  0  0
   -9.0150   22.0400  -31.1540 C   0  0  0  0  0  0  0  0  0  0  0  0
   -9.4780   20.8520  -32.0010 C   0  0  0  0  0  0  0  0  0  0  0  0
   -8.3230   19.8640  -32.2840 C   0  0  0  0  0  0  0  0  0  0  0  0
   -3.8850   21.2330  -31.6870 C   0  0  0  0  0  0  0  0  0  0  0  0
   -1.1510   23.7650  -28.6360 C   0  0  0  0  0  0  0  0  0  0  0  0
   -0.2260   23.5360  -27.6020 C   0  0  0  0  0  0  0  0  0  0  0  0
   -0.0170   24.4980  -26.6050 C   0  0  0  0  0  0  0  0  0  0  0  0
    1.1530   24.2080  -25.3220 S   0  0  0  0  0  0  0  0  0  0  0  0
    0.8750   22.8720  -24.6910 O   0  0  0  0  0  0  0  0  0  0  0  0
    2.5420   24.1830  -25.8980 O   0  0  0  0  0  0  0  0  0  0  0  0
    1.0100   25.4620  -24.1160 N   0  0  0  0  0  0  0  0  0  0  0  0
   -0.3860   25.6840  -23.7410 C   0  0  0  0  0  0  0  0  0  0  0  0
   -0.4850   27.1260  -23.2730 C   0  0  0  0  0  0  0  0  0  0  0  0
    0.7320   27.8240  -23.8600 C   0  0  0  0  0  0  0  0  0  0  0  0
    1.4840   26.7480  -24.6270 C   0  0  0  0  0  0  0  0  0  0  0  0
   -0.7210   25.7070  -26.6510 C   0  0  0  0  0  0  0  0  0  0  0  0
   -1.6270   25.9530  -27.6840 C   0  0  0  0  0  0  0  0  0  0  0  0
   -1.8390   24.9950  -28.6810 C   0  0  0  0  0  0  0  0  0  0  0  0
   -2.7090   25.2920  -29.7250 O   0  0  0  0  0  0  0  0  0  0  0  0
   -2.9170   23.7620  -30.7060 H   0  0  0  0  0  0  0  0  0  0  0  0
   -0.6923   22.0192  -32.6342 H   0  0  0  0  0  0  0  0  0  0  0  0
   -1.2052   20.2829  -34.3488 H   0  0  0  0  0  0  0  0  0  0  0  0
   -3.4304   19.1597  -34.3679 H   0  0  0  0  0  0  0  0  0  0  0  0
   -5.8559   22.1658  -32.4584 H   0  0  0  0  0  0  0  0  0  0  0  0
   -7.1724   21.7781  -33.6269 H   0  0  0  0  0  0  0  0  0  0  0  0
   -7.2659   23.3018  -31.0478 H   0  0  0  0  0  0  0  0  0  0  0  0
   -8.2554   23.4671  -32.5654 H   0  0  0  0  0  0  0  0  0  0  0  0
   -8.6967   21.6749  -30.1664 H   0  0  0  0  0  0  0  0  0  0  0  0
   -9.8530   22.7454  -31.0533 H   0  0  0  0  0  0  0  0  0  0  0  0
  -10.2770   20.3210  -31.4629 H   0  0  0  0  0  0  0  0  0  0  0  0
   -9.8403   21.2396  -32.9646 H   0  0  0  0  0  0  0  0  0  0  0  0
   -8.4565   18.9737  -31.6519 H   0  0  0  0  0  0  0  0  0  0  0  0
   -8.3552   19.6070  -33.3531 H   0  0  0  0  0  0  0  0  0  0  0  0
   -4.6376   21.4879  -30.9263 H   0  0  0  0  0  0  0  0  0  0  0  0
    0.3390   22.5925  -27.5756 H   0  0  0  0  0  0  0  0  0  0  0  0
   -1.0427   25.5204  -24.6082 H   0  0  0  0  0  0  0  0  0  0  0  0
   -0.7001   24.9874  -22.9497 H   0  0  0  0  0  0  0  0  0  0  0  0
   -1.4110   27.5888  -23.6448 H   0  0  0  0  0  0  0  0  0  0  0  0
   -0.5100   27.1998  -22.1758 H   0  0  0  0  0  0  0  0  0  0  0  0
    0.4220   28.6337  -24.5370 H   0  0  0  0  0  0  0  0  0  0  0  0
    1.3569   28.2821  -23.0792 H   0  0  0  0  0  0  0  0  0  0  0  0
    1.2716   26.8304  -25.7032 H   0  0  0  0  0  0  0  0  0  0  0  0
    2.5709   26.8517  -24.4933 H   0  0  0  0  0  0  0  0  0  0  0  0
   -0.5598   26.4655  -25.8708 H   0  0  0  0  0  0  0  0  0  0  0  0
   -2.1771   26.9051  -27.7142 H   0  0  0  0  0  0  0  0  0  0  0  0
  1  2  2  0
  2  3  1  0
  3  4  1  0
  4  5  2  0
  5  6  1  0
  6  7  2  0
  7  8  1  0
  8  9  1  0
  9 10  2  0
  9 11  2  0
  9 12  1  0
 12 13  1  0
 13 14  1  0
 14 15  1  0
 15 16  1  0
 16 17  1  0
  8 18  2  0
  2 19  1  0
 19 20  2  0
 20 21  1  0
 21 22  1  0
 22 23  2  0
 22 24  2  0
 22 25  1  0
 25 26  1  0
 26 27  1  0
 27 28  1  0
 28 29  1  0
 21 30  2  0
 30 31  1  0
 31 32  2  0
 32 33  1  0
 18  4  1  0
 32 19  1  0
 17 12  1  0
 29 25  1  0
  3 34  1  0
  5 35  1  0
  6 36  1  0
  7 37  1  0
 13 38  1  0
 13 39  1  0
 14 40  1  0
 14 41  1  0
 15 42  1  0
 15 43  1  0
 16 44  1  0
 16 45  1  0
 17 46  1  0
 17 47  1  0
 18 48  1  0
 20 49  1  0
 26 50  1  0
 26 51  1  0
 27 52  1  0
 27 53  1  0
 28 54  1  0
 28 55  1  0
 29 56  1  0
 29 57  1  0
 30 58  1  0
 31 59  1  0
M  CHG  1  33  -1
M  END
>  <UniqueID>  (7) 
7

>  <SMILES>  (7) 
O=C(Nc1cccc(S(=O)(=O)N2CCCCC2)c1)c1cc(S(=O)(=O)N2CCCC2)ccc1[O-]

>  <Energy>  (7) 
72.6352346535197

>  <Genealogy>  (7) 
O=C(Nc1cccc(S(=O)(=O)N2CCCCC2)c1)c1cc(S(=O)(=O)N2CCCC2)ccc1[O-] (protonated)
O=C(Nc1cccc(S(=O)(=O)N2CCCCC2)c1)c1cc(S(=O)(=O)N2CCCC2)ccc1[O-] (3D coordinates assigned)
O=C(Nc1cccc(S(=O)(=O)N2CCCCC2)c1)c1cc(S(=O)(=O)N2CCCC2)ccc1[O-] (nonaromatic ring conformer: 72.6352346535197 kcal/mol)

>  <smiles>  (7) 
O=C(Nc1cccc(S(=O)(=O)N2CCCCC2)c1)c1cc(S(=O)(=O)N2CCCC2)ccc1O

>  <score_type>  (7) 
oracle

>  <origin>  (7) 
adgpu

>  <m_score__min__energy>  (7) 
-14.06

>  <m_primary>  (7) 
energy

$$$$
7:0
     RDKit          3D

 39 40  0  0  0  0  0  0  0  0999 V2000
   -6.9320   15.5760  -34.1860 N   0  0  0  0  0  0  0  0  0  0  0  0
   -5.7450   16.7790  -33.8190 S   0  0  0  0  0  0  0  0  0  0  0  0
   -4.7560   16.2220  -32.8340 O   0  0  0  0  0  0  0  0  0  0  0  0
   -5.0120   17.1590  -35.0760 O   0  0  0  0  0  0  0  0  0  0  0  0
   -6.5330   18.1990  -33.1390 C   0  0  0  0  0  0  0  0  0  0  0  0
   -6.1740   19.4830  -33.5740 C   0  0  0  0  0  0  0  0  0  0  0  0
   -6.7910   20.6100  -33.0220 C   0  0  0  0  0  0  0  0  0  0  0  0
   -7.7660   20.4640  -32.0260 C   0  0  0  0  0  0  0  0  0  0  0  0
   -8.5440   21.8940  -31.3550 S   0  0  0  0  0  0  0  0  0  0  0  0
   -8.3310   21.9160  -29.8680 O   0  0  0  0  0  0  0  0  0  0  0  0
  -10.0220   21.8780  -31.6310 O   0  0  0  0  0  0  0  0  0  0  0  0
   -7.8480   23.3160  -32.0560 N   0  0  0  0  0  0  0  0  0  0  0  0
   -6.5390   23.7770  -31.7140 C   0  0  0  0  0  0  0  0  0  0  0  0
   -5.7380   24.1300  -32.6220 O   0  0  0  0  0  0  0  0  0  0  0  0
   -6.1530   23.8290  -30.3340 N   0  0  0  0  0  0  0  0  0  0  0  0
   -4.8680   24.2710  -29.8710 C   0  0  0  0  0  0  0  0  0  0  0  0
   -4.0010   24.6820  -30.6900 O   0  0  0  0  0  0  0  0  0  0  0  0
   -4.5900   24.2800  -28.4620 N   0  0  0  0  0  0  0  0  0  0  0  0
   -3.2860   24.4990  -27.8960 C   0  0  0  0  0  0  0  0  0  0  0  0
   -2.1120   24.2290  -28.6250 C   0  0  0  0  0  0  0  0  0  0  0  0
   -0.8570   24.4290  -28.0410 C   0  0  0  0  0  0  0  0  0  0  0  0
   -0.7620   24.8870  -26.7240 C   0  0  0  0  0  0  0  0  0  0  0  0
   -1.9210   25.1360  -25.9860 C   0  0  0  0  0  0  0  0  0  0  0  0
   -3.1770   24.9360  -26.5660 C   0  0  0  0  0  0  0  0  0  0  0  0
   -8.1210   19.1800  -31.5860 C   0  0  0  0  0  0  0  0  0  0  0  0
   -7.5040   18.0540  -32.1380 C   0  0  0  0  0  0  0  0  0  0  0  0
   -7.4550   15.9100  -35.0270 H   0  0  0  0  0  0  0  0  0  0  0  0
   -6.4150   14.7150  -34.4760 H   0  0  0  0  0  0  0  0  0  0  0  0
   -5.4052   19.6039  -34.3513 H   0  0  0  0  0  0  0  0  0  0  0  0
   -6.5100   21.6147  -33.3708 H   0  0  0  0  0  0  0  0  0  0  0  0
   -6.8520   23.5160  -29.6220 H   0  0  0  0  0  0  0  0  0  0  0  0
   -5.4010   24.2060  -27.8080 H   0  0  0  0  0  0  0  0  0  0  0  0
   -2.1822   23.8591  -29.6586 H   0  0  0  0  0  0  0  0  0  0  0  0
    0.0565   24.2256  -28.6190 H   0  0  0  0  0  0  0  0  0  0  0  0
    0.2258   25.0513  -26.2688 H   0  0  0  0  0  0  0  0  0  0  0  0
   -1.8455   25.4899  -24.9472 H   0  0  0  0  0  0  0  0  0  0  0  0
   -4.0866   25.1223  -25.9762 H   0  0  0  0  0  0  0  0  0  0  0  0
   -8.8863   19.0593  -30.8052 H   0  0  0  0  0  0  0  0  0  0  0  0
   -7.7814   17.0496  -31.7856 H   0  0  0  0  0  0  0  0  0  0  0  0
  1  2  1  0
  2  3  2  0
  2  4  2  0
  2  5  1  0
  5  6  2  0
  6  7  1  0
  7  8  2  0
  8  9  1  0
  9 10  2  0
  9 11  2  0
  9 12  1  0
 12 13  1  0
 13 14  2  0
 13 15  1  0
 15 16  1  0
 16 17  2  0
 16 18  1  0
 18 19  1  0
 19 20  2  0
 20 21  1  0
 21 22  2  0
 22 23  1  0
 23 24  2  0
  8 25  1  0
 25 26  2  0
 26  5  1  0
 24 19  1  0
  1 27  1  0
  1 28  1  0
  6 29  1  0
  7 30  1  0
 15 31  1  0
 18 32  1  0
 20 33  1  0
 21 34  1  0
 22 35  1  0
 23 36  1  0
 24 37  1  0
 25 38  1  0
 26 39  1  0
M  CHG  1  12  -1
M  END
>  <UniqueID>  (8) 
8

>  <SMILES>  (8) 
NS(=O)(=O)c1ccc(S(=O)(=O)[N-]C(=O)NC(=O)Nc2ccccc2)cc1

>  <Energy>  (8) 
42.822232193517856

>  <Genealogy>  (8) 
NS(=O)(=O)c1ccc(S(=O)(=O)[N-]C(=O)NC(=O)Nc2ccccc2)cc1 (protonated)
NS(=O)(=O)c1ccc(S(=O)(=O)[N-]C(=O)NC(=O)Nc2ccccc2)cc1 (3D coordinates assigned)
NS(=O)(=O)c1ccc(S(=O)(=O)[N-]C(=O)NC(=O)Nc2ccccc2)cc1 (optimized conformer: 42.822232193517856 kcal/mol)

>  <smiles>  (8) 
NS(=O)(=O)c1ccc(S(=O)(=O)NC(=O)NC(=O)Nc2ccccc2)cc1

>  <score_type>  (8) 
oracle

>  <origin>  (8) 
adgpu

>  <m_score__min__energy>  (8) 
-9.8699999999999992

>  <m_primary>  (8) 
energy

$$$$
8:0
     RDKit          3D

 56 59  0  0  0  0  0  0  0  0999 V2000
   -3.6140   13.0140  -31.3480 C   0  0  0  0  0  0  0  0  0  0  0  0
   -4.0810   14.2780  -31.9820 C   0  0  0  0  0  0  0  0  0  0  0  0
   -4.9900   15.1080  -31.4200 N   0  0  0  0  0  0  0  0  0  0  0  0
   -5.3030   16.1470  -32.1910 N   0  0  0  0  0  0  0  0  0  0  0  0
   -4.6490   16.1370  -33.3740 C   0  0  0  0  0  0  0  0  0  0  0  0
   -4.7880   17.0450  -34.2890 N   0  0  0  0  0  0  0  0  0  0  0  0
   -5.8390   18.4110  -34.1100 S   0  0  0  0  0  0  0  0  0  0  0  0
   -6.1580   18.9730  -35.4660 O   0  0  0  0  0  0  0  0  0  0  0  0
   -7.1160   17.9660  -33.4530 O   0  0  0  0  0  0  0  0  0  0  0  0
   -5.0410   19.6530  -33.1480 C   0  0  0  0  0  0  0  0  0  0  0  0
   -3.6470   19.6470  -33.0280 C   0  0  0  0  0  0  0  0  0  0  0  0
   -3.0020   20.6200  -32.2590 C   0  0  0  0  0  0  0  0  0  0  0  0
   -3.7500   21.6040  -31.5870 C   0  0  0  0  0  0  0  0  0  0  0  0
   -3.1120   22.6320  -30.8100 N   0  0  0  0  0  0  0  0  0  0  0  0
   -2.7380   22.4820  -29.4290 C   0  0  0  0  0  0  0  0  0  0  0  0
   -2.9800   21.4070  -28.8160 O   0  0  0  0  0  0  0  0  0  0  0  0
   -2.0570   23.5780  -28.7050 C   0  0  0  0  0  0  0  0  0  0  0  0
   -1.2270   23.2670  -27.6150 C   0  0  0  0  0  0  0  0  0  0  0  0
   -0.5610   24.2790  -26.9110 C   0  0  0  0  0  0  0  0  0  0  0  0
    0.4570   23.8630  -25.5350 S   0  0  0  0  0  0  0  0  0  0  0  0
   -0.1550   22.6910  -24.8200 O   0  0  0  0  0  0  0  0  0  0  0  0
    1.8290   23.4720  -26.0110 O   0  0  0  0  0  0  0  0  0  0  0  0
    0.5640   25.2240  -24.4480 N   0  0  0  0  0  0  0  0  0  0  0  0
   -0.7920   25.7380  -24.1530 C   0  0  0  0  0  0  0  0  0  0  0  0
   -0.7660   27.1290  -23.4800 C   0  0  0  0  0  0  0  0  0  0  0  0
    0.6190   27.4570  -22.9150 C   0  0  0  0  0  0  0  0  0  0  0  0
    1.6920   27.3830  -24.0140 C   0  0  0  0  0  0  0  0  0  0  0  0
    1.4070   26.2740  -25.0440 C   0  0  0  0  0  0  0  0  0  0  0  0
   -0.7400   25.6160  -27.2860 C   0  0  0  0  0  0  0  0  0  0  0  0
   -1.5790   25.9380  -28.3540 C   0  0  0  0  0  0  0  0  0  0  0  0
   -2.2470   24.9300  -29.0580 C   0  0  0  0  0  0  0  0  0  0  0  0
   -3.1200   25.2890  -30.0800 O   0  0  0  0  0  0  0  0  0  0  0  0
   -5.1450   21.6210  -31.7350 C   0  0  0  0  0  0  0  0  0  0  0  0
   -5.7890   20.6470  -32.5040 C   0  0  0  0  0  0  0  0  0  0  0  0
   -3.6320   14.8060  -33.5210 S   0  0  0  0  0  0  0  0  0  0  0  0
   -3.6520   13.1169  -30.2535 H   0  0  0  0  0  0  0  0  0  0  0  0
   -4.2650   12.1844  -31.6611 H   0  0  0  0  0  0  0  0  0  0  0  0
   -2.5800   12.8070  -31.6611 H   0  0  0  0  0  0  0  0  0  0  0  0
   -3.0563   18.8736  -33.5408 H   0  0  0  0  0  0  0  0  0  0  0  0
   -1.9049   20.6163  -32.1789 H   0  0  0  0  0  0  0  0  0  0  0  0
   -2.9610   23.5550  -31.2740 H   0  0  0  0  0  0  0  0  0  0  0  0
   -1.0986   22.2177  -27.3109 H   0  0  0  0  0  0  0  0  0  0  0  0
   -1.3533   25.8131  -25.0960 H   0  0  0  0  0  0  0  0  0  0  0  0
   -1.2691   25.0372  -23.4521 H   0  0  0  0  0  0  0  0  0  0  0  0
   -1.0369   27.8912  -24.2254 H   0  0  0  0  0  0  0  0  0  0  0  0
   -1.4841   27.1211  -22.6467 H   0  0  0  0  0  0  0  0  0  0  0  0
    0.6046   28.4730  -22.4936 H   0  0  0  0  0  0  0  0  0  0  0  0
    0.8636   26.7208  -22.1351 H   0  0  0  0  0  0  0  0  0  0  0  0
    1.7278   28.3498  -24.5376 H   0  0  0  0  0  0  0  0  0  0  0  0
    2.6513   27.1496  -23.5289 H   0  0  0  0  0  0  0  0  0  0  0  0
    0.8863   26.7088  -25.9099 H   0  0  0  0  0  0  0  0  0  0  0  0
    2.3612   25.8281  -25.3614 H   0  0  0  0  0  0  0  0  0  0  0  0
   -0.2183   26.4143  -26.7378 H   0  0  0  0  0  0  0  0  0  0  0  0
   -1.7159   26.9902  -28.6439 H   0  0  0  0  0  0  0  0  0  0  0  0
   -5.7366   22.4066  -31.2423 H   0  0  0  0  0  0  0  0  0  0  0  0
   -6.8844   20.6613  -32.6034 H   0  0  0  0  0  0  0  0  0  0  0  0
  1  2  1  0
  2  3  2  0
  3  4  1  0
  4  5  1  0
  5  6  2  3
  6  7  1  0
  7  8  2  0
  7  9  2  0
  7 10  1  0
 10 11  2  0
 11 12  1  0
 12 13  2  0
 13 14  1  0
 14 15  1  0
 15 16  2  0
 15 17  1  0
 17 18  2  0
 18 19  1  0
 19 20  1  0
 20 21  2  0
 20 22  2  0
 20 23  1  0
 23 24  1  0
 24 25  1  0
 25 26  1  0
 26 27  1  0
 27 28  1  0
 19 29  2  0
 29 30  1  0
 30 31  2  0
 31 32  1  0
 13 33  1  0
 33 34  2  0
  5 35  1  0
 35  2  1  0
 34 10  1  0
 31 17  1  0
 28 23  1  0
  1 36  1  0
  1 37  1  0
  1 38  1  0
 11 39  1  0
 12 40  1  0
 14 41  1  0
 18 42  1  0
 24 43  1  0
 24 44  1  0
 25 45  1  0
 25 46  1  0
 26 47  1  0
 26 48  1  0
 27 49  1  0
 27 50  1  0
 28 51  1  0
 28 52  1  0
 29 53  1  0
 30 54  1  0
 33 55  1  0
 34 56  1  0
M  CHG  2   4  -1  32  -1
M  END
>  <UniqueID>  (9) 
9

>  <SMILES>  (9) 
Cc1n[n-]c(=NS(=O)(=O)c2ccc(NC(=O)c3cc(S(=O)(=O)N4CCCCC4)ccc3[O-])cc2)s1

>  <Energy>  (9) 
106.03401242222714

>  <Genealogy>  (9) 
Cc1n[n-]c(=NS(=O)(=O)c2ccc(NC(=O)c3cc(S(=O)(=O)N4CCCCC4)ccc3[O-])cc2)s1 (protonated)
Cc1n[n-]c(=NS(=O)(=O)c2ccc(NC(=O)c3cc(S(=O)(=O)N4CCCCC4)ccc3[O-])cc2)s1 (3D coordinates assigned)
Cc1n[n-]c(=NS(=O)(=O)c2ccc(NC(=O)c3cc(S(=O)(=O)N4CCCCC4)ccc3[O-])cc2)s1 (nonaromatic ring conformer: 106.03401242222714 kcal/mol)

>  <smiles>  (9) 
Cc1n[nH]c(=NS(=O)(=O)c2ccc(NC(=O)c3cc(S(=O)(=O)N4CCCCC4)ccc3O)cc2)s1

>  <score_type>  (9) 
oracle

>  <origin>  (9) 
adgpu

>  <m_score__min__energy>  (9) 
-14.82

>  <m_primary>  (9) 
energy

$$$$
9:0
     RDKit          3D

 41 43  0  0  0  0  0  0  0  0999 V2000
   -0.9210   26.6550  -24.2160 C   0  0  0  0  0  0  0  0  0  0  0  0
   -0.9890   25.6530  -25.2700 N   0  0  0  0  0  0  0  0  0  0  0  0
   -0.8200   24.3270  -25.1080 C   0  0  0  0  0  0  0  0  0  0  0  0
   -0.9110   23.7280  -26.3450 C   0  0  0  0  0  0  0  0  0  0  0  0
   -0.9070   21.8450  -26.6740 Br  0  0  0  0  0  0  0  0  0  0  0  0
   -1.1250   24.7740  -27.2310 C   0  0  0  0  0  0  0  0  0  0  0  0
   -1.3230   24.6920  -28.6890 C   0  0  0  0  0  0  0  0  0  0  0  0
   -0.4680   24.0840  -29.3860 O   0  0  0  0  0  0  0  0  0  0  0  0
   -2.4430   25.2970  -29.3450 N   0  0  0  0  0  0  0  0  0  0  0  0
   -3.6200   24.6190  -29.8080 C   0  0  0  0  0  0  0  0  0  0  0  0
   -4.7380   25.3200  -30.2950 C   0  0  0  0  0  0  0  0  0  0  0  0
   -5.8700   24.6250  -30.7320 C   0  0  0  0  0  0  0  0  0  0  0  0
   -5.9030   23.2250  -30.6760 C   0  0  0  0  0  0  0  0  0  0  0  0
   -7.3360   22.3450  -31.2010 S   0  0  0  0  0  0  0  0  0  0  0  0
   -8.3320   22.2750  -30.0770 O   0  0  0  0  0  0  0  0  0  0  0  0
   -7.9640   23.0840  -32.3500 O   0  0  0  0  0  0  0  0  0  0  0  0
   -6.8860   20.7380  -31.7130 N   0  0  0  0  0  0  0  0  0  0  0  0
   -8.0660   19.8540  -31.6940 C   0  0  0  0  0  0  0  0  0  0  0  0
   -7.7730   18.5280  -32.4240 C   0  0  0  0  0  0  0  0  0  0  0  0
   -6.3850   18.3640  -32.6390 O   0  0  0  0  0  0  0  0  0  0  0  0
   -5.9180   19.3670  -33.5250 C   0  0  0  0  0  0  0  0  0  0  0  0
   -6.3070   20.7870  -33.0630 C   0  0  0  0  0  0  0  0  0  0  0  0
   -4.8040   22.5280  -30.1610 C   0  0  0  0  0  0  0  0  0  0  0  0
   -3.6720   23.2210  -29.7260 C   0  0  0  0  0  0  0  0  0  0  0  0
   -1.1710   25.9370  -26.5500 N   0  0  0  0  0  0  0  0  0  0  0  0
   -0.9547   26.1583  -23.2351 H   0  0  0  0  0  0  0  0  0  0  0  0
    0.0176   27.2211  -24.3083 H   0  0  0  0  0  0  0  0  0  0  0  0
   -1.7745   27.3427  -24.3083 H   0  0  0  0  0  0  0  0  0  0  0  0
   -0.6404   23.8114  -24.1531 H   0  0  0  0  0  0  0  0  0  0  0  0
   -4.7218   26.4192  -30.3322 H   0  0  0  0  0  0  0  0  0  0  0  0
   -6.7372   25.1788  -31.1209 H   0  0  0  0  0  0  0  0  0  0  0  0
   -8.3371   19.6379  -30.6501 H   0  0  0  0  0  0  0  0  0  0  0  0
   -8.8941   20.3628  -32.2091 H   0  0  0  0  0  0  0  0  0  0  0  0
   -8.1437   17.6916  -31.8133 H   0  0  0  0  0  0  0  0  0  0  0  0
   -8.2792   18.5461  -33.4004 H   0  0  0  0  0  0  0  0  0  0  0  0
   -4.8215   19.3029  -33.5849 H   0  0  0  0  0  0  0  0  0  0  0  0
   -6.3858   19.1931  -34.5052 H   0  0  0  0  0  0  0  0  0  0  0  0
   -5.4104   21.4242  -33.0514 H   0  0  0  0  0  0  0  0  0  0  0  0
   -7.0514   21.2008  -33.7592 H   0  0  0  0  0  0  0  0  0  0  0  0
   -4.8319   21.4301  -30.0986 H   0  0  0  0  0  0  0  0  0  0  0  0
   -2.8155   22.6656  -29.3163 H   0  0  0  0  0  0  0  0  0  0  0  0
  1  2  1  0
  2  3  1  0
  3  4  2  0
  4  5  1  0
  4  6  1  0
  6  7  1  0
  7  8  2  0
  7  9  1  0
  9 10  1  0
 10 11  2  0
 11 12  1  0
 12 13  2  0
 13 14  1  0
 14 15  2  0
 14 16  2  0
 14 17  1  0
 17 18  1  0
 18 19  1  0
 19 20  1  0
 20 21  1  0
 21 22  1  0
 13 23  1  0
 23 24  2  0
  6 25  2  0
 25  2  1  0
 24 10  1  0
 22 17  1  0
  1 26  1  0
  1 27  1  0
  1 28  1  0
  3 29  1  0
 11 30  1  0
 12 31  1  0
 18 32  1  0
 18 33  1  0
 19 34  1  0
 19 35  1  0
 21 36  1  0
 21 37  1  0
 22 38  1  0
 22 39  1  0
 23 40  1  0
 24 41  1  0
M  CHG  1   9  -1
M  END
>  <UniqueID>  (10) 
10

>  <SMILES>  (10) 
Cn1cc(Br)c(C(=O)[N-]c2ccc(S(=O)(=O)N3CCOCC3)cc2)n1

>  <Energy>  (10) 
84.9880666043503

>  <Genealogy>  (10) 
Cn1cc(Br)c(C(=O)[N-]c2ccc(S(=O)(=O)N3CCOCC3)cc2)n1 (protonated)
Cn1cc(Br)c(C(=O)[N-]c2ccc(S(=O)(=O)N3CCOCC3)cc2)n1 (3D coordinates assigned)
Cn1cc(Br)c(C(=O)[N-]c2ccc(S(=O)(=O)N3CCOCC3)cc2)n1 (nonaromatic ring conformer: 84.9880666043503 kcal/mol)

>  <smiles>  (10) 
Cn1cc(Br)c(C(=O)Nc2ccc(S(=O)(=O)N3CCOCC3)cc2)n1

>  <score_type>  (10) 
oracle

>  <origin>  (10) 
adgpu

>  <m_score__min__energy>  (10) 
-10.369999999999999

>  <m_primary>  (10) 
energy

$$$$
10:0
     RDKit          3D

 49 51  0  0  0  0  0  0  0  0999 V2000
   -0.8430   26.2490  -27.8340 C   0  0  0  0  0  0  0  0  0  0  0  0
   -1.5780   25.8340  -28.9820 O   0  0  0  0  0  0  0  0  0  0  0  0
   -2.2260   24.5950  -29.1050 C   0  0  0  0  0  0  0  0  0  0  0  0
   -1.7410   23.4300  -28.4820 C   0  0  0  0  0  0  0  0  0  0  0  0
   -2.4150   22.2110  -28.6270 C   0  0  0  0  0  0  0  0  0  0  0  0
   -1.8580   20.9630  -27.9940 C   0  0  0  0  0  0  0  0  0  0  0  0
   -1.4390   20.0090  -29.0290 N   0  0  0  0  0  0  0  0  0  0  0  0
   -0.6950   20.6780  -30.1030 C   0  0  0  0  0  0  0  0  0  0  0  0
   -1.4250   20.5030  -31.4040 C   0  0  0  0  0  0  0  0  0  0  0  0
   -1.5190   19.2390  -32.0050 C   0  0  0  0  0  0  0  0  0  0  0  0
   -2.1720   19.1090  -33.2330 C   0  0  0  0  0  0  0  0  0  0  0  0
   -2.7000   20.2030  -33.8450 N   0  0  0  0  0  0  0  0  0  0  0  0
   -2.6110   21.4410  -33.2910 C   0  0  0  0  0  0  0  0  0  0  0  0
   -1.9670   21.6160  -32.0650 C   0  0  0  0  0  0  0  0  0  0  0  0
   -3.5790   22.1540  -29.4060 C   0  0  0  0  0  0  0  0  0  0  0  0
   -4.0740   23.3040  -30.0370 C   0  0  0  0  0  0  0  0  0  0  0  0
   -5.3120   23.1910  -30.8940 C   0  0  0  0  0  0  0  0  0  0  0  0
   -6.0770   21.9800  -30.5250 N   0  0  0  0  0  0  0  0  0  0  0  0
   -7.4930   22.2860  -30.2390 C   0  0  0  0  0  0  0  0  0  0  0  0
   -8.2770   22.6350  -31.5270 C   0  0  0  0  0  0  0  0  0  0  0  0
   -7.6120   22.2350  -32.7130 O   0  0  0  0  0  0  0  0  0  0  0  0
   -7.1050   20.9260  -32.5670 C   0  0  0  0  0  0  0  0  0  0  0  0
   -5.9590   20.9010  -31.5350 C   0  0  0  0  0  0  0  0  0  0  0  0
   -3.3930   24.5270  -29.8800 C   0  0  0  0  0  0  0  0  0  0  0  0
   -3.8640   25.6820  -30.4980 O   0  0  0  0  0  0  0  0  0  0  0  0
   -1.3815   25.9450  -26.9243 H   0  0  0  0  0  0  0  0  0  0  0  0
    0.1515   25.7791  -27.8458 H   0  0  0  0  0  0  0  0  0  0  0  0
   -0.7317   27.3433  -27.8458 H   0  0  0  0  0  0  0  0  0  0  0  0
   -0.8244   23.4773  -27.8758 H   0  0  0  0  0  0  0  0  0  0  0  0
   -0.9902   21.2280  -27.3722 H   0  0  0  0  0  0  0  0  0  0  0  0
   -2.6384   20.4978  -27.3739 H   0  0  0  0  0  0  0  0  0  0  0  0
   -2.3050   19.5990  -29.4520 H   0  0  0  0  0  0  0  0  0  0  0  0
   -0.6060   21.7502  -29.8742 H   0  0  0  0  0  0  0  0  0  0  0  0
    0.3086   20.2350  -30.1840 H   0  0  0  0  0  0  0  0  0  0  0  0
   -1.0821   18.3574  -31.5133 H   0  0  0  0  0  0  0  0  0  0  0  0
   -2.2594   18.1198  -33.7061 H   0  0  0  0  0  0  0  0  0  0  0  0
   -3.0475   22.3071  -33.8100 H   0  0  0  0  0  0  0  0  0  0  0  0
   -1.8850   22.6188  -31.6203 H   0  0  0  0  0  0  0  0  0  0  0  0
   -4.1093   21.1975  -29.5234 H   0  0  0  0  0  0  0  0  0  0  0  0
   -5.9421   24.0797  -30.7419 H   0  0  0  0  0  0  0  0  0  0  0  0
   -5.0133   23.1202  -31.9503 H   0  0  0  0  0  0  0  0  0  0  0  0
   -7.9583   21.4088  -29.7656 H   0  0  0  0  0  0  0  0  0  0  0  0
   -7.5260   23.1596  -29.5713 H   0  0  0  0  0  0  0  0  0  0  0  0
   -9.2545   22.1320  -31.4880 H   0  0  0  0  0  0  0  0  0  0  0  0
   -8.3759   23.7300  -31.5620 H   0  0  0  0  0  0  0  0  0  0  0  0
   -7.9126   20.2611  -32.2269 H   0  0  0  0  0  0  0  0  0  0  0  0
   -6.7161   20.5854  -33.5379 H   0  0  0  0  0  0  0  0  0  0  0  0
   -5.9726   19.9307  -31.0170 H   0  0  0  0  0  0  0  0  0  0  0  0
   -5.0165   21.0569  -32.0803 H   0  0  0  0  0  0  0  0  0  0  0  0
  1  2  1  0
  2  3  1  0
  3  4  2  0
  4  5  1  0
  5  6  1  0
  6  7  1  0
  7  8  1  0
  8  9  1  0
  9 10  2  0
 10 11  1  0
 11 12  2  0
 12 13  1  0
 13 14  2  0
  5 15  2  0
 15 16  1  0
 16 17  1  0
 17 18  1  0
 18 19  1  0
 19 20  1  0
 20 21  1  0
 21 22  1  0
 22 23  1  0
 16 24  2  0
 24 25  1  0
 24  3  1  0
 14  9  1  0
 23 18  1  0
  1 26  1  0
  1 27  1  0
  1 28  1  0
  4 29  1  0
  6 30  1  0
  6 31  1  0
  7 32  1  0
  8 33  1  0
  8 34  1  0
 10 35  1  0
 11 36  1  0
 13 37  1  0
 14 38  1  0
 15 39  1  0
 17 40  1  0
 17 41  1  0
 19 42  1  0
 19 43  1  0
 20 44  1  0
 20 45  1  0
 22 46  1  0
 22 47  1  0
 23 48  1  0
 23 49  1  0
M  CHG  1  25  -1
M  END
>  <UniqueID>  (11) 
11

>  <SMILES>  (11) 
COc1cc(CNCc2ccncc2)cc(CN2CCOCC2)c1[O-]

>  <Energy>  (11) 
60.67517070712893

>  <Genealogy>  (11) 
COc1cc(CNCc2ccncc2)cc(CN2CCOCC2)c1[O-] (protonated)
COc1cc(CNCc2ccncc2)cc(CN2CCOCC2)c1[O-] (3D coordinates assigned)
COc1cc(CNCc2ccncc2)cc(CN2CCOCC2)c1[O-] (nonaromatic ring conformer: 60.67517070712893 kcal/mol)

>  <smiles>  (11) 
COc1cc(CNCc2ccncc2)cc(CN2CCOCC2)c1O

>  <score_type>  (11) 
oracle

>  <origin>  (11) 
adgpu

>  <m_score__min__energy>  (11) 
-10.630000000000001

>  <m_primary>  (11) 
energy

$$$$
11:0
     RDKit          3D

 60 63  0  0  0  0  0  0  0  0999 V2000
   -3.7680   16.9040  -34.9950 O   0  0  0  0  0  0  0  0  0  0  0  0
   -3.8590   17.8280  -33.8120 S   0  0  0  0  0  0  0  0  0  0  0  0
   -4.1800   17.0120  -32.5930 O   0  0  0  0  0  0  0  0  0  0  0  0
   -5.0970   19.0000  -34.1230 N   0  0  0  0  0  0  0  0  0  0  0  0
   -6.2740   19.1150  -33.3200 C   0  0  0  0  0  0  0  0  0  0  0  0
   -6.6550   20.3500  -32.7770 C   0  0  0  0  0  0  0  0  0  0  0  0
   -7.8430   20.4680  -32.0450 C   0  0  0  0  0  0  0  0  0  0  0  0
   -8.3560   22.0450  -31.4350 S   0  0  0  0  0  0  0  0  0  0  0  0
   -9.3870   22.6250  -32.3620 O   0  0  0  0  0  0  0  0  0  0  0  0
   -8.9930   21.8670  -30.0860 O   0  0  0  0  0  0  0  0  0  0  0  0
   -7.0090   23.1540  -31.3160 N   0  0  0  0  0  0  0  0  0  0  0  0
   -5.8330   22.5140  -30.6760 C   0  0  0  0  0  0  0  0  0  0  0  0
   -5.6620   22.9110  -29.2030 C   0  0  0  0  0  0  0  0  0  0  0  0
   -5.5210   24.4350  -29.0450 C   0  0  0  0  0  0  0  0  0  0  0  0
   -6.2450   25.2190  -30.1520 C   0  0  0  0  0  0  0  0  0  0  0  0
   -7.4370   24.4270  -30.6920 C   0  0  0  0  0  0  0  0  0  0  0  0
   -8.6350   19.3320  -31.8250 C   0  0  0  0  0  0  0  0  0  0  0  0
   -8.2390   18.0910  -32.3310 C   0  0  0  0  0  0  0  0  0  0  0  0
   -7.0600   17.9780  -33.0790 C   0  0  0  0  0  0  0  0  0  0  0  0
   -6.6730   16.7450  -33.6000 O   0  0  0  0  0  0  0  0  0  0  0  0
   -2.3310   18.6680  -33.5730 C   0  0  0  0  0  0  0  0  0  0  0  0
   -1.4340   18.8380  -34.6320 C   0  0  0  0  0  0  0  0  0  0  0  0
   -0.2490   19.5500  -34.4400 C   0  0  0  0  0  0  0  0  0  0  0  0
    0.0510   20.1030  -33.1900 C   0  0  0  0  0  0  0  0  0  0  0  0
    1.2080   20.8610  -33.0610 O   0  0  0  0  0  0  0  0  0  0  0  0
   -0.8290   19.9090  -32.1020 C   0  0  0  0  0  0  0  0  0  0  0  0
   -0.5660   20.4390  -30.7860 N   0  0  0  0  0  0  0  0  0  0  0  0
   -1.5980   20.7780  -29.8030 C   0  0  0  0  0  0  0  0  0  0  0  0
   -1.6030   22.2580  -29.5240 C   0  0  0  0  0  0  0  0  0  0  0  0
   -0.6330   22.8100  -28.6740 C   0  0  0  0  0  0  0  0  0  0  0  0
   -0.6140   24.1850  -28.4250 C   0  0  0  0  0  0  0  0  0  0  0  0
   -1.5690   25.0180  -29.0150 C   0  0  0  0  0  0  0  0  0  0  0  0
   -1.5470   26.3840  -28.7610 O   0  0  0  0  0  0  0  0  0  0  0  0
   -2.5450   24.4730  -29.8570 C   0  0  0  0  0  0  0  0  0  0  0  0
   -3.4960   25.2960  -30.4490 O   0  0  0  0  0  0  0  0  0  0  0  0
   -2.5640   23.0970  -30.1090 C   0  0  0  0  0  0  0  0  0  0  0  0
   -2.0230   19.1990  -32.3140 C   0  0  0  0  0  0  0  0  0  0  0  0
   -6.0161   21.2328  -32.9270 H   0  0  0  0  0  0  0  0  0  0  0  0
   -5.9538   21.4221  -30.7331 H   0  0  0  0  0  0  0  0  0  0  0  0
   -4.9376   22.8567  -31.2153 H   0  0  0  0  0  0  0  0  0  0  0  0
   -6.5421   22.5724  -28.6366 H   0  0  0  0  0  0  0  0  0  0  0  0
   -4.7458   22.4371  -28.8209 H   0  0  0  0  0  0  0  0  0  0  0  0
   -5.9440   24.7280  -28.0728 H   0  0  0  0  0  0  0  0  0  0  0  0
   -4.4502   24.6772  -29.1142 H   0  0  0  0  0  0  0  0  0  0  0  0
   -6.6038   26.1742  -29.7410 H   0  0  0  0  0  0  0  0  0  0  0  0
   -5.5386   25.3963  -30.9763 H   0  0  0  0  0  0  0  0  0  0  0  0
   -8.1232   24.2044  -29.8616 H   0  0  0  0  0  0  0  0  0  0  0  0
   -7.9347   25.0364  -31.4608 H   0  0  0  0  0  0  0  0  0  0  0  0
   -9.5704   19.4179  -31.2526 H   0  0  0  0  0  0  0  0  0  0  0  0
   -8.8552   17.1998  -32.1413 H   0  0  0  0  0  0  0  0  0  0  0  0
   -5.7630   16.6100  -34.0230 H   0  0  0  0  0  0  0  0  0  0  0  0
   -1.6628   18.4095  -35.6189 H   0  0  0  0  0  0  0  0  0  0  0  0
    0.4537   19.6773  -35.2767 H   0  0  0  0  0  0  0  0  0  0  0  0
    0.3970   20.7970  -30.5910 H   0  0  0  0  0  0  0  0  0  0  0  0
   -2.5818   20.4814  -30.1956 H   0  0  0  0  0  0  0  0  0  0  0  0
   -1.3832   20.2427  -28.8664 H   0  0  0  0  0  0  0  0  0  0  0  0
    0.1160   22.1576  -28.2014 H   0  0  0  0  0  0  0  0  0  0  0  0
    0.1539   24.6126  -27.7635 H   0  0  0  0  0  0  0  0  0  0  0  0
   -3.3349   22.6712  -30.7680 H   0  0  0  0  0  0  0  0  0  0  0  0
   -2.7257   19.0582  -31.4795 H   0  0  0  0  0  0  0  0  0  0  0  0
  1  2  2  0
  2  3  2  0
  2  4  1  0
  4  5  1  0
  5  6  2  0
  6  7  1  0
  7  8  1  0
  8  9  2  0
  8 10  2  0
  8 11  1  0
 11 12  1  0
 12 13  1  0
 13 14  1  0
 14 15  1  0
 15 16  1  0
  7 17  2  0
 17 18  1  0
 18 19  2  0
 19 20  1  0
  2 21  1  0
 21 22  2  0
 22 23  1  0
 23 24  2  0
 24 25  1  0
 24 26  1  0
 26 27  1  0
 27 28  1  0
 28 29  1  0
 29 30  2  0
 30 31  1  0
 31 32  2  0
 32 33  1  0
 32 34  1  0
 34 35  1  0
 34 36  2  0
 26 37  2  0
 19  5  1  0
 37 21  1  0
 16 11  1  0
 36 29  1  0
  6 38  1  0
 12 39  1  0
 12 40  1  0
 13 41  1  0
 13 42  1  0
 14 43  1  0
 14 44  1  0
 15 45  1  0
 15 46  1  0
 16 47  1  0
 16 48  1  0
 17 49  1  0
 18 50  1  0
 20 51  1  0
 22 52  1  0
 23 53  1  0
 27 54  1  0
 28 55  1  0
 28 56  1  0
 30 57  1  0
 31 58  1  0
 36 59  1  0
 37 60  1  0
M  CHG  4   4  -1  25  -1  33  -1  35  -1
M  END
>  <UniqueID>  (12) 
12

>  <SMILES>  (12) 
O=S(=O)([N-]c1cc(S(=O)(=O)N2CCCCC2)ccc1O)c1ccc([O-])c(NCc2ccc([O-])c([O-])c2)c1

>  <Energy>  (12) 
74.43674843160838

>  <Genealogy>  (12) 
O=S(=O)([N-]c1cc(S(=O)(=O)N2CCCCC2)ccc1O)c1ccc([O-])c(NCc2ccc([O-])c([O-])c2)c1 (protonated)
O=S(=O)([N-]c1cc(S(=O)(=O)N2CCCCC2)ccc1O)c1ccc([O-])c(NCc2ccc([O-])c([O-])c2)c1 (3D coordinates assigned)
O=S(=O)([N-]c1cc(S(=O)(=O)N2CCCCC2)ccc1O)c1ccc([O-])c(NCc2ccc([O-])c([O-])c2)c1 (nonaromatic ring conformer: 74.43674843160838 kcal/mol)

>  <smiles>  (12) 
O=S(=O)(Nc1cc(S(=O)(=O)N2CCCCC2)ccc1O)c1ccc(O)c(NCc2ccc(O)c(O)c2)c1

>  <score_type>  (12) 
oracle

>  <origin>  (12) 
adgpu

>  <m_score__min__energy>  (12) 
-16.84

>  <m_primary>  (12) 
energy

$$$$
12:0
     RDKit          3D

 59 62  0  0  0  0  0  0  0  0999 V2000
   -2.0930   19.3680  -26.5380 C   0  0  0  0  0  0  0  0  0  0  0  0
   -1.2280   18.4210  -27.1060 C   0  0  0  0  0  0  0  0  0  0  0  0
   -0.4950   18.7410  -28.2550 C   0  0  0  0  0  0  0  0  0  0  0  0
   -0.6160   20.0180  -28.8380 C   0  0  0  0  0  0  0  0  0  0  0  0
    0.2060   20.3880  -30.0440 C   0  0  0  0  0  0  0  0  0  0  0  0
   -0.5040   21.8500  -30.8770 S   0  0  0  0  0  0  0  0  0  0  0  0
   -1.7280   20.9140  -31.8100 C   0  0  0  0  0  0  0  0  0  0  0  0
   -1.2980   20.0650  -32.8340 C   0  0  0  0  0  0  0  0  0  0  0  0
   -2.2270   19.2880  -33.5240 C   0  0  0  0  0  0  0  0  0  0  0  0
   -3.5540   19.3430  -33.2030 N   0  0  0  0  0  0  0  0  0  0  0  0
   -4.5270   18.5250  -33.9380 C   0  0  0  0  0  0  0  0  0  0  0  0
   -5.8860   18.6310  -33.2980 C   0  0  0  0  0  0  0  0  0  0  0  0
   -6.7590   19.6680  -33.6660 C   0  0  0  0  0  0  0  0  0  0  0  0
   -8.0120   19.7800  -33.0550 C   0  0  0  0  0  0  0  0  0  0  0  0
   -8.3970   18.8660  -32.0700 C   0  0  0  0  0  0  0  0  0  0  0  0
   -7.5260   17.8420  -31.6850 C   0  0  0  0  0  0  0  0  0  0  0  0
   -6.2730   17.7260  -32.2930 C   0  0  0  0  0  0  0  0  0  0  0  0
   -3.9940   20.1900  -32.2240 C   0  0  0  0  0  0  0  0  0  0  0  0
   -3.1010   21.0160  -31.5340 C   0  0  0  0  0  0  0  0  0  0  0  0
   -3.7460   22.1040  -30.2540 S   0  0  0  0  0  0  0  0  0  0  0  0
   -4.8420   23.1170  -31.3330 C   0  0  0  0  0  0  0  0  0  0  0  0
   -6.3300   22.6860  -31.4230 C   0  0  0  0  0  0  0  0  0  0  0  0
   -7.1650   23.4670  -32.4730 C   0  0  0  0  0  0  0  0  0  0  0  0
   -8.6870   23.3830  -32.2250 C   0  0  0  0  0  0  0  0  0  0  0  0
   -9.0890   22.0810  -31.5220 C   0  0  0  0  0  0  0  0  0  0  0  0
   -8.3890   21.9190  -30.1530 C   0  0  0  0  0  0  0  0  0  0  0  0
   -7.0410   22.6580  -30.0580 C   0  0  0  0  0  0  0  0  0  0  0  0
   -1.4830   20.9640  -28.2600 C   0  0  0  0  0  0  0  0  0  0  0  0
   -2.2210   20.6370  -27.1160 C   0  0  0  0  0  0  0  0  0  0  0  0
   -2.6714   19.1135  -25.6376 H   0  0  0  0  0  0  0  0  0  0  0  0
   -1.1255   17.4261  -26.6482 H   0  0  0  0  0  0  0  0  0  0  0  0
    0.1766   17.9941  -28.7035 H   0  0  0  0  0  0  0  0  0  0  0  0
    1.2338   20.6163  -29.7255 H   0  0  0  0  0  0  0  0  0  0  0  0
    0.2063   19.5425  -30.7477 H   0  0  0  0  0  0  0  0  0  0  0  0
   -0.2306   20.0104  -33.0942 H   0  0  0  0  0  0  0  0  0  0  0  0
   -1.8889   18.6248  -34.3339 H   0  0  0  0  0  0  0  0  0  0  0  0
   -4.5867   18.8786  -34.9779 H   0  0  0  0  0  0  0  0  0  0  0  0
   -4.2014   17.4745  -33.9161 H   0  0  0  0  0  0  0  0  0  0  0  0
   -6.4567   20.3931  -34.4359 H   0  0  0  0  0  0  0  0  0  0  0  0
   -8.6961   20.5892  -33.3502 H   0  0  0  0  0  0  0  0  0  0  0  0
   -9.3864   18.9523  -31.5971 H   0  0  0  0  0  0  0  0  0  0  0  0
   -7.8269   17.1282  -30.9040 H   0  0  0  0  0  0  0  0  0  0  0  0
   -5.5866   16.9237  -31.9844 H   0  0  0  0  0  0  0  0  0  0  0  0
   -5.0651   20.2222  -31.9757 H   0  0  0  0  0  0  0  0  0  0  0  0
   -4.8173   24.1500  -30.9558 H   0  0  0  0  0  0  0  0  0  0  0  0
   -4.4434   22.9870  -32.3500 H   0  0  0  0  0  0  0  0  0  0  0  0
   -6.2744   21.6497  -31.7876 H   0  0  0  0  0  0  0  0  0  0  0  0
   -6.8638   24.5245  -32.4427 H   0  0  0  0  0  0  0  0  0  0  0  0
   -6.9679   23.0089  -33.4535 H   0  0  0  0  0  0  0  0  0  0  0  0
   -8.9908   24.2331  -31.5966 H   0  0  0  0  0  0  0  0  0  0  0  0
   -9.1901   23.4076  -33.2029 H   0  0  0  0  0  0  0  0  0  0  0  0
  -10.1778   22.0840  -31.3655 H   0  0  0  0  0  0  0  0  0  0  0  0
   -8.7800   21.2413  -32.1618 H   0  0  0  0  0  0  0  0  0  0  0  0
   -9.0568   22.3122  -29.3723 H   0  0  0  0  0  0  0  0  0  0  0  0
   -8.1789   20.8471  -30.0232 H   0  0  0  0  0  0  0  0  0  0  0  0
   -7.2197   23.6908  -29.7242 H   0  0  0  0  0  0  0  0  0  0  0  0
   -6.3997   22.1264  -29.3396 H   0  0  0  0  0  0  0  0  0  0  0  0
   -1.5812   21.9636  -28.7085 H   0  0  0  0  0  0  0  0  0  0  0  0
   -2.9019   21.3775  -26.6709 H   0  0  0  0  0  0  0  0  0  0  0  0
  1  2  2  0
  2  3  1  0
  3  4  2  0
  4  5  1  0
  5  6  1  0
  6  7  1  0
  7  8  2  0
  8  9  1  0
  9 10  2  0
 10 11  1  0
 11 12  1  0
 12 13  2  0
 13 14  1  0
 14 15  2  0
 15 16  1  0
 16 17  2  0
 10 18  1  0
 18 19  2  0
 19 20  1  0
 20 21  1  0
 21 22  1  0
 22 23  1  0
 23 24  1  0
 24 25  1  0
 25 26  1  0
 26 27  1  0
  4 28  1  0
 28 29  2  0
 29  1  1  0
 19  7  1  0
 27 22  1  0
 17 12  1  0
  1 30  1  0
  2 31  1  0
  3 32  1  0
  5 33  1  0
  5 34  1  0
  8 35  1  0
  9 36  1  0
 11 37  1  0
 11 38  1  0
 13 39  1  0
 14 40  1  0
 15 41  1  0
 16 42  1  0
 17 43  1  0
 18 44  1  0
 21 45  1  0
 21 46  1  0
 22 47  1  0
 23 48  1  0
 23 49  1  0
 24 50  1  0
 24 51  1  0
 25 52  1  0
 25 53  1  0
 26 54  1  0
 26 55  1  0
 27 56  1  0
 27 57  1  0
 28 58  1  0
 29 59  1  0
M  CHG  1  10   1
M  END
>  <UniqueID>  (13) 
13

>  <SMILES>  (13) 
c1ccc(CSc2cc[n+](Cc3ccccc3)cc2SCC2CCCCC2)cc1

>  <Energy>  (13) 
55.58006824167121

>  <Genealogy>  (13) 
c1ccc(CSc2cc[n+](Cc3ccccc3)cc2SCC2CCCCC2)cc1 (3D coordinates assigned)
c1ccc(CSc2cc[n+](Cc3ccccc3)cc2SCC2CCCCC2)cc1 (nonaromatic ring conformer: 55.58006824167121 kcal/mol)

>  <smiles>  (13) 
c1ccc(CSc2cc[n+](Cc3ccccc3)cc2SCC2CCCCC2)cc1

>  <score_type>  (13) 
oracle

>  <origin>  (13) 
adgpu

>  <m_score__min__energy>  (13) 
-9.2799999999999994

>  <m_primary>  (13) 
energy

$$$$
13:0
     RDKit          3D

 37 39  0  0  0  0  0  0  0  0999 V2000
   -8.7700   19.1500  -31.4310 C   0  0  0  0  0  0  0  0  0  0  0  0
   -8.0410   18.1730  -32.3620 C   0  0  0  0  0  0  0  0  0  0  0  0
   -7.1850   18.8560  -33.4570 C   0  0  2  0  0  0  0  0  0  0  0  0
   -6.2050   17.8360  -34.1430 C   0  0  0  0  0  0  0  0  0  0  0  0
   -4.7970   18.3820  -34.4420 C   0  0  0  0  0  0  0  0  0  0  0  0
   -4.2990   19.1280  -33.2540 C   0  0  0  0  0  0  0  0  0  0  0  0
   -2.7470   19.1550  -32.6130 S   0  0  0  0  0  0  0  0  0  0  0  0
   -3.1060   20.2640  -31.3880 C   0  0  0  0  0  0  0  0  0  0  0  0
   -2.1400   20.7260  -30.3710 C   0  0  0  0  0  0  0  0  0  0  0  0
   -1.4300   19.8690  -29.7790 O   0  0  0  0  0  0  0  0  0  0  0  0
   -1.9860   22.1550  -30.0150 C   0  0  0  0  0  0  0  0  0  0  0  0
   -0.8970   22.5950  -29.2410 C   0  0  0  0  0  0  0  0  0  0  0  0
   -0.7740   23.9440  -28.8970 C   0  0  0  0  0  0  0  0  0  0  0  0
   -1.7420   24.8650  -29.3090 C   0  0  0  0  0  0  0  0  0  0  0  0
   -1.6120   26.2050  -28.9640 O   0  0  0  0  0  0  0  0  0  0  0  0
   -2.8390   24.4350  -30.0640 C   0  0  0  0  0  0  0  0  0  0  0  0
   -3.8070   25.3450  -30.4720 O   0  0  0  0  0  0  0  0  0  0  0  0
   -2.9640   23.0850  -30.4090 C   0  0  0  0  0  0  0  0  0  0  0  0
   -4.4550   20.6130  -31.4740 C   0  0  0  0  0  0  0  0  0  0  0  0
   -5.1110   19.9670  -32.5260 C   0  0  0  0  0  0  0  0  0  0  0  0
   -6.5330   20.1780  -32.9420 C   0  0  0  0  0  0  0  0  0  0  0  0
   -8.5678   18.8790  -30.3842 H   0  0  0  0  0  0  0  0  0  0  0  0
   -8.4127   20.1729  -31.6205 H   0  0  0  0  0  0  0  0  0  0  0  0
   -9.8523   19.0987  -31.6205 H   0  0  0  0  0  0  0  0  0  0  0  0
   -7.3789   17.5428  -31.7501 H   0  0  0  0  0  0  0  0  0  0  0  0
   -8.8181   17.5953  -32.8838 H   0  0  0  0  0  0  0  0  0  0  0  0
   -7.8470   19.1858  -34.2713 H   0  0  0  0  0  0  0  0  0  0  0  0
   -6.0989   16.9660  -33.4783 H   0  0  0  0  0  0  0  0  0  0  0  0
   -6.6516   17.5911  -35.1180 H   0  0  0  0  0  0  0  0  0  0  0  0
   -4.1173   17.5458  -34.6628 H   0  0  0  0  0  0  0  0  0  0  0  0
   -4.8385   19.0555  -35.3107 H   0  0  0  0  0  0  0  0  0  0  0  0
   -0.1380   21.8733  -28.9046 H   0  0  0  0  0  0  0  0  0  0  0  0
    0.0864   24.2820  -28.3007 H   0  0  0  0  0  0  0  0  0  0  0  0
   -3.8336   22.7488  -30.9927 H   0  0  0  0  0  0  0  0  0  0  0  0
   -4.9477   21.3189  -30.7891 H   0  0  0  0  0  0  0  0  0  0  0  0
   -7.1065   20.5457  -32.0783 H   0  0  0  0  0  0  0  0  0  0  0  0
   -6.5456   20.9097  -33.7632 H   0  0  0  0  0  0  0  0  0  0  0  0
  1  2  1  0
  2  3  1  0
  3  4  1  0
  4  5  1  0
  5  6  1  0
  6  7  1  0
  7  8  1  0
  8  9  1  0
  9 10  2  0
  9 11  1  0
 11 12  2  0
 12 13  1  0
 13 14  2  0
 14 15  1  0
 14 16  1  0
 16 17  1  0
 16 18  2  0
  8 19  2  0
 19 20  1  0
 20 21  1  0
 21  3  1  0
 20  6  2  0
 18 11  1  0
  1 22  1  0
  1 23  1  0
  1 24  1  0
  2 25  1  0
  2 26  1  0
  3 27  1  6
  4 28  1  0
  4 29  1  0
  5 30  1  0
  5 31  1  0
 12 32  1  0
 13 33  1  0
 18 34  1  0
 19 35  1  0
 21 36  1  0
 21 37  1  0
M  CHG  2  15  -1  17  -1
M  END
>  <UniqueID>  (14) 
14

>  <SMILES>  (14) 
CC[C@@H]1CCc2sc(C(=O)c3ccc([O-])c([O-])c3)cc2C1

>  <Energy>  (14) 
74.15380343111491

>  <Genealogy>  (14) 
CCC1CCc2sc(C(=O)c3ccc([O-])c([O-])c3)cc2C1 (protonated)
CC[C@@H]1CCc2sc(C(=O)c3ccc([O-])c([O-])c3)cc2C1 (chirality)
CC[C@@H]1CCc2sc(C(=O)c3ccc([O-])c([O-])c3)cc2C1 (3D coordinates assigned)
CC[C@@H]1CCc2sc(C(=O)c3ccc([O-])c([O-])c3)cc2C1 (nonaromatic ring conformer: 74.15380343111491 kcal/mol)

>  <smiles>  (14) 
CCC1CCc2sc(C(=O)c3ccc(O)c(O)c3)cc2C1

>  <score_type>  (14) 
oracle

>  <origin>  (14) 
adgpu

>  <m_score__min__energy>  (14) 
-12.94

>  <m_primary>  (14) 
energy

$$$$
14:0
     RDKit          3D

 55 59  0  0  0  0  0  0  0  0999 V2000
    1.1710   25.0450  -36.0800 C   0  0  0  0  0  0  0  0  0  0  0  0
    0.6960   23.7400  -35.7620 O   0  0  0  0  0  0  0  0  0  0  0  0
    1.5080   22.5980  -35.6600 C   0  0  0  0  0  0  0  0  0  0  0  0
    2.8760   22.6260  -36.0010 C   0  0  0  0  0  0  0  0  0  0  0  0
    3.6570   21.4740  -35.8840 C   0  0  0  0  0  0  0  0  0  0  0  0
    3.0870   20.2870  -35.4220 C   0  0  0  0  0  0  0  0  0  0  0  0
    1.7340   20.2460  -35.0780 C   0  0  0  0  0  0  0  0  0  0  0  0
    0.9300   21.3930  -35.2080 C   0  0  0  0  0  0  0  0  0  0  0  0
   -0.4590   21.3690  -34.8220 N   0  0  0  0  0  0  0  0  0  0  0  0
   -1.1670   20.1810  -34.4290 C   0  0  0  0  0  0  0  0  0  0  0  0
   -0.6670   19.0450  -34.6580 O   0  0  0  0  0  0  0  0  0  0  0  0
   -2.5070   20.2810  -33.8070 C   0  0  0  0  0  0  0  0  0  0  0  0
   -3.1070   21.6630  -33.0560 S   0  0  0  0  0  0  0  0  0  0  0  0
   -4.5910   20.9680  -32.6870 C   0  0  0  0  0  0  0  0  0  0  0  0
   -5.6740   21.6190  -32.0000 N   0  0  0  0  0  0  0  0  0  0  0  0
   -6.9810   21.4340  -32.2750 C   0  0  0  0  0  0  0  0  0  0  0  0
   -7.7600   22.1780  -31.4120 C   0  0  0  0  0  0  0  0  0  0  0  0
   -6.8940   22.8530  -30.5780 C   0  0  0  0  0  0  0  0  0  0  0  0
   -5.6160   22.4960  -30.9680 C   0  0  0  0  0  0  0  0  0  0  0  0
   -4.3780   23.0670  -30.3860 C   0  0  0  0  0  0  0  0  0  0  0  0
   -3.3940   22.2520  -29.7720 C   0  0  0  0  0  0  0  0  0  0  0  0
   -3.5110   20.7410  -29.7790 C   0  0  0  0  0  0  0  0  0  0  0  0
   -2.3010   22.8850  -29.1290 C   0  0  0  0  0  0  0  0  0  0  0  0
   -1.3130   22.1700  -28.4150 C   0  0  0  0  0  0  0  0  0  0  0  0
   -0.2530   22.8450  -27.8020 C   0  0  0  0  0  0  0  0  0  0  0  0
   -0.1620   24.2340  -27.8870 C   0  0  0  0  0  0  0  0  0  0  0  0
   -1.1340   24.9590  -28.5820 C   0  0  0  0  0  0  0  0  0  0  0  0
   -2.2020   24.2960  -29.1960 C   0  0  0  0  0  0  0  0  0  0  0  0
   -3.1230   25.0060  -29.8350 O   0  0  0  0  0  0  0  0  0  0  0  0
   -4.1830   24.4590  -30.4160 C   0  0  0  0  0  0  0  0  0  0  0  0
   -5.0230   25.2110  -30.9810 O   0  0  0  0  0  0  0  0  0  0  0  0
   -4.6440   19.6810  -33.0940 N   0  0  0  0  0  0  0  0  0  0  0  0
   -3.4960   19.2890  -33.7160 C   0  0  0  0  0  0  0  0  0  0  0  0
   -3.3430   17.8930  -34.2350 C   0  0  0  0  0  0  0  0  0  0  0  0
    1.3724   25.5984  -35.1509 H   0  0  0  0  0  0  0  0  0  0  0  0
    2.0976   24.9649  -36.6673 H   0  0  0  0  0  0  0  0  0  0  0  0
    0.4097   25.5793  -36.6673 H   0  0  0  0  0  0  0  0  0  0  0  0
    3.3307   23.5606  -36.3613 H   0  0  0  0  0  0  0  0  0  0  0  0
    4.7224   21.5024  -36.1563 H   0  0  0  0  0  0  0  0  0  0  0  0
    3.7047   19.3816  -35.3286 H   0  0  0  0  0  0  0  0  0  0  0  0
    1.2940   19.3103  -34.7028 H   0  0  0  0  0  0  0  0  0  0  0  0
   -0.9960   22.2620  -34.8980 H   0  0  0  0  0  0  0  0  0  0  0  0
   -7.3704   20.7838  -33.0723 H   0  0  0  0  0  0  0  0  0  0  0  0
   -8.8589   22.2236  -31.3932 H   0  0  0  0  0  0  0  0  0  0  0  0
   -7.1660   23.5400  -29.7631 H   0  0  0  0  0  0  0  0  0  0  0  0
   -3.5397   20.3707  -28.7436 H   0  0  0  0  0  0  0  0  0  0  0  0
   -4.4346   20.4472  -30.2992 H   0  0  0  0  0  0  0  0  0  0  0  0
   -2.6437   20.3085  -30.2992 H   0  0  0  0  0  0  0  0  0  0  0  0
   -1.3784   21.0744  -28.3410 H   0  0  0  0  0  0  0  0  0  0  0  0
    0.5119   22.2784  -27.2507 H   0  0  0  0  0  0  0  0  0  0  0  0
    0.6761   24.7598  -27.4063 H   0  0  0  0  0  0  0  0  0  0  0  0
   -1.0590   26.0545  -28.6464 H   0  0  0  0  0  0  0  0  0  0  0  0
   -3.2664   17.1938  -33.3893 H   0  0  0  0  0  0  0  0  0  0  0  0
   -4.2179   17.6319  -34.8485 H   0  0  0  0  0  0  0  0  0  0  0  0
   -2.4323   17.8276  -34.8485 H   0  0  0  0  0  0  0  0  0  0  0  0
  1  2  1  0
  2  3  1  0
  3  4  2  0
  4  5  1  0
  5  6  2  0
  6  7  1  0
  7  8  2  0
  8  9  1  0
  9 10  1  0
 10 11  2  0
 10 12  1  0
 12 13  1  0
 13 14  1  0
 14 15  1  0
 15 16  1  0
 16 17  2  0
 17 18  1  0
 18 19  2  0
 19 20  1  0
 20 21  2  0
 21 22  1  0
 21 23  1  0
 23 24  2  0
 24 25  1  0
 25 26  2  0
 26 27  1  0
 27 28  2  0
 28 29  1  0
 29 30  1  0
 30 31  2  0
 14 32  2  0
 32 33  1  0
 33 34  1  0
  8  3  1  0
 33 12  2  0
 19 15  1  0
 30 20  1  0
 28 23  1  0
  1 35  1  0
  1 36  1  0
  1 37  1  0
  4 38  1  0
  5 39  1  0
  6 40  1  0
  7 41  1  0
  9 42  1  0
 16 43  1  0
 17 44  1  0
 18 45  1  0
 22 46  1  0
 22 47  1  0
 22 48  1  0
 24 49  1  0
 25 50  1  0
 26 51  1  0
 27 52  1  0
 34 53  1  0
 34 54  1  0
 34 55  1  0
M  END
>  <UniqueID>  (15) 
15

>  <SMILES>  (15) 
COc1ccccc1NC(=O)c1sc(-n2cccc2-c2c(C)c3ccccc3oc2=O)nc1C

>  <Energy>  (15) 
136.2345525335437

>  <Genealogy>  (15) 
COc1ccccc1NC(=O)c1sc(-n2cccc2-c2c(C)c3ccccc3oc2=O)nc1C (3D coordinates assigned)
COc1ccccc1NC(=O)c1sc(-n2cccc2-c2c(C)c3ccccc3oc2=O)nc1C (optimized conformer: 136.2345525335437 kcal/mol)

>  <smiles>  (15) 
COc1ccccc1NC(=O)c1sc(-n2cccc2-c2c(C)c3ccccc3oc2=O)nc1C

>  <score_type>  (15) 
oracle

>  <origin>  (15) 
adgpu

>  <m_score__min__energy>  (15) 
-10.27

>  <m_primary>  (15) 
energy

$$$$
15:0
     RDKit          3D

 32 33  0  0  0  0  0  0  0  0999 V2000
   -1.2330   25.7100  -29.3340 N   0  0  0  0  0  0  0  0  0  0  0  0
   -0.6380   24.6130  -28.1380 S   0  0  0  0  0  0  0  0  0  0  0  0
    0.8330   24.4040  -28.3640 O   0  0  0  0  0  0  0  0  0  0  0  0
   -0.8580   25.2090  -26.7780 O   0  0  0  0  0  0  0  0  0  0  0  0
   -1.4770   23.0600  -28.2370 C   0  0  0  0  0  0  0  0  0  0  0  0
   -0.7520   21.8670  -28.0810 C   0  0  0  0  0  0  0  0  0  0  0  0
   -1.3970   20.6270  -28.1520 C   0  0  0  0  0  0  0  0  0  0  0  0
   -0.4660   19.1470  -27.9380 S   0  0  0  0  0  0  0  0  0  0  0  0
   -1.2460   18.1420  -26.7670 N   0  0  0  0  0  0  0  0  0  0  0  0
   -0.3670   18.4020  -29.2390 O   0  0  0  0  0  0  0  0  0  0  0  0
    0.9190   19.4950  -27.4700 O   0  0  0  0  0  0  0  0  0  0  0  0
   -2.7760   20.5770  -28.3840 C   0  0  0  0  0  0  0  0  0  0  0  0
   -3.5040   21.7570  -28.5510 C   0  0  0  0  0  0  0  0  0  0  0  0
   -2.8650   23.0080  -28.4820 C   0  0  0  0  0  0  0  0  0  0  0  0
   -3.5940   24.2330  -28.6550 N   0  0  0  0  0  0  0  0  0  0  0  0
   -4.5890   24.6280  -30.0170 S   0  0  0  0  0  0  0  0  0  0  0  0
   -3.8970   25.6670  -30.8550 O   0  0  0  0  0  0  0  0  0  0  0  0
   -5.8980   25.1810  -29.5290 O   0  0  0  0  0  0  0  0  0  0  0  0
   -4.8980   23.1840  -30.9640 C   0  0  0  0  0  0  0  0  0  0  0  0
   -6.1300   22.5710  -31.1310 C   0  0  0  0  0  0  0  0  0  0  0  0
   -6.0690   21.4450  -31.9600 C   0  0  0  0  0  0  0  0  0  0  0  0
   -4.7930   21.1770  -32.4440 C   0  0  0  0  0  0  0  0  0  0  0  0
   -3.7390   22.3420  -31.8390 S   0  0  0  0  0  0  0  0  0  0  0  0
   -2.0650   25.2600  -29.7780 H   0  0  0  0  0  0  0  0  0  0  0  0
    0.3325   21.9078  -27.9014 H   0  0  0  0  0  0  0  0  0  0  0  0
   -0.5200   17.4880  -26.3970 H   0  0  0  0  0  0  0  0  0  0  0  0
   -1.5280   18.7580  -25.9730 H   0  0  0  0  0  0  0  0  0  0  0  0
   -3.2884   19.6050  -28.4350 H   0  0  0  0  0  0  0  0  0  0  0  0
   -4.5868   21.7076  -28.7382 H   0  0  0  0  0  0  0  0  0  0  0  0
   -7.0573   22.9313  -30.6617 H   0  0  0  0  0  0  0  0  0  0  0  0
   -6.9474   20.8300  -32.2056 H   0  0  0  0  0  0  0  0  0  0  0  0
   -4.5189   20.3450  -33.1093 H   0  0  0  0  0  0  0  0  0  0  0  0
  1  2  1  0
  2  3  2  0
  2  4  2  0
  2  5  1  0
  5  6  2  0
  6  7  1  0
  7  8  1  0
  8  9  1  0
  8 10  2  0
  8 11  2  0
  7 12  2  0
 12 13  1  0
 13 14  2  0
 14 15  1  0
 15 16  1  0
 16 17  2  0
 16 18  2  0
 16 19  1  0
 19 20  2  0
 20 21  1  0
 21 22  2  0
 22 23  1  0
 14  5  1  0
 23 19  1  0
  1 24  1  0
  6 25  1  0
  9 26  1  0
  9 27  1  0
 12 28  1  0
 13 29  1  0
 20 30  1  0
 21 31  1  0
 22 32  1  0
M  CHG  2   1  -1  15  -1
M  END
>  <UniqueID>  (16) 
16

>  <SMILES>  (16) 
[NH-]S(=O)(=O)c1cc(S(N)(=O)=O)ccc1[N-]S(=O)(=O)c1cccs1

>  <Energy>  (16) 
60.79410627151809

>  <Genealogy>  (16) 
[NH-]S(=O)(=O)c1cc(S(N)(=O)=O)ccc1[N-]S(=O)(=O)c1cccs1 (protonated)
[NH-]S(=O)(=O)c1cc(S(N)(=O)=O)ccc1[N-]S(=O)(=O)c1cccs1 (3D coordinates assigned)
[NH-]S(=O)(=O)c1cc(S(N)(=O)=O)ccc1[N-]S(=O)(=O)c1cccs1 (optimized conformer: 60.79410627151809 kcal/mol)

>  <smiles>  (16) 
NS(=O)(=O)c1ccc(NS(=O)(=O)c2cccs2)c(S(N)(=O)=O)c1

>  <score_type>  (16) 
oracle

>  <origin>  (16) 
adgpu

>  <m_score__min__energy>  (16) 
-10.58

>  <m_primary>  (16) 
energy

$$$$
16:0
     RDKit          3D

 51 54  0  0  0  0  0  0  0  0999 V2000
   -5.7640   26.2410  -31.2180 O   0  0  0  0  0  0  0  0  0  0  0  0
   -5.3180   25.1110  -30.3320 S   0  0  0  0  0  0  0  0  0  0  0  0
   -5.7290   25.4240  -28.9190 O   0  0  0  0  0  0  0  0  0  0  0  0
   -3.5920   24.9700  -30.4190 N   0  0  0  0  0  0  0  0  0  0  0  0
   -2.7760   24.1460  -29.5720 C   0  0  0  0  0  0  0  0  0  0  0  0
   -3.1190   22.8160  -29.2750 C   0  0  0  0  0  0  0  0  0  0  0  0
   -2.2950   22.0280  -28.4550 C   0  0  0  0  0  0  0  0  0  0  0  0
   -1.1010   22.5760  -27.9340 C   0  0  0  0  0  0  0  0  0  0  0  0
   -0.7770   23.9110  -28.2130 C   0  0  0  0  0  0  0  0  0  0  0  0
   -1.5980   24.6860  -29.0380 C   0  0  0  0  0  0  0  0  0  0  0  0
   -1.2310   25.9950  -29.3340 O   0  0  0  0  0  0  0  0  0  0  0  0
   -0.2220   21.7940  -26.9860 C   0  0  0  0  0  0  0  0  0  0  0  0
   -0.4430   20.2820  -27.0930 C   0  0  0  0  0  0  0  0  0  0  0  0
   -1.9370   19.9600  -27.0340 C   0  0  0  0  0  0  0  0  0  0  0  0
   -2.6660   20.5790  -28.2330 C   0  0  0  0  0  0  0  0  0  0  0  0
   -6.0740   23.6210  -30.8930 C   0  0  0  0  0  0  0  0  0  0  0  0
   -7.1200   23.0290  -30.1690 C   0  0  0  0  0  0  0  0  0  0  0  0
   -7.6940   21.8350  -30.6130 C   0  0  0  0  0  0  0  0  0  0  0  0
   -7.2410   21.2310  -31.7930 C   0  0  0  0  0  0  0  0  0  0  0  0
   -7.9550   19.7170  -32.3400 S   0  0  0  0  0  0  0  0  0  0  0  0
   -9.1760   20.0050  -33.1720 O   0  0  0  0  0  0  0  0  0  0  0  0
   -8.3740   18.9060  -31.1440 O   0  0  0  0  0  0  0  0  0  0  0  0
   -6.7750   18.8210  -33.2620 N   0  0  0  0  0  0  0  0  0  0  0  0
   -7.1470   17.4130  -33.3810 C   0  0  0  0  0  0  0  0  0  0  0  0
   -5.8520   16.6360  -33.5550 C   0  0  0  0  0  0  0  0  0  0  0  0
   -4.7610   17.5490  -33.0210 C   0  0  0  0  0  0  0  0  0  0  0  0
   -5.4710   18.8280  -32.6000 C   0  0  0  0  0  0  0  0  0  0  0  0
   -6.1970   21.8240  -32.5190 C   0  0  0  0  0  0  0  0  0  0  0  0
   -5.6140   23.0110  -32.0680 C   0  0  0  0  0  0  0  0  0  0  0  0
   -4.0433   22.3873  -29.6895 H   0  0  0  0  0  0  0  0  0  0  0  0
    0.1318   24.3532  -27.7788 H   0  0  0  0  0  0  0  0  0  0  0  0
    0.8305   22.0139  -27.2183 H   0  0  0  0  0  0  0  0  0  0  0  0
   -0.4822   22.0980  -25.9614 H   0  0  0  0  0  0  0  0  0  0  0  0
   -0.0312   19.9214  -28.0471 H   0  0  0  0  0  0  0  0  0  0  0  0
    0.0642   19.7852  -26.2528 H   0  0  0  0  0  0  0  0  0  0  0  0
   -2.0733   18.8686  -27.0511 H   0  0  0  0  0  0  0  0  0  0  0  0
   -2.3556   20.3791  -26.1071 H   0  0  0  0  0  0  0  0  0  0  0  0
   -2.4073   20.0068  -29.1362 H   0  0  0  0  0  0  0  0  0  0  0  0
   -3.7450   20.5400  -28.0229 H   0  0  0  0  0  0  0  0  0  0  0  0
   -7.4892   23.5062  -29.2493 H   0  0  0  0  0  0  0  0  0  0  0  0
   -8.5043   21.3677  -30.0341 H   0  0  0  0  0  0  0  0  0  0  0  0
   -7.6703   17.0804  -32.4724 H   0  0  0  0  0  0  0  0  0  0  0  0
   -7.8244   17.2518  -34.2326 H   0  0  0  0  0  0  0  0  0  0  0  0
   -5.8851   15.6985  -32.9805 H   0  0  0  0  0  0  0  0  0  0  0  0
   -5.6777   16.3599  -34.6054 H   0  0  0  0  0  0  0  0  0  0  0  0
   -4.2600   17.0856  -32.1583 H   0  0  0  0  0  0  0  0  0  0  0  0
   -3.9850   17.7426  -33.7762 H   0  0  0  0  0  0  0  0  0  0  0  0
   -5.6002   18.8482  -31.5078 H   0  0  0  0  0  0  0  0  0  0  0  0
   -4.8877   19.7165  -32.8834 H   0  0  0  0  0  0  0  0  0  0  0  0
   -5.8366   21.3532  -33.4455 H   0  0  0  0  0  0  0  0  0  0  0  0
   -4.7912   23.4683  -32.6371 H   0  0  0  0  0  0  0  0  0  0  0  0
  1  2  2  0
  2  3  2  0
  2  4  1  0
  4  5  1  0
  5  6  2  0
  6  7  1  0
  7  8  2  0
  8  9  1  0
  9 10  2  0
 10 11  1  0
  8 12  1  0
 12 13  1  0
 13 14  1  0
 14 15  1  0
  2 16  1  0
 16 17  2  0
 17 18  1  0
 18 19  2  0
 19 20  1  0
 20 21  2  0
 20 22  2  0
 20 23  1  0
 23 24  1  0
 24 25  1  0
 25 26  1  0
 26 27  1  0
 19 28  1  0
 28 29  2  0
 10  5  1  0
 29 16  1  0
 15  7  1  0
 27 23  1  0
  6 30  1  0
  9 31  1  0
 12 32  1  0
 12 33  1  0
 13 34  1  0
 13 35  1  0
 14 36  1  0
 14 37  1  0
 15 38  1  0
 15 39  1  0
 17 40  1  0
 18 41  1  0
 24 42  1  0
 24 43  1  0
 25 44  1  0
 25 45  1  0
 26 46  1  0
 26 47  1  0
 27 48  1  0
 27 49  1  0
 28 50  1  0
 29 51  1  0
M  CHG  2   4  -1  11  -1
M  END
>  <UniqueID>  (17) 
17

>  <SMILES>  (17) 
O=S(=O)([N-]c1cc2c(cc1[O-])CCCC2)c1ccc(S(=O)(=O)N2CCCC2)cc1

>  <Energy>  (17) 
56.08592994082226

>  <Genealogy>  (17) 
O=S(=O)([N-]c1cc2c(cc1[O-])CCCC2)c1ccc(S(=O)(=O)N2CCCC2)cc1 (protonated)
O=S(=O)([N-]c1cc2c(cc1[O-])CCCC2)c1ccc(S(=O)(=O)N2CCCC2)cc1 (3D coordinates assigned)
O=S(=O)([N-]c1cc2c(cc1[O-])CCCC2)c1ccc(S(=O)(=O)N2CCCC2)cc1 (nonaromatic ring conformer: 56.08592994082226 kcal/mol)

>  <smiles>  (17) 
O=S(=O)(Nc1cc2c(cc1O)CCCC2)c1ccc(S(=O)(=O)N2CCCC2)cc1

>  <score_type>  (17) 
oracle

>  <origin>  (17) 
adgpu

>  <m_score__min__energy>  (17) 
-15.76

>  <m_primary>  (17) 
energy

$$$$
17:0
     RDKit          3D

 47 48  0  0  0  0  0  0  0  0999 V2000
   -3.9770   18.5590  -33.8850 C   0  0  0  0  0  0  0  0  0  0  0  0
   -5.4550   18.3500  -33.9210 C   0  0  0  0  0  0  0  0  0  0  0  0
   -6.1020   18.6520  -34.9610 O   0  0  0  0  0  0  0  0  0  0  0  0
   -6.1360   17.8500  -32.7620 N   0  0  0  0  0  0  0  0  0  0  0  0
   -7.5780   17.6140  -32.7340 C   0  0  0  0  0  0  0  0  0  0  0  0
   -8.3320   18.9270  -32.5110 C   0  0  0  0  0  0  0  0  0  0  0  0
   -7.6420   20.0380  -33.1680 N   0  0  0  0  0  0  0  0  0  0  0  0
   -6.9880   21.1240  -32.4780 C   0  0  0  0  0  0  0  0  0  0  0  0
   -5.5870   21.1990  -32.3710 C   0  0  0  0  0  0  0  0  0  0  0  0
   -4.9740   22.2600  -31.6920 C   0  0  0  0  0  0  0  0  0  0  0  0
   -3.2150   22.2980  -31.6340 Cl  0  0  0  0  0  0  0  0  0  0  0  0
   -5.7630   23.2630  -31.0950 C   0  0  0  0  0  0  0  0  0  0  0  0
   -5.0290   24.6160  -30.2220 S   0  0  0  0  0  0  0  0  0  0  0  0
   -6.1240   25.4440  -29.6110 O   0  0  0  0  0  0  0  0  0  0  0  0
   -4.2420   25.4700  -31.1790 O   0  0  0  0  0  0  0  0  0  0  0  0
   -4.0000   24.0270  -28.9430 N   0  0  0  0  0  0  0  0  0  0  0  0
   -2.6780   24.6580  -28.9590 C   0  0  0  0  0  0  0  0  0  0  0  0
   -1.8610   24.2760  -27.7200 C   0  0  0  0  0  0  0  0  0  0  0  0
   -1.5020   25.5020  -26.9230 C   0  0  0  0  0  0  0  0  0  0  0  0
   -1.7560   25.5490  -25.5430 C   0  0  0  0  0  0  0  0  0  0  0  0
   -1.3930   26.6750  -24.7980 C   0  0  0  0  0  0  0  0  0  0  0  0
   -0.7670   27.7570  -25.4230 C   0  0  0  0  0  0  0  0  0  0  0  0
   -0.4970   27.7120  -26.7940 C   0  0  0  0  0  0  0  0  0  0  0  0
   -0.8580   26.5870  -27.5430 C   0  0  0  0  0  0  0  0  0  0  0  0
   -7.1580   23.1960  -31.2150 C   0  0  0  0  0  0  0  0  0  0  0  0
   -7.7660   22.1370  -31.8910 C   0  0  0  0  0  0  0  0  0  0  0  0
   -9.1200   22.1060  -31.9820 F   0  0  0  0  0  0  0  0  0  0  0  0
   -3.6388   18.6068  -32.8394 H   0  0  0  0  0  0  0  0  0  0  0  0
   -3.4759   17.7228  -34.3946 H   0  0  0  0  0  0  0  0  0  0  0  0
   -3.7274   19.5014  -34.3946 H   0  0  0  0  0  0  0  0  0  0  0  0
   -5.5900   17.6950  -31.8850 H   0  0  0  0  0  0  0  0  0  0  0  0
   -7.8916   17.1748  -33.6925 H   0  0  0  0  0  0  0  0  0  0  0  0
   -7.8098   16.9260  -31.9076 H   0  0  0  0  0  0  0  0  0  0  0  0
   -9.3465   18.8358  -32.9263 H   0  0  0  0  0  0  0  0  0  0  0  0
   -8.3785   19.1289  -31.4307 H   0  0  0  0  0  0  0  0  0  0  0  0
   -7.6440   20.0370  -34.2130 H   0  0  0  0  0  0  0  0  0  0  0  0
   -4.9650   20.4143  -32.8264 H   0  0  0  0  0  0  0  0  0  0  0  0
   -2.1366   24.3318  -29.8592 H   0  0  0  0  0  0  0  0  0  0  0  0
   -2.8153   25.7494  -28.9601 H   0  0  0  0  0  0  0  0  0  0  0  0
   -2.4549   23.5969  -27.0907 H   0  0  0  0  0  0  0  0  0  0  0  0
   -0.9343   23.7807  -28.0453 H   0  0  0  0  0  0  0  0  0  0  0  0
   -2.2424   24.6967  -25.0461 H   0  0  0  0  0  0  0  0  0  0  0  0
   -1.6004   26.7094  -23.7183 H   0  0  0  0  0  0  0  0  0  0  0  0
   -0.4867   28.6441  -24.8361 H   0  0  0  0  0  0  0  0  0  0  0  0
   -0.0002   28.5621  -27.2843 H   0  0  0  0  0  0  0  0  0  0  0  0
   -0.6374   26.5512  -28.6200 H   0  0  0  0  0  0  0  0  0  0  0  0
   -7.7806   23.9870  -30.7714 H   0  0  0  0  0  0  0  0  0  0  0  0
  1  2  1  0
  2  3  2  0
  2  4  1  0
  4  5  1  0
  5  6  1  0
  6  7  1  0
  7  8  1  0
  8  9  2  0
  9 10  1  0
 10 11  1  0
 10 12  2  0
 12 13  1  0
 13 14  2  0
 13 15  2  0
 13 16  1  0
 16 17  1  0
 17 18  1  0
 18 19  1  0
 19 20  2  0
 20 21  1  0
 21 22  2  0
 22 23  1  0
 23 24  2  0
 12 25  1  0
 25 26  2  0
 26 27  1  0
 26  8  1  0
 24 19  1  0
  1 28  1  0
  1 29  1  0
  1 30  1  0
  4 31  1  0
  5 32  1  0
  5 33  1  0
  6 34  1  0
  6 35  1  0
  7 36  1  0
  9 37  1  0
 17 38  1  0
 17 39  1  0
 18 40  1  0
 18 41  1  0
 20 42  1  0
 21 43  1  0
 22 44  1  0
 23 45  1  0
 24 46  1  0
 25 47  1  0
M  CHG  1  16  -1
M  END
>  <UniqueID>  (18) 
18

>  <SMILES>  (18) 
CC(=O)NCCNc1cc(Cl)c(S(=O)(=O)[N-]CCc2ccccc2)cc1F

>  <Energy>  (18) 
40.6740463208624

>  <Genealogy>  (18) 
CC(=O)NCCNc1cc(Cl)c(S(=O)(=O)[N-]CCc2ccccc2)cc1F (protonated)
CC(=O)NCCNc1cc(Cl)c(S(=O)(=O)[N-]CCc2ccccc2)cc1F (3D coordinates assigned)
CC(=O)NCCNc1cc(Cl)c(S(=O)(=O)[N-]CCc2ccccc2)cc1F (optimized conformer: 40.6740463208624 kcal/mol)

>  <smiles>  (18) 
CC(=O)NCCNc1cc(Cl)c(S(=O)(=O)NCCc2ccccc2)cc1F

>  <score_type>  (18) 
oracle

>  <origin>  (18) 
adgpu

>  <m_score__min__energy>  (18) 
-9.6799999999999997

>  <m_primary>  (18) 
energy

$$$$
18:0
     RDKit          3D

 43 45  0  0  0  0  0  0  0  0999 V2000
    0.3170   24.6280  -28.1890 O   0  0  0  0  0  0  0  0  0  0  0  0
   -0.6790   25.3720  -27.9850 C   0  0  0  0  0  0  0  0  0  0  0  0
   -1.6540   25.5860  -29.0140 N   0  0  0  0  0  0  0  0  0  0  0  0
   -2.8950   24.8850  -29.1670 C   0  0  0  0  0  0  0  0  0  0  0  0
   -3.4010   23.9530  -27.9150 S   0  0  0  0  0  0  0  0  0  0  0  0
   -3.6620   24.9840  -30.3840 N   0  0  0  0  0  0  0  0  0  0  0  0
   -4.7490   24.1110  -30.7320 C   0  0  0  0  0  0  0  0  0  0  0  0
   -5.9940   24.6270  -31.1290 C   0  0  0  0  0  0  0  0  0  0  0  0
   -7.0500   23.7630  -31.4320 C   0  0  0  0  0  0  0  0  0  0  0  0
   -6.8830   22.3770  -31.3190 C   0  0  0  0  0  0  0  0  0  0  0  0
   -8.2110   21.2960  -31.7340 S   0  0  0  0  0  0  0  0  0  0  0  0
   -9.2730   22.0840  -32.4480 O   0  0  0  0  0  0  0  0  0  0  0  0
   -8.8070   20.7140  -30.4810 O   0  0  0  0  0  0  0  0  0  0  0  0
   -7.6260   20.0200  -32.7710 N   0  0  0  0  0  0  0  0  0  0  0  0
   -6.3740   20.4340  -33.4360 C   0  0  0  0  0  0  0  0  0  0  0  0
   -5.6490   19.2290  -34.0720 C   0  0  0  0  0  0  0  0  0  0  0  0
   -6.5150   18.1170  -34.1850 O   0  0  0  0  0  0  0  0  0  0  0  0
   -6.8710   17.6560  -32.8920 C   0  0  0  0  0  0  0  0  0  0  0  0
   -7.4250   18.7860  -31.9930 C   0  0  0  0  0  0  0  0  0  0  0  0
   -5.6480   21.8610  -30.9000 C   0  0  0  0  0  0  0  0  0  0  0  0
   -4.5920   22.7250  -30.5970 C   0  0  0  0  0  0  0  0  0  0  0  0
   -0.8080   26.0770  -26.7030 C   0  0  0  0  0  0  0  0  0  0  0  0
   -1.2230   25.5180  -25.5000 C   0  0  0  0  0  0  0  0  0  0  0  0
   -1.2450   26.4360  -24.4440 C   0  0  0  0  0  0  0  0  0  0  0  0
   -0.8490   27.7170  -24.8090 C   0  0  0  0  0  0  0  0  0  0  0  0
   -0.4700   27.7050  -26.4480 S   0  0  0  0  0  0  0  0  0  0  0  0
   -3.4390   25.7390  -31.0680 H   0  0  0  0  0  0  0  0  0  0  0  0
   -6.1382   25.7151  -31.2016 H   0  0  0  0  0  0  0  0  0  0  0  0
   -8.0163   24.1733  -31.7606 H   0  0  0  0  0  0  0  0  0  0  0  0
   -8.3610   19.8470  -33.5000 H   0  0  0  0  0  0  0  0  0  0  0  0
   -6.6115   21.1649  -34.2230 H   0  0  0  0  0  0  0  0  0  0  0  0
   -5.7102   20.8773  -32.6791 H   0  0  0  0  0  0  0  0  0  0  0  0
   -5.2937   19.5112  -35.0741 H   0  0  0  0  0  0  0  0  0  0  0  0
   -4.8029   18.9495  -33.4270 H   0  0  0  0  0  0  0  0  0  0  0  0
   -7.6409   16.8771  -32.9946 H   0  0  0  0  0  0  0  0  0  0  0  0
   -5.9610   17.2641  -32.4142 H   0  0  0  0  0  0  0  0  0  0  0  0
   -8.3874   18.4681  -31.5655 H   0  0  0  0  0  0  0  0  0  0  0  0
   -6.6990   18.9879  -31.1917 H   0  0  0  0  0  0  0  0  0  0  0  0
   -5.5101   20.7734  -30.8096 H   0  0  0  0  0  0  0  0  0  0  0  0
   -3.6320   22.3147  -30.2505 H   0  0  0  0  0  0  0  0  0  0  0  0
   -1.5056   24.4607  -25.3892 H   0  0  0  0  0  0  0  0  0  0  0  0
   -1.5475   26.1686  -23.4208 H   0  0  0  0  0  0  0  0  0  0  0  0
   -0.7930   28.5891  -24.1410 H   0  0  0  0  0  0  0  0  0  0  0  0
  1  2  2  0
  2  3  1  0
  3  4  1  0
  4  5  2  0
  4  6  1  0
  6  7  1  0
  7  8  2  0
  8  9  1  0
  9 10  2  0
 10 11  1  0
 11 12  2  0
 11 13  2  0
 11 14  1  0
 14 15  1  0
 15 16  1  0
 16 17  1  0
 17 18  1  0
 18 19  1  0
 10 20  1  0
 20 21  2  0
  2 22  1  0
 22 23  2  0
 23 24  1  0
 24 25  2  0
 25 26  1  0
 21  7  1  0
 26 22  1  0
 19 14  1  0
  6 27  1  0
  8 28  1  0
  9 29  1  0
 14 30  1  0
 15 31  1  0
 15 32  1  0
 16 33  1  0
 16 34  1  0
 18 35  1  0
 18 36  1  0
 19 37  1  0
 19 38  1  0
 20 39  1  0
 21 40  1  0
 23 41  1  0
 24 42  1  0
 25 43  1  0
M  CHG  2   3  -1  14   1
M  END
>  <UniqueID>  (19) 
19

>  <SMILES>  (19) 
O=C([N-]C(=S)Nc1ccc(S(=O)(=O)[NH+]2CCOCC2)cc1)c1cccs1

>  <Energy>  (19) 
85.32919260290173

>  <Genealogy>  (19) 
O=C([N-]C(=S)Nc1ccc(S(=O)(=O)[NH+]2CCOCC2)cc1)c1cccs1 (protonated)
O=C([N-]C(=S)Nc1ccc(S(=O)(=O)[NH+]2CCOCC2)cc1)c1cccs1 (3D coordinates assigned)
O=C([N-]C(=S)Nc1ccc(S(=O)(=O)[NH+]2CCOCC2)cc1)c1cccs1 (nonaromatic ring conformer: 85.32919260290173 kcal/mol)

>  <smiles>  (19) 
O=C(NC(=S)Nc1ccc(S(=O)(=O)N2CCOCC2)cc1)c1cccs1

>  <score_type>  (19) 
oracle

>  <origin>  (19) 
adgpu

>  <m_score__min__energy>  (19) 
-11.08

>  <m_primary>  (19) 
energy

$$$$
19:0
     RDKit          3D

 39 41  0  0  0  0  0  0  0  0999 V2000
   -6.0620   18.6080  -34.3220 C   0  0  0  0  0  0  0  0  0  0  0  0
   -5.8370   19.8320  -33.4960 C   0  0  0  0  0  0  0  0  0  0  0  0
   -6.8700   20.6780  -33.1020 C   0  0  0  0  0  0  0  0  0  0  0  0
   -6.2020   21.8760  -32.1310 S   0  0  0  0  0  0  0  0  0  0  0  0
   -4.6330   21.2770  -32.2610 C   0  0  0  0  0  0  0  0  0  0  0  0
   -3.4450   21.8080  -31.5620 C   0  0  0  0  0  0  0  0  0  0  0  0
   -3.4660   22.7560  -30.5610 C   0  0  0  0  0  0  0  0  0  0  0  0
   -4.6410   23.3490  -29.9940 N   0  0  0  0  0  0  0  0  0  0  0  0
   -5.0230   24.7140  -30.1810 C   0  0  0  0  0  0  0  0  0  0  0  0
   -4.1570   25.6280  -30.8530 N   0  0  0  0  0  0  0  0  0  0  0  0
   -6.1530   25.1010  -29.7840 O   0  0  0  0  0  0  0  0  0  0  0  0
   -2.1360   23.0530  -30.2960 C   0  0  0  0  0  0  0  0  0  0  0  0
   -1.5910   23.9240  -29.2430 C   0  0  0  0  0  0  0  0  0  0  0  0
   -1.8820   25.3180  -29.2620 N   0  0  0  0  0  0  0  0  0  0  0  0
   -0.8420   23.4560  -28.3450 O   0  0  0  0  0  0  0  0  0  0  0  0
   -1.3590   22.3130  -31.1120 N   0  0  0  0  0  0  0  0  0  0  0  0
   -2.1480   21.5650  -31.8730 N   0  0  0  0  0  0  0  0  0  0  0  0
   -1.6270   20.5910  -32.7900 C   0  0  0  0  0  0  0  0  0  0  0  0
   -0.9670   21.0090  -33.9540 C   0  0  0  0  0  0  0  0  0  0  0  0
   -0.4310   20.0670  -34.8380 C   0  0  0  0  0  0  0  0  0  0  0  0
   -0.5410   18.6970  -34.5610 C   0  0  0  0  0  0  0  0  0  0  0  0
    0.1430   17.5120  -35.6690 S   0  0  0  0  0  0  0  0  0  0  0  0
   -0.9730   16.2100  -35.8750 N   0  0  0  0  0  0  0  0  0  0  0  0
    1.4370   16.9840  -35.1140 O   0  0  0  0  0  0  0  0  0  0  0  0
    0.4150   18.1580  -36.9980 O   0  0  0  0  0  0  0  0  0  0  0  0
   -1.1720   18.2780  -33.3820 C   0  0  0  0  0  0  0  0  0  0  0  0
   -1.7070   19.2200  -32.4980 C   0  0  0  0  0  0  0  0  0  0  0  0
   -4.6070   20.1550  -33.0120 N   0  0  0  0  0  0  0  0  0  0  0  0
   -6.2209   17.7435  -33.6607 H   0  0  0  0  0  0  0  0  0  0  0  0
   -6.9487   18.7519  -34.9568 H   0  0  0  0  0  0  0  0  0  0  0  0
   -5.1820   18.4272  -34.9568 H   0  0  0  0  0  0  0  0  0  0  0  0
   -7.9307   20.5801  -33.3764 H   0  0  0  0  0  0  0  0  0  0  0  0
   -3.1640   25.3750  -31.0530 H   0  0  0  0  0  0  0  0  0  0  0  0
   -2.8670   25.6600  -29.3240 H   0  0  0  0  0  0  0  0  0  0  0  0
   -0.8702   22.0826  -34.1731 H   0  0  0  0  0  0  0  0  0  0  0  0
    0.0785   20.4021  -35.7535 H   0  0  0  0  0  0  0  0  0  0  0  0
   -1.8360   16.6130  -36.3010 H   0  0  0  0  0  0  0  0  0  0  0  0
   -1.2466   17.2050  -33.1513 H   0  0  0  0  0  0  0  0  0  0  0  0
   -2.1928   18.8854  -31.5695 H   0  0  0  0  0  0  0  0  0  0  0  0
  1  2  1  0
  2  3  2  0
  3  4  1  0
  4  5  1  0
  5  6  1  0
  6  7  2  0
  7  8  1  0
  8  9  1  0
  9 10  1  0
  9 11  2  0
  7 12  1  0
 12 13  1  0
 13 14  1  0
 13 15  2  0
 12 16  2  0
 16 17  1  0
 17 18  1  0
 18 19  2  0
 19 20  1  0
 20 21  2  0
 21 22  1  0
 22 23  1  0
 22 24  2  0
 22 25  2  0
 21 26  1  0
 26 27  2  0
  5 28  2  0
 28  2  1  0
 17  6  1  0
 27 18  1  0
  1 29  1  0
  1 30  1  0
  1 31  1  0
  3 32  1  0
 10 33  1  0
 14 34  1  0
 19 35  1  0
 20 36  1  0
 23 37  1  0
 26 38  1  0
 27 39  1  0
M  CHG  4   8  -1  10  -1  14  -1  23  -1
M  END
>  <UniqueID>  (20) 
20

>  <SMILES>  (20) 
Cc1csc(-c2c([N-]C([NH-])=O)c(C([NH-])=O)nn2-c2ccc(S([NH-])(=O)=O)cc2)n1

>  <Energy>  (20) 
113.07034107564367

>  <Genealogy>  (20) 
Cc1csc(-c2c([N-]C([NH-])=O)c(C([NH-])=O)nn2-c2ccc(S([NH-])(=O)=O)cc2)n1 (protonated)
Cc1csc(-c2c([N-]C([NH-])=O)c(C([NH-])=O)nn2-c2ccc(S([NH-])(=O)=O)cc2)n1 (3D coordinates assigned)
Cc1csc(-c2c([N-]C([NH-])=O)c(C([NH-])=O)nn2-c2ccc(S([NH-])(=O)=O)cc2)n1 (optimized conformer: 113.07034107564367 kcal/mol)

>  <smiles>  (20) 
Cc1csc(-c2c(NC(N)=O)c(C(N)=O)nn2-c2ccc(S(N)(=O)=O)cc2)n1

>  <score_type>  (20) 
oracle

>  <origin>  (20) 
adgpu

>  <m_score__min__energy>  (20) 
-12.220000000000001

>  <m_primary>  (20) 
energy

$$$$
20:0
     RDKit          3D

 49 51  0  0  0  0  0  0  0  0999 V2000
    0.6380   19.5740  -36.6640 C   0  0  0  0  0  0  0  0  0  0  0  0
    0.1350   19.6030  -35.2250 C   0  0  0  0  0  0  0  0  0  0  0  0
    0.6070   20.8150  -34.5320 N   0  0  0  0  0  0  0  0  0  0  0  0
    0.5300   20.8470  -33.0610 C   0  0  0  0  0  0  0  0  0  0  0  0
   -0.8490   21.2530  -32.6140 C   0  0  0  0  0  0  0  0  0  0  0  0
   -1.9230   21.2510  -33.5210 C   0  0  0  0  0  0  0  0  0  0  0  0
   -3.2040   21.6170  -33.0980 C   0  0  0  0  0  0  0  0  0  0  0  0
   -3.4300   21.9960  -31.7630 C   0  0  0  0  0  0  0  0  0  0  0  0
   -4.7890   22.3750  -31.3150 C   0  0  0  0  0  0  0  0  0  0  0  0
   -5.8630   21.5450  -31.6850 C   0  0  0  0  0  0  0  0  0  0  0  0
   -7.1540   21.8060  -31.2270 C   0  0  0  0  0  0  0  0  0  0  0  0
   -7.3920   22.8920  -30.3880 C   0  0  0  0  0  0  0  0  0  0  0  0
   -6.3420   23.7340  -30.0170 C   0  0  0  0  0  0  0  0  0  0  0  0
   -5.0350   23.5030  -30.4860 C   0  0  0  0  0  0  0  0  0  0  0  0
   -3.9750   24.4840  -30.1440 C   0  0  0  0  0  0  0  0  0  0  0  0
   -3.1960   24.2640  -29.1780 O   0  0  0  0  0  0  0  0  0  0  0  0
   -3.8500   25.6740  -30.8480 O   0  0  0  0  0  0  0  0  0  0  0  0
   -2.3610   21.9750  -30.8510 C   0  0  0  0  0  0  0  0  0  0  0  0
   -1.0810   21.6080  -31.2750 C   0  0  0  0  0  0  0  0  0  0  0  0
    1.1550   21.9550  -35.2510 C   0  0  0  0  0  0  0  0  0  0  0  0
    2.4980   22.0070  -35.6650 C   0  0  0  0  0  0  0  0  0  0  0  0
    2.9600   23.1480  -36.3300 C   0  0  0  0  0  0  0  0  0  0  0  0
    4.3890   23.2470  -36.7630 C   0  0  0  0  0  0  0  0  0  0  0  0
    2.1100   24.1800  -36.5690 N   0  0  0  0  0  0  0  0  0  0  0  0
    0.8160   24.1240  -36.1710 C   0  0  0  0  0  0  0  0  0  0  0  0
   -0.1080   25.2560  -36.4720 C   0  0  0  0  0  0  0  0  0  0  0  0
    0.3530   23.0210  -35.5240 N   0  0  0  0  0  0  0  0  0  0  0  0
    1.7362   19.5107  -36.6674 H   0  0  0  0  0  0  0  0  0  0  0  0
    0.2187   18.6985  -37.1814 H   0  0  0  0  0  0  0  0  0  0  0  0
    0.3221   20.4919  -37.1814 H   0  0  0  0  0  0  0  0  0  0  0  0
   -0.9650   19.5934  -35.2268 H   0  0  0  0  0  0  0  0  0  0  0  0
    0.5237   18.7199  -34.6968 H   0  0  0  0  0  0  0  0  0  0  0  0
    0.7592   19.8468  -32.6647 H   0  0  0  0  0  0  0  0  0  0  0  0
    1.2571   21.5806  -32.6825 H   0  0  0  0  0  0  0  0  0  0  0  0
   -1.7546   20.9601  -34.5684 H   0  0  0  0  0  0  0  0  0  0  0  0
   -4.0396   21.6085  -33.8133 H   0  0  0  0  0  0  0  0  0  0  0  0
   -5.6826   20.6815  -32.3421 H   0  0  0  0  0  0  0  0  0  0  0  0
   -7.9861   21.1529  -31.5289 H   0  0  0  0  0  0  0  0  0  0  0  0
   -8.4091   23.0866  -30.0170 H   0  0  0  0  0  0  0  0  0  0  0  0
   -6.5382   24.5872  -29.3510 H   0  0  0  0  0  0  0  0  0  0  0  0
   -2.5325   22.2485  -29.7994 H   0  0  0  0  0  0  0  0  0  0  0  0
   -0.2494   21.5971  -30.5551 H   0  0  0  0  0  0  0  0  0  0  0  0
    3.1754   21.1628  -35.4688 H   0  0  0  0  0  0  0  0  0  0  0  0
    5.0385   23.2920  -35.8764 H   0  0  0  0  0  0  0  0  0  0  0  0
    4.6515   22.3649  -37.3655 H   0  0  0  0  0  0  0  0  0  0  0  0
    4.5274   24.1569  -37.3655 H   0  0  0  0  0  0  0  0  0  0  0  0
   -0.4674   25.6963  -35.5302 H   0  0  0  0  0  0  0  0  0  0  0  0
    0.4268   26.0211  -37.0539 H   0  0  0  0  0  0  0  0  0  0  0  0
   -0.9647   24.8852  -37.0539 H   0  0  0  0  0  0  0  0  0  0  0  0
  1  2  1  0
  2  3  1  0
  3  4  1  0
  4  5  1  0
  5  6  2  0
  6  7  1  0
  7  8  2  0
  8  9  1  0
  9 10  2  0
 10 11  1  0
 11 12  2  0
 12 13  1  0
 13 14  2  0
 14 15  1  0
 15 16  2  0
 15 17  1  0
  8 18  1  0
 18 19  2  0
  3 20  1  0
 20 21  2  0
 21 22  1  0
 22 23  1  0
 22 24  2  0
 24 25  1  0
 25 26  1  0
 25 27  2  0
 19  5  1  0
 27 20  1  0
 14  9  1  0
  1 28  1  0
  1 29  1  0
  1 30  1  0
  2 31  1  0
  2 32  1  0
  4 33  1  0
  4 34  1  0
  6 35  1  0
  7 36  1  0
 10 37  1  0
 11 38  1  0
 12 39  1  0
 13 40  1  0
 18 41  1  0
 19 42  1  0
 21 43  1  0
 23 44  1  0
 23 45  1  0
 23 46  1  0
 26 47  1  0
 26 48  1  0
 26 49  1  0
M  CHG  1  17  -1
M  END
>  <UniqueID>  (21) 
21

>  <SMILES>  (21) 
CCN(Cc1ccc(-c2ccccc2C(=O)[O-])cc1)c1cc(C)nc(C)n1

>  <Energy>  (21) 
57.77594862449976

>  <Genealogy>  (21) 
CCN(Cc1ccc(-c2ccccc2C(=O)[O-])cc1)c1cc(C)nc(C)n1 (protonated)
CCN(Cc1ccc(-c2ccccc2C(=O)[O-])cc1)c1cc(C)nc(C)n1 (3D coordinates assigned)
CCN(Cc1ccc(-c2ccccc2C(=O)[O-])cc1)c1cc(C)nc(C)n1 (optimized conformer: 57.77594862449976 kcal/mol)

>  <smiles>  (21) 
CCN(Cc1ccc(-c2ccccc2C(=O)O)cc1)c1cc(C)nc(C)n1

>  <score_type>  (21) 
oracle

>  <origin>  (21) 
adgpu

>  <m_score__min__energy>  (21) 
-11.07

>  <m_primary>  (21) 
energy

$$$$
21:0
     RDKit          3D

 42 45  0  0  0  0  0  0  0  0999 V2000
   -2.9100   24.7980  -27.5030 O   0  0  0  0  0  0  0  0  0  0  0  0
   -2.3350   24.6630  -28.8860 S   0  0  0  0  0  0  0  0  0  0  0  0
   -1.0920   25.5010  -28.9750 O   0  0  0  0  0  0  0  0  0  0  0  0
   -3.4910   25.2270  -30.0470 N   0  0  0  0  0  0  0  0  0  0  0  0
   -4.5950   24.4650  -30.5530 C   0  0  0  0  0  0  0  0  0  0  0  0
   -5.9280   24.8850  -30.3960 C   0  0  0  0  0  0  0  0  0  0  0  0
   -6.9750   24.1190  -30.9180 C   0  0  0  0  0  0  0  0  0  0  0  0
   -6.7040   22.9180  -31.5940 C   0  0  0  0  0  0  0  0  0  0  0  0
   -7.7260   22.1360  -32.1520 O   0  0  0  0  0  0  0  0  0  0  0  0
   -7.7260   20.7380  -32.2300 C   0  0  0  0  0  0  0  0  0  0  0  0
   -6.8060   20.0390  -33.0330 C   0  0  0  0  0  0  0  0  0  0  0  0
   -6.8540   18.6440  -33.1020 C   0  0  0  0  0  0  0  0  0  0  0  0
   -7.8250   17.9390  -32.3830 C   0  0  0  0  0  0  0  0  0  0  0  0
   -8.7480   18.6290  -31.5960 C   0  0  0  0  0  0  0  0  0  0  0  0
   -8.7030   20.0230  -31.5250 C   0  0  0  0  0  0  0  0  0  0  0  0
   -5.3770   22.5090  -31.7580 C   0  0  0  0  0  0  0  0  0  0  0  0
   -4.3300   23.2750  -31.2370 C   0  0  0  0  0  0  0  0  0  0  0  0
   -1.9170   22.9900  -29.2420 C   0  0  0  0  0  0  0  0  0  0  0  0
   -2.1970   21.9690  -28.3240 C   0  0  0  0  0  0  0  0  0  0  0  0
   -1.8640   20.6470  -28.6280 C   0  0  0  0  0  0  0  0  0  0  0  0
   -1.2540   20.3370  -29.8450 C   0  0  0  0  0  0  0  0  0  0  0  0
   -0.9740   21.3490  -30.7800 C   0  0  0  0  0  0  0  0  0  0  0  0
   -0.3330   21.0210  -32.0270 N   0  0  0  0  0  0  0  0  0  0  0  0
    0.6710   20.1560  -32.2580 C   0  0  0  0  0  0  0  0  0  0  0  0
    0.9740   20.1490  -33.5700 N   0  0  0  0  0  0  0  0  0  0  0  0
    0.1400   21.0170  -34.1260 N   0  0  0  0  0  0  0  0  0  0  0  0
   -0.6400   21.5470  -33.2000 N   0  0  0  0  0  0  0  0  0  0  0  0
   -1.3100   22.6790  -30.4640 C   0  0  0  0  0  0  0  0  0  0  0  0
   -6.1480   25.8202  -29.8602 H   0  0  0  0  0  0  0  0  0  0  0  0
   -8.0146   24.4582  -30.7988 H   0  0  0  0  0  0  0  0  0  0  0  0
   -6.0478   20.5914  -33.6074 H   0  0  0  0  0  0  0  0  0  0  0  0
   -6.1271   18.0995  -33.7226 H   0  0  0  0  0  0  0  0  0  0  0  0
   -7.8610   16.8410  -32.4380 H   0  0  0  0  0  0  0  0  0  0  0  0
   -9.5117   18.0744  -31.0311 H   0  0  0  0  0  0  0  0  0  0  0  0
   -9.4393   20.5630  -30.9117 H   0  0  0  0  0  0  0  0  0  0  0  0
   -5.1554   21.5782  -32.3007 H   0  0  0  0  0  0  0  0  0  0  0  0
   -3.2906   22.9390  -31.3662 H   0  0  0  0  0  0  0  0  0  0  0  0
   -2.6788   22.2085  -27.3645 H   0  0  0  0  0  0  0  0  0  0  0  0
   -2.0832   19.8469  -27.9057 H   0  0  0  0  0  0  0  0  0  0  0  0
   -0.9906   19.2938  -30.0739 H   0  0  0  0  0  0  0  0  0  0  0  0
    1.1696   19.5460  -31.4904 H   0  0  0  0  0  0  0  0  0  0  0  0
   -1.0934   23.4815  -31.1845 H   0  0  0  0  0  0  0  0  0  0  0  0
  1  2  2  0
  2  3  2  0
  2  4  1  0
  4  5  1  0
  5  6  2  0
  6  7  1  0
  7  8  2  0
  8  9  1  0
  9 10  1  0
 10 11  2  0
 11 12  1  0
 12 13  2  0
 13 14  1  0
 14 15  2  0
  8 16  1  0
 16 17  2  0
  2 18  1  0
 18 19  2  0
 19 20  1  0
 20 21  2  0
 21 22  1  0
 22 23  1  0
 23 24  1  0
 24 25  2  0
 25 26  1  0
 26 27  2  0
 22 28  2  0
 17  5  1  0
 28 18  1  0
 15 10  1  0
 27 23  1  0
  6 29  1  0
  7 30  1  0
 11 31  1  0
 12 32  1  0
 13 33  1  0
 14 34  1  0
 15 35  1  0
 16 36  1  0
 17 37  1  0
 19 38  1  0
 20 39  1  0
 21 40  1  0
 24 41  1  0
 28 42  1  0
M  CHG  1   4  -1
M  END
>  <UniqueID>  (22) 
22

>  <SMILES>  (22) 
O=S(=O)([N-]c1ccc(Oc2ccccc2)cc1)c1cccc(-n2cnnn2)c1

>  <Energy>  (22) 
98.24970534443428

>  <Genealogy>  (22) 
O=S(=O)([N-]c1ccc(Oc2ccccc2)cc1)c1cccc(-n2cnnn2)c1 (protonated)
O=S(=O)([N-]c1ccc(Oc2ccccc2)cc1)c1cccc(-n2cnnn2)c1 (3D coordinates assigned)
O=S(=O)([N-]c1ccc(Oc2ccccc2)cc1)c1cccc(-n2cnnn2)c1 (optimized conformer: 98.24970534443428 kcal/mol)

>  <smiles>  (22) 
O=S(=O)(Nc1ccc(Oc2ccccc2)cc1)c1cccc(-n2cnnn2)c1

>  <score_type>  (22) 
oracle

>  <origin>  (22) 
adgpu

>  <m_score__min__energy>  (22) 
-11.630000000000001

>  <m_primary>  (22) 
energy

$$$$
22:0
     RDKit          3D

 45 48  0  0  0  0  0  0  0  0999 V2000
   -1.0390   22.9480  -29.7500 C   0  0  0  0  0  0  0  0  0  0  0  0
   -2.4500   23.1210  -30.1170 N   0  0  0  0  0  0  0  0  0  0  0  0
   -3.0880   22.1310  -30.8330 C   0  0  0  0  0  0  0  0  0  0  0  0
   -4.4380   22.2640  -31.2240 C   0  0  0  0  0  0  0  0  0  0  0  0
   -5.1190   21.1980  -31.9940 C   0  0  0  0  0  0  0  0  0  0  0  0
   -6.4080   20.7860  -31.6180 C   0  0  0  0  0  0  0  0  0  0  0  0
   -7.0710   19.7810  -32.3330 C   0  0  0  0  0  0  0  0  0  0  0  0
   -8.6870   19.2780  -31.8470 S   0  0  0  0  0  0  0  0  0  0  0  0
   -9.8080   19.6100  -33.1210 N   0  0  0  0  0  0  0  0  0  0  0  0
   -9.1100   20.0310  -30.6170 O   0  0  0  0  0  0  0  0  0  0  0  0
   -8.6830   17.8040  -31.5530 O   0  0  0  0  0  0  0  0  0  0  0  0
   -6.4540   19.2020  -33.4470 C   0  0  0  0  0  0  0  0  0  0  0  0
   -5.1750   19.6070  -33.8320 C   0  0  0  0  0  0  0  0  0  0  0  0
   -4.4890   20.5910  -33.0990 C   0  0  0  0  0  0  0  0  0  0  0  0
   -3.1990   21.0060  -33.4710 O   0  0  0  0  0  0  0  0  0  0  0  0
   -2.0080   20.3340  -33.1640 C   0  0  0  0  0  0  0  0  0  0  0  0
   -1.9880   19.1930  -32.3410 C   0  0  0  0  0  0  0  0  0  0  0  0
   -0.7770   18.5600  -32.0440 C   0  0  0  0  0  0  0  0  0  0  0  0
    0.4220   19.0670  -32.5540 C   0  0  0  0  0  0  0  0  0  0  0  0
    1.5950   18.4540  -32.2630 F   0  0  0  0  0  0  0  0  0  0  0  0
    0.4110   20.2110  -33.3550 C   0  0  0  0  0  0  0  0  0  0  0  0
   -0.7990   20.8470  -33.6550 C   0  0  0  0  0  0  0  0  0  0  0  0
   -0.7990   21.9590  -34.4310 F   0  0  0  0  0  0  0  0  0  0  0  0
   -5.0850   23.4490  -30.8620 C   0  0  0  0  0  0  0  0  0  0  0  0
   -6.3840   23.8790  -31.0580 C   0  0  0  0  0  0  0  0  0  0  0  0
   -6.4500   25.1330  -30.4620 C   0  0  0  0  0  0  0  0  0  0  0  0
   -5.2600   25.4660  -29.9180 N   0  0  0  0  0  0  0  0  0  0  0  0
   -4.4400   24.4290  -30.1650 C   0  0  0  0  0  0  0  0  0  0  0  0
   -3.1080   24.2830  -29.7850 C   0  0  0  0  0  0  0  0  0  0  0  0
   -2.5260   25.2050  -29.1480 O   0  0  0  0  0  0  0  0  0  0  0  0
   -0.9439   22.9363  -28.6542 H   0  0  0  0  0  0  0  0  0  0  0  0
   -0.6673   21.9976  -30.1604 H   0  0  0  0  0  0  0  0  0  0  0  0
   -0.4487   23.7805  -30.1604 H   0  0  0  0  0  0  0  0  0  0  0  0
   -2.5348   21.2200  -31.1049 H   0  0  0  0  0  0  0  0  0  0  0  0
   -6.9009   21.2568  -30.7546 H   0  0  0  0  0  0  0  0  0  0  0  0
  -10.2200   20.5510  -32.9290 H   0  0  0  0  0  0  0  0  0  0  0  0
   -9.2530   19.6970  -34.0020 H   0  0  0  0  0  0  0  0  0  0  0  0
   -6.9788   18.4246  -34.0217 H   0  0  0  0  0  0  0  0  0  0  0  0
   -4.7007   19.1533  -34.7147 H   0  0  0  0  0  0  0  0  0  0  0  0
   -2.9284   18.7974  -31.9297 H   0  0  0  0  0  0  0  0  0  0  0  0
   -0.7677   17.6622  -31.4084 H   0  0  0  0  0  0  0  0  0  0  0  0
    1.3553   20.6130  -33.7509 H   0  0  0  0  0  0  0  0  0  0  0  0
   -7.1932   23.3429  -31.5755 H   0  0  0  0  0  0  0  0  0  0  0  0
   -7.3485   25.7671  -30.4370 H   0  0  0  0  0  0  0  0  0  0  0  0
   -5.0320   26.3450  -29.4020 H   0  0  0  0  0  0  0  0  0  0  0  0
  1  2  1  0
  2  3  1  0
  3  4  2  0
  4  5  1  0
  5  6  2  0
  6  7  1  0
  7  8  1  0
  8  9  1  0
  8 10  2  0
  8 11  2  0
  7 12  2  0
 12 13  1  0
 13 14  2  0
 14 15  1  0
 15 16  1  0
 16 17  2  0
 17 18  1  0
 18 19  2  0
 19 20  1  0
 19 21  1  0
 21 22  2  0
 22 23  1  0
  4 24  1  0
 24 25  1  0
 25 26  2  0
 26 27  1  0
 27 28  1  0
 28 29  1  0
 29 30  2  0
 29  2  1  0
 14  5  1  0
 22 16  1  0
 28 24  2  0
  1 31  1  0
  1 32  1  0
  1 33  1  0
  3 34  1  0
  6 35  1  0
  9 36  1  0
  9 37  1  0
 12 38  1  0
 13 39  1  0
 17 40  1  0
 18 41  1  0
 21 42  1  0
 25 43  1  0
 26 44  1  0
 27 45  1  0
M  END
>  <UniqueID>  (23) 
23

>  <SMILES>  (23) 
Cn1cc(-c2cc(S(N)(=O)=O)ccc2Oc2ccc(F)cc2F)c2cc[nH]c2c1=O

>  <Energy>  (23) 
95.845241065094

>  <Genealogy>  (23) 
Cn1cc(-c2cc(S(N)(=O)=O)ccc2Oc2ccc(F)cc2F)c2cc[nH]c2c1=O (3D coordinates assigned)
Cn1cc(-c2cc(S(N)(=O)=O)ccc2Oc2ccc(F)cc2F)c2cc[nH]c2c1=O (optimized conformer: 95.845241065094 kcal/mol)

>  <smiles>  (23) 
Cn1cc(-c2cc(S(N)(=O)=O)ccc2Oc2ccc(F)cc2F)c2cc[nH]c2c1=O

>  <score_type>  (23) 
oracle

>  <origin>  (23) 
adgpu

>  <m_score__min__energy>  (23) 
-9.1899999999999995

>  <m_primary>  (23) 
energy

$$$$
23:0
     RDKit          3D

 57 60  0  0  0  0  0  0  0  0999 V2000
   -1.1010   21.5140  -29.3430 O   0  0  0  0  0  0  0  0  0  0  0  0
   -1.6060   22.6540  -29.5330 C   0  0  0  0  0  0  0  0  0  0  0  0
   -2.4670   22.8890  -30.6630 N   0  0  0  0  0  0  0  0  0  0  0  0
   -2.8200   21.8860  -31.6300 C   0  0  0  0  0  0  0  0  0  0  0  0
   -1.8590   21.3230  -32.4890 C   0  0  0  0  0  0  0  0  0  0  0  0
   -2.2270   20.3310  -33.4030 C   0  0  0  0  0  0  0  0  0  0  0  0
   -3.5470   19.8820  -33.4570 C   0  0  0  0  0  0  0  0  0  0  0  0
   -4.5080   20.4090  -32.5840 C   0  0  0  0  0  0  0  0  0  0  0  0
   -6.1790   19.8340  -32.6440 S   0  0  0  0  0  0  0  0  0  0  0  0
   -6.2370   18.4420  -32.0770 O   0  0  0  0  0  0  0  0  0  0  0  0
   -6.6230   19.7690  -34.0790 O   0  0  0  0  0  0  0  0  0  0  0  0
   -7.2820   20.8560  -31.7550 N   0  0  0  0  0  0  0  0  0  0  0  0
   -8.6700   20.4240  -31.8980 C   0  0  0  0  0  0  0  0  0  0  0  0
   -9.5290   21.6530  -31.6510 C   0  0  0  0  0  0  0  0  0  0  0  0
   -8.6050   22.8410  -31.8790 C   0  0  0  0  0  0  0  0  0  0  0  0
   -7.2520   22.2380  -32.2260 C   0  0  0  0  0  0  0  0  0  0  0  0
   -4.1390   21.4100  -31.6740 C   0  0  0  0  0  0  0  0  0  0  0  0
   -1.3030   23.7380  -28.5760 C   0  0  0  0  0  0  0  0  0  0  0  0
   -0.3660   23.5090  -27.5550 C   0  0  0  0  0  0  0  0  0  0  0  0
   -0.0650   24.5120  -26.6240 C   0  0  0  0  0  0  0  0  0  0  0  0
    1.1200   24.2030  -25.3570 S   0  0  0  0  0  0  0  0  0  0  0  0
    0.7290   22.9750  -24.5810 O   0  0  0  0  0  0  0  0  0  0  0  0
    2.4590   23.9590  -25.9960 O   0  0  0  0  0  0  0  0  0  0  0  0
    1.2200   25.5830  -24.2930 N   0  0  0  0  0  0  0  0  0  0  0  0
    1.8090   26.7290  -25.0090 C   0  0  0  0  0  0  0  0  0  0  0  0
    1.6390   28.0300  -24.1990 C   0  0  0  0  0  0  0  0  0  0  0  0
    1.2470   27.7530  -22.8700 O   0  0  0  0  0  0  0  0  0  0  0  0
   -0.0400   27.1580  -22.8660 C   0  0  0  0  0  0  0  0  0  0  0  0
   -0.1200   25.9270  -23.7950 C   0  0  0  0  0  0  0  0  0  0  0  0
   -0.6870   25.7620  -26.7260 C   0  0  0  0  0  0  0  0  0  0  0  0
   -1.6040   26.0070  -27.7500 C   0  0  0  0  0  0  0  0  0  0  0  0
   -1.9090   25.0070  -28.6800 C   0  0  0  0  0  0  0  0  0  0  0  0
   -2.7880   25.2990  -29.7180 O   0  0  0  0  0  0  0  0  0  0  0  0
   -2.8190   23.8570  -30.8310 H   0  0  0  0  0  0  0  0  0  0  0  0
   -0.8144   21.6643  -32.4415 H   0  0  0  0  0  0  0  0  0  0  0  0
   -1.4739   19.9034  -34.0813 H   0  0  0  0  0  0  0  0  0  0  0  0
   -3.8343   19.1115  -34.1876 H   0  0  0  0  0  0  0  0  0  0  0  0
   -8.8449   20.0350  -32.9120 H   0  0  0  0  0  0  0  0  0  0  0  0
   -8.9123   19.6188  -31.1888 H   0  0  0  0  0  0  0  0  0  0  0  0
  -10.3734   21.6808  -32.3554 H   0  0  0  0  0  0  0  0  0  0  0  0
   -9.9590   21.6562  -30.6385 H   0  0  0  0  0  0  0  0  0  0  0  0
   -8.9739   23.4622  -32.7085 H   0  0  0  0  0  0  0  0  0  0  0  0
   -8.5486   23.4918  -30.9940 H   0  0  0  0  0  0  0  0  0  0  0  0
   -7.0912   22.2655  -33.3138 H   0  0  0  0  0  0  0  0  0  0  0  0
   -6.4326   22.8013  -31.7557 H   0  0  0  0  0  0  0  0  0  0  0  0
   -4.8912   21.8262  -30.9878 H   0  0  0  0  0  0  0  0  0  0  0  0
    0.1363   22.5329  -27.4856 H   0  0  0  0  0  0  0  0  0  0  0  0
    2.8811   26.5416  -25.1686 H   0  0  0  0  0  0  0  0  0  0  0  0
    1.2917   26.8449  -25.9728 H   0  0  0  0  0  0  0  0  0  0  0  0
    2.5956   28.5729  -24.1859 H   0  0  0  0  0  0  0  0  0  0  0  0
    0.8562   28.6387  -24.6750 H   0  0  0  0  0  0  0  0  0  0  0  0
   -0.2808   26.8430  -21.8399 H   0  0  0  0  0  0  0  0  0  0  0  0
   -0.7573   27.9055  -23.2358 H   0  0  0  0  0  0  0  0  0  0  0  0
   -0.5301   25.0740  -23.2344 H   0  0  0  0  0  0  0  0  0  0  0  0
   -0.7726   26.1617  -24.6489 H   0  0  0  0  0  0  0  0  0  0  0  0
   -0.4529   26.5527  -25.9980 H   0  0  0  0  0  0  0  0  0  0  0  0
   -2.0892   26.9913  -27.8260 H   0  0  0  0  0  0  0  0  0  0  0  0
  1  2  2  0
  2  3  1  0
  3  4  1  0
  4  5  2  0
  5  6  1  0
  6  7  2  0
  7  8  1  0
  8  9  1  0
  9 10  2  0
  9 11  2  0
  9 12  1  0
 12 13  1  0
 13 14  1  0
 14 15  1  0
 15 16  1  0
  8 17  2  0
  2 18  1  0
 18 19  2  0
 19 20  1  0
 20 21  1  0
 21 22  2  0
 21 23  2  0
 21 24  1  0
 24 25  1  0
 25 26  1  0
 26 27  1  0
 27 28  1  0
 28 29  1  0
 20 30  2  0
 30 31  1  0
 31 32  2  0
 32 33  1  0
 17  4  1  0
 32 18  1  0
 16 12  1  0
 29 24  1  0
  3 34  1  0
  5 35  1  0
  6 36  1  0
  7 37  1  0
 13 38  1  0
 13 39  1  0
 14 40  1  0
 14 41  1  0
 15 42  1  0
 15 43  1  0
 16 44  1  0
 16 45  1  0
 17 46  1  0
 19 47  1  0
 25 48  1  0
 25 49  1  0
 26 50  1  0
 26 51  1  0
 28 52  1  0
 28 53  1  0
 29 54  1  0
 29 55  1  0
 30 56  1  0
 31 57  1  0
M  CHG  1  33  -1
M  END
>  <UniqueID>  (24) 
24

>  <SMILES>  (24) 
O=C(Nc1cccc(S(=O)(=O)N2CCCC2)c1)c1cc(S(=O)(=O)N2CCOCC2)ccc1[O-]

>  <Energy>  (24) 
76.18849532027853

>  <Genealogy>  (24) 
O=C(Nc1cccc(S(=O)(=O)N2CCCC2)c1)c1cc(S(=O)(=O)N2CCOCC2)ccc1[O-] (protonated)
O=C(Nc1cccc(S(=O)(=O)N2CCCC2)c1)c1cc(S(=O)(=O)N2CCOCC2)ccc1[O-] (3D coordinates assigned)
O=C(Nc1cccc(S(=O)(=O)N2CCCC2)c1)c1cc(S(=O)(=O)N2CCOCC2)ccc1[O-] (nonaromatic ring conformer: 76.18849532027853 kcal/mol)

>  <smiles>  (24) 
O=C(Nc1cccc(S(=O)(=O)N2CCCC2)c1)c1cc(S(=O)(=O)N2CCOCC2)ccc1O

>  <score_type>  (24) 
oracle

>  <origin>  (24) 
adgpu

>  <m_score__min__energy>  (24) 
-13.710000000000001

>  <m_primary>  (24) 
energy

$$$$
24:0
     RDKit          3D

 37 39  0  0  0  0  0  0  0  0999 V2000
   -9.0400   19.8130  -32.3490 C   0  0  0  0  0  0  0  0  0  0  0  0
   -7.6470   20.3390  -32.2600 C   0  0  0  0  0  0  0  0  0  0  0  0
   -7.2160   21.3390  -31.4120 C   0  0  0  0  0  0  0  0  0  0  0  0
   -5.8590   21.4330  -31.6580 C   0  0  0  0  0  0  0  0  0  0  0  0
   -4.9610   22.4490  -31.0650 C   0  0  0  0  0  0  0  0  0  0  0  0
   -3.7500   22.0570  -30.4740 C   0  0  0  0  0  0  0  0  0  0  0  0
   -2.9000   23.0110  -29.9070 C   0  0  0  0  0  0  0  0  0  0  0  0
   -3.2550   24.3630  -29.9130 C   0  0  0  0  0  0  0  0  0  0  0  0
   -2.3980   25.3000  -29.3480 O   0  0  0  0  0  0  0  0  0  0  0  0
   -4.4750   24.7640  -30.4850 C   0  0  0  0  0  0  0  0  0  0  0  0
   -4.8590   26.1050  -30.4980 O   0  0  0  0  0  0  0  0  0  0  0  0
   -5.3240   23.8070  -31.0520 C   0  0  0  0  0  0  0  0  0  0  0  0
   -5.5230   20.5040  -32.5870 N   0  0  0  0  0  0  0  0  0  0  0  0
   -4.2130   20.1760  -33.0800 C   0  0  0  0  0  0  0  0  0  0  0  0
   -3.2980   21.1850  -33.4230 C   0  0  0  0  0  0  0  0  0  0  0  0
   -2.0250   20.8530  -33.8930 C   0  0  0  0  0  0  0  0  0  0  0  0
   -1.6430   19.5100  -34.0080 C   0  0  0  0  0  0  0  0  0  0  0  0
   -0.0440   19.0950  -34.6180 S   0  0  0  0  0  0  0  0  0  0  0  0
    0.3240   20.0830  -35.9870 N   0  0  0  0  0  0  0  0  0  0  0  0
   -0.0120   17.6480  -35.0240 O   0  0  0  0  0  0  0  0  0  0  0  0
    0.9850   19.3180  -33.5460 O   0  0  0  0  0  0  0  0  0  0  0  0
   -2.5460   18.5010  -33.6500 C   0  0  0  0  0  0  0  0  0  0  0  0
   -3.8210   18.8320  -33.1800 C   0  0  0  0  0  0  0  0  0  0  0  0
   -6.6080   19.8370  -32.9520 N   0  0  0  0  0  0  0  0  0  0  0  0
   -9.4403   19.6618  -31.3356 H   0  0  0  0  0  0  0  0  0  0  0  0
   -9.6707   20.5349  -32.8885 H   0  0  0  0  0  0  0  0  0  0  0  0
   -9.0362   18.8544  -32.8885 H   0  0  0  0  0  0  0  0  0  0  0  0
   -7.8158   21.9273  -30.7020 H   0  0  0  0  0  0  0  0  0  0  0  0
   -3.4683   20.9938  -30.4568 H   0  0  0  0  0  0  0  0  0  0  0  0
   -1.9480   22.6965  -29.4543 H   0  0  0  0  0  0  0  0  0  0  0  0
   -5.1140   26.5990  -29.6520 H   0  0  0  0  0  0  0  0  0  0  0  0
   -6.2829   24.1198  -31.4910 H   0  0  0  0  0  0  0  0  0  0  0  0
   -3.5852   22.2419  -33.3210 H   0  0  0  0  0  0  0  0  0  0  0  0
   -1.3198   21.6491  -34.1739 H   0  0  0  0  0  0  0  0  0  0  0  0
    1.0110   19.5530  -36.5690 H   0  0  0  0  0  0  0  0  0  0  0  0
   -2.2515   17.4449  -33.7388 H   0  0  0  0  0  0  0  0  0  0  0  0
   -4.5202   18.0349  -32.8872 H   0  0  0  0  0  0  0  0  0  0  0  0
  1  2  1  0
  2  3  1  0
  3  4  2  0
  4  5  1  0
  5  6  2  0
  6  7  1  0
  7  8  2  0
  8  9  1  0
  8 10  1  0
 10 11  1  0
 10 12  2  0
  4 13  1  0
 13 14  1  0
 14 15  2  0
 15 16  1  0
 16 17  2  0
 17 18  1  0
 18 19  1  0
 18 20  2  0
 18 21  2  0
 17 22  1  0
 22 23  2  0
 13 24  1  0
 24  2  2  0
 12  5  1  0
 23 14  1  0
  1 25  1  0
  1 26  1  0
  1 27  1  0
  3 28  1  0
  6 29  1  0
  7 30  1  0
 11 31  1  0
 12 32  1  0
 15 33  1  0
 16 34  1  0
 19 35  1  0
 22 36  1  0
 23 37  1  0
M  CHG  2   9  -1  19  -1
M  END
>  <UniqueID>  (25) 
25

>  <SMILES>  (25) 
Cc1cc(-c2ccc([O-])c(O)c2)n(-c2ccc(S([NH-])(=O)=O)cc2)n1

>  <Energy>  (25) 
76.94048944747796

>  <Genealogy>  (25) 
Cc1cc(-c2ccc([O-])c(O)c2)n(-c2ccc(S([NH-])(=O)=O)cc2)n1 (protonated)
Cc1cc(-c2ccc([O-])c(O)c2)n(-c2ccc(S([NH-])(=O)=O)cc2)n1 (3D coordinates assigned)
Cc1cc(-c2ccc([O-])c(O)c2)n(-c2ccc(S([NH-])(=O)=O)cc2)n1 (optimized conformer: 76.94048944747796 kcal/mol)

>  <smiles>  (25) 
Cc1cc(-c2ccc(O)c(O)c2)n(-c2ccc(S(N)(=O)=O)cc2)n1

>  <score_type>  (25) 
oracle

>  <origin>  (25) 
adgpu

>  <m_score__min__energy>  (25) 
-10.76

>  <m_primary>  (25) 
energy

$$$$
25:0
     RDKit          3D

 47 50  0  0  0  0  0  0  0  0999 V2000
   -4.0323   24.8376  -27.7901 H   0  0  0  0  0  0  0  0  0  0  0  0
   -3.2480   24.1850  -28.2010 C   0  0  0  0  0  0  0  0  0  0  0  0
   -2.5520   23.3130  -27.3560 C   0  0  0  0  0  0  0  0  0  0  0  0
   -2.8029   23.2711  -26.2858 H   0  0  0  0  0  0  0  0  0  0  0  0
   -1.5370   22.4930  -27.8670 C   0  0  0  0  0  0  0  0  0  0  0  0
   -0.6730   21.3850  -26.8100 S   0  0  0  0  0  0  0  0  0  0  0  0
    0.5510   22.0660  -26.2630 O   0  0  0  0  0  0  0  0  0  0  0  0
   -1.5620   20.9770  -25.6670 O   0  0  0  0  0  0  0  0  0  0  0  0
   -0.2110   19.9870  -27.7210 N   0  0  0  0  0  0  0  0  0  0  0  0
    1.0200   19.7490  -28.0530 C   0  0  0  0  0  0  0  0  0  0  0  0
    2.0410   20.5140  -27.7440 O   0  0  0  0  0  0  0  0  0  0  0  0
    3.1500   20.0040  -28.1980 N   0  0  0  0  0  0  0  0  0  0  0  0
    2.8290   18.8520  -28.8270 C   0  0  0  0  0  0  0  0  0  0  0  0
    3.8240   17.9550  -29.4870 C   0  0  0  0  0  0  0  0  0  0  0  0
    4.4087   17.4279  -28.7187 H   0  0  0  0  0  0  0  0  0  0  0  0
    3.2967   17.2211  -30.1142 H   0  0  0  0  0  0  0  0  0  0  0  0
    4.4995   18.5553  -30.1142 H   0  0  0  0  0  0  0  0  0  0  0  0
    1.4600   18.6620  -28.7720 C   0  0  0  0  0  0  0  0  0  0  0  0
    0.6660   17.4910  -29.2600 C   0  0  0  0  0  0  0  0  0  0  0  0
    0.2817   16.9242  -28.3991 H   0  0  0  0  0  0  0  0  0  0  0  0
   -0.1770   17.8481  -29.8698 H   0  0  0  0  0  0  0  0  0  0  0  0
    1.3097   16.8400  -29.8698 H   0  0  0  0  0  0  0  0  0  0  0  0
   -1.2260   22.5500  -29.2320 C   0  0  0  0  0  0  0  0  0  0  0  0
   -0.4324   21.9073  -29.6408 H   0  0  0  0  0  0  0  0  0  0  0  0
   -1.9210   23.4210  -30.0760 C   0  0  0  0  0  0  0  0  0  0  0  0
   -1.6589   23.4714  -31.1431 H   0  0  0  0  0  0  0  0  0  0  0  0
   -2.9470   24.2290  -29.5750 C   0  0  0  0  0  0  0  0  0  0  0  0
   -3.6200   25.1240  -30.4730 N   0  0  0  0  0  0  0  0  0  0  0  0
   -5.0040   25.0830  -30.8490 C   0  0  0  0  0  0  0  0  0  0  0  0
   -5.7230   26.1120  -30.7250 O   0  0  0  0  0  0  0  0  0  0  0  0
   -5.6040   23.8180  -31.3340 C   0  0  0  0  0  0  0  0  0  0  0  0
   -4.7980   22.8330  -31.9340 C   0  0  0  0  0  0  0  0  0  0  0  0
   -3.7175   23.0075  -32.0437 H   0  0  0  0  0  0  0  0  0  0  0  0
   -5.3540   21.6360  -32.3920 C   0  0  0  0  0  0  0  0  0  0  0  0
   -4.7102   20.8754  -32.8578 H   0  0  0  0  0  0  0  0  0  0  0  0
   -6.7290   21.4010  -32.2600 C   0  0  0  0  0  0  0  0  0  0  0  0
   -7.2970   20.2020  -32.7180 C   0  0  0  0  0  0  0  0  0  0  0  0
   -6.6609   19.4368  -33.1869 H   0  0  0  0  0  0  0  0  0  0  0  0
   -8.6700   19.9790  -32.5790 C   0  0  0  0  0  0  0  0  0  0  0  0
   -9.1113   19.0378  -32.9386 H   0  0  0  0  0  0  0  0  0  0  0  0
   -9.4840   20.9470  -31.9850 C   0  0  0  0  0  0  0  0  0  0  0  0
  -10.5637   20.7659  -31.8784 H   0  0  0  0  0  0  0  0  0  0  0  0
   -8.9290   22.1450  -31.5260 C   0  0  0  0  0  0  0  0  0  0  0  0
   -9.5735   22.9044  -31.0591 H   0  0  0  0  0  0  0  0  0  0  0  0
   -7.5520   22.3820  -31.6590 C   0  0  0  0  0  0  0  0  0  0  0  0
   -6.9850   23.5820  -31.2010 C   0  0  0  0  0  0  0  0  0  0  0  0
   -7.6259   24.3444  -30.7341 H   0  0  0  0  0  0  0  0  0  0  0  0
  1  2  1  0
  2  3  2  0
  3  4  1  0
  3  5  1  0
  5  6  1  0
  6  7  2  0
  6  8  2  0
  6  9  1  0
  9 10  2  0
 10 11  1  0
 11 12  1  0
 12 13  1  0
 13 14  1  0
 14 15  1  0
 14 16  1  0
 14 17  1  0
 13 18  2  0
 18 19  1  0
 19 20  1  0
 19 21  1  0
 19 22  1  0
  5 23  2  0
 23 24  1  0
 23 25  1  0
 25 26  1  0
 25 27  2  0
 27 28  1  0
 28 29  1  0
 29 30  2  0
 29 31  1  0
 31 32  2  0
 32 33  1  0
 32 34  1  0
 34 35  1  0
 34 36  2  0
 36 37  1  0
 37 38  1  0
 37 39  2  0
 39 40  1  0
 39 41  1  0
 41 42  1  0
 41 43  2  0
 43 44  1  0
 43 45  1  0
 45 46  2  0
 46 47  1  0
 27  2  1  0
 46 31  1  0
 18 10  1  0
 45 36  1  0
M  CHG  2  12  -1  28  -1
M  END
>  <UniqueID>  (26) 
26

>  <SMILES>  (26) 
Cc1[n-]o/c(=N\S(=O)(=O)c2ccc([N-]C(=O)c3ccc4ccccc4c3)cc2)c1C

>  <Energy>  (26) 
92.05181658142446

>  <Genealogy>  (26) 
Cc1[n-]oc(=NS(=O)(=O)c2ccc([N-]C(=O)c3ccc4ccccc4c3)cc2)c1C (protonated)
Cc1[n-]o/c(=N\S(=O)(=O)c2ccc([N-]C(=O)c3ccc4ccccc4c3)cc2)c1C (cis-trans isomerization)
Cc1[n-]o/c(=N\S(=O)(=O)c2ccc([N-]C(=O)c3ccc4ccccc4c3)cc2)c1C (3D coordinates assigned)
Cc1[n-]o/c(=N\S(=O)(=O)c2ccc([N-]C(=O)c3ccc4ccccc4c3)cc2)c1C (optimized conformer: 92.05181658142446 kcal/mol)

>  <smiles>  (26) 
Cc1[nH]oc(=NS(=O)(=O)c2ccc(NC(=O)c3ccc4ccccc4c3)cc2)c1C

>  <score_type>  (26) 
oracle

>  <origin>  (26) 
adgpu

>  <m_score__min__energy>  (26) 
-13.65

>  <m_primary>  (26) 
energy

$$$$
26:0
     RDKit          3D

 41 43  0  0  0  0  0  0  0  0999 V2000
   -0.3330   20.2026  -28.4749 H   0  0  0  0  0  0  0  0  0  0  0  0
   -0.9900   21.0840  -28.5120 C   0  0  0  0  0  0  0  0  0  0  0  0
   -0.6630   22.5230  -29.3120 S   0  0  0  0  0  0  0  0  0  0  0  0
   -2.0930   23.3130  -28.9040 C   0  0  0  0  0  0  0  0  0  0  0  0
   -2.4210   24.6870  -29.3300 C   0  0  0  0  0  0  0  0  0  0  0  0
   -1.7170   25.6440  -28.9100 O   0  0  0  0  0  0  0  0  0  0  0  0
   -3.4900   24.9290  -30.2530 N   0  0  0  0  0  0  0  0  0  0  0  0
   -4.4540   23.9740  -30.7200 C   0  0  0  0  0  0  0  0  0  0  0  0
   -5.8090   24.2050  -30.4530 C   0  0  0  0  0  0  0  0  0  0  0  0
   -6.1088   25.0950  -29.8802 H   0  0  0  0  0  0  0  0  0  0  0  0
   -6.7830   23.3130  -30.9090 C   0  0  0  0  0  0  0  0  0  0  0  0
   -7.8434   23.4948  -30.6799 H   0  0  0  0  0  0  0  0  0  0  0  0
   -6.4130   22.1880  -31.6570 C   0  0  0  0  0  0  0  0  0  0  0  0
   -7.6460   21.0740  -32.2430 S   0  0  0  0  0  0  0  0  0  0  0  0
   -8.9690   21.7650  -32.4080 O   0  0  0  0  0  0  0  0  0  0  0  0
   -7.8040   19.9830  -31.2220 O   0  0  0  0  0  0  0  0  0  0  0  0
   -7.1660   20.3450  -33.7440 N   0  0  0  0  0  0  0  0  0  0  0  0
   -6.3520   19.3520  -33.9670 C   0  0  0  0  0  0  0  0  0  0  0  0
   -6.1290   18.9140  -35.1840 O   0  0  0  0  0  0  0  0  0  0  0  0
   -5.2850   17.9250  -35.1860 N   0  0  0  0  0  0  0  0  0  0  0  0
   -4.9340   17.7020  -33.9060 C   0  0  0  0  0  0  0  0  0  0  0  0
   -3.9500   16.6530  -33.4940 C   0  0  0  0  0  0  0  0  0  0  0  0
   -3.9042   16.6042  -32.3960 H   0  0  0  0  0  0  0  0  0  0  0  0
   -4.2662   15.6773  -33.8915 H   0  0  0  0  0  0  0  0  0  0  0  0
   -2.9561   16.9062  -33.8915 H   0  0  0  0  0  0  0  0  0  0  0  0
   -5.5980   18.5900  -33.0720 C   0  0  0  0  0  0  0  0  0  0  0  0
   -5.3980   18.7130  -31.5900 C   0  0  0  0  0  0  0  0  0  0  0  0
   -6.2216   18.2065  -31.0656 H   0  0  0  0  0  0  0  0  0  0  0  0
   -4.4424   18.2463  -31.3090 H   0  0  0  0  0  0  0  0  0  0  0  0
   -5.3834   19.7764  -31.3090 H   0  0  0  0  0  0  0  0  0  0  0  0
   -5.0610   21.9610  -31.9410 C   0  0  0  0  0  0  0  0  0  0  0  0
   -4.7653   21.0774  -32.5257 H   0  0  0  0  0  0  0  0  0  0  0  0
   -4.0850   22.8520  -31.4850 C   0  0  0  0  0  0  0  0  0  0  0  0
   -3.0260   22.6756  -31.7248 H   0  0  0  0  0  0  0  0  0  0  0  0
   -2.8570   22.4400  -28.1170 C   0  0  0  0  0  0  0  0  0  0  0  0
   -4.2040   22.7610  -27.5420 C   0  0  0  0  0  0  0  0  0  0  0  0
   -4.1465   22.7473  -26.4436 H   0  0  0  0  0  0  0  0  0  0  0  0
   -4.5186   23.7593  -27.8803 H   0  0  0  0  0  0  0  0  0  0  0  0
   -4.9351   22.0119  -27.8803 H   0  0  0  0  0  0  0  0  0  0  0  0
   -2.2320   21.1990  -27.9060 C   0  0  0  0  0  0  0  0  0  0  0  0
   -2.6870   20.3916  -27.3135 H   0  0  0  0  0  0  0  0  0  0  0  0
  1  2  1  0
  2  3  1  0
  3  4  1  0
  4  5  1  0
  5  6  2  0
  5  7  1  0
  7  8  1  0
  8  9  2  0
  9 10  1  0
  9 11  1  0
 11 12  1  0
 11 13  2  0
 13 14  1  0
 14 15  2  0
 14 16  2  0
 14 17  1  0
 17 18  2  0
 18 19  1  0
 19 20  1  0
 20 21  1  0
 21 22  1  0
 22 23  1  0
 22 24  1  0
 22 25  1  0
 21 26  2  0
 26 27  1  0
 27 28  1  0
 27 29  1  0
 27 30  1  0
 13 31  1  0
 31 32  1  0
 31 33  2  0
 33 34  1  0
  4 35  2  0
 35 36  1  0
 36 37  1  0
 36 38  1  0
 36 39  1  0
 35 40  1  0
 40 41  1  0
 40  2  2  0
 33  8  1  0
 26 18  1  0
M  CHG  2   7  -1  20  -1
M  END
>  <UniqueID>  (27) 
27

>  <SMILES>  (27) 
Cc1ccsc1C(=O)[N-]c1ccc(S(=O)(=O)/N=c2/o[n-]c(C)c2C)cc1

>  <Energy>  (27) 
111.41156151961664

>  <Genealogy>  (27) 
Cc1ccsc1C(=O)[N-]c1ccc(S(=O)(=O)N=c2o[n-]c(C)c2C)cc1 (protonated)
Cc1ccsc1C(=O)[N-]c1ccc(S(=O)(=O)/N=c2/o[n-]c(C)c2C)cc1 (cis-trans isomerization)
Cc1ccsc1C(=O)[N-]c1ccc(S(=O)(=O)/N=c2/o[n-]c(C)c2C)cc1 (3D coordinates assigned)
Cc1ccsc1C(=O)[N-]c1ccc(S(=O)(=O)/N=c2/o[n-]c(C)c2C)cc1 (optimized conformer: 111.41156151961664 kcal/mol)

>  <smiles>  (27) 
Cc1ccsc1C(=O)Nc1ccc(S(=O)(=O)N=c2o[nH]c(C)c2C)cc1

>  <score_type>  (27) 
oracle

>  <origin>  (27) 
adgpu

>  <m_score__min__energy>  (27) 
-10.550000000000001

>  <m_primary>  (27) 
energy

$$$$
27:0
     RDKit          3D

 58 61  0  0  0  0  0  0  0  0999 V2000
   -7.4390   19.9570  -33.0610 C   0  0  0  0  0  0  0  0  0  0  0  0
   -6.9490   21.1990  -32.3660 C   0  0  0  0  0  0  0  0  0  0  0  0
   -7.8960   22.1210  -31.8860 C   0  0  0  0  0  0  0  0  0  0  0  0
   -7.4920   23.2690  -31.2040 C   0  0  0  0  0  0  0  0  0  0  0  0
   -6.1340   23.5150  -30.9880 C   0  0  0  0  0  0  0  0  0  0  0  0
   -5.6110   24.9170  -30.0590 S   0  0  0  0  0  0  0  0  0  0  0  0
   -6.7710   25.8310  -29.7760 O   0  0  0  0  0  0  0  0  0  0  0  0
   -4.5770   25.6640  -30.8520 O   0  0  0  0  0  0  0  0  0  0  0  0
   -4.9190   24.3970  -28.5550 N   0  0  0  0  0  0  0  0  0  0  0  0
   -3.7660   23.5380  -28.4730 C   0  0  0  0  0  0  0  0  0  0  0  0
   -3.8660   22.2300  -27.9630 C   0  0  0  0  0  0  0  0  0  0  0  0
   -2.7450   21.3890  -27.9040 C   0  0  0  0  0  0  0  0  0  0  0  0
   -1.5010   21.8540  -28.3860 C   0  0  0  0  0  0  0  0  0  0  0  0
   -1.3940   23.1690  -28.8590 C   0  0  0  0  0  0  0  0  0  0  0  0
   -2.5140   24.0030  -28.9080 C   0  0  0  0  0  0  0  0  0  0  0  0
   -2.3710   25.2970  -29.3990 O   0  0  0  0  0  0  0  0  0  0  0  0
   -0.2520   21.0080  -28.2910 C   0  0  0  0  0  0  0  0  0  0  0  0
   -0.5620   19.5160  -28.1330 C   0  0  0  0  0  0  0  0  0  0  0  0
   -1.6030   19.3060  -27.0340 C   0  0  0  0  0  0  0  0  0  0  0  0
   -2.9280   19.9680  -27.4250 C   0  0  0  0  0  0  0  0  0  0  0  0
   -5.1820   22.6190  -31.4830 C   0  0  0  0  0  0  0  0  0  0  0  0
   -5.5680   21.4710  -32.1910 C   0  0  0  0  0  0  0  0  0  0  0  0
   -4.2860   20.3840  -32.7580 S   0  0  0  0  0  0  0  0  0  0  0  0
   -4.7050   19.6380  -33.9930 O   0  0  0  0  0  0  0  0  0  0  0  0
   -4.0070   19.3930  -31.6610 O   0  0  0  0  0  0  0  0  0  0  0  0
   -2.8290   21.2950  -33.1020 N   0  0  0  0  0  0  0  0  0  0  0  0
   -1.9250   20.5750  -34.0240 C   0  0  0  0  0  0  0  0  0  0  0  0
   -1.1350   19.4400  -33.3430 C   0  0  0  0  0  0  0  0  0  0  0  0
   -0.7010   19.7770  -31.9070 C   0  0  0  0  0  0  0  0  0  0  0  0
   -0.7550   21.2790  -31.6400 C   0  0  0  0  0  0  0  0  0  0  0  0
   -2.1820   21.8070  -31.8680 C   0  0  0  0  0  0  0  0  0  0  0  0
   -7.7341   19.2090  -32.3104 H   0  0  0  0  0  0  0  0  0  0  0  0
   -8.3060   20.2068  -33.6903 H   0  0  0  0  0  0  0  0  0  0  0  0
   -6.6350   19.5476  -33.6903 H   0  0  0  0  0  0  0  0  0  0  0  0
   -8.9677   21.9349  -32.0501 H   0  0  0  0  0  0  0  0  0  0  0  0
   -8.2443   23.9819  -30.8356 H   0  0  0  0  0  0  0  0  0  0  0  0
   -5.2770   24.8620  -27.6900 H   0  0  0  0  0  0  0  0  0  0  0  0
   -4.8386   21.8615  -27.6050 H   0  0  0  0  0  0  0  0  0  0  0  0
   -0.4178   23.5486  -29.1952 H   0  0  0  0  0  0  0  0  0  0  0  0
    0.3401   21.1498  -29.2071 H   0  0  0  0  0  0  0  0  0  0  0  0
    0.3014   21.3300  -27.3965 H   0  0  0  0  0  0  0  0  0  0  0  0
   -0.9529   19.1236  -29.0834 H   0  0  0  0  0  0  0  0  0  0  0  0
    0.3614   18.9850  -27.8585 H   0  0  0  0  0  0  0  0  0  0  0  0
   -1.7649   18.2278  -26.8884 H   0  0  0  0  0  0  0  0  0  0  0  0
   -1.2366   19.7607  -26.1018 H   0  0  0  0  0  0  0  0  0  0  0  0
   -3.3914   19.3807  -28.2315 H   0  0  0  0  0  0  0  0  0  0  0  0
   -3.5649   19.9966  -26.5286 H   0  0  0  0  0  0  0  0  0  0  0  0
   -4.1132   22.8172  -31.3147 H   0  0  0  0  0  0  0  0  0  0  0  0
   -2.5275   20.1421  -34.8362 H   0  0  0  0  0  0  0  0  0  0  0  0
   -1.1907   21.3049  -34.3954 H   0  0  0  0  0  0  0  0  0  0  0  0
   -1.7693   18.5417  -33.3142 H   0  0  0  0  0  0  0  0  0  0  0  0
   -0.2191   19.2823  -33.9314 H   0  0  0  0  0  0  0  0  0  0  0  0
   -1.3724   19.2650  -31.2020 H   0  0  0  0  0  0  0  0  0  0  0  0
    0.3383   19.4418  -31.7747 H   0  0  0  0  0  0  0  0  0  0  0  0
   -0.4571   21.4742  -30.5993 H   0  0  0  0  0  0  0  0  0  0  0  0
   -0.0677   21.7915  -32.3292 H   0  0  0  0  0  0  0  0  0  0  0  0
   -2.8003   21.5136  -31.0068 H   0  0  0  0  0  0  0  0  0  0  0  0
   -2.1015   22.8981  -31.9820 H   0  0  0  0  0  0  0  0  0  0  0  0
  1  2  1  0
  2  3  2  0
  3  4  1  0
  4  5  2  0
  5  6  1  0
  6  7  2  0
  6  8  2  0
  6  9  1  0
  9 10  1  0
 10 11  2  0
 11 12  1  0
 12 13  2  0
 13 14  1  0
 14 15  2  0
 15 16  1  0
 13 17  1  0
 17 18  1  0
 18 19  1  0
 19 20  1  0
  5 21  1  0
 21 22  2  0
 22 23  1  0
 23 24  2  0
 23 25  2  0
 23 26  1  0
 26 27  1  0
 27 28  1  0
 28 29  1  0
 29 30  1  0
 30 31  1  0
 22  2  1  0
 31 26  1  0
 15 10  1  0
 20 12  1  0
  1 32  1  0
  1 33  1  0
  1 34  1  0
  3 35  1  0
  4 36  1  0
  9 37  1  0
 11 38  1  0
 14 39  1  0
 17 40  1  0
 17 41  1  0
 18 42  1  0
 18 43  1  0
 19 44  1  0
 19 45  1  0
 20 46  1  0
 20 47  1  0
 21 48  1  0
 27 49  1  0
 27 50  1  0
 28 51  1  0
 28 52  1  0
 29 53  1  0
 29 54  1  0
 30 55  1  0
 30 56  1  0
 31 57  1  0
 31 58  1  0
M  CHG  1  16  -1
M  END
>  <UniqueID>  (28) 
28

>  <SMILES>  (28) 
Cc1ccc(S(=O)(=O)Nc2cc3c(cc2[O-])CCCC3)cc1S(=O)(=O)N1CCCCC1

>  <Energy>  (28) 
71.03435425673183

>  <Genealogy>  (28) 
Cc1ccc(S(=O)(=O)Nc2cc3c(cc2[O-])CCCC3)cc1S(=O)(=O)N1CCCCC1 (protonated)
Cc1ccc(S(=O)(=O)Nc2cc3c(cc2[O-])CCCC3)cc1S(=O)(=O)N1CCCCC1 (3D coordinates assigned)
Cc1ccc(S(=O)(=O)Nc2cc3c(cc2[O-])CCCC3)cc1S(=O)(=O)N1CCCCC1 (nonaromatic ring conformer: 71.03435425673183 kcal/mol)

>  <smiles>  (28) 
Cc1ccc(S(=O)(=O)Nc2cc3c(cc2O)CCCC3)cc1S(=O)(=O)N1CCCCC1

>  <score_type>  (28) 
oracle

>  <origin>  (28) 
adgpu

>  <m_score__min__energy>  (28) 
-15.289999999999999

>  <m_primary>  (28) 
energy

$$$$
28:0
     RDKit          3D

 51 54  0  0  0  0  0  0  0  0999 V2000
    0.7720   16.6620  -29.5630 C   0  0  0  0  0  0  0  0  0  0  0  0
    0.3640   17.0370  -27.8300 S   0  0  0  0  0  0  0  0  0  0  0  0
   -0.1810   18.6990  -28.2040 C   0  0  0  0  0  0  0  0  0  0  0  0
   -0.0610   19.2610  -29.4300 N   0  0  0  0  0  0  0  0  0  0  0  0
   -0.5860   20.5120  -29.4380 C   0  0  0  0  0  0  0  0  0  0  0  0
   -0.6500   21.3320  -30.5650 C   0  0  0  0  0  0  0  0  0  0  0  0
   -1.2630   22.5910  -30.4500 C   0  0  0  0  0  0  0  0  0  0  0  0
   -1.7930   23.0220  -29.2130 C   0  0  0  0  0  0  0  0  0  0  0  0
   -2.5880   24.5880  -29.0740 S   0  0  0  0  0  0  0  0  0  0  0  0
   -1.5710   25.6880  -28.9470 O   0  0  0  0  0  0  0  0  0  0  0  0
   -3.4550   24.5850  -27.8490 O   0  0  0  0  0  0  0  0  0  0  0  0
   -3.5680   24.8850  -30.4680 N   0  0  0  0  0  0  0  0  0  0  0  0
   -4.7250   24.0940  -30.7380 C   0  0  0  0  0  0  0  0  0  0  0  0
   -4.5890   22.8430  -31.3530 C   0  0  0  0  0  0  0  0  0  0  0  0
   -5.7180   22.0570  -31.6190 C   0  0  0  0  0  0  0  0  0  0  0  0
   -5.5450   20.4910  -32.4160 S   0  0  0  0  0  0  0  0  0  0  0  0
   -6.2340   19.4350  -31.5970 O   0  0  0  0  0  0  0  0  0  0  0  0
   -6.2160   20.5480  -33.7600 O   0  0  0  0  0  0  0  0  0  0  0  0
   -3.8660   20.0570  -32.6230 N   0  0  0  0  0  0  0  0  0  0  0  0
   -3.7540   18.7180  -33.2250 C   0  0  0  0  0  0  0  0  0  0  0  0
   -2.2940   18.2300  -33.1720 C   0  0  0  0  0  0  0  0  0  0  0  0
   -1.2890   19.3920  -33.1130 C   0  0  0  0  0  0  0  0  0  0  0  0
   -1.7840   20.5900  -33.9250 C   0  0  0  0  0  0  0  0  0  0  0  0
   -3.1760   21.0690  -33.4500 C   0  0  0  0  0  0  0  0  0  0  0  0
   -6.9870   22.5240  -31.2500 C   0  0  0  0  0  0  0  0  0  0  0  0
   -7.1250   23.7670  -30.6270 C   0  0  0  0  0  0  0  0  0  0  0  0
   -5.9960   24.5560  -30.3680 C   0  0  0  0  0  0  0  0  0  0  0  0
   -6.1290   25.7970  -29.7470 O   0  0  0  0  0  0  0  0  0  0  0  0
   -1.7040   22.1900  -28.0830 C   0  0  0  0  0  0  0  0  0  0  0  0
   -1.1090   20.9410  -28.2310 C   0  0  0  0  0  0  0  0  0  0  0  0
   -0.9300   19.7260  -27.0860 S   0  0  0  0  0  0  0  0  0  0  0  0
    1.5815   15.9180  -29.5964 H   0  0  0  0  0  0  0  0  0  0  0  0
   -0.1172   16.2594  -30.0702 H   0  0  0  0  0  0  0  0  0  0  0  0
    1.0984   17.5819  -30.0702 H   0  0  0  0  0  0  0  0  0  0  0  0
   -0.2287   20.9992  -31.5251 H   0  0  0  0  0  0  0  0  0  0  0  0
   -1.3309   23.2468  -31.3305 H   0  0  0  0  0  0  0  0  0  0  0  0
   -3.5897   22.4753  -31.6289 H   0  0  0  0  0  0  0  0  0  0  0  0
   -4.3921   18.0154  -32.6690 H   0  0  0  0  0  0  0  0  0  0  0  0
   -4.0769   18.7691  -34.2753 H   0  0  0  0  0  0  0  0  0  0  0  0
   -2.1631   17.6040  -32.2770 H   0  0  0  0  0  0  0  0  0  0  0  0
   -2.0966   17.6625  -34.0934 H   0  0  0  0  0  0  0  0  0  0  0  0
   -1.1556   19.6987  -32.0651 H   0  0  0  0  0  0  0  0  0  0  0  0
   -0.3347   19.0506  -33.5404 H   0  0  0  0  0  0  0  0  0  0  0  0
   -1.0662   21.4162  -33.8147 H   0  0  0  0  0  0  0  0  0  0  0  0
   -1.8695   20.2789  -34.9766 H   0  0  0  0  0  0  0  0  0  0  0  0
   -3.0505   21.9858  -32.8553 H   0  0  0  0  0  0  0  0  0  0  0  0
   -3.7920   21.2502  -34.3431 H   0  0  0  0  0  0  0  0  0  0  0  0
   -7.8771   21.9099  -31.4515 H   0  0  0  0  0  0  0  0  0  0  0  0
   -8.1234   24.1277  -30.3388 H   0  0  0  0  0  0  0  0  0  0  0  0
   -5.3850   26.1910  -29.1830 H   0  0  0  0  0  0  0  0  0  0  0  0
   -2.0943   22.5177  -27.1082 H   0  0  0  0  0  0  0  0  0  0  0  0
  1  2  1  0
  2  3  1  0
  3  4  2  0
  4  5  1  0
  5  6  2  0
  6  7  1  0
  7  8  2  0
  8  9  1  0
  9 10  2  0
  9 11  2  0
  9 12  1  0
 12 13  1  0
 13 14  2  0
 14 15  1  0
 15 16  1  0
 16 17  2  0
 16 18  2  0
 16 19  1  0
 19 20  1  0
 20 21  1  0
 21 22  1  0
 22 23  1  0
 23 24  1  0
 15 25  2  0
 25 26  1  0
 26 27  2  0
 27 28  1  0
  8 29  1  0
 29 30  2  0
 30 31  1  0
 31  3  1  0
 30  5  1  0
 27 13  1  0
 24 19  1  0
  1 32  1  0
  1 33  1  0
  1 34  1  0
  6 35  1  0
  7 36  1  0
 14 37  1  0
 20 38  1  0
 20 39  1  0
 21 40  1  0
 21 41  1  0
 22 42  1  0
 22 43  1  0
 23 44  1  0
 23 45  1  0
 24 46  1  0
 24 47  1  0
 25 48  1  0
 26 49  1  0
 28 50  1  0
 29 51  1  0
M  CHG  1  12  -1
M  END
>  <UniqueID>  (29) 
29

>  <SMILES>  (29) 
CSc1nc2ccc(S(=O)(=O)[N-]c3cc(S(=O)(=O)N4CCCCC4)ccc3O)cc2s1

>  <Energy>  (29) 
90.23912917259925

>  <Genealogy>  (29) 
CSc1nc2ccc(S(=O)(=O)[N-]c3cc(S(=O)(=O)N4CCCCC4)ccc3O)cc2s1 (protonated)
CSc1nc2ccc(S(=O)(=O)[N-]c3cc(S(=O)(=O)N4CCCCC4)ccc3O)cc2s1 (3D coordinates assigned)
CSc1nc2ccc(S(=O)(=O)[N-]c3cc(S(=O)(=O)N4CCCCC4)ccc3O)cc2s1 (nonaromatic ring conformer: 90.23912917259925 kcal/mol)

>  <smiles>  (29) 
CSc1nc2ccc(S(=O)(=O)Nc3cc(S(=O)(=O)N4CCCCC4)ccc3O)cc2s1

>  <score_type>  (29) 
oracle

>  <origin>  (29) 
adgpu

>  <m_score__min__energy>  (29) 
-12.67

>  <m_primary>  (29) 
energy

$$$$
29:0
     RDKit          3D

 36 38  0  0  0  0  0  0  0  0999 V2000
   -4.4690   13.2300  -33.2080 H   0  0  0  0  0  0  0  0  0  0  0  0
   -5.3480   13.7180  -32.9230 N   0  0  0  0  0  0  0  0  0  0  0  0
   -5.5750   15.0320  -34.0210 S   0  0  0  0  0  0  0  0  0  0  0  0
   -4.6020   14.9040  -35.1600 O   0  0  0  0  0  0  0  0  0  0  0  0
   -6.9720   14.9900  -34.5740 O   0  0  0  0  0  0  0  0  0  0  0  0
   -5.3110   16.5550  -33.1780 C   0  0  0  0  0  0  0  0  0  0  0  0
   -4.1300   17.2800  -33.3880 C   0  0  0  0  0  0  0  0  0  0  0  0
   -3.3621   16.8908  -34.0728 H   0  0  0  0  0  0  0  0  0  0  0  0
   -3.9250   18.4960  -32.7300 C   0  0  0  0  0  0  0  0  0  0  0  0
   -2.9945   19.0581  -32.8979 H   0  0  0  0  0  0  0  0  0  0  0  0
   -4.8960   19.0030  -31.8590 C   0  0  0  0  0  0  0  0  0  0  0  0
   -4.6530   20.2530  -31.2010 N   0  0  0  0  0  0  0  0  0  0  0  0
   -3.6770   21.0050  -31.5170 N   0  0  0  0  0  0  0  0  0  0  0  0
   -3.4510   22.2490  -30.8510 C   0  0  0  0  0  0  0  0  0  0  0  0
   -3.9890   23.4080  -31.2740 N   0  0  0  0  0  0  0  0  0  0  0  0
   -3.5490   24.3300  -30.3970 C   0  0  0  0  0  0  0  0  0  0  0  0
   -3.8600   25.6790  -30.5090 O   0  0  0  0  0  0  0  0  0  0  0  0
   -2.7410   23.7690  -29.4190 C   0  0  0  0  0  0  0  0  0  0  0  0
   -2.0670   24.4510  -28.2880 C   0  0  0  0  0  0  0  0  0  0  0  0
   -2.7890   24.7760  -27.1260 C   0  0  0  0  0  0  0  0  0  0  0  0
   -3.8568   24.5206  -27.0580 H   0  0  0  0  0  0  0  0  0  0  0  0
   -2.1620   25.4200  -26.0580 C   0  0  0  0  0  0  0  0  0  0  0  0
   -2.7358   25.6623  -25.1513 H   0  0  0  0  0  0  0  0  0  0  0  0
   -0.8090   25.7580  -26.1360 C   0  0  0  0  0  0  0  0  0  0  0  0
   -0.1990   26.3990  -25.0640 O   0  0  0  0  0  0  0  0  0  0  0  0
   -0.0760   25.4500  -27.2940 C   0  0  0  0  0  0  0  0  0  0  0  0
    1.2730   25.7840  -27.4030 O   0  0  0  0  0  0  0  0  0  0  0  0
    1.7720   26.2550  -26.6590 H   0  0  0  0  0  0  0  0  0  0  0  0
   -0.7060   24.8020  -28.3630 C   0  0  0  0  0  0  0  0  0  0  0  0
   -0.1317   24.5647  -29.2707 H   0  0  0  0  0  0  0  0  0  0  0  0
   -2.6730   22.4210  -29.7200 C   0  0  0  0  0  0  0  0  0  0  0  0
   -2.1157   21.6460  -29.1734 H   0  0  0  0  0  0  0  0  0  0  0  0
   -6.0840   18.2780  -31.6550 C   0  0  0  0  0  0  0  0  0  0  0  0
   -6.8548   18.6696  -30.9749 H   0  0  0  0  0  0  0  0  0  0  0  0
   -6.2890   17.0620  -32.3130 C   0  0  0  0  0  0  0  0  0  0  0  0
   -7.2214   16.5014  -32.1510 H   0  0  0  0  0  0  0  0  0  0  0  0
  1  2  1  0
  2  3  1  0
  3  4  2  0
  3  5  2  0
  3  6  1  0
  6  7  2  0
  7  8  1  0
  7  9  1  0
  9 10  1  0
  9 11  2  0
 11 12  1  0
 12 13  2  0
 13 14  1  0
 14 15  1  0
 15 16  1  0
 16 17  1  0
 16 18  2  0
 18 19  1  0
 19 20  2  0
 20 21  1  0
 20 22  1  0
 22 23  1  0
 22 24  2  0
 24 25  1  0
 24 26  1  0
 26 27  1  0
 27 28  1  0
 26 29  2  0
 29 30  1  0
 18 31  1  0
 31 32  1  0
 11 33  1  0
 33 34  1  0
 33 35  2  0
 35 36  1  0
 35  6  1  0
 31 14  2  0
 29 19  1  0
M  CHG  4   2  -1  15  -1  17  -1  25  -1
M  END
>  <UniqueID>  (30) 
30

>  <SMILES>  (30) 
[NH-]S(=O)(=O)c1ccc(/N=N/c2cc(-c3ccc([O-])c(O)c3)c([O-])[n-]2)cc1

>  <Energy>  (30) 
68.27088659058562

>  <Genealogy>  (30) 
[NH-]S(=O)(=O)c1ccc(N=Nc2cc(-c3ccc([O-])c(O)c3)c([O-])[n-]2)cc1 (protonated)
[NH-]S(=O)(=O)c1ccc(/N=N/c2cc(-c3ccc([O-])c(O)c3)c([O-])[n-]2)cc1 (cis-trans isomerization)
[NH-]S(=O)(=O)c1ccc(/N=N/c2cc(-c3ccc([O-])c(O)c3)c([O-])[n-]2)cc1 (3D coordinates assigned)
[NH-]S(=O)(=O)c1ccc(/N=N/c2cc(-c3ccc([O-])c(O)c3)c([O-])[n-]2)cc1 (optimized conformer: 68.27088659058562 kcal/mol)

>  <smiles>  (30) 
NS(=O)(=O)c1ccc(N=Nc2cc(-c3ccc(O)c(O)c3)c(O)[nH]2)cc1

>  <score_type>  (30) 
oracle

>  <origin>  (30) 
adgpu

>  <m_score__min__energy>  (30) 
-10.57

>  <m_primary>  (30) 
energy

$$$$
30:0
     RDKit          3D

 52 55  0  0  0  0  0  0  0  0999 V2000
    1.0150   16.5360  -27.5820 C   0  0  0  0  0  0  0  0  0  0  0  0
   -0.1360   17.2590  -27.1590 O   0  0  0  0  0  0  0  0  0  0  0  0
   -0.3720   18.6120  -27.4460 C   0  0  0  0  0  0  0  0  0  0  0  0
   -1.3800   19.3560  -26.8050 C   0  0  0  0  0  0  0  0  0  0  0  0
   -1.5780   20.7020  -27.1270 C   0  0  0  0  0  0  0  0  0  0  0  0
   -0.7810   21.3240  -28.1040 C   0  0  0  0  0  0  0  0  0  0  0  0
   -0.9670   22.7550  -28.4380 C   0  0  0  0  0  0  0  0  0  0  0  0
   -0.0730   23.5810  -28.1120 O   0  0  0  0  0  0  0  0  0  0  0  0
   -2.1710   23.2500  -29.1380 C   0  0  0  0  0  0  0  0  0  0  0  0
   -2.4090   24.5490  -29.5480 C   0  0  0  0  0  0  0  0  0  0  0  0
   -1.5790   25.6450  -29.3480 O   0  0  0  0  0  0  0  0  0  0  0  0
   -3.6250   24.5600  -30.1930 C   0  0  0  0  0  0  0  0  0  0  0  0
   -4.2120   25.6810  -30.7690 O   0  0  0  0  0  0  0  0  0  0  0  0
   -4.1550   23.3190  -30.2180 N   0  0  0  0  0  0  0  0  0  0  0  0
   -5.4030   22.9240  -30.8170 C   0  0  0  0  0  0  0  0  0  0  0  0
   -6.4380   23.8600  -30.9850 C   0  0  0  0  0  0  0  0  0  0  0  0
   -7.6470   23.4770  -31.5700 C   0  0  0  0  0  0  0  0  0  0  0  0
   -7.8360   22.1590  -31.9930 C   0  0  0  0  0  0  0  0  0  0  0  0
   -6.8150   21.2140  -31.8280 C   0  0  0  0  0  0  0  0  0  0  0  0
   -7.0250   19.5560  -32.3860 S   0  0  0  0  0  0  0  0  0  0  0  0
   -6.6570   18.6220  -31.2680 O   0  0  0  0  0  0  0  0  0  0  0  0
   -8.4640   19.3170  -32.7580 O   0  0  0  0  0  0  0  0  0  0  0  0
   -5.9950   19.2590  -33.7650 N   0  0  0  0  0  0  0  0  0  0  0  0
   -6.1180   17.8510  -34.1900 C   0  0  0  0  0  0  0  0  0  0  0  0
   -4.8950   17.4270  -35.0190 C   0  0  0  0  0  0  0  0  0  0  0  0
   -3.6570   17.5330  -34.3260 O   0  0  0  0  0  0  0  0  0  0  0  0
   -3.6860   18.4400  -33.2340 C   0  0  0  0  0  0  0  0  0  0  0  0
   -4.5970   19.6560  -33.4810 C   0  0  0  0  0  0  0  0  0  0  0  0
   -5.6000   21.6010  -31.2450 C   0  0  0  0  0  0  0  0  0  0  0  0
   -3.2660   22.5200  -29.5840 C   0  0  0  0  0  0  0  0  0  0  0  0
   -3.4350   21.1490  -29.4220 O   0  0  0  0  0  0  0  0  0  0  0  0
    0.2360   20.5850  -28.7270 C   0  0  0  0  0  0  0  0  0  0  0  0
    0.4320   19.2390  -28.4030 C   0  0  0  0  0  0  0  0  0  0  0  0
    1.5724   16.1859  -26.7007 H   0  0  0  0  0  0  0  0  0  0  0  0
    0.7033   15.6712  -28.1861 H   0  0  0  0  0  0  0  0  0  0  0  0
    1.6587   17.1923  -28.1861 H   0  0  0  0  0  0  0  0  0  0  0  0
   -2.0156   18.8759  -26.0464 H   0  0  0  0  0  0  0  0  0  0  0  0
   -2.3618   21.2777  -26.6130 H   0  0  0  0  0  0  0  0  0  0  0  0
   -6.2951   24.8993  -30.6541 H   0  0  0  0  0  0  0  0  0  0  0  0
   -8.4525   24.2151  -31.6980 H   0  0  0  0  0  0  0  0  0  0  0  0
   -8.7885   21.8626  -32.4566 H   0  0  0  0  0  0  0  0  0  0  0  0
   -6.1909   17.2096  -33.2993 H   0  0  0  0  0  0  0  0  0  0  0  0
   -7.0205   17.7454  -34.8100 H   0  0  0  0  0  0  0  0  0  0  0  0
   -5.0312   16.3790  -35.3240 H   0  0  0  0  0  0  0  0  0  0  0  0
   -4.8386   18.1154  -35.8751 H   0  0  0  0  0  0  0  0  0  0  0  0
   -4.0502   17.9050  -32.3445 H   0  0  0  0  0  0  0  0  0  0  0  0
   -2.6629   18.8200  -33.0969 H   0  0  0  0  0  0  0  0  0  0  0  0
   -4.5851   20.2952  -32.5858 H   0  0  0  0  0  0  0  0  0  0  0  0
   -4.2129   20.1925  -34.3611 H   0  0  0  0  0  0  0  0  0  0  0  0
   -4.7944   20.8622  -31.1218 H   0  0  0  0  0  0  0  0  0  0  0  0
    0.8829   21.0673  -29.4746 H   0  0  0  0  0  0  0  0  0  0  0  0
    1.2263   18.6678  -28.9058 H   0  0  0  0  0  0  0  0  0  0  0  0
  1  2  1  0
  2  3  1  0
  3  4  2  0
  4  5  1  0
  5  6  2  0
  6  7  1  0
  7  8  2  0
  7  9  1  0
  9 10  1  0
 10 11  1  0
 10 12  2  0
 12 13  1  0
 12 14  1  0
 14 15  1  0
 15 16  2  0
 16 17  1  0
 17 18  2  0
 18 19  1  0
 19 20  1  0
 20 21  2  0
 20 22  2  0
 20 23  1  0
 23 24  1  0
 24 25  1  0
 25 26  1  0
 26 27  1  0
 27 28  1  0
 19 29  2  0
 14 30  1  0
 30 31  1  0
  6 32  1  0
 32 33  2  0
 33  3  1  0
 30  9  2  0
 29 15  1  0
 28 23  1  0
  1 34  1  0
  1 35  1  0
  1 36  1  0
  4 37  1  0
  5 38  1  0
 16 39  1  0
 17 40  1  0
 18 41  1  0
 24 42  1  0
 24 43  1  0
 25 44  1  0
 25 45  1  0
 27 46  1  0
 27 47  1  0
 28 48  1  0
 28 49  1  0
 29 50  1  0
 32 51  1  0
 33 52  1  0
M  CHG  3  11  -1  13  -1  31  -1
M  END
>  <UniqueID>  (31) 
31

>  <SMILES>  (31) 
COc1ccc(C(=O)c2c([O-])c([O-])n(-c3cccc(S(=O)(=O)N4CCOCC4)c3)c2[O-])cc1

>  <Energy>  (31) 
108.43539217414178

>  <Genealogy>  (31) 
COc1ccc(C(=O)c2c([O-])c([O-])n(-c3cccc(S(=O)(=O)N4CCOCC4)c3)c2[O-])cc1 (protonated)
COc1ccc(C(=O)c2c([O-])c([O-])n(-c3cccc(S(=O)(=O)N4CCOCC4)c3)c2[O-])cc1 (3D coordinates assigned)
COc1ccc(C(=O)c2c([O-])c([O-])n(-c3cccc(S(=O)(=O)N4CCOCC4)c3)c2[O-])cc1 (nonaromatic ring conformer: 108.43539217414178 kcal/mol)

>  <smiles>  (31) 
COc1ccc(C(=O)c2c(O)c(O)n(-c3cccc(S(=O)(=O)N4CCOCC4)c3)c2O)cc1

>  <score_type>  (31) 
oracle

>  <origin>  (31) 
adgpu

>  <m_score__min__energy>  (31) 
-15.359999999999999

>  <m_primary>  (31) 
energy

$$$$
31:0
     RDKit          3D

 45 49  0  0  0  0  0  0  0  0999 V2000
   -2.0010   23.6340  -30.0930 O   0  0  0  0  0  0  0  0  0  0  0  0
   -3.1950   23.4550  -30.4460 C   0  0  0  0  0  0  0  0  0  0  0  0
   -3.7850   22.2320  -30.4510 N   0  0  0  0  0  0  0  0  0  0  0  0
   -5.0200   22.5330  -30.8880 C   0  0  0  0  0  0  0  0  0  0  0  0
   -6.0870   21.6640  -31.1000 C   0  0  0  0  0  0  0  0  0  0  0  0
   -7.2980   22.2140  -31.5710 C   0  0  0  0  0  0  0  0  0  0  0  0
   -8.6850   21.1730  -31.8750 S   0  0  0  0  0  0  0  0  0  0  0  0
   -9.8350   22.0220  -32.3390 O   0  0  0  0  0  0  0  0  0  0  0  0
   -9.0880   20.4440  -30.6230 O   0  0  0  0  0  0  0  0  0  0  0  0
   -8.2970   20.0130  -33.1070 N   0  0  0  0  0  0  0  0  0  0  0  0
   -7.0200   19.3620  -33.2220 C   0  0  0  0  0  0  0  0  0  0  0  0
   -5.8970   20.0120  -33.8080 C   0  0  0  0  0  0  0  0  0  0  0  0
   -4.6590   19.3540  -33.9170 C   0  0  0  0  0  0  0  0  0  0  0  0
   -4.5730   18.0510  -33.4290 C   0  0  0  0  0  0  0  0  0  0  0  0
   -5.6390   17.4220  -32.8620 C   0  0  0  0  0  0  0  0  0  0  0  0
   -6.8790   18.0420  -32.7370 C   0  0  0  0  0  0  0  0  0  0  0  0
   -5.2990   16.1830  -32.4590 N   0  0  0  0  0  0  0  0  0  0  0  0
   -3.9890   16.0970  -32.8060 C   0  0  0  0  0  0  0  0  0  0  0  0
   -3.5200   17.2180  -33.4080 N   0  0  0  0  0  0  0  0  0  0  0  0
   -2.1430   17.4790  -33.8230 C   0  0  0  0  0  0  0  0  0  0  0  0
   -1.7050   18.8350  -33.3380 C   0  0  0  0  0  0  0  0  0  0  0  0
   -1.5990   19.0900  -31.9610 C   0  0  0  0  0  0  0  0  0  0  0  0
   -1.2240   20.3570  -31.5050 C   0  0  0  0  0  0  0  0  0  0  0  0
   -0.9590   21.3800  -32.4190 C   0  0  0  0  0  0  0  0  0  0  0  0
   -1.0660   21.1360  -33.7910 C   0  0  0  0  0  0  0  0  0  0  0  0
   -1.4410   19.8700  -34.2510 C   0  0  0  0  0  0  0  0  0  0  0  0
   -7.4010   23.6080  -31.8070 C   0  0  0  0  0  0  0  0  0  0  0  0
   -6.3000   24.4550  -31.5830 C   0  0  0  0  0  0  0  0  0  0  0  0
   -5.1250   23.8720  -31.1220 C   0  0  0  0  0  0  0  0  0  0  0  0
   -3.9830   24.4390  -30.8430 O   0  0  0  0  0  0  0  0  0  0  0  0
   -5.9892   20.5855  -30.9069 H   0  0  0  0  0  0  0  0  0  0  0  0
   -9.0170   19.8490  -33.8450 H   0  0  0  0  0  0  0  0  0  0  0  0
   -5.9991   21.0421  -34.1802 H   0  0  0  0  0  0  0  0  0  0  0  0
   -3.7888   19.8502  -34.3715 H   0  0  0  0  0  0  0  0  0  0  0  0
   -7.7274   17.5180  -32.2726 H   0  0  0  0  0  0  0  0  0  0  0  0
   -3.3703   15.2072  -32.6177 H   0  0  0  0  0  0  0  0  0  0  0  0
   -1.4825   16.7094  -33.3970 H   0  0  0  0  0  0  0  0  0  0  0  0
   -2.0870   17.4540  -34.9213 H   0  0  0  0  0  0  0  0  0  0  0  0
   -1.8121   18.2889  -31.2379 H   0  0  0  0  0  0  0  0  0  0  0  0
   -1.1374   20.5489  -30.4253 H   0  0  0  0  0  0  0  0  0  0  0  0
   -0.6662   22.3773  -32.0588 H   0  0  0  0  0  0  0  0  0  0  0  0
   -0.8549   21.9412  -34.5101 H   0  0  0  0  0  0  0  0  0  0  0  0
   -1.5297   19.6836  -35.3315 H   0  0  0  0  0  0  0  0  0  0  0  0
   -8.3499   24.0312  -32.1684 H   0  0  0  0  0  0  0  0  0  0  0  0
   -6.3664   25.5377  -31.7657 H   0  0  0  0  0  0  0  0  0  0  0  0
  1  2  2  0
  2  3  1  0
  3  4  1  0
  4  5  2  0
  5  6  1  0
  6  7  1  0
  7  8  2  0
  7  9  2  0
  7 10  1  0
 10 11  1  0
 11 12  2  0
 12 13  1  0
 13 14  2  0
 14 15  1  0
 15 16  2  0
 15 17  1  0
 17 18  2  0
 18 19  1  0
 19 20  1  0
 20 21  1  0
 21 22  2  0
 22 23  1  0
 23 24  2  0
 24 25  1  0
 25 26  2  0
  6 27  2  0
 27 28  1  0
 28 29  2  0
 29 30  1  0
 30  2  1  0
 29  4  1  0
 16 11  1  0
 26 21  1  0
 19 14  1  0
  5 31  1  0
 10 32  1  0
 12 33  1  0
 13 34  1  0
 16 35  1  0
 18 36  1  0
 20 37  1  0
 20 38  1  0
 22 39  1  0
 23 40  1  0
 24 41  1  0
 25 42  1  0
 26 43  1  0
 27 44  1  0
 28 45  1  0
M  CHG  1   3  -1
M  END
>  <UniqueID>  (32) 
32

>  <SMILES>  (32) 
O=c1[n-]c2cc(S(=O)(=O)Nc3ccc4c(c3)ncn4Cc3ccccc3)ccc2o1

>  <Energy>  (32) 
127.9938244543329

>  <Genealogy>  (32) 
O=c1[n-]c2cc(S(=O)(=O)Nc3ccc4c(c3)ncn4Cc3ccccc3)ccc2o1 (protonated)
O=c1[n-]c2cc(S(=O)(=O)Nc3ccc4c(c3)ncn4Cc3ccccc3)ccc2o1 (3D coordinates assigned)
O=c1[n-]c2cc(S(=O)(=O)Nc3ccc4c(c3)ncn4Cc3ccccc3)ccc2o1 (optimized conformer: 127.9938244543329 kcal/mol)

>  <smiles>  (32) 
O=c1[nH]c2cc(S(=O)(=O)Nc3ccc4c(c3)ncn4Cc3ccccc3)ccc2o1

>  <score_type>  (32) 
oracle

>  <origin>  (32) 
adgpu

>  <m_score__min__energy>  (32) 
-10.74

>  <m_primary>  (32) 
energy

$$$$
32:0
     RDKit          3D

 46 49  0  0  0  0  0  0  0  0999 V2000
    0.0860   22.3430  -26.1860 C   0  0  0  0  0  0  0  0  0  0  0  0
   -1.1200   22.8150  -26.9540 C   0  0  0  0  0  0  0  0  0  0  0  0
   -2.2070   21.9360  -27.0880 C   0  0  0  0  0  0  0  0  0  0  0  0
   -3.3440   22.3090  -27.7990 C   0  0  0  0  0  0  0  0  0  0  0  0
   -3.4280   23.5740  -28.3860 C   0  0  0  0  0  0  0  0  0  0  0  0
   -4.6050   23.9170  -29.1350 N   0  0  0  0  0  0  0  0  0  0  0  0
   -4.6170   24.0500  -30.5640 C   0  0  0  0  0  0  0  0  0  0  0  0
   -3.5350   24.1850  -31.1960 O   0  0  0  0  0  0  0  0  0  0  0  0
   -5.8530   24.1250  -31.2840 N   0  0  0  0  0  0  0  0  0  0  0  0
   -6.7620   23.0380  -31.5050 C   0  0  0  0  0  0  0  0  0  0  0  0
   -8.1190   23.3230  -31.7150 C   0  0  0  0  0  0  0  0  0  0  0  0
   -9.0330   22.2900  -31.9510 C   0  0  0  0  0  0  0  0  0  0  0  0
   -8.5880   20.9660  -31.9940 C   0  0  0  0  0  0  0  0  0  0  0  0
   -7.2270   20.6770  -31.8390 C   0  0  0  0  0  0  0  0  0  0  0  0
   -6.3150   21.7060  -31.5870 C   0  0  0  0  0  0  0  0  0  0  0  0
   -6.7980   19.3500  -31.9440 O   0  0  0  0  0  0  0  0  0  0  0  0
   -7.6580   18.3350  -32.4660 C   0  0  0  0  0  0  0  0  0  0  0  0
   -9.0970   18.5570  -31.9810 C   0  0  0  0  0  0  0  0  0  0  0  0
   -9.4890   19.9150  -32.1980 O   0  0  0  0  0  0  0  0  0  0  0  0
   -2.3390   24.4600  -28.2840 C   0  0  0  0  0  0  0  0  0  0  0  0
   -2.3820   25.6720  -28.9660 O   0  0  0  0  0  0  0  0  0  0  0  0
   -1.1960   24.1100  -27.5300 C   0  0  0  0  0  0  0  0  0  0  0  0
    0.1390   25.2790  -27.3820 S   0  0  0  0  0  0  0  0  0  0  0  0
    1.4040   24.6880  -27.9400 O   0  0  0  0  0  0  0  0  0  0  0  0
   -0.1600   26.5270  -28.1660 O   0  0  0  0  0  0  0  0  0  0  0  0
    0.3930   25.6390  -25.6450 C   0  0  0  0  0  0  0  0  0  0  0  0
   -0.4490   26.7960  -25.1300 C   0  0  0  0  0  0  0  0  0  0  0  0
   -0.7870   25.3700  -24.7230 C   0  0  0  0  0  0  0  0  0  0  0  0
   -0.1129   22.4209  -25.1069 H   0  0  0  0  0  0  0  0  0  0  0  0
    0.2987   21.2953  -26.4450 H   0  0  0  0  0  0  0  0  0  0  0  0
    0.9533   22.9680  -26.4450 H   0  0  0  0  0  0  0  0  0  0  0  0
   -2.1592   20.9394  -26.6249 H   0  0  0  0  0  0  0  0  0  0  0  0
   -4.1818   21.6033  -27.8994 H   0  0  0  0  0  0  0  0  0  0  0  0
   -5.4490   24.2380  -28.6080 H   0  0  0  0  0  0  0  0  0  0  0  0
   -8.4674   24.3661  -31.6940 H   0  0  0  0  0  0  0  0  0  0  0  0
  -10.0981   22.5194  -32.1022 H   0  0  0  0  0  0  0  0  0  0  0  0
   -5.2480   21.4747  -31.4528 H   0  0  0  0  0  0  0  0  0  0  0  0
   -7.6358   18.3702  -33.5652 H   0  0  0  0  0  0  0  0  0  0  0  0
   -7.3085   17.3532  -32.1140 H   0  0  0  0  0  0  0  0  0  0  0  0
   -9.7739   17.8907  -32.5357 H   0  0  0  0  0  0  0  0  0  0  0  0
   -9.1503   18.3364  -30.9047 H   0  0  0  0  0  0  0  0  0  0  0  0
    1.4574   25.3618  -25.6271 H   0  0  0  0  0  0  0  0  0  0  0  0
   -0.0303   27.4944  -24.3905 H   0  0  0  0  0  0  0  0  0  0  0  0
   -1.0029   27.6233  -25.5977 H   0  0  0  0  0  0  0  0  0  0  0  0
   -0.6126   25.0370  -23.6892 H   0  0  0  0  0  0  0  0  0  0  0  0
   -1.6864   24.7387  -24.7745 H   0  0  0  0  0  0  0  0  0  0  0  0
  1  2  1  0
  2  3  2  0
  3  4  1  0
  4  5  2  0
  5  6  1  0
  6  7  1  0
  7  8  2  0
  7  9  1  0
  9 10  1  0
 10 11  2  0
 11 12  1  0
 12 13  2  0
 13 14  1  0
 14 15  2  0
 14 16  1  0
 16 17  1  0
 17 18  1  0
 18 19  1  0
  5 20  1  0
 20 21  1  0
 20 22  2  0
 22 23  1  0
 23 24  2  0
 23 25  2  0
 23 26  1  0
 26 27  1  0
 27 28  1  0
 22  2  1  0
 28 26  1  0
 15 10  1  0
 19 13  1  0
  1 29  1  0
  1 30  1  0
  1 31  1  0
  3 32  1  0
  4 33  1  0
  6 34  1  0
 11 35  1  0
 12 36  1  0
 15 37  1  0
 17 38  1  0
 17 39  1  0
 18 40  1  0
 18 41  1  0
 26 42  1  0
 27 43  1  0
 27 44  1  0
 28 45  1  0
 28 46  1  0
M  CHG  2   9  -1  21  -1
M  END
>  <UniqueID>  (33) 
33

>  <SMILES>  (33) 
Cc1ccc(NC(=O)[N-]c2ccc3c(c2)OCCO3)c([O-])c1S(=O)(=O)C1CC1

>  <Energy>  (33) 
324.41018947437044

>  <Genealogy>  (33) 
Cc1ccc(NC(=O)[N-]c2ccc3c(c2)OCCO3)c([O-])c1S(=O)(=O)C1CC1 (protonated)
Cc1ccc(NC(=O)[N-]c2ccc3c(c2)OCCO3)c([O-])c1S(=O)(=O)C1CC1 (3D coordinates assigned)
Cc1ccc(NC(=O)[N-]c2ccc3c(c2)OCCO3)c([O-])c1S(=O)(=O)C1CC1 (nonaromatic ring conformer: 324.41018947437044 kcal/mol)

>  <smiles>  (33) 
Cc1ccc(NC(=O)Nc2ccc3c(c2)OCCO3)c(O)c1S(=O)(=O)C1CC1

>  <score_type>  (33) 
oracle

>  <origin>  (33) 
adgpu

>  <m_score__min__energy>  (33) 
-13.039999999999999

>  <m_primary>  (33) 
energy

$$$$
33:0
     RDKit          3D

 50 53  0  0  0  0  0  0  0  0999 V2000
   -4.9300   21.4510  -33.0840 C   0  0  0  0  0  0  0  0  0  0  0  0
   -3.8850   21.6270  -32.0800 N   0  0  0  0  0  0  0  0  0  0  0  0
   -2.7750   20.9070  -32.0620 N   0  0  0  0  0  0  0  0  0  0  0  0
   -2.0530   21.3000  -30.9940 C   0  0  0  0  0  0  0  0  0  0  0  0
   -0.7510   20.7280  -30.6310 C   0  0  0  0  0  0  0  0  0  0  0  0
   -0.3330   19.6970  -31.2250 O   0  0  0  0  0  0  0  0  0  0  0  0
    0.0540   21.3790  -29.6410 N   0  0  0  0  0  0  0  0  0  0  0  0
   -0.3560   22.4430  -28.7700 C   0  0  0  0  0  0  0  0  0  0  0  0
   -1.1040   22.1270  -27.6290 C   0  0  0  0  0  0  0  0  0  0  0  0
   -1.5080   23.1310  -26.7440 C   0  0  0  0  0  0  0  0  0  0  0  0
   -1.1540   24.4650  -26.9840 C   0  0  0  0  0  0  0  0  0  0  0  0
   -1.6370   25.7430  -25.8730 S   0  0  0  0  0  0  0  0  0  0  0  0
   -1.4270   27.0670  -26.5520 O   0  0  0  0  0  0  0  0  0  0  0  0
   -3.0950   25.6040  -25.5240 O   0  0  0  0  0  0  0  0  0  0  0  0
   -0.6600   25.6590  -24.4230 N   0  0  0  0  0  0  0  0  0  0  0  0
    0.7670   25.6980  -24.7610 C   0  0  0  0  0  0  0  0  0  0  0  0
    1.2670   24.2660  -24.8790 C   0  0  0  0  0  0  0  0  0  0  0  0
    0.2050   23.4070  -24.2180 C   0  0  0  0  0  0  0  0  0  0  0  0
   -0.8650   24.3780  -23.7380 C   0  0  0  0  0  0  0  0  0  0  0  0
   -0.3820   24.7840  -28.1090 C   0  0  0  0  0  0  0  0  0  0  0  0
    0.0200   23.7800  -28.9950 C   0  0  0  0  0  0  0  0  0  0  0  0
   -2.7220   22.3010  -30.3110 C   0  0  0  0  0  0  0  0  0  0  0  0
   -3.8760   22.4960  -31.0430 C   0  0  0  0  0  0  0  0  0  0  0  0
   -4.9430   23.4600  -30.7080 C   0  0  0  0  0  0  0  0  0  0  0  0
   -6.2720   23.0140  -30.6160 C   0  0  0  0  0  0  0  0  0  0  0  0
   -7.2980   23.9100  -30.3030 C   0  0  0  0  0  0  0  0  0  0  0  0
   -7.0050   25.2560  -30.0690 C   0  0  0  0  0  0  0  0  0  0  0  0
   -5.6840   25.7060  -30.1380 C   0  0  0  0  0  0  0  0  0  0  0  0
   -4.6510   24.8130  -30.4450 C   0  0  0  0  0  0  0  0  0  0  0  0
   -3.3390   25.2730  -30.4610 O   0  0  0  0  0  0  0  0  0  0  0  0
   -5.8958   21.2883  -32.5833 H   0  0  0  0  0  0  0  0  0  0  0  0
   -4.9900   22.3517  -33.7126 H   0  0  0  0  0  0  0  0  0  0  0  0
   -4.6916   20.5804  -33.7126 H   0  0  0  0  0  0  0  0  0  0  0  0
   -1.3759   21.0803  -27.4275 H   0  0  0  0  0  0  0  0  0  0  0  0
   -2.1053   22.8729  -25.8571 H   0  0  0  0  0  0  0  0  0  0  0  0
    0.9088   26.2219  -25.7177 H   0  0  0  0  0  0  0  0  0  0  0  0
    1.3278   26.2331  -23.9805 H   0  0  0  0  0  0  0  0  0  0  0  0
    1.3839   23.9861  -25.9363 H   0  0  0  0  0  0  0  0  0  0  0  0
    2.2496   24.1374  -24.4016 H   0  0  0  0  0  0  0  0  0  0  0  0
   -0.2188   22.6954  -24.9418 H   0  0  0  0  0  0  0  0  0  0  0  0
    0.6185   22.8139  -23.3890 H   0  0  0  0  0  0  0  0  0  0  0  0
   -1.8626   23.9821  -23.9789 H   0  0  0  0  0  0  0  0  0  0  0  0
   -0.7949   24.5135  -22.6486 H   0  0  0  0  0  0  0  0  0  0  0  0
   -0.0912   25.8283  -28.2958 H   0  0  0  0  0  0  0  0  0  0  0  0
    0.6329   24.0364  -29.8717 H   0  0  0  0  0  0  0  0  0  0  0  0
   -2.4064   22.8217  -29.3949 H   0  0  0  0  0  0  0  0  0  0  0  0
   -6.5064   21.9537  -30.7913 H   0  0  0  0  0  0  0  0  0  0  0  0
   -8.3373   23.5551  -30.2408 H   0  0  0  0  0  0  0  0  0  0  0  0
   -7.8145   25.9615  -29.8304 H   0  0  0  0  0  0  0  0  0  0  0  0
   -5.4552   26.7655  -29.9504 H   0  0  0  0  0  0  0  0  0  0  0  0
  1  2  1  0
  2  3  1  0
  3  4  2  0
  4  5  1  0
  5  6  2  0
  5  7  1  0
  7  8  1  0
  8  9  2  0
  9 10  1  0
 10 11  2  0
 11 12  1  0
 12 13  2  0
 12 14  2  0
 12 15  1  0
 15 16  1  0
 16 17  1  0
 17 18  1  0
 18 19  1  0
 11 20  1  0
 20 21  2  0
  4 22  1  0
 22 23  2  0
 23 24  1  0
 24 25  2  0
 25 26  1  0
 26 27  2  0
 27 28  1  0
 28 29  2  0
 29 30  1  0
 23  2  1  0
 29 24  1  0
 21  8  1  0
 19 15  1  0
  1 31  1  0
  1 32  1  0
  1 33  1  0
  9 34  1  0
 10 35  1  0
 16 36  1  0
 16 37  1  0
 17 38  1  0
 17 39  1  0
 18 40  1  0
 18 41  1  0
 19 42  1  0
 19 43  1  0
 20 44  1  0
 21 45  1  0
 22 46  1  0
 25 47  1  0
 26 48  1  0
 27 49  1  0
 28 50  1  0
M  CHG  2   7  -1  30  -1
M  END
>  <UniqueID>  (34) 
34

>  <SMILES>  (34) 
Cn1nc(C(=O)[N-]c2ccc(S(=O)(=O)N3CCCC3)cc2)cc1-c1ccccc1[O-]

>  <Energy>  (34) 
92.8657835762731

>  <Genealogy>  (34) 
Cn1nc(C(=O)[N-]c2ccc(S(=O)(=O)N3CCCC3)cc2)cc1-c1ccccc1[O-] (protonated)
Cn1nc(C(=O)[N-]c2ccc(S(=O)(=O)N3CCCC3)cc2)cc1-c1ccccc1[O-] (3D coordinates assigned)
Cn1nc(C(=O)[N-]c2ccc(S(=O)(=O)N3CCCC3)cc2)cc1-c1ccccc1[O-] (nonaromatic ring conformer: 92.8657835762731 kcal/mol)

>  <smiles>  (34) 
Cn1nc(C(=O)Nc2ccc(S(=O)(=O)N3CCCC3)cc2)cc1-c1ccccc1O

>  <score_type>  (34) 
oracle

>  <origin>  (34) 
adgpu

>  <m_score__min__energy>  (34) 
-12.43

>  <m_primary>  (34) 
energy

$$$$
34:0
     RDKit          3D

 46 48  0  0  0  0  0  0  0  0999 V2000
   -1.1840   22.9270  -29.9150 C   0  0  0  0  0  0  0  0  0  0  0  0
   -1.5390   24.2710  -29.6090 O   0  0  0  0  0  0  0  0  0  0  0  0
   -1.6580   24.7910  -28.3080 C   0  0  0  0  0  0  0  0  0  0  0  0
   -0.6380   25.5650  -27.7200 C   0  0  0  0  0  0  0  0  0  0  0  0
   -0.7940   26.0780  -26.4310 C   0  0  0  0  0  0  0  0  0  0  0  0
   -1.9670   25.8320  -25.7150 C   0  0  0  0  0  0  0  0  0  0  0  0
   -2.9860   25.0660  -26.2850 C   0  0  0  0  0  0  0  0  0  0  0  0
   -2.8360   24.5300  -27.5730 C   0  0  0  0  0  0  0  0  0  0  0  0
   -3.9610   23.7370  -28.1900 C   0  0  0  0  0  0  0  0  0  0  0  0
   -5.0560   24.6310  -28.5840 N   0  0  0  0  0  0  0  0  0  0  0  0
   -5.1350   24.7330  -30.3170 S   0  0  0  0  0  0  0  0  0  0  0  0
   -6.2660   25.6420  -30.7160 O   0  0  0  0  0  0  0  0  0  0  0  0
   -3.8480   25.3030  -30.8430 O   0  0  0  0  0  0  0  0  0  0  0  0
   -5.3690   23.1200  -30.9910 C   0  0  0  0  0  0  0  0  0  0  0  0
   -4.2930   22.4010  -31.5050 C   0  0  0  0  0  0  0  0  0  0  0  0
   -4.4960   21.1550  -32.0920 C   0  0  0  0  0  0  0  0  0  0  0  0
   -5.7930   20.5910  -32.1850 C   0  0  0  0  0  0  0  0  0  0  0  0
   -6.8970   21.3220  -31.6580 C   0  0  0  0  0  0  0  0  0  0  0  0
   -6.6570   22.5830  -31.0590 C   0  0  0  0  0  0  0  0  0  0  0  0
   -8.1700   20.7970  -31.7470 N   0  0  0  0  0  0  0  0  0  0  0  0
   -9.3310   21.5370  -31.2080 C   0  0  0  0  0  0  0  0  0  0  0  0
   -8.3600   19.5790  -32.3450 C   0  0  0  0  0  0  0  0  0  0  0  0
   -9.5180   19.0820  -32.4400 O   0  0  0  0  0  0  0  0  0  0  0  0
   -7.2770   18.8620  -32.8590 C   0  0  0  0  0  0  0  0  0  0  0  0
   -7.4940   17.7420  -33.4030 O   0  0  0  0  0  0  0  0  0  0  0  0
   -6.0040   19.3650  -32.7760 N   0  0  0  0  0  0  0  0  0  0  0  0
   -4.8740   18.5870  -33.3270 C   0  0  0  0  0  0  0  0  0  0  0  0
   -1.0356   22.3652  -28.9810 H   0  0  0  0  0  0  0  0  0  0  0  0
   -1.9894   22.4592  -30.5002 H   0  0  0  0  0  0  0  0  0  0  0  0
   -0.2527   22.9179  -30.5002 H   0  0  0  0  0  0  0  0  0  0  0  0
    0.2871   25.7663  -28.2801 H   0  0  0  0  0  0  0  0  0  0  0  0
    0.0094   26.6776  -25.9783 H   0  0  0  0  0  0  0  0  0  0  0  0
   -2.0886   26.2417  -24.7014 H   0  0  0  0  0  0  0  0  0  0  0  0
   -3.9121   24.8817  -25.7207 H   0  0  0  0  0  0  0  0  0  0  0  0
   -3.5871   23.2072  -29.0786 H   0  0  0  0  0  0  0  0  0  0  0  0
   -4.3369   23.0137  -27.4514 H   0  0  0  0  0  0  0  0  0  0  0  0
   -4.8480   25.5990  -28.2430 H   0  0  0  0  0  0  0  0  0  0  0  0
   -3.2774   22.8196  -31.4470 H   0  0  0  0  0  0  0  0  0  0  0  0
   -3.6349   20.5986  -32.4905 H   0  0  0  0  0  0  0  0  0  0  0  0
   -7.5009   23.1503  -30.6394 H   0  0  0  0  0  0  0  0  0  0  0  0
   -9.3001   21.5173  -30.1086 H   0  0  0  0  0  0  0  0  0  0  0  0
   -9.2956   22.5795  -31.5572 H   0  0  0  0  0  0  0  0  0  0  0  0
  -10.2611   21.0647  -31.5572 H   0  0  0  0  0  0  0  0  0  0  0  0
   -4.2754   18.1749  -32.5013 H   0  0  0  0  0  0  0  0  0  0  0  0
   -5.2623   17.7639  -33.9448 H   0  0  0  0  0  0  0  0  0  0  0  0
   -4.2436   19.2434  -33.9448 H   0  0  0  0  0  0  0  0  0  0  0  0
  1  2  1  0
  2  3  1  0
  3  4  2  0
  4  5  1  0
  5  6  2  0
  6  7  1  0
  7  8  2  0
  8  9  1  0
  9 10  1  0
 10 11  1  0
 11 12  2  0
 11 13  2  0
 11 14  1  0
 14 15  2  0
 15 16  1  0
 16 17  2  0
 17 18  1  0
 18 19  2  0
 18 20  1  0
 20 21  1  0
 20 22  1  0
 22 23  2  0
 22 24  1  0
 24 25  2  0
 24 26  1  0
 26 27  1  0
  8  3  1  0
 19 14  1  0
 26 17  1  0
  1 28  1  0
  1 29  1  0
  1 30  1  0
  4 31  1  0
  5 32  1  0
  6 33  1  0
  7 34  1  0
  9 35  1  0
  9 36  1  0
 10 37  1  0
 15 38  1  0
 16 39  1  0
 19 40  1  0
 21 41  1  0
 21 42  1  0
 21 43  1  0
 27 44  1  0
 27 45  1  0
 27 46  1  0
M  END
>  <UniqueID>  (35) 
35

>  <SMILES>  (35) 
COc1ccccc1CNS(=O)(=O)c1ccc2c(c1)n(C)c(=O)c(=O)n2C

>  <Energy>  (35) 
61.19795282593507

>  <Genealogy>  (35) 
COc1ccccc1CNS(=O)(=O)c1ccc2c(c1)n(C)c(=O)c(=O)n2C (3D coordinates assigned)
COc1ccccc1CNS(=O)(=O)c1ccc2c(c1)n(C)c(=O)c(=O)n2C (optimized conformer: 61.19795282593507 kcal/mol)

>  <smiles>  (35) 
COc1ccccc1CNS(=O)(=O)c1ccc2c(c1)n(C)c(=O)c(=O)n2C

>  <score_type>  (35) 
oracle

>  <origin>  (35) 
adgpu

>  <m_score__min__energy>  (35) 
-10.359999999999999

>  <m_primary>  (35) 
energy

$$$$
35:0
     RDKit          3D

 51 54  0  0  0  0  0  0  0  0999 V2000
   -3.9160   25.4540  -30.7530 O   0  0  0  0  0  0  0  0  0  0  0  0
   -3.9790   23.9940  -30.3950 S   0  0  0  0  0  0  0  0  0  0  0  0
   -5.1310   23.7840  -29.4520 O   0  0  0  0  0  0  0  0  0  0  0  0
   -4.2340   23.0500  -31.8280 N   0  0  0  0  0  0  0  0  0  0  0  0
   -5.3960   22.2480  -32.1050 C   0  0  0  0  0  0  0  0  0  0  0  0
   -6.6750   22.6920  -31.7430 C   0  0  0  0  0  0  0  0  0  0  0  0
   -7.8040   21.9280  -32.0210 C   0  0  0  0  0  0  0  0  0  0  0  0
   -7.6890   20.6940  -32.6670 C   0  0  0  0  0  0  0  0  0  0  0  0
   -8.8770   20.0160  -32.9510 O   0  0  0  0  0  0  0  0  0  0  0  0
   -6.4060   20.1970  -33.0130 C   0  0  0  0  0  0  0  0  0  0  0  0
   -6.2320   18.9330  -33.6110 C   0  0  0  0  0  0  0  0  0  0  0  0
   -4.9580   18.4780  -33.9590 C   0  0  0  0  0  0  0  0  0  0  0  0
   -3.8400   19.2680  -33.7160 C   0  0  0  0  0  0  0  0  0  0  0  0
   -3.9800   20.5090  -33.1010 C   0  0  0  0  0  0  0  0  0  0  0  0
   -5.2550   20.9900  -32.7350 C   0  0  0  0  0  0  0  0  0  0  0  0
   -2.4930   23.4640  -29.6060 C   0  0  0  0  0  0  0  0  0  0  0  0
   -2.1460   22.1060  -29.5930 C   0  0  0  0  0  0  0  0  0  0  0  0
   -0.9940   21.6700  -28.9180 C   0  0  0  0  0  0  0  0  0  0  0  0
   -0.5750   19.9540  -28.8900 S   0  0  0  0  0  0  0  0  0  0  0  0
    0.8040   19.7860  -28.3100 O   0  0  0  0  0  0  0  0  0  0  0  0
   -1.5430   19.2270  -27.9990 O   0  0  0  0  0  0  0  0  0  0  0  0
   -0.6300   19.2440  -30.4860 N   0  0  0  0  0  0  0  0  0  0  0  0
   -0.2470   20.2410  -31.5020 C   0  0  0  0  0  0  0  0  0  0  0  0
   -0.5220   19.6970  -32.9180 C   0  0  0  0  0  0  0  0  0  0  0  0
   -0.5980   18.1610  -32.9550 C   0  0  0  0  0  0  0  0  0  0  0  0
    0.4160   17.5310  -31.9900 C   0  0  0  0  0  0  0  0  0  0  0  0
    0.2580   18.0680  -30.5500 C   0  0  0  0  0  0  0  0  0  0  0  0
   -0.1820   22.6050  -28.2610 C   0  0  0  0  0  0  0  0  0  0  0  0
   -0.5150   23.9620  -28.2850 C   0  0  0  0  0  0  0  0  0  0  0  0
   -1.6690   24.3940  -28.9480 C   0  0  0  0  0  0  0  0  0  0  0  0
   -1.9900   25.7450  -28.9450 O   0  0  0  0  0  0  0  0  0  0  0  0
   -6.7880   23.6592  -31.2313 H   0  0  0  0  0  0  0  0  0  0  0  0
   -8.7976   22.2991  -31.7293 H   0  0  0  0  0  0  0  0  0  0  0  0
   -9.1580   19.7160  -33.8740 H   0  0  0  0  0  0  0  0  0  0  0  0
   -7.1087   18.2979  -33.8058 H   0  0  0  0  0  0  0  0  0  0  0  0
   -4.8387   17.4900  -34.4275 H   0  0  0  0  0  0  0  0  0  0  0  0
   -2.8420   18.9114  -34.0106 H   0  0  0  0  0  0  0  0  0  0  0  0
   -3.0883   21.1204  -32.8985 H   0  0  0  0  0  0  0  0  0  0  0  0
   -2.7811   21.3757  -30.1158 H   0  0  0  0  0  0  0  0  0  0  0  0
   -0.8315   21.1599  -31.3467 H   0  0  0  0  0  0  0  0  0  0  0  0
    0.8274   20.4559  -31.4043 H   0  0  0  0  0  0  0  0  0  0  0  0
   -1.4793   20.1061  -33.2732 H   0  0  0  0  0  0  0  0  0  0  0  0
    0.3141   20.0057  -33.5626 H   0  0  0  0  0  0  0  0  0  0  0  0
   -1.6115   17.8450  -32.6669 H   0  0  0  0  0  0  0  0  0  0  0  0
   -0.3621   17.8253  -33.9756 H   0  0  0  0  0  0  0  0  0  0  0  0
    0.2671   16.4412  -31.9806 H   0  0  0  0  0  0  0  0  0  0  0  0
    1.4253   17.7926  -32.3405 H   0  0  0  0  0  0  0  0  0  0  0  0
   -0.1638   17.2714  -29.9196 H   0  0  0  0  0  0  0  0  0  0  0  0
    1.2522   18.3770  -30.1948 H   0  0  0  0  0  0  0  0  0  0  0  0
    0.7187   22.2700  -27.7257 H   0  0  0  0  0  0  0  0  0  0  0  0
    0.1330   24.6938  -27.7804 H   0  0  0  0  0  0  0  0  0  0  0  0
  1  2  2  0
  2  3  2  0
  2  4  1  0
  4  5  1  0
  5  6  2  0
  6  7  1  0
  7  8  2  0
  8  9  1  0
  8 10  1  0
 10 11  2  0
 11 12  1  0
 12 13  2  0
 13 14  1  0
 14 15  2  0
  2 16  1  0
 16 17  2  0
 17 18  1  0
 18 19  1  0
 19 20  2  0
 19 21  2  0
 19 22  1  0
 22 23  1  0
 23 24  1  0
 24 25  1  0
 25 26  1  0
 26 27  1  0
 18 28  2  0
 28 29  1  0
 29 30  2  0
 30 31  1  0
 15  5  1  0
 30 16  1  0
 15 10  1  0
 27 22  1  0
  6 32  1  0
  7 33  1  0
  9 34  1  0
 11 35  1  0
 12 36  1  0
 13 37  1  0
 14 38  1  0
 17 39  1  0
 23 40  1  0
 23 41  1  0
 24 42  1  0
 24 43  1  0
 25 44  1  0
 25 45  1  0
 26 46  1  0
 26 47  1  0
 27 48  1  0
 27 49  1  0
 28 50  1  0
 29 51  1  0
M  CHG  2   4  -1  31  -1
M  END
>  <UniqueID>  (36) 
36

>  <SMILES>  (36) 
O=S(=O)([N-]c1ccc(O)c2ccccc12)c1cc(S(=O)(=O)N2CCCCC2)ccc1[O-]

>  <Energy>  (36) 
68.84510532424429

>  <Genealogy>  (36) 
O=S(=O)([N-]c1ccc(O)c2ccccc12)c1cc(S(=O)(=O)N2CCCCC2)ccc1[O-] (protonated)
O=S(=O)([N-]c1ccc(O)c2ccccc12)c1cc(S(=O)(=O)N2CCCCC2)ccc1[O-] (3D coordinates assigned)
O=S(=O)([N-]c1ccc(O)c2ccccc12)c1cc(S(=O)(=O)N2CCCCC2)ccc1[O-] (nonaromatic ring conformer: 68.84510532424429 kcal/mol)

>  <smiles>  (36) 
O=S(=O)(Nc1ccc(O)c2ccccc12)c1cc(S(=O)(=O)N2CCCCC2)ccc1O

>  <score_type>  (36) 
oracle

>  <origin>  (36) 
adgpu

>  <m_score__min__energy>  (36) 
-14.449999999999999

>  <m_primary>  (36) 
energy

$$$$
36:0
     RDKit          3D

 55 58  0  0  0  0  0  0  0  0999 V2000
    0.5980   28.4840  -38.2750 C   0  0  0  0  0  0  0  0  0  0  0  0
    0.6810   27.1260  -37.6430 C   0  0  0  0  0  0  0  0  0  0  0  0
    1.9200   26.4820  -37.5130 C   0  0  0  0  0  0  0  0  0  0  0  0
    2.0030   25.2310  -36.8920 C   0  0  0  0  0  0  0  0  0  0  0  0
    0.8500   24.6130  -36.3820 C   0  0  0  0  0  0  0  0  0  0  0  0
    0.9420   23.2900  -35.7330 C   0  0  0  0  0  0  0  0  0  0  0  0
   -0.1140   22.6430  -35.1960 N   0  0  0  0  0  0  0  0  0  0  0  0
    0.4250   21.4970  -34.7390 C   0  0  0  0  0  0  0  0  0  0  0  0
   -0.3560   20.3960  -34.0680 C   0  0  0  0  0  0  0  0  0  0  0  0
   -1.8270   20.5450  -34.2030 N   0  0  0  0  0  0  0  0  0  0  0  0
   -2.5370   19.2280  -34.2060 C   0  0  0  0  0  0  0  0  0  0  0  0
   -3.5300   19.0670  -33.0470 C   0  0  0  0  0  0  0  0  0  0  0  0
   -4.4280   20.2210  -33.0210 N   0  0  0  0  0  0  0  0  0  0  0  0
   -5.8040   20.0520  -32.6590 C   0  0  0  0  0  0  0  0  0  0  0  0
   -6.4070   20.9840  -31.8020 C   0  0  0  0  0  0  0  0  0  0  0  0
   -7.7440   20.8280  -31.4070 C   0  0  0  0  0  0  0  0  0  0  0  0
   -8.3930   21.8470  -30.5180 C   0  0  0  0  0  0  0  0  0  0  0  0
   -8.4850   19.7460  -31.8980 C   0  0  0  0  0  0  0  0  0  0  0  0
   -7.8930   18.8150  -32.7540 C   0  0  0  0  0  0  0  0  0  0  0  0
   -6.5540   18.9630  -33.1510 C   0  0  0  0  0  0  0  0  0  0  0  0
   -5.9310   17.9450  -34.0670 C   0  0  0  0  0  0  0  0  0  0  0  0
   -3.8940   21.5690  -33.2390 C   0  0  0  0  0  0  0  0  0  0  0  0
   -2.3620   21.5420  -33.2380 C   0  0  0  0  0  0  0  0  0  0  0  0
    1.7760   21.4870  -35.0070 C   0  0  0  0  0  0  0  0  0  0  0  0
    2.0620   22.6080  -35.6200 O   0  0  0  0  0  0  0  0  0  0  0  0
   -0.3870   25.2690  -36.4980 C   0  0  0  0  0  0  0  0  0  0  0  0
   -0.4700   26.5180  -37.1190 C   0  0  0  0  0  0  0  0  0  0  0  0
    0.5511   29.2520  -37.4889 H   0  0  0  0  0  0  0  0  0  0  0  0
    1.4875   28.6527  -38.8998 H   0  0  0  0  0  0  0  0  0  0  0  0
   -0.3054   28.5431  -38.8998 H   0  0  0  0  0  0  0  0  0  0  0  0
    2.8304   26.9624  -37.9009 H   0  0  0  0  0  0  0  0  0  0  0  0
    2.9775   24.7286  -36.8028 H   0  0  0  0  0  0  0  0  0  0  0  0
   -0.0608   19.4363  -34.5173 H   0  0  0  0  0  0  0  0  0  0  0  0
   -0.1237   20.4434  -32.9939 H   0  0  0  0  0  0  0  0  0  0  0  0
   -1.9750   20.9640  -35.1520 H   0  0  0  0  0  0  0  0  0  0  0  0
   -3.0881   19.1314  -35.1531 H   0  0  0  0  0  0  0  0  0  0  0  0
   -1.7716   18.4468  -34.0881 H   0  0  0  0  0  0  0  0  0  0  0  0
   -4.1164   18.1473  -33.1897 H   0  0  0  0  0  0  0  0  0  0  0  0
   -2.9814   19.0034  -32.0957 H   0  0  0  0  0  0  0  0  0  0  0  0
   -5.8270   21.8442  -31.4366 H   0  0  0  0  0  0  0  0  0  0  0  0
   -8.2215   21.5776  -29.4654 H   0  0  0  0  0  0  0  0  0  0  0  0
   -7.9592   22.8378  -30.7183 H   0  0  0  0  0  0  0  0  0  0  0  0
   -9.4743   21.8728  -30.7183 H   0  0  0  0  0  0  0  0  0  0  0  0
   -9.5395   19.6288  -31.6077 H   0  0  0  0  0  0  0  0  0  0  0  0
   -8.4797   17.9595  -33.1200 H   0  0  0  0  0  0  0  0  0  0  0  0
   -5.4496   17.1583  -33.4675 H   0  0  0  0  0  0  0  0  0  0  0  0
   -6.7100   17.4974  -34.7016 H   0  0  0  0  0  0  0  0  0  0  0  0
   -5.1779   18.4350  -34.7016 H   0  0  0  0  0  0  0  0  0  0  0  0
   -4.2494   21.9474  -34.2088 H   0  0  0  0  0  0  0  0  0  0  0  0
   -4.2403   22.2260  -32.4276 H   0  0  0  0  0  0  0  0  0  0  0  0
   -1.9881   22.5394  -33.5124 H   0  0  0  0  0  0  0  0  0  0  0  0
   -2.0255   21.2573  -32.2302 H   0  0  0  0  0  0  0  0  0  0  0  0
    2.4844   20.6848  -34.7528 H   0  0  0  0  0  0  0  0  0  0  0  0
   -1.2959   24.7964  -36.0974 H   0  0  0  0  0  0  0  0  0  0  0  0
   -1.4420   27.0269  -37.1974 H   0  0  0  0  0  0  0  0  0  0  0  0
  1  2  1  0
  2  3  2  0
  3  4  1  0
  4  5  2  0
  5  6  1  0
  6  7  2  0
  7  8  1  0
  8  9  1  0
  9 10  1  0
 10 11  1  0
 11 12  1  0
 12 13  1  0
 13 14  1  0
 14 15  2  0
 15 16  1  0
 16 17  1  0
 16 18  2  0
 18 19  1  0
 19 20  2  0
 20 21  1  0
 13 22  1  0
 22 23  1  0
  8 24  2  0
 24 25  1  0
  5 26  1  0
 26 27  2  0
 27  2  1  0
 25  6  1  0
 23 10  1  0
 20 14  1  0
  1 28  1  0
  1 29  1  0
  1 30  1  0
  3 31  1  0
  4 32  1  0
  9 33  1  0
  9 34  1  0
 10 35  1  0
 11 36  1  0
 11 37  1  0
 12 38  1  0
 12 39  1  0
 15 40  1  0
 17 41  1  0
 17 42  1  0
 17 43  1  0
 18 44  1  0
 19 45  1  0
 21 46  1  0
 21 47  1  0
 21 48  1  0
 22 49  1  0
 22 50  1  0
 23 51  1  0
 23 52  1  0
 24 53  1  0
 26 54  1  0
 27 55  1  0
M  CHG  1  10   1
M  END
>  <UniqueID>  (37) 
37

>  <SMILES>  (37) 
Cc1ccc(-c2nc(C[NH+]3CCN(c4cc(C)ccc4C)CC3)co2)cc1

>  <Energy>  (37) 
99.31815407603703

>  <Genealogy>  (37) 
Cc1ccc(-c2nc(C[NH+]3CCN(c4cc(C)ccc4C)CC3)co2)cc1 (protonated)
Cc1ccc(-c2nc(C[NH+]3CCN(c4cc(C)ccc4C)CC3)co2)cc1 (3D coordinates assigned)
Cc1ccc(-c2nc(C[NH+]3CCN(c4cc(C)ccc4C)CC3)co2)cc1 (nonaromatic ring conformer: 99.31815407603703 kcal/mol)

>  <smiles>  (37) 
Cc1ccc(-c2nc(CN3CCN(c4cc(C)ccc4C)CC3)co2)cc1

>  <score_type>  (37) 
oracle

>  <origin>  (37) 
adgpu

>  <m_score__min__energy>  (37) 
-8.8499999999999996

>  <m_primary>  (37) 
energy

$$$$
37:0
     RDKit          3D

 45 47  0  0  0  0  0  0  0  0999 V2000
   -2.7170   19.2660  -26.6570 C   0  0  0  0  0  0  0  0  0  0  0  0
   -1.3980   19.4880  -27.3900 C   0  0  0  0  0  0  0  0  0  0  0  0
   -1.0450   20.8730  -27.4040 O   0  0  0  0  0  0  0  0  0  0  0  0
   -1.6590   21.8630  -28.1880 C   0  0  0  0  0  0  0  0  0  0  0  0
   -1.6850   21.8180  -29.5950 C   0  0  0  0  0  0  0  0  0  0  0  0
   -2.3330   22.8220  -30.3210 C   0  0  0  0  0  0  0  0  0  0  0  0
   -2.9550   23.8870  -29.6620 C   0  0  0  0  0  0  0  0  0  0  0  0
   -3.5640   24.9220  -30.4450 N   0  0  0  0  0  0  0  0  0  0  0  0
   -4.9660   25.1990  -30.5320 C   0  0  0  0  0  0  0  0  0  0  0  0
   -5.3890   26.3870  -30.5580 O   0  0  0  0  0  0  0  0  0  0  0  0
   -5.9330   24.0650  -30.5890 C   0  0  0  0  0  0  0  0  0  0  0  0
   -6.4470   23.8210  -32.3280 S   0  0  0  0  0  0  0  0  0  0  0  0
   -7.6030   22.4940  -31.9690 C   0  0  0  0  0  0  0  0  0  0  0  0
   -8.8100   22.7100  -31.4100 N   0  0  0  0  0  0  0  0  0  0  0  0
   -9.3540   21.5240  -31.1840 N   0  0  0  0  0  0  0  0  0  0  0  0
   -8.4620   20.6090  -31.6040 C   0  0  0  0  0  0  0  0  0  0  0  0
   -8.6700   19.3660  -31.5530 O   0  0  0  0  0  0  0  0  0  0  0  0
   -7.3490   21.1730  -32.1130 N   0  0  0  0  0  0  0  0  0  0  0  0
   -6.1660   20.5200  -32.6130 C   0  0  0  0  0  0  0  0  0  0  0  0
   -4.8870   20.9800  -32.2550 C   0  0  0  0  0  0  0  0  0  0  0  0
   -3.7440   20.3480  -32.7540 C   0  0  0  0  0  0  0  0  0  0  0  0
   -3.8640   19.2680  -33.6330 C   0  0  0  0  0  0  0  0  0  0  0  0
   -5.1330   18.8120  -34.0190 C   0  0  0  0  0  0  0  0  0  0  0  0
   -5.2660   17.6410  -34.9460 C   0  0  0  0  0  0  0  0  0  0  0  0
   -6.2790   19.4260  -33.4900 C   0  0  0  0  0  0  0  0  0  0  0  0
   -2.8970   23.9560  -28.2590 C   0  0  0  0  0  0  0  0  0  0  0  0
   -2.2630   22.9450  -27.5320 C   0  0  0  0  0  0  0  0  0  0  0  0
   -2.5426   19.2954  -25.5713 H   0  0  0  0  0  0  0  0  0  0  0  0
   -3.4289   20.0570  -26.9355 H   0  0  0  0  0  0  0  0  0  0  0  0
   -3.1308   18.2856  -26.9355 H   0  0  0  0  0  0  0  0  0  0  0  0
   -0.6046   18.9199  -26.8823 H   0  0  0  0  0  0  0  0  0  0  0  0
   -1.5133   19.1459  -28.4291 H   0  0  0  0  0  0  0  0  0  0  0  0
   -1.1933   20.9892  -30.1255 H   0  0  0  0  0  0  0  0  0  0  0  0
   -2.3537   22.7737  -31.4197 H   0  0  0  0  0  0  0  0  0  0  0  0
   -5.4529   23.1496  -30.2128 H   0  0  0  0  0  0  0  0  0  0  0  0
   -6.8114   24.2892  -29.9660 H   0  0  0  0  0  0  0  0  0  0  0  0
   -4.7848   21.8416  -31.5788 H   0  0  0  0  0  0  0  0  0  0  0  0
   -2.7468   20.7020  -32.4537 H   0  0  0  0  0  0  0  0  0  0  0  0
   -2.9614   18.7746  -34.0228 H   0  0  0  0  0  0  0  0  0  0  0  0
   -5.3709   16.7176  -34.3575 H   0  0  0  0  0  0  0  0  0  0  0  0
   -6.1548   17.7745  -35.5803 H   0  0  0  0  0  0  0  0  0  0  0  0
   -4.3699   17.5718  -35.5803 H   0  0  0  0  0  0  0  0  0  0  0  0
   -7.2751   19.0481  -33.7639 H   0  0  0  0  0  0  0  0  0  0  0  0
   -3.3518   24.8079  -27.7323 H   0  0  0  0  0  0  0  0  0  0  0  0
   -2.2375   22.9986  -26.4336 H   0  0  0  0  0  0  0  0  0  0  0  0
  1  2  1  0
  2  3  1  0
  3  4  1  0
  4  5  2  0
  5  6  1  0
  6  7  2  0
  7  8  1  0
  8  9  1  0
  9 10  2  0
  9 11  1  0
 11 12  1  0
 12 13  1  0
 13 14  2  0
 14 15  1  0
 15 16  1  0
 16 17  2  0
 16 18  1  0
 18 19  1  0
 19 20  2  0
 20 21  1  0
 21 22  2  0
 22 23  1  0
 23 24  1  0
 23 25  2  0
  7 26  1  0
 26 27  2  0
 27  4  1  0
 18 13  1  0
 25 19  1  0
  1 28  1  0
  1 29  1  0
  1 30  1  0
  2 31  1  0
  2 32  1  0
  5 33  1  0
  6 34  1  0
 11 35  1  0
 11 36  1  0
 20 37  1  0
 21 38  1  0
 22 39  1  0
 24 40  1  0
 24 41  1  0
 24 42  1  0
 25 43  1  0
 26 44  1  0
 27 45  1  0
M  CHG  2   8  -1  15  -1
M  END
>  <UniqueID>  (38) 
38

>  <SMILES>  (38) 
CCOc1ccc([N-]C(=O)CSc2n[n-]c(=O)n2-c2cccc(C)c2)cc1

>  <Energy>  (38) 
81.50420458136796

>  <Genealogy>  (38) 
CCOc1ccc([N-]C(=O)CSc2n[n-]c(=O)n2-c2cccc(C)c2)cc1 (protonated)
CCOc1ccc([N-]C(=O)CSc2n[n-]c(=O)n2-c2cccc(C)c2)cc1 (3D coordinates assigned)
CCOc1ccc([N-]C(=O)CSc2n[n-]c(=O)n2-c2cccc(C)c2)cc1 (optimized conformer: 81.50420458136796 kcal/mol)

>  <smiles>  (38) 
CCOc1ccc(NC(=O)CSc2n[nH]c(=O)n2-c2cccc(C)c2)cc1

>  <score_type>  (38) 
oracle

>  <origin>  (38) 
adgpu

>  <m_score__min__energy>  (38) 
-10.949999999999999

>  <m_primary>  (38) 
energy

$$$$
38:0
     RDKit          3D

 30 32  0  0  0  0  0  0  0  0999 V2000
   -6.3660   25.6960  -29.7560 O   0  0  0  0  0  0  0  0  0  0  0  0
   -5.3690   24.5980  -30.0010 S   0  0  0  0  0  0  0  0  0  0  0  0
   -4.2840   25.1250  -30.8990 O   0  0  0  0  0  0  0  0  0  0  0  0
   -4.6690   24.1180  -28.4880 N   0  0  0  0  0  0  0  0  0  0  0  0
   -3.4390   23.3950  -28.3350 C   0  0  0  0  0  0  0  0  0  0  0  0
   -3.4250   22.0920  -27.7530 C   0  0  0  0  0  0  0  0  0  0  0  0
   -2.1860   21.4980  -27.6510 C   0  0  0  0  0  0  0  0  0  0  0  0
   -1.0010   22.1050  -28.0850 C   0  0  0  0  0  0  0  0  0  0  0  0
   -0.9630   23.3570  -28.6570 C   0  0  0  0  0  0  0  0  0  0  0  0
   -2.2150   24.0140  -28.7840 C   0  0  0  0  0  0  0  0  0  0  0  0
   -2.2280   25.2870  -29.3540 O   0  0  0  0  0  0  0  0  0  0  0  0
   -0.3170   20.9280  -27.6460 C   0  0  0  0  0  0  0  0  0  0  0  0
   -1.4990   20.2880  -27.2000 N   0  0  0  0  0  0  0  0  0  0  0  0
   -6.2020   23.2290  -30.7470 C   0  0  0  0  0  0  0  0  0  0  0  0
   -7.5970   23.1220  -30.6290 C   0  0  0  0  0  0  0  0  0  0  0  0
   -8.2770   22.0570  -31.2250 C   0  0  0  0  0  0  0  0  0  0  0  0
   -7.5720   21.0870  -31.9410 C   0  0  0  0  0  0  0  0  0  0  0  0
   -8.4300   19.7520  -32.6890 Cl  0  0  0  0  0  0  0  0  0  0  0  0
   -6.1830   21.1800  -32.0580 C   0  0  0  0  0  0  0  0  0  0  0  0
   -5.4920   22.2440  -31.4650 C   0  0  0  0  0  0  0  0  0  0  0  0
   -3.7410   22.3000  -31.6420 Cl  0  0  0  0  0  0  0  0  0  0  0  0
   -4.3435   21.5944  -27.4083 H   0  0  0  0  0  0  0  0  0  0  0  0
   -0.0230   23.8184  -28.9939 H   0  0  0  0  0  0  0  0  0  0  0  0
   -3.0550   25.6810  -29.7840 H   0  0  0  0  0  0  0  0  0  0  0  0
    0.1857   20.3891  -28.4626 H   0  0  0  0  0  0  0  0  0  0  0  0
    0.5132   21.0434  -26.9336 H   0  0  0  0  0  0  0  0  0  0  0  0
   -1.7600   19.3800  -26.7570 H   0  0  0  0  0  0  0  0  0  0  0  0
   -8.1578   23.8811  -30.0640 H   0  0  0  0  0  0  0  0  0  0  0  0
   -9.3703   21.9823  -31.1301 H   0  0  0  0  0  0  0  0  0  0  0  0
   -5.6289   20.4131  -32.6191 H   0  0  0  0  0  0  0  0  0  0  0  0
  1  2  2  0
  2  3  2  0
  2  4  1  0
  4  5  1  0
  5  6  2  0
  6  7  1  0
  7  8  2  0
  8  9  1  0
  9 10  2  0
 10 11  1  0
  8 12  1  0
 12 13  1  0
  2 14  1  0
 14 15  2  0
 15 16  1  0
 16 17  2  0
 17 18  1  0
 17 19  1  0
 19 20  2  0
 20 21  1  0
 10  5  1  0
 20 14  1  0
 13  7  1  0
  6 22  1  0
  9 23  1  0
 11 24  1  0
 12 25  1  0
 12 26  1  0
 13 27  1  0
 15 28  1  0
 16 29  1  0
 19 30  1  0
M  CHG  1   4  -1
M  END
>  <UniqueID>  (39) 
39

>  <SMILES>  (39) 
O=S(=O)([N-]c1cc2c(cc1O)CN2)c1ccc(Cl)cc1Cl

>  <Energy>  (39) 
70.6631525283368

>  <Genealogy>  (39) 
O=S(=O)([N-]c1cc2c(cc1O)CN2)c1ccc(Cl)cc1Cl (protonated)
O=S(=O)([N-]c1cc2c(cc1O)CN2)c1ccc(Cl)cc1Cl (3D coordinates assigned)
O=S(=O)([N-]c1cc2c(cc1O)CN2)c1ccc(Cl)cc1Cl (nonaromatic ring conformer: 70.6631525283368 kcal/mol)

>  <smiles>  (39) 
O=S(=O)(Nc1cc2c(cc1O)CN2)c1ccc(Cl)cc1Cl

>  <score_type>  (39) 
oracle

>  <origin>  (39) 
adgpu

>  <m_score__min__energy>  (39) 
-9.7400000000000002

>  <m_primary>  (39) 
energy

$$$$
39:0
     RDKit          3D

 42 44  0  0  0  0  0  0  0  0999 V2000
   -1.0010   22.6370  -29.3080 O   0  0  0  0  0  0  0  0  0  0  0  0
   -2.0360   22.3280  -29.9550 C   0  0  0  0  0  0  0  0  0  0  0  0
   -3.3170   22.5850  -29.3630 N   0  0  0  0  0  0  0  0  0  0  0  0
   -4.4230   23.2610  -29.9840 C   0  0  0  0  0  0  0  0  0  0  0  0
   -5.6100   22.5800  -30.3080 C   0  0  0  0  0  0  0  0  0  0  0  0
   -6.6740   23.2570  -30.9210 C   0  0  0  0  0  0  0  0  0  0  0  0
   -8.1640   22.3950  -31.3150 S   0  0  0  0  0  0  0  0  0  0  0  0
   -8.7950   21.8950  -30.0460 O   0  0  0  0  0  0  0  0  0  0  0  0
   -9.1260   23.3470  -31.9700 O   0  0  0  0  0  0  0  0  0  0  0  0
   -7.8630   21.0490  -32.3890 N   0  0  0  0  0  0  0  0  0  0  0  0
   -6.4190   20.9160  -32.7060 C   0  0  0  0  0  0  0  0  0  0  0  0
   -5.7400   19.7710  -31.9390 C   0  0  0  0  0  0  0  0  0  0  0  0
   -6.4200   18.4230  -32.2350 C   0  0  0  0  0  0  0  0  0  0  0  0
   -7.9230   18.5660  -32.5300 C   0  0  0  0  0  0  0  0  0  0  0  0
   -8.4990   19.8200  -31.8650 C   0  0  0  0  0  0  0  0  0  0  0  0
   -6.5430   24.6190  -31.2230 C   0  0  0  0  0  0  0  0  0  0  0  0
   -5.3550   25.2920  -30.9320 C   0  0  0  0  0  0  0  0  0  0  0  0
   -4.2950   24.6160  -30.3190 C   0  0  0  0  0  0  0  0  0  0  0  0
   -3.1170   25.2980  -30.0360 O   0  0  0  0  0  0  0  0  0  0  0  0
   -1.9000   21.6570  -31.2720 C   0  0  0  0  0  0  0  0  0  0  0  0
   -2.9220   21.7670  -32.2310 C   0  0  0  0  0  0  0  0  0  0  0  0
   -2.7950   21.1400  -33.4700 C   0  0  0  0  0  0  0  0  0  0  0  0
   -1.6490   20.3950  -33.7450 C   0  0  0  0  0  0  0  0  0  0  0  0
   -0.6710   20.2830  -32.8100 N   0  0  0  0  0  0  0  0  0  0  0  0
   -0.7630   20.8860  -31.5940 C   0  0  0  0  0  0  0  0  0  0  0  0
    0.1820   20.7570  -30.7710 O   0  0  0  0  0  0  0  0  0  0  0  0
   -5.7045   21.5083  -30.0788 H   0  0  0  0  0  0  0  0  0  0  0  0
   -6.3126   20.7272  -33.7845 H   0  0  0  0  0  0  0  0  0  0  0  0
   -5.9276   21.8524  -32.4031 H   0  0  0  0  0  0  0  0  0  0  0  0
   -4.6837   19.7139  -32.2406 H   0  0  0  0  0  0  0  0  0  0  0  0
   -5.8252   19.9749  -30.8614 H   0  0  0  0  0  0  0  0  0  0  0  0
   -5.9319   17.9676  -33.1093 H   0  0  0  0  0  0  0  0  0  0  0  0
   -6.3167   17.7956  -31.3374 H   0  0  0  0  0  0  0  0  0  0  0  0
   -8.0704   18.6364  -33.6178 H   0  0  0  0  0  0  0  0  0  0  0  0
   -8.4436   17.6856  -32.1252 H   0  0  0  0  0  0  0  0  0  0  0  0
   -9.5804   19.8648  -32.0615 H   0  0  0  0  0  0  0  0  0  0  0  0
   -8.3010   19.7611  -30.7846 H   0  0  0  0  0  0  0  0  0  0  0  0
   -7.3789   25.1597  -31.6909 H   0  0  0  0  0  0  0  0  0  0  0  0
   -5.2522   26.3574  -31.1856 H   0  0  0  0  0  0  0  0  0  0  0  0
   -3.8262   22.3505  -32.0029 H   0  0  0  0  0  0  0  0  0  0  0  0
   -3.5913   21.2323  -34.2232 H   0  0  0  0  0  0  0  0  0  0  0  0
   -1.5372   19.8978  -34.7198 H   0  0  0  0  0  0  0  0  0  0  0  0
  1  2  2  0
  2  3  1  0
  3  4  1  0
  4  5  2  0
  5  6  1  0
  6  7  1  0
  7  8  2  0
  7  9  2  0
  7 10  1  0
 10 11  1  0
 11 12  1  0
 12 13  1  0
 13 14  1  0
 14 15  1  0
  6 16  2  0
 16 17  1  0
 17 18  2  0
 18 19  1  0
  2 20  1  0
 20 21  2  0
 21 22  1  0
 22 23  2  0
 23 24  1  0
 24 25  1  0
 25 26  2  0
 18  4  1  0
 25 20  1  0
 15 10  1  0
  5 27  1  0
 11 28  1  0
 11 29  1  0
 12 30  1  0
 12 31  1  0
 13 32  1  0
 13 33  1  0
 14 34  1  0
 14 35  1  0
 15 36  1  0
 15 37  1  0
 16 38  1  0
 17 39  1  0
 21 40  1  0
 22 41  1  0
 23 42  1  0
M  CHG  3   3  -1  19  -1  24  -1
M  END
>  <UniqueID>  (40) 
40

>  <SMILES>  (40) 
O=C([N-]c1cc(S(=O)(=O)N2CCCCC2)ccc1[O-])c1ccc[n-]c1=O

>  <Energy>  (40) 
56.76010268182256

>  <Genealogy>  (40) 
O=C([N-]c1cc(S(=O)(=O)N2CCCCC2)ccc1[O-])c1ccc[n-]c1=O (protonated)
O=C([N-]c1cc(S(=O)(=O)N2CCCCC2)ccc1[O-])c1ccc[n-]c1=O (3D coordinates assigned)
O=C([N-]c1cc(S(=O)(=O)N2CCCCC2)ccc1[O-])c1ccc[n-]c1=O (nonaromatic ring conformer: 56.76010268182256 kcal/mol)

>  <smiles>  (40) 
O=C(Nc1cc(S(=O)(=O)N2CCCCC2)ccc1O)c1ccc[nH]c1=O

>  <score_type>  (40) 
oracle

>  <origin>  (40) 
adgpu

>  <m_score__min__energy>  (40) 
-13.550000000000001

>  <m_primary>  (40) 
energy

$$$$
40:0
     RDKit          3D

 43 46  0  0  0  0  0  0  0  0999 V2000
   -5.0150   24.3800  -29.1560 O   0  0  0  0  0  0  0  0  0  0  0  0
   -4.9730   24.3130  -30.6560 S   0  0  0  0  0  0  0  0  0  0  0  0
   -5.1300   25.7050  -31.2090 O   0  0  0  0  0  0  0  0  0  0  0  0
   -3.4420   23.6630  -31.1500 N   0  0  0  0  0  0  0  0  0  0  0  0
   -2.4350   23.1500  -30.2700 C   0  0  0  0  0  0  0  0  0  0  0  0
   -2.0070   21.8140  -30.3330 C   0  0  0  0  0  0  0  0  0  0  0  0
   -1.0550   21.3200  -29.4300 C   0  0  0  0  0  0  0  0  0  0  0  0
   -0.4640   22.1980  -28.4930 C   0  0  0  0  0  0  0  0  0  0  0  0
   -0.8860   23.5350  -28.4410 C   0  0  0  0  0  0  0  0  0  0  0  0
   -1.8640   24.0110  -29.3220 C   0  0  0  0  0  0  0  0  0  0  0  0
   -2.2800   25.3400  -29.2570 O   0  0  0  0  0  0  0  0  0  0  0  0
    0.5420   21.7110  -27.4750 C   0  0  0  0  0  0  0  0  0  0  0  0
    1.1590   20.3580  -27.8440 C   0  0  0  0  0  0  0  0  0  0  0  0
    0.0750   19.3740  -28.2810 C   0  0  0  0  0  0  0  0  0  0  0  0
   -0.6140   19.8810  -29.5510 C   0  0  0  0  0  0  0  0  0  0  0  0
   -6.2730   23.2610  -31.2140 C   0  0  0  0  0  0  0  0  0  0  0  0
   -7.5670   23.7810  -31.3630 C   0  0  0  0  0  0  0  0  0  0  0  0
   -8.6260   22.9470  -31.7380 C   0  0  0  0  0  0  0  0  0  0  0  0
   -8.3970   21.5850  -31.9410 C   0  0  0  0  0  0  0  0  0  0  0  0
   -7.1120   21.0550  -31.7590 C   0  0  0  0  0  0  0  0  0  0  0  0
   -6.0450   21.8930  -31.4330 C   0  0  0  0  0  0  0  0  0  0  0  0
   -6.9260   19.6740  -31.8810 O   0  0  0  0  0  0  0  0  0  0  0  0
   -8.0460   18.7880  -31.8440 C   0  0  0  0  0  0  0  0  0  0  0  0
   -9.1980   19.3660  -32.6740 C   0  0  0  0  0  0  0  0  0  0  0  0
   -9.4420   20.7260  -32.3020 O   0  0  0  0  0  0  0  0  0  0  0  0
   -2.4242   21.1462  -31.1011 H   0  0  0  0  0  0  0  0  0  0  0  0
   -0.4434   24.2167  -27.6997 H   0  0  0  0  0  0  0  0  0  0  0  0
   -3.1030   25.6680  -29.7490 H   0  0  0  0  0  0  0  0  0  0  0  0
    1.3488   22.4545  -27.3959 H   0  0  0  0  0  0  0  0  0  0  0  0
    0.0091   21.5809  -26.5215 H   0  0  0  0  0  0  0  0  0  0  0  0
    1.8729   20.4991  -28.6688 H   0  0  0  0  0  0  0  0  0  0  0  0
    1.6732   19.9501  -26.9613 H   0  0  0  0  0  0  0  0  0  0  0  0
    0.5325   18.3940  -28.4817 H   0  0  0  0  0  0  0  0  0  0  0  0
   -0.6717   19.2809  -27.4787 H   0  0  0  0  0  0  0  0  0  0  0  0
    0.0894   19.7964  -30.3925 H   0  0  0  0  0  0  0  0  0  0  0  0
   -1.5121   19.2671  -29.7138 H   0  0  0  0  0  0  0  0  0  0  0  0
   -7.7504   24.8507  -31.1840 H   0  0  0  0  0  0  0  0  0  0  0  0
   -9.6354   23.3631  -31.8724 H   0  0  0  0  0  0  0  0  0  0  0  0
   -5.0279   21.4829  -31.3478 H   0  0  0  0  0  0  0  0  0  0  0  0
   -7.7525   17.8120  -32.2579 H   0  0  0  0  0  0  0  0  0  0  0  0
   -8.3766   18.6665  -30.8019 H   0  0  0  0  0  0  0  0  0  0  0  0
   -8.9342   19.3230  -33.7410 H   0  0  0  0  0  0  0  0  0  0  0  0
  -10.1065   18.7746  -32.4874 H   0  0  0  0  0  0  0  0  0  0  0  0
  1  2  2  0
  2  3  2  0
  2  4  1  0
  4  5  1  0
  5  6  2  0
  6  7  1  0
  7  8  2  0
  8  9  1  0
  9 10  2  0
 10 11  1  0
  8 12  1  0
 12 13  1  0
 13 14  1  0
 14 15  1  0
  2 16  1  0
 16 17  2  0
 17 18  1  0
 18 19  2  0
 19 20  1  0
 20 21  2  0
 20 22  1  0
 22 23  1  0
 23 24  1  0
 24 25  1  0
 10  5  1  0
 21 16  1  0
 15  7  1  0
 25 19  1  0
  6 26  1  0
  9 27  1  0
 11 28  1  0
 12 29  1  0
 12 30  1  0
 13 31  1  0
 13 32  1  0
 14 33  1  0
 14 34  1  0
 15 35  1  0
 15 36  1  0
 17 37  1  0
 18 38  1  0
 21 39  1  0
 23 40  1  0
 23 41  1  0
 24 42  1  0
 24 43  1  0
M  CHG  1   4  -1
M  END
>  <UniqueID>  (41) 
41

>  <SMILES>  (41) 
O=S(=O)([N-]c1cc2c(cc1O)CCCC2)c1ccc2c(c1)OCCO2

>  <Energy>  (41) 
49.17611238525993

>  <Genealogy>  (41) 
O=S(=O)([N-]c1cc2c(cc1O)CCCC2)c1ccc2c(c1)OCCO2 (protonated)
O=S(=O)([N-]c1cc2c(cc1O)CCCC2)c1ccc2c(c1)OCCO2 (3D coordinates assigned)
O=S(=O)([N-]c1cc2c(cc1O)CCCC2)c1ccc2c(c1)OCCO2 (nonaromatic ring conformer: 49.17611238525993 kcal/mol)

>  <smiles>  (41) 
O=S(=O)(Nc1cc2c(cc1O)CCCC2)c1ccc2c(c1)OCCO2

>  <score_type>  (41) 
oracle

>  <origin>  (41) 
adgpu

>  <m_score__min__energy>  (41) 
-11.529999999999999

>  <m_primary>  (41) 
energy

$$$$
41:0
     RDKit          3D

 47 49  0  0  0  0  0  0  0  0999 V2000
   -1.8210   25.8420  -26.0670 C   0  0  0  0  0  0  0  0  0  0  0  0
   -2.9110   25.0740  -26.6660 N   0  0  0  0  0  0  0  0  0  0  0  0
   -2.4540   24.5500  -28.2590 S   0  0  0  0  0  0  0  0  0  0  0  0
   -1.6170   25.6100  -28.9200 O   0  0  0  0  0  0  0  0  0  0  0  0
   -1.6330   23.2970  -28.1510 O   0  0  0  0  0  0  0  0  0  0  0  0
   -3.8850   24.2160  -29.2310 C   0  0  0  0  0  0  0  0  0  0  0  0
   -4.8320   23.2850  -28.7900 C   0  0  0  0  0  0  0  0  0  0  0  0
   -5.9690   23.0310  -29.5570 C   0  0  0  0  0  0  0  0  0  0  0  0
   -6.1480   23.7140  -30.7640 C   0  0  0  0  0  0  0  0  0  0  0  0
   -7.5840   23.3930  -31.7850 S   0  0  0  0  0  0  0  0  0  0  0  0
   -6.9090   21.8400  -32.3950 C   0  0  0  0  0  0  0  0  0  0  0  0
   -5.5430   21.7950  -32.6990 C   0  0  0  0  0  0  0  0  0  0  0  0
   -4.9430   20.5990  -33.0960 C   0  0  0  0  0  0  0  0  0  0  0  0
   -5.7040   19.4290  -33.1880 C   0  0  0  0  0  0  0  0  0  0  0  0
   -4.9530   17.9060  -33.6580 S   0  0  0  0  0  0  0  0  0  0  0  0
   -4.9770   17.8060  -35.1580 O   0  0  0  0  0  0  0  0  0  0  0  0
   -3.5270   17.8690  -33.1840 O   0  0  0  0  0  0  0  0  0  0  0  0
   -5.8490   16.5720  -32.9610 N   0  0  0  0  0  0  0  0  0  0  0  0
   -4.9880   15.7840  -32.0720 C   0  0  0  0  0  0  0  0  0  0  0  0
   -4.4080   14.6270  -32.8720 C   0  0  0  0  0  0  0  0  0  0  0  0
   -5.2380   14.5490  -34.1390 C   0  0  0  0  0  0  0  0  0  0  0  0
   -6.2860   15.6440  -34.0090 C   0  0  0  0  0  0  0  0  0  0  0  0
   -7.0730   19.4690  -32.9040 C   0  0  0  0  0  0  0  0  0  0  0  0
   -7.6960   20.6690  -32.5190 C   0  0  0  0  0  0  0  0  0  0  0  0
   -9.1090   20.6690  -32.2490 N   0  0  0  0  0  0  0  0  0  0  0  0
   -9.8610   19.8240  -32.7760 O   0  0  0  0  0  0  0  0  0  0  0  0
   -9.6240   21.4930  -31.2740 O   0  0  0  0  0  0  0  0  0  0  0  0
   -5.2220   24.6240  -31.1720 N   0  0  0  0  0  0  0  0  0  0  0  0
   -4.1080   24.8890  -30.4390 C   0  0  0  0  0  0  0  0  0  0  0  0
   -1.8950   25.7899  -24.9707 H   0  0  0  0  0  0  0  0  0  0  0  0
   -0.8566   25.4228  -26.3898 H   0  0  0  0  0  0  0  0  0  0  0  0
   -1.8912   26.8912  -26.3898 H   0  0  0  0  0  0  0  0  0  0  0  0
   -3.7310   25.7140  -26.7760 H   0  0  0  0  0  0  0  0  0  0  0  0
   -4.6799   22.7537  -27.8389 H   0  0  0  0  0  0  0  0  0  0  0  0
   -6.7174   22.3007  -29.2158 H   0  0  0  0  0  0  0  0  0  0  0  0
   -4.9374   22.7102  -32.6243 H   0  0  0  0  0  0  0  0  0  0  0  0
   -3.8699   20.5765  -33.3369 H   0  0  0  0  0  0  0  0  0  0  0  0
   -4.1736   16.4154  -31.6870 H   0  0  0  0  0  0  0  0  0  0  0  0
   -5.5704   15.4021  -31.2205 H   0  0  0  0  0  0  0  0  0  0  0  0
   -3.3528   14.8198  -33.1157 H   0  0  0  0  0  0  0  0  0  0  0  0
   -4.4408   13.6845  -32.3058 H   0  0  0  0  0  0  0  0  0  0  0  0
   -4.6071   14.7242  -35.0229 H   0  0  0  0  0  0  0  0  0  0  0  0
   -5.6981   13.5577  -34.2640 H   0  0  0  0  0  0  0  0  0  0  0  0
   -6.3850   16.1804  -34.9642 H   0  0  0  0  0  0  0  0  0  0  0  0
   -7.2618   15.2081  -33.7488 H   0  0  0  0  0  0  0  0  0  0  0  0
   -7.6704   18.5488  -32.9830 H   0  0  0  0  0  0  0  0  0  0  0  0
   -3.3806   25.6332  -30.7953 H   0  0  0  0  0  0  0  0  0  0  0  0
  1  2  1  0
  2  3  1  0
  3  4  2  0
  3  5  2  0
  3  6  1  0
  6  7  2  0
  7  8  1  0
  8  9  2  0
  9 10  1  0
 10 11  1  0
 11 12  2  0
 12 13  1  0
 13 14  2  0
 14 15  1  0
 15 16  2  0
 15 17  2  0
 15 18  1  0
 18 19  1  0
 19 20  1  0
 20 21  1  0
 21 22  1  0
 14 23  1  0
 23 24  2  0
 24 25  1  0
 25 26  2  0
 25 27  1  0
  9 28  1  0
 28 29  2  0
 29  6  1  0
 24 11  1  0
 22 18  1  0
  1 30  1  0
  1 31  1  0
  1 32  1  0
  2 33  1  0
  7 34  1  0
  8 35  1  0
 12 36  1  0
 13 37  1  0
 19 38  1  0
 19 39  1  0
 20 40  1  0
 20 41  1  0
 21 42  1  0
 21 43  1  0
 22 44  1  0
 22 45  1  0
 23 46  1  0
 29 47  1  0
M  CHG  2  25   1  27  -1
M  END
>  <UniqueID>  (42) 
42

>  <SMILES>  (42) 
CNS(=O)(=O)c1ccc(Sc2ccc(S(=O)(=O)N3CCCC3)cc2[N+](=O)[O-])nc1

>  <Energy>  (42) 
46.99752234723286

>  <Genealogy>  (42) 
CNS(=O)(=O)c1ccc(Sc2ccc(S(=O)(=O)N3CCCC3)cc2[N+](=O)[O-])nc1 (3D coordinates assigned)
CNS(=O)(=O)c1ccc(Sc2ccc(S(=O)(=O)N3CCCC3)cc2[N+](=O)[O-])nc1 (nonaromatic ring conformer: 46.99752234723286 kcal/mol)

>  <smiles>  (42) 
CNS(=O)(=O)c1ccc(Sc2ccc(S(=O)(=O)N3CCCC3)cc2[N+](=O)[O-])nc1

>  <score_type>  (42) 
oracle

>  <origin>  (42) 
adgpu

>  <m_score__min__energy>  (42) 
-9.8599999999999994

>  <m_primary>  (42) 
energy

$$$$
42:0
     RDKit          3D

 49 52  0  0  0  0  0  0  0  0999 V2000
    0.8070   19.1920  -37.1440 C   0  0  0  0  0  0  0  0  0  0  0  0
    0.3100   19.6890  -35.8180 C   0  0  0  0  0  0  0  0  0  0  0  0
    0.4660   21.0380  -35.4690 C   0  0  0  0  0  0  0  0  0  0  0  0
   -0.0270   21.5140  -34.2520 C   0  0  0  0  0  0  0  0  0  0  0  0
   -0.6960   20.6500  -33.3650 C   0  0  0  0  0  0  0  0  0  0  0  0
   -1.2170   21.1530  -32.0700 C   0  0  0  0  0  0  0  0  0  0  0  0
   -2.5980   21.1370  -31.7990 C   0  0  0  0  0  0  0  0  0  0  0  0
   -3.0870   21.6220  -30.5840 C   0  0  0  0  0  0  0  0  0  0  0  0
   -2.2060   22.1330  -29.6210 C   0  0  0  0  0  0  0  0  0  0  0  0
   -2.8140   22.8080  -28.1120 S   0  0  0  0  0  0  0  0  0  0  0  0
   -3.4790   21.7470  -27.2800 O   0  0  0  0  0  0  0  0  0  0  0  0
   -1.6600   23.3830  -27.3420 O   0  0  0  0  0  0  0  0  0  0  0  0
   -3.9610   24.0640  -28.4570 N   0  0  0  0  0  0  0  0  0  0  0  0
   -4.9710   23.9470  -29.4760 C   0  0  0  0  0  0  0  0  0  0  0  0
   -6.0320   23.0320  -29.3450 C   0  0  0  0  0  0  0  0  0  0  0  0
   -6.9890   22.8920  -30.3600 C   0  0  0  0  0  0  0  0  0  0  0  0
   -6.9220   23.7170  -31.5000 C   0  0  0  0  0  0  0  0  0  0  0  0
   -5.8720   24.6360  -31.6270 C   0  0  0  0  0  0  0  0  0  0  0  0
   -4.9050   24.7560  -30.6250 C   0  0  0  0  0  0  0  0  0  0  0  0
   -3.8730   25.6720  -30.7840 O   0  0  0  0  0  0  0  0  0  0  0  0
   -7.9080   23.5520  -32.6330 C   0  0  0  0  0  0  0  0  0  0  0  0
   -9.1520   22.8980  -32.2010 N   0  0  0  0  0  0  0  0  0  0  0  0
   -8.8610   21.6470  -31.4900 C   0  0  0  0  0  0  0  0  0  0  0  0
   -8.1280   21.9230  -30.1720 C   0  0  0  0  0  0  0  0  0  0  0  0
   -0.8310   22.1450  -29.8810 C   0  0  0  0  0  0  0  0  0  0  0  0
   -0.3390   21.6580  -31.0950 C   0  0  0  0  0  0  0  0  0  0  0  0
   -0.8640   19.3020  -33.7280 C   0  0  0  0  0  0  0  0  0  0  0  0
   -0.3720   18.8270  -34.9480 C   0  0  0  0  0  0  0  0  0  0  0  0
    1.5764   18.4226  -36.9823 H   0  0  0  0  0  0  0  0  0  0  0  0
   -0.0306   18.7595  -37.7108 H   0  0  0  0  0  0  0  0  0  0  0  0
    1.2395   20.0296  -37.7108 H   0  0  0  0  0  0  0  0  0  0  0  0
    0.9795   21.7252  -36.1575 H   0  0  0  0  0  0  0  0  0  0  0  0
    0.1086   22.5724  -33.9847 H   0  0  0  0  0  0  0  0  0  0  0  0
   -3.2972   20.7397  -32.5495 H   0  0  0  0  0  0  0  0  0  0  0  0
   -4.1681   21.6029  -30.3819 H   0  0  0  0  0  0  0  0  0  0  0  0
   -3.8040   24.9850  -27.9910 H   0  0  0  0  0  0  0  0  0  0  0  0
   -6.1115   22.4190  -28.4351 H   0  0  0  0  0  0  0  0  0  0  0  0
   -5.8081   25.2693  -32.5241 H   0  0  0  0  0  0  0  0  0  0  0  0
   -8.1527   24.5458  -33.0362 H   0  0  0  0  0  0  0  0  0  0  0  0
   -7.4395   22.9125  -33.3956 H   0  0  0  0  0  0  0  0  0  0  0  0
   -9.6700   23.5440  -31.5590 H   0  0  0  0  0  0  0  0  0  0  0  0
   -9.8062   21.1274  -31.2742 H   0  0  0  0  0  0  0  0  0  0  0  0
   -8.2158   21.0236  -32.1265 H   0  0  0  0  0  0  0  0  0  0  0  0
   -8.8410   22.3468  -29.4495 H   0  0  0  0  0  0  0  0  0  0  0  0
   -7.7128   20.9728  -29.8050 H   0  0  0  0  0  0  0  0  0  0  0  0
   -0.1344   22.5395  -29.1265 H   0  0  0  0  0  0  0  0  0  0  0  0
    0.7437   21.6699  -31.2892 H   0  0  0  0  0  0  0  0  0  0  0  0
   -1.3870   18.6150  -33.0465 H   0  0  0  0  0  0  0  0  0  0  0  0
   -0.5208   17.7731  -35.2259 H   0  0  0  0  0  0  0  0  0  0  0  0
  1  2  1  0
  2  3  2  0
  3  4  1  0
  4  5  2  0
  5  6  1  0
  6  7  2  0
  7  8  1  0
  8  9  2  0
  9 10  1  0
 10 11  2  0
 10 12  2  0
 10 13  1  0
 13 14  1  0
 14 15  2  0
 15 16  1  0
 16 17  2  0
 17 18  1  0
 18 19  2  0
 19 20  1  0
 17 21  1  0
 21 22  1  0
 22 23  1  0
 23 24  1  0
  9 25  1  0
 25 26  2  0
  5 27  1  0
 27 28  2  0
 28  2  1  0
 26  6  1  0
 19 14  1  0
 24 16  1  0
  1 29  1  0
  1 30  1  0
  1 31  1  0
  3 32  1  0
  4 33  1  0
  7 34  1  0
  8 35  1  0
 13 36  1  0
 15 37  1  0
 18 38  1  0
 21 39  1  0
 21 40  1  0
 22 41  1  0
 23 42  1  0
 23 43  1  0
 24 44  1  0
 24 45  1  0
 25 46  1  0
 26 47  1  0
 27 48  1  0
 28 49  1  0
M  CHG  1  20  -1
M  END
>  <UniqueID>  (43) 
43

>  <SMILES>  (43) 
Cc1ccc(-c2ccc(S(=O)(=O)Nc3cc4c(cc3[O-])CNCC4)cc2)cc1

>  <Energy>  (43) 
62.00939322875771

>  <Genealogy>  (43) 
Cc1ccc(-c2ccc(S(=O)(=O)Nc3cc4c(cc3[O-])CNCC4)cc2)cc1 (protonated)
Cc1ccc(-c2ccc(S(=O)(=O)Nc3cc4c(cc3[O-])CNCC4)cc2)cc1 (3D coordinates assigned)
Cc1ccc(-c2ccc(S(=O)(=O)Nc3cc4c(cc3[O-])CNCC4)cc2)cc1 (nonaromatic ring conformer: 62.00939322875771 kcal/mol)

>  <smiles>  (43) 
Cc1ccc(-c2ccc(S(=O)(=O)Nc3cc4c(cc3O)CNCC4)cc2)cc1

>  <score_type>  (43) 
oracle

>  <origin>  (43) 
adgpu

>  <m_score__min__energy>  (43) 
-14.050000000000001

>  <m_primary>  (43) 
energy

$$$$
43:0
     RDKit          3D

 63 67  0  0  0  0  0  0  0  0999 V2000
   -6.5860   20.6180  -33.4040 O   0  0  0  0  0  0  0  0  0  0  0  0
   -5.5580   21.0790  -32.8380 C   0  0  0  0  0  0  0  0  0  0  0  0
   -5.6850   22.2630  -31.9550 C   0  0  0  0  0  0  0  0  0  0  0  0
   -6.9250   22.5910  -31.3840 C   0  0  0  0  0  0  0  0  0  0  0  0
   -7.0460   23.7030  -30.5470 C   0  0  0  0  0  0  0  0  0  0  0  0
   -5.9280   24.4970  -30.2620 C   0  0  0  0  0  0  0  0  0  0  0  0
   -6.0430   25.6000  -29.4170 O   0  0  0  0  0  0  0  0  0  0  0  0
   -4.6840   24.1680  -30.8160 C   0  0  0  0  0  0  0  0  0  0  0  0
   -3.5290   24.9400  -30.4950 N   0  0  0  0  0  0  0  0  0  0  0  0
   -2.7380   24.7250  -28.9730 S   0  0  0  0  0  0  0  0  0  0  0  0
   -3.7380   24.9000  -27.8660 O   0  0  0  0  0  0  0  0  0  0  0  0
   -1.6530   25.7520  -28.8080 O   0  0  0  0  0  0  0  0  0  0  0  0
   -2.0570   23.1040  -28.9160 C   0  0  0  0  0  0  0  0  0  0  0  0
   -0.6880   22.9000  -29.1450 C   0  0  0  0  0  0  0  0  0  0  0  0
   -0.1330   21.6240  -29.0070 C   0  0  0  0  0  0  0  0  0  0  0  0
   -0.9430   20.5430  -28.6280 C   0  0  0  0  0  0  0  0  0  0  0  0
   -0.2480   18.9450  -28.3800 S   0  0  0  0  0  0  0  0  0  0  0  0
   -1.0920   18.1620  -27.4100 O   0  0  0  0  0  0  0  0  0  0  0  0
    1.1310   19.1090  -27.8050 O   0  0  0  0  0  0  0  0  0  0  0  0
   -0.1530   18.0980  -29.9100 N   0  0  0  0  0  0  0  0  0  0  0  0
    1.2140   17.6250  -30.1560 C   0  0  0  0  0  0  0  0  0  0  0  0
    1.9410   18.6800  -30.9770 C   0  0  0  0  0  0  0  0  0  0  0  0
    0.8550   19.5740  -31.5430 C   0  0  0  0  0  0  0  0  0  0  0  0
   -0.4570   19.0070  -31.0190 C   0  0  0  0  0  0  0  0  0  0  0  0
   -2.3140   20.7450  -28.4070 C   0  0  0  0  0  0  0  0  0  0  0  0
   -2.8680   22.0210  -28.5480 C   0  0  0  0  0  0  0  0  0  0  0  0
   -4.5640   23.0520  -31.6530 C   0  0  0  0  0  0  0  0  0  0  0  0
   -4.2860   20.4400  -33.0520 N   0  0  0  0  0  0  0  0  0  0  0  0
   -4.0800   19.0610  -32.5940 C   0  0  0  0  0  0  0  0  0  0  0  0
   -3.2250   18.3050  -33.6080 C   0  0  0  0  0  0  0  0  0  0  0  0
   -1.9860   19.0800  -33.9750 C   0  0  0  0  0  0  0  0  0  0  0  0
   -0.8780   18.3950  -34.5020 C   0  0  0  0  0  0  0  0  0  0  0  0
    0.2640   19.0950  -34.8990 C   0  0  0  0  0  0  0  0  0  0  0  0
    0.3050   20.4860  -34.7880 C   0  0  0  0  0  0  0  0  0  0  0  0
   -0.7950   21.1820  -34.2810 C   0  0  0  0  0  0  0  0  0  0  0  0
   -1.9520   20.4910  -33.8800 C   0  0  0  0  0  0  0  0  0  0  0  0
   -3.1070   21.2780  -33.3010 C   0  0  0  0  0  0  0  0  0  0  0  0
   -7.8066   21.9686  -31.5970 H   0  0  0  0  0  0  0  0  0  0  0  0
   -8.0233   23.9560  -30.1100 H   0  0  0  0  0  0  0  0  0  0  0  0
   -5.2310   26.0110  -28.9710 H   0  0  0  0  0  0  0  0  0  0  0  0
   -0.0487   23.7471  -29.4342 H   0  0  0  0  0  0  0  0  0  0  0  0
    0.9394   21.4677  -29.1957 H   0  0  0  0  0  0  0  0  0  0  0  0
    1.7341   17.4745  -29.1984 H   0  0  0  0  0  0  0  0  0  0  0  0
    1.1934   16.6684  -30.6987 H   0  0  0  0  0  0  0  0  0  0  0  0
    2.6230   19.2609  -30.3387 H   0  0  0  0  0  0  0  0  0  0  0  0
    2.5523   18.2280  -31.7720 H   0  0  0  0  0  0  0  0  0  0  0  0
    0.9911   20.6093  -31.1972 H   0  0  0  0  0  0  0  0  0  0  0  0
    0.8783   19.5962  -32.6425 H   0  0  0  0  0  0  0  0  0  0  0  0
   -1.1008   19.8252  -30.6640 H   0  0  0  0  0  0  0  0  0  0  0  0
   -0.9839   18.4668  -31.8194 H   0  0  0  0  0  0  0  0  0  0  0  0
   -2.9545   19.8973  -28.1221 H   0  0  0  0  0  0  0  0  0  0  0  0
   -3.9424   22.1756  -28.3698 H   0  0  0  0  0  0  0  0  0  0  0  0
   -3.5832   22.7914  -32.0774 H   0  0  0  0  0  0  0  0  0  0  0  0
   -3.5687   19.0716  -31.6201 H   0  0  0  0  0  0  0  0  0  0  0  0
   -5.0545   18.5607  -32.4939 H   0  0  0  0  0  0  0  0  0  0  0  0
   -2.9267   17.3392  -33.1741 H   0  0  0  0  0  0  0  0  0  0  0  0
   -3.8219   18.1578  -34.5201 H   0  0  0  0  0  0  0  0  0  0  0  0
   -0.9101   17.3001  -34.6026 H   0  0  0  0  0  0  0  0  0  0  0  0
    1.1314   18.5498  -35.2993 H   0  0  0  0  0  0  0  0  0  0  0  0
    1.2054   21.0352  -35.1004 H   0  0  0  0  0  0  0  0  0  0  0  0
   -0.7557   22.2779  -34.1949 H   0  0  0  0  0  0  0  0  0  0  0  0
   -2.7863   21.7281  -32.3499 H   0  0  0  0  0  0  0  0  0  0  0  0
   -3.3907   22.0465  -34.0351 H   0  0  0  0  0  0  0  0  0  0  0  0
  1  2  2  0
  2  3  1  0
  3  4  2  0
  4  5  1  0
  5  6  2  0
  6  7  1  0
  6  8  1  0
  8  9  1  0
  9 10  1  0
 10 11  2  0
 10 12  2  0
 10 13  1  0
 13 14  2  0
 14 15  1  0
 15 16  2  0
 16 17  1  0
 17 18  2  0
 17 19  2  0
 17 20  1  0
 20 21  1  0
 21 22  1  0
 22 23  1  0
 23 24  1  0
 16 25  1  0
 25 26  2  0
  8 27  2  0
  2 28  1  0
 28 29  1  0
 29 30  1  0
 30 31  1  0
 31 32  2  0
 32 33  1  0
 33 34  2  0
 34 35  1  0
 35 36  2  0
 36 37  1  0
 27  3  1  0
 37 28  1  0
 26 13  1  0
 36 31  1  0
 24 20  1  0
  4 38  1  0
  5 39  1  0
  7 40  1  0
 14 41  1  0
 15 42  1  0
 21 43  1  0
 21 44  1  0
 22 45  1  0
 22 46  1  0
 23 47  1  0
 23 48  1  0
 24 49  1  0
 24 50  1  0
 25 51  1  0
 26 52  1  0
 27 53  1  0
 29 54  1  0
 29 55  1  0
 30 56  1  0
 30 57  1  0
 32 58  1  0
 33 59  1  0
 34 60  1  0
 35 61  1  0
 37 62  1  0
 37 63  1  0
M  CHG  1   9  -1
M  END
>  <UniqueID>  (44) 
44

>  <SMILES>  (44) 
O=C(c1ccc(O)c([N-]S(=O)(=O)c2ccc(S(=O)(=O)N3CCCC3)cc2)c1)N1CCc2ccccc2C1

>  <Energy>  (44) 
82.91710495111714

>  <Genealogy>  (44) 
O=C(c1ccc(O)c([N-]S(=O)(=O)c2ccc(S(=O)(=O)N3CCCC3)cc2)c1)N1CCc2ccccc2C1 (protonated)
O=C(c1ccc(O)c([N-]S(=O)(=O)c2ccc(S(=O)(=O)N3CCCC3)cc2)c1)N1CCc2ccccc2C1 (3D coordinates assigned)
O=C(c1ccc(O)c([N-]S(=O)(=O)c2ccc(S(=O)(=O)N3CCCC3)cc2)c1)N1CCc2ccccc2C1 (nonaromatic ring conformer: 82.91710495111714 kcal/mol)

>  <smiles>  (44) 
O=C(c1ccc(O)c(NS(=O)(=O)c2ccc(S(=O)(=O)N3CCCC3)cc2)c1)N1CCc2ccccc2C1

>  <score_type>  (44) 
oracle

>  <origin>  (44) 
adgpu

>  <m_score__min__energy>  (44) 
-12.970000000000001

>  <m_primary>  (44) 
energy

$$$$
44:0
     RDKit          3D

 50 53  0  0  0  0  0  0  0  0999 V2000
   -5.0680   18.8630  -34.5810 O   0  0  0  0  0  0  0  0  0  0  0  0
   -5.6740   19.5560  -33.7200 C   0  0  0  0  0  0  0  0  0  0  0  0
   -6.9870   19.0820  -33.1650 C   0  0  0  0  0  0  0  0  0  0  0  0
   -7.7480   20.1590  -32.6110 O   0  0  0  0  0  0  0  0  0  0  0  0
   -7.1570   21.2970  -32.0460 C   0  0  0  0  0  0  0  0  0  0  0  0
   -7.9070   22.1410  -31.2240 C   0  0  0  0  0  0  0  0  0  0  0  0
   -7.3140   23.2710  -30.6520 C   0  0  0  0  0  0  0  0  0  0  0  0
   -5.9690   23.5690  -30.9110 C   0  0  0  0  0  0  0  0  0  0  0  0
   -5.1930   24.9470  -30.1380 S   0  0  0  0  0  0  0  0  0  0  0  0
   -5.7870   26.2100  -30.6890 O   0  0  0  0  0  0  0  0  0  0  0  0
   -5.4050   24.9110  -28.6500 O   0  0  0  0  0  0  0  0  0  0  0  0
   -3.4910   24.9270  -30.4690 N   0  0  0  0  0  0  0  0  0  0  0  0
   -2.5150   24.2030  -29.7060 C   0  0  0  0  0  0  0  0  0  0  0  0
   -2.4830   22.7970  -29.6860 C   0  0  0  0  0  0  0  0  0  0  0  0
   -1.4840   22.1160  -28.9780 C   0  0  0  0  0  0  0  0  0  0  0  0
   -1.4490   20.3510  -28.9740 S   0  0  0  0  0  0  0  0  0  0  0  0
   -0.3050   19.8830  -28.1170 O   0  0  0  0  0  0  0  0  0  0  0  0
   -2.7270   19.8320  -28.3700 O   0  0  0  0  0  0  0  0  0  0  0  0
   -1.2670   19.7100  -30.5920 N   0  0  0  0  0  0  0  0  0  0  0  0
    0.0720   20.0410  -31.1310 C   0  0  0  0  0  0  0  0  0  0  0  0
    0.1180   19.8860  -32.6560 C   0  0  0  0  0  0  0  0  0  0  0  0
   -0.8760   20.8390  -33.3440 C   0  0  0  0  0  0  0  0  0  0  0  0
   -2.0510   21.2330  -32.4340 C   0  0  0  0  0  0  0  0  0  0  0  0
   -2.4030   20.0970  -31.4640 C   0  0  0  0  0  0  0  0  0  0  0  0
   -0.5170   22.8450  -28.2760 C   0  0  0  0  0  0  0  0  0  0  0  0
   -0.5620   24.2400  -28.2660 C   0  0  0  0  0  0  0  0  0  0  0  0
   -1.5560   24.9200  -28.9780 C   0  0  0  0  0  0  0  0  0  0  0  0
   -1.5830   26.3110  -28.9670 O   0  0  0  0  0  0  0  0  0  0  0  0
   -5.2260   22.7370  -31.7600 C   0  0  0  0  0  0  0  0  0  0  0  0
   -5.8160   21.5990  -32.3230 C   0  0  0  0  0  0  0  0  0  0  0  0
   -5.0770   20.7520  -33.2090 N   0  0  0  0  0  0  0  0  0  0  0  0
   -7.5677   18.6145  -33.9738 H   0  0  0  0  0  0  0  0  0  0  0  0
   -6.7786   18.3608  -32.3610 H   0  0  0  0  0  0  0  0  0  0  0  0
   -8.9656   21.9166  -31.0262 H   0  0  0  0  0  0  0  0  0  0  0  0
   -7.9048   23.9280  -29.9968 H   0  0  0  0  0  0  0  0  0  0  0  0
   -3.2494   22.2267  -30.2313 H   0  0  0  0  0  0  0  0  0  0  0  0
    0.3152   21.0816  -30.8700 H   0  0  0  0  0  0  0  0  0  0  0  0
    0.8025   19.3460  -30.6913 H   0  0  0  0  0  0  0  0  0  0  0  0
    1.1349   20.1127  -33.0089 H   0  0  0  0  0  0  0  0  0  0  0  0
   -0.1596   18.8521  -32.9090 H   0  0  0  0  0  0  0  0  0  0  0  0
   -0.3394   21.7524  -33.6404 H   0  0  0  0  0  0  0  0  0  0  0  0
   -1.2935   20.3105  -34.2137 H   0  0  0  0  0  0  0  0  0  0  0  0
   -1.7736   22.1265  -31.8555 H   0  0  0  0  0  0  0  0  0  0  0  0
   -2.9283   21.4383  -33.0650 H   0  0  0  0  0  0  0  0  0  0  0  0
   -3.2382   20.4249  -30.8276 H   0  0  0  0  0  0  0  0  0  0  0  0
   -2.6699   19.2175  -32.0684 H   0  0  0  0  0  0  0  0  0  0  0  0
    0.2798   22.3175  -27.7312 H   0  0  0  0  0  0  0  0  0  0  0  0
    0.1878   24.8076  -27.6954 H   0  0  0  0  0  0  0  0  0  0  0  0
   -4.1767   22.9789  -31.9845 H   0  0  0  0  0  0  0  0  0  0  0  0
   -4.1080   21.0120  -33.5030 H   0  0  0  0  0  0  0  0  0  0  0  0
  1  2  2  0
  2  3  1  0
  3  4  1  0
  4  5  1  0
  5  6  2  0
  6  7  1  0
  7  8  2  0
  8  9  1  0
  9 10  2  0
  9 11  2  0
  9 12  1  0
 12 13  1  0
 13 14  2  0
 14 15  1  0
 15 16  1  0
 16 17  2  0
 16 18  2  0
 16 19  1  0
 19 20  1  0
 20 21  1  0
 21 22  1  0
 22 23  1  0
 23 24  1  0
 15 25  2  0
 25 26  1  0
 26 27  2  0
 27 28  1  0
  8 29  1  0
 29 30  2  0
 30 31  1  0
 31  2  1  0
 30  5  1  0
 27 13  1  0
 24 19  1  0
  3 32  1  0
  3 33  1  0
  6 34  1  0
  7 35  1  0
 14 36  1  0
 20 37  1  0
 20 38  1  0
 21 39  1  0
 21 40  1  0
 22 41  1  0
 22 42  1  0
 23 43  1  0
 23 44  1  0
 24 45  1  0
 24 46  1  0
 25 47  1  0
 26 48  1  0
 29 49  1  0
 31 50  1  0
M  CHG  2  12  -1  28  -1
M  END
>  <UniqueID>  (45) 
45

>  <SMILES>  (45) 
O=C1COc2ccc(S(=O)(=O)[N-]c3cc(S(=O)(=O)N4CCCCC4)ccc3[O-])cc2N1

>  <Energy>  (45) 
61.15699006913411

>  <Genealogy>  (45) 
O=C1COc2ccc(S(=O)(=O)[N-]c3cc(S(=O)(=O)N4CCCCC4)ccc3[O-])cc2N1 (protonated)
O=C1COc2ccc(S(=O)(=O)[N-]c3cc(S(=O)(=O)N4CCCCC4)ccc3[O-])cc2N1 (3D coordinates assigned)
O=C1COc2ccc(S(=O)(=O)[N-]c3cc(S(=O)(=O)N4CCCCC4)ccc3[O-])cc2N1 (nonaromatic ring conformer: 61.15699006913411 kcal/mol)

>  <smiles>  (45) 
O=C1COc2ccc(S(=O)(=O)Nc3cc(S(=O)(=O)N4CCCCC4)ccc3O)cc2N1

>  <score_type>  (45) 
oracle

>  <origin>  (45) 
adgpu

>  <m_score__min__energy>  (45) 
-14.029999999999999

>  <m_primary>  (45) 
energy

$$$$
45:0
     RDKit          3D

 44 46  0  0  0  0  0  0  0  0999 V2000
   -6.9820   18.2720  -33.0120 C   0  0  0  0  0  0  0  0  0  0  0  0
   -5.8040   19.1660  -32.7600 C   0  0  0  0  0  0  0  0  0  0  0  0
   -4.7390   19.2060  -33.6720 C   0  0  0  0  0  0  0  0  0  0  0  0
   -3.6590   20.0680  -33.4580 C   0  0  0  0  0  0  0  0  0  0  0  0
   -3.6310   20.9020  -32.3290 C   0  0  0  0  0  0  0  0  0  0  0  0
   -2.4890   21.8520  -32.1180 C   0  0  0  0  0  0  0  0  0  0  0  0
   -1.2750   21.1030  -30.9850 S   0  0  0  0  0  0  0  0  0  0  0  0
   -1.9010   21.9810  -29.5550 C   0  0  0  0  0  0  0  0  0  0  0  0
   -1.2960   21.8170  -28.3500 N   0  0  0  0  0  0  0  0  0  0  0  0
   -1.7430   22.4720  -27.2500 C   0  0  0  0  0  0  0  0  0  0  0  0
   -1.1660   22.3050  -26.1440 O   0  0  0  0  0  0  0  0  0  0  0  0
   -2.8400   23.3260  -27.3470 C   0  0  0  0  0  0  0  0  0  0  0  0
   -3.4610   23.4890  -28.5920 C   0  0  0  0  0  0  0  0  0  0  0  0
   -4.5940   24.3720  -28.7040 N   0  0  0  0  0  0  0  0  0  0  0  0
   -5.0050   25.0100  -29.9600 C   0  0  1  0  0  0  0  0  0  0  0  0
   -3.8880   25.2820  -30.7680 O   0  0  0  0  0  0  0  0  0  0  0  0
   -5.9830   24.1400  -30.7030 C   0  0  0  0  0  0  0  0  0  0  0  0
   -6.0970   24.0480  -32.0860 C   0  0  0  0  0  0  0  0  0  0  0  0
   -7.1320   23.2020  -32.5030 C   0  0  0  0  0  0  0  0  0  0  0  0
   -7.8490   22.6550  -31.4460 C   0  0  0  0  0  0  0  0  0  0  0  0
   -8.9610   21.6680  -31.5690 C   0  0  0  0  0  0  0  0  0  0  0  0
   -7.1840   23.1900  -29.9970 S   0  0  0  0  0  0  0  0  0  0  0  0
   -2.9760   22.8090  -29.6740 N   0  0  0  0  0  0  0  0  0  0  0  0
   -4.7120   20.8850  -31.4330 C   0  0  0  0  0  0  0  0  0  0  0  0
   -5.7920   20.0230  -31.6490 C   0  0  0  0  0  0  0  0  0  0  0  0
   -7.4087   17.9482  -32.0512 H   0  0  0  0  0  0  0  0  0  0  0  0
   -7.7435   18.8216  -33.5848 H   0  0  0  0  0  0  0  0  0  0  0  0
   -6.6576   17.3907  -33.5848 H   0  0  0  0  0  0  0  0  0  0  0  0
   -4.7535   18.5563  -34.5595 H   0  0  0  0  0  0  0  0  0  0  0  0
   -2.8274   20.0928  -34.1776 H   0  0  0  0  0  0  0  0  0  0  0  0
   -2.0065   22.0650  -33.0833 H   0  0  0  0  0  0  0  0  0  0  0  0
   -2.8675   22.7882  -31.6819 H   0  0  0  0  0  0  0  0  0  0  0  0
   -3.2117   23.8626  -26.4616 H   0  0  0  0  0  0  0  0  0  0  0  0
   -5.1530   24.5630  -27.8390 H   0  0  0  0  0  0  0  0  0  0  0  0
   -5.4988   25.9614  -29.7129 H   0  0  0  0  0  0  0  0  0  0  0  0
   -4.2230   25.6700  -31.6180 H   0  0  0  0  0  0  0  0  0  0  0  0
   -5.4389   24.5868  -32.7836 H   0  0  0  0  0  0  0  0  0  0  0  0
   -7.3547   22.9919  -33.5595 H   0  0  0  0  0  0  0  0  0  0  0  0
   -9.2982   21.3687  -30.5657 H   0  0  0  0  0  0  0  0  0  0  0  0
   -9.7985   22.1255  -32.1160 H   0  0  0  0  0  0  0  0  0  0  0  0
   -8.6061   20.7821  -32.1160 H   0  0  0  0  0  0  0  0  0  0  0  0
   -3.4150   22.9120  -30.6140 H   0  0  0  0  0  0  0  0  0  0  0  0
   -4.7094   21.5519  -30.5582 H   0  0  0  0  0  0  0  0  0  0  0  0
   -6.6365   20.0168  -30.9442 H   0  0  0  0  0  0  0  0  0  0  0  0
  1  2  1  0
  2  3  2  0
  3  4  1  0
  4  5  2  0
  5  6  1  0
  6  7  1  0
  7  8  1  0
  8  9  2  0
  9 10  1  0
 10 11  2  0
 10 12  1  0
 12 13  2  0
 13 14  1  0
 14 15  1  0
 15 16  1  0
 15 17  1  0
 17 18  2  0
 18 19  1  0
 19 20  2  0
 20 21  1  0
 20 22  1  0
 13 23  1  0
  5 24  1  0
 24 25  2  0
 25  2  1  0
 23  8  1  0
 22 17  1  0
  1 26  1  0
  1 27  1  0
  1 28  1  0
  3 29  1  0
  4 30  1  0
  6 31  1  0
  6 32  1  0
 12 33  1  0
 14 34  1  0
 15 35  1  1
 16 36  1  0
 18 37  1  0
 19 38  1  0
 21 39  1  0
 21 40  1  0
 21 41  1  0
 23 42  1  0
 24 43  1  0
 25 44  1  0
M  END
>  <UniqueID>  (46) 
46

>  <SMILES>  (46) 
Cc1ccc(CSc2nc(=O)cc(N[C@@H](O)c3ccc(C)s3)[nH]2)cc1

>  <Energy>  (46) 
65.88540737885582

>  <Genealogy>  (46) 
Cc1ccc(CSc2nc(=O)cc(N[C@@H](O)c3ccc(C)s3)[nH]2)cc1 (chirality)
Cc1ccc(CSc2nc(=O)cc(N[C@@H](O)c3ccc(C)s3)[nH]2)cc1 (3D coordinates assigned)
Cc1ccc(CSc2nc(=O)cc(N[C@@H](O)c3ccc(C)s3)[nH]2)cc1 (optimized conformer: 65.88540737885582 kcal/mol)

>  <smiles>  (46) 
Cc1ccc(CSc2nc(=O)cc(NC(O)c3ccc(C)s3)[nH]2)cc1

>  <score_type>  (46) 
oracle

>  <origin>  (46) 
adgpu

>  <m_score__min__energy>  (46) 
-9.25

>  <m_primary>  (46) 
energy

$$$$
46:0
     RDKit          3D

 45 47  0  0  0  0  0  0  0  0999 V2000
   -1.7887   26.4276  -23.4085 H   0  0  0  0  0  0  0  0  0  0  0  0
   -1.4980   26.4000  -24.4690 C   0  0  0  0  0  0  0  0  0  0  0  0
   -1.6000   25.2070  -25.1900 C   0  0  0  0  0  0  0  0  0  0  0  0
   -1.9885   24.3024  -24.6994 H   0  0  0  0  0  0  0  0  0  0  0  0
   -1.2100   25.1580  -26.5340 C   0  0  0  0  0  0  0  0  0  0  0  0
   -1.3700   23.9340  -27.2670 N   0  0  0  0  0  0  0  0  0  0  0  0
   -2.0590   23.7530  -28.3580 C   0  0  0  0  0  0  0  0  0  0  0  0
   -2.1780   22.4930  -28.8470 N   0  0  0  0  0  0  0  0  0  0  0  0
   -2.8750   22.2300  -29.9800 C   0  0  0  0  0  0  0  0  0  0  0  0
   -2.9590   21.0400  -30.3870 O   0  0  0  0  0  0  0  0  0  0  0  0
   -3.4940   23.2770  -30.6830 C   0  0  0  0  0  0  0  0  0  0  0  0
   -4.2490   23.0220  -31.9690 C   0  0  0  0  0  0  0  0  0  0  0  0
   -4.6978   23.9638  -32.3176 H   0  0  0  0  0  0  0  0  0  0  0  0
   -3.5469   22.6337  -32.7215 H   0  0  0  0  0  0  0  0  0  0  0  0
   -5.3390   22.0050  -31.7510 C   0  0  0  0  0  0  0  0  0  0  0  0
   -5.1400   20.6650  -32.1200 C   0  0  0  0  0  0  0  0  0  0  0  0
   -4.1743   20.3537  -32.5450 H   0  0  0  0  0  0  0  0  0  0  0  0
   -6.1630   19.7200  -31.9510 C   0  0  0  0  0  0  0  0  0  0  0  0
   -5.9600   18.3010  -32.3920 C   0  0  0  0  0  0  0  0  0  0  0  0
   -5.8672   17.6522  -31.5086 H   0  0  0  0  0  0  0  0  0  0  0  0
   -6.8211   17.9778  -32.9954 H   0  0  0  0  0  0  0  0  0  0  0  0
   -5.0429   18.2322  -32.9954 H   0  0  0  0  0  0  0  0  0  0  0  0
   -7.4020   20.1280  -31.4380 C   0  0  0  0  0  0  0  0  0  0  0  0
   -8.2183   19.3975  -31.3375 H   0  0  0  0  0  0  0  0  0  0  0  0
   -7.6090   21.4600  -31.0520 C   0  0  0  0  0  0  0  0  0  0  0  0
   -8.9470   21.8980  -30.5340 C   0  0  0  0  0  0  0  0  0  0  0  0
   -8.9337   21.8936  -29.4341 H   0  0  0  0  0  0  0  0  0  0  0  0
   -9.1648   22.9143  -30.8940 H   0  0  0  0  0  0  0  0  0  0  0  0
   -9.7236   21.2072  -30.8940 H   0  0  0  0  0  0  0  0  0  0  0  0
   -6.5790   22.3970  -31.2250 C   0  0  0  0  0  0  0  0  0  0  0  0
   -6.7453   23.4479  -30.9458 H   0  0  0  0  0  0  0  0  0  0  0  0
   -3.3390   24.5800  -30.1790 C   0  0  0  0  0  0  0  0  0  0  0  0
   -3.9060   25.6640  -30.8400 O   0  0  0  0  0  0  0  0  0  0  0  0
   -2.6280   24.7930  -29.0390 N   0  0  0  0  0  0  0  0  0  0  0  0
   -2.5020   25.7820  -28.7280 H   0  0  0  0  0  0  0  0  0  0  0  0
   -0.7750   26.3340  -27.1700 C   0  0  0  0  0  0  0  0  0  0  0  0
   -0.5187   26.3162  -28.2396 H   0  0  0  0  0  0  0  0  0  0  0  0
   -0.6670   27.5280  -26.4460 C   0  0  0  0  0  0  0  0  0  0  0  0
   -0.0840   29.0180  -27.2550 S   0  0  0  0  0  0  0  0  0  0  0  0
   -0.7950   30.1230  -25.9960 C   0  0  0  0  0  0  0  0  0  0  0  0
   -0.5500   29.7423  -24.9935 H   0  0  0  0  0  0  0  0  0  0  0  0
   -0.3771   31.1333  -26.1167 H   0  0  0  0  0  0  0  0  0  0  0  0
   -1.8877   30.1613  -26.1167 H   0  0  0  0  0  0  0  0  0  0  0  0
   -1.0270   27.5580  -25.0940 C   0  0  0  0  0  0  0  0  0  0  0  0
   -0.9392   28.4939  -24.5226 H   0  0  0  0  0  0  0  0  0  0  0  0
  1  2  1  0
  2  3  2  0
  3  4  1  0
  3  5  1  0
  5  6  1  0
  6  7  2  0
  7  8  1  0
  8  9  1  0
  9 10  2  0
  9 11  1  0
 11 12  1  0
 12 13  1  0
 12 14  1  0
 12 15  1  0
 15 16  2  0
 16 17  1  0
 16 18  1  0
 18 19  1  0
 19 20  1  0
 19 21  1  0
 19 22  1  0
 18 23  2  0
 23 24  1  0
 23 25  1  0
 25 26  1  0
 26 27  1  0
 26 28  1  0
 26 29  1  0
 25 30  2  0
 30 31  1  0
 11 32  2  0
 32 33  1  0
 32 34  1  0
 34 35  1  0
  5 36  2  0
 36 37  1  0
 36 38  1  0
 38 39  1  0
 39 40  1  0
 40 41  1  0
 40 42  1  0
 40 43  1  0
 38 44  2  0
 44 45  1  0
 44  2  1  0
 34  7  1  0
 30 15  1  0
M  CHG  2   8  -1  33  -1
M  END
>  <UniqueID>  (47) 
47

>  <SMILES>  (47) 
CSc1cccc(/N=c2/[n-]c(=O)c(Cc3cc(C)cc(C)c3)c([O-])[nH]2)c1

>  <Energy>  (47) 
51.05130106126921

>  <Genealogy>  (47) 
CSc1cccc(N=c2[n-]c(=O)c(Cc3cc(C)cc(C)c3)c([O-])[nH]2)c1 (protonated)
CSc1cccc(/N=c2/[n-]c(=O)c(Cc3cc(C)cc(C)c3)c([O-])[nH]2)c1 (cis-trans isomerization)
CSc1cccc(/N=c2/[n-]c(=O)c(Cc3cc(C)cc(C)c3)c([O-])[nH]2)c1 (3D coordinates assigned)
CSc1cccc(/N=c2/[n-]c(=O)c(Cc3cc(C)cc(C)c3)c([O-])[nH]2)c1 (optimized conformer: 51.05130106126921 kcal/mol)

>  <smiles>  (47) 
CSc1cccc(N=c2[nH]c(O)c(Cc3cc(C)cc(C)c3)c(=O)[nH]2)c1

>  <score_type>  (47) 
oracle

>  <origin>  (47) 
adgpu

>  <m_score__min__energy>  (47) 
-11.75

>  <m_primary>  (47) 
energy

$$$$
47:0
     RDKit          3D

 41 43  0  0  0  0  0  0  0  0999 V2000
   -5.9090   26.2130  -30.1890 O   0  0  0  0  0  0  0  0  0  0  0  0
   -5.2250   25.1980  -30.4850 C   0  0  0  0  0  0  0  0  0  0  0  0
   -3.7960   25.3080  -30.4790 N   0  0  0  0  0  0  0  0  0  0  0  0
   -2.8840   24.4680  -29.7550 C   0  0  0  0  0  0  0  0  0  0  0  0
   -3.0400   23.0780  -29.8460 C   0  0  0  0  0  0  0  0  0  0  0  0
   -2.1780   22.2210  -29.1520 C   0  0  0  0  0  0  0  0  0  0  0  0
   -2.3510   20.8460  -29.2340 O   0  0  0  0  0  0  0  0  0  0  0  0
   -1.1450   22.7500  -28.3740 C   0  0  0  0  0  0  0  0  0  0  0  0
   -0.9620   24.1340  -28.3020 C   0  0  0  0  0  0  0  0  0  0  0  0
   -1.8170   24.9950  -28.9990 C   0  0  0  0  0  0  0  0  0  0  0  0
   -1.5770   26.3640  -28.9560 O   0  0  0  0  0  0  0  0  0  0  0  0
   -5.9170   23.9450  -30.8750 C   0  0  0  0  0  0  0  0  0  0  0  0
   -7.0200   23.4710  -30.1440 C   0  0  0  0  0  0  0  0  0  0  0  0
   -7.6660   22.2910  -30.5220 C   0  0  0  0  0  0  0  0  0  0  0  0
   -7.2120   21.5600  -31.6260 C   0  0  0  0  0  0  0  0  0  0  0  0
   -8.0260   20.0650  -32.0950 S   0  0  0  0  0  0  0  0  0  0  0  0
   -9.0680   20.3760  -33.1350 O   0  0  0  0  0  0  0  0  0  0  0  0
   -8.7250   19.4880  -30.8960 O   0  0  0  0  0  0  0  0  0  0  0  0
   -6.9080   18.8850  -32.7330 N   0  0  0  0  0  0  0  0  0  0  0  0
   -7.5350   17.5540  -32.7850 C   0  0  0  0  0  0  0  0  0  0  0  0
   -6.6450   16.5610  -33.5590 C   0  0  0  0  0  0  0  0  0  0  0  0
   -5.3540   17.0970  -33.7780 O   0  0  0  0  0  0  0  0  0  0  0  0
   -5.4430   18.2410  -34.6110 C   0  0  0  0  0  0  0  0  0  0  0  0
   -6.4480   19.2810  -34.0720 C   0  0  0  0  0  0  0  0  0  0  0  0
   -6.1040   22.0180  -32.3490 C   0  0  0  0  0  0  0  0  0  0  0  0
   -5.4570   23.1990  -31.9740 C   0  0  0  0  0  0  0  0  0  0  0  0
   -3.8451   22.6580  -30.4668 H   0  0  0  0  0  0  0  0  0  0  0  0
   -0.4755   22.0772  -27.8180 H   0  0  0  0  0  0  0  0  0  0  0  0
   -0.1430   24.5477  -27.6953 H   0  0  0  0  0  0  0  0  0  0  0  0
   -7.3771   24.0328  -29.2683 H   0  0  0  0  0  0  0  0  0  0  0  0
   -8.5352   21.9350  -29.9494 H   0  0  0  0  0  0  0  0  0  0  0  0
   -7.6815   17.1838  -31.7596 H   0  0  0  0  0  0  0  0  0  0  0  0
   -8.5020   17.6391  -33.3024 H   0  0  0  0  0  0  0  0  0  0  0  0
   -6.5541   15.6316  -32.9776 H   0  0  0  0  0  0  0  0  0  0  0  0
   -7.1109   16.3625  -34.5355 H   0  0  0  0  0  0  0  0  0  0  0  0
   -4.4498   18.7094  -34.6760 H   0  0  0  0  0  0  0  0  0  0  0  0
   -5.7970   17.9113  -35.5989 H   0  0  0  0  0  0  0  0  0  0  0  0
   -5.9590   20.2646  -34.0136 H   0  0  0  0  0  0  0  0  0  0  0  0
   -7.3121   19.3351  -34.7505 H   0  0  0  0  0  0  0  0  0  0  0  0
   -5.7411   21.4461  -33.2157 H   0  0  0  0  0  0  0  0  0  0  0  0
   -4.5821   23.5469  -32.5427 H   0  0  0  0  0  0  0  0  0  0  0  0
  1  2  2  0
  2  3  1  0
  3  4  1  0
  4  5  2  0
  5  6  1  0
  6  7  1  0
  6  8  2  0
  8  9  1  0
  9 10  2  0
 10 11  1  0
  2 12  1  0
 12 13  2  0
 13 14  1  0
 14 15  2  0
 15 16  1  0
 16 17  2  0
 16 18  2  0
 16 19  1  0
 19 20  1  0
 20 21  1  0
 21 22  1  0
 22 23  1  0
 23 24  1  0
 15 25  1  0
 25 26  2  0
 10  4  1  0
 26 12  1  0
 24 19  1  0
  5 27  1  0
  8 28  1  0
  9 29  1  0
 13 30  1  0
 14 31  1  0
 20 32  1  0
 20 33  1  0
 21 34  1  0
 21 35  1  0
 23 36  1  0
 23 37  1  0
 24 38  1  0
 24 39  1  0
 25 40  1  0
 26 41  1  0
M  CHG  3   3  -1   7  -1  11  -1
M  END
>  <UniqueID>  (48) 
48

>  <SMILES>  (48) 
O=C([N-]c1cc([O-])ccc1[O-])c1ccc(S(=O)(=O)N2CCOCC2)cc1

>  <Energy>  (48) 
58.53856709237731

>  <Genealogy>  (48) 
O=C([N-]c1cc([O-])ccc1[O-])c1ccc(S(=O)(=O)N2CCOCC2)cc1 (protonated)
O=C([N-]c1cc([O-])ccc1[O-])c1ccc(S(=O)(=O)N2CCOCC2)cc1 (3D coordinates assigned)
O=C([N-]c1cc([O-])ccc1[O-])c1ccc(S(=O)(=O)N2CCOCC2)cc1 (nonaromatic ring conformer: 58.53856709237731 kcal/mol)

>  <smiles>  (48) 
O=C(Nc1cc(O)ccc1O)c1ccc(S(=O)(=O)N2CCOCC2)cc1

>  <score_type>  (48) 
oracle

>  <origin>  (48) 
adgpu

>  <m_score__min__energy>  (48) 
-14.31

>  <m_primary>  (48) 
energy

$$$$
48:0
     RDKit          3D

 54 57  0  0  0  0  0  0  0  0999 V2000
   -1.4160   20.7660  -31.1190 C   0  0  0  0  0  0  0  0  0  0  0  0
   -2.0880   19.9790  -32.2050 C   0  0  0  0  0  0  0  0  0  0  0  0
   -1.3170   19.2600  -33.1280 C   0  0  0  0  0  0  0  0  0  0  0  0
   -1.9380   18.4950  -34.1150 C   0  0  0  0  0  0  0  0  0  0  0  0
   -3.3310   18.4270  -34.1790 C   0  0  0  0  0  0  0  0  0  0  0  0
   -4.1280   19.1450  -33.2630 C   0  0  0  0  0  0  0  0  0  0  0  0
   -3.4900   19.9150  -32.2710 C   0  0  0  0  0  0  0  0  0  0  0  0
   -5.5680   19.0820  -33.4020 N   0  0  0  0  0  0  0  0  0  0  0  0
   -6.6600   19.3020  -32.0550 S   0  0  0  0  0  0  0  0  0  0  0  0
   -6.1820   18.5030  -30.8740 O   0  0  0  0  0  0  0  0  0  0  0  0
   -8.0390   18.8110  -32.3890 O   0  0  0  0  0  0  0  0  0  0  0  0
   -6.7070   21.0040  -31.6040 C   0  0  0  0  0  0  0  0  0  0  0  0
   -7.9210   21.7020  -31.6160 C   0  0  0  0  0  0  0  0  0  0  0  0
   -7.9570   23.0540  -31.2660 C   0  0  0  0  0  0  0  0  0  0  0  0
   -6.7850   23.7150  -30.8890 C   0  0  0  0  0  0  0  0  0  0  0  0
   -6.8480   25.0290  -30.5560 F   0  0  0  0  0  0  0  0  0  0  0  0
   -5.5670   23.0160  -30.8420 C   0  0  0  0  0  0  0  0  0  0  0  0
   -4.0830   23.8070  -30.3020 S   0  0  0  0  0  0  0  0  0  0  0  0
   -4.2400   25.2990  -30.4010 O   0  0  0  0  0  0  0  0  0  0  0  0
   -2.9630   23.4070  -31.2240 O   0  0  0  0  0  0  0  0  0  0  0  0
   -3.6460   23.3650  -28.6630 N   0  0  0  0  0  0  0  0  0  0  0  0
   -2.3680   22.6330  -28.5870 C   0  0  0  0  0  0  0  0  0  0  0  0
   -1.1320   23.5630  -28.5670 C   0  0  0  0  0  0  0  0  0  0  0  0
   -1.4700   24.9320  -28.4850 O   0  0  0  0  0  0  0  0  0  0  0  0
   -2.3640   25.1310  -27.4150 C   0  0  0  0  0  0  0  0  0  0  0  0
   -3.7330   24.5050  -27.7260 C   0  0  0  0  0  0  0  0  0  0  0  0
   -5.5340   21.6630  -31.2150 C   0  0  0  0  0  0  0  0  0  0  0  0
   -6.1130   18.5950  -34.6790 C   0  0  0  0  0  0  0  0  0  0  0  0
   -5.3380   17.3520  -35.1460 C   0  0  2  0  0  0  0  0  0  0  0  0
   -5.6120   16.1460  -34.2430 C   0  0  0  0  0  0  0  0  0  0  0  0
   -3.9380   17.6340  -35.1610 O   0  0  0  0  0  0  0  0  0  0  0  0
   -1.7393   20.3874  -30.1381 H   0  0  0  0  0  0  0  0  0  0  0  0
   -0.3250   20.6606  -31.2113 H   0  0  0  0  0  0  0  0  0  0  0  0
   -1.6910   21.8271  -31.2113 H   0  0  0  0  0  0  0  0  0  0  0  0
   -0.2190   19.2990  -33.0740 H   0  0  0  0  0  0  0  0  0  0  0  0
   -1.3282   17.9433  -34.8456 H   0  0  0  0  0  0  0  0  0  0  0  0
   -4.0955   20.4718  -31.5407 H   0  0  0  0  0  0  0  0  0  0  0  0
   -8.8486   21.1844  -31.9017 H   0  0  0  0  0  0  0  0  0  0  0  0
   -8.9115   23.6003  -31.2873 H   0  0  0  0  0  0  0  0  0  0  0  0
   -2.3655   22.0288  -27.6678 H   0  0  0  0  0  0  0  0  0  0  0  0
   -2.2939   22.0110  -29.4912 H   0  0  0  0  0  0  0  0  0  0  0  0
   -0.5121   23.3027  -27.6964 H   0  0  0  0  0  0  0  0  0  0  0  0
   -0.5941   23.4141  -29.5149 H   0  0  0  0  0  0  0  0  0  0  0  0
   -1.9514   24.6644  -26.5084 H   0  0  0  0  0  0  0  0  0  0  0  0
   -2.4965   26.2122  -27.2618 H   0  0  0  0  0  0  0  0  0  0  0  0
   -4.1793   24.1520  -26.7846 H   0  0  0  0  0  0  0  0  0  0  0  0
   -4.3484   25.2801  -28.2062 H   0  0  0  0  0  0  0  0  0  0  0  0
   -4.5796   21.1163  -31.2016 H   0  0  0  0  0  0  0  0  0  0  0  0
   -7.1732   18.3337  -34.5458 H   0  0  0  0  0  0  0  0  0  0  0  0
   -6.0142   19.3860  -35.4370 H   0  0  0  0  0  0  0  0  0  0  0  0
   -5.6797   17.1010  -36.1610 H   0  0  0  0  0  0  0  0  0  0  0  0
   -5.5421   16.4536  -33.1892 H   0  0  0  0  0  0  0  0  0  0  0  0
   -6.6212   15.7580  -34.4456 H   0  0  0  0  0  0  0  0  0  0  0  0
   -4.8695   15.3601  -34.4456 H   0  0  0  0  0  0  0  0  0  0  0  0
  1  2  1  0
  2  3  2  0
  3  4  1  0
  4  5  2  0
  5  6  1  0
  6  7  2  0
  6  8  1  0
  8  9  1  0
  9 10  2  0
  9 11  2  0
  9 12  1  0
 12 13  2  0
 13 14  1  0
 14 15  2  0
 15 16  1  0
 15 17  1  0
 17 18  1  0
 18 19  2  0
 18 20  2  0
 18 21  1  0
 21 22  1  0
 22 23  1  0
 23 24  1  0
 24 25  1  0
 25 26  1  0
 17 27  2  0
  8 28  1  0
 28 29  1  0
 29 30  1  0
 29 31  1  0
  7  2  1  0
 27 12  1  0
 31  5  1  0
 26 21  1  0
  1 32  1  0
  1 33  1  0
  1 34  1  0
  3 35  1  0
  4 36  1  0
  7 37  1  0
 13 38  1  0
 14 39  1  0
 22 40  1  0
 22 41  1  0
 23 42  1  0
 23 43  1  0
 25 44  1  0
 25 45  1  0
 26 46  1  0
 26 47  1  0
 27 48  1  0
 28 49  1  0
 28 50  1  0
 29 51  1  6
 30 52  1  0
 30 53  1  0
 30 54  1  0
M  END
>  <UniqueID>  (49) 
49

>  <SMILES>  (49) 
Cc1ccc2c(c1)N(S(=O)(=O)c1ccc(F)c(S(=O)(=O)N3CCOCC3)c1)C[C@H](C)O2

>  <Energy>  (49) 
65.45734507070527

>  <Genealogy>  (49) 
Cc1ccc2c(c1)N(S(=O)(=O)c1ccc(F)c(S(=O)(=O)N3CCOCC3)c1)C[C@H](C)O2 (chirality)
Cc1ccc2c(c1)N(S(=O)(=O)c1ccc(F)c(S(=O)(=O)N3CCOCC3)c1)C[C@H](C)O2 (3D coordinates assigned)
Cc1ccc2c(c1)N(S(=O)(=O)c1ccc(F)c(S(=O)(=O)N3CCOCC3)c1)C[C@H](C)O2 (nonaromatic ring conformer: 65.45734507070527 kcal/mol)

>  <smiles>  (49) 
Cc1ccc2c(c1)N(S(=O)(=O)c1ccc(F)c(S(=O)(=O)N3CCOCC3)c1)CC(C)O2

>  <score_type>  (49) 
oracle

>  <origin>  (49) 
adgpu

>  <m_score__min__energy>  (49) 
-10.449999999999999

>  <m_primary>  (49) 
energy

$$$$
