0:0
     RDKit          3D

 54 57  0  0  0  0  0  0  0  0999 V2000
   -3.6732   19.7392  -30.3773 H   0  0  0  0  0  0  0  0  0  0  0  0
   -3.9930   20.6550  -30.8960 C   0  0  0  0  0  0  0  0  0  0  0  0
   -4.7770   20.5650  -31.9270 N   0  0  0  0  0  0  0  0  0  0  0  0
   -5.2670   19.3410  -32.4310 N   0  0  0  0  0  0  0  0  0  0  0  0
   -6.6220   19.1410  -32.4650 C   0  0  0  0  0  0  0  0  0  0  0  0
   -7.5720   20.2090  -32.0090 C   0  0  0  0  0  0  0  0  0  0  0  0
   -7.5947   20.2345  -30.9095 H   0  0  0  0  0  0  0  0  0  0  0  0
   -7.2378   21.1847  -32.3916 H   0  0  0  0  0  0  0  0  0  0  0  0
   -8.5800   19.9908  -32.3916 H   0  0  0  0  0  0  0  0  0  0  0  0
   -7.1310   17.9740  -32.9380 N   0  0  0  0  0  0  0  0  0  0  0  0
   -6.3260   16.9730  -33.3700 C   0  0  0  0  0  0  0  0  0  0  0  0
   -6.8850   15.7830  -33.8540 C   0  0  0  0  0  0  0  0  0  0  0  0
   -7.9779   15.6646  -33.8922 H   0  0  0  0  0  0  0  0  0  0  0  0
   -6.0550   14.7470  -34.2880 C   0  0  0  0  0  0  0  0  0  0  0  0
   -6.4955   13.8149  -34.6716 H   0  0  0  0  0  0  0  0  0  0  0  0
   -4.6660   14.8920  -34.2360 C   0  0  0  0  0  0  0  0  0  0  0  0
   -4.0159   14.0726  -34.5767 H   0  0  0  0  0  0  0  0  0  0  0  0
   -4.1000   16.0760  -33.7520 C   0  0  0  0  0  0  0  0  0  0  0  0
   -3.0062   16.1852  -33.7112 H   0  0  0  0  0  0  0  0  0  0  0  0
   -4.9280   17.1280  -33.3170 C   0  0  0  0  0  0  0  0  0  0  0  0
   -4.4130   18.3370  -32.8200 C   0  0  0  0  0  0  0  0  0  0  0  0
   -3.1640   18.4860  -32.7070 O   0  0  0  0  0  0  0  0  0  0  0  0
   -3.5240   21.9680  -30.4090 C   0  0  0  0  0  0  0  0  0  0  0  0
   -4.1140   23.1650  -30.8470 C   0  0  0  0  0  0  0  0  0  0  0  0
   -4.9408   23.1319  -31.5718 H   0  0  0  0  0  0  0  0  0  0  0  0
   -3.6570   24.4060  -30.3670 C   0  0  0  0  0  0  0  0  0  0  0  0
   -4.2200   25.6220  -30.7830 O   0  0  0  0  0  0  0  0  0  0  0  0
   -5.5480   26.0410  -30.4860 C   0  0  0  0  0  0  0  0  0  0  0  0
   -5.6837   26.0838  -29.3952 H   0  0  0  0  0  0  0  0  0  0  0  0
   -5.7229   27.0380  -30.9167 H   0  0  0  0  0  0  0  0  0  0  0  0
   -6.2634   25.3249  -30.9167 H   0  0  0  0  0  0  0  0  0  0  0  0
   -2.6060   24.4410  -29.4400 C   0  0  0  0  0  0  0  0  0  0  0  0
   -2.1610   25.6720  -28.9710 O   0  0  0  0  0  0  0  0  0  0  0  0
   -2.0140   23.2480  -28.9880 C   0  0  0  0  0  0  0  0  0  0  0  0
   -0.7020   23.2620  -27.7990 S   0  0  0  0  0  0  0  0  0  0  0  0
   -0.9460   22.1620  -26.8020 O   0  0  0  0  0  0  0  0  0  0  0  0
    0.5970   22.9560  -28.4930 O   0  0  0  0  0  0  0  0  0  0  0  0
   -0.5550   24.7860  -26.9410 N   0  0  0  0  0  0  0  0  0  0  0  0
   -1.0960   25.4700  -27.5210 H   0  0  0  0  0  0  0  0  0  0  0  0
   -1.1960   24.7510  -25.6040 C   0  0  0  0  0  0  0  0  0  0  0  0
   -1.6790   25.7224  -25.4220 H   0  0  0  0  0  0  0  0  0  0  0  0
   -1.9217   23.9244  -25.6102 H   0  0  0  0  0  0  0  0  0  0  0  0
   -0.2000   24.4780  -24.4630 C   0  0  0  0  0  0  0  0  0  0  0  0
    0.1211   25.4363  -24.0289 H   0  0  0  0  0  0  0  0  0  0  0  0
   -0.6988   23.8586  -23.7031 H   0  0  0  0  0  0  0  0  0  0  0  0
    0.9300   23.7850  -24.9350 O   0  0  0  0  0  0  0  0  0  0  0  0
    1.6840   24.6300  -25.7780 C   0  0  0  0  0  0  0  0  0  0  0  0
    2.1244   25.4316  -25.1669 H   0  0  0  0  0  0  0  0  0  0  0  0
    2.4538   24.0099  -26.2605 H   0  0  0  0  0  0  0  0  0  0  0  0
    0.8400   25.2750  -26.9020 C   0  0  0  0  0  0  0  0  0  0  0  0
    0.8239   26.3637  -26.7454 H   0  0  0  0  0  0  0  0  0  0  0  0
    1.3080   25.0003  -27.8588 H   0  0  0  0  0  0  0  0  0  0  0  0
   -2.4710   22.0200  -29.4860 C   0  0  0  0  0  0  0  0  0  0  0  0
   -1.9975   21.0863  -29.1483 H   0  0  0  0  0  0  0  0  0  0  0  0
  1  2  1  0
  2  3  2  0
  3  4  1  0
  4  5  1  0
  5  6  1  0
  6  7  1  0
  6  8  1  0
  6  9  1  0
  5 10  2  0
 10 11  1  0
 11 12  2  0
 12 13  1  0
 12 14  1  0
 14 15  1  0
 14 16  2  0
 16 17  1  0
 16 18  1  0
 18 19  1  0
 18 20  2  0
 20 21  1  0
 21 22  2  0
  2 23  1  0
 23 24  2  0
 24 25  1  0
 24 26  1  0
 26 27  1  0
 27 28  1  0
 28 29  1  0
 28 30  1  0
 28 31  1  0
 26 32  2  0
 32 33  1  0
 32 34  1  0
 34 35  1  0
 35 36  2  0
 35 37  2  0
 35 38  1  0
 38 39  1  0
 38 40  1  0
 40 41  1  0
 40 42  1  0
 40 43  1  0
 43 44  1  0
 43 45  1  0
 43 46  1  0
 46 47  1  0
 47 48  1  0
 47 49  1  0
 47 50  1  0
 50 51  1  0
 50 52  1  0
 34 53  2  0
 53 54  1  0
 21  4  1  0
 53 23  1  0
 20 11  1  0
 50 38  1  0
M  CHG  2  33  -1  38   1
M  END
>  <UniqueID>  (1) 
1

>  <SMILES>  (1) 
COc1cc(/C=N/n2c(C)nc3ccccc3c2=O)cc(S(=O)(=O)[NH+]2CCOCC2)c1[O-]

>  <Energy>  (1) 
79.47838191173999

>  <Genealogy>  (1) 
COc1cc(C=Nn2c(C)nc3ccccc3c2=O)cc(S(=O)(=O)[NH+]2CCOCC2)c1[O-] (protonated)
COc1cc(/C=N/n2c(C)nc3ccccc3c2=O)cc(S(=O)(=O)[NH+]2CCOCC2)c1[O-] (cis-trans isomerization)
COc1cc(/C=N/n2c(C)nc3ccccc3c2=O)cc(S(=O)(=O)[NH+]2CCOCC2)c1[O-] (3D coordinates assigned)
COc1cc(/C=N/n2c(C)nc3ccccc3c2=O)cc(S(=O)(=O)[NH+]2CCOCC2)c1[O-] (nonaromatic ring conformer: 79.47838191173999 kcal/mol)

>  <smiles>  (1) 
COc1cc(C=Nn2c(C)nc3ccccc3c2=O)cc(S(=O)(=O)N2CCOCC2)c1O

>  <score_type>  (1) 
oracle

>  <origin>  (1) 
adgpu

>  <m_score__min__energy>  (1) 
-10.94

>  <m_primary>  (1) 
energy

$$$$
1:0
     RDKit          3D

 50 53  0  0  0  0  0  0  0  0999 V2000
   -6.0390   26.0450  -30.3560 O   0  0  0  0  0  0  0  0  0  0  0  0
   -5.2490   25.3210  -31.0150 C   0  0  0  0  0  0  0  0  0  0  0  0
   -5.7480   24.3920  -31.9880 N   0  0  0  0  0  0  0  0  0  0  0  0
   -6.5770   23.2500  -31.7310 C   0  0  0  0  0  0  0  0  0  0  0  0
   -7.2670   23.1810  -30.5120 C   0  0  0  0  0  0  0  0  0  0  0  0
   -8.0660   22.0740  -30.2110 C   0  0  0  0  0  0  0  0  0  0  0  0
   -8.1700   21.0190  -31.1220 C   0  0  0  0  0  0  0  0  0  0  0  0
   -7.4660   21.0650  -32.3290 C   0  0  0  0  0  0  0  0  0  0  0  0
   -7.5550   20.0060  -33.2250 O   0  0  0  0  0  0  0  0  0  0  0  0
   -6.6670   22.1730  -32.6330 C   0  0  0  0  0  0  0  0  0  0  0  0
   -3.8510   25.3610  -30.7110 N   0  0  0  0  0  0  0  0  0  0  0  0
   -3.1460   24.3650  -29.9570 C   0  0  0  0  0  0  0  0  0  0  0  0
   -3.5950   23.0440  -30.0160 C   0  0  0  0  0  0  0  0  0  0  0  0
   -2.9450   22.0460  -29.2950 C   0  0  0  0  0  0  0  0  0  0  0  0
   -1.8390   22.3510  -28.4920 C   0  0  0  0  0  0  0  0  0  0  0  0
   -1.2200   21.2890  -27.7510 N   0  0  0  0  0  0  0  0  0  0  0  0
    0.0700   20.7490  -28.1920 C   0  0  0  0  0  0  0  0  0  0  0  0
   -0.0380   19.2380  -28.4880 C   0  0  0  0  0  0  0  0  0  0  0  0
   -1.1390   18.5690  -27.7670 N   0  0  0  0  0  0  0  0  0  0  0  0
   -1.4180   19.1960  -26.4710 C   0  0  0  0  0  0  0  0  0  0  0  0
   -1.9820   20.5980  -26.7050 C   0  0  0  0  0  0  0  0  0  0  0  0
   -1.3770   23.6860  -28.4100 C   0  0  0  0  0  0  0  0  0  0  0  0
    0.0250   24.1320  -27.4180 S   0  0  0  0  0  0  0  0  0  0  0  0
    0.4730   22.9760  -26.5690 O   0  0  0  0  0  0  0  0  0  0  0  0
    1.1710   24.5110  -28.3170 O   0  0  0  0  0  0  0  0  0  0  0  0
   -0.4390   25.4940  -26.3490 C   0  0  0  0  0  0  0  0  0  0  0  0
   -1.8880   25.4670  -25.8940 C   0  0  0  0  0  0  0  0  0  0  0  0
   -0.7770   25.1140  -24.9170 C   0  0  0  0  0  0  0  0  0  0  0  0
   -2.0620   24.6940  -29.1200 C   0  0  0  0  0  0  0  0  0  0  0  0
   -1.6890   26.0260  -28.9650 O   0  0  0  0  0  0  0  0  0  0  0  0
   -7.1789   24.0039  -29.7874 H   0  0  0  0  0  0  0  0  0  0  0  0
   -8.6128   22.0332  -29.2574 H   0  0  0  0  0  0  0  0  0  0  0  0
   -8.8060   20.1522  -30.8892 H   0  0  0  0  0  0  0  0  0  0  0  0
   -6.1076   22.2024  -33.5797 H   0  0  0  0  0  0  0  0  0  0  0  0
   -4.4676   22.7904  -30.6359 H   0  0  0  0  0  0  0  0  0  0  0  0
   -3.3036   21.0079  -29.3567 H   0  0  0  0  0  0  0  0  0  0  0  0
    0.3866   21.2733  -29.1057 H   0  0  0  0  0  0  0  0  0  0  0  0
    0.8067   20.8982  -27.3888 H   0  0  0  0  0  0  0  0  0  0  0  0
   -0.1997   19.1064  -29.5681 H   0  0  0  0  0  0  0  0  0  0  0  0
    0.8990   18.7754  -28.1444 H   0  0  0  0  0  0  0  0  0  0  0  0
   -0.8650   17.5730  -27.5970 H   0  0  0  0  0  0  0  0  0  0  0  0
   -2.1525   18.5908  -25.9194 H   0  0  0  0  0  0  0  0  0  0  0  0
   -0.4901   19.2628  -25.8840 H   0  0  0  0  0  0  0  0  0  0  0  0
   -3.0340   20.5179  -27.0162 H   0  0  0  0  0  0  0  0  0  0  0  0
   -1.9064   21.1730  -25.7703 H   0  0  0  0  0  0  0  0  0  0  0  0
    0.2244   26.2370  -26.8157 H   0  0  0  0  0  0  0  0  0  0  0  0
   -2.4453   26.4081  -25.7766 H   0  0  0  0  0  0  0  0  0  0  0  0
   -2.8040   24.9683  -26.2436 H   0  0  0  0  0  0  0  0  0  0  0  0
   -0.5305   25.7998  -24.0930 H   0  0  0  0  0  0  0  0  0  0  0  0
   -0.5562   24.2543  -24.2672 H   0  0  0  0  0  0  0  0  0  0  0  0
  1  2  2  0
  2  3  1  0
  3  4  1  0
  4  5  2  0
  5  6  1  0
  6  7  2  0
  7  8  1  0
  8  9  1  0
  8 10  2  0
  2 11  1  0
 11 12  1  0
 12 13  2  0
 13 14  1  0
 14 15  2  0
 15 16  1  0
 16 17  1  0
 17 18  1  0
 18 19  1  0
 19 20  1  0
 20 21  1  0
 15 22  1  0
 22 23  1  0
 23 24  2  0
 23 25  2  0
 23 26  1  0
 26 27  1  0
 27 28  1  0
 22 29  2  0
 29 30  1  0
 10  4  1  0
 29 12  1  0
 21 16  1  0
 28 26  1  0
  5 31  1  0
  6 32  1  0
  7 33  1  0
 10 34  1  0
 13 35  1  0
 14 36  1  0
 17 37  1  0
 17 38  1  0
 18 39  1  0
 18 40  1  0
 19 41  1  0
 20 42  1  0
 20 43  1  0
 21 44  1  0
 21 45  1  0
 26 46  1  0
 27 47  1  0
 27 48  1  0
 28 49  1  0
 28 50  1  0
M  CHG  4   3  -1   9  -1  11  -1  30  -1
M  END
>  <UniqueID>  (2) 
2

>  <SMILES>  (2) 
O=C([N-]c1cccc([O-])c1)[N-]c1ccc(N2CCNCC2)c(S(=O)(=O)C2CC2)c1[O-]

>  <Energy>  (2) 
335.04717244031883

>  <Genealogy>  (2) 
O=C([N-]c1cccc([O-])c1)[N-]c1ccc(N2CCNCC2)c(S(=O)(=O)C2CC2)c1[O-] (protonated)
O=C([N-]c1cccc([O-])c1)[N-]c1ccc(N2CCNCC2)c(S(=O)(=O)C2CC2)c1[O-] (3D coordinates assigned)
O=C([N-]c1cccc([O-])c1)[N-]c1ccc(N2CCNCC2)c(S(=O)(=O)C2CC2)c1[O-] (nonaromatic ring conformer: 335.04717244031883 kcal/mol)

>  <smiles>  (2) 
O=C(Nc1cccc(O)c1)Nc1ccc(N2CCNCC2)c(S(=O)(=O)C2CC2)c1O

>  <score_type>  (2) 
oracle

>  <origin>  (2) 
adgpu

>  <m_score__min__energy>  (2) 
-14.02

>  <m_primary>  (2) 
energy

$$$$
2:0
     RDKit          3D

 46 48  0  0  0  0  0  0  0  0999 V2000
   -0.4770   22.3110  -23.6190 C   0  0  0  0  0  0  0  0  0  0  0  0
   -0.2850   23.5850  -24.3050 N   0  0  0  0  0  0  0  0  0  0  0  0
   -0.3610   23.7390  -25.7350 C   0  0  0  0  0  0  0  0  0  0  0  0
    0.8160   23.6710  -26.4940 C   0  0  0  0  0  0  0  0  0  0  0  0
    0.7740   23.8280  -27.8820 C   0  0  0  0  0  0  0  0  0  0  0  0
   -0.4450   24.0440  -28.5270 C   0  0  0  0  0  0  0  0  0  0  0  0
   -1.6400   24.0950  -27.7890 C   0  0  0  0  0  0  0  0  0  0  0  0
   -2.9040   24.3410  -28.4270 N   0  0  0  0  0  0  0  0  0  0  0  0
   -3.8240   23.3030  -28.8070 C   0  0  0  0  0  0  0  0  0  0  0  0
   -3.7610   22.1740  -28.2480 O   0  0  0  0  0  0  0  0  0  0  0  0
   -4.8960   23.5660  -29.7950 C   0  0  0  0  0  0  0  0  0  0  0  0
   -5.9340   22.6280  -29.9540 C   0  0  0  0  0  0  0  0  0  0  0  0
   -6.9730   22.8580  -30.8670 C   0  0  0  0  0  0  0  0  0  0  0  0
   -8.2760   21.6760  -31.0490 S   0  0  0  0  0  0  0  0  0  0  0  0
   -9.1010   22.0400  -32.2520 O   0  0  0  0  0  0  0  0  0  0  0  0
   -9.1660   21.7390  -29.8400 O   0  0  0  0  0  0  0  0  0  0  0  0
   -7.6880   20.0420  -31.2370 N   0  0  0  0  0  0  0  0  0  0  0  0
   -6.5530   19.9680  -32.1540 C   0  0  0  0  0  0  0  0  0  0  0  0
   -6.5450   18.5540  -32.7150 C   0  0  0  0  0  0  0  0  0  0  0  0
   -7.9500   18.0190  -32.4780 C   0  0  0  0  0  0  0  0  0  0  0  0
   -8.7030   19.1520  -31.7990 C   0  0  0  0  0  0  0  0  0  0  0  0
   -6.9620   24.0190  -31.6490 C   0  0  0  0  0  0  0  0  0  0  0  0
   -5.9280   24.9480  -31.5130 C   0  0  0  0  0  0  0  0  0  0  0  0
   -4.8940   24.7260  -30.5980 C   0  0  0  0  0  0  0  0  0  0  0  0
   -3.8580   25.6510  -30.5200 O   0  0  0  0  0  0  0  0  0  0  0  0
   -1.5880   23.9590  -26.3920 C   0  0  0  0  0  0  0  0  0  0  0  0
   -0.4526   22.4729  -22.5313 H   0  0  0  0  0  0  0  0  0  0  0  0
   -1.4497   21.8838  -23.9044 H   0  0  0  0  0  0  0  0  0  0  0  0
    0.3266   21.6161  -23.9044 H   0  0  0  0  0  0  0  0  0  0  0  0
   -0.0810   24.4250  -23.7160 H   0  0  0  0  0  0  0  0  0  0  0  0
    1.7792   23.4928  -25.9934 H   0  0  0  0  0  0  0  0  0  0  0  0
    1.7039   23.7812  -28.4678 H   0  0  0  0  0  0  0  0  0  0  0  0
   -0.4704   24.1750  -29.6189 H   0  0  0  0  0  0  0  0  0  0  0  0
   -3.2230   25.3310  -28.5230 H   0  0  0  0  0  0  0  0  0  0  0  0
   -5.9298   21.7050  -29.3556 H   0  0  0  0  0  0  0  0  0  0  0  0
   -6.6727   20.6991  -32.9671 H   0  0  0  0  0  0  0  0  0  0  0  0
   -5.6087   20.1978  -31.6388 H   0  0  0  0  0  0  0  0  0  0  0  0
   -6.3144   18.5676  -33.7905 H   0  0  0  0  0  0  0  0  0  0  0  0
   -5.7809   17.9263  -32.2332 H   0  0  0  0  0  0  0  0  0  0  0  0
   -8.4284   17.7568  -33.4332 H   0  0  0  0  0  0  0  0  0  0  0  0
   -7.9425   17.1064  -31.8640 H   0  0  0  0  0  0  0  0  0  0  0  0
   -9.3194   19.6926  -32.5323 H   0  0  0  0  0  0  0  0  0  0  0  0
   -9.3773   18.7715  -31.0176 H   0  0  0  0  0  0  0  0  0  0  0  0
   -7.7702   24.2002  -32.3728 H   0  0  0  0  0  0  0  0  0  0  0  0
   -5.9270   25.8593  -32.1290 H   0  0  0  0  0  0  0  0  0  0  0  0
   -2.5155   24.0250  -25.8042 H   0  0  0  0  0  0  0  0  0  0  0  0
  1  2  1  0
  2  3  1  0
  3  4  2  0
  4  5  1  0
  5  6  2  0
  6  7  1  0
  7  8  1  0
  8  9  1  0
  9 10  2  0
  9 11  1  0
 11 12  2  0
 12 13  1  0
 13 14  1  0
 14 15  2  0
 14 16  2  0
 14 17  1  0
 17 18  1  0
 18 19  1  0
 19 20  1  0
 20 21  1  0
 13 22  2  0
 22 23  1  0
 23 24  2  0
 24 25  1  0
  7 26  2  0
 26  3  1  0
 24 11  1  0
 21 17  1  0
  1 27  1  0
  1 28  1  0
  1 29  1  0
  2 30  1  0
  4 31  1  0
  5 32  1  0
  6 33  1  0
  8 34  1  0
 12 35  1  0
 18 36  1  0
 18 37  1  0
 19 38  1  0
 19 39  1  0
 20 40  1  0
 20 41  1  0
 21 42  1  0
 21 43  1  0
 22 44  1  0
 23 45  1  0
 26 46  1  0
M  CHG  1  25  -1
M  END
>  <UniqueID>  (3) 
3

>  <SMILES>  (3) 
CNc1cccc(NC(=O)c2cc(S(=O)(=O)N3CCCC3)ccc2[O-])c1

>  <Energy>  (3) 
54.19665870418347

>  <Genealogy>  (3) 
CNc1cccc(NC(=O)c2cc(S(=O)(=O)N3CCCC3)ccc2[O-])c1 (protonated)
CNc1cccc(NC(=O)c2cc(S(=O)(=O)N3CCCC3)ccc2[O-])c1 (3D coordinates assigned)
CNc1cccc(NC(=O)c2cc(S(=O)(=O)N3CCCC3)ccc2[O-])c1 (nonaromatic ring conformer: 54.19665870418347 kcal/mol)

>  <smiles>  (3) 
CNc1cccc(NC(=O)c2cc(S(=O)(=O)N3CCCC3)ccc2O)c1

>  <score_type>  (3) 
oracle

>  <origin>  (3) 
adgpu

>  <m_score__min__energy>  (3) 
-12.800000000000001

>  <m_primary>  (3) 
energy

$$$$
3:0
     RDKit          3D

 53 55  0  0  0  0  0  0  0  0999 V2000
   -0.7120   23.7120  -25.8580 C   0  0  0  0  0  0  0  0  0  0  0  0
   -0.1570   22.7120  -26.7820 N   0  0  0  0  0  0  0  0  0  0  0  0
   -0.3470   23.1020  -28.1890 C   0  0  0  0  0  0  0  0  0  0  0  0
   -1.8050   23.2490  -28.5820 C   0  0  0  0  0  0  0  0  0  0  0  0
   -2.1850   24.3490  -29.3680 C   0  0  0  0  0  0  0  0  0  0  0  0
   -3.5120   24.5240  -29.7600 C   0  0  0  0  0  0  0  0  0  0  0  0
   -3.8590   25.6490  -30.5010 O   0  0  0  0  0  0  0  0  0  0  0  0
   -4.4860   23.5860  -29.3940 C   0  0  0  0  0  0  0  0  0  0  0  0
   -5.8660   23.8130  -29.7270 N   0  0  0  0  0  0  0  0  0  0  0  0
   -6.4860   23.5720  -31.3310 S   0  0  0  0  0  0  0  0  0  0  0  0
   -7.9710   23.8020  -31.3350 O   0  0  0  0  0  0  0  0  0  0  0  0
   -5.8320   24.5540  -32.2620 O   0  0  0  0  0  0  0  0  0  0  0  0
   -6.1680   21.9170  -31.8520 C   0  0  0  0  0  0  0  0  0  0  0  0
   -7.1910   20.9630  -31.8650 C   0  0  0  0  0  0  0  0  0  0  0  0
   -6.9620   19.6890  -32.3920 C   0  0  0  0  0  0  0  0  0  0  0  0
   -5.6990   19.3360  -32.9230 C   0  0  0  0  0  0  0  0  0  0  0  0
   -5.4150   17.9590  -33.5560 C   0  0  0  0  0  0  0  0  0  0  0  0
   -6.3320   16.9000  -32.9080 C   0  0  0  0  0  0  0  0  0  0  0  0
   -5.6920   18.0190  -35.0740 C   0  0  0  0  0  0  0  0  0  0  0  0
   -3.9510   17.4940  -33.3650 C   0  0  0  0  0  0  0  0  0  0  0  0
   -4.6750   20.3100  -32.8830 C   0  0  0  0  0  0  0  0  0  0  0  0
   -4.9070   21.5800  -32.3510 C   0  0  0  0  0  0  0  0  0  0  0  0
   -4.0990   22.4470  -28.6700 C   0  0  0  0  0  0  0  0  0  0  0  0
   -2.7730   22.2740  -28.2300 C   0  0  0  0  0  0  0  0  0  0  0  0
   -2.4160   21.1470  -27.3960 N   0  0  0  0  0  0  0  0  0  0  0  0
   -3.2980   19.9920  -27.2210 C   0  0  0  0  0  0  0  0  0  0  0  0
   -0.9130   21.1670  -26.5340 S   0  0  0  0  0  0  0  0  0  0  0  0
   -0.0160   20.0880  -27.0680 O   0  0  0  0  0  0  0  0  0  0  0  0
   -1.1610   20.9340  -25.0690 O   0  0  0  0  0  0  0  0  0  0  0  0
   -0.5341   23.3915  -24.8209 H   0  0  0  0  0  0  0  0  0  0  0  0
   -0.2232   24.6822  -26.0309 H   0  0  0  0  0  0  0  0  0  0  0  0
   -1.7939   23.8105  -26.0309 H   0  0  0  0  0  0  0  0  0  0  0  0
    0.1577   24.0652  -28.3550 H   0  0  0  0  0  0  0  0  0  0  0  0
    0.0769   22.2982  -28.8088 H   0  0  0  0  0  0  0  0  0  0  0  0
   -1.4261   25.0822  -29.6786 H   0  0  0  0  0  0  0  0  0  0  0  0
   -6.5680   23.9320  -28.9620 H   0  0  0  0  0  0  0  0  0  0  0  0
   -8.1810   21.2169  -31.4583 H   0  0  0  0  0  0  0  0  0  0  0  0
   -7.7762   18.9494  -32.3940 H   0  0  0  0  0  0  0  0  0  0  0  0
   -6.2648   16.9776  -31.8128 H   0  0  0  0  0  0  0  0  0  0  0  0
   -7.3713   17.0718  -33.2247 H   0  0  0  0  0  0  0  0  0  0  0  0
   -6.0134   15.8959  -33.2247 H   0  0  0  0  0  0  0  0  0  0  0  0
   -6.7541   18.2491  -35.2441 H   0  0  0  0  0  0  0  0  0  0  0  0
   -5.0695   18.8031  -35.5296 H   0  0  0  0  0  0  0  0  0  0  0  0
   -5.4497   17.0475  -35.5296 H   0  0  0  0  0  0  0  0  0  0  0  0
   -3.7262   17.4226  -32.2906 H   0  0  0  0  0  0  0  0  0  0  0  0
   -3.8151   16.5085  -33.8343 H   0  0  0  0  0  0  0  0  0  0  0  0
   -3.2713   18.2205  -33.8343 H   0  0  0  0  0  0  0  0  0  0  0  0
   -3.6784   20.0631  -33.2778 H   0  0  0  0  0  0  0  0  0  0  0  0
   -4.0928   22.3191  -32.3246 H   0  0  0  0  0  0  0  0  0  0  0  0
   -4.8474   21.6738  -28.4419 H   0  0  0  0  0  0  0  0  0  0  0  0
   -3.4437   19.8012  -26.1475 H   0  0  0  0  0  0  0  0  0  0  0  0
   -4.2704   20.1985  -27.6920 H   0  0  0  0  0  0  0  0  0  0  0  0
   -2.8427   19.1083  -27.6920 H   0  0  0  0  0  0  0  0  0  0  0  0
  1  2  1  0
  2  3  1  0
  3  4  1  0
  4  5  2  0
  5  6  1  0
  6  7  1  0
  6  8  2  0
  8  9  1  0
  9 10  1  0
 10 11  2  0
 10 12  2  0
 10 13  1  0
 13 14  2  0
 14 15  1  0
 15 16  2  0
 16 17  1  0
 17 18  1  0
 17 19  1  0
 17 20  1  0
 16 21  1  0
 21 22  2  0
  8 23  1  0
 23 24  2  0
 24 25  1  0
 25 26  1  0
 25 27  1  0
 27 28  2  0
 27 29  2  0
 27  2  1  0
 24  4  1  0
 22 13  1  0
  1 30  1  0
  1 31  1  0
  1 32  1  0
  3 33  1  0
  3 34  1  0
  5 35  1  0
  9 36  1  0
 14 37  1  0
 15 38  1  0
 18 39  1  0
 18 40  1  0
 18 41  1  0
 19 42  1  0
 19 43  1  0
 19 44  1  0
 20 45  1  0
 20 46  1  0
 20 47  1  0
 21 48  1  0
 22 49  1  0
 23 50  1  0
 26 51  1  0
 26 52  1  0
 26 53  1  0
M  CHG  1   7  -1
M  END
>  <UniqueID>  (4) 
4

>  <SMILES>  (4) 
CN1Cc2cc([O-])c(NS(=O)(=O)c3ccc(C(C)(C)C)cc3)cc2N(C)S1(=O)=O

>  <Energy>  (4) 
60.21446222050203

>  <Genealogy>  (4) 
CN1Cc2cc([O-])c(NS(=O)(=O)c3ccc(C(C)(C)C)cc3)cc2N(C)S1(=O)=O (protonated)
CN1Cc2cc([O-])c(NS(=O)(=O)c3ccc(C(C)(C)C)cc3)cc2N(C)S1(=O)=O (3D coordinates assigned)
CN1Cc2cc([O-])c(NS(=O)(=O)c3ccc(C(C)(C)C)cc3)cc2N(C)S1(=O)=O (nonaromatic ring conformer: 60.21446222050203 kcal/mol)

>  <smiles>  (4) 
CN1Cc2cc(O)c(NS(=O)(=O)c3ccc(C(C)(C)C)cc3)cc2N(C)S1(=O)=O

>  <score_type>  (4) 
oracle

>  <origin>  (4) 
adgpu

>  <m_score__min__energy>  (4) 
-13.029999999999999

>  <m_primary>  (4) 
energy

$$$$
4:0
     RDKit          3D

 48 51  0  0  0  0  0  0  0  0999 V2000
   -2.0030   23.0270  -30.4860 O   0  0  0  0  0  0  0  0  0  0  0  0
   -2.9480   22.5100  -31.1420 C   0  0  0  0  0  0  0  0  0  0  0  0
   -2.6980   21.3520  -31.9510 N   0  0  0  0  0  0  0  0  0  0  0  0
   -1.4190   20.8690  -32.3860 C   0  0  0  0  0  0  0  0  0  0  0  0
   -0.7030   19.8980  -31.6640 C   0  0  0  0  0  0  0  0  0  0  0  0
    0.5490   19.4720  -32.1110 C   0  0  0  0  0  0  0  0  0  0  0  0
    1.1080   20.0160  -33.2710 C   0  0  0  0  0  0  0  0  0  0  0  0
    2.3530   19.5740  -33.7000 O   0  0  0  0  0  0  0  0  0  0  0  0
    0.4120   21.0040  -33.9880 C   0  0  0  0  0  0  0  0  0  0  0  0
    1.1140   21.7020  -35.4480 S   0  0  0  0  0  0  0  0  0  0  0  0
    2.3870   20.9860  -35.8040 O   0  0  0  0  0  0  0  0  0  0  0  0
    0.1230   21.5630  -36.5690 O   0  0  0  0  0  0  0  0  0  0  0  0
    1.4550   23.3770  -35.1500 N   0  0  0  0  0  0  0  0  0  0  0  0
    1.3060   24.4770  -36.0630 C   0  0  0  0  0  0  0  0  0  0  0  0
    0.2570   25.3740  -35.8250 C   0  0  0  0  0  0  0  0  0  0  0  0
    0.0420   26.4770  -36.6640 C   0  0  0  0  0  0  0  0  0  0  0  0
    0.8770   26.6710  -37.7820 C   0  0  0  0  0  0  0  0  0  0  0  0
    1.9460   25.7950  -38.0070 C   0  0  0  0  0  0  0  0  0  0  0  0
    2.1690   24.7050  -37.1590 C   0  0  0  0  0  0  0  0  0  0  0  0
    3.2590   23.8850  -37.4130 O   0  0  0  0  0  0  0  0  0  0  0  0
    0.7010   27.8800  -38.6700 C   0  0  0  0  0  0  0  0  0  0  0  0
   -0.6600   28.4240  -38.5810 N   0  0  0  0  0  0  0  0  0  0  0  0
   -1.0090   28.6990  -37.1830 C   0  0  0  0  0  0  0  0  0  0  0  0
   -1.1370   27.3830  -36.4130 C   0  0  0  0  0  0  0  0  0  0  0  0
   -0.8450   21.4300  -33.5340 C   0  0  0  0  0  0  0  0  0  0  0  0
   -4.3220   23.0700  -31.0200 C   0  0  0  0  0  0  0  0  0  0  0  0
   -5.4330   22.2320  -31.2450 C   0  0  0  0  0  0  0  0  0  0  0  0
   -6.7360   22.7270  -31.1410 C   0  0  0  0  0  0  0  0  0  0  0  0
   -6.9520   24.0640  -30.8120 C   0  0  0  0  0  0  0  0  0  0  0  0
   -5.8660   24.9090  -30.5820 C   0  0  0  0  0  0  0  0  0  0  0  0
   -4.5560   24.4260  -30.6830 C   0  0  0  0  0  0  0  0  0  0  0  0
   -3.5070   25.3060  -30.4410 O   0  0  0  0  0  0  0  0  0  0  0  0
   -1.1307   19.4727  -30.7441 H   0  0  0  0  0  0  0  0  0  0  0  0
    1.0987   18.7039  -31.5472 H   0  0  0  0  0  0  0  0  0  0  0  0
   -0.4096   25.2106  -34.9654 H   0  0  0  0  0  0  0  0  0  0  0  0
    2.6184   25.9660  -38.8606 H   0  0  0  0  0  0  0  0  0  0  0  0
    1.4164   28.6565  -38.3614 H   0  0  0  0  0  0  0  0  0  0  0  0
    0.8801   27.5710  -39.7104 H   0  0  0  0  0  0  0  0  0  0  0  0
   -0.6730   29.3340  -39.0990 H   0  0  0  0  0  0  0  0  0  0  0  0
   -0.2218   29.3155  -36.7244 H   0  0  0  0  0  0  0  0  0  0  0  0
   -1.9682   29.2362  -37.1467 H   0  0  0  0  0  0  0  0  0  0  0  0
   -1.1955   27.6031  -35.3368 H   0  0  0  0  0  0  0  0  0  0  0  0
   -2.0461   26.8689  -36.7584 H   0  0  0  0  0  0  0  0  0  0  0  0
   -1.3859   22.2131  -34.0855 H   0  0  0  0  0  0  0  0  0  0  0  0
   -5.2725   21.1754  -31.5056 H   0  0  0  0  0  0  0  0  0  0  0  0
   -7.5925   22.0601  -31.3191 H   0  0  0  0  0  0  0  0  0  0  0  0
   -7.9781   24.4527  -30.7337 H   0  0  0  0  0  0  0  0  0  0  0  0
   -6.0404   25.9628  -30.3193 H   0  0  0  0  0  0  0  0  0  0  0  0
  1  2  2  0
  2  3  1  0
  3  4  1  0
  4  5  2  0
  5  6  1  0
  6  7  2  0
  7  8  1  0
  7  9  1  0
  9 10  1  0
 10 11  2  0
 10 12  2  0
 10 13  1  0
 13 14  1  0
 14 15  2  0
 15 16  1  0
 16 17  2  0
 17 18  1  0
 18 19  2  0
 19 20  1  0
 17 21  1  0
 21 22  1  0
 22 23  1  0
 23 24  1  0
  9 25  2  0
  2 26  1  0
 26 27  2  0
 27 28  1  0
 28 29  2  0
 29 30  1  0
 30 31  2  0
 31 32  1  0
 25  4  1  0
 31 26  1  0
 19 14  1  0
 24 16  1  0
  5 33  1  0
  6 34  1  0
 15 35  1  0
 18 36  1  0
 21 37  1  0
 21 38  1  0
 22 39  1  0
 23 40  1  0
 23 41  1  0
 24 42  1  0
 24 43  1  0
 25 44  1  0
 27 45  1  0
 28 46  1  0
 29 47  1  0
 30 48  1  0
M  CHG  5   3  -1   8  -1  13  -1  20  -1  32  -1
M  END
>  <UniqueID>  (5) 
5

>  <SMILES>  (5) 
O=C([N-]c1ccc([O-])c(S(=O)(=O)[N-]c2cc3c(cc2[O-])CNCC3)c1)c1ccccc1[O-]

>  <Energy>  (5) 
68.30689243242378

>  <Genealogy>  (5) 
O=C([N-]c1ccc([O-])c(S(=O)(=O)[N-]c2cc3c(cc2[O-])CNCC3)c1)c1ccccc1[O-] (protonated)
O=C([N-]c1ccc([O-])c(S(=O)(=O)[N-]c2cc3c(cc2[O-])CNCC3)c1)c1ccccc1[O-] (3D coordinates assigned)
O=C([N-]c1ccc([O-])c(S(=O)(=O)[N-]c2cc3c(cc2[O-])CNCC3)c1)c1ccccc1[O-] (nonaromatic ring conformer: 68.30689243242378 kcal/mol)

>  <smiles>  (5) 
O=C(Nc1ccc(O)c(S(=O)(=O)Nc2cc3c(cc2O)CNCC3)c1)c1ccccc1O

>  <score_type>  (5) 
oracle

>  <origin>  (5) 
adgpu

>  <m_score__min__energy>  (5) 
-14.73

>  <m_primary>  (5) 
energy

$$$$
5:0
     RDKit          3D

 44 47  0  0  0  0  0  0  0  0999 V2000
   -7.2770   23.9180  -31.8730 O   0  0  0  0  0  0  0  0  0  0  0  0
   -6.1940   23.2790  -31.8190 C   0  0  0  0  0  0  0  0  0  0  0  0
   -6.1270   21.9840  -32.4300 N   0  0  0  0  0  0  0  0  0  0  0  0
   -7.1520   20.9780  -32.4130 C   0  0  0  0  0  0  0  0  0  0  0  0
   -8.4690   21.2900  -32.0360 C   0  0  0  0  0  0  0  0  0  0  0  0
   -9.4440   20.2900  -31.9810 C   0  0  0  0  0  0  0  0  0  0  0  0
   -9.1080   18.9680  -32.2790 C   0  0  0  0  0  0  0  0  0  0  0  0
   -7.7960   18.6430  -32.6290 C   0  0  0  0  0  0  0  0  0  0  0  0
   -6.8150   19.6410  -32.6960 C   0  0  0  0  0  0  0  0  0  0  0  0
   -5.4750   19.2830  -33.0570 N   0  0  0  0  0  0  0  0  0  0  0  0
   -5.2550   18.0980  -33.8830 C   0  0  0  0  0  0  0  0  0  0  0  0
   -3.9090   18.2150  -34.6000 C   0  0  0  0  0  0  0  0  0  0  0  0
   -2.8740   18.4910  -33.6740 O   0  0  0  0  0  0  0  0  0  0  0  0
   -3.0720   19.7690  -33.1010 C   0  0  0  0  0  0  0  0  0  0  0  0
   -4.3570   19.8050  -32.2670 C   0  0  0  0  0  0  0  0  0  0  0  0
   -5.0570   23.8510  -31.0750 C   0  0  0  0  0  0  0  0  0  0  0  0
   -4.2470   23.1690  -30.1900 C   0  0  0  0  0  0  0  0  0  0  0  0
   -3.3310   24.1190  -29.7690 C   0  0  0  0  0  0  0  0  0  0  0  0
   -2.2320   23.9210  -28.7860 C   0  0  0  0  0  0  0  0  0  0  0  0
   -2.1800   22.7480  -28.0070 C   0  0  0  0  0  0  0  0  0  0  0  0
   -1.1520   22.5530  -27.0840 C   0  0  0  0  0  0  0  0  0  0  0  0
   -0.1560   23.5160  -26.9270 C   0  0  0  0  0  0  0  0  0  0  0  0
   -0.1880   24.6820  -27.6910 C   0  0  0  0  0  0  0  0  0  0  0  0
   -1.2190   24.8940  -28.6140 C   0  0  0  0  0  0  0  0  0  0  0  0
   -1.2250   26.0790  -29.3440 O   0  0  0  0  0  0  0  0  0  0  0  0
   -3.5920   25.2880  -30.3900 N   0  0  0  0  0  0  0  0  0  0  0  0
   -4.6360   25.1250  -31.1880 N   0  0  0  0  0  0  0  0  0  0  0  0
   -8.7343   22.3270  -31.7827 H   0  0  0  0  0  0  0  0  0  0  0  0
  -10.4772   20.5448  -31.7026 H   0  0  0  0  0  0  0  0  0  0  0  0
   -9.8769   18.1825  -32.2380 H   0  0  0  0  0  0  0  0  0  0  0  0
   -7.5315   17.5991  -32.8531 H   0  0  0  0  0  0  0  0  0  0  0  0
   -5.2531   17.2021  -33.2448 H   0  0  0  0  0  0  0  0  0  0  0  0
   -6.0601   18.0176  -34.6282 H   0  0  0  0  0  0  0  0  0  0  0  0
   -3.6902   17.2681  -35.1152 H   0  0  0  0  0  0  0  0  0  0  0  0
   -3.9643   19.0392  -35.3264 H   0  0  0  0  0  0  0  0  0  0  0  0
   -2.2161   20.0090  -32.4531 H   0  0  0  0  0  0  0  0  0  0  0  0
   -3.1606   20.5064  -33.9124 H   0  0  0  0  0  0  0  0  0  0  0  0
   -4.2257   19.1867  -31.3667 H   0  0  0  0  0  0  0  0  0  0  0  0
   -4.5719   20.8435  -31.9748 H   0  0  0  0  0  0  0  0  0  0  0  0
   -4.3135   22.1133  -29.8882 H   0  0  0  0  0  0  0  0  0  0  0  0
   -2.9571   21.9789  -28.1277 H   0  0  0  0  0  0  0  0  0  0  0  0
   -1.1272   21.6356  -26.4776 H   0  0  0  0  0  0  0  0  0  0  0  0
    0.6546   23.3560  -26.2008 H   0  0  0  0  0  0  0  0  0  0  0  0
    0.6006   25.4389  -27.5679 H   0  0  0  0  0  0  0  0  0  0  0  0
  1  2  2  0
  2  3  1  0
  3  4  1  0
  4  5  2  0
  5  6  1  0
  6  7  2  0
  7  8  1  0
  8  9  2  0
  9 10  1  0
 10 11  1  0
 11 12  1  0
 12 13  1  0
 13 14  1  0
 14 15  1  0
  2 16  1  0
 16 17  1  0
 17 18  2  0
 18 19  1  0
 19 20  2  0
 20 21  1  0
 21 22  2  0
 22 23  1  0
 23 24  2  0
 24 25  1  0
 18 26  1  0
 26 27  1  0
  9  4  1  0
 15 10  1  0
 27 16  2  0
 24 19  1  0
  5 28  1  0
  6 29  1  0
  7 30  1  0
  8 31  1  0
 11 32  1  0
 11 33  1  0
 12 34  1  0
 12 35  1  0
 14 36  1  0
 14 37  1  0
 15 38  1  0
 15 39  1  0
 17 40  1  0
 20 41  1  0
 21 42  1  0
 22 43  1  0
 23 44  1  0
M  CHG  3   3  -1  25  -1  26  -1
M  END
>  <UniqueID>  (6) 
6

>  <SMILES>  (6) 
O=C([N-]c1ccccc1N1CCOCC1)c1cc(-c2ccccc2[O-])[n-]n1

>  <Energy>  (6) 
91.86301912507155

>  <Genealogy>  (6) 
O=C([N-]c1ccccc1N1CCOCC1)c1cc(-c2ccccc2[O-])[n-]n1 (protonated)
O=C([N-]c1ccccc1N1CCOCC1)c1cc(-c2ccccc2[O-])[n-]n1 (3D coordinates assigned)
O=C([N-]c1ccccc1N1CCOCC1)c1cc(-c2ccccc2[O-])[n-]n1 (nonaromatic ring conformer: 91.86301912507155 kcal/mol)

>  <smiles>  (6) 
O=C(Nc1ccccc1N1CCOCC1)c1cc(-c2ccccc2O)[nH]n1

>  <score_type>  (6) 
oracle

>  <origin>  (6) 
adgpu

>  <m_score__min__energy>  (6) 
-14.52

>  <m_primary>  (6) 
energy

$$$$
6:0
     RDKit          3D

 41 44  0  0  0  0  0  0  0  0999 V2000
   -5.6200   15.4380  -33.8580 C   0  0  0  0  0  0  0  0  0  0  0  0
   -5.7010   16.9270  -33.8770 C   0  0  0  0  0  0  0  0  0  0  0  0
   -6.1850   17.6670  -32.8630 N   0  0  0  0  0  0  0  0  0  0  0  0
   -6.0810   18.9150  -33.3670 C   0  0  0  0  0  0  0  0  0  0  0  0
   -6.4370   20.1260  -32.5910 C   0  0  0  0  0  0  0  0  0  0  0  0
   -5.4050   20.8820  -32.1300 N   0  0  0  0  0  0  0  0  0  0  0  0
   -5.5760   22.0400  -31.4430 C   0  0  0  0  0  0  0  0  0  0  0  0
   -4.4220   22.7800  -30.9920 N   0  0  0  0  0  0  0  0  0  0  0  0
   -4.4760   24.2110  -30.8450 C   0  0  0  0  0  0  0  0  0  0  0  0
   -5.3930   24.8680  -31.4050 O   0  0  0  0  0  0  0  0  0  0  0  0
   -3.5020   24.9240  -30.0730 N   0  0  0  0  0  0  0  0  0  0  0  0
   -2.3770   24.3640  -29.3830 C   0  0  0  0  0  0  0  0  0  0  0  0
   -1.5960   25.2060  -28.5790 C   0  0  0  0  0  0  0  0  0  0  0  0
   -0.4880   24.7000  -27.8930 C   0  0  0  0  0  0  0  0  0  0  0  0
   -0.1510   23.3490  -28.0090 C   0  0  0  0  0  0  0  0  0  0  0  0
   -0.9200   22.5040  -28.8140 C   0  0  0  0  0  0  0  0  0  0  0  0
   -2.0330   23.0080  -29.5000 C   0  0  0  0  0  0  0  0  0  0  0  0
   -2.9710   21.9510  -30.5280 S   0  0  0  0  0  0  0  0  0  0  0  0
   -2.1710   21.6000  -31.7510 O   0  0  0  0  0  0  0  0  0  0  0  0
   -3.3250   20.7060  -29.7640 O   0  0  0  0  0  0  0  0  0  0  0  0
   -6.8760   22.5020  -31.2060 C   0  0  0  0  0  0  0  0  0  0  0  0
   -7.9790   21.7670  -31.6580 C   0  0  0  0  0  0  0  0  0  0  0  0
   -9.3610   22.3060  -31.3860 C   0  0  0  0  0  0  0  0  0  0  0  0
   -7.7720   20.5290  -32.3220 C   0  0  0  0  0  0  0  0  0  0  0  0
   -8.9430   19.6640  -32.7330 C   0  0  0  0  0  0  0  0  0  0  0  0
   -5.5500   18.9210  -34.6070 N   0  0  0  0  0  0  0  0  0  0  0  0
   -5.3380   17.6730  -34.8900 O   0  0  0  0  0  0  0  0  0  0  0  0
   -5.6008   15.0851  -32.8163 H   0  0  0  0  0  0  0  0  0  0  0  0
   -6.4965   15.0165  -34.3718 H   0  0  0  0  0  0  0  0  0  0  0  0
   -4.7029   15.1141  -34.3718 H   0  0  0  0  0  0  0  0  0  0  0  0
   -1.8565   26.2708  -28.4874 H   0  0  0  0  0  0  0  0  0  0  0  0
    0.1188   25.3657  -27.2616 H   0  0  0  0  0  0  0  0  0  0  0  0
    0.7193   22.9506  -27.4669 H   0  0  0  0  0  0  0  0  0  0  0  0
   -0.6511   21.4416  -28.9092 H   0  0  0  0  0  0  0  0  0  0  0  0
   -7.0317   23.4458  -30.6628 H   0  0  0  0  0  0  0  0  0  0  0  0
   -9.5227   22.3691  -30.2998 H   0  0  0  0  0  0  0  0  0  0  0  0
   -9.4578   23.3078  -31.8299 H   0  0  0  0  0  0  0  0  0  0  0  0
  -10.1105   21.6343  -31.8299 H   0  0  0  0  0  0  0  0  0  0  0  0
   -9.4535   19.2869  -31.8345 H   0  0  0  0  0  0  0  0  0  0  0  0
   -9.6472   20.2605  -33.3317 H   0  0  0  0  0  0  0  0  0  0  0  0
   -8.5799   18.8156  -33.3317 H   0  0  0  0  0  0  0  0  0  0  0  0
  1  2  1  0
  2  3  2  0
  3  4  1  0
  4  5  1  0
  5  6  2  0
  6  7  1  0
  7  8  1  0
  8  9  1  0
  9 10  2  0
  9 11  1  0
 11 12  1  0
 12 13  2  0
 13 14  1  0
 14 15  2  0
 15 16  1  0
 16 17  2  0
 17 18  1  0
 18 19  2  0
 18 20  2  0
  7 21  2  0
 21 22  1  0
 22 23  1  0
 22 24  2  0
 24 25  1  0
  4 26  2  0
 26 27  1  0
 27  2  1  0
 24  5  1  0
 18  8  1  0
 17 12  1  0
  1 28  1  0
  1 29  1  0
  1 30  1  0
 13 31  1  0
 14 32  1  0
 15 33  1  0
 16 34  1  0
 21 35  1  0
 23 36  1  0
 23 37  1  0
 23 38  1  0
 25 39  1  0
 25 40  1  0
 25 41  1  0
M  CHG  1  11  -1
M  END
>  <UniqueID>  (7) 
7

>  <SMILES>  (7) 
Cc1nc(-c2nc(N3C(=O)[N-]c4ccccc4S3(=O)=O)cc(C)c2C)no1

>  <Energy>  (7) 
91.02163406972262

>  <Genealogy>  (7) 
Cc1nc(-c2nc(N3C(=O)[N-]c4ccccc4S3(=O)=O)cc(C)c2C)no1 (protonated)
Cc1nc(-c2nc(N3C(=O)[N-]c4ccccc4S3(=O)=O)cc(C)c2C)no1 (3D coordinates assigned)
Cc1nc(-c2nc(N3C(=O)[N-]c4ccccc4S3(=O)=O)cc(C)c2C)no1 (nonaromatic ring conformer: 91.02163406972262 kcal/mol)

>  <smiles>  (7) 
Cc1nc(-c2nc(N3C(=O)Nc4ccccc4S3(=O)=O)cc(C)c2C)no1

>  <score_type>  (7) 
oracle

>  <origin>  (7) 
adgpu

>  <m_score__min__energy>  (7) 
-10.56

>  <m_primary>  (7) 
energy

$$$$
7:0
     RDKit          3D

 52 55  0  0  0  0  0  0  0  0999 V2000
   -1.1940   21.4210  -26.5930 C   0  0  0  0  0  0  0  0  0  0  0  0
   -1.7420   22.3610  -27.6370 C   0  0  0  0  0  0  0  0  0  0  0  0
   -2.9270   21.9860  -28.2830 C   0  0  0  0  0  0  0  0  0  0  0  0
   -3.5220   22.8230  -29.2170 C   0  0  0  0  0  0  0  0  0  0  0  0
   -2.9620   24.0610  -29.5180 C   0  0  0  0  0  0  0  0  0  0  0  0
   -3.6600   24.8920  -30.4580 N   0  0  0  0  0  0  0  0  0  0  0  0
   -5.0450   25.2640  -30.4560 C   0  0  0  0  0  0  0  0  0  0  0  0
   -5.3600   26.4210  -30.8370 O   0  0  0  0  0  0  0  0  0  0  0  0
   -6.0870   24.3740  -30.0300 N   0  0  0  0  0  0  0  0  0  0  0  0
   -6.5500   23.1870  -30.6890 C   0  0  0  0  0  0  0  0  0  0  0  0
   -7.8030   22.6720  -30.3320 C   0  0  0  0  0  0  0  0  0  0  0  0
   -8.3140   21.5400  -30.9730 C   0  0  0  0  0  0  0  0  0  0  0  0
   -7.5660   20.9060  -31.9710 C   0  0  0  0  0  0  0  0  0  0  0  0
   -6.3240   21.4240  -32.3460 C   0  0  0  0  0  0  0  0  0  0  0  0
   -5.8230   22.5770  -31.7250 C   0  0  0  0  0  0  0  0  0  0  0  0
   -5.5930   20.7320  -33.4630 C   0  0  0  0  0  0  0  0  0  0  0  0
   -5.6310   19.2590  -33.3000 N   0  0  0  0  0  0  0  0  0  0  0  0
   -4.5910   18.8080  -32.3620 C   0  0  0  0  0  0  0  0  0  0  0  0
   -6.9650   18.6830  -32.9430 C   0  0  0  0  0  0  0  0  0  0  0  0
   -8.0860   19.7190  -32.7210 C   0  0  0  0  0  0  0  0  0  0  0  0
   -1.7330   24.4420  -28.9340 C   0  0  0  0  0  0  0  0  0  0  0  0
   -1.1890   25.6690  -29.3140 O   0  0  0  0  0  0  0  0  0  0  0  0
   -1.0910   23.5740  -28.0000 C   0  0  0  0  0  0  0  0  0  0  0  0
    0.5110   23.9590  -27.2970 S   0  0  0  0  0  0  0  0  0  0  0  0
    1.2940   22.6840  -27.1560 O   0  0  0  0  0  0  0  0  0  0  0  0
    1.3180   24.8500  -28.1970 O   0  0  0  0  0  0  0  0  0  0  0  0
    0.3980   24.7100  -25.6670 C   0  0  0  0  0  0  0  0  0  0  0  0
   -0.9900   25.1900  -25.2810 C   0  0  0  0  0  0  0  0  0  0  0  0
   -0.4090   23.9500  -24.6230 C   0  0  0  0  0  0  0  0  0  0  0  0
   -1.4224   21.8127  -25.5908 H   0  0  0  0  0  0  0  0  0  0  0  0
   -1.6559   20.4299  -26.7133 H   0  0  0  0  0  0  0  0  0  0  0  0
   -0.1040   21.3346  -26.7133 H   0  0  0  0  0  0  0  0  0  0  0  0
   -3.3914   21.0171  -28.0475 H   0  0  0  0  0  0  0  0  0  0  0  0
   -4.4448   22.5047  -29.7240 H   0  0  0  0  0  0  0  0  0  0  0  0
   -8.3893   23.1624  -29.5410 H   0  0  0  0  0  0  0  0  0  0  0  0
   -9.3030   21.1481  -30.6932 H   0  0  0  0  0  0  0  0  0  0  0  0
   -4.8620   23.0034  -32.0485 H   0  0  0  0  0  0  0  0  0  0  0  0
   -6.0653   20.9990  -34.4199 H   0  0  0  0  0  0  0  0  0  0  0  0
   -4.5421   21.0566  -33.4439 H   0  0  0  0  0  0  0  0  0  0  0  0
   -4.9384   18.9587  -31.3292 H   0  0  0  0  0  0  0  0  0  0  0  0
   -4.3859   17.7401  -32.5278 H   0  0  0  0  0  0  0  0  0  0  0  0
   -3.6712   19.3881  -32.5278 H   0  0  0  0  0  0  0  0  0  0  0  0
   -7.2763   18.0132  -33.7582 H   0  0  0  0  0  0  0  0  0  0  0  0
   -6.8289   18.1675  -31.9808 H   0  0  0  0  0  0  0  0  0  0  0  0
   -8.4719   20.0487  -33.6969 H   0  0  0  0  0  0  0  0  0  0  0  0
   -8.8891   19.2517  -32.1323 H   0  0  0  0  0  0  0  0  0  0  0  0
   -0.2040   25.8780  -29.3190 H   0  0  0  0  0  0  0  0  0  0  0  0
    1.4065   25.1486  -25.6914 H   0  0  0  0  0  0  0  0  0  0  0  0
   -1.1092   26.1160  -24.6994 H   0  0  0  0  0  0  0  0  0  0  0  0
   -1.9149   25.4161  -25.8319 H   0  0  0  0  0  0  0  0  0  0  0  0
   -0.1065   23.9785  -23.5658 H   0  0  0  0  0  0  0  0  0  0  0  0
   -0.7375   22.9074  -24.5005 H   0  0  0  0  0  0  0  0  0  0  0  0
  1  2  1  0
  2  3  2  0
  3  4  1  0
  4  5  2  0
  5  6  1  0
  6  7  1  0
  7  8  2  0
  7  9  1  0
  9 10  1  0
 10 11  2  0
 11 12  1  0
 12 13  2  0
 13 14  1  0
 14 15  2  0
 14 16  1  0
 16 17  1  0
 17 18  1  0
 17 19  1  0
 19 20  1  0
  5 21  1  0
 21 22  1  0
 21 23  2  0
 23 24  1  0
 24 25  2  0
 24 26  2  0
 24 27  1  0
 27 28  1  0
 28 29  1  0
 23  2  1  0
 29 27  1  0
 15 10  1  0
 20 13  1  0
  1 30  1  0
  1 31  1  0
  1 32  1  0
  3 33  1  0
  4 34  1  0
 11 35  1  0
 12 36  1  0
 15 37  1  0
 16 38  1  0
 16 39  1  0
 18 40  1  0
 18 41  1  0
 18 42  1  0
 19 43  1  0
 19 44  1  0
 20 45  1  0
 20 46  1  0
 22 47  1  0
 27 48  1  0
 28 49  1  0
 28 50  1  0
 29 51  1  0
 29 52  1  0
M  CHG  2   6  -1   9  -1
M  END
>  <UniqueID>  (8) 
8

>  <SMILES>  (8) 
Cc1ccc([N-]C(=O)[N-]c2ccc3c(c2)CN(C)CC3)c(O)c1S(=O)(=O)C1CC1

>  <Energy>  (8) 
339.2835028052563

>  <Genealogy>  (8) 
Cc1ccc([N-]C(=O)[N-]c2ccc3c(c2)CN(C)CC3)c(O)c1S(=O)(=O)C1CC1 (protonated)
Cc1ccc([N-]C(=O)[N-]c2ccc3c(c2)CN(C)CC3)c(O)c1S(=O)(=O)C1CC1 (3D coordinates assigned)
Cc1ccc([N-]C(=O)[N-]c2ccc3c(c2)CN(C)CC3)c(O)c1S(=O)(=O)C1CC1 (nonaromatic ring conformer: 339.2835028052563 kcal/mol)

>  <smiles>  (8) 
Cc1ccc(NC(=O)Nc2ccc3c(c2)CN(C)CC3)c(O)c1S(=O)(=O)C1CC1

>  <score_type>  (8) 
oracle

>  <origin>  (8) 
adgpu

>  <m_score__min__energy>  (8) 
-14.31

>  <m_primary>  (8) 
energy

$$$$
8:0
     RDKit          3D

 34 36  0  0  0  0  0  0  0  0999 V2000
   -8.2110   16.6592  -32.4788 H   0  0  0  0  0  0  0  0  0  0  0  0
   -7.3280   17.2490  -32.7660 C   0  0  0  0  0  0  0  0  0  0  0  0
   -6.3710   16.6950  -33.6190 C   0  0  0  0  0  0  0  0  0  0  0  0
   -6.5790   15.0640  -34.2280 Cl  0  0  0  0  0  0  0  0  0  0  0  0
   -5.2490   17.4410  -33.9840 C   0  0  0  0  0  0  0  0  0  0  0  0
   -4.4984   17.0051  -34.6598 H   0  0  0  0  0  0  0  0  0  0  0  0
   -5.0740   18.7400  -33.4950 C   0  0  0  0  0  0  0  0  0  0  0  0
   -3.9910   19.4220  -33.8520 O   0  0  0  0  0  0  0  0  0  0  0  0
   -3.7440   20.6520  -33.4220 C   0  0  0  0  0  0  0  0  0  0  0  0
   -2.6980   21.2430  -33.7980 O   0  0  0  0  0  0  0  0  0  0  0  0
   -4.6330   21.2900  -32.5580 C   0  0  0  0  0  0  0  0  0  0  0  0
   -4.4191   22.3079  -32.2001 H   0  0  0  0  0  0  0  0  0  0  0  0
   -5.8010   20.6310  -32.1460 C   0  0  0  0  0  0  0  0  0  0  0  0
   -6.7040   21.3560  -31.1710 C   0  0  0  0  0  0  0  0  0  0  0  0
   -6.1865   21.4512  -30.2050 H   0  0  0  0  0  0  0  0  0  0  0  0
   -7.6319   20.7762  -31.0578 H   0  0  0  0  0  0  0  0  0  0  0  0
   -7.1340   23.0250  -31.7850 S   0  0  0  0  0  0  0  0  0  0  0  0
   -5.7360   23.8460  -31.0270 C   0  0  0  0  0  0  0  0  0  0  0  0
   -5.3620   25.1110  -31.3230 N   0  0  0  0  0  0  0  0  0  0  0  0
   -4.2830   25.5020  -30.6510 N   0  0  0  0  0  0  0  0  0  0  0  0
   -3.8630   26.4500  -30.7730 H   0  0  0  0  0  0  0  0  0  0  0  0
   -3.7950   24.5610  -29.8160 C   0  0  0  0  0  0  0  0  0  0  0  0
   -2.7350   24.7510  -29.0890 N   0  0  0  0  0  0  0  0  0  0  0  0
   -2.1600   23.7730  -28.1660 C   0  0  0  0  0  0  0  0  0  0  0  0
   -1.0880   23.6579  -28.3842 H   0  0  0  0  0  0  0  0  0  0  0  0
   -2.6824   22.8140  -28.2977 H   0  0  0  0  0  0  0  0  0  0  0  0
   -2.3300   24.2280  -26.7210 C   0  0  0  0  0  0  0  0  0  0  0  0
   -2.0268   23.4166  -26.0430 H   0  0  0  0  0  0  0  0  0  0  0  0
   -1.7016   25.1122  -26.5387 H   0  0  0  0  0  0  0  0  0  0  0  0
   -3.3843   24.4835  -26.5387 H   0  0  0  0  0  0  0  0  0  0  0  0
   -4.7210   23.1460  -29.8770 S   0  0  0  0  0  0  0  0  0  0  0  0
   -6.0370   19.3150  -32.6250 C   0  0  0  0  0  0  0  0  0  0  0  0
   -7.1710   18.5480  -32.2750 C   0  0  0  0  0  0  0  0  0  0  0  0
   -7.9361   18.9767  -31.6110 H   0  0  0  0  0  0  0  0  0  0  0  0
  1  2  1  0
  2  3  2  0
  3  4  1  0
  3  5  1  0
  5  6  1  0
  5  7  2  0
  7  8  1  0
  8  9  1  0
  9 10  2  0
  9 11  1  0
 11 12  1  0
 11 13  2  0
 13 14  1  0
 14 15  1  0
 14 16  1  0
 14 17  1  0
 17 18  1  0
 18 19  2  0
 19 20  1  0
 20 21  1  0
 20 22  1  0
 22 23  2  0
 23 24  1  0
 24 25  1  0
 24 26  1  0
 24 27  1  0
 27 28  1  0
 27 29  1  0
 27 30  1  0
 22 31  1  0
 13 32  1  0
 32 33  2  0
 33 34  1  0
 33  2  1  0
 32  7  1  0
 31 18  1  0
M  END
>  <UniqueID>  (9) 
9

>  <SMILES>  (9) 
CC/N=c1/[nH]nc(SCc2cc(=O)oc3cc(Cl)ccc23)s1

>  <Energy>  (9) 
69.6305271244717

>  <Genealogy>  (9) 
CC/N=c1/[nH]nc(SCc2cc(=O)oc3cc(Cl)ccc23)s1 (cis-trans isomerization)
CC/N=c1/[nH]nc(SCc2cc(=O)oc3cc(Cl)ccc23)s1 (3D coordinates assigned)
CC/N=c1/[nH]nc(SCc2cc(=O)oc3cc(Cl)ccc23)s1 (optimized conformer: 69.6305271244717 kcal/mol)

>  <smiles>  (9) 
CCN=c1[nH]nc(SCc2cc(=O)oc3cc(Cl)ccc23)s1

>  <score_type>  (9) 
oracle

>  <origin>  (9) 
adgpu

>  <m_score__min__energy>  (9) 
-8.9299999999999997

>  <m_primary>  (9) 
energy

$$$$
9:0
     RDKit          3D

 55 57  0  0  0  0  0  0  0  0999 V2000
   -7.2100   19.9010  -33.0530 C   0  0  0  0  0  0  0  0  0  0  0  0
   -6.1570   20.8310  -33.2900 O   0  0  0  0  0  0  0  0  0  0  0  0
   -5.6230   21.6900  -32.3180 C   0  0  0  0  0  0  0  0  0  0  0  0
   -4.5500   21.2320  -31.5490 C   0  0  0  0  0  0  0  0  0  0  0  0
   -3.9830   22.0450  -30.5660 C   0  0  0  0  0  0  0  0  0  0  0  0
   -4.4900   23.3320  -30.3260 C   0  0  0  0  0  0  0  0  0  0  0  0
   -3.8970   24.1750  -29.2220 C   0  0  0  0  0  0  0  0  0  0  0  0
   -2.7330   24.9210  -29.6960 N   0  0  0  0  0  0  0  0  0  0  0  0
   -1.4890   25.0600  -28.9960 C   0  0  0  0  0  0  0  0  0  0  0  0
   -0.9590   26.1980  -28.9110 O   0  0  0  0  0  0  0  0  0  0  0  0
   -0.8340   23.9130  -28.3420 C   0  0  0  0  0  0  0  0  0  0  0  0
   -1.4900   22.6740  -28.2790 C   0  0  0  0  0  0  0  0  0  0  0  0
   -0.8960   21.5880  -27.6260 C   0  0  0  0  0  0  0  0  0  0  0  0
   -1.7500   20.0480  -27.5580 S   0  0  0  0  0  0  0  0  0  0  0  0
   -3.1410   20.2510  -28.0920 O   0  0  0  0  0  0  0  0  0  0  0  0
   -1.8410   19.5680  -26.1350 O   0  0  0  0  0  0  0  0  0  0  0  0
   -0.9120   18.8620  -28.5270 N   0  0  0  0  0  0  0  0  0  0  0  0
   -0.3470   19.5060  -29.7350 C   0  0  0  0  0  0  0  0  0  0  0  0
    0.7560   18.6510  -30.3640 C   0  0  0  0  0  0  0  0  0  0  0  0
    1.9370   18.4680  -29.3930 C   0  0  0  0  0  0  0  0  0  0  0  0
    1.5160   18.5870  -27.9190 C   0  0  0  0  0  0  0  0  0  0  0  0
    0.0720   18.1070  -27.7120 C   0  0  0  0  0  0  0  0  0  0  0  0
    0.3690   21.7350  -27.0450 C   0  0  0  0  0  0  0  0  0  0  0  0
    1.0350   22.9610  -27.1140 C   0  0  0  0  0  0  0  0  0  0  0  0
    0.4400   24.0540  -27.7600 C   0  0  0  0  0  0  0  0  0  0  0  0
    1.0990   25.2820  -27.8080 O   0  0  0  0  0  0  0  0  0  0  0  0
   -5.5630   23.8130  -31.1020 C   0  0  0  0  0  0  0  0  0  0  0  0
   -6.0450   25.1110  -30.8600 O   0  0  0  0  0  0  0  0  0  0  0  0
   -6.7890   25.5000  -29.7080 C   0  0  0  0  0  0  0  0  0  0  0  0
   -6.1260   22.9850  -32.0960 C   0  0  0  0  0  0  0  0  0  0  0  0
   -7.3517   19.7759  -31.9694 H   0  0  0  0  0  0  0  0  0  0  0  0
   -8.1402   20.2777  -33.5033 H   0  0  0  0  0  0  0  0  0  0  0  0
   -6.9511   18.9314  -33.5033 H   0  0  0  0  0  0  0  0  0  0  0  0
   -4.1486   20.2222  -31.7197 H   0  0  0  0  0  0  0  0  0  0  0  0
   -3.1325   21.6744  -29.9750 H   0  0  0  0  0  0  0  0  0  0  0  0
   -4.6573   24.8850  -28.8644 H   0  0  0  0  0  0  0  0  0  0  0  0
   -3.5765   23.5085  -28.4077 H   0  0  0  0  0  0  0  0  0  0  0  0
   -2.4787   22.5555  -28.7465 H   0  0  0  0  0  0  0  0  0  0  0  0
   -1.1508   19.6506  -30.4718 H   0  0  0  0  0  0  0  0  0  0  0  0
    0.0913   20.4703  -29.4384 H   0  0  0  0  0  0  0  0  0  0  0  0
    0.3439   17.6634  -30.6186 H   0  0  0  0  0  0  0  0  0  0  0  0
    1.1219   19.1617  -31.2670 H   0  0  0  0  0  0  0  0  0  0  0  0
    2.3748   17.4719  -29.5548 H   0  0  0  0  0  0  0  0  0  0  0  0
    2.6628   19.2689  -29.5973 H   0  0  0  0  0  0  0  0  0  0  0  0
    2.1897   17.9732  -27.3030 H   0  0  0  0  0  0  0  0  0  0  0  0
    1.5763   19.6451  -27.6244 H   0  0  0  0  0  0  0  0  0  0  0  0
    0.0131   17.0437  -27.9874 H   0  0  0  0  0  0  0  0  0  0  0  0
   -0.1812   18.2716  -26.6543 H   0  0  0  0  0  0  0  0  0  0  0  0
    0.8398   20.8830  -26.5328 H   0  0  0  0  0  0  0  0  0  0  0  0
    2.0308   23.0694  -26.6594 H   0  0  0  0  0  0  0  0  0  0  0  0
    0.6680   26.0990  -28.2260 H   0  0  0  0  0  0  0  0  0  0  0  0
   -6.2376   25.2117  -28.8009 H   0  0  0  0  0  0  0  0  0  0  0  0
   -6.9356   26.5901  -29.7171 H   0  0  0  0  0  0  0  0  0  0  0  0
   -7.7679   24.9983  -29.7171 H   0  0  0  0  0  0  0  0  0  0  0  0
   -6.9656   23.3552  -32.7027 H   0  0  0  0  0  0  0  0  0  0  0  0
  1  2  1  0
  2  3  1  0
  3  4  2  0
  4  5  1  0
  5  6  2  0
  6  7  1  0
  7  8  1  0
  8  9  1  0
  9 10  2  0
  9 11  1  0
 11 12  2  0
 12 13  1  0
 13 14  1  0
 14 15  2  0
 14 16  2  0
 14 17  1  0
 17 18  1  0
 18 19  1  0
 19 20  1  0
 20 21  1  0
 21 22  1  0
 13 23  2  0
 23 24  1  0
 24 25  2  0
 25 26  1  0
  6 27  1  0
 27 28  1  0
 28 29  1  0
 27 30  2  0
 30  3  1  0
 25 11  1  0
 22 17  1  0
  1 31  1  0
  1 32  1  0
  1 33  1  0
  4 34  1  0
  5 35  1  0
  7 36  1  0
  7 37  1  0
 12 38  1  0
 18 39  1  0
 18 40  1  0
 19 41  1  0
 19 42  1  0
 20 43  1  0
 20 44  1  0
 21 45  1  0
 21 46  1  0
 22 47  1  0
 22 48  1  0
 23 49  1  0
 24 50  1  0
 26 51  1  0
 29 52  1  0
 29 53  1  0
 29 54  1  0
 30 55  1  0
M  CHG  1   8  -1
M  END
>  <UniqueID>  (10) 
10

>  <SMILES>  (10) 
COc1ccc(C[N-]C(=O)c2cc(S(=O)(=O)N3CCCCC3)ccc2O)c(OC)c1

>  <Energy>  (10) 
61.583259305178956

>  <Genealogy>  (10) 
COc1ccc(C[N-]C(=O)c2cc(S(=O)(=O)N3CCCCC3)ccc2O)c(OC)c1 (protonated)
COc1ccc(C[N-]C(=O)c2cc(S(=O)(=O)N3CCCCC3)ccc2O)c(OC)c1 (3D coordinates assigned)
COc1ccc(C[N-]C(=O)c2cc(S(=O)(=O)N3CCCCC3)ccc2O)c(OC)c1 (nonaromatic ring conformer: 61.583259305178956 kcal/mol)

>  <smiles>  (10) 
COc1ccc(CNC(=O)c2cc(S(=O)(=O)N3CCCCC3)ccc2O)c(OC)c1

>  <score_type>  (10) 
oracle

>  <origin>  (10) 
adgpu

>  <m_score__min__energy>  (10) 
-11.119999999999999

>  <m_primary>  (10) 
energy

$$$$
10:0
     RDKit          3D

 55 58  0  0  0  0  0  0  0  0999 V2000
   -3.3130   19.3030  -26.3570 C   0  0  0  0  0  0  0  0  0  0  0  0
   -2.4070   19.5500  -27.5270 C   0  0  0  0  0  0  0  0  0  0  0  0
   -1.2250   18.8100  -27.6800 C   0  0  0  0  0  0  0  0  0  0  0  0
   -0.3630   19.0670  -28.7570 C   0  0  0  0  0  0  0  0  0  0  0  0
    0.8770   18.2450  -28.9530 C   0  0  0  0  0  0  0  0  0  0  0  0
   -0.6960   20.0590  -29.6870 C   0  0  0  0  0  0  0  0  0  0  0  0
   -1.8640   20.8150  -29.5320 C   0  0  0  0  0  0  0  0  0  0  0  0
   -2.2460   22.0760  -30.7000 S   0  0  0  0  0  0  0  0  0  0  0  0
   -1.8050   23.4070  -30.1580 O   0  0  0  0  0  0  0  0  0  0  0  0
   -1.5140   21.8430  -31.9920 O   0  0  0  0  0  0  0  0  0  0  0  0
   -3.9880   22.0810  -30.9990 C   0  0  0  0  0  0  0  0  0  0  0  0
   -4.9250   23.0390  -30.5970 C   0  0  0  0  0  0  0  0  0  0  0  0
   -4.6200   24.2880  -29.8690 C   0  0  0  0  0  0  0  0  0  0  0  0
   -3.8600   25.3190  -30.4930 N   0  0  0  0  0  0  0  0  0  0  0  0
   -5.0260   24.4480  -28.6890 O   0  0  0  0  0  0  0  0  0  0  0  0
   -6.1710   22.6750  -31.0090 N   0  0  0  0  0  0  0  0  0  0  0  0
   -7.4200   23.4140  -30.8030 C   0  0  0  0  0  0  0  0  0  0  0  0
   -6.0260   21.4950  -31.6530 C   0  0  0  0  0  0  0  0  0  0  0  0
   -7.0150   20.7170  -32.2670 C   0  0  0  0  0  0  0  0  0  0  0  0
   -6.6190   19.5440  -32.9320 C   0  0  0  0  0  0  0  0  0  0  0  0
   -5.2580   19.1640  -32.9700 C   0  0  0  0  0  0  0  0  0  0  0  0
   -4.7420   17.7410  -33.8660 S   0  0  0  0  0  0  0  0  0  0  0  0
   -5.0690   17.8870  -35.3270 O   0  0  0  0  0  0  0  0  0  0  0  0
   -5.4550   16.5280  -33.3380 O   0  0  0  0  0  0  0  0  0  0  0  0
   -3.0010   17.5600  -33.6750 C   0  0  0  0  0  0  0  0  0  0  0  0
   -2.4720   16.4310  -33.0340 C   0  0  0  0  0  0  0  0  0  0  0  0
   -1.0920   16.3090  -32.8480 C   0  0  0  0  0  0  0  0  0  0  0  0
   -0.2310   17.3200  -33.2960 C   0  0  0  0  0  0  0  0  0  0  0  0
    1.1460   17.2130  -33.1160 O   0  0  0  0  0  0  0  0  0  0  0  0
   -0.7580   18.4520  -33.9280 C   0  0  0  0  0  0  0  0  0  0  0  0
   -2.1380   18.5740  -34.1140 C   0  0  0  0  0  0  0  0  0  0  0  0
   -4.2900   19.9510  -32.3210 C   0  0  0  0  0  0  0  0  0  0  0  0
   -4.7070   21.1130  -31.6730 C   0  0  0  0  0  0  0  0  0  0  0  0
   -2.7130   20.5630  -28.4470 C   0  0  0  0  0  0  0  0  0  0  0  0
   -2.7541   19.4554  -25.4219 H   0  0  0  0  0  0  0  0  0  0  0  0
   -4.1608   20.0028  -26.3956 H   0  0  0  0  0  0  0  0  0  0  0  0
   -3.6884   18.2697  -26.3956 H   0  0  0  0  0  0  0  0  0  0  0  0
   -0.9728   18.0246  -26.9523 H   0  0  0  0  0  0  0  0  0  0  0  0
    1.2929   17.9693  -27.9727 H   0  0  0  0  0  0  0  0  0  0  0  0
    0.6273   17.3330  -29.5150 H   0  0  0  0  0  0  0  0  0  0  0  0
    1.6198   18.8302  -29.5150 H   0  0  0  0  0  0  0  0  0  0  0  0
   -0.0349   20.2458  -30.5461 H   0  0  0  0  0  0  0  0  0  0  0  0
   -2.8170   25.2830  -30.5090 H   0  0  0  0  0  0  0  0  0  0  0  0
   -7.6070   23.5246  -29.7247 H   0  0  0  0  0  0  0  0  0  0  0  0
   -7.3378   24.4089  -31.2649 H   0  0  0  0  0  0  0  0  0  0  0  0
   -8.2525   22.8630  -31.2649 H   0  0  0  0  0  0  0  0  0  0  0  0
   -8.0730   21.0157  -32.2299 H   0  0  0  0  0  0  0  0  0  0  0  0
   -7.3745   18.9163  -33.4271 H   0  0  0  0  0  0  0  0  0  0  0  0
   -3.1454   15.6382  -32.6761 H   0  0  0  0  0  0  0  0  0  0  0  0
   -0.6814   15.4186  -32.3495 H   0  0  0  0  0  0  0  0  0  0  0  0
    1.7920   17.3390  -33.8870 H   0  0  0  0  0  0  0  0  0  0  0  0
   -0.0846   19.2477  -34.2792 H   0  0  0  0  0  0  0  0  0  0  0  0
   -2.5481   19.4682  -34.6062 H   0  0  0  0  0  0  0  0  0  0  0  0
   -3.2300   19.6571  -32.3245 H   0  0  0  0  0  0  0  0  0  0  0  0
   -3.6253   21.1634  -28.3158 H   0  0  0  0  0  0  0  0  0  0  0  0
  1  2  1  0
  2  3  2  0
  3  4  1  0
  4  5  1  0
  4  6  2  0
  6  7  1  0
  7  8  1  0
  8  9  2  0
  8 10  2  0
  8 11  1  0
 11 12  2  0
 12 13  1  0
 13 14  1  0
 13 15  2  0
 12 16  1  0
 16 17  1  0
 16 18  1  0
 18 19  2  0
 19 20  1  0
 20 21  2  0
 21 22  1  0
 22 23  2  0
 22 24  2  0
 22 25  1  0
 25 26  2  0
 26 27  1  0
 27 28  2  0
 28 29  1  0
 28 30  1  0
 30 31  2  0
 21 32  1  0
 32 33  2  0
  7 34  2  0
 34  2  1  0
 33 11  1  0
 33 18  1  0
 31 25  1  0
  1 35  1  0
  1 36  1  0
  1 37  1  0
  3 38  1  0
  5 39  1  0
  5 40  1  0
  5 41  1  0
  6 42  1  0
 14 43  1  0
 17 44  1  0
 17 45  1  0
 17 46  1  0
 19 47  1  0
 20 48  1  0
 26 49  1  0
 27 50  1  0
 29 51  1  0
 30 52  1  0
 31 53  1  0
 32 54  1  0
 34 55  1  0
M  CHG  1  14  -1
M  END
>  <UniqueID>  (11) 
11

>  <SMILES>  (11) 
Cc1cc(C)cc(S(=O)(=O)c2c(C([NH-])=O)n(C)c3ccc(S(=O)(=O)c4ccc(O)cc4)cc23)c1

>  <Energy>  (11) 
96.30607638886994

>  <Genealogy>  (11) 
Cc1cc(C)cc(S(=O)(=O)c2c(C([NH-])=O)n(C)c3ccc(S(=O)(=O)c4ccc(O)cc4)cc23)c1 (protonated)
Cc1cc(C)cc(S(=O)(=O)c2c(C([NH-])=O)n(C)c3ccc(S(=O)(=O)c4ccc(O)cc4)cc23)c1 (3D coordinates assigned)
Cc1cc(C)cc(S(=O)(=O)c2c(C([NH-])=O)n(C)c3ccc(S(=O)(=O)c4ccc(O)cc4)cc23)c1 (optimized conformer: 96.30607638886994 kcal/mol)

>  <smiles>  (11) 
Cc1cc(C)cc(S(=O)(=O)c2c(C(N)=O)n(C)c3ccc(S(=O)(=O)c4ccc(O)cc4)cc23)c1

>  <score_type>  (11) 
oracle

>  <origin>  (11) 
adgpu

>  <m_score__min__energy>  (11) 
-12.19

>  <m_primary>  (11) 
energy

$$$$
11:0
     RDKit          3D

 48 50  0  0  1  0  0  0  0  0999 V2000
   -9.4920   21.9240  -31.8770 C   0  0  0  0  0  0  0  0  0  0  0  0
   -8.6930   20.8490  -31.1720 C   0  0  0  0  0  0  0  0  0  0  0  0
   -7.6590   20.2890  -32.0090 N   0  0  0  0  0  0  0  0  0  0  0  0
   -8.0080   19.0400  -32.6840 C   0  0  0  0  0  0  0  0  0  0  0  0
   -7.3880   17.8960  -31.9300 C   0  0  0  0  0  0  0  0  0  0  0  0
   -6.3770   20.9040  -32.1910 C   0  0  0  0  0  0  0  0  0  0  0  0
   -5.3730   20.3240  -32.9320 C   0  0  0  0  0  0  0  0  0  0  0  0
   -4.1280   20.9350  -33.1190 C   0  0  0  0  0  0  0  0  0  0  0  0
   -3.1000   20.3380  -33.8800 N   0  0  0  0  0  0  0  0  0  0  0  0
   -1.8790   20.5270  -33.5770 C   0  0  0  0  0  0  0  0  0  0  0  0
   -0.7760   19.9960  -34.2440 C   0  0  0  0  0  0  0  0  0  0  0  0
    0.3820   20.4190  -33.6280 C   0  0  0  0  0  0  0  0  0  0  0  0
    1.7980   20.1160  -33.9750 C   0  0  0  0  0  0  0  0  0  0  0  0
   -0.0340   21.2040  -32.5900 N   0  0  0  0  0  0  0  0  0  0  0  0
   -1.3490   21.2530  -32.5790 N   0  0  0  0  0  0  0  0  0  0  0  0
   -3.8830   22.1340  -32.5630 N   0  0  0  0  0  0  0  0  0  0  0  0
   -4.8300   22.7440  -31.8290 C   0  0  0  0  0  0  0  0  0  0  0  0
   -4.5770   24.0300  -31.2250 N   0  0  0  0  0  0  0  0  0  0  0  0
   -3.5780   24.0650  -30.3980 C   0  0  0  0  0  0  0  0  0  0  0  0
   -2.7720   22.9820  -30.0710 C   0  0  0  0  0  0  0  0  0  0  0  0
   -1.8200   23.4220  -29.1530 C   0  0  0  0  0  0  0  0  0  0  0  0
   -0.7750   22.5500  -28.5640 C   0  0  0  0  0  0  0  0  0  0  0  0
   -2.0770   24.6880  -28.9740 O   0  0  0  0  0  0  0  0  0  0  0  0
   -3.0910   25.0880  -29.6820 N   0  0  0  0  0  0  0  0  0  0  0  0
   -6.0810   22.1440  -31.6340 C   0  0  0  0  0  0  0  0  0  0  0  0
   -9.9737   22.5721  -31.1301 H   0  0  0  0  0  0  0  0  0  0  0  0
   -8.8206   22.5263  -32.5066 H   0  0  0  0  0  0  0  0  0  0  0  0
  -10.2623   21.4548  -32.5066 H   0  0  0  0  0  0  0  0  0  0  0  0
   -8.2245   21.2869  -30.2783 H   0  0  0  0  0  0  0  0  0  0  0  0
   -9.3861   20.0364  -30.9090 H   0  0  0  0  0  0  0  0  0  0  0  0
   -9.1015   18.9220  -32.7024 H   0  0  0  0  0  0  0  0  0  0  0  0
   -7.6331   19.0549  -33.7180 H   0  0  0  0  0  0  0  0  0  0  0  0
   -7.4846   18.0742  -30.8488 H   0  0  0  0  0  0  0  0  0  0  0  0
   -7.9026   16.9606  -32.1948 H   0  0  0  0  0  0  0  0  0  0  0  0
   -6.3233   17.8165  -32.1948 H   0  0  0  0  0  0  0  0  0  0  0  0
   -5.5560   19.3430  -33.3948 H   0  0  0  0  0  0  0  0  0  0  0  0
   -0.8227   19.3404  -35.1261 H   0  0  0  0  0  0  0  0  0  0  0  0
    2.3830   19.9908  -33.0519 H   0  0  0  0  0  0  0  0  0  0  0  0
    1.8406   19.1884  -34.5647 H   0  0  0  0  0  0  0  0  0  0  0  0
    2.2165   20.9449  -34.5647 H   0  0  0  0  0  0  0  0  0  0  0  0
    0.6560   21.6690  -31.9330 H   0  0  0  0  0  0  0  0  0  0  0  0
   -1.8870   21.7970  -31.8680 H   0  0  0  0  0  0  0  0  0  0  0  0
   -2.8679   21.9598  -30.4659 H   0  0  0  0  0  0  0  0  0  0  0  0
   -0.8329   22.5983  -27.4666 H   0  0  0  0  0  0  0  0  0  0  0  0
   -0.9339   21.5129  -28.8943 H   0  0  0  0  0  0  0  0  0  0  0  0
    0.2169   22.8920  -28.8943 H   0  0  0  0  0  0  0  0  0  0  0  0
   -3.4980   26.0500  -29.7190 H   0  0  0  0  0  0  0  0  0  0  0  0
   -6.8414   22.6617  -31.0308 H   0  0  0  0  0  0  0  0  0  0  0  0
  1  2  1  0
  2  3  1  0
  3  4  1  0
  4  5  1  0
  3  6  1  0
  6  7  2  0
  7  8  1  0
  8  9  1  0
  9 10  2  0
 10 11  1  0
 11 12  2  0
 12 13  1  0
 12 14  1  0
 14 15  1  0
  8 16  2  0
 16 17  1  0
 17 18  1  0
 18 19  2  0
 19 20  1  0
 20 21  2  0
 21 22  1  0
 21 23  1  0
 23 24  1  0
 17 25  2  0
 25  6  1  0
 15 10  1  0
 24 19  1  0
  1 26  1  0
  1 27  1  0
  1 28  1  0
  2 29  1  0
  2 30  1  0
  4 31  1  0
  4 32  1  0
  5 33  1  0
  5 34  1  0
  5 35  1  0
  7 36  1  0
 11 37  1  0
 13 38  1  0
 13 39  1  0
 13 40  1  0
 14 41  1  0
 15 42  1  0
 20 43  1  0
 22 44  1  0
 22 45  1  0
 22 46  1  0
 24 47  1  0
 25 48  1  0
M  END
>  <smiles>  (12) 
CCN(CC)c1cc(N=c2cc(C)[nH][nH]2)nc(N=c2cc(C)o[nH]2)c1

>  <score_type>  (12) 
oracle

>  <origin>  (12) 
adgpu

>  <m_score__min__energy>  (12) 
-8.4800000000000004

>  <m_primary>  (12) 
energy

$$$$
12:0
     RDKit          3D

 39 42  0  0  0  0  0  0  0  0999 V2000
   -5.7180   25.7000  -31.3090 O   0  0  0  0  0  0  0  0  0  0  0  0
   -4.9940   24.9610  -30.5910 C   0  0  0  0  0  0  0  0  0  0  0  0
   -3.6850   25.2860  -30.4030 N   0  0  0  0  0  0  0  0  0  0  0  0
   -2.8610   24.5240  -29.6360 C   0  0  0  0  0  0  0  0  0  0  0  0
   -3.3510   23.3750  -29.0130 C   0  0  0  0  0  0  0  0  0  0  0  0
   -4.6870   23.0150  -29.1940 C   0  0  0  0  0  0  0  0  0  0  0  0
   -5.5300   23.8110  -29.9890 C   0  0  0  0  0  0  0  0  0  0  0  0
   -6.9140   23.4890  -30.1970 N   0  0  0  0  0  0  0  0  0  0  0  0
   -7.5810   22.8490  -31.6640 S   0  0  0  0  0  0  0  0  0  0  0  0
   -7.1990   23.7470  -32.8070 O   0  0  0  0  0  0  0  0  0  0  0  0
   -9.0780   22.8110  -31.5500 O   0  0  0  0  0  0  0  0  0  0  0  0
   -6.9900   21.2110  -31.9290 C   0  0  0  0  0  0  0  0  0  0  0  0
   -7.8940   20.1790  -32.2040 C   0  0  0  0  0  0  0  0  0  0  0  0
   -7.4360   18.8730  -32.4000 C   0  0  0  0  0  0  0  0  0  0  0  0
   -6.0600   18.5820  -32.3320 C   0  0  0  0  0  0  0  0  0  0  0  0
   -5.5720   17.1960  -32.5420 C   0  0  0  0  0  0  0  0  0  0  0  0
   -5.1970   16.6450  -33.7710 C   0  0  0  0  0  0  0  0  0  0  0  0
   -4.8100   15.3550  -33.4830 C   0  0  0  0  0  0  0  0  0  0  0  0
   -4.3440   14.3420  -34.3190 C   0  0  0  0  0  0  0  0  0  0  0  0
   -4.0200   13.1040  -33.7300 C   0  0  0  0  0  0  0  0  0  0  0  0
   -4.1650   12.9150  -32.3380 C   0  0  0  0  0  0  0  0  0  0  0  0
   -4.6370   13.9610  -31.5220 C   0  0  0  0  0  0  0  0  0  0  0  0
   -4.9540   15.1730  -32.1340 C   0  0  0  0  0  0  0  0  0  0  0  0
   -5.4190   16.2870  -31.5460 N   0  0  0  0  0  0  0  0  0  0  0  0
   -5.1570   19.6250  -32.0590 C   0  0  0  0  0  0  0  0  0  0  0  0
   -5.6200   20.9290  -31.8580 C   0  0  0  0  0  0  0  0  0  0  0  0
   -1.8076   24.8130  -29.5062 H   0  0  0  0  0  0  0  0  0  0  0  0
   -2.6902   22.7591  -28.3853 H   0  0  0  0  0  0  0  0  0  0  0  0
   -5.0811   22.1071  -28.7139 H   0  0  0  0  0  0  0  0  0  0  0  0
   -8.9705   20.3966  -32.2663 H   0  0  0  0  0  0  0  0  0  0  0  0
   -8.1552   18.0673  -32.6087 H   0  0  0  0  0  0  0  0  0  0  0  0
   -5.2086   17.1358  -34.7554 H   0  0  0  0  0  0  0  0  0  0  0  0
   -4.2330   14.5035  -35.4014 H   0  0  0  0  0  0  0  0  0  0  0  0
   -3.6518   12.2795  -34.3582 H   0  0  0  0  0  0  0  0  0  0  0  0
   -3.9076   11.9446  -31.8884 H   0  0  0  0  0  0  0  0  0  0  0  0
   -4.7520   13.8262  -30.4364 H   0  0  0  0  0  0  0  0  0  0  0  0
   -5.5980   16.4180  -30.5240 H   0  0  0  0  0  0  0  0  0  0  0  0
   -4.0790   19.4135  -32.0032 H   0  0  0  0  0  0  0  0  0  0  0  0
   -4.9051   21.7369  -31.6432 H   0  0  0  0  0  0  0  0  0  0  0  0
  1  2  2  0
  2  3  1  0
  3  4  1  0
  4  5  2  0
  5  6  1  0
  6  7  2  0
  7  8  1  0
  8  9  1  0
  9 10  2  0
  9 11  2  0
  9 12  1  0
 12 13  2  0
 13 14  1  0
 14 15  2  0
 15 16  1  0
 16 17  2  0
 17 18  1  0
 18 19  2  0
 19 20  1  0
 20 21  2  0
 21 22  1  0
 22 23  2  0
 23 24  1  0
 15 25  1  0
 25 26  2  0
  7  2  1  0
 26 12  1  0
 24 16  1  0
 23 18  1  0
  4 27  1  0
  5 28  1  0
  6 29  1  0
 13 30  1  0
 14 31  1  0
 17 32  1  0
 19 33  1  0
 20 34  1  0
 21 35  1  0
 22 36  1  0
 24 37  1  0
 25 38  1  0
 26 39  1  0
M  CHG  2   3  -1   8  -1
M  END
>  <UniqueID>  (13) 
12

>  <SMILES>  (13) 
O=c1[n-]cccc1[N-]S(=O)(=O)c1ccc(-c2cc3ccccc3[nH]2)cc1

>  <Energy>  (13) 
83.48414382665185

>  <Genealogy>  (13) 
O=c1[n-]cccc1[N-]S(=O)(=O)c1ccc(-c2cc3ccccc3[nH]2)cc1 (protonated)
O=c1[n-]cccc1[N-]S(=O)(=O)c1ccc(-c2cc3ccccc3[nH]2)cc1 (3D coordinates assigned)
O=c1[n-]cccc1[N-]S(=O)(=O)c1ccc(-c2cc3ccccc3[nH]2)cc1 (optimized conformer: 83.48414382665185 kcal/mol)

>  <smiles>  (13) 
O=c1[nH]cccc1NS(=O)(=O)c1ccc(-c2cc3ccccc3[nH]2)cc1

>  <score_type>  (13) 
oracle

>  <origin>  (13) 
adgpu

>  <m_score__min__energy>  (13) 
-10.789999999999999

>  <m_primary>  (13) 
energy

$$$$
13:0
     RDKit          3D

 60 63  0  0  0  0  0  0  0  0999 V2000
   -4.8420   25.6740  -31.1990 O   0  0  0  0  0  0  0  0  0  0  0  0
   -4.8760   24.4150  -30.3640 S   0  0  0  0  0  0  0  0  0  0  0  0
   -5.3810   24.7460  -28.9740 O   0  0  0  0  0  0  0  0  0  0  0  0
   -3.2560   23.7620  -30.2480 N   0  0  0  0  0  0  0  0  0  0  0  0
   -2.6740   23.2620  -29.0340 C   0  0  0  0  0  0  0  0  0  0  0  0
   -3.0060   21.9880  -28.5320 C   0  0  0  0  0  0  0  0  0  0  0  0
   -2.3640   21.4890  -27.3940 C   0  0  0  0  0  0  0  0  0  0  0  0
   -1.3970   22.2670  -26.7410 C   0  0  0  0  0  0  0  0  0  0  0  0
   -1.0860   23.5490  -27.2140 C   0  0  0  0  0  0  0  0  0  0  0  0
   -1.7290   24.0530  -28.3510 C   0  0  0  0  0  0  0  0  0  0  0  0
   -1.3010   25.7000  -28.9430 S   0  0  0  0  0  0  0  0  0  0  0  0
   -5.9650   23.2750  -31.1570 C   0  0  0  0  0  0  0  0  0  0  0  0
   -7.2600   23.6660  -31.5210 C   0  0  0  0  0  0  0  0  0  0  0  0
   -8.1330   22.7420  -32.0960 C   0  0  0  0  0  0  0  0  0  0  0  0
   -7.7220   21.4240  -32.3070 C   0  0  0  0  0  0  0  0  0  0  0  0
   -6.4280   21.0250  -31.9520 C   0  0  0  0  0  0  0  0  0  0  0  0
   -5.8990   19.3650  -32.1910 S   0  0  0  0  0  0  0  0  0  0  0  0
   -6.8190   18.6560  -33.1480 O   0  0  0  0  0  0  0  0  0  0  0  0
   -5.9310   18.6310  -30.8760 O   0  0  0  0  0  0  0  0  0  0  0  0
   -4.2610   19.3770  -32.8290 C   0  0  0  0  0  0  0  0  0  0  0  0
   -3.9670   18.7370  -34.0460 C   0  0  0  0  0  0  0  0  0  0  0  0
   -2.6660   18.7640  -34.5540 C   0  0  0  0  0  0  0  0  0  0  0  0
   -1.6550   19.4400  -33.8600 C   0  0  0  0  0  0  0  0  0  0  0  0
   -1.9470   20.1030  -32.6560 C   0  0  0  0  0  0  0  0  0  0  0  0
   -0.6780   20.9680  -31.7900 S   0  0  0  0  0  0  0  0  0  0  0  0
   -1.2190   22.2850  -31.3010 O   0  0  0  0  0  0  0  0  0  0  0  0
    0.4510   21.2450  -32.7440 O   0  0  0  0  0  0  0  0  0  0  0  0
   -0.0930   19.9880  -30.4650 N   0  0  0  0  0  0  0  0  0  0  0  0
    0.2770   20.7270  -29.2450 C   0  0  0  0  0  0  0  0  0  0  0  0
    0.5060   19.8440  -28.0120 C   0  0  0  0  0  0  0  0  0  0  0  0
   -0.3710   18.5850  -27.9930 C   0  0  0  0  0  0  0  0  0  0  0  0
    0.2930   17.3960  -28.7020 C   0  0  0  0  0  0  0  0  0  0  0  0
    0.4090   17.4980  -30.2410 C   0  0  0  0  0  0  0  0  0  0  0  0
    0.7930   18.8710  -30.8370 C   0  0  0  0  0  0  0  0  0  0  0  0
   -3.2500   20.0630  -32.1400 C   0  0  0  0  0  0  0  0  0  0  0  0
   -5.5440   21.9600  -31.4030 C   0  0  0  0  0  0  0  0  0  0  0  0
   -3.7734   21.3832  -29.0373 H   0  0  0  0  0  0  0  0  0  0  0  0
   -2.6169   20.4889  -27.0122 H   0  0  0  0  0  0  0  0  0  0  0  0
   -0.8809   21.8696  -25.8546 H   0  0  0  0  0  0  0  0  0  0  0  0
   -0.3356   24.1602  -26.6912 H   0  0  0  0  0  0  0  0  0  0  0  0
   -7.5888   24.7022  -31.3534 H   0  0  0  0  0  0  0  0  0  0  0  0
   -9.1482   23.0525  -32.3841 H   0  0  0  0  0  0  0  0  0  0  0  0
   -8.4170   20.6975  -32.7533 H   0  0  0  0  0  0  0  0  0  0  0  0
   -4.7620   18.2147  -34.5984 H   0  0  0  0  0  0  0  0  0  0  0  0
   -2.4354   18.2534  -35.5007 H   0  0  0  0  0  0  0  0  0  0  0  0
   -0.6297   19.4521  -34.2583 H   0  0  0  0  0  0  0  0  0  0  0  0
    1.2050   21.2819  -29.4475 H   0  0  0  0  0  0  0  0  0  0  0  0
   -0.5730   21.3833  -29.0066 H   0  0  0  0  0  0  0  0  0  0  0  0
    1.5613   19.5341  -27.9961 H   0  0  0  0  0  0  0  0  0  0  0  0
    0.2351   20.4420  -27.1294 H   0  0  0  0  0  0  0  0  0  0  0  0
   -0.5671   18.3073  -26.9469 H   0  0  0  0  0  0  0  0  0  0  0  0
   -1.3020   18.8177  -28.5307 H   0  0  0  0  0  0  0  0  0  0  0  0
    1.3092   17.2872  -28.2951 H   0  0  0  0  0  0  0  0  0  0  0  0
   -0.3647   16.5349  -28.5123 H   0  0  0  0  0  0  0  0  0  0  0  0
    1.1719   16.7739  -30.5628 H   0  0  0  0  0  0  0  0  0  0  0  0
   -0.6082   17.3053  -30.6126 H   0  0  0  0  0  0  0  0  0  0  0  0
    1.8102   19.1164  -30.4978 H   0  0  0  0  0  0  0  0  0  0  0  0
    0.7066   18.7642  -31.9284 H   0  0  0  0  0  0  0  0  0  0  0  0
   -3.4802   20.5711  -31.1919 H   0  0  0  0  0  0  0  0  0  0  0  0
   -4.5127   21.6621  -31.1629 H   0  0  0  0  0  0  0  0  0  0  0  0
  1  2  2  0
  2  3  2  0
  2  4  1  0
  4  5  1  0
  5  6  2  0
  6  7  1  0
  7  8  2  0
  8  9  1  0
  9 10  2  0
 10 11  1  0
  2 12  1  0
 12 13  2  0
 13 14  1  0
 14 15  2  0
 15 16  1  0
 16 17  1  0
 17 18  2  0
 17 19  2  0
 17 20  1  0
 20 21  2  0
 21 22  1  0
 22 23  2  0
 23 24  1  0
 24 25  1  0
 25 26  2  0
 25 27  2  0
 25 28  1  0
 28 29  1  0
 29 30  1  0
 30 31  1  0
 31 32  1  0
 32 33  1  0
 33 34  1  0
 24 35  2  0
 16 36  2  0
 10  5  1  0
 36 12  1  0
 35 20  1  0
 34 28  1  0
  6 37  1  0
  7 38  1  0
  8 39  1  0
  9 40  1  0
 13 41  1  0
 14 42  1  0
 15 43  1  0
 21 44  1  0
 22 45  1  0
 23 46  1  0
 29 47  1  0
 29 48  1  0
 30 49  1  0
 30 50  1  0
 31 51  1  0
 31 52  1  0
 32 53  1  0
 32 54  1  0
 33 55  1  0
 33 56  1  0
 34 57  1  0
 34 58  1  0
 35 59  1  0
 36 60  1  0
M  CHG  2   4  -1  11  -1
M  END
>  <UniqueID>  (14) 
13

>  <SMILES>  (14) 
O=S(=O)([N-]c1ccccc1[S-])c1cccc(S(=O)(=O)c2cccc(S(=O)(=O)N3CCCCCC3)c2)c1

>  <Energy>  (14) 
80.01167196399813

>  <Genealogy>  (14) 
O=S(=O)([N-]c1ccccc1[S-])c1cccc(S(=O)(=O)c2cccc(S(=O)(=O)N3CCCCCC3)c2)c1 (protonated)
O=S(=O)([N-]c1ccccc1[S-])c1cccc(S(=O)(=O)c2cccc(S(=O)(=O)N3CCCCCC3)c2)c1 (3D coordinates assigned)
O=S(=O)([N-]c1ccccc1[S-])c1cccc(S(=O)(=O)c2cccc(S(=O)(=O)N3CCCCCC3)c2)c1 (nonaromatic ring conformer: 80.01167196399813 kcal/mol)

>  <smiles>  (14) 
O=S(=O)(Nc1ccccc1S)c1cccc(S(=O)(=O)c2cccc(S(=O)(=O)N3CCCCCC3)c2)c1

>  <score_type>  (14) 
oracle

>  <origin>  (14) 
adgpu

>  <m_score__min__energy>  (14) 
-11.289999999999999

>  <m_primary>  (14) 
energy

$$$$
14:0
     RDKit          3D

 56 59  0  0  0  0  0  0  0  0999 V2000
   -0.5284   22.9936  -29.4347 H   0  0  0  0  0  0  0  0  0  0  0  0
   -1.4750   22.4360  -29.3790 C   0  0  0  0  0  0  0  0  0  0  0  0
   -1.4640   21.2000  -28.9780 N   0  0  0  0  0  0  0  0  0  0  0  0
   -0.3070   20.4490  -28.5710 C   0  0  0  0  0  0  0  0  0  0  0  0
   -0.2840   19.0390  -28.5500 C   0  0  0  0  0  0  0  0  0  0  0  0
   -1.1834   18.4714  -28.8309 H   0  0  0  0  0  0  0  0  0  0  0  0
    0.8790   18.3610  -28.1730 C   0  0  0  0  0  0  0  0  0  0  0  0
    0.8910   17.2612  -28.1590 H   0  0  0  0  0  0  0  0  0  0  0  0
    2.0290   19.0750  -27.8130 C   0  0  0  0  0  0  0  0  0  0  0  0
    3.5190   18.2240  -27.4130 S   0  0  0  0  0  0  0  0  0  0  0  0
    3.2840   17.3190  -26.2350 O   0  0  0  0  0  0  0  0  0  0  0  0
    4.5890   19.2190  -27.0610 O   0  0  0  0  0  0  0  0  0  0  0  0
    4.0260   17.2790  -28.7690 N   0  0  0  0  0  0  0  0  0  0  0  0
    3.1920   17.1380  -29.8910 N   0  0  0  0  0  0  0  0  0  0  0  0
    3.1730   18.1090  -30.8630 C   0  0  0  0  0  0  0  0  0  0  0  0
    4.0920   19.3060  -30.7620 C   0  0  0  0  0  0  0  0  0  0  0  0
    4.2726   19.5413  -29.7027 H   0  0  0  0  0  0  0  0  0  0  0  0
    5.0483   19.0767  -31.2549 H   0  0  0  0  0  0  0  0  0  0  0  0
    3.6235   20.1706  -31.2549 H   0  0  0  0  0  0  0  0  0  0  0  0
    2.2370   18.0170  -31.9240 C   0  0  0  0  0  0  0  0  0  0  0  0
    2.1300   19.0770  -32.9880 C   0  0  0  0  0  0  0  0  0  0  0  0
    2.0303   20.0643  -32.5133 H   0  0  0  0  0  0  0  0  0  0  0  0
    3.0343   19.0608  -33.6140 H   0  0  0  0  0  0  0  0  0  0  0  0
    1.2471   18.8804  -33.6140 H   0  0  0  0  0  0  0  0  0  0  0  0
    1.4050   16.8920  -31.9960 C   0  0  0  0  0  0  0  0  0  0  0  0
    0.6881   16.7929  -32.8244 H   0  0  0  0  0  0  0  0  0  0  0  0
    1.4820   15.9000  -31.0240 C   0  0  0  0  0  0  0  0  0  0  0  0
    0.8368   15.0113  -31.0872 H   0  0  0  0  0  0  0  0  0  0  0  0
    2.3820   16.0400  -29.9700 C   0  0  0  0  0  0  0  0  0  0  0  0
    2.4390   15.1420  -29.0860 O   0  0  0  0  0  0  0  0  0  0  0  0
    2.0130   20.4740  -27.8490 C   0  0  0  0  0  0  0  0  0  0  0  0
    2.9160   21.0396  -27.5756 H   0  0  0  0  0  0  0  0  0  0  0  0
    0.8540   21.1550  -28.2310 C   0  0  0  0  0  0  0  0  0  0  0  0
    0.8535   22.2545  -28.2650 H   0  0  0  0  0  0  0  0  0  0  0  0
   -2.7430   23.1110  -29.7640 C   0  0  0  0  0  0  0  0  0  0  0  0
   -2.8210   24.5110  -29.7220 C   0  0  0  0  0  0  0  0  0  0  0  0
   -1.7270   25.2770  -29.3330 O   0  0  0  0  0  0  0  0  0  0  0  0
   -3.9700   25.1380  -30.0690 N   0  0  0  0  0  0  0  0  0  0  0  0
   -5.0710   24.4500  -30.4580 C   0  0  0  0  0  0  0  0  0  0  0  0
   -6.4150   25.3060  -30.8610 S   0  0  0  0  0  0  0  0  0  0  0  0
   -5.0400   23.0780  -30.5070 N   0  0  0  0  0  0  0  0  0  0  0  0
   -6.2030   22.3290  -30.9100 C   0  0  0  0  0  0  0  0  0  0  0  0
   -7.3840   22.4090  -30.1600 C   0  0  0  0  0  0  0  0  0  0  0  0
   -7.4221   23.0411  -29.2606 H   0  0  0  0  0  0  0  0  0  0  0  0
   -8.5140   21.6860  -30.5540 C   0  0  0  0  0  0  0  0  0  0  0  0
   -9.4395   21.7488  -29.9628 H   0  0  0  0  0  0  0  0  0  0  0  0
   -8.4700   20.8840  -31.6970 C   0  0  0  0  0  0  0  0  0  0  0  0
   -9.3615   20.3171  -32.0034 H   0  0  0  0  0  0  0  0  0  0  0  0
   -7.2920   20.7990  -32.4560 C   0  0  0  0  0  0  0  0  0  0  0  0
   -7.2480   19.9790  -33.6260 N   0  0  0  0  0  0  0  0  0  0  0  0
   -8.1250   19.7040  -34.1200 H   0  0  0  0  0  0  0  0  0  0  0  0
   -6.3350   19.6440  -34.0090 H   0  0  0  0  0  0  0  0  0  0  0  0
   -6.1600   21.5240  -32.0580 C   0  0  0  0  0  0  0  0  0  0  0  0
   -5.2341   21.4613  -32.6485 H   0  0  0  0  0  0  0  0  0  0  0  0
   -3.8980   22.4020  -30.1650 C   0  0  0  0  0  0  0  0  0  0  0  0
   -3.8840   21.1400  -30.2010 O   0  0  0  0  0  0  0  0  0  0  0  0
  1  2  1  0
  2  3  2  0
  3  4  1  0
  4  5  2  0
  5  6  1  0
  5  7  1  0
  7  8  1  0
  7  9  2  0
  9 10  1  0
 10 11  2  0
 10 12  2  0
 10 13  1  0
 13 14  1  0
 14 15  1  0
 15 16  1  0
 16 17  1  0
 16 18  1  0
 16 19  1  0
 15 20  2  0
 20 21  1  0
 21 22  1  0
 21 23  1  0
 21 24  1  0
 20 25  1  0
 25 26  1  0
 25 27  2  0
 27 28  1  0
 27 29  1  0
 29 30  2  0
  9 31  1  0
 31 32  1  0
 31 33  2  0
 33 34  1  0
  2 35  1  0
 35 36  2  0
 36 37  1  0
 36 38  1  0
 38 39  1  0
 39 40  2  0
 39 41  1  0
 41 42  1  0
 42 43  2  0
 43 44  1  0
 43 45  1  0
 45 46  1  0
 45 47  2  0
 47 48  1  0
 47 49  1  0
 49 50  1  0
 50 51  1  0
 50 52  1  0
 49 53  2  0
 53 54  1  0
 41 55  1  0
 55 56  2  0
 33  4  1  0
 55 35  1  0
 29 14  1  0
 53 42  1  0
M  CHG  3  13  -1  37  -1  38  -1
M  END
>  <UniqueID>  (15) 
14

>  <SMILES>  (15) 
Cc1ccc(=O)n([N-]S(=O)(=O)c2ccc(/N=C/c3c([O-])[n-]c(=S)n(-c4cccc(N)c4)c3=O)cc2)c1C

>  <Energy>  (15) 
89.57656386557531

>  <Genealogy>  (15) 
Cc1ccc(=O)n([N-]S(=O)(=O)c2ccc(N=Cc3c([O-])[n-]c(=S)n(-c4cccc(N)c4)c3=O)cc2)c1C (protonated)
Cc1ccc(=O)n([N-]S(=O)(=O)c2ccc(/N=C/c3c([O-])[n-]c(=S)n(-c4cccc(N)c4)c3=O)cc2)c1C (cis-trans isomerization)
Cc1ccc(=O)n([N-]S(=O)(=O)c2ccc(/N=C/c3c([O-])[n-]c(=S)n(-c4cccc(N)c4)c3=O)cc2)c1C (3D coordinates assigned)
Cc1ccc(=O)n([N-]S(=O)(=O)c2ccc(/N=C/c3c([O-])[n-]c(=S)n(-c4cccc(N)c4)c3=O)cc2)c1C (optimized conformer: 89.57656386557531 kcal/mol)

>  <smiles>  (15) 
Cc1ccc(=O)n(NS(=O)(=O)c2ccc(N=Cc3c(O)[nH]c(=S)n(-c4cccc(N)c4)c3=O)cc2)c1C

>  <score_type>  (15) 
oracle

>  <origin>  (15) 
adgpu

>  <m_score__min__energy>  (15) 
-12.35

>  <m_primary>  (15) 
energy

$$$$
15:0
     RDKit          3D

 50 53  0  0  0  0  0  0  0  0999 V2000
   -1.8180   18.3250  -26.7450 C   0  0  0  0  0  0  0  0  0  0  0  0
   -1.6350   19.7670  -27.1020 C   0  0  0  0  0  0  0  0  0  0  0  0
   -0.3720   20.2490  -27.4800 C   0  0  0  0  0  0  0  0  0  0  0  0
   -0.2040   21.5980  -27.8190 C   0  0  0  0  0  0  0  0  0  0  0  0
   -1.2930   22.4800  -27.7750 C   0  0  0  0  0  0  0  0  0  0  0  0
   -1.0310   24.2100  -27.9950 S   0  0  0  0  0  0  0  0  0  0  0  0
    0.4350   24.4800  -28.1990 O   0  0  0  0  0  0  0  0  0  0  0  0
   -1.4920   24.9260  -26.7590 O   0  0  0  0  0  0  0  0  0  0  0  0
   -1.9130   24.8220  -29.3610 N   0  0  0  0  0  0  0  0  0  0  0  0
   -2.8770   24.0690  -30.1040 C   0  0  0  0  0  0  0  0  0  0  0  0
   -2.6770   22.7100  -30.3900 C   0  0  0  0  0  0  0  0  0  0  0  0
   -3.6860   21.9510  -31.0030 C   0  0  0  0  0  0  0  0  0  0  0  0
   -4.8710   22.5850  -31.4320 C   0  0  0  0  0  0  0  0  0  0  0  0
   -5.0310   23.9620  -31.2170 C   0  0  0  0  0  0  0  0  0  0  0  0
   -4.0450   24.6990  -30.5550 C   0  0  0  0  0  0  0  0  0  0  0  0
   -4.2380   26.0560  -30.3270 O   0  0  0  0  0  0  0  0  0  0  0  0
   -5.9830   21.8160  -32.1080 C   0  0  0  0  0  0  0  0  0  0  0  0
   -5.6970   20.3750  -32.2180 N   0  0  0  0  0  0  0  0  0  0  0  0
   -6.2370   19.6010  -33.3130 C   0  0  0  0  0  0  0  0  0  0  0  0
   -7.2150   20.0510  -33.9690 O   0  0  0  0  0  0  0  0  0  0  0  0
   -5.6770   18.2800  -33.6790 C   0  0  0  0  0  0  0  0  0  0  0  0
   -4.4680   18.2060  -34.3960 C   0  0  0  0  0  0  0  0  0  0  0  0
   -3.9340   16.9660  -34.7550 C   0  0  0  0  0  0  0  0  0  0  0  0
   -4.6010   15.7890  -34.4070 C   0  0  0  0  0  0  0  0  0  0  0  0
   -5.8110   15.8500  -33.7120 C   0  0  0  0  0  0  0  0  0  0  0  0
   -6.3540   17.0900  -33.3530 C   0  0  0  0  0  0  0  0  0  0  0  0
   -7.5600   17.1250  -32.6570 O   0  0  0  0  0  0  0  0  0  0  0  0
   -4.8140   19.7480  -31.2310 C   0  0  0  0  0  0  0  0  0  0  0  0
   -3.4760   20.4780  -31.2200 C   0  0  0  0  0  0  0  0  0  0  0  0
   -2.5660   21.9870  -27.4490 C   0  0  0  0  0  0  0  0  0  0  0  0
   -2.7360   20.6380  -27.1210 C   0  0  0  0  0  0  0  0  0  0  0  0
   -1.8317   18.2171  -25.6504 H   0  0  0  0  0  0  0  0  0  0  0  0
   -2.7694   17.9621  -27.1611 H   0  0  0  0  0  0  0  0  0  0  0  0
   -0.9874   17.7360  -27.1611 H   0  0  0  0  0  0  0  0  0  0  0  0
    0.4890   19.5651  -27.5102 H   0  0  0  0  0  0  0  0  0  0  0  0
    0.7872   21.9670  -28.1212 H   0  0  0  0  0  0  0  0  0  0  0  0
   -1.7195   22.2345  -30.1311 H   0  0  0  0  0  0  0  0  0  0  0  0
   -5.9413   24.4666  -31.5729 H   0  0  0  0  0  0  0  0  0  0  0  0
   -6.9061   21.9474  -31.5244 H   0  0  0  0  0  0  0  0  0  0  0  0
   -6.0854   22.2117  -33.1292 H   0  0  0  0  0  0  0  0  0  0  0  0
   -3.9405   19.1300  -34.6753 H   0  0  0  0  0  0  0  0  0  0  0  0
   -2.9870   16.9164  -35.3125 H   0  0  0  0  0  0  0  0  0  0  0  0
   -4.1729   14.8133  -34.6805 H   0  0  0  0  0  0  0  0  0  0  0  0
   -6.3386   14.9221  -33.4461 H   0  0  0  0  0  0  0  0  0  0  0  0
   -5.2746   19.8091  -30.2340 H   0  0  0  0  0  0  0  0  0  0  0  0
   -4.6564   18.6917  -31.4944 H   0  0  0  0  0  0  0  0  0  0  0  0
   -2.8509   20.0773  -30.4084 H   0  0  0  0  0  0  0  0  0  0  0  0
   -2.9784   20.3269  -32.1893 H   0  0  0  0  0  0  0  0  0  0  0  0
   -3.4330   22.6639  -27.4515 H   0  0  0  0  0  0  0  0  0  0  0  0
   -3.7385   20.2571  -26.8764 H   0  0  0  0  0  0  0  0  0  0  0  0
  1  2  1  0
  2  3  2  0
  3  4  1  0
  4  5  2  0
  5  6  1  0
  6  7  2  0
  6  8  2  0
  6  9  1  0
  9 10  1  0
 10 11  2  0
 11 12  1  0
 12 13  2  0
 13 14  1  0
 14 15  2  0
 15 16  1  0
 13 17  1  0
 17 18  1  0
 18 19  1  0
 19 20  2  0
 19 21  1  0
 21 22  2  0
 22 23  1  0
 23 24  2  0
 24 25  1  0
 25 26  2  0
 26 27  1  0
 18 28  1  0
 28 29  1  0
  5 30  1  0
 30 31  2  0
 31  2  1  0
 15 10  1  0
 26 21  1  0
 29 12  1  0
  1 32  1  0
  1 33  1  0
  1 34  1  0
  3 35  1  0
  4 36  1  0
 11 37  1  0
 14 38  1  0
 17 39  1  0
 17 40  1  0
 22 41  1  0
 23 42  1  0
 24 43  1  0
 25 44  1  0
 28 45  1  0
 28 46  1  0
 29 47  1  0
 29 48  1  0
 30 49  1  0
 31 50  1  0
M  CHG  3   9  -1  16  -1  27  -1
M  END
>  <UniqueID>  (16) 
15

>  <SMILES>  (16) 
Cc1ccc(S(=O)(=O)[N-]c2cc3c(cc2[O-])CN(C(=O)c2ccccc2[O-])CC3)cc1

>  <Energy>  (16) 
68.7029345098942

>  <Genealogy>  (16) 
Cc1ccc(S(=O)(=O)[N-]c2cc3c(cc2[O-])CN(C(=O)c2ccccc2[O-])CC3)cc1 (protonated)
Cc1ccc(S(=O)(=O)[N-]c2cc3c(cc2[O-])CN(C(=O)c2ccccc2[O-])CC3)cc1 (3D coordinates assigned)
Cc1ccc(S(=O)(=O)[N-]c2cc3c(cc2[O-])CN(C(=O)c2ccccc2[O-])CC3)cc1 (nonaromatic ring conformer: 68.7029345098942 kcal/mol)

>  <smiles>  (16) 
Cc1ccc(S(=O)(=O)Nc2cc3c(cc2O)CN(C(=O)c2ccccc2O)CC3)cc1

>  <score_type>  (16) 
oracle

>  <origin>  (16) 
adgpu

>  <m_score__min__energy>  (16) 
-12.94

>  <m_primary>  (16) 
energy

$$$$
16:0
     RDKit          3D

 48 51  0  0  0  0  0  0  0  0999 V2000
   -3.0950   20.9980  -27.7590 C   0  0  0  0  0  0  0  0  0  0  0  0
   -3.2750   22.2120  -28.6320 C   0  0  0  0  0  0  0  0  0  0  0  0
   -4.2050   22.1630  -29.6840 C   0  0  0  0  0  0  0  0  0  0  0  0
   -4.3830   23.2610  -30.5330 C   0  0  0  0  0  0  0  0  0  0  0  0
   -5.4970   23.1770  -31.8950 S   0  0  0  0  0  0  0  0  0  0  0  0
   -6.0110   24.5440  -32.2490 O   0  0  0  0  0  0  0  0  0  0  0  0
   -4.7700   22.6080  -33.0810 O   0  0  0  0  0  0  0  0  0  0  0  0
   -6.8530   22.1430  -31.4810 C   0  0  0  0  0  0  0  0  0  0  0  0
   -7.9680   22.5660  -30.8420 N   0  0  0  0  0  0  0  0  0  0  0  0
   -8.8010   21.5380  -30.7030 N   0  0  0  0  0  0  0  0  0  0  0  0
   -8.2080   20.4660  -31.2580 C   0  0  0  0  0  0  0  0  0  0  0  0
   -8.7080   19.1720  -31.3590 C   0  0  0  0  0  0  0  0  0  0  0  0
   -7.9080   18.2070  -32.0020 C   0  0  0  0  0  0  0  0  0  0  0  0
   -6.6310   18.5490  -32.5290 C   0  0  0  0  0  0  0  0  0  0  0  0
   -5.8240   17.5570  -33.2030 N   0  0  0  0  0  0  0  0  0  0  0  0
   -5.3200   16.3830  -32.4740 C   0  0  0  0  0  0  0  0  0  0  0  0
   -5.0480   15.2320  -33.4500 C   0  0  0  0  0  0  0  0  0  0  0  0
   -4.1040   15.6080  -34.5240 N   0  0  0  0  0  0  0  0  0  0  0  0
   -4.1230   17.0390  -34.9030 C   0  0  0  0  0  0  0  0  0  0  0  0
   -5.4700   17.7130  -34.6200 C   0  0  0  0  0  0  0  0  0  0  0  0
   -6.1620   19.8780  -32.3920 C   0  0  0  0  0  0  0  0  0  0  0  0
   -6.9850   20.8020  -31.7550 C   0  0  0  0  0  0  0  0  0  0  0  0
   -3.6320   24.4220  -30.3280 C   0  0  0  0  0  0  0  0  0  0  0  0
   -2.7030   24.4910  -29.2870 C   0  0  0  0  0  0  0  0  0  0  0  0
   -1.9800   25.6670  -29.1120 O   0  0  0  0  0  0  0  0  0  0  0  0
   -2.5000   23.3840  -28.4370 C   0  0  0  0  0  0  0  0  0  0  0  0
   -1.4960   23.4630  -27.3120 C   0  0  0  0  0  0  0  0  0  0  0  0
   -3.1393   21.2971  -26.7014 H   0  0  0  0  0  0  0  0  0  0  0  0
   -3.8955   20.2734  -27.9690 H   0  0  0  0  0  0  0  0  0  0  0  0
   -2.1187   20.5368  -27.9690 H   0  0  0  0  0  0  0  0  0  0  0  0
   -4.7998   21.2513  -29.8420 H   0  0  0  0  0  0  0  0  0  0  0  0
   -9.6953   18.9108  -30.9504 H   0  0  0  0  0  0  0  0  0  0  0  0
   -8.2755   17.1747  -32.0981 H   0  0  0  0  0  0  0  0  0  0  0  0
   -4.3865   16.6494  -31.9567 H   0  0  0  0  0  0  0  0  0  0  0  0
   -6.0759   16.0626  -31.7419 H   0  0  0  0  0  0  0  0  0  0  0  0
   -4.6239   14.3866  -32.8883 H   0  0  0  0  0  0  0  0  0  0  0  0
   -6.0036   14.9652  -33.9249 H   0  0  0  0  0  0  0  0  0  0  0  0
   -3.1340   15.3600  -34.2220 H   0  0  0  0  0  0  0  0  0  0  0  0
   -4.3210   15.0310  -35.3700 H   0  0  0  0  0  0  0  0  0  0  0  0
   -3.3416   17.5634  -34.3334 H   0  0  0  0  0  0  0  0  0  0  0  0
   -3.9468   17.0957  -35.9873 H   0  0  0  0  0  0  0  0  0  0  0  0
   -5.3990   18.7838  -34.8616 H   0  0  0  0  0  0  0  0  0  0  0  0
   -6.2465   17.2405  -35.2395 H   0  0  0  0  0  0  0  0  0  0  0  0
   -5.1748   20.1719  -32.7782 H   0  0  0  0  0  0  0  0  0  0  0  0
   -3.7736   25.2879  -30.9914 H   0  0  0  0  0  0  0  0  0  0  0  0
   -2.0225   23.4216  -26.3471 H   0  0  0  0  0  0  0  0  0  0  0  0
   -0.7966   22.6171  -27.3847 H   0  0  0  0  0  0  0  0  0  0  0  0
   -0.9375   24.4079  -27.3847 H   0  0  0  0  0  0  0  0  0  0  0  0
  1  2  1  0
  2  3  2  0
  3  4  1  0
  4  5  1  0
  5  6  2  0
  5  7  2  0
  5  8  1  0
  8  9  1  0
  9 10  1  0
 10 11  2  0
 11 12  1  0
 12 13  2  0
 13 14  1  0
 14 15  1  0
 15 16  1  0
 16 17  1  0
 17 18  1  0
 18 19  1  0
 19 20  1  0
 14 21  2  0
 21 22  1  0
  4 23  2  0
 23 24  1  0
 24 25  1  0
 24 26  2  0
 26 27  1  0
 26  2  1  0
 22  8  2  0
 22 11  1  0
 20 15  1  0
  1 28  1  0
  1 29  1  0
  1 30  1  0
  3 31  1  0
 12 32  1  0
 13 33  1  0
 16 34  1  0
 16 35  1  0
 17 36  1  0
 17 37  1  0
 18 38  1  0
 18 39  1  0
 19 40  1  0
 19 41  1  0
 20 42  1  0
 20 43  1  0
 21 44  1  0
 23 45  1  0
 27 46  1  0
 27 47  1  0
 27 48  1  0
M  CHG  3   9  -1  18   1  25  -1
M  END
>  <UniqueID>  (17) 
16

>  <SMILES>  (17) 
Cc1cc(S(=O)(=O)c2[n-]nc3ccc(N4CC[NH2+]CC4)cc23)cc([O-])c1C

>  <Energy>  (17) 
98.73343356748437

>  <Genealogy>  (17) 
Cc1cc(S(=O)(=O)c2[n-]nc3ccc(N4CC[NH2+]CC4)cc23)cc([O-])c1C (protonated)
Cc1cc(S(=O)(=O)c2[n-]nc3ccc(N4CC[NH2+]CC4)cc23)cc([O-])c1C (3D coordinates assigned)
Cc1cc(S(=O)(=O)c2[n-]nc3ccc(N4CC[NH2+]CC4)cc23)cc([O-])c1C (nonaromatic ring conformer: 98.73343356748437 kcal/mol)

>  <smiles>  (17) 
Cc1cc(S(=O)(=O)c2[nH]nc3ccc(N4CCNCC4)cc23)cc(O)c1C

>  <score_type>  (17) 
oracle

>  <origin>  (17) 
adgpu

>  <m_score__min__energy>  (17) 
-11.23

>  <m_primary>  (17) 
energy

$$$$
17:0
     RDKit          3D

 59 62  0  0  0  0  0  0  0  0999 V2000
   -2.8860   21.6300  -31.7920 O   0  0  0  0  0  0  0  0  0  0  0  0
   -3.1900   22.4270  -30.8620 C   0  0  0  0  0  0  0  0  0  0  0  0
   -2.2390   22.7080  -29.8220 N   0  0  0  0  0  0  0  0  0  0  0  0
   -1.1530   21.8330  -29.4710 C   0  0  0  0  0  0  0  0  0  0  0  0
   -0.5200   21.9160  -28.2170 C   0  0  0  0  0  0  0  0  0  0  0  0
    0.5530   21.0750  -27.9100 C   0  0  0  0  0  0  0  0  0  0  0  0
    1.0190   20.1510  -28.8550 C   0  0  0  0  0  0  0  0  0  0  0  0
    2.3590   19.0770  -28.4640 S   0  0  0  0  0  0  0  0  0  0  0  0
    3.4710   19.8680  -27.8300 O   0  0  0  0  0  0  0  0  0  0  0  0
    2.8790   18.4550  -29.7300 O   0  0  0  0  0  0  0  0  0  0  0  0
    1.8020   17.8250  -27.3850 N   0  0  0  0  0  0  0  0  0  0  0  0
    2.9100   16.9930  -26.9150 C   0  0  0  0  0  0  0  0  0  0  0  0
    2.3240   15.6250  -26.6020 C   0  0  0  0  0  0  0  0  0  0  0  0
    0.9960   15.5750  -27.3410 C   0  0  0  0  0  0  0  0  0  0  0  0
    0.8880   16.9080  -28.0650 C   0  0  0  0  0  0  0  0  0  0  0  0
    0.3980   20.0730  -30.1080 C   0  0  0  0  0  0  0  0  0  0  0  0
   -0.6740   20.9150  -30.4160 C   0  0  0  0  0  0  0  0  0  0  0  0
   -4.5010   23.1160  -30.8950 C   0  0  0  0  0  0  0  0  0  0  0  0
   -5.6730   22.3670  -31.1100 C   0  0  0  0  0  0  0  0  0  0  0  0
   -6.9240   22.9920  -31.1530 C   0  0  0  0  0  0  0  0  0  0  0  0
   -8.3670   22.0310  -31.4630 S   0  0  0  0  0  0  0  0  0  0  0  0
   -9.3220   22.7960  -32.3390 O   0  0  0  0  0  0  0  0  0  0  0  0
   -9.0420   21.7410  -30.1520 O   0  0  0  0  0  0  0  0  0  0  0  0
   -7.9140   20.5350  -32.2410 N   0  0  0  0  0  0  0  0  0  0  0  0
   -7.4570   19.5640  -31.2350 C   0  0  0  0  0  0  0  0  0  0  0  0
   -7.2580   18.1760  -31.8750 C   0  0  0  0  0  0  0  0  0  0  0  0
   -7.0090   18.2590  -33.3900 C   0  0  0  0  0  0  0  0  0  0  0  0
   -6.1830   19.4970  -33.7410 C   0  0  0  0  0  0  0  0  0  0  0  0
   -6.8560   20.7960  -33.2420 C   0  0  0  0  0  0  0  0  0  0  0  0
   -7.0130   24.3790  -30.9810 C   0  0  0  0  0  0  0  0  0  0  0  0
   -5.8600   25.1310  -30.7510 C   0  0  0  0  0  0  0  0  0  0  0  0
   -4.6090   24.5100  -30.6990 C   0  0  0  0  0  0  0  0  0  0  0  0
   -3.4860   25.2850  -30.4250 O   0  0  0  0  0  0  0  0  0  0  0  0
   -2.2810   23.6470  -29.3670 H   0  0  0  0  0  0  0  0  0  0  0  0
   -0.8718   22.6470  -27.4741 H   0  0  0  0  0  0  0  0  0  0  0  0
    1.0338   21.1385  -26.9227 H   0  0  0  0  0  0  0  0  0  0  0  0
    3.6783   16.9067  -27.6975 H   0  0  0  0  0  0  0  0  0  0  0  0
    3.3872   17.4327  -26.0268 H   0  0  0  0  0  0  0  0  0  0  0  0
    2.9934   14.8287  -26.9595 H   0  0  0  0  0  0  0  0  0  0  0  0
    2.1957   15.4731  -25.5201 H   0  0  0  0  0  0  0  0  0  0  0  0
    0.9872   14.7437  -28.0613 H   0  0  0  0  0  0  0  0  0  0  0  0
    0.1515   15.4116  -26.6553 H   0  0  0  0  0  0  0  0  0  0  0  0
    1.1800   16.7926  -29.1192 H   0  0  0  0  0  0  0  0  0  0  0  0
   -0.1440   17.2884  -28.0464 H   0  0  0  0  0  0  0  0  0  0  0  0
    0.7554   19.3463  -30.8524 H   0  0  0  0  0  0  0  0  0  0  0  0
   -1.1458   20.8570  -31.4080 H   0  0  0  0  0  0  0  0  0  0  0  0
   -5.6047   21.2776  -31.2458 H   0  0  0  0  0  0  0  0  0  0  0  0
   -6.5023   19.9064  -30.8091 H   0  0  0  0  0  0  0  0  0  0  0  0
   -8.2185   19.4854  -30.4451 H   0  0  0  0  0  0  0  0  0  0  0  0
   -6.3929   17.6893  -31.4010 H   0  0  0  0  0  0  0  0  0  0  0  0
   -8.1813   17.5990  -31.7181 H   0  0  0  0  0  0  0  0  0  0  0  0
   -6.4657   17.3596  -33.7153 H   0  0  0  0  0  0  0  0  0  0  0  0
   -7.9800   18.3280  -33.9022 H   0  0  0  0  0  0  0  0  0  0  0  0
   -5.1912   19.4076  -33.2738 H   0  0  0  0  0  0  0  0  0  0  0  0
   -6.1001   19.5537  -34.8364 H   0  0  0  0  0  0  0  0  0  0  0  0
   -6.0886   21.4385  -32.7855 H   0  0  0  0  0  0  0  0  0  0  0  0
   -7.3270   21.2836  -34.1082 H   0  0  0  0  0  0  0  0  0  0  0  0
   -7.9930   24.8764  -31.0272 H   0  0  0  0  0  0  0  0  0  0  0  0
   -5.9363   26.2192  -30.6098 H   0  0  0  0  0  0  0  0  0  0  0  0
  1  2  2  0
  2  3  1  0
  3  4  1  0
  4  5  2  0
  5  6  1  0
  6  7  2  0
  7  8  1  0
  8  9  2  0
  8 10  2  0
  8 11  1  0
 11 12  1  0
 12 13  1  0
 13 14  1  0
 14 15  1  0
  7 16  1  0
 16 17  2  0
  2 18  1  0
 18 19  2  0
 19 20  1  0
 20 21  1  0
 21 22  2  0
 21 23  2  0
 21 24  1  0
 24 25  1  0
 25 26  1  0
 26 27  1  0
 27 28  1  0
 28 29  1  0
 20 30  2  0
 30 31  1  0
 31 32  2  0
 32 33  1  0
 17  4  1  0
 32 18  1  0
 15 11  1  0
 29 24  1  0
  3 34  1  0
  5 35  1  0
  6 36  1  0
 12 37  1  0
 12 38  1  0
 13 39  1  0
 13 40  1  0
 14 41  1  0
 14 42  1  0
 15 43  1  0
 15 44  1  0
 16 45  1  0
 17 46  1  0
 19 47  1  0
 25 48  1  0
 25 49  1  0
 26 50  1  0
 26 51  1  0
 27 52  1  0
 27 53  1  0
 28 54  1  0
 28 55  1  0
 29 56  1  0
 29 57  1  0
 30 58  1  0
 31 59  1  0
M  CHG  1  33  -1
M  END
>  <UniqueID>  (18) 
17

>  <SMILES>  (18) 
O=C(Nc1ccc(S(=O)(=O)N2CCCC2)cc1)c1cc(S(=O)(=O)N2CCCCC2)ccc1[O-]

>  <Energy>  (18) 
71.49285918185355

>  <Genealogy>  (18) 
O=C(Nc1ccc(S(=O)(=O)N2CCCC2)cc1)c1cc(S(=O)(=O)N2CCCCC2)ccc1[O-] (protonated)
O=C(Nc1ccc(S(=O)(=O)N2CCCC2)cc1)c1cc(S(=O)(=O)N2CCCCC2)ccc1[O-] (3D coordinates assigned)
O=C(Nc1ccc(S(=O)(=O)N2CCCC2)cc1)c1cc(S(=O)(=O)N2CCCCC2)ccc1[O-] (nonaromatic ring conformer: 71.49285918185355 kcal/mol)

>  <smiles>  (18) 
O=C(Nc1ccc(S(=O)(=O)N2CCCC2)cc1)c1cc(S(=O)(=O)N2CCCCC2)ccc1O

>  <score_type>  (18) 
oracle

>  <origin>  (18) 
adgpu

>  <m_score__min__energy>  (18) 
-13.01

>  <m_primary>  (18) 
energy

$$$$
18:0
     RDKit          3D

 60 63  0  0  0  0  0  0  0  0999 V2000
   -4.1590   24.0430  -28.2580 O   0  0  0  0  0  0  0  0  0  0  0  0
   -3.3520   24.5350  -29.0930 C   0  0  0  0  0  0  0  0  0  0  0  0
   -1.9450   24.2860  -28.9770 N   0  0  0  0  0  0  0  0  0  0  0  0
   -1.3040   23.0030  -29.0150 C   0  0  0  0  0  0  0  0  0  0  0  0
   -0.8140   22.3830  -27.8540 C   0  0  0  0  0  0  0  0  0  0  0  0
   -0.1780   21.1430  -27.9370 C   0  0  0  0  0  0  0  0  0  0  0  0
   -0.0160   20.5160  -29.1750 C   0  0  0  0  0  0  0  0  0  0  0  0
   -0.4880   21.1320  -30.3400 C   0  0  0  0  0  0  0  0  0  0  0  0
   -0.2610   20.3550  -31.9060 S   0  0  0  0  0  0  0  0  0  0  0  0
    0.8970   19.3960  -31.8310 O   0  0  0  0  0  0  0  0  0  0  0  0
    0.0530   21.4040  -32.9370 O   0  0  0  0  0  0  0  0  0  0  0  0
   -1.7260   19.5200  -32.3560 N   0  0  0  0  0  0  0  0  0  0  0  0
   -1.4870   18.5800  -33.4510 C   0  0  0  0  0  0  0  0  0  0  0  0
   -2.8180   18.4100  -34.1600 C   0  0  0  0  0  0  0  0  0  0  0  0
   -3.5990   19.6770  -33.8470 C   0  0  0  0  0  0  0  0  0  0  0  0
   -2.7360   20.4520  -32.8570 C   0  0  0  0  0  0  0  0  0  0  0  0
   -1.1170   22.3820  -30.2570 C   0  0  0  0  0  0  0  0  0  0  0  0
   -3.8360   25.3110  -30.1970 N   0  0  0  0  0  0  0  0  0  0  0  0
   -5.2590   25.4790  -30.4810 C   0  0  0  0  0  0  0  0  0  0  0  0
   -5.8160   24.2150  -31.0760 C   0  0  0  0  0  0  0  0  0  0  0  0
   -4.9510   23.2400  -31.6020 C   0  0  0  0  0  0  0  0  0  0  0  0
   -5.4650   22.0510  -32.1260 C   0  0  0  0  0  0  0  0  0  0  0  0
   -6.8470   21.8160  -32.1190 C   0  0  0  0  0  0  0  0  0  0  0  0
   -7.5080   20.3160  -32.7660 S   0  0  0  0  0  0  0  0  0  0  0  0
   -6.8710   20.0080  -34.0940 O   0  0  0  0  0  0  0  0  0  0  0  0
   -8.9860   20.4990  -32.9770 O   0  0  0  0  0  0  0  0  0  0  0  0
   -7.2310   19.0060  -31.6370 N   0  0  0  0  0  0  0  0  0  0  0  0
   -5.8100   18.6430  -31.6050 C   0  0  0  0  0  0  0  0  0  0  0  0
   -5.5860   17.5280  -32.6140 C   0  0  0  0  0  0  0  0  0  0  0  0
   -6.9620   16.9620  -32.9060 C   0  0  0  0  0  0  0  0  0  0  0  0
   -7.9310   17.7960  -32.0780 C   0  0  0  0  0  0  0  0  0  0  0  0
   -7.7100   22.7770  -31.5740 C   0  0  0  0  0  0  0  0  0  0  0  0
   -7.1980   23.9700  -31.0550 C   0  0  0  0  0  0  0  0  0  0  0  0
   -0.9316   22.8754  -26.8774 H   0  0  0  0  0  0  0  0  0  0  0  0
    0.1971   20.6576  -27.0239 H   0  0  0  0  0  0  0  0  0  0  0  0
    0.4829   19.5374  -29.2343 H   0  0  0  0  0  0  0  0  0  0  0  0
   -0.7347   18.9848  -34.1439 H   0  0  0  0  0  0  0  0  0  0  0  0
   -1.1054   17.6181  -33.0779 H   0  0  0  0  0  0  0  0  0  0  0  0
   -2.6673   18.3075  -35.2448 H   0  0  0  0  0  0  0  0  0  0  0  0
   -3.3492   17.5060  -33.8276 H   0  0  0  0  0  0  0  0  0  0  0  0
   -3.7585   20.2665  -34.7619 H   0  0  0  0  0  0  0  0  0  0  0  0
   -4.5934   19.4524  -33.4337 H   0  0  0  0  0  0  0  0  0  0  0  0
   -2.2509   21.3008  -33.3612 H   0  0  0  0  0  0  0  0  0  0  0  0
   -3.3446   20.8542  -32.0337 H   0  0  0  0  0  0  0  0  0  0  0  0
   -1.4664   22.8791  -31.1739 H   0  0  0  0  0  0  0  0  0  0  0  0
   -3.1470   25.6810  -30.8880 H   0  0  0  0  0  0  0  0  0  0  0  0
   -5.7926   25.7081  -29.5468 H   0  0  0  0  0  0  0  0  0  0  0  0
   -5.3901   26.3040  -31.1967 H   0  0  0  0  0  0  0  0  0  0  0  0
   -3.8648   23.4137  -31.6011 H   0  0  0  0  0  0  0  0  0  0  0  0
   -4.7829   21.2968  -32.5454 H   0  0  0  0  0  0  0  0  0  0  0  0
   -5.1958   19.5159  -31.8711 H   0  0  0  0  0  0  0  0  0  0  0  0
   -5.5241   18.3086  -30.5968 H   0  0  0  0  0  0  0  0  0  0  0  0
   -5.1317   17.9269  -33.5329 H   0  0  0  0  0  0  0  0  0  0  0  0
   -4.9025   16.7584  -32.2260 H   0  0  0  0  0  0  0  0  0  0  0  0
   -7.1953   17.0527  -33.9771 H   0  0  0  0  0  0  0  0  0  0  0  0
   -7.0251   15.8934  -32.6530 H   0  0  0  0  0  0  0  0  0  0  0  0
   -8.8023   18.0718  -32.6902 H   0  0  0  0  0  0  0  0  0  0  0  0
   -8.2810   17.2206  -31.2082 H   0  0  0  0  0  0  0  0  0  0  0  0
   -8.7941   22.5917  -31.5546 H   0  0  0  0  0  0  0  0  0  0  0  0
   -7.8808   24.7196  -30.6285 H   0  0  0  0  0  0  0  0  0  0  0  0
  1  2  2  0
  2  3  1  0
  3  4  1  0
  4  5  2  0
  5  6  1  0
  6  7  2  0
  7  8  1  0
  8  9  1  0
  9 10  2  0
  9 11  2  0
  9 12  1  0
 12 13  1  0
 13 14  1  0
 14 15  1  0
 15 16  1  0
  8 17  2  0
  2 18  1  0
 18 19  1  0
 19 20  1  0
 20 21  2  0
 21 22  1  0
 22 23  2  0
 23 24  1  0
 24 25  2  0
 24 26  2  0
 24 27  1  0
 27 28  1  0
 28 29  1  0
 29 30  1  0
 30 31  1  0
 23 32  1  0
 32 33  2  0
 17  4  1  0
 33 20  1  0
 16 12  1  0
 31 27  1  0
  5 34  1  0
  6 35  1  0
  7 36  1  0
 13 37  1  0
 13 38  1  0
 14 39  1  0
 14 40  1  0
 15 41  1  0
 15 42  1  0
 16 43  1  0
 16 44  1  0
 17 45  1  0
 18 46  1  0
 19 47  1  0
 19 48  1  0
 21 49  1  0
 22 50  1  0
 28 51  1  0
 28 52  1  0
 29 53  1  0
 29 54  1  0
 30 55  1  0
 30 56  1  0
 31 57  1  0
 31 58  1  0
 32 59  1  0
 33 60  1  0
M  CHG  1   3  -1
M  END
>  <UniqueID>  (19) 
18

>  <SMILES>  (19) 
O=C([N-]c1cccc(S(=O)(=O)N2CCCC2)c1)NCc1ccc(S(=O)(=O)N2CCCC2)cc1

>  <Energy>  (19) 
64.26002071190642

>  <Genealogy>  (19) 
O=C([N-]c1cccc(S(=O)(=O)N2CCCC2)c1)NCc1ccc(S(=O)(=O)N2CCCC2)cc1 (protonated)
O=C([N-]c1cccc(S(=O)(=O)N2CCCC2)c1)NCc1ccc(S(=O)(=O)N2CCCC2)cc1 (3D coordinates assigned)
O=C([N-]c1cccc(S(=O)(=O)N2CCCC2)c1)NCc1ccc(S(=O)(=O)N2CCCC2)cc1 (nonaromatic ring conformer: 64.26002071190642 kcal/mol)

>  <smiles>  (19) 
O=C(NCc1ccc(S(=O)(=O)N2CCCC2)cc1)Nc1cccc(S(=O)(=O)N2CCCC2)c1

>  <score_type>  (19) 
oracle

>  <origin>  (19) 
adgpu

>  <m_score__min__energy>  (19) 
-12.1

>  <m_primary>  (19) 
energy

$$$$
19:0
     RDKit          3D

 54 57  0  0  0  0  0  0  0  0999 V2000
   -0.9190   27.2730  -25.7770 C   0  0  0  0  0  0  0  0  0  0  0  0
   -1.5120   25.9080  -25.9580 C   0  0  0  0  0  0  0  0  0  0  0  0
   -2.7120   25.8070  -26.3270 O   0  0  0  0  0  0  0  0  0  0  0  0
   -0.6980   24.7270  -25.8800 N   0  0  0  0  0  0  0  0  0  0  0  0
    0.1790   24.5490  -24.7180 C   0  0  0  0  0  0  0  0  0  0  0  0
   -0.0860   23.1270  -24.1870 C   0  0  0  0  0  0  0  0  0  0  0  0
   -0.8630   22.5060  -25.2880 C   0  0  0  0  0  0  0  0  0  0  0  0
   -1.2320   21.1690  -25.4130 C   0  0  0  0  0  0  0  0  0  0  0  0
   -1.8830   20.7630  -26.5840 C   0  0  0  0  0  0  0  0  0  0  0  0
   -2.3960   18.9360  -26.8010 Br  0  0  0  0  0  0  0  0  0  0  0  0
   -2.1010   21.6830  -27.6270 C   0  0  0  0  0  0  0  0  0  0  0  0
   -1.7140   23.0330  -27.4910 C   0  0  0  0  0  0  0  0  0  0  0  0
   -1.6730   24.0550  -28.9370 S   0  0  0  0  0  0  0  0  0  0  0  0
   -1.4000   23.2640  -30.1840 O   0  0  0  0  0  0  0  0  0  0  0  0
   -0.5790   25.0760  -28.7990 O   0  0  0  0  0  0  0  0  0  0  0  0
   -3.1870   24.8910  -29.0610 N   0  0  0  0  0  0  0  0  0  0  0  0
   -4.3330   24.2780  -29.6610 C   0  0  0  0  0  0  0  0  0  0  0  0
   -4.5890   22.9100  -29.4900 C   0  0  0  0  0  0  0  0  0  0  0  0
   -5.7100   22.3230  -30.0830 C   0  0  0  0  0  0  0  0  0  0  0  0
   -6.5850   23.0960  -30.8570 C   0  0  0  0  0  0  0  0  0  0  0  0
   -8.0060   22.3500  -31.5960 S   0  0  0  0  0  0  0  0  0  0  0  0
   -8.7000   23.3640  -32.4600 O   0  0  0  0  0  0  0  0  0  0  0  0
   -8.9620   21.9270  -30.5150 O   0  0  0  0  0  0  0  0  0  0  0  0
   -7.5810   20.9630  -32.5710 N   0  0  0  0  0  0  0  0  0  0  0  0
   -6.1270   20.9120  -32.7820 C   0  0  0  0  0  0  0  0  0  0  0  0
   -5.7670   19.7030  -33.6710 C   0  0  0  0  0  0  0  0  0  0  0  0
   -6.8560   18.8130  -33.8480 O   0  0  0  0  0  0  0  0  0  0  0  0
   -7.4150   18.4830  -32.5930 C   0  0  0  0  0  0  0  0  0  0  0  0
   -8.0610   19.7210  -31.9400 C   0  0  0  0  0  0  0  0  0  0  0  0
   -6.3200   24.4580  -31.0450 C   0  0  0  0  0  0  0  0  0  0  0  0
   -5.1950   25.0440  -30.4560 C   0  0  0  0  0  0  0  0  0  0  0  0
   -1.1550   23.4310  -26.2580 C   0  0  0  0  0  0  0  0  0  0  0  0
   -0.8239   27.4920  -24.7032 H   0  0  0  0  0  0  0  0  0  0  0  0
    0.0747   27.3064  -26.2475 H   0  0  0  0  0  0  0  0  0  0  0  0
   -1.5728   28.0221  -26.2475 H   0  0  0  0  0  0  0  0  0  0  0  0
    1.2325   24.6533  -25.0169 H   0  0  0  0  0  0  0  0  0  0  0  0
   -0.0223   25.3068  -23.9465 H   0  0  0  0  0  0  0  0  0  0  0  0
    0.8563   22.5868  -24.0130 H   0  0  0  0  0  0  0  0  0  0  0  0
   -0.6115   23.1132  -23.2207 H   0  0  0  0  0  0  0  0  0  0  0  0
   -1.0169   20.4485  -24.6101 H   0  0  0  0  0  0  0  0  0  0  0  0
   -2.5785   21.3455  -28.5587 H   0  0  0  0  0  0  0  0  0  0  0  0
   -3.3430   25.6710  -28.3850 H   0  0  0  0  0  0  0  0  0  0  0  0
   -3.9043   22.2961  -28.8863 H   0  0  0  0  0  0  0  0  0  0  0  0
   -5.9060   21.2499  -29.9415 H   0  0  0  0  0  0  0  0  0  0  0  0
   -5.7974   21.8383  -33.2752 H   0  0  0  0  0  0  0  0  0  0  0  0
   -5.6235   20.8089  -31.8095 H   0  0  0  0  0  0  0  0  0  0  0  0
   -5.4504   20.0729  -34.6574 H   0  0  0  0  0  0  0  0  0  0  0  0
   -4.9614   19.1479  -33.1681 H   0  0  0  0  0  0  0  0  0  0  0  0
   -8.1821   17.7070  -32.7325 H   0  0  0  0  0  0  0  0  0  0  0  0
   -6.6137   18.1148  -31.9355 H   0  0  0  0  0  0  0  0  0  0  0  0
   -9.1533   19.6588  -32.0539 H   0  0  0  0  0  0  0  0  0  0  0  0
   -7.7844   19.7397  -30.8755 H   0  0  0  0  0  0  0  0  0  0  0  0
   -6.9989   25.0691  -31.6580 H   0  0  0  0  0  0  0  0  0  0  0  0
   -4.9861   26.1118  -30.6179 H   0  0  0  0  0  0  0  0  0  0  0  0
  1  2  1  0
  2  3  2  0
  2  4  1  0
  4  5  1  0
  5  6  1  0
  6  7  1  0
  7  8  2  0
  8  9  1  0
  9 10  1  0
  9 11  2  0
 11 12  1  0
 12 13  1  0
 13 14  2  0
 13 15  2  0
 13 16  1  0
 16 17  1  0
 17 18  2  0
 18 19  1  0
 19 20  2  0
 20 21  1  0
 21 22  2  0
 21 23  2  0
 21 24  1  0
 24 25  1  0
 25 26  1  0
 26 27  1  0
 27 28  1  0
 28 29  1  0
 20 30  1  0
 30 31  2  0
 12 32  2  0
 32  4  1  0
 32  7  1  0
 31 17  1  0
 29 24  1  0
  1 33  1  0
  1 34  1  0
  1 35  1  0
  5 36  1  0
  5 37  1  0
  6 38  1  0
  6 39  1  0
  8 40  1  0
 11 41  1  0
 16 42  1  0
 18 43  1  0
 19 44  1  0
 25 45  1  0
 25 46  1  0
 26 47  1  0
 26 48  1  0
 28 49  1  0
 28 50  1  0
 29 51  1  0
 29 52  1  0
 30 53  1  0
 31 54  1  0
M  END
>  <UniqueID>  (20) 
19

>  <SMILES>  (20) 
CC(=O)N1CCc2cc(Br)cc(S(=O)(=O)Nc3ccc(S(=O)(=O)N4CCOCC4)cc3)c21

>  <Energy>  (20) 
89.87557950250107

>  <Genealogy>  (20) 
CC(=O)N1CCc2cc(Br)cc(S(=O)(=O)Nc3ccc(S(=O)(=O)N4CCOCC4)cc3)c21 (3D coordinates assigned)
CC(=O)N1CCc2cc(Br)cc(S(=O)(=O)Nc3ccc(S(=O)(=O)N4CCOCC4)cc3)c21 (nonaromatic ring conformer: 89.87557950250107 kcal/mol)

>  <smiles>  (20) 
CC(=O)N1CCc2cc(Br)cc(S(=O)(=O)Nc3ccc(S(=O)(=O)N4CCOCC4)cc3)c21

>  <score_type>  (20) 
oracle

>  <origin>  (20) 
adgpu

>  <m_score__min__energy>  (20) 
-10.83

>  <m_primary>  (20) 
energy

$$$$
20:0
     RDKit          3D

 29 29  0  0  0  0  0  0  0  0999 V2000
    0.7410   23.9200  -27.7610 H   0  0  0  0  0  0  0  0  0  0  0  0
    0.1190   24.5720  -28.2900 N   0  0  0  0  0  0  0  0  0  0  0  0
   -1.0670   24.2200  -28.6680 C   0  0  0  0  0  0  0  0  0  0  0  0
   -1.5330   22.9770  -28.3780 N   0  0  0  0  0  0  0  0  0  0  0  0
   -2.7730   22.5800  -28.7610 C   0  0  0  0  0  0  0  0  0  0  0  0
   -3.1650   21.4190  -28.4700 O   0  0  0  0  0  0  0  0  0  0  0  0
   -3.6030   23.4620  -29.4760 C   0  0  0  0  0  0  0  0  0  0  0  0
   -5.0000   23.0540  -29.8960 C   0  0  0  0  0  0  0  0  0  0  0  0
   -5.0962   21.9631  -29.7924 H   0  0  0  0  0  0  0  0  0  0  0  0
   -5.7144   23.5833  -29.2484 H   0  0  0  0  0  0  0  0  0  0  0  0
   -5.3080   23.4420  -31.3530 C   0  0  0  0  0  0  0  0  0  0  0  0
   -6.2256   24.0485  -31.3646 H   0  0  0  0  0  0  0  0  0  0  0  0
   -4.4354   23.9953  -31.7304 H   0  0  0  0  0  0  0  0  0  0  0  0
   -5.5120   22.2340  -32.2830 C   0  0  0  0  0  0  0  0  0  0  0  0
   -5.7249   21.3452  -31.6708 H   0  0  0  0  0  0  0  0  0  0  0  0
   -6.3511   22.4595  -32.9576 H   0  0  0  0  0  0  0  0  0  0  0  0
   -4.3240   21.9720  -33.1040 N   0  0  0  0  0  0  0  0  0  0  0  0
   -4.3430   22.2510  -34.1120 H   0  0  0  0  0  0  0  0  0  0  0  0
   -3.2340   21.4150  -32.6450 C   0  0  0  0  0  0  0  0  0  0  0  0
   -3.1120   21.0190  -31.2700 N   0  0  0  0  0  0  0  0  0  0  0  0
   -3.8620   21.1830  -30.5650 H   0  0  0  0  0  0  0  0  0  0  0  0
   -2.2330   20.5630  -30.9390 H   0  0  0  0  0  0  0  0  0  0  0  0
   -2.1290   21.1910  -33.5260 N   0  0  0  0  0  0  0  0  0  0  0  0
   -2.1790   21.4630  -34.5330 H   0  0  0  0  0  0  0  0  0  0  0  0
   -1.2530   20.7490  -33.1720 H   0  0  0  0  0  0  0  0  0  0  0  0
   -3.1010   24.7460  -29.7600 C   0  0  0  0  0  0  0  0  0  0  0  0
   -3.8760   25.6710  -30.4540 O   0  0  0  0  0  0  0  0  0  0  0  0
   -1.8520   25.0950  -29.3540 N   0  0  0  0  0  0  0  0  0  0  0  0
   -1.4940   26.0530  -29.5740 H   0  0  0  0  0  0  0  0  0  0  0  0
  1  2  1  0
  2  3  2  0
  3  4  1  0
  4  5  1  0
  5  6  2  0
  5  7  1  0
  7  8  1  0
  8  9  1  0
  8 10  1  0
  8 11  1  0
 11 12  1  0
 11 13  1  0
 11 14  1  0
 14 15  1  0
 14 16  1  0
 14 17  1  0
 17 18  1  0
 17 19  2  3
 19 20  1  0
 20 21  1  0
 20 22  1  0
 19 23  1  0
 23 24  1  0
 23 25  1  0
  7 26  2  0
 26 27  1  0
 26 28  1  0
 28 29  1  0
 28  3  1  0
M  CHG  3   4  -1  17   1  27  -1
M  END
>  <UniqueID>  (21) 
20

>  <SMILES>  (21) 
[H]/N=c1\[n-]c(=O)c(CCC[NH+]=C(N)N)c([O-])[nH]1

>  <Energy>  (21) 
23.126674122524253

>  <Genealogy>  (21) 
N=c1[n-]c(=O)c(CCC[NH+]=C(N)N)c([O-])[nH]1 (protonated)
[H]/N=c1\[n-]c(=O)c(CCC[NH+]=C(N)N)c([O-])[nH]1 (cis-trans isomerization)
[H]/N=c1\[n-]c(=O)c(CCC[NH+]=C(N)N)c([O-])[nH]1 (3D coordinates assigned)
[H]/N=c1\[n-]c(=O)c(CCC[NH+]=C(N)N)c([O-])[nH]1 (optimized conformer: 23.126674122524253 kcal/mol)

>  <smiles>  (21) 
N=c1[nH]c(O)c(CCCN=C(N)N)c(=O)[nH]1

>  <score_type>  (21) 
oracle

>  <origin>  (21) 
adgpu

>  <m_score__min__energy>  (21) 
-10.710000000000001

>  <m_primary>  (21) 
energy

$$$$
21:0
     RDKit          3D

 42 44  0  0  0  0  0  0  0  0999 V2000
   -9.0190   19.3860  -32.3210 C   0  0  0  0  0  0  0  0  0  0  0  0
   -7.9240   20.4000  -32.3200 C   0  0  0  0  0  0  0  0  0  0  0  0
   -6.5750   20.1260  -32.4300 C   0  0  0  0  0  0  0  0  0  0  0  0
   -5.9430   21.3520  -32.4060 C   0  0  0  0  0  0  0  0  0  0  0  0
   -6.9500   22.2900  -32.2840 C   0  0  0  0  0  0  0  0  0  0  0  0
   -6.7660   23.7730  -32.2360 C   0  0  0  0  0  0  0  0  0  0  0  0
   -5.4060   24.0980  -31.8240 N   0  0  0  0  0  0  0  0  0  0  0  0
   -5.0900   25.1370  -30.8930 C   0  0  0  0  0  0  0  0  0  0  0  0
   -6.0020   25.8710  -30.4250 O   0  0  0  0  0  0  0  0  0  0  0  0
   -3.7330   25.3000  -30.4650 N   0  0  0  0  0  0  0  0  0  0  0  0
   -3.0810   24.5120  -29.4590 C   0  0  0  0  0  0  0  0  0  0  0  0
   -3.6500   23.2880  -29.1070 C   0  0  0  0  0  0  0  0  0  0  0  0
   -3.0460   22.4780  -28.1490 C   0  0  0  0  0  0  0  0  0  0  0  0
   -1.8480   22.8680  -27.5300 C   0  0  0  0  0  0  0  0  0  0  0  0
   -1.2420   21.9460  -26.5030 C   0  0  0  0  0  0  0  0  0  0  0  0
   -1.2570   24.1110  -27.8750 C   0  0  0  0  0  0  0  0  0  0  0  0
    0.2610   24.6540  -27.1110 S   0  0  0  0  0  0  0  0  0  0  0  0
    1.2900   24.9090  -28.1770 O   0  0  0  0  0  0  0  0  0  0  0  0
    0.8070   23.5790  -26.2130 O   0  0  0  0  0  0  0  0  0  0  0  0
    0.0590   26.1520  -26.1430 C   0  0  0  0  0  0  0  0  0  0  0  0
   -1.3600   26.5440  -25.7580 C   0  0  0  0  0  0  0  0  0  0  0  0
   -0.4430   25.9050  -24.7300 C   0  0  0  0  0  0  0  0  0  0  0  0
   -1.8620   24.9070  -28.8750 C   0  0  0  0  0  0  0  0  0  0  0  0
   -1.2360   26.0660  -29.3210 O   0  0  0  0  0  0  0  0  0  0  0  0
   -8.1200   21.6960  -32.2390 O   0  0  0  0  0  0  0  0  0  0  0  0
   -9.2885   19.1364  -31.2842 H   0  0  0  0  0  0  0  0  0  0  0  0
   -9.8980   19.7961  -32.8398 H   0  0  0  0  0  0  0  0  0  0  0  0
   -8.6775   18.4781  -32.8398 H   0  0  0  0  0  0  0  0  0  0  0  0
   -6.1028   19.1364  -32.5183 H   0  0  0  0  0  0  0  0  0  0  0  0
   -4.8617   21.5431  -32.4706 H   0  0  0  0  0  0  0  0  0  0  0  0
   -6.9540   24.1950  -33.2343 H   0  0  0  0  0  0  0  0  0  0  0  0
   -7.4730   24.1993  -31.5091 H   0  0  0  0  0  0  0  0  0  0  0  0
   -4.5825   22.9604  -29.5897 H   0  0  0  0  0  0  0  0  0  0  0  0
   -3.5132   21.5209  -27.8739 H   0  0  0  0  0  0  0  0  0  0  0  0
   -1.4827   22.3122  -25.4941 H   0  0  0  0  0  0  0  0  0  0  0  0
   -1.6511   20.9332  -26.6327 H   0  0  0  0  0  0  0  0  0  0  0  0
   -0.1500   21.9198  -26.6327 H   0  0  0  0  0  0  0  0  0  0  0  0
    0.8962   26.6902  -26.6114 H   0  0  0  0  0  0  0  0  0  0  0  0
   -1.6320   27.6060  -25.6678 H   0  0  0  0  0  0  0  0  0  0  0  0
   -2.3626   26.3207  -26.1515 H   0  0  0  0  0  0  0  0  0  0  0  0
   -0.0513   26.5043  -23.8949 H   0  0  0  0  0  0  0  0  0  0  0  0
   -0.5072   25.0270  -24.0704 H   0  0  0  0  0  0  0  0  0  0  0  0
  1  2  1  0
  2  3  2  0
  3  4  1  0
  4  5  2  0
  5  6  1  0
  6  7  1  0
  7  8  1  0
  8  9  2  0
  8 10  1  0
 10 11  1  0
 11 12  2  0
 12 13  1  0
 13 14  2  0
 14 15  1  0
 14 16  1  0
 16 17  1  0
 17 18  2  0
 17 19  2  0
 17 20  1  0
 20 21  1  0
 21 22  1  0
 16 23  2  0
 23 24  1  0
  5 25  1  0
 25  2  1  0
 23 11  1  0
 22 20  1  0
  1 26  1  0
  1 27  1  0
  1 28  1  0
  3 29  1  0
  4 30  1  0
  6 31  1  0
  6 32  1  0
 12 33  1  0
 13 34  1  0
 15 35  1  0
 15 36  1  0
 15 37  1  0
 20 38  1  0
 21 39  1  0
 21 40  1  0
 22 41  1  0
 22 42  1  0
M  CHG  3   7  -1  10  -1  24  -1
M  END
>  <UniqueID>  (22) 
21

>  <SMILES>  (22) 
Cc1ccc(C[N-]C(=O)[N-]c2ccc(C)c(S(=O)(=O)C3CC3)c2[O-])o1

>  <Energy>  (22) 
336.41767649993955

>  <Genealogy>  (22) 
Cc1ccc(C[N-]C(=O)[N-]c2ccc(C)c(S(=O)(=O)C3CC3)c2[O-])o1 (protonated)
Cc1ccc(C[N-]C(=O)[N-]c2ccc(C)c(S(=O)(=O)C3CC3)c2[O-])o1 (3D coordinates assigned)
Cc1ccc(C[N-]C(=O)[N-]c2ccc(C)c(S(=O)(=O)C3CC3)c2[O-])o1 (nonaromatic ring conformer: 336.41767649993955 kcal/mol)

>  <smiles>  (22) 
Cc1ccc(CNC(=O)Nc2ccc(C)c(S(=O)(=O)C3CC3)c2O)o1

>  <score_type>  (22) 
oracle

>  <origin>  (22) 
adgpu

>  <m_score__min__energy>  (22) 
-14.25

>  <m_primary>  (22) 
energy

$$$$
22:0
     RDKit          3D

 52 55  0  0  0  0  0  0  0  0999 V2000
   -6.7960   23.3800  -29.7080 C   0  0  0  0  0  0  0  0  0  0  0  0
   -5.4350   23.9800  -29.8800 C   0  0  0  0  0  0  0  0  0  0  0  0
   -5.0920   24.7800  -30.9050 N   0  0  0  0  0  0  0  0  0  0  0  0
   -3.8420   25.1030  -30.7670 O   0  0  0  0  0  0  0  0  0  0  0  0
   -3.3340   24.5540  -29.6880 C   0  0  0  0  0  0  0  0  0  0  0  0
   -2.0890   24.7410  -29.3550 N   0  0  0  0  0  0  0  0  0  0  0  0
   -1.2010   24.1450  -27.9860 S   0  0  0  0  0  0  0  0  0  0  0  0
   -1.8540   24.6900  -26.7490 O   0  0  0  0  0  0  0  0  0  0  0  0
    0.2100   24.6590  -28.0470 O   0  0  0  0  0  0  0  0  0  0  0  0
   -1.2430   22.3720  -27.9010 C   0  0  0  0  0  0  0  0  0  0  0  0
   -1.1650   21.7640  -26.6340 C   0  0  0  0  0  0  0  0  0  0  0  0
   -1.2570   20.3780  -26.4990 C   0  0  0  0  0  0  0  0  0  0  0  0
   -1.4250   19.5770  -27.6240 C   0  0  0  0  0  0  0  0  0  0  0  0
   -1.4820   20.1560  -28.8920 C   0  0  0  0  0  0  0  0  0  0  0  0
   -1.3680   21.5500  -29.0560 C   0  0  0  0  0  0  0  0  0  0  0  0
   -1.3840   22.0970  -30.4700 C   0  0  0  0  0  0  0  0  0  0  0  0
   -2.5660   21.5680  -31.2410 C   0  0  0  0  0  0  0  0  0  0  0  0
   -2.5030   21.4540  -32.6390 C   0  0  0  0  0  0  0  0  0  0  0  0
   -3.5890   20.9450  -33.3570 C   0  0  0  0  0  0  0  0  0  0  0  0
   -4.7600   20.5500  -32.6900 C   0  0  0  0  0  0  0  0  0  0  0  0
   -5.8950   20.0000  -33.4610 C   0  0  0  0  0  0  0  0  0  0  0  0
   -5.6680   19.1470  -34.3600 O   0  0  0  0  0  0  0  0  0  0  0  0
   -7.2470   20.4230  -33.2450 N   0  0  0  0  0  0  0  0  0  0  0  0
   -8.3020   19.5690  -32.7160 C   0  0  0  0  0  0  0  0  0  0  0  0
   -8.6860   19.8800  -31.2810 C   0  0  0  0  0  0  0  0  0  0  0  0
   -7.8110   18.6760  -31.5910 C   0  0  0  0  0  0  0  0  0  0  0  0
   -4.8120   20.6400  -31.2890 C   0  0  0  0  0  0  0  0  0  0  0  0
   -3.7260   21.1480  -30.5710 C   0  0  0  0  0  0  0  0  0  0  0  0
   -4.3370   23.8080  -29.0490 C   0  0  0  0  0  0  0  0  0  0  0  0
   -4.2900   22.9160  -27.8430 C   0  0  0  0  0  0  0  0  0  0  0  0
   -7.0203   23.2811  -28.6357 H   0  0  0  0  0  0  0  0  0  0  0  0
   -7.5461   24.0309  -30.1810 H   0  0  0  0  0  0  0  0  0  0  0  0
   -6.8215   22.3872  -30.1810 H   0  0  0  0  0  0  0  0  0  0  0  0
   -5.7040   25.0920  -31.6910 H   0  0  0  0  0  0  0  0  0  0  0  0
   -1.0298   22.3891  -25.7390 H   0  0  0  0  0  0  0  0  0  0  0  0
   -1.1966   19.9182  -25.5015 H   0  0  0  0  0  0  0  0  0  0  0  0
   -1.5130   18.4861  -27.5136 H   0  0  0  0  0  0  0  0  0  0  0  0
   -1.6178   19.5150  -29.7756 H   0  0  0  0  0  0  0  0  0  0  0  0
   -1.4426   23.1947  -30.4303 H   0  0  0  0  0  0  0  0  0  0  0  0
   -0.4626   21.7782  -30.9793 H   0  0  0  0  0  0  0  0  0  0  0  0
   -1.5935   21.7672  -33.1725 H   0  0  0  0  0  0  0  0  0  0  0  0
   -3.5260   20.8533  -34.4514 H   0  0  0  0  0  0  0  0  0  0  0  0
   -8.8634   19.4257  -33.6510 H   0  0  0  0  0  0  0  0  0  0  0  0
   -8.2562   20.7565  -30.7741 H   0  0  0  0  0  0  0  0  0  0  0  0
   -9.6342   20.0355  -30.7455 H   0  0  0  0  0  0  0  0  0  0  0  0
   -6.7479   18.6812  -31.3085 H   0  0  0  0  0  0  0  0  0  0  0  0
   -7.8635   17.5991  -31.3729 H   0  0  0  0  0  0  0  0  0  0  0  0
   -5.7138   20.3083  -30.7535 H   0  0  0  0  0  0  0  0  0  0  0  0
   -3.7804   21.2192  -29.4747 H   0  0  0  0  0  0  0  0  0  0  0  0
   -4.3224   23.5303  -26.9311 H   0  0  0  0  0  0  0  0  0  0  0  0
   -5.1535   22.2347  -27.8570 H   0  0  0  0  0  0  0  0  0  0  0  0
   -3.3597   22.3292  -27.8570 H   0  0  0  0  0  0  0  0  0  0  0  0
  1  2  1  0
  2  3  1  0
  3  4  1  0
  4  5  1  0
  5  6  2  3
  6  7  1  0
  7  8  2  0
  7  9  2  0
  7 10  1  0
 10 11  2  0
 11 12  1  0
 12 13  2  0
 13 14  1  0
 14 15  2  0
 15 16  1  0
 16 17  1  0
 17 18  2  0
 18 19  1  0
 19 20  2  0
 20 21  1  0
 21 22  2  0
 21 23  1  0
 23 24  1  0
 24 25  1  0
 25 26  1  0
 20 27  1  0
 27 28  2  0
  5 29  1  0
 29 30  1  0
 29  2  2  0
 15 10  1  0
 28 17  1  0
 26 24  1  0
  1 31  1  0
  1 32  1  0
  1 33  1  0
  3 34  1  0
 11 35  1  0
 12 36  1  0
 13 37  1  0
 14 38  1  0
 16 39  1  0
 16 40  1  0
 18 41  1  0
 19 42  1  0
 24 43  1  0
 25 44  1  0
 25 45  1  0
 26 46  1  0
 26 47  1  0
 27 48  1  0
 28 49  1  0
 30 50  1  0
 30 51  1  0
 30 52  1  0
M  CHG  1  23  -1
M  END
>  <UniqueID>  (23) 
22

>  <SMILES>  (23) 
Cc1[nH]oc(=NS(=O)(=O)c2ccccc2Cc2ccc(C(=O)[N-]C3CC3)cc2)c1C

>  <Energy>  (23) 
365.92226481483635

>  <Genealogy>  (23) 
Cc1[nH]oc(=NS(=O)(=O)c2ccccc2Cc2ccc(C(=O)[N-]C3CC3)cc2)c1C (protonated)
Cc1[nH]oc(=NS(=O)(=O)c2ccccc2Cc2ccc(C(=O)[N-]C3CC3)cc2)c1C (3D coordinates assigned)
Cc1[nH]oc(=NS(=O)(=O)c2ccccc2Cc2ccc(C(=O)[N-]C3CC3)cc2)c1C (nonaromatic ring conformer: 365.92226481483635 kcal/mol)

>  <smiles>  (23) 
Cc1[nH]oc(=NS(=O)(=O)c2ccccc2Cc2ccc(C(=O)NC3CC3)cc2)c1C

>  <score_type>  (23) 
oracle

>  <origin>  (23) 
adgpu

>  <m_score__min__energy>  (23) 
-11.09

>  <m_primary>  (23) 
energy

$$$$
23:0
     RDKit          3D

 47 50  0  0  0  0  0  0  0  0999 V2000
   -5.9850   25.9420  -30.2330 O   0  0  0  0  0  0  0  0  0  0  0  0
   -5.1180   25.2600  -30.8370 C   0  0  0  0  0  0  0  0  0  0  0  0
   -5.5080   24.4750  -31.9710 N   0  0  0  0  0  0  0  0  0  0  0  0
   -6.2740   23.2630  -31.8980 C   0  0  0  0  0  0  0  0  0  0  0  0
   -7.6290   23.2910  -31.5440 C   0  0  0  0  0  0  0  0  0  0  0  0
   -8.3610   22.1080  -31.4750 C   0  0  0  0  0  0  0  0  0  0  0  0
   -7.7580   20.8840  -31.7700 C   0  0  0  0  0  0  0  0  0  0  0  0
   -8.7460   19.4320  -31.6390 Cl  0  0  0  0  0  0  0  0  0  0  0  0
   -6.3980   20.8380  -32.1520 C   0  0  0  0  0  0  0  0  0  0  0  0
   -5.6250   19.2750  -32.4940 S   0  0  0  0  0  0  0  0  0  0  0  0
   -5.9630   18.2530  -31.4440 O   0  0  0  0  0  0  0  0  0  0  0  0
   -4.1340   19.4640  -32.4870 O   0  0  0  0  0  0  0  0  0  0  0  0
   -6.1260   18.6760  -34.1110 C   0  0  0  0  0  0  0  0  0  0  0  0
   -6.2200   17.1630  -34.2260 C   0  0  0  0  0  0  0  0  0  0  0  0
   -5.0670   17.9030  -34.8820 C   0  0  0  0  0  0  0  0  0  0  0  0
   -5.6620   22.0420  -32.2130 C   0  0  0  0  0  0  0  0  0  0  0  0
   -4.3160   22.0390  -32.5650 O   0  0  0  0  0  0  0  0  0  0  0  0
   -3.7600   25.2890  -30.3800 N   0  0  0  0  0  0  0  0  0  0  0  0
   -3.2140   24.4230  -29.3740 C   0  0  0  0  0  0  0  0  0  0  0  0
   -4.0100   23.3840  -28.8850 C   0  0  0  0  0  0  0  0  0  0  0  0
   -3.5120   22.5060  -27.9240 C   0  0  0  0  0  0  0  0  0  0  0  0
   -2.2290   22.6880  -27.4070 C   0  0  0  0  0  0  0  0  0  0  0  0
   -1.4290   23.7570  -27.8380 C   0  0  0  0  0  0  0  0  0  0  0  0
    0.1430   24.0300  -27.0660 S   0  0  0  0  0  0  0  0  0  0  0  0
    1.0770   24.6590  -28.0620 O   0  0  0  0  0  0  0  0  0  0  0  0
    0.7080   22.7110  -26.6160 O   0  0  0  0  0  0  0  0  0  0  0  0
    0.0050   25.1730  -25.6880 C   0  0  0  0  0  0  0  0  0  0  0  0
   -0.7970   24.6390  -24.5130 C   0  0  0  0  0  0  0  0  0  0  0  0
   -1.3870   25.7130  -25.4130 C   0  0  0  0  0  0  0  0  0  0  0  0
   -1.9150   24.6200  -28.8530 C   0  0  0  0  0  0  0  0  0  0  0  0
   -1.1470   25.6780  -29.3440 O   0  0  0  0  0  0  0  0  0  0  0  0
   -8.1169   24.2510  -31.3196 H   0  0  0  0  0  0  0  0  0  0  0  0
   -9.4219   22.1384  -31.1860 H   0  0  0  0  0  0  0  0  0  0  0  0
   -6.7879   19.5238  -34.3414 H   0  0  0  0  0  0  0  0  0  0  0  0
   -6.0374   16.5321  -33.3436 H   0  0  0  0  0  0  0  0  0  0  0  0
   -6.9878   16.4559  -34.5730 H   0  0  0  0  0  0  0  0  0  0  0  0
   -4.0497   17.8081  -34.4745 H   0  0  0  0  0  0  0  0  0  0  0  0
   -4.6544   17.9537  -35.9004 H   0  0  0  0  0  0  0  0  0  0  0  0
   -5.0361   23.2582  -29.2608 H   0  0  0  0  0  0  0  0  0  0  0  0
   -4.1317   21.6679  -27.5725 H   0  0  0  0  0  0  0  0  0  0  0  0
   -1.8408   21.9864  -26.6540 H   0  0  0  0  0  0  0  0  0  0  0  0
    0.9959   25.6310  -25.8235 H   0  0  0  0  0  0  0  0  0  0  0  0
   -1.1992   23.6156  -24.5411 H   0  0  0  0  0  0  0  0  0  0  0  0
   -0.6213   24.5399  -23.4316 H   0  0  0  0  0  0  0  0  0  0  0  0
   -2.2165   25.4667  -26.0921 H   0  0  0  0  0  0  0  0  0  0  0  0
   -1.8155   26.7133  -25.2523 H   0  0  0  0  0  0  0  0  0  0  0  0
   -0.1650   25.6010  -29.5680 H   0  0  0  0  0  0  0  0  0  0  0  0
  1  2  2  0
  2  3  1  0
  3  4  1  0
  4  5  2  0
  5  6  1  0
  6  7  2  0
  7  8  1  0
  7  9  1  0
  9 10  1  0
 10 11  2  0
 10 12  2  0
 10 13  1  0
 13 14  1  0
 14 15  1  0
  9 16  2  0
 16 17  1  0
  2 18  1  0
 18 19  1  0
 19 20  2  0
 20 21  1  0
 21 22  2  0
 22 23  1  0
 23 24  1  0
 24 25  2  0
 24 26  2  0
 24 27  1  0
 27 28  1  0
 28 29  1  0
 23 30  2  0
 30 31  1  0
 16  4  1  0
 30 19  1  0
 15 13  1  0
 29 27  1  0
  5 32  1  0
  6 33  1  0
 13 34  1  0
 14 35  1  0
 14 36  1  0
 15 37  1  0
 15 38  1  0
 20 39  1  0
 21 40  1  0
 22 41  1  0
 27 42  1  0
 28 43  1  0
 28 44  1  0
 29 45  1  0
 29 46  1  0
 31 47  1  0
M  CHG  3   3  -1  17  -1  18  -1
M  END
>  <UniqueID>  (24) 
23

>  <SMILES>  (24) 
O=C([N-]c1ccc(Cl)c(S(=O)(=O)C2CC2)c1[O-])[N-]c1cccc(S(=O)(=O)C2CC2)c1O

>  <Energy>  (24) 
586.9562272204574

>  <Genealogy>  (24) 
O=C([N-]c1ccc(Cl)c(S(=O)(=O)C2CC2)c1[O-])[N-]c1cccc(S(=O)(=O)C2CC2)c1O (protonated)
O=C([N-]c1ccc(Cl)c(S(=O)(=O)C2CC2)c1[O-])[N-]c1cccc(S(=O)(=O)C2CC2)c1O (3D coordinates assigned)
O=C([N-]c1ccc(Cl)c(S(=O)(=O)C2CC2)c1[O-])[N-]c1cccc(S(=O)(=O)C2CC2)c1O (nonaromatic ring conformer: 586.9562272204574 kcal/mol)

>  <smiles>  (24) 
O=C(Nc1cccc(S(=O)(=O)C2CC2)c1O)Nc1ccc(Cl)c(S(=O)(=O)C2CC2)c1O

>  <score_type>  (24) 
oracle

>  <origin>  (24) 
adgpu

>  <m_score__min__energy>  (24) 
-16.09

>  <m_primary>  (24) 
energy

$$$$
24:0
     RDKit          3D

 51 54  0  0  0  0  0  0  0  0999 V2000
    0.1330   23.0660  -24.5630 C   0  0  0  0  0  0  0  0  0  0  0  0
   -0.5400   23.6610  -25.7650 C   0  0  0  0  0  0  0  0  0  0  0  0
   -0.2640   24.9840  -26.1460 C   0  0  0  0  0  0  0  0  0  0  0  0
   -0.8710   25.5440  -27.2820 C   0  0  0  0  0  0  0  0  0  0  0  0
   -0.5840   26.9720  -27.6600 C   0  0  0  0  0  0  0  0  0  0  0  0
   -1.7660   24.7670  -28.0430 C   0  0  0  0  0  0  0  0  0  0  0  0
   -2.4000   25.2990  -29.1250 N   0  0  0  0  0  0  0  0  0  0  0  0
   -3.2930   24.5900  -29.8650 C   0  0  0  0  0  0  0  0  0  0  0  0
   -3.8630   25.1450  -30.8410 O   0  0  0  0  0  0  0  0  0  0  0  0
   -3.5860   23.2540  -29.5270 C   0  0  0  0  0  0  0  0  0  0  0  0
   -4.6460   22.4760  -30.2670 C   0  0  0  0  0  0  0  0  0  0  0  0
   -4.0900   21.8460  -31.4810 N   0  0  0  0  0  0  0  0  0  0  0  0
   -4.8930   21.8350  -32.7210 C   0  0  0  0  0  0  0  0  0  0  0  0
   -6.2330   21.1900  -32.5230 C   0  0  0  0  0  0  0  0  0  0  0  0
   -7.3740   21.7870  -32.0010 C   0  0  0  0  0  0  0  0  0  0  0  0
   -8.4750   20.9220  -31.9430 C   0  0  0  0  0  0  0  0  0  0  0  0
   -8.2140   19.6530  -32.4430 C   0  0  0  0  0  0  0  0  0  0  0  0
   -6.6120   19.6080  -32.9540 S   0  0  0  0  0  0  0  0  0  0  0  0
   -2.9400   20.9760  -31.3650 C   0  0  0  0  0  0  0  0  0  0  0  0
   -2.6340   20.4720  -30.2520 O   0  0  0  0  0  0  0  0  0  0  0  0
   -2.1170   20.6320  -32.5360 C   0  0  0  0  0  0  0  0  0  0  0  0
   -2.2910   19.3970  -33.1810 C   0  0  0  0  0  0  0  0  0  0  0  0
   -1.5140   19.0760  -34.2960 C   0  0  0  0  0  0  0  0  0  0  0  0
   -0.5660   19.9880  -34.7790 C   0  0  0  0  0  0  0  0  0  0  0  0
    0.2020   19.6610  -35.8910 O   0  0  0  0  0  0  0  0  0  0  0  0
   -0.3940   21.2230  -34.1440 C   0  0  0  0  0  0  0  0  0  0  0  0
    0.5530   22.1260  -34.6290 O   0  0  0  0  0  0  0  0  0  0  0  0
   -1.1770   21.5450  -33.0260 C   0  0  0  0  0  0  0  0  0  0  0  0
   -2.9220   22.6730  -28.4370 C   0  0  0  0  0  0  0  0  0  0  0  0
   -2.0230   23.4270  -27.6760 C   0  0  0  0  0  0  0  0  0  0  0  0
   -1.4020   22.8800  -26.5460 C   0  0  0  0  0  0  0  0  0  0  0  0
   -0.3249   23.4709  -23.6485 H   0  0  0  0  0  0  0  0  0  0  0  0
    0.0137   21.9726  -24.5797 H   0  0  0  0  0  0  0  0  0  0  0  0
    1.2035   23.3184  -24.5797 H   0  0  0  0  0  0  0  0  0  0  0  0
    0.4348   25.5880  -25.5486 H   0  0  0  0  0  0  0  0  0  0  0  0
   -0.4627   27.5754  -26.7483 H   0  0  0  0  0  0  0  0  0  0  0  0
    0.3408   27.0153  -28.2540 H   0  0  0  0  0  0  0  0  0  0  0  0
   -1.4203   27.3692  -28.2540 H   0  0  0  0  0  0  0  0  0  0  0  0
   -5.0446   21.6926  -29.6056 H   0  0  0  0  0  0  0  0  0  0  0  0
   -5.4446   23.1704  -30.5672 H   0  0  0  0  0  0  0  0  0  0  0  0
   -5.0449   22.8724  -33.0538 H   0  0  0  0  0  0  0  0  0  0  0  0
   -4.3443   21.2494  -33.4733 H   0  0  0  0  0  0  0  0  0  0  0  0
   -7.4095   22.8343  -31.6666 H   0  0  0  0  0  0  0  0  0  0  0  0
   -9.4539   21.2201  -31.5394 H   0  0  0  0  0  0  0  0  0  0  0  0
   -8.9313   18.8207  -32.4958 H   0  0  0  0  0  0  0  0  0  0  0  0
   -3.0394   18.6823  -32.8080 H   0  0  0  0  0  0  0  0  0  0  0  0
   -1.6464   18.1053  -34.7962 H   0  0  0  0  0  0  0  0  0  0  0  0
    1.1400   21.9040  -35.4270 H   0  0  0  0  0  0  0  0  0  0  0  0
   -1.0515   22.5198  -32.5321 H   0  0  0  0  0  0  0  0  0  0  0  0
   -3.1090   21.6200  -28.1795 H   0  0  0  0  0  0  0  0  0  0  0  0
   -1.5920   21.8322  -26.2704 H   0  0  0  0  0  0  0  0  0  0  0  0
  1  2  1  0
  2  3  2  0
  3  4  1  0
  4  5  1  0
  4  6  2  0
  6  7  1  0
  7  8  1  0
  8  9  2  0
  8 10  1  0
 10 11  1  0
 11 12  1  0
 12 13  1  0
 13 14  1  0
 14 15  2  0
 15 16  1  0
 16 17  2  0
 17 18  1  0
 12 19  1  0
 19 20  2  0
 19 21  1  0
 21 22  2  0
 22 23  1  0
 23 24  2  0
 24 25  1  0
 24 26  1  0
 26 27  1  0
 26 28  2  0
 10 29  2  0
 29 30  1  0
 30 31  2  0
 31  2  1  0
 30  6  1  0
 18 14  1  0
 28 21  1  0
  1 32  1  0
  1 33  1  0
  1 34  1  0
  3 35  1  0
  5 36  1  0
  5 37  1  0
  5 38  1  0
 11 39  1  0
 11 40  1  0
 13 41  1  0
 13 42  1  0
 15 43  1  0
 16 44  1  0
 17 45  1  0
 22 46  1  0
 23 47  1  0
 27 48  1  0
 28 49  1  0
 29 50  1  0
 31 51  1  0
M  CHG  2   7  -1  25  -1
M  END
>  <UniqueID>  (25) 
24

>  <SMILES>  (25) 
Cc1cc(C)c2[n-]c(=O)c(CN(Cc3cccs3)C(=O)c3ccc([O-])c(O)c3)cc2c1

>  <Energy>  (25) 
88.51494009586396

>  <Genealogy>  (25) 
Cc1cc(C)c2[n-]c(=O)c(CN(Cc3cccs3)C(=O)c3ccc([O-])c(O)c3)cc2c1 (protonated)
Cc1cc(C)c2[n-]c(=O)c(CN(Cc3cccs3)C(=O)c3ccc([O-])c(O)c3)cc2c1 (3D coordinates assigned)
Cc1cc(C)c2[n-]c(=O)c(CN(Cc3cccs3)C(=O)c3ccc([O-])c(O)c3)cc2c1 (optimized conformer: 88.51494009586396 kcal/mol)

>  <smiles>  (25) 
Cc1cc(C)c2[nH]c(=O)c(CN(Cc3cccs3)C(=O)c3ccc(O)c(O)c3)cc2c1

>  <score_type>  (25) 
oracle

>  <origin>  (25) 
adgpu

>  <m_score__min__energy>  (25) 
-11.57

>  <m_primary>  (25) 
energy

$$$$
25:0
     RDKit          3D

 51 54  0  0  0  0  0  0  0  0999 V2000
   -0.7756   28.9376  -24.3415 H   0  0  0  0  0  0  0  0  0  0  0  0
   -0.8160   27.9850  -24.8900 C   0  0  0  0  0  0  0  0  0  0  0  0
   -0.4500   27.8160  -26.1400 O   0  0  0  0  0  0  0  0  0  0  0  0
   -0.6300   26.5560  -26.4610 C   0  0  0  0  0  0  0  0  0  0  0  0
   -0.3500   25.9870  -27.8160 C   0  0  0  0  0  0  0  0  0  0  0  0
    0.0626   24.9734  -27.7043 H   0  0  0  0  0  0  0  0  0  0  0  0
    0.3723   26.6371  -28.3314 H   0  0  0  0  0  0  0  0  0  0  0  0
   -1.5760   25.9220  -28.6100 N   0  0  0  0  0  0  0  0  0  0  0  0
   -2.0270   24.8510  -29.1910 C   0  0  0  0  0  0  0  0  0  0  0  0
   -1.3640   23.6660  -29.0880 N   0  0  0  0  0  0  0  0  0  0  0  0
   -1.8180   22.5450  -29.7040 C   0  0  0  0  0  0  0  0  0  0  0  0
   -1.1100   21.3090  -29.5230 N   0  0  0  0  0  0  0  0  0  0  0  0
   -1.3150   20.4050  -28.6050 C   0  0  0  0  0  0  0  0  0  0  0  0
   -0.4610   19.3460  -28.5380 N   0  0  0  0  0  0  0  0  0  0  0  0
   -0.5960   18.3550  -27.6170 C   0  0  0  0  0  0  0  0  0  0  0  0
    0.3720   17.2140  -27.6020 C   0  0  0  0  0  0  0  0  0  0  0  0
    0.6025   16.9423  -26.5613 H   0  0  0  0  0  0  0  0  0  0  0  0
   -0.0723   16.3494  -28.1168 H   0  0  0  0  0  0  0  0  0  0  0  0
    1.2974   17.5115  -28.1168 H   0  0  0  0  0  0  0  0  0  0  0  0
   -1.6560   18.3950  -26.7030 C   0  0  0  0  0  0  0  0  0  0  0  0
   -1.7741   17.5993  -25.9527 H   0  0  0  0  0  0  0  0  0  0  0  0
   -2.5600   19.4550  -26.7550 C   0  0  0  0  0  0  0  0  0  0  0  0
   -3.3984   19.4972  -26.0441 H   0  0  0  0  0  0  0  0  0  0  0  0
   -2.4030   20.4620  -27.7070 C   0  0  0  0  0  0  0  0  0  0  0  0
   -3.1209   21.2938  -27.7578 H   0  0  0  0  0  0  0  0  0  0  0  0
   -3.0230   22.5950  -30.4140 C   0  0  0  0  0  0  0  0  0  0  0  0
   -3.4442   21.6847  -30.8656 H   0  0  0  0  0  0  0  0  0  0  0  0
   -3.6840   23.8240  -30.5400 C   0  0  0  0  0  0  0  0  0  0  0  0
   -4.8800   23.9500  -31.2620 O   0  0  0  0  0  0  0  0  0  0  0  0
   -5.7100   22.8830  -31.6360 C   0  0  0  0  0  0  0  0  0  0  0  0
   -7.0590   22.9180  -31.2680 C   0  0  0  0  0  0  0  0  0  0  0  0
   -7.4472   23.7757  -30.6990 H   0  0  0  0  0  0  0  0  0  0  0  0
   -7.9220   21.8670  -31.6190 C   0  0  0  0  0  0  0  0  0  0  0  0
   -9.3510   21.8800  -31.1660 C   0  0  0  0  0  0  0  0  0  0  0  0
   -9.3871   21.8803  -30.0666 H   0  0  0  0  0  0  0  0  0  0  0  0
   -9.8490   22.7827  -31.5495 H   0  0  0  0  0  0  0  0  0  0  0  0
   -9.8654   20.9865  -31.5495 H   0  0  0  0  0  0  0  0  0  0  0  0
   -7.4190   20.7690  -32.3310 C   0  0  0  0  0  0  0  0  0  0  0  0
   -8.0803   19.9227  -32.5683 H   0  0  0  0  0  0  0  0  0  0  0  0
   -6.0780   20.7420  -32.7430 C   0  0  0  0  0  0  0  0  0  0  0  0
   -5.5380   19.5550  -33.4830 C   0  0  0  0  0  0  0  0  0  0  0  0
   -5.1940   18.7988  -32.7620 H   0  0  0  0  0  0  0  0  0  0  0  0
   -6.3294   19.1258  -34.1150 H   0  0  0  0  0  0  0  0  0  0  0  0
   -4.6944   19.8696  -34.1150 H   0  0  0  0  0  0  0  0  0  0  0  0
   -5.2290   21.8020  -32.3960 C   0  0  0  0  0  0  0  0  0  0  0  0
   -4.1781   21.7881  -32.7208 H   0  0  0  0  0  0  0  0  0  0  0  0
   -3.1760   24.9190  -29.9140 N   0  0  0  0  0  0  0  0  0  0  0  0
   -1.1420   25.8600  -25.3840 C   0  0  0  0  0  0  0  0  0  0  0  0
   -1.4018   24.7919  -25.3441 H   0  0  0  0  0  0  0  0  0  0  0  0
   -1.2590   26.7860  -24.3690 C   0  0  0  0  0  0  0  0  0  0  0  0
   -1.6305   26.6055  -23.3495 H   0  0  0  0  0  0  0  0  0  0  0  0
  1  2  1  0
  2  3  1  0
  3  4  1  0
  4  5  1  0
  5  6  1  0
  5  7  1  0
  5  8  1  0
  8  9  2  0
  9 10  1  0
 10 11  2  0
 11 12  1  0
 12 13  2  0
 13 14  1  0
 14 15  1  0
 15 16  1  0
 16 17  1  0
 16 18  1  0
 16 19  1  0
 15 20  2  0
 20 21  1  0
 20 22  1  0
 22 23  1  0
 22 24  2  0
 24 25  1  0
 11 26  1  0
 26 27  1  0
 26 28  2  0
 28 29  1  0
 29 30  1  0
 30 31  2  0
 31 32  1  0
 31 33  1  0
 33 34  1  0
 34 35  1  0
 34 36  1  0
 34 37  1  0
 33 38  2  0
 38 39  1  0
 38 40  1  0
 40 41  1  0
 41 42  1  0
 41 43  1  0
 41 44  1  0
 40 45  2  0
 45 46  1  0
 28 47  1  0
  4 48  2  0
 48 49  1  0
 48 50  1  0
 50 51  1  0
 50  2  2  0
 47  9  1  0
 24 13  1  0
 45 30  1  0
M  CHG  2  14  -1  47  -1
M  END
>  <UniqueID>  (26) 
25

>  <SMILES>  (26) 
Cc1cc(C)cc(Oc2cc(/N=c3\cccc(C)[n-]3)n/c(=N\Cc3ccco3)[n-]2)c1

>  <Energy>  (26) 
92.5200846551273

>  <Genealogy>  (26) 
Cc1cc(C)cc(Oc2cc(N=c3cccc(C)[n-]3)nc(=NCc3ccco3)[n-]2)c1 (protonated)
Cc1cc(C)cc(Oc2cc(/N=c3\cccc(C)[n-]3)n/c(=N\Cc3ccco3)[n-]2)c1 (cis-trans isomerization)
Cc1cc(C)cc(Oc2cc(/N=c3\cccc(C)[n-]3)n/c(=N\Cc3ccco3)[n-]2)c1 (3D coordinates assigned)
Cc1cc(C)cc(Oc2cc(/N=c3\cccc(C)[n-]3)n/c(=N\Cc3ccco3)[n-]2)c1 (optimized conformer: 92.5200846551273 kcal/mol)

>  <smiles>  (26) 
Cc1cc(C)cc(Oc2cc(N=c3cccc(C)[nH]3)nc(=NCc3ccco3)[nH]2)c1

>  <score_type>  (26) 
oracle

>  <origin>  (26) 
adgpu

>  <m_score__min__energy>  (26) 
-11.119999999999999

>  <m_primary>  (26) 
energy

$$$$
26:0
     RDKit          3D

 39 42  0  0  0  0  0  0  0  0999 V2000
   -2.6785   13.5406  -32.0825 H   0  0  0  0  0  0  0  0  0  0  0  0
   -3.3600   14.3530  -32.3750 C   0  0  0  0  0  0  0  0  0  0  0  0
   -4.6250   14.4550  -32.0250 O   0  0  0  0  0  0  0  0  0  0  0  0
   -5.1580   15.5270  -32.5310 N   0  0  0  0  0  0  0  0  0  0  0  0
   -6.1500   15.8180  -32.3880 H   0  0  0  0  0  0  0  0  0  0  0  0
   -4.1990   16.1510  -33.2420 C   0  0  0  0  0  0  0  0  0  0  0  0
   -4.3500   17.2590  -33.9020 N   0  0  0  0  0  0  0  0  0  0  0  0
   -5.8390   18.1450  -33.9910 S   0  0  0  0  0  0  0  0  0  0  0  0
   -6.1010   18.5200  -35.4230 O   0  0  0  0  0  0  0  0  0  0  0  0
   -6.9590   17.2740  -33.5000 O   0  0  0  0  0  0  0  0  0  0  0  0
   -5.7490   19.5840  -32.9800 C   0  0  0  0  0  0  0  0  0  0  0  0
   -4.6600   19.7650  -32.1210 C   0  0  0  0  0  0  0  0  0  0  0  0
   -3.8676   19.0034  -32.0754 H   0  0  0  0  0  0  0  0  0  0  0  0
   -4.5720   20.9060  -31.3210 C   0  0  0  0  0  0  0  0  0  0  0  0
   -3.7097   21.0344  -30.6502 H   0  0  0  0  0  0  0  0  0  0  0  0
   -5.5780   21.8980  -31.3630 C   0  0  0  0  0  0  0  0  0  0  0  0
   -6.6850   21.6970  -32.2260 C   0  0  0  0  0  0  0  0  0  0  0  0
   -6.7620   20.5470  -33.0260 C   0  0  0  0  0  0  0  0  0  0  0  0
   -7.6243   20.4020  -33.6934 H   0  0  0  0  0  0  0  0  0  0  0  0
   -7.7020   22.6540  -32.2700 C   0  0  0  0  0  0  0  0  0  0  0  0
   -8.5662   22.5093  -32.9350 H   0  0  0  0  0  0  0  0  0  0  0  0
   -7.6200   23.7880  -31.4730 C   0  0  0  0  0  0  0  0  0  0  0  0
   -8.4211   24.5412  -31.5029 H   0  0  0  0  0  0  0  0  0  0  0  0
   -6.5200   23.9710  -30.6340 C   0  0  0  0  0  0  0  0  0  0  0  0
   -6.4640   25.0130  -29.9240 O   0  0  0  0  0  0  0  0  0  0  0  0
   -5.5150   23.0370  -30.5860 N   0  0  0  0  0  0  0  0  0  0  0  0
   -4.3920   23.2810  -29.7150 C   0  0  0  0  0  0  0  0  0  0  0  0
   -4.1470   22.4320  -28.6260 C   0  0  0  0  0  0  0  0  0  0  0  0
   -4.8127   21.5774  -28.4347 H   0  0  0  0  0  0  0  0  0  0  0  0
   -3.0570   22.6710  -27.7830 C   0  0  0  0  0  0  0  0  0  0  0  0
   -2.8658   22.0031  -26.9302 H   0  0  0  0  0  0  0  0  0  0  0  0
   -2.2100   23.7570  -28.0220 C   0  0  0  0  0  0  0  0  0  0  0  0
   -1.3529   23.9422  -27.3579 H   0  0  0  0  0  0  0  0  0  0  0  0
   -2.4520   24.6090  -29.1060 C   0  0  0  0  0  0  0  0  0  0  0  0
   -1.6110   25.6890  -29.3420 O   0  0  0  0  0  0  0  0  0  0  0  0
   -3.5420   24.3730  -29.9510 C   0  0  0  0  0  0  0  0  0  0  0  0
   -3.7331   25.0441  -30.8014 H   0  0  0  0  0  0  0  0  0  0  0  0
   -3.0280   15.4350  -33.1710 C   0  0  0  0  0  0  0  0  0  0  0  0
   -2.0584   15.6668  -33.6359 H   0  0  0  0  0  0  0  0  0  0  0  0
  1  2  1  0
  2  3  1  0
  3  4  1  0
  4  5  1  0
  4  6  1  0
  6  7  2  0
  7  8  1  0
  8  9  2  0
  8 10  2  0
  8 11  1  0
 11 12  2  0
 12 13  1  0
 12 14  1  0
 14 15  1  0
 14 16  2  0
 16 17  1  0
 17 18  2  0
 18 19  1  0
 17 20  1  0
 20 21  1  0
 20 22  2  0
 22 23  1  0
 22 24  1  0
 24 25  2  0
 24 26  1  0
 26 27  1  0
 27 28  2  0
 28 29  1  0
 28 30  1  0
 30 31  1  0
 30 32  2  0
 32 33  1  0
 32 34  1  0
 34 35  1  0
 34 36  2  0
 36 37  1  0
  6 38  1  0
 38 39  1  0
 38  2  2  0
 18 11  1  0
 36 27  1  0
 26 16  1  0
M  CHG  1  35  -1
M  END
>  <UniqueID>  (27) 
26

>  <SMILES>  (27) 
O=c1ccc2cc(S(=O)(=O)/N=c3/cco[nH]3)ccc2n1-c1cccc([O-])c1

>  <Energy>  (27) 
94.1834255665041

>  <Genealogy>  (27) 
O=c1ccc2cc(S(=O)(=O)N=c3cco[nH]3)ccc2n1-c1cccc([O-])c1 (protonated)
O=c1ccc2cc(S(=O)(=O)/N=c3/cco[nH]3)ccc2n1-c1cccc([O-])c1 (cis-trans isomerization)
O=c1ccc2cc(S(=O)(=O)/N=c3/cco[nH]3)ccc2n1-c1cccc([O-])c1 (3D coordinates assigned)
O=c1ccc2cc(S(=O)(=O)/N=c3/cco[nH]3)ccc2n1-c1cccc([O-])c1 (optimized conformer: 94.1834255665041 kcal/mol)

>  <smiles>  (27) 
O=c1ccc2cc(S(=O)(=O)N=c3cco[nH]3)ccc2n1-c1cccc(O)c1

>  <score_type>  (27) 
oracle

>  <origin>  (27) 
adgpu

>  <m_score__min__energy>  (27) 
-11.65

>  <m_primary>  (27) 
energy

$$$$
27:0
     RDKit          3D

 43 46  0  0  0  0  0  0  0  0999 V2000
    1.4020   21.8480  -36.2360 O   0  0  0  0  0  0  0  0  0  0  0  0
    0.5310   21.4500  -35.4170 C   0  0  0  0  0  0  0  0  0  0  0  0
   -0.2930   20.4020  -35.6720 N   0  0  0  0  0  0  0  0  0  0  0  0
   -1.0230   20.3590  -34.5440 C   0  0  0  0  0  0  0  0  0  0  0  0
   -2.0350   19.4620  -34.2160 C   0  0  0  0  0  0  0  0  0  0  0  0
   -2.6530   19.6010  -32.9590 C   0  0  0  0  0  0  0  0  0  0  0  0
   -2.2460   20.6270  -32.0610 C   0  0  0  0  0  0  0  0  0  0  0  0
   -2.8500   20.7890  -30.7700 N   0  0  0  0  0  0  0  0  0  0  0  0
   -3.0270   22.3030  -29.9420 S   0  0  0  0  0  0  0  0  0  0  0  0
   -3.1080   22.0510  -28.4630 O   0  0  0  0  0  0  0  0  0  0  0  0
   -1.8220   23.1540  -30.2320 O   0  0  0  0  0  0  0  0  0  0  0  0
   -4.5150   23.0920  -30.4730 C   0  0  0  0  0  0  0  0  0  0  0  0
   -5.6510   22.3060  -30.7080 C   0  0  0  0  0  0  0  0  0  0  0  0
   -6.8290   22.8840  -31.1980 C   0  0  0  0  0  0  0  0  0  0  0  0
   -8.2480   21.8790  -31.5130 S   0  0  0  0  0  0  0  0  0  0  0  0
   -9.2750   22.6970  -32.2440 O   0  0  0  0  0  0  0  0  0  0  0  0
   -8.8430   21.4490  -30.2010 O   0  0  0  0  0  0  0  0  0  0  0  0
   -7.8770   20.4580  -32.4610 N   0  0  0  0  0  0  0  0  0  0  0  0
   -7.8440   19.2440  -31.6460 C   0  0  0  0  0  0  0  0  0  0  0  0
   -6.9510   18.2590  -32.3850 C   0  0  0  0  0  0  0  0  0  0  0  0
   -6.1180   19.1070  -33.3370 C   0  0  0  0  0  0  0  0  0  0  0  0
   -6.5610   20.5400  -33.0900 C   0  0  0  0  0  0  0  0  0  0  0  0
   -6.8760   24.2650  -31.4290 C   0  0  0  0  0  0  0  0  0  0  0  0
   -5.7540   25.0590  -31.1750 C   0  0  0  0  0  0  0  0  0  0  0  0
   -4.5750   24.4810  -30.6960 C   0  0  0  0  0  0  0  0  0  0  0  0
   -3.4760   25.2930  -30.4430 O   0  0  0  0  0  0  0  0  0  0  0  0
   -1.2150   21.5130  -32.4360 C   0  0  0  0  0  0  0  0  0  0  0  0
   -0.6270   21.3380  -33.6850 C   0  0  0  0  0  0  0  0  0  0  0  0
    0.3430   22.0150  -34.2380 O   0  0  0  0  0  0  0  0  0  0  0  0
   -2.3418   18.6706  -34.9157 H   0  0  0  0  0  0  0  0  0  0  0  0
   -3.4580   18.9101  -32.6682 H   0  0  0  0  0  0  0  0  0  0  0  0
   -5.6173   21.2253  -30.5058 H   0  0  0  0  0  0  0  0  0  0  0  0
   -7.4279   19.4637  -30.6517 H   0  0  0  0  0  0  0  0  0  0  0  0
   -8.8540   18.8345  -31.4969 H   0  0  0  0  0  0  0  0  0  0  0  0
   -6.3011   17.7228  -31.6778 H   0  0  0  0  0  0  0  0  0  0  0  0
   -7.5364   17.4970  -32.9203 H   0  0  0  0  0  0  0  0  0  0  0  0
   -5.0462   18.9919  -33.1180 H   0  0  0  0  0  0  0  0  0  0  0  0
   -6.2625   18.8081  -34.3857 H   0  0  0  0  0  0  0  0  0  0  0  0
   -5.8504   21.0489  -32.4222 H   0  0  0  0  0  0  0  0  0  0  0  0
   -6.6002   21.1143  -34.0274 H   0  0  0  0  0  0  0  0  0  0  0  0
   -7.7987   24.7259  -31.8114 H   0  0  0  0  0  0  0  0  0  0  0  0
   -5.7991   26.1436  -31.3529 H   0  0  0  0  0  0  0  0  0  0  0  0
   -0.8858   22.3176  -31.7620 H   0  0  0  0  0  0  0  0  0  0  0  0
  1  2  2  0
  2  3  1  0
  3  4  1  0
  4  5  2  0
  5  6  1  0
  6  7  2  0
  7  8  1  0
  8  9  1  0
  9 10  2  0
  9 11  2  0
  9 12  1  0
 12 13  2  0
 13 14  1  0
 14 15  1  0
 15 16  2  0
 15 17  2  0
 15 18  1  0
 18 19  1  0
 19 20  1  0
 20 21  1  0
 21 22  1  0
 14 23  2  0
 23 24  1  0
 24 25  2  0
 25 26  1  0
  7 27  1  0
 27 28  2  0
 28 29  1  0
 29  2  1  0
 28  4  1  0
 25 12  1  0
 22 18  1  0
  5 30  1  0
  6 31  1  0
 13 32  1  0
 19 33  1  0
 19 34  1  0
 20 35  1  0
 20 36  1  0
 21 37  1  0
 21 38  1  0
 22 39  1  0
 22 40  1  0
 23 41  1  0
 24 42  1  0
 27 43  1  0
M  CHG  3   3  -1   8  -1  26  -1
M  END
>  <UniqueID>  (28) 
27

>  <SMILES>  (28) 
O=c1[n-]c2ccc([N-]S(=O)(=O)c3cc(S(=O)(=O)N4CCCC4)ccc3[O-])cc2o1

>  <Energy>  (28) 
86.5792685902952

>  <Genealogy>  (28) 
O=c1[n-]c2ccc([N-]S(=O)(=O)c3cc(S(=O)(=O)N4CCCC4)ccc3[O-])cc2o1 (protonated)
O=c1[n-]c2ccc([N-]S(=O)(=O)c3cc(S(=O)(=O)N4CCCC4)ccc3[O-])cc2o1 (3D coordinates assigned)
O=c1[n-]c2ccc([N-]S(=O)(=O)c3cc(S(=O)(=O)N4CCCC4)ccc3[O-])cc2o1 (nonaromatic ring conformer: 86.5792685902952 kcal/mol)

>  <smiles>  (28) 
O=c1[nH]c2ccc(NS(=O)(=O)c3cc(S(=O)(=O)N4CCCC4)ccc3O)cc2o1

>  <score_type>  (28) 
oracle

>  <origin>  (28) 
adgpu

>  <m_score__min__energy>  (28) 
-13.1

>  <m_primary>  (28) 
energy

$$$$
28:0
     RDKit          3D

 50 52  0  0  0  0  0  0  0  0999 V2000
   -0.1270   20.4290  -30.1430 C   0  0  0  0  0  0  0  0  0  0  0  0
   -1.0940   20.5620  -31.2920 C   0  0  0  0  0  0  0  0  0  0  0  0
   -0.9680   19.6900  -32.3870 C   0  0  0  0  0  0  0  0  0  0  0  0
   -1.8240   19.7960  -33.4850 C   0  0  0  0  0  0  0  0  0  0  0  0
   -2.8100   20.7780  -33.5090 C   0  0  0  0  0  0  0  0  0  0  0  0
   -2.9520   21.6540  -32.4320 C   0  0  0  0  0  0  0  0  0  0  0  0
   -2.1120   21.5540  -31.3080 C   0  0  0  0  0  0  0  0  0  0  0  0
   -2.3220   22.5300  -30.1690 C   0  0  0  0  0  0  0  0  0  0  0  0
   -3.6800   21.9910  -29.0630 S   0  0  0  0  0  0  0  0  0  0  0  0
   -4.6630   23.5340  -29.1280 C   0  0  0  0  0  0  0  0  0  0  0  0
   -4.5050   24.2320  -30.4520 C   0  0  0  0  0  0  0  0  0  0  0  0
   -3.8500   25.3050  -30.5190 O   0  0  0  0  0  0  0  0  0  0  0  0
   -5.0670   23.6930  -31.6560 N   0  0  0  0  0  0  0  0  0  0  0  0
   -6.2390   22.8730  -31.7470 C   0  0  0  0  0  0  0  0  0  0  0  0
   -7.5240   23.4350  -31.8300 C   0  0  0  0  0  0  0  0  0  0  0  0
   -8.6460   22.6100  -31.9350 C   0  0  0  0  0  0  0  0  0  0  0  0
   -8.4940   21.2210  -31.9690 C   0  0  0  0  0  0  0  0  0  0  0  0
   -7.2160   20.6510  -31.9060 C   0  0  0  0  0  0  0  0  0  0  0  0
   -7.0240   18.8960  -31.9230 S   0  0  0  0  0  0  0  0  0  0  0  0
   -8.1880   18.2660  -31.2100 O   0  0  0  0  0  0  0  0  0  0  0  0
   -5.7710   18.5290  -31.1750 O   0  0  0  0  0  0  0  0  0  0  0  0
   -6.9290   18.2630  -33.5530 N   0  0  0  0  0  0  0  0  0  0  0  0
   -6.5580   16.8430  -33.5480 C   0  0  0  0  0  0  0  0  0  0  0  0
   -5.0630   16.7380  -33.8080 C   0  0  0  0  0  0  0  0  0  0  0  0
   -4.6370   18.0950  -34.3320 C   0  0  0  0  0  0  0  0  0  0  0  0
   -5.8950   18.9530  -34.3320 C   0  0  0  0  0  0  0  0  0  0  0  0
   -6.0900   21.4830  -31.8150 C   0  0  0  0  0  0  0  0  0  0  0  0
   -0.6748   20.5043  -29.1921 H   0  0  0  0  0  0  0  0  0  0  0  0
    0.3773   19.4530  -30.1993 H   0  0  0  0  0  0  0  0  0  0  0  0
    0.6221   21.2326  -30.1993 H   0  0  0  0  0  0  0  0  0  0  0  0
   -0.1867   18.9157  -32.3789 H   0  0  0  0  0  0  0  0  0  0  0  0
   -1.7189   19.1024  -34.3323 H   0  0  0  0  0  0  0  0  0  0  0  0
   -3.4785   20.8638  -34.3784 H   0  0  0  0  0  0  0  0  0  0  0  0
   -3.7296   22.4315  -32.4623 H   0  0  0  0  0  0  0  0  0  0  0  0
   -1.3928   22.6025  -29.5847 H   0  0  0  0  0  0  0  0  0  0  0  0
   -2.5931   23.5063  -30.5972 H   0  0  0  0  0  0  0  0  0  0  0  0
   -5.7246   23.2883  -28.9777 H   0  0  0  0  0  0  0  0  0  0  0  0
   -4.3017   24.2075  -28.3369 H   0  0  0  0  0  0  0  0  0  0  0  0
   -7.6467   24.5280  -31.8122 H   0  0  0  0  0  0  0  0  0  0  0  0
   -9.6508   23.0540  -31.9910 H   0  0  0  0  0  0  0  0  0  0  0  0
   -9.3802   20.5738  -32.0454 H   0  0  0  0  0  0  0  0  0  0  0  0
   -6.7973   16.3997  -32.5702 H   0  0  0  0  0  0  0  0  0  0  0  0
   -7.1165   16.3031  -34.3268 H   0  0  0  0  0  0  0  0  0  0  0  0
   -4.5281   16.5024  -32.8762 H   0  0  0  0  0  0  0  0  0  0  0  0
   -4.8329   15.9370  -34.5260 H   0  0  0  0  0  0  0  0  0  0  0  0
   -3.8723   18.5362  -33.6758 H   0  0  0  0  0  0  0  0  0  0  0  0
   -4.1973   18.0210  -35.3376 H   0  0  0  0  0  0  0  0  0  0  0  0
   -5.6776   19.9303  -33.8765 H   0  0  0  0  0  0  0  0  0  0  0  0
   -6.2431   19.1116  -35.3634 H   0  0  0  0  0  0  0  0  0  0  0  0
   -5.0833   21.0399  -31.7970 H   0  0  0  0  0  0  0  0  0  0  0  0
  1  2  1  0
  2  3  2  0
  3  4  1  0
  4  5  2  0
  5  6  1  0
  6  7  2  0
  7  8  1  0
  8  9  1  0
  9 10  1  0
 10 11  1  0
 11 12  2  0
 11 13  1  0
 13 14  1  0
 14 15  2  0
 15 16  1  0
 16 17  2  0
 17 18  1  0
 18 19  1  0
 19 20  2  0
 19 21  2  0
 19 22  1  0
 22 23  1  0
 23 24  1  0
 24 25  1  0
 25 26  1  0
 18 27  2  0
  7  2  1  0
 27 14  1  0
 26 22  1  0
  1 28  1  0
  1 29  1  0
  1 30  1  0
  3 31  1  0
  4 32  1  0
  5 33  1  0
  6 34  1  0
  8 35  1  0
  8 36  1  0
 10 37  1  0
 10 38  1  0
 15 39  1  0
 16 40  1  0
 17 41  1  0
 23 42  1  0
 23 43  1  0
 24 44  1  0
 24 45  1  0
 25 46  1  0
 25 47  1  0
 26 48  1  0
 26 49  1  0
 27 50  1  0
M  CHG  1  13  -1
M  END
>  <UniqueID>  (29) 
28

>  <SMILES>  (29) 
Cc1ccccc1CSCC(=O)[N-]c1cccc(S(=O)(=O)N2CCCC2)c1

>  <Energy>  (29) 
54.034123480389795

>  <Genealogy>  (29) 
Cc1ccccc1CSCC(=O)[N-]c1cccc(S(=O)(=O)N2CCCC2)c1 (protonated)
Cc1ccccc1CSCC(=O)[N-]c1cccc(S(=O)(=O)N2CCCC2)c1 (3D coordinates assigned)
Cc1ccccc1CSCC(=O)[N-]c1cccc(S(=O)(=O)N2CCCC2)c1 (nonaromatic ring conformer: 54.034123480389795 kcal/mol)

>  <smiles>  (29) 
Cc1ccccc1CSCC(=O)Nc1cccc(S(=O)(=O)N2CCCC2)c1

>  <score_type>  (29) 
oracle

>  <origin>  (29) 
adgpu

>  <m_score__min__energy>  (29) 
-11.460000000000001

>  <m_primary>  (29) 
energy

$$$$
29:0
     RDKit          3D

 60 63  0  0  0  0  0  0  0  0999 V2000
    0.3820   23.8080  -25.6560 C   0  0  0  0  0  0  0  0  0  0  0  0
    0.5040   24.5100  -27.0020 C   0  0  0  0  0  0  0  0  0  0  0  0
   -0.8190   24.5520  -27.7010 C   0  0  0  0  0  0  0  0  0  0  0  0
   -1.0150   25.1470  -28.8990 N   0  0  0  0  0  0  0  0  0  0  0  0
   -2.2740   25.0670  -29.3280 N   0  0  0  0  0  0  0  0  0  0  0  0
   -3.0790   24.4050  -28.4680 C   0  0  0  0  0  0  0  0  0  0  0  0
   -4.3420   24.1930  -28.6710 N   0  0  0  0  0  0  0  0  0  0  0  0
   -5.1930   24.7420  -30.0790 S   0  0  0  0  0  0  0  0  0  0  0  0
   -4.3070   25.6740  -30.8540 O   0  0  0  0  0  0  0  0  0  0  0  0
   -6.4280   25.4980  -29.6750 O   0  0  0  0  0  0  0  0  0  0  0  0
   -5.6280   23.3640  -31.0860 C   0  0  0  0  0  0  0  0  0  0  0  0
   -4.6620   22.7400  -31.8850 C   0  0  0  0  0  0  0  0  0  0  0  0
   -5.0060   21.6420  -32.6800 C   0  0  0  0  0  0  0  0  0  0  0  0
   -6.3280   21.1590  -32.6870 C   0  0  0  0  0  0  0  0  0  0  0  0
   -6.7200   20.0240  -33.4730 N   0  0  0  0  0  0  0  0  0  0  0  0
   -5.8450   19.1150  -34.1520 C   0  0  0  0  0  0  0  0  0  0  0  0
   -6.1040   18.7350  -35.3240 O   0  0  0  0  0  0  0  0  0  0  0  0
   -4.7180   18.5770  -33.4460 N   0  0  0  0  0  0  0  0  0  0  0  0
   -3.7110   17.7460  -34.0490 C   0  0  0  0  0  0  0  0  0  0  0  0
   -4.1020   16.6500  -34.8310 C   0  0  0  0  0  0  0  0  0  0  0  0
   -3.1420   15.8200  -35.4150 C   0  0  0  0  0  0  0  0  0  0  0  0
   -1.7830   16.0710  -35.2130 C   0  0  0  0  0  0  0  0  0  0  0  0
   -1.3740   17.1560  -34.4260 C   0  0  0  0  0  0  0  0  0  0  0  0
    0.3440   17.4610  -34.1520 S   0  0  0  0  0  0  0  0  0  0  0  0
    1.1360   16.7520  -35.2170 O   0  0  0  0  0  0  0  0  0  0  0  0
    0.7460   16.8840  -32.8220 O   0  0  0  0  0  0  0  0  0  0  0  0
    0.7410   19.1670  -34.1870 N   0  0  0  0  0  0  0  0  0  0  0  0
   -0.2190   19.9690  -34.9850 C   0  0  0  0  0  0  0  0  0  0  0  0
   -0.8140   21.1610  -34.2240 C   0  0  0  0  0  0  0  0  0  0  0  0
   -1.2790   20.7160  -32.8440 C   0  0  0  0  0  0  0  0  0  0  0  0
   -0.1190   20.1470  -32.0130 C   0  0  0  0  0  0  0  0  0  0  0  0
    1.0960   19.7090  -32.8590 C   0  0  0  0  0  0  0  0  0  0  0  0
   -2.3410   17.9760  -33.8250 C   0  0  0  0  0  0  0  0  0  0  0  0
   -7.2780   21.7600  -31.8530 C   0  0  0  0  0  0  0  0  0  0  0  0
   -6.9350   22.8610  -31.0630 C   0  0  0  0  0  0  0  0  0  0  0  0
   -2.2480   23.8800  -27.1050 S   0  0  0  0  0  0  0  0  0  0  0  0
    0.5096   24.5420  -24.8467 H   0  0  0  0  0  0  0  0  0  0  0  0
   -0.6107   23.3412  -25.5745 H   0  0  0  0  0  0  0  0  0  0  0  0
    1.1590   23.0337  -25.5745 H   0  0  0  0  0  0  0  0  0  0  0  0
    0.8600   25.5384  -26.8415 H   0  0  0  0  0  0  0  0  0  0  0  0
    1.2160   23.9518  -27.6277 H   0  0  0  0  0  0  0  0  0  0  0  0
   -3.6279   23.1151  -31.8874 H   0  0  0  0  0  0  0  0  0  0  0  0
   -4.2409   21.1543  -33.3019 H   0  0  0  0  0  0  0  0  0  0  0  0
   -4.6640   18.7490  -32.4160 H   0  0  0  0  0  0  0  0  0  0  0  0
   -5.1711   16.4424  -34.9856 H   0  0  0  0  0  0  0  0  0  0  0  0
   -3.4569   14.9675  -36.0348 H   0  0  0  0  0  0  0  0  0  0  0  0
   -1.0304   15.4142  -35.6737 H   0  0  0  0  0  0  0  0  0  0  0  0
    0.3037   20.3514  -35.8741 H   0  0  0  0  0  0  0  0  0  0  0  0
   -1.0561   19.3033  -35.2421 H   0  0  0  0  0  0  0  0  0  0  0  0
   -0.0484   21.9435  -34.1160 H   0  0  0  0  0  0  0  0  0  0  0  0
   -1.6735   21.5561  -34.7854 H   0  0  0  0  0  0  0  0  0  0  0  0
   -1.7065   21.5807  -32.3152 H   0  0  0  0  0  0  0  0  0  0  0  0
   -2.0310   19.9236  -32.9731 H   0  0  0  0  0  0  0  0  0  0  0  0
    0.2123   20.9204  -31.3044 H   0  0  0  0  0  0  0  0  0  0  0  0
   -0.4983   19.2473  -31.5064 H   0  0  0  0  0  0  0  0  0  0  0  0
    1.7483   20.5825  -33.0053 H   0  0  0  0  0  0  0  0  0  0  0  0
    1.5917   18.8971  -32.3066 H   0  0  0  0  0  0  0  0  0  0  0  0
   -2.0258   18.8047  -33.1740 H   0  0  0  0  0  0  0  0  0  0  0  0
   -8.3031   21.3625  -31.8190 H   0  0  0  0  0  0  0  0  0  0  0  0
   -7.6935   23.3336  -30.4216 H   0  0  0  0  0  0  0  0  0  0  0  0
  1  2  1  0
  2  3  1  0
  3  4  2  0
  4  5  1  0
  5  6  1  0
  6  7  2  3
  7  8  1  0
  8  9  2  0
  8 10  2  0
  8 11  1  0
 11 12  2  0
 12 13  1  0
 13 14  2  0
 14 15  1  0
 15 16  1  0
 16 17  2  0
 16 18  1  0
 18 19  1  0
 19 20  2  0
 20 21  1  0
 21 22  2  0
 22 23  1  0
 23 24  1  0
 24 25  2  0
 24 26  2  0
 24 27  1  0
 27 28  1  0
 28 29  1  0
 29 30  1  0
 30 31  1  0
 31 32  1  0
 23 33  2  0
 14 34  1  0
 34 35  2  0
  6 36  1  0
 36  3  1  0
 35 11  1  0
 33 19  1  0
 32 27  1  0
  1 37  1  0
  1 38  1  0
  1 39  1  0
  2 40  1  0
  2 41  1  0
 12 42  1  0
 13 43  1  0
 18 44  1  0
 20 45  1  0
 21 46  1  0
 22 47  1  0
 28 48  1  0
 28 49  1  0
 29 50  1  0
 29 51  1  0
 30 52  1  0
 30 53  1  0
 31 54  1  0
 31 55  1  0
 32 56  1  0
 32 57  1  0
 33 58  1  0
 34 59  1  0
 35 60  1  0
M  CHG  2   5  -1  15  -1
M  END
>  <UniqueID>  (30) 
29

>  <SMILES>  (30) 
CCc1n[n-]c(=NS(=O)(=O)c2ccc([N-]C(=O)Nc3cccc(S(=O)(=O)N4CCCCC4)c3)cc2)s1

>  <Energy>  (30) 
110.03975033342938

>  <Genealogy>  (30) 
CCc1n[n-]c(=NS(=O)(=O)c2ccc([N-]C(=O)Nc3cccc(S(=O)(=O)N4CCCCC4)c3)cc2)s1 (protonated)
CCc1n[n-]c(=NS(=O)(=O)c2ccc([N-]C(=O)Nc3cccc(S(=O)(=O)N4CCCCC4)c3)cc2)s1 (3D coordinates assigned)
CCc1n[n-]c(=NS(=O)(=O)c2ccc([N-]C(=O)Nc3cccc(S(=O)(=O)N4CCCCC4)c3)cc2)s1 (nonaromatic ring conformer: 110.03975033342938 kcal/mol)

>  <smiles>  (30) 
CCc1n[nH]c(=NS(=O)(=O)c2ccc(NC(=O)Nc3cccc(S(=O)(=O)N4CCCCC4)c3)cc2)s1

>  <score_type>  (30) 
oracle

>  <origin>  (30) 
adgpu

>  <m_score__min__energy>  (30) 
-12.210000000000001

>  <m_primary>  (30) 
energy

$$$$
30:0
     RDKit          3D

 43 45  0  0  0  0  0  0  0  0999 V2000
   -4.0550   20.2210  -33.1150 C   0  0  0  0  0  0  0  0  0  0  0  0
   -5.4940   20.5030  -33.0370 N   0  0  0  0  0  0  0  0  0  0  0  0
   -6.4290   19.6080  -33.7290 C   0  0  0  0  0  0  0  0  0  0  0  0
   -5.9830   21.6450  -32.2870 C   0  0  0  0  0  0  0  0  0  0  0  0
   -7.3430   22.0120  -32.3380 C   0  0  0  0  0  0  0  0  0  0  0  0
   -7.8130   23.1070  -31.6130 C   0  0  0  0  0  0  0  0  0  0  0  0
   -6.9390   23.8600  -30.8290 C   0  0  0  0  0  0  0  0  0  0  0  0
   -5.5770   23.5280  -30.7650 C   0  0  0  0  0  0  0  0  0  0  0  0
   -4.6410   24.3220  -29.9300 C   0  0  0  0  0  0  0  0  0  0  0  0
   -3.9060   25.1910  -30.4760 O   0  0  0  0  0  0  0  0  0  0  0  0
   -4.5980   24.1480  -28.5030 N   0  0  0  0  0  0  0  0  0  0  0  0
   -3.4860   24.5470  -27.6830 C   0  0  0  0  0  0  0  0  0  0  0  0
   -3.6730   25.0140  -26.3700 C   0  0  0  0  0  0  0  0  0  0  0  0
   -2.5780   25.4180  -25.6010 C   0  0  0  0  0  0  0  0  0  0  0  0
   -1.2830   25.3960  -26.1420 C   0  0  0  0  0  0  0  0  0  0  0  0
   -0.0900   25.7780  -25.3030 C   0  0  2  0  0  0  0  0  0  0  0  0
   -0.3810   26.0350  -23.8250 C   0  0  0  0  0  0  0  0  0  0  0  0
   -0.0540   27.2010  -24.7420 C   0  0  2  0  0  0  0  0  0  0  0  0
   -1.2220   28.0260  -25.0310 N   0  0  0  0  0  0  0  0  0  0  0  0
   -1.0950   24.9170  -27.4470 C   0  0  0  0  0  0  0  0  0  0  0  0
   -2.1890   24.5140  -28.2180 C   0  0  0  0  0  0  0  0  0  0  0  0
   -5.1100   22.4160  -31.4900 C   0  0  0  0  0  0  0  0  0  0  0  0
   -3.6416   20.1400  -32.0989 H   0  0  0  0  0  0  0  0  0  0  0  0
   -3.8954   19.2745  -33.6523 H   0  0  0  0  0  0  0  0  0  0  0  0
   -3.5500   21.0373  -33.6523 H   0  0  0  0  0  0  0  0  0  0  0  0
   -7.0158   19.0463  -32.9873 H   0  0  0  0  0  0  0  0  0  0  0  0
   -7.1070   20.2023  -34.3592 H   0  0  0  0  0  0  0  0  0  0  0  0
   -5.8649   18.9047  -34.3592 H   0  0  0  0  0  0  0  0  0  0  0  0
   -8.0412   21.4286  -32.9562 H   0  0  0  0  0  0  0  0  0  0  0  0
   -8.8781   23.3780  -31.6598 H   0  0  0  0  0  0  0  0  0  0  0  0
   -7.3196   24.7193  -30.2574 H   0  0  0  0  0  0  0  0  0  0  0  0
   -5.4660   23.8180  -28.0230 H   0  0  0  0  0  0  0  0  0  0  0  0
   -4.6867   25.0617  -25.9456 H   0  0  0  0  0  0  0  0  0  0  0  0
   -2.7321   25.7553  -24.5654 H   0  0  0  0  0  0  0  0  0  0  0  0
    0.6148   25.1565  -25.8748 H   0  0  0  0  0  0  0  0  0  0  0  0
   -1.4028   25.9113  -23.4368 H   0  0  0  0  0  0  0  0  0  0  0  0
    0.0265   25.6557  -22.8763 H   0  0  0  0  0  0  0  0  0  0  0  0
    0.6897   28.0110  -24.7699 H   0  0  0  0  0  0  0  0  0  0  0  0
   -1.5250   27.8030  -26.0060 H   0  0  0  0  0  0  0  0  0  0  0  0
   -1.9900   27.7000  -24.4010 H   0  0  0  0  0  0  0  0  0  0  0  0
   -0.0798   24.8581  -27.8664 H   0  0  0  0  0  0  0  0  0  0  0  0
   -2.0324   24.1688  -29.2506 H   0  0  0  0  0  0  0  0  0  0  0  0
   -4.0459   22.1429  -31.4346 H   0  0  0  0  0  0  0  0  0  0  0  0
  1  2  1  0
  2  3  1  0
  2  4  1  0
  4  5  2  0
  5  6  1  0
  6  7  2  0
  7  8  1  0
  8  9  1  0
  9 10  2  0
  9 11  1  0
 11 12  1  0
 12 13  2  0
 13 14  1  0
 14 15  2  0
 15 16  1  0
 16 17  1  0
 17 18  1  0
 18 19  1  0
 15 20  1  0
 20 21  2  0
  8 22  2  0
 22  4  1  0
 21 12  1  0
 18 16  1  0
  1 23  1  0
  1 24  1  0
  1 25  1  0
  3 26  1  0
  3 27  1  0
  3 28  1  0
  5 29  1  0
  6 30  1  0
  7 31  1  0
 11 32  1  0
 13 33  1  0
 14 34  1  0
 16 35  1  1
 17 36  1  0
 17 37  1  0
 18 38  1  1
 19 39  1  0
 19 40  1  0
 20 41  1  0
 21 42  1  0
 22 43  1  0
M  END
>  <UniqueID>  (31) 
30

>  <SMILES>  (31) 
CN(C)c1cccc(C(=O)Nc2ccc([C@@H]3C[C@@H]3N)cc2)c1

>  <Energy>  (31) 
317.82765364692983

>  <Genealogy>  (31) 
CN(C)c1cccc(C(=O)Nc2ccc([C@@H]3C[C@@H]3N)cc2)c1 (chirality)
CN(C)c1cccc(C(=O)Nc2ccc([C@@H]3C[C@@H]3N)cc2)c1 (3D coordinates assigned)
CN(C)c1cccc(C(=O)Nc2ccc([C@@H]3C[C@@H]3N)cc2)c1 (nonaromatic ring conformer: 317.82765364692983 kcal/mol)

>  <smiles>  (31) 
CN(C)c1cccc(C(=O)Nc2ccc(C3CC3N)cc2)c1

>  <score_type>  (31) 
oracle

>  <origin>  (31) 
adgpu

>  <m_score__min__energy>  (31) 
-8.6099999999999994

>  <m_primary>  (31) 
energy

$$$$
31:0
     RDKit          3D

 55 58  0  0  0  0  0  0  0  0999 V2000
   -2.4590   20.2960  -31.8550 C   0  0  0  0  0  0  0  0  0  0  0  0
   -3.1220   21.5190  -32.4140 C   0  0  0  0  0  0  0  0  0  0  0  0
   -3.4990   21.5130  -33.6150 O   0  0  0  0  0  0  0  0  0  0  0  0
   -3.3030   22.7090  -31.6360 N   0  0  0  0  0  0  0  0  0  0  0  0
   -4.5600   23.3050  -31.2950 C   0  0  0  0  0  0  0  0  0  0  0  0
   -5.7330   22.5640  -31.4900 C   0  0  0  0  0  0  0  0  0  0  0  0
   -6.9820   23.1120  -31.1650 C   0  0  0  0  0  0  0  0  0  0  0  0
   -8.4590   22.1760  -31.3890 S   0  0  0  0  0  0  0  0  0  0  0  0
   -8.7270   21.3420  -30.1680 O   0  0  0  0  0  0  0  0  0  0  0  0
   -9.6230   23.1030  -31.6040 O   0  0  0  0  0  0  0  0  0  0  0  0
   -8.2880   21.1570  -32.7750 N   0  0  0  0  0  0  0  0  0  0  0  0
   -7.5230   19.9540  -32.6950 C   0  0  0  0  0  0  0  0  0  0  0  0
   -6.3640   19.8220  -33.4660 C   0  0  0  0  0  0  0  0  0  0  0  0
   -5.5610   18.6770  -33.3520 C   0  0  0  0  0  0  0  0  0  0  0  0
   -5.9560   17.6330  -32.4920 C   0  0  0  0  0  0  0  0  0  0  0  0
   -7.1200   17.7730  -31.7200 C   0  0  0  0  0  0  0  0  0  0  0  0
   -7.9050   18.9290  -31.8200 C   0  0  0  0  0  0  0  0  0  0  0  0
   -9.0610   19.0640  -31.0530 O   0  0  0  0  0  0  0  0  0  0  0  0
   -5.0820   16.4170  -32.3050 C   0  0  0  0  0  0  0  0  0  0  0  0
   -4.1730   16.2120  -33.4560 N   0  0  0  0  0  0  0  0  0  0  0  0
   -3.2570   15.0800  -33.2020 C   0  0  0  0  0  0  0  0  0  0  0  0
   -2.4290   14.7800  -34.4250 C   0  0  0  0  0  0  0  0  0  0  0  0
   -1.0290   14.7470  -34.3340 C   0  0  0  0  0  0  0  0  0  0  0  0
   -0.2560   14.4790  -35.4680 C   0  0  0  0  0  0  0  0  0  0  0  0
   -0.8750   14.2500  -36.7000 C   0  0  0  0  0  0  0  0  0  0  0  0
    0.0960   13.9120  -38.1210 Cl  0  0  0  0  0  0  0  0  0  0  0  0
   -2.2690   14.2920  -36.8000 C   0  0  0  0  0  0  0  0  0  0  0  0
   -3.0440   14.5570  -35.6680 C   0  0  0  0  0  0  0  0  0  0  0  0
   -3.4000   17.4430  -33.7070 C   0  0  0  0  0  0  0  0  0  0  0  0
   -4.3310   18.5470  -34.2100 C   0  0  0  0  0  0  0  0  0  0  0  0
   -7.0530   24.4000  -30.6210 C   0  0  0  0  0  0  0  0  0  0  0  0
   -5.8840   25.1280  -30.3850 C   0  0  0  0  0  0  0  0  0  0  0  0
   -4.6380   24.5820  -30.7040 C   0  0  0  0  0  0  0  0  0  0  0  0
   -3.4860   25.2980  -30.4030 O   0  0  0  0  0  0  0  0  0  0  0  0
   -2.4811   20.3368  -30.7560 H   0  0  0  0  0  0  0  0  0  0  0  0
   -2.9943   19.3989  -32.1994 H   0  0  0  0  0  0  0  0  0  0  0  0
   -1.4151   20.2550  -32.1994 H   0  0  0  0  0  0  0  0  0  0  0  0
   -5.6736   21.5453  -31.9009 H   0  0  0  0  0  0  0  0  0  0  0  0
   -6.0799   20.6211  -34.1665 H   0  0  0  0  0  0  0  0  0  0  0  0
   -7.4181   16.9688  -31.0312 H   0  0  0  0  0  0  0  0  0  0  0  0
   -9.5210   19.9590  -30.9410 H   0  0  0  0  0  0  0  0  0  0  0  0
   -4.4794   16.5481  -31.3941 H   0  0  0  0  0  0  0  0  0  0  0  0
   -5.7349   15.5355  -32.2231 H   0  0  0  0  0  0  0  0  0  0  0  0
   -2.5882   15.3369  -32.3673 H   0  0  0  0  0  0  0  0  0  0  0  0
   -3.8545   14.1907  -32.9525 H   0  0  0  0  0  0  0  0  0  0  0  0
   -0.5380   14.9326  -33.3673 H   0  0  0  0  0  0  0  0  0  0  0  0
    0.8408   14.4484  -35.3903 H   0  0  0  0  0  0  0  0  0  0  0  0
   -2.7559   14.1163  -37.7706 H   0  0  0  0  0  0  0  0  0  0  0  0
   -4.1404   14.5911  -35.7506 H   0  0  0  0  0  0  0  0  0  0  0  0
   -2.9189   17.7687  -32.7730 H   0  0  0  0  0  0  0  0  0  0  0  0
   -2.6327   17.2405  -34.4687 H   0  0  0  0  0  0  0  0  0  0  0  0
   -3.7872   19.5031  -34.1995 H   0  0  0  0  0  0  0  0  0  0  0  0
   -4.6518   18.2849  -35.2290 H   0  0  0  0  0  0  0  0  0  0  0  0
   -8.0316   24.8400  -30.3787 H   0  0  0  0  0  0  0  0  0  0  0  0
   -5.9448   26.1349  -29.9464 H   0  0  0  0  0  0  0  0  0  0  0  0
  1  2  1  0
  2  3  2  0
  2  4  1  0
  4  5  1  0
  5  6  2  0
  6  7  1  0
  7  8  1  0
  8  9  2  0
  8 10  2  0
  8 11  1  0
 11 12  1  0
 12 13  2  0
 13 14  1  0
 14 15  2  0
 15 16  1  0
 16 17  2  0
 17 18  1  0
 15 19  1  0
 19 20  1  0
 20 21  1  0
 21 22  1  0
 22 23  2  0
 23 24  1  0
 24 25  2  0
 25 26  1  0
 25 27  1  0
 27 28  2  0
 20 29  1  0
 29 30  1  0
  7 31  2  0
 31 32  1  0
 32 33  2  0
 33 34  1  0
 33  5  1  0
 17 12  1  0
 28 22  1  0
 30 14  1  0
  1 35  1  0
  1 36  1  0
  1 37  1  0
  6 38  1  0
 13 39  1  0
 16 40  1  0
 18 41  1  0
 19 42  1  0
 19 43  1  0
 21 44  1  0
 21 45  1  0
 23 46  1  0
 24 47  1  0
 27 48  1  0
 28 49  1  0
 29 50  1  0
 29 51  1  0
 30 52  1  0
 30 53  1  0
 31 54  1  0
 32 55  1  0
M  CHG  3   4  -1  11  -1  34  -1
M  END
>  <UniqueID>  (32) 
31

>  <SMILES>  (32) 
CC(=O)[N-]c1cc(S(=O)(=O)[N-]c2cc3c(cc2O)CN(Cc2ccc(Cl)cc2)CC3)ccc1[O-]

>  <Energy>  (32) 
75.46814474584386

>  <Genealogy>  (32) 
CC(=O)[N-]c1cc(S(=O)(=O)[N-]c2cc3c(cc2O)CN(Cc2ccc(Cl)cc2)CC3)ccc1[O-] (protonated)
CC(=O)[N-]c1cc(S(=O)(=O)[N-]c2cc3c(cc2O)CN(Cc2ccc(Cl)cc2)CC3)ccc1[O-] (3D coordinates assigned)
CC(=O)[N-]c1cc(S(=O)(=O)[N-]c2cc3c(cc2O)CN(Cc2ccc(Cl)cc2)CC3)ccc1[O-] (nonaromatic ring conformer: 75.46814474584386 kcal/mol)

>  <smiles>  (32) 
CC(=O)Nc1cc(S(=O)(=O)Nc2cc3c(cc2O)CN(Cc2ccc(Cl)cc2)CC3)ccc1O

>  <score_type>  (32) 
oracle

>  <origin>  (32) 
adgpu

>  <m_score__min__energy>  (32) 
-13.27

>  <m_primary>  (32) 
energy

$$$$
32:0
     RDKit          3D

 41 43  0  0  0  0  0  0  0  0999 V2000
   -2.3720   22.5060  -30.5930 O   0  0  0  0  0  0  0  0  0  0  0  0
   -3.2880   22.5680  -31.4580 C   0  0  0  0  0  0  0  0  0  0  0  0
   -3.0970   21.9550  -32.7410 N   0  0  0  0  0  0  0  0  0  0  0  0
   -3.0360   20.5480  -33.0190 C   0  0  0  0  0  0  0  0  0  0  0  0
   -1.8590   19.8010  -32.8280 C   0  0  0  0  0  0  0  0  0  0  0  0
   -1.8340   18.4330  -33.1350 C   0  0  0  0  0  0  0  0  0  0  0  0
   -0.6710   17.6880  -32.9400 O   0  0  0  0  0  0  0  0  0  0  0  0
   -2.9790   17.8090  -33.6440 C   0  0  0  0  0  0  0  0  0  0  0  0
   -2.9530   16.4510  -33.9440 O   0  0  0  0  0  0  0  0  0  0  0  0
   -4.1460   18.5560  -33.8580 C   0  0  0  0  0  0  0  0  0  0  0  0
   -5.7180   17.7270  -34.5680 Br  0  0  0  0  0  0  0  0  0  0  0  0
   -4.1670   19.9210  -33.5540 C   0  0  0  0  0  0  0  0  0  0  0  0
   -4.5820   23.2260  -31.1350 C   0  0  0  0  0  0  0  0  0  0  0  0
   -5.7890   22.5250  -31.3350 C   0  0  0  0  0  0  0  0  0  0  0  0
   -7.0230   23.1200  -31.0360 C   0  0  0  0  0  0  0  0  0  0  0  0
   -8.5290   22.2390  -31.2830 S   0  0  0  0  0  0  0  0  0  0  0  0
   -9.1330   21.9240  -29.9450 O   0  0  0  0  0  0  0  0  0  0  0  0
   -9.4950   23.0790  -32.0730 O   0  0  0  0  0  0  0  0  0  0  0  0
   -8.1950   20.7530  -32.1380 N   0  0  0  0  0  0  0  0  0  0  0  0
   -9.4010   19.9380  -32.2800 C   0  0  0  0  0  0  0  0  0  0  0  0
   -8.9400   18.4910  -32.3690 C   0  0  0  0  0  0  0  0  0  0  0  0
   -7.5260   18.4820  -31.8110 C   0  0  0  0  0  0  0  0  0  0  0  0
   -7.2430   19.9200  -31.4050 C   0  0  0  0  0  0  0  0  0  0  0  0
   -7.0610   24.4260  -30.5410 C   0  0  0  0  0  0  0  0  0  0  0  0
   -5.8770   25.1340  -30.3400 C   0  0  0  0  0  0  0  0  0  0  0  0
   -4.6420   24.5470  -30.6310 C   0  0  0  0  0  0  0  0  0  0  0  0
   -3.4860   25.2900  -30.4160 O   0  0  0  0  0  0  0  0  0  0  0  0
   -0.9556   20.2917  -32.4366 H   0  0  0  0  0  0  0  0  0  0  0  0
   -0.6380   16.6950  -33.1410 H   0  0  0  0  0  0  0  0  0  0  0  0
   -5.0800   20.5066  -33.7369 H   0  0  0  0  0  0  0  0  0  0  0  0
   -5.7622   21.4989  -31.7304 H   0  0  0  0  0  0  0  0  0  0  0  0
  -10.0563   20.0745  -31.4071 H   0  0  0  0  0  0  0  0  0  0  0  0
   -9.9725   20.2279  -33.1740 H   0  0  0  0  0  0  0  0  0  0  0  0
   -9.5944   17.8412  -31.7694 H   0  0  0  0  0  0  0  0  0  0  0  0
   -8.9743   18.1138  -33.4017 H   0  0  0  0  0  0  0  0  0  0  0  0
   -7.4609   17.8157  -30.9382 H   0  0  0  0  0  0  0  0  0  0  0  0
   -6.7975   18.1142  -32.5485 H   0  0  0  0  0  0  0  0  0  0  0  0
   -7.3852   20.0440  -30.3213 H   0  0  0  0  0  0  0  0  0  0  0  0
   -6.2056   20.2024  -31.6377 H   0  0  0  0  0  0  0  0  0  0  0  0
   -8.0277   24.8968  -30.3093 H   0  0  0  0  0  0  0  0  0  0  0  0
   -5.9148   26.1617  -29.9497 H   0  0  0  0  0  0  0  0  0  0  0  0
  1  2  2  0
  2  3  1  0
  3  4  1  0
  4  5  2  0
  5  6  1  0
  6  7  1  0
  6  8  2  0
  8  9  1  0
  8 10  1  0
 10 11  1  0
 10 12  2  0
  2 13  1  0
 13 14  2  0
 14 15  1  0
 15 16  1  0
 16 17  2  0
 16 18  2  0
 16 19  1  0
 19 20  1  0
 20 21  1  0
 21 22  1  0
 22 23  1  0
 15 24  2  0
 24 25  1  0
 25 26  2  0
 26 27  1  0
 12  4  1  0
 26 13  1  0
 23 19  1  0
  5 28  1  0
  7 29  1  0
 12 30  1  0
 14 31  1  0
 20 32  1  0
 20 33  1  0
 21 34  1  0
 21 35  1  0
 22 36  1  0
 22 37  1  0
 23 38  1  0
 23 39  1  0
 24 40  1  0
 25 41  1  0
M  CHG  3   3  -1   9  -1  27  -1
M  END
>  <UniqueID>  (33) 
32

>  <SMILES>  (33) 
O=C([N-]c1cc(O)c([O-])c(Br)c1)c1cc(S(=O)(=O)N2CCCC2)ccc1[O-]

>  <Energy>  (33) 
49.48220424144058

>  <Genealogy>  (33) 
O=C([N-]c1cc(O)c([O-])c(Br)c1)c1cc(S(=O)(=O)N2CCCC2)ccc1[O-] (protonated)
O=C([N-]c1cc(O)c([O-])c(Br)c1)c1cc(S(=O)(=O)N2CCCC2)ccc1[O-] (3D coordinates assigned)
O=C([N-]c1cc(O)c([O-])c(Br)c1)c1cc(S(=O)(=O)N2CCCC2)ccc1[O-] (nonaromatic ring conformer: 49.48220424144058 kcal/mol)

>  <smiles>  (33) 
O=C(Nc1cc(O)c(O)c(Br)c1)c1cc(S(=O)(=O)N2CCCC2)ccc1O

>  <score_type>  (33) 
oracle

>  <origin>  (33) 
adgpu

>  <m_score__min__energy>  (33) 
-12.6

>  <m_primary>  (33) 
energy

$$$$
33:0
     RDKit          3D

 54 57  0  0  0  0  0  0  0  0999 V2000
    1.2190   19.3830  -30.8430 C   0  0  0  0  0  0  0  0  0  0  0  0
    0.4150   19.9700  -31.9700 C   0  0  0  0  0  0  0  0  0  0  0  0
    0.9350   19.9800  -33.2710 C   0  0  0  0  0  0  0  0  0  0  0  0
    0.2000   20.5300  -34.3320 C   0  0  0  0  0  0  0  0  0  0  0  0
    0.7440   20.5290  -35.7140 C   0  0  0  0  0  0  0  0  0  0  0  0
    0.3230   19.6740  -36.5410 O   0  0  0  0  0  0  0  0  0  0  0  0
    1.7760   21.4990  -36.1570 C   0  0  0  0  0  0  0  0  0  0  0  0
    2.9450   21.0570  -36.8010 C   0  0  0  0  0  0  0  0  0  0  0  0
    3.1650   19.6980  -37.0130 O   0  0  0  0  0  0  0  0  0  0  0  0
    3.8770   21.9580  -37.2080 N   0  0  0  0  0  0  0  0  0  0  0  0
    3.7010   23.2890  -37.0120 C   0  0  0  0  0  0  0  0  0  0  0  0
    4.5800   24.1030  -37.3970 O   0  0  0  0  0  0  0  0  0  0  0  0
    2.5750   23.7430  -36.4060 N   0  0  0  0  0  0  0  0  0  0  0  0
    1.6110   22.8860  -35.9800 C   0  0  0  0  0  0  0  0  0  0  0  0
    0.5680   23.3510  -35.4460 O   0  0  0  0  0  0  0  0  0  0  0  0
   -1.0770   21.0540  -34.0790 C   0  0  0  0  0  0  0  0  0  0  0  0
   -1.6210   21.0580  -32.7800 C   0  0  0  0  0  0  0  0  0  0  0  0
   -2.9780   21.6360  -32.5640 C   0  0  0  0  0  0  0  0  0  0  0  0
   -3.9390   21.2680  -33.2940 O   0  0  0  0  0  0  0  0  0  0  0  0
   -3.1970   22.6460  -31.5710 N   0  0  0  0  0  0  0  0  0  0  0  0
   -4.4700   23.2110  -31.2220 C   0  0  0  0  0  0  0  0  0  0  0  0
   -5.6270   22.4770  -31.5050 C   0  0  0  0  0  0  0  0  0  0  0  0
   -6.8920   22.9870  -31.1860 C   0  0  0  0  0  0  0  0  0  0  0  0
   -8.3290   22.0180  -31.4960 S   0  0  0  0  0  0  0  0  0  0  0  0
   -9.2790   22.8100  -32.3520 O   0  0  0  0  0  0  0  0  0  0  0  0
   -9.0150   21.6840  -30.1990 O   0  0  0  0  0  0  0  0  0  0  0  0
   -7.8640   20.5600  -32.3360 N   0  0  0  0  0  0  0  0  0  0  0  0
   -6.8030   19.8540  -31.6190 C   0  0  0  0  0  0  0  0  0  0  0  0
   -6.9170   18.3950  -32.0260 C   0  0  0  0  0  0  0  0  0  0  0  0
   -8.3590   18.2210  -32.4780 C   0  0  0  0  0  0  0  0  0  0  0  0
   -8.9750   19.6120  -32.4200 C   0  0  0  0  0  0  0  0  0  0  0  0
   -6.9980   24.2480  -30.5840 C   0  0  0  0  0  0  0  0  0  0  0  0
   -5.8510   25.0030  -30.3320 C   0  0  0  0  0  0  0  0  0  0  0  0
   -4.5870   24.4990  -30.6620 C   0  0  0  0  0  0  0  0  0  0  0  0
   -3.4680   25.2990  -30.4590 O   0  0  0  0  0  0  0  0  0  0  0  0
   -0.8600   20.5100  -31.7220 C   0  0  0  0  0  0  0  0  0  0  0  0
   -1.3560   20.4900  -30.4210 O   0  0  0  0  0  0  0  0  0  0  0  0
    0.7873   19.6982  -29.8816 H   0  0  0  0  0  0  0  0  0  0  0  0
    1.1993   18.2853  -30.9115 H   0  0  0  0  0  0  0  0  0  0  0  0
    2.2585   19.7361  -30.9115 H   0  0  0  0  0  0  0  0  0  0  0  0
    1.9301   19.5521  -33.4626 H   0  0  0  0  0  0  0  0  0  0  0  0
    2.4120   19.0270  -36.9150 H   0  0  0  0  0  0  0  0  0  0  0  0
   -1.6643   21.4695  -34.9111 H   0  0  0  0  0  0  0  0  0  0  0  0
   -5.5424   21.4897  -31.9827 H   0  0  0  0  0  0  0  0  0  0  0  0
   -5.8186   20.2538  -31.9038 H   0  0  0  0  0  0  0  0  0  0  0  0
   -6.9039   19.9762  -30.5305 H   0  0  0  0  0  0  0  0  0  0  0  0
   -6.2241   18.1687  -32.8498 H   0  0  0  0  0  0  0  0  0  0  0  0
   -6.6591   17.7155  -31.2003 H   0  0  0  0  0  0  0  0  0  0  0  0
   -8.3951   17.8272  -33.5045 H   0  0  0  0  0  0  0  0  0  0  0  0
   -8.9026   17.5075  -31.8413 H   0  0  0  0  0  0  0  0  0  0  0  0
   -9.5680   19.8022  -33.3267 H   0  0  0  0  0  0  0  0  0  0  0  0
   -9.6468   19.7117  -31.5547 H   0  0  0  0  0  0  0  0  0  0  0  0
   -7.9869   24.6438  -30.3094 H   0  0  0  0  0  0  0  0  0  0  0  0
   -5.9407   25.9982  -29.8722 H   0  0  0  0  0  0  0  0  0  0  0  0
  1  2  1  0
  2  3  2  0
  3  4  1  0
  4  5  1  0
  5  6  2  0
  5  7  1  0
  7  8  2  0
  8  9  1  0
  8 10  1  0
 10 11  1  0
 11 12  2  0
 11 13  1  0
 13 14  1  0
 14 15  2  0
  4 16  2  0
 16 17  1  0
 17 18  1  0
 18 19  2  0
 18 20  1  0
 20 21  1  0
 21 22  2  0
 22 23  1  0
 23 24  1  0
 24 25  2  0
 24 26  2  0
 24 27  1  0
 27 28  1  0
 28 29  1  0
 29 30  1  0
 30 31  1  0
 23 32  2  0
 32 33  1  0
 33 34  2  0
 34 35  1  0
 17 36  2  0
 36 37  1  0
 36  2  1  0
 14  7  1  0
 34 21  1  0
 31 27  1  0
  1 38  1  0
  1 39  1  0
  1 40  1  0
  3 41  1  0
  9 42  1  0
 16 43  1  0
 22 44  1  0
 28 45  1  0
 28 46  1  0
 29 47  1  0
 29 48  1  0
 30 49  1  0
 30 50  1  0
 31 51  1  0
 31 52  1  0
 32 53  1  0
 33 54  1  0
M  CHG  5  10  -1  13  -1  20  -1  35  -1  37  -1
M  END
>  <UniqueID>  (34) 
33

>  <SMILES>  (34) 
Cc1cc(C(=O)c2c(O)[n-]c(=O)[n-]c2=O)cc(C(=O)[N-]c2cc(S(=O)(=O)N3CCCC3)ccc2[O-])c1[O-]

>  <Energy>  (34) 
76.22287054258675

>  <Genealogy>  (34) 
Cc1cc(C(=O)c2c(O)[n-]c(=O)[n-]c2=O)cc(C(=O)[N-]c2cc(S(=O)(=O)N3CCCC3)ccc2[O-])c1[O-] (protonated)
Cc1cc(C(=O)c2c(O)[n-]c(=O)[n-]c2=O)cc(C(=O)[N-]c2cc(S(=O)(=O)N3CCCC3)ccc2[O-])c1[O-] (3D coordinates assigned)
Cc1cc(C(=O)c2c(O)[n-]c(=O)[n-]c2=O)cc(C(=O)[N-]c2cc(S(=O)(=O)N3CCCC3)ccc2[O-])c1[O-] (nonaromatic ring conformer: 76.22287054258675 kcal/mol)

>  <smiles>  (34) 
Cc1cc(C(=O)c2c(O)[nH]c(=O)[nH]c2=O)cc(C(=O)Nc2cc(S(=O)(=O)N3CCCC3)ccc2O)c1O

>  <score_type>  (34) 
oracle

>  <origin>  (34) 
adgpu

>  <m_score__min__energy>  (34) 
-15.640000000000001

>  <m_primary>  (34) 
energy

$$$$
34:0
     RDKit          3D

 58 61  0  0  1  0  0  0  0  0999 V2000
   -7.8970   18.7260  -31.5400 C   0  0  0  0  0  0  0  0  0  0  0  0
   -9.1570   19.4290  -31.6610 N   0  0  0  0  0  0  0  0  0  0  0  0
   -9.3980   19.6790  -33.0830 C   0  0  0  0  0  0  0  0  0  0  0  0
   -9.0660   20.6840  -30.9830 C   0  0  0  0  0  0  0  0  0  0  0  0
   -8.2970   21.7570  -31.7220 C   0  0  0  0  0  0  0  0  0  0  0  0
   -6.9540   21.5370  -32.0050 N   0  0  0  0  0  0  0  0  0  0  0  0
   -5.9240   22.1830  -31.7670 C   0  0  0  0  0  0  0  0  0  0  0  0
   -4.7350   21.7040  -32.1700 N   0  0  0  0  0  0  0  0  0  0  0  0
   -3.5580   22.3040  -31.9260 C   0  0  0  0  0  0  0  0  0  0  0  0
   -1.9900   21.6620  -32.4650 S   0  0  0  0  0  0  0  0  0  0  0  0
   -2.1860   20.0020  -33.1290 C   0  0  0  0  0  0  0  0  0  0  0  0
   -3.3980   19.4360  -33.2780 N   0  0  0  0  0  0  0  0  0  0  0  0
   -3.5350   18.1780  -33.7820 C   0  0  0  0  0  0  0  0  0  0  0  0
   -2.4520   17.4360  -34.1570 C   0  0  0  0  0  0  0  0  0  0  0  0
   -1.1990   17.9870  -34.0160 C   0  0  0  0  0  0  0  0  0  0  0  0
   -1.0730   19.2570  -33.5070 C   0  0  0  0  0  0  0  0  0  0  0  0
    0.6890   19.9660  -33.3350 Br  0  0  0  0  0  0  0  0  0  0  0  0
   -2.5460   16.0650  -34.7100 C   0  0  0  0  0  0  0  0  0  0  0  0
   -3.9340   15.5330  -34.7410 C   0  0  0  0  0  0  0  0  0  0  0  0
   -4.9950   16.5750  -34.9380 C   0  0  0  0  0  0  0  0  0  0  0  0
   -4.9320   17.6520  -33.9020 C   0  0  0  0  0  0  0  0  0  0  0  0
   -5.8830   18.7570  -34.3350 C   0  0  0  0  0  0  0  0  0  0  0  0
   -5.2990   17.0750  -32.5590 C   0  0  0  0  0  0  0  0  0  0  0  0
   -3.5930   23.4530  -31.2330 N   0  0  0  0  0  0  0  0  0  0  0  0
   -4.7630   23.9620  -30.8150 C   0  0  0  0  0  0  0  0  0  0  0  0
   -4.7290   25.1370  -30.1170 C   0  0  0  0  0  0  0  0  0  0  0  0
   -5.9410   25.6450  -29.7030 C   0  0  0  0  0  0  0  0  0  0  0  0
   -7.1500   25.0700  -29.9360 C   0  0  0  0  0  0  0  0  0  0  0  0
   -7.1830   23.8560  -30.6560 C   0  0  0  0  0  0  0  0  0  0  0  0
   -5.9870   23.3570  -31.0600 C   0  0  0  0  0  0  0  0  0  0  0  0
   -7.6536   18.5902  -30.4759 H   0  0  0  0  0  0  0  0  0  0  0  0
   -7.9777   17.7425  -32.0261 H   0  0  0  0  0  0  0  0  0  0  0  0
   -7.1025   19.3112  -32.0261 H   0  0  0  0  0  0  0  0  0  0  0  0
  -10.1576   20.4670  -33.1932 H   0  0  0  0  0  0  0  0  0  0  0  0
   -8.4621   20.0023  -33.5622 H   0  0  0  0  0  0  0  0  0  0  0  0
   -9.7554   18.7556  -33.5622 H   0  0  0  0  0  0  0  0  0  0  0  0
  -10.0877   21.0537  -30.8113 H   0  0  0  0  0  0  0  0  0  0  0  0
   -8.5087   20.4914  -30.0544 H   0  0  0  0  0  0  0  0  0  0  0  0
   -8.8084   21.9195  -32.6822 H   0  0  0  0  0  0  0  0  0  0  0  0
   -8.2886   22.6088  -31.0261 H   0  0  0  0  0  0  0  0  0  0  0  0
   -4.6920   20.8130  -32.7110 H   0  0  0  0  0  0  0  0  0  0  0  0
   -0.3057   17.4155  -34.3083 H   0  0  0  0  0  0  0  0  0  0  0  0
   -2.1542   16.0763  -35.7378 H   0  0  0  0  0  0  0  0  0  0  0  0
   -1.9619   15.4081  -34.0487 H   0  0  0  0  0  0  0  0  0  0  0  0
   -4.0061   14.8089  -35.5659 H   0  0  0  0  0  0  0  0  0  0  0  0
   -4.1182   15.0813  -33.7551 H   0  0  0  0  0  0  0  0  0  0  0  0
   -4.8634   17.0307  -35.9305 H   0  0  0  0  0  0  0  0  0  0  0  0
   -5.9734   16.0800  -34.8499 H   0  0  0  0  0  0  0  0  0  0  0  0
   -6.3049   19.2472  -33.4452 H   0  0  0  0  0  0  0  0  0  0  0  0
   -5.3352   19.4974  -34.9365 H   0  0  0  0  0  0  0  0  0  0  0  0
   -6.6967   18.3256  -34.9365 H   0  0  0  0  0  0  0  0  0  0  0  0
   -4.8923   17.7144  -31.7617 H   0  0  0  0  0  0  0  0  0  0  0  0
   -6.3941   17.0267  -32.4675 H   0  0  0  0  0  0  0  0  0  0  0  0
   -4.8785   16.0627  -32.4675 H   0  0  0  0  0  0  0  0  0  0  0  0
   -3.7817   25.6510  -29.8970 H   0  0  0  0  0  0  0  0  0  0  0  0
   -5.9290   26.5898  -29.1399 H   0  0  0  0  0  0  0  0  0  0  0  0
   -8.0774   25.5375  -29.5736 H   0  0  0  0  0  0  0  0  0  0  0  0
   -8.1293   23.3410  -30.8782 H   0  0  0  0  0  0  0  0  0  0  0  0
  1  2  1  0
  2  3  1  0
  2  4  1  0
  4  5  1  0
  5  6  1  0
  6  7  2  0
  7  8  1  0
  8  9  1  0
  9 10  1  0
 10 11  1  0
 11 12  2  0
 12 13  1  0
 13 14  2  0
 14 15  1  0
 15 16  2  0
 16 17  1  0
 14 18  1  0
 18 19  1  0
 19 20  1  0
 20 21  1  0
 21 22  1  0
 21 23  1  0
  9 24  2  0
 24 25  1  0
 25 26  2  0
 26 27  1  0
 27 28  2  0
 28 29  1  0
 29 30  2  0
 30  7  1  0
 16 11  1  0
 30 25  1  0
 21 13  1  0
  1 31  1  0
  1 32  1  0
  1 33  1  0
  3 34  1  0
  3 35  1  0
  3 36  1  0
  4 37  1  0
  4 38  1  0
  5 39  1  0
  5 40  1  0
  8 41  1  0
 15 42  1  0
 18 43  1  0
 18 44  1  0
 19 45  1  0
 19 46  1  0
 20 47  1  0
 20 48  1  0
 22 49  1  0
 22 50  1  0
 22 51  1  0
 23 52  1  0
 23 53  1  0
 23 54  1  0
 26 55  1  0
 27 56  1  0
 28 57  1  0
 29 58  1  0
M  END
>  <smiles>  (35) 
CN(C)CCN=c1[nH]c(Sc2nc3c(cc2Br)CCCC3(C)C)nc2ccccc12

>  <score_type>  (35) 
oracle

>  <origin>  (35) 
adgpu

>  <m_score__min__energy>  (35) 
-10.33

>  <m_primary>  (35) 
energy

$$$$
35:0
     RDKit          3D

 59 62  0  0  0  0  0  0  0  0999 V2000
   -4.6270   20.3150  -31.1070 C   0  0  0  0  0  0  0  0  0  0  0  0
   -5.7030   20.1740  -32.0920 N   0  0  0  0  0  0  0  0  0  0  0  0
   -5.8160   18.9940  -32.9220 C   0  0  0  0  0  0  0  0  0  0  0  0
   -5.2730   18.9630  -34.2220 C   0  0  0  0  0  0  0  0  0  0  0  0
   -5.3970   17.8200  -35.0170 C   0  0  0  0  0  0  0  0  0  0  0  0
   -6.0610   16.6940  -34.5290 C   0  0  0  0  0  0  0  0  0  0  0  0
   -6.6040   16.7080  -33.2430 C   0  0  0  0  0  0  0  0  0  0  0  0
   -6.4850   17.8490  -32.4440 C   0  0  0  0  0  0  0  0  0  0  0  0
   -6.7640   21.1450  -32.0720 C   0  0  0  0  0  0  0  0  0  0  0  0
   -8.0900   20.6890  -32.0060 C   0  0  0  0  0  0  0  0  0  0  0  0
   -9.1470   21.5970  -31.9410 C   0  0  0  0  0  0  0  0  0  0  0  0
   -8.8920   22.9680  -31.9390 C   0  0  0  0  0  0  0  0  0  0  0  0
   -7.5790   23.4370  -32.0100 C   0  0  0  0  0  0  0  0  0  0  0  0
   -6.4960   22.5370  -32.0860 C   0  0  0  0  0  0  0  0  0  0  0  0
   -5.1180   23.0770  -32.2110 C   0  0  0  0  0  0  0  0  0  0  0  0
   -4.3440   22.6480  -33.1090 O   0  0  0  0  0  0  0  0  0  0  0  0
   -4.6510   24.0640  -31.2820 N   0  0  0  0  0  0  0  0  0  0  0  0
   -4.0940   23.8080  -29.9840 C   0  0  0  0  0  0  0  0  0  0  0  0
   -4.6180   22.8190  -29.1330 C   0  0  0  0  0  0  0  0  0  0  0  0
   -4.0360   22.5870  -27.8850 C   0  0  0  0  0  0  0  0  0  0  0  0
   -2.9210   23.3260  -27.4810 C   0  0  0  0  0  0  0  0  0  0  0  0
   -2.3800   24.3020  -28.3280 C   0  0  0  0  0  0  0  0  0  0  0  0
   -0.9760   25.2320  -27.8040 S   0  0  0  0  0  0  0  0  0  0  0  0
   -1.0390   26.6220  -28.3790 O   0  0  0  0  0  0  0  0  0  0  0  0
    0.2660   24.5530  -28.3130 O   0  0  0  0  0  0  0  0  0  0  0  0
   -0.9270   25.3230  -26.0570 N   0  0  0  0  0  0  0  0  0  0  0  0
    0.4720   25.5320  -25.6130 C   0  0  0  0  0  0  0  0  0  0  0  0
    0.5350   26.0780  -24.1830 C   0  0  0  0  0  0  0  0  0  0  0  0
   -0.1480   27.4540  -24.0860 C   0  0  0  0  0  0  0  0  0  0  0  0
   -1.2190   27.6650  -25.1700 C   0  0  0  0  0  0  0  0  0  0  0  0
   -1.8920   26.3380  -25.5490 C   0  0  0  0  0  0  0  0  0  0  0  0
   -2.9630   24.5310  -29.5840 C   0  0  0  0  0  0  0  0  0  0  0  0
   -5.0489   20.2597  -30.0926 H   0  0  0  0  0  0  0  0  0  0  0  0
   -3.8955   19.5050  -31.2445 H   0  0  0  0  0  0  0  0  0  0  0  0
   -4.1289   21.2861  -31.2445 H   0  0  0  0  0  0  0  0  0  0  0  0
   -4.7471   19.8458  -34.6145 H   0  0  0  0  0  0  0  0  0  0  0  0
   -4.9698   17.8082  -36.0306 H   0  0  0  0  0  0  0  0  0  0  0  0
   -6.1565   15.7960  -35.1571 H   0  0  0  0  0  0  0  0  0  0  0  0
   -7.1263   15.8199  -32.8578 H   0  0  0  0  0  0  0  0  0  0  0  0
   -6.9176   17.8533  -31.4326 H   0  0  0  0  0  0  0  0  0  0  0  0
   -8.2969   19.6086  -32.0055 H   0  0  0  0  0  0  0  0  0  0  0  0
  -10.1831   21.2310  -31.8913 H   0  0  0  0  0  0  0  0  0  0  0  0
   -9.7272   23.6815  -31.8814 H   0  0  0  0  0  0  0  0  0  0  0  0
   -7.3872   24.5201  -32.0066 H   0  0  0  0  0  0  0  0  0  0  0  0
   -5.4885   22.2266  -29.4511 H   0  0  0  0  0  0  0  0  0  0  0  0
   -4.4566   21.8201  -27.2179 H   0  0  0  0  0  0  0  0  0  0  0  0
   -2.4672   23.1411  -26.4962 H   0  0  0  0  0  0  0  0  0  0  0  0
   -1.2340   24.3870  -25.7030 H   0  0  0  0  0  0  0  0  0  0  0  0
    1.0061   24.5711  -25.6519 H   0  0  0  0  0  0  0  0  0  0  0  0
    0.9389   26.2688  -26.2832 H   0  0  0  0  0  0  0  0  0  0  0  0
    0.0256   25.3754  -23.5071 H   0  0  0  0  0  0  0  0  0  0  0  0
    1.5914   26.1908  -23.8977 H   0  0  0  0  0  0  0  0  0  0  0  0
   -0.6252   27.5408  -23.0987 H   0  0  0  0  0  0  0  0  0  0  0  0
    0.6276   28.2201  -24.2328 H   0  0  0  0  0  0  0  0  0  0  0  0
   -1.9828   28.3593  -24.7898 H   0  0  0  0  0  0  0  0  0  0  0  0
   -0.7322   28.0779  -26.0659 H   0  0  0  0  0  0  0  0  0  0  0  0
   -2.3926   25.9313  -24.6580 H   0  0  0  0  0  0  0  0  0  0  0  0
   -2.6058   26.5493  -26.3589 H   0  0  0  0  0  0  0  0  0  0  0  0
   -2.5288   25.2834  -30.2588 H   0  0  0  0  0  0  0  0  0  0  0  0
  1  2  1  0
  2  3  1  0
  3  4  2  0
  4  5  1  0
  5  6  2  0
  6  7  1  0
  7  8  2  0
  2  9  1  0
  9 10  2  0
 10 11  1  0
 11 12  2  0
 12 13  1  0
 13 14  2  0
 14 15  1  0
 15 16  2  0
 15 17  1  0
 17 18  1  0
 18 19  2  0
 19 20  1  0
 20 21  2  0
 21 22  1  0
 22 23  1  0
 23 24  2  0
 23 25  2  0
 23 26  1  0
 26 27  1  0
 27 28  1  0
 28 29  1  0
 29 30  1  0
 30 31  1  0
 22 32  2  0
  8  3  1  0
 14  9  1  0
 32 18  1  0
 31 26  1  0
  1 33  1  0
  1 34  1  0
  1 35  1  0
  4 36  1  0
  5 37  1  0
  6 38  1  0
  7 39  1  0
  8 40  1  0
 10 41  1  0
 11 42  1  0
 12 43  1  0
 13 44  1  0
 19 45  1  0
 20 46  1  0
 21 47  1  0
 26 48  1  0
 27 49  1  0
 27 50  1  0
 28 51  1  0
 28 52  1  0
 29 53  1  0
 29 54  1  0
 30 55  1  0
 30 56  1  0
 31 57  1  0
 31 58  1  0
 32 59  1  0
M  CHG  2  17  -1  26   1
M  END
>  <UniqueID>  (36) 
34

>  <SMILES>  (36) 
CN(c1ccccc1)c1ccccc1C(=O)[N-]c1cccc(S(=O)(=O)[NH+]2CCCCC2)c1

>  <Energy>  (36) 
82.88805198539607

>  <Genealogy>  (36) 
CN(c1ccccc1)c1ccccc1C(=O)[N-]c1cccc(S(=O)(=O)[NH+]2CCCCC2)c1 (protonated)
CN(c1ccccc1)c1ccccc1C(=O)[N-]c1cccc(S(=O)(=O)[NH+]2CCCCC2)c1 (3D coordinates assigned)
CN(c1ccccc1)c1ccccc1C(=O)[N-]c1cccc(S(=O)(=O)[NH+]2CCCCC2)c1 (nonaromatic ring conformer: 82.88805198539607 kcal/mol)

>  <smiles>  (36) 
CN(c1ccccc1)c1ccccc1C(=O)Nc1cccc(S(=O)(=O)N2CCCCC2)c1

>  <score_type>  (36) 
oracle

>  <origin>  (36) 
adgpu

>  <m_score__min__energy>  (36) 
-11.210000000000001

>  <m_primary>  (36) 
energy

$$$$
36:0
     RDKit          3D

 43 46  0  0  0  0  0  0  0  0999 V2000
    2.8220   22.1550  -35.0350 C   0  0  0  0  0  0  0  0  0  0  0  0
    1.5730   21.4600  -34.5750 C   0  0  0  0  0  0  0  0  0  0  0  0
    1.6430   20.4320  -33.6200 C   0  0  0  0  0  0  0  0  0  0  0  0
    0.4770   19.8020  -33.1750 C   0  0  0  0  0  0  0  0  0  0  0  0
   -0.7710   20.1960  -33.6730 C   0  0  0  0  0  0  0  0  0  0  0  0
   -2.2480   19.4230  -33.0970 S   0  0  0  0  0  0  0  0  0  0  0  0
   -2.8260   18.6260  -34.2330 O   0  0  0  0  0  0  0  0  0  0  0  0
   -1.9130   18.4870  -31.9690 O   0  0  0  0  0  0  0  0  0  0  0  0
   -3.4280   20.6230  -32.5320 C   0  0  0  0  0  0  0  0  0  0  0  0
   -2.9770   21.8780  -32.1030 C   0  0  0  0  0  0  0  0  0  0  0  0
   -3.8530   22.8190  -31.6760 N   0  0  0  0  0  0  0  0  0  0  0  0
   -5.1920   22.5990  -31.6370 C   0  0  0  0  0  0  0  0  0  0  0  0
   -6.0540   23.6110  -31.1840 C   0  0  0  0  0  0  0  0  0  0  0  0
   -5.3750   25.3150  -30.6280 Br  0  0  0  0  0  0  0  0  0  0  0  0
   -7.4310   23.3830  -31.1330 C   0  0  0  0  0  0  0  0  0  0  0  0
   -7.9550   22.1510  -31.5270 C   0  0  0  0  0  0  0  0  0  0  0  0
   -7.1070   21.1370  -31.9780 C   0  0  0  0  0  0  0  0  0  0  0  0
   -5.7120   21.3470  -32.0450 C   0  0  0  0  0  0  0  0  0  0  0  0
   -4.8160   20.3470  -32.4970 C   0  0  0  0  0  0  0  0  0  0  0  0
   -5.3210   19.0230  -32.9230 C   0  0  0  0  0  0  0  0  0  0  0  0
   -5.6160   18.7810  -34.2730 C   0  0  0  0  0  0  0  0  0  0  0  0
   -6.0900   17.5280  -34.6740 C   0  0  0  0  0  0  0  0  0  0  0  0
   -6.2660   16.5100  -33.7300 C   0  0  0  0  0  0  0  0  0  0  0  0
   -6.8600   14.9390  -34.2350 Cl  0  0  0  0  0  0  0  0  0  0  0  0
   -5.9650   16.7450  -32.3830 C   0  0  0  0  0  0  0  0  0  0  0  0
   -5.4910   17.9970  -31.9800 C   0  0  0  0  0  0  0  0  0  0  0  0
   -0.8470   21.2340  -34.6110 C   0  0  0  0  0  0  0  0  0  0  0  0
    0.3180   21.8650  -35.0590 C   0  0  0  0  0  0  0  0  0  0  0  0
    0.2210   22.8760  -35.9610 F   0  0  0  0  0  0  0  0  0  0  0  0
    3.4046   22.4792  -34.1601 H   0  0  0  0  0  0  0  0  0  0  0  0
    3.4249   21.4627  -35.6409 H   0  0  0  0  0  0  0  0  0  0  0  0
    2.5515   23.0323  -35.6409 H   0  0  0  0  0  0  0  0  0  0  0  0
    2.6197   20.1214  -33.2206 H   0  0  0  0  0  0  0  0  0  0  0  0
    0.5402   18.9941  -32.4312 H   0  0  0  0  0  0  0  0  0  0  0  0
   -1.9000   22.1018  -32.1130 H   0  0  0  0  0  0  0  0  0  0  0  0
   -8.1052   24.1777  -30.7809 H   0  0  0  0  0  0  0  0  0  0  0  0
   -9.0404   21.9778  -31.4822 H   0  0  0  0  0  0  0  0  0  0  0  0
   -7.5286   20.1679  -32.2832 H   0  0  0  0  0  0  0  0  0  0  0  0
   -5.4742   19.5783  -35.0174 H   0  0  0  0  0  0  0  0  0  0  0  0
   -6.3248   17.3424  -35.7325 H   0  0  0  0  0  0  0  0  0  0  0  0
   -6.1015   15.9441  -31.6414 H   0  0  0  0  0  0  0  0  0  0  0  0
   -5.2508   18.1785  -30.9220 H   0  0  0  0  0  0  0  0  0  0  0  0
   -1.8264   21.5538  -34.9964 H   0  0  0  0  0  0  0  0  0  0  0  0
  1  2  1  0
  2  3  2  0
  3  4  1  0
  4  5  2  0
  5  6  1  0
  6  7  2  0
  6  8  2  0
  6  9  1  0
  9 10  2  0
 10 11  1  0
 11 12  2  0
 12 13  1  0
 13 14  1  0
 13 15  2  0
 15 16  1  0
 16 17  2  0
 17 18  1  0
 18 19  2  0
 19 20  1  0
 20 21  2  0
 21 22  1  0
 22 23  2  0
 23 24  1  0
 23 25  1  0
 25 26  2  0
  5 27  1  0
 27 28  2  0
 28 29  1  0
 28  2  1  0
 19  9  1  0
 26 20  1  0
 18 12  1  0
  1 30  1  0
  1 31  1  0
  1 32  1  0
  3 33  1  0
  4 34  1  0
 10 35  1  0
 15 36  1  0
 16 37  1  0
 17 38  1  0
 21 39  1  0
 22 40  1  0
 25 41  1  0
 26 42  1  0
 27 43  1  0
M  END
>  <UniqueID>  (37) 
35

>  <SMILES>  (37) 
Cc1ccc(S(=O)(=O)c2cnc3c(Br)cccc3c2-c2ccc(Cl)cc2)cc1F

>  <Energy>  (37) 
64.01638425045947

>  <Genealogy>  (37) 
Cc1ccc(S(=O)(=O)c2cnc3c(Br)cccc3c2-c2ccc(Cl)cc2)cc1F (3D coordinates assigned)
Cc1ccc(S(=O)(=O)c2cnc3c(Br)cccc3c2-c2ccc(Cl)cc2)cc1F (optimized conformer: 64.01638425045947 kcal/mol)

>  <smiles>  (37) 
Cc1ccc(S(=O)(=O)c2cnc3c(Br)cccc3c2-c2ccc(Cl)cc2)cc1F

>  <score_type>  (37) 
oracle

>  <origin>  (37) 
adgpu

>  <m_score__min__energy>  (37) 
-9.5199999999999996

>  <m_primary>  (37) 
energy

$$$$
37:0
     RDKit          3D

 48 50  0  0  0  0  0  0  0  0999 V2000
   -0.6740   25.0630  -24.6080 C   0  0  0  0  0  0  0  0  0  0  0  0
   -0.8820   25.5340  -25.9860 N   0  0  0  0  0  0  0  0  0  0  0  0
   -0.0710   24.7310  -26.9340 C   0  0  0  0  0  0  0  0  0  0  0  0
   -0.6600   24.7290  -28.3470 C   0  0  0  0  0  0  0  0  0  0  0  0
   -2.0250   24.1960  -28.3000 N   0  0  0  0  0  0  0  0  0  0  0  0
   -2.4330   23.2100  -29.2560 C   0  0  0  0  0  0  0  0  0  0  0  0
   -1.7530   22.0350  -29.3050 N   0  0  0  0  0  0  0  0  0  0  0  0
   -2.0940   21.0300  -30.1490 C   0  0  0  0  0  0  0  0  0  0  0  0
   -3.1930   21.1700  -31.0070 C   0  0  0  0  0  0  0  0  0  0  0  0
   -3.5840   20.0670  -31.9210 C   0  0  0  0  0  0  0  0  0  0  0  0
   -2.6110   19.3430  -32.6280 C   0  0  0  0  0  0  0  0  0  0  0  0
   -2.9780   18.2900  -33.4700 C   0  0  0  0  0  0  0  0  0  0  0  0
   -4.3310   17.9320  -33.6310 C   0  0  0  0  0  0  0  0  0  0  0  0
   -4.7130   16.8310  -34.4990 N   0  0  0  0  0  0  0  0  0  0  0  0
   -3.8300   16.3960  -35.5870 C   0  0  0  0  0  0  0  0  0  0  0  0
   -5.9870   16.1280  -34.2940 C   0  0  0  0  0  0  0  0  0  0  0  0
   -5.3040   18.6670  -32.9240 C   0  0  0  0  0  0  0  0  0  0  0  0
   -4.9360   19.7190  -32.0810 C   0  0  0  0  0  0  0  0  0  0  0  0
   -3.9110   22.3770  -30.9810 C   0  0  0  0  0  0  0  0  0  0  0  0
   -3.5380   23.4210  -30.1140 C   0  0  0  0  0  0  0  0  0  0  0  0
   -4.2850   24.7050  -30.1540 C   0  0  0  0  0  0  0  0  0  0  0  0
   -3.8620   25.6650  -30.8510 O   0  0  0  0  0  0  0  0  0  0  0  0
   -5.4350   24.8920  -29.3940 O   0  0  0  0  0  0  0  0  0  0  0  0
   -2.8440   24.4100  -27.1050 C   0  0  0  0  0  0  0  0  0  0  0  0
   -2.3280   25.6210  -26.3130 C   0  0  0  0  0  0  0  0  0  0  0  0
   -1.0146   25.8343  -23.9015 H   0  0  0  0  0  0  0  0  0  0  0  0
   -1.2475   24.1384  -24.4460 H   0  0  0  0  0  0  0  0  0  0  0  0
    0.3957   24.8641  -24.4460 H   0  0  0  0  0  0  0  0  0  0  0  0
    0.9446   25.1517  -26.9749 H   0  0  0  0  0  0  0  0  0  0  0  0
   -0.0618   23.6922  -26.5722 H   0  0  0  0  0  0  0  0  0  0  0  0
   -0.6797   25.7567  -28.7388 H   0  0  0  0  0  0  0  0  0  0  0  0
   -0.0407   24.1011  -29.0044 H   0  0  0  0  0  0  0  0  0  0  0  0
   -1.5054   20.1008  -30.1602 H   0  0  0  0  0  0  0  0  0  0  0  0
   -1.5489   19.6073  -32.5180 H   0  0  0  0  0  0  0  0  0  0  0  0
   -2.2006   17.7335  -34.0140 H   0  0  0  0  0  0  0  0  0  0  0  0
   -2.9194   15.9474  -35.1631 H   0  0  0  0  0  0  0  0  0  0  0  0
   -4.3512   15.6515  -36.2068 H   0  0  0  0  0  0  0  0  0  0  0  0
   -3.5574   17.2629  -36.2068 H   0  0  0  0  0  0  0  0  0  0  0  0
   -6.1782   16.0225  -33.2159 H   0  0  0  0  0  0  0  0  0  0  0  0
   -6.8022   16.7040  -34.7563 H   0  0  0  0  0  0  0  0  0  0  0  0
   -5.9343   15.1313  -34.7563 H   0  0  0  0  0  0  0  0  0  0  0  0
   -6.3673   18.4090  -33.0374 H   0  0  0  0  0  0  0  0  0  0  0  0
   -5.7113   20.2795  -31.5380 H   0  0  0  0  0  0  0  0  0  0  0  0
   -4.7764   22.5080  -31.6472 H   0  0  0  0  0  0  0  0  0  0  0  0
   -3.8859   24.5917  -27.4073 H   0  0  0  0  0  0  0  0  0  0  0  0
   -2.7863   23.5154  -26.4675 H   0  0  0  0  0  0  0  0  0  0  0  0
   -2.4969   26.5280  -26.9120 H   0  0  0  0  0  0  0  0  0  0  0  0
   -2.8773   25.6463  -25.3603 H   0  0  0  0  0  0  0  0  0  0  0  0
  1  2  1  0
  2  3  1  0
  3  4  1  0
  4  5  1  0
  5  6  1  0
  6  7  2  0
  7  8  1  0
  8  9  2  0
  9 10  1  0
 10 11  2  0
 11 12  1  0
 12 13  2  0
 13 14  1  0
 14 15  1  0
 14 16  1  0
 13 17  1  0
 17 18  2  0
  9 19  1  0
 19 20  2  0
 20 21  1  0
 21 22  2  0
 21 23  1  0
  5 24  1  0
 24 25  1  0
 25  2  1  0
 20  6  1  0
 18 10  1  0
  1 26  1  0
  1 27  1  0
  1 28  1  0
  3 29  1  0
  3 30  1  0
  4 31  1  0
  4 32  1  0
  8 33  1  0
 11 34  1  0
 12 35  1  0
 15 36  1  0
 15 37  1  0
 15 38  1  0
 16 39  1  0
 16 40  1  0
 16 41  1  0
 17 42  1  0
 18 43  1  0
 19 44  1  0
 24 45  1  0
 24 46  1  0
 25 47  1  0
 25 48  1  0
M  CHG  1  23  -1
M  END
>  <UniqueID>  (38) 
36

>  <SMILES>  (38) 
CN1CCN(c2ncc(-c3ccc(N(C)C)cc3)cc2C(=O)[O-])CC1

>  <Energy>  (38) 
71.79474461943639

>  <Genealogy>  (38) 
CN1CCN(c2ncc(-c3ccc(N(C)C)cc3)cc2C(=O)[O-])CC1 (protonated)
CN1CCN(c2ncc(-c3ccc(N(C)C)cc3)cc2C(=O)[O-])CC1 (3D coordinates assigned)
CN1CCN(c2ncc(-c3ccc(N(C)C)cc3)cc2C(=O)[O-])CC1 (nonaromatic ring conformer: 71.79474461943639 kcal/mol)

>  <smiles>  (38) 
CN1CCN(c2ncc(-c3ccc(N(C)C)cc3)cc2C(=O)O)CC1

>  <score_type>  (38) 
oracle

>  <origin>  (38) 
adgpu

>  <m_score__min__energy>  (38) 
-8.5500000000000007

>  <m_primary>  (38) 
energy

$$$$
38:0
     RDKit          3D

 60 63  0  0  0  0  0  0  0  0999 V2000
    0.3590   24.0870  -24.9810 C   0  0  0  0  0  0  0  0  0  0  0  0
   -0.6070   24.2030  -26.1300 C   0  0  0  0  0  0  0  0  0  0  0  0
   -1.4750   23.1250  -26.3660 C   0  0  0  0  0  0  0  0  0  0  0  0
   -2.3660   23.1420  -27.4340 C   0  0  0  0  0  0  0  0  0  0  0  0
   -2.3970   24.2300  -28.3100 C   0  0  0  0  0  0  0  0  0  0  0  0
   -3.3320   24.2700  -29.4000 N   0  0  0  0  0  0  0  0  0  0  0  0
   -3.4320   23.2430  -30.4020 C   0  0  0  0  0  0  0  0  0  0  0  0
   -2.8210   22.1510  -30.2600 O   0  0  0  0  0  0  0  0  0  0  0  0
   -4.2520   23.4260  -31.5610 N   0  0  0  0  0  0  0  0  0  0  0  0
   -5.5930   22.9410  -31.7230 C   0  0  0  0  0  0  0  0  0  0  0  0
   -6.6700   23.8210  -31.4880 C   0  0  0  0  0  0  0  0  0  0  0  0
   -7.9960   23.3770  -31.6130 C   0  0  0  0  0  0  0  0  0  0  0  0
   -8.2220   22.0440  -31.9610 C   0  0  0  0  0  0  0  0  0  0  0  0
   -7.1830   21.1810  -32.1670 C   0  0  0  0  0  0  0  0  0  0  0  0
   -5.8540   21.5910  -32.0450 C   0  0  0  0  0  0  0  0  0  0  0  0
   -7.6530   19.8860  -32.4890 N   0  0  0  0  0  0  0  0  0  0  0  0
   -6.8220   18.7260  -32.7950 C   0  0  0  0  0  0  0  0  0  0  0  0
   -9.1140   19.8980  -32.5010 C   0  0  0  0  0  0  0  0  0  0  0  0
   -9.5270   21.3480  -32.1400 C   0  0  0  0  0  0  0  0  0  0  0  0
   -1.5440   25.3220  -28.0880 C   0  0  0  0  0  0  0  0  0  0  0  0
   -1.5990   26.4010  -28.9650 O   0  0  0  0  0  0  0  0  0  0  0  0
   -0.6410   25.3300  -26.9980 C   0  0  0  0  0  0  0  0  0  0  0  0
    0.4180   26.7570  -26.7760 S   0  0  0  0  0  0  0  0  0  0  0  0
   -0.1250   27.9450  -27.5180 O   0  0  0  0  0  0  0  0  0  0  0  0
    0.4270   27.1230  -25.3180 O   0  0  0  0  0  0  0  0  0  0  0  0
    2.1300   26.4700  -27.2790 C   0  0  0  0  0  0  0  0  0  0  0  0
    3.1270   27.0480  -26.2480 C   0  0  0  0  0  0  0  0  0  0  0  0
    4.4930   26.3570  -26.3580 C   0  0  0  0  0  0  0  0  0  0  0  0
    4.4140   24.8960  -26.0950 N   0  0  0  0  0  0  0  0  0  0  0  0
    4.8100   24.5780  -24.7140 C   0  0  0  0  0  0  0  0  0  0  0  0
    3.0940   24.2900  -26.4030 C   0  0  0  0  0  0  0  0  0  0  0  0
    2.4200   24.9840  -27.5930 C   0  0  0  0  0  0  0  0  0  0  0  0
   -0.1916   24.1531  -24.0310 H   0  0  0  0  0  0  0  0  0  0  0  0
    0.8801   23.1198  -25.0363 H   0  0  0  0  0  0  0  0  0  0  0  0
    1.0942   24.9033  -25.0363 H   0  0  0  0  0  0  0  0  0  0  0  0
   -1.4500   22.2532  -25.6957 H   0  0  0  0  0  0  0  0  0  0  0  0
   -3.0497   22.2945  -27.5897 H   0  0  0  0  0  0  0  0  0  0  0  0
   -3.9020   25.1380  -29.5170 H   0  0  0  0  0  0  0  0  0  0  0  0
   -6.4691   24.8646  -31.2042 H   0  0  0  0  0  0  0  0  0  0  0  0
   -8.8378   24.0638  -31.4407 H   0  0  0  0  0  0  0  0  0  0  0  0
   -5.0293   20.8790  -32.1962 H   0  0  0  0  0  0  0  0  0  0  0  0
   -6.4866   18.2578  -31.8578 H   0  0  0  0  0  0  0  0  0  0  0  0
   -7.4067   17.9999  -33.3789 H   0  0  0  0  0  0  0  0  0  0  0  0
   -5.9464   19.0460  -33.3789 H   0  0  0  0  0  0  0  0  0  0  0  0
   -9.4912   19.6294  -33.4988 H   0  0  0  0  0  0  0  0  0  0  0  0
   -9.5309   19.1693  -31.7903 H   0  0  0  0  0  0  0  0  0  0  0  0
  -10.1089   21.8057  -32.9536 H   0  0  0  0  0  0  0  0  0  0  0  0
  -10.1687   21.4025  -31.2482 H   0  0  0  0  0  0  0  0  0  0  0  0
    2.2763   27.0152  -28.2231 H   0  0  0  0  0  0  0  0  0  0  0  0
    3.2525   28.1250  -26.4334 H   0  0  0  0  0  0  0  0  0  0  0  0
    2.7268   26.8753  -25.2380 H   0  0  0  0  0  0  0  0  0  0  0  0
    4.8861   26.5120  -27.3736 H   0  0  0  0  0  0  0  0  0  0  0  0
    5.1535   26.7986  -25.5973 H   0  0  0  0  0  0  0  0  0  0  0  0
    4.1497   25.1082  -24.0119 H   0  0  0  0  0  0  0  0  0  0  0  0
    4.7258   23.4937  -24.5488 H   0  0  0  0  0  0  0  0  0  0  0  0
    5.8505   24.8943  -24.5488 H   0  0  0  0  0  0  0  0  0  0  0  0
    3.2367   23.2262  -26.6437 H   0  0  0  0  0  0  0  0  0  0  0  0
    2.4460   24.4091  -25.5222 H   0  0  0  0  0  0  0  0  0  0  0  0
    3.0849   24.9246  -28.4673 H   0  0  0  0  0  0  0  0  0  0  0  0
    1.4654   24.4774  -27.7983 H   0  0  0  0  0  0  0  0  0  0  0  0
  1  2  1  0
  2  3  2  0
  3  4  1  0
  4  5  2  0
  5  6  1  0
  6  7  1  0
  7  8  2  0
  7  9  1  0
  9 10  1  0
 10 11  2  0
 11 12  1  0
 12 13  2  0
 13 14  1  0
 14 15  2  0
 14 16  1  0
 16 17  1  0
 16 18  1  0
 18 19  1  0
  5 20  1  0
 20 21  1  0
 20 22  2  0
 22 23  1  0
 23 24  2  0
 23 25  2  0
 23 26  1  0
 26 27  1  0
 27 28  1  0
 28 29  1  0
 29 30  1  0
 29 31  1  0
 31 32  1  0
 22  2  1  0
 32 26  1  0
 15 10  1  0
 19 13  1  0
  1 33  1  0
  1 34  1  0
  1 35  1  0
  3 36  1  0
  4 37  1  0
  6 38  1  0
 11 39  1  0
 12 40  1  0
 15 41  1  0
 17 42  1  0
 17 43  1  0
 17 44  1  0
 18 45  1  0
 18 46  1  0
 19 47  1  0
 19 48  1  0
 26 49  1  0
 27 50  1  0
 27 51  1  0
 28 52  1  0
 28 53  1  0
 30 54  1  0
 30 55  1  0
 30 56  1  0
 31 57  1  0
 31 58  1  0
 32 59  1  0
 32 60  1  0
M  CHG  2   9  -1  21  -1
M  END
>  <UniqueID>  (39) 
37

>  <SMILES>  (39) 
Cc1ccc(NC(=O)[N-]c2ccc3c(c2)N(C)CC3)c([O-])c1S(=O)(=O)C1CCN(C)CC1

>  <Energy>  (39) 
92.34025601530864

>  <Genealogy>  (39) 
Cc1ccc(NC(=O)[N-]c2ccc3c(c2)N(C)CC3)c([O-])c1S(=O)(=O)C1CCN(C)CC1 (protonated)
Cc1ccc(NC(=O)[N-]c2ccc3c(c2)N(C)CC3)c([O-])c1S(=O)(=O)C1CCN(C)CC1 (3D coordinates assigned)
Cc1ccc(NC(=O)[N-]c2ccc3c(c2)N(C)CC3)c([O-])c1S(=O)(=O)C1CCN(C)CC1 (nonaromatic ring conformer: 92.34025601530864 kcal/mol)

>  <smiles>  (39) 
Cc1ccc(NC(=O)Nc2ccc3c(c2)N(C)CC3)c(O)c1S(=O)(=O)C1CCN(C)CC1

>  <score_type>  (39) 
oracle

>  <origin>  (39) 
adgpu

>  <m_score__min__energy>  (39) 
-14.81

>  <m_primary>  (39) 
energy

$$$$
39:0
     RDKit          3D

 41 43  0  0  0  0  0  0  0  0999 V2000
    1.9180   19.9510  -33.4660 C   0  0  0  0  0  0  0  0  0  0  0  0
    0.5450   20.5160  -33.6130 C   0  0  0  0  0  0  0  0  0  0  0  0
   -0.6070   19.9910  -33.0690 C   0  0  0  0  0  0  0  0  0  0  0  0
   -1.5810   20.9020  -33.4350 C   0  0  0  0  0  0  0  0  0  0  0  0
   -3.0310   20.8370  -33.1450 C   0  0  0  0  0  0  0  0  0  0  0  0
   -3.7990   19.7180  -33.4990 C   0  0  0  0  0  0  0  0  0  0  0  0
   -5.1680   19.6880  -33.2310 C   0  0  0  0  0  0  0  0  0  0  0  0
   -5.8060   20.7800  -32.6190 C   0  0  0  0  0  0  0  0  0  0  0  0
   -7.2830   20.6900  -32.3470 C   0  0  0  0  0  0  0  0  0  0  0  0
   -5.0480   21.9350  -32.3080 C   0  0  0  0  0  0  0  0  0  0  0  0
   -5.7710   23.4140  -31.6440 S   0  0  0  0  0  0  0  0  0  0  0  0
   -6.6680   24.0850  -32.6480 O   0  0  0  0  0  0  0  0  0  0  0  0
   -6.5860   23.0450  -30.4370 O   0  0  0  0  0  0  0  0  0  0  0  0
   -4.5210   24.5290  -31.1580 N   0  0  0  0  0  0  0  0  0  0  0  0
   -4.2440   24.4480  -29.7210 C   0  0  0  0  0  0  0  0  0  0  0  0
   -2.9870   23.6580  -29.4540 C   0  0  0  0  0  0  0  0  0  0  0  0
   -3.0530   22.2540  -29.4060 C   0  0  0  0  0  0  0  0  0  0  0  0
   -1.8940   21.4960  -29.2160 C   0  0  0  0  0  0  0  0  0  0  0  0
   -0.6590   22.1320  -29.0720 C   0  0  0  0  0  0  0  0  0  0  0  0
   -0.5820   23.5260  -29.1100 C   0  0  0  0  0  0  0  0  0  0  0  0
   -1.7370   24.2920  -29.2980 C   0  0  0  0  0  0  0  0  0  0  0  0
   -1.6310   25.6780  -29.3400 O   0  0  0  0  0  0  0  0  0  0  0  0
   -3.6630   21.9270  -32.5290 C   0  0  0  0  0  0  0  0  0  0  0  0
   -1.0120   21.8680  -34.1210 O   0  0  0  0  0  0  0  0  0  0  0  0
    0.2700   21.6730  -34.2420 N   0  0  0  0  0  0  0  0  0  0  0  0
    2.1609   19.8510  -32.3978 H   0  0  0  0  0  0  0  0  0  0  0  0
    1.9609   18.9621  -33.9459 H   0  0  0  0  0  0  0  0  0  0  0  0
    2.6445   20.6233  -33.9459 H   0  0  0  0  0  0  0  0  0  0  0  0
   -0.7240   19.0674  -32.4832 H   0  0  0  0  0  0  0  0  0  0  0  0
   -3.3192   18.8590  -33.9908 H   0  0  0  0  0  0  0  0  0  0  0  0
   -5.7551   18.7982  -33.5023 H   0  0  0  0  0  0  0  0  0  0  0  0
   -7.4558   20.6795  -31.2607 H   0  0  0  0  0  0  0  0  0  0  0  0
   -7.7912   21.5588  -32.7907 H   0  0  0  0  0  0  0  0  0  0  0  0
   -7.6819   19.7659  -32.7907 H   0  0  0  0  0  0  0  0  0  0  0  0
   -4.1208   25.4652  -29.3210 H   0  0  0  0  0  0  0  0  0  0  0  0
   -5.0871   23.9393  -29.2308 H   0  0  0  0  0  0  0  0  0  0  0  0
   -4.0236   21.7488  -29.5188 H   0  0  0  0  0  0  0  0  0  0  0  0
   -1.9547   20.3983  -29.1799 H   0  0  0  0  0  0  0  0  0  0  0  0
    0.2535   21.5347  -28.9286 H   0  0  0  0  0  0  0  0  0  0  0  0
    0.3917   24.0238  -28.9915 H   0  0  0  0  0  0  0  0  0  0  0  0
   -3.0611   22.7919  -32.2132 H   0  0  0  0  0  0  0  0  0  0  0  0
  1  2  1  0
  2  3  1  0
  3  4  2  0
  4  5  1  0
  5  6  2  0
  6  7  1  0
  7  8  2  0
  8  9  1  0
  8 10  1  0
 10 11  1  0
 11 12  2  0
 11 13  2  0
 11 14  1  0
 14 15  1  0
 15 16  1  0
 16 17  2  0
 17 18  1  0
 18 19  2  0
 19 20  1  0
 20 21  2  0
 21 22  1  0
 10 23  2  0
  4 24  1  0
 24 25  1  0
 25  2  2  0
 23  5  1  0
 21 16  1  0
  1 26  1  0
  1 27  1  0
  1 28  1  0
  3 29  1  0
  6 30  1  0
  7 31  1  0
  9 32  1  0
  9 33  1  0
  9 34  1  0
 15 35  1  0
 15 36  1  0
 17 37  1  0
 18 38  1  0
 19 39  1  0
 20 40  1  0
 23 41  1  0
M  CHG  2  14  -1  22  -1
M  END
>  <UniqueID>  (40) 
38

>  <SMILES>  (40) 
Cc1cc(-c2ccc(C)c(S(=O)(=O)[N-]Cc3ccccc3[O-])c2)on1

>  <Energy>  (40) 
71.02174075763335

>  <Genealogy>  (40) 
Cc1cc(-c2ccc(C)c(S(=O)(=O)[N-]Cc3ccccc3[O-])c2)on1 (protonated)
Cc1cc(-c2ccc(C)c(S(=O)(=O)[N-]Cc3ccccc3[O-])c2)on1 (3D coordinates assigned)
Cc1cc(-c2ccc(C)c(S(=O)(=O)[N-]Cc3ccccc3[O-])c2)on1 (optimized conformer: 71.02174075763335 kcal/mol)

>  <smiles>  (40) 
Cc1cc(-c2ccc(C)c(S(=O)(=O)NCc3ccccc3O)c2)on1

>  <score_type>  (40) 
oracle

>  <origin>  (40) 
adgpu

>  <m_score__min__energy>  (40) 
-13.34

>  <m_primary>  (40) 
energy

$$$$
40:0
     RDKit          3D

 44 46  0  0  0  0  0  0  0  0999 V2000
   -5.7400   26.1530  -31.2170 O   0  0  0  0  0  0  0  0  0  0  0  0
   -5.2560   25.0330  -30.3400 S   0  0  0  0  0  0  0  0  0  0  0  0
   -5.6600   25.2970  -28.9170 O   0  0  0  0  0  0  0  0  0  0  0  0
   -3.5310   24.8880  -30.4550 N   0  0  0  0  0  0  0  0  0  0  0  0
   -2.6180   24.3570  -29.4790 C   0  0  0  0  0  0  0  0  0  0  0  0
   -2.8390   23.0440  -29.0420 C   0  0  0  0  0  0  0  0  0  0  0  0
   -1.9980   22.4540  -28.0930 C   0  0  0  0  0  0  0  0  0  0  0  0
   -2.2940   20.8100  -27.5570 Cl  0  0  0  0  0  0  0  0  0  0  0  0
   -0.9230   23.1760  -27.5720 C   0  0  0  0  0  0  0  0  0  0  0  0
   -0.6870   24.4820  -28.0000 C   0  0  0  0  0  0  0  0  0  0  0  0
   -1.5220   25.0810  -28.9510 C   0  0  0  0  0  0  0  0  0  0  0  0
   -1.2350   26.3780  -29.3520 O   0  0  0  0  0  0  0  0  0  0  0  0
   -5.9790   23.5200  -30.8730 C   0  0  0  0  0  0  0  0  0  0  0  0
   -7.3410   23.2730  -30.6560 C   0  0  0  0  0  0  0  0  0  0  0  0
   -7.9190   22.0770  -31.0940 C   0  0  0  0  0  0  0  0  0  0  0  0
   -7.1400   21.1210  -31.7610 C   0  0  0  0  0  0  0  0  0  0  0  0
   -7.8750   19.6180  -32.3270 S   0  0  0  0  0  0  0  0  0  0  0  0
   -8.6020   18.9610  -31.1870 O   0  0  0  0  0  0  0  0  0  0  0  0
   -8.8800   19.9360  -33.3990 O   0  0  0  0  0  0  0  0  0  0  0  0
   -6.6780   18.5180  -32.9650 N   0  0  0  0  0  0  0  0  0  0  0  0
   -7.2540   17.1740  -33.1320 C   0  0  0  0  0  0  0  0  0  0  0  0
   -6.1460   16.1530  -33.4510 C   0  0  0  0  0  0  0  0  0  0  0  0
   -4.9060   16.8090  -34.0840 C   0  0  0  0  0  0  0  0  0  0  0  0
   -5.3040   17.9710  -34.9980 C   0  0  0  0  0  0  0  0  0  0  0  0
   -6.1460   19.0280  -34.2460 C   0  0  0  0  0  0  0  0  0  0  0  0
   -5.7780   21.3710  -31.9830 C   0  0  0  0  0  0  0  0  0  0  0  0
   -5.2020   22.5660  -31.5440 C   0  0  0  0  0  0  0  0  0  0  0  0
   -3.6842   22.4705  -29.4503 H   0  0  0  0  0  0  0  0  0  0  0  0
   -0.2619   22.7147  -26.8236 H   0  0  0  0  0  0  0  0  0  0  0  0
    0.1622   25.0463  -27.5871 H   0  0  0  0  0  0  0  0  0  0  0  0
   -7.9582   24.0226  -30.1391 H   0  0  0  0  0  0  0  0  0  0  0  0
   -8.9874   21.8860  -30.9147 H   0  0  0  0  0  0  0  0  0  0  0  0
   -7.7624   16.8791  -32.2022 H   0  0  0  0  0  0  0  0  0  0  0  0
   -7.9726   17.1938  -33.9646 H   0  0  0  0  0  0  0  0  0  0  0  0
   -5.8444   15.6561  -32.5171 H   0  0  0  0  0  0  0  0  0  0  0  0
   -6.5523   15.4344  -34.1780 H   0  0  0  0  0  0  0  0  0  0  0  0
   -4.2525   17.1882  -33.2846 H   0  0  0  0  0  0  0  0  0  0  0  0
   -4.3804   16.0540  -34.6871 H   0  0  0  0  0  0  0  0  0  0  0  0
   -4.3918   18.4501  -35.3832 H   0  0  0  0  0  0  0  0  0  0  0  0
   -5.9144   17.5676  -35.8194 H   0  0  0  0  0  0  0  0  0  0  0  0
   -5.5126   19.9039  -34.0417 H   0  0  0  0  0  0  0  0  0  0  0  0
   -7.0028   19.2898  -34.8842 H   0  0  0  0  0  0  0  0  0  0  0  0
   -5.1613   20.6241  -32.5043 H   0  0  0  0  0  0  0  0  0  0  0  0
   -4.1344   22.7587  -31.7258 H   0  0  0  0  0  0  0  0  0  0  0  0
  1  2  2  0
  2  3  2  0
  2  4  1  0
  4  5  1  0
  5  6  2  0
  6  7  1  0
  7  8  1  0
  7  9  2  0
  9 10  1  0
 10 11  2  0
 11 12  1  0
  2 13  1  0
 13 14  2  0
 14 15  1  0
 15 16  2  0
 16 17  1  0
 17 18  2  0
 17 19  2  0
 17 20  1  0
 20 21  1  0
 21 22  1  0
 22 23  1  0
 23 24  1  0
 24 25  1  0
 16 26  1  0
 26 27  2  0
 11  5  1  0
 27 13  1  0
 25 20  1  0
  6 28  1  0
  9 29  1  0
 10 30  1  0
 14 31  1  0
 15 32  1  0
 21 33  1  0
 21 34  1  0
 22 35  1  0
 22 36  1  0
 23 37  1  0
 23 38  1  0
 24 39  1  0
 24 40  1  0
 25 41  1  0
 25 42  1  0
 26 43  1  0
 27 44  1  0
M  CHG  2   4  -1  12  -1
M  END
>  <UniqueID>  (41) 
39

>  <SMILES>  (41) 
O=S(=O)([N-]c1cc(Cl)ccc1[O-])c1ccc(S(=O)(=O)N2CCCCC2)cc1

>  <Energy>  (41) 
55.393028484401036

>  <Genealogy>  (41) 
O=S(=O)([N-]c1cc(Cl)ccc1[O-])c1ccc(S(=O)(=O)N2CCCCC2)cc1 (protonated)
O=S(=O)([N-]c1cc(Cl)ccc1[O-])c1ccc(S(=O)(=O)N2CCCCC2)cc1 (3D coordinates assigned)
O=S(=O)([N-]c1cc(Cl)ccc1[O-])c1ccc(S(=O)(=O)N2CCCCC2)cc1 (nonaromatic ring conformer: 55.393028484401036 kcal/mol)

>  <smiles>  (41) 
O=S(=O)(Nc1cc(Cl)ccc1O)c1ccc(S(=O)(=O)N2CCCCC2)cc1

>  <score_type>  (41) 
oracle

>  <origin>  (41) 
adgpu

>  <m_score__min__energy>  (41) 
-15.289999999999999

>  <m_primary>  (41) 
energy

$$$$
41:0
     RDKit          3D

 45 48  0  0  1  0  0  0  0  0999 V2000
   -1.0040   26.8950  -27.0290 O   0  0  0  0  0  0  0  0  0  0  0  0
   -1.2960   25.7610  -27.5190 C   0  0  0  0  0  0  0  0  0  0  0  0
   -0.4140   25.0540  -28.2300 N   0  0  0  0  0  0  0  0  0  0  0  0
   -0.7850   23.8530  -28.7250 C   0  0  0  0  0  0  0  0  0  0  0  0
    0.1530   23.1560  -29.4550 O   0  0  0  0  0  0  0  0  0  0  0  0
   -2.0380   23.3130  -28.5310 C   0  0  0  0  0  0  0  0  0  0  0  0
   -2.4780   22.0080  -29.0630 C   0  0  2  0  0  0  0  0  0  0  0  0
   -2.0400   20.8180  -28.3250 C   0  0  0  0  0  0  0  0  0  0  0  0
   -3.0310   20.1470  -27.5870 C   0  0  0  0  0  0  0  0  0  0  0  0
   -2.7270   19.0340  -26.8310 C   0  0  0  0  0  0  0  0  0  0  0  0
   -1.4380   18.5370  -26.7730 C   0  0  0  0  0  0  0  0  0  0  0  0
   -0.4510   19.1800  -27.4920 C   0  0  0  0  0  0  0  0  0  0  0  0
   -0.7830   20.2960  -28.2420 C   0  0  0  0  0  0  0  0  0  0  0  0
   -2.5920   21.8910  -30.5110 C   0  0  0  0  0  0  0  0  0  0  0  0
   -3.5430   22.2900  -31.4190 C   0  0  0  0  0  0  0  0  0  0  0  0
   -4.7940   22.9910  -31.2920 C   0  0  0  0  0  0  0  0  0  0  0  0
   -5.9570   22.2100  -31.4100 C   0  0  0  0  0  0  0  0  0  0  0  0
   -7.2140   22.7160  -31.2460 C   0  0  0  0  0  0  0  0  0  0  0  0
   -8.7450   21.5620  -31.4290 Br  0  0  0  0  0  0  0  0  0  0  0  0
   -7.4180   24.0450  -30.9510 C   0  0  0  0  0  0  0  0  0  0  0  0
   -6.3000   24.8310  -30.8300 C   0  0  0  0  0  0  0  0  0  0  0  0
   -5.0030   24.3040  -30.9980 C   0  0  0  0  0  0  0  0  0  0  0  0
   -3.9870   25.2000  -30.8350 O   0  0  0  0  0  0  0  0  0  0  0  0
   -3.0520   21.9690  -32.6650 N   0  0  0  0  0  0  0  0  0  0  0  0
   -1.8910   21.4080  -32.5980 N   0  0  0  0  0  0  0  0  0  0  0  0
   -1.5660   21.3360  -31.3040 C   0  0  0  0  0  0  0  0  0  0  0  0
   -0.4790   20.8310  -30.9100 O   0  0  0  0  0  0  0  0  0  0  0  0
   -2.9290   24.0660  -27.7950 C   0  0  0  0  0  0  0  0  0  0  0  0
   -4.0970   23.7350  -27.5280 O   0  0  0  0  0  0  0  0  0  0  0  0
   -2.5250   25.2780  -27.3070 N   0  0  0  0  0  0  0  0  0  0  0  0
    0.5490   25.4250  -28.4010 H   0  0  0  0  0  0  0  0  0  0  0  0
    0.0690   22.1780  -29.6610 H   0  0  0  0  0  0  0  0  0  0  0  0
   -3.5447   22.0233  -28.7948 H   0  0  0  0  0  0  0  0  0  0  0  0
   -4.0669   20.5161  -27.6130 H   0  0  0  0  0  0  0  0  0  0  0  0
   -3.5249   18.5325  -26.2637 H   0  0  0  0  0  0  0  0  0  0  0  0
   -1.2045   17.6490  -26.1673 H   0  0  0  0  0  0  0  0  0  0  0  0
    0.5851   18.8112  -27.4697 H   0  0  0  0  0  0  0  0  0  0  0  0
    0.0190   20.7933  -28.8072 H   0  0  0  0  0  0  0  0  0  0  0  0
   -5.8489   21.1410  -31.6455 H   0  0  0  0  0  0  0  0  0  0  0  0
   -8.4292   24.4572  -30.8186 H   0  0  0  0  0  0  0  0  0  0  0  0
   -6.4185   25.8993  -30.5960 H   0  0  0  0  0  0  0  0  0  0  0  0
   -3.5230   25.6710  -31.5960 H   0  0  0  0  0  0  0  0  0  0  0  0
   -3.5460   22.1470  -33.5920 H   0  0  0  0  0  0  0  0  0  0  0  0
   -1.3100   21.0710  -33.4070 H   0  0  0  0  0  0  0  0  0  0  0  0
   -3.1990   25.8650  -26.7390 H   0  0  0  0  0  0  0  0  0  0  0  0
  1  2  2  0
  2  3  1  0
  3  4  1  0
  4  5  1  0
  4  6  2  0
  6  7  1  0
  7  8  1  0
  8  9  2  0
  9 10  1  0
 10 11  2  0
 11 12  1  0
 12 13  2  0
  7 14  1  0
 14 15  2  0
 15 16  1  0
 16 17  2  0
 17 18  1  0
 18 19  1  0
 18 20  2  0
 20 21  1  0
 21 22  2  0
 22 23  1  0
 15 24  1  0
 24 25  1  0
 25 26  1  0
 26 27  2  0
  6 28  1  0
 28 29  2  0
 28 30  1  0
 30  2  1  0
 13  8  1  0
 26 14  1  0
 22 16  1  0
  3 31  1  0
  5 32  1  0
  7 33  1  1
  9 34  1  0
 10 35  1  0
 11 36  1  0
 12 37  1  0
 13 38  1  0
 17 39  1  0
 20 40  1  0
 21 41  1  0
 23 42  1  0
 24 43  1  0
 25 44  1  0
 30 45  1  0
M  END
>  <smiles>  (42) 
O=c1[nH]c(O)c(C(c2ccccc2)c2c(-c3cc(Br)ccc3O)[nH][nH]c2=O)c(=O)[nH]1

>  <score_type>  (42) 
oracle

>  <origin>  (42) 
adgpu

>  <m_score__min__energy>  (42) 
-10.24

>  <m_primary>  (42) 
energy

$$$$
42:0
     RDKit          3D

 38 40  0  0  0  0  0  0  0  0999 V2000
    0.5020   20.9710  -31.6370 O   0  0  0  0  0  0  0  0  0  0  0  0
   -0.6390   21.4730  -31.4680 C   0  0  0  0  0  0  0  0  0  0  0  0
   -0.9410   22.1500  -30.2890 C   0  0  0  0  0  0  0  0  0  0  0  0
   -2.2180   22.6880  -30.1390 C   0  0  0  0  0  0  0  0  0  0  0  0
   -3.1490   22.5480  -31.1280 N   0  0  0  0  0  0  0  0  0  0  0  0
   -4.4590   23.1160  -30.9420 C   0  0  0  0  0  0  0  0  0  0  0  0
   -5.5980   22.3130  -31.1100 C   0  0  0  0  0  0  0  0  0  0  0  0
   -6.8810   22.8550  -30.9500 C   0  0  0  0  0  0  0  0  0  0  0  0
   -8.3060   21.8380  -31.1790 S   0  0  0  0  0  0  0  0  0  0  0  0
   -9.1360   21.8680  -29.9250 O   0  0  0  0  0  0  0  0  0  0  0  0
   -9.1370   22.3960  -32.3010 O   0  0  0  0  0  0  0  0  0  0  0  0
   -7.8710   20.1860  -31.5440 N   0  0  0  0  0  0  0  0  0  0  0  0
   -9.0370   19.2940  -31.3920 C   0  0  0  0  0  0  0  0  0  0  0  0
   -8.7630   17.9040  -32.0050 C   0  0  0  0  0  0  0  0  0  0  0  0
   -7.3810   17.7110  -32.2320 O   0  0  0  0  0  0  0  0  0  0  0  0
   -6.9240   18.6200  -33.2190 C   0  0  0  0  0  0  0  0  0  0  0  0
   -7.3110   20.0830  -32.9030 C   0  0  0  0  0  0  0  0  0  0  0  0
   -7.0230   24.2080  -30.6150 C   0  0  0  0  0  0  0  0  0  0  0  0
   -5.8940   25.0140  -30.4510 C   0  0  0  0  0  0  0  0  0  0  0  0
   -4.6150   24.4770  -30.6200 C   0  0  0  0  0  0  0  0  0  0  0  0
   -3.5030   25.3000  -30.4810 O   0  0  0  0  0  0  0  0  0  0  0  0
   -2.8220   21.8870  -32.2840 C   0  0  0  0  0  0  0  0  0  0  0  0
   -3.6590   21.7710  -33.2210 O   0  0  0  0  0  0  0  0  0  0  0  0
   -1.5810   21.3570  -32.4390 N   0  0  0  0  0  0  0  0  0  0  0  0
   -0.1885   22.2577  -29.4939 H   0  0  0  0  0  0  0  0  0  0  0  0
   -2.4777   23.2293  -29.2173 H   0  0  0  0  0  0  0  0  0  0  0  0
   -5.4830   21.2502  -31.3692 H   0  0  0  0  0  0  0  0  0  0  0  0
   -7.1340   19.9040  -30.8540 H   0  0  0  0  0  0  0  0  0  0  0  0
   -9.2607   19.1758  -30.3215 H   0  0  0  0  0  0  0  0  0  0  0  0
   -9.8902   19.7445  -31.9202 H   0  0  0  0  0  0  0  0  0  0  0  0
   -9.1252   17.1288  -31.3137 H   0  0  0  0  0  0  0  0  0  0  0  0
   -9.2879   17.8380  -32.9694 H   0  0  0  0  0  0  0  0  0  0  0  0
   -5.8279   18.5509  -33.2814 H   0  0  0  0  0  0  0  0  0  0  0  0
   -7.4020   18.3467  -34.1712 H   0  0  0  0  0  0  0  0  0  0  0  0
   -6.4157   20.7180  -32.9748 H   0  0  0  0  0  0  0  0  0  0  0  0
   -8.0699   20.4148  -33.6269 H   0  0  0  0  0  0  0  0  0  0  0  0
   -8.0270   24.6370  -30.4807 H   0  0  0  0  0  0  0  0  0  0  0  0
   -6.0122   26.0755  -30.1878 H   0  0  0  0  0  0  0  0  0  0  0  0
  1  2  2  0
  2  3  1  0
  3  4  2  0
  4  5  1  0
  5  6  1  0
  6  7  2  0
  7  8  1  0
  8  9  1  0
  9 10  2  0
  9 11  2  0
  9 12  1  0
 12 13  1  0
 13 14  1  0
 14 15  1  0
 15 16  1  0
 16 17  1  0
  8 18  2  0
 18 19  1  0
 19 20  2  0
 20 21  1  0
  5 22  1  0
 22 23  2  0
 22 24  1  0
 24  2  1  0
 20  6  1  0
 17 12  1  0
  3 25  1  0
  4 26  1  0
  7 27  1  0
 12 28  1  0
 13 29  1  0
 13 30  1  0
 14 31  1  0
 14 32  1  0
 16 33  1  0
 16 34  1  0
 17 35  1  0
 17 36  1  0
 18 37  1  0
 19 38  1  0
M  CHG  3  12   1  21  -1  24  -1
M  END
>  <UniqueID>  (43) 
40

>  <SMILES>  (43) 
O=c1ccn(-c2cc(S(=O)(=O)[NH+]3CCOCC3)ccc2[O-])c(=O)[n-]1

>  <Energy>  (43) 
56.49062312037403

>  <Genealogy>  (43) 
O=c1ccn(-c2cc(S(=O)(=O)[NH+]3CCOCC3)ccc2[O-])c(=O)[n-]1 (protonated)
O=c1ccn(-c2cc(S(=O)(=O)[NH+]3CCOCC3)ccc2[O-])c(=O)[n-]1 (3D coordinates assigned)
O=c1ccn(-c2cc(S(=O)(=O)[NH+]3CCOCC3)ccc2[O-])c(=O)[n-]1 (nonaromatic ring conformer: 56.49062312037403 kcal/mol)

>  <smiles>  (43) 
O=c1ccn(-c2cc(S(=O)(=O)N3CCOCC3)ccc2O)c(=O)[nH]1

>  <score_type>  (43) 
oracle

>  <origin>  (43) 
adgpu

>  <m_score__min__energy>  (43) 
-11

>  <m_primary>  (43) 
energy

$$$$
43:0
     RDKit          3D

 48 51  0  0  0  0  0  0  0  0999 V2000
   -4.2140   24.9550  -30.8640 N   0  0  0  0  0  0  0  0  0  0  0  0
   -4.7720   24.3360  -29.3480 S   0  0  0  0  0  0  0  0  0  0  0  0
   -5.5150   23.0510  -29.5780 O   0  0  0  0  0  0  0  0  0  0  0  0
   -5.7050   25.3250  -28.7090 O   0  0  0  0  0  0  0  0  0  0  0  0
   -3.3940   24.0540  -28.2900 C   0  0  0  0  0  0  0  0  0  0  0  0
   -3.1950   24.8720  -27.1700 C   0  0  0  0  0  0  0  0  0  0  0  0
   -2.0980   24.6600  -26.3330 C   0  0  0  0  0  0  0  0  0  0  0  0
   -1.1920   23.6320  -26.6080 C   0  0  0  0  0  0  0  0  0  0  0  0
   -1.3800   22.8050  -27.7300 C   0  0  0  0  0  0  0  0  0  0  0  0
   -0.4770   21.7370  -28.0520 N   0  0  0  0  0  0  0  0  0  0  0  0
   -0.9430   20.1990  -28.7000 S   0  0  0  0  0  0  0  0  0  0  0  0
   -0.0360   19.1350  -28.1500 O   0  0  0  0  0  0  0  0  0  0  0  0
   -2.3560   19.8970  -28.2850 O   0  0  0  0  0  0  0  0  0  0  0  0
   -0.7950   20.2210  -30.4540 C   0  0  0  0  0  0  0  0  0  0  0  0
    0.3130   19.6200  -31.0640 C   0  0  0  0  0  0  0  0  0  0  0  0
    0.4600   19.6610  -32.4520 C   0  0  0  0  0  0  0  0  0  0  0  0
   -0.5030   20.2940  -33.2460 C   0  0  0  0  0  0  0  0  0  0  0  0
   -0.2270   20.4010  -34.9810 Cl  0  0  0  0  0  0  0  0  0  0  0  0
   -1.6360   20.8780  -32.6420 C   0  0  0  0  0  0  0  0  0  0  0  0
   -2.6390   21.5470  -33.4210 N   0  0  0  0  0  0  0  0  0  0  0  0
   -4.0290   21.6070  -33.0630 C   0  0  0  0  0  0  0  0  0  0  0  0
   -4.8340   20.4560  -33.0420 C   0  0  0  0  0  0  0  0  0  0  0  0
   -6.1820   20.5610  -32.6760 C   0  0  0  0  0  0  0  0  0  0  0  0
   -7.0060   19.4240  -32.6570 C   0  0  0  0  0  0  0  0  0  0  0  0
   -8.3490   19.5370  -32.2890 C   0  0  0  0  0  0  0  0  0  0  0  0
   -8.8800   20.7800  -31.9390 C   0  0  0  0  0  0  0  0  0  0  0  0
   -8.0710   21.9200  -31.9550 C   0  0  0  0  0  0  0  0  0  0  0  0
   -6.7160   21.8220  -32.3220 C   0  0  0  0  0  0  0  0  0  0  0  0
   -5.8680   22.9450  -32.3450 C   0  0  0  0  0  0  0  0  0  0  0  0
   -6.3020   24.0900  -32.0410 O   0  0  0  0  0  0  0  0  0  0  0  0
   -4.5660   22.8050  -32.7070 N   0  0  0  0  0  0  0  0  0  0  0  0
   -1.7630   20.8520  -31.2460 C   0  0  0  0  0  0  0  0  0  0  0  0
   -2.4810   23.0270  -28.5680 C   0  0  0  0  0  0  0  0  0  0  0  0
   -4.1720   24.1490  -31.5270 H   0  0  0  0  0  0  0  0  0  0  0  0
   -4.9560   25.5990  -31.2220 H   0  0  0  0  0  0  0  0  0  0  0  0
   -3.9047   25.6830  -26.9497 H   0  0  0  0  0  0  0  0  0  0  0  0
   -1.9462   25.3041  -25.4543 H   0  0  0  0  0  0  0  0  0  0  0  0
   -0.3294   23.4692  -25.9451 H   0  0  0  0  0  0  0  0  0  0  0  0
    1.0704   19.1137  -30.4475 H   0  0  0  0  0  0  0  0  0  0  0  0
    1.3370   19.1935  -32.9236 H   0  0  0  0  0  0  0  0  0  0  0  0
   -2.3220   22.1090  -34.2420 H   0  0  0  0  0  0  0  0  0  0  0  0
   -4.4083   19.4781  -33.3114 H   0  0  0  0  0  0  0  0  0  0  0  0
   -6.5931   18.4423  -32.9325 H   0  0  0  0  0  0  0  0  0  0  0  0
   -8.9904   18.6435  -32.2749 H   0  0  0  0  0  0  0  0  0  0  0  0
   -9.9381   20.8625  -31.6498 H   0  0  0  0  0  0  0  0  0  0  0  0
   -8.4951   22.8970  -31.6798 H   0  0  0  0  0  0  0  0  0  0  0  0
   -2.6303   21.3313  -30.7684 H   0  0  0  0  0  0  0  0  0  0  0  0
   -2.6303   22.3896  -29.4520 H   0  0  0  0  0  0  0  0  0  0  0  0
  1  2  1  0
  2  3  2  0
  2  4  2  0
  2  5  1  0
  5  6  2  0
  6  7  1  0
  7  8  2  0
  8  9  1  0
  9 10  1  0
 10 11  1  0
 11 12  2  0
 11 13  2  0
 11 14  1  0
 14 15  2  0
 15 16  1  0
 16 17  2  0
 17 18  1  0
 17 19  1  0
 19 20  1  0
 20 21  1  0
 21 22  2  0
 22 23  1  0
 23 24  2  0
 24 25  1  0
 25 26  2  0
 26 27  1  0
 27 28  2  0
 28 29  1  0
 29 30  2  0
 29 31  1  0
 19 32  2  0
  9 33  2  0
 33  5  1  0
 32 14  1  0
 31 21  1  0
 28 23  1  0
  1 34  1  0
  1 35  1  0
  6 36  1  0
  7 37  1  0
  8 38  1  0
 15 39  1  0
 16 40  1  0
 20 41  1  0
 22 42  1  0
 24 43  1  0
 25 44  1  0
 26 45  1  0
 27 46  1  0
 32 47  1  0
 33 48  1  0
M  CHG  2  10  -1  31  -1
M  END
>  <UniqueID>  (44) 
41

>  <SMILES>  (44) 
NS(=O)(=O)c1cccc([N-]S(=O)(=O)c2ccc(Cl)c(Nc3cc4ccccc4c(=O)[n-]3)c2)c1

>  <Energy>  (44) 
66.66041003651596

>  <Genealogy>  (44) 
NS(=O)(=O)c1cccc([N-]S(=O)(=O)c2ccc(Cl)c(Nc3cc4ccccc4c(=O)[n-]3)c2)c1 (protonated)
NS(=O)(=O)c1cccc([N-]S(=O)(=O)c2ccc(Cl)c(Nc3cc4ccccc4c(=O)[n-]3)c2)c1 (3D coordinates assigned)
NS(=O)(=O)c1cccc([N-]S(=O)(=O)c2ccc(Cl)c(Nc3cc4ccccc4c(=O)[n-]3)c2)c1 (optimized conformer: 66.66041003651596 kcal/mol)

>  <smiles>  (44) 
NS(=O)(=O)c1cccc(NS(=O)(=O)c2ccc(Cl)c(Nc3cc4ccccc4c(=O)[nH]3)c2)c1

>  <score_type>  (44) 
oracle

>  <origin>  (44) 
adgpu

>  <m_score__min__energy>  (44) 
-11.81

>  <m_primary>  (44) 
energy

$$$$
44:0
     RDKit          3D

 57 59  0  0  0  0  0  0  0  0999 V2000
   -9.4330   21.8380  -30.8650 C   0  0  0  0  0  0  0  0  0  0  0  0
   -8.1540   21.2370  -30.6930 O   0  0  0  0  0  0  0  0  0  0  0  0
   -7.5480   20.3680  -31.6160 C   0  0  0  0  0  0  0  0  0  0  0  0
   -8.1960   19.2030  -32.0680 C   0  0  0  0  0  0  0  0  0  0  0  0
   -7.5870   18.3730  -33.0110 C   0  0  0  0  0  0  0  0  0  0  0  0
   -6.3200   18.6870  -33.5200 C   0  0  0  0  0  0  0  0  0  0  0  0
   -5.6600   17.7830  -34.5370 C   0  0  0  0  0  0  0  0  0  0  0  0
   -4.2950   18.2190  -34.8790 N   0  0  0  0  0  0  0  0  0  0  0  0
   -3.2560   17.2360  -34.5260 C   0  0  0  0  0  0  0  0  0  0  0  0
   -2.7260   17.4810  -33.1090 C   0  0  0  0  0  0  0  0  0  0  0  0
   -1.9860   18.7850  -33.0060 C   0  0  0  0  0  0  0  0  0  0  0  0
   -1.0500   19.0070  -31.9850 C   0  0  0  0  0  0  0  0  0  0  0  0
   -0.4090   20.2450  -31.9000 C   0  0  0  0  0  0  0  0  0  0  0  0
   -0.7050   21.2450  -32.8270 C   0  0  0  0  0  0  0  0  0  0  0  0
   -1.6430   20.9920  -33.8300 C   0  0  0  0  0  0  0  0  0  0  0  0
   -2.2580   19.7810  -33.8970 N   0  0  0  0  0  0  0  0  0  0  0  0
   -5.6670   19.8450  -33.0720 C   0  0  0  0  0  0  0  0  0  0  0  0
   -6.2650   20.6840  -32.1160 C   0  0  0  0  0  0  0  0  0  0  0  0
   -5.5400   21.8890  -31.6480 C   0  0  0  0  0  0  0  0  0  0  0  0
   -4.1500   21.8530  -31.4570 C   0  0  0  0  0  0  0  0  0  0  0  0
   -3.4610   22.9850  -30.9950 C   0  0  0  0  0  0  0  0  0  0  0  0
   -2.0430   22.9710  -30.7670 N   0  0  0  0  0  0  0  0  0  0  0  0
   -1.2540   23.2110  -29.2400 S   0  0  0  0  0  0  0  0  0  0  0  0
   -2.4440   23.1910  -27.9160 C   0  0  0  0  0  0  0  0  0  0  0  0
   -0.5770   24.5520  -29.2560 O   0  0  0  0  0  0  0  0  0  0  0  0
   -0.2140   22.1490  -29.0290 O   0  0  0  0  0  0  0  0  0  0  0  0
   -4.1710   24.1680  -30.7460 C   0  0  0  0  0  0  0  0  0  0  0  0
   -3.4950   25.2970  -30.2940 O   0  0  0  0  0  0  0  0  0  0  0  0
   -5.5550   24.2280  -30.9510 C   0  0  0  0  0  0  0  0  0  0  0  0
   -6.2170   25.4390  -30.6940 O   0  0  0  0  0  0  0  0  0  0  0  0
   -6.4770   25.9560  -29.3930 C   0  0  0  0  0  0  0  0  0  0  0  0
   -6.2370   23.0820  -31.4020 C   0  0  0  0  0  0  0  0  0  0  0  0
   -9.8758   22.0461  -29.8798 H   0  0  0  0  0  0  0  0  0  0  0  0
   -9.3238   22.7790  -31.4240 H   0  0  0  0  0  0  0  0  0  0  0  0
  -10.0877   21.1533  -31.4240 H   0  0  0  0  0  0  0  0  0  0  0  0
   -9.1903   18.9445  -31.6750 H   0  0  0  0  0  0  0  0  0  0  0  0
   -8.1054   17.4665  -33.3567 H   0  0  0  0  0  0  0  0  0  0  0  0
   -5.6118   16.7644  -34.1246 H   0  0  0  0  0  0  0  0  0  0  0  0
   -6.2623   17.8195  -35.4567 H   0  0  0  0  0  0  0  0  0  0  0  0
   -4.0950   19.1210  -34.3850 H   0  0  0  0  0  0  0  0  0  0  0  0
   -3.6849   16.2245  -34.5796 H   0  0  0  0  0  0  0  0  0  0  0  0
   -2.4212   17.3390  -35.2348 H   0  0  0  0  0  0  0  0  0  0  0  0
   -3.5748   17.4974  -32.4096 H   0  0  0  0  0  0  0  0  0  0  0  0
   -2.0248   16.6703  -32.8620 H   0  0  0  0  0  0  0  0  0  0  0  0
   -0.8229   18.2133  -31.2580 H   0  0  0  0  0  0  0  0  0  0  0  0
    0.3273   20.4312  -31.1043 H   0  0  0  0  0  0  0  0  0  0  0  0
   -0.2045   22.2228  -32.7683 H   0  0  0  0  0  0  0  0  0  0  0  0
   -1.8846   21.7727  -34.5663 H   0  0  0  0  0  0  0  0  0  0  0  0
   -4.6751   20.0994  -33.4737 H   0  0  0  0  0  0  0  0  0  0  0  0
   -3.5949   20.9279  -31.6716 H   0  0  0  0  0  0  0  0  0  0  0  0
   -1.9179   23.1998  -26.9500 H   0  0  0  0  0  0  0  0  0  0  0  0
   -3.0898   24.0784  -27.9900 H   0  0  0  0  0  0  0  0  0  0  0  0
   -3.0596   22.2824  -27.9900 H   0  0  0  0  0  0  0  0  0  0  0  0
   -6.1182   25.2426  -28.6365 H   0  0  0  0  0  0  0  0  0  0  0  0
   -5.9544   26.9159  -29.2687 H   0  0  0  0  0  0  0  0  0  0  0  0
   -7.5592   26.1089  -29.2687 H   0  0  0  0  0  0  0  0  0  0  0  0
   -7.3245   23.1219  -31.5628 H   0  0  0  0  0  0  0  0  0  0  0  0
  1  2  1  0
  2  3  1  0
  3  4  2  0
  4  5  1  0
  5  6  2  0
  6  7  1  0
  7  8  1  0
  8  9  1  0
  9 10  1  0
 10 11  1  0
 11 12  2  0
 12 13  1  0
 13 14  2  0
 14 15  1  0
 15 16  2  0
  6 17  1  0
 17 18  2  0
 18 19  1  0
 19 20  2  0
 20 21  1  0
 21 22  1  0
 22 23  1  0
 23 24  1  0
 23 25  2  0
 23 26  2  0
 21 27  2  0
 27 28  1  0
 27 29  1  0
 29 30  1  0
 30 31  1  0
 29 32  2  0
 18  3  1  0
 32 19  1  0
 16 11  1  0
  1 33  1  0
  1 34  1  0
  1 35  1  0
  4 36  1  0
  5 37  1  0
  7 38  1  0
  7 39  1  0
  8 40  1  0
  9 41  1  0
  9 42  1  0
 10 43  1  0
 10 44  1  0
 12 45  1  0
 13 46  1  0
 14 47  1  0
 15 48  1  0
 17 49  1  0
 20 50  1  0
 24 51  1  0
 24 52  1  0
 24 53  1  0
 31 54  1  0
 31 55  1  0
 31 56  1  0
 32 57  1  0
M  CHG  2  22  -1  28  -1
M  END
>  <UniqueID>  (45) 
42

>  <SMILES>  (45) 
COc1ccc(CNCCc2ccccn2)cc1-c1cc([N-]S(C)(=O)=O)c([O-])c(OC)c1

>  <Energy>  (45) 
62.016700706683245

>  <Genealogy>  (45) 
COc1ccc(CNCCc2ccccn2)cc1-c1cc([N-]S(C)(=O)=O)c([O-])c(OC)c1 (protonated)
COc1ccc(CNCCc2ccccn2)cc1-c1cc([N-]S(C)(=O)=O)c([O-])c(OC)c1 (3D coordinates assigned)
COc1ccc(CNCCc2ccccn2)cc1-c1cc([N-]S(C)(=O)=O)c([O-])c(OC)c1 (optimized conformer: 62.016700706683245 kcal/mol)

>  <smiles>  (45) 
COc1ccc(CNCCc2ccccn2)cc1-c1cc(NS(C)(=O)=O)c(O)c(OC)c1

>  <score_type>  (45) 
oracle

>  <origin>  (45) 
adgpu

>  <m_score__min__energy>  (45) 
-12.52

>  <m_primary>  (45) 
energy

$$$$
45:0
     RDKit          3D

 37 39  0  0  0  0  0  0  0  0999 V2000
   -6.3050   26.0380  -30.0700 O   0  0  0  0  0  0  0  0  0  0  0  0
   -5.3000   24.9240  -30.1730 S   0  0  0  0  0  0  0  0  0  0  0  0
   -4.2510   25.3010  -31.1810 O   0  0  0  0  0  0  0  0  0  0  0  0
   -4.5530   24.6890  -28.6250 N   0  0  0  0  0  0  0  0  0  0  0  0
   -3.3810   23.8770  -28.4250 C   0  0  0  0  0  0  0  0  0  0  0  0
   -3.4740   22.5900  -27.8620 C   0  0  0  0  0  0  0  0  0  0  0  0
   -2.3270   21.7990  -27.7060 C   0  0  0  0  0  0  0  0  0  0  0  0
   -1.0730   22.2970  -28.0860 C   0  0  0  0  0  0  0  0  0  0  0  0
   -0.9700   23.5910  -28.6130 C   0  0  0  0  0  0  0  0  0  0  0  0
   -2.1140   24.3740  -28.7880 C   0  0  0  0  0  0  0  0  0  0  0  0
   -1.9850   25.6470  -29.3330 O   0  0  0  0  0  0  0  0  0  0  0  0
    0.1470   21.4510  -27.8400 C   0  0  0  0  0  0  0  0  0  0  0  0
   -0.0960   19.9700  -28.2050 C   0  0  0  0  0  0  0  0  0  0  0  0
   -1.5330   19.4520  -27.9290 C   0  0  0  0  0  0  0  0  0  0  0  0
   -2.4020   20.4200  -27.1120 C   0  0  0  0  0  0  0  0  0  0  0  0
   -6.0740   23.4310  -30.6980 C   0  0  0  0  0  0  0  0  0  0  0  0
   -5.5080   22.6530  -31.7190 C   0  0  0  0  0  0  0  0  0  0  0  0
   -6.1470   21.4840  -32.1460 C   0  0  0  0  0  0  0  0  0  0  0  0
   -7.3490   21.0870  -31.5550 C   0  0  0  0  0  0  0  0  0  0  0  0
   -7.9160   21.8570  -30.5350 C   0  0  0  0  0  0  0  0  0  0  0  0
   -7.2790   23.0250  -30.1050 C   0  0  0  0  0  0  0  0  0  0  0  0
   -4.9190   25.2690  -27.8360 H   0  0  0  0  0  0  0  0  0  0  0  0
   -4.4527   22.2026  -27.5425 H   0  0  0  0  0  0  0  0  0  0  0  0
    0.0159   23.9924  -28.8903 H   0  0  0  0  0  0  0  0  0  0  0  0
    0.9763   21.8365  -28.4513 H   0  0  0  0  0  0  0  0  0  0  0  0
    0.3873   21.5029  -26.7678 H   0  0  0  0  0  0  0  0  0  0  0  0
    0.1113   19.8449  -29.2780 H   0  0  0  0  0  0  0  0  0  0  0  0
    0.5717   19.3813  -27.5588 H   0  0  0  0  0  0  0  0  0  0  0  0
   -2.0280   19.2749  -28.8952 H   0  0  0  0  0  0  0  0  0  0  0  0
   -1.4303   18.5351  -27.3301 H   0  0  0  0  0  0  0  0  0  0  0  0
   -3.4458   20.0732  -27.1253 H   0  0  0  0  0  0  0  0  0  0  0  0
   -2.0342   20.4510  -26.0758 H   0  0  0  0  0  0  0  0  0  0  0  0
   -4.5606   22.9625  -32.1844 H   0  0  0  0  0  0  0  0  0  0  0  0
   -5.7024   20.8766  -32.9481 H   0  0  0  0  0  0  0  0  0  0  0  0
   -7.8499   20.1676  -31.8925 H   0  0  0  0  0  0  0  0  0  0  0  0
   -8.8629   21.5440  -30.0710 H   0  0  0  0  0  0  0  0  0  0  0  0
   -7.7239   23.6274  -29.2993 H   0  0  0  0  0  0  0  0  0  0  0  0
  1  2  2  0
  2  3  2  0
  2  4  1  0
  4  5  1  0
  5  6  2  0
  6  7  1  0
  7  8  2  0
  8  9  1  0
  9 10  2  0
 10 11  1  0
  8 12  1  0
 12 13  1  0
 13 14  1  0
 14 15  1  0
  2 16  1  0
 16 17  2  0
 17 18  1  0
 18 19  2  0
 19 20  1  0
 20 21  2  0
 10  5  1  0
 21 16  1  0
 15  7  1  0
  4 22  1  0
  6 23  1  0
  9 24  1  0
 12 25  1  0
 12 26  1  0
 13 27  1  0
 13 28  1  0
 14 29  1  0
 14 30  1  0
 15 31  1  0
 15 32  1  0
 17 33  1  0
 18 34  1  0
 19 35  1  0
 20 36  1  0
 21 37  1  0
M  CHG  1  11  -1
M  END
>  <UniqueID>  (46) 
43

>  <SMILES>  (46) 
O=S(=O)(Nc1cc2c(cc1[O-])CCCC2)c1ccccc1

>  <Energy>  (46) 
45.96498552199779

>  <Genealogy>  (46) 
O=S(=O)(Nc1cc2c(cc1[O-])CCCC2)c1ccccc1 (protonated)
O=S(=O)(Nc1cc2c(cc1[O-])CCCC2)c1ccccc1 (3D coordinates assigned)
O=S(=O)(Nc1cc2c(cc1[O-])CCCC2)c1ccccc1 (nonaromatic ring conformer: 45.96498552199779 kcal/mol)

>  <smiles>  (46) 
O=S(=O)(Nc1cc2c(cc1O)CCCC2)c1ccccc1

>  <score_type>  (46) 
oracle

>  <origin>  (46) 
adgpu

>  <m_score__min__energy>  (46) 
-11.970000000000001

>  <m_primary>  (46) 
energy

$$$$
46:0
     RDKit          3D

 47 50  0  0  0  0  0  0  0  0999 V2000
   -1.4850   18.8680  -26.8240 O   0  0  0  0  0  0  0  0  0  0  0  0
   -0.9610   19.8600  -27.4010 C   0  0  0  0  0  0  0  0  0  0  0  0
   -0.9080   21.1310  -26.7400 N   0  0  0  0  0  0  0  0  0  0  0  0
   -1.1020   22.4180  -27.3460 C   0  0  0  0  0  0  0  0  0  0  0  0
   -0.3380   23.4950  -26.8870 C   0  0  0  0  0  0  0  0  0  0  0  0
   -0.5080   24.7660  -27.4360 C   0  0  0  0  0  0  0  0  0  0  0  0
   -1.4570   24.9830  -28.4390 C   0  0  0  0  0  0  0  0  0  0  0  0
   -1.5930   26.2640  -28.9640 O   0  0  0  0  0  0  0  0  0  0  0  0
   -2.2580   23.9150  -28.8990 C   0  0  0  0  0  0  0  0  0  0  0  0
   -3.2880   24.1110  -29.9480 C   0  0  0  0  0  0  0  0  0  0  0  0
   -3.8920   25.2870  -30.2070 N   0  0  0  0  0  0  0  0  0  0  0  0
   -4.7290   25.0290  -31.1990 N   0  0  0  0  0  0  0  0  0  0  0  0
   -4.6450   23.7520  -31.5330 N   0  0  0  0  0  0  0  0  0  0  0  0
   -3.7500   23.1480  -30.7680 N   0  0  0  0  0  0  0  0  0  0  0  0
   -2.0760   22.6370  -28.3370 C   0  0  0  0  0  0  0  0  0  0  0  0
   -0.4500   19.7220  -28.7860 C   0  0  0  0  0  0  0  0  0  0  0  0
    0.8240   19.1760  -29.0280 C   0  0  0  0  0  0  0  0  0  0  0  0
    1.3030   19.0470  -30.3350 C   0  0  0  0  0  0  0  0  0  0  0  0
    0.5160   19.4560  -31.4200 C   0  0  0  0  0  0  0  0  0  0  0  0
    1.1210   19.3230  -33.0700 S   0  0  0  0  0  0  0  0  0  0  0  0
    2.5340   18.8060  -33.0540 O   0  0  0  0  0  0  0  0  0  0  0  0
    0.2660   18.3320  -33.8090 O   0  0  0  0  0  0  0  0  0  0  0  0
    1.0460   20.8710  -33.8840 N   0  0  0  0  0  0  0  0  0  0  0  0
    2.2450   21.1280  -34.7060 C   0  0  0  0  0  0  0  0  0  0  0  0
    2.2760   20.2920  -35.9990 C   0  0  0  0  0  0  0  0  0  0  0  0
    0.8940   20.1610  -36.6660 C   0  0  0  0  0  0  0  0  0  0  0  0
   -0.1010   21.1880  -36.1270 C   0  0  0  0  0  0  0  0  0  0  0  0
   -0.2420   21.0580  -34.5990 C   0  0  0  0  0  0  0  0  0  0  0  0
   -0.7500   20.0040  -31.1860 C   0  0  0  0  0  0  0  0  0  0  0  0
   -1.2320   20.1350  -29.8800 C   0  0  0  0  0  0  0  0  0  0  0  0
    0.4018   23.3392  -26.0880 H   0  0  0  0  0  0  0  0  0  0  0  0
    0.1089   25.6031  -27.0772 H   0  0  0  0  0  0  0  0  0  0  0  0
   -2.7031   21.7996  -28.6770 H   0  0  0  0  0  0  0  0  0  0  0  0
    1.4474   18.8484  -28.1830 H   0  0  0  0  0  0  0  0  0  0  0  0
    2.3022   18.6225  -30.5126 H   0  0  0  0  0  0  0  0  0  0  0  0
    2.2629   22.1940  -34.9768 H   0  0  0  0  0  0  0  0  0  0  0  0
    3.1227   20.8427  -34.1075 H   0  0  0  0  0  0  0  0  0  0  0  0
    2.9640   20.7723  -36.7102 H   0  0  0  0  0  0  0  0  0  0  0  0
    2.6067   19.2788  -35.7271 H   0  0  0  0  0  0  0  0  0  0  0  0
    1.0071   20.3108  -37.7499 H   0  0  0  0  0  0  0  0  0  0  0  0
    0.5021   19.1579  -36.4419 H   0  0  0  0  0  0  0  0  0  0  0  0
    0.2553   22.1994  -36.3722 H   0  0  0  0  0  0  0  0  0  0  0  0
   -1.0823   21.0069  -36.5898 H   0  0  0  0  0  0  0  0  0  0  0  0
   -0.7192   21.9727  -34.2173 H   0  0  0  0  0  0  0  0  0  0  0  0
   -0.8421   20.1553  -34.4120 H   0  0  0  0  0  0  0  0  0  0  0  0
   -1.3691   20.3333  -32.0335 H   0  0  0  0  0  0  0  0  0  0  0  0
   -2.2299   20.5641  -29.7068 H   0  0  0  0  0  0  0  0  0  0  0  0
  1  2  2  0
  2  3  1  0
  3  4  1  0
  4  5  2  0
  5  6  1  0
  6  7  2  0
  7  8  1  0
  7  9  1  0
  9 10  1  0
 10 11  1  0
 11 12  2  0
 12 13  1  0
 13 14  1  0
  9 15  2  0
  2 16  1  0
 16 17  2  0
 17 18  1  0
 18 19  2  0
 19 20  1  0
 20 21  2  0
 20 22  2  0
 20 23  1  0
 23 24  1  0
 24 25  1  0
 25 26  1  0
 26 27  1  0
 27 28  1  0
 19 29  1  0
 29 30  2  0
 15  4  1  0
 30 16  1  0
 14 10  2  0
 28 23  1  0
  5 31  1  0
  6 32  1  0
 15 33  1  0
 17 34  1  0
 18 35  1  0
 24 36  1  0
 24 37  1  0
 25 38  1  0
 25 39  1  0
 26 40  1  0
 26 41  1  0
 27 42  1  0
 27 43  1  0
 28 44  1  0
 28 45  1  0
 29 46  1  0
 30 47  1  0
M  CHG  3   3  -1   8  -1  13  -1
M  END
>  <UniqueID>  (47) 
44

>  <SMILES>  (47) 
O=C([N-]c1ccc([O-])c(-c2nn[n-]n2)c1)c1ccc(S(=O)(=O)N2CCCCC2)cc1

>  <Energy>  (47) 
102.1442639454614

>  <Genealogy>  (47) 
O=C([N-]c1ccc([O-])c(-c2nn[n-]n2)c1)c1ccc(S(=O)(=O)N2CCCCC2)cc1 (protonated)
O=C([N-]c1ccc([O-])c(-c2nn[n-]n2)c1)c1ccc(S(=O)(=O)N2CCCCC2)cc1 (3D coordinates assigned)
O=C([N-]c1ccc([O-])c(-c2nn[n-]n2)c1)c1ccc(S(=O)(=O)N2CCCCC2)cc1 (nonaromatic ring conformer: 102.1442639454614 kcal/mol)

>  <smiles>  (47) 
O=C(Nc1ccc(O)c(-c2nn[nH]n2)c1)c1ccc(S(=O)(=O)N2CCCCC2)cc1

>  <score_type>  (47) 
oracle

>  <origin>  (47) 
adgpu

>  <m_score__min__energy>  (47) 
-12.93

>  <m_primary>  (47) 
energy

$$$$
47:0
     RDKit          3D

 44 46  0  0  0  0  0  0  0  0999 V2000
   -8.3340   19.1960  -32.4650 C   0  0  0  0  0  0  0  0  0  0  0  0
   -8.7080   20.6400  -32.3100 C   0  0  0  0  0  0  0  0  0  0  0  0
   -9.9310   20.9470  -32.3230 O   0  0  0  0  0  0  0  0  0  0  0  0
   -7.7090   21.6690  -32.1480 N   0  0  0  0  0  0  0  0  0  0  0  0
   -8.0700   23.0890  -32.0770 C   0  0  0  0  0  0  0  0  0  0  0  0
   -7.3250   23.7460  -30.9190 C   0  0  0  0  0  0  0  0  0  0  0  0
   -5.8480   23.4540  -30.9840 C   0  0  0  0  0  0  0  0  0  0  0  0
   -4.9550   24.3040  -30.3160 C   0  0  0  0  0  0  0  0  0  0  0  0
   -3.5720   24.0510  -30.3340 C   0  0  0  0  0  0  0  0  0  0  0  0
   -2.6310   24.9230  -29.6900 N   0  0  0  0  0  0  0  0  0  0  0  0
   -1.4840   24.4420  -28.4810 S   0  0  0  0  0  0  0  0  0  0  0  0
   -0.0960   24.5530  -29.0420 O   0  0  0  0  0  0  0  0  0  0  0  0
   -1.5970   25.3600  -27.2970 O   0  0  0  0  0  0  0  0  0  0  0  0
   -1.8230   22.7930  -27.9600 C   0  0  0  0  0  0  0  0  0  0  0  0
   -0.7690   21.9610  -27.5620 C   0  0  0  0  0  0  0  0  0  0  0  0
   -1.0260   20.6560  -27.1320 C   0  0  0  0  0  0  0  0  0  0  0  0
   -2.3410   20.1620  -27.1040 C   0  0  0  0  0  0  0  0  0  0  0  0
   -2.6080   18.7720  -26.5830 C   0  0  0  0  0  0  0  0  0  0  0  0
   -1.5530   17.9450  -26.9300 F   0  0  0  0  0  0  0  0  0  0  0  0
   -2.7460   18.7720  -25.2040 F   0  0  0  0  0  0  0  0  0  0  0  0
   -3.7770   18.2680  -27.1360 F   0  0  0  0  0  0  0  0  0  0  0  0
   -3.4000   21.0120  -27.4770 C   0  0  0  0  0  0  0  0  0  0  0  0
   -3.1390   22.3140  -27.9150 C   0  0  0  0  0  0  0  0  0  0  0  0
   -3.0910   22.9250  -31.0140 C   0  0  0  0  0  0  0  0  0  0  0  0
   -1.7200   22.6660  -31.0390 O   0  0  0  0  0  0  0  0  0  0  0  0
   -3.9830   22.0560  -31.6590 C   0  0  0  0  0  0  0  0  0  0  0  0
   -5.3630   22.3000  -31.6350 C   0  0  0  0  0  0  0  0  0  0  0  0
   -6.2890   21.3260  -32.3300 C   0  0  0  0  0  0  0  0  0  0  0  0
   -8.2157   18.7392  -31.4714 H   0  0  0  0  0  0  0  0  0  0  0  0
   -9.1255   18.6696  -33.0187 H   0  0  0  0  0  0  0  0  0  0  0  0
   -7.3865   19.1200  -33.0187 H   0  0  0  0  0  0  0  0  0  0  0  0
   -7.7938   23.5851  -33.0192 H   0  0  0  0  0  0  0  0  0  0  0  0
   -9.1541   23.1841  -31.9165 H   0  0  0  0  0  0  0  0  0  0  0  0
   -7.4778   24.8343  -30.9658 H   0  0  0  0  0  0  0  0  0  0  0  0
   -7.7189   23.3386  -29.9762 H   0  0  0  0  0  0  0  0  0  0  0  0
   -5.3408   25.1786  -29.7717 H   0  0  0  0  0  0  0  0  0  0  0  0
    0.2648   22.3359  -27.5879 H   0  0  0  0  0  0  0  0  0  0  0  0
   -0.1933   20.0117  -26.8135 H   0  0  0  0  0  0  0  0  0  0  0  0
   -4.4374   20.6500  -27.4235 H   0  0  0  0  0  0  0  0  0  0  0  0
   -3.9699   22.9646  -28.2254 H   0  0  0  0  0  0  0  0  0  0  0  0
   -1.0600   23.2470  -30.5360 H   0  0  0  0  0  0  0  0  0  0  0  0
   -3.5955   21.1736  -32.1893 H   0  0  0  0  0  0  0  0  0  0  0  0
   -6.0607   21.3290  -33.4060 H   0  0  0  0  0  0  0  0  0  0  0  0
   -6.1254   20.3338  -31.8841 H   0  0  0  0  0  0  0  0  0  0  0  0
  1  2  1  0
  2  3  2  0
  2  4  1  0
  4  5  1  0
  5  6  1  0
  6  7  1  0
  7  8  2  0
  8  9  1  0
  9 10  1  0
 10 11  1  0
 11 12  2  0
 11 13  2  0
 11 14  1  0
 14 15  2  0
 15 16  1  0
 16 17  2  0
 17 18  1  0
 18 19  1  0
 18 20  1  0
 18 21  1  0
 17 22  1  0
 22 23  2  0
  9 24  2  0
 24 25  1  0
 24 26  1  0
 26 27  2  0
 27 28  1  0
 28  4  1  0
 27  7  1  0
 23 14  1  0
  1 29  1  0
  1 30  1  0
  1 31  1  0
  5 32  1  0
  5 33  1  0
  6 34  1  0
  6 35  1  0
  8 36  1  0
 15 37  1  0
 16 38  1  0
 22 39  1  0
 23 40  1  0
 25 41  1  0
 26 42  1  0
 28 43  1  0
 28 44  1  0
M  CHG  1  10  -1
M  END
>  <UniqueID>  (48) 
45

>  <SMILES>  (48) 
CC(=O)N1CCc2cc([N-]S(=O)(=O)c3ccc(C(F)(F)F)cc3)c(O)cc2C1

>  <Energy>  (48) 
50.92853631655954

>  <Genealogy>  (48) 
CC(=O)N1CCc2cc([N-]S(=O)(=O)c3ccc(C(F)(F)F)cc3)c(O)cc2C1 (protonated)
CC(=O)N1CCc2cc([N-]S(=O)(=O)c3ccc(C(F)(F)F)cc3)c(O)cc2C1 (3D coordinates assigned)
CC(=O)N1CCc2cc([N-]S(=O)(=O)c3ccc(C(F)(F)F)cc3)c(O)cc2C1 (nonaromatic ring conformer: 50.92853631655954 kcal/mol)

>  <smiles>  (48) 
CC(=O)N1CCc2cc(NS(=O)(=O)c3ccc(C(F)(F)F)cc3)c(O)cc2C1

>  <score_type>  (48) 
oracle

>  <origin>  (48) 
adgpu

>  <m_score__min__energy>  (48) 
-9.6400000000000006

>  <m_primary>  (48) 
energy

$$$$
48:0
     RDKit          3D

 48 51  0  0  0  0  0  0  0  0999 V2000
   -1.5690   25.6990  -28.9710 O   0  0  0  0  0  0  0  0  0  0  0  0
   -2.6760   24.6830  -28.9790 S   0  0  0  0  0  0  0  0  0  0  0  0
   -3.5820   24.9230  -27.8050 O   0  0  0  0  0  0  0  0  0  0  0  0
   -3.5920   24.8360  -30.4500 N   0  0  0  0  0  0  0  0  0  0  0  0
   -4.7910   24.1010  -30.7270 C   0  0  0  0  0  0  0  0  0  0  0  0
   -4.7750   22.9550  -31.5550 C   0  0  0  0  0  0  0  0  0  0  0  0
   -5.9810   22.3150  -31.8480 C   0  0  0  0  0  0  0  0  0  0  0  0
   -7.1590   22.7590  -31.3410 C   0  0  0  0  0  0  0  0  0  0  0  0
   -7.2160   23.8670  -30.4980 C   0  0  0  0  0  0  0  0  0  0  0  0
   -6.0240   24.5450  -30.1840 C   0  0  0  0  0  0  0  0  0  0  0  0
   -6.0880   25.6650  -29.3560 O   0  0  0  0  0  0  0  0  0  0  0  0
   -8.2780   21.9410  -31.8500 C   0  0  0  0  0  0  0  0  0  0  0  0
   -7.6710   20.9240  -32.7300 N   0  0  0  0  0  0  0  0  0  0  0  0
   -6.2110   21.1620  -32.7410 C   0  0  0  0  0  0  0  0  0  0  0  0
   -1.9720   23.0690  -28.9030 C   0  0  0  0  0  0  0  0  0  0  0  0
   -0.5820   22.8940  -28.8630 C   0  0  0  0  0  0  0  0  0  0  0  0
   -0.0410   21.6220  -28.6550 C   0  0  0  0  0  0  0  0  0  0  0  0
   -0.8840   20.5160  -28.4860 C   0  0  0  0  0  0  0  0  0  0  0  0
   -0.1910   18.9410  -28.1110 S   0  0  0  0  0  0  0  0  0  0  0  0
    1.1680   19.1600  -27.5040 O   0  0  0  0  0  0  0  0  0  0  0  0
   -1.0590   18.2160  -27.1130 O   0  0  0  0  0  0  0  0  0  0  0  0
   -0.0370   17.9930  -29.5720 N   0  0  0  0  0  0  0  0  0  0  0  0
    1.3590   17.5840  -29.7770 C   0  0  0  0  0  0  0  0  0  0  0  0
    2.0340   18.6330  -30.6510 C   0  0  0  0  0  0  0  0  0  0  0  0
    0.9010   19.4210  -31.2890 C   0  0  0  0  0  0  0  0  0  0  0  0
   -0.3800   18.8050  -30.7440 C   0  0  0  0  0  0  0  0  0  0  0  0
   -2.2740   20.6850  -28.5650 C   0  0  0  0  0  0  0  0  0  0  0  0
   -2.8140   21.9560  -28.7770 C   0  0  0  0  0  0  0  0  0  0  0  0
   -3.8270   22.5734  -31.9621 H   0  0  0  0  0  0  0  0  0  0  0  0
   -8.1774   24.2060  -30.0847 H   0  0  0  0  0  0  0  0  0  0  0  0
   -5.3720   25.8770  -28.6720 H   0  0  0  0  0  0  0  0  0  0  0  0
   -8.8082   21.4576  -31.0162 H   0  0  0  0  0  0  0  0  0  0  0  0
   -9.0126   22.5554  -32.3912 H   0  0  0  0  0  0  0  0  0  0  0  0
   -7.8550   19.9740  -32.3180 H   0  0  0  0  0  0  0  0  0  0  0  0
   -5.6763   20.2763  -32.3673 H   0  0  0  0  0  0  0  0  0  0  0  0
   -5.8422   21.3598  -33.7583 H   0  0  0  0  0  0  0  0  0  0  0  0
    0.0843   23.7591  -28.9955 H   0  0  0  0  0  0  0  0  0  0  0  0
    1.0505   21.4890  -28.6239 H   0  0  0  0  0  0  0  0  0  0  0  0
    1.8747   17.5180  -28.8076 H   0  0  0  0  0  0  0  0  0  0  0  0
    1.4006   16.5980  -30.2629 H   0  0  0  0  0  0  0  0  0  0  0  0
    2.6654   19.2943  -30.0394 H   0  0  0  0  0  0  0  0  0  0  0  0
    2.6882   18.1743  -31.4071 H   0  0  0  0  0  0  0  0  0  0  0  0
    0.9662   20.4829  -31.0094 H   0  0  0  0  0  0  0  0  0  0  0  0
    0.9404   19.3758  -32.3874 H   0  0  0  0  0  0  0  0  0  0  0  0
   -1.0812   19.6010  -30.4529 H   0  0  0  0  0  0  0  0  0  0  0  0
   -0.8570   18.1792  -31.5127 H   0  0  0  0  0  0  0  0  0  0  0  0
   -2.9399   19.8158  -28.4599 H   0  0  0  0  0  0  0  0  0  0  0  0
   -3.9045   22.0835  -28.8453 H   0  0  0  0  0  0  0  0  0  0  0  0
  1  2  2  0
  2  3  2  0
  2  4  1  0
  4  5  1  0
  5  6  2  0
  6  7  1  0
  7  8  2  0
  8  9  1  0
  9 10  2  0
 10 11  1  0
  8 12  1  0
 12 13  1  0
 13 14  1  0
  2 15  1  0
 15 16  2  0
 16 17  1  0
 17 18  2  0
 18 19  1  0
 19 20  2  0
 19 21  2  0
 19 22  1  0
 22 23  1  0
 23 24  1  0
 24 25  1  0
 25 26  1  0
 18 27  1  0
 27 28  2  0
 10  5  1  0
 28 15  1  0
 14  7  1  0
 26 22  1  0
  6 29  1  0
  9 30  1  0
 11 31  1  0
 12 32  1  0
 12 33  1  0
 13 34  1  0
 14 35  1  0
 14 36  1  0
 16 37  1  0
 17 38  1  0
 23 39  1  0
 23 40  1  0
 24 41  1  0
 24 42  1  0
 25 43  1  0
 25 44  1  0
 26 45  1  0
 26 46  1  0
 27 47  1  0
 28 48  1  0
M  CHG  1   4  -1
M  END
>  <UniqueID>  (49) 
46

>  <SMILES>  (49) 
O=S(=O)([N-]c1cc2c(cc1O)CNC2)c1ccc(S(=O)(=O)N2CCCC2)cc1

>  <Energy>  (49) 
64.97757232612881

>  <Genealogy>  (49) 
O=S(=O)([N-]c1cc2c(cc1O)CNC2)c1ccc(S(=O)(=O)N2CCCC2)cc1 (protonated)
O=S(=O)([N-]c1cc2c(cc1O)CNC2)c1ccc(S(=O)(=O)N2CCCC2)cc1 (3D coordinates assigned)
O=S(=O)([N-]c1cc2c(cc1O)CNC2)c1ccc(S(=O)(=O)N2CCCC2)cc1 (nonaromatic ring conformer: 64.97757232612881 kcal/mol)

>  <smiles>  (49) 
O=S(=O)(Nc1cc2c(cc1O)CNC2)c1ccc(S(=O)(=O)N2CCCC2)cc1

>  <score_type>  (49) 
oracle

>  <origin>  (49) 
adgpu

>  <m_score__min__energy>  (49) 
-12.48

>  <m_primary>  (49) 
energy

$$$$
