0:0
     RDKit          3D

 38 39  0  0  0  0  0  0  0  0999 V2000
   -2.5960   18.7940  -26.3390 C   0  0  0  0  0  0  0  0  0  0  0  0
   -1.4220   19.2200  -27.1120 N   0  0  0  0  0  0  0  0  0  0  0  0
   -0.4340   18.2110  -27.5150 C   0  0  0  0  0  0  0  0  0  0  0  0
   -1.2400   20.6150  -27.4710 C   0  0  0  0  0  0  0  0  0  0  0  0
   -1.2420   21.6230  -26.4830 C   0  0  0  0  0  0  0  0  0  0  0  0
   -1.0690   22.9650  -26.8310 C   0  0  0  0  0  0  0  0  0  0  0  0
   -0.8860   23.3340  -28.1700 C   0  0  0  0  0  0  0  0  0  0  0  0
   -0.7280   24.7850  -28.5370 C   0  0  0  0  0  0  0  0  0  0  0  0
   -2.0070   25.3400  -28.9670 N   0  0  0  0  0  0  0  0  0  0  0  0
   -3.1650   24.5430  -29.2350 C   0  0  0  0  0  0  0  0  0  0  0  0
   -3.7250   23.9030  -28.3020 O   0  0  0  0  0  0  0  0  0  0  0  0
   -3.6930   24.4950  -30.5650 N   0  0  0  0  0  0  0  0  0  0  0  0
   -4.8580   23.7290  -30.9010 C   0  0  0  0  0  0  0  0  0  0  0  0
   -4.7170   22.5000  -31.5730 C   0  0  0  0  0  0  0  0  0  0  0  0
   -3.1310   21.9010  -32.0420 Cl  0  0  0  0  0  0  0  0  0  0  0  0
   -5.8490   21.7460  -31.9010 C   0  0  0  0  0  0  0  0  0  0  0  0
   -7.1230   22.2030  -31.5560 C   0  0  0  0  0  0  0  0  0  0  0  0
   -8.5380   21.2520  -31.9700 Cl  0  0  0  0  0  0  0  0  0  0  0  0
   -7.2700   23.4120  -30.8720 C   0  0  0  0  0  0  0  0  0  0  0  0
   -6.1460   24.1760  -30.5370 C   0  0  0  0  0  0  0  0  0  0  0  0
   -6.3770   25.6510  -29.6080 Cl  0  0  0  0  0  0  0  0  0  0  0  0
   -0.8870   22.3430  -29.1600 C   0  0  0  0  0  0  0  0  0  0  0  0
   -1.0600   21.0000  -28.8160 C   0  0  0  0  0  0  0  0  0  0  0  0
   -2.3760   18.8738  -25.2642 H   0  0  0  0  0  0  0  0  0  0  0  0
   -3.4520   19.4388  -26.5869 H   0  0  0  0  0  0  0  0  0  0  0  0
   -2.8393   17.7503  -26.5869 H   0  0  0  0  0  0  0  0  0  0  0  0
    0.0118   17.7557  -26.6183 H   0  0  0  0  0  0  0  0  0  0  0  0
   -0.9286   17.4324  -28.1143 H   0  0  0  0  0  0  0  0  0  0  0  0
    0.3549   18.6891  -28.1143 H   0  0  0  0  0  0  0  0  0  0  0  0
   -1.3814   21.3488  -25.4269 H   0  0  0  0  0  0  0  0  0  0  0  0
   -1.0765   23.7375  -26.0479 H   0  0  0  0  0  0  0  0  0  0  0  0
   -0.3659   25.3436  -27.6613 H   0  0  0  0  0  0  0  0  0  0  0  0
   -0.0055   24.8691  -29.3622 H   0  0  0  0  0  0  0  0  0  0  0  0
   -3.3210   25.1730  -31.2670 H   0  0  0  0  0  0  0  0  0  0  0  0
   -5.7352   20.7897  -32.4326 H   0  0  0  0  0  0  0  0  0  0  0  0
   -8.2742   23.7655  -30.5952 H   0  0  0  0  0  0  0  0  0  0  0  0
   -0.7507   22.6239  -30.2148 H   0  0  0  0  0  0  0  0  0  0  0  0
   -1.0558   20.2328  -29.6043 H   0  0  0  0  0  0  0  0  0  0  0  0
  1  2  1  0
  2  3  1  0
  2  4  1  0
  4  5  2  0
  5  6  1  0
  6  7  2  0
  7  8  1  0
  8  9  1  0
  9 10  1  0
 10 11  2  0
 10 12  1  0
 12 13  1  0
 13 14  2  0
 14 15  1  0
 14 16  1  0
 16 17  2  0
 17 18  1  0
 17 19  1  0
 19 20  2  0
 20 21  1  0
  7 22  1  0
 22 23  2  0
 23  4  1  0
 20 13  1  0
  1 24  1  0
  1 25  1  0
  1 26  1  0
  3 27  1  0
  3 28  1  0
  3 29  1  0
  5 30  1  0
  6 31  1  0
  8 32  1  0
  8 33  1  0
 12 34  1  0
 16 35  1  0
 19 36  1  0
 22 37  1  0
 23 38  1  0
M  CHG  1   9  -1
M  END
>  <UniqueID>  (1) 
1

>  <SMILES>  (1) 
CN(C)c1ccc(C[N-]C(=O)Nc2c(Cl)cc(Cl)cc2Cl)cc1

>  <Energy>  (1) 
43.419148070965655

>  <Genealogy>  (1) 
CN(C)c1ccc(C[N-]C(=O)Nc2c(Cl)cc(Cl)cc2Cl)cc1 (protonated)
CN(C)c1ccc(C[N-]C(=O)Nc2c(Cl)cc(Cl)cc2Cl)cc1 (3D coordinates assigned)
CN(C)c1ccc(C[N-]C(=O)Nc2c(Cl)cc(Cl)cc2Cl)cc1 (optimized conformer: 43.419148070965655 kcal/mol)

>  <smiles>  (1) 
CN(C)c1ccc(CNC(=O)Nc2c(Cl)cc(Cl)cc2Cl)cc1

>  <score_type>  (1) 
oracle

>  <origin>  (1) 
adgpu

>  <m_score__min__energy>  (1) 
-9.6600000000000001

>  <m_primary>  (1) 
energy

$$$$
1:0
     RDKit          3D

 17 17  0  0  0  0  0  0  0  0999 V2000
   -4.8330   24.5460  -28.4130 N   0  0  0  0  0  0  0  0  0  0  0  0
   -5.2470   24.9070  -30.0520 S   0  0  0  0  0  0  0  0  0  0  0  0
   -3.9930   25.1660  -30.8400 O   0  0  0  0  0  0  0  0  0  0  0  0
   -6.1050   26.1390  -30.0930 O   0  0  0  0  0  0  0  0  0  0  0  0
   -6.1210   23.5480  -30.7550 C   0  0  0  0  0  0  0  0  0  0  0  0
   -7.2910   23.0720  -30.1450 C   0  0  0  0  0  0  0  0  0  0  0  0
   -7.9770   21.9850  -30.6960 C   0  0  0  0  0  0  0  0  0  0  0  0
   -7.4950   21.3660  -31.8540 C   0  0  0  0  0  0  0  0  0  0  0  0
   -8.3560   20.0010  -32.5430 Cl  0  0  0  0  0  0  0  0  0  0  0  0
   -6.3250   21.8330  -32.4600 C   0  0  0  0  0  0  0  0  0  0  0  0
   -5.6370   22.9200  -31.9110 C   0  0  0  0  0  0  0  0  0  0  0  0
   -4.6150   25.4550  -27.9460 H   0  0  0  0  0  0  0  0  0  0  0  0
   -5.6950   24.1720  -27.9570 H   0  0  0  0  0  0  0  0  0  0  0  0
   -7.6695   23.5545  -29.2318 H   0  0  0  0  0  0  0  0  0  0  0  0
   -8.8967   21.6164  -30.2182 H   0  0  0  0  0  0  0  0  0  0  0  0
   -5.9450   21.3450  -33.3697 H   0  0  0  0  0  0  0  0  0  0  0  0
   -4.7142   23.2828  -32.3873 H   0  0  0  0  0  0  0  0  0  0  0  0
  1  2  1  0
  2  3  2  0
  2  4  2  0
  2  5  1  0
  5  6  2  0
  6  7  1  0
  7  8  2  0
  8  9  1  0
  8 10  1  0
 10 11  2  0
 11  5  1  0
  1 12  1  0
  1 13  1  0
  6 14  1  0
  7 15  1  0
 10 16  1  0
 11 17  1  0
M  END
>  <UniqueID>  (2) 
2

>  <SMILES>  (2) 
NS(=O)(=O)c1ccc(Cl)cc1

>  <Energy>  (2) 
13.972866583819911

>  <Genealogy>  (2) 
NS(=O)(=O)c1ccc(Cl)cc1 (3D coordinates assigned)
NS(=O)(=O)c1ccc(Cl)cc1 (optimized conformer: 13.972866583819911 kcal/mol)

>  <smiles>  (2) 
NS(=O)(=O)c1ccc(Cl)cc1

>  <score_type>  (2) 
oracle

>  <origin>  (2) 
adgpu

>  <m_score__min__energy>  (2) 
-6.8399999999999999

>  <m_primary>  (2) 
energy

$$$$
2:0
     RDKit          3D

 31 32  0  0  1  0  0  0  0  0999 V2000
   -8.5820   21.0170  -31.9190 C   0  0  0  0  0  0  0  0  0  0  0  0
   -8.4850   22.4140  -31.7090 O   0  0  0  0  0  0  0  0  0  0  0  0
   -7.2510   22.9890  -31.4430 C   0  0  0  0  0  0  0  0  0  0  0  0
   -6.0740   22.5630  -32.0240 C   0  0  0  0  0  0  0  0  0  0  0  0
   -4.8510   23.1740  -31.7230 C   0  0  0  0  0  0  0  0  0  0  0  0
   -4.8640   24.2190  -30.8260 C   0  0  0  0  0  0  0  0  0  0  0  0
   -3.6810   24.9200  -30.4420 N   0  0  0  0  0  0  0  0  0  0  0  0
   -2.8700   24.4070  -29.5840 C   0  0  0  0  0  0  0  0  0  0  0  0
   -3.0870   23.1840  -28.9980 C   0  0  0  0  0  0  0  0  0  0  0  0
   -2.1450   22.7390  -28.0920 C   0  0  0  0  0  0  0  0  0  0  0  0
   -2.3300   21.4170  -27.4260 C   0  0  0  0  0  0  0  0  0  0  0  0
   -1.0520   23.4980  -27.8030 N   0  0  0  0  0  0  0  0  0  0  0  0
   -0.8690   24.6920  -28.3930 C   0  0  0  0  0  0  0  0  0  0  0  0
    0.1840   25.3900  -28.0960 N   0  0  0  0  0  0  0  0  0  0  0  0
   -1.7730   25.1370  -29.2750 N   0  0  0  0  0  0  0  0  0  0  0  0
   -6.0440   24.6420  -30.2470 C   0  0  0  0  0  0  0  0  0  0  0  0
   -7.2670   24.0510  -30.5300 C   0  0  0  0  0  0  0  0  0  0  0  0
   -8.6178   20.5018  -30.9478 H   0  0  0  0  0  0  0  0  0  0  0  0
   -9.4978   20.7942  -32.4862 H   0  0  0  0  0  0  0  0  0  0  0  0
   -7.7058   20.6698  -32.4862 H   0  0  0  0  0  0  0  0  0  0  0  0
   -6.0973   21.7265  -32.7380 H   0  0  0  0  0  0  0  0  0  0  0  0
   -3.9137   22.8319  -32.1861 H   0  0  0  0  0  0  0  0  0  0  0  0
   -3.9758   22.5830  -29.2408 H   0  0  0  0  0  0  0  0  0  0  0  0
   -2.3113   21.5506  -26.3343 H   0  0  0  0  0  0  0  0  0  0  0  0
   -3.2970   20.9873  -27.7263 H   0  0  0  0  0  0  0  0  0  0  0  0
   -1.5181   20.7383  -27.7263 H   0  0  0  0  0  0  0  0  0  0  0  0
   -0.3370   23.1760  -27.1250 H   0  0  0  0  0  0  0  0  0  0  0  0
    0.3740   26.3070  -28.5160 H   0  0  0  0  0  0  0  0  0  0  0  0
   -1.6200   26.0550  -29.7210 H   0  0  0  0  0  0  0  0  0  0  0  0
   -6.0133   25.4793  -29.5343 H   0  0  0  0  0  0  0  0  0  0  0  0
   -8.2000   24.3982  -30.0620 H   0  0  0  0  0  0  0  0  0  0  0  0
  1  2  1  0
  2  3  1  0
  3  4  2  0
  4  5  1  0
  5  6  2  0
  6  7  1  0
  7  8  2  0
  8  9  1  0
  9 10  2  0
 10 11  1  0
 10 12  1  0
 12 13  1  0
 13 14  2  3
 13 15  1  0
  6 16  1  0
 16 17  2  0
 17  3  1  0
 15  8  1  0
  1 18  1  0
  1 19  1  0
  1 20  1  0
  4 21  1  0
  5 22  1  0
  9 23  1  0
 11 24  1  0
 11 25  1  0
 11 26  1  0
 12 27  1  0
 14 28  1  0
 15 29  1  0
 16 30  1  0
 17 31  1  0
M  END
>  <smiles>  (3) 
COc1ccc(N=c2cc(C)[nH]c(=N)[nH]2)cc1

>  <score_type>  (3) 
oracle

>  <origin>  (3) 
adgpu

>  <m_score__min__energy>  (3) 
-6.8600000000000003

>  <m_primary>  (3) 
energy

$$$$
3:0
     RDKit          3D

 24 25  0  0  0  0  0  0  0  0999 V2000
   -1.8200   25.4490  -28.9670 O   0  0  0  0  0  0  0  0  0  0  0  0
   -2.5340   24.5490  -29.4820 C   0  0  0  0  0  0  0  0  0  0  0  0
   -3.5100   24.9270  -30.4640 N   0  0  0  0  0  0  0  0  0  0  0  0
   -4.7500   24.2550  -30.7270 C   0  0  0  0  0  0  0  0  0  0  0  0
   -5.9440   24.8390  -30.2860 C   0  0  0  0  0  0  0  0  0  0  0  0
   -7.1700   24.2150  -30.5370 C   0  0  0  0  0  0  0  0  0  0  0  0
   -7.2120   23.0100  -31.2430 C   0  0  0  0  0  0  0  0  0  0  0  0
   -6.0270   22.4310  -31.7070 C   0  0  0  0  0  0  0  0  0  0  0  0
   -6.0850   20.7920  -32.6880 Br  0  0  0  0  0  0  0  0  0  0  0  0
   -4.7990   23.0540  -31.4600 C   0  0  0  0  0  0  0  0  0  0  0  0
   -2.3800   23.1490  -29.0220 C   0  0  0  0  0  0  0  0  0  0  0  0
   -1.4490   22.3000  -29.6420 C   0  0  0  0  0  0  0  0  0  0  0  0
   -1.3110   20.9830  -29.1970 C   0  0  0  0  0  0  0  0  0  0  0  0
   -2.0670   20.5290  -28.1630 N   0  0  0  0  0  0  0  0  0  0  0  0
   -2.9680   21.3300  -27.5360 C   0  0  0  0  0  0  0  0  0  0  0  0
   -3.1370   22.6530  -27.9470 C   0  0  0  0  0  0  0  0  0  0  0  0
   -5.9173   25.7933  -29.7395 H   0  0  0  0  0  0  0  0  0  0  0  0
   -8.1031   24.6737  -30.1779 H   0  0  0  0  0  0  0  0  0  0  0  0
   -8.1768   22.5172  -31.4336 H   0  0  0  0  0  0  0  0  0  0  0  0
   -3.8695   22.6044  -31.8394 H   0  0  0  0  0  0  0  0  0  0  0  0
   -0.8316   22.6701  -30.4738 H   0  0  0  0  0  0  0  0  0  0  0  0
   -0.5887   20.3119  -29.6847 H   0  0  0  0  0  0  0  0  0  0  0  0
   -3.5661   20.9344  -26.7018 H   0  0  0  0  0  0  0  0  0  0  0  0
   -3.8589   23.3040  -27.4322 H   0  0  0  0  0  0  0  0  0  0  0  0
  1  2  2  0
  2  3  1  0
  3  4  1  0
  4  5  2  0
  5  6  1  0
  6  7  2  0
  7  8  1  0
  8  9  1  0
  8 10  2  0
  2 11  1  0
 11 12  2  0
 12 13  1  0
 13 14  2  0
 14 15  1  0
 15 16  2  0
 10  4  1  0
 16 11  1  0
  5 17  1  0
  6 18  1  0
  7 19  1  0
 10 20  1  0
 12 21  1  0
 13 22  1  0
 15 23  1  0
 16 24  1  0
M  CHG  1   3  -1
M  END
>  <UniqueID>  (4) 
3

>  <SMILES>  (4) 
O=C([N-]c1cccc(Br)c1)c1ccncc1

>  <Energy>  (4) 
32.31429983286558

>  <Genealogy>  (4) 
O=C([N-]c1cccc(Br)c1)c1ccncc1 (protonated)
O=C([N-]c1cccc(Br)c1)c1ccncc1 (3D coordinates assigned)
O=C([N-]c1cccc(Br)c1)c1ccncc1 (optimized conformer: 32.31429983286558 kcal/mol)

>  <smiles>  (4) 
O=C(Nc1cccc(Br)c1)c1ccncc1

>  <score_type>  (4) 
oracle

>  <origin>  (4) 
adgpu

>  <m_score__min__energy>  (4) 
-7.9800000000000004

>  <m_primary>  (4) 
energy

$$$$
4:0
     RDKit          3D

 36 38  0  0  0  0  0  0  0  0999 V2000
   -2.7840   21.5720  -31.8850 Cl  0  0  0  0  0  0  0  0  0  0  0  0
   -1.9870   22.2420  -30.4650 C   0  0  0  0  0  0  0  0  0  0  0  0
   -0.7990   21.6250  -30.0510 C   0  0  0  0  0  0  0  0  0  0  0  0
   -0.1110   22.0920  -28.9290 C   0  0  0  0  0  0  0  0  0  0  0  0
   -0.6040   23.1800  -28.2130 C   0  0  0  0  0  0  0  0  0  0  0  0
   -1.7860   23.8060  -28.6150 C   0  0  0  0  0  0  0  0  0  0  0  0
   -2.4970   23.3510  -29.7430 C   0  0  0  0  0  0  0  0  0  0  0  0
   -3.7610   24.0350  -30.1150 C   0  0  0  0  0  0  0  0  0  0  0  0
   -4.9620   23.4150  -30.1260 N   0  0  0  0  0  0  0  0  0  0  0  0
   -5.8050   24.3730  -30.5530 C   0  0  0  0  0  0  0  0  0  0  0  0
   -7.2500   24.1410  -30.8620 C   0  0  0  0  0  0  0  0  0  0  0  0
   -7.5710   22.7080  -30.7570 N   0  0  0  0  0  0  0  0  0  0  0  0
   -8.2900   22.1980  -31.9360 C   0  0  0  0  0  0  0  0  0  0  0  0
   -7.9290   20.7630  -32.2240 C   0  0  0  0  0  0  0  0  0  0  0  0
   -8.7150   19.7130  -31.7200 C   0  0  0  0  0  0  0  0  0  0  0  0
   -8.3490   18.3840  -31.9520 C   0  0  0  0  0  0  0  0  0  0  0  0
   -7.2000   18.0930  -32.6920 C   0  0  0  0  0  0  0  0  0  0  0  0
   -6.4220   19.1300  -33.2120 C   0  0  0  0  0  0  0  0  0  0  0  0
   -6.7870   20.4620  -32.9870 C   0  0  0  0  0  0  0  0  0  0  0  0
   -5.1020   25.5320  -30.7860 C   0  0  0  0  0  0  0  0  0  0  0  0
   -3.8470   25.2900  -30.5010 O   0  0  0  0  0  0  0  0  0  0  0  0
   -0.4052   20.7661  -30.6142 H   0  0  0  0  0  0  0  0  0  0  0  0
    0.8202   21.6005  -28.6108 H   0  0  0  0  0  0  0  0  0  0  0  0
   -0.0615   23.5470  -27.3293 H   0  0  0  0  0  0  0  0  0  0  0  0
   -2.1667   24.6654  -28.0436 H   0  0  0  0  0  0  0  0  0  0  0  0
   -7.8688   24.7048  -30.1484 H   0  0  0  0  0  0  0  0  0  0  0  0
   -7.4554   24.4796  -31.8882 H   0  0  0  0  0  0  0  0  0  0  0  0
   -6.6640   22.1880  -30.7050 H   0  0  0  0  0  0  0  0  0  0  0  0
   -9.3723   22.2643  -31.7512 H   0  0  0  0  0  0  0  0  0  0  0  0
   -8.0037   22.8076  -32.8057 H   0  0  0  0  0  0  0  0  0  0  0  0
   -9.6224   19.9378  -31.1403 H   0  0  0  0  0  0  0  0  0  0  0  0
   -8.9662   17.5663  -31.5515 H   0  0  0  0  0  0  0  0  0  0  0  0
   -6.9080   17.0467  -32.8651 H   0  0  0  0  0  0  0  0  0  0  0  0
   -5.5210   18.8992  -33.7993 H   0  0  0  0  0  0  0  0  0  0  0  0
   -6.1787   21.2760  -33.4083 H   0  0  0  0  0  0  0  0  0  0  0  0
   -5.5170   26.4853  -31.1451 H   0  0  0  0  0  0  0  0  0  0  0  0
  1  2  1  0
  2  3  2  0
  3  4  1  0
  4  5  2  0
  5  6  1  0
  6  7  2  0
  7  8  1  0
  8  9  2  0
  9 10  1  0
 10 11  1  0
 11 12  1  0
 12 13  1  0
 13 14  1  0
 14 15  2  0
 15 16  1  0
 16 17  2  0
 17 18  1  0
 18 19  2  0
 10 20  2  0
 20 21  1  0
  7  2  1  0
 21  8  1  0
 19 14  1  0
  3 22  1  0
  4 23  1  0
  5 24  1  0
  6 25  1  0
 11 26  1  0
 11 27  1  0
 12 28  1  0
 13 29  1  0
 13 30  1  0
 15 31  1  0
 16 32  1  0
 17 33  1  0
 18 34  1  0
 19 35  1  0
 20 36  1  0
M  END
>  <UniqueID>  (5) 
4

>  <SMILES>  (5) 
Clc1ccccc1-c1nc(CNCc2ccccc2)co1

>  <Energy>  (5) 
66.77704267077218

>  <Genealogy>  (5) 
Clc1ccccc1-c1nc(CNCc2ccccc2)co1 (3D coordinates assigned)
Clc1ccccc1-c1nc(CNCc2ccccc2)co1 (optimized conformer: 66.77704267077218 kcal/mol)

>  <smiles>  (5) 
Clc1ccccc1-c1nc(CNCc2ccccc2)co1

>  <score_type>  (5) 
oracle

>  <origin>  (5) 
adgpu

>  <m_score__min__energy>  (5) 
-8.0500000000000007

>  <m_primary>  (5) 
energy

$$$$
5:0
     RDKit          3D

 24 25  0  0  0  0  0  0  0  0999 V2000
   -3.8310   25.2990  -30.1310 N   0  0  0  0  0  0  0  0  0  0  0  0
   -4.9230   24.5060  -30.6050 C   0  0  0  0  0  0  0  0  0  0  0  0
   -6.2420   24.9170  -30.3780 C   0  0  0  0  0  0  0  0  0  0  0  0
   -7.3080   24.1460  -30.8440 C   0  0  0  0  0  0  0  0  0  0  0  0
   -7.0650   22.9600  -31.5420 C   0  0  0  0  0  0  0  0  0  0  0  0
   -5.7460   22.5300  -31.7790 C   0  0  0  0  0  0  0  0  0  0  0  0
   -5.4860   21.2690  -32.5190 C   0  0  0  0  0  0  0  0  0  0  0  0
   -4.1680   20.8500  -32.7810 C   0  0  0  0  0  0  0  0  0  0  0  0
   -3.9260   19.6620  -33.4770 C   0  0  0  0  0  0  0  0  0  0  0  0
   -4.9950   18.8800  -33.9210 C   0  0  0  0  0  0  0  0  0  0  0  0
   -6.3080   19.2840  -33.6680 C   0  0  0  0  0  0  0  0  0  0  0  0
   -6.5550   20.4710  -32.9710 C   0  0  0  0  0  0  0  0  0  0  0  0
   -4.6780   23.3140  -31.3040 C   0  0  0  0  0  0  0  0  0  0  0  0
   -3.7330   25.5220  -29.1150 H   0  0  0  0  0  0  0  0  0  0  0  0
   -3.1140   25.6710  -30.7930 H   0  0  0  0  0  0  0  0  0  0  0  0
   -6.4388   25.8506  -29.8306 H   0  0  0  0  0  0  0  0  0  0  0  0
   -8.3423   24.4728  -30.6613 H   0  0  0  0  0  0  0  0  0  0  0  0
   -7.9100   22.3587  -31.9085 H   0  0  0  0  0  0  0  0  0  0  0  0
   -3.3219   21.4621  -32.4354 H   0  0  0  0  0  0  0  0  0  0  0  0
   -2.8923   19.3425  -33.6753 H   0  0  0  0  0  0  0  0  0  0  0  0
   -4.8028   17.9462  -34.4698 H   0  0  0  0  0  0  0  0  0  0  0  0
   -7.1492   18.6674  -34.0176 H   0  0  0  0  0  0  0  0  0  0  0  0
   -7.5912   20.7836  -32.7744 H   0  0  0  0  0  0  0  0  0  0  0  0
   -3.6421   22.9896  -31.4822 H   0  0  0  0  0  0  0  0  0  0  0  0
  1  2  1  0
  2  3  2  0
  3  4  1  0
  4  5  2  0
  5  6  1  0
  6  7  1  0
  7  8  2  0
  8  9  1  0
  9 10  2  0
 10 11  1  0
 11 12  2  0
  6 13  2  0
 13  2  1  0
 12  7  1  0
  1 14  1  0
  1 15  1  0
  3 16  1  0
  4 17  1  0
  5 18  1  0
  8 19  1  0
  9 20  1  0
 10 21  1  0
 11 22  1  0
 12 23  1  0
 13 24  1  0
M  END
>  <UniqueID>  (6) 
5

>  <SMILES>  (6) 
Nc1cccc(-c2ccccc2)c1

>  <Energy>  (6) 
29.031434965381138

>  <Genealogy>  (6) 
Nc1cccc(-c2ccccc2)c1 (3D coordinates assigned)
Nc1cccc(-c2ccccc2)c1 (optimized conformer: 29.031434965381138 kcal/mol)

>  <smiles>  (6) 
Nc1cccc(-c2ccccc2)c1

>  <score_type>  (6) 
oracle

>  <origin>  (6) 
adgpu

>  <m_score__min__energy>  (6) 
-6.6399999999999997

>  <m_primary>  (6) 
energy

$$$$
6:0
     RDKit          3D

 25 26  0  0  0  0  0  0  0  0999 V2000
   -8.1414   24.1747  -31.1058 H   0  0  0  0  0  0  0  0  0  0  0  0
   -7.9070   23.1650  -31.4740 C   0  0  0  0  0  0  0  0  0  0  0  0
   -6.5960   22.8320  -31.8290 C   0  0  0  0  0  0  0  0  0  0  0  0
   -5.5730   23.8360  -31.7310 N   0  0  0  0  0  0  0  0  0  0  0  0
   -4.7680   24.0830  -30.7350 C   0  0  0  0  0  0  0  0  0  0  0  0
   -4.7340   23.4750  -29.4900 C   0  0  0  0  0  0  0  0  0  0  0  0
   -5.3697   22.6611  -29.1111 H   0  0  0  0  0  0  0  0  0  0  0  0
   -3.7090   24.1370  -28.8380 C   0  0  0  0  0  0  0  0  0  0  0  0
   -3.2960   23.9180  -27.4210 C   0  0  0  0  0  0  0  0  0  0  0  0
   -4.0646   24.3256  -26.7479 H   0  0  0  0  0  0  0  0  0  0  0  0
   -3.1802   22.8400  -27.2352 H   0  0  0  0  0  0  0  0  0  0  0  0
   -2.3387   24.4270  -27.2352 H   0  0  0  0  0  0  0  0  0  0  0  0
   -3.1850   25.0900  -29.6340 N   0  0  0  0  0  0  0  0  0  0  0  0
   -3.8310   25.0460  -30.7880 N   0  0  0  0  0  0  0  0  0  0  0  0
   -3.6330   25.6760  -31.5960 H   0  0  0  0  0  0  0  0  0  0  0  0
   -6.3290   21.5820  -32.3020 N   0  0  0  0  0  0  0  0  0  0  0  0
   -7.2930   20.6290  -32.4200 C   0  0  0  0  0  0  0  0  0  0  0  0
   -6.9420   19.2760  -32.9500 C   0  0  0  0  0  0  0  0  0  0  0  0
   -6.7636   18.5882  -32.1103 H   0  0  0  0  0  0  0  0  0  0  0  0
   -7.7714   18.8966  -33.5649 H   0  0  0  0  0  0  0  0  0  0  0  0
   -6.0327   19.3476  -33.5649 H   0  0  0  0  0  0  0  0  0  0  0  0
   -8.6140   20.9320  -32.0660 C   0  0  0  0  0  0  0  0  0  0  0  0
   -9.4037   20.1723  -32.1625 H   0  0  0  0  0  0  0  0  0  0  0  0
   -8.9170   22.2070  -31.5900 C   0  0  0  0  0  0  0  0  0  0  0  0
   -9.9497   22.4581  -31.3063 H   0  0  0  0  0  0  0  0  0  0  0  0
  1  2  1  0
  2  3  2  0
  3  4  1  0
  4  5  2  0
  5  6  1  0
  6  7  1  0
  6  8  2  0
  8  9  1  0
  9 10  1  0
  9 11  1  0
  9 12  1  0
  8 13  1  0
 13 14  1  0
 14 15  1  0
  3 16  1  0
 16 17  2  0
 17 18  1  0
 18 19  1  0
 18 20  1  0
 18 21  1  0
 17 22  1  0
 22 23  1  0
 22 24  2  0
 24 25  1  0
 24  2  1  0
 14  5  1  0
M  CHG  1  13  -1
M  END
>  <UniqueID>  (7) 
6

>  <SMILES>  (7) 
Cc1cccc(/N=c2\cc(C)[n-][nH]2)n1

>  <Energy>  (7) 
58.32183831499212

>  <Genealogy>  (7) 
Cc1cccc(N=c2cc(C)[n-][nH]2)n1 (protonated)
Cc1cccc(/N=c2\cc(C)[n-][nH]2)n1 (cis-trans isomerization)
Cc1cccc(/N=c2\cc(C)[n-][nH]2)n1 (3D coordinates assigned)
Cc1cccc(/N=c2\cc(C)[n-][nH]2)n1 (optimized conformer: 58.32183831499212 kcal/mol)

>  <smiles>  (7) 
Cc1cccc(N=c2cc(C)[nH][nH]2)n1

>  <score_type>  (7) 
oracle

>  <origin>  (7) 
adgpu

>  <m_score__min__energy>  (7) 
-8.6600000000000001

>  <m_primary>  (7) 
energy

$$$$
7:0
     RDKit          3D

 17 17  0  0  0  0  0  0  0  0999 V2000
   -8.7230   20.8590  -31.5040 C   0  0  0  0  0  0  0  0  0  0  0  0
   -7.8500   22.0550  -31.2620 C   0  0  0  0  0  0  0  0  0  0  0  0
   -7.5890   22.4860  -29.9540 C   0  0  0  0  0  0  0  0  0  0  0  0
   -6.7450   23.5770  -29.7250 C   0  0  0  0  0  0  0  0  0  0  0  0
   -6.1380   24.2480  -30.8000 C   0  0  0  0  0  0  0  0  0  0  0  0
   -5.2700   25.3710  -30.5610 N   0  0  0  0  0  0  0  0  0  0  0  0
   -5.7240   26.4430  -30.1110 O   0  0  0  0  0  0  0  0  0  0  0  0
   -3.9220   25.2800  -30.8230 O   0  0  0  0  0  0  0  0  0  0  0  0
   -6.3890   23.8000  -32.1100 C   0  0  0  0  0  0  0  0  0  0  0  0
   -7.2320   22.7080  -32.3380 C   0  0  0  0  0  0  0  0  0  0  0  0
   -9.0350   20.4316  -30.5396 H   0  0  0  0  0  0  0  0  0  0  0  0
   -9.6125   21.1638  -32.0749 H   0  0  0  0  0  0  0  0  0  0  0  0
   -8.1616   20.1047  -32.0749 H   0  0  0  0  0  0  0  0  0  0  0  0
   -8.0505   21.9632  -29.1033 H   0  0  0  0  0  0  0  0  0  0  0  0
   -6.5547   23.9127  -28.6949 H   0  0  0  0  0  0  0  0  0  0  0  0
   -5.9182   24.3130  -32.9616 H   0  0  0  0  0  0  0  0  0  0  0  0
   -7.4111   22.3597  -33.3659 H   0  0  0  0  0  0  0  0  0  0  0  0
  1  2  1  0
  2  3  2  0
  3  4  1  0
  4  5  2  0
  5  6  1  0
  6  7  2  0
  6  8  1  0
  5  9  1  0
  9 10  2  0
 10  2  1  0
  1 11  1  0
  1 12  1  0
  1 13  1  0
  3 14  1  0
  4 15  1  0
  9 16  1  0
 10 17  1  0
M  CHG  2   6   1   8  -1
M  END
>  <UniqueID>  (8) 
7

>  <SMILES>  (8) 
Cc1ccc([N+](=O)[O-])cc1

>  <Energy>  (8) 
15.856432099944993

>  <Genealogy>  (8) 
Cc1ccc([N+](=O)[O-])cc1 (3D coordinates assigned)
Cc1ccc([N+](=O)[O-])cc1 (optimized conformer: 15.856432099944993 kcal/mol)

>  <smiles>  (8) 
Cc1ccc([N+](=O)[O-])cc1

>  <score_type>  (8) 
oracle

>  <origin>  (8) 
adgpu

>  <m_score__min__energy>  (8) 
-5.6600000000000001

>  <m_primary>  (8) 
energy

$$$$
8:0
     RDKit          3D

 28 30  0  0  0  0  0  0  0  0999 V2000
    0.3050   26.0000  -25.1520 F   0  0  0  0  0  0  0  0  0  0  0  0
   -0.5620   25.6470  -26.1330 C   0  0  0  0  0  0  0  0  0  0  0  0
   -0.1450   25.6430  -27.4660 C   0  0  0  0  0  0  0  0  0  0  0  0
   -1.0370   25.2800  -28.4800 C   0  0  0  0  0  0  0  0  0  0  0  0
   -2.3600   24.9140  -28.1670 C   0  0  0  0  0  0  0  0  0  0  0  0
   -3.3240   24.5250  -29.2220 C   0  0  0  0  0  0  0  0  0  0  0  0
   -4.1640   23.4260  -29.2320 C   0  0  0  0  0  0  0  0  0  0  0  0
   -4.8420   23.5380  -30.4350 C   0  0  0  0  0  0  0  0  0  0  0  0
   -5.8780   22.6200  -30.9690 C   0  0  0  0  0  0  0  0  0  0  0  0
   -7.2130   22.6840  -30.5260 C   0  0  0  0  0  0  0  0  0  0  0  0
   -8.1740   21.8090  -31.0420 C   0  0  0  0  0  0  0  0  0  0  0  0
   -7.8170   20.8610  -32.0030 C   0  0  0  0  0  0  0  0  0  0  0  0
   -9.1330   19.6680  -32.7060 Br  0  0  0  0  0  0  0  0  0  0  0  0
   -6.4960   20.7870  -32.4510 C   0  0  0  0  0  0  0  0  0  0  0  0
   -5.5310   21.6600  -31.9390 C   0  0  0  0  0  0  0  0  0  0  0  0
   -4.4140   24.6410  -31.0820 N   0  0  0  0  0  0  0  0  0  0  0  0
   -3.5130   25.2030  -30.3310 O   0  0  0  0  0  0  0  0  0  0  0  0
   -2.7680   24.9220  -26.8210 C   0  0  0  0  0  0  0  0  0  0  0  0
   -1.8720   25.2870  -25.8110 C   0  0  0  0  0  0  0  0  0  0  0  0
    0.8875   25.9260  -27.7188 H   0  0  0  0  0  0  0  0  0  0  0  0
   -0.7031   25.2804  -29.5281 H   0  0  0  0  0  0  0  0  0  0  0  0
   -4.2691   22.6454  -28.4641 H   0  0  0  0  0  0  0  0  0  0  0  0
   -7.5020   23.4276  -29.7687 H   0  0  0  0  0  0  0  0  0  0  0  0
   -9.2144   21.8677  -30.6897 H   0  0  0  0  0  0  0  0  0  0  0  0
   -6.2142   20.0404  -33.2081 H   0  0  0  0  0  0  0  0  0  0  0  0
   -4.4928   21.5963  -32.2968 H   0  0  0  0  0  0  0  0  0  0  0  0
   -3.7987   24.6393  -26.5609 H   0  0  0  0  0  0  0  0  0  0  0  0
   -2.2000   25.2905  -24.7610 H   0  0  0  0  0  0  0  0  0  0  0  0
  1  2  1  0
  2  3  2  0
  3  4  1  0
  4  5  2  0
  5  6  1  0
  6  7  2  0
  7  8  1  0
  8  9  1  0
  9 10  2  0
 10 11  1  0
 11 12  2  0
 12 13  1  0
 12 14  1  0
 14 15  2  0
  8 16  2  0
 16 17  1  0
  5 18  1  0
 18 19  2  0
 19  2  1  0
 17  6  1  0
 15  9  1  0
  3 20  1  0
  4 21  1  0
  7 22  1  0
 10 23  1  0
 11 24  1  0
 14 25  1  0
 15 26  1  0
 18 27  1  0
 19 28  1  0
M  END
>  <UniqueID>  (9) 
8

>  <SMILES>  (9) 
Fc1ccc(-c2cc(-c3ccc(Br)cc3)no2)cc1

>  <Energy>  (9) 
63.53987079289258

>  <Genealogy>  (9) 
Fc1ccc(-c2cc(-c3ccc(Br)cc3)no2)cc1 (3D coordinates assigned)
Fc1ccc(-c2cc(-c3ccc(Br)cc3)no2)cc1 (optimized conformer: 63.53987079289258 kcal/mol)

>  <smiles>  (9) 
Fc1ccc(-c2cc(-c3ccc(Br)cc3)no2)cc1

>  <score_type>  (9) 
oracle

>  <origin>  (9) 
adgpu

>  <m_score__min__energy>  (9) 
-8.6300000000000008

>  <m_primary>  (9) 
energy

$$$$
9:0
     RDKit          3D

 32 33  0  0  0  0  0  0  0  0999 V2000
   -0.5420   22.1260  -35.4850 H   0  0  0  0  0  0  0  0  0  0  0  0
   -0.1250   21.9070  -34.5530 N   0  0  0  0  0  0  0  0  0  0  0  0
   -0.8390   21.4630  -33.5660 C   0  0  0  0  0  0  0  0  0  0  0  0
   -0.2230   21.1920  -32.3390 C   0  0  0  0  0  0  0  0  0  0  0  0
    0.8574   21.3571  -32.2147 H   0  0  0  0  0  0  0  0  0  0  0  0
   -0.9880   20.7100  -31.2710 C   0  0  0  0  0  0  0  0  0  0  0  0
   -0.3560   20.4710  -29.9320 C   0  0  0  0  0  0  0  0  0  0  0  0
   -1.0675   20.7401  -29.1374 H   0  0  0  0  0  0  0  0  0  0  0  0
   -0.0862   19.4087  -29.8383 H   0  0  0  0  0  0  0  0  0  0  0  0
    0.5492   21.0889  -29.8383 H   0  0  0  0  0  0  0  0  0  0  0  0
   -2.3640   20.5290  -31.4430 C   0  0  0  0  0  0  0  0  0  0  0  0
   -2.9825   20.1728  -30.6060 H   0  0  0  0  0  0  0  0  0  0  0  0
   -2.9530   20.8030  -32.6860 C   0  0  0  0  0  0  0  0  0  0  0  0
   -4.4430   20.6670  -32.8630 C   0  0  0  0  0  0  0  0  0  0  0  0
   -4.7950   21.4554  -33.5446 H   0  0  0  0  0  0  0  0  0  0  0  0
   -4.6509   19.6690  -33.2763 H   0  0  0  0  0  0  0  0  0  0  0  0
   -5.1850   20.7970  -31.5250 C   0  0  0  0  0  0  0  0  0  0  0  0
   -6.1555   20.2852  -31.6043 H   0  0  0  0  0  0  0  0  0  0  0  0
   -4.5620   20.3410  -30.7415 H   0  0  0  0  0  0  0  0  0  0  0  0
   -5.4220   22.2400  -31.1570 C   0  0  0  0  0  0  0  0  0  0  0  0
   -6.7300   22.7510  -31.0940 C   0  0  0  0  0  0  0  0  0  0  0  0
   -7.5875   22.0854  -31.2721 H   0  0  0  0  0  0  0  0  0  0  0  0
   -6.9450   24.1010  -30.8060 C   0  0  0  0  0  0  0  0  0  0  0  0
   -7.9707   24.4952  -30.7553 H   0  0  0  0  0  0  0  0  0  0  0  0
   -5.8580   24.9520  -30.5820 C   0  0  0  0  0  0  0  0  0  0  0  0
   -6.0297   26.0139  -30.3521 H   0  0  0  0  0  0  0  0  0  0  0  0
   -4.5530   24.4540  -30.6500 C   0  0  0  0  0  0  0  0  0  0  0  0
   -3.4740   25.3010  -30.4330 O   0  0  0  0  0  0  0  0  0  0  0  0
   -4.3350   23.1030  -30.9400 C   0  0  0  0  0  0  0  0  0  0  0  0
   -3.3075   22.7146  -30.9984 H   0  0  0  0  0  0  0  0  0  0  0  0
   -2.1820   21.2660  -33.7130 N   0  0  0  0  0  0  0  0  0  0  0  0
   -2.6360   21.4840  -34.6300 H   0  0  0  0  0  0  0  0  0  0  0  0
  1  2  1  0
  2  3  2  0
  3  4  1  0
  4  5  1  0
  4  6  2  0
  6  7  1  0
  7  8  1  0
  7  9  1  0
  7 10  1  0
  6 11  1  0
 11 12  1  0
 11 13  2  0
 13 14  1  0
 14 15  1  0
 14 16  1  0
 14 17  1  0
 17 18  1  0
 17 19  1  0
 17 20  1  0
 20 21  2  0
 21 22  1  0
 21 23  1  0
 23 24  1  0
 23 25  2  0
 25 26  1  0
 25 27  1  0
 27 28  1  0
 27 29  2  0
 29 30  1  0
 13 31  1  0
 31 32  1  0
 31  3  1  0
 29 20  1  0
M  CHG  1  28  -1
M  END
>  <UniqueID>  (10) 
9

>  <SMILES>  (10) 
[H]/N=c1/cc(C)cc(CCc2cccc([O-])c2)[nH]1

>  <Energy>  (10) 
27.65828516968762

>  <Genealogy>  (10) 
Cc1cc(CCc2cccc([O-])c2)[nH]c(=N)c1 (protonated)
[H]/N=c1/cc(C)cc(CCc2cccc([O-])c2)[nH]1 (cis-trans isomerization)
[H]/N=c1/cc(C)cc(CCc2cccc([O-])c2)[nH]1 (3D coordinates assigned)
[H]/N=c1/cc(C)cc(CCc2cccc([O-])c2)[nH]1 (optimized conformer: 27.65828516968762 kcal/mol)

>  <smiles>  (10) 
Cc1cc(CCc2cccc(O)c2)[nH]c(=N)c1

>  <score_type>  (10) 
oracle

>  <origin>  (10) 
adgpu

>  <m_score__min__energy>  (10) 
-10.210000000000001

>  <m_primary>  (10) 
energy

$$$$
10:0
     RDKit          3D

 31 32  0  0  0  0  0  0  0  0999 V2000
    1.3260   27.5610  -24.2730 C   0  0  0  0  0  0  0  0  0  0  0  0
    0.7860   27.5330  -22.9090 N   0  0  0  0  0  0  0  0  0  0  0  0
   -0.4880   26.7980  -22.8320 C   0  0  0  0  0  0  0  0  0  0  0  0
   -0.8230   26.1110  -24.1340 C   0  0  0  0  0  0  0  0  0  0  0  0
   -0.3630   24.8100  -24.3840 C   0  0  0  0  0  0  0  0  0  0  0  0
   -0.6520   24.1780  -25.5960 C   0  0  0  0  0  0  0  0  0  0  0  0
   -1.4050   24.8380  -26.5840 C   0  0  0  0  0  0  0  0  0  0  0  0
   -1.7120   24.1680  -27.8740 C   0  0  0  0  0  0  0  0  0  0  0  0
   -0.7660   23.3240  -28.4840 C   0  0  0  0  0  0  0  0  0  0  0  0
   -1.0580   22.6950  -29.6980 C   0  0  0  0  0  0  0  0  0  0  0  0
   -2.2930   22.8990  -30.3160 C   0  0  0  0  0  0  0  0  0  0  0  0
   -2.5630   22.2830  -31.4940 F   0  0  0  0  0  0  0  0  0  0  0  0
   -3.2420   23.7360  -29.7200 C   0  0  0  0  0  0  0  0  0  0  0  0
   -4.8010   23.9950  -30.4870 Cl  0  0  0  0  0  0  0  0  0  0  0  0
   -2.9540   24.3680  -28.5060 C   0  0  0  0  0  0  0  0  0  0  0  0
   -1.8610   26.1450  -26.3300 C   0  0  0  0  0  0  0  0  0  0  0  0
   -1.5710   26.7760  -25.1180 C   0  0  0  0  0  0  0  0  0  0  0  0
    2.4237   27.6179  -24.2317 H   0  0  0  0  0  0  0  0  0  0  0  0
    1.0261   26.6461  -24.8050 H   0  0  0  0  0  0  0  0  0  0  0  0
    0.9330   28.4400  -24.8050 H   0  0  0  0  0  0  0  0  0  0  0  0
    1.4910   27.1050  -22.2640 H   0  0  0  0  0  0  0  0  0  0  0  0
    0.6190   28.5190  -22.6020 H   0  0  0  0  0  0  0  0  0  0  0  0
   -0.4132   26.0394  -22.0389 H   0  0  0  0  0  0  0  0  0  0  0  0
   -1.2863   27.5228  -22.6145 H   0  0  0  0  0  0  0  0  0  0  0  0
    0.2292   24.2837  -23.6209 H   0  0  0  0  0  0  0  0  0  0  0  0
   -0.2879   23.1563  -25.7791 H   0  0  0  0  0  0  0  0  0  0  0  0
    0.2092   23.1580  -28.0029 H   0  0  0  0  0  0  0  0  0  0  0  0
   -0.3120   22.0371  -30.1678 H   0  0  0  0  0  0  0  0  0  0  0  0
   -3.7033   25.0260  -28.0417 H   0  0  0  0  0  0  0  0  0  0  0  0
   -2.4510   26.6743  -27.0927 H   0  0  0  0  0  0  0  0  0  0  0  0
   -1.9306   27.7991  -24.9338 H   0  0  0  0  0  0  0  0  0  0  0  0
  1  2  1  0
  2  3  1  0
  3  4  1  0
  4  5  2  0
  5  6  1  0
  6  7  2  0
  7  8  1  0
  8  9  2  0
  9 10  1  0
 10 11  2  0
 11 12  1  0
 11 13  1  0
 13 14  1  0
 13 15  2  0
  7 16  1  0
 16 17  2  0
 17  4  1  0
 15  8  1  0
  1 18  1  0
  1 19  1  0
  1 20  1  0
  2 21  1  0
  2 22  1  0
  3 23  1  0
  3 24  1  0
  5 25  1  0
  6 26  1  0
  9 27  1  0
 10 28  1  0
 15 29  1  0
 16 30  1  0
 17 31  1  0
M  CHG  1   2   1
M  END
>  <UniqueID>  (11) 
10

>  <SMILES>  (11) 
C[NH2+]Cc1ccc(-c2ccc(F)c(Cl)c2)cc1

>  <Energy>  (11) 
35.58237493966164

>  <Genealogy>  (11) 
C[NH2+]Cc1ccc(-c2ccc(F)c(Cl)c2)cc1 (protonated)
C[NH2+]Cc1ccc(-c2ccc(F)c(Cl)c2)cc1 (3D coordinates assigned)
C[NH2+]Cc1ccc(-c2ccc(F)c(Cl)c2)cc1 (optimized conformer: 35.58237493966164 kcal/mol)

>  <smiles>  (11) 
CNCc1ccc(-c2ccc(F)c(Cl)c2)cc1

>  <score_type>  (11) 
oracle

>  <origin>  (11) 
adgpu

>  <m_score__min__energy>  (11) 
-6.7300000000000004

>  <m_primary>  (11) 
energy

$$$$
11:0
     RDKit          3D

 16 16  0  0  0  0  0  0  0  0999 V2000
   -6.3130   23.7950  -30.7680 C   0  0  0  0  0  0  0  0  0  0  0  0
   -7.6130   23.1390  -30.8880 N   0  0  0  0  0  0  0  0  0  0  0  0
   -7.8730   22.0730  -31.5910 C   0  0  0  0  0  0  0  0  0  0  0  0
   -6.8870   21.4050  -32.3480 C   0  0  0  0  0  0  0  0  0  0  0  0
   -7.2360   20.2670  -33.0800 C   0  0  0  0  0  0  0  0  0  0  0  0
   -8.5150   19.8060  -33.0630 N   0  0  0  0  0  0  0  0  0  0  0  0
   -9.4840   20.4310  -32.3430 C   0  0  0  0  0  0  0  0  0  0  0  0
   -9.1810   21.5730  -31.5970 C   0  0  0  0  0  0  0  0  0  0  0  0
   -6.0628   23.9213  -29.7043 H   0  0  0  0  0  0  0  0  0  0  0  0
   -5.5441   23.1770  -31.2547 H   0  0  0  0  0  0  0  0  0  0  0  0
   -6.3534   24.7807  -31.2547 H   0  0  0  0  0  0  0  0  0  0  0  0
   -5.8520   21.7772  -32.3617 H   0  0  0  0  0  0  0  0  0  0  0  0
   -6.4725   19.7418  -33.6727 H   0  0  0  0  0  0  0  0  0  0  0  0
   -8.7590   18.9540  -33.6170 H   0  0  0  0  0  0  0  0  0  0  0  0
  -10.5107   20.0362  -32.3477 H   0  0  0  0  0  0  0  0  0  0  0  0
   -9.9673   22.0776  -31.0164 H   0  0  0  0  0  0  0  0  0  0  0  0
  1  2  1  0
  2  3  2  3
  3  4  1  0
  4  5  2  0
  5  6  1  0
  6  7  1  0
  7  8  2  0
  8  3  1  0
  1  9  1  0
  1 10  1  0
  1 11  1  0
  4 12  1  0
  5 13  1  0
  6 14  1  0
  7 15  1  0
  8 16  1  0
M  END
>  <UniqueID>  (12) 
11

>  <SMILES>  (12) 
CN=c1cc[nH]cc1

>  <Energy>  (12) 
15.258805790540434

>  <Genealogy>  (12) 
CN=c1cc[nH]cc1 (3D coordinates assigned)
CN=c1cc[nH]cc1 (optimized conformer: 15.258805790540434 kcal/mol)

>  <smiles>  (12) 
CN=c1cc[nH]cc1

>  <score_type>  (12) 
oracle

>  <origin>  (12) 
adgpu

>  <m_score__min__energy>  (12) 
-4.0199999999999996

>  <m_primary>  (12) 
energy

$$$$
12:0
     RDKit          3D

 27 28  0  0  1  0  0  0  0  0999 V2000
   -6.2270   25.3430  -29.4420 C   0  0  0  0  0  0  0  0  0  0  0  0
   -5.4050   25.5490  -30.6680 C   0  0  0  0  0  0  0  0  0  0  0  0
   -4.3200   24.6320  -30.8500 N   0  0  0  0  0  0  0  0  0  0  0  0
   -4.4470   23.4040  -31.1760 C   0  0  0  0  0  0  0  0  0  0  0  0
   -3.2970   22.6560  -31.3120 C   0  0  0  0  0  0  0  0  0  0  0  0
   -3.4220   21.3270  -31.6640 C   0  0  0  0  0  0  0  0  0  0  0  0
   -4.6720   20.8470  -31.8530 N   0  0  0  0  0  0  0  0  0  0  0  0
   -5.7730   21.6180  -31.7080 C   0  0  0  0  0  0  0  0  0  0  0  0
   -7.0560   20.9690  -31.9420 C   0  0  0  0  0  0  0  0  0  0  0  0
   -8.2700   21.6000  -31.7700 C   0  0  0  0  0  0  0  0  0  0  0  0
   -9.4710   20.9710  -31.9960 C   0  0  0  0  0  0  0  0  0  0  0  0
   -9.4810   19.6490  -32.4150 C   0  0  0  0  0  0  0  0  0  0  0  0
   -8.2510   19.0500  -32.5770 C   0  0  0  0  0  0  0  0  0  0  0  0
   -7.0820   19.6860  -32.3490 N   0  0  0  0  0  0  0  0  0  0  0  0
   -5.6830   22.9050  -31.3690 N   0  0  0  0  0  0  0  0  0  0  0  0
   -5.6017   25.4997  -28.5507 H   0  0  0  0  0  0  0  0  0  0  0  0
   -7.0613   26.0598  -29.4352 H   0  0  0  0  0  0  0  0  0  0  0  0
   -6.6247   24.3174  -29.4352 H   0  0  0  0  0  0  0  0  0  0  0  0
   -6.0705   25.4623  -31.5395 H   0  0  0  0  0  0  0  0  0  0  0  0
   -4.9433   26.5411  -30.5560 H   0  0  0  0  0  0  0  0  0  0  0  0
   -2.3072   23.1057  -31.1447 H   0  0  0  0  0  0  0  0  0  0  0  0
   -2.5385   20.6831  -31.7861 H   0  0  0  0  0  0  0  0  0  0  0  0
   -4.7220   19.8310  -32.1190 H   0  0  0  0  0  0  0  0  0  0  0  0
   -8.2775   22.6489  -31.4386 H   0  0  0  0  0  0  0  0  0  0  0  0
  -10.4169   21.5120  -31.8457 H   0  0  0  0  0  0  0  0  0  0  0  0
  -10.4195   19.1084  -32.6074 H   0  0  0  0  0  0  0  0  0  0  0  0
   -8.2197   18.0016  -32.9085 H   0  0  0  0  0  0  0  0  0  0  0  0
  1  2  1  0
  2  3  1  0
  3  4  2  0
  4  5  1  0
  5  6  2  0
  6  7  1  0
  7  8  1  0
  8  9  1  0
  9 10  2  0
 10 11  1  0
 11 12  2  0
 12 13  1  0
 13 14  2  0
  8 15  2  0
 15  4  1  0
 14  9  1  0
  1 16  1  0
  1 17  1  0
  1 18  1  0
  2 19  1  0
  2 20  1  0
  5 21  1  0
  6 22  1  0
  7 23  1  0
 10 24  1  0
 11 25  1  0
 12 26  1  0
 13 27  1  0
M  END
>  <smiles>  (13) 
CCN=c1cc[nH]c(-c2ccccn2)n1

>  <score_type>  (13) 
oracle

>  <origin>  (13) 
adgpu

>  <m_score__min__energy>  (13) 
-5.9199999999999999

>  <m_primary>  (13) 
energy

$$$$
13:0
     RDKit          3D

 47 49  0  0  0  0  0  0  0  0999 V2000
    0.7420   19.5990  -31.2070 Cl  0  0  0  0  0  0  0  0  0  0  0  0
   -0.8460   20.1370  -31.7230 C   0  0  0  0  0  0  0  0  0  0  0  0
   -1.8450   20.3860  -30.7740 C   0  0  0  0  0  0  0  0  0  0  0  0
   -3.1100   20.8190  -31.1850 C   0  0  0  0  0  0  0  0  0  0  0  0
   -3.3820   20.9980  -32.5470 C   0  0  0  0  0  0  0  0  0  0  0  0
   -5.0080   21.5420  -33.0750 S   0  0  0  0  0  0  0  0  0  0  0  0
   -5.7500   19.9290  -32.7810 C   0  0  0  0  0  0  0  0  0  0  0  0
   -5.1390   18.8110  -33.3640 C   0  0  0  0  0  0  0  0  0  0  0  0
   -5.6930   17.5400  -33.2090 C   0  0  0  0  0  0  0  0  0  0  0  0
   -6.8620   17.3760  -32.4680 C   0  0  0  0  0  0  0  0  0  0  0  0
   -7.4770   18.4790  -31.8730 C   0  0  0  0  0  0  0  0  0  0  0  0
   -6.9280   19.7720  -32.0110 C   0  0  0  0  0  0  0  0  0  0  0  0
   -7.5430   20.9140  -31.3750 N   0  0  0  0  0  0  0  0  0  0  0  0
   -8.7780   21.5480  -31.8360 C   0  0  0  0  0  0  0  0  0  0  0  0
   -8.5770   23.0620  -31.9780 C   0  0  0  0  0  0  0  0  0  0  0  0
   -7.1090   23.4630  -31.7800 C   0  0  0  0  0  0  0  0  0  0  0  0
   -6.7680   23.5050  -30.3380 N   0  0  0  0  0  0  0  0  0  0  0  0
   -6.8320   24.8740  -29.7920 C   0  0  0  0  0  0  0  0  0  0  0  0
   -5.6690   25.7530  -30.3120 C   0  0  0  0  0  0  0  0  0  0  0  0
   -4.6050   24.9980  -30.8680 O   0  0  0  0  0  0  0  0  0  0  0  0
   -4.3020   23.9010  -30.0340 C   0  0  0  0  0  0  0  0  0  0  0  0
   -5.4560   22.8780  -30.0430 C   0  0  0  0  0  0  0  0  0  0  0  0
   -2.3800   20.7540  -33.4950 C   0  0  0  0  0  0  0  0  0  0  0  0
   -1.1150   20.3220  -33.0840 C   0  0  0  0  0  0  0  0  0  0  0  0
   -1.6348   20.2409  -29.7041 H   0  0  0  0  0  0  0  0  0  0  0  0
   -3.8919   21.0191  -30.4376 H   0  0  0  0  0  0  0  0  0  0  0  0
   -4.2155   18.9364  -33.9483 H   0  0  0  0  0  0  0  0  0  0  0  0
   -5.2075   16.6679  -33.6713 H   0  0  0  0  0  0  0  0  0  0  0  0
   -7.3014   16.3743  -32.3516 H   0  0  0  0  0  0  0  0  0  0  0  0
   -8.3994   18.3389  -31.2903 H   0  0  0  0  0  0  0  0  0  0  0  0
   -7.0920   21.3460  -30.5390 H   0  0  0  0  0  0  0  0  0  0  0  0
   -9.0603   21.1261  -32.8119 H   0  0  0  0  0  0  0  0  0  0  0  0
   -9.5737   21.3597  -31.1002 H   0  0  0  0  0  0  0  0  0  0  0  0
   -8.8980   23.3710  -32.9837 H   0  0  0  0  0  0  0  0  0  0  0  0
   -9.1754   23.5607  -31.2014 H   0  0  0  0  0  0  0  0  0  0  0  0
   -6.4629   22.7283  -32.2827 H   0  0  0  0  0  0  0  0  0  0  0  0
   -6.9544   24.4638  -32.2096 H   0  0  0  0  0  0  0  0  0  0  0  0
   -7.7863   25.3325  -30.0904 H   0  0  0  0  0  0  0  0  0  0  0  0
   -6.7505   24.8104  -28.6969 H   0  0  0  0  0  0  0  0  0  0  0  0
   -6.0605   26.4288  -31.0866 H   0  0  0  0  0  0  0  0  0  0  0  0
   -5.2642   26.3038  -29.4502 H   0  0  0  0  0  0  0  0  0  0  0  0
   -3.3844   23.4142  -30.3959 H   0  0  0  0  0  0  0  0  0  0  0  0
   -4.1590   24.2656  -29.0061 H   0  0  0  0  0  0  0  0  0  0  0  0
   -5.2477   22.1178  -30.8103 H   0  0  0  0  0  0  0  0  0  0  0  0
   -5.5162   22.4328  -29.0389 H   0  0  0  0  0  0  0  0  0  0  0  0
   -2.5886   20.9025  -34.5648 H   0  0  0  0  0  0  0  0  0  0  0  0
   -0.3310   20.1275  -33.8307 H   0  0  0  0  0  0  0  0  0  0  0  0
  1  2  1  0
  2  3  2  0
  3  4  1  0
  4  5  2  0
  5  6  1  0
  6  7  1  0
  7  8  2  0
  8  9  1  0
  9 10  2  0
 10 11  1  0
 11 12  2  0
 12 13  1  0
 13 14  1  0
 14 15  1  0
 15 16  1  0
 16 17  1  0
 17 18  1  0
 18 19  1  0
 19 20  1  0
 20 21  1  0
 21 22  1  0
  5 23  1  0
 23 24  2  0
 24  2  1  0
 12  7  1  0
 22 17  1  0
  3 25  1  0
  4 26  1  0
  8 27  1  0
  9 28  1  0
 10 29  1  0
 11 30  1  0
 13 31  1  0
 14 32  1  0
 14 33  1  0
 15 34  1  0
 15 35  1  0
 16 36  1  0
 16 37  1  0
 18 38  1  0
 18 39  1  0
 19 40  1  0
 19 41  1  0
 21 42  1  0
 21 43  1  0
 22 44  1  0
 22 45  1  0
 23 46  1  0
 24 47  1  0
M  END
>  <UniqueID>  (14) 
12

>  <SMILES>  (14) 
Clc1ccc(Sc2ccccc2NCCCN2CCOCC2)cc1

>  <Energy>  (14) 
53.248021865452806

>  <Genealogy>  (14) 
Clc1ccc(Sc2ccccc2NCCCN2CCOCC2)cc1 (3D coordinates assigned)
Clc1ccc(Sc2ccccc2NCCCN2CCOCC2)cc1 (nonaromatic ring conformer: 53.248021865452806 kcal/mol)

>  <smiles>  (14) 
Clc1ccc(Sc2ccccc2NCCCN2CCOCC2)cc1

>  <score_type>  (14) 
oracle

>  <origin>  (14) 
adgpu

>  <m_score__min__energy>  (14) 
-8.2899999999999991

>  <m_primary>  (14) 
energy

$$$$
14:0
     RDKit          3D

 28 29  0  0  0  0  0  0  0  0999 V2000
   -4.0960   25.3040  -30.8430 O   0  0  0  0  0  0  0  0  0  0  0  0
   -4.1760   24.1940  -30.2480 C   0  0  0  0  0  0  0  0  0  0  0  0
   -5.2240   23.2740  -30.6000 N   0  0  0  0  0  0  0  0  0  0  0  0
   -6.2750   23.6190  -31.5540 C   0  0  0  0  0  0  0  0  0  0  0  0
   -7.2520   22.4870  -31.6830 C   0  0  0  0  0  0  0  0  0  0  0  0
   -8.6060   22.7410  -31.9430 C   0  0  0  0  0  0  0  0  0  0  0  0
   -9.4970   21.6700  -32.0370 C   0  0  0  0  0  0  0  0  0  0  0  0
   -9.0340   20.3640  -31.8680 C   0  0  0  0  0  0  0  0  0  0  0  0
   -7.6790   20.1480  -31.6060 C   0  0  0  0  0  0  0  0  0  0  0  0
   -6.8260   21.2040  -31.5180 N   0  0  0  0  0  0  0  0  0  0  0  0
   -3.1740   23.8550  -29.2080 C   0  0  0  0  0  0  0  0  0  0  0  0
   -3.3110   22.6720  -28.4590 C   0  0  0  0  0  0  0  0  0  0  0  0
   -2.3720   22.3390  -27.4790 C   0  0  0  0  0  0  0  0  0  0  0  0
   -1.2800   23.1780  -27.2400 C   0  0  0  0  0  0  0  0  0  0  0  0
   -0.1010   22.7570  -26.0110 Cl  0  0  0  0  0  0  0  0  0  0  0  0
   -1.1260   24.3500  -27.9870 C   0  0  0  0  0  0  0  0  0  0  0  0
   -2.0640   24.6870  -28.9670 C   0  0  0  0  0  0  0  0  0  0  0  0
   -5.2170   22.3030  -30.2170 H   0  0  0  0  0  0  0  0  0  0  0  0
   -6.8041   24.5170  -31.2023 H   0  0  0  0  0  0  0  0  0  0  0  0
   -5.8183   23.8118  -32.5360 H   0  0  0  0  0  0  0  0  0  0  0  0
   -8.9629   23.7735  -32.0716 H   0  0  0  0  0  0  0  0  0  0  0  0
  -10.5614   21.8550  -32.2438 H   0  0  0  0  0  0  0  0  0  0  0  0
   -9.7286   19.5141  -31.9404 H   0  0  0  0  0  0  0  0  0  0  0  0
   -7.3016   19.1236  -31.4708 H   0  0  0  0  0  0  0  0  0  0  0  0
   -4.1643   22.0036  -28.6463 H   0  0  0  0  0  0  0  0  0  0  0  0
   -2.4925   21.4149  -26.8946 H   0  0  0  0  0  0  0  0  0  0  0  0
   -0.2644   25.0085  -27.8029 H   0  0  0  0  0  0  0  0  0  0  0  0
   -1.9341   25.6083  -29.5538 H   0  0  0  0  0  0  0  0  0  0  0  0
  1  2  2  0
  2  3  1  0
  3  4  1  0
  4  5  1  0
  5  6  2  0
  6  7  1  0
  7  8  2  0
  8  9  1  0
  9 10  2  0
  2 11  1  0
 11 12  2  0
 12 13  1  0
 13 14  2  0
 14 15  1  0
 14 16  1  0
 16 17  2  0
 10  5  1  0
 17 11  1  0
  3 18  1  0
  4 19  1  0
  4 20  1  0
  6 21  1  0
  7 22  1  0
  8 23  1  0
  9 24  1  0
 12 25  1  0
 13 26  1  0
 16 27  1  0
 17 28  1  0
M  END
>  <UniqueID>  (15) 
13

>  <SMILES>  (15) 
O=C(NCc1ccccn1)c1ccc(Cl)cc1

>  <Energy>  (15) 
29.12202849090479

>  <Genealogy>  (15) 
O=C(NCc1ccccn1)c1ccc(Cl)cc1 (3D coordinates assigned)
O=C(NCc1ccccn1)c1ccc(Cl)cc1 (optimized conformer: 29.12202849090479 kcal/mol)

>  <smiles>  (15) 
O=C(NCc1ccccn1)c1ccc(Cl)cc1

>  <score_type>  (15) 
oracle

>  <origin>  (15) 
adgpu

>  <m_score__min__energy>  (15) 
-7.0800000000000001

>  <m_primary>  (15) 
energy

$$$$
15:0
     RDKit          3D

 28 29  0  0  0  0  0  0  0  0999 V2000
   -5.4840   18.9150  -34.1980 Cl  0  0  0  0  0  0  0  0  0  0  0  0
   -6.8550   19.2700  -33.1630 C   0  0  0  0  0  0  0  0  0  0  0  0
   -7.6680   18.2300  -32.6990 C   0  0  0  0  0  0  0  0  0  0  0  0
   -8.7670   18.5130  -31.8830 C   0  0  0  0  0  0  0  0  0  0  0  0
   -9.0520   19.8320  -31.5230 C   0  0  0  0  0  0  0  0  0  0  0  0
   -8.2320   20.8810  -31.9730 C   0  0  0  0  0  0  0  0  0  0  0  0
   -8.5590   22.3070  -31.6160 C   0  0  0  0  0  0  0  0  0  0  0  0
   -7.6220   23.2720  -32.3460 C   0  0  0  0  0  0  0  0  0  0  0  0
   -6.4710   23.6650  -31.4590 C   0  0  0  0  0  0  0  0  0  0  0  0
   -5.2080   23.0760  -31.6310 C   0  0  0  0  0  0  0  0  0  0  0  0
   -4.1490   23.4180  -30.7850 C   0  0  0  0  0  0  0  0  0  0  0  0
   -4.3470   24.3430  -29.7550 C   0  0  0  0  0  0  0  0  0  0  0  0
   -5.6040   24.9220  -29.5680 C   0  0  0  0  0  0  0  0  0  0  0  0
   -6.6660   24.5830  -30.4120 C   0  0  0  0  0  0  0  0  0  0  0  0
   -7.1380   20.5920  -32.8040 C   0  0  0  0  0  0  0  0  0  0  0  0
   -7.4423   17.1898  -32.9764 H   0  0  0  0  0  0  0  0  0  0  0  0
   -9.4088   17.6951  -31.5236 H   0  0  0  0  0  0  0  0  0  0  0  0
   -9.9211   20.0506  -30.8852 H   0  0  0  0  0  0  0  0  0  0  0  0
   -9.5980   22.5232  -31.9054 H   0  0  0  0  0  0  0  0  0  0  0  0
   -8.4312   22.4399  -30.5316 H   0  0  0  0  0  0  0  0  0  0  0  0
   -7.2310   22.7820  -33.2499 H   0  0  0  0  0  0  0  0  0  0  0  0
   -8.1857   24.1767  -32.6175 H   0  0  0  0  0  0  0  0  0  0  0  0
   -5.0512   22.3421  -32.4352 H   0  0  0  0  0  0  0  0  0  0  0  0
   -3.1597   22.9594  -30.9295 H   0  0  0  0  0  0  0  0  0  0  0  0
   -3.5124   24.6146  -29.0919 H   0  0  0  0  0  0  0  0  0  0  0  0
   -5.7590   25.6464  -28.7549 H   0  0  0  0  0  0  0  0  0  0  0  0
   -7.6564   25.0356  -30.2565 H   0  0  0  0  0  0  0  0  0  0  0  0
   -6.5007   21.4085  -33.1743 H   0  0  0  0  0  0  0  0  0  0  0  0
  1  2  1  0
  2  3  2  0
  3  4  1  0
  4  5  2  0
  5  6  1  0
  6  7  1  0
  7  8  1  0
  8  9  1  0
  9 10  2  0
 10 11  1  0
 11 12  2  0
 12 13  1  0
 13 14  2  0
  6 15  2  0
 15  2  1  0
 14  9  1  0
  3 16  1  0
  4 17  1  0
  5 18  1  0
  7 19  1  0
  7 20  1  0
  8 21  1  0
  8 22  1  0
 10 23  1  0
 11 24  1  0
 12 25  1  0
 13 26  1  0
 14 27  1  0
 15 28  1  0
M  END
>  <UniqueID>  (16) 
14

>  <SMILES>  (16) 
Clc1cccc(CCc2ccccc2)c1

>  <Energy>  (16) 
24.986559006400466

>  <Genealogy>  (16) 
Clc1cccc(CCc2ccccc2)c1 (3D coordinates assigned)
Clc1cccc(CCc2ccccc2)c1 (optimized conformer: 24.986559006400466 kcal/mol)

>  <smiles>  (16) 
Clc1cccc(CCc2ccccc2)c1

>  <score_type>  (16) 
oracle

>  <origin>  (16) 
adgpu

>  <m_score__min__energy>  (16) 
-7.1500000000000004

>  <m_primary>  (16) 
energy

$$$$
16:0
     RDKit          3D

 25 26  0  0  0  0  0  0  0  0999 V2000
   -5.4440   18.8730  -34.1340 Cl  0  0  0  0  0  0  0  0  0  0  0  0
   -6.8510   19.2400  -33.1520 C   0  0  0  0  0  0  0  0  0  0  0  0
   -7.6140   18.2020  -32.6080 C   0  0  0  0  0  0  0  0  0  0  0  0
   -8.7370   18.4940  -31.8300 C   0  0  0  0  0  0  0  0  0  0  0  0
   -9.0970   19.8230  -31.5890 C   0  0  0  0  0  0  0  0  0  0  0  0
   -8.3290   20.8710  -32.1210 C   0  0  0  0  0  0  0  0  0  0  0  0
   -8.7280   22.3020  -31.8660 C   0  0  0  0  0  0  0  0  0  0  0  0
   -7.7240   23.2010  -32.3400 O   0  0  0  0  0  0  0  0  0  0  0  0
   -6.6780   23.7270  -31.5660 C   0  0  0  0  0  0  0  0  0  0  0  0
   -6.8940   24.5460  -30.4430 C   0  0  0  0  0  0  0  0  0  0  0  0
   -5.8060   25.0400  -29.7200 C   0  0  0  0  0  0  0  0  0  0  0  0
   -4.5110   24.7100  -30.1230 C   0  0  0  0  0  0  0  0  0  0  0  0
   -4.3170   23.9150  -31.2070 N   0  0  0  0  0  0  0  0  0  0  0  0
   -5.3610   23.4220  -31.9270 C   0  0  0  0  0  0  0  0  0  0  0  0
   -7.2090   20.5720  -32.9150 C   0  0  0  0  0  0  0  0  0  0  0  0
   -7.3299   17.1555  -32.7927 H   0  0  0  0  0  0  0  0  0  0  0  0
   -9.3390   17.6766  -31.4063 H   0  0  0  0  0  0  0  0  0  0  0  0
   -9.9851   20.0485  -30.9804 H   0  0  0  0  0  0  0  0  0  0  0  0
   -9.6740   22.5109  -32.3869 H   0  0  0  0  0  0  0  0  0  0  0  0
   -8.8475   22.4468  -30.7821 H   0  0  0  0  0  0  0  0  0  0  0  0
   -7.9195   24.7973  -30.1344 H   0  0  0  0  0  0  0  0  0  0  0  0
   -5.9679   25.6825  -28.8420 H   0  0  0  0  0  0  0  0  0  0  0  0
   -3.6464   25.0943  -29.5619 H   0  0  0  0  0  0  0  0  0  0  0  0
   -5.1684   22.7794  -32.7987 H   0  0  0  0  0  0  0  0  0  0  0  0
   -6.6123   21.3866  -33.3513 H   0  0  0  0  0  0  0  0  0  0  0  0
  1  2  1  0
  2  3  2  0
  3  4  1  0
  4  5  2  0
  5  6  1  0
  6  7  1  0
  7  8  1  0
  8  9  1  0
  9 10  2  0
 10 11  1  0
 11 12  2  0
 12 13  1  0
 13 14  2  0
  6 15  2  0
 15  2  1  0
 14  9  1  0
  3 16  1  0
  4 17  1  0
  5 18  1  0
  7 19  1  0
  7 20  1  0
 10 21  1  0
 11 22  1  0
 12 23  1  0
 14 24  1  0
 15 25  1  0
M  END
>  <UniqueID>  (17) 
15

>  <SMILES>  (17) 
Clc1cccc(COc2cccnc2)c1

>  <Energy>  (17) 
26.111481171902213

>  <Genealogy>  (17) 
Clc1cccc(COc2cccnc2)c1 (3D coordinates assigned)
Clc1cccc(COc2cccnc2)c1 (optimized conformer: 26.111481171902213 kcal/mol)

>  <smiles>  (17) 
Clc1cccc(COc2cccnc2)c1

>  <score_type>  (17) 
oracle

>  <origin>  (17) 
adgpu

>  <m_score__min__energy>  (17) 
-6.71

>  <m_primary>  (17) 
energy

$$$$
17:0
     RDKit          3D

 29 31  0  0  0  0  0  0  0  0999 V2000
   -6.1150   25.3380  -31.5720 O   0  0  0  0  0  0  0  0  0  0  0  0
   -5.1160   24.8940  -30.9470 C   0  0  0  0  0  0  0  0  0  0  0  0
   -4.1650   25.6650  -30.4690 O   0  0  0  0  0  0  0  0  0  0  0  0
   -3.3200   24.8680  -29.8590 C   0  0  0  0  0  0  0  0  0  0  0  0
   -2.1520   25.2960  -29.2380 O   0  0  0  0  0  0  0  0  0  0  0  0
   -3.7630   23.5630  -29.9620 C   0  0  0  0  0  0  0  0  0  0  0  0
   -3.0620   22.3570  -29.4680 C   0  0  0  0  0  0  0  0  0  0  0  0
   -3.3360   21.8540  -28.1840 C   0  0  0  0  0  0  0  0  0  0  0  0
   -2.6740   20.7160  -27.7160 C   0  0  0  0  0  0  0  0  0  0  0  0
   -1.7280   20.0750  -28.5200 C   0  0  0  0  0  0  0  0  0  0  0  0
   -1.4420   20.5730  -29.7930 C   0  0  0  0  0  0  0  0  0  0  0  0
   -2.1010   21.7110  -30.2660 C   0  0  0  0  0  0  0  0  0  0  0  0
   -4.9190   23.5850  -30.6680 N   0  0  0  0  0  0  0  0  0  0  0  0
   -5.8110   22.4950  -30.9670 C   0  0  0  0  0  0  0  0  0  0  0  0
   -7.1620   22.5540  -30.5850 C   0  0  0  0  0  0  0  0  0  0  0  0
   -8.0240   21.4920  -30.8750 C   0  0  0  0  0  0  0  0  0  0  0  0
   -7.5460   20.3670  -31.5530 C   0  0  0  0  0  0  0  0  0  0  0  0
   -6.2060   20.3050  -31.9450 C   0  0  0  0  0  0  0  0  0  0  0  0
   -5.3410   21.3650  -31.6550 C   0  0  0  0  0  0  0  0  0  0  0  0
   -4.0752   22.3589  -27.5447 H   0  0  0  0  0  0  0  0  0  0  0  0
   -2.8980   20.3241  -26.7129 H   0  0  0  0  0  0  0  0  0  0  0  0
   -1.2087   19.1785  -28.1504 H   0  0  0  0  0  0  0  0  0  0  0  0
   -0.6963   20.0683  -30.4249 H   0  0  0  0  0  0  0  0  0  0  0  0
   -1.8670   22.1031  -31.2668 H   0  0  0  0  0  0  0  0  0  0  0  0
   -7.5431   23.4396  -30.0555 H   0  0  0  0  0  0  0  0  0  0  0  0
   -9.0795   21.5419  -30.5693 H   0  0  0  0  0  0  0  0  0  0  0  0
   -8.2243   19.5308  -31.7779 H   0  0  0  0  0  0  0  0  0  0  0  0
   -5.8312   19.4214  -32.4823 H   0  0  0  0  0  0  0  0  0  0  0  0
   -4.2876   21.3131  -31.9674 H   0  0  0  0  0  0  0  0  0  0  0  0
  1  2  2  0
  2  3  1  0
  3  4  1  0
  4  5  1  0
  4  6  2  0
  6  7  1  0
  7  8  2  0
  8  9  1  0
  9 10  2  0
 10 11  1  0
 11 12  2  0
  6 13  1  0
 13 14  1  0
 14 15  2  0
 15 16  1  0
 16 17  2  0
 17 18  1  0
 18 19  2  0
 13  2  1  0
 19 14  1  0
 12  7  1  0
  8 20  1  0
  9 21  1  0
 10 22  1  0
 11 23  1  0
 12 24  1  0
 15 25  1  0
 16 26  1  0
 17 27  1  0
 18 28  1  0
 19 29  1  0
M  CHG  1   5  -1
M  END
>  <UniqueID>  (18) 
16

>  <SMILES>  (18) 
O=c1oc([O-])c(-c2ccccc2)n1-c1ccccc1

>  <Energy>  (18) 
76.64024705711881

>  <Genealogy>  (18) 
O=c1oc([O-])c(-c2ccccc2)n1-c1ccccc1 (protonated)
O=c1oc([O-])c(-c2ccccc2)n1-c1ccccc1 (3D coordinates assigned)
O=c1oc([O-])c(-c2ccccc2)n1-c1ccccc1 (optimized conformer: 76.64024705711881 kcal/mol)

>  <smiles>  (18) 
O=c1oc(O)c(-c2ccccc2)n1-c1ccccc1

>  <score_type>  (18) 
oracle

>  <origin>  (18) 
adgpu

>  <m_score__min__energy>  (18) 
-8.7400000000000002

>  <m_primary>  (18) 
energy

$$$$
18:0
     RDKit          3D

 28 29  0  0  0  0  0  0  0  0999 V2000
   -8.8640   21.9140  -29.7420 O   0  0  0  0  0  0  0  0  0  0  0  0
   -8.3140   22.3470  -30.7910 C   0  0  0  0  0  0  0  0  0  0  0  0
   -8.9700   22.0500  -32.1130 C   0  0  0  0  0  0  0  0  0  0  0  0
   -9.1430   20.6430  -32.2920 O   0  0  0  0  0  0  0  0  0  0  0  0
   -8.1230   19.7340  -32.6140 C   0  0  0  0  0  0  0  0  0  0  0  0
   -8.1790   18.4520  -32.0520 C   0  0  0  0  0  0  0  0  0  0  0  0
   -7.1910   17.5050  -32.3430 C   0  0  0  0  0  0  0  0  0  0  0  0
   -6.1370   17.8350  -33.1970 C   0  0  0  0  0  0  0  0  0  0  0  0
   -6.0670   19.1120  -33.7610 C   0  0  0  0  0  0  0  0  0  0  0  0
   -7.0530   20.0610  -33.4720 C   0  0  0  0  0  0  0  0  0  0  0  0
   -7.0520   23.1290  -30.6890 C   0  0  0  0  0  0  0  0  0  0  0  0
   -7.0330   24.4270  -30.1410 C   0  0  0  0  0  0  0  0  0  0  0  0
   -5.8370   25.1470  -30.0600 C   0  0  0  0  0  0  0  0  0  0  0  0
   -4.6460   24.5820  -30.5220 C   0  0  0  0  0  0  0  0  0  0  0  0
   -3.4870   25.2820  -30.4410 F   0  0  0  0  0  0  0  0  0  0  0  0
   -4.6490   23.2960  -31.0630 C   0  0  0  0  0  0  0  0  0  0  0  0
   -5.8410   22.5720  -31.1470 C   0  0  0  0  0  0  0  0  0  0  0  0
   -9.9539   22.5407  -32.1450 H   0  0  0  0  0  0  0  0  0  0  0  0
   -8.3246   22.4299  -32.9187 H   0  0  0  0  0  0  0  0  0  0  0  0
   -9.0061   18.1878  -31.3767 H   0  0  0  0  0  0  0  0  0  0  0  0
   -7.2447   16.5001  -31.8988 H   0  0  0  0  0  0  0  0  0  0  0  0
   -5.3612   17.0896  -33.4261 H   0  0  0  0  0  0  0  0  0  0  0  0
   -5.2355   19.3709  -34.4329 H   0  0  0  0  0  0  0  0  0  0  0  0
   -6.9935   21.0658  -33.9156 H   0  0  0  0  0  0  0  0  0  0  0  0
   -7.9668   24.8777  -29.7738 H   0  0  0  0  0  0  0  0  0  0  0  0
   -5.8341   26.1602  -29.6317 H   0  0  0  0  0  0  0  0  0  0  0  0
   -3.7103   22.8508  -31.4244 H   0  0  0  0  0  0  0  0  0  0  0  0
   -5.8343   21.5584  -31.5743 H   0  0  0  0  0  0  0  0  0  0  0  0
  1  2  2  0
  2  3  1  0
  3  4  1  0
  4  5  1  0
  5  6  2  0
  6  7  1  0
  7  8  2  0
  8  9  1  0
  9 10  2  0
  2 11  1  0
 11 12  2  0
 12 13  1  0
 13 14  2  0
 14 15  1  0
 14 16  1  0
 16 17  2  0
 10  5  1  0
 17 11  1  0
  3 18  1  0
  3 19  1  0
  6 20  1  0
  7 21  1  0
  8 22  1  0
  9 23  1  0
 10 24  1  0
 12 25  1  0
 13 26  1  0
 16 27  1  0
 17 28  1  0
M  END
>  <UniqueID>  (19) 
17

>  <SMILES>  (19) 
O=C(COc1ccccc1)c1ccc(F)cc1

>  <Energy>  (19) 
29.959249894473317

>  <Genealogy>  (19) 
O=C(COc1ccccc1)c1ccc(F)cc1 (3D coordinates assigned)
O=C(COc1ccccc1)c1ccc(F)cc1 (optimized conformer: 29.959249894473317 kcal/mol)

>  <smiles>  (19) 
O=C(COc1ccccc1)c1ccc(F)cc1

>  <score_type>  (19) 
oracle

>  <origin>  (19) 
adgpu

>  <m_score__min__energy>  (19) 
-6.8300000000000001

>  <m_primary>  (19) 
energy

$$$$
19:0
     RDKit          3D

 35 38  0  0  0  0  0  0  0  0999 V2000
   -3.2350   25.2970  -29.7750 F   0  0  0  0  0  0  0  0  0  0  0  0
   -4.3180   24.6080  -30.2120 C   0  0  0  0  0  0  0  0  0  0  0  0
   -5.6010   25.1230  -30.0150 C   0  0  0  0  0  0  0  0  0  0  0  0
   -6.7190   24.4150  -30.4630 C   0  0  0  0  0  0  0  0  0  0  0  0
   -6.5630   23.1820  -31.1230 C   0  0  0  0  0  0  0  0  0  0  0  0
   -7.7560   22.4360  -31.5910 C   0  0  0  0  0  0  0  0  0  0  0  0
   -8.9880   22.9700  -31.9520 C   0  0  0  0  0  0  0  0  0  0  0  0
   -9.8320   21.9810  -32.3420 N   0  0  0  0  0  0  0  0  0  0  0  0
   -9.0860   20.8650  -32.2150 C   0  0  0  0  0  0  0  0  0  0  0  0
   -9.4840   19.5680  -32.5120 C   0  0  0  0  0  0  0  0  0  0  0  0
   -8.5360   18.5490  -32.3400 C   0  0  0  0  0  0  0  0  0  0  0  0
   -7.2280   18.8670  -31.9010 C   0  0  0  0  0  0  0  0  0  0  0  0
   -6.2500   17.8820  -31.7050 O   0  0  0  0  0  0  0  0  0  0  0  0
   -5.4870   17.2820  -32.7170 C   0  0  0  0  0  0  0  0  0  0  0  0
   -5.2880   17.9790  -33.9150 C   0  0  0  0  0  0  0  0  0  0  0  0
   -4.5450   17.4080  -34.9530 C   0  0  0  0  0  0  0  0  0  0  0  0
   -4.0070   16.1270  -34.8040 C   0  0  0  0  0  0  0  0  0  0  0  0
   -4.2180   15.4130  -33.6210 C   0  0  0  0  0  0  0  0  0  0  0  0
   -4.9590   15.9830  -32.5820 C   0  0  0  0  0  0  0  0  0  0  0  0
   -6.9200   20.1650  -31.6160 N   0  0  0  0  0  0  0  0  0  0  0  0
   -7.8480   21.1080  -31.7690 N   0  0  0  0  0  0  0  0  0  0  0  0
   -5.2680   22.6660  -31.3080 C   0  0  0  0  0  0  0  0  0  0  0  0
   -4.1530   23.3790  -30.8560 C   0  0  0  0  0  0  0  0  0  0  0  0
   -5.7318   26.0891  -29.5055 H   0  0  0  0  0  0  0  0  0  0  0  0
   -7.7270   24.8237  -30.2989 H   0  0  0  0  0  0  0  0  0  0  0  0
   -9.2421   24.0399  -31.9254 H   0  0  0  0  0  0  0  0  0  0  0  0
  -10.5016   19.3489  -32.8677 H   0  0  0  0  0  0  0  0  0  0  0  0
   -8.8084   17.5034  -32.5460 H   0  0  0  0  0  0  0  0  0  0  0  0
   -5.7193   18.9831  -34.0406 H   0  0  0  0  0  0  0  0  0  0  0  0
   -4.3841   17.9671  -35.8865 H   0  0  0  0  0  0  0  0  0  0  0  0
   -3.4172   15.6803  -35.6180 H   0  0  0  0  0  0  0  0  0  0  0  0
   -3.8005   14.4016  -33.5076 H   0  0  0  0  0  0  0  0  0  0  0  0
   -5.1305   15.4152  -31.6556 H   0  0  0  0  0  0  0  0  0  0  0  0
   -5.1314   21.6971  -31.8105 H   0  0  0  0  0  0  0  0  0  0  0  0
   -3.1428   22.9710  -31.0080 H   0  0  0  0  0  0  0  0  0  0  0  0
  1  2  1  0
  2  3  2  0
  3  4  1  0
  4  5  2  0
  5  6  1  0
  6  7  2  0
  7  8  1  0
  8  9  2  0
  9 10  1  0
 10 11  2  0
 11 12  1  0
 12 13  1  0
 13 14  1  0
 14 15  2  0
 15 16  1  0
 16 17  2  0
 17 18  1  0
 18 19  2  0
 12 20  2  0
 20 21  1  0
  5 22  1  0
 22 23  2  0
 23  2  1  0
 21  6  1  0
 21  9  1  0
 19 14  1  0
  3 24  1  0
  4 25  1  0
  7 26  1  0
 10 27  1  0
 11 28  1  0
 15 29  1  0
 16 30  1  0
 17 31  1  0
 18 32  1  0
 19 33  1  0
 22 34  1  0
 23 35  1  0
M  END
>  <UniqueID>  (20) 
18

>  <SMILES>  (20) 
Fc1ccc(-c2cnc3ccc(Oc4ccccc4)nn23)cc1

>  <Energy>  (20) 
87.03725389321058

>  <Genealogy>  (20) 
Fc1ccc(-c2cnc3ccc(Oc4ccccc4)nn23)cc1 (3D coordinates assigned)
Fc1ccc(-c2cnc3ccc(Oc4ccccc4)nn23)cc1 (optimized conformer: 87.03725389321058 kcal/mol)

>  <smiles>  (20) 
Fc1ccc(-c2cnc3ccc(Oc4ccccc4)nn23)cc1

>  <score_type>  (20) 
oracle

>  <origin>  (20) 
adgpu

>  <m_score__min__energy>  (20) 
-8.3499999999999996

>  <m_primary>  (20) 
energy

$$$$
20:0
     RDKit          3D

 25 27  0  0  0  0  0  0  0  0999 V2000
   -8.4120   24.1685  -31.0615 H   0  0  0  0  0  0  0  0  0  0  0  0
   -7.3860   23.8090  -31.2290 C   0  0  0  0  0  0  0  0  0  0  0  0
   -7.1680   22.6220  -31.9350 C   0  0  0  0  0  0  0  0  0  0  0  0
   -8.0229   22.0435  -32.3151 H   0  0  0  0  0  0  0  0  0  0  0  0
   -5.8640   22.1700  -32.1580 C   0  0  0  0  0  0  0  0  0  0  0  0
   -5.5890   20.6920  -33.0620 Cl  0  0  0  0  0  0  0  0  0  0  0  0
   -4.7770   22.9010  -31.6660 C   0  0  0  0  0  0  0  0  0  0  0  0
   -3.7516   22.5534  -31.8601 H   0  0  0  0  0  0  0  0  0  0  0  0
   -4.9870   24.0740  -30.9270 C   0  0  0  0  0  0  0  0  0  0  0  0
   -3.8490   24.8220  -30.4730 N   0  0  0  0  0  0  0  0  0  0  0  0
   -3.0500   24.4980  -29.4980 C   0  0  0  0  0  0  0  0  0  0  0  0
   -2.0260   25.3000  -29.1220 N   0  0  0  0  0  0  0  0  0  0  0  0
   -1.3070   24.7320  -28.1200 C   0  0  0  0  0  0  0  0  0  0  0  0
   -0.1940   25.3180  -27.5160 C   0  0  0  0  0  0  0  0  0  0  0  0
    0.1610   26.3085  -27.8368 H   0  0  0  0  0  0  0  0  0  0  0  0
    0.4650   24.6190  -26.4900 C   0  0  0  0  0  0  0  0  0  0  0  0
    1.3446   25.0652  -26.0029 H   0  0  0  0  0  0  0  0  0  0  0  0
    0.0070   23.3510  -26.0810 C   0  0  0  0  0  0  0  0  0  0  0  0
    0.5296   22.8141  -25.2756 H   0  0  0  0  0  0  0  0  0  0  0  0
   -1.1130   22.7690  -26.6960 C   0  0  0  0  0  0  0  0  0  0  0  0
   -1.4778   21.7786  -26.3861 H   0  0  0  0  0  0  0  0  0  0  0  0
   -1.7490   23.4820  -27.7100 C   0  0  0  0  0  0  0  0  0  0  0  0
   -3.0900   23.0420  -28.6180 S   0  0  0  0  0  0  0  0  0  0  0  0
   -6.3010   24.5390  -30.7360 C   0  0  0  0  0  0  0  0  0  0  0  0
   -6.4752   25.4815  -30.1962 H   0  0  0  0  0  0  0  0  0  0  0  0
  1  2  1  0
  2  3  2  0
  3  4  1  0
  3  5  1  0
  5  6  1  0
  5  7  2  0
  7  8  1  0
  7  9  1  0
  9 10  1  0
 10 11  2  0
 11 12  1  0
 12 13  1  0
 13 14  2  0
 14 15  1  0
 14 16  1  0
 16 17  1  0
 16 18  2  0
 18 19  1  0
 18 20  1  0
 20 21  1  0
 20 22  2  0
 22 23  1  0
  9 24  2  0
 24 25  1  0
 24  2  1  0
 23 11  1  0
 22 13  1  0
M  CHG  1  12  -1
M  END
>  <UniqueID>  (21) 
19

>  <SMILES>  (21) 
Clc1cccc(/N=c2/[n-]c3ccccc3s2)c1

>  <Energy>  (21) 
69.83074698441628

>  <Genealogy>  (21) 
Clc1cccc(N=c2[n-]c3ccccc3s2)c1 (protonated)
Clc1cccc(/N=c2/[n-]c3ccccc3s2)c1 (cis-trans isomerization)
Clc1cccc(/N=c2/[n-]c3ccccc3s2)c1 (3D coordinates assigned)
Clc1cccc(/N=c2/[n-]c3ccccc3s2)c1 (optimized conformer: 69.83074698441628 kcal/mol)

>  <smiles>  (21) 
Clc1cccc(N=c2[nH]c3ccccc3s2)c1

>  <score_type>  (21) 
oracle

>  <origin>  (21) 
adgpu

>  <m_score__min__energy>  (21) 
-8.75

>  <m_primary>  (21) 
energy

$$$$
21:0
     RDKit          3D

 44 46  0  0  0  0  0  0  0  0999 V2000
   -2.8850   20.4150  -31.3810 C   0  0  0  0  0  0  0  0  0  0  0  0
   -4.0020   20.8250  -30.4250 C   0  0  0  0  0  0  0  0  0  0  0  0
   -4.6080   22.1640  -30.8330 C   0  0  0  0  0  0  0  0  0  0  0  0
   -4.0350   23.3710  -30.3610 C   0  0  0  0  0  0  0  0  0  0  0  0
   -2.8090   23.3900  -29.5320 C   0  0  0  0  0  0  0  0  0  0  0  0
   -1.5720   23.0480  -30.0980 C   0  0  0  0  0  0  0  0  0  0  0  0
   -0.4160   23.0500  -29.3120 C   0  0  0  0  0  0  0  0  0  0  0  0
   -0.4800   23.3820  -27.9530 C   0  0  0  0  0  0  0  0  0  0  0  0
    0.7090   23.3710  -27.2070 O   0  0  0  0  0  0  0  0  0  0  0  0
    0.8160   23.8130  -25.8590 C   0  0  0  0  0  0  0  0  0  0  0  0
   -1.7260   23.7120  -27.3840 C   0  0  0  0  0  0  0  0  0  0  0  0
   -2.8810   23.7090  -28.1700 C   0  0  0  0  0  0  0  0  0  0  0  0
   -4.6550   24.5800  -30.6940 C   0  0  0  0  0  0  0  0  0  0  0  0
   -4.1800   25.6790  -30.2980 O   0  0  0  0  0  0  0  0  0  0  0  0
   -5.7730   24.5780  -31.4540 N   0  0  0  0  0  0  0  0  0  0  0  0
   -6.3270   23.4280  -31.9100 C   0  0  0  0  0  0  0  0  0  0  0  0
   -7.5710   23.5290  -32.7500 C   0  0  0  0  0  0  0  0  0  0  0  0
   -5.7560   22.2170  -31.5980 N   0  0  0  0  0  0  0  0  0  0  0  0
   -6.3710   21.0090  -32.0890 C   0  0  0  0  0  0  0  0  0  0  0  0
   -5.6870   20.2050  -33.0140 C   0  0  0  0  0  0  0  0  0  0  0  0
   -6.2720   19.0280  -33.4910 C   0  0  0  0  0  0  0  0  0  0  0  0
   -7.5370   18.6430  -33.0420 C   0  0  0  0  0  0  0  0  0  0  0  0
   -8.2210   19.4330  -32.1130 C   0  0  0  0  0  0  0  0  0  0  0  0
   -7.6440   20.6140  -31.6320 C   0  0  0  0  0  0  0  0  0  0  0  0
   -8.5230   21.5850  -30.4600 Cl  0  0  0  0  0  0  0  0  0  0  0  0
   -2.0069   20.0927  -30.8022 H   0  0  0  0  0  0  0  0  0  0  0  0
   -3.2310   19.5853  -32.0149 H   0  0  0  0  0  0  0  0  0  0  0  0
   -2.6121   21.2716  -32.0149 H   0  0  0  0  0  0  0  0  0  0  0  0
   -4.7879   20.0555  -30.4392 H   0  0  0  0  0  0  0  0  0  0  0  0
   -3.5787   20.9257  -29.4147 H   0  0  0  0  0  0  0  0  0  0  0  0
   -1.5114   22.7777  -31.1625 H   0  0  0  0  0  0  0  0  0  0  0  0
    0.5519   22.7886  -29.7647 H   0  0  0  0  0  0  0  0  0  0  0  0
    0.6124   22.9718  -25.1801 H   0  0  0  0  0  0  0  0  0  0  0  0
    1.8321   24.1931  -25.6773 H   0  0  0  0  0  0  0  0  0  0  0  0
    0.0863   24.6158  -25.6773 H   0  0  0  0  0  0  0  0  0  0  0  0
   -1.7896   23.9729  -26.3173 H   0  0  0  0  0  0  0  0  0  0  0  0
   -3.8519   23.9584  -27.7170 H   0  0  0  0  0  0  0  0  0  0  0  0
   -8.4513   23.6005  -32.0943 H   0  0  0  0  0  0  0  0  0  0  0  0
   -7.5129   24.4254  -33.3849 H   0  0  0  0  0  0  0  0  0  0  0  0
   -7.6583   22.6350  -33.3849 H   0  0  0  0  0  0  0  0  0  0  0  0
   -4.6876   20.5018  -33.3648 H   0  0  0  0  0  0  0  0  0  0  0  0
   -5.7350   18.4045  -34.2210 H   0  0  0  0  0  0  0  0  0  0  0  0
   -7.9958   17.7173  -33.4196 H   0  0  0  0  0  0  0  0  0  0  0  0
   -9.2160   19.1253  -31.7589 H   0  0  0  0  0  0  0  0  0  0  0  0
  1  2  1  0
  2  3  1  0
  3  4  2  0
  4  5  1  0
  5  6  2  0
  6  7  1  0
  7  8  2  0
  8  9  1  0
  9 10  1  0
  8 11  1  0
 11 12  2  0
  4 13  1  0
 13 14  2  0
 13 15  1  0
 15 16  2  0
 16 17  1  0
 16 18  1  0
 18 19  1  0
 19 20  2  0
 20 21  1  0
 21 22  2  0
 22 23  1  0
 23 24  2  0
 24 25  1  0
 18  3  1  0
 24 19  1  0
 12  5  1  0
  1 26  1  0
  1 27  1  0
  1 28  1  0
  2 29  1  0
  2 30  1  0
  6 31  1  0
  7 32  1  0
 10 33  1  0
 10 34  1  0
 10 35  1  0
 11 36  1  0
 12 37  1  0
 17 38  1  0
 17 39  1  0
 17 40  1  0
 20 41  1  0
 21 42  1  0
 22 43  1  0
 23 44  1  0
M  END
>  <UniqueID>  (22) 
20

>  <SMILES>  (22) 
CCc1c(-c2ccc(OC)cc2)c(=O)nc(C)n1-c1ccccc1Cl

>  <Energy>  (22) 
62.771438180005

>  <Genealogy>  (22) 
CCc1c(-c2ccc(OC)cc2)c(=O)nc(C)n1-c1ccccc1Cl (3D coordinates assigned)
CCc1c(-c2ccc(OC)cc2)c(=O)nc(C)n1-c1ccccc1Cl (optimized conformer: 62.771438180005 kcal/mol)

>  <smiles>  (22) 
CCc1c(-c2ccc(OC)cc2)c(=O)nc(C)n1-c1ccccc1Cl

>  <score_type>  (22) 
oracle

>  <origin>  (22) 
adgpu

>  <m_score__min__energy>  (22) 
-8.4600000000000009

>  <m_primary>  (22) 
energy

$$$$
22:0
     RDKit          3D

 30 31  0  0  0  0  0  0  0  0999 V2000
   -7.6280   20.2960  -33.3720 N   0  0  0  0  0  0  0  0  0  0  0  0
   -8.0820   21.2460  -32.0020 S   0  0  0  0  0  0  0  0  0  0  0  0
   -9.2900   22.0720  -32.3430 O   0  0  0  0  0  0  0  0  0  0  0  0
   -8.4290   20.3380  -30.8550 O   0  0  0  0  0  0  0  0  0  0  0  0
   -6.7480   22.3010  -31.5440 C   0  0  0  0  0  0  0  0  0  0  0  0
   -6.9840   23.4380  -30.7600 C   0  0  0  0  0  0  0  0  0  0  0  0
   -5.9270   24.2810  -30.4080 C   0  0  0  0  0  0  0  0  0  0  0  0
   -4.6270   24.0140  -30.8520 C   0  0  0  0  0  0  0  0  0  0  0  0
   -3.5670   24.8940  -30.4500 N   0  0  0  0  0  0  0  0  0  0  0  0
   -2.4380   24.5580  -29.6300 C   0  0  0  0  0  0  0  0  0  0  0  0
   -1.5880   25.4420  -29.3420 O   0  0  0  0  0  0  0  0  0  0  0  0
   -2.2960   23.1750  -29.1080 C   0  0  0  0  0  0  0  0  0  0  0  0
   -1.4100   22.2930  -29.7580 C   0  0  0  0  0  0  0  0  0  0  0  0
   -1.2300   20.9880  -29.2950 C   0  0  0  0  0  0  0  0  0  0  0  0
   -1.9340   20.5380  -28.1800 C   0  0  0  0  0  0  0  0  0  0  0  0
   -2.8220   21.3920  -27.5250 C   0  0  0  0  0  0  0  0  0  0  0  0
   -3.0130   22.7040  -27.9770 C   0  0  0  0  0  0  0  0  0  0  0  0
   -4.1990   23.6840  -27.1170 Cl  0  0  0  0  0  0  0  0  0  0  0  0
   -4.3880   22.8640  -31.6260 C   0  0  0  0  0  0  0  0  0  0  0  0
   -5.4470   22.0190  -31.9770 C   0  0  0  0  0  0  0  0  0  0  0  0
   -8.5080   20.0580  -33.8830 H   0  0  0  0  0  0  0  0  0  0  0  0
   -7.0720   20.9160  -34.0030 H   0  0  0  0  0  0  0  0  0  0  0  0
   -8.0048   23.6676  -30.4205 H   0  0  0  0  0  0  0  0  0  0  0  0
   -6.1181   25.1615  -29.7769 H   0  0  0  0  0  0  0  0  0  0  0  0
   -0.8528   22.6370  -30.6418 H   0  0  0  0  0  0  0  0  0  0  0  0
   -0.5310   20.3138  -29.8116 H   0  0  0  0  0  0  0  0  0  0  0  0
   -1.7898   19.5099  -27.8163 H   0  0  0  0  0  0  0  0  0  0  0  0
   -3.3768   21.0319  -26.6461 H   0  0  0  0  0  0  0  0  0  0  0  0
   -3.3656   22.6281  -31.9564 H   0  0  0  0  0  0  0  0  0  0  0  0
   -5.2563   21.1297  -32.5956 H   0  0  0  0  0  0  0  0  0  0  0  0
  1  2  1  0
  2  3  2  0
  2  4  2  0
  2  5  1  0
  5  6  2  0
  6  7  1  0
  7  8  2  0
  8  9  1  0
  9 10  1  0
 10 11  2  0
 10 12  1  0
 12 13  2  0
 13 14  1  0
 14 15  2  0
 15 16  1  0
 16 17  2  0
 17 18  1  0
  8 19  1  0
 19 20  2  0
 20  5  1  0
 17 12  1  0
  1 21  1  0
  1 22  1  0
  6 23  1  0
  7 24  1  0
 13 25  1  0
 14 26  1  0
 15 27  1  0
 16 28  1  0
 19 29  1  0
 20 30  1  0
M  CHG  1   9  -1
M  END
>  <UniqueID>  (23) 
21

>  <SMILES>  (23) 
NS(=O)(=O)c1ccc([N-]C(=O)c2ccccc2Cl)cc1

>  <Energy>  (23) 
37.47142491454804

>  <Genealogy>  (23) 
NS(=O)(=O)c1ccc([N-]C(=O)c2ccccc2Cl)cc1 (protonated)
NS(=O)(=O)c1ccc([N-]C(=O)c2ccccc2Cl)cc1 (3D coordinates assigned)
NS(=O)(=O)c1ccc([N-]C(=O)c2ccccc2Cl)cc1 (optimized conformer: 37.47142491454804 kcal/mol)

>  <smiles>  (23) 
NS(=O)(=O)c1ccc(NC(=O)c2ccccc2Cl)cc1

>  <score_type>  (23) 
oracle

>  <origin>  (23) 
adgpu

>  <m_score__min__energy>  (23) 
-9.0800000000000001

>  <m_primary>  (23) 
energy

$$$$
23:0
     RDKit          3D

 22 23  0  0  0  0  0  0  0  0999 V2000
   -2.9074   23.4283  -30.4468 H   0  0  0  0  0  0  0  0  0  0  0  0
   -3.9290   23.8360  -30.4620 C   0  0  0  0  0  0  0  0  0  0  0  0
   -4.1230   25.1820  -30.4710 N   0  0  0  0  0  0  0  0  0  0  0  0
   -5.3710   25.7210  -30.4850 C   0  0  0  0  0  0  0  0  0  0  0  0
   -5.4971   26.8137  -30.4877 H   0  0  0  0  0  0  0  0  0  0  0  0
   -6.4930   24.8900  -30.4960 C   0  0  0  0  0  0  0  0  0  0  0  0
   -7.5041   25.3232  -30.4859 H   0  0  0  0  0  0  0  0  0  0  0  0
   -6.3200   23.4970  -30.5200 C   0  0  0  0  0  0  0  0  0  0  0  0
   -7.4430   22.6040  -30.4680 N   0  0  0  0  0  0  0  0  0  0  0  0
   -7.6500   21.5510  -31.2090 C   0  0  0  0  0  0  0  0  0  0  0  0
   -8.8670   20.8690  -31.0780 C   0  0  0  0  0  0  0  0  0  0  0  0
   -9.6254   21.2249  -30.3652 H   0  0  0  0  0  0  0  0  0  0  0  0
   -9.1130   19.7370  -31.8550 C   0  0  0  0  0  0  0  0  0  0  0  0
  -10.0704   19.2032  -31.7638 H   0  0  0  0  0  0  0  0  0  0  0  0
   -8.1430   19.2840  -32.7470 C   0  0  0  0  0  0  0  0  0  0  0  0
   -8.3309   18.3971  -33.3699 H   0  0  0  0  0  0  0  0  0  0  0  0
   -6.9310   19.9680  -32.8410 C   0  0  0  0  0  0  0  0  0  0  0  0
   -6.1561   19.6141  -33.5369 H   0  0  0  0  0  0  0  0  0  0  0  0
   -6.7010   21.0720  -32.0760 N   0  0  0  0  0  0  0  0  0  0  0  0
   -5.7600   21.5150  -32.1530 H   0  0  0  0  0  0  0  0  0  0  0  0
   -5.0260   22.9700  -30.4720 C   0  0  0  0  0  0  0  0  0  0  0  0
   -4.8723   21.8812  -30.4423 H   0  0  0  0  0  0  0  0  0  0  0  0
  1  2  1  0
  2  3  2  0
  3  4  1  0
  4  5  1  0
  4  6  2  0
  6  7  1  0
  6  8  1  0
  8  9  1  0
  9 10  2  0
 10 11  1  0
 11 12  1  0
 11 13  2  0
 13 14  1  0
 13 15  1  0
 15 16  1  0
 15 17  2  0
 17 18  1  0
 17 19  1  0
 19 20  1  0
  8 21  2  0
 21 22  1  0
 21  2  1  0
 19 10  1  0
M  END
>  <UniqueID>  (24) 
22

>  <SMILES>  (24) 
c1cc/c(=N/c2ccncc2)[nH]c1

>  <Energy>  (24) 
32.87856037728965

>  <Genealogy>  (24) 
c1cc/c(=N/c2ccncc2)[nH]c1 (cis-trans isomerization)
c1cc/c(=N/c2ccncc2)[nH]c1 (3D coordinates assigned)
c1cc/c(=N/c2ccncc2)[nH]c1 (optimized conformer: 32.87856037728965 kcal/mol)

>  <smiles>  (24) 
c1ccc(=Nc2ccncc2)[nH]c1

>  <score_type>  (24) 
oracle

>  <origin>  (24) 
adgpu

>  <m_score__min__energy>  (24) 
-5.8600000000000003

>  <m_primary>  (24) 
energy

$$$$
24:0
     RDKit          3D

 23 23  0  0  0  0  0  0  0  0999 V2000
   -5.7380   25.2810  -30.8240 C   0  0  0  0  0  0  0  0  0  0  0  0
   -5.0180   24.0160  -31.0620 N   0  0  0  0  0  0  0  0  0  0  0  0
   -5.2850   23.0840  -29.9550 C   0  0  0  0  0  0  0  0  0  0  0  0
   -5.4320   23.4080  -32.3440 C   0  0  0  0  0  0  0  0  0  0  0  0
   -6.7140   22.6330  -32.1740 C   0  0  0  0  0  0  0  0  0  0  0  0
   -7.9250   23.3150  -31.9740 C   0  0  0  0  0  0  0  0  0  0  0  0
   -9.1140   22.6000  -31.7990 C   0  0  0  0  0  0  0  0  0  0  0  0
   -9.1020   21.2030  -31.8180 C   0  0  0  0  0  0  0  0  0  0  0  0
   -7.8980   20.5160  -32.0130 C   0  0  0  0  0  0  0  0  0  0  0  0
   -7.8830   18.7620  -32.0300 Cl  0  0  0  0  0  0  0  0  0  0  0  0
   -6.7070   21.2280  -32.1890 C   0  0  0  0  0  0  0  0  0  0  0  0
   -5.8342   25.4500  -29.7413 H   0  0  0  0  0  0  0  0  0  0  0  0
   -5.1778   26.1125  -31.2766 H   0  0  0  0  0  0  0  0  0  0  0  0
   -6.7390   25.2239  -31.2766 H   0  0  0  0  0  0  0  0  0  0  0  0
   -5.1367   23.6018  -28.9959 H   0  0  0  0  0  0  0  0  0  0  0  0
   -6.3224   22.7241  -30.0208 H   0  0  0  0  0  0  0  0  0  0  0  0
   -4.5955   22.2294  -30.0208 H   0  0  0  0  0  0  0  0  0  0  0  0
   -5.5862   24.2032  -33.0882 H   0  0  0  0  0  0  0  0  0  0  0  0
   -4.6432   22.7194  -32.6811 H   0  0  0  0  0  0  0  0  0  0  0  0
   -7.9385   24.4148  -31.9549 H   0  0  0  0  0  0  0  0  0  0  0  0
  -10.0608   23.1386  -31.6460 H   0  0  0  0  0  0  0  0  0  0  0  0
  -10.0386   20.6430  -31.6797 H   0  0  0  0  0  0  0  0  0  0  0  0
   -5.7616   20.6862  -32.3397 H   0  0  0  0  0  0  0  0  0  0  0  0
  1  2  1  0
  2  3  1  0
  2  4  1  0
  4  5  1  0
  5  6  2  0
  6  7  1  0
  7  8  2  0
  8  9  1  0
  9 10  1  0
  9 11  2  0
 11  5  1  0
  1 12  1  0
  1 13  1  0
  1 14  1  0
  3 15  1  0
  3 16  1  0
  3 17  1  0
  4 18  1  0
  4 19  1  0
  6 20  1  0
  7 21  1  0
  8 22  1  0
 11 23  1  0
M  END
>  <UniqueID>  (25) 
23

>  <SMILES>  (25) 
CN(C)Cc1cccc(Cl)c1

>  <Energy>  (25) 
20.491139887210025

>  <Genealogy>  (25) 
CN(C)Cc1cccc(Cl)c1 (3D coordinates assigned)
CN(C)Cc1cccc(Cl)c1 (optimized conformer: 20.491139887210025 kcal/mol)

>  <smiles>  (25) 
CN(C)Cc1cccc(Cl)c1

>  <score_type>  (25) 
oracle

>  <origin>  (25) 
adgpu

>  <m_score__min__energy>  (25) 
-5.3300000000000001

>  <m_primary>  (25) 
energy

$$$$
25:0
     RDKit          3D

 29 30  0  0  0  0  0  0  0  0999 V2000
   -2.8810   21.2770  -34.5770 H   0  0  0  0  0  0  0  0  0  0  0  0
   -3.1190   21.8620  -33.7850 O   0  0  0  0  0  0  0  0  0  0  0  0
   -4.2520   21.6160  -33.0110 C   0  0  0  0  0  0  0  0  0  0  0  0
   -4.7280   22.5870  -32.1200 C   0  0  0  0  0  0  0  0  0  0  0  0
   -4.1910   23.5409  -32.0120 H   0  0  0  0  0  0  0  0  0  0  0  0
   -5.8890   22.3480  -31.3630 C   0  0  0  0  0  0  0  0  0  0  0  0
   -6.4220   23.3620  -30.4290 C   0  0  0  0  0  0  0  0  0  0  0  0
   -7.5090   23.3748  -30.2607 H   0  0  0  0  0  0  0  0  0  0  0  0
   -5.6820   24.2700  -29.7690 C   0  0  0  0  0  0  0  0  0  0  0  0
   -6.1961   24.8924  -29.0218 H   0  0  0  0  0  0  0  0  0  0  0  0
   -4.2330   24.5020  -29.9640 C   0  0  0  0  0  0  0  0  0  0  0  0
   -3.8780   25.3080  -30.8640 O   0  0  0  0  0  0  0  0  0  0  0  0
   -3.1950   23.7780  -29.1890 C   0  0  0  0  0  0  0  0  0  0  0  0
   -3.4420   22.4720  -28.7260 C   0  0  0  0  0  0  0  0  0  0  0  0
   -4.3989   21.9818  -28.9586 H   0  0  0  0  0  0  0  0  0  0  0  0
   -2.4790   21.7930  -27.9720 C   0  0  0  0  0  0  0  0  0  0  0  0
   -2.6852   20.7768  -27.6048 H   0  0  0  0  0  0  0  0  0  0  0  0
   -1.2570   22.4030  -27.6850 C   0  0  0  0  0  0  0  0  0  0  0  0
   -0.3030   21.7270  -26.9340 O   0  0  0  0  0  0  0  0  0  0  0  0
   -0.9940   23.6930  -28.1520 C   0  0  0  0  0  0  0  0  0  0  0  0
   -0.0277   24.1692  -27.9294 H   0  0  0  0  0  0  0  0  0  0  0  0
   -1.9530   24.3820  -28.9010 C   0  0  0  0  0  0  0  0  0  0  0  0
   -1.6730   25.6740  -29.3350 O   0  0  0  0  0  0  0  0  0  0  0  0
   -6.5300   21.1040  -31.4630 C   0  0  0  0  0  0  0  0  0  0  0  0
   -7.4127   20.8913  -30.8420 H   0  0  0  0  0  0  0  0  0  0  0  0
   -6.0520   20.1340  -32.3480 C   0  0  0  0  0  0  0  0  0  0  0  0
   -6.5683   19.1663  -32.4322 H   0  0  0  0  0  0  0  0  0  0  0  0
   -4.9190   20.3900  -33.1270 C   0  0  0  0  0  0  0  0  0  0  0  0
   -4.4570   19.4220  -34.0110 O   0  0  0  0  0  0  0  0  0  0  0  0
  1  2  1  0
  2  3  1  0
  3  4  2  0
  4  5  1  0
  4  6  1  0
  6  7  1  0
  7  8  1  0
  7  9  2  0
  9 10  1  0
  9 11  1  0
 11 12  2  0
 11 13  1  0
 13 14  2  0
 14 15  1  0
 14 16  1  0
 16 17  1  0
 16 18  2  0
 18 19  1  0
 18 20  1  0
 20 21  1  0
 20 22  2  0
 22 23  1  0
  6 24  2  0
 24 25  1  0
 24 26  1  0
 26 27  1  0
 26 28  2  0
 28 29  1  0
 28  3  1  0
 22 13  1  0
M  CHG  3  19  -1  23  -1  29  -1
M  END
>  <UniqueID>  (26) 
24

>  <SMILES>  (26) 
O=C(/C=C\c1ccc([O-])c(O)c1)c1ccc([O-])cc1[O-]

>  <Energy>  (26) 
40.86629970847497

>  <Genealogy>  (26) 
O=C(C=Cc1ccc([O-])c(O)c1)c1ccc([O-])cc1[O-] (protonated)
O=C(/C=C\c1ccc([O-])c(O)c1)c1ccc([O-])cc1[O-] (cis-trans isomerization)
O=C(/C=C\c1ccc([O-])c(O)c1)c1ccc([O-])cc1[O-] (3D coordinates assigned)
O=C(/C=C\c1ccc([O-])c(O)c1)c1ccc([O-])cc1[O-] (optimized conformer: 40.86629970847497 kcal/mol)

>  <smiles>  (26) 
O=C(C=Cc1ccc(O)c(O)c1)c1ccc(O)cc1O

>  <score_type>  (26) 
oracle

>  <origin>  (26) 
adgpu

>  <m_score__min__energy>  (26) 
-10.539999999999999

>  <m_primary>  (26) 
energy

$$$$
26:0
     RDKit          3D

 23 24  0  0  0  0  0  0  0  0999 V2000
   -4.8660   24.5370  -28.7880 N   0  0  0  0  0  0  0  0  0  0  0  0
   -4.7490   24.2980  -30.4960 S   0  0  0  0  0  0  0  0  0  0  0  0
   -3.3750   23.8010  -30.8470 O   0  0  0  0  0  0  0  0  0  0  0  0
   -4.9920   25.6030  -31.1980 O   0  0  0  0  0  0  0  0  0  0  0  0
   -5.9450   23.1260  -31.0140 C   0  0  0  0  0  0  0  0  0  0  0  0
   -5.6290   21.8770  -31.4300 N   0  0  0  0  0  0  0  0  0  0  0  0
   -6.7450   21.1870  -31.7790 C   0  0  0  0  0  0  0  0  0  0  0  0
   -6.7440   19.8690  -32.2490 C   0  0  0  0  0  0  0  0  0  0  0  0
   -5.5200   19.1930  -32.3740 O   0  0  0  0  0  0  0  0  0  0  0  0
   -4.6840   19.2150  -33.5290 C   0  0  0  0  0  0  0  0  0  0  0  0
   -5.4220   18.9080  -34.6580 F   0  0  0  0  0  0  0  0  0  0  0  0
   -4.1540   20.4820  -33.6740 F   0  0  0  0  0  0  0  0  0  0  0  0
   -3.6470   18.3110  -33.3830 F   0  0  0  0  0  0  0  0  0  0  0  0
   -7.9890   19.2780  -32.5770 C   0  0  0  0  0  0  0  0  0  0  0  0
   -9.1870   20.0050  -32.4310 C   0  0  0  0  0  0  0  0  0  0  0  0
   -9.1670   21.3250  -31.9600 C   0  0  0  0  0  0  0  0  0  0  0  0
   -7.9350   21.8880  -31.6430 C   0  0  0  0  0  0  0  0  0  0  0  0
   -7.6080   23.4290  -31.0640 S   0  0  0  0  0  0  0  0  0  0  0  0
   -4.8800   25.5700  -28.6250 H   0  0  0  0  0  0  0  0  0  0  0  0
   -5.7980   24.1720  -28.4910 H   0  0  0  0  0  0  0  0  0  0  0  0
   -8.0206   18.2432  -32.9487 H   0  0  0  0  0  0  0  0  0  0  0  0
  -10.1463   19.5326  -32.6889 H   0  0  0  0  0  0  0  0  0  0  0  0
  -10.0982   21.8990  -31.8444 H   0  0  0  0  0  0  0  0  0  0  0  0
  1  2  1  0
  2  3  2  0
  2  4  2  0
  2  5  1  0
  5  6  2  0
  6  7  1  0
  7  8  2  0
  8  9  1  0
  9 10  1  0
 10 11  1  0
 10 12  1  0
 10 13  1  0
  8 14  1  0
 14 15  2  0
 15 16  1  0
 16 17  2  0
 17 18  1  0
 18  5  1  0
 17  7  1  0
  1 19  1  0
  1 20  1  0
 14 21  1  0
 15 22  1  0
 16 23  1  0
M  END
>  <UniqueID>  (27) 
25

>  <SMILES>  (27) 
NS(=O)(=O)c1nc2c(OC(F)(F)F)cccc2s1

>  <Energy>  (27) 
56.2279327625217

>  <Genealogy>  (27) 
NS(=O)(=O)c1nc2c(OC(F)(F)F)cccc2s1 (3D coordinates assigned)
NS(=O)(=O)c1nc2c(OC(F)(F)F)cccc2s1 (optimized conformer: 56.2279327625217 kcal/mol)

>  <smiles>  (27) 
NS(=O)(=O)c1nc2c(OC(F)(F)F)cccc2s1

>  <score_type>  (27) 
oracle

>  <origin>  (27) 
adgpu

>  <m_score__min__energy>  (27) 
-7.4299999999999997

>  <m_primary>  (27) 
energy

$$$$
27:0
     RDKit          3D

 32 34  0  0  0  0  0  0  0  0999 V2000
   -7.6640   19.5937  -32.7529 H   0  0  0  0  0  0  0  0  0  0  0  0
   -6.8100   20.2870  -32.7420 C   0  0  0  0  0  0  0  0  0  0  0  0
   -7.0010   21.6240  -32.3800 C   0  0  0  0  0  0  0  0  0  0  0  0
   -8.0079   21.9833  -32.1209 H   0  0  0  0  0  0  0  0  0  0  0  0
   -5.9100   22.5110  -32.3460 C   0  0  0  0  0  0  0  0  0  0  0  0
   -6.0800   23.8880  -31.9680 N   0  0  0  0  0  0  0  0  0  0  0  0
   -6.7370   24.4740  -32.5310 H   0  0  0  0  0  0  0  0  0  0  0  0
   -5.4240   24.5020  -30.8460 C   0  0  0  0  0  0  0  0  0  0  0  0
   -6.1720   25.7160  -30.0490 S   0  0  0  0  0  0  0  0  0  0  0  0
   -4.0700   24.1890  -30.5020 N   0  0  0  0  0  0  0  0  0  0  0  0
   -3.6800   24.1610  -29.2930 N   0  0  0  0  0  0  0  0  0  0  0  0
   -2.3280   23.8620  -28.9440 C   0  0  0  0  0  0  0  0  0  0  0  0
   -1.2290   24.7120  -28.9570 C   0  0  0  0  0  0  0  0  0  0  0  0
   -1.2420   26.0470  -29.3400 O   0  0  0  0  0  0  0  0  0  0  0  0
   -0.1160   24.0650  -28.5410 N   0  0  0  0  0  0  0  0  0  0  0  0
    0.8460   24.4610  -28.4500 H   0  0  0  0  0  0  0  0  0  0  0  0
   -0.5150   22.8090  -28.2600 C   0  0  0  0  0  0  0  0  0  0  0  0
    0.2680   21.7600  -27.7820 C   0  0  0  0  0  0  0  0  0  0  0  0
    1.3442   21.8938  -27.5980 H   0  0  0  0  0  0  0  0  0  0  0  0
   -0.3610   20.5240  -27.5420 C   0  0  0  0  0  0  0  0  0  0  0  0
    0.2292   19.6747  -27.1673 H   0  0  0  0  0  0  0  0  0  0  0  0
   -1.7460   20.3660  -27.7790 C   0  0  0  0  0  0  0  0  0  0  0  0
   -2.2262   19.3957  -27.5843 H   0  0  0  0  0  0  0  0  0  0  0  0
   -2.5140   21.4410  -28.2620 C   0  0  0  0  0  0  0  0  0  0  0  0
   -3.5923   21.3315  -28.4499 H   0  0  0  0  0  0  0  0  0  0  0  0
   -1.8600   22.6500  -28.4940 C   0  0  0  0  0  0  0  0  0  0  0  0
   -4.6400   22.0500  -32.7210 C   0  0  0  0  0  0  0  0  0  0  0  0
   -3.7864   22.7438  -32.7289 H   0  0  0  0  0  0  0  0  0  0  0  0
   -4.4530   20.7130  -33.0850 C   0  0  0  0  0  0  0  0  0  0  0  0
   -3.4518   20.3557  -33.3679 H   0  0  0  0  0  0  0  0  0  0  0  0
   -5.5360   19.8300  -33.0900 C   0  0  0  0  0  0  0  0  0  0  0  0
   -5.3530   18.5320  -33.4400 F   0  0  0  0  0  0  0  0  0  0  0  0
  1  2  1  0
  2  3  2  0
  3  4  1  0
  3  5  1  0
  5  6  1  0
  6  7  1  0
  6  8  1  0
  8  9  2  0
  8 10  1  0
 10 11  2  0
 11 12  1  0
 12 13  2  0
 13 14  1  0
 13 15  1  0
 15 16  1  0
 15 17  1  0
 17 18  2  0
 18 19  1  0
 18 20  1  0
 20 21  1  0
 20 22  2  0
 22 23  1  0
 22 24  1  0
 24 25  1  0
 24 26  2  0
  5 27  2  0
 27 28  1  0
 27 29  1  0
 29 30  1  0
 29 31  2  0
 31 32  1  0
 31  2  1  0
 26 12  1  0
 26 17  1  0
M  CHG  1  14  -1
M  END
>  <UniqueID>  (28) 
26

>  <SMILES>  (28) 
[O-]c1[nH]c2ccccc2c1/N=N/C(=S)Nc1ccc(F)cc1

>  <Energy>  (28) 
72.7269144068346

>  <Genealogy>  (28) 
[O-]c1[nH]c2ccccc2c1N=NC(=S)Nc1ccc(F)cc1 (protonated)
[O-]c1[nH]c2ccccc2c1/N=N/C(=S)Nc1ccc(F)cc1 (cis-trans isomerization)
[O-]c1[nH]c2ccccc2c1/N=N/C(=S)Nc1ccc(F)cc1 (3D coordinates assigned)
[O-]c1[nH]c2ccccc2c1/N=N/C(=S)Nc1ccc(F)cc1 (optimized conformer: 72.7269144068346 kcal/mol)

>  <smiles>  (28) 
Oc1[nH]c2ccccc2c1N=NC(=S)Nc1ccc(F)cc1

>  <score_type>  (28) 
oracle

>  <origin>  (28) 
adgpu

>  <m_score__min__energy>  (28) 
-10.58

>  <m_primary>  (28) 
energy

$$$$
28:0
     RDKit          3D

 37 38  0  0  0  0  0  0  0  0999 V2000
   -1.9590   24.9460  -28.5370 C   0  0  0  0  0  0  0  0  0  0  0  0
   -2.7510   24.9400  -29.7170 O   0  0  0  0  0  0  0  0  0  0  0  0
   -3.5700   23.8530  -30.0400 C   0  0  0  0  0  0  0  0  0  0  0  0
   -2.9930   22.6260  -30.4160 C   0  0  0  0  0  0  0  0  0  0  0  0
   -1.5020   22.4500  -30.4950 C   0  0  0  0  0  0  0  0  0  0  0  0
   -3.8320   21.5660  -30.7730 C   0  0  0  0  0  0  0  0  0  0  0  0
   -5.1790   21.7060  -30.7100 N   0  0  0  0  0  0  0  0  0  0  0  0
   -5.7750   22.8610  -30.3090 C   0  0  0  0  0  0  0  0  0  0  0  0
   -7.2770   22.9100  -30.3000 C   0  0  0  0  0  0  0  0  0  0  0  0
   -7.9050   22.5530  -31.9280 S   0  0  0  0  0  0  0  0  0  0  0  0
   -7.2450   23.5690  -33.0920 O   0  0  0  0  0  0  0  0  0  0  0  0
   -7.6870   20.8660  -32.3560 C   0  0  0  0  0  0  0  0  0  0  0  0
   -6.6000   20.4740  -33.1480 C   0  0  0  0  0  0  0  0  0  0  0  0
   -6.4280   19.1270  -33.4830 C   0  0  0  0  0  0  0  0  0  0  0  0
   -7.3410   18.1700  -33.0270 C   0  0  0  0  0  0  0  0  0  0  0  0
   -8.4260   18.5600  -32.2340 C   0  0  0  0  0  0  0  0  0  0  0  0
   -8.5990   19.9070  -31.8980 C   0  0  0  0  0  0  0  0  0  0  0  0
   -4.9750   23.9810  -29.9740 C   0  0  0  0  0  0  0  0  0  0  0  0
   -5.6080   25.2780  -29.5230 C   0  0  0  0  0  0  0  0  0  0  0  0
   -2.6157   24.9410  -27.6546 H   0  0  0  0  0  0  0  0  0  0  0  0
   -1.3173   24.0527  -28.5215 H   0  0  0  0  0  0  0  0  0  0  0  0
   -1.3309   25.8489  -28.5215 H   0  0  0  0  0  0  0  0  0  0  0  0
   -1.0842   22.4007  -29.4786 H   0  0  0  0  0  0  0  0  0  0  0  0
   -1.2707   21.5183  -31.0321 H   0  0  0  0  0  0  0  0  0  0  0  0
   -1.0601   23.3022  -31.0321 H   0  0  0  0  0  0  0  0  0  0  0  0
   -3.3965   20.6127  -31.1070 H   0  0  0  0  0  0  0  0  0  0  0  0
   -7.6620   22.1642  -29.5889 H   0  0  0  0  0  0  0  0  0  0  0  0
   -7.6047   23.9157  -29.9979 H   0  0  0  0  0  0  0  0  0  0  0  0
   -6.8690   22.9600  -33.7770 H   0  0  0  0  0  0  0  0  0  0  0  0
   -5.8815   21.2258  -33.5065 H   0  0  0  0  0  0  0  0  0  0  0  0
   -5.5745   18.8199  -34.1053 H   0  0  0  0  0  0  0  0  0  0  0  0
   -7.2059   17.1109  -33.2918 H   0  0  0  0  0  0  0  0  0  0  0  0
   -9.1431   17.8072  -31.8747 H   0  0  0  0  0  0  0  0  0  0  0  0
   -9.4516   20.2129  -31.2739 H   0  0  0  0  0  0  0  0  0  0  0  0
   -5.6258   25.3145  -28.4238 H   0  0  0  0  0  0  0  0  0  0  0  0
   -5.0222   26.1254  -29.9086 H   0  0  0  0  0  0  0  0  0  0  0  0
   -6.6365   25.3376  -29.9086 H   0  0  0  0  0  0  0  0  0  0  0  0
  1  2  1  0
  2  3  1  0
  3  4  2  0
  4  5  1  0
  4  6  1  0
  6  7  2  0
  7  8  1  0
  8  9  1  0
  9 10  1  0
 10 11  1  6
 10 12  1  0
 12 13  2  0
 13 14  1  0
 14 15  2  0
 15 16  1  0
 16 17  2  0
  8 18  2  0
 18 19  1  0
 18  3  1  0
 17 12  1  0
  1 20  1  0
  1 21  1  0
  1 22  1  0
  5 23  1  0
  5 24  1  0
  5 25  1  0
  6 26  1  0
  9 27  1  0
  9 28  1  0
 11 29  1  0
 13 30  1  0
 14 31  1  0
 15 32  1  0
 16 33  1  0
 17 34  1  0
 19 35  1  0
 19 36  1  0
 19 37  1  0
M  CHG  1  10   1
M  END
>  <UniqueID>  (29) 
27

>  <SMILES>  (29) 
COc1c(C)cnc(C[S@@+](O)c2ccccc2)c1C

>  <Energy>  (29) 
39.84247244498183

>  <Genealogy>  (29) 
COc1c(C)cnc(C[S+](O)c2ccccc2)c1C (protonated)
COc1c(C)cnc(C[S@@+](O)c2ccccc2)c1C (chirality)
COc1c(C)cnc(C[S@@+](O)c2ccccc2)c1C (3D coordinates assigned)
COc1c(C)cnc(C[S@@+](O)c2ccccc2)c1C (optimized conformer: 39.84247244498183 kcal/mol)

>  <smiles>  (29) 
COc1c(C)cnc(C[S+]([O-])c2ccccc2)c1C

>  <score_type>  (29) 
oracle

>  <origin>  (29) 
adgpu

>  <m_score__min__energy>  (29) 
-7.2000000000000002

>  <m_primary>  (29) 
energy

$$$$
29:0
     RDKit          3D

 25 26  0  0  0  0  0  0  0  0999 V2000
   -5.5550   26.3590  -30.4730 O   0  0  0  0  0  0  0  0  0  0  0  0
   -4.9480   25.2670  -30.6530 C   0  0  0  0  0  0  0  0  0  0  0  0
   -3.5290   25.1920  -30.4510 N   0  0  0  0  0  0  0  0  0  0  0  0
   -2.8540   24.5500  -29.3590 C   0  0  0  0  0  0  0  0  0  0  0  0
   -1.5600   24.9280  -28.9540 C   0  0  0  0  0  0  0  0  0  0  0  0
   -0.9490   24.2900  -27.8700 C   0  0  0  0  0  0  0  0  0  0  0  0
   -1.6260   23.2860  -27.1740 C   0  0  0  0  0  0  0  0  0  0  0  0
   -2.9190   22.9230  -27.5550 C   0  0  0  0  0  0  0  0  0  0  0  0
   -3.5340   23.5580  -28.6390 C   0  0  0  0  0  0  0  0  0  0  0  0
   -5.6940   24.0780  -31.1280 C   0  0  0  0  0  0  0  0  0  0  0  0
   -7.0630   23.9270  -30.8320 C   0  0  0  0  0  0  0  0  0  0  0  0
   -7.7650   22.8030  -31.2790 C   0  0  0  0  0  0  0  0  0  0  0  0
   -7.1110   21.8190  -32.0230 C   0  0  0  0  0  0  0  0  0  0  0  0
   -5.7540   21.9570  -32.3230 C   0  0  0  0  0  0  0  0  0  0  0  0
   -5.0460   23.0780  -31.8790 C   0  0  0  0  0  0  0  0  0  0  0  0
   -1.0282   25.7270  -29.4914 H   0  0  0  0  0  0  0  0  0  0  0  0
    0.0673   24.5796  -27.5647 H   0  0  0  0  0  0  0  0  0  0  0  0
   -1.1404   22.7814  -26.3257 H   0  0  0  0  0  0  0  0  0  0  0  0
   -3.4546   22.1370  -27.0024 H   0  0  0  0  0  0  0  0  0  0  0  0
   -4.5575   23.2772  -28.9282 H   0  0  0  0  0  0  0  0  0  0  0  0
   -7.5834   24.6984  -30.2453 H   0  0  0  0  0  0  0  0  0  0  0  0
   -8.8341   22.6940  -31.0441 H   0  0  0  0  0  0  0  0  0  0  0  0
   -7.6645   20.9351  -32.3728 H   0  0  0  0  0  0  0  0  0  0  0  0
   -5.2406   21.1815  -32.9104 H   0  0  0  0  0  0  0  0  0  0  0  0
   -3.9770   23.1795  -32.1175 H   0  0  0  0  0  0  0  0  0  0  0  0
  1  2  2  0
  2  3  1  0
  3  4  1  0
  4  5  2  0
  5  6  1  0
  6  7  2  0
  7  8  1  0
  8  9  2  0
  2 10  1  0
 10 11  2  0
 11 12  1  0
 12 13  2  0
 13 14  1  0
 14 15  2  0
  9  4  1  0
 15 10  1  0
  5 16  1  0
  6 17  1  0
  7 18  1  0
  8 19  1  0
  9 20  1  0
 11 21  1  0
 12 22  1  0
 13 23  1  0
 14 24  1  0
 15 25  1  0
M  CHG  1   3  -1
M  END
>  <UniqueID>  (30) 
28

>  <SMILES>  (30) 
O=C([N-]c1ccccc1)c1ccccc1

>  <Energy>  (30) 
30.206103910384044

>  <Genealogy>  (30) 
O=C([N-]c1ccccc1)c1ccccc1 (protonated)
O=C([N-]c1ccccc1)c1ccccc1 (3D coordinates assigned)
O=C([N-]c1ccccc1)c1ccccc1 (optimized conformer: 30.206103910384044 kcal/mol)

>  <smiles>  (30) 
O=C(Nc1ccccc1)c1ccccc1

>  <score_type>  (30) 
oracle

>  <origin>  (30) 
adgpu

>  <m_score__min__energy>  (30) 
-7.7999999999999998

>  <m_primary>  (30) 
energy

$$$$
30:0
     RDKit          3D

 31 33  0  0  0  0  0  0  0  0999 V2000
   -6.3880   16.6510  -33.3760 Cl  0  0  0  0  0  0  0  0  0  0  0  0
   -7.1350   18.1890  -32.9830 C   0  0  0  0  0  0  0  0  0  0  0  0
   -8.3490   18.2210  -32.2860 C   0  0  0  0  0  0  0  0  0  0  0  0
   -8.9450   19.4460  -31.9740 C   0  0  0  0  0  0  0  0  0  0  0  0
   -8.3310   20.6440  -32.3610 C   0  0  0  0  0  0  0  0  0  0  0  0
   -9.0980   22.2160  -31.9660 S   0  0  0  0  0  0  0  0  0  0  0  0
   -7.6400   22.8150  -31.1160 C   0  0  0  0  0  0  0  0  0  0  0  0
   -6.8520   23.8160  -31.6800 C   0  0  0  0  0  0  0  0  0  0  0  0
   -5.7190   24.2540  -30.9960 C   0  0  0  0  0  0  0  0  0  0  0  0
   -5.3990   23.6850  -29.7530 C   0  0  0  0  0  0  0  0  0  0  0  0
   -4.2020   24.1050  -28.9800 C   0  0  0  0  0  0  0  0  0  0  0  0
   -4.2340   24.2100  -27.5750 C   0  0  0  0  0  0  0  0  0  0  0  0
   -3.0920   24.6000  -26.8680 C   0  0  0  0  0  0  0  0  0  0  0  0
   -1.9070   24.8850  -27.5490 C   0  0  0  0  0  0  0  0  0  0  0  0
   -0.3500   25.4170  -26.5790 Br  0  0  0  0  0  0  0  0  0  0  0  0
   -1.8600   24.7740  -28.9410 C   0  0  0  0  0  0  0  0  0  0  0  0
   -2.9970   24.3830  -29.6520 C   0  0  0  0  0  0  0  0  0  0  0  0
   -6.2080   22.7050  -29.2600 N   0  0  0  0  0  0  0  0  0  0  0  0
   -7.2910   22.2860  -29.9150 N   0  0  0  0  0  0  0  0  0  0  0  0
   -7.1140   20.6120  -33.0540 C   0  0  0  0  0  0  0  0  0  0  0  0
   -6.5180   19.3850  -33.3660 C   0  0  0  0  0  0  0  0  0  0  0  0
   -8.8340   17.2811  -31.9837 H   0  0  0  0  0  0  0  0  0  0  0  0
   -9.8973   19.4694  -31.4239 H   0  0  0  0  0  0  0  0  0  0  0  0
   -7.1203   24.2550  -32.6523 H   0  0  0  0  0  0  0  0  0  0  0  0
   -5.0806   25.0394  -31.4268 H   0  0  0  0  0  0  0  0  0  0  0  0
   -5.1629   23.9838  -27.0310 H   0  0  0  0  0  0  0  0  0  0  0  0
   -3.1276   24.6825  -25.7717 H   0  0  0  0  0  0  0  0  0  0  0  0
   -0.9258   24.9950  -29.4780 H   0  0  0  0  0  0  0  0  0  0  0  0
   -2.9502   24.2915  -30.7472 H   0  0  0  0  0  0  0  0  0  0  0  0
   -6.6267   21.5517  -33.3530 H   0  0  0  0  0  0  0  0  0  0  0  0
   -5.5638   19.3607  -33.9127 H   0  0  0  0  0  0  0  0  0  0  0  0
  1  2  1  0
  2  3  2  0
  3  4  1  0
  4  5  2  0
  5  6  1  0
  6  7  1  0
  7  8  2  0
  8  9  1  0
  9 10  2  0
 10 11  1  0
 11 12  2  0
 12 13  1  0
 13 14  2  0
 14 15  1  0
 14 16  1  0
 16 17  2  0
 10 18  1  0
 18 19  2  0
  5 20  1  0
 20 21  2  0
 21  2  1  0
 19  7  1  0
 17 11  1  0
  3 22  1  0
  4 23  1  0
  8 24  1  0
  9 25  1  0
 12 26  1  0
 13 27  1  0
 16 28  1  0
 17 29  1  0
 20 30  1  0
 21 31  1  0
M  END
>  <UniqueID>  (31) 
29

>  <SMILES>  (31) 
Clc1ccc(Sc2ccc(-c3ccc(Br)cc3)nn2)cc1

>  <Energy>  (31) 
34.52278074744792

>  <Genealogy>  (31) 
Clc1ccc(Sc2ccc(-c3ccc(Br)cc3)nn2)cc1 (3D coordinates assigned)
Clc1ccc(Sc2ccc(-c3ccc(Br)cc3)nn2)cc1 (optimized conformer: 34.52278074744792 kcal/mol)

>  <smiles>  (31) 
Clc1ccc(Sc2ccc(-c3ccc(Br)cc3)nn2)cc1

>  <score_type>  (31) 
oracle

>  <origin>  (31) 
adgpu

>  <m_score__min__energy>  (31) 
-9.4199999999999999

>  <m_primary>  (31) 
energy

$$$$
31:0
     RDKit          3D

 35 37  0  0  0  0  0  0  0  0999 V2000
   -0.8420   21.8653  -33.4293 H   0  0  0  0  0  0  0  0  0  0  0  0
   -1.6260   21.0940  -33.4490 C   0  0  0  0  0  0  0  0  0  0  0  0
   -2.8910   21.4000  -33.0570 N   0  0  0  0  0  0  0  0  0  0  0  0
   -3.8890   20.4720  -33.0480 C   0  0  0  0  0  0  0  0  0  0  0  0
   -5.2330   20.8240  -32.6860 N   0  0  0  0  0  0  0  0  0  0  0  0
   -5.6560   21.9440  -32.1720 C   0  0  0  0  0  0  0  0  0  0  0  0
   -7.2770   22.2580  -31.8790 S   0  0  0  0  0  0  0  0  0  0  0  0
   -6.9780   23.7760  -31.2160 C   0  0  0  0  0  0  0  0  0  0  0  0
   -7.7372   24.4770  -30.8390 H   0  0  0  0  0  0  0  0  0  0  0  0
   -5.6000   23.9900  -31.2280 C   0  0  0  0  0  0  0  0  0  0  0  0
   -4.9740   25.2150  -30.6970 C   0  0  0  0  0  0  0  0  0  0  0  0
   -5.6800   26.2330  -30.4630 O   0  0  0  0  0  0  0  0  0  0  0  0
   -3.5640   25.2460  -30.4530 N   0  0  0  0  0  0  0  0  0  0  0  0
   -2.9440   24.7540  -29.2280 C   0  0  0  0  0  0  0  0  0  0  0  0
   -2.0732   25.3806  -28.9850 H   0  0  0  0  0  0  0  0  0  0  0  0
   -3.6797   24.7986  -28.4115 H   0  0  0  0  0  0  0  0  0  0  0  0
   -2.4960   23.3290  -29.4060 C   0  0  0  0  0  0  0  0  0  0  0  0
   -3.2790   22.2670  -28.9230 C   0  0  0  0  0  0  0  0  0  0  0  0
   -4.2201   22.4761  -28.3932 H   0  0  0  0  0  0  0  0  0  0  0  0
   -2.8650   20.9440  -29.1140 C   0  0  0  0  0  0  0  0  0  0  0  0
   -3.4801   20.1157  -28.7324 H   0  0  0  0  0  0  0  0  0  0  0  0
   -1.6710   20.6730  -29.7890 C   0  0  0  0  0  0  0  0  0  0  0  0
   -1.2750   19.3900  -29.9730 F   0  0  0  0  0  0  0  0  0  0  0  0
   -0.8900   21.7260  -30.2770 C   0  0  0  0  0  0  0  0  0  0  0  0
    0.2670   21.4640  -30.9360 F   0  0  0  0  0  0  0  0  0  0  0  0
   -1.3000   23.0490  -30.0890 C   0  0  0  0  0  0  0  0  0  0  0  0
   -0.6844   23.8739  -30.4770 H   0  0  0  0  0  0  0  0  0  0  0  0
   -4.8700   22.9670  -31.7560 N   0  0  0  0  0  0  0  0  0  0  0  0
   -3.8270   22.9740  -31.7790 H   0  0  0  0  0  0  0  0  0  0  0  0
   -3.6240   19.1720  -33.4950 C   0  0  0  0  0  0  0  0  0  0  0  0
   -4.4280   18.4219  -33.5262 H   0  0  0  0  0  0  0  0  0  0  0  0
   -2.3310   18.8350  -33.9010 C   0  0  0  0  0  0  0  0  0  0  0  0
   -2.1083   17.8122  -34.2389 H   0  0  0  0  0  0  0  0  0  0  0  0
   -1.3220   19.7990  -33.8770 C   0  0  0  0  0  0  0  0  0  0  0  0
   -0.2996   19.5424  -34.1913 H   0  0  0  0  0  0  0  0  0  0  0  0
  1  2  1  0
  2  3  2  0
  3  4  1  0
  4  5  1  0
  5  6  2  0
  6  7  1  0
  7  8  1  0
  8  9  1  0
  8 10  2  0
 10 11  1  0
 11 12  2  0
 11 13  1  0
 13 14  1  0
 14 15  1  0
 14 16  1  0
 14 17  1  0
 17 18  2  0
 18 19  1  0
 18 20  1  0
 20 21  1  0
 20 22  2  0
 22 23  1  0
 22 24  1  0
 24 25  1  0
 24 26  2  0
 26 27  1  0
 10 28  1  0
 28 29  1  0
  4 30  2  0
 30 31  1  0
 30 32  1  0
 32 33  1  0
 32 34  2  0
 34 35  1  0
 34  2  1  0
 28  6  1  0
 26 17  1  0
M  CHG  1  13  -1
M  END
>  <UniqueID>  (32) 
30

>  <SMILES>  (32) 
O=C([N-]Cc1ccc(F)c(F)c1)c1cs/c(=N/c2ccccn2)[nH]1

>  <Energy>  (32) 
70.91137768621581

>  <Genealogy>  (32) 
O=C([N-]Cc1ccc(F)c(F)c1)c1csc(=Nc2ccccn2)[nH]1 (protonated)
O=C([N-]Cc1ccc(F)c(F)c1)c1cs/c(=N/c2ccccn2)[nH]1 (cis-trans isomerization)
O=C([N-]Cc1ccc(F)c(F)c1)c1cs/c(=N/c2ccccn2)[nH]1 (3D coordinates assigned)
O=C([N-]Cc1ccc(F)c(F)c1)c1cs/c(=N/c2ccccn2)[nH]1 (optimized conformer: 70.91137768621581 kcal/mol)

>  <smiles>  (32) 
O=C(NCc1ccc(F)c(F)c1)c1csc(=Nc2ccccn2)[nH]1

>  <score_type>  (32) 
oracle

>  <origin>  (32) 
adgpu

>  <m_score__min__energy>  (32) 
-8.7899999999999991

>  <m_primary>  (32) 
energy

$$$$
32:0
     RDKit          3D

 30 31  0  0  0  0  0  0  0  0999 V2000
   -6.6770   16.6690  -33.5620 C   0  0  0  0  0  0  0  0  0  0  0  0
   -7.1580   17.9880  -33.0340 C   0  0  0  0  0  0  0  0  0  0  0  0
   -6.5170   19.1780  -33.4100 C   0  0  0  0  0  0  0  0  0  0  0  0
   -6.9410   20.4030  -32.8880 C   0  0  0  0  0  0  0  0  0  0  0  0
   -8.0050   20.4510  -31.9790 C   0  0  0  0  0  0  0  0  0  0  0  0
   -8.5220   21.9910  -31.3010 S   0  0  0  0  0  0  0  0  0  0  0  0
   -9.3470   21.7560  -30.0670 O   0  0  0  0  0  0  0  0  0  0  0  0
   -9.3720   22.7290  -32.2970 O   0  0  0  0  0  0  0  0  0  0  0  0
   -7.1000   22.9460  -30.9020 C   0  0  0  0  0  0  0  0  0  0  0  0
   -6.2040   22.5000  -29.9210 C   0  0  0  0  0  0  0  0  0  0  0  0
   -5.0840   23.2690  -29.5890 C   0  0  0  0  0  0  0  0  0  0  0  0
   -4.8550   24.4950  -30.2310 C   0  0  0  0  0  0  0  0  0  0  0  0
   -3.7100   25.2820  -29.8910 N   0  0  0  0  0  0  0  0  0  0  0  0
   -5.7560   24.9450  -31.2060 C   0  0  0  0  0  0  0  0  0  0  0  0
   -6.8760   24.1760  -31.5380 C   0  0  0  0  0  0  0  0  0  0  0  0
   -8.6300   19.2620  -31.5800 C   0  0  0  0  0  0  0  0  0  0  0  0
   -8.2070   18.0360  -32.1020 C   0  0  0  0  0  0  0  0  0  0  0  0
   -6.4344   16.0036  -32.7204 H   0  0  0  0  0  0  0  0  0  0  0  0
   -7.4657   16.2104  -34.1764 H   0  0  0  0  0  0  0  0  0  0  0  0
   -5.7782   16.8258  -34.1764 H   0  0  0  0  0  0  0  0  0  0  0  0
   -5.6766   19.1466  -34.1191 H   0  0  0  0  0  0  0  0  0  0  0  0
   -6.4373   21.3324  -33.1921 H   0  0  0  0  0  0  0  0  0  0  0  0
   -6.3822   21.5421  -29.4105 H   0  0  0  0  0  0  0  0  0  0  0  0
   -4.3808   22.9115  -28.8224 H   0  0  0  0  0  0  0  0  0  0  0  0
   -3.4700   25.4730  -28.8930 H   0  0  0  0  0  0  0  0  0  0  0  0
   -3.0940   25.6790  -30.6360 H   0  0  0  0  0  0  0  0  0  0  0  0
   -5.5816   25.9062  -31.7117 H   0  0  0  0  0  0  0  0  0  0  0  0
   -7.5829   24.5366  -32.2997 H   0  0  0  0  0  0  0  0  0  0  0  0
   -9.4558   19.2934  -30.8540 H   0  0  0  0  0  0  0  0  0  0  0  0
   -8.6979   17.1053  -31.7813 H   0  0  0  0  0  0  0  0  0  0  0  0
  1  2  1  0
  2  3  2  0
  3  4  1  0
  4  5  2  0
  5  6  1  0
  6  7  2  0
  6  8  2  0
  6  9  1  0
  9 10  2  0
 10 11  1  0
 11 12  2  0
 12 13  1  0
 12 14  1  0
 14 15  2  0
  5 16  1  0
 16 17  2  0
 17  2  1  0
 15  9  1  0
  1 18  1  0
  1 19  1  0
  1 20  1  0
  3 21  1  0
  4 22  1  0
 10 23  1  0
 11 24  1  0
 13 25  1  0
 13 26  1  0
 14 27  1  0
 15 28  1  0
 16 29  1  0
 17 30  1  0
M  END
>  <UniqueID>  (33) 
31

>  <SMILES>  (33) 
Cc1ccc(S(=O)(=O)c2ccc(N)cc2)cc1

>  <Energy>  (33) 
30.593784641035615

>  <Genealogy>  (33) 
Cc1ccc(S(=O)(=O)c2ccc(N)cc2)cc1 (3D coordinates assigned)
Cc1ccc(S(=O)(=O)c2ccc(N)cc2)cc1 (optimized conformer: 30.593784641035615 kcal/mol)

>  <smiles>  (33) 
Cc1ccc(S(=O)(=O)c2ccc(N)cc2)cc1

>  <score_type>  (33) 
oracle

>  <origin>  (33) 
adgpu

>  <m_score__min__energy>  (33) 
-8.5299999999999994

>  <m_primary>  (33) 
energy

$$$$
33:0
     RDKit          3D

 24 25  0  0  0  0  0  0  0  0999 V2000
   -2.2290   24.9070  -28.6650 C   0  0  0  0  0  0  0  0  0  0  0  0
   -3.1130   25.2750  -29.7180 O   0  0  0  0  0  0  0  0  0  0  0  0
   -4.1990   24.4990  -30.1470 C   0  0  0  0  0  0  0  0  0  0  0  0
   -5.5350   24.9000  -29.9590 C   0  0  0  0  0  0  0  0  0  0  0  0
   -6.5850   24.0930  -30.4050 C   0  0  0  0  0  0  0  0  0  0  0  0
   -6.3230   22.8690  -31.0480 C   0  0  0  0  0  0  0  0  0  0  0  0
   -7.4070   22.0360  -31.5090 N   0  0  0  0  0  0  0  0  0  0  0  0
   -8.7260   22.3150  -31.4320 C   0  0  0  0  0  0  0  0  0  0  0  0
   -9.4600   21.2810  -31.9760 C   0  0  0  0  0  0  0  0  0  0  0  0
   -8.5510   20.3360  -32.4040 C   0  0  0  0  0  0  0  0  0  0  0  0
   -7.2980   20.8270  -32.1020 C   0  0  0  0  0  0  0  0  0  0  0  0
   -4.9860   22.4740  -31.2340 C   0  0  0  0  0  0  0  0  0  0  0  0
   -3.9380   23.2830  -30.7870 C   0  0  0  0  0  0  0  0  0  0  0  0
   -2.7096   25.1071  -27.6960 H   0  0  0  0  0  0  0  0  0  0  0  0
   -1.9923   23.8356  -28.7426 H   0  0  0  0  0  0  0  0  0  0  0  0
   -1.3019   25.4939  -28.7426 H   0  0  0  0  0  0  0  0  0  0  0  0
   -5.7539   25.8545  -29.4579 H   0  0  0  0  0  0  0  0  0  0  0  0
   -7.6250   24.4172  -30.2522 H   0  0  0  0  0  0  0  0  0  0  0  0
   -9.1526   23.2319  -30.9992 H   0  0  0  0  0  0  0  0  0  0  0  0
  -10.5557   21.2219  -32.0532 H   0  0  0  0  0  0  0  0  0  0  0  0
   -8.7808   19.3771  -32.8915 H   0  0  0  0  0  0  0  0  0  0  0  0
   -6.3500   20.3105  -32.3128 H   0  0  0  0  0  0  0  0  0  0  0  0
   -4.7635   21.5205  -31.7354 H   0  0  0  0  0  0  0  0  0  0  0  0
   -2.8976   22.9604  -30.9399 H   0  0  0  0  0  0  0  0  0  0  0  0
  1  2  1  0
  2  3  1  0
  3  4  2  0
  4  5  1  0
  5  6  2  0
  6  7  1  0
  7  8  1  0
  8  9  2  0
  9 10  1  0
 10 11  2  0
  6 12  1  0
 12 13  2  0
 13  3  1  0
 11  7  1  0
  1 14  1  0
  1 15  1  0
  1 16  1  0
  4 17  1  0
  5 18  1  0
  8 19  1  0
  9 20  1  0
 10 21  1  0
 11 22  1  0
 12 23  1  0
 13 24  1  0
M  END
>  <UniqueID>  (34) 
32

>  <SMILES>  (34) 
COc1ccc(-n2cccc2)cc1

>  <Energy>  (34) 
52.84822829133252

>  <Genealogy>  (34) 
COc1ccc(-n2cccc2)cc1 (3D coordinates assigned)
COc1ccc(-n2cccc2)cc1 (optimized conformer: 52.84822829133252 kcal/mol)

>  <smiles>  (34) 
COc1ccc(-n2cccc2)cc1

>  <score_type>  (34) 
oracle

>  <origin>  (34) 
adgpu

>  <m_score__min__energy>  (34) 
-5.8700000000000001

>  <m_primary>  (34) 
energy

$$$$
34:0
     RDKit          3D

 38 40  0  0  0  0  0  0  0  0999 V2000
   -4.1830   24.3610  -28.4560 O   0  0  0  0  0  0  0  0  0  0  0  0
   -3.3830   24.5960  -29.4010 C   0  0  0  0  0  0  0  0  0  0  0  0
   -3.8630   25.1930  -30.6090 N   0  0  0  0  0  0  0  0  0  0  0  0
   -5.2460   25.6130  -30.7870 C   0  0  0  0  0  0  0  0  0  0  0  0
   -6.1200   24.4030  -30.9490 C   0  0  0  0  0  0  0  0  0  0  0  0
   -6.7270   23.8170  -29.8260 C   0  0  0  0  0  0  0  0  0  0  0  0
   -7.5350   22.6860  -29.9730 C   0  0  0  0  0  0  0  0  0  0  0  0
   -7.7400   22.1300  -31.2380 C   0  0  0  0  0  0  0  0  0  0  0  0
   -7.1270   22.6980  -32.3580 C   0  0  0  0  0  0  0  0  0  0  0  0
   -6.3140   23.8260  -32.2160 C   0  0  0  0  0  0  0  0  0  0  0  0
   -1.9700   24.2000  -29.2620 C   0  0  0  0  0  0  0  0  0  0  0  0
   -1.1070   24.8810  -28.4860 N   0  0  0  0  0  0  0  0  0  0  0  0
    0.0290   24.1580  -28.5340 C   0  0  0  0  0  0  0  0  0  0  0  0
   -0.0660   23.0510  -29.2990 N   0  0  0  0  0  0  0  0  0  0  0  0
   -1.3250   23.0810  -29.7700 C   0  0  0  0  0  0  0  0  0  0  0  0
   -1.8380   22.0680  -30.7100 C   0  0  0  0  0  0  0  0  0  0  0  0
   -1.0890   21.1060  -31.0340 O   0  0  0  0  0  0  0  0  0  0  0  0
   -3.1160   22.2300  -31.3420 N   0  0  0  0  0  0  0  0  0  0  0  0
   -3.8420   21.1600  -31.9710 C   0  0  0  0  0  0  0  0  0  0  0  0
   -3.4920   20.6880  -33.2510 C   0  0  0  0  0  0  0  0  0  0  0  0
   -4.2030   19.6340  -33.8330 C   0  0  0  0  0  0  0  0  0  0  0  0
   -5.2540   19.0290  -33.1380 C   0  0  0  0  0  0  0  0  0  0  0  0
   -6.1270   17.6900  -33.8610 Cl  0  0  0  0  0  0  0  0  0  0  0  0
   -5.5910   19.4750  -31.8560 C   0  0  0  0  0  0  0  0  0  0  0  0
   -4.8850   20.5310  -31.2740 C   0  0  0  0  0  0  0  0  0  0  0  0
   -5.5717   26.1852  -29.9058 H   0  0  0  0  0  0  0  0  0  0  0  0
   -5.3246   26.2447  -31.6841 H   0  0  0  0  0  0  0  0  0  0  0  0
   -6.5659   24.2496  -28.8275 H   0  0  0  0  0  0  0  0  0  0  0  0
   -8.0105   22.2328  -29.0907 H   0  0  0  0  0  0  0  0  0  0  0  0
   -8.3837   21.2454  -31.3525 H   0  0  0  0  0  0  0  0  0  0  0  0
   -7.2846   22.2566  -33.3531 H   0  0  0  0  0  0  0  0  0  0  0  0
   -5.8244   24.2636  -33.0985 H   0  0  0  0  0  0  0  0  0  0  0  0
    0.9472   24.4435  -27.9998 H   0  0  0  0  0  0  0  0  0  0  0  0
   -3.5050   23.1980  -31.4090 H   0  0  0  0  0  0  0  0  0  0  0  0
   -2.6555   21.1506  -33.7953 H   0  0  0  0  0  0  0  0  0  0  0  0
   -3.9348   19.2804  -34.8395 H   0  0  0  0  0  0  0  0  0  0  0  0
   -6.4127   18.9939  -31.3053 H   0  0  0  0  0  0  0  0  0  0  0  0
   -5.1487   20.8718  -30.2619 H   0  0  0  0  0  0  0  0  0  0  0  0
  1  2  2  0
  2  3  1  0
  3  4  1  0
  4  5  1  0
  5  6  2  0
  6  7  1  0
  7  8  2  0
  8  9  1  0
  9 10  2  0
  2 11  1  0
 11 12  1  0
 12 13  2  0
 13 14  1  0
 14 15  1  0
 15 16  1  0
 16 17  2  0
 16 18  1  0
 18 19  1  0
 19 20  2  0
 20 21  1  0
 21 22  2  0
 22 23  1  0
 22 24  1  0
 24 25  2  0
 10  5  1  0
 15 11  2  0
 25 19  1  0
  4 26  1  0
  4 27  1  0
  6 28  1  0
  7 29  1  0
  8 30  1  0
  9 31  1  0
 10 32  1  0
 13 33  1  0
 18 34  1  0
 20 35  1  0
 21 36  1  0
 24 37  1  0
 25 38  1  0
M  CHG  2   3  -1  14  -1
M  END
>  <UniqueID>  (35) 
33

>  <SMILES>  (35) 
O=C([N-]Cc1ccccc1)c1nc[n-]c1C(=O)Nc1ccc(Cl)cc1

>  <Energy>  (35) 
67.11305613999336

>  <Genealogy>  (35) 
O=C([N-]Cc1ccccc1)c1nc[n-]c1C(=O)Nc1ccc(Cl)cc1 (protonated)
O=C([N-]Cc1ccccc1)c1nc[n-]c1C(=O)Nc1ccc(Cl)cc1 (3D coordinates assigned)
O=C([N-]Cc1ccccc1)c1nc[n-]c1C(=O)Nc1ccc(Cl)cc1 (optimized conformer: 67.11305613999336 kcal/mol)

>  <smiles>  (35) 
O=C(NCc1ccccc1)c1nc[nH]c1C(=O)Nc1ccc(Cl)cc1

>  <score_type>  (35) 
oracle

>  <origin>  (35) 
adgpu

>  <m_score__min__energy>  (35) 
-9.8699999999999992

>  <m_primary>  (35) 
energy

$$$$
35:0
     RDKit          3D

 35 37  0  0  0  0  0  0  0  0999 V2000
   -2.5940   24.5610  -29.2990 C   0  0  0  0  0  0  0  0  0  0  0  0
   -3.5100   24.9990  -30.2980 O   0  0  0  0  0  0  0  0  0  0  0  0
   -4.6880   24.3210  -30.6510 C   0  0  0  0  0  0  0  0  0  0  0  0
   -5.9590   24.8870  -30.4480 C   0  0  0  0  0  0  0  0  0  0  0  0
   -7.1100   24.1920  -30.8090 C   0  0  0  0  0  0  0  0  0  0  0  0
   -7.0150   22.9170  -31.3850 C   0  0  0  0  0  0  0  0  0  0  0  0
   -8.1570   22.1930  -31.7660 C   0  0  0  0  0  0  0  0  0  0  0  0
   -9.3140   22.6640  -31.5910 O   0  0  0  0  0  0  0  0  0  0  0  0
   -8.0090   20.9350  -32.3450 C   0  0  0  0  0  0  0  0  0  0  0  0
   -6.7210   20.4150  -32.5350 C   0  0  0  0  0  0  0  0  0  0  0  0
   -6.5080   19.0820  -33.1540 C   0  0  0  0  0  0  0  0  0  0  0  0
   -5.7390   18.9300  -34.3250 C   0  0  0  0  0  0  0  0  0  0  0  0
   -5.5410   17.6630  -34.8810 C   0  0  0  0  0  0  0  0  0  0  0  0
   -6.1000   16.5350  -34.2750 C   0  0  0  0  0  0  0  0  0  0  0  0
   -6.8550   16.6720  -33.1090 C   0  0  0  0  0  0  0  0  0  0  0  0
   -7.0570   17.9370  -32.5480 C   0  0  0  0  0  0  0  0  0  0  0  0
   -5.6610   21.1230  -32.1480 O   0  0  0  0  0  0  0  0  0  0  0  0
   -5.7420   22.3320  -31.5940 C   0  0  0  0  0  0  0  0  0  0  0  0
   -4.5710   23.0410  -31.2210 C   0  0  0  0  0  0  0  0  0  0  0  0
   -3.2670   22.5410  -31.3940 O   0  0  0  0  0  0  0  0  0  0  0  0
   -2.8520   21.5770  -32.3540 C   0  0  0  0  0  0  0  0  0  0  0  0
   -3.0144   24.7620  -28.3026 H   0  0  0  0  0  0  0  0  0  0  0  0
   -2.4175   23.4811  -29.4115 H   0  0  0  0  0  0  0  0  0  0  0  0
   -1.6427   25.1016  -29.4115 H   0  0  0  0  0  0  0  0  0  0  0  0
   -6.0447   25.8879  -29.9999 H   0  0  0  0  0  0  0  0  0  0  0  0
   -8.0983   24.6450  -30.6417 H   0  0  0  0  0  0  0  0  0  0  0  0
   -8.8930   20.3558  -32.6499 H   0  0  0  0  0  0  0  0  0  0  0  0
   -5.2920   19.8135  -34.8042 H   0  0  0  0  0  0  0  0  0  0  0  0
   -4.9435   17.5537  -35.7981 H   0  0  0  0  0  0  0  0  0  0  0  0
   -5.9452   15.5395  -34.7165 H   0  0  0  0  0  0  0  0  0  0  0  0
   -7.2920   15.7832  -32.6304 H   0  0  0  0  0  0  0  0  0  0  0  0
   -7.6492   18.0375  -31.6265 H   0  0  0  0  0  0  0  0  0  0  0  0
   -2.4682   20.6856  -31.8362 H   0  0  0  0  0  0  0  0  0  0  0  0
   -3.7084   21.2948  -32.9841 H   0  0  0  0  0  0  0  0  0  0  0  0
   -2.0585   22.0051  -32.9841 H   0  0  0  0  0  0  0  0  0  0  0  0
  1  2  1  0
  2  3  1  0
  3  4  2  0
  4  5  1  0
  5  6  2  0
  6  7  1  0
  7  8  2  0
  7  9  1  0
  9 10  2  0
 10 11  1  0
 11 12  2  0
 12 13  1  0
 13 14  2  0
 14 15  1  0
 15 16  2  0
 10 17  1  0
 17 18  1  0
 18 19  2  0
 19 20  1  0
 20 21  1  0
 19  3  1  0
 18  6  1  0
 16 11  1  0
  1 22  1  0
  1 23  1  0
  1 24  1  0
  4 25  1  0
  5 26  1  0
  9 27  1  0
 12 28  1  0
 13 29  1  0
 14 30  1  0
 15 31  1  0
 16 32  1  0
 21 33  1  0
 21 34  1  0
 21 35  1  0
M  END
>  <UniqueID>  (36) 
34

>  <SMILES>  (36) 
COc1ccc2c(=O)cc(-c3ccccc3)oc2c1OC

>  <Energy>  (36) 
47.58000398266241

>  <Genealogy>  (36) 
COc1ccc2c(=O)cc(-c3ccccc3)oc2c1OC (3D coordinates assigned)
COc1ccc2c(=O)cc(-c3ccccc3)oc2c1OC (optimized conformer: 47.58000398266241 kcal/mol)

>  <smiles>  (36) 
COc1ccc2c(=O)cc(-c3ccccc3)oc2c1OC

>  <score_type>  (36) 
oracle

>  <origin>  (36) 
adgpu

>  <m_score__min__energy>  (36) 
-8.0899999999999999

>  <m_primary>  (36) 
energy

$$$$
36:0
     RDKit          3D

 26 28  0  0  0  0  0  0  0  0999 V2000
   -5.4710   19.7250  -32.5810 Cl  0  0  0  0  0  0  0  0  0  0  0  0
   -7.0880   20.3930  -32.3810 C   0  0  0  0  0  0  0  0  0  0  0  0
   -8.1760   19.6030  -32.7720 C   0  0  0  0  0  0  0  0  0  0  0  0
   -9.4830   20.0470  -32.5660 C   0  0  0  0  0  0  0  0  0  0  0  0
   -9.7130   21.2830  -31.9570 C   0  0  0  0  0  0  0  0  0  0  0  0
   -8.6360   22.0800  -31.5630 C   0  0  0  0  0  0  0  0  0  0  0  0
   -7.3130   21.6530  -31.7800 C   0  0  0  0  0  0  0  0  0  0  0  0
   -6.2000   22.5350  -31.3670 C   0  0  0  0  0  0  0  0  0  0  0  0
   -5.6590   22.6210  -30.0980 C   0  0  0  0  0  0  0  0  0  0  0  0
   -4.6970   23.6100  -30.2050 C   0  0  0  0  0  0  0  0  0  0  0  0
   -3.8150   24.0970  -29.1280 C   0  0  0  0  0  0  0  0  0  0  0  0
   -4.2190   24.1720  -27.7850 C   0  0  0  0  0  0  0  0  0  0  0  0
   -3.2370   24.6580  -26.9340 C   0  0  0  0  0  0  0  0  0  0  0  0
   -1.8710   24.9940  -27.8510 S   0  0  0  0  0  0  0  0  0  0  0  0
   -2.5060   24.5280  -29.3350 C   0  0  0  0  0  0  0  0  0  0  0  0
   -4.6790   24.0940  -31.4630 N   0  0  0  0  0  0  0  0  0  0  0  0
   -5.5930   23.4400  -32.1600 N   0  0  0  0  0  0  0  0  0  0  0  0
   -7.9993   18.6256  -33.2448 H   0  0  0  0  0  0  0  0  0  0  0  0
  -10.3320   19.4237  -32.8832 H   0  0  0  0  0  0  0  0  0  0  0  0
  -10.7434   21.6288  -31.7876 H   0  0  0  0  0  0  0  0  0  0  0  0
   -8.8236   23.0498  -31.0789 H   0  0  0  0  0  0  0  0  0  0  0  0
   -5.9310   22.0367  -29.2066 H   0  0  0  0  0  0  0  0  0  0  0  0
   -5.2200   23.8734  -27.4403 H   0  0  0  0  0  0  0  0  0  0  0  0
   -3.3360   24.7988  -25.8475 H   0  0  0  0  0  0  0  0  0  0  0  0
   -1.9805   24.5579  -30.3009 H   0  0  0  0  0  0  0  0  0  0  0  0
   -5.8190   23.6450  -33.1580 H   0  0  0  0  0  0  0  0  0  0  0  0
  1  2  1  0
  2  3  2  0
  3  4  1  0
  4  5  2  0
  5  6  1  0
  6  7  2  0
  7  8  1  0
  8  9  2  0
  9 10  1  0
 10 11  1  0
 11 12  1  0
 12 13  2  0
 13 14  1  0
 14 15  1  0
 10 16  2  0
 16 17  1  0
  7  2  1  0
 17  8  1  0
 15 11  2  0
  3 18  1  0
  4 19  1  0
  5 20  1  0
  6 21  1  0
  9 22  1  0
 12 23  1  0
 13 24  1  0
 15 25  1  0
 17 26  1  0
M  END
>  <UniqueID>  (37) 
35

>  <SMILES>  (37) 
Clc1ccccc1-c1cc(-c2ccsc2)n[nH]1

>  <Energy>  (37) 
89.78233518281769

>  <Genealogy>  (37) 
Clc1ccccc1-c1cc(-c2ccsc2)n[nH]1 (3D coordinates assigned)
Clc1ccccc1-c1cc(-c2ccsc2)n[nH]1 (optimized conformer: 89.78233518281769 kcal/mol)

>  <smiles>  (37) 
Clc1ccccc1-c1cc(-c2ccsc2)n[nH]1

>  <score_type>  (37) 
oracle

>  <origin>  (37) 
adgpu

>  <m_score__min__energy>  (37) 
-7.6500000000000004

>  <m_primary>  (37) 
energy

$$$$
37:0
     RDKit          3D

 22 22  0  0  0  0  0  0  0  0999 V2000
   -2.7550   20.8420  -33.3870 C   0  0  0  0  0  0  0  0  0  0  0  0
   -3.1690   21.0300  -32.0370 O   0  0  0  0  0  0  0  0  0  0  0  0
   -3.8890   22.1410  -31.5740 C   0  0  0  0  0  0  0  0  0  0  0  0
   -5.2820   22.2510  -31.7170 C   0  0  0  0  0  0  0  0  0  0  0  0
   -5.9680   23.3800  -31.2350 C   0  0  0  0  0  0  0  0  0  0  0  0
   -7.4630   23.4560  -31.4090 C   0  0  0  0  0  0  0  0  0  0  0  0
   -5.2410   24.4340  -30.6280 C   0  0  0  0  0  0  0  0  0  0  0  0
   -5.9500   25.6590  -30.1010 C   0  0  0  0  0  0  0  0  0  0  0  0
   -3.8450   24.3040  -30.4720 C   0  0  0  0  0  0  0  0  0  0  0  0
   -3.1030   25.2990  -29.8430 O   0  0  0  0  0  0  0  0  0  0  0  0
   -3.1840   23.1700  -30.9460 C   0  0  0  0  0  0  0  0  0  0  0  0
   -1.7535   20.3872  -33.4035 H   0  0  0  0  0  0  0  0  0  0  0  0
   -3.4672   20.1790  -33.9000 H   0  0  0  0  0  0  0  0  0  0  0  0
   -2.7245   21.8146  -33.9000 H   0  0  0  0  0  0  0  0  0  0  0  0
   -5.8429   21.4445  -32.2119 H   0  0  0  0  0  0  0  0  0  0  0  0
   -7.9463   23.4806  -30.4212 H   0  0  0  0  0  0  0  0  0  0  0  0
   -7.7214   24.3684  -31.9664 H   0  0  0  0  0  0  0  0  0  0  0  0
   -7.8126   22.5745  -31.9664 H   0  0  0  0  0  0  0  0  0  0  0  0
   -5.9409   25.6432  -29.0012 H   0  0  0  0  0  0  0  0  0  0  0  0
   -5.4354   26.5629  -30.4590 H   0  0  0  0  0  0  0  0  0  0  0  0
   -6.9901   25.6631  -30.4590 H   0  0  0  0  0  0  0  0  0  0  0  0
   -2.0941   23.0856  -30.8234 H   0  0  0  0  0  0  0  0  0  0  0  0
  1  2  1  0
  2  3  1  0
  3  4  2  0
  4  5  1  0
  5  6  1  0
  5  7  2  0
  7  8  1  0
  7  9  1  0
  9 10  1  0
  9 11  2  0
 11  3  1  0
  1 12  1  0
  1 13  1  0
  1 14  1  0
  4 15  1  0
  6 16  1  0
  6 17  1  0
  6 18  1  0
  8 19  1  0
  8 20  1  0
  8 21  1  0
 11 22  1  0
M  CHG  1  10  -1
M  END
>  <UniqueID>  (38) 
36

>  <SMILES>  (38) 
COc1cc(C)c(C)c([O-])c1

>  <Energy>  (38) 
20.960735473367535

>  <Genealogy>  (38) 
COc1cc(C)c(C)c([O-])c1 (protonated)
COc1cc(C)c(C)c([O-])c1 (3D coordinates assigned)
COc1cc(C)c(C)c([O-])c1 (optimized conformer: 20.960735473367535 kcal/mol)

>  <smiles>  (38) 
COc1cc(C)c(C)c(O)c1

>  <score_type>  (38) 
oracle

>  <origin>  (38) 
adgpu

>  <m_score__min__energy>  (38) 
-7.3899999999999997

>  <m_primary>  (38) 
energy

$$$$
38:0
     RDKit          3D

 25 26  0  0  0  0  0  0  0  0999 V2000
   -6.4920   17.6050  -31.0090 C   0  0  0  0  0  0  0  0  0  0  0  0
   -6.0990   17.7080  -32.4580 C   0  0  0  0  0  0  0  0  0  0  0  0
   -5.3360   16.6840  -33.0470 C   0  0  0  0  0  0  0  0  0  0  0  0
   -4.9610   16.7640  -34.3900 C   0  0  0  0  0  0  0  0  0  0  0  0
   -5.3450   17.8600  -35.1620 C   0  0  0  0  0  0  0  0  0  0  0  0
   -6.1110   18.8820  -34.5940 C   0  0  0  0  0  0  0  0  0  0  0  0
   -6.4990   18.8120  -33.2480 C   0  0  0  0  0  0  0  0  0  0  0  0
   -7.3170   19.9040  -32.6850 C   0  0  0  0  0  0  0  0  0  0  0  0
   -8.6930   19.7040  -32.4940 C   0  0  0  0  0  0  0  0  0  0  0  0
   -9.4870   20.7250  -31.9680 C   0  0  0  0  0  0  0  0  0  0  0  0
   -8.9130   21.9530  -31.6250 C   0  0  0  0  0  0  0  0  0  0  0  0
   -7.5430   22.1590  -31.8050 C   0  0  0  0  0  0  0  0  0  0  0  0
   -6.7390   21.1400  -32.3320 C   0  0  0  0  0  0  0  0  0  0  0  0
   -5.0150   21.4350  -32.5270 Cl  0  0  0  0  0  0  0  0  0  0  0  0
   -5.6218   17.8331  -30.3760 H   0  0  0  0  0  0  0  0  0  0  0  0
   -7.2984   18.3221  -30.7959 H   0  0  0  0  0  0  0  0  0  0  0  0
   -6.8430   16.5845  -30.7959 H   0  0  0  0  0  0  0  0  0  0  0  0
   -5.0325   15.8142  -32.4459 H   0  0  0  0  0  0  0  0  0  0  0  0
   -4.3607   15.9597  -34.8403 H   0  0  0  0  0  0  0  0  0  0  0  0
   -5.0449   17.9203  -36.2186 H   0  0  0  0  0  0  0  0  0  0  0  0
   -6.4110   19.7456  -35.2058 H   0  0  0  0  0  0  0  0  0  0  0  0
   -9.1480   18.7385  -32.7599 H   0  0  0  0  0  0  0  0  0  0  0  0
  -10.5654   20.5631  -31.8233 H   0  0  0  0  0  0  0  0  0  0  0  0
   -9.5404   22.7572  -31.2132 H   0  0  0  0  0  0  0  0  0  0  0  0
   -7.0938   23.1252  -31.5318 H   0  0  0  0  0  0  0  0  0  0  0  0
  1  2  1  0
  2  3  2  0
  3  4  1  0
  4  5  2  0
  5  6  1  0
  6  7  2  0
  7  8  1  0
  8  9  2  0
  9 10  1  0
 10 11  2  0
 11 12  1  0
 12 13  2  0
 13 14  1  0
  7  2  1  0
 13  8  1  0
  1 15  1  0
  1 16  1  0
  1 17  1  0
  3 18  1  0
  4 19  1  0
  5 20  1  0
  6 21  1  0
  9 22  1  0
 10 23  1  0
 11 24  1  0
 12 25  1  0
M  END
>  <UniqueID>  (39) 
37

>  <SMILES>  (39) 
Cc1ccccc1-c1ccccc1Cl

>  <Energy>  (39) 
34.03963412726141

>  <Genealogy>  (39) 
Cc1ccccc1-c1ccccc1Cl (3D coordinates assigned)
Cc1ccccc1-c1ccccc1Cl (optimized conformer: 34.03963412726141 kcal/mol)

>  <smiles>  (39) 
Cc1ccccc1-c1ccccc1Cl

>  <score_type>  (39) 
oracle

>  <origin>  (39) 
adgpu

>  <m_score__min__energy>  (39) 
-6.6600000000000001

>  <m_primary>  (39) 
energy

$$$$
39:0
     RDKit          3D

 37 39  0  0  0  0  0  0  0  0999 V2000
   -5.2060   18.9010  -34.3900 C   0  0  0  0  0  0  0  0  0  0  0  0
   -5.0350   20.0270  -33.0190 S   0  0  0  0  0  0  0  0  0  0  0  0
   -4.3770   19.3280  -31.8630 O   0  0  0  0  0  0  0  0  0  0  0  0
   -4.1460   21.1530  -33.4650 O   0  0  0  0  0  0  0  0  0  0  0  0
   -6.6120   20.6700  -32.5190 C   0  0  0  0  0  0  0  0  0  0  0  0
   -7.7750   20.1260  -33.0920 C   0  0  0  0  0  0  0  0  0  0  0  0
   -9.0380   20.5690  -32.6980 C   0  0  0  0  0  0  0  0  0  0  0  0
   -9.1610   21.5590  -31.7250 C   0  0  0  0  0  0  0  0  0  0  0  0
   -8.0200   22.1160  -31.1490 C   0  0  0  0  0  0  0  0  0  0  0  0
   -6.7400   21.6910  -31.5430 C   0  0  0  0  0  0  0  0  0  0  0  0
   -5.5700   22.3300  -30.9120 C   0  0  0  0  0  0  0  0  0  0  0  0
   -4.6090   21.5570  -30.2500 C   0  0  0  0  0  0  0  0  0  0  0  0
   -3.5000   22.1660  -29.6580 C   0  0  0  0  0  0  0  0  0  0  0  0
   -3.3210   23.5580  -29.7390 C   0  0  0  0  0  0  0  0  0  0  0  0
   -2.1360   24.1740  -29.0980 C   0  0  0  0  0  0  0  0  0  0  0  0
   -0.8520   23.6180  -29.2240 C   0  0  0  0  0  0  0  0  0  0  0  0
    0.2010   24.2140  -28.6030 N   0  0  0  0  0  0  0  0  0  0  0  0
    0.0390   25.3380  -27.8560 C   0  0  0  0  0  0  0  0  0  0  0  0
    1.0550   25.8910  -27.2760 N   0  0  0  0  0  0  0  0  0  0  0  0
   -1.2380   25.8860  -27.7160 C   0  0  0  0  0  0  0  0  0  0  0  0
   -2.2910   25.2910  -28.3340 N   0  0  0  0  0  0  0  0  0  0  0  0
   -4.2870   24.3330  -30.4130 C   0  0  0  0  0  0  0  0  0  0  0  0
   -4.1910   25.6860  -30.4600 F   0  0  0  0  0  0  0  0  0  0  0  0
   -5.3950   23.7180  -31.0030 C   0  0  0  0  0  0  0  0  0  0  0  0
   -5.3610   17.8807  -34.0093 H   0  0  0  0  0  0  0  0  0  0  0  0
   -6.0693   19.1986  -35.0034 H   0  0  0  0  0  0  0  0  0  0  0  0
   -4.2933   18.9289  -35.0034 H   0  0  0  0  0  0  0  0  0  0  0  0
   -7.6882   19.3426  -33.8593 H   0  0  0  0  0  0  0  0  0  0  0  0
   -9.9390   20.1357  -33.1566 H   0  0  0  0  0  0  0  0  0  0  0  0
  -10.1583   21.9010  -31.4114 H   0  0  0  0  0  0  0  0  0  0  0  0
   -8.1228   22.8951  -30.3793 H   0  0  0  0  0  0  0  0  0  0  0  0
   -4.7277   20.4648  -30.1957 H   0  0  0  0  0  0  0  0  0  0  0  0
   -2.7605   21.5512  -29.1239 H   0  0  0  0  0  0  0  0  0  0  0  0
   -0.6993   22.7067  -29.8209 H   0  0  0  0  0  0  0  0  0  0  0  0
    2.0170   25.4950  -27.3670 H   0  0  0  0  0  0  0  0  0  0  0  0
   -1.3897   26.7917  -27.1104 H   0  0  0  0  0  0  0  0  0  0  0  0
   -6.1349   24.3275  -31.5425 H   0  0  0  0  0  0  0  0  0  0  0  0
  1  2  1  0
  2  3  2  0
  2  4  2  0
  2  5  1  0
  5  6  2  0
  6  7  1  0
  7  8  2  0
  8  9  1  0
  9 10  2  0
 10 11  1  0
 11 12  2  0
 12 13  1  0
 13 14  2  0
 14 15  1  0
 15 16  2  0
 16 17  1  0
 17 18  1  0
 18 19  2  3
 18 20  1  0
 20 21  2  0
 14 22  1  0
 22 23  1  0
 22 24  2  0
 10  5  1  0
 24 11  1  0
 21 15  1  0
  1 25  1  0
  1 26  1  0
  1 27  1  0
  6 28  1  0
  7 29  1  0
  8 30  1  0
  9 31  1  0
 12 32  1  0
 13 33  1  0
 16 34  1  0
 19 35  1  0
 20 36  1  0
 24 37  1  0
M  CHG  1  17  -1
M  END
>  <UniqueID>  (40) 
38

>  <SMILES>  (40) 
CS(=O)(=O)c1ccccc1-c1ccc(-c2c[n-]c(=N)cn2)c(F)c1

>  <Energy>  (40) 
53.00330960067664

>  <Genealogy>  (40) 
CS(=O)(=O)c1ccccc1-c1ccc(-c2c[n-]c(=N)cn2)c(F)c1 (protonated)
CS(=O)(=O)c1ccccc1-c1ccc(-c2c[n-]c(=N)cn2)c(F)c1 (3D coordinates assigned)
CS(=O)(=O)c1ccccc1-c1ccc(-c2c[n-]c(=N)cn2)c(F)c1 (optimized conformer: 53.00330960067664 kcal/mol)

>  <smiles>  (40) 
CS(=O)(=O)c1ccccc1-c1ccc(-c2c[nH]c(=N)cn2)c(F)c1

>  <score_type>  (40) 
oracle

>  <origin>  (40) 
adgpu

>  <m_score__min__energy>  (40) 
-8.7699999999999996

>  <m_primary>  (40) 
energy

$$$$
40:0
     RDKit          3D

 37 39  0  0  0  0  0  0  0  0999 V2000
   -2.9650   24.9220  -27.5310 O   0  0  0  0  0  0  0  0  0  0  0  0
   -2.3540   24.7380  -28.8920 S   0  0  0  0  0  0  0  0  0  0  0  0
   -1.1160   25.5850  -28.9930 O   0  0  0  0  0  0  0  0  0  0  0  0
   -3.4900   25.2600  -30.0950 N   0  0  0  0  0  0  0  0  0  0  0  0
   -4.5690   24.4670  -30.6100 C   0  0  0  0  0  0  0  0  0  0  0  0
   -5.8820   24.9120  -30.4110 C   0  0  0  0  0  0  0  0  0  0  0  0
   -6.9630   24.1680  -30.8920 C   0  0  0  0  0  0  0  0  0  0  0  0
   -6.7420   22.9710  -31.5970 C   0  0  0  0  0  0  0  0  0  0  0  0
   -7.8000   22.1890  -32.0830 O   0  0  0  0  0  0  0  0  0  0  0  0
   -7.7860   20.7920  -32.2180 C   0  0  0  0  0  0  0  0  0  0  0  0
   -8.7090   20.0370  -31.4820 C   0  0  0  0  0  0  0  0  0  0  0  0
   -8.7180   18.6420  -31.5780 C   0  0  0  0  0  0  0  0  0  0  0  0
   -7.7930   17.9920  -32.3990 C   0  0  0  0  0  0  0  0  0  0  0  0
   -6.8550   18.7340  -33.1220 C   0  0  0  0  0  0  0  0  0  0  0  0
   -6.8450   20.1290  -33.0300 C   0  0  0  0  0  0  0  0  0  0  0  0
   -5.4310   22.5160  -31.7770 C   0  0  0  0  0  0  0  0  0  0  0  0
   -4.3490   23.2570  -31.2940 C   0  0  0  0  0  0  0  0  0  0  0  0
   -1.9690   23.0320  -29.1200 C   0  0  0  0  0  0  0  0  0  0  0  0
   -0.9310   22.6660  -29.9900 C   0  0  0  0  0  0  0  0  0  0  0  0
   -0.6060   21.3180  -30.1710 C   0  0  0  0  0  0  0  0  0  0  0  0
   -1.3130   20.3290  -29.4810 C   0  0  0  0  0  0  0  0  0  0  0  0
   -2.3570   20.6840  -28.6230 C   0  0  0  0  0  0  0  0  0  0  0  0
   -2.6910   22.0320  -28.4440 C   0  0  0  0  0  0  0  0  0  0  0  0
   -3.7240   22.3530  -27.6250 F   0  0  0  0  0  0  0  0  0  0  0  0
   -6.0637   25.8537  -29.8723 H   0  0  0  0  0  0  0  0  0  0  0  0
   -7.9907   24.5199  -30.7186 H   0  0  0  0  0  0  0  0  0  0  0  0
   -9.4306   20.5446  -30.8250 H   0  0  0  0  0  0  0  0  0  0  0  0
   -9.4535   18.0562  -31.0070 H   0  0  0  0  0  0  0  0  0  0  0  0
   -7.8031   16.8948  -32.4764 H   0  0  0  0  0  0  0  0  0  0  0  0
   -6.1242   18.2202  -33.7638 H   0  0  0  0  0  0  0  0  0  0  0  0
   -6.1003   20.7105  -33.5932 H   0  0  0  0  0  0  0  0  0  0  0  0
   -5.2505   21.5670  -32.3032 H   0  0  0  0  0  0  0  0  0  0  0  0
   -3.3225   22.8934  -31.4489 H   0  0  0  0  0  0  0  0  0  0  0  0
   -0.3707   23.4423  -30.5318 H   0  0  0  0  0  0  0  0  0  0  0  0
    0.2065   21.0357  -30.8567 H   0  0  0  0  0  0  0  0  0  0  0  0
   -1.0471   19.2699  -29.6137 H   0  0  0  0  0  0  0  0  0  0  0  0
   -2.9173   19.9035  -28.0874 H   0  0  0  0  0  0  0  0  0  0  0  0
  1  2  2  0
  2  3  2  0
  2  4  1  0
  4  5  1  0
  5  6  2  0
  6  7  1  0
  7  8  2  0
  8  9  1  0
  9 10  1  0
 10 11  2  0
 11 12  1  0
 12 13  2  0
 13 14  1  0
 14 15  2  0
  8 16  1  0
 16 17  2  0
  2 18  1  0
 18 19  2  0
 19 20  1  0
 20 21  2  0
 21 22  1  0
 22 23  2  0
 23 24  1  0
 17  5  1  0
 23 18  1  0
 15 10  1  0
  6 25  1  0
  7 26  1  0
 11 27  1  0
 12 28  1  0
 13 29  1  0
 14 30  1  0
 15 31  1  0
 16 32  1  0
 17 33  1  0
 19 34  1  0
 20 35  1  0
 21 36  1  0
 22 37  1  0
M  CHG  1   4  -1
M  END
>  <UniqueID>  (41) 
39

>  <SMILES>  (41) 
O=S(=O)([N-]c1ccc(Oc2ccccc2)cc1)c1ccccc1F

>  <Energy>  (41) 
50.19633233598121

>  <Genealogy>  (41) 
O=S(=O)([N-]c1ccc(Oc2ccccc2)cc1)c1ccccc1F (protonated)
O=S(=O)([N-]c1ccc(Oc2ccccc2)cc1)c1ccccc1F (3D coordinates assigned)
O=S(=O)([N-]c1ccc(Oc2ccccc2)cc1)c1ccccc1F (optimized conformer: 50.19633233598121 kcal/mol)

>  <smiles>  (41) 
O=S(=O)(Nc1ccc(Oc2ccccc2)cc1)c1ccccc1F

>  <score_type>  (41) 
oracle

>  <origin>  (41) 
adgpu

>  <m_score__min__energy>  (41) 
-9.8100000000000005

>  <m_primary>  (41) 
energy

$$$$
41:0
     RDKit          3D

 33 34  0  0  0  0  0  0  0  0999 V2000
   -2.7200   24.5890  -29.1740 C   0  0  0  0  0  0  0  0  0  0  0  0
   -3.5040   24.7810  -30.3470 O   0  0  0  0  0  0  0  0  0  0  0  0
   -4.3670   23.8170  -30.8890 C   0  0  0  0  0  0  0  0  0  0  0  0
   -3.8150   22.6290  -31.3790 C   0  0  0  0  0  0  0  0  0  0  0  0
   -4.6330   21.6390  -31.9290 C   0  0  0  0  0  0  0  0  0  0  0  0
   -6.0230   21.8250  -32.0030 C   0  0  0  0  0  0  0  0  0  0  0  0
   -6.8700   20.7970  -32.5570 N   0  0  0  0  0  0  0  0  0  0  0  0
   -8.1320   20.4460  -31.8960 C   0  0  0  0  0  0  0  0  0  0  0  0
   -8.6120   19.0540  -32.3420 C   0  0  0  0  0  0  0  0  0  0  0  0
   -7.4840   18.1120  -32.5080 N   0  0  0  0  0  0  0  0  0  0  0  0
   -6.8510   17.7830  -31.2180 C   0  0  0  0  0  0  0  0  0  0  0  0
   -6.4870   18.5570  -33.5160 C   0  0  0  0  0  0  0  0  0  0  0  0
   -6.4940   20.0750  -33.7750 C   0  0  0  0  0  0  0  0  0  0  0  0
   -6.5800   23.0130  -31.5030 C   0  0  0  0  0  0  0  0  0  0  0  0
   -5.7610   24.0040  -30.9540 C   0  0  0  0  0  0  0  0  0  0  0  0
   -3.3479   24.7428  -28.2840 H   0  0  0  0  0  0  0  0  0  0  0  0
   -2.3168   23.5656  -29.1659 H   0  0  0  0  0  0  0  0  0  0  0  0
   -1.8896   25.3103  -29.1659 H   0  0  0  0  0  0  0  0  0  0  0  0
   -2.7272   22.4728  -31.3309 H   0  0  0  0  0  0  0  0  0  0  0  0
   -4.1854   20.7078  -32.3065 H   0  0  0  0  0  0  0  0  0  0  0  0
   -7.9802   20.4435  -30.8065 H   0  0  0  0  0  0  0  0  0  0  0  0
   -8.8947   21.1884  -32.1739 H   0  0  0  0  0  0  0  0  0  0  0  0
   -9.3008   18.6547  -31.5830 H   0  0  0  0  0  0  0  0  0  0  0  0
   -9.1147   19.1607  -33.3146 H   0  0  0  0  0  0  0  0  0  0  0  0
   -7.4988   18.1197  -30.3952 H   0  0  0  0  0  0  0  0  0  0  0  0
   -6.7051   16.6950  -31.1481 H   0  0  0  0  0  0  0  0  0  0  0  0
   -5.8767   18.2888  -31.1481 H   0  0  0  0  0  0  0  0  0  0  0  0
   -5.4856   18.2710  -33.1619 H   0  0  0  0  0  0  0  0  0  0  0  0
   -6.7550   18.0706  -34.4655 H   0  0  0  0  0  0  0  0  0  0  0  0
   -5.4896   20.3939  -34.0904 H   0  0  0  0  0  0  0  0  0  0  0  0
   -7.2261   20.2998  -34.5646 H   0  0  0  0  0  0  0  0  0  0  0  0
   -7.6687   23.1650  -31.5436 H   0  0  0  0  0  0  0  0  0  0  0  0
   -6.2074   24.9336  -30.5712 H   0  0  0  0  0  0  0  0  0  0  0  0
  1  2  1  0
  2  3  1  0
  3  4  2  0
  4  5  1  0
  5  6  2  0
  6  7  1  0
  7  8  1  0
  8  9  1  0
  9 10  1  0
 10 11  1  0
 10 12  1  0
 12 13  1  0
  6 14  1  0
 14 15  2  0
 15  3  1  0
 13  7  1  0
  1 16  1  0
  1 17  1  0
  1 18  1  0
  4 19  1  0
  5 20  1  0
  8 21  1  0
  8 22  1  0
  9 23  1  0
  9 24  1  0
 11 25  1  0
 11 26  1  0
 11 27  1  0
 12 28  1  0
 12 29  1  0
 13 30  1  0
 13 31  1  0
 14 32  1  0
 15 33  1  0
M  END
>  <UniqueID>  (42) 
40

>  <SMILES>  (42) 
COc1ccc(N2CCN(C)CC2)cc1

>  <Energy>  (42) 
42.726151122416624

>  <Genealogy>  (42) 
COc1ccc(N2CCN(C)CC2)cc1 (3D coordinates assigned)
COc1ccc(N2CCN(C)CC2)cc1 (nonaromatic ring conformer: 42.726151122416624 kcal/mol)

>  <smiles>  (42) 
COc1ccc(N2CCN(C)CC2)cc1

>  <score_type>  (42) 
oracle

>  <origin>  (42) 
adgpu

>  <m_score__min__energy>  (42) 
-6.25

>  <m_primary>  (42) 
energy

$$$$
42:0
     RDKit          3D

 34 35  0  0  0  0  0  0  0  0999 V2000
   -6.4765   21.2312  -33.4057 H   0  0  0  0  0  0  0  0  0  0  0  0
   -6.7880   20.2060  -33.1570 C   0  0  0  0  0  0  0  0  0  0  0  0
   -6.1960   19.1250  -33.8150 C   0  0  0  0  0  0  0  0  0  0  0  0
   -5.4146   19.3046  -34.5681 H   0  0  0  0  0  0  0  0  0  0  0  0
   -6.5920   17.8130  -33.5210 C   0  0  0  0  0  0  0  0  0  0  0  0
   -5.9270   16.6520  -34.2000 C   0  0  0  0  0  0  0  0  0  0  0  0
   -5.5312   15.9610  -33.4411 H   0  0  0  0  0  0  0  0  0  0  0  0
   -6.6605   16.1255  -34.8283 H   0  0  0  0  0  0  0  0  0  0  0  0
   -5.1018   17.0183  -34.8283 H   0  0  0  0  0  0  0  0  0  0  0  0
   -7.5640   17.5940  -32.5370 C   0  0  0  0  0  0  0  0  0  0  0  0
   -7.8614   16.5662  -32.2816 H   0  0  0  0  0  0  0  0  0  0  0  0
   -8.1590   18.6740  -31.8770 C   0  0  0  0  0  0  0  0  0  0  0  0
   -8.9306   18.4885  -31.1153 H   0  0  0  0  0  0  0  0  0  0  0  0
   -7.7800   19.9970  -32.1780 C   0  0  0  0  0  0  0  0  0  0  0  0
   -8.3950   21.1650  -31.4870 C   0  0  0  0  0  0  0  0  0  0  0  0
   -9.6130   21.4300  -31.6820 O   0  0  0  0  0  0  0  0  0  0  0  0
   -7.6150   22.0700  -30.5740 C   0  0  0  0  0  0  0  0  0  0  0  0
   -6.5989   21.6669  -30.4515 H   0  0  0  0  0  0  0  0  0  0  0  0
   -8.1327   22.1173  -29.6046 H   0  0  0  0  0  0  0  0  0  0  0  0
   -7.5070   23.7620  -31.2560 S   0  0  0  0  0  0  0  0  0  0  0  0
   -5.8570   24.0680  -30.6310 C   0  0  0  0  0  0  0  0  0  0  0  0
   -5.0070   24.9650  -31.1760 N   0  0  0  0  0  0  0  0  0  0  0  0
   -3.8380   25.0210  -30.5420 N   0  0  0  0  0  0  0  0  0  0  0  0
   -3.0840   25.6750  -30.8450 H   0  0  0  0  0  0  0  0  0  0  0  0
   -3.7540   24.1650  -29.4940 C   0  0  0  0  0  0  0  0  0  0  0  0
   -2.7190   24.0350  -28.7170 N   0  0  0  0  0  0  0  0  0  0  0  0
   -1.4590   24.7660  -28.8450 C   0  0  0  0  0  0  0  0  0  0  0  0
   -1.4850   25.3720  -29.7627 H   0  0  0  0  0  0  0  0  0  0  0  0
   -0.6330   24.0409  -28.8889 H   0  0  0  0  0  0  0  0  0  0  0  0
   -1.2420   25.6830  -27.6460 C   0  0  0  0  0  0  0  0  0  0  0  0
   -1.3776   25.1100  -26.7169 H   0  0  0  0  0  0  0  0  0  0  0  0
   -0.2219   26.0934  -27.6781 H   0  0  0  0  0  0  0  0  0  0  0  0
   -1.9699   26.5071  -27.6781 H   0  0  0  0  0  0  0  0  0  0  0  0
   -5.1730   23.2820  -29.3060 S   0  0  0  0  0  0  0  0  0  0  0  0
  1  2  1  0
  2  3  2  0
  3  4  1  0
  3  5  1  0
  5  6  1  0
  6  7  1  0
  6  8  1  0
  6  9  1  0
  5 10  2  0
 10 11  1  0
 10 12  1  0
 12 13  1  0
 12 14  2  0
 14 15  1  0
 15 16  2  0
 15 17  1  0
 17 18  1  0
 17 19  1  0
 17 20  1  0
 20 21  1  0
 21 22  2  0
 22 23  1  0
 23 24  1  0
 23 25  1  0
 25 26  2  0
 26 27  1  0
 27 28  1  0
 27 29  1  0
 27 30  1  0
 30 31  1  0
 30 32  1  0
 30 33  1  0
 25 34  1  0
 14  2  1  0
 34 21  1  0
M  END
>  <UniqueID>  (43) 
41

>  <SMILES>  (43) 
CC/N=c1\[nH]nc(SCC(=O)c2ccc(C)cc2)s1

>  <Energy>  (43) 
62.41772931672906

>  <Genealogy>  (43) 
CC/N=c1\[nH]nc(SCC(=O)c2ccc(C)cc2)s1 (cis-trans isomerization)
CC/N=c1\[nH]nc(SCC(=O)c2ccc(C)cc2)s1 (3D coordinates assigned)
CC/N=c1\[nH]nc(SCC(=O)c2ccc(C)cc2)s1 (optimized conformer: 62.41772931672906 kcal/mol)

>  <smiles>  (43) 
CCN=c1[nH]nc(SCC(=O)c2ccc(C)cc2)s1

>  <score_type>  (43) 
oracle

>  <origin>  (43) 
adgpu

>  <m_score__min__energy>  (43) 
-8.4299999999999997

>  <m_primary>  (43) 
energy

$$$$
43:0
     RDKit          3D

 43 45  0  0  0  0  0  0  0  0999 V2000
   -1.4500   23.6390  -29.1430 C   0  0  0  0  0  0  0  0  0  0  0  0
   -1.8250   22.6500  -30.2120 C   0  0  0  0  0  0  0  0  0  0  0  0
   -1.0150   21.5230  -30.4310 C   0  0  0  0  0  0  0  0  0  0  0  0
   -1.3380   20.6060  -31.4330 C   0  0  0  0  0  0  0  0  0  0  0  0
   -2.4720   20.8050  -32.2230 C   0  0  0  0  0  0  0  0  0  0  0  0
   -3.2710   21.9340  -32.0320 C   0  0  0  0  0  0  0  0  0  0  0  0
   -2.9410   22.8840  -31.0440 C   0  0  0  0  0  0  0  0  0  0  0  0
   -3.6960   24.0530  -30.8480 O   0  0  0  0  0  0  0  0  0  0  0  0
   -4.6590   24.2720  -29.8120 C   0  0  0  0  0  0  0  0  0  0  0  0
   -6.0120   24.7240  -30.4080 C   0  0  0  0  0  0  0  0  0  0  0  0
   -6.1210   24.5160  -31.9200 C   0  0  0  0  0  0  0  0  0  0  0  0
   -6.1720   23.0370  -32.3310 C   0  0  0  0  0  0  0  0  0  0  0  0
   -7.0160   22.1890  -31.4590 N   0  0  0  0  0  0  0  0  0  0  0  0
   -7.3210   20.8220  -31.8580 C   0  0  0  0  0  0  0  0  0  0  0  0
   -6.5200   20.1050  -32.7770 C   0  0  0  0  0  0  0  0  0  0  0  0
   -6.8460   18.7830  -33.0960 C   0  0  0  0  0  0  0  0  0  0  0  0
   -5.8460   17.8780  -34.2210 Cl  0  0  0  0  0  0  0  0  0  0  0  0
   -7.9610   18.1770  -32.5130 C   0  0  0  0  0  0  0  0  0  0  0  0
   -8.7390   18.9060  -31.6160 C   0  0  0  0  0  0  0  0  0  0  0  0
   -8.4030   20.1880  -31.3120 N   0  0  0  0  0  0  0  0  0  0  0  0
   -7.2200   22.5260  -30.0320 C   0  0  0  0  0  0  0  0  0  0  0  0
   -7.2010   24.0270  -29.7450 C   0  0  0  0  0  0  0  0  0  0  0  0
   -1.6199   23.1908  -28.1529 H   0  0  0  0  0  0  0  0  0  0  0  0
   -0.3881   23.9064  -29.2471 H   0  0  0  0  0  0  0  0  0  0  0  0
   -2.0677   24.5432  -29.2471 H   0  0  0  0  0  0  0  0  0  0  0  0
   -0.1216   21.3623  -29.8097 H   0  0  0  0  0  0  0  0  0  0  0  0
   -0.6989   19.7264  -31.6002 H   0  0  0  0  0  0  0  0  0  0  0  0
   -2.7366   20.0704  -32.9978 H   0  0  0  0  0  0  0  0  0  0  0  0
   -4.1640   22.0832  -32.6567 H   0  0  0  0  0  0  0  0  0  0  0  0
   -4.8058   23.3365  -29.2523 H   0  0  0  0  0  0  0  0  0  0  0  0
   -4.2857   25.0625  -29.1444 H   0  0  0  0  0  0  0  0  0  0  0  0
   -6.0444   25.8039  -30.2014 H   0  0  0  0  0  0  0  0  0  0  0  0
   -7.0389   25.0080  -32.2742 H   0  0  0  0  0  0  0  0  0  0  0  0
   -5.2161   24.9475  -32.3728 H   0  0  0  0  0  0  0  0  0  0  0  0
   -6.5678   22.9781  -33.3556 H   0  0  0  0  0  0  0  0  0  0  0  0
   -5.1453   22.6516  -32.2453 H   0  0  0  0  0  0  0  0  0  0  0  0
   -5.6446   20.5850  -33.2388 H   0  0  0  0  0  0  0  0  0  0  0  0
   -8.2218   17.1370  -32.7589 H   0  0  0  0  0  0  0  0  0  0  0  0
   -9.6244   18.4447  -31.1541 H   0  0  0  0  0  0  0  0  0  0  0  0
   -8.1944   22.1247  -29.7165 H   0  0  0  0  0  0  0  0  0  0  0  0
   -6.3820   22.0821  -29.4745 H   0  0  0  0  0  0  0  0  0  0  0  0
   -8.1314   24.4729  -30.1264 H   0  0  0  0  0  0  0  0  0  0  0  0
   -7.1101   24.1630  -28.6572 H   0  0  0  0  0  0  0  0  0  0  0  0
  1  2  1  0
  2  3  2  0
  3  4  1  0
  4  5  2  0
  5  6  1  0
  6  7  2  0
  7  8  1  0
  8  9  1  0
  9 10  1  0
 10 11  1  0
 11 12  1  0
 12 13  1  0
 13 14  1  0
 14 15  2  0
 15 16  1  0
 16 17  1  0
 16 18  2  0
 18 19  1  0
 19 20  2  0
 13 21  1  0
 21 22  1  0
  7  2  1  0
 22 10  1  0
 20 14  1  0
  1 23  1  0
  1 24  1  0
  1 25  1  0
  3 26  1  0
  4 27  1  0
  5 28  1  0
  6 29  1  0
  9 30  1  0
  9 31  1  0
 10 32  1  0
 11 33  1  0
 11 34  1  0
 12 35  1  0
 12 36  1  0
 15 37  1  0
 18 38  1  0
 19 39  1  0
 21 40  1  0
 21 41  1  0
 22 42  1  0
 22 43  1  0
M  END
>  <UniqueID>  (44) 
42

>  <SMILES>  (44) 
Cc1ccccc1OCC1CCN(c2cc(Cl)ccn2)CC1

>  <Energy>  (44) 
50.37056283412946

>  <Genealogy>  (44) 
Cc1ccccc1OCC1CCN(c2cc(Cl)ccn2)CC1 (3D coordinates assigned)
Cc1ccccc1OCC1CCN(c2cc(Cl)ccn2)CC1 (nonaromatic ring conformer: 50.37056283412946 kcal/mol)

>  <smiles>  (44) 
Cc1ccccc1OCC1CCN(c2cc(Cl)ccn2)CC1

>  <score_type>  (44) 
oracle

>  <origin>  (44) 
adgpu

>  <m_score__min__energy>  (44) 
-8.0500000000000007

>  <m_primary>  (44) 
energy

$$$$
44:0
     RDKit          3D

 23 24  0  0  0  0  0  0  0  0999 V2000
   -7.2440   25.0780  -29.3920 O   0  0  0  0  0  0  0  0  0  0  0  0
   -6.1610   24.6800  -29.9000 C   0  0  0  0  0  0  0  0  0  0  0  0
   -6.1800   23.8880  -31.0490 C   0  0  0  0  0  0  0  0  0  0  0  0
   -4.9640   23.4670  -31.5950 C   0  0  0  0  0  0  0  0  0  0  0  0
   -4.9520   22.6270  -32.7620 N   0  0  0  0  0  0  0  0  0  0  0  0
   -5.4530   21.2800  -32.7880 C   0  0  0  0  0  0  0  0  0  0  0  0
   -4.6090   20.1900  -33.0650 C   0  0  0  0  0  0  0  0  0  0  0  0
   -5.1270   18.8910  -33.1090 C   0  0  0  0  0  0  0  0  0  0  0  0
   -6.4910   18.6700  -32.8920 C   0  0  0  0  0  0  0  0  0  0  0  0
   -7.1380   17.0420  -32.9500 Cl  0  0  0  0  0  0  0  0  0  0  0  0
   -7.3390   19.7520  -32.6390 C   0  0  0  0  0  0  0  0  0  0  0  0
   -6.8250   21.0520  -32.5950 C   0  0  0  0  0  0  0  0  0  0  0  0
   -3.8010   23.8210  -30.9830 N   0  0  0  0  0  0  0  0  0  0  0  0
   -3.7990   24.5920  -29.8650 C   0  0  0  0  0  0  0  0  0  0  0  0
   -2.7050   24.9070  -29.3250 O   0  0  0  0  0  0  0  0  0  0  0  0
   -4.9740   25.0200  -29.3280 N   0  0  0  0  0  0  0  0  0  0  0  0
   -7.1336   23.6006  -31.5160 H   0  0  0  0  0  0  0  0  0  0  0  0
   -4.6350   23.0480  -33.6650 H   0  0  0  0  0  0  0  0  0  0  0  0
   -3.5376   20.3592  -33.2478 H   0  0  0  0  0  0  0  0  0  0  0  0
   -4.4597   18.0411  -33.3148 H   0  0  0  0  0  0  0  0  0  0  0  0
   -8.4130   19.5807  -32.4741 H   0  0  0  0  0  0  0  0  0  0  0  0
   -7.4994   21.9007  -32.4081 H   0  0  0  0  0  0  0  0  0  0  0  0
   -4.9650   25.6130  -28.4670 H   0  0  0  0  0  0  0  0  0  0  0  0
  1  2  2  0
  2  3  1  0
  3  4  2  0
  4  5  1  0
  5  6  1  0
  6  7  2  0
  7  8  1  0
  8  9  2  0
  9 10  1  0
  9 11  1  0
 11 12  2  0
  4 13  1  0
 13 14  1  0
 14 15  2  0
 14 16  1  0
 16  2  1  0
 12  6  1  0
  3 17  1  0
  5 18  1  0
  7 19  1  0
  8 20  1  0
 11 21  1  0
 12 22  1  0
 16 23  1  0
M  CHG  1  13  -1
M  END
>  <UniqueID>  (45) 
43

>  <SMILES>  (45) 
O=c1cc(Nc2ccc(Cl)cc2)[n-]c(=O)[nH]1

>  <Energy>  (45) 
28.501376031021742

>  <Genealogy>  (45) 
O=c1cc(Nc2ccc(Cl)cc2)[n-]c(=O)[nH]1 (protonated)
O=c1cc(Nc2ccc(Cl)cc2)[n-]c(=O)[nH]1 (3D coordinates assigned)
O=c1cc(Nc2ccc(Cl)cc2)[n-]c(=O)[nH]1 (optimized conformer: 28.501376031021742 kcal/mol)

>  <smiles>  (45) 
O=c1cc(Nc2ccc(Cl)cc2)[nH]c(=O)[nH]1

>  <score_type>  (45) 
oracle

>  <origin>  (45) 
adgpu

>  <m_score__min__energy>  (45) 
-7.7300000000000004

>  <m_primary>  (45) 
energy

$$$$
45:0
     RDKit          3D

 45 47  0  0  1  0  0  0  0  0999 V2000
   -9.5840   21.6220  -32.0640 C   0  0  0  0  0  0  0  0  0  0  0  0
   -8.1720   21.1710  -32.2110 C   0  0  0  0  0  0  0  0  0  0  0  0
   -7.1500   21.8020  -31.6080 N   0  0  0  0  0  0  0  0  0  0  0  0
   -5.8690   21.4030  -31.7350 C   0  0  0  0  0  0  0  0  0  0  0  0
   -4.8380   22.1590  -31.0370 C   0  0  0  0  0  0  0  0  0  0  0  0
   -3.9390   21.4760  -30.2440 C   0  0  0  0  0  0  0  0  0  0  0  0
   -2.9310   22.1050  -29.5470 C   0  0  0  0  0  0  0  0  0  0  0  0
   -2.8470   23.4750  -29.6720 C   0  0  0  0  0  0  0  0  0  0  0  0
   -1.8310   24.1870  -28.9800 N   0  0  0  0  0  0  0  0  0  0  0  0
   -1.9900   25.3130  -28.0790 C   0  0  0  0  0  0  0  0  0  0  0  0
   -1.0930   24.9220  -26.9250 C   0  0  0  0  0  0  0  0  0  0  0  0
    0.0510   24.2350  -27.6080 C   0  0  0  0  0  0  0  0  0  0  0  0
   -0.4030   23.9360  -29.0300 C   0  0  0  0  0  0  0  0  0  0  0  0
   -3.7160   24.1550  -30.4400 N   0  0  0  0  0  0  0  0  0  0  0  0
   -4.7060   23.5140  -31.1220 C   0  0  0  0  0  0  0  0  0  0  0  0
   -5.6200   20.3110  -32.5110 C   0  0  0  0  0  0  0  0  0  0  0  0
   -6.6830   19.6550  -33.1390 C   0  0  0  0  0  0  0  0  0  0  0  0
   -6.4830   18.6160  -33.8840 N   0  0  0  0  0  0  0  0  0  0  0  0
   -5.1180   18.1070  -34.0810 C   0  0  0  0  0  0  0  0  0  0  0  0
   -4.9500   17.0570  -32.9740 C   0  0  0  0  0  0  0  0  0  0  0  0
   -4.9790   17.4230  -35.4030 C   0  0  0  0  0  0  0  0  0  0  0  0
   -7.9510   20.0910  -32.9840 N   0  0  0  0  0  0  0  0  0  0  0  0
   -9.8341   21.7019  -30.9958 H   0  0  0  0  0  0  0  0  0  0  0  0
   -9.7071   22.6042  -32.5438 H   0  0  0  0  0  0  0  0  0  0  0  0
  -10.2536   20.8930  -32.5438 H   0  0  0  0  0  0  0  0  0  0  0  0
   -4.0311   20.3827  -30.1650 H   0  0  0  0  0  0  0  0  0  0  0  0
   -2.2258   21.5400  -28.9197 H   0  0  0  0  0  0  0  0  0  0  0  0
   -1.6536   26.2499  -28.5470 H   0  0  0  0  0  0  0  0  0  0  0  0
   -3.0331   25.5021  -27.7854 H   0  0  0  0  0  0  0  0  0  0  0  0
   -0.7492   25.8091  -26.3728 H   0  0  0  0  0  0  0  0  0  0  0  0
   -1.5962   24.2899  -26.1785 H   0  0  0  0  0  0  0  0  0  0  0  0
    0.9334   24.8916  -27.6221 H   0  0  0  0  0  0  0  0  0  0  0  0
    0.3297   23.3114  -27.0796 H   0  0  0  0  0  0  0  0  0  0  0  0
    0.0903   24.6047  -29.7507 H   0  0  0  0  0  0  0  0  0  0  0  0
   -0.1549   22.9155  -29.3572 H   0  0  0  0  0  0  0  0  0  0  0  0
   -5.4034   24.0929  -31.7453 H   0  0  0  0  0  0  0  0  0  0  0  0
   -4.5899   19.9481  -32.6424 H   0  0  0  0  0  0  0  0  0  0  0  0
   -4.3766   18.9191  -34.0513 H   0  0  0  0  0  0  0  0  0  0  0  0
   -5.0280   17.5447  -31.9911 H   0  0  0  0  0  0  0  0  0  0  0  0
   -5.7377   16.2950  -33.0688 H   0  0  0  0  0  0  0  0  0  0  0  0
   -3.9639   16.5788  -33.0688 H   0  0  0  0  0  0  0  0  0  0  0  0
   -4.7623   16.3565  -35.2430 H   0  0  0  0  0  0  0  0  0  0  0  0
   -5.9164   17.5257  -35.9694 H   0  0  0  0  0  0  0  0  0  0  0  0
   -4.1561   17.8835  -35.9694 H   0  0  0  0  0  0  0  0  0  0  0  0
   -8.7510   19.5930  -33.4590 H   0  0  0  0  0  0  0  0  0  0  0  0
  1  2  1  0
  2  3  2  0
  3  4  1  0
  4  5  1  0
  5  6  2  0
  6  7  1  0
  7  8  2  0
  8  9  1  0
  9 10  1  0
 10 11  1  0
 11 12  1  0
 12 13  1  0
  8 14  1  0
 14 15  2  0
  4 16  2  0
 16 17  1  0
 17 18  2  0
 18 19  1  0
 19 20  1  0
 19 21  1  0
 17 22  1  0
 22  2  1  0
 15  5  1  0
 13  9  1  0
  1 23  1  0
  1 24  1  0
  1 25  1  0
  6 26  1  0
  7 27  1  0
 10 28  1  0
 10 29  1  0
 11 30  1  0
 11 31  1  0
 12 32  1  0
 12 33  1  0
 13 34  1  0
 13 35  1  0
 15 36  1  0
 16 37  1  0
 19 38  1  0
 20 39  1  0
 20 40  1  0
 20 41  1  0
 21 42  1  0
 21 43  1  0
 21 44  1  0
 22 45  1  0
M  END
>  <smiles>  (46) 
Cc1nc(-c2ccc(N3CCCC3)nc2)cc(=NC(C)C)[nH]1

>  <score_type>  (46) 
oracle

>  <origin>  (46) 
adgpu

>  <m_score__min__energy>  (46) 
-7.2000000000000002

>  <m_primary>  (46) 
energy

$$$$
46:0
     RDKit          3D

 24 25  0  0  0  0  0  0  0  0999 V2000
   -1.8170   25.5180  -28.9430 O   0  0  0  0  0  0  0  0  0  0  0  0
   -2.5880   24.6280  -29.3960 C   0  0  0  0  0  0  0  0  0  0  0  0
   -3.4920   24.9360  -30.4670 N   0  0  0  0  0  0  0  0  0  0  0  0
   -4.7480   24.2980  -30.7370 C   0  0  0  0  0  0  0  0  0  0  0  0
   -5.9650   24.7990  -30.2350 C   0  0  0  0  0  0  0  0  0  0  0  0
   -7.1640   24.1320  -30.5040 C   0  0  0  0  0  0  0  0  0  0  0  0
   -7.1600   22.9560  -31.2610 C   0  0  0  0  0  0  0  0  0  0  0  0
   -8.6660   22.1200  -31.5940 Cl  0  0  0  0  0  0  0  0  0  0  0  0
   -5.9520   22.4420  -31.7410 C   0  0  0  0  0  0  0  0  0  0  0  0
   -4.7510   23.1060  -31.4730 C   0  0  0  0  0  0  0  0  0  0  0  0
   -2.5210   23.2500  -28.8560 C   0  0  0  0  0  0  0  0  0  0  0  0
   -1.4790   22.3810  -29.2200 C   0  0  0  0  0  0  0  0  0  0  0  0
   -1.4320   21.0850  -28.7030 C   0  0  0  0  0  0  0  0  0  0  0  0
   -2.4290   20.6630  -27.8230 C   0  0  0  0  0  0  0  0  0  0  0  0
   -3.4330   21.5090  -27.4770 N   0  0  0  0  0  0  0  0  0  0  0  0
   -3.5030   22.7770  -27.9650 C   0  0  0  0  0  0  0  0  0  0  0  0
   -5.9721   25.7175  -29.6297 H   0  0  0  0  0  0  0  0  0  0  0  0
   -8.1131   24.5333  -30.1192 H   0  0  0  0  0  0  0  0  0  0  0  0
   -5.9462   21.5134  -32.3307 H   0  0  0  0  0  0  0  0  0  0  0  0
   -3.8023   22.6897  -31.8425 H   0  0  0  0  0  0  0  0  0  0  0  0
   -0.6976   22.7228  -29.9146 H   0  0  0  0  0  0  0  0  0  0  0  0
   -0.6168   20.4032  -28.9867 H   0  0  0  0  0  0  0  0  0  0  0  0
   -2.4016   19.6442  -27.4092 H   0  0  0  0  0  0  0  0  0  0  0  0
   -4.3304   23.4355  -27.6621 H   0  0  0  0  0  0  0  0  0  0  0  0
  1  2  2  0
  2  3  1  0
  3  4  1  0
  4  5  2  0
  5  6  1  0
  6  7  2  0
  7  8  1  0
  7  9  1  0
  9 10  2  0
  2 11  1  0
 11 12  2  0
 12 13  1  0
 13 14  2  0
 14 15  1  0
 15 16  2  0
 10  4  1  0
 16 11  1  0
  5 17  1  0
  6 18  1  0
  9 19  1  0
 10 20  1  0
 12 21  1  0
 13 22  1  0
 14 23  1  0
 16 24  1  0
M  CHG  1   3  -1
M  END
>  <UniqueID>  (47) 
44

>  <SMILES>  (47) 
O=C([N-]c1ccc(Cl)cc1)c1cccnc1

>  <Energy>  (47) 
29.94391908542124

>  <Genealogy>  (47) 
O=C([N-]c1ccc(Cl)cc1)c1cccnc1 (protonated)
O=C([N-]c1ccc(Cl)cc1)c1cccnc1 (3D coordinates assigned)
O=C([N-]c1ccc(Cl)cc1)c1cccnc1 (optimized conformer: 29.94391908542124 kcal/mol)

>  <smiles>  (47) 
O=C(Nc1ccc(Cl)cc1)c1cccnc1

>  <score_type>  (47) 
oracle

>  <origin>  (47) 
adgpu

>  <m_score__min__energy>  (47) 
-7.9400000000000004

>  <m_primary>  (47) 
energy

$$$$
47:0
     RDKit          3D

 41 42  0  0  0  0  0  0  0  0999 V2000
   -6.3460   19.1070  -32.6560 C   0  0  0  0  0  0  0  0  0  0  0  0
   -5.0590   19.4360  -32.1430 O   0  0  0  0  0  0  0  0  0  0  0  0
   -4.6870   20.7120  -31.6980 C   0  0  0  0  0  0  0  0  0  0  0  0
   -3.3500   21.1450  -31.6790 C   0  0  0  0  0  0  0  0  0  0  0  0
   -3.0320   22.4300  -31.2360 C   0  0  0  0  0  0  0  0  0  0  0  0
   -4.0400   23.3160  -30.8240 C   0  0  0  0  0  0  0  0  0  0  0  0
   -3.6780   24.6760  -30.3690 C   0  0  0  0  0  0  0  0  0  0  0  0
   -4.2850   25.6650  -30.8590 O   0  0  0  0  0  0  0  0  0  0  0  0
   -2.6770   24.9160  -29.3670 N   0  0  0  0  0  0  0  0  0  0  0  0
   -1.7530   23.9430  -28.7840 C   0  0  0  0  0  0  0  0  0  0  0  0
   -2.2940   23.3630  -27.4710 C   0  0  0  0  0  0  0  0  0  0  0  0
   -1.6850   21.9980  -27.1300 C   0  0  0  0  0  0  0  0  0  0  0  0
   -2.3450   20.9330  -27.9210 N   0  0  0  0  0  0  0  0  0  0  0  0
   -1.4020   20.2530  -28.8290 C   0  0  0  0  0  0  0  0  0  0  0  0
   -0.3950   19.3720  -28.0520 C   0  0  0  0  0  0  0  0  0  0  0  0
   -0.8170   19.0720  -26.7320 O   0  0  0  0  0  0  0  0  0  0  0  0
   -2.1840   18.7260  -26.7220 C   0  0  0  0  0  0  0  0  0  0  0  0
   -3.0570   19.9510  -27.0680 C   0  0  0  0  0  0  0  0  0  0  0  0
   -5.3800   22.8680  -30.8040 C   0  0  0  0  0  0  0  0  0  0  0  0
   -6.8230   23.9790  -30.2020 Br  0  0  0  0  0  0  0  0  0  0  0  0
   -5.6900   21.5800  -31.2530 C   0  0  0  0  0  0  0  0  0  0  0  0
   -7.0394   18.9298  -31.8206 H   0  0  0  0  0  0  0  0  0  0  0  0
   -6.7188   19.9387  -33.2718 H   0  0  0  0  0  0  0  0  0  0  0  0
   -6.2740   18.1984  -33.2718 H   0  0  0  0  0  0  0  0  0  0  0  0
   -2.5505   20.4682  -32.0148 H   0  0  0  0  0  0  0  0  0  0  0  0
   -1.9804   22.7518  -31.2095 H   0  0  0  0  0  0  0  0  0  0  0  0
   -1.6009   23.1222  -29.5004 H   0  0  0  0  0  0  0  0  0  0  0  0
   -0.8053   24.4575  -28.5669 H   0  0  0  0  0  0  0  0  0  0  0  0
   -2.0637   24.0644  -26.6555 H   0  0  0  0  0  0  0  0  0  0  0  0
   -3.3780   23.2213  -27.5929 H   0  0  0  0  0  0  0  0  0  0  0  0
   -0.6101   22.0109  -27.3631 H   0  0  0  0  0  0  0  0  0  0  0  0
   -1.8338   21.7952  -26.0591 H   0  0  0  0  0  0  0  0  0  0  0  0
   -1.9710   19.6169  -29.5229 H   0  0  0  0  0  0  0  0  0  0  0  0
   -0.8355   21.0222  -29.3744 H   0  0  0  0  0  0  0  0  0  0  0  0
   -0.2619   18.4273  -28.5996 H   0  0  0  0  0  0  0  0  0  0  0  0
    0.5436   19.9402  -27.9737 H   0  0  0  0  0  0  0  0  0  0  0  0
   -2.3619   17.9340  -27.4644 H   0  0  0  0  0  0  0  0  0  0  0  0
   -2.4528   18.3718  -25.7159 H   0  0  0  0  0  0  0  0  0  0  0  0
   -3.9544   19.6052  -27.6020 H   0  0  0  0  0  0  0  0  0  0  0  0
   -3.3163   20.4538  -26.1246 H   0  0  0  0  0  0  0  0  0  0  0  0
   -6.7376   21.2447  -31.2563 H   0  0  0  0  0  0  0  0  0  0  0  0
  1  2  1  0
  2  3  1  0
  3  4  2  0
  4  5  1  0
  5  6  2  0
  6  7  1  0
  7  8  2  0
  7  9  1  0
  9 10  1  0
 10 11  1  0
 11 12  1  0
 12 13  1  0
 13 14  1  0
 14 15  1  0
 15 16  1  0
 16 17  1  0
 17 18  1  0
  6 19  1  0
 19 20  1  0
 19 21  2  0
 21  3  1  0
 18 13  1  0
  1 22  1  0
  1 23  1  0
  1 24  1  0
  4 25  1  0
  5 26  1  0
 10 27  1  0
 10 28  1  0
 11 29  1  0
 11 30  1  0
 12 31  1  0
 12 32  1  0
 14 33  1  0
 14 34  1  0
 15 35  1  0
 15 36  1  0
 17 37  1  0
 17 38  1  0
 18 39  1  0
 18 40  1  0
 21 41  1  0
M  CHG  1   9  -1
M  END
>  <UniqueID>  (48) 
45

>  <SMILES>  (48) 
COc1ccc(C(=O)[N-]CCCN2CCOCC2)c(Br)c1

>  <Energy>  (48) 
52.79684486273275

>  <Genealogy>  (48) 
COc1ccc(C(=O)[N-]CCCN2CCOCC2)c(Br)c1 (protonated)
COc1ccc(C(=O)[N-]CCCN2CCOCC2)c(Br)c1 (3D coordinates assigned)
COc1ccc(C(=O)[N-]CCCN2CCOCC2)c(Br)c1 (nonaromatic ring conformer: 52.79684486273275 kcal/mol)

>  <smiles>  (48) 
COc1ccc(C(=O)NCCCN2CCOCC2)c(Br)c1

>  <score_type>  (48) 
oracle

>  <origin>  (48) 
adgpu

>  <m_score__min__energy>  (48) 
-8.5600000000000005

>  <m_primary>  (48) 
energy

$$$$
