0:0
     RDKit          3D

 26 27  0  0  0  0  0  0  0  0999 V2000
   -7.6774   25.3477  -29.9340 H   0  0  0  0  0  0  0  0  0  0  0  0
   -6.8130   24.7710  -30.2950 C   0  0  0  0  0  0  0  0  0  0  0  0
   -5.5180   25.1870  -29.9800 C   0  0  0  0  0  0  0  0  0  0  0  0
   -5.3685   26.0909  -29.3712 H   0  0  0  0  0  0  0  0  0  0  0  0
   -4.4090   24.4640  -30.4320 C   0  0  0  0  0  0  0  0  0  0  0  0
   -3.1300   24.9240  -30.0890 O   0  0  0  0  0  0  0  0  0  0  0  0
   -2.1910   24.1880  -29.3130 C   0  0  0  0  0  0  0  0  0  0  0  0
   -2.3941   24.3472  -28.2437 H   0  0  0  0  0  0  0  0  0  0  0  0
   -2.2806   23.1171  -29.5478 H   0  0  0  0  0  0  0  0  0  0  0  0
   -1.1725   24.5308  -29.5478 H   0  0  0  0  0  0  0  0  0  0  0  0
   -4.6150   23.3070  -31.2120 C   0  0  0  0  0  0  0  0  0  0  0  0
   -3.7500   22.7315  -31.5733 H   0  0  0  0  0  0  0  0  0  0  0  0
   -5.9150   22.8840  -31.5310 C   0  0  0  0  0  0  0  0  0  0  0  0
   -6.1210   21.6700  -32.3480 C   0  0  0  0  0  0  0  0  0  0  0  0
   -7.3310   21.1970  -32.7210 N   0  0  0  0  0  0  0  0  0  0  0  0
   -7.0870   20.1100  -33.4320 N   0  0  0  0  0  0  0  0  0  0  0  0
   -7.8220   19.5080  -33.8680 H   0  0  0  0  0  0  0  0  0  0  0  0
   -5.7510   19.9570  -33.4690 C   0  0  0  0  0  0  0  0  0  0  0  0
   -5.1230   18.9960  -34.0770 N   0  0  0  0  0  0  0  0  0  0  0  0
   -5.7870   17.9300  -34.8190 C   0  0  0  0  0  0  0  0  0  0  0  0
   -6.2328   17.2143  -34.1126 H   0  0  0  0  0  0  0  0  0  0  0  0
   -6.5768   18.3608  -35.4520 H   0  0  0  0  0  0  0  0  0  0  0  0
   -5.0521   17.4111  -35.4520 H   0  0  0  0  0  0  0  0  0  0  0  0
   -5.1470   20.9100  -32.8050 O   0  0  0  0  0  0  0  0  0  0  0  0
   -7.0140   23.6250  -31.0670 C   0  0  0  0  0  0  0  0  0  0  0  0
   -8.0363   23.3016  -31.3125 H   0  0  0  0  0  0  0  0  0  0  0  0
  1  2  1  0
  2  3  2  0
  3  4  1  0
  3  5  1  0
  5  6  1  0
  6  7  1  0
  7  8  1  0
  7  9  1  0
  7 10  1  0
  5 11  2  0
 11 12  1  0
 11 13  1  0
 13 14  1  0
 14 15  2  0
 15 16  1  0
 16 17  1  0
 16 18  1  0
 18 19  2  0
 19 20  1  0
 20 21  1  0
 20 22  1  0
 20 23  1  0
 18 24  1  0
 13 25  2  0
 25 26  1  0
 25  2  1  0
 24 14  1  0
M  END
>  <UniqueID>  (1) 
1

>  <SMILES>  (1) 
C/N=c1\[nH]nc(-c2cccc(OC)c2)o1

>  <Energy>  (1) 
60.96081209506473

>  <Genealogy>  (1) 
C/N=c1\[nH]nc(-c2cccc(OC)c2)o1 (cis-trans isomerization)
C/N=c1\[nH]nc(-c2cccc(OC)c2)o1 (3D coordinates assigned)
C/N=c1\[nH]nc(-c2cccc(OC)c2)o1 (optimized conformer: 60.96081209506473 kcal/mol)

>  <smiles>  (1) 
CN=c1[nH]nc(-c2cccc(OC)c2)o1

>  <score_type>  (1) 
oracle

>  <origin>  (1) 
adgpu

>  <m_score__min__energy>  (1) 
-6.3399999999999999

>  <m_primary>  (1) 
energy

$$$$
1:0
     RDKit          3D

 39 40  0  0  0  0  0  0  0  0999 V2000
   -3.0970   18.9020  -26.0100 C   0  0  0  0  0  0  0  0  0  0  0  0
   -2.2430   19.3070  -27.2160 C   0  0  0  0  0  0  0  0  0  0  0  0
   -0.9560   18.4830  -27.3370 C   0  0  0  0  0  0  0  0  0  0  0  0
   -1.9840   20.7590  -27.2380 N   0  0  0  0  0  0  0  0  0  0  0  0
   -1.2320   21.3920  -26.3180 C   0  0  0  0  0  0  0  0  0  0  0  0
   -1.1150   22.7120  -26.6720 C   0  0  0  0  0  0  0  0  0  0  0  0
   -1.7830   22.9250  -27.8180 N   0  0  0  0  0  0  0  0  0  0  0  0
   -2.3140   21.7260  -28.1400 C   0  0  0  0  0  0  0  0  0  0  0  0
   -3.1200   21.5370  -29.4100 C   0  0  0  0  0  0  0  0  0  0  0  0
   -2.8150   22.5230  -30.4760 N   0  0  1  0  0  0  0  0  0  0  0  0
   -2.2570   21.8960  -31.6880 C   0  0  0  0  0  0  0  0  0  0  0  0
   -3.9630   23.3610  -30.7780 C   0  0  0  0  0  0  0  0  0  0  0  0
   -3.8410   24.6170  -30.8290 O   0  0  0  0  0  0  0  0  0  0  0  0
   -5.2830   22.7590  -31.0810 C   0  0  0  0  0  0  0  0  0  0  0  0
   -5.3510   21.5460  -31.7910 C   0  0  0  0  0  0  0  0  0  0  0  0
   -6.5850   20.9570  -32.0770 C   0  0  0  0  0  0  0  0  0  0  0  0
   -7.7670   21.5680  -31.6560 C   0  0  0  0  0  0  0  0  0  0  0  0
   -9.3160   20.8260  -32.0170 Cl  0  0  0  0  0  0  0  0  0  0  0  0
   -7.7160   22.7690  -30.9440 C   0  0  0  0  0  0  0  0  0  0  0  0
   -6.4860   23.3680  -30.6510 C   0  0  0  0  0  0  0  0  0  0  0  0
   -6.4970   24.9010  -29.7850 Cl  0  0  0  0  0  0  0  0  0  0  0  0
   -2.5638   19.1549  -25.0817 H   0  0  0  0  0  0  0  0  0  0  0  0
   -4.0550   19.4417  -26.0413 H   0  0  0  0  0  0  0  0  0  0  0  0
   -3.2853   17.8187  -26.0413 H   0  0  0  0  0  0  0  0  0  0  0  0
   -2.8350   19.0710  -28.1125 H   0  0  0  0  0  0  0  0  0  0  0  0
   -0.5792   18.2418  -26.3321 H   0  0  0  0  0  0  0  0  0  0  0  0
   -1.1669   17.5516  -27.8829 H   0  0  0  0  0  0  0  0  0  0  0  0
   -0.1984   19.0644  -27.8829 H   0  0  0  0  0  0  0  0  0  0  0  0
   -0.7844   20.9265  -25.4275 H   0  0  0  0  0  0  0  0  0  0  0  0
   -0.5613   23.4760  -26.1065 H   0  0  0  0  0  0  0  0  0  0  0  0
   -2.9146   20.5301  -29.8023 H   0  0  0  0  0  0  0  0  0  0  0  0
   -4.1762   21.6812  -29.1386 H   0  0  0  0  0  0  0  0  0  0  0  0
   -2.0550   23.1370  -30.1000 H   0  0  0  0  0  0  0  0  0  0  0  0
   -1.5514   21.1032  -31.3990 H   0  0  0  0  0  0  0  0  0  0  0  0
   -3.0726   21.4614  -32.2847 H   0  0  0  0  0  0  0  0  0  0  0  0
   -1.7307   22.6556  -32.2847 H   0  0  0  0  0  0  0  0  0  0  0  0
   -4.4237   21.0569  -32.1240 H   0  0  0  0  0  0  0  0  0  0  0  0
   -6.6251   20.0099  -32.6350 H   0  0  0  0  0  0  0  0  0  0  0  0
   -8.6493   23.2469  -30.6115 H   0  0  0  0  0  0  0  0  0  0  0  0
  1  2  1  0
  2  3  1  0
  2  4  1  0
  4  5  1  0
  5  6  2  0
  6  7  1  0
  7  8  2  0
  8  9  1  0
  9 10  1  0
 10 11  1  0
 10 12  1  0
 12 13  2  0
 12 14  1  0
 14 15  2  0
 15 16  1  0
 16 17  2  0
 17 18  1  0
 17 19  1  0
 19 20  2  0
 20 21  1  0
  8  4  1  0
 20 14  1  0
  1 22  1  0
  1 23  1  0
  1 24  1  0
  2 25  1  0
  3 26  1  0
  3 27  1  0
  3 28  1  0
  5 29  1  0
  6 30  1  0
  9 31  1  0
  9 32  1  0
 10 33  1  1
 11 34  1  0
 11 35  1  0
 11 36  1  0
 15 37  1  0
 16 38  1  0
 19 39  1  0
M  CHG  1  10   1
M  END
>  <UniqueID>  (2) 
2

>  <SMILES>  (2) 
CC(C)n1ccnc1C[N@@H+](C)C(=O)c1ccc(Cl)cc1Cl

>  <Energy>  (2) 
78.60037338558352

>  <Genealogy>  (2) 
CC(C)n1ccnc1C[NH+](C)C(=O)c1ccc(Cl)cc1Cl (protonated)
CC(C)n1ccnc1C[N@@H+](C)C(=O)c1ccc(Cl)cc1Cl (chirality)
CC(C)n1ccnc1C[N@@H+](C)C(=O)c1ccc(Cl)cc1Cl (3D coordinates assigned)
CC(C)n1ccnc1C[N@@H+](C)C(=O)c1ccc(Cl)cc1Cl (optimized conformer: 78.60037338558352 kcal/mol)

>  <smiles>  (2) 
CC(C)n1ccnc1CN(C)C(=O)c1ccc(Cl)cc1Cl

>  <score_type>  (2) 
oracle

>  <origin>  (2) 
adgpu

>  <m_score__min__energy>  (2) 
-6.7300000000000004

>  <m_primary>  (2) 
energy

$$$$
2:0
     RDKit          3D

 36 37  0  0  0  0  0  0  0  0999 V2000
   -2.2970   24.8960  -28.6230 C   0  0  0  0  0  0  0  0  0  0  0  0
   -3.1300   25.2950  -29.7070 O   0  0  0  0  0  0  0  0  0  0  0  0
   -4.1520   24.5060  -30.2530 C   0  0  0  0  0  0  0  0  0  0  0  0
   -5.3880   25.0440  -30.6570 C   0  0  0  0  0  0  0  0  0  0  0  0
   -6.3770   24.2140  -31.1950 C   0  0  0  0  0  0  0  0  0  0  0  0
   -6.1540   22.8310  -31.3290 C   0  0  0  0  0  0  0  0  0  0  0  0
   -7.1870   21.9440  -31.9150 C   0  0  0  0  0  0  0  0  0  0  0  0
   -8.3870   22.3330  -31.9280 O   0  0  0  0  0  0  0  0  0  0  0  0
   -6.8610   20.6140  -32.4850 C   0  0  0  0  0  0  0  0  0  0  0  0
   -7.5420   19.4600  -32.0670 C   0  0  0  0  0  0  0  0  0  0  0  0
   -7.2150   18.2100  -32.5990 C   0  0  0  0  0  0  0  0  0  0  0  0
   -6.1890   18.0760  -33.5560 C   0  0  0  0  0  0  0  0  0  0  0  0
   -5.8500   16.7780  -34.1100 N   0  0  0  0  0  0  0  0  0  0  0  0
   -4.4930   16.5050  -34.6000 C   0  0  0  0  0  0  0  0  0  0  0  0
   -6.8590   15.7140  -34.1900 C   0  0  0  0  0  0  0  0  0  0  0  0
   -5.4980   19.2390  -33.9570 C   0  0  0  0  0  0  0  0  0  0  0  0
   -5.8270   20.4870  -33.4240 C   0  0  0  0  0  0  0  0  0  0  0  0
   -4.9120   22.3030  -30.9400 C   0  0  0  0  0  0  0  0  0  0  0  0
   -3.9250   23.1330  -30.4020 C   0  0  0  0  0  0  0  0  0  0  0  0
   -2.7945   25.1343  -27.6713 H   0  0  0  0  0  0  0  0  0  0  0  0
   -2.1145   23.8127  -28.6802 H   0  0  0  0  0  0  0  0  0  0  0  0
   -1.3386   25.4328  -28.6802 H   0  0  0  0  0  0  0  0  0  0  0  0
   -5.5772   26.1222  -30.5492 H   0  0  0  0  0  0  0  0  0  0  0  0
   -7.3365   24.6457  -31.5158 H   0  0  0  0  0  0  0  0  0  0  0  0
   -8.3400   19.5404  -31.3141 H   0  0  0  0  0  0  0  0  0  0  0  0
   -7.7661   17.3180  -32.2662 H   0  0  0  0  0  0  0  0  0  0  0  0
   -3.8149   16.3686  -33.7447 H   0  0  0  0  0  0  0  0  0  0  0  0
   -4.5009   15.5905  -35.2112 H   0  0  0  0  0  0  0  0  0  0  0  0
   -4.1466   17.3515  -35.2112 H   0  0  0  0  0  0  0  0  0  0  0  0
   -7.1498   15.4073  -33.1744 H   0  0  0  0  0  0  0  0  0  0  0  0
   -7.7432   16.0868  -34.7277 H   0  0  0  0  0  0  0  0  0  0  0  0
   -6.4398   14.8508  -34.7277 H   0  0  0  0  0  0  0  0  0  0  0  0
   -4.6897   19.1616  -34.6991 H   0  0  0  0  0  0  0  0  0  0  0  0
   -5.2695   21.3797  -33.7439 H   0  0  0  0  0  0  0  0  0  0  0  0
   -4.7147   21.2275  -31.0598 H   0  0  0  0  0  0  0  0  0  0  0  0
   -2.9608   22.7033  -30.0927 H   0  0  0  0  0  0  0  0  0  0  0  0
  1  2  1  0
  2  3  1  0
  3  4  2  0
  4  5  1  0
  5  6  2  0
  6  7  1  0
  7  8  2  0
  7  9  1  0
  9 10  2  0
 10 11  1  0
 11 12  2  0
 12 13  1  0
 13 14  1  0
 13 15  1  0
 12 16  1  0
 16 17  2  0
  6 18  1  0
 18 19  2  0
 19  3  1  0
 17  9  1  0
  1 20  1  0
  1 21  1  0
  1 22  1  0
  4 23  1  0
  5 24  1  0
 10 25  1  0
 11 26  1  0
 14 27  1  0
 14 28  1  0
 14 29  1  0
 15 30  1  0
 15 31  1  0
 15 32  1  0
 16 33  1  0
 17 34  1  0
 18 35  1  0
 19 36  1  0
M  END
>  <UniqueID>  (3) 
3

>  <SMILES>  (3) 
COc1ccc(C(=O)c2ccc(N(C)C)cc2)cc1

>  <Energy>  (3) 
43.26765640809607

>  <Genealogy>  (3) 
COc1ccc(C(=O)c2ccc(N(C)C)cc2)cc1 (3D coordinates assigned)
COc1ccc(C(=O)c2ccc(N(C)C)cc2)cc1 (optimized conformer: 43.26765640809607 kcal/mol)

>  <smiles>  (3) 
COc1ccc(C(=O)c2ccc(N(C)C)cc2)cc1

>  <score_type>  (3) 
oracle

>  <origin>  (3) 
adgpu

>  <m_score__min__energy>  (3) 
-7.4900000000000002

>  <m_primary>  (3) 
energy

$$$$
3:0
     RDKit          3D

 32 34  0  0  0  0  0  0  0  0999 V2000
   -6.5880   13.6550  -34.4320 C   0  0  0  0  0  0  0  0  0  0  0  0
   -7.1710   14.9250  -34.7070 O   0  0  0  0  0  0  0  0  0  0  0  0
   -6.6720   16.1450  -34.2270 C   0  0  0  0  0  0  0  0  0  0  0  0
   -5.6240   16.8360  -34.8620 C   0  0  0  0  0  0  0  0  0  0  0  0
   -5.1620   18.0500  -34.3440 C   0  0  0  0  0  0  0  0  0  0  0  0
   -5.7420   18.5970  -33.1870 C   0  0  0  0  0  0  0  0  0  0  0  0
   -5.2490   19.8820  -32.6290 C   0  0  0  0  0  0  0  0  0  0  0  0
   -3.8840   20.0440  -32.3460 C   0  0  0  0  0  0  0  0  0  0  0  0
   -3.4190   21.1860  -31.8520 O   0  0  0  0  0  0  0  0  0  0  0  0
   -4.2020   22.2290  -31.5970 C   0  0  0  0  0  0  0  0  0  0  0  0
   -3.6440   23.4030  -31.0800 C   0  0  0  0  0  0  0  0  0  0  0  0
   -4.4550   24.5090  -30.8050 C   0  0  0  0  0  0  0  0  0  0  0  0
   -3.8830   25.6690  -30.2900 O   0  0  0  0  0  0  0  0  0  0  0  0
   -5.8340   24.4400  -31.0490 C   0  0  0  0  0  0  0  0  0  0  0  0
   -6.4020   23.2730  -31.5670 C   0  0  0  0  0  0  0  0  0  0  0  0
   -5.5920   22.1570  -31.8470 C   0  0  0  0  0  0  0  0  0  0  0  0
   -6.1160   20.9600  -32.3650 C   0  0  0  0  0  0  0  0  0  0  0  0
   -7.3560   20.8460  -32.5710 O   0  0  0  0  0  0  0  0  0  0  0  0
   -6.7830   17.9010  -32.5510 C   0  0  0  0  0  0  0  0  0  0  0  0
   -7.2440   16.6880  -33.0700 C   0  0  0  0  0  0  0  0  0  0  0  0
   -6.5215   13.5100  -33.3436 H   0  0  0  0  0  0  0  0  0  0  0  0
   -7.2124   12.8623  -34.8700 H   0  0  0  0  0  0  0  0  0  0  0  0
   -5.5799   13.6117  -34.8700 H   0  0  0  0  0  0  0  0  0  0  0  0
   -5.1655   16.4191  -35.7708 H   0  0  0  0  0  0  0  0  0  0  0  0
   -4.3391   18.5802  -34.8456 H   0  0  0  0  0  0  0  0  0  0  0  0
   -3.1889   19.2129  -32.5361 H   0  0  0  0  0  0  0  0  0  0  0  0
   -2.5621   23.4567  -30.8888 H   0  0  0  0  0  0  0  0  0  0  0  0
   -3.8630   26.5320  -30.8220 H   0  0  0  0  0  0  0  0  0  0  0  0
   -6.4722   25.3091  -30.8315 H   0  0  0  0  0  0  0  0  0  0  0  0
   -7.4846   23.2267  -31.7563 H   0  0  0  0  0  0  0  0  0  0  0  0
   -7.2384   18.3133  -31.6385 H   0  0  0  0  0  0  0  0  0  0  0  0
   -8.0633   16.1552  -32.5652 H   0  0  0  0  0  0  0  0  0  0  0  0
  1  2  1  0
  2  3  1  0
  3  4  2  0
  4  5  1  0
  5  6  2  0
  6  7  1  0
  7  8  2  0
  8  9  1  0
  9 10  1  0
 10 11  2  0
 11 12  1  0
 12 13  1  0
 12 14  2  0
 14 15  1  0
 15 16  2  0
 16 17  1  0
 17 18  2  0
  6 19  1  0
 19 20  2  0
 20  3  1  0
 17  7  1  0
 16 10  1  0
  1 21  1  0
  1 22  1  0
  1 23  1  0
  4 24  1  0
  5 25  1  0
  8 26  1  0
 11 27  1  0
 13 28  1  0
 14 29  1  0
 15 30  1  0
 19 31  1  0
 20 32  1  0
M  END
>  <UniqueID>  (4) 
4

>  <SMILES>  (4) 
COc1ccc(-c2coc3cc(O)ccc3c2=O)cc1

>  <Energy>  (4) 
45.953792714457805

>  <Genealogy>  (4) 
COc1ccc(-c2coc3cc(O)ccc3c2=O)cc1 (3D coordinates assigned)
COc1ccc(-c2coc3cc(O)ccc3c2=O)cc1 (optimized conformer: 45.953792714457805 kcal/mol)

>  <smiles>  (4) 
COc1ccc(-c2coc3cc(O)ccc3c2=O)cc1

>  <score_type>  (4) 
oracle

>  <origin>  (4) 
adgpu

>  <m_score__min__energy>  (4) 
-7.25

>  <m_primary>  (4) 
energy

$$$$
4:0
     RDKit          3D

 42 43  0  0  0  0  0  0  0  0999 V2000
   -0.2660   25.1280  -26.8140 C   0  0  0  0  0  0  0  0  0  0  0  0
   -1.3380   24.4700  -27.6350 C   0  0  0  0  0  0  0  0  0  0  0  0
   -1.6820   23.1340  -27.3860 C   0  0  0  0  0  0  0  0  0  0  0  0
   -2.6710   22.5010  -28.1530 C   0  0  0  0  0  0  0  0  0  0  0  0
   -3.0770   21.0900  -27.8450 C   0  0  0  0  0  0  0  0  0  0  0  0
   -3.3300   23.2210  -29.1600 C   0  0  0  0  0  0  0  0  0  0  0  0
   -2.9720   24.5440  -29.4420 C   0  0  0  0  0  0  0  0  0  0  0  0
   -3.6860   25.2450  -30.4710 N   0  0  0  0  0  0  0  0  0  0  0  0
   -5.1100   25.2830  -30.6340 C   0  0  0  0  0  0  0  0  0  0  0  0
   -5.8010   26.1480  -30.0310 O   0  0  0  0  0  0  0  0  0  0  0  0
   -5.7760   24.3430  -31.5900 C   0  0  0  0  0  0  0  0  0  0  0  0
   -4.6860   22.9490  -32.0430 S   0  0  0  0  0  0  0  0  0  0  0  0
   -6.0040   21.7390  -32.1410 C   0  0  0  0  0  0  0  0  0  0  0  0
   -5.7810   20.5350  -32.7200 N   0  0  0  0  0  0  0  0  0  0  0  0
   -6.7640   19.6010  -32.8150 C   0  0  0  0  0  0  0  0  0  0  0  0
   -6.4400   18.2970  -33.4850 C   0  0  0  0  0  0  0  0  0  0  0  0
   -8.0440   19.8720  -32.2750 C   0  0  0  0  0  0  0  0  0  0  0  0
   -9.1650   18.8630  -32.3820 C   0  0  0  0  0  0  0  0  0  0  0  0
   -8.2560   21.1490  -31.7030 C   0  0  0  0  0  0  0  0  0  0  0  0
   -9.5830   21.5640  -31.1380 C   0  0  0  0  0  0  0  0  0  0  0  0
   -7.2280   22.0360  -31.6430 N   0  0  0  0  0  0  0  0  0  0  0  0
   -1.9790   25.1700  -28.6680 C   0  0  0  0  0  0  0  0  0  0  0  0
   -0.4874   24.9921  -25.7451 H   0  0  0  0  0  0  0  0  0  0  0  0
    0.7071   24.6714  -27.0478 H   0  0  0  0  0  0  0  0  0  0  0  0
   -0.2326   26.2023  -27.0478 H   0  0  0  0  0  0  0  0  0  0  0  0
   -1.1732   22.5788  -26.5842 H   0  0  0  0  0  0  0  0  0  0  0  0
   -3.1174   20.9498  -26.7547 H   0  0  0  0  0  0  0  0  0  0  0  0
   -4.0688   20.8912  -28.2772 H   0  0  0  0  0  0  0  0  0  0  0  0
   -2.3425   20.3945  -28.2772 H   0  0  0  0  0  0  0  0  0  0  0  0
   -4.1364   22.7409  -29.7339 H   0  0  0  0  0  0  0  0  0  0  0  0
   -6.6872   23.9442  -31.1203 H   0  0  0  0  0  0  0  0  0  0  0  0
   -6.0152   24.9014  -32.5071 H   0  0  0  0  0  0  0  0  0  0  0  0
   -6.2493   17.5294  -32.7205 H   0  0  0  0  0  0  0  0  0  0  0  0
   -7.2883   17.9865  -34.1127 H   0  0  0  0  0  0  0  0  0  0  0  0
   -5.5450   18.4197  -34.1127 H   0  0  0  0  0  0  0  0  0  0  0  0
   -9.4914   18.5692  -31.3735 H   0  0  0  0  0  0  0  0  0  0  0  0
  -10.0104   19.3104  -32.9252 H   0  0  0  0  0  0  0  0  0  0  0  0
   -8.8087   17.9753  -32.9252 H   0  0  0  0  0  0  0  0  0  0  0  0
   -9.5346   21.5489  -30.0392 H   0  0  0  0  0  0  0  0  0  0  0  0
   -9.8254   22.5809  -31.4804 H   0  0  0  0  0  0  0  0  0  0  0  0
  -10.3616   20.8665  -31.4804 H   0  0  0  0  0  0  0  0  0  0  0  0
   -1.7031   26.2148  -28.8737 H   0  0  0  0  0  0  0  0  0  0  0  0
  1  2  1  0
  2  3  2  0
  3  4  1  0
  4  5  1  0
  4  6  2  0
  6  7  1  0
  7  8  1  0
  8  9  1  0
  9 10  2  0
  9 11  1  0
 11 12  1  0
 12 13  1  0
 13 14  2  0
 14 15  1  0
 15 16  1  0
 15 17  2  0
 17 18  1  0
 17 19  1  0
 19 20  1  0
 19 21  2  0
  7 22  2  0
 22  2  1  0
 21 13  1  0
  1 23  1  0
  1 24  1  0
  1 25  1  0
  3 26  1  0
  5 27  1  0
  5 28  1  0
  5 29  1  0
  6 30  1  0
 11 31  1  0
 11 32  1  0
 16 33  1  0
 16 34  1  0
 16 35  1  0
 18 36  1  0
 18 37  1  0
 18 38  1  0
 20 39  1  0
 20 40  1  0
 20 41  1  0
 22 42  1  0
M  CHG  1   8  -1
M  END
>  <UniqueID>  (5) 
5

>  <SMILES>  (5) 
Cc1cc(C)cc([N-]C(=O)CSc2nc(C)c(C)c(C)n2)c1

>  <Energy>  (5) 
37.74055775803747

>  <Genealogy>  (5) 
Cc1cc(C)cc([N-]C(=O)CSc2nc(C)c(C)c(C)n2)c1 (protonated)
Cc1cc(C)cc([N-]C(=O)CSc2nc(C)c(C)c(C)n2)c1 (3D coordinates assigned)
Cc1cc(C)cc([N-]C(=O)CSc2nc(C)c(C)c(C)n2)c1 (optimized conformer: 37.74055775803747 kcal/mol)

>  <smiles>  (5) 
Cc1cc(C)cc(NC(=O)CSc2nc(C)c(C)c(C)n2)c1

>  <score_type>  (5) 
oracle

>  <origin>  (5) 
adgpu

>  <m_score__min__energy>  (5) 
-10.01

>  <m_primary>  (5) 
energy

$$$$
5:0
     RDKit          3D

 34 36  0  0  0  0  0  0  0  0999 V2000
   -4.3830   21.2330  -29.3490 H   0  0  0  0  0  0  0  0  0  0  0  0
   -3.7580   22.0650  -29.2810 N   0  0  0  0  0  0  0  0  0  0  0  0
   -3.9990   23.1810  -29.8970 C   0  0  0  0  0  0  0  0  0  0  0  0
   -5.1050   23.4650  -30.6820 C   0  0  0  0  0  0  0  0  0  0  0  0
   -6.1930   22.5710  -31.1350 C   0  0  0  0  0  0  0  0  0  0  0  0
   -7.5060   22.7790  -30.6840 C   0  0  0  0  0  0  0  0  0  0  0  0
   -7.7198   23.5997  -29.9835 H   0  0  0  0  0  0  0  0  0  0  0  0
   -8.5440   21.9490  -31.1200 C   0  0  0  0  0  0  0  0  0  0  0  0
   -9.5674   22.1125  -30.7513 H   0  0  0  0  0  0  0  0  0  0  0  0
   -8.2850   20.9060  -32.0280 C   0  0  0  0  0  0  0  0  0  0  0  0
   -9.2910   20.0460  -32.4950 O   0  0  0  0  0  0  0  0  0  0  0  0
   -9.2930   18.6350  -32.3060 C   0  0  0  0  0  0  0  0  0  0  0  0
   -9.2933   18.4093  -31.2294 H   0  0  0  0  0  0  0  0  0  0  0  0
  -10.1918   18.2040  -32.7713 H   0  0  0  0  0  0  0  0  0  0  0  0
   -8.3955   18.2015  -32.7713 H   0  0  0  0  0  0  0  0  0  0  0  0
   -6.9780   20.7130  -32.4910 C   0  0  0  0  0  0  0  0  0  0  0  0
   -6.7663   19.9038  -33.2054 H   0  0  0  0  0  0  0  0  0  0  0  0
   -5.9400   21.5400  -32.0530 C   0  0  0  0  0  0  0  0  0  0  0  0
   -4.9188   21.3819  -32.4300 H   0  0  0  0  0  0  0  0  0  0  0  0
   -4.9830   24.8160  -30.9590 C   0  0  0  0  0  0  0  0  0  0  0  0
   -5.6930   25.4073  -31.5559 H   0  0  0  0  0  0  0  0  0  0  0  0
   -3.8600   25.2970  -30.3850 N   0  0  0  0  0  0  0  0  0  0  0  0
   -3.2580   24.3020  -29.7500 N   0  0  0  0  0  0  0  0  0  0  0  0
   -2.0410   24.4690  -28.9960 C   0  0  0  0  0  0  0  0  0  0  0  0
   -1.9820   25.3420  -27.8940 C   0  0  0  0  0  0  0  0  0  0  0  0
   -2.8731   25.9184  -27.6047 H   0  0  0  0  0  0  0  0  0  0  0  0
   -0.7980   25.4810  -27.1650 C   0  0  0  0  0  0  0  0  0  0  0  0
   -0.7582   26.1707  -26.3090 H   0  0  0  0  0  0  0  0  0  0  0  0
    0.3350   24.7460  -27.5210 C   0  0  0  0  0  0  0  0  0  0  0  0
    1.2677   24.8612  -26.9494 H   0  0  0  0  0  0  0  0  0  0  0  0
    0.2830   23.8640  -28.6040 C   0  0  0  0  0  0  0  0  0  0  0  0
    1.1740   23.2819  -28.8820 H   0  0  0  0  0  0  0  0  0  0  0  0
   -0.9000   23.7210  -29.3340 C   0  0  0  0  0  0  0  0  0  0  0  0
   -0.9385   23.0180  -30.1792 H   0  0  0  0  0  0  0  0  0  0  0  0
  1  2  1  0
  2  3  2  0
  3  4  1  0
  4  5  1  0
  5  6  2  0
  6  7  1  0
  6  8  1  0
  8  9  1  0
  8 10  2  0
 10 11  1  0
 11 12  1  0
 12 13  1  0
 12 14  1  0
 12 15  1  0
 10 16  1  0
 16 17  1  0
 16 18  2  0
 18 19  1  0
  4 20  2  0
 20 21  1  0
 20 22  1  0
 22 23  1  0
 23 24  1  0
 24 25  2  0
 25 26  1  0
 25 27  1  0
 27 28  1  0
 27 29  2  0
 29 30  1  0
 29 31  1  0
 31 32  1  0
 31 33  2  0
 33 34  1  0
 23  3  1  0
 33 24  1  0
 18  5  1  0
M  CHG  1  22  -1
M  END
>  <UniqueID>  (6) 
6

>  <SMILES>  (6) 
[H]/N=c1\c(-c2ccc(OC)cc2)c[n-]n1-c1ccccc1

>  <Energy>  (6) 
78.21852574381128

>  <Genealogy>  (6) 
COc1ccc(-c2c[n-]n(-c3ccccc3)c2=N)cc1 (protonated)
[H]/N=c1\c(-c2ccc(OC)cc2)c[n-]n1-c1ccccc1 (cis-trans isomerization)
[H]/N=c1\c(-c2ccc(OC)cc2)c[n-]n1-c1ccccc1 (3D coordinates assigned)
[H]/N=c1\c(-c2ccc(OC)cc2)c[n-]n1-c1ccccc1 (optimized conformer: 78.21852574381128 kcal/mol)

>  <smiles>  (6) 
COc1ccc(-c2c[nH]n(-c3ccccc3)c2=N)cc1

>  <score_type>  (6) 
oracle

>  <origin>  (6) 
adgpu

>  <m_score__min__energy>  (6) 
-8.4700000000000006

>  <m_primary>  (6) 
energy

$$$$
6:0
     RDKit          3D

 32 34  0  0  0  0  0  0  0  0999 V2000
   -6.2370   25.2280  -29.6300 C   0  0  0  0  0  0  0  0  0  0  0  0
   -5.3570   24.3890  -30.4410 N   0  0  0  0  0  0  0  0  0  0  0  0
   -5.6690   23.7250  -31.5740 C   0  0  0  0  0  0  0  0  0  0  0  0
   -7.2770   23.7360  -32.3740 S   0  0  0  0  0  0  0  0  0  0  0  0
   -8.0170   22.5040  -31.2450 C   0  0  0  0  0  0  0  0  0  0  0  0
   -7.8670   21.1120  -31.7950 C   0  0  0  0  0  0  0  0  0  0  0  0
   -8.7330   20.0860  -31.3800 C   0  0  0  0  0  0  0  0  0  0  0  0
   -8.5710   18.7870  -31.8740 C   0  0  0  0  0  0  0  0  0  0  0  0
   -7.5460   18.5050  -32.7810 C   0  0  0  0  0  0  0  0  0  0  0  0
   -6.6790   19.5210  -33.1950 C   0  0  0  0  0  0  0  0  0  0  0  0
   -6.8370   20.8200  -32.7020 C   0  0  0  0  0  0  0  0  0  0  0  0
   -4.6200   23.0300  -32.0480 N   0  0  0  0  0  0  0  0  0  0  0  0
   -3.6110   23.2430  -31.2150 N   0  0  0  0  0  0  0  0  0  0  0  0
   -4.0560   24.0710  -30.2500 C   0  0  0  0  0  0  0  0  0  0  0  0
   -3.1850   24.5170  -29.1430 C   0  0  0  0  0  0  0  0  0  0  0  0
   -3.3130   24.2430  -27.7920 C   0  0  0  0  0  0  0  0  0  0  0  0
   -2.2730   24.9020  -27.1760 C   0  0  0  0  0  0  0  0  0  0  0  0
   -1.5760   25.5420  -28.1780 C   0  0  0  0  0  0  0  0  0  0  0  0
   -2.1460   25.2970  -29.3350 O   0  0  0  0  0  0  0  0  0  0  0  0
   -6.0413   25.0414  -28.5638 H   0  0  0  0  0  0  0  0  0  0  0  0
   -6.0463   26.2871  -29.8579 H   0  0  0  0  0  0  0  0  0  0  0  0
   -7.2858   24.9870  -29.8579 H   0  0  0  0  0  0  0  0  0  0  0  0
   -7.5129   22.5617  -30.2690 H   0  0  0  0  0  0  0  0  0  0  0  0
   -9.0892   22.7254  -31.1380 H   0  0  0  0  0  0  0  0  0  0  0  0
   -9.5400   20.3046  -30.6652 H   0  0  0  0  0  0  0  0  0  0  0  0
   -9.2515   17.9866  -31.5480 H   0  0  0  0  0  0  0  0  0  0  0  0
   -7.4211   17.4835  -33.1694 H   0  0  0  0  0  0  0  0  0  0  0  0
   -5.8723   19.2983  -33.9089 H   0  0  0  0  0  0  0  0  0  0  0  0
   -6.1510   21.6162  -33.0266 H   0  0  0  0  0  0  0  0  0  0  0  0
   -4.0860   23.6262  -27.3103 H   0  0  0  0  0  0  0  0  0  0  0  0
   -2.0443   24.9151  -26.1001 H   0  0  0  0  0  0  0  0  0  0  0  0
   -0.6798   26.1627  -28.0309 H   0  0  0  0  0  0  0  0  0  0  0  0
  1  2  1  0
  2  3  1  0
  3  4  1  0
  4  5  1  0
  5  6  1  0
  6  7  2  0
  7  8  1  0
  8  9  2  0
  9 10  1  0
 10 11  2  0
  3 12  2  0
 12 13  1  0
 13 14  2  0
 14 15  1  0
 15 16  2  0
 16 17  1  0
 17 18  2  0
 18 19  1  0
 14  2  1  0
 19 15  1  0
 11  6  1  0
  1 20  1  0
  1 21  1  0
  1 22  1  0
  5 23  1  0
  5 24  1  0
  7 25  1  0
  8 26  1  0
  9 27  1  0
 10 28  1  0
 11 29  1  0
 16 30  1  0
 17 31  1  0
 18 32  1  0
M  END
>  <UniqueID>  (7) 
7

>  <SMILES>  (7) 
Cn1c(SCc2ccccc2)nnc1-c1ccco1

>  <Energy>  (7) 
92.38025566660527

>  <Genealogy>  (7) 
Cn1c(SCc2ccccc2)nnc1-c1ccco1 (3D coordinates assigned)
Cn1c(SCc2ccccc2)nnc1-c1ccco1 (optimized conformer: 92.38025566660527 kcal/mol)

>  <smiles>  (7) 
Cn1c(SCc2ccccc2)nnc1-c1ccco1

>  <score_type>  (7) 
oracle

>  <origin>  (7) 
adgpu

>  <m_score__min__energy>  (7) 
-8.3699999999999992

>  <m_primary>  (7) 
energy

$$$$
7:0
     RDKit          3D

 33 34  0  0  0  0  0  0  0  0999 V2000
   -3.7000   24.5210  -27.0880 C   0  0  0  0  0  0  0  0  0  0  0  0
   -3.1040   24.5080  -28.4910 C   0  0  0  0  0  0  0  0  0  0  0  0
   -4.1520   24.1550  -29.5120 C   0  0  0  0  0  0  0  0  0  0  0  0
   -3.9210   23.1270  -30.4370 C   0  0  0  0  0  0  0  0  0  0  0  0
   -4.8810   22.8210  -31.4060 C   0  0  0  0  0  0  0  0  0  0  0  0
   -6.0810   23.5450  -31.4770 C   0  0  0  0  0  0  0  0  0  0  0  0
   -7.0460   23.2060  -32.4930 N   0  0  0  0  0  0  0  0  0  0  0  0
   -8.2930   22.4820  -32.2420 C   0  0  0  0  0  0  0  0  0  0  0  0
   -8.0640   20.9940  -32.2870 C   0  0  0  0  0  0  0  0  0  0  0  0
   -6.9810   20.4580  -33.0040 C   0  0  0  0  0  0  0  0  0  0  0  0
   -6.7780   19.0750  -33.0450 C   0  0  0  0  0  0  0  0  0  0  0  0
   -7.6590   18.2180  -32.3800 C   0  0  0  0  0  0  0  0  0  0  0  0
   -8.7460   18.7410  -31.6740 C   0  0  0  0  0  0  0  0  0  0  0  0
   -8.9510   20.1230  -31.6300 C   0  0  0  0  0  0  0  0  0  0  0  0
   -6.3070   24.5810  -30.5510 C   0  0  0  0  0  0  0  0  0  0  0  0
   -5.3470   24.8860  -29.5810 C   0  0  0  0  0  0  0  0  0  0  0  0
   -2.8891   24.5033  -26.3450 H   0  0  0  0  0  0  0  0  0  0  0  0
   -4.3009   25.4325  -26.9533 H   0  0  0  0  0  0  0  0  0  0  0  0
   -4.3401   23.6366  -26.9533 H   0  0  0  0  0  0  0  0  0  0  0  0
   -2.6982   25.5044  -28.7200 H   0  0  0  0  0  0  0  0  0  0  0  0
   -2.3055   23.7523  -28.5286 H   0  0  0  0  0  0  0  0  0  0  0  0
   -2.9800   22.5586  -30.4001 H   0  0  0  0  0  0  0  0  0  0  0  0
   -4.6940   22.0050  -32.1196 H   0  0  0  0  0  0  0  0  0  0  0  0
   -6.8750   23.5340  -33.4700 H   0  0  0  0  0  0  0  0  0  0  0  0
   -8.6771   22.7582  -31.2489 H   0  0  0  0  0  0  0  0  0  0  0  0
   -9.0208   22.7512  -33.0216 H   0  0  0  0  0  0  0  0  0  0  0  0
   -6.2900   21.1290  -33.5353 H   0  0  0  0  0  0  0  0  0  0  0  0
   -5.9240   18.6613  -33.6013 H   0  0  0  0  0  0  0  0  0  0  0  0
   -7.4968   17.1305  -32.4122 H   0  0  0  0  0  0  0  0  0  0  0  0
   -9.4401   18.0651  -31.1530 H   0  0  0  0  0  0  0  0  0  0  0  0
   -9.8107   20.5313  -31.0785 H   0  0  0  0  0  0  0  0  0  0  0  0
   -7.2449   25.1544  -30.5907 H   0  0  0  0  0  0  0  0  0  0  0  0
   -5.5301   25.7036  -28.8683 H   0  0  0  0  0  0  0  0  0  0  0  0
  1  2  1  0
  2  3  1  0
  3  4  2  0
  4  5  1  0
  5  6  2  0
  6  7  1  0
  7  8  1  0
  8  9  1  0
  9 10  2  0
 10 11  1  0
 11 12  2  0
 12 13  1  0
 13 14  2  0
  6 15  1  0
 15 16  2  0
 16  3  1  0
 14  9  1  0
  1 17  1  0
  1 18  1  0
  1 19  1  0
  2 20  1  0
  2 21  1  0
  4 22  1  0
  5 23  1  0
  7 24  1  0
  8 25  1  0
  8 26  1  0
 10 27  1  0
 11 28  1  0
 12 29  1  0
 13 30  1  0
 14 31  1  0
 15 32  1  0
 16 33  1  0
M  END
>  <UniqueID>  (8) 
8

>  <SMILES>  (8) 
CCc1ccc(NCc2ccccc2)cc1

>  <Energy>  (8) 
29.009843726669338

>  <Genealogy>  (8) 
CCc1ccc(NCc2ccccc2)cc1 (3D coordinates assigned)
CCc1ccc(NCc2ccccc2)cc1 (optimized conformer: 29.009843726669338 kcal/mol)

>  <smiles>  (8) 
CCc1ccc(NCc2ccccc2)cc1

>  <score_type>  (8) 
oracle

>  <origin>  (8) 
adgpu

>  <m_score__min__energy>  (8) 
-6.7999999999999998

>  <m_primary>  (8) 
energy

$$$$
8:0
     RDKit          3D

 35 37  0  0  0  0  0  0  0  0999 V2000
   -4.4568   21.4906  -28.8212 H   0  0  0  0  0  0  0  0  0  0  0  0
   -3.9050   21.7630  -29.7330 C   0  0  0  0  0  0  0  0  0  0  0  0
   -2.9990   20.9340  -30.1690 N   0  0  0  0  0  0  0  0  0  0  0  0
   -2.2980   20.9920  -31.4200 C   0  0  0  0  0  0  0  0  0  0  0  0
   -2.9640   20.7860  -32.6420 C   0  0  0  0  0  0  0  0  0  0  0  0
   -4.0495   20.6085  -32.6512 H   0  0  0  0  0  0  0  0  0  0  0  0
   -2.2520   20.8060  -33.8440 C   0  0  0  0  0  0  0  0  0  0  0  0
   -2.7812   20.6541  -34.7963 H   0  0  0  0  0  0  0  0  0  0  0  0
   -0.8650   21.0190  -33.8420 C   0  0  0  0  0  0  0  0  0  0  0  0
   -0.0950   21.0000  -35.1280 C   0  0  0  0  0  0  0  0  0  0  0  0
    0.9828   20.9734  -34.9097 H   0  0  0  0  0  0  0  0  0  0  0  0
   -0.3735   20.1085  -35.7090 H   0  0  0  0  0  0  0  0  0  0  0  0
   -0.3292   21.9042  -35.7090 H   0  0  0  0  0  0  0  0  0  0  0  0
   -0.1950   21.1710  -32.6180 C   0  0  0  0  0  0  0  0  0  0  0  0
    0.8965   21.3066  -32.6050 H   0  0  0  0  0  0  0  0  0  0  0  0
   -0.9070   21.1510  -31.4160 C   0  0  0  0  0  0  0  0  0  0  0  0
   -0.3717   21.2608  -30.4613 H   0  0  0  0  0  0  0  0  0  0  0  0
   -4.2380   23.0470  -30.3870 C   0  0  0  0  0  0  0  0  0  0  0  0
   -3.5810   24.2560  -30.2370 C   0  0  0  0  0  0  0  0  0  0  0  0
   -2.6286   24.4005  -29.7059 H   0  0  0  0  0  0  0  0  0  0  0  0
   -4.2900   25.2280  -30.8430 N   0  0  0  0  0  0  0  0  0  0  0  0
   -5.3770   24.6790  -31.3590 N   0  0  0  0  0  0  0  0  0  0  0  0
   -6.0980   25.2120  -31.8930 H   0  0  0  0  0  0  0  0  0  0  0  0
   -5.3870   23.3580  -31.0970 C   0  0  0  0  0  0  0  0  0  0  0  0
   -6.4660   22.4370  -31.5220 C   0  0  0  0  0  0  0  0  0  0  0  0
   -7.7930   22.6370  -31.1030 C   0  0  0  0  0  0  0  0  0  0  0  0
   -8.0395   23.4925  -30.4570 H   0  0  0  0  0  0  0  0  0  0  0  0
   -8.8020   21.7540  -31.5030 C   0  0  0  0  0  0  0  0  0  0  0  0
   -9.8390   21.9202  -31.1759 H   0  0  0  0  0  0  0  0  0  0  0  0
   -8.4940   20.6620  -32.3170 C   0  0  0  0  0  0  0  0  0  0  0  0
   -9.4740   19.8070  -32.7030 F   0  0  0  0  0  0  0  0  0  0  0  0
   -7.1760   20.4480  -32.7300 C   0  0  0  0  0  0  0  0  0  0  0  0
   -6.9338   19.5861  -33.3690 H   0  0  0  0  0  0  0  0  0  0  0  0
   -6.1650   21.3280  -32.3320 C   0  0  0  0  0  0  0  0  0  0  0  0
   -5.1282   21.1516  -32.6545 H   0  0  0  0  0  0  0  0  0  0  0  0
  1  2  1  0
  2  3  2  0
  3  4  1  0
  4  5  2  0
  5  6  1  0
  5  7  1  0
  7  8  1  0
  7  9  2  0
  9 10  1  0
 10 11  1  0
 10 12  1  0
 10 13  1  0
  9 14  1  0
 14 15  1  0
 14 16  2  0
 16 17  1  0
  2 18  1  0
 18 19  1  0
 19 20  1  0
 19 21  2  0
 21 22  1  0
 22 23  1  0
 22 24  1  0
 24 25  1  0
 25 26  2  0
 26 27  1  0
 26 28  1  0
 28 29  1  0
 28 30  2  0
 30 31  1  0
 30 32  1  0
 32 33  1  0
 32 34  2  0
 34 35  1  0
 16  4  1  0
 24 18  2  0
 34 25  1  0
M  END
>  <UniqueID>  (9) 
9

>  <SMILES>  (9) 
Cc1ccc(/N=C\c2cn[nH]c2-c2ccc(F)cc2)cc1

>  <Energy>  (9) 
80.6015663995905

>  <Genealogy>  (9) 
Cc1ccc(/N=C\c2cn[nH]c2-c2ccc(F)cc2)cc1 (cis-trans isomerization)
Cc1ccc(/N=C\c2cn[nH]c2-c2ccc(F)cc2)cc1 (3D coordinates assigned)
Cc1ccc(/N=C\c2cn[nH]c2-c2ccc(F)cc2)cc1 (optimized conformer: 80.6015663995905 kcal/mol)

>  <smiles>  (9) 
Cc1ccc(N=Cc2cn[nH]c2-c2ccc(F)cc2)cc1

>  <score_type>  (9) 
oracle

>  <origin>  (9) 
adgpu

>  <m_score__min__energy>  (9) 
-7.0700000000000003

>  <m_primary>  (9) 
energy

$$$$
9:0
     RDKit          3D

 27 28  0  0  0  0  0  0  0  0999 V2000
   -3.5950   21.1030  -32.8640 C   0  0  0  0  0  0  0  0  0  0  0  0
   -4.4770   21.8580  -31.9140 C   0  0  0  0  0  0  0  0  0  0  0  0
   -5.7540   22.2760  -32.3160 C   0  0  0  0  0  0  0  0  0  0  0  0
   -6.5670   23.0140  -31.4450 C   0  0  0  0  0  0  0  0  0  0  0  0
   -7.9540   23.4090  -31.8590 C   0  0  0  0  0  0  0  0  0  0  0  0
   -6.1020   23.3210  -30.1580 C   0  0  0  0  0  0  0  0  0  0  0  0
   -4.8140   22.9350  -29.7550 C   0  0  0  0  0  0  0  0  0  0  0  0
   -4.3290   23.2490  -28.3670 C   0  0  0  0  0  0  0  0  0  0  0  0
   -3.0400   24.0070  -28.4300 C   0  0  0  0  0  0  0  0  0  0  0  0
   -1.7430   23.8020  -27.3730 S   0  0  0  0  0  0  0  0  0  0  0  0
   -0.7840   24.9000  -28.2100 C   0  0  0  0  0  0  0  0  0  0  0  0
    0.3910   25.2100  -27.8830 O   0  0  0  0  0  0  0  0  0  0  0  0
   -1.4070   25.4210  -29.2890 N   0  0  0  0  0  0  0  0  0  0  0  0
   -2.6630   24.9170  -29.4140 C   0  0  0  0  0  0  0  0  0  0  0  0
   -3.4970   25.2920  -30.4610 O   0  0  0  0  0  0  0  0  0  0  0  0
   -4.0050   22.2020  -30.6390 C   0  0  0  0  0  0  0  0  0  0  0  0
   -2.8805   20.4914  -32.2936 H   0  0  0  0  0  0  0  0  0  0  0  0
   -4.2129   20.4497  -33.4975 H   0  0  0  0  0  0  0  0  0  0  0  0
   -3.0448   21.8143  -33.4975 H   0  0  0  0  0  0  0  0  0  0  0  0
   -6.1200   22.0228  -33.3220 H   0  0  0  0  0  0  0  0  0  0  0  0
   -8.5682   23.5839  -30.9633 H   0  0  0  0  0  0  0  0  0  0  0  0
   -7.9093   24.3301  -32.4586 H   0  0  0  0  0  0  0  0  0  0  0  0
   -8.4013   22.6025  -32.4586 H   0  0  0  0  0  0  0  0  0  0  0  0
   -6.7515   23.8684  -29.4591 H   0  0  0  0  0  0  0  0  0  0  0  0
   -5.0836   23.8576  -27.8473 H   0  0  0  0  0  0  0  0  0  0  0  0
   -4.1660   22.3076  -27.8218 H   0  0  0  0  0  0  0  0  0  0  0  0
   -2.9949   21.8959  -30.3292 H   0  0  0  0  0  0  0  0  0  0  0  0
  1  2  1  0
  2  3  2  0
  3  4  1  0
  4  5  1  0
  4  6  2  0
  6  7  1  0
  7  8  1  0
  8  9  1  0
  9 10  1  0
 10 11  1  0
 11 12  2  0
 11 13  1  0
 13 14  1  0
 14 15  1  0
  7 16  2  0
 16  2  1  0
 14  9  2  0
  1 17  1  0
  1 18  1  0
  1 19  1  0
  3 20  1  0
  5 21  1  0
  5 22  1  0
  5 23  1  0
  6 24  1  0
  8 25  1  0
  8 26  1  0
 16 27  1  0
M  CHG  2  13  -1  15  -1
M  END
>  <UniqueID>  (10) 
10

>  <SMILES>  (10) 
Cc1cc(C)cc(Cc2sc(=O)[n-]c2[O-])c1

>  <Energy>  (10) 
54.561375868721505

>  <Genealogy>  (10) 
Cc1cc(C)cc(Cc2sc(=O)[n-]c2[O-])c1 (protonated)
Cc1cc(C)cc(Cc2sc(=O)[n-]c2[O-])c1 (3D coordinates assigned)
Cc1cc(C)cc(Cc2sc(=O)[n-]c2[O-])c1 (optimized conformer: 54.561375868721505 kcal/mol)

>  <smiles>  (10) 
Cc1cc(C)cc(Cc2sc(=O)[nH]c2O)c1

>  <score_type>  (10) 
oracle

>  <origin>  (10) 
adgpu

>  <m_score__min__energy>  (10) 
-11.56

>  <m_primary>  (10) 
energy

$$$$
10:0
     RDKit          3D

 27 28  0  0  0  0  0  0  0  0999 V2000
   -5.4090   26.1680  -30.8320 O   0  0  0  0  0  0  0  0  0  0  0  0
   -4.8730   25.0280  -30.8410 C   0  0  0  0  0  0  0  0  0  0  0  0
   -3.4960   24.9100  -30.4610 N   0  0  0  0  0  0  0  0  0  0  0  0
   -2.9300   23.7890  -29.7210 C   0  0  0  0  0  0  0  0  0  0  0  0
   -1.6660   24.2310  -29.0440 C   0  0  0  0  0  0  0  0  0  0  0  0
   -1.5890   25.4930  -28.4370 C   0  0  0  0  0  0  0  0  0  0  0  0
   -0.4150   25.8720  -27.7830 C   0  0  0  0  0  0  0  0  0  0  0  0
    0.6410   25.0170  -27.7270 N   0  0  0  0  0  0  0  0  0  0  0  0
    0.5900   23.7830  -28.2950 C   0  0  0  0  0  0  0  0  0  0  0  0
   -0.5660   23.3650  -28.9590 C   0  0  0  0  0  0  0  0  0  0  0  0
   -5.6920   23.8550  -31.2070 C   0  0  0  0  0  0  0  0  0  0  0  0
   -7.0370   23.7910  -30.8070 C   0  0  0  0  0  0  0  0  0  0  0  0
   -7.8260   22.6910  -31.1580 C   0  0  0  0  0  0  0  0  0  0  0  0
   -7.2820   21.6560  -31.9240 C   0  0  0  0  0  0  0  0  0  0  0  0
   -5.9520   21.7240  -32.3470 C   0  0  0  0  0  0  0  0  0  0  0  0
   -5.4310   20.7290  -33.1070 F   0  0  0  0  0  0  0  0  0  0  0  0
   -5.1600   22.8230  -31.9950 C   0  0  0  0  0  0  0  0  0  0  0  0
   -3.6514   23.4458  -28.9649 H   0  0  0  0  0  0  0  0  0  0  0  0
   -2.7085   22.9637  -30.4137 H   0  0  0  0  0  0  0  0  0  0  0  0
   -2.4476   26.1795  -28.4759 H   0  0  0  0  0  0  0  0  0  0  0  0
   -0.3442   26.8637  -27.3124 H   0  0  0  0  0  0  0  0  0  0  0  0
    1.4599   23.1128  -28.2317 H   0  0  0  0  0  0  0  0  0  0  0  0
   -0.6131   22.3637  -29.4120 H   0  0  0  0  0  0  0  0  0  0  0  0
   -7.4717   24.6099  -30.2150 H   0  0  0  0  0  0  0  0  0  0  0  0
   -8.8751   22.6402  -30.8312 H   0  0  0  0  0  0  0  0  0  0  0  0
   -7.9011   20.7877  -32.1939 H   0  0  0  0  0  0  0  0  0  0  0  0
   -4.1161   22.8780  -32.3375 H   0  0  0  0  0  0  0  0  0  0  0  0
  1  2  2  0
  2  3  1  0
  3  4  1  0
  4  5  1  0
  5  6  2  0
  6  7  1  0
  7  8  2  0
  8  9  1  0
  9 10  2  0
  2 11  1  0
 11 12  2  0
 12 13  1  0
 13 14  2  0
 14 15  1  0
 15 16  1  0
 15 17  2  0
 10  5  1  0
 17 11  1  0
  4 18  1  0
  4 19  1  0
  6 20  1  0
  7 21  1  0
  9 22  1  0
 10 23  1  0
 12 24  1  0
 13 25  1  0
 14 26  1  0
 17 27  1  0
M  CHG  1   3  -1
M  END
>  <UniqueID>  (11) 
11

>  <SMILES>  (11) 
O=C([N-]Cc1ccncc1)c1cccc(F)c1

>  <Energy>  (11) 
31.974275085963875

>  <Genealogy>  (11) 
O=C([N-]Cc1ccncc1)c1cccc(F)c1 (protonated)
O=C([N-]Cc1ccncc1)c1cccc(F)c1 (3D coordinates assigned)
O=C([N-]Cc1ccncc1)c1cccc(F)c1 (optimized conformer: 31.974275085963875 kcal/mol)

>  <smiles>  (11) 
O=C(NCc1ccncc1)c1cccc(F)c1

>  <score_type>  (11) 
oracle

>  <origin>  (11) 
adgpu

>  <m_score__min__energy>  (11) 
-7.7300000000000004

>  <m_primary>  (11) 
energy

$$$$
11:0
     RDKit          3D

 25 26  0  0  0  0  0  0  0  0999 V2000
  -10.3985   18.6793  -33.0301 H   0  0  0  0  0  0  0  0  0  0  0  0
   -9.4900   19.2140  -32.7160 C   0  0  0  0  0  0  0  0  0  0  0  0
   -9.5660   20.5170  -32.3360 N   0  0  0  0  0  0  0  0  0  0  0  0
   -8.4660   21.2140  -31.9520 C   0  0  0  0  0  0  0  0  0  0  0  0
   -8.5647   22.2666  -31.6483 H   0  0  0  0  0  0  0  0  0  0  0  0
   -7.2010   20.5990  -31.9400 C   0  0  0  0  0  0  0  0  0  0  0  0
   -6.0340   21.3200  -31.5050 N   0  0  0  0  0  0  0  0  0  0  0  0
   -5.2450   20.7780  -31.0930 H   0  0  0  0  0  0  0  0  0  0  0  0
   -5.8600   22.7330  -31.7040 C   0  0  0  0  0  0  0  0  0  0  0  0
   -6.5780   23.3450  -32.5410 O   0  0  0  0  0  0  0  0  0  0  0  0
   -4.8250   23.4810  -30.9710 C   0  0  0  0  0  0  0  0  0  0  0  0
   -3.4610   22.7890  -30.2590 S   0  0  0  0  0  0  0  0  0  0  0  0
   -2.8860   24.2690  -29.7140 C   0  0  0  0  0  0  0  0  0  0  0  0
   -1.7850   24.4110  -29.0410 N   0  0  0  0  0  0  0  0  0  0  0  0
   -1.2920   25.7000  -28.5740 C   0  0  0  0  0  0  0  0  0  0  0  0
   -1.2867   25.7139  -27.4741 H   0  0  0  0  0  0  0  0  0  0  0  0
   -0.2697   25.8588  -28.9477 H   0  0  0  0  0  0  0  0  0  0  0  0
   -1.9474   26.5005  -28.9477 H   0  0  0  0  0  0  0  0  0  0  0  0
   -3.6960   25.2950  -30.0600 N   0  0  0  0  0  0  0  0  0  0  0  0
   -4.7780   24.8610  -30.7600 C   0  0  0  0  0  0  0  0  0  0  0  0
   -5.5562   25.5440  -31.1314 H   0  0  0  0  0  0  0  0  0  0  0  0
   -7.1120   19.2440  -32.3130 C   0  0  0  0  0  0  0  0  0  0  0  0
   -5.5700   18.3960  -32.3330 Cl  0  0  0  0  0  0  0  0  0  0  0  0
   -8.2620   18.5550  -32.7080 C   0  0  0  0  0  0  0  0  0  0  0  0
   -8.1983   17.4994  -33.0106 H   0  0  0  0  0  0  0  0  0  0  0  0
  1  2  1  0
  2  3  2  0
  3  4  1  0
  4  5  1  0
  4  6  2  0
  6  7  1  0
  7  8  1  0
  7  9  1  0
  9 10  2  0
  9 11  1  0
 11 12  1  0
 12 13  1  0
 13 14  2  0
 14 15  1  0
 15 16  1  0
 15 17  1  0
 15 18  1  0
 13 19  1  0
 19 20  1  0
 20 21  1  0
  6 22  1  0
 22 23  1  0
 22 24  2  0
 24 25  1  0
 24  2  1  0
 20 11  2  0
M  CHG  1  19  -1
M  END
>  <UniqueID>  (12) 
12

>  <SMILES>  (12) 
C/N=c1\[n-]cc(C(=O)Nc2cnccc2Cl)s1

>  <Energy>  (12) 
59.67962862870659

>  <Genealogy>  (12) 
CN=c1[n-]cc(C(=O)Nc2cnccc2Cl)s1 (protonated)
C/N=c1\[n-]cc(C(=O)Nc2cnccc2Cl)s1 (cis-trans isomerization)
C/N=c1\[n-]cc(C(=O)Nc2cnccc2Cl)s1 (3D coordinates assigned)
C/N=c1\[n-]cc(C(=O)Nc2cnccc2Cl)s1 (optimized conformer: 59.67962862870659 kcal/mol)

>  <smiles>  (12) 
CN=c1[nH]cc(C(=O)Nc2cnccc2Cl)s1

>  <score_type>  (12) 
oracle

>  <origin>  (12) 
adgpu

>  <m_score__min__energy>  (12) 
-7.7800000000000002

>  <m_primary>  (12) 
energy

$$$$
12:0
     RDKit          3D

 32 33  0  0  0  0  0  0  0  0999 V2000
   -9.4250   21.6430  -31.2430 C   0  0  0  0  0  0  0  0  0  0  0  0
   -8.2710   20.9910  -31.9550 C   0  0  0  0  0  0  0  0  0  0  0  0
   -8.3810   19.6540  -32.3730 C   0  0  0  0  0  0  0  0  0  0  0  0
   -7.3200   19.0270  -33.0290 C   0  0  0  0  0  0  0  0  0  0  0  0
   -6.1340   19.7230  -33.2650 C   0  0  0  0  0  0  0  0  0  0  0  0
   -6.0050   21.0480  -32.8450 C   0  0  0  0  0  0  0  0  0  0  0  0
   -7.0710   21.6990  -32.1960 C   0  0  0  0  0  0  0  0  0  0  0  0
   -6.9120   23.0500  -31.7290 N   0  0  0  0  0  0  0  0  0  0  0  0
   -5.9670   23.4370  -30.7190 C   0  0  0  0  0  0  0  0  0  0  0  0
   -6.3290   24.7220  -29.7640 S   0  0  0  0  0  0  0  0  0  0  0  0
   -4.7410   22.6970  -30.5450 N   0  0  0  0  0  0  0  0  0  0  0  0
   -3.6770   23.0810  -29.6610 C   0  0  0  0  0  0  0  0  0  0  0  0
   -3.2010   22.1900  -28.6830 C   0  0  0  0  0  0  0  0  0  0  0  0
   -2.1890   22.5860  -27.8010 C   0  0  0  0  0  0  0  0  0  0  0  0
   -1.5950   21.4640  -26.5900 Cl  0  0  0  0  0  0  0  0  0  0  0  0
   -1.6600   23.8770  -27.8780 C   0  0  0  0  0  0  0  0  0  0  0  0
   -2.1450   24.7760  -28.8300 C   0  0  0  0  0  0  0  0  0  0  0  0
   -3.1580   24.3860  -29.7190 C   0  0  0  0  0  0  0  0  0  0  0  0
   -3.6450   25.2860  -30.6660 O   0  0  0  0  0  0  0  0  0  0  0  0
   -9.2789   21.5605  -30.1559 H   0  0  0  0  0  0  0  0  0  0  0  0
   -9.4781   22.7046  -31.5263 H   0  0  0  0  0  0  0  0  0  0  0  0
  -10.3617   21.1406  -31.5263 H   0  0  0  0  0  0  0  0  0  0  0  0
   -9.3102   19.0971  -32.1819 H   0  0  0  0  0  0  0  0  0  0  0  0
   -7.4192   17.9828  -33.3603 H   0  0  0  0  0  0  0  0  0  0  0  0
   -5.2997   19.2271  -33.7826 H   0  0  0  0  0  0  0  0  0  0  0  0
   -5.0630   21.5875  -33.0226 H   0  0  0  0  0  0  0  0  0  0  0  0
   -7.5450   23.7860  -32.1160 H   0  0  0  0  0  0  0  0  0  0  0  0
   -4.6170   21.8010  -31.0670 H   0  0  0  0  0  0  0  0  0  0  0  0
   -3.6256   21.1778  -28.6108 H   0  0  0  0  0  0  0  0  0  0  0  0
   -0.8607   24.1854  -27.1880 H   0  0  0  0  0  0  0  0  0  0  0  0
   -1.7313   25.7939  -28.8832 H   0  0  0  0  0  0  0  0  0  0  0  0
   -3.2300   25.3630  -31.5870 H   0  0  0  0  0  0  0  0  0  0  0  0
  1  2  1  0
  2  3  2  0
  3  4  1  0
  4  5  2  0
  5  6  1  0
  6  7  2  0
  7  8  1  0
  8  9  1  0
  9 10  2  0
  9 11  1  0
 11 12  1  0
 12 13  2  0
 13 14  1  0
 14 15  1  0
 14 16  2  0
 16 17  1  0
 17 18  2  0
 18 19  1  0
  7  2  1  0
 18 12  1  0
  1 20  1  0
  1 21  1  0
  1 22  1  0
  3 23  1  0
  4 24  1  0
  5 25  1  0
  6 26  1  0
  8 27  1  0
 11 28  1  0
 13 29  1  0
 16 30  1  0
 17 31  1  0
 19 32  1  0
M  END
>  <UniqueID>  (13) 
13

>  <SMILES>  (13) 
Cc1ccccc1NC(=S)Nc1cc(Cl)ccc1O

>  <Energy>  (13) 
42.98260679169204

>  <Genealogy>  (13) 
Cc1ccccc1NC(=S)Nc1cc(Cl)ccc1O (3D coordinates assigned)
Cc1ccccc1NC(=S)Nc1cc(Cl)ccc1O (optimized conformer: 42.98260679169204 kcal/mol)

>  <smiles>  (13) 
Cc1ccccc1NC(=S)Nc1cc(Cl)ccc1O

>  <score_type>  (13) 
oracle

>  <origin>  (13) 
adgpu

>  <m_score__min__energy>  (13) 
-8.5999999999999996

>  <m_primary>  (13) 
energy

$$$$
13:0
     RDKit          3D

 33 35  0  0  0  0  0  0  0  0999 V2000
   -0.1849   27.1330  -23.5442 H   0  0  0  0  0  0  0  0  0  0  0  0
   -0.2690   27.4190  -24.6030 C   0  0  0  0  0  0  0  0  0  0  0  0
   -0.7330   26.4910  -25.5400 C   0  0  0  0  0  0  0  0  0  0  0  0
   -1.0252   25.4830  -25.2106 H   0  0  0  0  0  0  0  0  0  0  0  0
   -0.8290   26.8340  -26.8950 C   0  0  0  0  0  0  0  0  0  0  0  0
   -1.3340   25.8660  -27.8310 N   0  0  0  0  0  0  0  0  0  0  0  0
   -2.3530   25.9060  -28.0490 H   0  0  0  0  0  0  0  0  0  0  0  0
   -0.5390   24.8140  -28.4100 C   0  0  0  0  0  0  0  0  0  0  0  0
    0.7000   24.7550  -28.1880 O   0  0  0  0  0  0  0  0  0  0  0  0
   -1.1240   23.8360  -29.2810 N   0  0  0  0  0  0  0  0  0  0  0  0
   -2.3580   23.8170  -29.6850 C   0  0  0  0  0  0  0  0  0  0  0  0
   -3.3130   24.6790  -29.2540 N   0  0  0  0  0  0  0  0  0  0  0  0
   -4.5120   24.3850  -29.8160 C   0  0  0  0  0  0  0  0  0  0  0  0
   -5.6900   25.0950  -29.5780 C   0  0  0  0  0  0  0  0  0  0  0  0
   -5.6959   25.9595  -28.8979 H   0  0  0  0  0  0  0  0  0  0  0  0
   -6.8680   24.6840  -30.2240 C   0  0  0  0  0  0  0  0  0  0  0  0
   -7.8054   25.2329  -30.0507 H   0  0  0  0  0  0  0  0  0  0  0  0
   -6.8580   23.5730  -31.0930 C   0  0  0  0  0  0  0  0  0  0  0  0
   -8.4690   23.0270  -31.9610 Br  0  0  0  0  0  0  0  0  0  0  0  0
   -5.6650   22.8660  -31.3240 C   0  0  0  0  0  0  0  0  0  0  0  0
   -5.6432   21.9982  -31.9996 H   0  0  0  0  0  0  0  0  0  0  0  0
   -4.5120   23.2960  -30.6730 C   0  0  0  0  0  0  0  0  0  0  0  0
   -2.9630   22.6510  -30.7510 S   0  0  0  0  0  0  0  0  0  0  0  0
   -0.4930   28.1380  -27.2960 C   0  0  0  0  0  0  0  0  0  0  0  0
   -0.5946   28.4294  -28.3518 H   0  0  0  0  0  0  0  0  0  0  0  0
   -0.0300   29.0670  -26.3590 C   0  0  0  0  0  0  0  0  0  0  0  0
    0.2417   30.0815  -26.6860 H   0  0  0  0  0  0  0  0  0  0  0  0
    0.0910   28.7180  -25.0090 C   0  0  0  0  0  0  0  0  0  0  0  0
    0.5630   29.6840  -24.1100 O   0  0  0  0  0  0  0  0  0  0  0  0
    1.6530   29.4860  -23.2140 C   0  0  0  0  0  0  0  0  0  0  0  0
    1.2918   29.5516  -22.1771 H   0  0  0  0  0  0  0  0  0  0  0  0
    2.0938   28.4931  -23.3866 H   0  0  0  0  0  0  0  0  0  0  0  0
    2.4149   30.2604  -23.3866 H   0  0  0  0  0  0  0  0  0  0  0  0
  1  2  1  0
  2  3  2  0
  3  4  1  0
  3  5  1  0
  5  6  1  0
  6  7  1  0
  6  8  1  0
  8  9  2  0
  8 10  1  0
 10 11  2  0
 11 12  1  0
 12 13  1  0
 13 14  2  0
 14 15  1  0
 14 16  1  0
 16 17  1  0
 16 18  2  0
 18 19  1  0
 18 20  1  0
 20 21  1  0
 20 22  2  0
 22 23  1  0
  5 24  2  0
 24 25  1  0
 24 26  1  0
 26 27  1  0
 26 28  2  0
 28 29  1  0
 29 30  1  0
 30 31  1  0
 30 32  1  0
 30 33  1  0
 28  2  1  0
 23 11  1  0
 22 13  1  0
M  CHG  1  12  -1
M  END
>  <UniqueID>  (14) 
14

>  <SMILES>  (14) 
COc1ccc(NC(=O)/N=c2\[n-]c3ccc(Br)cc3s2)cc1

>  <Energy>  (14) 
78.23745081871292

>  <Genealogy>  (14) 
COc1ccc(NC(=O)N=c2[n-]c3ccc(Br)cc3s2)cc1 (protonated)
COc1ccc(NC(=O)/N=c2\[n-]c3ccc(Br)cc3s2)cc1 (cis-trans isomerization)
COc1ccc(NC(=O)/N=c2\[n-]c3ccc(Br)cc3s2)cc1 (3D coordinates assigned)
COc1ccc(NC(=O)/N=c2\[n-]c3ccc(Br)cc3s2)cc1 (optimized conformer: 78.23745081871292 kcal/mol)

>  <smiles>  (14) 
COc1ccc(NC(=O)N=c2[nH]c3ccc(Br)cc3s2)cc1

>  <score_type>  (14) 
oracle

>  <origin>  (14) 
adgpu

>  <m_score__min__energy>  (14) 
-8.2400000000000002

>  <m_primary>  (14) 
energy

$$$$
14:0
     RDKit          3D

 41 43  0  0  0  0  0  0  0  0999 V2000
   -1.5160   19.3540  -27.3310 C   0  0  0  0  0  0  0  0  0  0  0  0
   -1.7200   20.7430  -27.8600 C   0  0  0  0  0  0  0  0  0  0  0  0
   -1.7240   20.9800  -29.2410 C   0  0  0  0  0  0  0  0  0  0  0  0
   -1.9530   22.2670  -29.7370 C   0  0  0  0  0  0  0  0  0  0  0  0
   -2.1960   23.3380  -28.8580 C   0  0  0  0  0  0  0  0  0  0  0  0
   -2.4370   24.7040  -29.3790 C   0  0  0  0  0  0  0  0  0  0  0  0
   -1.7680   25.6750  -28.9310 O   0  0  0  0  0  0  0  0  0  0  0  0
   -3.4650   24.9300  -30.3540 N   0  0  0  0  0  0  0  0  0  0  0  0
   -4.7230   24.2440  -30.4460 C   0  0  0  0  0  0  0  0  0  0  0  0
   -5.8370   24.6190  -29.6740 C   0  0  0  0  0  0  0  0  0  0  0  0
   -7.0510   23.9390  -29.8140 C   0  0  0  0  0  0  0  0  0  0  0  0
   -7.1800   22.9000  -30.7420 C   0  0  0  0  0  0  0  0  0  0  0  0
   -8.4370   22.2150  -30.8480 N   0  0  0  0  0  0  0  0  0  0  0  0
   -8.8270   21.3210  -31.8990 C   0  0  0  0  0  0  0  0  0  0  0  0
   -9.8870   21.5640  -32.5340 O   0  0  0  0  0  0  0  0  0  0  0  0
   -7.9950   20.1590  -32.2930 C   0  0  0  0  0  0  0  0  0  0  0  0
   -8.1060   18.9430  -31.5950 C   0  0  0  0  0  0  0  0  0  0  0  0
   -7.3270   17.8420  -31.9640 C   0  0  0  0  0  0  0  0  0  0  0  0
   -6.4370   17.9410  -33.0370 C   0  0  0  0  0  0  0  0  0  0  0  0
   -6.3300   19.1390  -33.7470 C   0  0  0  0  0  0  0  0  0  0  0  0
   -7.1080   20.2430  -33.3830 C   0  0  0  0  0  0  0  0  0  0  0  0
   -6.0670   22.5250  -31.5150 C   0  0  0  0  0  0  0  0  0  0  0  0
   -4.8540   23.2060  -31.3760 C   0  0  0  0  0  0  0  0  0  0  0  0
   -2.2080   23.0900  -27.4730 C   0  0  0  0  0  0  0  0  0  0  0  0
   -1.9780   21.8020  -26.9800 C   0  0  0  0  0  0  0  0  0  0  0  0
   -1.5193   19.3763  -26.2312 H   0  0  0  0  0  0  0  0  0  0  0  0
   -2.3282   18.7031  -27.6870 H   0  0  0  0  0  0  0  0  0  0  0  0
   -0.5510   18.9641  -27.6870 H   0  0  0  0  0  0  0  0  0  0  0  0
   -1.5459   20.1487  -29.9390 H   0  0  0  0  0  0  0  0  0  0  0  0
   -1.9431   22.4434  -30.8227 H   0  0  0  0  0  0  0  0  0  0  0  0
   -5.7532   25.4497  -28.9578 H   0  0  0  0  0  0  0  0  0  0  0  0
   -7.9110   24.2232  -29.1898 H   0  0  0  0  0  0  0  0  0  0  0  0
   -8.8097   18.8576  -30.7539 H   0  0  0  0  0  0  0  0  0  0  0  0
   -7.4148   16.8964  -31.4089 H   0  0  0  0  0  0  0  0  0  0  0  0
   -5.8209   17.0756  -33.3223 H   0  0  0  0  0  0  0  0  0  0  0  0
   -5.6325   19.2145  -34.5942 H   0  0  0  0  0  0  0  0  0  0  0  0
   -7.0264   21.1814  -33.9512 H   0  0  0  0  0  0  0  0  0  0  0  0
   -6.1509   21.6939  -32.2307 H   0  0  0  0  0  0  0  0  0  0  0  0
   -3.9952   22.9238  -32.0028 H   0  0  0  0  0  0  0  0  0  0  0  0
   -2.3999   23.9161  -26.7725 H   0  0  0  0  0  0  0  0  0  0  0  0
   -1.9998   21.6193  -25.8955 H   0  0  0  0  0  0  0  0  0  0  0  0
  1  2  1  0
  2  3  2  0
  3  4  1  0
  4  5  2  0
  5  6  1  0
  6  7  2  0
  6  8  1  0
  8  9  1  0
  9 10  2  0
 10 11  1  0
 11 12  2  0
 12 13  1  0
 13 14  1  0
 14 15  2  0
 14 16  1  0
 16 17  2  0
 17 18  1  0
 18 19  2  0
 19 20  1  0
 20 21  2  0
 12 22  1  0
 22 23  2  0
  5 24  1  0
 24 25  2  0
 25  2  1  0
 23  9  1  0
 21 16  1  0
  1 26  1  0
  1 27  1  0
  1 28  1  0
  3 29  1  0
  4 30  1  0
 10 31  1  0
 11 32  1  0
 17 33  1  0
 18 34  1  0
 19 35  1  0
 20 36  1  0
 21 37  1  0
 22 38  1  0
 23 39  1  0
 24 40  1  0
 25 41  1  0
M  CHG  2   8  -1  13  -1
M  END
>  <UniqueID>  (15) 
15

>  <SMILES>  (15) 
Cc1ccc(C(=O)[N-]c2ccc([N-]C(=O)c3ccccc3)cc2)cc1

>  <Energy>  (15) 
54.371160033351394

>  <Genealogy>  (15) 
Cc1ccc(C(=O)[N-]c2ccc([N-]C(=O)c3ccccc3)cc2)cc1 (protonated)
Cc1ccc(C(=O)[N-]c2ccc([N-]C(=O)c3ccccc3)cc2)cc1 (3D coordinates assigned)
Cc1ccc(C(=O)[N-]c2ccc([N-]C(=O)c3ccccc3)cc2)cc1 (optimized conformer: 54.371160033351394 kcal/mol)

>  <smiles>  (15) 
Cc1ccc(C(=O)Nc2ccc(NC(=O)c3ccccc3)cc2)cc1

>  <score_type>  (15) 
oracle

>  <origin>  (15) 
adgpu

>  <m_score__min__energy>  (15) 
-10.85

>  <m_primary>  (15) 
energy

$$$$
15:0
     RDKit          3D

 31 33  0  0  0  0  0  0  0  0999 V2000
  -10.3783   20.3269  -31.9523 H   0  0  0  0  0  0  0  0  0  0  0  0
   -9.2990   20.4980  -32.0780 C   0  0  0  0  0  0  0  0  0  0  0  0
   -8.5750   19.6880  -32.8930 N   0  0  0  0  0  0  0  0  0  0  0  0
   -7.2400   19.8680  -33.0710 C   0  0  0  0  0  0  0  0  0  0  0  0
   -6.6800   19.1938  -33.7357 H   0  0  0  0  0  0  0  0  0  0  0  0
   -6.5760   20.9060  -32.4130 C   0  0  0  0  0  0  0  0  0  0  0  0
   -5.4943   21.0471  -32.5542 H   0  0  0  0  0  0  0  0  0  0  0  0
   -7.2980   21.7710  -31.5680 C   0  0  0  0  0  0  0  0  0  0  0  0
   -6.6330   22.8830  -30.8410 C   0  0  0  0  0  0  0  0  0  0  0  0
   -5.4650   22.6470  -30.1850 N   0  0  0  0  0  0  0  0  0  0  0  0
   -4.8150   23.6200  -29.4940 C   0  0  0  0  0  0  0  0  0  0  0  0
   -3.6940   23.3180  -28.9000 N   0  0  0  0  0  0  0  0  0  0  0  0
   -2.9100   24.1600  -28.0430 C   0  0  0  0  0  0  0  0  0  0  0  0
   -3.4320   24.5480  -26.8020 C   0  0  0  0  0  0  0  0  0  0  0  0
   -4.4124   24.1687  -26.4781 H   0  0  0  0  0  0  0  0  0  0  0  0
   -2.7130   25.4150  -25.9730 C   0  0  0  0  0  0  0  0  0  0  0  0
   -3.1195   25.7005  -24.9915 H   0  0  0  0  0  0  0  0  0  0  0  0
   -1.4780   25.9190  -26.3910 C   0  0  0  0  0  0  0  0  0  0  0  0
   -0.7830   26.7630  -25.5880 F   0  0  0  0  0  0  0  0  0  0  0  0
   -0.9670   25.5660  -27.6430 C   0  0  0  0  0  0  0  0  0  0  0  0
    0.0007   25.9701  -27.9751 H   0  0  0  0  0  0  0  0  0  0  0  0
   -1.6840   24.7000  -28.4740 C   0  0  0  0  0  0  0  0  0  0  0  0
   -1.2889   24.4401  -29.4671 H   0  0  0  0  0  0  0  0  0  0  0  0
   -5.3300   24.8880  -29.4740 N   0  0  0  0  0  0  0  0  0  0  0  0
   -4.8300   25.6760  -29.0080 H   0  0  0  0  0  0  0  0  0  0  0  0
   -6.5000   25.1690  -30.1030 C   0  0  0  0  0  0  0  0  0  0  0  0
   -6.9101   26.1890  -30.0654 H   0  0  0  0  0  0  0  0  0  0  0  0
   -7.1840   24.1720  -30.7960 C   0  0  0  0  0  0  0  0  0  0  0  0
   -8.1377   24.3918  -31.2981 H   0  0  0  0  0  0  0  0  0  0  0  0
   -8.6760   21.5480  -31.3990 C   0  0  0  0  0  0  0  0  0  0  0  0
   -9.2622   22.1989  -30.7336 H   0  0  0  0  0  0  0  0  0  0  0  0
  1  2  1  0
  2  3  2  0
  3  4  1  0
  4  5  1  0
  4  6  2  0
  6  7  1  0
  6  8  1  0
  8  9  1  0
  9 10  2  0
 10 11  1  0
 11 12  2  0
 12 13  1  0
 13 14  2  0
 14 15  1  0
 14 16  1  0
 16 17  1  0
 16 18  2  0
 18 19  1  0
 18 20  1  0
 20 21  1  0
 20 22  2  0
 22 23  1  0
 11 24  1  0
 24 25  1  0
 24 26  1  0
 26 27  1  0
 26 28  2  0
 28 29  1  0
  8 30  2  0
 30 31  1  0
 30  2  1  0
 28  9  1  0
 22 13  1  0
M  END
>  <UniqueID>  (16) 
16

>  <SMILES>  (16) 
Fc1ccc(/N=c2/nc(-c3ccncc3)cc[nH]2)cc1

>  <Energy>  (16) 
48.113868375725815

>  <Genealogy>  (16) 
Fc1ccc(/N=c2/nc(-c3ccncc3)cc[nH]2)cc1 (cis-trans isomerization)
Fc1ccc(/N=c2/nc(-c3ccncc3)cc[nH]2)cc1 (3D coordinates assigned)
Fc1ccc(/N=c2/nc(-c3ccncc3)cc[nH]2)cc1 (optimized conformer: 48.113868375725815 kcal/mol)

>  <smiles>  (16) 
Fc1ccc(N=c2nc(-c3ccncc3)cc[nH]2)cc1

>  <score_type>  (16) 
oracle

>  <origin>  (16) 
adgpu

>  <m_score__min__energy>  (16) 
-6.9900000000000002

>  <m_primary>  (16) 
energy

$$$$
16:0
     RDKit          3D

 44 45  0  0  0  0  0  0  0  0999 V2000
   -4.7650   16.5880  -34.5510 C   0  0  0  0  0  0  0  0  0  0  0  0
   -6.0560   16.6940  -33.9610 O   0  0  0  0  0  0  0  0  0  0  0  0
   -6.5950   17.8820  -33.4470 C   0  0  0  0  0  0  0  0  0  0  0  0
   -6.1470   19.1540  -33.8570 C   0  0  0  0  0  0  0  0  0  0  0  0
   -6.7090   20.3090  -33.3050 C   0  0  0  0  0  0  0  0  0  0  0  0
   -7.7300   20.2160  -32.3490 C   0  0  0  0  0  0  0  0  0  0  0  0
   -8.2980   21.4670  -31.7340 C   0  0  0  0  0  0  0  0  0  0  0  0
   -7.2190   22.2750  -31.1290 N   0  0  0  0  0  0  0  0  0  0  0  0
   -7.5640   22.6780  -29.7520 C   0  0  0  0  0  0  0  0  0  0  0  0
   -6.8610   23.4500  -31.9590 C   0  0  0  0  0  0  0  0  0  0  0  0
   -5.3960   23.3460  -32.4000 C   0  0  0  0  0  0  0  0  0  0  0  0
   -4.4980   22.9810  -31.2420 C   0  0  0  0  0  0  0  0  0  0  0  0
   -4.2240   21.6260  -30.9870 C   0  0  0  0  0  0  0  0  0  0  0  0
   -3.3480   21.2600  -29.9640 C   0  0  0  0  0  0  0  0  0  0  0  0
   -2.7320   22.2400  -29.1890 C   0  0  0  0  0  0  0  0  0  0  0  0
   -2.9810   23.5910  -29.4370 C   0  0  0  0  0  0  0  0  0  0  0  0
   -3.8660   23.9780  -30.4630 C   0  0  0  0  0  0  0  0  0  0  0  0
   -4.1320   25.3290  -30.7370 O   0  0  0  0  0  0  0  0  0  0  0  0
   -5.3640   25.9820  -30.4550 C   0  0  0  0  0  0  0  0  0  0  0  0
   -8.1780   18.9490  -31.9420 C   0  0  0  0  0  0  0  0  0  0  0  0
   -7.6130   17.7930  -32.4900 C   0  0  0  0  0  0  0  0  0  0  0  0
   -4.0040   16.5255  -33.7592 H   0  0  0  0  0  0  0  0  0  0  0  0
   -4.7201   15.6831  -35.1749 H   0  0  0  0  0  0  0  0  0  0  0  0
   -4.5732   17.4734  -35.1749 H   0  0  0  0  0  0  0  0  0  0  0  0
   -5.3529   19.2382  -34.6135 H   0  0  0  0  0  0  0  0  0  0  0  0
   -6.3474   21.2979  -33.6232 H   0  0  0  0  0  0  0  0  0  0  0  0
   -8.8013   22.0584  -32.5131 H   0  0  0  0  0  0  0  0  0  0  0  0
   -9.0177   21.1864  -30.9509 H   0  0  0  0  0  0  0  0  0  0  0  0
   -7.0204   22.0430  -29.0370 H   0  0  0  0  0  0  0  0  0  0  0  0
   -7.2821   23.7298  -29.5963 H   0  0  0  0  0  0  0  0  0  0  0  0
   -8.6467   22.5616  -29.5963 H   0  0  0  0  0  0  0  0  0  0  0  0
   -7.5088   23.4807  -32.8475 H   0  0  0  0  0  0  0  0  0  0  0  0
   -6.9988   24.3679  -31.3686 H   0  0  0  0  0  0  0  0  0  0  0  0
   -5.3101   22.5726  -33.1775 H   0  0  0  0  0  0  0  0  0  0  0  0
   -5.0803   24.3256  -32.7883 H   0  0  0  0  0  0  0  0  0  0  0  0
   -4.7039   20.8479  -31.5987 H   0  0  0  0  0  0  0  0  0  0  0  0
   -3.1438   20.1968  -29.7695 H   0  0  0  0  0  0  0  0  0  0  0  0
   -2.0472   21.9484  -28.3790 H   0  0  0  0  0  0  0  0  0  0  0  0
   -2.4828   24.3590  -28.8271 H   0  0  0  0  0  0  0  0  0  0  0  0
   -5.4999   26.0540  -29.3658 H   0  0  0  0  0  0  0  0  0  0  0  0
   -5.3518   26.9920  -30.8906 H   0  0  0  0  0  0  0  0  0  0  0  0
   -6.1930   25.4049  -30.8906 H   0  0  0  0  0  0  0  0  0  0  0  0
   -8.9761   18.8654  -31.1896 H   0  0  0  0  0  0  0  0  0  0  0  0
   -7.9717   16.8048  -32.1662 H   0  0  0  0  0  0  0  0  0  0  0  0
  1  2  1  0
  2  3  1  0
  3  4  2  0
  4  5  1  0
  5  6  2  0
  6  7  1  0
  7  8  1  0
  8  9  1  0
  8 10  1  0
 10 11  1  0
 11 12  1  0
 12 13  2  0
 13 14  1  0
 14 15  2  0
 15 16  1  0
 16 17  2  0
 17 18  1  0
 18 19  1  0
  6 20  1  0
 20 21  2  0
 21  3  1  0
 17 12  1  0
  1 22  1  0
  1 23  1  0
  1 24  1  0
  4 25  1  0
  5 26  1  0
  7 27  1  0
  7 28  1  0
  9 29  1  0
  9 30  1  0
  9 31  1  0
 10 32  1  0
 10 33  1  0
 11 34  1  0
 11 35  1  0
 13 36  1  0
 14 37  1  0
 15 38  1  0
 16 39  1  0
 19 40  1  0
 19 41  1  0
 19 42  1  0
 20 43  1  0
 21 44  1  0
M  END
>  <UniqueID>  (17) 
17

>  <SMILES>  (17) 
COc1ccc(CN(C)CCc2ccccc2OC)cc1

>  <Energy>  (17) 
41.846592346365384

>  <Genealogy>  (17) 
COc1ccc(CN(C)CCc2ccccc2OC)cc1 (3D coordinates assigned)
COc1ccc(CN(C)CCc2ccccc2OC)cc1 (optimized conformer: 41.846592346365384 kcal/mol)

>  <smiles>  (17) 
COc1ccc(CN(C)CCc2ccccc2OC)cc1

>  <score_type>  (17) 
oracle

>  <origin>  (17) 
adgpu

>  <m_score__min__energy>  (17) 
-7.6100000000000003

>  <m_primary>  (17) 
energy

$$$$
17:0
     RDKit          3D

 36 37  0  0  0  0  0  0  0  0999 V2000
   -2.8210   24.5420  -29.4340 C   0  0  0  0  0  0  0  0  0  0  0  0
   -3.7510   24.8730  -30.4600 O   0  0  0  0  0  0  0  0  0  0  0  0
   -4.9470   24.1810  -30.6990 C   0  0  0  0  0  0  0  0  0  0  0  0
   -6.0380   24.2280  -29.8100 C   0  0  0  0  0  0  0  0  0  0  0  0
   -7.2100   23.5200  -30.0930 C   0  0  0  0  0  0  0  0  0  0  0  0
   -7.3110   22.7570  -31.2660 C   0  0  0  0  0  0  0  0  0  0  0  0
   -8.5690   21.9830  -31.5510 C   0  0  0  0  0  0  0  0  0  0  0  0
   -8.2590   20.7890  -32.3680 N   0  0  0  0  0  0  0  0  0  0  0  0
   -9.4940   20.0600  -32.7040 C   0  0  0  0  0  0  0  0  0  0  0  0
   -7.3190   19.8920  -31.6640 C   0  0  0  0  0  0  0  0  0  0  0  0
   -6.7380   18.8870  -32.6240 C   0  0  0  0  0  0  0  0  0  0  0  0
   -6.0810   19.3000  -33.7920 C   0  0  0  0  0  0  0  0  0  0  0  0
   -5.5640   18.3480  -34.6740 C   0  0  0  0  0  0  0  0  0  0  0  0
   -5.7100   16.9920  -34.3800 C   0  0  0  0  0  0  0  0  0  0  0  0
   -6.3500   16.6060  -33.2450 N   0  0  0  0  0  0  0  0  0  0  0  0
   -6.8620   17.5120  -32.3700 C   0  0  0  0  0  0  0  0  0  0  0  0
   -6.2210   22.7050  -32.1490 C   0  0  0  0  0  0  0  0  0  0  0  0
   -5.0500   23.4140  -31.8660 C   0  0  0  0  0  0  0  0  0  0  0  0
   -3.2856   24.7074  -28.4507 H   0  0  0  0  0  0  0  0  0  0  0  0
   -2.5306   23.4853  -29.5293 H   0  0  0  0  0  0  0  0  0  0  0  0
   -1.9283   25.1776  -29.5293 H   0  0  0  0  0  0  0  0  0  0  0  0
   -5.9679   24.8246  -28.8885 H   0  0  0  0  0  0  0  0  0  0  0  0
   -8.0571   23.5614  -29.3925 H   0  0  0  0  0  0  0  0  0  0  0  0
   -9.0236   21.6654  -30.6010 H   0  0  0  0  0  0  0  0  0  0  0  0
   -9.2687   22.6259  -32.1051 H   0  0  0  0  0  0  0  0  0  0  0  0
  -10.0052   19.7583  -31.7779 H   0  0  0  0  0  0  0  0  0  0  0  0
  -10.1561   20.7121  -33.2925 H   0  0  0  0  0  0  0  0  0  0  0  0
   -9.2430   19.1652  -33.2925 H   0  0  0  0  0  0  0  0  0  0  0  0
   -6.5051   20.4895  -31.2274 H   0  0  0  0  0  0  0  0  0  0  0  0
   -7.8610   19.3571  -30.8702 H   0  0  0  0  0  0  0  0  0  0  0  0
   -5.9729   20.3721  -34.0134 H   0  0  0  0  0  0  0  0  0  0  0  0
   -5.0466   18.6645  -35.5917 H   0  0  0  0  0  0  0  0  0  0  0  0
   -5.3065   16.2343  -35.0678 H   0  0  0  0  0  0  0  0  0  0  0  0
   -7.3749   17.1665  -31.4603 H   0  0  0  0  0  0  0  0  0  0  0  0
   -6.2886   22.1037  -33.0676 H   0  0  0  0  0  0  0  0  0  0  0  0
   -4.2025   23.3690  -32.5658 H   0  0  0  0  0  0  0  0  0  0  0  0
  1  2  1  0
  2  3  1  0
  3  4  2  0
  4  5  1  0
  5  6  2  0
  6  7  1  0
  7  8  1  0
  8  9  1  0
  8 10  1  0
 10 11  1  0
 11 12  2  0
 12 13  1  0
 13 14  2  0
 14 15  1  0
 15 16  2  0
  6 17  1  0
 17 18  2  0
 18  3  1  0
 16 11  1  0
  1 19  1  0
  1 20  1  0
  1 21  1  0
  4 22  1  0
  5 23  1  0
  7 24  1  0
  7 25  1  0
  9 26  1  0
  9 27  1  0
  9 28  1  0
 10 29  1  0
 10 30  1  0
 12 31  1  0
 13 32  1  0
 14 33  1  0
 16 34  1  0
 17 35  1  0
 18 36  1  0
M  END
>  <UniqueID>  (18) 
18

>  <SMILES>  (18) 
COc1ccc(CN(C)Cc2cccnc2)cc1

>  <Energy>  (18) 
36.445551503155706

>  <Genealogy>  (18) 
COc1ccc(CN(C)Cc2cccnc2)cc1 (3D coordinates assigned)
COc1ccc(CN(C)Cc2cccnc2)cc1 (optimized conformer: 36.445551503155706 kcal/mol)

>  <smiles>  (18) 
COc1ccc(CN(C)Cc2cccnc2)cc1

>  <score_type>  (18) 
oracle

>  <origin>  (18) 
adgpu

>  <m_score__min__energy>  (18) 
-7.3099999999999996

>  <m_primary>  (18) 
energy

$$$$
18:0
     RDKit          3D

 35 37  0  0  0  0  0  0  0  0999 V2000
   -1.8350   25.6790  -28.8830 O   0  0  0  0  0  0  0  0  0  0  0  0
   -2.4810   24.6880  -29.3150 C   0  0  0  0  0  0  0  0  0  0  0  0
   -3.4980   24.9090  -30.3020 N   0  0  0  0  0  0  0  0  0  0  0  0
   -4.5410   23.9930  -30.6650 C   0  0  0  0  0  0  0  0  0  0  0  0
   -4.2380   22.9260  -31.5190 C   0  0  0  0  0  0  0  0  0  0  0  0
   -5.2280   22.0090  -31.8840 C   0  0  0  0  0  0  0  0  0  0  0  0
   -6.5360   22.1410  -31.3890 C   0  0  0  0  0  0  0  0  0  0  0  0
   -7.5570   21.1920  -31.7600 N   0  0  0  0  0  0  0  0  0  0  0  0
   -7.2130   19.8750  -31.9040 C   0  0  0  0  0  0  0  0  0  0  0  0
   -8.1680   18.9250  -32.2700 C   0  0  0  0  0  0  0  0  0  0  0  0
   -9.4840   19.3260  -32.4880 C   0  0  0  0  0  0  0  0  0  0  0  0
   -9.8320   20.6670  -32.3350 C   0  0  0  0  0  0  0  0  0  0  0  0
   -8.8540   21.5960  -31.9630 C   0  0  0  0  0  0  0  0  0  0  0  0
   -9.1860   22.8030  -31.8060 O   0  0  0  0  0  0  0  0  0  0  0  0
   -6.8320   23.1940  -30.5080 C   0  0  0  0  0  0  0  0  0  0  0  0
   -5.8420   24.1100  -30.1440 C   0  0  0  0  0  0  0  0  0  0  0  0
   -2.2180   23.3430  -28.7470 C   0  0  0  0  0  0  0  0  0  0  0  0
   -3.2630   22.6030  -28.1620 C   0  0  0  0  0  0  0  0  0  0  0  0
   -3.0190   21.3370  -27.6220 C   0  0  0  0  0  0  0  0  0  0  0  0
   -1.7310   20.8000  -27.6520 C   0  0  0  0  0  0  0  0  0  0  0  0
   -0.6830   21.5290  -28.2190 C   0  0  0  0  0  0  0  0  0  0  0  0
   -0.9200   22.7960  -28.7620 C   0  0  0  0  0  0  0  0  0  0  0  0
    0.1140   23.4750  -29.3230 F   0  0  0  0  0  0  0  0  0  0  0  0
   -3.2147   22.8084  -31.9052 H   0  0  0  0  0  0  0  0  0  0  0  0
   -4.9813   21.1793  -32.5628 H   0  0  0  0  0  0  0  0  0  0  0  0
   -6.1730   19.5619  -31.7295 H   0  0  0  0  0  0  0  0  0  0  0  0
   -7.8837   17.8686  -32.3853 H   0  0  0  0  0  0  0  0  0  0  0  0
  -10.2453   18.5876  -32.7796 H   0  0  0  0  0  0  0  0  0  0  0  0
  -10.8687   20.9928  -32.5056 H   0  0  0  0  0  0  0  0  0  0  0  0
   -7.8491   23.2981  -30.1023 H   0  0  0  0  0  0  0  0  0  0  0  0
   -6.0812   24.9265  -29.4467 H   0  0  0  0  0  0  0  0  0  0  0  0
   -4.2787   23.0240  -28.1296 H   0  0  0  0  0  0  0  0  0  0  0  0
   -3.8431   20.7632  -27.1729 H   0  0  0  0  0  0  0  0  0  0  0  0
   -1.5412   19.8025  -27.2290 H   0  0  0  0  0  0  0  0  0  0  0  0
    0.3319   21.1053  -28.2385 H   0  0  0  0  0  0  0  0  0  0  0  0
  1  2  2  0
  2  3  1  0
  3  4  1  0
  4  5  2  0
  5  6  1  0
  6  7  2  0
  7  8  1  0
  8  9  1  0
  9 10  2  0
 10 11  1  0
 11 12  2  0
 12 13  1  0
 13 14  2  0
  7 15  1  0
 15 16  2  0
  2 17  1  0
 17 18  2  0
 18 19  1  0
 19 20  2  0
 20 21  1  0
 21 22  2  0
 22 23  1  0
 16  4  1  0
 22 17  1  0
 13  8  1  0
  5 24  1  0
  6 25  1  0
  9 26  1  0
 10 27  1  0
 11 28  1  0
 12 29  1  0
 15 30  1  0
 16 31  1  0
 18 32  1  0
 19 33  1  0
 20 34  1  0
 21 35  1  0
M  CHG  1   3  -1
M  END
>  <UniqueID>  (19) 
19

>  <SMILES>  (19) 
O=C([N-]c1ccc(-n2ccccc2=O)cc1)c1ccccc1F

>  <Energy>  (19) 
54.523103725719686

>  <Genealogy>  (19) 
O=C([N-]c1ccc(-n2ccccc2=O)cc1)c1ccccc1F (protonated)
O=C([N-]c1ccc(-n2ccccc2=O)cc1)c1ccccc1F (3D coordinates assigned)
O=C([N-]c1ccc(-n2ccccc2=O)cc1)c1ccccc1F (optimized conformer: 54.523103725719686 kcal/mol)

>  <smiles>  (19) 
O=C(Nc1ccc(-n2ccccc2=O)cc1)c1ccccc1F

>  <score_type>  (19) 
oracle

>  <origin>  (19) 
adgpu

>  <m_score__min__energy>  (19) 
-9.8300000000000001

>  <m_primary>  (19) 
energy

$$$$
19:0
     RDKit          3D

 31 31  0  0  0  0  0  0  0  0999 V2000
   -5.2720   16.2030  -32.5740 C   0  0  0  0  0  0  0  0  0  0  0  0
   -6.2910   16.6000  -33.5750 N   0  0  0  0  0  0  0  0  0  0  0  0
   -5.6290   17.4190  -34.6190 C   0  0  0  0  0  0  0  0  0  0  0  0
   -6.8520   15.3870  -34.2170 C   0  0  0  0  0  0  0  0  0  0  0  0
   -7.3680   17.4220  -32.9480 C   0  0  0  0  0  0  0  0  0  0  0  0
   -6.8810   18.7120  -32.3320 C   0  0  0  0  0  0  0  0  0  0  0  0
   -6.1700   18.6690  -31.2900 O   0  0  0  0  0  0  0  0  0  0  0  0
   -7.2000   19.9710  -32.9470 N   0  0  0  0  0  0  0  0  0  0  0  0
   -6.8760   21.2510  -32.3790 C   0  0  0  0  0  0  0  0  0  0  0  0
   -5.5510   21.7220  -32.3350 C   0  0  0  0  0  0  0  0  0  0  0  0
   -5.2600   22.9600  -31.7550 C   0  0  0  0  0  0  0  0  0  0  0  0
   -6.2860   23.7340  -31.2010 C   0  0  0  0  0  0  0  0  0  0  0  0
   -5.9180   25.2860  -30.4720 Cl  0  0  0  0  0  0  0  0  0  0  0  0
   -7.6010   23.2620  -31.2200 C   0  0  0  0  0  0  0  0  0  0  0  0
   -7.8950   22.0240  -31.7990 C   0  0  0  0  0  0  0  0  0  0  0  0
   -5.6724   16.3590  -31.5614 H   0  0  0  0  0  0  0  0  0  0  0  0
   -5.0198   15.1408  -32.7089 H   0  0  0  0  0  0  0  0  0  0  0  0
   -4.3677   16.8146  -32.7089 H   0  0  0  0  0  0  0  0  0  0  0  0
   -5.0063   18.1894  -34.1406 H   0  0  0  0  0  0  0  0  0  0  0  0
   -4.9963   16.7730  -35.2454 H   0  0  0  0  0  0  0  0  0  0  0  0
   -6.3933   17.9022  -35.2454 H   0  0  0  0  0  0  0  0  0  0  0  0
   -7.1792   14.6794  -33.4409 H   0  0  0  0  0  0  0  0  0  0  0  0
   -7.7117   15.6678  -34.8432 H   0  0  0  0  0  0  0  0  0  0  0  0
   -6.0813   14.9138  -34.8432 H   0  0  0  0  0  0  0  0  0  0  0  0
   -8.1098   17.6676  -33.7222 H   0  0  0  0  0  0  0  0  0  0  0  0
   -7.7902   16.8200  -32.1299 H   0  0  0  0  0  0  0  0  0  0  0  0
   -7.6060   19.9550  -33.9090 H   0  0  0  0  0  0  0  0  0  0  0  0
   -4.7395   21.1126  -32.7594 H   0  0  0  0  0  0  0  0  0  0  0  0
   -4.2231   23.3265  -31.7340 H   0  0  0  0  0  0  0  0  0  0  0  0
   -8.4071   23.8662  -30.7782 H   0  0  0  0  0  0  0  0  0  0  0  0
   -8.9306   21.6531  -31.8003 H   0  0  0  0  0  0  0  0  0  0  0  0
  1  2  1  0
  2  3  1  0
  2  4  1  0
  2  5  1  0
  5  6  1  0
  6  7  2  0
  6  8  1  0
  8  9  1  0
  9 10  2  0
 10 11  1  0
 11 12  2  0
 12 13  1  0
 12 14  1  0
 14 15  2  0
 15  9  1  0
  1 16  1  0
  1 17  1  0
  1 18  1  0
  3 19  1  0
  3 20  1  0
  3 21  1  0
  4 22  1  0
  4 23  1  0
  4 24  1  0
  5 25  1  0
  5 26  1  0
  8 27  1  0
 10 28  1  0
 11 29  1  0
 14 30  1  0
 15 31  1  0
M  CHG  1   2   1
M  END
>  <UniqueID>  (20) 
20

>  <SMILES>  (20) 
C[N+](C)(C)CC(=O)Nc1ccc(Cl)cc1

>  <Energy>  (20) 
36.51329199981345

>  <Genealogy>  (20) 
C[N+](C)(C)CC(=O)Nc1ccc(Cl)cc1 (3D coordinates assigned)
C[N+](C)(C)CC(=O)Nc1ccc(Cl)cc1 (optimized conformer: 36.51329199981345 kcal/mol)

>  <smiles>  (20) 
C[N+](C)(C)CC(=O)Nc1ccc(Cl)cc1

>  <score_type>  (20) 
oracle

>  <origin>  (20) 
adgpu

>  <m_score__min__energy>  (20) 
-5.0999999999999996

>  <m_primary>  (20) 
energy

$$$$
20:0
     RDKit          3D

 32 34  0  0  0  0  0  0  0  0999 V2000
   -4.9300   24.5450  -28.7720 C   0  0  0  0  0  0  0  0  0  0  0  0
   -4.6520   23.9320  -30.1060 C   0  0  0  0  0  0  0  0  0  0  0  0
   -4.2650   24.6640  -31.0570 O   0  0  0  0  0  0  0  0  0  0  0  0
   -4.9060   22.5380  -30.3170 N   0  0  0  0  0  0  0  0  0  0  0  0
   -4.6110   21.8820  -31.5580 C   0  0  0  0  0  0  0  0  0  0  0  0
   -5.5190   21.2280  -32.3820 C   0  0  0  0  0  0  0  0  0  0  0  0
   -6.9930   21.1970  -32.2550 C   0  0  0  0  0  0  0  0  0  0  0  0
   -7.7210   20.0130  -32.4760 C   0  0  0  0  0  0  0  0  0  0  0  0
   -9.1130   20.0030  -32.3390 C   0  0  0  0  0  0  0  0  0  0  0  0
   -9.7890   21.1690  -31.9740 C   0  0  0  0  0  0  0  0  0  0  0  0
   -9.0750   22.3450  -31.7360 C   0  0  0  0  0  0  0  0  0  0  0  0
   -7.6830   22.3600  -31.8700 C   0  0  0  0  0  0  0  0  0  0  0  0
   -4.8470   20.5810  -33.3680 N   0  0  0  0  0  0  0  0  0  0  0  0
   -3.5510   20.8570  -33.1080 C   0  0  0  0  0  0  0  0  0  0  0  0
   -2.4600   20.3770  -33.8320 C   0  0  0  0  0  0  0  0  0  0  0  0
   -1.1760   20.7130  -33.3760 C   0  0  0  0  0  0  0  0  0  0  0  0
   -1.0150   21.4940  -32.2160 C   0  0  0  0  0  0  0  0  0  0  0  0
   -2.1480   21.9450  -31.5240 C   0  0  0  0  0  0  0  0  0  0  0  0
   -3.3740   21.6270  -32.0190 N   0  0  0  0  0  0  0  0  0  0  0  0
   -4.6158   23.8522  -27.9775 H   0  0  0  0  0  0  0  0  0  0  0  0
   -4.3715   25.4880  -28.6782 H   0  0  0  0  0  0  0  0  0  0  0  0
   -6.0074   24.7461  -28.6782 H   0  0  0  0  0  0  0  0  0  0  0  0
   -5.4530   22.0140  -29.5990 H   0  0  0  0  0  0  0  0  0  0  0  0
   -7.1925   19.0904  -32.7580 H   0  0  0  0  0  0  0  0  0  0  0  0
   -9.6759   19.0753  -32.5191 H   0  0  0  0  0  0  0  0  0  0  0  0
  -10.8844   21.1610  -31.8739 H   0  0  0  0  0  0  0  0  0  0  0  0
   -9.6083   23.2613  -31.4426 H   0  0  0  0  0  0  0  0  0  0  0  0
   -7.1247   23.2871  -31.6730 H   0  0  0  0  0  0  0  0  0  0  0  0
   -2.6010   19.7566  -34.7293 H   0  0  0  0  0  0  0  0  0  0  0  0
   -0.2907   20.3642  -33.9280 H   0  0  0  0  0  0  0  0  0  0  0  0
   -0.0076   21.7486  -31.8550 H   0  0  0  0  0  0  0  0  0  0  0  0
   -2.0478   22.5406  -30.6046 H   0  0  0  0  0  0  0  0  0  0  0  0
  1  2  1  0
  2  3  2  0
  2  4  1  0
  4  5  1  0
  5  6  2  0
  6  7  1  0
  7  8  2  0
  8  9  1  0
  9 10  2  0
 10 11  1  0
 11 12  2  0
  6 13  1  0
 13 14  2  0
 14 15  1  0
 15 16  2  0
 16 17  1  0
 17 18  2  0
 18 19  1  0
 19  5  1  0
 12  7  1  0
 19 14  1  0
  1 20  1  0
  1 21  1  0
  1 22  1  0
  4 23  1  0
  8 24  1  0
  9 25  1  0
 10 26  1  0
 11 27  1  0
 12 28  1  0
 15 29  1  0
 16 30  1  0
 17 31  1  0
 18 32  1  0
M  END
>  <UniqueID>  (21) 
21

>  <SMILES>  (21) 
CC(=O)Nc1c(-c2ccccc2)nc2ccccn12

>  <Energy>  (21) 
76.17689372669848

>  <Genealogy>  (21) 
CC(=O)Nc1c(-c2ccccc2)nc2ccccn12 (3D coordinates assigned)
CC(=O)Nc1c(-c2ccccc2)nc2ccccn12 (optimized conformer: 76.17689372669848 kcal/mol)

>  <smiles>  (21) 
CC(=O)Nc1c(-c2ccccc2)nc2ccccn12

>  <score_type>  (21) 
oracle

>  <origin>  (21) 
adgpu

>  <m_score__min__energy>  (21) 
-7.2999999999999998

>  <m_primary>  (21) 
energy

$$$$
21:0
     RDKit          3D

 36 38  0  0  0  0  0  0  0  0999 V2000
   -3.1960   24.4420  -27.8820 O   0  0  0  0  0  0  0  0  0  0  0  0
   -2.4160   24.5850  -29.1580 S   0  0  0  0  0  0  0  0  0  0  0  0
   -1.3820   25.6610  -28.9720 O   0  0  0  0  0  0  0  0  0  0  0  0
   -3.4940   25.0420  -30.4370 N   0  0  0  0  0  0  0  0  0  0  0  0
   -4.8100   24.5090  -30.6360 C   0  0  0  0  0  0  0  0  0  0  0  0
   -5.8650   25.0300  -29.8790 C   0  0  0  0  0  0  0  0  0  0  0  0
   -7.1680   24.5570  -30.0600 C   0  0  0  0  0  0  0  0  0  0  0  0
   -7.4240   23.5550  -30.9970 C   0  0  0  0  0  0  0  0  0  0  0  0
   -6.3780   23.0300  -31.7740 C   0  0  0  0  0  0  0  0  0  0  0  0
   -6.6000   22.0200  -32.7200 O   0  0  0  0  0  0  0  0  0  0  0  0
   -7.1000   20.7420  -32.4360 C   0  0  0  0  0  0  0  0  0  0  0  0
   -8.4740   20.5060  -32.2310 C   0  0  0  0  0  0  0  0  0  0  0  0
   -8.9340   19.2110  -31.9770 C   0  0  0  0  0  0  0  0  0  0  0  0
   -8.0360   18.1430  -31.9390 C   0  0  0  0  0  0  0  0  0  0  0  0
   -6.6740   18.3670  -32.1590 C   0  0  0  0  0  0  0  0  0  0  0  0
   -6.2080   19.6620  -32.4020 C   0  0  0  0  0  0  0  0  0  0  0  0
   -5.0750   23.4980  -31.5790 C   0  0  0  0  0  0  0  0  0  0  0  0
   -1.6620   23.0430  -29.5440 C   0  0  0  0  0  0  0  0  0  0  0  0
   -2.0360   22.3180  -30.6800 C   0  0  0  0  0  0  0  0  0  0  0  0
   -1.4350   21.0860  -30.9490 C   0  0  0  0  0  0  0  0  0  0  0  0
   -0.4600   20.5980  -30.0800 C   0  0  0  0  0  0  0  0  0  0  0  0
   -0.1090   21.3140  -28.9800 N   0  0  0  0  0  0  0  0  0  0  0  0
   -0.6850   22.5140  -28.6960 C   0  0  0  0  0  0  0  0  0  0  0  0
   -5.6678   25.8172  -29.1364 H   0  0  0  0  0  0  0  0  0  0  0  0
   -7.9922   24.9750  -29.4633 H   0  0  0  0  0  0  0  0  0  0  0  0
   -8.4480   23.1751  -31.1276 H   0  0  0  0  0  0  0  0  0  0  0  0
   -9.1864   21.3432  -32.2710 H   0  0  0  0  0  0  0  0  0  0  0  0
  -10.0060   19.0330  -31.8067 H   0  0  0  0  0  0  0  0  0  0  0  0
   -8.4002   17.1251  -31.7359 H   0  0  0  0  0  0  0  0  0  0  0  0
   -5.9683   17.5234  -32.1409 H   0  0  0  0  0  0  0  0  0  0  0  0
   -5.1343   19.8345  -32.5676 H   0  0  0  0  0  0  0  0  0  0  0  0
   -4.2493   23.0722  -32.1679 H   0  0  0  0  0  0  0  0  0  0  0  0
   -2.8023   22.7173  -31.3607 H   0  0  0  0  0  0  0  0  0  0  0  0
   -1.7279   20.5069  -31.8372 H   0  0  0  0  0  0  0  0  0  0  0  0
    0.0255   19.6325  -30.2852 H   0  0  0  0  0  0  0  0  0  0  0  0
   -0.3807   23.0691  -27.7964 H   0  0  0  0  0  0  0  0  0  0  0  0
  1  2  2  0
  2  3  2  0
  2  4  1  0
  4  5  1  0
  5  6  2  0
  6  7  1  0
  7  8  2  0
  8  9  1  0
  9 10  1  0
 10 11  1  0
 11 12  2  0
 12 13  1  0
 13 14  2  0
 14 15  1  0
 15 16  2  0
  9 17  2  0
  2 18  1  0
 18 19  2  0
 19 20  1  0
 20 21  2  0
 21 22  1  0
 22 23  2  0
 17  5  1  0
 23 18  1  0
 16 11  1  0
  6 24  1  0
  7 25  1  0
  8 26  1  0
 12 27  1  0
 13 28  1  0
 14 29  1  0
 15 30  1  0
 16 31  1  0
 17 32  1  0
 19 33  1  0
 20 34  1  0
 21 35  1  0
 23 36  1  0
M  CHG  1   4  -1
M  END
>  <UniqueID>  (22) 
22

>  <SMILES>  (22) 
O=S(=O)([N-]c1cccc(Oc2ccccc2)c1)c1cccnc1

>  <Energy>  (22) 
49.581766689637064

>  <Genealogy>  (22) 
O=S(=O)([N-]c1cccc(Oc2ccccc2)c1)c1cccnc1 (protonated)
O=S(=O)([N-]c1cccc(Oc2ccccc2)c1)c1cccnc1 (3D coordinates assigned)
O=S(=O)([N-]c1cccc(Oc2ccccc2)c1)c1cccnc1 (optimized conformer: 49.581766689637064 kcal/mol)

>  <smiles>  (22) 
O=S(=O)(Nc1cccc(Oc2ccccc2)c1)c1cccnc1

>  <score_type>  (22) 
oracle

>  <origin>  (22) 
adgpu

>  <m_score__min__energy>  (22) 
-9.8699999999999992

>  <m_primary>  (22) 
energy

$$$$
22:0
     RDKit          3D

 28 29  0  0  0  0  0  0  0  0999 V2000
   -6.4980   19.6300  -34.6200 F   0  0  0  0  0  0  0  0  0  0  0  0
   -5.9480   18.6640  -33.7970 C   0  0  0  0  0  0  0  0  0  0  0  0
   -5.7380   17.5130  -34.5310 F   0  0  0  0  0  0  0  0  0  0  0  0
   -4.7350   19.1120  -33.3050 F   0  0  0  0  0  0  0  0  0  0  0  0
   -7.0840   18.2900  -32.4200 S   0  0  0  0  0  0  0  0  0  0  0  0
   -7.6660   19.9780  -32.2330 C   0  0  0  0  0  0  0  0  0  0  0  0
   -9.0150   20.2280  -31.9590 C   0  0  0  0  0  0  0  0  0  0  0  0
   -9.4660   21.5400  -31.8040 C   0  0  0  0  0  0  0  0  0  0  0  0
   -8.5710   22.6080  -31.9160 C   0  0  0  0  0  0  0  0  0  0  0  0
   -7.2080   22.3710  -32.1810 C   0  0  0  0  0  0  0  0  0  0  0  0
   -6.2550   23.4460  -32.2980 N   0  0  0  0  0  0  0  0  0  0  0  0
   -6.1340   24.5500  -31.3450 C   0  0  0  0  0  0  0  0  0  0  0  0
   -4.9990   24.3040  -30.4020 C   0  0  0  0  0  0  0  0  0  0  0  0
   -5.0110   23.4290  -29.3350 C   0  0  0  0  0  0  0  0  0  0  0  0
   -3.7670   23.5420  -28.7520 C   0  0  0  0  0  0  0  0  0  0  0  0
   -3.0790   24.4790  -29.4950 C   0  0  0  0  0  0  0  0  0  0  0  0
   -3.8400   24.9170  -30.4700 O   0  0  0  0  0  0  0  0  0  0  0  0
   -6.7670   21.0460  -32.3360 C   0  0  0  0  0  0  0  0  0  0  0  0
   -9.7211   19.3897  -31.8656 H   0  0  0  0  0  0  0  0  0  0  0  0
  -10.5281   21.7339  -31.5933 H   0  0  0  0  0  0  0  0  0  0  0  0
   -8.9333   23.6397  -31.7965 H   0  0  0  0  0  0  0  0  0  0  0  0
   -5.5920   23.4400  -33.1050 H   0  0  0  0  0  0  0  0  0  0  0  0
   -5.9519   25.4851  -31.8950 H   0  0  0  0  0  0  0  0  0  0  0  0
   -7.0671   24.6262  -30.7675 H   0  0  0  0  0  0  0  0  0  0  0  0
   -5.8389   22.7784  -29.0167 H   0  0  0  0  0  0  0  0  0  0  0  0
   -3.3974   22.9953  -27.8719 H   0  0  0  0  0  0  0  0  0  0  0  0
   -2.0481   24.8091  -29.2995 H   0  0  0  0  0  0  0  0  0  0  0  0
   -5.7048   20.8460  -32.5403 H   0  0  0  0  0  0  0  0  0  0  0  0
  1  2  1  0
  2  3  1  0
  2  4  1  0
  2  5  1  0
  5  6  1  0
  6  7  2  0
  7  8  1  0
  8  9  2  0
  9 10  1  0
 10 11  1  0
 11 12  1  0
 12 13  1  0
 13 14  2  0
 14 15  1  0
 15 16  2  0
 16 17  1  0
 10 18  2  0
 18  6  1  0
 17 13  1  0
  7 19  1  0
  8 20  1  0
  9 21  1  0
 11 22  1  0
 12 23  1  0
 12 24  1  0
 14 25  1  0
 15 26  1  0
 16 27  1  0
 18 28  1  0
M  END
>  <UniqueID>  (23) 
23

>  <SMILES>  (23) 
FC(F)(F)Sc1cccc(NCc2ccco2)c1

>  <Energy>  (23) 
48.815454838235276

>  <Genealogy>  (23) 
FC(F)(F)Sc1cccc(NCc2ccco2)c1 (3D coordinates assigned)
FC(F)(F)Sc1cccc(NCc2ccco2)c1 (optimized conformer: 48.815454838235276 kcal/mol)

>  <smiles>  (23) 
FC(F)(F)Sc1cccc(NCc2ccco2)c1

>  <score_type>  (23) 
oracle

>  <origin>  (23) 
adgpu

>  <m_score__min__energy>  (23) 
-7.0599999999999996

>  <m_primary>  (23) 
energy

$$$$
23:0
     RDKit          3D

 34 37  0  0  0  0  0  0  0  0999 V2000
   -7.6720   23.6330  -30.0990 H   0  0  0  0  0  0  0  0  0  0  0  0
   -7.0470   24.4470  -29.9090 N   0  0  0  0  0  0  0  0  0  0  0  0
   -5.8080   24.4840  -30.2870 C   0  0  0  0  0  0  0  0  0  0  0  0
   -5.0990   23.5210  -30.9790 C   0  0  0  0  0  0  0  0  0  0  0  0
   -5.5310   22.1590  -31.3760 C   0  0  0  0  0  0  0  0  0  0  0  0
   -6.8610   21.9370  -31.5400 N   0  0  0  0  0  0  0  0  0  0  0  0
   -7.3550   20.7140  -31.8490 C   0  0  0  0  0  0  0  0  0  0  0  0
   -8.7370   20.5290  -32.0160 C   0  0  0  0  0  0  0  0  0  0  0  0
   -9.8570   21.8730  -31.8380 Cl  0  0  0  0  0  0  0  0  0  0  0  0
   -9.2370   19.2590  -32.3290 C   0  0  0  0  0  0  0  0  0  0  0  0
  -10.3193   19.1127  -32.4603 H   0  0  0  0  0  0  0  0  0  0  0  0
   -8.3650   18.1770  -32.4750 C   0  0  0  0  0  0  0  0  0  0  0  0
   -8.7634   17.1814  -32.7199 H   0  0  0  0  0  0  0  0  0  0  0  0
   -6.9880   18.3550  -32.3110 C   0  0  0  0  0  0  0  0  0  0  0  0
   -6.3056   17.5002  -32.4282 H   0  0  0  0  0  0  0  0  0  0  0  0
   -6.4740   19.6270  -31.9960 C   0  0  0  0  0  0  0  0  0  0  0  0
   -5.0980   19.8600  -31.8280 C   0  0  0  0  0  0  0  0  0  0  0  0
   -4.2810   18.9060  -31.9740 O   0  0  0  0  0  0  0  0  0  0  0  0
   -4.6420   21.1180  -31.5230 N   0  0  0  0  0  0  0  0  0  0  0  0
   -3.2200   21.3380  -31.4190 C   0  0  0  0  0  0  0  0  0  0  0  0
   -2.4170   21.3290  -32.5700 C   0  0  0  0  0  0  0  0  0  0  0  0
   -2.8725   21.1517  -33.5554 H   0  0  0  0  0  0  0  0  0  0  0  0
   -1.0390   21.5450  -32.4670 C   0  0  0  0  0  0  0  0  0  0  0  0
   -0.4131   21.5402  -33.3716 H   0  0  0  0  0  0  0  0  0  0  0  0
   -0.4560   21.7670  -31.2160 C   0  0  0  0  0  0  0  0  0  0  0  0
    0.6277   21.9385  -31.1367 H   0  0  0  0  0  0  0  0  0  0  0  0
   -1.2510   21.7710  -30.0650 C   0  0  0  0  0  0  0  0  0  0  0  0
   -0.7913   21.9429  -29.0806 H   0  0  0  0  0  0  0  0  0  0  0  0
   -2.6280   21.5570  -30.1640 C   0  0  0  0  0  0  0  0  0  0  0  0
   -3.2503   21.5600  -29.2569 H   0  0  0  0  0  0  0  0  0  0  0  0
   -3.8600   24.0220  -31.1730 N   0  0  0  0  0  0  0  0  0  0  0  0
   -3.8570   25.2110  -30.6320 O   0  0  0  0  0  0  0  0  0  0  0  0
   -4.9960   25.5300  -30.0900 N   0  0  0  0  0  0  0  0  0  0  0  0
   -5.2130   26.4320  -29.6110 H   0  0  0  0  0  0  0  0  0  0  0  0
  1  2  1  0
  2  3  2  0
  3  4  1  0
  4  5  1  0
  5  6  2  0
  6  7  1  0
  7  8  2  0
  8  9  1  0
  8 10  1  0
 10 11  1  0
 10 12  2  0
 12 13  1  0
 12 14  1  0
 14 15  1  0
 14 16  2  0
 16 17  1  0
 17 18  2  0
 17 19  1  0
 19 20  1  0
 20 21  2  0
 21 22  1  0
 21 23  1  0
 23 24  1  0
 23 25  2  0
 25 26  1  0
 25 27  1  0
 27 28  1  0
 27 29  2  0
 29 30  1  0
  4 31  2  0
 31 32  1  0
 32 33  1  0
 33 34  1  0
 33  3  1  0
 19  5  1  0
 29 20  1  0
 16  7  1  0
M  END
>  <UniqueID>  (24) 
24

>  <SMILES>  (24) 
[H]/N=c1/[nH]onc1-c1nc2c(Cl)cccc2c(=O)n1-c1ccccc1

>  <Energy>  (24) 
95.67698328414558

>  <Genealogy>  (24) 
[H]/N=c1/[nH]onc1-c1nc2c(Cl)cccc2c(=O)n1-c1ccccc1 (cis-trans isomerization)
[H]/N=c1/[nH]onc1-c1nc2c(Cl)cccc2c(=O)n1-c1ccccc1 (3D coordinates assigned)
[H]/N=c1/[nH]onc1-c1nc2c(Cl)cccc2c(=O)n1-c1ccccc1 (optimized conformer: 95.67698328414558 kcal/mol)

>  <smiles>  (24) 
N=c1[nH]onc1-c1nc2c(Cl)cccc2c(=O)n1-c1ccccc1

>  <score_type>  (24) 
oracle

>  <origin>  (24) 
adgpu

>  <m_score__min__energy>  (24) 
-9.5099999999999998

>  <m_primary>  (24) 
energy

$$$$
24:0
     RDKit          3D

 19 19  0  0  0  0  0  0  0  0999 V2000
   -3.1620   24.1760  -27.7940 C   0  0  0  0  0  0  0  0  0  0  0  0
   -2.3450   24.3520  -29.0630 C   0  0  0  0  0  0  0  0  0  0  0  0
   -3.1590   24.9360  -30.0770 O   0  0  0  0  0  0  0  0  0  0  0  0
   -4.4670   24.5290  -30.3740 C   0  0  0  0  0  0  0  0  0  0  0  0
   -4.7450   23.4220  -31.2010 C   0  0  0  0  0  0  0  0  0  0  0  0
   -6.0700   23.0580  -31.4660 C   0  0  0  0  0  0  0  0  0  0  0  0
   -7.1230   23.7910  -30.9140 C   0  0  0  0  0  0  0  0  0  0  0  0
   -6.8540   24.8910  -30.0950 C   0  0  0  0  0  0  0  0  0  0  0  0
   -5.5310   25.2580  -29.8270 C   0  0  0  0  0  0  0  0  0  0  0  0
   -2.5124   24.3159  -26.9174 H   0  0  0  0  0  0  0  0  0  0  0  0
   -3.9716   24.9203  -27.7730 H   0  0  0  0  0  0  0  0  0  0  0  0
   -3.5934   23.1643  -27.7730 H   0  0  0  0  0  0  0  0  0  0  0  0
   -1.4871   25.0093  -28.8582 H   0  0  0  0  0  0  0  0  0  0  0  0
   -1.9831   23.3709  -29.4042 H   0  0  0  0  0  0  0  0  0  0  0  0
   -3.9187   22.8430  -31.6390 H   0  0  0  0  0  0  0  0  0  0  0  0
   -6.2827   22.1924  -32.1106 H   0  0  0  0  0  0  0  0  0  0  0  0
   -8.1636   23.5026  -31.1238 H   0  0  0  0  0  0  0  0  0  0  0  0
   -7.6833   25.4687  -29.6608 H   0  0  0  0  0  0  0  0  0  0  0  0
   -5.3246   26.1250  -29.1823 H   0  0  0  0  0  0  0  0  0  0  0  0
  1  2  1  0
  2  3  1  0
  3  4  1  0
  4  5  2  0
  5  6  1  0
  6  7  2  0
  7  8  1  0
  8  9  2  0
  9  4  1  0
  1 10  1  0
  1 11  1  0
  1 12  1  0
  2 13  1  0
  2 14  1  0
  5 15  1  0
  6 16  1  0
  7 17  1  0
  8 18  1  0
  9 19  1  0
M  END
>  <UniqueID>  (25) 
25

>  <SMILES>  (25) 
CCOc1ccccc1

>  <Energy>  (25) 
13.743025869034124

>  <Genealogy>  (25) 
CCOc1ccccc1 (3D coordinates assigned)
CCOc1ccccc1 (optimized conformer: 13.743025869034124 kcal/mol)

>  <smiles>  (25) 
CCOc1ccccc1

>  <score_type>  (25) 
oracle

>  <origin>  (25) 
adgpu

>  <m_score__min__energy>  (25) 
-4.4100000000000001

>  <m_primary>  (25) 
energy

$$$$
25:0
     RDKit          3D

 22 23  0  0  0  0  0  0  0  0999 V2000
   -2.9610   24.4800  -27.3790 C   0  0  0  0  0  0  0  0  0  0  0  0
   -2.1070   24.6970  -28.9700 S   0  0  0  0  0  0  0  0  0  0  0  0
   -3.6120   24.5450  -29.9260 C   0  0  0  0  0  0  0  0  0  0  0  0
   -4.2370   25.6020  -30.4810 N   0  0  0  0  0  0  0  0  0  0  0  0
   -5.3030   25.0590  -31.0950 C   0  0  0  0  0  0  0  0  0  0  0  0
   -5.2930   23.6920  -30.8970 C   0  0  0  0  0  0  0  0  0  0  0  0
   -6.2800   22.7030  -31.3970 C   0  0  0  0  0  0  0  0  0  0  0  0
   -7.6280   22.7980  -31.0020 C   0  0  0  0  0  0  0  0  0  0  0  0
   -8.5700   21.8740  -31.4650 C   0  0  0  0  0  0  0  0  0  0  0  0
   -8.1790   20.8470  -32.3260 C   0  0  0  0  0  0  0  0  0  0  0  0
   -6.8450   20.7410  -32.7260 C   0  0  0  0  0  0  0  0  0  0  0  0
   -5.8990   21.6610  -32.2660 C   0  0  0  0  0  0  0  0  0  0  0  0
   -4.2180   23.3630  -30.1540 N   0  0  0  0  0  0  0  0  0  0  0  0
   -2.2539   24.6597  -26.5558 H   0  0  0  0  0  0  0  0  0  0  0  0
   -3.7940   25.1950  -27.3095 H   0  0  0  0  0  0  0  0  0  0  0  0
   -3.3516   23.4541  -27.3095 H   0  0  0  0  0  0  0  0  0  0  0  0
   -6.0623   25.6150  -31.6644 H   0  0  0  0  0  0  0  0  0  0  0  0
   -7.9426   23.6051  -30.3241 H   0  0  0  0  0  0  0  0  0  0  0  0
   -9.6208   21.9565  -31.1503 H   0  0  0  0  0  0  0  0  0  0  0  0
   -8.9215   20.1213  -32.6894 H   0  0  0  0  0  0  0  0  0  0  0  0
   -6.5383   19.9315  -33.4047 H   0  0  0  0  0  0  0  0  0  0  0  0
   -4.8499   21.5712  -32.5843 H   0  0  0  0  0  0  0  0  0  0  0  0
  1  2  1  0
  2  3  1  0
  3  4  2  0
  4  5  1  0
  5  6  2  0
  6  7  1  0
  7  8  2  0
  8  9  1  0
  9 10  2  0
 10 11  1  0
 11 12  2  0
  6 13  1  0
 13  3  1  0
 12  7  1  0
  1 14  1  0
  1 15  1  0
  1 16  1  0
  5 17  1  0
  8 18  1  0
  9 19  1  0
 10 20  1  0
 11 21  1  0
 12 22  1  0
M  CHG  1  13  -1
M  END
>  <UniqueID>  (26) 
26

>  <SMILES>  (26) 
CSc1ncc(-c2ccccc2)[n-]1

>  <Energy>  (26) 
47.40003258406698

>  <Genealogy>  (26) 
CSc1ncc(-c2ccccc2)[n-]1 (protonated)
CSc1ncc(-c2ccccc2)[n-]1 (3D coordinates assigned)
CSc1ncc(-c2ccccc2)[n-]1 (optimized conformer: 47.40003258406698 kcal/mol)

>  <smiles>  (26) 
CSc1ncc(-c2ccccc2)[nH]1

>  <score_type>  (26) 
oracle

>  <origin>  (26) 
adgpu

>  <m_score__min__energy>  (26) 
-7

>  <m_primary>  (26) 
energy

$$$$
26:0
     RDKit          3D

 25 26  0  0  0  0  0  0  0  0999 V2000
   -2.8650   22.9260  -27.5980 C   0  0  0  0  0  0  0  0  0  0  0  0
   -3.5280   23.6350  -28.7450 C   0  0  0  0  0  0  0  0  0  0  0  0
   -4.8560   23.3410  -29.0860 C   0  0  0  0  0  0  0  0  0  0  0  0
   -5.4800   24.0150  -30.1480 C   0  0  0  0  0  0  0  0  0  0  0  0
   -6.8080   23.7580  -30.5200 O   0  0  0  0  0  0  0  0  0  0  0  0
   -7.3060   22.5210  -30.9570 C   0  0  0  0  0  0  0  0  0  0  0  0
   -8.5550   22.0970  -30.4910 C   0  0  0  0  0  0  0  0  0  0  0  0
   -9.0900   20.8780  -30.9130 C   0  0  0  0  0  0  0  0  0  0  0  0
   -8.3870   20.0730  -31.8170 C   0  0  0  0  0  0  0  0  0  0  0  0
   -9.0920   18.5450  -32.3250 Cl  0  0  0  0  0  0  0  0  0  0  0  0
   -7.1410   20.5010  -32.3060 C   0  0  0  0  0  0  0  0  0  0  0  0
   -6.2330   19.5300  -33.4580 Cl  0  0  0  0  0  0  0  0  0  0  0  0
   -6.6090   21.7240  -31.8820 C   0  0  0  0  0  0  0  0  0  0  0  0
   -4.7680   25.0080  -30.8240 C   0  0  0  0  0  0  0  0  0  0  0  0
   -3.4870   25.2940  -30.4730 N   0  0  0  0  0  0  0  0  0  0  0  0
   -2.8540   24.6400  -29.4620 C   0  0  0  0  0  0  0  0  0  0  0  0
   -1.6670   24.9470  -29.1760 O   0  0  0  0  0  0  0  0  0  0  0  0
   -3.2439   23.3312  -26.6481 H   0  0  0  0  0  0  0  0  0  0  0  0
   -3.0889   21.8504  -27.6531 H   0  0  0  0  0  0  0  0  0  0  0  0
   -1.7769   23.0773  -27.6531 H   0  0  0  0  0  0  0  0  0  0  0  0
   -5.4112   22.5792  -28.5191 H   0  0  0  0  0  0  0  0  0  0  0  0
   -9.1191   22.7275  -29.7880 H   0  0  0  0  0  0  0  0  0  0  0  0
  -10.0685   20.5489  -30.5332 H   0  0  0  0  0  0  0  0  0  0  0  0
   -5.6394   22.0639  -32.2749 H   0  0  0  0  0  0  0  0  0  0  0  0
   -5.2468   25.5616  -31.6451 H   0  0  0  0  0  0  0  0  0  0  0  0
  1  2  1  0
  2  3  2  0
  3  4  1  0
  4  5  1  0
  5  6  1  0
  6  7  2  0
  7  8  1  0
  8  9  2  0
  9 10  1  0
  9 11  1  0
 11 12  1  0
 11 13  2  0
  4 14  2  0
 14 15  1  0
 15 16  1  0
 16 17  2  0
 16  2  1  0
 13  6  1  0
  1 18  1  0
  1 19  1  0
  1 20  1  0
  3 21  1  0
  7 22  1  0
  8 23  1  0
 13 24  1  0
 14 25  1  0
M  CHG  1  15  -1
M  END
>  <UniqueID>  (27) 
27

>  <SMILES>  (27) 
Cc1cc(Oc2ccc(Cl)c(Cl)c2)c[n-]c1=O

>  <Energy>  (27) 
33.84911783719486

>  <Genealogy>  (27) 
Cc1cc(Oc2ccc(Cl)c(Cl)c2)c[n-]c1=O (protonated)
Cc1cc(Oc2ccc(Cl)c(Cl)c2)c[n-]c1=O (3D coordinates assigned)
Cc1cc(Oc2ccc(Cl)c(Cl)c2)c[n-]c1=O (optimized conformer: 33.84911783719486 kcal/mol)

>  <smiles>  (27) 
Cc1cc(Oc2ccc(Cl)c(Cl)c2)c[nH]c1=O

>  <score_type>  (27) 
oracle

>  <origin>  (27) 
adgpu

>  <m_score__min__energy>  (27) 
-9.1899999999999995

>  <m_primary>  (27) 
energy

$$$$
27:0
     RDKit          3D

 47 51  0  0  0  0  0  0  0  0999 V2000
   -6.7690   16.5610  -34.2290 C   0  0  0  0  0  0  0  0  0  0  0  0
   -6.5100   17.4740  -33.1020 N   0  0  0  0  0  0  0  0  0  0  0  0
   -5.7320   18.6480  -33.5790 C   0  0  0  0  0  0  0  0  0  0  0  0
   -5.7700   19.8160  -32.5850 C   0  0  0  0  0  0  0  0  0  0  0  0
   -7.2020   20.2250  -32.3370 C   0  0  0  0  0  0  0  0  0  0  0  0
   -7.5410   21.4270  -31.9640 N   0  0  0  0  0  0  0  0  0  0  0  0
   -6.6560   22.4940  -31.5900 C   0  0  0  0  0  0  0  0  0  0  0  0
   -7.0470   23.8270  -31.8520 C   0  0  0  0  0  0  0  0  0  0  0  0
   -6.2160   24.9030  -31.4940 C   0  0  0  0  0  0  0  0  0  0  0  0
   -5.0180   24.6180  -30.8420 C   0  0  0  0  0  0  0  0  0  0  0  0
   -4.0860   25.5120  -30.4600 N   0  0  0  0  0  0  0  0  0  0  0  0
   -3.1180   24.7550  -29.8960 C   0  0  0  0  0  0  0  0  0  0  0  0
   -1.9550   25.2960  -29.3620 O   0  0  0  0  0  0  0  0  0  0  0  0
   -3.4310   23.4010  -29.9020 C   0  0  0  0  0  0  0  0  0  0  0  0
   -2.6000   22.3080  -29.3700 C   0  0  0  0  0  0  0  0  0  0  0  0
   -2.9270   21.6360  -28.3030 N   0  0  0  0  0  0  0  0  0  0  0  0
   -1.9090   20.6510  -28.1160 C   0  0  0  0  0  0  0  0  0  0  0  0
   -1.8400   19.7030  -27.0970 C   0  0  0  0  0  0  0  0  0  0  0  0
   -0.7560   18.8050  -27.1010 C   0  0  0  0  0  0  0  0  0  0  0  0
    0.2250   18.8710  -28.1150 C   0  0  0  0  0  0  0  0  0  0  0  0
    0.1300   19.8360  -29.1340 C   0  0  0  0  0  0  0  0  0  0  0  0
   -0.9500   20.7120  -29.0960 C   0  0  0  0  0  0  0  0  0  0  0  0
   -1.3630   21.7860  -29.9670 C   0  0  0  0  0  0  0  0  0  0  0  0
   -0.8380   22.1130  -31.0630 O   0  0  0  0  0  0  0  0  0  0  0  0
   -4.6570   23.3290  -30.5320 C   0  0  0  0  0  0  0  0  0  0  0  0
   -5.4490   22.2400  -30.9010 C   0  0  0  0  0  0  0  0  0  0  0  0
   -8.2810   19.2390  -32.6670 C   0  0  0  0  0  0  0  0  0  0  0  0
   -7.7790   17.8140  -32.3910 C   0  0  0  0  0  0  0  0  0  0  0  0
   -7.0500   15.5706  -33.8415 H   0  0  0  0  0  0  0  0  0  0  0  0
   -7.5893   16.9605  -34.8435 H   0  0  0  0  0  0  0  0  0  0  0  0
   -5.8612   16.4703  -34.8435 H   0  0  0  0  0  0  0  0  0  0  0  0
   -5.9010   16.9520  -32.4280 H   0  0  0  0  0  0  0  0  0  0  0  0
   -4.6855   18.3426  -33.7258 H   0  0  0  0  0  0  0  0  0  0  0  0
   -6.1863   18.9924  -34.5197 H   0  0  0  0  0  0  0  0  0  0  0  0
   -5.3090   19.5041  -31.6362 H   0  0  0  0  0  0  0  0  0  0  0  0
   -5.2141   20.6685  -33.0024 H   0  0  0  0  0  0  0  0  0  0  0  0
   -8.0121   24.0245  -32.3414 H   0  0  0  0  0  0  0  0  0  0  0  0
   -6.5033   25.9400  -31.7220 H   0  0  0  0  0  0  0  0  0  0  0  0
   -2.6099   19.6577  -26.3126 H   0  0  0  0  0  0  0  0  0  0  0  0
   -0.6723   18.0465  -26.3088 H   0  0  0  0  0  0  0  0  0  0  0  0
    1.0677   18.1641  -28.1078 H   0  0  0  0  0  0  0  0  0  0  0  0
    0.8835   19.8959  -29.9331 H   0  0  0  0  0  0  0  0  0  0  0  0
   -5.1414   21.2114  -30.6616 H   0  0  0  0  0  0  0  0  0  0  0  0
   -9.1654   19.4424  -32.0453 H   0  0  0  0  0  0  0  0  0  0  0  0
   -8.5486   19.3325  -33.7299 H   0  0  0  0  0  0  0  0  0  0  0  0
   -7.6092   17.7095  -31.3092 H   0  0  0  0  0  0  0  0  0  0  0  0
   -8.5504   17.1244  -32.7645 H   0  0  0  0  0  0  0  0  0  0  0  0
  1  2  1  0
  2  3  1  0
  3  4  1  0
  4  5  1  0
  5  6  2  3
  6  7  1  0
  7  8  2  0
  8  9  1  0
  9 10  2  0
 10 11  1  0
 11 12  1  0
 12 13  1  0
 12 14  2  0
 14 15  1  0
 15 16  2  0
 16 17  1  0
 17 18  2  0
 18 19  1  0
 19 20  2  0
 20 21  1  0
 21 22  2  0
 22 23  1  0
 23 24  2  0
 14 25  1  0
 25 26  2  0
  5 27  1  0
 27 28  1  0
 28  2  1  0
 26  7  1  0
 25 10  1  0
 23 15  1  0
 22 17  1  0
  1 29  1  0
  1 30  1  0
  1 31  1  0
  2 32  1  0
  3 33  1  0
  3 34  1  0
  4 35  1  0
  4 36  1  0
  8 37  1  0
  9 38  1  0
 18 39  1  0
 19 40  1  0
 20 41  1  0
 21 42  1  0
 26 43  1  0
 27 44  1  0
 27 45  1  0
 28 46  1  0
 28 47  1  0
M  CHG  3   2   1  11  -1  13  -1
M  END
>  <UniqueID>  (28) 
28

>  <SMILES>  (28) 
C[NH+]1CCC(=Nc2ccc3[n-]c([O-])c(C4=Nc5ccccc5C4=O)c3c2)CC1

>  <Energy>  (28) 
134.49837614668635

>  <Genealogy>  (28) 
C[NH+]1CCC(=Nc2ccc3[n-]c([O-])c(C4=Nc5ccccc5C4=O)c3c2)CC1 (protonated)
C[NH+]1CCC(=Nc2ccc3[n-]c([O-])c(C4=Nc5ccccc5C4=O)c3c2)CC1 (3D coordinates assigned)
C[NH+]1CCC(=Nc2ccc3[n-]c([O-])c(C4=Nc5ccccc5C4=O)c3c2)CC1 (nonaromatic ring conformer: 134.49837614668635 kcal/mol)

>  <smiles>  (28) 
CN1CCC(=Nc2ccc3[nH]c(O)c(C4=Nc5ccccc5C4=O)c3c2)CC1

>  <score_type>  (28) 
oracle

>  <origin>  (28) 
adgpu

>  <m_score__min__energy>  (28) 
-13.94

>  <m_primary>  (28) 
energy

$$$$
28:0
     RDKit          3D

 45 47  0  0  0  0  0  0  0  0999 V2000
   -2.7520   21.1160  -27.8030 C   0  0  0  0  0  0  0  0  0  0  0  0
   -2.4450   22.5630  -28.0580 C   0  0  0  0  0  0  0  0  0  0  0  0
   -1.4420   23.2110  -27.3230 C   0  0  0  0  0  0  0  0  0  0  0  0
   -1.1400   24.5590  -27.5690 C   0  0  0  0  0  0  0  0  0  0  0  0
   -0.0540   25.2450  -26.7950 C   0  0  0  0  0  0  0  0  0  0  0  0
   -1.8120   25.2410  -28.5940 C   0  0  0  0  0  0  0  0  0  0  0  0
   -2.7850   24.5840  -29.3680 C   0  0  0  0  0  0  0  0  0  0  0  0
   -3.4870   25.2580  -30.4240 N   0  0  0  0  0  0  0  0  0  0  0  0
   -4.8880   25.1490  -30.7130 C   0  0  0  0  0  0  0  0  0  0  0  0
   -5.6270   26.1450  -30.4900 O   0  0  0  0  0  0  0  0  0  0  0  0
   -5.4930   23.8930  -31.2140 C   0  0  0  0  0  0  0  0  0  0  0  0
   -4.7210   22.9520  -31.9150 C   0  0  0  0  0  0  0  0  0  0  0  0
   -5.3030   21.7770  -32.3960 C   0  0  0  0  0  0  0  0  0  0  0  0
   -6.6630   21.5130  -32.1730 C   0  0  0  0  0  0  0  0  0  0  0  0
   -7.2570   20.3090  -32.6940 N   0  0  0  0  0  0  0  0  0  0  0  0
   -8.7130   20.1370  -32.7110 C   0  0  0  0  0  0  0  0  0  0  0  0
   -9.1170   18.8580  -31.9480 C   0  0  0  0  0  0  0  0  0  0  0  0
   -8.0690   17.8180  -31.9290 N   0  0  0  0  0  0  0  0  0  0  0  0
   -7.1930   17.8760  -33.1070 C   0  0  0  0  0  0  0  0  0  0  0  0
   -6.4060   19.1940  -33.1250 C   0  0  0  0  0  0  0  0  0  0  0  0
   -7.4330   22.4430  -31.4540 C   0  0  0  0  0  0  0  0  0  0  0  0
   -8.7420   22.2030  -31.1920 F   0  0  0  0  0  0  0  0  0  0  0  0
   -6.8490   23.6190  -30.9730 C   0  0  0  0  0  0  0  0  0  0  0  0
   -3.1080   23.2530  -29.0830 C   0  0  0  0  0  0  0  0  0  0  0  0
   -2.7904   20.9349  -26.7187 H   0  0  0  0  0  0  0  0  0  0  0  0
   -3.7239   20.8628  -28.2517 H   0  0  0  0  0  0  0  0  0  0  0  0
   -1.9667   20.4899  -28.2517 H   0  0  0  0  0  0  0  0  0  0  0  0
   -0.8886   22.6592  -26.5489 H   0  0  0  0  0  0  0  0  0  0  0  0
   -0.2410   25.1269  -25.7175 H   0  0  0  0  0  0  0  0  0  0  0  0
    0.9174   24.7963  -27.0499 H   0  0  0  0  0  0  0  0  0  0  0  0
   -0.0419   26.3150  -27.0499 H   0  0  0  0  0  0  0  0  0  0  0  0
   -1.5763   26.2967  -28.7937 H   0  0  0  0  0  0  0  0  0  0  0  0
   -3.6511   23.1417  -32.0863 H   0  0  0  0  0  0  0  0  0  0  0  0
   -4.6907   21.0532  -32.9538 H   0  0  0  0  0  0  0  0  0  0  0  0
   -9.1856   21.0077  -32.2330 H   0  0  0  0  0  0  0  0  0  0  0  0
   -9.0477   20.0481  -33.7551 H   0  0  0  0  0  0  0  0  0  0  0  0
   -9.3508   19.1335  -30.9090 H   0  0  0  0  0  0  0  0  0  0  0  0
   -9.9823   18.4306  -32.4758 H   0  0  0  0  0  0  0  0  0  0  0  0
   -7.4800   17.9470  -31.0720 H   0  0  0  0  0  0  0  0  0  0  0  0
   -6.4872   17.0329  -33.0755 H   0  0  0  0  0  0  0  0  0  0  0  0
   -7.8117   17.8177  -34.0147 H   0  0  0  0  0  0  0  0  0  0  0  0
   -5.5462   19.1111  -32.4439 H   0  0  0  0  0  0  0  0  0  0  0  0
   -6.0608   19.3872  -34.1514 H   0  0  0  0  0  0  0  0  0  0  0  0
   -7.4569   24.3355  -30.4010 H   0  0  0  0  0  0  0  0  0  0  0  0
   -3.8883   22.7437  -29.6676 H   0  0  0  0  0  0  0  0  0  0  0  0
  1  2  1  0
  2  3  2  0
  3  4  1  0
  4  5  1  0
  4  6  2  0
  6  7  1  0
  7  8  1  0
  8  9  1  0
  9 10  2  0
  9 11  1  0
 11 12  2  0
 12 13  1  0
 13 14  2  0
 14 15  1  0
 15 16  1  0
 16 17  1  0
 17 18  1  0
 18 19  1  0
 19 20  1  0
 14 21  1  0
 21 22  1  0
 21 23  2  0
  7 24  2  0
 24  2  1  0
 23 11  1  0
 20 15  1  0
  1 25  1  0
  1 26  1  0
  1 27  1  0
  3 28  1  0
  5 29  1  0
  5 30  1  0
  5 31  1  0
  6 32  1  0
 12 33  1  0
 13 34  1  0
 16 35  1  0
 16 36  1  0
 17 37  1  0
 17 38  1  0
 18 39  1  0
 19 40  1  0
 19 41  1  0
 20 42  1  0
 20 43  1  0
 23 44  1  0
 24 45  1  0
M  CHG  1   8  -1
M  END
>  <UniqueID>  (29) 
29

>  <SMILES>  (29) 
Cc1cc(C)cc([N-]C(=O)c2ccc(N3CCNCC3)c(F)c2)c1

>  <Energy>  (29) 
60.442530411892136

>  <Genealogy>  (29) 
Cc1cc(C)cc([N-]C(=O)c2ccc(N3CCNCC3)c(F)c2)c1 (protonated)
Cc1cc(C)cc([N-]C(=O)c2ccc(N3CCNCC3)c(F)c2)c1 (3D coordinates assigned)
Cc1cc(C)cc([N-]C(=O)c2ccc(N3CCNCC3)c(F)c2)c1 (nonaromatic ring conformer: 60.442530411892136 kcal/mol)

>  <smiles>  (29) 
Cc1cc(C)cc(NC(=O)c2ccc(N3CCNCC3)c(F)c2)c1

>  <score_type>  (29) 
oracle

>  <origin>  (29) 
adgpu

>  <m_score__min__energy>  (29) 
-10.42

>  <m_primary>  (29) 
energy

$$$$
29:0
     RDKit          3D

 37 39  0  0  0  0  0  0  0  0999 V2000
   -6.3357   18.2254  -34.6913 H   0  0  0  0  0  0  0  0  0  0  0  0
   -5.9030   18.9800  -34.0180 C   0  0  0  0  0  0  0  0  0  0  0  0
   -6.6600   20.0240  -33.5920 N   0  0  0  0  0  0  0  0  0  0  0  0
   -6.1480   20.9700  -32.7620 C   0  0  0  0  0  0  0  0  0  0  0  0
   -6.9170   21.9360  -32.3500 N   0  0  0  0  0  0  0  0  0  0  0  0
   -6.5380   23.0430  -31.5150 C   0  0  0  0  0  0  0  0  0  0  0  0
   -7.5450   23.7800  -30.8810 C   0  0  0  0  0  0  0  0  0  0  0  0
   -8.5991   23.4967  -31.0178 H   0  0  0  0  0  0  0  0  0  0  0  0
   -7.2180   24.8740  -30.0750 C   0  0  0  0  0  0  0  0  0  0  0  0
   -8.0137   25.4329  -29.5608 H   0  0  0  0  0  0  0  0  0  0  0  0
   -5.8860   25.2600  -29.9200 C   0  0  0  0  0  0  0  0  0  0  0  0
   -5.6330   26.1089  -29.2678 H   0  0  0  0  0  0  0  0  0  0  0  0
   -4.8660   24.5660  -30.5960 C   0  0  0  0  0  0  0  0  0  0  0  0
   -3.4830   24.9280  -30.4690 N   0  0  0  0  0  0  0  0  0  0  0  0
   -2.6450   24.7110  -29.3260 C   0  0  0  0  0  0  0  0  0  0  0  0
   -1.8080   25.5790  -28.9630 O   0  0  0  0  0  0  0  0  0  0  0  0
   -2.6860   23.3930  -28.6300 C   0  0  0  0  0  0  0  0  0  0  0  0
   -2.6810   23.5528  -27.5417 H   0  0  0  0  0  0  0  0  0  0  0  0
   -3.6013   22.8549  -28.9174 H   0  0  0  0  0  0  0  0  0  0  0  0
   -1.8059   22.7990  -28.9174 H   0  0  0  0  0  0  0  0  0  0  0  0
   -5.1980   23.4550  -31.3830 C   0  0  0  0  0  0  0  0  0  0  0  0
   -4.4038   22.8992  -31.9029 H   0  0  0  0  0  0  0  0  0  0  0  0
   -4.8570   20.8640  -32.3380 N   0  0  0  0  0  0  0  0  0  0  0  0
   -4.0520   19.8540  -32.7610 C   0  0  0  0  0  0  0  0  0  0  0  0
   -2.7180   19.7610  -32.2420 N   0  0  0  0  0  0  0  0  0  0  0  0
   -1.6230   20.2300  -32.7770 C   0  0  0  0  0  0  0  0  0  0  0  0
   -0.4010   19.9470  -32.1520 C   0  0  0  0  0  0  0  0  0  0  0  0
   -0.3781   19.3364  -31.2373 H   0  0  0  0  0  0  0  0  0  0  0  0
    0.7880   20.4420  -32.6930 C   0  0  0  0  0  0  0  0  0  0  0  0
    1.7492   20.2101  -32.2109 H   0  0  0  0  0  0  0  0  0  0  0  0
    0.7590   21.2090  -33.8130 N   0  0  0  0  0  0  0  0  0  0  0  0
   -0.4080   21.5170  -34.4360 C   0  0  0  0  0  0  0  0  0  0  0  0
   -0.3981   22.1414  -35.3415 H   0  0  0  0  0  0  0  0  0  0  0  0
   -1.6210   21.0430  -33.9300 C   0  0  0  0  0  0  0  0  0  0  0  0
   -2.5676   21.3018  -34.4270 H   0  0  0  0  0  0  0  0  0  0  0  0
   -4.5780   18.8650  -33.6020 C   0  0  0  0  0  0  0  0  0  0  0  0
   -3.9586   18.0160  -33.9270 H   0  0  0  0  0  0  0  0  0  0  0  0
  1  2  1  0
  2  3  1  0
  3  4  1  0
  4  5  2  0
  5  6  1  0
  6  7  2  0
  7  8  1  0
  7  9  1  0
  9 10  1  0
  9 11  2  0
 11 12  1  0
 11 13  1  0
 13 14  1  0
 14 15  1  0
 15 16  2  0
 15 17  1  0
 17 18  1  0
 17 19  1  0
 17 20  1  0
 13 21  2  0
 21 22  1  0
  4 23  1  0
 23 24  2  0
 24 25  1  0
 25 26  2  3
 26 27  1  0
 27 28  1  0
 27 29  2  0
 29 30  1  0
 29 31  1  0
 31 32  1  0
 32 33  1  0
 32 34  2  0
 34 35  1  0
 24 36  1  0
 36 37  1  0
 36  2  2  0
 21  6  1  0
 34 26  1  0
M  CHG  3   3  -1  14  -1  31  -1
M  END
>  <UniqueID>  (30) 
30

>  <SMILES>  (30) 
CC(=O)[N-]c1cccc(/N=c2\nc(N=c3cc[n-]cc3)cc[n-]2)c1

>  <Energy>  (30) 
59.08587011954372

>  <Genealogy>  (30) 
CC(=O)[N-]c1cccc(N=c2nc(N=c3cc[n-]cc3)cc[n-]2)c1 (protonated)
CC(=O)[N-]c1cccc(/N=c2\nc(N=c3cc[n-]cc3)cc[n-]2)c1 (cis-trans isomerization)
CC(=O)[N-]c1cccc(/N=c2\nc(N=c3cc[n-]cc3)cc[n-]2)c1 (3D coordinates assigned)
CC(=O)[N-]c1cccc(/N=c2\nc(N=c3cc[n-]cc3)cc[n-]2)c1 (optimized conformer: 59.08587011954372 kcal/mol)

>  <smiles>  (30) 
CC(=O)Nc1cccc(N=c2nc(N=c3cc[nH]cc3)cc[nH]2)c1

>  <score_type>  (30) 
oracle

>  <origin>  (30) 
adgpu

>  <m_score__min__energy>  (30) 
-10.140000000000001

>  <m_primary>  (30) 
energy

$$$$
30:0
     RDKit          3D

 31 33  0  0  0  0  0  0  0  0999 V2000
   -3.3030   21.7690  -29.4270 H   0  0  0  0  0  0  0  0  0  0  0  0
   -4.2400   21.8550  -29.8780 N   0  0  0  0  0  0  0  0  0  0  0  0
   -4.9300   22.9530  -29.8710 C   0  0  0  0  0  0  0  0  0  0  0  0
   -6.1370   23.1440  -30.5290 C   0  0  0  0  0  0  0  0  0  0  0  0
   -6.9520   22.1660  -31.2890 C   0  0  0  0  0  0  0  0  0  0  0  0
   -8.3400   22.0780  -31.0670 C   0  0  0  0  0  0  0  0  0  0  0  0
   -8.8189   22.7401  -30.3306 H   0  0  0  0  0  0  0  0  0  0  0  0
   -9.1130   21.1540  -31.7770 C   0  0  0  0  0  0  0  0  0  0  0  0
  -10.1972   21.0952  -31.6007 H   0  0  0  0  0  0  0  0  0  0  0  0
   -8.5120   20.3060  -32.7090 C   0  0  0  0  0  0  0  0  0  0  0  0
   -9.1230   19.5828  -33.2690 H   0  0  0  0  0  0  0  0  0  0  0  0
   -7.1360   20.3760  -32.9300 C   0  0  0  0  0  0  0  0  0  0  0  0
   -6.6629   19.7042  -33.6614 H   0  0  0  0  0  0  0  0  0  0  0  0
   -6.3570   21.2980  -32.2240 C   0  0  0  0  0  0  0  0  0  0  0  0
   -5.2723   21.3453  -32.4004 H   0  0  0  0  0  0  0  0  0  0  0  0
   -6.4050   24.4960  -30.3560 C   0  0  0  0  0  0  0  0  0  0  0  0
   -7.2837   25.0280  -30.7495 H   0  0  0  0  0  0  0  0  0  0  0  0
   -5.4160   25.0510  -29.6290 N   0  0  0  0  0  0  0  0  0  0  0  0
   -5.3640   26.0520  -29.3330 H   0  0  0  0  0  0  0  0  0  0  0  0
   -4.5230   24.1210  -29.3250 N   0  0  0  0  0  0  0  0  0  0  0  0
   -3.3470   24.3760  -28.5370 C   0  0  0  0  0  0  0  0  0  0  0  0
   -2.0990   24.5100  -29.1640 C   0  0  0  0  0  0  0  0  0  0  0  0
   -2.0195   24.3993  -30.2555 H   0  0  0  0  0  0  0  0  0  0  0  0
   -0.9550   24.7840  -28.4060 C   0  0  0  0  0  0  0  0  0  0  0  0
    0.0225   24.8791  -28.9014 H   0  0  0  0  0  0  0  0  0  0  0  0
   -1.0530   24.9370  -27.0200 C   0  0  0  0  0  0  0  0  0  0  0  0
   -0.1522   25.1470  -26.4246 H   0  0  0  0  0  0  0  0  0  0  0  0
   -2.2960   24.8230  -26.3910 C   0  0  0  0  0  0  0  0  0  0  0  0
   -2.3733   24.9483  -25.3009 H   0  0  0  0  0  0  0  0  0  0  0  0
   -3.4410   24.5500  -27.1450 C   0  0  0  0  0  0  0  0  0  0  0  0
   -4.4189   24.4710  -26.6476 H   0  0  0  0  0  0  0  0  0  0  0  0
  1  2  1  0
  2  3  2  0
  3  4  1  0
  4  5  1  0
  5  6  2  0
  6  7  1  0
  6  8  1  0
  8  9  1  0
  8 10  2  0
 10 11  1  0
 10 12  1  0
 12 13  1  0
 12 14  2  0
 14 15  1  0
  4 16  2  0
 16 17  1  0
 16 18  1  0
 18 19  1  0
 18 20  1  0
 20 21  1  0
 21 22  2  0
 22 23  1  0
 22 24  1  0
 24 25  1  0
 24 26  2  0
 26 27  1  0
 26 28  1  0
 28 29  1  0
 28 30  2  0
 30 31  1  0
 20  3  1  0
 30 21  1  0
 14  5  1  0
M  END
>  <UniqueID>  (31) 
31

>  <SMILES>  (31) 
[H]/N=c1/c(-c2ccccc2)c[nH]n1-c1ccccc1

>  <Energy>  (31) 
76.51342161189862

>  <Genealogy>  (31) 
[H]/N=c1/c(-c2ccccc2)c[nH]n1-c1ccccc1 (cis-trans isomerization)
[H]/N=c1/c(-c2ccccc2)c[nH]n1-c1ccccc1 (3D coordinates assigned)
[H]/N=c1/c(-c2ccccc2)c[nH]n1-c1ccccc1 (optimized conformer: 76.51342161189862 kcal/mol)

>  <smiles>  (31) 
N=c1c(-c2ccccc2)c[nH]n1-c1ccccc1

>  <score_type>  (31) 
oracle

>  <origin>  (31) 
adgpu

>  <m_score__min__energy>  (31) 
-6.9800000000000004

>  <m_primary>  (31) 
energy

$$$$
31:0
     RDKit          3D

 26 28  0  0  0  0  0  0  0  0999 V2000
   -3.4860   23.9110  -30.4730 Cl  0  0  0  0  0  0  0  0  0  0  0  0
   -5.1040   23.2410  -30.6350 C   0  0  0  0  0  0  0  0  0  0  0  0
   -5.2520   21.9320  -31.0900 C   0  0  0  0  0  0  0  0  0  0  0  0
   -6.5390   21.3740  -31.2260 C   0  0  0  0  0  0  0  0  0  0  0  0
   -7.6420   22.1500  -30.9520 N   0  0  0  0  0  0  0  0  0  0  0  0
   -7.5010   23.4270  -30.4840 C   0  0  0  0  0  0  0  0  0  0  0  0
   -6.2370   23.9960  -30.3200 C   0  0  0  0  0  0  0  0  0  0  0  0
   -6.1060   25.6460  -29.7280 Cl  0  0  0  0  0  0  0  0  0  0  0  0
   -8.9980   21.5860  -31.0700 C   0  0  0  0  0  0  0  0  0  0  0  0
   -9.0990   20.6430  -32.2730 C   0  0  0  0  0  0  0  0  0  0  0  0
   -8.0020   19.6160  -32.2200 C   0  0  0  0  0  0  0  0  0  0  0  0
   -8.2190   18.3230  -32.7200 C   0  0  0  0  0  0  0  0  0  0  0  0
   -7.1950   17.3760  -32.6860 C   0  0  0  0  0  0  0  0  0  0  0  0
   -5.9490   17.7120  -32.1570 C   0  0  0  0  0  0  0  0  0  0  0  0
   -5.7150   19.0030  -31.6740 C   0  0  0  0  0  0  0  0  0  0  0  0
   -6.7330   19.9780  -31.7210 C   0  0  0  0  0  0  0  0  0  0  0  0
   -4.3640   21.3342  -31.3431 H   0  0  0  0  0  0  0  0  0  0  0  0
   -8.3966   24.0144  -30.2331 H   0  0  0  0  0  0  0  0  0  0  0  0
   -9.2355   21.0261  -30.1534 H   0  0  0  0  0  0  0  0  0  0  0  0
   -9.7096   22.4126  -31.2127 H   0  0  0  0  0  0  0  0  0  0  0  0
  -10.0742   20.1345  -32.2554 H   0  0  0  0  0  0  0  0  0  0  0  0
   -8.9982   21.2290  -33.1984 H   0  0  0  0  0  0  0  0  0  0  0  0
   -9.1997   18.0551  -33.1402 H   0  0  0  0  0  0  0  0  0  0  0  0
   -7.3706   16.3629  -33.0770 H   0  0  0  0  0  0  0  0  0  0  0  0
   -5.1480   16.9590  -32.1197 H   0  0  0  0  0  0  0  0  0  0  0  0
   -4.7310   19.2598  -31.2548 H   0  0  0  0  0  0  0  0  0  0  0  0
  1  2  1  0
  2  3  2  0
  3  4  1  0
  4  5  2  0
  5  6  1  0
  6  7  2  0
  7  8  1  0
  5  9  1  0
  9 10  1  0
 10 11  1  0
 11 12  2  0
 12 13  1  0
 13 14  2  0
 14 15  1  0
 15 16  2  0
  7  2  1  0
 16 11  1  0
 16  4  1  0
  3 17  1  0
  6 18  1  0
  9 19  1  0
  9 20  1  0
 10 21  1  0
 10 22  1  0
 12 23  1  0
 13 24  1  0
 14 25  1  0
 15 26  1  0
M  CHG  1   5   1
M  END
>  <UniqueID>  (32) 
32

>  <SMILES>  (32) 
Clc1cc2[n+](cc1Cl)CCc1ccccc1-2

>  <Energy>  (32) 
35.74728492067024

>  <Genealogy>  (32) 
Clc1cc2[n+](cc1Cl)CCc1ccccc1-2 (3D coordinates assigned)
Clc1cc2[n+](cc1Cl)CCc1ccccc1-2 (nonaromatic ring conformer: 35.74728492067024 kcal/mol)

>  <smiles>  (32) 
Clc1cc2[n+](cc1Cl)CCc1ccccc1-2

>  <score_type>  (32) 
oracle

>  <origin>  (32) 
adgpu

>  <m_score__min__energy>  (32) 
-6.7199999999999998

>  <m_primary>  (32) 
energy

$$$$
32:0
     RDKit          3D

 26 27  0  0  0  0  0  0  0  0999 V2000
   -5.2480   20.8240  -33.1410 C   0  0  0  0  0  0  0  0  0  0  0  0
   -4.2710   21.8330  -32.9090 O   0  0  0  0  0  0  0  0  0  0  0  0
   -3.2910   21.7810  -31.9040 C   0  0  0  0  0  0  0  0  0  0  0  0
   -2.1040   21.0400  -32.0620 C   0  0  0  0  0  0  0  0  0  0  0  0
   -1.1590   20.9770  -31.0340 C   0  0  0  0  0  0  0  0  0  0  0  0
    0.3040   20.0340  -31.2820 Cl  0  0  0  0  0  0  0  0  0  0  0  0
   -1.3930   21.6560  -29.8280 C   0  0  0  0  0  0  0  0  0  0  0  0
   -0.1330   21.5960  -28.3850 Br  0  0  0  0  0  0  0  0  0  0  0  0
   -2.5650   22.3970  -29.6650 C   0  0  0  0  0  0  0  0  0  0  0  0
   -3.5130   22.4750  -30.6970 C   0  0  0  0  0  0  0  0  0  0  0  0
   -4.7430   23.2740  -30.4970 C   0  0  0  0  0  0  0  0  0  0  0  0
   -5.9790   22.6180  -30.3790 C   0  0  0  0  0  0  0  0  0  0  0  0
   -7.1420   23.3660  -30.2010 C   0  0  0  0  0  0  0  0  0  0  0  0
   -7.0680   24.7560  -30.1370 C   0  0  0  0  0  0  0  0  0  0  0  0
   -5.8250   25.3800  -30.2470 C   0  0  0  0  0  0  0  0  0  0  0  0
   -4.6930   24.6410  -30.4190 N   0  0  0  0  0  0  0  0  0  0  0  0
   -3.4820   25.2950  -30.4740 O   0  0  0  0  0  0  0  0  0  0  0  0
   -5.6172   20.4427  -32.1775 H   0  0  0  0  0  0  0  0  0  0  0  0
   -6.0861   21.2496  -33.7124 H   0  0  0  0  0  0  0  0  0  0  0  0
   -4.7956   20.0000  -33.7124 H   0  0  0  0  0  0  0  0  0  0  0  0
   -1.9184   20.5048  -33.0049 H   0  0  0  0  0  0  0  0  0  0  0  0
   -2.7474   22.9253  -28.7176 H   0  0  0  0  0  0  0  0  0  0  0  0
   -6.0293   21.5202  -30.4267 H   0  0  0  0  0  0  0  0  0  0  0  0
   -8.1149   22.8605  -30.1114 H   0  0  0  0  0  0  0  0  0  0  0  0
   -7.9804   25.3553  -30.0011 H   0  0  0  0  0  0  0  0  0  0  0  0
   -5.7582   26.4767  -30.1945 H   0  0  0  0  0  0  0  0  0  0  0  0
  1  2  1  0
  2  3  1  0
  3  4  2  0
  4  5  1  0
  5  6  1  0
  5  7  2  0
  7  8  1  0
  7  9  1  0
  9 10  2  0
 10 11  1  0
 11 12  2  0
 12 13  1  0
 13 14  2  0
 14 15  1  0
 15 16  2  0
 16 17  1  0
 10  3  1  0
 16 11  1  0
  1 18  1  0
  1 19  1  0
  1 20  1  0
  4 21  1  0
  9 22  1  0
 12 23  1  0
 13 24  1  0
 14 25  1  0
 15 26  1  0
M  CHG  2  16   1  17  -1
M  END
>  <UniqueID>  (33) 
33

>  <SMILES>  (33) 
COc1cc(Cl)c(Br)cc1-c1cccc[n+]1[O-]

>  <Energy>  (33) 
34.88011215161237

>  <Genealogy>  (33) 
COc1cc(Cl)c(Br)cc1-c1cccc[n+]1[O-] (3D coordinates assigned)
COc1cc(Cl)c(Br)cc1-c1cccc[n+]1[O-] (optimized conformer: 34.88011215161237 kcal/mol)

>  <smiles>  (33) 
COc1cc(Cl)c(Br)cc1-c1cccc[n+]1[O-]

>  <score_type>  (33) 
oracle

>  <origin>  (33) 
adgpu

>  <m_score__min__energy>  (33) 
-7.4900000000000002

>  <m_primary>  (33) 
energy

$$$$
33:0
     RDKit          3D

 25 26  0  0  0  0  0  0  0  0999 V2000
   -4.2390   25.6110  -30.5630 N   0  0  0  0  0  0  0  0  0  0  0  0
   -3.9260   24.3880  -29.8880 C   0  0  0  0  0  0  0  0  0  0  0  0
   -3.5360   24.4350  -28.5400 C   0  0  0  0  0  0  0  0  0  0  0  0
   -3.1280   23.2760  -27.8770 C   0  0  0  0  0  0  0  0  0  0  0  0
   -3.0940   22.0570  -28.5570 C   0  0  0  0  0  0  0  0  0  0  0  0
   -2.5160   20.4760  -27.6550 Br  0  0  0  0  0  0  0  0  0  0  0  0
   -3.4930   21.9930  -29.8940 C   0  0  0  0  0  0  0  0  0  0  0  0
   -3.9440   23.1400  -30.5600 C   0  0  0  0  0  0  0  0  0  0  0  0
   -4.3890   22.9960  -31.8820 O   0  0  0  0  0  0  0  0  0  0  0  0
   -5.0520   21.8740  -32.4020 C   0  0  0  0  0  0  0  0  0  0  0  0
   -4.3650   20.7930  -33.0060 C   0  0  0  0  0  0  0  0  0  0  0  0
   -2.4720   20.8050  -33.3170 Br  0  0  0  0  0  0  0  0  0  0  0  0
   -5.0870   19.6920  -33.4840 C   0  0  0  0  0  0  0  0  0  0  0  0
   -6.4780   19.6620  -33.3840 C   0  0  0  0  0  0  0  0  0  0  0  0
   -7.1620   20.7380  -32.8200 C   0  0  0  0  0  0  0  0  0  0  0  0
   -6.4560   21.8440  -32.3380 C   0  0  0  0  0  0  0  0  0  0  0  0
   -7.4250   23.2970  -31.5560 Br  0  0  0  0  0  0  0  0  0  0  0  0
   -4.6850   26.4120  -30.0670 H   0  0  0  0  0  0  0  0  0  0  0  0
   -4.1490   25.6800  -31.6010 H   0  0  0  0  0  0  0  0  0  0  0  0
   -3.5521   25.3939  -28.0013 H   0  0  0  0  0  0  0  0  0  0  0  0
   -2.8332   23.3232  -26.8183 H   0  0  0  0  0  0  0  0  0  0  0  0
   -3.4527   21.0328  -30.4291 H   0  0  0  0  0  0  0  0  0  0  0  0
   -4.5536   18.8455  -33.9412 H   0  0  0  0  0  0  0  0  0  0  0  0
   -7.0362   18.7879  -33.7507 H   0  0  0  0  0  0  0  0  0  0  0  0
   -8.2598   20.7166  -32.7541 H   0  0  0  0  0  0  0  0  0  0  0  0
  1  2  1  0
  2  3  2  0
  3  4  1  0
  4  5  2  0
  5  6  1  0
  5  7  1  0
  7  8  2  0
  8  9  1  0
  9 10  1  0
 10 11  2  0
 11 12  1  0
 11 13  1  0
 13 14  2  0
 14 15  1  0
 15 16  2  0
 16 17  1  0
  8  2  1  0
 16 10  1  0
  1 18  1  0
  1 19  1  0
  3 20  1  0
  4 21  1  0
  7 22  1  0
 13 23  1  0
 14 24  1  0
 15 25  1  0
M  END
>  <UniqueID>  (34) 
34

>  <SMILES>  (34) 
Nc1ccc(Br)cc1Oc1c(Br)cccc1Br

>  <Energy>  (34) 
37.67444435850837

>  <Genealogy>  (34) 
Nc1ccc(Br)cc1Oc1c(Br)cccc1Br (3D coordinates assigned)
Nc1ccc(Br)cc1Oc1c(Br)cccc1Br (optimized conformer: 37.67444435850837 kcal/mol)

>  <smiles>  (34) 
Nc1ccc(Br)cc1Oc1c(Br)cccc1Br

>  <score_type>  (34) 
oracle

>  <origin>  (34) 
adgpu

>  <m_score__min__energy>  (34) 
-8.0199999999999996

>  <m_primary>  (34) 
energy

$$$$
34:0
     RDKit          3D

 37 38  0  0  0  0  0  0  0  0999 V2000
   -5.7020   18.1770  -34.9560 C   0  0  0  0  0  0  0  0  0  0  0  0
   -5.5680   18.1950  -33.4360 C   0  0  0  0  0  0  0  0  0  0  0  0
   -6.7740   18.8400  -32.7870 C   0  0  0  0  0  0  0  0  0  0  0  0
   -7.8230   18.0070  -32.3500 C   0  0  0  0  0  0  0  0  0  0  0  0
   -8.9980   18.5540  -31.8300 C   0  0  0  0  0  0  0  0  0  0  0  0
   -9.1540   19.9360  -31.7570 C   0  0  0  0  0  0  0  0  0  0  0  0
   -8.1320   20.7780  -32.1940 C   0  0  0  0  0  0  0  0  0  0  0  0
   -6.9300   20.2500  -32.6870 C   0  0  0  0  0  0  0  0  0  0  0  0
   -5.9200   21.1710  -33.1320 N   0  0  0  0  0  0  0  0  0  0  0  0
   -5.2800   22.1550  -32.3020 C   0  0  0  0  0  0  0  0  0  0  0  0
   -6.0110   23.2960  -31.9390 C   0  0  0  0  0  0  0  0  0  0  0  0
   -5.4330   24.2940  -31.1520 C   0  0  0  0  0  0  0  0  0  0  0  0
   -4.1110   24.1590  -30.6970 C   0  0  0  0  0  0  0  0  0  0  0  0
   -3.4730   25.1570  -29.8880 N   0  0  0  0  0  0  0  0  0  0  0  0
   -2.0620   24.9220  -28.9080 S   0  0  0  0  0  0  0  0  0  0  0  0
   -2.5330   24.4640  -27.2550 C   0  0  0  0  0  0  0  0  0  0  0  0
   -1.2440   23.8100  -29.5020 O   0  0  0  0  0  0  0  0  0  0  0  0
   -1.2320   26.1750  -28.8900 O   0  0  0  0  0  0  0  0  0  0  0  0
   -3.3870   23.0110  -31.0350 C   0  0  0  0  0  0  0  0  0  0  0  0
   -3.9590   22.0050  -31.8240 C   0  0  0  0  0  0  0  0  0  0  0  0
   -3.0040   20.5560  -32.1200 Cl  0  0  0  0  0  0  0  0  0  0  0  0
   -6.7580   18.0352  -35.2293 H   0  0  0  0  0  0  0  0  0  0  0  0
   -5.3419   19.1316  -35.3672 H   0  0  0  0  0  0  0  0  0  0  0  0
   -5.1027   17.3513  -35.3672 H   0  0  0  0  0  0  0  0  0  0  0  0
   -5.4747   17.1612  -33.0719 H   0  0  0  0  0  0  0  0  0  0  0  0
   -4.6756   18.7815  -33.1722 H   0  0  0  0  0  0  0  0  0  0  0  0
   -7.7153   16.9145  -32.4191 H   0  0  0  0  0  0  0  0  0  0  0  0
   -9.8023   17.8917  -31.4772 H   0  0  0  0  0  0  0  0  0  0  0  0
  -10.0841   20.3636  -31.3543 H   0  0  0  0  0  0  0  0  0  0  0  0
   -8.2702   21.8685  -32.1516 H   0  0  0  0  0  0  0  0  0  0  0  0
   -5.6330   21.1190  -34.1360 H   0  0  0  0  0  0  0  0  0  0  0  0
   -7.0516   23.4057  -32.2783 H   0  0  0  0  0  0  0  0  0  0  0  0
   -6.0150   25.1891  -30.8874 H   0  0  0  0  0  0  0  0  0  0  0  0
   -1.9391   25.0415  -26.5312 H   0  0  0  0  0  0  0  0  0  0  0  0
   -3.6017   24.6776  -27.1058 H   0  0  0  0  0  0  0  0  0  0  0  0
   -2.3494   23.3897  -27.1058 H   0  0  0  0  0  0  0  0  0  0  0  0
   -2.3535   22.8966  -30.6760 H   0  0  0  0  0  0  0  0  0  0  0  0
  1  2  1  0
  2  3  1  0
  3  4  2  0
  4  5  1  0
  5  6  2  0
  6  7  1  0
  7  8  2  0
  8  9  1  0
  9 10  1  0
 10 11  2  0
 11 12  1  0
 12 13  2  0
 13 14  1  0
 14 15  1  0
 15 16  1  0
 15 17  2  0
 15 18  2  0
 13 19  1  0
 19 20  2  0
 20 21  1  0
  8  3  1  0
 20 10  1  0
  1 22  1  0
  1 23  1  0
  1 24  1  0
  2 25  1  0
  2 26  1  0
  4 27  1  0
  5 28  1  0
  6 29  1  0
  7 30  1  0
  9 31  1  0
 11 32  1  0
 12 33  1  0
 16 34  1  0
 16 35  1  0
 16 36  1  0
 19 37  1  0
M  CHG  1  14  -1
M  END
>  <UniqueID>  (35) 
35

>  <SMILES>  (35) 
CCc1ccccc1Nc1ccc([N-]S(C)(=O)=O)cc1Cl

>  <Energy>  (35) 
44.576820008898714

>  <Genealogy>  (35) 
CCc1ccccc1Nc1ccc([N-]S(C)(=O)=O)cc1Cl (protonated)
CCc1ccccc1Nc1ccc([N-]S(C)(=O)=O)cc1Cl (3D coordinates assigned)
CCc1ccccc1Nc1ccc([N-]S(C)(=O)=O)cc1Cl (optimized conformer: 44.576820008898714 kcal/mol)

>  <smiles>  (35) 
CCc1ccccc1Nc1ccc(NS(C)(=O)=O)cc1Cl

>  <score_type>  (35) 
oracle

>  <origin>  (35) 
adgpu

>  <m_score__min__energy>  (35) 
-10.25

>  <m_primary>  (35) 
energy

$$$$
35:0
     RDKit          3D

 35 37  0  0  0  0  0  0  0  0999 V2000
   -3.5780   24.0100  -30.4690 C   0  0  0  0  0  0  0  0  0  0  0  0
   -4.4070   22.9560  -30.8610 C   0  0  0  0  0  0  0  0  0  0  0  0
   -5.7400   23.2140  -31.2250 C   0  0  0  0  0  0  0  0  0  0  0  0
   -6.6150   22.1380  -31.6350 N   0  0  0  0  0  0  0  0  0  0  0  0
   -8.0540   22.1940  -31.3400 C   0  0  0  0  0  0  0  0  0  0  0  0
   -8.6230   20.7770  -31.2330 C   0  0  0  0  0  0  0  0  0  0  0  0
   -8.3940   19.9970  -32.4710 N   0  0  0  0  0  0  0  0  0  0  0  0
   -8.6430   18.5470  -32.3050 C   0  0  0  0  0  0  0  0  0  0  0  0
   -7.4010   17.6990  -32.4500 C   0  0  0  0  0  0  0  0  0  0  0  0
   -7.0280   17.0630  -33.6450 C   0  0  0  0  0  0  0  0  0  0  0  0
   -5.8550   16.3280  -33.5430 C   0  0  0  0  0  0  0  0  0  0  0  0
   -5.2940   16.4570  -31.9660 S   0  0  0  0  0  0  0  0  0  0  0  0
   -6.5260   17.4450  -31.3960 C   0  0  0  0  0  0  0  0  0  0  0  0
   -7.1520   20.3220  -33.2150 C   0  0  0  0  0  0  0  0  0  0  0  0
   -6.0750   20.9590  -32.3270 C   0  0  0  0  0  0  0  0  0  0  0  0
   -6.2040   24.5400  -31.1830 C   0  0  0  0  0  0  0  0  0  0  0  0
   -5.3410   25.5650  -30.7840 C   0  0  0  0  0  0  0  0  0  0  0  0
   -4.0580   25.2800  -30.4390 N   0  0  0  0  0  0  0  0  0  0  0  0
   -2.5344   23.8108  -30.1841 H   0  0  0  0  0  0  0  0  0  0  0  0
   -4.0178   21.9274  -30.8847 H   0  0  0  0  0  0  0  0  0  0  0  0
   -8.2102   22.7219  -30.3877 H   0  0  0  0  0  0  0  0  0  0  0  0
   -8.5681   22.7287  -32.1522 H   0  0  0  0  0  0  0  0  0  0  0  0
   -8.1370   20.2608  -30.3920 H   0  0  0  0  0  0  0  0  0  0  0  0
   -9.7087   20.8558  -31.0746 H   0  0  0  0  0  0  0  0  0  0  0  0
   -9.0636   18.3790  -31.3026 H   0  0  0  0  0  0  0  0  0  0  0  0
   -9.3347   18.2450  -33.1052 H   0  0  0  0  0  0  0  0  0  0  0  0
   -7.6107   17.1400  -34.5748 H   0  0  0  0  0  0  0  0  0  0  0  0
   -5.3763   15.7599  -34.3542 H   0  0  0  0  0  0  0  0  0  0  0  0
   -6.6251   17.8257  -30.3687 H   0  0  0  0  0  0  0  0  0  0  0  0
   -6.7480   19.3942  -33.6464 H   0  0  0  0  0  0  0  0  0  0  0  0
   -7.4145   21.0540  -33.9930 H   0  0  0  0  0  0  0  0  0  0  0  0
   -5.7379   20.2237  -31.5816 H   0  0  0  0  0  0  0  0  0  0  0  0
   -5.2298   21.2709  -32.9582 H   0  0  0  0  0  0  0  0  0  0  0  0
   -7.2425   24.7705  -31.4631 H   0  0  0  0  0  0  0  0  0  0  0  0
   -5.7012   26.6038  -30.7493 H   0  0  0  0  0  0  0  0  0  0  0  0
  1  2  2  0
  2  3  1  0
  3  4  1  0
  4  5  1  0
  5  6  1  0
  6  7  1  0
  7  8  1  0
  8  9  1  0
  9 10  1  0
 10 11  2  0
 11 12  1  0
 12 13  1  0
  7 14  1  0
 14 15  1  0
  3 16  2  0
 16 17  1  0
 17 18  2  0
 18  1  1  0
 15  4  1  0
 13  9  2  0
  1 19  1  0
  2 20  1  0
  5 21  1  0
  5 22  1  0
  6 23  1  0
  6 24  1  0
  8 25  1  0
  8 26  1  0
 10 27  1  0
 11 28  1  0
 13 29  1  0
 14 30  1  0
 14 31  1  0
 15 32  1  0
 15 33  1  0
 16 34  1  0
 17 35  1  0
M  END
>  <UniqueID>  (36) 
36

>  <SMILES>  (36) 
c1cc(N2CCN(Cc3ccsc3)CC2)ccn1

>  <Energy>  (36) 
74.34696887322467

>  <Genealogy>  (36) 
c1cc(N2CCN(Cc3ccsc3)CC2)ccn1 (3D coordinates assigned)
c1cc(N2CCN(Cc3ccsc3)CC2)ccn1 (nonaromatic ring conformer: 74.34696887322467 kcal/mol)

>  <smiles>  (36) 
c1cc(N2CCN(Cc3ccsc3)CC2)ccn1

>  <score_type>  (36) 
oracle

>  <origin>  (36) 
adgpu

>  <m_score__min__energy>  (36) 
-7.2800000000000002

>  <m_primary>  (36) 
energy

$$$$
36:0
     RDKit          3D

 36 38  0  0  0  0  0  0  0  0999 V2000
  -10.6580   20.3130  -32.6020 H   0  0  0  0  0  0  0  0  0  0  0  0
   -9.6570   20.0320  -32.6960 N   0  0  0  0  0  0  0  0  0  0  0  0
   -8.6980   20.8320  -32.3540 C   0  0  0  0  0  0  0  0  0  0  0  0
   -8.9120   22.0800  -31.8680 N   0  0  0  0  0  0  0  0  0  0  0  0
   -9.8240   22.5560  -31.6880 H   0  0  0  0  0  0  0  0  0  0  0  0
   -7.6740   22.5650  -31.6710 C   0  0  0  0  0  0  0  0  0  0  0  0
   -7.3130   23.8060  -31.1610 C   0  0  0  0  0  0  0  0  0  0  0  0
   -8.0760   24.5476  -30.8819 H   0  0  0  0  0  0  0  0  0  0  0  0
   -5.9400   24.0860  -31.0120 C   0  0  0  0  0  0  0  0  0  0  0  0
   -5.4790   25.6570  -30.3690 Cl  0  0  0  0  0  0  0  0  0  0  0  0
   -4.9650   23.1100  -31.3690 C   0  0  0  0  0  0  0  0  0  0  0  0
   -3.5650   23.3700  -31.2120 N   0  0  0  0  0  0  0  0  0  0  0  0
   -2.9530   22.6920  -30.7030 H   0  0  0  0  0  0  0  0  0  0  0  0
   -3.1170   24.2310  -31.5960 H   0  0  0  0  0  0  0  0  0  0  0  0
   -5.3770   21.8600  -31.8810 C   0  0  0  0  0  0  0  0  0  0  0  0
   -4.6399   21.0902  -32.1534 H   0  0  0  0  0  0  0  0  0  0  0  0
   -6.7450   21.6280  -32.0320 C   0  0  0  0  0  0  0  0  0  0  0  0
   -7.3800   20.5200  -32.4700 N   0  0  0  0  0  0  0  0  0  0  0  0
   -6.8050   19.2950  -32.9600 C   0  0  0  0  0  0  0  0  0  0  0  0
   -6.0240   19.2940  -34.1240 C   0  0  0  0  0  0  0  0  0  0  0  0
   -5.8453   20.2355  -34.6640 H   0  0  0  0  0  0  0  0  0  0  0  0
   -5.4710   18.1020  -34.6020 C   0  0  0  0  0  0  0  0  0  0  0  0
   -4.8556   18.1139  -35.5136 H   0  0  0  0  0  0  0  0  0  0  0  0
   -5.6930   16.8950  -33.9320 C   0  0  0  0  0  0  0  0  0  0  0  0
   -5.1110   15.7290  -34.4570 O   0  0  0  0  0  0  0  0  0  0  0  0
   -5.2550   14.4140  -33.9210 C   0  0  0  0  0  0  0  0  0  0  0  0
   -6.3142   14.2351  -33.6843 H   0  0  0  0  0  0  0  0  0  0  0  0
   -4.9015   13.6883  -34.6682 H   0  0  0  0  0  0  0  0  0  0  0  0
   -4.4250   14.2520  -32.6520 C   0  0  0  0  0  0  0  0  0  0  0  0
   -5.0725   14.3784  -31.7718 H   0  0  0  0  0  0  0  0  0  0  0  0
   -3.9740   13.2489  -32.6344 H   0  0  0  0  0  0  0  0  0  0  0  0
   -3.6299   15.0119  -32.6344 H   0  0  0  0  0  0  0  0  0  0  0  0
   -6.4790   16.8940  -32.7620 C   0  0  0  0  0  0  0  0  0  0  0  0
   -6.6581   15.9523  -32.2224 H   0  0  0  0  0  0  0  0  0  0  0  0
   -7.0320   18.0870  -32.2850 C   0  0  0  0  0  0  0  0  0  0  0  0
   -7.6490   18.0775  -31.3744 H   0  0  0  0  0  0  0  0  0  0  0  0
  1  2  1  0
  2  3  2  0
  3  4  1  0
  4  5  1  0
  4  6  1  0
  6  7  2  0
  7  8  1  0
  7  9  1  0
  9 10  1  0
  9 11  2  0
 11 12  1  0
 12 13  1  0
 12 14  1  0
 11 15  1  0
 15 16  1  0
 15 17  2  0
 17 18  1  0
 18 19  1  0
 19 20  2  0
 20 21  1  0
 20 22  1  0
 22 23  1  0
 22 24  2  0
 24 25  1  0
 25 26  1  0
 26 27  1  0
 26 28  1  0
 26 29  1  0
 29 30  1  0
 29 31  1  0
 29 32  1  0
 24 33  1  0
 33 34  1  0
 33 35  2  0
 35 36  1  0
 18  3  1  0
 35 19  1  0
 17  6  1  0
M  END
>  <UniqueID>  (37) 
37

>  <SMILES>  (37) 
[H]/N=c1\[nH]c2cc(Cl)c(N)cc2n1-c1ccc(OCC)cc1

>  <Energy>  (37) 
82.40660517692805

>  <Genealogy>  (37) 
[H]/N=c1\[nH]c2cc(Cl)c(N)cc2n1-c1ccc(OCC)cc1 (cis-trans isomerization)
[H]/N=c1\[nH]c2cc(Cl)c(N)cc2n1-c1ccc(OCC)cc1 (3D coordinates assigned)
[H]/N=c1\[nH]c2cc(Cl)c(N)cc2n1-c1ccc(OCC)cc1 (optimized conformer: 82.40660517692805 kcal/mol)

>  <smiles>  (37) 
CCOc1ccc(-n2c(=N)[nH]c3cc(Cl)c(N)cc32)cc1

>  <score_type>  (37) 
oracle

>  <origin>  (37) 
adgpu

>  <m_score__min__energy>  (37) 
-6.9299999999999997

>  <m_primary>  (37) 
energy

$$$$
37:0
     RDKit          3D

 34 36  0  0  1  0  0  0  0  0999 V2000
   -8.0260   18.8680  -31.2330 C   0  0  0  0  0  0  0  0  0  0  0  0
   -7.1750   18.6050  -32.4190 C   0  0  0  0  0  0  0  0  0  0  0  0
   -7.2450   17.3910  -33.0580 C   0  0  0  0  0  0  0  0  0  0  0  0
   -6.4640   17.1020  -34.1740 C   0  0  0  0  0  0  0  0  0  0  0  0
   -5.5920   18.0860  -34.6450 C   0  0  0  0  0  0  0  0  0  0  0  0
   -4.8280   17.8380  -35.7170 F   0  0  0  0  0  0  0  0  0  0  0  0
   -5.5060   19.2940  -34.0280 C   0  0  0  0  0  0  0  0  0  0  0  0
   -6.3060   19.5480  -32.9100 C   0  0  0  0  0  0  0  0  0  0  0  0
   -6.2330   20.8070  -32.2480 N   0  0  0  0  0  0  0  0  0  0  0  0
   -5.1110   21.3120  -31.8800 C   0  0  0  0  0  0  0  0  0  0  0  0
   -4.0020   20.6080  -32.1420 N   0  0  0  0  0  0  0  0  0  0  0  0
   -2.7590   20.9790  -31.8310 C   0  0  0  0  0  0  0  0  0  0  0  0
   -2.6440   22.1830  -31.1940 N   0  0  0  0  0  0  0  0  0  0  0  0
   -3.7290   22.9200  -30.9120 C   0  0  0  0  0  0  0  0  0  0  0  0
   -3.8400   24.4910  -30.1030 S   0  0  0  0  0  0  0  0  0  0  0  0
   -5.6520   24.5650  -30.2350 C   0  0  0  0  0  0  0  0  0  0  0  0
   -6.4940   25.6740  -29.7340 C   0  0  0  0  0  0  0  0  0  0  0  0
   -6.0070   23.3920  -30.8810 C   0  0  0  0  0  0  0  0  0  0  0  0
   -7.4750   23.1300  -31.1590 C   0  0  0  0  0  0  0  0  0  0  0  0
   -5.0200   22.5550  -31.2240 C   0  0  0  0  0  0  0  0  0  0  0  0
   -7.4441   18.6882  -30.3170 H   0  0  0  0  0  0  0  0  0  0  0  0
   -8.3673   19.9135  -31.2512 H   0  0  0  0  0  0  0  0  0  0  0  0
   -8.8977   18.1973  -31.2512 H   0  0  0  0  0  0  0  0  0  0  0  0
   -7.9374   16.6257  -32.6774 H   0  0  0  0  0  0  0  0  0  0  0  0
   -6.5321   16.1235  -34.6720 H   0  0  0  0  0  0  0  0  0  0  0  0
   -4.8150   20.0629  -34.4040 H   0  0  0  0  0  0  0  0  0  0  0  0
   -1.8841   20.3570  -32.0713 H   0  0  0  0  0  0  0  0  0  0  0  0
   -1.7050   22.5410  -30.9180 H   0  0  0  0  0  0  0  0  0  0  0  0
   -6.4903   25.6691  -28.6340 H   0  0  0  0  0  0  0  0  0  0  0  0
   -6.0935   26.6317  -30.0978 H   0  0  0  0  0  0  0  0  0  0  0  0
   -7.5241   25.5455  -30.0978 H   0  0  0  0  0  0  0  0  0  0  0  0
   -8.0170   23.0333  -30.2067 H   0  0  0  0  0  0  0  0  0  0  0  0
   -7.8941   23.9675  -31.7360 H   0  0  0  0  0  0  0  0  0  0  0  0
   -7.5785   22.1992  -31.7360 H   0  0  0  0  0  0  0  0  0  0  0  0
  1  2  1  0
  2  3  2  0
  3  4  1  0
  4  5  2  0
  5  6  1  0
  5  7  1  0
  7  8  2  0
  8  9  1  0
  9 10  2  0
 10 11  1  0
 11 12  2  0
 12 13  1  0
 13 14  1  0
 14 15  1  0
 15 16  1  0
 16 17  1  0
 16 18  2  0
 18 19  1  0
 18 20  1  0
  8  2  1  0
 20 10  1  0
 20 14  2  0
  1 21  1  0
  1 22  1  0
  1 23  1  0
  3 24  1  0
  4 25  1  0
  7 26  1  0
 12 27  1  0
 13 28  1  0
 17 29  1  0
 17 30  1  0
 17 31  1  0
 19 32  1  0
 19 33  1  0
 19 34  1  0
M  END
>  <smiles>  (38) 
Cc1ccc(F)cc1N=c1nc[nH]c2sc(C)c(C)c12

>  <score_type>  (38) 
oracle

>  <origin>  (38) 
adgpu

>  <m_score__min__energy>  (38) 
-7.54

>  <m_primary>  (38) 
energy

$$$$
38:0
     RDKit          3D

 29 30  0  0  0  0  0  0  0  0999 V2000
   -3.0210   24.0070  -27.9140 C   0  0  0  0  0  0  0  0  0  0  0  0
   -2.6680   24.9060  -29.0600 C   0  0  0  0  0  0  0  0  0  0  0  0
   -1.6210   25.6010  -28.9880 O   0  0  0  0  0  0  0  0  0  0  0  0
   -3.5040   25.0310  -30.2180 N   0  0  0  0  0  0  0  0  0  0  0  0
   -4.6390   24.2170  -30.5450 C   0  0  0  0  0  0  0  0  0  0  0  0
   -4.6550   22.8340  -30.2910 C   0  0  0  0  0  0  0  0  0  0  0  0
   -5.7680   22.0660  -30.6470 C   0  0  0  0  0  0  0  0  0  0  0  0
   -6.8670   22.6670  -31.2680 C   0  0  0  0  0  0  0  0  0  0  0  0
   -8.2960   21.6790  -31.7160 S   0  0  0  0  0  0  0  0  0  0  0  0
   -7.2960   20.4050  -32.4990 C   0  0  0  0  0  0  0  0  0  0  0  0
   -6.1430   20.7830  -33.2010 C   0  0  0  0  0  0  0  0  0  0  0  0
   -5.3410   19.8150  -33.8140 C   0  0  0  0  0  0  0  0  0  0  0  0
   -5.6930   18.4660  -33.7350 C   0  0  0  0  0  0  0  0  0  0  0  0
   -6.8470   18.0820  -33.0480 C   0  0  0  0  0  0  0  0  0  0  0  0
   -7.6550   19.0440  -32.4310 C   0  0  0  0  0  0  0  0  0  0  0  0
   -9.1120   18.5180  -31.6000 Cl  0  0  0  0  0  0  0  0  0  0  0  0
   -6.8390   24.0360  -31.5590 C   0  0  0  0  0  0  0  0  0  0  0  0
   -5.7270   24.8050  -31.2040 C   0  0  0  0  0  0  0  0  0  0  0  0
   -2.8175   24.5252  -26.9653 H   0  0  0  0  0  0  0  0  0  0  0  0
   -4.0883   23.7462  -27.9678 H   0  0  0  0  0  0  0  0  0  0  0  0
   -2.4163   23.0897  -27.9678 H   0  0  0  0  0  0  0  0  0  0  0  0
   -3.7892   22.3548  -29.8107 H   0  0  0  0  0  0  0  0  0  0  0  0
   -5.7789   20.9861  -30.4379 H   0  0  0  0  0  0  0  0  0  0  0  0
   -5.8678   21.8458  -33.2700 H   0  0  0  0  0  0  0  0  0  0  0  0
   -4.4336   20.1161  -34.3580 H   0  0  0  0  0  0  0  0  0  0  0  0
   -5.0605   17.7045  -34.2146 H   0  0  0  0  0  0  0  0  0  0  0  0
   -7.1221   17.0184  -32.9916 H   0  0  0  0  0  0  0  0  0  0  0  0
   -7.6930   24.5071  -32.0676 H   0  0  0  0  0  0  0  0  0  0  0  0
   -5.7058   25.8784  -31.4434 H   0  0  0  0  0  0  0  0  0  0  0  0
  1  2  1  0
  2  3  2  0
  2  4  1  0
  4  5  1  0
  5  6  2  0
  6  7  1  0
  7  8  2  0
  8  9  1  0
  9 10  1  0
 10 11  2  0
 11 12  1  0
 12 13  2  0
 13 14  1  0
 14 15  2  0
 15 16  1  0
  8 17  1  0
 17 18  2  0
 18  5  1  0
 15 10  1  0
  1 19  1  0
  1 20  1  0
  1 21  1  0
  6 22  1  0
  7 23  1  0
 11 24  1  0
 12 25  1  0
 13 26  1  0
 14 27  1  0
 17 28  1  0
 18 29  1  0
M  CHG  1   4  -1
M  END
>  <UniqueID>  (39) 
38

>  <SMILES>  (39) 
CC(=O)[N-]c1ccc(Sc2ccccc2Cl)cc1

>  <Energy>  (39) 
29.14059858768183

>  <Genealogy>  (39) 
CC(=O)[N-]c1ccc(Sc2ccccc2Cl)cc1 (protonated)
CC(=O)[N-]c1ccc(Sc2ccccc2Cl)cc1 (3D coordinates assigned)
CC(=O)[N-]c1ccc(Sc2ccccc2Cl)cc1 (optimized conformer: 29.14059858768183 kcal/mol)

>  <smiles>  (39) 
CC(=O)Nc1ccc(Sc2ccccc2Cl)cc1

>  <score_type>  (39) 
oracle

>  <origin>  (39) 
adgpu

>  <m_score__min__energy>  (39) 
-9.8100000000000005

>  <m_primary>  (39) 
energy

$$$$
39:0
     RDKit          3D

 35 36  0  0  0  0  0  0  0  0999 V2000
   -5.7907   21.5469  -32.0766 H   0  0  0  0  0  0  0  0  0  0  0  0
   -5.1530   20.6510  -32.1020 C   0  0  0  0  0  0  0  0  0  0  0  0
   -3.9260   20.7320  -31.5630 C   0  0  0  0  0  0  0  0  0  0  0  0
   -3.2870   19.8369  -31.5876 H   0  0  0  0  0  0  0  0  0  0  0  0
   -3.3850   21.9630  -30.9360 C   0  0  0  0  0  0  0  0  0  0  0  0
   -2.0950   21.9250  -30.3930 C   0  0  0  0  0  0  0  0  0  0  0  0
   -1.5089   20.9956  -30.4454 H   0  0  0  0  0  0  0  0  0  0  0  0
   -1.5460   23.0550  -29.7860 C   0  0  0  0  0  0  0  0  0  0  0  0
   -0.5274   23.0107  -29.3730 H   0  0  0  0  0  0  0  0  0  0  0  0
   -2.2820   24.2500  -29.6970 C   0  0  0  0  0  0  0  0  0  0  0  0
   -1.7460   25.4000  -29.0940 O   0  0  0  0  0  0  0  0  0  0  0  0
   -1.5700   25.5740  -27.6920 C   0  0  0  0  0  0  0  0  0  0  0  0
   -2.2510   24.9008  -27.1506 H   0  0  0  0  0  0  0  0  0  0  0  0
   -0.5301   25.3391  -27.4211 H   0  0  0  0  0  0  0  0  0  0  0  0
   -1.7930   26.6165  -27.4211 H   0  0  0  0  0  0  0  0  0  0  0  0
   -3.5910   24.3000  -30.2210 C   0  0  0  0  0  0  0  0  0  0  0  0
   -4.3550   25.5200  -30.1190 N   0  0  0  0  0  0  0  0  0  0  0  0
   -3.8620   26.4220  -29.9300 H   0  0  0  0  0  0  0  0  0  0  0  0
   -5.8050   25.5830  -30.2740 C   0  0  0  0  0  0  0  0  0  0  0  0
   -6.2793   25.6036  -29.2817 H   0  0  0  0  0  0  0  0  0  0  0  0
   -6.0753   26.4937  -30.8286 H   0  0  0  0  0  0  0  0  0  0  0  0
   -6.1532   24.6991  -30.8286 H   0  0  0  0  0  0  0  0  0  0  0  0
   -4.1340   23.1500  -30.8310 C   0  0  0  0  0  0  0  0  0  0  0  0
   -5.1583   23.1813  -31.2307 H   0  0  0  0  0  0  0  0  0  0  0  0
   -5.6980   19.4220  -32.7300 C   0  0  0  0  0  0  0  0  0  0  0  0
   -5.2990   18.9800  -34.0090 C   0  0  0  0  0  0  0  0  0  0  0  0
   -4.5482   19.5506  -34.5753 H   0  0  0  0  0  0  0  0  0  0  0  0
   -5.8530   17.8200  -34.5610 C   0  0  0  0  0  0  0  0  0  0  0  0
   -5.5316   17.4782  -35.5559 H   0  0  0  0  0  0  0  0  0  0  0  0
   -6.8130   17.0950  -33.8520 C   0  0  0  0  0  0  0  0  0  0  0  0
   -7.2420   16.1794  -34.2852 H   0  0  0  0  0  0  0  0  0  0  0  0
   -7.2280   17.5330  -32.5930 C   0  0  0  0  0  0  0  0  0  0  0  0
   -7.9893   16.9655  -32.0377 H   0  0  0  0  0  0  0  0  0  0  0  0
   -6.6780   18.6910  -32.0370 C   0  0  0  0  0  0  0  0  0  0  0  0
   -7.0153   19.0336  -31.0476 H   0  0  0  0  0  0  0  0  0  0  0  0
  1  2  1  0
  2  3  2  0
  3  4  1  0
  3  5  1  0
  5  6  2  0
  6  7  1  0
  6  8  1  0
  8  9  1  0
  8 10  2  0
 10 11  1  0
 11 12  1  0
 12 13  1  0
 12 14  1  0
 12 15  1  0
 10 16  1  0
 16 17  1  0
 17 18  1  0
 17 19  1  0
 19 20  1  0
 19 21  1  0
 19 22  1  0
 16 23  2  0
 23 24  1  0
  2 25  1  0
 25 26  2  0
 26 27  1  0
 26 28  1  0
 28 29  1  0
 28 30  2  0
 30 31  1  0
 30 32  1  0
 32 33  1  0
 32 34  2  0
 34 35  1  0
 23  5  1  0
 34 25  1  0
M  END
>  <UniqueID>  (40) 
39

>  <SMILES>  (40) 
CNc1cc(/C=C/c2ccccc2)ccc1OC

>  <Energy>  (40) 
39.40048681348758

>  <Genealogy>  (40) 
CNc1cc(/C=C/c2ccccc2)ccc1OC (cis-trans isomerization)
CNc1cc(/C=C/c2ccccc2)ccc1OC (3D coordinates assigned)
CNc1cc(/C=C/c2ccccc2)ccc1OC (optimized conformer: 39.40048681348758 kcal/mol)

>  <smiles>  (40) 
CNc1cc(C=Cc2ccccc2)ccc1OC

>  <score_type>  (40) 
oracle

>  <origin>  (40) 
adgpu

>  <m_score__min__energy>  (40) 
-7.6500000000000004

>  <m_primary>  (40) 
energy

$$$$
40:0
     RDKit          3D

 25 26  0  0  0  0  0  0  0  0999 V2000
   -3.8600   25.1480  -30.4550 O   0  0  0  0  0  0  0  0  0  0  0  0
   -4.4720   24.1430  -29.9990 C   0  0  0  0  0  0  0  0  0  0  0  0
   -4.1160   23.6110  -28.7090 N   0  0  0  0  0  0  0  0  0  0  0  0
   -3.0950   24.1840  -27.8740 C   0  0  0  0  0  0  0  0  0  0  0  0
   -3.4450   24.9100  -26.7220 C   0  0  0  0  0  0  0  0  0  0  0  0
   -2.4540   25.4400  -25.8920 C   0  0  0  0  0  0  0  0  0  0  0  0
   -1.1070   25.2420  -26.1960 C   0  0  0  0  0  0  0  0  0  0  0  0
   -0.7410   24.5090  -27.3290 C   0  0  0  0  0  0  0  0  0  0  0  0
    0.9690   24.2800  -27.6690 Cl  0  0  0  0  0  0  0  0  0  0  0  0
   -1.7330   23.9710  -28.1700 C   0  0  0  0  0  0  0  0  0  0  0  0
   -1.2710   23.0630  -29.6100 Cl  0  0  0  0  0  0  0  0  0  0  0  0
   -5.5470   23.5280  -30.8150 C   0  0  0  0  0  0  0  0  0  0  0  0
   -6.8550   24.0450  -30.8140 C   0  0  0  0  0  0  0  0  0  0  0  0
   -7.8400   23.4310  -31.5910 C   0  0  0  0  0  0  0  0  0  0  0  0
   -7.5400   22.3370  -32.3380 N   0  0  0  0  0  0  0  0  0  0  0  0
   -6.2890   21.8070  -32.3520 C   0  0  0  0  0  0  0  0  0  0  0  0
   -5.2730   22.3880  -31.5890 C   0  0  0  0  0  0  0  0  0  0  0  0
   -4.5990   22.7570  -28.3570 H   0  0  0  0  0  0  0  0  0  0  0  0
   -4.5056   25.0616  -26.4727 H   0  0  0  0  0  0  0  0  0  0  0  0
   -2.7363   26.0144  -24.9973 H   0  0  0  0  0  0  0  0  0  0  0  0
   -0.3299   25.6641  -25.5419 H   0  0  0  0  0  0  0  0  0  0  0  0
   -7.1008   24.9275  -30.2050 H   0  0  0  0  0  0  0  0  0  0  0  0
   -8.8630   23.8352  -31.5980 H   0  0  0  0  0  0  0  0  0  0  0  0
   -6.0758   20.9190  -32.9651 H   0  0  0  0  0  0  0  0  0  0  0  0
   -4.2621   21.9544  -31.5943 H   0  0  0  0  0  0  0  0  0  0  0  0
  1  2  2  0
  2  3  1  0
  3  4  1  0
  4  5  2  0
  5  6  1  0
  6  7  2  0
  7  8  1  0
  8  9  1  0
  8 10  2  0
 10 11  1  0
  2 12  1  0
 12 13  2  0
 13 14  1  0
 14 15  2  0
 15 16  1  0
 16 17  2  0
 10  4  1  0
 17 12  1  0
  3 18  1  0
  5 19  1  0
  6 20  1  0
  7 21  1  0
 13 22  1  0
 14 23  1  0
 16 24  1  0
 17 25  1  0
M  END
>  <UniqueID>  (41) 
40

>  <SMILES>  (41) 
O=C(Nc1cccc(Cl)c1Cl)c1ccncc1

>  <Energy>  (41) 
35.64314839198277

>  <Genealogy>  (41) 
O=C(Nc1cccc(Cl)c1Cl)c1ccncc1 (3D coordinates assigned)
O=C(Nc1cccc(Cl)c1Cl)c1ccncc1 (optimized conformer: 35.64314839198277 kcal/mol)

>  <smiles>  (41) 
O=C(Nc1cccc(Cl)c1Cl)c1ccncc1

>  <score_type>  (41) 
oracle

>  <origin>  (41) 
adgpu

>  <m_score__min__energy>  (41) 
-6.6799999999999997

>  <m_primary>  (41) 
energy

$$$$
41:0
     RDKit          3D

 37 38  0  0  0  0  0  0  0  0999 V2000
   -8.7660   18.7480  -31.9480 C   0  0  0  0  0  0  0  0  0  0  0  0
   -7.4460   18.7690  -32.7120 C   0  0  0  0  0  0  0  0  0  0  0  0
   -7.2190   20.0510  -33.2960 O   0  0  0  0  0  0  0  0  0  0  0  0
   -6.7900   21.1980  -32.6080 C   0  0  0  0  0  0  0  0  0  0  0  0
   -5.4220   21.4990  -32.6150 C   0  0  0  0  0  0  0  0  0  0  0  0
   -4.9380   22.6300  -31.9520 C   0  0  0  0  0  0  0  0  0  0  0  0
   -5.8210   23.4790  -31.2740 C   0  0  0  0  0  0  0  0  0  0  0  0
   -5.2230   24.9170  -30.4510 S   0  0  0  0  0  0  0  0  0  0  0  0
   -5.7090   26.1350  -31.1830 O   0  0  0  0  0  0  0  0  0  0  0  0
   -5.7210   24.9650  -29.0330 O   0  0  0  0  0  0  0  0  0  0  0  0
   -3.4890   24.9130  -30.4400 N   0  0  0  0  0  0  0  0  0  0  0  0
   -2.6710   24.1650  -29.5310 C   0  0  0  0  0  0  0  0  0  0  0  0
   -1.5640   24.7970  -28.9490 C   0  0  0  0  0  0  0  0  0  0  0  0
   -0.7370   24.1030  -28.0620 C   0  0  0  0  0  0  0  0  0  0  0  0
   -1.0110   22.7700  -27.7460 C   0  0  0  0  0  0  0  0  0  0  0  0
   -2.1160   22.1290  -28.3170 C   0  0  0  0  0  0  0  0  0  0  0  0
   -2.4640   20.4140  -27.9200 S   0  0  0  0  0  0  0  0  0  0  0  0
   -1.5740   20.4770  -26.3330 C   0  0  0  0  0  0  0  0  0  0  0  0
   -2.9440   22.8220  -29.2090 C   0  0  0  0  0  0  0  0  0  0  0  0
   -7.1890   23.1850  -31.2610 C   0  0  0  0  0  0  0  0  0  0  0  0
   -7.6750   22.0550  -31.9240 C   0  0  0  0  0  0  0  0  0  0  0  0
   -8.5639   18.7512  -30.8667 H   0  0  0  0  0  0  0  0  0  0  0  0
   -9.3573   19.6369  -32.2131 H   0  0  0  0  0  0  0  0  0  0  0  0
   -9.3287   17.8408  -32.2131 H   0  0  0  0  0  0  0  0  0  0  0  0
   -6.6241   18.5380  -32.0184 H   0  0  0  0  0  0  0  0  0  0  0  0
   -7.4914   18.0187  -33.5151 H   0  0  0  0  0  0  0  0  0  0  0  0
   -4.7218   20.8387  -33.1476 H   0  0  0  0  0  0  0  0  0  0  0  0
   -3.8610   22.8537  -31.9628 H   0  0  0  0  0  0  0  0  0  0  0  0
   -1.3445   25.8471  -29.1922 H   0  0  0  0  0  0  0  0  0  0  0  0
    0.1310   24.6069  -27.6119 H   0  0  0  0  0  0  0  0  0  0  0  0
   -0.3583   22.2245  -27.0486 H   0  0  0  0  0  0  0  0  0  0  0  0
   -2.2965   20.4259  -25.5051 H   0  0  0  0  0  0  0  0  0  0  0  0
   -0.8805   19.6257  -26.2675 H   0  0  0  0  0  0  0  0  0  0  0  0
   -1.0073   21.4175  -26.2675 H   0  0  0  0  0  0  0  0  0  0  0  0
   -3.8103   22.3154  -29.6594 H   0  0  0  0  0  0  0  0  0  0  0  0
   -7.8857   23.8471  -30.7259 H   0  0  0  0  0  0  0  0  0  0  0  0
   -8.7524   21.8337  -31.9119 H   0  0  0  0  0  0  0  0  0  0  0  0
  1  2  1  0
  2  3  1  0
  3  4  1  0
  4  5  2  0
  5  6  1  0
  6  7  2  0
  7  8  1  0
  8  9  2  0
  8 10  2  0
  8 11  1  0
 11 12  1  0
 12 13  2  0
 13 14  1  0
 14 15  2  0
 15 16  1  0
 16 17  1  0
 17 18  1  0
 16 19  2  0
  7 20  1  0
 20 21  2  0
 21  4  1  0
 19 12  1  0
  1 22  1  0
  1 23  1  0
  1 24  1  0
  2 25  1  0
  2 26  1  0
  5 27  1  0
  6 28  1  0
 13 29  1  0
 14 30  1  0
 15 31  1  0
 18 32  1  0
 18 33  1  0
 18 34  1  0
 19 35  1  0
 20 36  1  0
 21 37  1  0
M  CHG  1  11  -1
M  END
>  <UniqueID>  (42) 
41

>  <SMILES>  (42) 
CCOc1ccc(S(=O)(=O)[N-]c2cccc(SC)c2)cc1

>  <Energy>  (42) 
33.49450788875514

>  <Genealogy>  (42) 
CCOc1ccc(S(=O)(=O)[N-]c2cccc(SC)c2)cc1 (protonated)
CCOc1ccc(S(=O)(=O)[N-]c2cccc(SC)c2)cc1 (3D coordinates assigned)
CCOc1ccc(S(=O)(=O)[N-]c2cccc(SC)c2)cc1 (optimized conformer: 33.49450788875514 kcal/mol)

>  <smiles>  (42) 
CCOc1ccc(S(=O)(=O)Nc2cccc(SC)c2)cc1

>  <score_type>  (42) 
oracle

>  <origin>  (42) 
adgpu

>  <m_score__min__energy>  (42) 
-8.6899999999999995

>  <m_primary>  (42) 
energy

$$$$
42:0
     RDKit          3D

 27 28  0  0  0  0  0  0  0  0999 V2000
   -6.0470   16.1560  -33.9460 Cl  0  0  0  0  0  0  0  0  0  0  0  0
   -6.6070   17.7090  -33.3530 C   0  0  0  0  0  0  0  0  0  0  0  0
   -6.0840   18.8920  -33.8860 C   0  0  0  0  0  0  0  0  0  0  0  0
   -6.5350   20.1300  -33.4220 C   0  0  0  0  0  0  0  0  0  0  0  0
   -7.5190   20.1950  -32.4200 C   0  0  0  0  0  0  0  0  0  0  0  0
   -8.0430   21.5310  -31.9650 C   0  0  0  0  0  0  0  0  0  0  0  0
   -7.1660   22.6240  -32.4120 N   0  0  0  0  0  0  0  0  0  0  0  0
   -7.2540   23.8110  -31.5450 C   0  0  0  0  0  0  0  0  0  0  0  0
   -5.9320   24.1030  -30.9040 C   0  0  0  0  0  0  0  0  0  0  0  0
   -5.7230   24.9020  -29.8010 C   0  0  0  0  0  0  0  0  0  0  0  0
   -4.4110   24.8910  -29.5290 N   0  0  0  0  0  0  0  0  0  0  0  0
   -3.8530   24.1000  -30.4660 C   0  0  0  0  0  0  0  0  0  0  0  0
   -4.7580   23.5990  -31.3330 N   0  0  0  0  0  0  0  0  0  0  0  0
   -8.0320   19.0040  -31.8810 C   0  0  0  0  0  0  0  0  0  0  0  0
   -7.5780   17.7660  -32.3480 C   0  0  0  0  0  0  0  0  0  0  0  0
   -5.3160   18.8472  -34.6722 H   0  0  0  0  0  0  0  0  0  0  0  0
   -6.1187   21.0574  -33.8422 H   0  0  0  0  0  0  0  0  0  0  0  0
   -9.0489   21.6837  -32.3831 H   0  0  0  0  0  0  0  0  0  0  0  0
   -8.0762   21.5372  -30.8655 H   0  0  0  0  0  0  0  0  0  0  0  0
   -6.1820   22.2710  -32.3540 H   0  0  0  0  0  0  0  0  0  0  0  0
   -7.5602   24.6772  -32.1500 H   0  0  0  0  0  0  0  0  0  0  0  0
   -7.9928   23.6149  -30.7540 H   0  0  0  0  0  0  0  0  0  0  0  0
   -6.4957   25.4512  -29.2430 H   0  0  0  0  0  0  0  0  0  0  0  0
   -3.9230   25.3880  -28.7510 H   0  0  0  0  0  0  0  0  0  0  0  0
   -2.7754   23.8855  -30.5188 H   0  0  0  0  0  0  0  0  0  0  0  0
   -8.7938   19.0448  -31.0885 H   0  0  0  0  0  0  0  0  0  0  0  0
   -7.9852   16.8361  -31.9243 H   0  0  0  0  0  0  0  0  0  0  0  0
  1  2  1  0
  2  3  2  0
  3  4  1  0
  4  5  2  0
  5  6  1  0
  6  7  1  0
  7  8  1  0
  8  9  1  0
  9 10  2  0
 10 11  1  0
 11 12  1  0
 12 13  2  0
  5 14  1  0
 14 15  2  0
 15  2  1  0
 13  9  1  0
  3 16  1  0
  4 17  1  0
  6 18  1  0
  6 19  1  0
  7 20  1  0
  8 21  1  0
  8 22  1  0
 10 23  1  0
 11 24  1  0
 12 25  1  0
 14 26  1  0
 15 27  1  0
M  END
>  <UniqueID>  (43) 
42

>  <SMILES>  (43) 
Clc1ccc(CNCc2c[nH]cn2)cc1

>  <Energy>  (43) 
52.72513523770953

>  <Genealogy>  (43) 
Clc1ccc(CNCc2c[nH]cn2)cc1 (3D coordinates assigned)
Clc1ccc(CNCc2c[nH]cn2)cc1 (optimized conformer: 52.72513523770953 kcal/mol)

>  <smiles>  (43) 
Clc1ccc(CNCc2c[nH]cn2)cc1

>  <score_type>  (43) 
oracle

>  <origin>  (43) 
adgpu

>  <m_score__min__energy>  (43) 
-6.3799999999999999

>  <m_primary>  (43) 
energy

$$$$
43:0
     RDKit          3D

 33 34  0  0  0  0  0  0  0  0999 V2000
   -6.5670   25.1440  -29.9240 C   0  0  0  0  0  0  0  0  0  0  0  0
   -4.9560   24.4480  -30.2110 S   0  0  0  0  0  0  0  0  0  0  0  0
   -4.5130   23.7020  -28.9840 O   0  0  0  0  0  0  0  0  0  0  0  0
   -3.9720   25.5520  -30.4820 O   0  0  0  0  0  0  0  0  0  0  0  0
   -5.0090   23.3710  -31.5750 N   0  0  0  0  0  0  0  0  0  0  0  0
   -6.1960   23.3650  -32.4380 C   0  0  0  0  0  0  0  0  0  0  0  0
   -6.9730   22.0870  -32.2610 C   0  0  0  0  0  0  0  0  0  0  0  0
   -8.0470   22.0330  -31.3590 C   0  0  0  0  0  0  0  0  0  0  0  0
   -8.7400   20.8350  -31.1580 C   0  0  0  0  0  0  0  0  0  0  0  0
   -8.3640   19.6820  -31.8540 C   0  0  0  0  0  0  0  0  0  0  0  0
   -9.2330   18.1790  -31.5980 Cl  0  0  0  0  0  0  0  0  0  0  0  0
   -7.2910   19.7260  -32.7500 C   0  0  0  0  0  0  0  0  0  0  0  0
   -6.5960   20.9220  -32.9520 C   0  0  0  0  0  0  0  0  0  0  0  0
   -3.8790   22.5250  -31.8650 C   0  0  0  0  0  0  0  0  0  0  0  0
   -3.7520   21.9050  -33.1200 C   0  0  0  0  0  0  0  0  0  0  0  0
   -2.6660   21.0660  -33.3860 C   0  0  0  0  0  0  0  0  0  0  0  0
   -1.7000   20.8400  -32.4030 C   0  0  0  0  0  0  0  0  0  0  0  0
   -1.8180   21.4510  -31.1510 C   0  0  0  0  0  0  0  0  0  0  0  0
   -0.8820   21.2270  -30.1970 F   0  0  0  0  0  0  0  0  0  0  0  0
   -2.9030   22.2910  -30.8820 C   0  0  0  0  0  0  0  0  0  0  0  0
   -6.7455   25.2211  -28.8413 H   0  0  0  0  0  0  0  0  0  0  0  0
   -6.6198   26.1452  -30.3766 H   0  0  0  0  0  0  0  0  0  0  0  0
   -7.3322   24.4962  -30.3766 H   0  0  0  0  0  0  0  0  0  0  0  0
   -6.8386   24.2182  -32.1751 H   0  0  0  0  0  0  0  0  0  0  0  0
   -5.8727   23.4414  -33.4866 H   0  0  0  0  0  0  0  0  0  0  0  0
   -8.3450   22.9370  -30.8077 H   0  0  0  0  0  0  0  0  0  0  0  0
   -9.5822   20.7997  -30.4513 H   0  0  0  0  0  0  0  0  0  0  0  0
   -6.9937   18.8187  -33.2963 H   0  0  0  0  0  0  0  0  0  0  0  0
   -5.7503   20.9518  -33.6548 H   0  0  0  0  0  0  0  0  0  0  0  0
   -4.5109   22.0808  -33.8966 H   0  0  0  0  0  0  0  0  0  0  0  0
   -2.5722   20.5835  -34.3701 H   0  0  0  0  0  0  0  0  0  0  0  0
   -0.8453   20.1805  -32.6141 H   0  0  0  0  0  0  0  0  0  0  0  0
   -2.9928   22.7708  -29.8962 H   0  0  0  0  0  0  0  0  0  0  0  0
  1  2  1  0
  2  3  2  0
  2  4  2  0
  2  5  1  0
  5  6  1  0
  6  7  1  0
  7  8  2  0
  8  9  1  0
  9 10  2  0
 10 11  1  0
 10 12  1  0
 12 13  2  0
  5 14  1  0
 14 15  2  0
 15 16  1  0
 16 17  2  0
 17 18  1  0
 18 19  1  0
 18 20  2  0
 13  7  1  0
 20 14  1  0
  1 21  1  0
  1 22  1  0
  1 23  1  0
  6 24  1  0
  6 25  1  0
  8 26  1  0
  9 27  1  0
 12 28  1  0
 13 29  1  0
 15 30  1  0
 16 31  1  0
 17 32  1  0
 20 33  1  0
M  END
>  <UniqueID>  (44) 
43

>  <SMILES>  (44) 
CS(=O)(=O)N(Cc1ccc(Cl)cc1)c1cccc(F)c1

>  <Energy>  (44) 
32.16843198594633

>  <Genealogy>  (44) 
CS(=O)(=O)N(Cc1ccc(Cl)cc1)c1cccc(F)c1 (3D coordinates assigned)
CS(=O)(=O)N(Cc1ccc(Cl)cc1)c1cccc(F)c1 (optimized conformer: 32.16843198594633 kcal/mol)

>  <smiles>  (44) 
CS(=O)(=O)N(Cc1ccc(Cl)cc1)c1cccc(F)c1

>  <score_type>  (44) 
oracle

>  <origin>  (44) 
adgpu

>  <m_score__min__energy>  (44) 
-7.6799999999999997

>  <m_primary>  (44) 
energy

$$$$
44:0
     RDKit          3D

 26 27  0  0  0  0  0  0  0  0999 V2000
  -10.1839   18.4861  -32.5217 H   0  0  0  0  0  0  0  0  0  0  0  0
   -9.1780   18.8860  -32.3260 C   0  0  0  0  0  0  0  0  0  0  0  0
   -8.7340   20.5120  -32.3690 S   0  0  0  0  0  0  0  0  0  0  0  0
   -7.1390   20.1930  -31.9560 C   0  0  0  0  0  0  0  0  0  0  0  0
   -6.2290   21.1170  -31.8480 N   0  0  0  0  0  0  0  0  0  0  0  0
   -4.8700   20.9130  -31.4370 C   0  0  0  0  0  0  0  0  0  0  0  0
   -4.3210   19.8100  -31.7000 O   0  0  0  0  0  0  0  0  0  0  0  0
   -4.0770   21.9860  -30.7870 C   0  0  0  0  0  0  0  0  0  0  0  0
   -3.0760   21.6740  -29.8500 C   0  0  0  0  0  0  0  0  0  0  0  0
   -2.8752   20.6229  -29.5951 H   0  0  0  0  0  0  0  0  0  0  0  0
   -2.3340   22.6900  -29.2400 C   0  0  0  0  0  0  0  0  0  0  0  0
   -1.5481   22.4332  -28.5145 H   0  0  0  0  0  0  0  0  0  0  0  0
   -2.5870   24.0390  -29.5490 C   0  0  0  0  0  0  0  0  0  0  0  0
   -1.8650   25.0900  -28.9610 O   0  0  0  0  0  0  0  0  0  0  0  0
   -1.6790   25.2520  -27.5580 C   0  0  0  0  0  0  0  0  0  0  0  0
   -2.4014   24.6228  -27.0173 H   0  0  0  0  0  0  0  0  0  0  0  0
   -0.6561   24.9519  -27.2867 H   0  0  0  0  0  0  0  0  0  0  0  0
   -1.8359   26.3064  -27.2867 H   0  0  0  0  0  0  0  0  0  0  0  0
   -3.5920   24.3510  -30.4720 C   0  0  0  0  0  0  0  0  0  0  0  0
   -3.8580   25.6790  -30.7890 O   0  0  0  0  0  0  0  0  0  0  0  0
   -4.3340   23.3350  -31.0840 C   0  0  0  0  0  0  0  0  0  0  0  0
   -5.1248   23.5943  -31.8033 H   0  0  0  0  0  0  0  0  0  0  0  0
   -6.9210   18.8660  -31.8000 N   0  0  0  0  0  0  0  0  0  0  0  0
   -6.0010   18.4250  -31.5840 H   0  0  0  0  0  0  0  0  0  0  0  0
   -8.0510   18.1380  -32.0000 C   0  0  0  0  0  0  0  0  0  0  0  0
   -8.0730   17.0418  -31.9110 H   0  0  0  0  0  0  0  0  0  0  0  0
  1  2  1  0
  2  3  1  0
  3  4  1  0
  4  5  2  0
  5  6  1  0
  6  7  2  0
  6  8  1  0
  8  9  2  0
  9 10  1  0
  9 11  1  0
 11 12  1  0
 11 13  2  0
 13 14  1  0
 14 15  1  0
 15 16  1  0
 15 17  1  0
 15 18  1  0
 13 19  1  0
 19 20  1  0
 19 21  2  0
 21 22  1  0
  4 23  1  0
 23 24  1  0
 23 25  1  0
 25 26  1  0
 25  2  2  0
 21  8  1  0
M  CHG  1  20  -1
M  END
>  <UniqueID>  (45) 
44

>  <SMILES>  (45) 
COc1ccc(C(=O)/N=c2\[nH]ccs2)cc1[O-]

>  <Energy>  (45) 
64.47915559226013

>  <Genealogy>  (45) 
COc1ccc(C(=O)N=c2[nH]ccs2)cc1[O-] (protonated)
COc1ccc(C(=O)/N=c2\[nH]ccs2)cc1[O-] (cis-trans isomerization)
COc1ccc(C(=O)/N=c2\[nH]ccs2)cc1[O-] (3D coordinates assigned)
COc1ccc(C(=O)/N=c2\[nH]ccs2)cc1[O-] (optimized conformer: 64.47915559226013 kcal/mol)

>  <smiles>  (45) 
COc1ccc(C(=O)N=c2[nH]ccs2)cc1O

>  <score_type>  (45) 
oracle

>  <origin>  (45) 
adgpu

>  <m_score__min__energy>  (45) 
-9.1199999999999992

>  <m_primary>  (45) 
energy

$$$$
45:0
     RDKit          3D

 47 49  0  0  0  0  0  0  0  0999 V2000
   -0.1370   26.2040  -23.9760 C   0  0  0  0  0  0  0  0  0  0  0  0
    0.2410   25.6860  -25.2480 O   0  0  0  0  0  0  0  0  0  0  0  0
   -0.6600   25.3670  -26.2770 C   0  0  0  0  0  0  0  0  0  0  0  0
   -2.0400   25.2230  -26.0440 C   0  0  0  0  0  0  0  0  0  0  0  0
   -2.9060   24.9000  -27.0920 C   0  0  0  0  0  0  0  0  0  0  0  0
   -2.4100   24.7160  -28.3890 C   0  0  0  0  0  0  0  0  0  0  0  0
   -3.3250   24.3380  -29.4850 C   0  0  0  0  0  0  0  0  0  0  0  0
   -3.8720   23.1150  -29.6310 N   0  0  0  0  0  0  0  0  0  0  0  0
   -4.6370   23.2880  -30.7310 C   0  0  0  0  0  0  0  0  0  0  0  0
   -5.5190   22.2420  -31.2940 C   0  0  0  0  0  0  0  0  0  0  0  0
   -6.9020   22.2850  -31.0690 C   0  0  0  0  0  0  0  0  0  0  0  0
   -7.7500   21.2670  -31.5500 C   0  0  0  0  0  0  0  0  0  0  0  0
   -9.1350   21.3180  -31.3280 O   0  0  0  0  0  0  0  0  0  0  0  0
  -10.1310   21.1470  -32.3310 C   0  0  0  0  0  0  0  0  0  0  0  0
   -7.1880   20.1840  -32.2720 C   0  0  0  0  0  0  0  0  0  0  0  0
   -7.9410   19.0960  -32.7530 O   0  0  0  0  0  0  0  0  0  0  0  0
   -8.6950   18.1750  -31.9730 C   0  0  0  0  0  0  0  0  0  0  0  0
   -5.8080   20.1600  -32.5310 C   0  0  0  0  0  0  0  0  0  0  0  0
   -5.2960   19.0910  -33.2840 O   0  0  0  0  0  0  0  0  0  0  0  0
   -5.7500   18.7240  -34.5830 C   0  0  0  0  0  0  0  0  0  0  0  0
   -4.9810   21.1840  -32.0360 C   0  0  0  0  0  0  0  0  0  0  0  0
   -4.5570   24.5430  -31.2160 N   0  0  0  0  0  0  0  0  0  0  0  0
   -3.7350   25.1590  -30.4210 O   0  0  0  0  0  0  0  0  0  0  0  0
   -1.0330   24.8670  -28.6280 C   0  0  0  0  0  0  0  0  0  0  0  0
   -0.1530   25.1930  -27.5760 C   0  0  0  0  0  0  0  0  0  0  0  0
    1.2270   25.3470  -27.7780 O   0  0  0  0  0  0  0  0  0  0  0  0
    2.2210   24.4890  -27.2330 C   0  0  0  0  0  0  0  0  0  0  0  0
    0.3116   25.5893  -23.1817 H   0  0  0  0  0  0  0  0  0  0  0  0
    0.2183   27.2408  -23.8820 H   0  0  0  0  0  0  0  0  0  0  0  0
   -1.2328   26.1819  -23.8820 H   0  0  0  0  0  0  0  0  0  0  0  0
   -2.4402   25.3657  -25.0294 H   0  0  0  0  0  0  0  0  0  0  0  0
   -3.9830   24.7896  -26.8974 H   0  0  0  0  0  0  0  0  0  0  0  0
   -7.3326   23.1273  -30.5077 H   0  0  0  0  0  0  0  0  0  0  0  0
  -11.1075   20.9793  -31.8532 H   0  0  0  0  0  0  0  0  0  0  0  0
  -10.1795   22.0500  -32.9573 H   0  0  0  0  0  0  0  0  0  0  0  0
   -9.8755   20.2796  -32.9573 H   0  0  0  0  0  0  0  0  0  0  0  0
   -8.5292   18.3775  -30.9046 H   0  0  0  0  0  0  0  0  0  0  0  0
   -9.7643   18.2867  -32.2057 H   0  0  0  0  0  0  0  0  0  0  0  0
   -8.3744   17.1488  -32.2057 H   0  0  0  0  0  0  0  0  0  0  0  0
   -6.6025   18.0348  -34.4923 H   0  0  0  0  0  0  0  0  0  0  0  0
   -6.0637   19.6253  -35.1300 H   0  0  0  0  0  0  0  0  0  0  0  0
   -4.9344   18.2284  -35.1300 H   0  0  0  0  0  0  0  0  0  0  0  0
   -3.8994   21.1532  -32.2341 H   0  0  0  0  0  0  0  0  0  0  0  0
   -0.6384   24.7295  -29.6455 H   0  0  0  0  0  0  0  0  0  0  0  0
    2.1764   24.5275  -26.1346 H   0  0  0  0  0  0  0  0  0  0  0  0
    2.0410   23.4579  -27.5714 H   0  0  0  0  0  0  0  0  0  0  0  0
    3.2147   24.8177  -27.5714 H   0  0  0  0  0  0  0  0  0  0  0  0
  1  2  1  0
  2  3  1  0
  3  4  2  0
  4  5  1  0
  5  6  2  0
  6  7  1  0
  7  8  2  0
  8  9  1  0
  9 10  1  0
 10 11  2  0
 11 12  1  0
 12 13  1  0
 13 14  1  0
 12 15  2  0
 15 16  1  0
 16 17  1  0
 15 18  1  0
 18 19  1  0
 19 20  1  0
 18 21  2  0
  9 22  2  0
 22 23  1  0
  6 24  1  0
 24 25  2  0
 25 26  1  0
 26 27  1  0
 25  3  1  0
 23  7  1  0
 21 10  1  0
  1 28  1  0
  1 29  1  0
  1 30  1  0
  4 31  1  0
  5 32  1  0
 11 33  1  0
 14 34  1  0
 14 35  1  0
 14 36  1  0
 17 37  1  0
 17 38  1  0
 17 39  1  0
 20 40  1  0
 20 41  1  0
 20 42  1  0
 21 43  1  0
 24 44  1  0
 27 45  1  0
 27 46  1  0
 27 47  1  0
M  END
>  <UniqueID>  (46) 
45

>  <SMILES>  (46) 
COc1ccc(-c2nc(-c3cc(OC)c(OC)c(OC)c3)no2)cc1OC

>  <Energy>  (46) 
83.81002676835017

>  <Genealogy>  (46) 
COc1ccc(-c2nc(-c3cc(OC)c(OC)c(OC)c3)no2)cc1OC (3D coordinates assigned)
COc1ccc(-c2nc(-c3cc(OC)c(OC)c(OC)c3)no2)cc1OC (optimized conformer: 83.81002676835017 kcal/mol)

>  <smiles>  (46) 
COc1ccc(-c2nc(-c3cc(OC)c(OC)c(OC)c3)no2)cc1OC

>  <score_type>  (46) 
oracle

>  <origin>  (46) 
adgpu

>  <m_score__min__energy>  (46) 
-7.2999999999999998

>  <m_primary>  (46) 
energy

$$$$
46:0
     RDKit          3D

 29 30  0  0  0  0  0  0  0  0999 V2000
   -9.5640   21.6360  -31.6020 C   0  0  0  0  0  0  0  0  0  0  0  0
   -8.7640   20.5870  -31.0670 O   0  0  0  0  0  0  0  0  0  0  0  0
   -8.0060   19.6900  -31.8360 C   0  0  0  0  0  0  0  0  0  0  0  0
   -8.0670   18.2970  -31.6290 C   0  0  0  0  0  0  0  0  0  0  0  0
   -7.2620   17.4350  -32.3780 C   0  0  0  0  0  0  0  0  0  0  0  0
   -6.3840   17.9490  -33.3320 C   0  0  0  0  0  0  0  0  0  0  0  0
   -6.3200   19.3270  -33.5530 C   0  0  0  0  0  0  0  0  0  0  0  0
   -7.1410   20.2000  -32.8290 C   0  0  0  0  0  0  0  0  0  0  0  0
   -7.0450   21.5750  -33.0890 O   0  0  0  0  0  0  0  0  0  0  0  0
   -6.2630   22.4810  -32.3580 C   0  0  0  0  0  0  0  0  0  0  0  0
   -4.9120   22.2240  -32.0560 C   0  0  0  0  0  0  0  0  0  0  0  0
   -4.1680   23.1500  -31.3170 C   0  0  0  0  0  0  0  0  0  0  0  0
   -4.7650   24.3330  -30.8630 C   0  0  0  0  0  0  0  0  0  0  0  0
   -4.0030   25.2800  -30.1080 N   0  0  0  0  0  0  0  0  0  0  0  0
   -6.1140   24.5810  -31.1480 C   0  0  0  0  0  0  0  0  0  0  0  0
   -6.8590   23.6560  -31.8870 C   0  0  0  0  0  0  0  0  0  0  0  0
  -10.0064   22.2161  -30.7787 H   0  0  0  0  0  0  0  0  0  0  0  0
   -8.9377   22.2959  -32.2203 H   0  0  0  0  0  0  0  0  0  0  0  0
  -10.3660   21.2066  -32.2203 H   0  0  0  0  0  0  0  0  0  0  0  0
   -8.7525   17.8861  -30.8732 H   0  0  0  0  0  0  0  0  0  0  0  0
   -7.3208   16.3487  -32.2149 H   0  0  0  0  0  0  0  0  0  0  0  0
   -5.7416   17.2690  -33.9107 H   0  0  0  0  0  0  0  0  0  0  0  0
   -5.6201   19.7287  -34.3006 H   0  0  0  0  0  0  0  0  0  0  0  0
   -4.4402   21.2925  -32.4021 H   0  0  0  0  0  0  0  0  0  0  0  0
   -3.1104   22.9484  -31.0917 H   0  0  0  0  0  0  0  0  0  0  0  0
   -4.3270   25.5990  -29.1680 H   0  0  0  0  0  0  0  0  0  0  0  0
   -3.1090   25.6680  -30.4850 H   0  0  0  0  0  0  0  0  0  0  0  0
   -6.5890   25.5061  -30.7895 H   0  0  0  0  0  0  0  0  0  0  0  0
   -7.9201   23.8536  -32.0992 H   0  0  0  0  0  0  0  0  0  0  0  0
  1  2  1  0
  2  3  1  0
  3  4  2  0
  4  5  1  0
  5  6  2  0
  6  7  1  0
  7  8  2  0
  8  9  1  0
  9 10  1  0
 10 11  2  0
 11 12  1  0
 12 13  2  0
 13 14  1  0
 13 15  1  0
 15 16  2  0
  8  3  1  0
 16 10  1  0
  1 17  1  0
  1 18  1  0
  1 19  1  0
  4 20  1  0
  5 21  1  0
  6 22  1  0
  7 23  1  0
 11 24  1  0
 12 25  1  0
 14 26  1  0
 14 27  1  0
 15 28  1  0
 16 29  1  0
M  END
>  <UniqueID>  (47) 
46

>  <SMILES>  (47) 
COc1ccccc1Oc1ccc(N)cc1

>  <Energy>  (47) 
35.35987652612048

>  <Genealogy>  (47) 
COc1ccccc1Oc1ccc(N)cc1 (3D coordinates assigned)
COc1ccccc1Oc1ccc(N)cc1 (optimized conformer: 35.35987652612048 kcal/mol)

>  <smiles>  (47) 
COc1ccccc1Oc1ccc(N)cc1

>  <score_type>  (47) 
oracle

>  <origin>  (47) 
adgpu

>  <m_score__min__energy>  (47) 
-6.6600000000000001

>  <m_primary>  (47) 
energy

$$$$
47:0
     RDKit          3D

 35 37  0  0  1  0  0  0  0  0999 V2000
   -6.4880   17.5320  -30.9390 C   0  0  0  0  0  0  0  0  0  0  0  0
   -6.1380   17.8440  -32.3350 C   0  0  0  0  0  0  0  0  0  0  0  0
   -5.2400   16.9580  -32.9550 C   0  0  0  0  0  0  0  0  0  0  0  0
   -4.7880   17.1560  -34.2390 C   0  0  0  0  0  0  0  0  0  0  0  0
   -5.2350   18.2470  -34.9080 C   0  0  0  0  0  0  0  0  0  0  0  0
   -6.1060   19.1080  -34.3090 C   0  0  0  0  0  0  0  0  0  0  0  0
   -6.5970   18.9480  -33.0030 C   0  0  0  0  0  0  0  0  0  0  0  0
   -7.5720   19.9020  -32.5370 C   0  0  0  0  0  0  0  0  0  0  0  0
   -7.1330   20.7930  -31.6060 N   0  0  0  0  0  0  0  0  0  0  0  0
   -7.9600   21.6750  -31.0740 C   0  0  0  0  0  0  0  0  0  0  0  0
   -7.5110   22.5100  -30.1920 N   0  0  0  0  0  0  0  0  0  0  0  0
   -6.1290   22.5170  -29.7580 C   0  0  0  0  0  0  0  0  0  0  0  0
   -5.4480   23.7790  -30.1960 C   0  0  0  0  0  0  0  0  0  0  0  0
   -4.1020   23.9930  -30.4210 C   0  0  0  0  0  0  0  0  0  0  0  0
   -3.9640   25.2790  -30.7990 N   0  0  0  0  0  0  0  0  0  0  0  0
   -5.1620   25.8810  -30.8220 N   0  0  0  0  0  0  0  0  0  0  0  0
   -6.1020   24.9800  -30.4530 C   0  0  0  0  0  0  0  0  0  0  0  0
   -9.2970   21.7690  -31.4030 C   0  0  0  0  0  0  0  0  0  0  0  0
   -9.7430   20.8690  -32.3450 C   0  0  0  0  0  0  0  0  0  0  0  0
   -8.8560   19.9780  -32.8660 N   0  0  0  0  0  0  0  0  0  0  0  0
   -5.8413   18.1085  -30.2612 H   0  0  0  0  0  0  0  0  0  0  0  0
   -7.5397   17.7977  -30.7565 H   0  0  0  0  0  0  0  0  0  0  0  0
   -6.3444   16.4568  -30.7565 H   0  0  0  0  0  0  0  0  0  0  0  0
   -4.8876   16.0787  -32.3958 H   0  0  0  0  0  0  0  0  0  0  0  0
   -4.0858   16.4511  -34.7082 H   0  0  0  0  0  0  0  0  0  0  0  0
   -4.8943   18.4380  -35.9363 H   0  0  0  0  0  0  0  0  0  0  0  0
   -6.4452   19.9821  -34.8842 H   0  0  0  0  0  0  0  0  0  0  0  0
   -6.0937   22.4486  -28.6607 H   0  0  0  0  0  0  0  0  0  0  0  0
   -5.6101   21.6578  -30.2081 H   0  0  0  0  0  0  0  0  0  0  0  0
   -3.2952   23.2533  -30.3122 H   0  0  0  0  0  0  0  0  0  0  0  0
   -5.3680   26.8840  -31.0790 H   0  0  0  0  0  0  0  0  0  0  0  0
   -7.1835   25.1633  -30.3713 H   0  0  0  0  0  0  0  0  0  0  0  0
   -9.9628   22.5140  -30.9429 H   0  0  0  0  0  0  0  0  0  0  0  0
  -10.7940   20.8702  -32.6695 H   0  0  0  0  0  0  0  0  0  0  0  0
   -9.2600   19.3590  -33.5910 H   0  0  0  0  0  0  0  0  0  0  0  0
  1  2  1  0
  2  3  2  0
  3  4  1  0
  4  5  2  0
  5  6  1  0
  6  7  2  0
  7  8  1  0
  8  9  2  0
  9 10  1  0
 10 11  2  0
 11 12  1  0
 12 13  1  0
 13 14  1  0
 14 15  2  0
 15 16  1  0
 16 17  1  0
 10 18  1  0
 18 19  2  0
 19 20  1  0
  7  2  1  0
 20  8  1  0
 17 13  2  0
  1 21  1  0
  1 22  1  0
  1 23  1  0
  3 24  1  0
  4 25  1  0
  5 26  1  0
  6 27  1  0
 12 28  1  0
 12 29  1  0
 14 30  1  0
 16 31  1  0
 17 32  1  0
 18 33  1  0
 19 34  1  0
 20 35  1  0
M  END
>  <smiles>  (48) 
Cc1ccccc1-c1nc(=NCc2cn[nH]c2)cc[nH]1

>  <score_type>  (48) 
oracle

>  <origin>  (48) 
adgpu

>  <m_score__min__energy>  (48) 
-8.5399999999999991

>  <m_primary>  (48) 
energy

$$$$
48:0
     RDKit          3D

 33 34  0  0  0  0  0  0  0  0999 V2000
   -0.7690   20.9450  -27.4740 C   0  0  0  0  0  0  0  0  0  0  0  0
   -0.8470   22.1110  -28.2910 O   0  0  0  0  0  0  0  0  0  0  0  0
   -2.0260   22.6040  -28.8740 C   0  0  0  0  0  0  0  0  0  0  0  0
   -3.1130   21.7510  -29.1550 C   0  0  0  0  0  0  0  0  0  0  0  0
   -4.2760   22.2500  -29.7380 C   0  0  0  0  0  0  0  0  0  0  0  0
   -4.3790   23.6060  -30.0550 C   0  0  0  0  0  0  0  0  0  0  0  0
   -5.8410   24.2360  -30.8080 S   0  0  0  0  0  0  0  0  0  0  0  0
   -6.9940   24.2000  -29.8420 O   0  0  0  0  0  0  0  0  0  0  0  0
   -5.5950   25.6580  -31.2240 O   0  0  0  0  0  0  0  0  0  0  0  0
   -6.2460   23.2920  -32.2070 N   0  0  0  0  0  0  0  0  0  0  0  0
   -7.1450   22.1700  -32.1870 C   0  0  0  0  0  0  0  0  0  0  0  0
   -6.6390   20.8820  -32.4280 C   0  0  0  0  0  0  0  0  0  0  0  0
   -7.4850   19.7700  -32.4070 C   0  0  0  0  0  0  0  0  0  0  0  0
   -8.8490   19.9330  -32.1510 C   0  0  0  0  0  0  0  0  0  0  0  0
   -9.3670   21.2090  -31.9180 C   0  0  0  0  0  0  0  0  0  0  0  0
   -8.5240   22.3240  -31.9380 C   0  0  0  0  0  0  0  0  0  0  0  0
   -3.3120   24.4660  -29.7740 C   0  0  0  0  0  0  0  0  0  0  0  0
   -2.1270   23.9820  -29.1870 C   0  0  0  0  0  0  0  0  0  0  0  0
   -1.0180   24.9340  -28.9190 C   0  0  0  0  0  0  0  0  0  0  0  0
    0.1370   24.5240  -28.6300 O   0  0  0  0  0  0  0  0  0  0  0  0
   -1.2400   26.3060  -28.9830 O   0  0  0  0  0  0  0  0  0  0  0  0
   -0.7886   21.2381  -26.4139 H   0  0  0  0  0  0  0  0  0  0  0  0
   -1.6253   20.2888  -27.6889 H   0  0  0  0  0  0  0  0  0  0  0  0
    0.1670   20.4087  -27.6889 H   0  0  0  0  0  0  0  0  0  0  0  0
   -3.0421   20.6806  -28.9115 H   0  0  0  0  0  0  0  0  0  0  0  0
   -5.1166   21.5728  -29.9495 H   0  0  0  0  0  0  0  0  0  0  0  0
   -5.7370   23.5170  -33.0920 H   0  0  0  0  0  0  0  0  0  0  0  0
   -5.5671   20.7475  -32.6351 H   0  0  0  0  0  0  0  0  0  0  0  0
   -7.0768   18.7654  -32.5922 H   0  0  0  0  0  0  0  0  0  0  0  0
   -9.5142   19.0571  -32.1330 H   0  0  0  0  0  0  0  0  0  0  0  0
  -10.4411   21.3369  -31.7182 H   0  0  0  0  0  0  0  0  0  0  0  0
   -8.9389   23.3268  -31.7585 H   0  0  0  0  0  0  0  0  0  0  0  0
   -3.3999   25.5357  -30.0150 H   0  0  0  0  0  0  0  0  0  0  0  0
  1  2  1  0
  2  3  1  0
  3  4  2  0
  4  5  1  0
  5  6  2  0
  6  7  1  0
  7  8  2  0
  7  9  2  0
  7 10  1  0
 10 11  1  0
 11 12  2  0
 12 13  1  0
 13 14  2  0
 14 15  1  0
 15 16  2  0
  6 17  1  0
 17 18  2  0
 18 19  1  0
 19 20  2  0
 19 21  1  0
 18  3  1  0
 16 11  1  0
  1 22  1  0
  1 23  1  0
  1 24  1  0
  4 25  1  0
  5 26  1  0
 10 27  1  0
 12 28  1  0
 13 29  1  0
 14 30  1  0
 15 31  1  0
 16 32  1  0
 17 33  1  0
M  CHG  1  21  -1
M  END
>  <UniqueID>  (49) 
47

>  <SMILES>  (49) 
COc1ccc(S(=O)(=O)Nc2ccccc2)cc1C(=O)[O-]

>  <Energy>  (49) 
38.00066922521594

>  <Genealogy>  (49) 
COc1ccc(S(=O)(=O)Nc2ccccc2)cc1C(=O)[O-] (protonated)
COc1ccc(S(=O)(=O)Nc2ccccc2)cc1C(=O)[O-] (3D coordinates assigned)
COc1ccc(S(=O)(=O)Nc2ccccc2)cc1C(=O)[O-] (optimized conformer: 38.00066922521594 kcal/mol)

>  <smiles>  (49) 
COc1ccc(S(=O)(=O)Nc2ccccc2)cc1C(=O)O

>  <score_type>  (49) 
oracle

>  <origin>  (49) 
adgpu

>  <m_score__min__energy>  (49) 
-9.6899999999999995

>  <m_primary>  (49) 
energy

$$$$
49:0
     RDKit          3D

 42 43  0  0  0  0  0  0  0  0999 V2000
  -10.2337   22.4126  -31.6666 H   0  0  0  0  0  0  0  0  0  0  0  0
   -9.2400   21.9540  -31.7770 C   0  0  0  0  0  0  0  0  0  0  0  0
   -8.0660   22.8220  -31.5440 C   0  0  0  0  0  0  0  0  0  0  0  0
   -7.7080   23.6630  -32.4120 O   0  0  0  0  0  0  0  0  0  0  0  0
   -7.3260   22.6810  -30.3220 N   0  0  0  0  0  0  0  0  0  0  0  0
   -7.7840   22.1750  -29.5310 H   0  0  0  0  0  0  0  0  0  0  0  0
   -6.0550   23.3080  -30.0730 C   0  0  0  0  0  0  0  0  0  0  0  0
   -5.7970   24.5750  -30.6110 C   0  0  0  0  0  0  0  0  0  0  0  0
   -6.5592   25.0703  -31.2305 H   0  0  0  0  0  0  0  0  0  0  0  0
   -4.5790   25.2150  -30.3670 C   0  0  0  0  0  0  0  0  0  0  0  0
   -4.3847   26.2043  -30.8069 H   0  0  0  0  0  0  0  0  0  0  0  0
   -3.6040   24.6070  -29.5670 C   0  0  0  0  0  0  0  0  0  0  0  0
   -2.3960   25.2880  -29.3530 O   0  0  0  0  0  0  0  0  0  0  0  0
   -1.4110   24.8990  -28.4020 C   0  0  0  0  0  0  0  0  0  0  0  0
   -1.8017   25.0533  -27.3854 H   0  0  0  0  0  0  0  0  0  0  0  0
   -1.1649   23.8362  -28.5428 H   0  0  0  0  0  0  0  0  0  0  0  0
   -0.5051   25.5069  -28.5428 H   0  0  0  0  0  0  0  0  0  0  0  0
   -3.8690   23.3440  -29.0050 C   0  0  0  0  0  0  0  0  0  0  0  0
   -3.1140   22.8588  -28.3690 H   0  0  0  0  0  0  0  0  0  0  0  0
   -5.0870   22.7030  -29.2510 C   0  0  0  0  0  0  0  0  0  0  0  0
   -5.2893   21.7206  -28.7994 H   0  0  0  0  0  0  0  0  0  0  0  0
   -9.1980   20.6530  -32.1120 C   0  0  0  0  0  0  0  0  0  0  0  0
  -10.1481   20.0986  -32.1058 H   0  0  0  0  0  0  0  0  0  0  0  0
   -7.9790   19.9070  -32.4880 C   0  0  0  0  0  0  0  0  0  0  0  0
   -8.0450   18.5150  -32.6310 C   0  0  0  0  0  0  0  0  0  0  0  0
   -8.9916   17.9923  -32.4293 H   0  0  0  0  0  0  0  0  0  0  0  0
   -6.9220   17.7820  -33.0270 C   0  0  0  0  0  0  0  0  0  0  0  0
   -7.0430   16.3880  -33.1350 O   0  0  0  0  0  0  0  0  0  0  0  0
   -6.1380   15.5530  -33.8500 C   0  0  0  0  0  0  0  0  0  0  0  0
   -5.5222   14.9848  -33.1373 H   0  0  0  0  0  0  0  0  0  0  0  0
   -6.7054   14.8544  -34.4825 H   0  0  0  0  0  0  0  0  0  0  0  0
   -5.4873   16.1746  -34.4825 H   0  0  0  0  0  0  0  0  0  0  0  0
   -5.7180   18.4600  -33.3050 C   0  0  0  0  0  0  0  0  0  0  0  0
   -4.8271   17.8904  -33.6081 H   0  0  0  0  0  0  0  0  0  0  0  0
   -5.6490   19.8620  -33.1970 C   0  0  0  0  0  0  0  0  0  0  0  0
   -4.4770   20.5810  -33.4790 O   0  0  0  0  0  0  0  0  0  0  0  0
   -4.1800   21.8720  -32.9590 C   0  0  0  0  0  0  0  0  0  0  0  0
   -4.1884   21.8353  -31.8596 H   0  0  0  0  0  0  0  0  0  0  0  0
   -3.1857   22.1879  -33.3077 H   0  0  0  0  0  0  0  0  0  0  0  0
   -4.9363   22.5906  -33.3077 H   0  0  0  0  0  0  0  0  0  0  0  0
   -6.7840   20.5750  -32.8000 C   0  0  0  0  0  0  0  0  0  0  0  0
   -6.7404   21.6720  -32.7312 H   0  0  0  0  0  0  0  0  0  0  0  0
  1  2  1  0
  2  3  1  0
  3  4  2  0
  3  5  1  0
  5  6  1  0
  5  7  1  0
  7  8  2  0
  8  9  1  0
  8 10  1  0
 10 11  1  0
 10 12  2  0
 12 13  1  0
 13 14  1  0
 14 15  1  0
 14 16  1  0
 14 17  1  0
 12 18  1  0
 18 19  1  0
 18 20  2  0
 20 21  1  0
  2 22  2  0
 22 23  1  0
 22 24  1  0
 24 25  2  0
 25 26  1  0
 25 27  1  0
 27 28  1  0
 28 29  1  0
 29 30  1  0
 29 31  1  0
 29 32  1  0
 27 33  2  0
 33 34  1  0
 33 35  1  0
 35 36  1  0
 36 37  1  0
 37 38  1  0
 37 39  1  0
 37 40  1  0
 35 41  2  0
 41 42  1  0
 20  7  1  0
 41 24  1  0
M  END
>  <UniqueID>  (50) 
48

>  <SMILES>  (50) 
COc1ccc(NC(=O)/C=C\c2cc(OC)cc(OC)c2)cc1

>  <Energy>  (50) 
51.15802124601786

>  <Genealogy>  (50) 
COc1ccc(NC(=O)/C=C\c2cc(OC)cc(OC)c2)cc1 (cis-trans isomerization)
COc1ccc(NC(=O)/C=C\c2cc(OC)cc(OC)c2)cc1 (3D coordinates assigned)
COc1ccc(NC(=O)/C=C\c2cc(OC)cc(OC)c2)cc1 (optimized conformer: 51.15802124601786 kcal/mol)

>  <smiles>  (50) 
COc1ccc(NC(=O)C=Cc2cc(OC)cc(OC)c2)cc1

>  <score_type>  (50) 
oracle

>  <origin>  (50) 
adgpu

>  <m_score__min__energy>  (50) 
-8

>  <m_primary>  (50) 
energy

$$$$
