0:0
     RDKit          3D

 47 49  0  0  0  0  0  0  0  0999 V2000
   -0.4940   26.1160  -23.7100 C   0  0  0  0  0  0  0  0  0  0  0  0
   -0.7060   26.1030  -25.1950 C   0  0  0  0  0  0  0  0  0  0  0  0
    0.2500   26.6710  -26.0500 C   0  0  0  0  0  0  0  0  0  0  0  0
    0.0650   26.6350  -27.4330 C   0  0  0  0  0  0  0  0  0  0  0  0
   -1.0630   26.0170  -27.9800 C   0  0  0  0  0  0  0  0  0  0  0  0
   -1.2450   26.0460  -29.3580 O   0  0  0  0  0  0  0  0  0  0  0  0
   -2.0110   25.4030  -27.1350 C   0  0  0  0  0  0  0  0  0  0  0  0
   -3.2060   24.7200  -27.6760 C   0  0  0  0  0  0  0  0  0  0  0  0
   -3.8550   23.9430  -26.9250 O   0  0  0  0  0  0  0  0  0  0  0  0
   -3.6210   24.9310  -29.0380 N   0  0  0  0  0  0  0  0  0  0  0  0
   -4.7530   24.2830  -29.6430 C   0  0  0  0  0  0  0  0  0  0  0  0
   -5.7750   25.0660  -30.1980 C   0  0  0  0  0  0  0  0  0  0  0  0
   -6.8780   24.4620  -30.8080 C   0  0  0  0  0  0  0  0  0  0  0  0
   -6.9670   23.0660  -30.8830 C   0  0  0  0  0  0  0  0  0  0  0  0
   -8.3730   22.3020  -31.6300 S   0  0  0  0  0  0  0  0  0  0  0  0
   -9.1260   23.3280  -32.4310 O   0  0  0  0  0  0  0  0  0  0  0  0
   -9.2890   21.7880  -30.5540 O   0  0  0  0  0  0  0  0  0  0  0  0
   -7.9030   20.9820  -32.6770 N   0  0  0  0  0  0  0  0  0  0  0  0
   -6.4570   21.0340  -33.0050 C   0  0  0  0  0  0  0  0  0  0  0  0
   -5.6260   20.0080  -32.2190 C   0  0  0  0  0  0  0  0  0  0  0  0
   -6.1230   18.5750  -32.4780 C   0  0  0  0  0  0  0  0  0  0  0  0
   -7.6350   18.5100  -32.7610 C   0  0  0  0  0  0  0  0  0  0  0  0
   -8.3670   19.6940  -32.1180 C   0  0  0  0  0  0  0  0  0  0  0  0
   -5.9310   22.2810  -30.3600 C   0  0  0  0  0  0  0  0  0  0  0  0
   -4.8280   22.8830  -29.7490 C   0  0  0  0  0  0  0  0  0  0  0  0
   -1.8270   25.4620  -25.7430 C   0  0  0  0  0  0  0  0  0  0  0  0
   -1.4669   26.0563  -23.2002 H   0  0  0  0  0  0  0  0  0  0  0  0
    0.1251   25.2541  -23.4204 H   0  0  0  0  0  0  0  0  0  0  0  0
    0.0152   27.0471  -23.4204 H   0  0  0  0  0  0  0  0  0  0  0  0
    1.1483   27.1463  -25.6292 H   0  0  0  0  0  0  0  0  0  0  0  0
    0.8116   27.0958  -28.0965 H   0  0  0  0  0  0  0  0  0  0  0  0
   -3.1070   25.6330  -29.6160 H   0  0  0  0  0  0  0  0  0  0  0  0
   -5.7083   26.1631  -30.1531 H   0  0  0  0  0  0  0  0  0  0  0  0
   -7.6795   25.0854  -31.2309 H   0  0  0  0  0  0  0  0  0  0  0  0
   -6.3340   20.8352  -34.0799 H   0  0  0  0  0  0  0  0  0  0  0  0
   -6.0925   22.0342  -32.7281 H   0  0  0  0  0  0  0  0  0  0  0  0
   -4.5736   20.0846  -32.5299 H   0  0  0  0  0  0  0  0  0  0  0  0
   -5.7296   20.2243  -31.1455 H   0  0  0  0  0  0  0  0  0  0  0  0
   -5.5850   18.1681  -33.3469 H   0  0  0  0  0  0  0  0  0  0  0  0
   -5.9309   17.9882  -31.5676 H   0  0  0  0  0  0  0  0  0  0  0  0
   -7.7985   18.5339  -33.8485 H   0  0  0  0  0  0  0  0  0  0  0  0
   -8.0317   17.5783  -32.3314 H   0  0  0  0  0  0  0  0  0  0  0  0
   -9.4463   19.5912  -32.3036 H   0  0  0  0  0  0  0  0  0  0  0  0
   -8.1547   19.6880  -31.0387 H   0  0  0  0  0  0  0  0  0  0  0  0
   -5.9863   21.1847  -30.4308 H   0  0  0  0  0  0  0  0  0  0  0  0
   -4.0150   22.2591  -29.3493 H   0  0  0  0  0  0  0  0  0  0  0  0
   -2.5700   25.0006  -25.0760 H   0  0  0  0  0  0  0  0  0  0  0  0
  1  2  1  0
  2  3  2  0
  3  4  1  0
  4  5  2  0
  5  6  1  0
  5  7  1  0
  7  8  1  0
  8  9  2  0
  8 10  1  0
 10 11  1  0
 11 12  2  0
 12 13  1  0
 13 14  2  0
 14 15  1  0
 15 16  2  0
 15 17  2  0
 15 18  1  0
 18 19  1  0
 19 20  1  0
 20 21  1  0
 21 22  1  0
 22 23  1  0
 14 24  1  0
 24 25  2  0
  7 26  2  0
 26  2  1  0
 25 11  1  0
 23 18  1  0
  1 27  1  0
  1 28  1  0
  1 29  1  0
  3 30  1  0
  4 31  1  0
 10 32  1  0
 12 33  1  0
 13 34  1  0
 19 35  1  0
 19 36  1  0
 20 37  1  0
 20 38  1  0
 21 39  1  0
 21 40  1  0
 22 41  1  0
 22 42  1  0
 23 43  1  0
 23 44  1  0
 24 45  1  0
 25 46  1  0
 26 47  1  0
M  CHG  1   6  -1
M  END
>  <UniqueID>  (1) 
1

>  <SMILES>  (1) 
Cc1ccc([O-])c(C(=O)Nc2ccc(S(=O)(=O)N3CCCCC3)cc2)c1

>  <Energy>  (1) 
60.85245277275216

>  <Genealogy>  (1) 
Cc1ccc([O-])c(C(=O)Nc2ccc(S(=O)(=O)N3CCCCC3)cc2)c1 (protonated)
Cc1ccc([O-])c(C(=O)Nc2ccc(S(=O)(=O)N3CCCCC3)cc2)c1 (3D coordinates assigned)
Cc1ccc([O-])c(C(=O)Nc2ccc(S(=O)(=O)N3CCCCC3)cc2)c1 (nonaromatic ring conformer: 60.85245277275216 kcal/mol)

>  <smiles>  (1) 
Cc1ccc(O)c(C(=O)Nc2ccc(S(=O)(=O)N3CCCCC3)cc2)c1

>  <score_type>  (1) 
oracle

>  <origin>  (1) 
adgpu

>  <m_score__min__energy>  (1) 
-12.49

>  <m_primary>  (1) 
energy

$$$$
1:0
     RDKit          3D

 46 49  0  0  0  0  0  0  0  0999 V2000
   -0.4560   25.8390  -28.1748 H   0  0  0  0  0  0  0  0  0  0  0  0
   -0.9760   24.9970  -28.6550 C   0  0  0  0  0  0  0  0  0  0  0  0
   -2.1710   25.0750  -29.2760 N   0  0  0  0  0  0  0  0  0  0  0  0
   -2.3960   23.8140  -29.7050 C   0  0  0  0  0  0  0  0  0  0  0  0
   -3.4730   23.4420  -30.3340 N   0  0  0  0  0  0  0  0  0  0  0  0
   -4.5780   24.2810  -30.7010 C   0  0  0  0  0  0  0  0  0  0  0  0
   -4.4230   25.5280  -30.8160 O   0  0  0  0  0  0  0  0  0  0  0  0
   -5.9100   23.6770  -30.9360 C   0  0  0  0  0  0  0  0  0  0  0  0
   -6.5190   22.8820  -29.9460 C   0  0  0  0  0  0  0  0  0  0  0  0
   -5.9952   22.6951  -28.9969 H   0  0  0  0  0  0  0  0  0  0  0  0
   -7.7840   22.3290  -30.1610 C   0  0  0  0  0  0  0  0  0  0  0  0
   -8.2524   21.7105  -29.3812 H   0  0  0  0  0  0  0  0  0  0  0  0
   -8.4550   22.5600  -31.3640 C   0  0  0  0  0  0  0  0  0  0  0  0
   -9.4503   22.1226  -31.5318 H   0  0  0  0  0  0  0  0  0  0  0  0
   -7.8620   23.3460  -32.3530 C   0  0  0  0  0  0  0  0  0  0  0  0
   -8.3909   23.5268  -33.3004 H   0  0  0  0  0  0  0  0  0  0  0  0
   -6.5980   23.9040  -32.1430 C   0  0  0  0  0  0  0  0  0  0  0  0
   -6.1377   24.5246  -32.9259 H   0  0  0  0  0  0  0  0  0  0  0  0
   -1.4100   22.9550  -29.3650 N   0  0  0  0  0  0  0  0  0  0  0  0
   -1.2760   21.5330  -29.7030 C   0  0  0  0  0  0  0  0  0  0  0  0
   -0.2485   21.2106  -29.4787 H   0  0  0  0  0  0  0  0  0  0  0  0
   -2.0101   20.9726  -29.1055 H   0  0  0  0  0  0  0  0  0  0  0  0
   -1.5630   21.2650  -31.1630 C   0  0  0  0  0  0  0  0  0  0  0  0
   -0.5010   21.1010  -32.0660 C   0  0  0  0  0  0  0  0  0  0  0  0
    0.5368   21.1814  -31.7103 H   0  0  0  0  0  0  0  0  0  0  0  0
   -0.7550   20.8360  -33.4150 C   0  0  0  0  0  0  0  0  0  0  0  0
    0.0827   20.7029  -34.1154 H   0  0  0  0  0  0  0  0  0  0  0  0
   -2.0700   20.7400  -33.8750 C   0  0  0  0  0  0  0  0  0  0  0  0
   -2.2648   20.5306  -34.9372 H   0  0  0  0  0  0  0  0  0  0  0  0
   -3.1400   20.9090  -32.9910 C   0  0  0  0  0  0  0  0  0  0  0  0
   -4.4510   20.8310  -33.4840 O   0  0  0  0  0  0  0  0  0  0  0  0
   -5.4380   19.9680  -32.9890 C   0  0  0  0  0  0  0  0  0  0  0  0
   -5.0470   18.7610  -32.3960 C   0  0  0  0  0  0  0  0  0  0  0  0
   -3.9788   18.5087  -32.3225 H   0  0  0  0  0  0  0  0  0  0  0  0
   -6.0060   17.8750  -31.8970 C   0  0  0  0  0  0  0  0  0  0  0  0
   -5.6907   16.9338  -31.4229 H   0  0  0  0  0  0  0  0  0  0  0  0
   -7.3660   18.1840  -32.0000 C   0  0  0  0  0  0  0  0  0  0  0  0
   -8.1196   17.4887  -31.6016 H   0  0  0  0  0  0  0  0  0  0  0  0
   -7.7680   19.3760  -32.6090 C   0  0  0  0  0  0  0  0  0  0  0  0
   -8.8380   19.6162  -32.6949 H   0  0  0  0  0  0  0  0  0  0  0  0
   -6.8100   20.2630  -33.1090 C   0  0  0  0  0  0  0  0  0  0  0  0
   -7.1291   21.1952  -33.5982 H   0  0  0  0  0  0  0  0  0  0  0  0
   -2.8830   21.1250  -31.6270 C   0  0  0  0  0  0  0  0  0  0  0  0
   -3.7206   21.1851  -30.9165 H   0  0  0  0  0  0  0  0  0  0  0  0
   -0.5050   23.7030  -28.7130 C   0  0  0  0  0  0  0  0  0  0  0  0
    0.4481   23.3446  -28.2969 H   0  0  0  0  0  0  0  0  0  0  0  0
  1  2  1  0
  2  3  1  0
  3  4  1  0
  4  5  2  0
  5  6  1  0
  6  7  2  0
  6  8  1  0
  8  9  2  0
  9 10  1  0
  9 11  1  0
 11 12  1  0
 11 13  2  0
 13 14  1  0
 13 15  1  0
 15 16  1  0
 15 17  2  0
 17 18  1  0
  4 19  1  0
 19 20  1  0
 20 21  1  0
 20 22  1  0
 20 23  1  0
 23 24  2  0
 24 25  1  0
 24 26  1  0
 26 27  1  0
 26 28  2  0
 28 29  1  0
 28 30  1  0
 30 31  1  0
 31 32  1  0
 32 33  2  0
 33 34  1  0
 33 35  1  0
 35 36  1  0
 35 37  2  0
 37 38  1  0
 37 39  1  0
 39 40  1  0
 39 41  2  0
 41 42  1  0
 30 43  2  0
 43 44  1  0
 19 45  1  0
 45 46  1  0
 45  2  2  0
 17  8  1  0
 43 23  1  0
 41 32  1  0
M  CHG  1   3  -1
M  END
>  <UniqueID>  (2) 
2

>  <SMILES>  (2) 
O=C(/N=c1\[n-]ccn1Cc1cccc(Oc2ccccc2)c1)c1ccccc1

>  <Energy>  (2) 
86.34022251122305

>  <Genealogy>  (2) 
O=C(N=c1[n-]ccn1Cc1cccc(Oc2ccccc2)c1)c1ccccc1 (protonated)
O=C(/N=c1\[n-]ccn1Cc1cccc(Oc2ccccc2)c1)c1ccccc1 (cis-trans isomerization)
O=C(/N=c1\[n-]ccn1Cc1cccc(Oc2ccccc2)c1)c1ccccc1 (3D coordinates assigned)
O=C(/N=c1\[n-]ccn1Cc1cccc(Oc2ccccc2)c1)c1ccccc1 (optimized conformer: 86.34022251122305 kcal/mol)

>  <smiles>  (2) 
O=C(N=c1[nH]ccn1Cc1cccc(Oc2ccccc2)c1)c1ccccc1

>  <score_type>  (2) 
oracle

>  <origin>  (2) 
adgpu

>  <m_score__min__energy>  (2) 
-10.67

>  <m_primary>  (2) 
energy

$$$$
2:0
     RDKit          3D

 40 42  0  0  0  0  0  0  0  0999 V2000
   -4.2130   24.5490  -31.1320 O   0  0  0  0  0  0  0  0  0  0  0  0
   -3.8610   23.1060  -30.9080 S   0  0  0  0  0  0  0  0  0  0  0  0
   -5.1310   22.3090  -30.8040 O   0  0  0  0  0  0  0  0  0  0  0  0
   -2.9190   22.5220  -32.2370 N   0  0  0  0  0  0  0  0  0  0  0  0
   -2.9220   21.1310  -32.5600 C   0  0  0  0  0  0  0  0  0  0  0  0
   -1.7200   20.4160  -32.5070 C   0  0  0  0  0  0  0  0  0  0  0  0
   -1.6780   19.0810  -32.9140 C   0  0  0  0  0  0  0  0  0  0  0  0
   -2.8340   18.4540  -33.3810 C   0  0  0  0  0  0  0  0  0  0  0  0
   -4.0490   19.1560  -33.4300 C   0  0  0  0  0  0  0  0  0  0  0  0
   -5.5030   18.3550  -34.0320 S   0  0  0  0  0  0  0  0  0  0  0  0
   -5.7420   18.7090  -35.4730 O   0  0  0  0  0  0  0  0  0  0  0  0
   -5.3080   16.8700  -33.9180 O   0  0  0  0  0  0  0  0  0  0  0  0
   -6.9070   18.8620  -33.0950 C   0  0  0  0  0  0  0  0  0  0  0  0
   -7.3170   18.1120  -31.9820 C   0  0  0  0  0  0  0  0  0  0  0  0
   -8.4390   18.5030  -31.2450 C   0  0  0  0  0  0  0  0  0  0  0  0
   -9.1510   19.6490  -31.6100 C   0  0  0  0  0  0  0  0  0  0  0  0
   -8.7430   20.4040  -32.7140 C   0  0  0  0  0  0  0  0  0  0  0  0
   -7.6230   20.0140  -33.4550 C   0  0  0  0  0  0  0  0  0  0  0  0
   -4.1000   20.4970  -33.0010 C   0  0  0  0  0  0  0  0  0  0  0  0
   -5.3180   21.1790  -33.0140 O   0  0  0  0  0  0  0  0  0  0  0  0
   -2.9340   22.9260  -29.4160 C   0  0  0  0  0  0  0  0  0  0  0  0
   -2.8760   21.6790  -28.7750 C   0  0  0  0  0  0  0  0  0  0  0  0
   -2.1870   21.5370  -27.5670 C   0  0  0  0  0  0  0  0  0  0  0  0
   -2.1170   19.9760  -26.7720 Cl  0  0  0  0  0  0  0  0  0  0  0  0
   -1.5590   22.6420  -26.9880 C   0  0  0  0  0  0  0  0  0  0  0  0
   -1.6190   23.8920  -27.6110 C   0  0  0  0  0  0  0  0  0  0  0  0
   -0.8370   25.2720  -26.8580 Cl  0  0  0  0  0  0  0  0  0  0  0  0
   -2.3100   24.0400  -28.8220 C   0  0  0  0  0  0  0  0  0  0  0  0
   -2.3850   25.2920  -29.4250 O   0  0  0  0  0  0  0  0  0  0  0  0
   -0.8054   20.9074  -32.1435 H   0  0  0  0  0  0  0  0  0  0  0  0
   -0.7317   18.5223  -32.8664 H   0  0  0  0  0  0  0  0  0  0  0  0
   -2.7932   17.4058  -33.7120 H   0  0  0  0  0  0  0  0  0  0  0  0
   -6.7539   17.2138  -31.6885 H   0  0  0  0  0  0  0  0  0  0  0  0
   -8.7615   17.9084  -30.3775 H   0  0  0  0  0  0  0  0  0  0  0  0
  -10.0325   19.9571  -31.0286 H   0  0  0  0  0  0  0  0  0  0  0  0
   -9.3039   21.3060  -33.0000 H   0  0  0  0  0  0  0  0  0  0  0  0
   -7.3027   20.6112  -34.3215 H   0  0  0  0  0  0  0  0  0  0  0  0
   -5.3790   22.1860  -32.9470 H   0  0  0  0  0  0  0  0  0  0  0  0
   -3.3754   20.8086  -29.2255 H   0  0  0  0  0  0  0  0  0  0  0  0
   -1.0153   22.5283  -26.0385 H   0  0  0  0  0  0  0  0  0  0  0  0
  1  2  2  0
  2  3  2  0
  2  4  1  0
  4  5  1  0
  5  6  2  0
  6  7  1  0
  7  8  2  0
  8  9  1  0
  9 10  1  0
 10 11  2  0
 10 12  2  0
 10 13  1  0
 13 14  2  0
 14 15  1  0
 15 16  2  0
 16 17  1  0
 17 18  2  0
  9 19  2  0
 19 20  1  0
  2 21  1  0
 21 22  2  0
 22 23  1  0
 23 24  1  0
 23 25  2  0
 25 26  1  0
 26 27  1  0
 26 28  2  0
 28 29  1  0
 19  5  1  0
 28 21  1  0
 18 13  1  0
  6 30  1  0
  7 31  1  0
  8 32  1  0
 14 33  1  0
 15 34  1  0
 16 35  1  0
 17 36  1  0
 18 37  1  0
 20 38  1  0
 22 39  1  0
 25 40  1  0
M  CHG  2   4  -1  29  -1
M  END
>  <UniqueID>  (3) 
3

>  <SMILES>  (3) 
O=S(=O)([N-]c1cccc(S(=O)(=O)c2ccccc2)c1O)c1cc(Cl)cc(Cl)c1[O-]

>  <Energy>  (3) 
54.0060961676165

>  <Genealogy>  (3) 
O=S(=O)([N-]c1cccc(S(=O)(=O)c2ccccc2)c1O)c1cc(Cl)cc(Cl)c1[O-] (protonated)
O=S(=O)([N-]c1cccc(S(=O)(=O)c2ccccc2)c1O)c1cc(Cl)cc(Cl)c1[O-] (3D coordinates assigned)
O=S(=O)([N-]c1cccc(S(=O)(=O)c2ccccc2)c1O)c1cc(Cl)cc(Cl)c1[O-] (optimized conformer: 54.0060961676165 kcal/mol)

>  <smiles>  (3) 
O=S(=O)(Nc1cccc(S(=O)(=O)c2ccccc2)c1O)c1cc(Cl)cc(Cl)c1O

>  <score_type>  (3) 
oracle

>  <origin>  (3) 
adgpu

>  <m_score__min__energy>  (3) 
-14.5

>  <m_primary>  (3) 
energy

$$$$
3:0
     RDKit          3D

 45 47  0  0  0  0  0  0  0  0999 V2000
   -6.1590   25.6870  -30.4620 O   0  0  0  0  0  0  0  0  0  0  0  0
   -5.2130   24.9360  -30.8300 C   0  0  0  0  0  0  0  0  0  0  0  0
   -5.5070   23.7170  -31.6390 C   0  0  0  0  0  0  0  0  0  0  0  0
   -6.9130   23.6120  -31.8650 O   0  0  0  0  0  0  0  0  0  0  0  0
   -7.6030   22.3990  -32.0190 C   0  0  0  0  0  0  0  0  0  0  0  0
   -8.9960   22.2910  -31.8210 C   0  0  0  0  0  0  0  0  0  0  0  0
   -9.6310   21.0540  -31.9670 C   0  0  0  0  0  0  0  0  0  0  0  0
   -8.8910   19.9200  -32.3210 C   0  0  0  0  0  0  0  0  0  0  0  0
   -9.5100   18.7220  -32.4630 F   0  0  0  0  0  0  0  0  0  0  0  0
   -7.5120   20.0230  -32.5320 C   0  0  0  0  0  0  0  0  0  0  0  0
   -6.8730   21.2580  -32.3830 C   0  0  0  0  0  0  0  0  0  0  0  0
   -3.8570   25.2350  -30.4720 N   0  0  0  0  0  0  0  0  0  0  0  0
   -3.0460   24.5280  -29.5220 C   0  0  0  0  0  0  0  0  0  0  0  0
   -3.3600   23.1930  -29.2340 C   0  0  0  0  0  0  0  0  0  0  0  0
   -2.5870   22.4640  -28.3280 C   0  0  0  0  0  0  0  0  0  0  0  0
   -1.4830   23.0590  -27.7120 C   0  0  0  0  0  0  0  0  0  0  0  0
   -1.1400   24.3840  -28.0090 C   0  0  0  0  0  0  0  0  0  0  0  0
    0.2680   25.1100  -27.2370 S   0  0  0  0  0  0  0  0  0  0  0  0
    0.2330   26.5930  -27.4830 O   0  0  0  0  0  0  0  0  0  0  0  0
    1.5280   24.5450  -27.8340 O   0  0  0  0  0  0  0  0  0  0  0  0
    0.2100   24.7760  -25.5190 N   0  0  0  0  0  0  0  0  0  0  0  0
    1.1740   25.6080  -24.7640 C   0  0  0  0  0  0  0  0  0  0  0  0
    0.5130   26.8280  -24.0950 C   0  0  0  0  0  0  0  0  0  0  0  0
   -0.5620   27.2940  -24.8800 O   0  0  0  0  0  0  0  0  0  0  0  0
   -1.6260   26.3570  -24.8590 C   0  0  0  0  0  0  0  0  0  0  0  0
   -1.1610   24.8860  -24.9900 C   0  0  0  0  0  0  0  0  0  0  0  0
   -1.9170   25.1160  -28.9200 C   0  0  0  0  0  0  0  0  0  0  0  0
   -4.9863   23.7861  -32.6055 H   0  0  0  0  0  0  0  0  0  0  0  0
   -5.1602   22.8273  -31.0930 H   0  0  0  0  0  0  0  0  0  0  0  0
   -9.5831   23.1813  -31.5514 H   0  0  0  0  0  0  0  0  0  0  0  0
  -10.7156   20.9718  -31.8031 H   0  0  0  0  0  0  0  0  0  0  0  0
   -6.9306   19.1331  -32.8150 H   0  0  0  0  0  0  0  0  0  0  0  0
   -5.7889   21.3352  -32.5527 H   0  0  0  0  0  0  0  0  0  0  0  0
   -4.2212   22.7162  -29.7249 H   0  0  0  0  0  0  0  0  0  0  0  0
   -2.8475   21.4201  -28.0990 H   0  0  0  0  0  0  0  0  0  0  0  0
   -0.8815   22.4851  -26.9917 H   0  0  0  0  0  0  0  0  0  0  0  0
    1.6380   24.9874  -23.9833 H   0  0  0  0  0  0  0  0  0  0  0  0
    1.9182   25.9857  -25.4806 H   0  0  0  0  0  0  0  0  0  0  0  0
    0.1385   26.5388  -23.1020 H   0  0  0  0  0  0  0  0  0  0  0  0
    1.2590   27.6305  -23.9974 H   0  0  0  0  0  0  0  0  0  0  0  0
   -2.1672   26.4670  -23.9077 H   0  0  0  0  0  0  0  0  0  0  0  0
   -2.2620   26.5724  -25.7303 H   0  0  0  0  0  0  0  0  0  0  0  0
   -1.1954   24.4147  -23.9967 H   0  0  0  0  0  0  0  0  0  0  0  0
   -1.8355   24.3825  -25.6982 H   0  0  0  0  0  0  0  0  0  0  0  0
   -1.6431   26.1529  -29.1647 H   0  0  0  0  0  0  0  0  0  0  0  0
  1  2  2  0
  2  3  1  0
  3  4  1  0
  4  5  1  0
  5  6  2  0
  6  7  1  0
  7  8  2  0
  8  9  1  0
  8 10  1  0
 10 11  2  0
  2 12  1  0
 12 13  1  0
 13 14  2  0
 14 15  1  0
 15 16  2  0
 16 17  1  0
 17 18  1  0
 18 19  2  0
 18 20  2  0
 18 21  1  0
 21 22  1  0
 22 23  1  0
 23 24  1  0
 24 25  1  0
 25 26  1  0
 17 27  2  0
 11  5  1  0
 27 13  1  0
 26 21  1  0
  3 28  1  0
  3 29  1  0
  6 30  1  0
  7 31  1  0
 10 32  1  0
 11 33  1  0
 14 34  1  0
 15 35  1  0
 16 36  1  0
 22 37  1  0
 22 38  1  0
 23 39  1  0
 23 40  1  0
 25 41  1  0
 25 42  1  0
 26 43  1  0
 26 44  1  0
 27 45  1  0
M  CHG  1  12  -1
M  END
>  <UniqueID>  (4) 
4

>  <SMILES>  (4) 
O=C(COc1ccc(F)cc1)[N-]c1cccc(S(=O)(=O)N2CCOCC2)c1

>  <Energy>  (4) 
59.61242932704496

>  <Genealogy>  (4) 
O=C(COc1ccc(F)cc1)[N-]c1cccc(S(=O)(=O)N2CCOCC2)c1 (protonated)
O=C(COc1ccc(F)cc1)[N-]c1cccc(S(=O)(=O)N2CCOCC2)c1 (3D coordinates assigned)
O=C(COc1ccc(F)cc1)[N-]c1cccc(S(=O)(=O)N2CCOCC2)c1 (nonaromatic ring conformer: 59.61242932704496 kcal/mol)

>  <smiles>  (4) 
O=C(COc1ccc(F)cc1)Nc1cccc(S(=O)(=O)N2CCOCC2)c1

>  <score_type>  (4) 
oracle

>  <origin>  (4) 
adgpu

>  <m_score__min__energy>  (4) 
-10.140000000000001

>  <m_primary>  (4) 
energy

$$$$
4:0
     RDKit          3D

 30 31  0  0  0  0  0  0  0  0999 V2000
   -4.2090   25.6760  -31.7840 H   0  0  0  0  0  0  0  0  0  0  0  0
   -3.8640   25.6720  -30.8330 O   0  0  0  0  0  0  0  0  0  0  0  0
   -3.6980   24.4970  -30.0980 C   0  0  0  0  0  0  0  0  0  0  0  0
   -2.9580   24.5480  -28.9110 C   0  0  0  0  0  0  0  0  0  0  0  0
   -2.4828   25.4928  -28.6084 H   0  0  0  0  0  0  0  0  0  0  0  0
   -2.8140   23.4130  -28.1030 C   0  0  0  0  0  0  0  0  0  0  0  0
   -2.0380   23.5340  -26.8970 N   0  0  0  0  0  0  0  0  0  0  0  0
   -1.6620   24.6380  -26.3240 C   0  0  0  0  0  0  0  0  0  0  0  0
   -1.9302   25.6096  -26.7645 H   0  0  0  0  0  0  0  0  0  0  0  0
   -0.8650   24.5790  -25.0660 C   0  0  0  0  0  0  0  0  0  0  0  0
   -1.5419   24.6291  -24.2004 H   0  0  0  0  0  0  0  0  0  0  0  0
   -0.2987   23.6365  -25.0346 H   0  0  0  0  0  0  0  0  0  0  0  0
   -0.1661   25.4279  -25.0346 H   0  0  0  0  0  0  0  0  0  0  0  0
   -3.4150   22.2050  -28.5080 C   0  0  0  0  0  0  0  0  0  0  0  0
   -3.3096   21.3044  -27.8852 H   0  0  0  0  0  0  0  0  0  0  0  0
   -4.1450   22.1470  -29.6990 C   0  0  0  0  0  0  0  0  0  0  0  0
   -4.6221   21.2028  -30.0005 H   0  0  0  0  0  0  0  0  0  0  0  0
   -4.2740   23.2780  -30.5100 C   0  0  0  0  0  0  0  0  0  0  0  0
   -4.9910   23.1660  -31.7070 O   0  0  0  0  0  0  0  0  0  0  0  0
   -6.1580   22.4030  -31.8680 C   0  0  0  0  0  0  0  0  0  0  0  0
   -7.4190   22.8560  -31.4320 C   0  0  0  0  0  0  0  0  0  0  0  0
   -7.5098   23.8374  -30.9434 H   0  0  0  0  0  0  0  0  0  0  0  0
   -8.5550   22.0630  -31.6180 C   0  0  0  0  0  0  0  0  0  0  0  0
   -9.5364   22.4190  -31.2714 H   0  0  0  0  0  0  0  0  0  0  0  0
   -8.4450   20.8180  -32.2440 C   0  0  0  0  0  0  0  0  0  0  0  0
   -9.3391   20.1934  -32.3871 H   0  0  0  0  0  0  0  0  0  0  0  0
   -7.1990   20.3670  -32.6880 C   0  0  0  0  0  0  0  0  0  0  0  0
   -7.1135   19.3887  -33.1835 H   0  0  0  0  0  0  0  0  0  0  0  0
   -6.0610   21.1580  -32.5030 C   0  0  0  0  0  0  0  0  0  0  0  0
   -5.0833   20.8005  -32.8583 H   0  0  0  0  0  0  0  0  0  0  0  0
  1  2  1  0
  2  3  1  0
  3  4  2  0
  4  5  1  0
  4  6  1  0
  6  7  1  0
  7  8  2  0
  8  9  1  0
  8 10  1  0
 10 11  1  0
 10 12  1  0
 10 13  1  0
  6 14  2  0
 14 15  1  0
 14 16  1  0
 16 17  1  0
 16 18  2  0
 18 19  1  0
 19 20  1  0
 20 21  2  0
 21 22  1  0
 21 23  1  0
 23 24  1  0
 23 25  2  0
 25 26  1  0
 25 27  1  0
 27 28  1  0
 27 29  2  0
 29 30  1  0
 18  3  1  0
 29 20  1  0
M  END
>  <UniqueID>  (5) 
5

>  <SMILES>  (5) 
C/C=N/c1ccc(Oc2ccccc2)c(O)c1

>  <Energy>  (5) 
38.87033037370534

>  <Genealogy>  (5) 
C/C=N/c1ccc(Oc2ccccc2)c(O)c1 (cis-trans isomerization)
C/C=N/c1ccc(Oc2ccccc2)c(O)c1 (3D coordinates assigned)
C/C=N/c1ccc(Oc2ccccc2)c(O)c1 (optimized conformer: 38.87033037370534 kcal/mol)

>  <smiles>  (5) 
CC=Nc1ccc(Oc2ccccc2)c(O)c1

>  <score_type>  (5) 
oracle

>  <origin>  (5) 
adgpu

>  <m_score__min__energy>  (5) 
-7.0700000000000003

>  <m_primary>  (5) 
energy

$$$$
5:0
     RDKit          3D

 39 40  0  0  0  0  0  0  0  0999 V2000
   -1.5360   21.2420  -33.4000 C   0  0  0  0  0  0  0  0  0  0  0  0
   -2.7650   20.3850  -33.3180 C   0  0  0  0  0  0  0  0  0  0  0  0
   -2.8030   19.1320  -33.9480 C   0  0  0  0  0  0  0  0  0  0  0  0
   -3.9590   18.3490  -33.8880 C   0  0  0  0  0  0  0  0  0  0  0  0
   -5.1000   18.8200  -33.2210 C   0  0  0  0  0  0  0  0  0  0  0  0
   -6.3400   17.9740  -33.1570 C   0  0  0  0  0  0  0  0  0  0  0  0
   -7.2250   18.4630  -32.1030 N   0  0  0  0  0  0  0  0  0  0  0  0
   -8.1640   19.5280  -32.3080 C   0  0  0  0  0  0  0  0  0  0  0  0
   -8.2230   20.1250  -33.4160 O   0  0  0  0  0  0  0  0  0  0  0  0
   -9.0820   19.9440  -31.1990 C   0  0  0  0  0  0  0  0  0  0  0  0
   -9.6130   21.6810  -31.3920 S   0  0  0  0  0  0  0  0  0  0  0  0
   -7.9730   22.3820  -31.1870 C   0  0  0  0  0  0  0  0  0  0  0  0
   -7.2670   22.8640  -32.2930 C   0  0  0  0  0  0  0  0  0  0  0  0
   -5.9900   23.4100  -32.1290 C   0  0  0  0  0  0  0  0  0  0  0  0
   -5.3930   23.4570  -30.8550 C   0  0  0  0  0  0  0  0  0  0  0  0
   -4.0390   24.0330  -30.6790 C   0  0  0  0  0  0  0  0  0  0  0  0
   -3.8690   25.4340  -30.4670 N   0  0  0  0  0  0  0  0  0  0  0  0
   -3.0230   23.2890  -30.7140 O   0  0  0  0  0  0  0  0  0  0  0  0
   -6.1020   22.9460  -29.7530 C   0  0  0  0  0  0  0  0  0  0  0  0
   -7.3880   22.4230  -29.9170 C   0  0  0  0  0  0  0  0  0  0  0  0
   -5.0600   20.0700  -32.5860 C   0  0  0  0  0  0  0  0  0  0  0  0
   -3.9030   20.8530  -32.6430 C   0  0  0  0  0  0  0  0  0  0  0  0
   -1.1892   21.4838  -32.3845 H   0  0  0  0  0  0  0  0  0  0  0  0
   -0.7452   20.6985  -33.9378 H   0  0  0  0  0  0  0  0  0  0  0  0
   -1.7727   22.1719  -33.9378 H   0  0  0  0  0  0  0  0  0  0  0  0
   -1.9198   18.7646  -34.4911 H   0  0  0  0  0  0  0  0  0  0  0  0
   -3.9744   17.3585  -34.3661 H   0  0  0  0  0  0  0  0  0  0  0  0
   -6.8635   18.0214  -34.1233 H   0  0  0  0  0  0  0  0  0  0  0  0
   -6.0565   16.9342  -32.9367 H   0  0  0  0  0  0  0  0  0  0  0  0
   -7.1150   18.0590  -31.1450 H   0  0  0  0  0  0  0  0  0  0  0  0
   -9.9701   19.2950  -31.2067 H   0  0  0  0  0  0  0  0  0  0  0  0
   -8.5397   19.8509  -30.2465 H   0  0  0  0  0  0  0  0  0  0  0  0
   -7.7172   22.8137  -33.2954 H   0  0  0  0  0  0  0  0  0  0  0  0
   -5.4486   23.8053  -33.0011 H   0  0  0  0  0  0  0  0  0  0  0  0
   -3.5020   26.0510  -31.2250 H   0  0  0  0  0  0  0  0  0  0  0  0
   -5.6410   22.9580  -28.7543 H   0  0  0  0  0  0  0  0  0  0  0  0
   -7.9411   22.0429  -29.0455 H   0  0  0  0  0  0  0  0  0  0  0  0
   -5.9426   20.4359  -32.0409 H   0  0  0  0  0  0  0  0  0  0  0  0
   -3.8846   21.8396  -32.1569 H   0  0  0  0  0  0  0  0  0  0  0  0
  1  2  1  0
  2  3  2  0
  3  4  1  0
  4  5  2  0
  5  6  1  0
  6  7  1  0
  7  8  1  0
  8  9  2  0
  8 10  1  0
 10 11  1  0
 11 12  1  0
 12 13  2  0
 13 14  1  0
 14 15  2  0
 15 16  1  0
 16 17  1  0
 16 18  2  0
 15 19  1  0
 19 20  2  0
  5 21  1  0
 21 22  2  0
 22  2  1  0
 20 12  1  0
  1 23  1  0
  1 24  1  0
  1 25  1  0
  3 26  1  0
  4 27  1  0
  6 28  1  0
  6 29  1  0
  7 30  1  0
 10 31  1  0
 10 32  1  0
 13 33  1  0
 14 34  1  0
 17 35  1  0
 19 36  1  0
 20 37  1  0
 21 38  1  0
 22 39  1  0
M  CHG  1  17  -1
M  END
>  <UniqueID>  (6) 
6

>  <SMILES>  (6) 
Cc1ccc(CNC(=O)CSc2ccc(C([NH-])=O)cc2)cc1

>  <Energy>  (6) 
26.518718659430103

>  <Genealogy>  (6) 
Cc1ccc(CNC(=O)CSc2ccc(C([NH-])=O)cc2)cc1 (protonated)
Cc1ccc(CNC(=O)CSc2ccc(C([NH-])=O)cc2)cc1 (3D coordinates assigned)
Cc1ccc(CNC(=O)CSc2ccc(C([NH-])=O)cc2)cc1 (optimized conformer: 26.518718659430103 kcal/mol)

>  <smiles>  (6) 
Cc1ccc(CNC(=O)CSc2ccc(C(N)=O)cc2)cc1

>  <score_type>  (6) 
oracle

>  <origin>  (6) 
adgpu

>  <m_score__min__energy>  (6) 
-10.779999999999999

>  <m_primary>  (6) 
energy

$$$$
6:0
     RDKit          3D

 50 53  0  0  0  0  0  0  0  0999 V2000
   -0.2063   20.1438  -32.8676 H   0  0  0  0  0  0  0  0  0  0  0  0
   -0.2040   19.8870  -31.7980 C   0  0  0  0  0  0  0  0  0  0  0  0
    0.0200   20.8550  -30.8690 N   0  0  0  0  0  0  0  0  0  0  0  0
    0.0340   20.5940  -29.5330 C   0  0  0  0  0  0  0  0  0  0  0  0
    0.2560   21.5790  -28.7110 N   0  0  0  0  0  0  0  0  0  0  0  0
    0.3070   21.4890  -27.2520 C   0  0  0  0  0  0  0  0  0  0  0  0
    0.4425   20.4389  -26.9540 H   0  0  0  0  0  0  0  0  0  0  0  0
    1.1497   22.0884  -26.8770 H   0  0  0  0  0  0  0  0  0  0  0  0
   -0.9980   22.0210  -26.6630 C   0  0  0  0  0  0  0  0  0  0  0  0
   -1.6494   21.1734  -26.4036 H   0  0  0  0  0  0  0  0  0  0  0  0
   -0.7662   22.6122  -25.7648 H   0  0  0  0  0  0  0  0  0  0  0  0
   -1.7070   22.9040  -27.6550 C   0  0  0  0  0  0  0  0  0  0  0  0
   -2.9040   22.4800  -28.2530 C   0  0  0  0  0  0  0  0  0  0  0  0
   -3.3400   21.5088  -27.9761 H   0  0  0  0  0  0  0  0  0  0  0  0
   -3.5450   23.2860  -29.1990 C   0  0  0  0  0  0  0  0  0  0  0  0
   -4.4872   22.9513  -29.6575 H   0  0  0  0  0  0  0  0  0  0  0  0
   -2.9900   24.5170  -29.5630 C   0  0  0  0  0  0  0  0  0  0  0  0
   -3.6310   25.3140  -30.5030 O   0  0  0  0  0  0  0  0  0  0  0  0
   -1.7890   24.9410  -28.9810 C   0  0  0  0  0  0  0  0  0  0  0  0
   -1.2290   26.1610  -29.3440 O   0  0  0  0  0  0  0  0  0  0  0  0
   -1.1460   24.1360  -28.0340 C   0  0  0  0  0  0  0  0  0  0  0  0
   -0.1985   24.4683  -27.5847 H   0  0  0  0  0  0  0  0  0  0  0  0
   -0.1920   19.2760  -29.0910 C   0  0  0  0  0  0  0  0  0  0  0  0
   -0.1857   19.0435  -28.0159 H   0  0  0  0  0  0  0  0  0  0  0  0
   -0.4240   18.2670  -30.0270 C   0  0  0  0  0  0  0  0  0  0  0  0
   -0.6012   17.2356  -29.6882 H   0  0  0  0  0  0  0  0  0  0  0  0
   -0.4320   18.5630  -31.3970 C   0  0  0  0  0  0  0  0  0  0  0  0
   -0.6770   17.5090  -32.4010 C   0  0  0  0  0  0  0  0  0  0  0  0
   -1.7940   17.4210  -33.1510 N   0  0  0  0  0  0  0  0  0  0  0  0
   -1.5350   16.3170  -33.8810 C   0  0  0  0  0  0  0  0  0  0  0  0
   -2.4470   15.7960  -34.9450 C   0  0  0  0  0  0  0  0  0  0  0  0
   -2.3581   14.7008  -34.9973 H   0  0  0  0  0  0  0  0  0  0  0  0
   -2.1654   16.2387  -35.9118 H   0  0  0  0  0  0  0  0  0  0  0  0
   -3.8690   16.1660  -34.6270 C   0  0  0  0  0  0  0  0  0  0  0  0
   -4.7770   15.1850  -34.2010 C   0  0  0  0  0  0  0  0  0  0  0  0
   -4.4549   14.1360  -34.1250 H   0  0  0  0  0  0  0  0  0  0  0  0
   -6.0890   15.5360  -33.8730 C   0  0  0  0  0  0  0  0  0  0  0  0
   -6.7990   14.7611  -33.5484 H   0  0  0  0  0  0  0  0  0  0  0  0
   -6.5020   16.8680  -33.9560 C   0  0  0  0  0  0  0  0  0  0  0  0
   -7.5366   17.1385  -33.6982 H   0  0  0  0  0  0  0  0  0  0  0  0
   -5.5970   17.8660  -34.3690 C   0  0  0  0  0  0  0  0  0  0  0  0
   -5.9610   19.2180  -34.4620 O   0  0  0  0  0  0  0  0  0  0  0  0
   -6.8300   19.8820  -33.5500 C   0  0  0  0  0  0  0  0  0  0  0  0
   -6.5260   19.6497  -32.5187 H   0  0  0  0  0  0  0  0  0  0  0  0
   -6.7723   20.9683  -33.7134 H   0  0  0  0  0  0  0  0  0  0  0  0
   -7.8629   19.5409  -33.7134 H   0  0  0  0  0  0  0  0  0  0  0  0
   -4.2840   17.5070  -34.6960 C   0  0  0  0  0  0  0  0  0  0  0  0
   -3.5698   18.2824  -35.0102 H   0  0  0  0  0  0  0  0  0  0  0  0
   -0.3310   15.7800  -33.6030 N   0  0  0  0  0  0  0  0  0  0  0  0
    0.1650   16.5430  -32.6780 O   0  0  0  0  0  0  0  0  0  0  0  0
  1  2  1  0
  2  3  1  0
  3  4  1  0
  4  5  2  0
  5  6  1  0
  6  7  1  0
  6  8  1  0
  6  9  1  0
  9 10  1  0
  9 11  1  0
  9 12  1  0
 12 13  2  0
 13 14  1  0
 13 15  1  0
 15 16  1  0
 15 17  2  0
 17 18  1  0
 17 19  1  0
 19 20  1  0
 19 21  2  0
 21 22  1  0
  4 23  1  0
 23 24  1  0
 23 25  2  0
 25 26  1  0
 25 27  1  0
 27 28  1  0
 28 29  2  0
 29 30  1  0
 30 31  1  0
 31 32  1  0
 31 33  1  0
 31 34  1  0
 34 35  2  0
 35 36  1  0
 35 37  1  0
 37 38  1  0
 37 39  2  0
 39 40  1  0
 39 41  1  0
 41 42  1  0
 42 43  1  0
 43 44  1  0
 43 45  1  0
 43 46  1  0
 41 47  2  0
 47 48  1  0
 30 49  2  0
 49 50  1  0
 27  2  2  0
 50 28  1  0
 21 12  1  0
 47 34  1  0
M  CHG  3   3  -1  18  -1  20  -1
M  END
>  <UniqueID>  (7) 
7

>  <SMILES>  (7) 
COc1cccc(Cc2noc(-c3cc/c(=N\CCc4ccc([O-])c([O-])c4)[n-]c3)n2)c1

>  <Energy>  (7) 
84.37402519981858

>  <Genealogy>  (7) 
COc1cccc(Cc2noc(-c3ccc(=NCCc4ccc([O-])c([O-])c4)[n-]c3)n2)c1 (protonated)
COc1cccc(Cc2noc(-c3cc/c(=N\CCc4ccc([O-])c([O-])c4)[n-]c3)n2)c1 (cis-trans isomerization)
COc1cccc(Cc2noc(-c3cc/c(=N\CCc4ccc([O-])c([O-])c4)[n-]c3)n2)c1 (3D coordinates assigned)
COc1cccc(Cc2noc(-c3cc/c(=N\CCc4ccc([O-])c([O-])c4)[n-]c3)n2)c1 (optimized conformer: 84.37402519981858 kcal/mol)

>  <smiles>  (7) 
COc1cccc(Cc2noc(-c3ccc(=NCCc4ccc(O)c(O)c4)[nH]c3)n2)c1

>  <score_type>  (7) 
oracle

>  <origin>  (7) 
adgpu

>  <m_score__min__energy>  (7) 
-14.15

>  <m_primary>  (7) 
energy

$$$$
7:0
     RDKit          3D

 64 68  0  0  0  0  0  0  0  0999 V2000
   -6.4900   26.1970  -29.3190 N   0  0  0  0  0  0  0  0  0  0  0  0
   -5.8580   25.2220  -29.8790 C   0  0  0  0  0  0  0  0  0  0  0  0
   -6.4400   24.5970  -30.9110 N   0  0  0  0  0  0  0  0  0  0  0  0
   -5.8420   23.5510  -31.5640 C   0  0  0  0  0  0  0  0  0  0  0  0
   -6.6040   22.9370  -32.6500 C   0  0  0  0  0  0  0  0  0  0  0  0
   -7.2230   21.6790  -32.1830 C   0  0  0  0  0  0  0  0  0  0  0  0
   -8.4590   21.8160  -31.5420 C   0  0  0  0  0  0  0  0  0  0  0  0
   -9.1580   20.7310  -31.0700 C   0  0  0  0  0  0  0  0  0  0  0  0
   -8.6490   19.4550  -31.2220 C   0  0  0  0  0  0  0  0  0  0  0  0
   -7.4170   19.3170  -31.8600 C   0  0  0  0  0  0  0  0  0  0  0  0
   -6.7160   20.4250  -32.3350 C   0  0  0  0  0  0  0  0  0  0  0  0
   -4.6140   23.1860  -31.1010 C   0  0  0  0  0  0  0  0  0  0  0  0
   -3.8480   22.1110  -31.7070 C   0  0  0  0  0  0  0  0  0  0  0  0
   -3.4100   21.1100  -30.8480 C   0  0  0  0  0  0  0  0  0  0  0  0
   -2.6970   20.0100  -31.2720 C   0  0  0  0  0  0  0  0  0  0  0  0
   -2.4130   19.9170  -32.6350 C   0  0  0  0  0  0  0  0  0  0  0  0
   -1.6720   18.7730  -33.0500 N   0  0  0  0  0  0  0  0  0  0  0  0
   -0.2070   18.8620  -33.1280 C   0  0  0  0  0  0  0  0  0  0  0  0
    0.2080   19.7960  -34.2150 C   0  0  0  0  0  0  0  0  0  0  0  0
    0.5370   21.1150  -33.9940 C   0  0  0  0  0  0  0  0  0  0  0  0
    0.9200   21.9590  -35.0300 C   0  0  0  0  0  0  0  0  0  0  0  0
    0.9640   21.4420  -36.3140 C   0  0  0  0  0  0  0  0  0  0  0  0
    0.6300   20.1060  -36.5330 C   0  0  0  0  0  0  0  0  0  0  0  0
    0.2500   19.2680  -35.5080 C   0  0  0  0  0  0  0  0  0  0  0  0
   -2.2900   17.5380  -33.4080 C   0  0  0  0  0  0  0  0  0  0  0  0
   -1.6430   16.4600  -33.5350 O   0  0  0  0  0  0  0  0  0  0  0  0
   -3.7210   17.4650  -33.6520 C   0  0  0  0  0  0  0  0  0  0  0  0
   -4.4980   16.5920  -32.8920 C   0  0  0  0  0  0  0  0  0  0  0  0
   -5.8740   16.4880  -33.0960 C   0  0  0  0  0  0  0  0  0  0  0  0
   -6.5050   17.2340  -34.0430 C   0  0  0  0  0  0  0  0  0  0  0  0
   -5.7350   18.0990  -34.7950 C   0  0  0  0  0  0  0  0  0  0  0  0
   -4.3810   18.2090  -34.6000 C   0  0  0  0  0  0  0  0  0  0  0  0
   -2.8360   20.9010  -33.5190 C   0  0  0  0  0  0  0  0  0  0  0  0
   -3.5600   22.0040  -33.0450 C   0  0  0  0  0  0  0  0  0  0  0  0
   -4.0200   23.8400  -30.0320 C   0  0  0  0  0  0  0  0  0  0  0  0
   -2.8600   23.5140  -29.5700 N   0  0  0  0  0  0  0  0  0  0  0  0
   -4.6490   24.8550  -29.4280 N   0  0  0  0  0  0  0  0  0  0  0  0
   -6.0470   26.6950  -28.5120 H   0  0  0  0  0  0  0  0  0  0  0  0
   -7.3970   24.9380  -31.2190 H   0  0  0  0  0  0  0  0  0  0  0  0
   -7.3917   23.6303  -32.9800 H   0  0  0  0  0  0  0  0  0  0  0  0
   -5.9263   22.7172  -33.4881 H   0  0  0  0  0  0  0  0  0  0  0  0
   -8.8840   22.8222  -31.4119 H   0  0  0  0  0  0  0  0  0  0  0  0
  -10.1263   20.8786  -30.5693 H   0  0  0  0  0  0  0  0  0  0  0  0
   -9.1981   18.5768  -30.8516 H   0  0  0  0  0  0  0  0  0  0  0  0
   -6.9887   18.3124  -31.9915 H   0  0  0  0  0  0  0  0  0  0  0  0
   -5.7468   20.2846  -32.8359 H   0  0  0  0  0  0  0  0  0  0  0  0
   -3.6441   21.2005  -29.7770 H   0  0  0  0  0  0  0  0  0  0  0  0
   -2.3649   19.2361  -30.5644 H   0  0  0  0  0  0  0  0  0  0  0  0
    0.1840   19.2293  -32.1677 H   0  0  0  0  0  0  0  0  0  0  0  0
    0.1966   17.8626  -33.3476 H   0  0  0  0  0  0  0  0  0  0  0  0
    0.4955   21.5117  -32.9689 H   0  0  0  0  0  0  0  0  0  0  0  0
    1.1812   23.0096  -34.8351 H   0  0  0  0  0  0  0  0  0  0  0  0
    1.2611   22.0825  -37.1575 H   0  0  0  0  0  0  0  0  0  0  0  0
    0.6713   19.7083  -37.5578 H   0  0  0  0  0  0  0  0  0  0  0  0
   -0.0119   18.2172  -35.7011 H   0  0  0  0  0  0  0  0  0  0  0  0
   -4.0179   15.9747  -32.1184 H   0  0  0  0  0  0  0  0  0  0  0  0
   -6.4598   15.7900  -32.4799 H   0  0  0  0  0  0  0  0  0  0  0  0
   -7.5900   17.1509  -34.2038 H   0  0  0  0  0  0  0  0  0  0  0  0
   -6.2181   18.7142  -35.5684 H   0  0  0  0  0  0  0  0  0  0  0  0
   -3.8075   18.9132  -35.2206 H   0  0  0  0  0  0  0  0  0  0  0  0
   -2.6031   20.8150  -34.5906 H   0  0  0  0  0  0  0  0  0  0  0  0
   -3.8970   22.7831  -33.7446 H   0  0  0  0  0  0  0  0  0  0  0  0
   -2.2550   22.7640  -29.9190 H   0  0  0  0  0  0  0  0  0  0  0  0
   -4.2000   25.3590  -28.6110 H   0  0  0  0  0  0  0  0  0  0  0  0
  1  2  2  3
  2  3  1  0
  3  4  1  0
  4  5  1  0
  5  6  1  0
  6  7  2  0
  7  8  1  0
  8  9  2  0
  9 10  1  0
 10 11  2  0
  4 12  2  0
 12 13  1  0
 13 14  2  0
 14 15  1  0
 15 16  2  0
 16 17  1  0
 17 18  1  0
 18 19  1  0
 19 20  2  0
 20 21  1  0
 21 22  2  0
 22 23  1  0
 23 24  2  0
 17 25  1  0
 25 26  2  0
 25 27  1  0
 27 28  2  0
 28 29  1  0
 29 30  2  0
 30 31  1  0
 31 32  2  0
 16 33  1  0
 33 34  2  0
 12 35  1  0
 35 36  2  3
 35 37  1  0
 37  2  1  0
 11  6  1  0
 34 13  1  0
 24 19  1  0
 32 27  1  0
  1 38  1  0
  3 39  1  0
  5 40  1  0
  5 41  1  0
  7 42  1  0
  8 43  1  0
  9 44  1  0
 10 45  1  0
 11 46  1  0
 14 47  1  0
 15 48  1  0
 18 49  1  0
 18 50  1  0
 20 51  1  0
 21 52  1  0
 22 53  1  0
 23 54  1  0
 24 55  1  0
 28 56  1  0
 29 57  1  0
 30 58  1  0
 31 59  1  0
 32 60  1  0
 33 61  1  0
 34 62  1  0
 36 63  1  0
 37 64  1  0
M  END
>  <smiles>  (8) 
N=c1[nH]c(Cc2ccccc2)c(-c2ccc(N(Cc3ccccc3)C(=O)c3ccccc3)cc2)c(=N)[nH]1

>  <score_type>  (8) 
oracle

>  <origin>  (8) 
adgpu

>  <m_score__min__energy>  (8) 
-11.15

>  <m_primary>  (8) 
energy

$$$$
8:0
     RDKit          3D

 43 45  0  0  0  0  0  0  0  0999 V2000
   -1.6569   20.4603  -31.4073 H   0  0  0  0  0  0  0  0  0  0  0  0
   -2.5320   21.0600  -31.6980 C   0  0  0  0  0  0  0  0  0  0  0  0
   -2.9680   22.1000  -30.8710 C   0  0  0  0  0  0  0  0  0  0  0  0
   -2.4351   22.3143  -29.9328 H   0  0  0  0  0  0  0  0  0  0  0  0
   -4.0810   22.8700  -31.2330 C   0  0  0  0  0  0  0  0  0  0  0  0
   -4.6290   24.1900  -30.2050 S   0  0  0  0  0  0  0  0  0  0  0  0
   -4.2720   25.4980  -30.8540 O   0  0  0  0  0  0  0  0  0  0  0  0
   -6.1200   24.1390  -30.0240 O   0  0  0  0  0  0  0  0  0  0  0  0
   -3.8540   24.0910  -28.6570 N   0  0  0  0  0  0  0  0  0  0  0  0
   -2.6930   24.6120  -28.4130 C   0  0  0  0  0  0  0  0  0  0  0  0
   -1.9510   25.2830  -29.3160 N   0  0  0  0  0  0  0  0  0  0  0  0
   -0.8630   25.6420  -28.6960 O   0  0  0  0  0  0  0  0  0  0  0  0
   -0.8770   25.2390  -27.4450 C   0  0  0  0  0  0  0  0  0  0  0  0
    0.2350   25.4640  -26.4760 C   0  0  0  0  0  0  0  0  0  0  0  0
   -0.1519   25.3857  -25.4493 H   0  0  0  0  0  0  0  0  0  0  0  0
    1.0165   24.7058  -26.6322 H   0  0  0  0  0  0  0  0  0  0  0  0
    0.6602   26.4664  -26.6322 H   0  0  0  0  0  0  0  0  0  0  0  0
   -2.0470   24.5530  -27.1990 C   0  0  0  0  0  0  0  0  0  0  0  0
   -2.3811   24.0771  -26.2653 H   0  0  0  0  0  0  0  0  0  0  0  0
   -4.7460   22.6010  -32.4340 C   0  0  0  0  0  0  0  0  0  0  0  0
   -5.6147   23.2088  -32.7272 H   0  0  0  0  0  0  0  0  0  0  0  0
   -4.3110   21.5630  -33.2630 C   0  0  0  0  0  0  0  0  0  0  0  0
   -4.8385   21.3614  -34.2070 H   0  0  0  0  0  0  0  0  0  0  0  0
   -3.2070   20.7760  -32.9010 C   0  0  0  0  0  0  0  0  0  0  0  0
   -2.7940   19.7040  -33.7690 N   0  0  0  0  0  0  0  0  0  0  0  0
   -2.0190   19.8730  -34.4490 H   0  0  0  0  0  0  0  0  0  0  0  0
   -3.6140   18.1770  -33.8750 S   0  0  0  0  0  0  0  0  0  0  0  0
   -2.7930   17.1300  -33.1770 O   0  0  0  0  0  0  0  0  0  0  0  0
   -3.7670   17.7970  -35.3210 O   0  0  0  0  0  0  0  0  0  0  0  0
   -5.2150   18.3000  -33.1510 C   0  0  0  0  0  0  0  0  0  0  0  0
   -5.5480   17.5260  -32.0320 C   0  0  0  0  0  0  0  0  0  0  0  0
   -4.8106   16.8278  -31.6092 H   0  0  0  0  0  0  0  0  0  0  0  0
   -6.8140   17.6380  -31.4510 C   0  0  0  0  0  0  0  0  0  0  0  0
   -7.0660   17.0345  -30.5666 H   0  0  0  0  0  0  0  0  0  0  0  0
   -7.7650   18.5170  -31.9910 C   0  0  0  0  0  0  0  0  0  0  0  0
   -9.1140   18.6680  -31.3520 C   0  0  0  0  0  0  0  0  0  0  0  0
   -9.0047   18.6558  -30.2575 H   0  0  0  0  0  0  0  0  0  0  0  0
   -9.5633   19.6220  -31.6650 H   0  0  0  0  0  0  0  0  0  0  0  0
   -9.7631   17.8369  -31.6650 H   0  0  0  0  0  0  0  0  0  0  0  0
   -7.4260   19.2960  -33.1070 C   0  0  0  0  0  0  0  0  0  0  0  0
   -8.1598   20.0002  -33.5261 H   0  0  0  0  0  0  0  0  0  0  0  0
   -6.1610   19.1820  -33.6890 C   0  0  0  0  0  0  0  0  0  0  0  0
   -5.9072   19.7866  -34.5722 H   0  0  0  0  0  0  0  0  0  0  0  0
  1  2  1  0
  2  3  2  0
  3  4  1  0
  3  5  1  0
  5  6  1  0
  6  7  2  0
  6  8  2  0
  6  9  1  0
  9 10  2  0
 10 11  1  0
 11 12  1  0
 12 13  1  0
 13 14  1  0
 14 15  1  0
 14 16  1  0
 14 17  1  0
 13 18  2  0
 18 19  1  0
  5 20  2  0
 20 21  1  0
 20 22  1  0
 22 23  1  0
 22 24  2  0
 24 25  1  0
 25 26  1  0
 25 27  1  0
 27 28  2  0
 27 29  2  0
 27 30  1  0
 30 31  2  0
 31 32  1  0
 31 33  1  0
 33 34  1  0
 33 35  2  0
 35 36  1  0
 36 37  1  0
 36 38  1  0
 36 39  1  0
 35 40  1  0
 40 41  1  0
 40 42  2  0
 42 43  1  0
 24  2  1  0
 42 30  1  0
 18 10  1  0
M  CHG  1  11  -1
M  END
>  <UniqueID>  (9) 
8

>  <SMILES>  (9) 
Cc1ccc(S(=O)(=O)Nc2ccc(S(=O)(=O)/N=c3/cc(C)o[n-]3)cc2)cc1

>  <Energy>  (9) 
79.6493733463605

>  <Genealogy>  (9) 
Cc1ccc(S(=O)(=O)Nc2ccc(S(=O)(=O)N=c3cc(C)o[n-]3)cc2)cc1 (protonated)
Cc1ccc(S(=O)(=O)Nc2ccc(S(=O)(=O)/N=c3/cc(C)o[n-]3)cc2)cc1 (cis-trans isomerization)
Cc1ccc(S(=O)(=O)Nc2ccc(S(=O)(=O)/N=c3/cc(C)o[n-]3)cc2)cc1 (3D coordinates assigned)
Cc1ccc(S(=O)(=O)Nc2ccc(S(=O)(=O)/N=c3/cc(C)o[n-]3)cc2)cc1 (optimized conformer: 79.6493733463605 kcal/mol)

>  <smiles>  (9) 
Cc1ccc(S(=O)(=O)Nc2ccc(S(=O)(=O)N=c3cc(C)o[nH]3)cc2)cc1

>  <score_type>  (9) 
oracle

>  <origin>  (9) 
adgpu

>  <m_score__min__energy>  (9) 
-11.58

>  <m_primary>  (9) 
energy

$$$$
9:0
     RDKit          3D

 42 44  0  0  0  0  0  0  0  0999 V2000
   -1.6370   26.0490  -29.5990 H   0  0  0  0  0  0  0  0  0  0  0  0
   -1.9040   25.0690  -29.3570 N   0  0  0  0  0  0  0  0  0  0  0  0
   -3.0160   24.5490  -29.7680 C   0  0  0  0  0  0  0  0  0  0  0  0
   -3.8720   25.2820  -30.5330 N   0  0  0  0  0  0  0  0  0  0  0  0
   -5.0480   24.7690  -30.9850 C   0  0  0  0  0  0  0  0  0  0  0  0
   -5.7169   25.3881  -31.6008 H   0  0  0  0  0  0  0  0  0  0  0  0
   -5.4080   23.4530  -30.6670 C   0  0  0  0  0  0  0  0  0  0  0  0
   -6.9220   22.7720  -31.2500 S   0  0  0  0  0  0  0  0  0  0  0  0
   -7.4640   21.8300  -30.2130 O   0  0  0  0  0  0  0  0  0  0  0  0
   -7.9310   23.8580  -31.5000 O   0  0  0  0  0  0  0  0  0  0  0  0
   -6.6550   21.8980  -32.7250 N   0  0  0  0  0  0  0  0  0  0  0  0
   -6.5660   20.4710  -32.8350 C   0  0  0  0  0  0  0  0  0  0  0  0
   -6.0970   19.9200  -34.0310 C   0  0  0  0  0  0  0  0  0  0  0  0
   -5.8005   20.5834  -34.8568 H   0  0  0  0  0  0  0  0  0  0  0  0
   -6.0010   18.5340  -34.1880 C   0  0  0  0  0  0  0  0  0  0  0  0
   -5.6348   18.1171  -35.1378 H   0  0  0  0  0  0  0  0  0  0  0  0
   -6.3690   17.6670  -33.1410 C   0  0  0  0  0  0  0  0  0  0  0  0
   -6.2860   16.1850  -33.2790 C   0  0  0  0  0  0  0  0  0  0  0  0
   -7.2090   15.5860  -33.9010 O   0  0  0  0  0  0  0  0  0  0  0  0
   -5.1660   15.4260  -32.7460 N   0  0  0  0  0  0  0  0  0  0  0  0
   -5.3660   15.2130  -31.7420 H   0  0  0  0  0  0  0  0  0  0  0  0
   -3.9200   16.2200  -32.8000 C   0  0  0  0  0  0  0  0  0  0  0  0
   -4.1242   17.2259  -32.4044 H   0  0  0  0  0  0  0  0  0  0  0  0
   -3.1619   15.6977  -32.1980 H   0  0  0  0  0  0  0  0  0  0  0  0
   -3.3700   16.3540  -34.2420 C   0  0  0  0  0  0  0  0  0  0  0  0
   -3.5835   17.3709  -34.6029 H   0  0  0  0  0  0  0  0  0  0  0  0
   -2.2910   16.1449  -34.1973 H   0  0  0  0  0  0  0  0  0  0  0  0
   -3.9360   15.4280  -35.1510 O   0  0  0  0  0  0  0  0  0  0  0  0
   -3.9820   14.1450  -34.5690 C   0  0  0  0  0  0  0  0  0  0  0  0
   -4.2742   13.4111  -35.3346 H   0  0  0  0  0  0  0  0  0  0  0  0
   -2.9868   13.9017  -34.1684 H   0  0  0  0  0  0  0  0  0  0  0  0
   -5.0040   14.1080  -33.4160 C   0  0  0  0  0  0  0  0  0  0  0  0
   -5.9787   13.7972  -33.8203 H   0  0  0  0  0  0  0  0  0  0  0  0
   -4.6288   13.3984  -32.6639 H   0  0  0  0  0  0  0  0  0  0  0  0
   -6.8440   18.2280  -31.9400 C   0  0  0  0  0  0  0  0  0  0  0  0
   -7.1454   17.5677  -31.1134 H   0  0  0  0  0  0  0  0  0  0  0  0
   -6.9370   19.6140  -31.7860 C   0  0  0  0  0  0  0  0  0  0  0  0
   -7.3027   20.0358  -30.8382 H   0  0  0  0  0  0  0  0  0  0  0  0
   -4.5450   22.6870  -29.8760 C   0  0  0  0  0  0  0  0  0  0  0  0
   -4.8146   21.6546  -29.6088 H   0  0  0  0  0  0  0  0  0  0  0  0
   -3.3420   23.2330  -29.4260 C   0  0  0  0  0  0  0  0  0  0  0  0
   -2.6569   22.6338  -28.8082 H   0  0  0  0  0  0  0  0  0  0  0  0
  1  2  1  0
  2  3  2  0
  3  4  1  0
  4  5  1  0
  5  6  1  0
  5  7  2  0
  7  8  1  0
  8  9  2  0
  8 10  2  0
  8 11  1  0
 11 12  1  0
 12 13  2  0
 13 14  1  0
 13 15  1  0
 15 16  1  0
 15 17  2  0
 17 18  1  0
 18 19  2  0
 18 20  1  0
 20 21  1  0
 20 22  1  0
 22 23  1  0
 22 24  1  0
 22 25  1  0
 25 26  1  0
 25 27  1  0
 25 28  1  0
 28 29  1  0
 29 30  1  0
 29 31  1  0
 29 32  1  0
 32 33  1  0
 32 34  1  0
 17 35  1  0
 35 36  1  0
 35 37  2  0
 37 38  1  0
  7 39  1  0
 39 40  1  0
 39 41  2  0
 41 42  1  0
 41  3  1  0
 37 12  1  0
 32 20  1  0
M  CHG  3   4  -1  11  -1  20   1
M  END
>  <UniqueID>  (10) 
9

>  <SMILES>  (10) 
[H]/N=c1/ccc(S(=O)(=O)[N-]c2ccc(C(=O)[NH+]3CCOCC3)cc2)c[n-]1

>  <Energy>  (10) 
63.852300479199414

>  <Genealogy>  (10) 
N=c1ccc(S(=O)(=O)[N-]c2ccc(C(=O)[NH+]3CCOCC3)cc2)c[n-]1 (protonated)
[H]/N=c1/ccc(S(=O)(=O)[N-]c2ccc(C(=O)[NH+]3CCOCC3)cc2)c[n-]1 (cis-trans isomerization)
[H]/N=c1/ccc(S(=O)(=O)[N-]c2ccc(C(=O)[NH+]3CCOCC3)cc2)c[n-]1 (3D coordinates assigned)
[H]/N=c1/ccc(S(=O)(=O)[N-]c2ccc(C(=O)[NH+]3CCOCC3)cc2)c[n-]1 (nonaromatic ring conformer: 63.852300479199414 kcal/mol)

>  <smiles>  (10) 
N=c1ccc(S(=O)(=O)Nc2ccc(C(=O)N3CCOCC3)cc2)c[nH]1

>  <score_type>  (10) 
oracle

>  <origin>  (10) 
adgpu

>  <m_score__min__energy>  (10) 
-9.5999999999999996

>  <m_primary>  (10) 
energy

$$$$
10:0
     RDKit          3D

 46 48  0  0  0  0  0  0  0  0999 V2000
   -0.6930   22.1680  -26.3000 C   0  0  0  0  0  0  0  0  0  0  0  0
   -1.4250   22.8900  -27.3930 C   0  0  0  0  0  0  0  0  0  0  0  0
   -2.4790   23.7610  -27.0820 C   0  0  0  0  0  0  0  0  0  0  0  0
   -3.1440   24.4520  -28.0990 C   0  0  0  0  0  0  0  0  0  0  0  0
   -2.7510   24.3030  -29.4330 C   0  0  0  0  0  0  0  0  0  0  0  0
   -3.5080   24.9650  -30.4550 N   0  0  0  0  0  0  0  0  0  0  0  0
   -4.9330   24.9530  -30.5740 C   0  0  0  0  0  0  0  0  0  0  0  0
   -5.5310   25.8670  -31.2040 O   0  0  0  0  0  0  0  0  0  0  0  0
   -5.7160   23.8320  -29.9690 C   0  0  0  0  0  0  0  0  0  0  0  0
   -5.8500   22.7470  -30.9430 N   0  0  0  0  0  0  0  0  0  0  0  0
   -4.6850   22.0480  -31.4070 C   0  0  0  0  0  0  0  0  0  0  0  0
   -4.0250   21.1360  -30.5670 C   0  0  0  0  0  0  0  0  0  0  0  0
   -2.8980   20.4460  -31.0240 C   0  0  0  0  0  0  0  0  0  0  0  0
   -2.4250   20.6580  -32.3230 C   0  0  0  0  0  0  0  0  0  0  0  0
   -3.0810   21.5590  -33.1650 C   0  0  0  0  0  0  0  0  0  0  0  0
   -4.2080   22.2510  -32.7110 C   0  0  0  0  0  0  0  0  0  0  0  0
   -7.4330   22.2370  -31.4500 S   0  0  0  0  0  0  0  0  0  0  0  0
   -8.3720   22.2930  -30.2770 O   0  0  0  0  0  0  0  0  0  0  0  0
   -7.9580   23.1610  -32.5130 O   0  0  0  0  0  0  0  0  0  0  0  0
   -7.3630   20.5960  -32.0890 C   0  0  0  0  0  0  0  0  0  0  0  0
   -8.0880   19.5660  -31.4720 C   0  0  0  0  0  0  0  0  0  0  0  0
   -8.0090   18.2590  -31.9630 C   0  0  0  0  0  0  0  0  0  0  0  0
   -7.2040   17.9740  -33.0690 C   0  0  0  0  0  0  0  0  0  0  0  0
   -6.4820   18.9960  -33.6890 C   0  0  0  0  0  0  0  0  0  0  0  0
   -6.5600   20.3060  -33.2020 C   0  0  0  0  0  0  0  0  0  0  0  0
   -1.6900   23.4330  -29.7460 C   0  0  0  0  0  0  0  0  0  0  0  0
   -1.0250   22.7410  -28.7290 C   0  0  0  0  0  0  0  0  0  0  0  0
   -1.0519   22.5220  -25.3223 H   0  0  0  0  0  0  0  0  0  0  0  0
   -0.8759   21.0869  -26.3882 H   0  0  0  0  0  0  0  0  0  0  0  0
    0.3855   22.3658  -26.3882 H   0  0  0  0  0  0  0  0  0  0  0  0
   -2.7835   23.9010  -26.0343 H   0  0  0  0  0  0  0  0  0  0  0  0
   -3.9828   25.1180  -27.8482 H   0  0  0  0  0  0  0  0  0  0  0  0
   -5.1929   23.4600  -29.0757 H   0  0  0  0  0  0  0  0  0  0  0  0
   -6.7150   24.1947  -29.6853 H   0  0  0  0  0  0  0  0  0  0  0  0
   -4.3961   20.9640  -29.5459 H   0  0  0  0  0  0  0  0  0  0  0  0
   -2.3827   19.7355  -30.3610 H   0  0  0  0  0  0  0  0  0  0  0  0
   -1.5374   20.1158  -32.6812 H   0  0  0  0  0  0  0  0  0  0  0  0
   -2.7102   21.7245  -34.1873 H   0  0  0  0  0  0  0  0  0  0  0  0
   -4.7228   22.9574  -33.3788 H   0  0  0  0  0  0  0  0  0  0  0  0
   -8.7204   19.7869  -30.5995 H   0  0  0  0  0  0  0  0  0  0  0  0
   -8.5812   17.4544  -31.4780 H   0  0  0  0  0  0  0  0  0  0  0  0
   -7.1390   16.9446  -33.4513 H   0  0  0  0  0  0  0  0  0  0  0  0
   -5.8510   18.7712  -34.5615 H   0  0  0  0  0  0  0  0  0  0  0  0
   -5.9908   21.1092  -33.6928 H   0  0  0  0  0  0  0  0  0  0  0  0
   -1.3830   23.2970  -30.7935 H   0  0  0  0  0  0  0  0  0  0  0  0
   -0.1843   22.0767  -28.9779 H   0  0  0  0  0  0  0  0  0  0  0  0
  1  2  1  0
  2  3  2  0
  3  4  1  0
  4  5  2  0
  5  6  1  0
  6  7  1  0
  7  8  2  0
  7  9  1  0
  9 10  1  0
 10 11  1  0
 11 12  2  0
 12 13  1  0
 13 14  2  0
 14 15  1  0
 15 16  2  0
 10 17  1  0
 17 18  2  0
 17 19  2  0
 17 20  1  0
 20 21  2  0
 21 22  1  0
 22 23  2  0
 23 24  1  0
 24 25  2  0
  5 26  1  0
 26 27  2  0
 27  2  1  0
 16 11  1  0
 25 20  1  0
  1 28  1  0
  1 29  1  0
  1 30  1  0
  3 31  1  0
  4 32  1  0
  9 33  1  0
  9 34  1  0
 12 35  1  0
 13 36  1  0
 14 37  1  0
 15 38  1  0
 16 39  1  0
 21 40  1  0
 22 41  1  0
 23 42  1  0
 24 43  1  0
 25 44  1  0
 26 45  1  0
 27 46  1  0
M  CHG  1   6  -1
M  END
>  <UniqueID>  (11) 
10

>  <SMILES>  (11) 
Cc1ccc([N-]C(=O)CN(c2ccccc2)S(=O)(=O)c2ccccc2)cc1

>  <Energy>  (11) 
50.93232313359298

>  <Genealogy>  (11) 
Cc1ccc([N-]C(=O)CN(c2ccccc2)S(=O)(=O)c2ccccc2)cc1 (protonated)
Cc1ccc([N-]C(=O)CN(c2ccccc2)S(=O)(=O)c2ccccc2)cc1 (3D coordinates assigned)
Cc1ccc([N-]C(=O)CN(c2ccccc2)S(=O)(=O)c2ccccc2)cc1 (optimized conformer: 50.93232313359298 kcal/mol)

>  <smiles>  (11) 
Cc1ccc(NC(=O)CN(c2ccccc2)S(=O)(=O)c2ccccc2)cc1

>  <score_type>  (11) 
oracle

>  <origin>  (11) 
adgpu

>  <m_score__min__energy>  (11) 
-11.279999999999999

>  <m_primary>  (11) 
energy

$$$$
11:0
     RDKit          3D

 48 50  0  0  0  0  0  0  0  0999 V2000
   -0.3320   23.0310  -25.0060 C   0  0  0  0  0  0  0  0  0  0  0  0
   -0.4760   22.5940  -26.3540 O   0  0  0  0  0  0  0  0  0  0  0  0
   -1.2620   23.2410  -27.3210 C   0  0  0  0  0  0  0  0  0  0  0  0
   -2.6140   22.9070  -27.5300 C   0  0  0  0  0  0  0  0  0  0  0  0
   -3.3640   23.5690  -28.5040 C   0  0  0  0  0  0  0  0  0  0  0  0
   -2.7720   24.5650  -29.2980 C   0  0  0  0  0  0  0  0  0  0  0  0
   -3.5100   25.2870  -30.2960 N   0  0  0  0  0  0  0  0  0  0  0  0
   -4.9300   25.2780  -30.4970 C   0  0  0  0  0  0  0  0  0  0  0  0
   -5.6190   26.2910  -30.2000 O   0  0  0  0  0  0  0  0  0  0  0  0
   -5.6010   24.0510  -30.9940 C   0  0  0  0  0  0  0  0  0  0  0  0
   -6.9870   23.8750  -30.8280 C   0  0  0  0  0  0  0  0  0  0  0  0
   -7.6180   22.7300  -31.3190 C   0  0  0  0  0  0  0  0  0  0  0  0
   -6.8770   21.7430  -31.9750 C   0  0  0  0  0  0  0  0  0  0  0  0
   -7.5200   20.6500  -32.4610 F   0  0  0  0  0  0  0  0  0  0  0  0
   -5.4900   21.8940  -32.1330 C   0  0  0  0  0  0  0  0  0  0  0  0
   -4.5250   20.6640  -32.9490 S   0  0  0  0  0  0  0  0  0  0  0  0
   -3.8480   19.8110  -31.9140 O   0  0  0  0  0  0  0  0  0  0  0  0
   -3.4780   21.2880  -33.8290 O   0  0  0  0  0  0  0  0  0  0  0  0
   -5.5520   19.6620  -33.9230 N   0  0  0  0  0  0  0  0  0  0  0  0
   -5.5530   18.2250  -33.9250 C   0  0  0  0  0  0  0  0  0  0  0  0
   -6.7510   17.4870  -33.8390 C   0  0  0  0  0  0  0  0  0  0  0  0
   -6.7230   16.0910  -33.8520 C   0  0  0  0  0  0  0  0  0  0  0  0
   -5.5060   15.4140  -33.9470 C   0  0  0  0  0  0  0  0  0  0  0  0
   -4.3120   16.1340  -34.0310 C   0  0  0  0  0  0  0  0  0  0  0  0
   -4.3280   17.5340  -34.0200 C   0  0  0  0  0  0  0  0  0  0  0  0
   -3.1150   18.2180  -34.1060 O   0  0  0  0  0  0  0  0  0  0  0  0
   -4.8620   23.0500  -31.6490 C   0  0  0  0  0  0  0  0  0  0  0  0
   -1.4360   24.9150  -29.0740 C   0  0  0  0  0  0  0  0  0  0  0  0
   -0.6720   24.2520  -28.0930 C   0  0  0  0  0  0  0  0  0  0  0  0
    0.6740   24.5710  -27.8560 O   0  0  0  0  0  0  0  0  0  0  0  0
    1.1200   25.5520  -26.9240 C   0  0  0  0  0  0  0  0  0  0  0  0
   -0.6021   22.2113  -24.3240 H   0  0  0  0  0  0  0  0  0  0  0  0
    0.7117   23.3285  -24.8265 H   0  0  0  0  0  0  0  0  0  0  0  0
   -0.9944   23.8907  -24.8265 H   0  0  0  0  0  0  0  0  0  0  0  0
   -3.0824   22.1192  -26.9218 H   0  0  0  0  0  0  0  0  0  0  0  0
   -4.4229   23.3095  -28.6502 H   0  0  0  0  0  0  0  0  0  0  0  0
   -7.5773   24.6441  -30.3082 H   0  0  0  0  0  0  0  0  0  0  0  0
   -8.7030   22.6043  -31.1889 H   0  0  0  0  0  0  0  0  0  0  0  0
   -7.7134   18.0139  -33.7612 H   0  0  0  0  0  0  0  0  0  0  0  0
   -7.6628   15.5231  -33.7872 H   0  0  0  0  0  0  0  0  0  0  0  0
   -5.4872   14.3142  -33.9557 H   0  0  0  0  0  0  0  0  0  0  0  0
   -3.3542   15.5983  -34.1062 H   0  0  0  0  0  0  0  0  0  0  0  0
   -3.0170   19.1840  -33.8230 H   0  0  0  0  0  0  0  0  0  0  0  0
   -3.7775   23.1756  -31.7833 H   0  0  0  0  0  0  0  0  0  0  0  0
   -0.9767   25.7170  -29.6706 H   0  0  0  0  0  0  0  0  0  0  0  0
    0.9540   25.1869  -25.8997 H   0  0  0  0  0  0  0  0  0  0  0  0
    2.1928   25.7415  -27.0764 H   0  0  0  0  0  0  0  0  0  0  0  0
    0.5576   26.4850  -27.0764 H   0  0  0  0  0  0  0  0  0  0  0  0
  1  2  1  0
  2  3  1  0
  3  4  2  0
  4  5  1  0
  5  6  2  0
  6  7  1  0
  7  8  1  0
  8  9  2  0
  8 10  1  0
 10 11  2  0
 11 12  1  0
 12 13  2  0
 13 14  1  0
 13 15  1  0
 15 16  1  0
 16 17  2  0
 16 18  2  0
 16 19  1  0
 19 20  1  0
 20 21  2  0
 21 22  1  0
 22 23  2  0
 23 24  1  0
 24 25  2  0
 25 26  1  0
 15 27  2  0
  6 28  1  0
 28 29  2  0
 29 30  1  0
 30 31  1  0
 29  3  1  0
 27 10  1  0
 25 20  1  0
  1 32  1  0
  1 33  1  0
  1 34  1  0
  4 35  1  0
  5 36  1  0
 11 37  1  0
 12 38  1  0
 21 39  1  0
 22 40  1  0
 23 41  1  0
 24 42  1  0
 26 43  1  0
 27 44  1  0
 28 45  1  0
 31 46  1  0
 31 47  1  0
 31 48  1  0
M  CHG  2   7  -1  19  -1
M  END
>  <UniqueID>  (12) 
11

>  <SMILES>  (12) 
COc1ccc([N-]C(=O)c2ccc(F)c(S(=O)(=O)[N-]c3ccccc3O)c2)cc1OC

>  <Energy>  (12) 
58.24164319086979

>  <Genealogy>  (12) 
COc1ccc([N-]C(=O)c2ccc(F)c(S(=O)(=O)[N-]c3ccccc3O)c2)cc1OC (protonated)
COc1ccc([N-]C(=O)c2ccc(F)c(S(=O)(=O)[N-]c3ccccc3O)c2)cc1OC (3D coordinates assigned)
COc1ccc([N-]C(=O)c2ccc(F)c(S(=O)(=O)[N-]c3ccccc3O)c2)cc1OC (optimized conformer: 58.24164319086979 kcal/mol)

>  <smiles>  (12) 
COc1ccc(NC(=O)c2ccc(F)c(S(=O)(=O)Nc3ccccc3O)c2)cc1OC

>  <score_type>  (12) 
oracle

>  <origin>  (12) 
adgpu

>  <m_score__min__energy>  (12) 
-9.8399999999999999

>  <m_primary>  (12) 
energy

$$$$
12:0
     RDKit          3D

 30 31  0  0  0  0  0  0  0  0999 V2000
   -6.1860   25.6810  -29.6000 C   0  0  0  0  0  0  0  0  0  0  0  0
   -5.9490   24.4670  -30.4550 C   0  0  0  0  0  0  0  0  0  0  0  0
   -7.0330   23.6550  -30.8270 C   0  0  0  0  0  0  0  0  0  0  0  0
   -6.8270   22.5140  -31.6060 C   0  0  0  0  0  0  0  0  0  0  0  0
   -5.5390   22.1730  -32.0220 C   0  0  0  0  0  0  0  0  0  0  0  0
   -4.4510   22.9650  -31.6460 C   0  0  0  0  0  0  0  0  0  0  0  0
   -4.6400   24.0990  -30.8370 C   0  0  0  0  0  0  0  0  0  0  0  0
   -3.5290   24.9270  -30.4610 N   0  0  0  0  0  0  0  0  0  0  0  0
   -2.6200   24.6870  -29.3780 C   0  0  0  0  0  0  0  0  0  0  0  0
   -1.9160   25.6420  -28.9540 O   0  0  0  0  0  0  0  0  0  0  0  0
   -2.5440   23.3570  -28.6830 C   0  0  0  0  0  0  0  0  0  0  0  0
   -1.5540   22.1750  -29.6590 S   0  0  0  0  0  0  0  0  0  0  0  0
   -1.7520   20.8290  -28.4940 C   0  0  0  0  0  0  0  0  0  0  0  0
   -2.9190   20.6850  -27.8130 N   0  0  0  0  0  0  0  0  0  0  0  0
   -3.0850   19.6740  -26.9220 C   0  0  0  0  0  0  0  0  0  0  0  0
   -2.0510   18.7660  -26.6990 C   0  0  0  0  0  0  0  0  0  0  0  0
   -0.8610   18.9270  -27.4090 C   0  0  0  0  0  0  0  0  0  0  0  0
   -0.7330   19.9530  -28.2910 N   0  0  0  0  0  0  0  0  0  0  0  0
   -6.1308   25.3983  -28.5384 H   0  0  0  0  0  0  0  0  0  0  0  0
   -5.4188   26.4385  -29.8181 H   0  0  0  0  0  0  0  0  0  0  0  0
   -7.1818   26.0943  -29.8181 H   0  0  0  0  0  0  0  0  0  0  0  0
   -8.0504   23.9192  -30.5029 H   0  0  0  0  0  0  0  0  0  0  0  0
   -7.6814   21.8830  -31.8922 H   0  0  0  0  0  0  0  0  0  0  0  0
   -5.3805   21.2809  -32.6457 H   0  0  0  0  0  0  0  0  0  0  0  0
   -3.4391   22.6992  -31.9856 H   0  0  0  0  0  0  0  0  0  0  0  0
   -2.0765   23.4913  -27.6964 H   0  0  0  0  0  0  0  0  0  0  0  0
   -3.5628   22.9575  -28.5714 H   0  0  0  0  0  0  0  0  0  0  0  0
   -4.0347   19.5715  -26.3765 H   0  0  0  0  0  0  0  0  0  0  0  0
   -2.1706   17.9420  -25.9802 H   0  0  0  0  0  0  0  0  0  0  0  0
   -0.0281   18.2251  -27.2553 H   0  0  0  0  0  0  0  0  0  0  0  0
  1  2  1  0
  2  3  2  0
  3  4  1  0
  4  5  2  0
  5  6  1  0
  6  7  2  0
  7  8  1  0
  8  9  1  0
  9 10  2  0
  9 11  1  0
 11 12  1  0
 12 13  1  0
 13 14  2  0
 14 15  1  0
 15 16  2  0
 16 17  1  0
 17 18  2  0
  7  2  1  0
 18 13  1  0
  1 19  1  0
  1 20  1  0
  1 21  1  0
  3 22  1  0
  4 23  1  0
  5 24  1  0
  6 25  1  0
 11 26  1  0
 11 27  1  0
 15 28  1  0
 16 29  1  0
 17 30  1  0
M  CHG  1   8  -1
M  END
>  <UniqueID>  (13) 
12

>  <SMILES>  (13) 
Cc1ccccc1[N-]C(=O)CSc1ncccn1

>  <Energy>  (13) 
30.77243398851771

>  <Genealogy>  (13) 
Cc1ccccc1[N-]C(=O)CSc1ncccn1 (protonated)
Cc1ccccc1[N-]C(=O)CSc1ncccn1 (3D coordinates assigned)
Cc1ccccc1[N-]C(=O)CSc1ncccn1 (optimized conformer: 30.77243398851771 kcal/mol)

>  <smiles>  (13) 
Cc1ccccc1NC(=O)CSc1ncccn1

>  <score_type>  (13) 
oracle

>  <origin>  (13) 
adgpu

>  <m_score__min__energy>  (13) 
-8.2200000000000006

>  <m_primary>  (13) 
energy

$$$$
13:0
     RDKit          3D

 48 51  0  0  0  0  0  0  0  0999 V2000
   -1.6088   20.9750  -30.1059 H   0  0  0  0  0  0  0  0  0  0  0  0
   -2.0540   20.9000  -31.1090 C   0  0  0  0  0  0  0  0  0  0  0  0
   -2.6450   21.9870  -31.6720 N   0  0  0  0  0  0  0  0  0  0  0  0
   -3.2070   21.9330  -32.9090 C   0  0  0  0  0  0  0  0  0  0  0  0
   -3.6812   22.8288  -33.3364 H   0  0  0  0  0  0  0  0  0  0  0  0
   -3.1830   20.7410  -33.6380 C   0  0  0  0  0  0  0  0  0  0  0  0
   -3.6439   20.6928  -34.6356 H   0  0  0  0  0  0  0  0  0  0  0  0
   -2.5670   19.6060  -33.0890 C   0  0  0  0  0  0  0  0  0  0  0  0
   -2.5290   18.3130  -33.8610 C   0  0  0  0  0  0  0  0  0  0  0  0
   -2.3771   17.4792  -33.1597 H   0  0  0  0  0  0  0  0  0  0  0  0
   -1.7031   18.3608  -34.5859 H   0  0  0  0  0  0  0  0  0  0  0  0
   -3.7820   18.1030  -34.5920 N   0  0  0  0  0  0  0  0  0  0  0  0
   -3.7170   18.0260  -35.6320 H   0  0  0  0  0  0  0  0  0  0  0  0
   -5.0850   18.0340  -33.9780 C   0  0  0  0  0  0  0  0  0  0  0  0
   -5.6560   16.7780  -33.7160 C   0  0  0  0  0  0  0  0  0  0  0  0
   -5.1116   15.8626  -33.9909 H   0  0  0  0  0  0  0  0  0  0  0  0
   -6.9100   16.6830  -33.1090 C   0  0  0  0  0  0  0  0  0  0  0  0
   -7.3473   15.6942  -32.9065 H   0  0  0  0  0  0  0  0  0  0  0  0
   -7.6110   17.8390  -32.7580 C   0  0  0  0  0  0  0  0  0  0  0  0
   -8.5949   17.7564  -32.2731 H   0  0  0  0  0  0  0  0  0  0  0  0
   -7.0680   19.1010  -33.0200 C   0  0  0  0  0  0  0  0  0  0  0  0
   -7.7860   20.2420  -32.6260 O   0  0  0  0  0  0  0  0  0  0  0  0
   -7.2340   21.3600  -31.9860 C   0  0  0  0  0  0  0  0  0  0  0  0
   -6.0800   21.1950  -31.2100 C   0  0  0  0  0  0  0  0  0  0  0  0
   -5.6332   20.1960  -31.0986 H   0  0  0  0  0  0  0  0  0  0  0  0
   -5.4930   22.2950  -30.5760 C   0  0  0  0  0  0  0  0  0  0  0  0
   -4.5798   22.1603  -29.9777 H   0  0  0  0  0  0  0  0  0  0  0  0
   -6.0650   23.5680  -30.7010 C   0  0  0  0  0  0  0  0  0  0  0  0
   -5.3240   24.9580  -29.9150 S   0  0  0  0  0  0  0  0  0  0  0  0
   -4.3690   25.6080  -30.8760 O   0  0  0  0  0  0  0  0  0  0  0  0
   -6.3700   25.9610  -29.5120 O   0  0  0  0  0  0  0  0  0  0  0  0
   -4.4500   24.4490  -28.5060 N   0  0  0  0  0  0  0  0  0  0  0  0
   -3.2160   24.0470  -28.5050 C   0  0  0  0  0  0  0  0  0  0  0  0
   -2.4000   23.5680  -27.1180 S   0  0  0  0  0  0  0  0  0  0  0  0
   -0.9760   23.2250  -27.9500 C   0  0  0  0  0  0  0  0  0  0  0  0
   -0.0429   22.8499  -27.5043 H   0  0  0  0  0  0  0  0  0  0  0  0
   -1.1840   23.4980  -29.2980 C   0  0  0  0  0  0  0  0  0  0  0  0
   -0.4035   23.3523  -30.0593 H   0  0  0  0  0  0  0  0  0  0  0  0
   -2.4270   23.9590  -29.6020 N   0  0  0  0  0  0  0  0  0  0  0  0
   -2.7120   24.2070  -30.5740 H   0  0  0  0  0  0  0  0  0  0  0  0
   -7.2410   23.7290  -31.4460 C   0  0  0  0  0  0  0  0  0  0  0  0
   -7.7037   24.7232  -31.5323 H   0  0  0  0  0  0  0  0  0  0  0  0
   -7.8270   22.6310  -32.0790 C   0  0  0  0  0  0  0  0  0  0  0  0
   -8.7564   22.7612  -32.6527 H   0  0  0  0  0  0  0  0  0  0  0  0
   -5.8000   19.1930  -33.6240 C   0  0  0  0  0  0  0  0  0  0  0  0
   -5.3628   20.1828  -33.8217 H   0  0  0  0  0  0  0  0  0  0  0  0
   -2.0110   19.6880  -31.8020 C   0  0  0  0  0  0  0  0  0  0  0  0
   -1.5448   18.8038  -31.3428 H   0  0  0  0  0  0  0  0  0  0  0  0
  1  2  1  0
  2  3  2  0
  3  4  1  0
  4  5  1  0
  4  6  2  0
  6  7  1  0
  6  8  1  0
  8  9  1  0
  9 10  1  0
  9 11  1  0
  9 12  1  0
 12 13  1  0
 12 14  1  0
 14 15  2  0
 15 16  1  0
 15 17  1  0
 17 18  1  0
 17 19  2  0
 19 20  1  0
 19 21  1  0
 21 22  1  0
 22 23  1  0
 23 24  2  0
 24 25  1  0
 24 26  1  0
 26 27  1  0
 26 28  2  0
 28 29  1  0
 29 30  2  0
 29 31  2  0
 29 32  1  0
 32 33  2  0
 33 34  1  0
 34 35  1  0
 35 36  1  0
 35 37  2  0
 37 38  1  0
 37 39  1  0
 39 40  1  0
 28 41  1  0
 41 42  1  0
 41 43  2  0
 43 44  1  0
 21 45  2  0
 45 46  1  0
  8 47  2  0
 47 48  1  0
 47  2  1  0
 45 14  1  0
 43 23  1  0
 39 33  1  0
M  END
>  <UniqueID>  (14) 
13

>  <SMILES>  (14) 
O=S(=O)(/N=c1\[nH]ccs1)c1ccc(Oc2cccc(NCc3ccncc3)c2)cc1

>  <Energy>  (14) 
89.65746066474979

>  <Genealogy>  (14) 
O=S(=O)(/N=c1\[nH]ccs1)c1ccc(Oc2cccc(NCc3ccncc3)c2)cc1 (cis-trans isomerization)
O=S(=O)(/N=c1\[nH]ccs1)c1ccc(Oc2cccc(NCc3ccncc3)c2)cc1 (3D coordinates assigned)
O=S(=O)(/N=c1\[nH]ccs1)c1ccc(Oc2cccc(NCc3ccncc3)c2)cc1 (optimized conformer: 89.65746066474979 kcal/mol)

>  <smiles>  (14) 
O=S(=O)(N=c1[nH]ccs1)c1ccc(Oc2cccc(NCc3ccncc3)c2)cc1

>  <score_type>  (14) 
oracle

>  <origin>  (14) 
adgpu

>  <m_score__min__energy>  (14) 
-9.9900000000000002

>  <m_primary>  (14) 
energy

$$$$
14:0
     RDKit          3D

 49 51  0  0  0  0  0  0  0  0999 V2000
   -0.8600   26.4830  -23.7490 C   0  0  0  0  0  0  0  0  0  0  0  0
   -0.9320   25.4930  -24.9070 C   0  0  0  0  0  0  0  0  0  0  0  0
   -0.0410   24.3620  -24.6710 N   0  0  0  0  0  0  0  0  0  0  0  0
   -0.4880   23.0770  -24.2310 C   0  0  0  0  0  0  0  0  0  0  0  0
   -0.8630   22.9400  -23.0360 O   0  0  0  0  0  0  0  0  0  0  0  0
   -0.5170   21.9700  -25.1500 N   0  0  0  0  0  0  0  0  0  0  0  0
   -1.0360   21.9550  -26.3430 C   0  0  0  0  0  0  0  0  0  0  0  0
   -1.6390   23.0580  -26.8670 N   0  0  0  0  0  0  0  0  0  0  0  0
   -2.1800   23.0390  -28.1140 C   0  0  0  0  0  0  0  0  0  0  0  0
   -2.7930   24.1820  -28.6310 C   0  0  0  0  0  0  0  0  0  0  0  0
   -3.3620   24.1630  -29.9200 C   0  0  0  0  0  0  0  0  0  0  0  0
   -4.0010   25.2870  -30.4730 O   0  0  0  0  0  0  0  0  0  0  0  0
   -5.3980   25.5660  -30.3970 C   0  0  0  0  0  0  0  0  0  0  0  0
   -6.2070   24.3570  -30.7850 C   0  0  0  0  0  0  0  0  0  0  0  0
   -6.6850   23.4720  -29.8050 C   0  0  0  0  0  0  0  0  0  0  0  0
   -7.4300   22.3480  -30.1720 C   0  0  0  0  0  0  0  0  0  0  0  0
   -7.7200   22.1030  -31.5220 C   0  0  0  0  0  0  0  0  0  0  0  0
   -8.6370   20.6750  -31.9870 S   0  0  0  0  0  0  0  0  0  0  0  0
   -7.9030   19.9490  -33.3740 N   0  0  0  0  0  0  0  0  0  0  0  0
  -10.0520   21.0650  -32.3150 O   0  0  0  0  0  0  0  0  0  0  0  0
   -8.6590   19.6890  -30.8530 O   0  0  0  0  0  0  0  0  0  0  0  0
   -7.2510   22.9880  -32.5010 C   0  0  0  0  0  0  0  0  0  0  0  0
   -6.5040   24.1120  -32.1350 C   0  0  0  0  0  0  0  0  0  0  0  0
   -3.3000   22.9900  -30.6920 C   0  0  0  0  0  0  0  0  0  0  0  0
   -3.8740   23.0070  -31.9730 O   0  0  0  0  0  0  0  0  0  0  0  0
   -3.9540   21.8770  -32.8360 C   0  0  0  0  0  0  0  0  0  0  0  0
   -2.6770   21.8400  -30.1670 C   0  0  0  0  0  0  0  0  0  0  0  0
   -2.1210   21.8660  -28.8820 C   0  0  0  0  0  0  0  0  0  0  0  0
   -1.4970   20.7440  -28.3270 C   0  0  0  0  0  0  0  0  0  0  0  0
   -0.9710   20.8140  -27.0770 N   0  0  0  0  0  0  0  0  0  0  0  0
   -0.8998   25.9357  -22.7957 H   0  0  0  0  0  0  0  0  0  0  0  0
    0.0816   27.0485  -23.8081 H   0  0  0  0  0  0  0  0  0  0  0  0
   -1.7099   27.1788  -23.8081 H   0  0  0  0  0  0  0  0  0  0  0  0
   -1.9642   25.1258  -25.0052 H   0  0  0  0  0  0  0  0  0  0  0  0
   -0.6206   26.0035  -25.8303 H   0  0  0  0  0  0  0  0  0  0  0  0
   -2.8320   25.1019  -28.0291 H   0  0  0  0  0  0  0  0  0  0  0  0
   -5.6525   25.8546  -29.3665 H   0  0  0  0  0  0  0  0  0  0  0  0
   -5.6322   26.3849  -31.0931 H   0  0  0  0  0  0  0  0  0  0  0  0
   -6.4719   23.6645  -28.7431 H   0  0  0  0  0  0  0  0  0  0  0  0
   -7.7902   21.6530  -29.3992 H   0  0  0  0  0  0  0  0  0  0  0  0
   -8.2760   20.4460  -34.2140 H   0  0  0  0  0  0  0  0  0  0  0  0
   -8.2540   18.9660  -33.4250 H   0  0  0  0  0  0  0  0  0  0  0  0
   -7.4711   22.7981  -33.5619 H   0  0  0  0  0  0  0  0  0  0  0  0
   -6.1473   24.8077  -32.9088 H   0  0  0  0  0  0  0  0  0  0  0  0
   -4.0190   20.9592  -32.2332 H   0  0  0  0  0  0  0  0  0  0  0  0
   -4.8483   21.9629  -33.4707 H   0  0  0  0  0  0  0  0  0  0  0  0
   -3.0565   21.8361  -33.4707 H   0  0  0  0  0  0  0  0  0  0  0  0
   -2.6274   20.9200  -30.7679 H   0  0  0  0  0  0  0  0  0  0  0  0
   -1.4325   19.8080  -28.9012 H   0  0  0  0  0  0  0  0  0  0  0  0
  1  2  1  0
  2  3  1  0
  3  4  1  0
  4  5  2  0
  4  6  1  0
  6  7  2  3
  7  8  1  0
  8  9  2  0
  9 10  1  0
 10 11  2  0
 11 12  1  0
 12 13  1  0
 13 14  1  0
 14 15  2  0
 15 16  1  0
 16 17  2  0
 17 18  1  0
 18 19  1  0
 18 20  2  0
 18 21  2  0
 17 22  1  0
 22 23  2  0
 11 24  1  0
 24 25  1  0
 25 26  1  0
 24 27  2  0
 27 28  1  0
 28 29  2  0
 29 30  1  0
 30  7  1  0
 28  9  1  0
 23 14  1  0
  1 31  1  0
  1 32  1  0
  1 33  1  0
  2 34  1  0
  2 35  1  0
 10 36  1  0
 13 37  1  0
 13 38  1  0
 15 39  1  0
 16 40  1  0
 19 41  1  0
 19 42  1  0
 22 43  1  0
 23 44  1  0
 26 45  1  0
 26 46  1  0
 26 47  1  0
 27 48  1  0
 29 49  1  0
M  CHG  2   3  -1  30  -1
M  END
>  <UniqueID>  (15) 
14

>  <SMILES>  (15) 
CC[N-]C(=O)N=c1nc2cc(OCc3ccc(S(N)(=O)=O)cc3)c(OC)cc2c[n-]1

>  <Energy>  (15) 
49.82659568657046

>  <Genealogy>  (15) 
CC[N-]C(=O)N=c1nc2cc(OCc3ccc(S(N)(=O)=O)cc3)c(OC)cc2c[n-]1 (protonated)
CC[N-]C(=O)N=c1nc2cc(OCc3ccc(S(N)(=O)=O)cc3)c(OC)cc2c[n-]1 (3D coordinates assigned)
CC[N-]C(=O)N=c1nc2cc(OCc3ccc(S(N)(=O)=O)cc3)c(OC)cc2c[n-]1 (optimized conformer: 49.82659568657046 kcal/mol)

>  <smiles>  (15) 
CCNC(=O)N=c1nc2cc(OCc3ccc(S(N)(=O)=O)cc3)c(OC)cc2c[nH]1

>  <score_type>  (15) 
oracle

>  <origin>  (15) 
adgpu

>  <m_score__min__energy>  (15) 
-9.7699999999999996

>  <m_primary>  (15) 
energy

$$$$
15:0
     RDKit          3D

 38 39  0  0  0  0  0  0  0  0999 V2000
   -5.7110   16.7060  -32.1190 C   0  0  0  0  0  0  0  0  0  0  0  0
   -5.9150   17.6600  -33.2090 N   0  0  0  0  0  0  0  0  0  0  0  0
   -6.1060   17.1740  -34.5750 C   0  0  0  0  0  0  0  0  0  0  0  0
   -5.8930   19.0710  -32.9300 C   0  0  0  0  0  0  0  0  0  0  0  0
   -4.7980   19.8370  -33.3470 C   0  0  0  0  0  0  0  0  0  0  0  0
   -4.7700   21.2060  -33.0820 C   0  0  0  0  0  0  0  0  0  0  0  0
   -5.8010   21.7910  -32.4220 N   0  0  0  0  0  0  0  0  0  0  0  0
   -6.8860   21.0870  -32.0000 C   0  0  0  0  0  0  0  0  0  0  0  0
   -7.9440   21.7780  -31.3120 N   0  0  0  0  0  0  0  0  0  0  0  0
   -9.2330   21.9940  -31.9710 C   0  0  0  0  0  0  0  0  0  0  0  0
   -7.6960   22.3560  -29.9880 C   0  0  0  0  0  0  0  0  0  0  0  0
   -6.4980   23.2670  -30.0230 C   0  0  0  0  0  0  0  0  0  0  0  0
   -5.2790   22.8510  -29.4640 C   0  0  0  0  0  0  0  0  0  0  0  0
   -4.1570   23.6830  -29.5210 C   0  0  0  0  0  0  0  0  0  0  0  0
   -4.2430   24.9340  -30.1400 C   0  0  0  0  0  0  0  0  0  0  0  0
   -5.4510   25.3530  -30.7030 C   0  0  0  0  0  0  0  0  0  0  0  0
   -6.5760   24.5240  -30.6480 C   0  0  0  0  0  0  0  0  0  0  0  0
   -6.9600   19.7010  -32.2550 C   0  0  0  0  0  0  0  0  0  0  0  0
   -8.1440   18.9540  -31.8990 C   0  0  0  0  0  0  0  0  0  0  0  0
   -9.0920   18.3550  -31.6150 N   0  0  0  0  0  0  0  0  0  0  0  0
   -5.8215   17.2226  -31.1541 H   0  0  0  0  0  0  0  0  0  0  0  0
   -6.4574   15.9012  -32.1916 H   0  0  0  0  0  0  0  0  0  0  0  0
   -4.7008   16.2768  -32.1916 H   0  0  0  0  0  0  0  0  0  0  0  0
   -6.5082   16.1506  -34.5472 H   0  0  0  0  0  0  0  0  0  0  0  0
   -6.8126   17.8315  -35.1027 H   0  0  0  0  0  0  0  0  0  0  0  0
   -5.1408   17.1744  -35.1027 H   0  0  0  0  0  0  0  0  0  0  0  0
   -3.9628   19.3610  -33.8817 H   0  0  0  0  0  0  0  0  0  0  0  0
   -3.9117   21.8117  -33.4082 H   0  0  0  0  0  0  0  0  0  0  0  0
  -10.0164   22.1253  -31.2100 H   0  0  0  0  0  0  0  0  0  0  0  0
   -9.1772   22.8953  -32.5991 H   0  0  0  0  0  0  0  0  0  0  0  0
   -9.4741   21.1237  -32.5991 H   0  0  0  0  0  0  0  0  0  0  0  0
   -8.5790   22.9319  -29.6739 H   0  0  0  0  0  0  0  0  0  0  0  0
   -7.5004   21.5405  -29.2762 H   0  0  0  0  0  0  0  0  0  0  0  0
   -5.2065   21.8663  -28.9792 H   0  0  0  0  0  0  0  0  0  0  0  0
   -3.2055   23.3533  -29.0785 H   0  0  0  0  0  0  0  0  0  0  0  0
   -3.3596   25.5880  -30.1836 H   0  0  0  0  0  0  0  0  0  0  0  0
   -5.5174   26.3368  -31.1905 H   0  0  0  0  0  0  0  0  0  0  0  0
   -7.5246   24.8563  -31.0950 H   0  0  0  0  0  0  0  0  0  0  0  0
  1  2  1  0
  2  3  1  0
  2  4  1  0
  4  5  2  0
  5  6  1  0
  6  7  2  0
  7  8  1  0
  8  9  1  0
  9 10  1  0
  9 11  1  0
 11 12  1  0
 12 13  2  0
 13 14  1  0
 14 15  2  0
 15 16  1  0
 16 17  2  0
  8 18  2  0
 18 19  1  0
 19 20  3  0
 18  4  1  0
 17 12  1  0
  1 21  1  0
  1 22  1  0
  1 23  1  0
  3 24  1  0
  3 25  1  0
  3 26  1  0
  5 27  1  0
  6 28  1  0
 10 29  1  0
 10 30  1  0
 10 31  1  0
 11 32  1  0
 11 33  1  0
 13 34  1  0
 14 35  1  0
 15 36  1  0
 16 37  1  0
 17 38  1  0
M  END
>  <UniqueID>  (16) 
15

>  <SMILES>  (16) 
CN(C)c1ccnc(N(C)Cc2ccccc2)c1C#N

>  <Energy>  (16) 
45.700333948309144

>  <Genealogy>  (16) 
CN(C)c1ccnc(N(C)Cc2ccccc2)c1C#N (3D coordinates assigned)
CN(C)c1ccnc(N(C)Cc2ccccc2)c1C#N (optimized conformer: 45.700333948309144 kcal/mol)

>  <smiles>  (16) 
CN(C)c1ccnc(N(C)Cc2ccccc2)c1C#N

>  <score_type>  (16) 
oracle

>  <origin>  (16) 
adgpu

>  <m_score__min__energy>  (16) 
-6.9100000000000001

>  <m_primary>  (16) 
energy

$$$$
16:0
     RDKit          3D

 26 27  0  0  0  0  0  0  0  0999 V2000
   -3.5310   23.5130  -27.4190 O   0  0  0  0  0  0  0  0  0  0  0  0
   -2.9650   24.4620  -28.0290 C   0  0  0  0  0  0  0  0  0  0  0  0
   -3.2830   24.7130  -29.4070 N   0  0  0  0  0  0  0  0  0  0  0  0
   -3.8800   23.7300  -30.2730 C   0  0  0  0  0  0  0  0  0  0  0  0
   -3.1150   22.6570  -30.7680 C   0  0  0  0  0  0  0  0  0  0  0  0
   -3.6860   21.7170  -31.6300 C   0  0  0  0  0  0  0  0  0  0  0  0
   -5.0220   21.8410  -32.0160 C   0  0  0  0  0  0  0  0  0  0  0  0
   -5.7360   20.6610  -33.1000 Cl  0  0  0  0  0  0  0  0  0  0  0  0
   -5.7890   22.9100  -31.5440 C   0  0  0  0  0  0  0  0  0  0  0  0
   -5.2250   23.8570  -30.6790 C   0  0  0  0  0  0  0  0  0  0  0  0
   -6.2400   25.1700  -30.0960 Cl  0  0  0  0  0  0  0  0  0  0  0  0
   -2.0320   25.3460  -27.2920 C   0  0  0  0  0  0  0  0  0  0  0  0
   -1.9330   25.2330  -25.8930 C   0  0  0  0  0  0  0  0  0  0  0  0
   -1.0660   26.0610  -25.1740 C   0  0  0  0  0  0  0  0  0  0  0  0
   -0.2840   27.0040  -25.8410 C   0  0  0  0  0  0  0  0  0  0  0  0
   -0.3590   27.1160  -27.2310 C   0  0  0  0  0  0  0  0  0  0  0  0
   -1.2200   26.2880  -27.9610 C   0  0  0  0  0  0  0  0  0  0  0  0
   -1.2360   26.3930  -29.3470 O   0  0  0  0  0  0  0  0  0  0  0  0
   -3.1480   25.6830  -29.7690 H   0  0  0  0  0  0  0  0  0  0  0  0
   -2.0597   22.5577  -30.4740 H   0  0  0  0  0  0  0  0  0  0  0  0
   -3.0818   20.8778  -32.0051 H   0  0  0  0  0  0  0  0  0  0  0  0
   -6.8401   23.0082  -31.8531 H   0  0  0  0  0  0  0  0  0  0  0  0
   -2.5424   24.4875  -25.3611 H   0  0  0  0  0  0  0  0  0  0  0  0
   -1.0003   25.9687  -24.0799 H   0  0  0  0  0  0  0  0  0  0  0  0
    0.3918   27.6595  -25.2721 H   0  0  0  0  0  0  0  0  0  0  0  0
    0.2613   27.8583  -27.7547 H   0  0  0  0  0  0  0  0  0  0  0  0
  1  2  2  0
  2  3  1  0
  3  4  1  0
  4  5  2  0
  5  6  1  0
  6  7  2  0
  7  8  1  0
  7  9  1  0
  9 10  2  0
 10 11  1  0
  2 12  1  0
 12 13  2  0
 13 14  1  0
 14 15  2  0
 15 16  1  0
 16 17  2  0
 17 18  1  0
 10  4  1  0
 17 12  1  0
  3 19  1  0
  5 20  1  0
  6 21  1  0
  9 22  1  0
 13 23  1  0
 14 24  1  0
 15 25  1  0
 16 26  1  0
M  CHG  1  18  -1
M  END
>  <UniqueID>  (17) 
16

>  <SMILES>  (17) 
O=C(Nc1ccc(Cl)cc1Cl)c1ccccc1[O-]

>  <Energy>  (17) 
35.46458347528915

>  <Genealogy>  (17) 
O=C(Nc1ccc(Cl)cc1Cl)c1ccccc1[O-] (protonated)
O=C(Nc1ccc(Cl)cc1Cl)c1ccccc1[O-] (3D coordinates assigned)
O=C(Nc1ccc(Cl)cc1Cl)c1ccccc1[O-] (optimized conformer: 35.46458347528915 kcal/mol)

>  <smiles>  (17) 
O=C(Nc1ccc(Cl)cc1Cl)c1ccccc1O

>  <score_type>  (17) 
oracle

>  <origin>  (17) 
adgpu

>  <m_score__min__energy>  (17) 
-10.27

>  <m_primary>  (17) 
energy

$$$$
17:0
     RDKit          3D

 36 37  0  0  0  0  0  0  0  0999 V2000
    0.8330   23.3120  -24.4870 C   0  0  0  0  0  0  0  0  0  0  0  0
    0.5610   23.9670  -25.7990 C   0  0  0  0  0  0  0  0  0  0  0  0
   -0.5250   24.7590  -26.1040 C   0  0  0  0  0  0  0  0  0  0  0  0
   -0.2880   25.1300  -27.4120 C   0  0  0  0  0  0  0  0  0  0  0  0
   -1.1240   26.0620  -28.2230 C   0  0  0  0  0  0  0  0  0  0  0  0
   -1.7170   25.3320  -29.3340 N   0  0  0  0  0  0  0  0  0  0  0  0
   -3.0880   24.9240  -29.3540 C   0  0  0  0  0  0  0  0  0  0  0  0
   -3.6430   24.5190  -28.2990 O   0  0  0  0  0  0  0  0  0  0  0  0
   -3.8630   25.0260  -30.5540 N   0  0  0  0  0  0  0  0  0  0  0  0
   -4.9030   24.1280  -30.9680 C   0  0  0  0  0  0  0  0  0  0  0  0
   -4.6210   22.8920  -31.5700 C   0  0  0  0  0  0  0  0  0  0  0  0
   -5.6600   22.0350  -31.9440 C   0  0  0  0  0  0  0  0  0  0  0  0
   -7.0060   22.3840  -31.7100 C   0  0  0  0  0  0  0  0  0  0  0  0
   -8.0860   21.4970  -32.1020 N   0  0  0  0  0  0  0  0  0  0  0  0
   -7.8000   20.2410  -32.8070 C   0  0  0  0  0  0  0  0  0  0  0  0
   -9.4810   21.8400  -31.8000 C   0  0  0  0  0  0  0  0  0  0  0  0
   -7.2730   23.6160  -31.0770 C   0  0  0  0  0  0  0  0  0  0  0  0
   -6.2320   24.4700  -30.7040 C   0  0  0  0  0  0  0  0  0  0  0  0
    0.8810   24.6050  -27.8320 N   0  0  0  0  0  0  0  0  0  0  0  0
    1.3570   23.9110  -26.8400 O   0  0  0  0  0  0  0  0  0  0  0  0
    0.5500   23.9935  -23.6713 H   0  0  0  0  0  0  0  0  0  0  0  0
    0.2453   22.3852  -24.4110 H   0  0  0  0  0  0  0  0  0  0  0  0
    1.9043   23.0741  -24.4110 H   0  0  0  0  0  0  0  0  0  0  0  0
   -1.3750   25.0299  -25.4605 H   0  0  0  0  0  0  0  0  0  0  0  0
   -1.9211   26.4836  -27.5930 H   0  0  0  0  0  0  0  0  0  0  0  0
   -0.4964   26.8779  -28.6108 H   0  0  0  0  0  0  0  0  0  0  0  0
   -3.5767   22.5961  -31.7485 H   0  0  0  0  0  0  0  0  0  0  0  0
   -5.4244   21.0754  -32.4274 H   0  0  0  0  0  0  0  0  0  0  0  0
   -7.6180   19.4419  -32.0733 H   0  0  0  0  0  0  0  0  0  0  0  0
   -8.6596   19.9707  -33.4379 H   0  0  0  0  0  0  0  0  0  0  0  0
   -6.9081   20.3695  -33.4379 H   0  0  0  0  0  0  0  0  0  0  0  0
   -9.6223   21.8747  -30.7097 H   0  0  0  0  0  0  0  0  0  0  0  0
   -9.7186   22.8233  -32.2320 H   0  0  0  0  0  0  0  0  0  0  0  0
  -10.1475   21.0790  -32.2320 H   0  0  0  0  0  0  0  0  0  0  0  0
   -8.3140   23.9081  -30.8745 H   0  0  0  0  0  0  0  0  0  0  0  0
   -6.4605   25.4197  -30.1982 H   0  0  0  0  0  0  0  0  0  0  0  0
  1  2  1  0
  2  3  2  0
  3  4  1  0
  4  5  1  0
  5  6  1  0
  6  7  1  0
  7  8  2  0
  7  9  1  0
  9 10  1  0
 10 11  2  0
 11 12  1  0
 12 13  2  0
 13 14  1  0
 14 15  1  0
 14 16  1  0
 13 17  1  0
 17 18  2  0
  4 19  2  0
 19 20  1  0
 20  2  1  0
 18 10  1  0
  1 21  1  0
  1 22  1  0
  1 23  1  0
  3 24  1  0
  5 25  1  0
  5 26  1  0
 11 27  1  0
 12 28  1  0
 15 29  1  0
 15 30  1  0
 15 31  1  0
 16 32  1  0
 16 33  1  0
 16 34  1  0
 17 35  1  0
 18 36  1  0
M  CHG  2   6  -1   9  -1
M  END
>  <UniqueID>  (18) 
17

>  <SMILES>  (18) 
Cc1cc(C[N-]C(=O)[N-]c2ccc(N(C)C)cc2)no1

>  <Energy>  (18) 
65.65115889786783

>  <Genealogy>  (18) 
Cc1cc(C[N-]C(=O)[N-]c2ccc(N(C)C)cc2)no1 (protonated)
Cc1cc(C[N-]C(=O)[N-]c2ccc(N(C)C)cc2)no1 (3D coordinates assigned)
Cc1cc(C[N-]C(=O)[N-]c2ccc(N(C)C)cc2)no1 (optimized conformer: 65.65115889786783 kcal/mol)

>  <smiles>  (18) 
Cc1cc(CNC(=O)Nc2ccc(N(C)C)cc2)no1

>  <score_type>  (18) 
oracle

>  <origin>  (18) 
adgpu

>  <m_score__min__energy>  (18) 
-10.06

>  <m_primary>  (18) 
energy

$$$$
18:0
     RDKit          3D

 28 29  0  0  0  0  0  0  0  0999 V2000
   -0.2318   25.6334  -28.1900 H   0  0  0  0  0  0  0  0  0  0  0  0
   -1.2540   25.2270  -28.1960 C   0  0  0  0  0  0  0  0  0  0  0  0
   -1.9900   25.2550  -29.3390 N   0  0  0  0  0  0  0  0  0  0  0  0
   -3.2590   24.7650  -29.4000 C   0  0  0  0  0  0  0  0  0  0  0  0
   -3.8930   24.8330  -30.5350 N   0  0  0  0  0  0  0  0  0  0  0  0
   -5.5090   24.2870  -30.8670 S   0  0  0  0  0  0  0  0  0  0  0  0
   -6.4770   25.2960  -30.3200 O   0  0  0  0  0  0  0  0  0  0  0  0
   -5.7190   24.1760  -32.3520 O   0  0  0  0  0  0  0  0  0  0  0  0
   -5.8000   22.7180  -30.0640 C   0  0  0  0  0  0  0  0  0  0  0  0
   -4.8364   22.2197  -29.8819 H   0  0  0  0  0  0  0  0  0  0  0  0
   -6.3194   22.8956  -29.1107 H   0  0  0  0  0  0  0  0  0  0  0  0
   -6.6570   21.8380  -30.9300 C   0  0  0  0  0  0  0  0  0  0  0  0
   -8.0580   21.9160  -30.8530 C   0  0  0  0  0  0  0  0  0  0  0  0
   -8.5300   22.6058  -30.1379 H   0  0  0  0  0  0  0  0  0  0  0  0
   -8.8540   21.1200  -31.6820 C   0  0  0  0  0  0  0  0  0  0  0  0
   -9.9502   21.1787  -31.6123 H   0  0  0  0  0  0  0  0  0  0  0  0
   -8.2580   20.2490  -32.6000 C   0  0  0  0  0  0  0  0  0  0  0  0
   -8.8858   19.6218  -33.2500 H   0  0  0  0  0  0  0  0  0  0  0  0
   -6.8640   20.1750  -32.6920 C   0  0  0  0  0  0  0  0  0  0  0  0
   -6.1190   19.0900  -33.8510 Cl  0  0  0  0  0  0  0  0  0  0  0  0
   -6.0650   20.9700  -31.8620 C   0  0  0  0  0  0  0  0  0  0  0  0
   -4.9692   20.9147  -31.9400 H   0  0  0  0  0  0  0  0  0  0  0  0
   -3.8330   24.2060  -28.2390 C   0  0  0  0  0  0  0  0  0  0  0  0
   -4.8555   23.8014  -28.2650 H   0  0  0  0  0  0  0  0  0  0  0  0
   -3.0910   24.1710  -27.0560 C   0  0  0  0  0  0  0  0  0  0  0  0
   -3.5296   23.7394  -26.1442 H   0  0  0  0  0  0  0  0  0  0  0  0
   -1.7950   24.6830  -27.0310 C   0  0  0  0  0  0  0  0  0  0  0  0
   -1.0660   24.6520  -25.8870 F   0  0  0  0  0  0  0  0  0  0  0  0
  1  2  1  0
  2  3  1  0
  3  4  1  0
  4  5  2  0
  5  6  1  0
  6  7  2  0
  6  8  2  0
  6  9  1  0
  9 10  1  0
  9 11  1  0
  9 12  1  0
 12 13  2  0
 13 14  1  0
 13 15  1  0
 15 16  1  0
 15 17  2  0
 17 18  1  0
 17 19  1  0
 19 20  1  0
 19 21  2  0
 21 22  1  0
  4 23  1  0
 23 24  1  0
 23 25  2  0
 25 26  1  0
 25 27  1  0
 27 28  1  0
 27  2  2  0
 21 12  1  0
M  CHG  1   3  -1
M  END
>  <UniqueID>  (19) 
18

>  <SMILES>  (19) 
O=S(=O)(Cc1cccc(Cl)c1)/N=c1\ccc(F)c[n-]1

>  <Energy>  (19) 
29.95301537499535

>  <Genealogy>  (19) 
O=S(=O)(Cc1cccc(Cl)c1)N=c1ccc(F)c[n-]1 (protonated)
O=S(=O)(Cc1cccc(Cl)c1)/N=c1\ccc(F)c[n-]1 (cis-trans isomerization)
O=S(=O)(Cc1cccc(Cl)c1)/N=c1\ccc(F)c[n-]1 (3D coordinates assigned)
O=S(=O)(Cc1cccc(Cl)c1)/N=c1\ccc(F)c[n-]1 (optimized conformer: 29.95301537499535 kcal/mol)

>  <smiles>  (19) 
O=S(=O)(Cc1cccc(Cl)c1)N=c1ccc(F)c[nH]1

>  <score_type>  (19) 
oracle

>  <origin>  (19) 
adgpu

>  <m_score__min__energy>  (19) 
-9.5600000000000005

>  <m_primary>  (19) 
energy

$$$$
19:0
     RDKit          3D

 49 51  0  0  1  0  0  0  0  0999 V2000
   -6.7660   25.6840  -29.4290 C   0  0  0  0  0  0  0  0  0  0  0  0
   -5.7480   25.6100  -30.2700 C   0  0  0  0  0  0  0  0  0  0  0  0
   -4.7480   24.5780  -30.0530 C   0  0  0  0  0  0  0  0  0  0  0  0
   -4.5150   23.8100  -31.0420 O   0  0  0  0  0  0  0  0  0  0  0  0
   -4.0660   24.4300  -28.8070 N   0  0  0  0  0  0  0  0  0  0  0  0
   -3.1090   23.3750  -28.7340 C   0  0  0  0  0  0  0  0  0  0  0  0
   -3.1080   22.6220  -27.5540 C   0  0  0  0  0  0  0  0  0  0  0  0
   -2.2140   21.5880  -27.4210 C   0  0  0  0  0  0  0  0  0  0  0  0
   -1.3330   21.3040  -28.4450 C   0  0  0  0  0  0  0  0  0  0  0  0
   -1.3090   22.0330  -29.6320 C   0  0  0  0  0  0  0  0  0  0  0  0
   -0.4030   21.7380  -30.6890 N   0  0  0  0  0  0  0  0  0  0  0  0
   -0.8030   21.4450  -31.8560 C   0  0  0  0  0  0  0  0  0  0  0  0
   -2.1380   21.3910  -32.1890 C   0  0  0  0  0  0  0  0  0  0  0  0
   -2.5630   21.0700  -33.4750 C   0  0  0  0  0  0  0  0  0  0  0  0
   -3.9450   21.0560  -33.7160 N   0  0  0  0  0  0  0  0  0  0  0  0
   -4.8610   20.0570  -33.3750 C   0  0  0  0  0  0  0  0  0  0  0  0
   -4.6130   18.7740  -33.8880 C   0  0  0  0  0  0  0  0  0  0  0  0
   -5.4360   17.7090  -33.6150 C   0  0  0  0  0  0  0  0  0  0  0  0
   -6.5650   17.8580  -32.8060 C   0  0  0  0  0  0  0  0  0  0  0  0
   -6.7950   19.1140  -32.3120 C   0  0  0  0  0  0  0  0  0  0  0  0
   -5.9660   20.1890  -32.5880 C   0  0  0  0  0  0  0  0  0  0  0  0
   -6.3150   21.4310  -32.0110 N   0  0  0  0  0  0  0  0  0  0  0  0
   -7.6500   21.8990  -31.9170 C   0  0  0  0  0  0  0  0  0  0  0  0
   -7.9600   23.2160  -31.2990 C   0  0  0  0  0  0  0  0  0  0  0  0
   -8.6140   21.2170  -32.3530 O   0  0  0  0  0  0  0  0  0  0  0  0
   -1.6080   20.8170  -34.3720 N   0  0  0  0  0  0  0  0  0  0  0  0
   -0.2960   20.8600  -34.0820 C   0  0  0  0  0  0  0  0  0  0  0  0
    0.0900   21.1740  -32.8260 N   0  0  0  0  0  0  0  0  0  0  0  0
   -2.2260   23.0850  -29.7520 C   0  0  0  0  0  0  0  0  0  0  0  0
   -7.5388   26.4545  -29.5673 H   0  0  0  0  0  0  0  0  0  0  0  0
   -6.8399   24.9750  -28.5912 H   0  0  0  0  0  0  0  0  0  0  0  0
   -5.6604   26.3118  -31.1125 H   0  0  0  0  0  0  0  0  0  0  0  0
   -4.2800   25.0740  -28.0150 H   0  0  0  0  0  0  0  0  0  0  0  0
   -3.8142   22.8555  -26.7436 H   0  0  0  0  0  0  0  0  0  0  0  0
   -2.2000   20.9870  -26.4998 H   0  0  0  0  0  0  0  0  0  0  0  0
   -0.6244   20.4721  -28.3193 H   0  0  0  0  0  0  0  0  0  0  0  0
   -2.8904   21.6078  -31.4164 H   0  0  0  0  0  0  0  0  0  0  0  0
   -4.3360   21.9070  -34.2180 H   0  0  0  0  0  0  0  0  0  0  0  0
   -3.7325   18.6169  -34.5283 H   0  0  0  0  0  0  0  0  0  0  0  0
   -5.2022   16.7220  -34.0406 H   0  0  0  0  0  0  0  0  0  0  0  0
   -7.2320   17.0134  -32.5785 H   0  0  0  0  0  0  0  0  0  0  0  0
   -7.6735   19.2760  -31.6701 H   0  0  0  0  0  0  0  0  0  0  0  0
   -5.5440   22.0390  -31.6290 H   0  0  0  0  0  0  0  0  0  0  0  0
   -7.9377   23.1212  -30.2033 H   0  0  0  0  0  0  0  0  0  0  0  0
   -7.2115   23.9561  -31.6183 H   0  0  0  0  0  0  0  0  0  0  0  0
   -8.9600   23.5446  -31.6183 H   0  0  0  0  0  0  0  0  0  0  0  0
   -1.9300   20.5740  -35.3440 H   0  0  0  0  0  0  0  0  0  0  0  0
    0.4534   20.6424  -34.8572 H   0  0  0  0  0  0  0  0  0  0  0  0
   -2.2417   23.6883  -30.6717 H   0  0  0  0  0  0  0  0  0  0  0  0
  1  2  2  0
  2  3  1  0
  3  4  2  0
  3  5  1  0
  5  6  1  0
  6  7  2  0
  7  8  1  0
  8  9  2  0
  9 10  1  0
 10 11  1  0
 11 12  2  0
 12 13  1  0
 13 14  2  0
 14 15  1  0
 15 16  1  0
 16 17  2  0
 17 18  1  0
 18 19  2  0
 19 20  1  0
 20 21  2  0
 21 22  1  0
 22 23  1  0
 23 24  1  0
 23 25  2  0
 14 26  1  0
 26 27  1  0
 27 28  2  0
 10 29  2  0
 29  6  1  0
 28 12  1  0
 21 16  1  0
  1 30  1  0
  1 31  1  0
  2 32  1  0
  5 33  1  0
  7 34  1  0
  8 35  1  0
  9 36  1  0
 13 37  1  0
 15 38  1  0
 17 39  1  0
 18 40  1  0
 19 41  1  0
 20 42  1  0
 22 43  1  0
 24 44  1  0
 24 45  1  0
 24 46  1  0
 26 47  1  0
 27 48  1  0
 29 49  1  0
M  END
>  <smiles>  (20) 
C=CC(=O)Nc1cccc(N=c2cc(Nc3ccccc3NC(C)=O)[nH]cn2)c1

>  <score_type>  (20) 
oracle

>  <origin>  (20) 
adgpu

>  <m_score__min__energy>  (20) 
-9.3399999999999999

>  <m_primary>  (20) 
energy

$$$$
20:0
     RDKit          3D

 57 60  0  0  0  0  0  0  0  0999 V2000
   -8.8370   21.4900  -30.9620 C   0  0  0  0  0  0  0  0  0  0  0  0
   -8.0700   20.5010  -31.7890 C   0  0  0  0  0  0  0  0  0  0  0  0
   -8.3750   19.1340  -31.7160 C   0  0  0  0  0  0  0  0  0  0  0  0
   -7.7090   18.2180  -32.5360 C   0  0  0  0  0  0  0  0  0  0  0  0
   -6.7470   18.6620  -33.4580 C   0  0  0  0  0  0  0  0  0  0  0  0
   -6.1180   17.6950  -34.4280 C   0  0  0  0  0  0  0  0  0  0  0  0
   -4.8810   16.6280  -33.5990 S   0  0  0  0  0  0  0  0  0  0  0  0
   -3.6100   17.8860  -33.5470 C   0  0  0  0  0  0  0  0  0  0  0  0
   -2.6930   17.9720  -34.5450 N   0  0  0  0  0  0  0  0  0  0  0  0
   -1.7680   18.9670  -34.5530 C   0  0  0  0  0  0  0  0  0  0  0  0
   -1.7650   19.9330  -33.5450 C   0  0  0  0  0  0  0  0  0  0  0  0
   -0.5170   21.1750  -33.5630 Cl  0  0  0  0  0  0  0  0  0  0  0  0
   -2.7260   19.8310  -32.5200 C   0  0  0  0  0  0  0  0  0  0  0  0
   -2.8460   20.8250  -31.4410 C   0  0  0  0  0  0  0  0  0  0  0  0
   -1.8090   21.4010  -31.0140 O   0  0  0  0  0  0  0  0  0  0  0  0
   -4.1080   21.0560  -30.8020 N   0  0  0  0  0  0  0  0  0  0  0  0
   -4.3860   22.2330  -30.0300 C   0  0  0  0  0  0  0  0  0  0  0  0
   -4.9950   23.3830  -30.4920 C   0  0  0  0  0  0  0  0  0  0  0  0
   -5.5120   23.6220  -31.8710 C   0  0  0  0  0  0  0  0  0  0  0  0
   -5.0090   24.3030  -29.5080 N   0  0  0  0  0  0  0  0  0  0  0  0
   -4.4310   23.7680  -28.4410 N   0  0  0  0  0  0  0  0  0  0  0  0
   -4.2280   24.5080  -27.1950 C   0  0  0  0  0  0  0  0  0  0  0  0
   -2.7880   24.9320  -27.0620 C   0  0  0  0  0  0  0  0  0  0  0  0
   -2.3050   25.4200  -25.8350 C   0  0  0  0  0  0  0  0  0  0  0  0
   -0.9760   25.8340  -25.7130 C   0  0  0  0  0  0  0  0  0  0  0  0
   -0.1150   25.7540  -26.8120 C   0  0  0  0  0  0  0  0  0  0  0  0
    1.5490   26.2880  -26.6620 Cl  0  0  0  0  0  0  0  0  0  0  0  0
   -0.5830   25.2510  -28.0320 C   0  0  0  0  0  0  0  0  0  0  0  0
   -1.9110   24.8380  -28.1560 C   0  0  0  0  0  0  0  0  0  0  0  0
   -4.0080   22.5150  -28.7280 C   0  0  0  0  0  0  0  0  0  0  0  0
   -3.2500   21.6220  -27.7900 C   0  0  0  0  0  0  0  0  0  0  0  0
   -3.6100   18.7990  -32.5430 N   0  0  0  0  0  0  0  0  0  0  0  0
   -6.4410   20.0290  -33.5290 C   0  0  0  0  0  0  0  0  0  0  0  0
   -7.1010   20.9420  -32.7030 C   0  0  0  0  0  0  0  0  0  0  0  0
   -8.6741   21.2799  -29.8946 H   0  0  0  0  0  0  0  0  0  0  0  0
   -8.4899   22.5080  -31.1925 H   0  0  0  0  0  0  0  0  0  0  0  0
   -9.9094   21.4072  -31.1925 H   0  0  0  0  0  0  0  0  0  0  0  0
   -9.1416   18.7809  -31.0105 H   0  0  0  0  0  0  0  0  0  0  0  0
   -7.9394   17.1452  -32.4587 H   0  0  0  0  0  0  0  0  0  0  0  0
   -6.9048   17.0605  -34.8620 H   0  0  0  0  0  0  0  0  0  0  0  0
   -5.6071   18.2734  -35.2118 H   0  0  0  0  0  0  0  0  0  0  0  0
   -1.0184   19.0117  -35.3568 H   0  0  0  0  0  0  0  0  0  0  0  0
   -4.7900   20.2690  -30.7650 H   0  0  0  0  0  0  0  0  0  0  0  0
   -6.5091   24.0830  -31.8140 H   0  0  0  0  0  0  0  0  0  0  0  0
   -4.8271   24.2949  -32.4079 H   0  0  0  0  0  0  0  0  0  0  0  0
   -5.5809   22.6644  -32.4079 H   0  0  0  0  0  0  0  0  0  0  0  0
   -4.8699   25.4013  -27.1958 H   0  0  0  0  0  0  0  0  0  0  0  0
   -4.4868   23.8561  -26.3477 H   0  0  0  0  0  0  0  0  0  0  0  0
   -2.9772   25.4762  -24.9661 H   0  0  0  0  0  0  0  0  0  0  0  0
   -0.6070   26.2228  -24.7524 H   0  0  0  0  0  0  0  0  0  0  0  0
    0.0966   25.1811  -28.8941 H   0  0  0  0  0  0  0  0  0  0  0  0
   -2.2724   24.4372  -29.1145 H   0  0  0  0  0  0  0  0  0  0  0  0
   -3.4843   21.8980  -26.7513 H   0  0  0  0  0  0  0  0  0  0  0  0
   -3.5398   20.5755  -27.9656 H   0  0  0  0  0  0  0  0  0  0  0  0
   -2.1703   21.7379  -27.9656 H   0  0  0  0  0  0  0  0  0  0  0  0
   -5.6783   20.3835  -34.2379 H   0  0  0  0  0  0  0  0  0  0  0  0
   -6.8596   22.0131  -32.7695 H   0  0  0  0  0  0  0  0  0  0  0  0
  1  2  1  0
  2  3  2  0
  3  4  1  0
  4  5  2  0
  5  6  1  0
  6  7  1  0
  7  8  1  0
  8  9  2  0
  9 10  1  0
 10 11  2  0
 11 12  1  0
 11 13  1  0
 13 14  1  0
 14 15  2  0
 14 16  1  0
 16 17  1  0
 17 18  1  0
 18 19  1  0
 18 20  2  0
 20 21  1  0
 21 22  1  0
 22 23  1  0
 23 24  2  0
 24 25  1  0
 25 26  2  0
 26 27  1  0
 26 28  1  0
 28 29  2  0
 21 30  1  0
 30 31  1  0
 13 32  2  0
  5 33  1  0
 33 34  2  0
 34  2  1  0
 32  8  1  0
 30 17  2  0
 29 23  1  0
  1 35  1  0
  1 36  1  0
  1 37  1  0
  3 38  1  0
  4 39  1  0
  6 40  1  0
  6 41  1  0
 10 42  1  0
 16 43  1  0
 19 44  1  0
 19 45  1  0
 19 46  1  0
 22 47  1  0
 22 48  1  0
 24 49  1  0
 25 50  1  0
 28 51  1  0
 29 52  1  0
 31 53  1  0
 31 54  1  0
 31 55  1  0
 33 56  1  0
 34 57  1  0
M  END
>  <UniqueID>  (21) 
19

>  <SMILES>  (21) 
Cc1ccc(CSc2ncc(Cl)c(C(=O)Nc3c(C)nn(Cc4ccc(Cl)cc4)c3C)n2)cc1

>  <Energy>  (21) 
90.77153242041774

>  <Genealogy>  (21) 
Cc1ccc(CSc2ncc(Cl)c(C(=O)Nc3c(C)nn(Cc4ccc(Cl)cc4)c3C)n2)cc1 (3D coordinates assigned)
Cc1ccc(CSc2ncc(Cl)c(C(=O)Nc3c(C)nn(Cc4ccc(Cl)cc4)c3C)n2)cc1 (optimized conformer: 90.77153242041774 kcal/mol)

>  <smiles>  (21) 
Cc1ccc(CSc2ncc(Cl)c(C(=O)Nc3c(C)nn(Cc4ccc(Cl)cc4)c3C)n2)cc1

>  <score_type>  (21) 
oracle

>  <origin>  (21) 
adgpu

>  <m_score__min__energy>  (21) 
-10.52

>  <m_primary>  (21) 
energy

$$$$
21:0
     RDKit          3D

 40 43  0  0  0  0  0  0  0  0999 V2000
   -9.1190   19.5140  -31.9930 C   0  0  0  0  0  0  0  0  0  0  0  0
   -8.2230   20.7140  -31.9430 C   0  0  0  0  0  0  0  0  0  0  0  0
   -8.7690   22.0070  -31.9420 C   0  0  0  0  0  0  0  0  0  0  0  0
   -7.9300   23.1240  -31.9530 C   0  0  0  0  0  0  0  0  0  0  0  0
   -6.5430   22.9610  -31.9860 C   0  0  0  0  0  0  0  0  0  0  0  0
   -5.9820   21.6740  -32.0130 C   0  0  0  0  0  0  0  0  0  0  0  0
   -4.5100   21.4980  -32.1100 C   0  0  0  0  0  0  0  0  0  0  0  0
   -3.6210   22.2270  -31.2820 C   0  0  0  0  0  0  0  0  0  0  0  0
   -4.0930   23.1000  -30.2480 N   0  0  0  0  0  0  0  0  0  0  0  0
   -3.6380   24.4440  -30.0540 C   0  0  0  0  0  0  0  0  0  0  0  0
   -4.0030   25.3600  -30.8390 O   0  0  0  0  0  0  0  0  0  0  0  0
   -2.7380   24.7470  -28.9370 C   0  0  0  0  0  0  0  0  0  0  0  0
   -2.7460   24.1360  -27.6980 C   0  0  0  0  0  0  0  0  0  0  0  0
   -1.7500   24.7560  -26.9740 C   0  0  0  0  0  0  0  0  0  0  0  0
   -1.1980   25.7030  -27.8140 C   0  0  0  0  0  0  0  0  0  0  0  0
   -1.8080   25.6730  -28.9760 O   0  0  0  0  0  0  0  0  0  0  0  0
   -2.3080   22.1270  -31.4620 O   0  0  0  0  0  0  0  0  0  0  0  0
   -1.7570   21.3340  -32.3730 C   0  0  0  0  0  0  0  0  0  0  0  0
   -0.3640   21.2790  -32.4890 C   0  0  0  0  0  0  0  0  0  0  0  0
    0.2300   20.4440  -33.4400 C   0  0  0  0  0  0  0  0  0  0  0  0
   -0.5660   19.6610  -34.2810 C   0  0  0  0  0  0  0  0  0  0  0  0
    0.2530   18.5250  -35.5790 Br  0  0  0  0  0  0  0  0  0  0  0  0
   -1.9600   19.7110  -34.1760 C   0  0  0  0  0  0  0  0  0  0  0  0
   -2.5670   20.5480  -33.2190 C   0  0  0  0  0  0  0  0  0  0  0  0
   -3.9620   20.6430  -33.0860 C   0  0  0  0  0  0  0  0  0  0  0  0
   -4.7190   19.9840  -33.8510 O   0  0  0  0  0  0  0  0  0  0  0  0
   -6.8300   20.5530  -31.9820 C   0  0  0  0  0  0  0  0  0  0  0  0
   -9.3590   19.1926  -30.9687 H   0  0  0  0  0  0  0  0  0  0  0  0
  -10.0476   19.7716  -32.5235 H   0  0  0  0  0  0  0  0  0  0  0  0
   -8.6082   18.6969  -32.5235 H   0  0  0  0  0  0  0  0  0  0  0  0
   -9.8607   22.1413  -31.9325 H   0  0  0  0  0  0  0  0  0  0  0  0
   -8.3629   24.1351  -31.9356 H   0  0  0  0  0  0  0  0  0  0  0  0
   -5.8876   23.8444  -31.9909 H   0  0  0  0  0  0  0  0  0  0  0  0
   -3.4080   23.3251  -27.3601 H   0  0  0  0  0  0  0  0  0  0  0  0
   -1.4546   24.5400  -25.9367 H   0  0  0  0  0  0  0  0  0  0  0  0
   -0.3723   26.3799  -27.5495 H   0  0  0  0  0  0  0  0  0  0  0  0
    0.2659   21.8946  -31.8300 H   0  0  0  0  0  0  0  0  0  0  0  0
    1.3258   20.4031  -33.5266 H   0  0  0  0  0  0  0  0  0  0  0  0
   -2.5832   19.0958  -34.8417 H   0  0  0  0  0  0  0  0  0  0  0  0
   -6.3977   19.5415  -31.9884 H   0  0  0  0  0  0  0  0  0  0  0  0
  1  2  1  0
  2  3  2  0
  3  4  1  0
  4  5  2  0
  5  6  1  0
  6  7  1  0
  7  8  2  0
  8  9  1  0
  9 10  1  0
 10 11  2  0
 10 12  1  0
 12 13  2  0
 13 14  1  0
 14 15  2  0
 15 16  1  0
  8 17  1  0
 17 18  1  0
 18 19  2  0
 19 20  1  0
 20 21  2  0
 21 22  1  0
 21 23  1  0
 23 24  2  0
 24 25  1  0
 25 26  2  0
  6 27  2  0
 27  2  1  0
 25  7  1  0
 16 12  1  0
 24 18  1  0
  1 28  1  0
  1 29  1  0
  1 30  1  0
  3 31  1  0
  4 32  1  0
  5 33  1  0
 13 34  1  0
 14 35  1  0
 15 36  1  0
 19 37  1  0
 20 38  1  0
 23 39  1  0
 27 40  1  0
M  CHG  1   9  -1
M  END
>  <UniqueID>  (22) 
20

>  <SMILES>  (22) 
Cc1cccc(-c2c([N-]C(=O)c3ccco3)oc3ccc(Br)cc3c2=O)c1

>  <Energy>  (22) 
86.29854764015168

>  <Genealogy>  (22) 
Cc1cccc(-c2c([N-]C(=O)c3ccco3)oc3ccc(Br)cc3c2=O)c1 (protonated)
Cc1cccc(-c2c([N-]C(=O)c3ccco3)oc3ccc(Br)cc3c2=O)c1 (3D coordinates assigned)
Cc1cccc(-c2c([N-]C(=O)c3ccco3)oc3ccc(Br)cc3c2=O)c1 (optimized conformer: 86.29854764015168 kcal/mol)

>  <smiles>  (22) 
Cc1cccc(-c2c(NC(=O)c3ccco3)oc3ccc(Br)cc3c2=O)c1

>  <score_type>  (22) 
oracle

>  <origin>  (22) 
adgpu

>  <m_score__min__energy>  (22) 
-10.869999999999999

>  <m_primary>  (22) 
energy

$$$$
22:0
     RDKit          3D

 52 54  0  0  0  0  0  0  0  0999 V2000
    1.4680   28.3530  -22.9990 C   0  0  0  0  0  0  0  0  0  0  0  0
    1.0650   26.9930  -23.3890 N   0  0  0  0  0  0  0  0  0  0  0  0
    2.1070   26.3640  -24.2130 C   0  0  0  0  0  0  0  0  0  0  0  0
   -0.4380   27.0440  -24.2760 S   0  0  0  0  0  0  0  0  0  0  0  0
   -1.5960   27.1490  -23.3200 O   0  0  0  0  0  0  0  0  0  0  0  0
   -0.4610   28.2460  -25.1790 O   0  0  0  0  0  0  0  0  0  0  0  0
   -0.6160   25.5910  -25.2570 C   0  0  0  0  0  0  0  0  0  0  0  0
   -0.4840   24.3240  -24.6730 C   0  0  0  0  0  0  0  0  0  0  0  0
   -0.6400   23.1750  -25.4490 C   0  0  0  0  0  0  0  0  0  0  0  0
   -0.9080   23.2800  -26.8150 C   0  0  0  0  0  0  0  0  0  0  0  0
   -1.0250   24.5430  -27.4230 C   0  0  0  0  0  0  0  0  0  0  0  0
   -1.3080   24.6550  -28.8740 C   0  0  0  0  0  0  0  0  0  0  0  0
   -0.4840   24.2020  -29.7150 O   0  0  0  0  0  0  0  0  0  0  0  0
   -2.5420   25.2320  -29.3190 N   0  0  0  0  0  0  0  0  0  0  0  0
   -3.6040   24.5500  -30.0010 C   0  0  0  0  0  0  0  0  0  0  0  0
   -4.8910   25.1010  -30.1100 C   0  0  0  0  0  0  0  0  0  0  0  0
   -5.9170   24.3770  -30.7230 C   0  0  0  0  0  0  0  0  0  0  0  0
   -5.6780   23.0880  -31.2310 C   0  0  0  0  0  0  0  0  0  0  0  0
   -6.7440   22.3330  -31.8460 N   0  0  0  0  0  0  0  0  0  0  0  0
   -6.4920   20.9610  -32.3130 C   0  0  0  0  0  0  0  0  0  0  0  0
   -7.7810   20.2850  -32.8040 C   0  0  0  0  0  0  0  0  0  0  0  0
   -8.9170   20.4520  -31.7830 C   0  0  0  0  0  0  0  0  0  0  0  0
   -9.0940   21.9090  -31.2850 C   0  0  0  0  0  0  0  0  0  0  0  0
   -8.1030   22.8850  -31.9290 C   0  0  0  0  0  0  0  0  0  0  0  0
   -4.3870   22.5460  -31.1280 C   0  0  0  0  0  0  0  0  0  0  0  0
   -3.3640   23.2660  -30.5050 C   0  0  0  0  0  0  0  0  0  0  0  0
   -0.8770   25.6980  -26.6310 C   0  0  0  0  0  0  0  0  0  0  0  0
    1.4903   28.4284  -21.9018 H   0  0  0  0  0  0  0  0  0  0  0  0
    2.4686   28.5686  -23.4018 H   0  0  0  0  0  0  0  0  0  0  0  0
    0.7464   29.0790  -23.4018 H   0  0  0  0  0  0  0  0  0  0  0  0
    0.9210   26.4220  -22.5240 H   0  0  0  0  0  0  0  0  0  0  0  0
    2.8647   25.9066  -23.5598 H   0  0  0  0  0  0  0  0  0  0  0  0
    1.6539   25.5884  -24.8480 H   0  0  0  0  0  0  0  0  0  0  0  0
    2.5822   27.1262  -24.8480 H   0  0  0  0  0  0  0  0  0  0  0  0
   -0.2569   24.2351  -23.6004 H   0  0  0  0  0  0  0  0  0  0  0  0
   -0.5515   22.1827  -24.9827 H   0  0  0  0  0  0  0  0  0  0  0  0
   -1.0285   22.3691  -27.4198 H   0  0  0  0  0  0  0  0  0  0  0  0
   -5.0923   26.1063  -29.7114 H   0  0  0  0  0  0  0  0  0  0  0  0
   -6.9204   24.8194  -30.8088 H   0  0  0  0  0  0  0  0  0  0  0  0
   -5.7681   20.9929  -33.1406 H   0  0  0  0  0  0  0  0  0  0  0  0
   -6.0976   20.3771  -31.4683 H   0  0  0  0  0  0  0  0  0  0  0  0
   -8.0851   20.7413  -33.7576 H   0  0  0  0  0  0  0  0  0  0  0  0
   -7.5840   19.2107  -32.9347 H   0  0  0  0  0  0  0  0  0  0  0  0
   -9.8574   20.1284  -32.2530 H   0  0  0  0  0  0  0  0  0  0  0  0
   -8.6556   19.8409  -30.9065 H   0  0  0  0  0  0  0  0  0  0  0  0
  -10.1161   22.2392  -31.5224 H   0  0  0  0  0  0  0  0  0  0  0  0
   -8.9034   21.9126  -30.2016 H   0  0  0  0  0  0  0  0  0  0  0  0
   -8.3725   23.0373  -32.9845 H   0  0  0  0  0  0  0  0  0  0  0  0
   -8.1398   23.8473  -31.3973 H   0  0  0  0  0  0  0  0  0  0  0  0
   -4.1793   21.5477  -31.5405 H   0  0  0  0  0  0  0  0  0  0  0  0
   -2.3627   22.8206  -30.4099 H   0  0  0  0  0  0  0  0  0  0  0  0
   -0.9668   26.6920  -27.0936 H   0  0  0  0  0  0  0  0  0  0  0  0
  1  2  1  0
  2  3  1  0
  2  4  1  0
  4  5  2  0
  4  6  2  0
  4  7  1  0
  7  8  2  0
  8  9  1  0
  9 10  2  0
 10 11  1  0
 11 12  1  0
 12 13  2  0
 12 14  1  0
 14 15  1  0
 15 16  2  0
 16 17  1  0
 17 18  2  0
 18 19  1  0
 19 20  1  0
 20 21  1  0
 21 22  1  0
 22 23  1  0
 23 24  1  0
 18 25  1  0
 25 26  2  0
 11 27  2  0
 27  7  1  0
 26 15  1  0
 24 19  1  0
  1 28  1  0
  1 29  1  0
  1 30  1  0
  2 31  1  0
  3 32  1  0
  3 33  1  0
  3 34  1  0
  8 35  1  0
  9 36  1  0
 10 37  1  0
 16 38  1  0
 17 39  1  0
 20 40  1  0
 20 41  1  0
 21 42  1  0
 21 43  1  0
 22 44  1  0
 22 45  1  0
 23 46  1  0
 23 47  1  0
 24 48  1  0
 24 49  1  0
 25 50  1  0
 26 51  1  0
 27 52  1  0
M  CHG  2   2   1  14  -1
M  END
>  <UniqueID>  (23) 
21

>  <SMILES>  (23) 
C[NH+](C)S(=O)(=O)c1cccc(C(=O)[N-]c2ccc(N3CCCCC3)cc2)c1

>  <Energy>  (23) 
60.229194167932015

>  <Genealogy>  (23) 
C[NH+](C)S(=O)(=O)c1cccc(C(=O)[N-]c2ccc(N3CCCCC3)cc2)c1 (protonated)
C[NH+](C)S(=O)(=O)c1cccc(C(=O)[N-]c2ccc(N3CCCCC3)cc2)c1 (3D coordinates assigned)
C[NH+](C)S(=O)(=O)c1cccc(C(=O)[N-]c2ccc(N3CCCCC3)cc2)c1 (nonaromatic ring conformer: 60.229194167932015 kcal/mol)

>  <smiles>  (23) 
CN(C)S(=O)(=O)c1cccc(C(=O)Nc2ccc(N3CCCCC3)cc2)c1

>  <score_type>  (23) 
oracle

>  <origin>  (23) 
adgpu

>  <m_score__min__energy>  (23) 
-11.67

>  <m_primary>  (23) 
energy

$$$$
23:0
     RDKit          3D

 43 46  0  0  0  0  0  0  0  0999 V2000
   -2.6300   20.1770  -31.6560 O   0  0  0  0  0  0  0  0  0  0  0  0
   -3.1220   21.3780  -32.4170 S   0  0  0  0  0  0  0  0  0  0  0  0
   -2.0020   21.9210  -33.2580 O   0  0  0  0  0  0  0  0  0  0  0  0
   -4.4540   20.9260  -33.4290 N   0  0  0  0  0  0  0  0  0  0  0  0
   -4.9860   19.5900  -33.4600 C   0  0  0  0  0  0  0  0  0  0  0  0
   -4.1710   18.5730  -33.3930 N   0  0  0  0  0  0  0  0  0  0  0  0
   -4.5890   17.2110  -33.5520 C   0  0  0  0  0  0  0  0  0  0  0  0
   -3.6260   16.1940  -33.6500 C   0  0  0  0  0  0  0  0  0  0  0  0
   -4.0180   14.8660  -33.8370 C   0  0  0  0  0  0  0  0  0  0  0  0
   -5.3720   14.5450  -33.9260 C   0  0  0  0  0  0  0  0  0  0  0  0
   -6.3370   15.5490  -33.8220 C   0  0  0  0  0  0  0  0  0  0  0  0
   -5.9520   16.8890  -33.6350 C   0  0  0  0  0  0  0  0  0  0  0  0
   -6.9990   17.9580  -33.4660 C   0  0  1  0  0  0  0  0  0  0  0  0
   -7.6520   17.8600  -32.0740 C   0  0  0  0  0  0  0  0  0  0  0  0
   -8.8050   18.8210  -32.0260 C   0  0  0  0  0  0  0  0  0  0  0  0
   -8.6550   20.0490  -32.5350 C   0  0  0  0  0  0  0  0  0  0  0  0
   -7.3010   20.5100  -33.0090 C   0  0  0  0  0  0  0  0  0  0  0  0
   -6.4720   19.4070  -33.7520 C   0  0  1  0  0  0  0  0  0  0  0  0
   -3.6630   22.6080  -31.2800 C   0  0  0  0  0  0  0  0  0  0  0  0
   -4.9630   23.1240  -31.3760 C   0  0  0  0  0  0  0  0  0  0  0  0
   -5.4050   24.0870  -30.4630 C   0  0  0  0  0  0  0  0  0  0  0  0
   -4.5520   24.5370  -29.4510 C   0  0  0  0  0  0  0  0  0  0  0  0
   -3.2580   24.0210  -29.3470 C   0  0  0  0  0  0  0  0  0  0  0  0
   -2.8130   23.0550  -30.2560 C   0  0  0  0  0  0  0  0  0  0  0  0
   -4.9690   21.6920  -33.9160 H   0  0  0  0  0  0  0  0  0  0  0  0
   -3.1460   18.7490  -33.2800 H   0  0  0  0  0  0  0  0  0  0  0  0
   -2.5571   16.4441  -33.5792 H   0  0  0  0  0  0  0  0  0  0  0  0
   -3.2586   14.0739  -33.9140 H   0  0  0  0  0  0  0  0  0  0  0  0
   -5.6802   13.5001  -34.0782 H   0  0  0  0  0  0  0  0  0  0  0  0
   -7.4043   15.2906  -33.8867 H   0  0  0  0  0  0  0  0  0  0  0  0
   -7.7643   17.7684  -34.2330 H   0  0  0  0  0  0  0  0  0  0  0  0
   -8.0144   16.8354  -31.9043 H   0  0  0  0  0  0  0  0  0  0  0  0
   -6.9186   18.1083  -31.2927 H   0  0  0  0  0  0  0  0  0  0  0  0
   -9.7626   18.5184  -31.5771 H   0  0  0  0  0  0  0  0  0  0  0  0
   -9.5212   20.7231  -32.6076 H   0  0  0  0  0  0  0  0  0  0  0  0
   -7.4458   21.3555  -33.6976 H   0  0  0  0  0  0  0  0  0  0  0  0
   -6.7282   20.7856  -32.1112 H   0  0  0  0  0  0  0  0  0  0  0  0
   -6.6114   19.5351  -34.8356 H   0  0  0  0  0  0  0  0  0  0  0  0
   -5.6366   22.7709  -32.1707 H   0  0  0  0  0  0  0  0  0  0  0  0
   -6.4252   24.4908  -30.5414 H   0  0  0  0  0  0  0  0  0  0  0  0
   -4.8998   25.2976  -28.7364 H   0  0  0  0  0  0  0  0  0  0  0  0
   -2.5881   24.3746  -28.5494 H   0  0  0  0  0  0  0  0  0  0  0  0
   -1.7959   22.6453  -30.1682 H   0  0  0  0  0  0  0  0  0  0  0  0
  1  2  2  0
  2  3  2  0
  2  4  1  0
  4  5  1  0
  5  6  2  0
  6  7  1  0
  7  8  2  0
  8  9  1  0
  9 10  2  0
 10 11  1  0
 11 12  2  0
 12 13  1  0
 13 14  1  0
 14 15  1  0
 15 16  2  0
 16 17  1  0
 17 18  1  0
  2 19  1  0
 19 20  2  0
 20 21  1  0
 21 22  2  0
 22 23  1  0
 23 24  2  0
 18  5  1  0
 24 19  1  0
 12  7  1  0
 18 13  1  0
  4 25  1  0
  6 26  1  0
  8 27  1  0
  9 28  1  0
 10 29  1  0
 11 30  1  0
 13 31  1  6
 14 32  1  0
 14 33  1  0
 15 34  1  0
 16 35  1  0
 17 36  1  0
 17 37  1  0
 18 38  1  6
 20 39  1  0
 21 40  1  0
 22 41  1  0
 23 42  1  0
 24 43  1  0
M  CHG  1   6   1
M  END
>  <UniqueID>  (24) 
22

>  <SMILES>  (24) 
O=S(=O)(NC1=[NH+]c2ccccc2[C@H]2CC=CC[C@@H]12)c1ccccc1

>  <Energy>  (24) 
59.26852821311628

>  <Genealogy>  (24) 
O=S(=O)(NC1=[NH+]c2ccccc2C2CC=CCC12)c1ccccc1 (protonated)
O=S(=O)(NC1=[NH+]c2ccccc2[C@H]2CC=CC[C@@H]12)c1ccccc1 (chirality)
O=S(=O)(NC1=[NH+]c2ccccc2[C@H]2CC=CC[C@@H]12)c1ccccc1 (3D coordinates assigned)
O=S(=O)(NC1=[NH+]c2ccccc2[C@H]2CC=CC[C@@H]12)c1ccccc1 (nonaromatic ring conformer: 59.26852821311628 kcal/mol)

>  <smiles>  (24) 
O=S(=O)(NC1=Nc2ccccc2C2CC=CCC12)c1ccccc1

>  <score_type>  (24) 
oracle

>  <origin>  (24) 
adgpu

>  <m_score__min__energy>  (24) 
-8.6699999999999999

>  <m_primary>  (24) 
energy

$$$$
24:0
     RDKit          3D

 47 49  0  0  0  0  0  0  0  0999 V2000
   -1.5590   17.3550  -33.1350 C   0  0  0  0  0  0  0  0  0  0  0  0
   -1.4940   18.8210  -32.8060 C   0  0  0  0  0  0  0  0  0  0  0  0
   -0.5150   19.2980  -31.9170 C   0  0  0  0  0  0  0  0  0  0  0  0
   -0.4440   20.6580  -31.6110 C   0  0  0  0  0  0  0  0  0  0  0  0
   -1.3460   21.5520  -32.1880 C   0  0  0  0  0  0  0  0  0  0  0  0
   -2.3200   21.0920  -33.0780 C   0  0  0  0  0  0  0  0  0  0  0  0
   -2.4010   19.7210  -33.4000 C   0  0  0  0  0  0  0  0  0  0  0  0
   -3.3640   19.2190  -34.2960 O   0  0  0  0  0  0  0  0  0  0  0  0
   -4.5680   18.5440  -33.9290 C   0  0  0  0  0  0  0  0  0  0  0  0
   -5.4680   19.4560  -33.1480 C   0  0  0  0  0  0  0  0  0  0  0  0
   -6.3660   18.9550  -32.4190 O   0  0  0  0  0  0  0  0  0  0  0  0
   -5.3180   20.8810  -33.2510 N   0  0  0  0  0  0  0  0  0  0  0  0
   -6.0730   21.8270  -32.4750 C   0  0  0  0  0  0  0  0  0  0  0  0
   -7.4650   21.7060  -32.3220 C   0  0  0  0  0  0  0  0  0  0  0  0
   -8.1710   22.6250  -31.5400 C   0  0  0  0  0  0  0  0  0  0  0  0
   -7.4940   23.6620  -30.8950 C   0  0  0  0  0  0  0  0  0  0  0  0
   -6.1040   23.7820  -31.0210 C   0  0  0  0  0  0  0  0  0  0  0  0
   -5.2630   25.0750  -30.1720 S   0  0  0  0  0  0  0  0  0  0  0  0
   -5.5520   24.9570  -28.7030 O   0  0  0  0  0  0  0  0  0  0  0  0
   -5.7230   26.4250  -30.6490 O   0  0  0  0  0  0  0  0  0  0  0  0
   -3.5550   24.9280  -30.4300 N   0  0  0  0  0  0  0  0  0  0  0  0
   -2.6680   24.1170  -29.6450 C   0  0  0  0  0  0  0  0  0  0  0  0
   -2.9170   22.7500  -29.4130 C   0  0  0  0  0  0  0  0  0  0  0  0
   -2.0340   21.9930  -28.6380 C   0  0  0  0  0  0  0  0  0  0  0  0
   -0.8960   22.5890  -28.0890 C   0  0  0  0  0  0  0  0  0  0  0  0
   -0.6350   23.9420  -28.3210 C   0  0  0  0  0  0  0  0  0  0  0  0
   -1.5180   24.7070  -29.0940 C   0  0  0  0  0  0  0  0  0  0  0  0
   -1.2510   26.0550  -29.3080 O   0  0  0  0  0  0  0  0  0  0  0  0
   -5.3970   22.8610  -31.8070 C   0  0  0  0  0  0  0  0  0  0  0  0
   -1.5849   16.7709  -32.2032 H   0  0  0  0  0  0  0  0  0  0  0  0
   -2.4671   17.1507  -33.7212 H   0  0  0  0  0  0  0  0  0  0  0  0
   -0.6726   17.0711  -33.7212 H   0  0  0  0  0  0  0  0  0  0  0  0
    0.1984   18.5962  -31.4604 H   0  0  0  0  0  0  0  0  0  0  0  0
    0.3239   21.0251  -30.9142 H   0  0  0  0  0  0  0  0  0  0  0  0
   -1.2903   22.6226  -31.9416 H   0  0  0  0  0  0  0  0  0  0  0  0
   -3.0274   21.8028  -33.5300 H   0  0  0  0  0  0  0  0  0  0  0  0
   -5.0896   18.2144  -34.8397 H   0  0  0  0  0  0  0  0  0  0  0  0
   -4.3115   17.6771  -33.3023 H   0  0  0  0  0  0  0  0  0  0  0  0
   -4.7000   21.2560  -34.0070 H   0  0  0  0  0  0  0  0  0  0  0  0
   -8.0012   20.8846  -32.8197 H   0  0  0  0  0  0  0  0  0  0  0  0
   -9.2617   22.5310  -31.4326 H   0  0  0  0  0  0  0  0  0  0  0  0
   -8.0539   24.3870  -30.2860 H   0  0  0  0  0  0  0  0  0  0  0  0
   -3.8111   22.2759  -29.8441 H   0  0  0  0  0  0  0  0  0  0  0  0
   -2.2354   20.9263  -28.4601 H   0  0  0  0  0  0  0  0  0  0  0  0
   -0.2054   21.9932  -27.4741 H   0  0  0  0  0  0  0  0  0  0  0  0
    0.2662   24.4076  -27.8955 H   0  0  0  0  0  0  0  0  0  0  0  0
   -4.3046   22.9490  -31.9011 H   0  0  0  0  0  0  0  0  0  0  0  0
  1  2  1  0
  2  3  2  0
  3  4  1  0
  4  5  2  0
  5  6  1  0
  6  7  2  0
  7  8  1  0
  8  9  1  0
  9 10  1  0
 10 11  2  0
 10 12  1  0
 12 13  1  0
 13 14  2  0
 14 15  1  0
 15 16  2  0
 16 17  1  0
 17 18  1  0
 18 19  2  0
 18 20  2  0
 18 21  1  0
 21 22  1  0
 22 23  2  0
 23 24  1  0
 24 25  2  0
 25 26  1  0
 26 27  2  0
 27 28  1  0
 17 29  2  0
  7  2  1  0
 29 13  1  0
 27 22  1  0
  1 30  1  0
  1 31  1  0
  1 32  1  0
  3 33  1  0
  4 34  1  0
  5 35  1  0
  6 36  1  0
  9 37  1  0
  9 38  1  0
 12 39  1  0
 14 40  1  0
 15 41  1  0
 16 42  1  0
 23 43  1  0
 24 44  1  0
 25 45  1  0
 26 46  1  0
 29 47  1  0
M  CHG  2  21  -1  28  -1
M  END
>  <UniqueID>  (25) 
23

>  <SMILES>  (25) 
Cc1ccccc1OCC(=O)Nc1cccc(S(=O)(=O)[N-]c2ccccc2[O-])c1

>  <Energy>  (25) 
55.40238194793942

>  <Genealogy>  (25) 
Cc1ccccc1OCC(=O)Nc1cccc(S(=O)(=O)[N-]c2ccccc2[O-])c1 (protonated)
Cc1ccccc1OCC(=O)Nc1cccc(S(=O)(=O)[N-]c2ccccc2[O-])c1 (3D coordinates assigned)
Cc1ccccc1OCC(=O)Nc1cccc(S(=O)(=O)[N-]c2ccccc2[O-])c1 (optimized conformer: 55.40238194793942 kcal/mol)

>  <smiles>  (25) 
Cc1ccccc1OCC(=O)Nc1cccc(S(=O)(=O)Nc2ccccc2O)c1

>  <score_type>  (25) 
oracle

>  <origin>  (25) 
adgpu

>  <m_score__min__energy>  (25) 
-13.539999999999999

>  <m_primary>  (25) 
energy

$$$$
25:0
     RDKit          3D

 36 38  0  0  0  0  0  0  0  0999 V2000
   -5.3710   26.2980  -30.3470 O   0  0  0  0  0  0  0  0  0  0  0  0
   -4.8970   25.1810  -30.6880 C   0  0  0  0  0  0  0  0  0  0  0  0
   -3.4980   24.9200  -30.5110 N   0  0  0  0  0  0  0  0  0  0  0  0
   -2.8770   24.2980  -29.3760 C   0  0  0  0  0  0  0  0  0  0  0  0
   -3.3970   23.1260  -28.7940 C   0  0  0  0  0  0  0  0  0  0  0  0
   -2.7800   22.5620  -27.6730 C   0  0  0  0  0  0  0  0  0  0  0  0
   -1.6490   23.1650  -27.1180 C   0  0  0  0  0  0  0  0  0  0  0  0
   -1.1400   24.3410  -27.6750 C   0  0  0  0  0  0  0  0  0  0  0  0
   -1.7550   24.9100  -28.7960 C   0  0  0  0  0  0  0  0  0  0  0  0
   -1.2430   26.0850  -29.3350 O   0  0  0  0  0  0  0  0  0  0  0  0
   -5.8060   24.1250  -31.2110 C   0  0  0  0  0  0  0  0  0  0  0  0
   -7.1980   24.2750  -31.0610 C   0  0  0  0  0  0  0  0  0  0  0  0
   -8.0800   23.3030  -31.5370 C   0  0  0  0  0  0  0  0  0  0  0  0
   -7.5900   22.1530  -32.1750 C   0  0  0  0  0  0  0  0  0  0  0  0
   -8.4590   21.1260  -32.6720 N   0  0  0  0  0  0  0  0  0  0  0  0
   -8.5400   19.5030  -32.0650 S   0  0  0  0  0  0  0  0  0  0  0  0
   -9.7180   18.8050  -32.6810 O   0  0  0  0  0  0  0  0  0  0  0  0
   -8.7130   19.5400  -30.5730 O   0  0  0  0  0  0  0  0  0  0  0  0
   -7.0770   18.6330  -32.4860 C   0  0  0  0  0  0  0  0  0  0  0  0
   -6.5340   17.5720  -31.7790 C   0  0  0  0  0  0  0  0  0  0  0  0
   -5.3700   17.0650  -32.3650 C   0  0  0  0  0  0  0  0  0  0  0  0
   -4.9990   17.7260  -33.5310 C   0  0  0  0  0  0  0  0  0  0  0  0
   -6.1230   18.9430  -33.8330 S   0  0  0  0  0  0  0  0  0  0  0  0
   -6.2100   21.9980  -32.3350 C   0  0  0  0  0  0  0  0  0  0  0  0
   -5.3200   22.9670  -31.8620 C   0  0  0  0  0  0  0  0  0  0  0  0
   -3.9580   22.7640  -32.0560 O   0  0  0  0  0  0  0  0  0  0  0  0
   -4.2923   22.6521  -29.2229 H   0  0  0  0  0  0  0  0  0  0  0  0
   -3.1861   21.6419  -27.2275 H   0  0  0  0  0  0  0  0  0  0  0  0
   -1.1590   22.7141  -26.2424 H   0  0  0  0  0  0  0  0  0  0  0  0
   -0.2546   24.8203  -27.2318 H   0  0  0  0  0  0  0  0  0  0  0  0
   -7.5962   25.1707  -30.5617 H   0  0  0  0  0  0  0  0  0  0  0  0
   -9.1643   23.4392  -31.4114 H   0  0  0  0  0  0  0  0  0  0  0  0
   -6.9728   17.1706  -30.8536 H   0  0  0  0  0  0  0  0  0  0  0  0
   -4.8015   16.2229  -31.9435 H   0  0  0  0  0  0  0  0  0  0  0  0
   -4.1205   17.4933  -34.1507 H   0  0  0  0  0  0  0  0  0  0  0  0
   -5.8192   21.1021  -32.8396 H   0  0  0  0  0  0  0  0  0  0  0  0
  1  2  2  0
  2  3  1  0
  3  4  1  0
  4  5  2  0
  5  6  1  0
  6  7  2  0
  7  8  1  0
  8  9  2  0
  9 10  1  0
  2 11  1  0
 11 12  2  0
 12 13  1  0
 13 14  2  0
 14 15  1  0
 15 16  1  0
 16 17  2  0
 16 18  2  0
 16 19  1  0
 19 20  2  0
 20 21  1  0
 21 22  2  0
 22 23  1  0
 14 24  1  0
 24 25  2  0
 25 26  1  0
  9  4  1  0
 25 11  1  0
 23 19  1  0
  5 27  1  0
  6 28  1  0
  7 29  1  0
  8 30  1  0
 12 31  1  0
 13 32  1  0
 20 33  1  0
 21 34  1  0
 22 35  1  0
 24 36  1  0
M  CHG  4   3  -1  10  -1  15  -1  26  -1
M  END
>  <UniqueID>  (26) 
24

>  <SMILES>  (26) 
O=C([N-]c1ccccc1[O-])c1ccc([N-]S(=O)(=O)c2cccs2)cc1[O-]

>  <Energy>  (26) 
74.78292771041278

>  <Genealogy>  (26) 
O=C([N-]c1ccccc1[O-])c1ccc([N-]S(=O)(=O)c2cccs2)cc1[O-] (protonated)
O=C([N-]c1ccccc1[O-])c1ccc([N-]S(=O)(=O)c2cccs2)cc1[O-] (3D coordinates assigned)
O=C([N-]c1ccccc1[O-])c1ccc([N-]S(=O)(=O)c2cccs2)cc1[O-] (optimized conformer: 74.78292771041278 kcal/mol)

>  <smiles>  (26) 
O=C(Nc1ccccc1O)c1ccc(NS(=O)(=O)c2cccs2)cc1O

>  <score_type>  (26) 
oracle

>  <origin>  (26) 
adgpu

>  <m_score__min__energy>  (26) 
-15.039999999999999

>  <m_primary>  (26) 
energy

$$$$
26:0
     RDKit          3D

 60 63  0  0  0  0  0  0  0  0999 V2000
   -1.9870   22.6320  -30.9430 O   0  0  0  0  0  0  0  0  0  0  0  0
   -3.0180   22.4530  -30.2370 C   0  0  0  0  0  0  0  0  0  0  0  0
   -2.9120   21.7370  -28.9960 N   0  0  0  0  0  0  0  0  0  0  0  0
   -1.9230   20.7250  -28.7430 C   0  0  0  0  0  0  0  0  0  0  0  0
   -0.8030   20.5690  -29.5790 C   0  0  0  0  0  0  0  0  0  0  0  0
    0.1280   19.5550  -29.3340 C   0  0  0  0  0  0  0  0  0  0  0  0
   -0.0450   18.6830  -28.2520 C   0  0  0  0  0  0  0  0  0  0  0  0
    1.1020   17.3740  -27.9750 S   0  0  0  0  0  0  0  0  0  0  0  0
    0.3880   16.2420  -27.2940 O   0  0  0  0  0  0  0  0  0  0  0  0
    2.1720   17.8630  -27.0410 O   0  0  0  0  0  0  0  0  0  0  0  0
    1.8520   16.7840  -29.4410 N   0  0  0  0  0  0  0  0  0  0  0  0
    0.9550   16.8140  -30.6130 C   0  0  0  0  0  0  0  0  0  0  0  0
    0.1820   15.5010  -30.8030 C   0  0  0  0  0  0  0  0  0  0  0  0
    1.0580   14.3970  -30.8070 O   0  0  0  0  0  0  0  0  0  0  0  0
    1.6720   14.2880  -29.5420 C   0  0  0  0  0  0  0  0  0  0  0  0
    2.5670   15.5040  -29.2660 C   0  0  0  0  0  0  0  0  0  0  0  0
   -1.1740   18.8180  -27.4310 C   0  0  0  0  0  0  0  0  0  0  0  0
   -2.1060   19.8300  -27.6770 C   0  0  0  0  0  0  0  0  0  0  0  0
   -4.3120   23.0290  -30.6770 C   0  0  0  0  0  0  0  0  0  0  0  0
   -5.3880   22.1710  -30.9680 C   0  0  0  0  0  0  0  0  0  0  0  0
   -6.6280   22.6880  -31.3610 C   0  0  0  0  0  0  0  0  0  0  0  0
   -7.9530   21.5870  -31.7300 S   0  0  0  0  0  0  0  0  0  0  0  0
   -9.1590   22.3640  -32.1870 O   0  0  0  0  0  0  0  0  0  0  0  0
   -8.3140   20.8340  -30.4790 O   0  0  0  0  0  0  0  0  0  0  0  0
   -7.4600   20.4670  -32.9760 N   0  0  0  0  0  0  0  0  0  0  0  0
   -7.9930   19.1060  -32.7140 C   0  0  0  0  0  0  0  0  0  0  0  0
   -6.9520   18.1640  -32.0950 C   0  0  0  0  0  0  0  0  0  0  0  0
   -5.7190   18.0200  -33.0040 C   0  0  0  0  0  0  0  0  0  0  0  0
   -5.4520   19.2760  -33.8490 C   0  0  0  0  0  0  0  0  0  0  0  0
   -5.9920   20.5290  -33.1520 C   0  0  0  0  0  0  0  0  0  0  0  0
   -6.7990   24.0730  -31.4720 C   0  0  0  0  0  0  0  0  0  0  0  0
   -5.7420   24.9340  -31.1810 C   0  0  0  0  0  0  0  0  0  0  0  0
   -4.5040   24.4250  -30.7760 C   0  0  0  0  0  0  0  0  0  0  0  0
   -3.4880   25.3160  -30.4500 O   0  0  0  0  0  0  0  0  0  0  0  0
   -3.5470   22.0170  -28.2140 H   0  0  0  0  0  0  0  0  0  0  0  0
   -0.6584   21.2492  -30.4313 H   0  0  0  0  0  0  0  0  0  0  0  0
    1.0005   19.4417  -29.9943 H   0  0  0  0  0  0  0  0  0  0  0  0
    0.2316   17.6321  -30.4813 H   0  0  0  0  0  0  0  0  0  0  0  0
    1.5804   16.9628  -31.5056 H   0  0  0  0  0  0  0  0  0  0  0  0
   -0.5391   15.3855  -29.9804 H   0  0  0  0  0  0  0  0  0  0  0  0
   -0.3407   15.5380  -31.7702 H   0  0  0  0  0  0  0  0  0  0  0  0
    0.8937   14.2293  -28.7669 H   0  0  0  0  0  0  0  0  0  0  0  0
    2.2941   13.3809  -29.5282 H   0  0  0  0  0  0  0  0  0  0  0  0
    2.9344   15.4439  -28.2309 H   0  0  0  0  0  0  0  0  0  0  0  0
    3.3941   15.4815  -29.9908 H   0  0  0  0  0  0  0  0  0  0  0  0
   -1.3265   18.1250  -26.5905 H   0  0  0  0  0  0  0  0  0  0  0  0
   -2.9904   19.9260  -27.0299 H   0  0  0  0  0  0  0  0  0  0  0  0
   -5.2536   21.0823  -30.8859 H   0  0  0  0  0  0  0  0  0  0  0  0
   -8.8447   19.1900  -32.0230 H   0  0  0  0  0  0  0  0  0  0  0  0
   -8.2909   18.6770  -33.6821 H   0  0  0  0  0  0  0  0  0  0  0  0
   -6.6352   18.5692  -31.1227 H   0  0  0  0  0  0  0  0  0  0  0  0
   -7.4108   17.1718  -31.9719 H   0  0  0  0  0  0  0  0  0  0  0  0
   -4.8384   17.8267  -32.3738 H   0  0  0  0  0  0  0  0  0  0  0  0
   -5.9144   17.1893  -33.6980 H   0  0  0  0  0  0  0  0  0  0  0  0
   -4.3677   19.3859  -33.9981 H   0  0  0  0  0  0  0  0  0  0  0  0
   -5.9635   19.1640  -34.8164 H   0  0  0  0  0  0  0  0  0  0  0  0
   -5.5179   20.6195  -32.1636 H   0  0  0  0  0  0  0  0  0  0  0  0
   -5.7584   21.3998  -33.7822 H   0  0  0  0  0  0  0  0  0  0  0  0
   -7.7693   24.4826  -31.7894 H   0  0  0  0  0  0  0  0  0  0  0  0
   -5.8827   26.0213  -31.2706 H   0  0  0  0  0  0  0  0  0  0  0  0
  1  2  2  0
  2  3  1  0
  3  4  1  0
  4  5  2  0
  5  6  1  0
  6  7  2  0
  7  8  1  0
  8  9  2  0
  8 10  2  0
  8 11  1  0
 11 12  1  0
 12 13  1  0
 13 14  1  0
 14 15  1  0
 15 16  1  0
  7 17  1  0
 17 18  2  0
  2 19  1  0
 19 20  2  0
 20 21  1  0
 21 22  1  0
 22 23  2  0
 22 24  2  0
 22 25  1  0
 25 26  1  0
 26 27  1  0
 27 28  1  0
 28 29  1  0
 29 30  1  0
 21 31  2  0
 31 32  1  0
 32 33  2  0
 33 34  1  0
 18  4  1  0
 33 19  1  0
 16 11  1  0
 30 25  1  0
  3 35  1  0
  5 36  1  0
  6 37  1  0
 12 38  1  0
 12 39  1  0
 13 40  1  0
 13 41  1  0
 15 42  1  0
 15 43  1  0
 16 44  1  0
 16 45  1  0
 17 46  1  0
 18 47  1  0
 20 48  1  0
 26 49  1  0
 26 50  1  0
 27 51  1  0
 27 52  1  0
 28 53  1  0
 28 54  1  0
 29 55  1  0
 29 56  1  0
 30 57  1  0
 30 58  1  0
 31 59  1  0
 32 60  1  0
M  CHG  1  34  -1
M  END
>  <UniqueID>  (27) 
25

>  <SMILES>  (27) 
O=C(Nc1ccc(S(=O)(=O)N2CCOCC2)cc1)c1cc(S(=O)(=O)N2CCCCC2)ccc1[O-]

>  <Energy>  (27) 
80.53192748869718

>  <Genealogy>  (27) 
O=C(Nc1ccc(S(=O)(=O)N2CCOCC2)cc1)c1cc(S(=O)(=O)N2CCCCC2)ccc1[O-] (protonated)
O=C(Nc1ccc(S(=O)(=O)N2CCOCC2)cc1)c1cc(S(=O)(=O)N2CCCCC2)ccc1[O-] (3D coordinates assigned)
O=C(Nc1ccc(S(=O)(=O)N2CCOCC2)cc1)c1cc(S(=O)(=O)N2CCCCC2)ccc1[O-] (nonaromatic ring conformer: 80.53192748869718 kcal/mol)

>  <smiles>  (27) 
O=C(Nc1ccc(S(=O)(=O)N2CCOCC2)cc1)c1cc(S(=O)(=O)N2CCCCC2)ccc1O

>  <score_type>  (27) 
oracle

>  <origin>  (27) 
adgpu

>  <m_score__min__energy>  (27) 
-13.369999999999999

>  <m_primary>  (27) 
energy

$$$$
27:0
     RDKit          3D

 44 46  0  0  0  0  0  0  0  0999 V2000
   -8.6210   20.3280  -31.9870 C   0  0  0  0  0  0  0  0  0  0  0  0
   -7.6760   21.3930  -31.5470 C   0  0  0  0  0  0  0  0  0  0  0  0
   -6.3000   21.3850  -31.7630 C   0  0  0  0  0  0  0  0  0  0  0  0
   -5.8640   22.5620  -31.2020 C   0  0  0  0  0  0  0  0  0  0  0  0
   -4.5870   23.1090  -31.1050 C   0  0  0  0  0  0  0  0  0  0  0  0
   -4.4470   24.3450  -30.4450 C   0  0  0  0  0  0  0  0  0  0  0  0
   -3.1460   24.9240  -30.3240 N   0  0  0  0  0  0  0  0  0  0  0  0
   -2.0070   24.4690  -29.0970 S   0  0  0  0  0  0  0  0  0  0  0  0
   -0.6150   24.7300  -29.6010 O   0  0  0  0  0  0  0  0  0  0  0  0
   -2.2100   25.3580  -27.9030 O   0  0  0  0  0  0  0  0  0  0  0  0
   -2.2020   22.7550  -28.6130 C   0  0  0  0  0  0  0  0  0  0  0  0
   -3.1990   22.3960  -27.6700 C   0  0  0  0  0  0  0  0  0  0  0  0
   -4.2140   23.3800  -27.1470 C   0  0  0  0  0  0  0  0  0  0  0  0
   -3.2640   21.0820  -27.1950 C   0  0  0  0  0  0  0  0  0  0  0  0
   -2.3790   20.0980  -27.6430 C   0  0  0  0  0  0  0  0  0  0  0  0
   -2.5060   18.7060  -27.0750 C   0  0  0  0  0  0  0  0  0  0  0  0
   -1.3940   20.4280  -28.6030 C   0  0  0  0  0  0  0  0  0  0  0  0
   -0.4020   19.3750  -29.0620 C   0  0  0  0  0  0  0  0  0  0  0  0
   -1.3740   21.7350  -29.1670 C   0  0  0  0  0  0  0  0  0  0  0  0
   -0.4720   22.0240  -30.3500 C   0  0  0  0  0  0  0  0  0  0  0  0
   -5.5930   25.0160  -29.9460 C   0  0  0  0  0  0  0  0  0  0  0  0
   -6.8690   24.4340  -30.0620 C   0  0  0  0  0  0  0  0  0  0  0  0
   -6.9660   23.2000  -30.6970 C   0  0  0  0  0  0  0  0  0  0  0  0
   -8.0470   22.4910  -30.9110 O   0  0  0  0  0  0  0  0  0  0  0  0
   -9.0567   19.8369  -31.1044 H   0  0  0  0  0  0  0  0  0  0  0  0
   -9.4237   20.7766  -32.5907 H   0  0  0  0  0  0  0  0  0  0  0  0
   -8.0801   19.5844  -32.5907 H   0  0  0  0  0  0  0  0  0  0  0  0
   -5.6995   20.6135  -32.2671 H   0  0  0  0  0  0  0  0  0  0  0  0
   -3.7147   22.5916  -31.5308 H   0  0  0  0  0  0  0  0  0  0  0  0
   -4.2025   23.3689  -26.0471 H   0  0  0  0  0  0  0  0  0  0  0  0
   -3.9649   24.3895  -27.5061 H   0  0  0  0  0  0  0  0  0  0  0  0
   -5.2152   23.0997  -27.5061 H   0  0  0  0  0  0  0  0  0  0  0  0
   -4.0299   20.8171  -26.4512 H   0  0  0  0  0  0  0  0  0  0  0  0
   -2.5014   18.7565  -25.9762 H   0  0  0  0  0  0  0  0  0  0  0  0
   -3.4490   18.2549  -27.4174 H   0  0  0  0  0  0  0  0  0  0  0  0
   -1.6602   18.0917  -27.4174 H   0  0  0  0  0  0  0  0  0  0  0  0
    0.0527   18.8923  -28.1844 H   0  0  0  0  0  0  0  0  0  0  0  0
   -0.9236   18.6189  -29.6672 H   0  0  0  0  0  0  0  0  0  0  0  0
    0.3839   19.8506  -29.6672 H   0  0  0  0  0  0  0  0  0  0  0  0
    0.5172   22.3409  -29.9880 H   0  0  0  0  0  0  0  0  0  0  0  0
   -0.3652   21.1151  -30.9603 H   0  0  0  0  0  0  0  0  0  0  0  0
   -0.9133   22.8257  -30.9603 H   0  0  0  0  0  0  0  0  0  0  0  0
   -5.4833   25.9990  -29.4646 H   0  0  0  0  0  0  0  0  0  0  0  0
   -7.7613   24.9387  -29.6633 H   0  0  0  0  0  0  0  0  0  0  0  0
  1  2  1  0
  2  3  2  0
  3  4  1  0
  4  5  2  0
  5  6  1  0
  6  7  1  0
  7  8  1  0
  8  9  2  0
  8 10  2  0
  8 11  1  0
 11 12  2  0
 12 13  1  0
 12 14  1  0
 14 15  2  0
 15 16  1  0
 15 17  1  0
 17 18  1  0
 17 19  2  0
 19 20  1  0
  6 21  2  0
 21 22  1  0
 22 23  2  0
 23 24  1  0
 24  2  1  0
 23  4  1  0
 19 11  1  0
  1 25  1  0
  1 26  1  0
  1 27  1  0
  3 28  1  0
  5 29  1  0
 13 30  1  0
 13 31  1  0
 13 32  1  0
 14 33  1  0
 16 34  1  0
 16 35  1  0
 16 36  1  0
 18 37  1  0
 18 38  1  0
 18 39  1  0
 20 40  1  0
 20 41  1  0
 20 42  1  0
 21 43  1  0
 22 44  1  0
M  CHG  1   7  -1
M  END
>  <UniqueID>  (28) 
26

>  <SMILES>  (28) 
Cc1cc2cc([N-]S(=O)(=O)c3c(C)cc(C)c(C)c3C)ccc2o1

>  <Energy>  (28) 
96.82219736819663

>  <Genealogy>  (28) 
Cc1cc2cc([N-]S(=O)(=O)c3c(C)cc(C)c(C)c3C)ccc2o1 (protonated)
Cc1cc2cc([N-]S(=O)(=O)c3c(C)cc(C)c(C)c3C)ccc2o1 (3D coordinates assigned)
Cc1cc2cc([N-]S(=O)(=O)c3c(C)cc(C)c(C)c3C)ccc2o1 (optimized conformer: 96.82219736819663 kcal/mol)

>  <smiles>  (28) 
Cc1cc2cc(NS(=O)(=O)c3c(C)cc(C)c(C)c3C)ccc2o1

>  <score_type>  (28) 
oracle

>  <origin>  (28) 
adgpu

>  <m_score__min__energy>  (28) 
-9.8200000000000003

>  <m_primary>  (28) 
energy

$$$$
28:0
     RDKit          3D

 63 66  0  0  0  0  0  0  0  0999 V2000
   -0.4950   29.9660  -27.1500 C   0  0  0  0  0  0  0  0  0  0  0  0
   -0.3790   29.5620  -25.7120 C   0  0  0  0  0  0  0  0  0  0  0  0
   -0.9880   30.2450  -24.8440 O   0  0  0  0  0  0  0  0  0  0  0  0
    0.4120   28.4260  -25.3000 N   0  0  0  0  0  0  0  0  0  0  0  0
    0.0640   27.7580  -24.0270 C   0  0  0  0  0  0  0  0  0  0  0  0
    0.7050   26.3720  -23.8690 C   0  0  0  0  0  0  0  0  0  0  0  0
    0.5450   25.4530  -25.3900 S   0  0  0  0  0  0  0  0  0  0  0  0
    1.3860   24.2080  -25.3190 O   0  0  0  0  0  0  0  0  0  0  0  0
   -0.9730   25.0780  -25.5950 N   0  0  0  0  0  0  0  0  0  0  0  0
   -1.5330   24.4660  -26.7670 C   0  0  0  0  0  0  0  0  0  0  0  0
   -1.3460   23.0960  -26.9470 C   0  0  0  0  0  0  0  0  0  0  0  0
   -1.9040   22.4190  -28.0390 C   0  0  0  0  0  0  0  0  0  0  0  0
   -1.5720   20.6870  -28.1150 Cl  0  0  0  0  0  0  0  0  0  0  0  0
   -2.6690   23.1360  -29.0060 C   0  0  0  0  0  0  0  0  0  0  0  0
   -3.2930   22.5320  -30.1370 C   0  0  0  0  0  0  0  0  0  0  0  0
   -3.2580   21.2360  -30.2890 N   0  0  0  0  0  0  0  0  0  0  0  0
   -3.7610   20.4590  -31.3870 C   0  0  0  0  0  0  0  0  0  0  0  0
   -2.8880   19.8560  -32.3070 C   0  0  0  0  0  0  0  0  0  0  0  0
   -3.3890   19.0300  -33.3170 C   0  0  0  0  0  0  0  0  0  0  0  0
   -4.7690   18.7960  -33.4140 C   0  0  0  0  0  0  0  0  0  0  0  0
   -5.3990   17.7440  -34.6820 S   0  0  0  0  0  0  0  0  0  0  0  0
   -6.0960   18.5860  -35.7130 O   0  0  0  0  0  0  0  0  0  0  0  0
   -6.4010   16.7890  -34.0960 O   0  0  0  0  0  0  0  0  0  0  0  0
   -4.0940   16.8730  -35.4380 N   0  0  0  0  0  0  0  0  0  0  0  0
   -3.9770   15.5010  -34.9080 C   0  0  0  0  0  0  0  0  0  0  0  0
   -2.9340   14.6760  -35.6800 C   0  0  0  0  0  0  0  0  0  0  0  0
   -3.6000   15.5740  -33.4290 C   0  0  0  0  0  0  0  0  0  0  0  0
   -5.6390   19.3840  -32.4840 C   0  0  0  0  0  0  0  0  0  0  0  0
   -5.1350   20.1990  -31.4660 C   0  0  0  0  0  0  0  0  0  0  0  0
   -3.9950   23.3510  -31.0480 C   0  0  0  0  0  0  0  0  0  0  0  0
   -4.0760   24.7240  -30.8350 C   0  0  0  0  0  0  0  0  0  0  0  0
   -3.4980   25.2810  -29.7460 N   0  0  0  0  0  0  0  0  0  0  0  0
   -2.8120   24.5420  -28.8350 C   0  0  0  0  0  0  0  0  0  0  0  0
   -2.2560   25.1900  -27.7270 C   0  0  0  0  0  0  0  0  0  0  0  0
    1.0980   26.5210  -26.7150 C   0  0  0  0  0  0  0  0  0  0  0  0
    1.4870   27.8920  -26.1580 C   0  0  0  0  0  0  0  0  0  0  0  0
   -0.7981   31.0217  -27.2110 H   0  0  0  0  0  0  0  0  0  0  0  0
    0.4772   29.8344  -27.6474 H   0  0  0  0  0  0  0  0  0  0  0  0
   -1.2493   29.3386  -27.6474 H   0  0  0  0  0  0  0  0  0  0  0  0
    0.4014   28.3947  -23.1958 H   0  0  0  0  0  0  0  0  0  0  0  0
   -1.0264   27.6130  -24.0246 H   0  0  0  0  0  0  0  0  0  0  0  0
    1.7709   26.4888  -23.6237 H   0  0  0  0  0  0  0  0  0  0  0  0
    0.1954   25.8269  -23.0608 H   0  0  0  0  0  0  0  0  0  0  0  0
   -0.7469   22.5343  -26.2151 H   0  0  0  0  0  0  0  0  0  0  0  0
   -1.8052   20.0346  -32.2324 H   0  0  0  0  0  0  0  0  0  0  0  0
   -2.7006   18.5628  -34.0367 H   0  0  0  0  0  0  0  0  0  0  0  0
   -4.2710   16.8520  -36.4700 H   0  0  0  0  0  0  0  0  0  0  0  0
   -4.9463   14.9954  -35.0302 H   0  0  0  0  0  0  0  0  0  0  0  0
   -2.2769   14.1563  -34.9672 H   0  0  0  0  0  0  0  0  0  0  0  0
   -3.4467   13.9364  -36.3125 H   0  0  0  0  0  0  0  0  0  0  0  0
   -2.3323   15.3452  -36.3125 H   0  0  0  0  0  0  0  0  0  0  0  0
   -4.4950   15.4007  -32.8135 H   0  0  0  0  0  0  0  0  0  0  0  0
   -2.8460   14.8052  -33.2044 H   0  0  0  0  0  0  0  0  0  0  0  0
   -3.1875   16.5687  -33.2044 H   0  0  0  0  0  0  0  0  0  0  0  0
   -6.7217   19.2032  -32.5559 H   0  0  0  0  0  0  0  0  0  0  0  0
   -5.8196   20.6373  -30.7249 H   0  0  0  0  0  0  0  0  0  0  0  0
   -4.4791   22.9028  -31.9282 H   0  0  0  0  0  0  0  0  0  0  0  0
   -4.6124   25.3591  -31.5553 H   0  0  0  0  0  0  0  0  0  0  0  0
   -2.3866   26.2757  -27.6074 H   0  0  0  0  0  0  0  0  0  0  0  0
    1.9708   26.0675  -27.2076 H   0  0  0  0  0  0  0  0  0  0  0  0
    0.2813   26.6461  -27.4412 H   0  0  0  0  0  0  0  0  0  0  0  0
    2.4081   27.7935  -25.5649 H   0  0  0  0  0  0  0  0  0  0  0  0
    1.6484   28.5840  -26.9977 H   0  0  0  0  0  0  0  0  0  0  0  0
  1  2  1  0
  2  3  2  0
  2  4  1  0
  4  5  1  0
  5  6  1  0
  6  7  1  0
  7  8  2  0
  7  9  2  0
  9 10  1  0
 10 11  2  0
 11 12  1  0
 12 13  1  0
 12 14  2  0
 14 15  1  0
 15 16  2  3
 16 17  1  0
 17 18  2  0
 18 19  1  0
 19 20  2  0
 20 21  1  0
 21 22  2  0
 21 23  2  0
 21 24  1  0
 24 25  1  0
 25 26  1  0
 25 27  1  0
 20 28  1  0
 28 29  2  0
 15 30  1  0
 30 31  2  0
 31 32  1  0
 32 33  1  0
 33 34  2  0
  7 35  1  0
 35 36  1  0
 36  4  1  0
 34 10  1  0
 33 14  1  0
 29 17  1  0
  1 37  1  0
  1 38  1  0
  1 39  1  0
  5 40  1  0
  5 41  1  0
  6 42  1  0
  6 43  1  0
 11 44  1  0
 18 45  1  0
 19 46  1  0
 24 47  1  0
 25 48  1  0
 26 49  1  0
 26 50  1  0
 26 51  1  0
 27 52  1  0
 27 53  1  0
 27 54  1  0
 28 55  1  0
 29 56  1  0
 30 57  1  0
 31 58  1  0
 34 59  1  0
 35 60  1  0
 35 61  1  0
 36 62  1  0
 36 63  1  0
M  CHG  1  32  -1
M  END
>  <UniqueID>  (29) 
27

>  <SMILES>  (29) 
CC(=O)N1CCS(=O)(=Nc2cc(Cl)c3c(=Nc4ccc(S(=O)(=O)NC(C)C)cc4)cc[n-]c3c2)CC1

>  <Energy>  (29) 
77.95707233792109

>  <Genealogy>  (29) 
CC(=O)N1CCS(=O)(=Nc2cc(Cl)c3c(=Nc4ccc(S(=O)(=O)NC(C)C)cc4)cc[n-]c3c2)CC1 (protonated)
CC(=O)N1CCS(=O)(=Nc2cc(Cl)c3c(=Nc4ccc(S(=O)(=O)NC(C)C)cc4)cc[n-]c3c2)CC1 (3D coordinates assigned)
CC(=O)N1CCS(=O)(=Nc2cc(Cl)c3c(=Nc4ccc(S(=O)(=O)NC(C)C)cc4)cc[n-]c3c2)CC1 (nonaromatic ring conformer: 77.95707233792109 kcal/mol)

>  <smiles>  (29) 
CC(=O)N1CCS(=O)(=Nc2cc(Cl)c3c(=Nc4ccc(S(=O)(=O)NC(C)C)cc4)cc[nH]c3c2)CC1

>  <score_type>  (29) 
oracle

>  <origin>  (29) 
adgpu

>  <m_score__min__energy>  (29) 
-9.9900000000000002

>  <m_primary>  (29) 
energy

$$$$
29:0
     RDKit          3D

 49 52  0  0  0  0  0  0  0  0999 V2000
   -1.8830   18.2130  -34.1170 C   0  0  0  0  0  0  0  0  0  0  0  0
   -3.6040   18.2440  -33.5240 S   0  0  0  0  0  0  0  0  0  0  0  0
   -3.3630   19.7440  -32.5560 C   0  0  0  0  0  0  0  0  0  0  0  0
   -2.2560   19.7980  -31.7740 N   0  0  0  0  0  0  0  0  0  0  0  0
   -1.9830   20.8720  -30.9950 C   0  0  0  0  0  0  0  0  0  0  0  0
   -0.8310   20.8850  -30.2020 C   0  0  0  0  0  0  0  0  0  0  0  0
   -0.5520   21.9890  -29.3940 C   0  0  0  0  0  0  0  0  0  0  0  0
   -1.4190   23.0900  -29.3760 C   0  0  0  0  0  0  0  0  0  0  0  0
   -1.0570   24.4630  -28.3340 S   0  0  0  0  0  0  0  0  0  0  0  0
   -1.6120   25.7270  -28.9320 O   0  0  0  0  0  0  0  0  0  0  0  0
    0.4370   24.5980  -28.2280 O   0  0  0  0  0  0  0  0  0  0  0  0
   -1.7400   24.1930  -26.7450 N   0  0  0  0  0  0  0  0  0  0  0  0
   -2.6030   25.3140  -26.3580 C   0  0  0  0  0  0  0  0  0  0  0  0
   -1.7670   26.3040  -25.5610 C   0  0  0  0  0  0  0  0  0  0  0  0
   -0.5180   25.5470  -25.1540 C   0  0  0  0  0  0  0  0  0  0  0  0
   -0.6810   24.1480  -25.7320 C   0  0  0  0  0  0  0  0  0  0  0  0
   -2.5770   23.0750  -30.1670 C   0  0  0  0  0  0  0  0  0  0  0  0
   -2.8640   21.9640  -30.9830 C   0  0  0  0  0  0  0  0  0  0  0  0
   -4.0100   21.9030  -31.7960 C   0  0  0  0  0  0  0  0  0  0  0  0
   -4.8180   22.8750  -31.8010 O   0  0  0  0  0  0  0  0  0  0  0  0
   -4.2510   20.7990  -32.5800 N   0  0  0  0  0  0  0  0  0  0  0  0
   -5.4420   20.7880  -33.4560 C   0  0  0  0  0  0  0  0  0  0  0  0
   -6.6110   20.1420  -32.7560 C   0  0  0  0  0  0  0  0  0  0  0  0
   -7.6450   20.9310  -32.2240 C   0  0  0  0  0  0  0  0  0  0  0  0
   -8.7190   20.3320  -31.5570 C   0  0  0  0  0  0  0  0  0  0  0  0
   -8.7700   18.9440  -31.4170 C   0  0  0  0  0  0  0  0  0  0  0  0
   -7.7460   18.1500  -31.9420 C   0  0  0  0  0  0  0  0  0  0  0  0
   -6.6700   18.7450  -32.6090 C   0  0  0  0  0  0  0  0  0  0  0  0
   -1.1986   18.2007  -33.2559 H   0  0  0  0  0  0  0  0  0  0  0  0
   -1.7214   17.3118  -34.7267 H   0  0  0  0  0  0  0  0  0  0  0  0
   -1.6891   19.1078  -34.7267 H   0  0  0  0  0  0  0  0  0  0  0  0
   -0.1447   20.0254  -30.2149 H   0  0  0  0  0  0  0  0  0  0  0  0
    0.3528   21.9946  -28.7684 H   0  0  0  0  0  0  0  0  0  0  0  0
   -3.0030   25.8040  -27.2579 H   0  0  0  0  0  0  0  0  0  0  0  0
   -3.4459   24.9527  -25.7505 H   0  0  0  0  0  0  0  0  0  0  0  0
   -1.5042   27.1727  -26.1825 H   0  0  0  0  0  0  0  0  0  0  0  0
   -2.3136   26.6879  -24.6870 H   0  0  0  0  0  0  0  0  0  0  0  0
    0.3776   26.0322  -25.5694 H   0  0  0  0  0  0  0  0  0  0  0  0
   -0.3937   25.5241  -24.0613 H   0  0  0  0  0  0  0  0  0  0  0  0
    0.2630   23.8234  -26.1940 H   0  0  0  0  0  0  0  0  0  0  0  0
   -0.9454   23.4359  -24.9364 H   0  0  0  0  0  0  0  0  0  0  0  0
   -3.2635   23.9343  -30.1499 H   0  0  0  0  0  0  0  0  0  0  0  0
   -5.7059   21.8227  -33.7201 H   0  0  0  0  0  0  0  0  0  0  0  0
   -5.2093   20.2108  -34.3630 H   0  0  0  0  0  0  0  0  0  0  0  0
   -7.6098   22.0251  -32.3325 H   0  0  0  0  0  0  0  0  0  0  0  0
   -9.5246   20.9557  -31.1422 H   0  0  0  0  0  0  0  0  0  0  0  0
   -9.6161   18.4749  -30.8935 H   0  0  0  0  0  0  0  0  0  0  0  0
   -7.7865   17.0564  -31.8304 H   0  0  0  0  0  0  0  0  0  0  0  0
   -5.8662   18.1169  -33.0205 H   0  0  0  0  0  0  0  0  0  0  0  0
  1  2  1  0
  2  3  1  0
  3  4  2  0
  4  5  1  0
  5  6  2  0
  6  7  1  0
  7  8  2  0
  8  9  1  0
  9 10  2  0
  9 11  2  0
  9 12  1  0
 12 13  1  0
 13 14  1  0
 14 15  1  0
 15 16  1  0
  8 17  1  0
 17 18  2  0
 18 19  1  0
 19 20  2  0
 19 21  1  0
 21 22  1  0
 22 23  1  0
 23 24  2  0
 24 25  1  0
 25 26  2  0
 26 27  1  0
 27 28  2  0
 21  3  1  0
 28 23  1  0
 18  5  1  0
 16 12  1  0
  1 29  1  0
  1 30  1  0
  1 31  1  0
  6 32  1  0
  7 33  1  0
 13 34  1  0
 13 35  1  0
 14 36  1  0
 14 37  1  0
 15 38  1  0
 15 39  1  0
 16 40  1  0
 16 41  1  0
 17 42  1  0
 22 43  1  0
 22 44  1  0
 24 45  1  0
 25 46  1  0
 26 47  1  0
 27 48  1  0
 28 49  1  0
M  END
>  <UniqueID>  (30) 
28

>  <SMILES>  (30) 
CSc1nc2ccc(S(=O)(=O)N3CCCC3)cc2c(=O)n1Cc1ccccc1

>  <Energy>  (30) 
57.689729002198376

>  <Genealogy>  (30) 
CSc1nc2ccc(S(=O)(=O)N3CCCC3)cc2c(=O)n1Cc1ccccc1 (3D coordinates assigned)
CSc1nc2ccc(S(=O)(=O)N3CCCC3)cc2c(=O)n1Cc1ccccc1 (nonaromatic ring conformer: 57.689729002198376 kcal/mol)

>  <smiles>  (30) 
CSc1nc2ccc(S(=O)(=O)N3CCCC3)cc2c(=O)n1Cc1ccccc1

>  <score_type>  (30) 
oracle

>  <origin>  (30) 
adgpu

>  <m_score__min__energy>  (30) 
-9.6400000000000006

>  <m_primary>  (30) 
energy

$$$$
30:0
     RDKit          3D

 45 47  0  0  0  0  0  0  0  0999 V2000
   -0.7160   21.9400  -30.6680 O   0  0  0  0  0  0  0  0  0  0  0  0
   -2.0930   22.1580  -30.1020 S   0  0  0  0  0  0  0  0  0  0  0  0
   -2.5880   20.8690  -29.5110 O   0  0  0  0  0  0  0  0  0  0  0  0
   -3.1580   22.6500  -31.3820 N   0  0  0  0  0  0  0  0  0  0  0  0
   -4.4730   23.2000  -31.1650 C   0  0  0  0  0  0  0  0  0  0  0  0
   -5.6340   22.4440  -31.4130 C   0  0  0  0  0  0  0  0  0  0  0  0
   -6.9070   22.9950  -31.2060 C   0  0  0  0  0  0  0  0  0  0  0  0
   -8.3510   22.0290  -31.5200 S   0  0  0  0  0  0  0  0  0  0  0  0
   -8.9030   21.5240  -30.2150 O   0  0  0  0  0  0  0  0  0  0  0  0
   -9.3980   22.8980  -32.1610 O   0  0  0  0  0  0  0  0  0  0  0  0
   -8.0000   20.6680  -32.5600 N   0  0  0  0  0  0  0  0  0  0  0  0
   -9.1870   19.7940  -32.7350 C   0  0  0  0  0  0  0  0  0  0  0  0
   -9.1110   18.5060  -31.9030 C   0  0  0  0  0  0  0  0  0  0  0  0
   -7.8590   17.6860  -32.2600 C   0  0  0  0  0  0  0  0  0  0  0  0
   -6.6770   18.5670  -32.7040 C   0  0  0  0  0  0  0  0  0  0  0  0
   -6.7790   19.9690  -32.1000 C   0  0  0  0  0  0  0  0  0  0  0  0
   -7.0230   24.3110  -30.7470 C   0  0  0  0  0  0  0  0  0  0  0  0
   -5.8790   25.0680  -30.4870 C   0  0  0  0  0  0  0  0  0  0  0  0
   -4.6100   24.5200  -30.6930 C   0  0  0  0  0  0  0  0  0  0  0  0
   -3.4870   25.2980  -30.4310 O   0  0  0  0  0  0  0  0  0  0  0  0
   -2.0610   23.3860  -28.8410 C   0  0  0  0  0  0  0  0  0  0  0  0
   -0.9960   24.2960  -28.7790 C   0  0  0  0  0  0  0  0  0  0  0  0
   -0.9490   25.2550  -27.7640 C   0  0  0  0  0  0  0  0  0  0  0  0
   -1.9670   25.3120  -26.8070 C   0  0  0  0  0  0  0  0  0  0  0  0
   -3.0330   24.4100  -26.8660 C   0  0  0  0  0  0  0  0  0  0  0  0
   -3.0830   23.4490  -27.8800 C   0  0  0  0  0  0  0  0  0  0  0  0
   -2.8290   22.4690  -32.3560 H   0  0  0  0  0  0  0  0  0  0  0  0
   -5.5419   21.4088  -31.7734 H   0  0  0  0  0  0  0  0  0  0  0  0
  -10.0832   20.3550  -32.4316 H   0  0  0  0  0  0  0  0  0  0  0  0
   -9.2259   19.4999  -33.7942 H   0  0  0  0  0  0  0  0  0  0  0  0
   -9.0748   18.7699  -30.8357 H   0  0  0  0  0  0  0  0  0  0  0  0
  -10.0004   17.8969  -32.1220 H   0  0  0  0  0  0  0  0  0  0  0  0
   -7.5536   17.1073  -31.3757 H   0  0  0  0  0  0  0  0  0  0  0  0
   -8.1207   17.0317  -33.1046 H   0  0  0  0  0  0  0  0  0  0  0  0
   -5.7371   18.1007  -32.3735 H   0  0  0  0  0  0  0  0  0  0  0  0
   -6.6993   18.6559  -33.8002 H   0  0  0  0  0  0  0  0  0  0  0  0
   -6.8063   19.8852  -31.0035 H   0  0  0  0  0  0  0  0  0  0  0  0
   -5.9039   20.5506  -32.4255 H   0  0  0  0  0  0  0  0  0  0  0  0
   -8.0189   24.7511  -30.5903 H   0  0  0  0  0  0  0  0  0  0  0  0
   -5.9769   26.0998  -30.1186 H   0  0  0  0  0  0  0  0  0  0  0  0
   -0.1950   24.2547  -29.5318 H   0  0  0  0  0  0  0  0  0  0  0  0
   -0.1107   25.9656  -27.7177 H   0  0  0  0  0  0  0  0  0  0  0  0
   -1.9288   26.0668  -26.0077 H   0  0  0  0  0  0  0  0  0  0  0  0
   -3.8339   24.4564  -26.1134 H   0  0  0  0  0  0  0  0  0  0  0  0
   -3.9239   22.7413  -27.9252 H   0  0  0  0  0  0  0  0  0  0  0  0
  1  2  2  0
  2  3  2  0
  2  4  1  0
  4  5  1  0
  5  6  2  0
  6  7  1  0
  7  8  1  0
  8  9  2  0
  8 10  2  0
  8 11  1  0
 11 12  1  0
 12 13  1  0
 13 14  1  0
 14 15  1  0
 15 16  1  0
  7 17  2  0
 17 18  1  0
 18 19  2  0
 19 20  1  0
  2 21  1  0
 21 22  2  0
 22 23  1  0
 23 24  2  0
 24 25  1  0
 25 26  2  0
 19  5  1  0
 26 21  1  0
 16 11  1  0
  4 27  1  0
  6 28  1  0
 12 29  1  0
 12 30  1  0
 13 31  1  0
 13 32  1  0
 14 33  1  0
 14 34  1  0
 15 35  1  0
 15 36  1  0
 16 37  1  0
 16 38  1  0
 17 39  1  0
 18 40  1  0
 22 41  1  0
 23 42  1  0
 24 43  1  0
 25 44  1  0
 26 45  1  0
M  CHG  1  20  -1
M  END
>  <UniqueID>  (31) 
29

>  <SMILES>  (31) 
O=S(=O)(Nc1cc(S(=O)(=O)N2CCCCC2)ccc1[O-])c1ccccc1

>  <Energy>  (31) 
53.255890588819454

>  <Genealogy>  (31) 
O=S(=O)(Nc1cc(S(=O)(=O)N2CCCCC2)ccc1[O-])c1ccccc1 (protonated)
O=S(=O)(Nc1cc(S(=O)(=O)N2CCCCC2)ccc1[O-])c1ccccc1 (3D coordinates assigned)
O=S(=O)(Nc1cc(S(=O)(=O)N2CCCCC2)ccc1[O-])c1ccccc1 (nonaromatic ring conformer: 53.255890588819454 kcal/mol)

>  <smiles>  (31) 
O=S(=O)(Nc1cc(S(=O)(=O)N2CCCCC2)ccc1O)c1ccccc1

>  <score_type>  (31) 
oracle

>  <origin>  (31) 
adgpu

>  <m_score__min__energy>  (31) 
-12.75

>  <m_primary>  (31) 
energy

$$$$
31:0
     RDKit          3D

 34 36  0  0  0  0  0  0  0  0999 V2000
   -2.8090   21.4940  -30.0320 O   0  0  0  0  0  0  0  0  0  0  0  0
   -2.9570   22.7340  -30.1850 C   0  0  0  0  0  0  0  0  0  0  0  0
   -1.9390   23.6120  -29.6870 N   0  0  0  0  0  0  0  0  0  0  0  0
   -1.9740   24.3560  -28.4600 C   0  0  0  0  0  0  0  0  0  0  0  0
   -3.0560   24.2590  -27.5690 C   0  0  0  0  0  0  0  0  0  0  0  0
   -3.0670   25.0110  -26.3910 C   0  0  0  0  0  0  0  0  0  0  0  0
   -2.0070   25.8740  -26.1010 C   0  0  0  0  0  0  0  0  0  0  0  0
   -0.9390   25.9920  -26.9940 C   0  0  0  0  0  0  0  0  0  0  0  0
   -0.9260   25.2410  -28.1740 C   0  0  0  0  0  0  0  0  0  0  0  0
   -4.2190   23.2440  -30.7670 C   0  0  0  0  0  0  0  0  0  0  0  0
   -4.6250   24.5630  -30.8340 C   0  0  0  0  0  0  0  0  0  0  0  0
   -3.8840   25.6800  -30.4730 O   0  0  0  0  0  0  0  0  0  0  0  0
   -5.9320   24.5760  -31.2670 C   0  0  0  0  0  0  0  0  0  0  0  0
   -6.3350   23.3380  -31.4490 O   0  0  0  0  0  0  0  0  0  0  0  0
   -5.3420   22.5230  -31.1630 C   0  0  0  0  0  0  0  0  0  0  0  0
   -5.4600   21.0980  -31.2580 N   0  0  0  0  0  0  0  0  0  0  0  0
   -6.6730   20.4300  -31.6290 C   0  0  0  0  0  0  0  0  0  0  0  0
   -7.9030   21.0130  -31.2910 C   0  0  0  0  0  0  0  0  0  0  0  0
   -9.1020   20.3770  -31.6200 C   0  0  0  0  0  0  0  0  0  0  0  0
   -9.0820   19.1630  -32.3100 C   0  0  0  0  0  0  0  0  0  0  0  0
   -7.8640   18.5940  -32.6890 C   0  0  0  0  0  0  0  0  0  0  0  0
   -6.6580   19.2250  -32.3640 C   0  0  0  0  0  0  0  0  0  0  0  0
   -5.1600   18.5410  -32.9850 Cl  0  0  0  0  0  0  0  0  0  0  0  0
   -3.8974   23.5889  -27.7994 H   0  0  0  0  0  0  0  0  0  0  0  0
   -3.9112   24.9234  -25.6912 H   0  0  0  0  0  0  0  0  0  0  0  0
   -2.0134   26.4601  -25.1702 H   0  0  0  0  0  0  0  0  0  0  0  0
   -0.1076   26.6761  -26.7689 H   0  0  0  0  0  0  0  0  0  0  0  0
   -0.0894   25.3456  -28.8805 H   0  0  0  0  0  0  0  0  0  0  0  0
   -6.5407   25.4769  -31.4337 H   0  0  0  0  0  0  0  0  0  0  0  0
   -4.6320   20.5170  -30.9990 H   0  0  0  0  0  0  0  0  0  0  0  0
   -7.9234   21.9778  -30.7631 H   0  0  0  0  0  0  0  0  0  0  0  0
  -10.0621   20.8323  -31.3357 H   0  0  0  0  0  0  0  0  0  0  0  0
  -10.0261   18.6545  -32.5552 H   0  0  0  0  0  0  0  0  0  0  0  0
   -7.8527   17.6453  -33.2456 H   0  0  0  0  0  0  0  0  0  0  0  0
  1  2  2  0
  2  3  1  0
  3  4  1  0
  4  5  2  0
  5  6  1  0
  6  7  2  0
  7  8  1  0
  8  9  2  0
  2 10  1  0
 10 11  1  0
 11 12  1  0
 11 13  2  0
 13 14  1  0
 14 15  1  0
 15 16  1  0
 16 17  1  0
 17 18  2  0
 18 19  1  0
 19 20  2  0
 20 21  1  0
 21 22  2  0
 22 23  1  0
  9  4  1  0
 15 10  2  0
 22 17  1  0
  5 24  1  0
  6 25  1  0
  7 26  1  0
  8 27  1  0
  9 28  1  0
 13 29  1  0
 16 30  1  0
 18 31  1  0
 19 32  1  0
 20 33  1  0
 21 34  1  0
M  CHG  2   3  -1  12  -1
M  END
>  <UniqueID>  (32) 
30

>  <SMILES>  (32) 
O=C([N-]c1ccccc1)c1c([O-])coc1Nc1ccccc1Cl

>  <Energy>  (32) 
80.74794953170729

>  <Genealogy>  (32) 
O=C([N-]c1ccccc1)c1c([O-])coc1Nc1ccccc1Cl (protonated)
O=C([N-]c1ccccc1)c1c([O-])coc1Nc1ccccc1Cl (3D coordinates assigned)
O=C([N-]c1ccccc1)c1c([O-])coc1Nc1ccccc1Cl (optimized conformer: 80.74794953170729 kcal/mol)

>  <smiles>  (32) 
O=C(Nc1ccccc1)c1c(O)coc1Nc1ccccc1Cl

>  <score_type>  (32) 
oracle

>  <origin>  (32) 
adgpu

>  <m_score__min__energy>  (32) 
-11.210000000000001

>  <m_primary>  (32) 
energy

$$$$
32:0
     RDKit          3D

 29 30  0  0  0  0  0  0  0  0999 V2000
   -7.7950   19.2630  -31.8200 C   0  0  0  0  0  0  0  0  0  0  0  0
   -6.8900   18.4940  -32.7350 C   0  0  0  0  0  0  0  0  0  0  0  0
   -7.2790   17.2450  -33.1110 N   0  0  0  0  0  0  0  0  0  0  0  0
   -6.5270   16.4900  -33.9480 C   0  0  0  0  0  0  0  0  0  0  0  0
   -6.9150   15.3370  -34.2740 O   0  0  0  0  0  0  0  0  0  0  0  0
   -5.3640   16.9770  -34.4400 N   0  0  0  0  0  0  0  0  0  0  0  0
   -4.9180   18.2120  -34.0970 C   0  0  0  0  0  0  0  0  0  0  0  0
   -3.8410   18.6310  -34.5980 O   0  0  0  0  0  0  0  0  0  0  0  0
   -5.6580   19.0090  -33.2030 C   0  0  0  0  0  0  0  0  0  0  0  0
   -5.0620   20.6210  -32.7350 S   0  0  0  0  0  0  0  0  0  0  0  0
   -6.1730   21.6340  -32.7090 O   0  0  0  0  0  0  0  0  0  0  0  0
   -4.0280   21.0580  -33.7320 O   0  0  0  0  0  0  0  0  0  0  0  0
   -4.3400   20.5790  -31.1590 N   0  0  0  0  0  0  0  0  0  0  0  0
   -3.5200   21.6140  -30.5990 C   0  0  0  0  0  0  0  0  0  0  0  0
   -2.3550   21.3310  -29.8670 C   0  0  0  0  0  0  0  0  0  0  0  0
   -1.5800   22.3700  -29.3470 C   0  0  0  0  0  0  0  0  0  0  0  0
   -1.9470   23.7120  -29.5460 C   0  0  0  0  0  0  0  0  0  0  0  0
   -1.0990   24.7910  -28.9780 C   0  0  0  0  0  0  0  0  0  0  0  0
   -1.4900   25.9880  -28.9720 O   0  0  0  0  0  0  0  0  0  0  0  0
    0.1490   24.4930  -28.4430 O   0  0  0  0  0  0  0  0  0  0  0  0
   -3.1200   23.9930  -30.2830 C   0  0  0  0  0  0  0  0  0  0  0  0
   -3.5330   25.3010  -30.5110 O   0  0  0  0  0  0  0  0  0  0  0  0
   -3.8920   22.9470  -30.8000 C   0  0  0  0  0  0  0  0  0  0  0  0
   -7.5340   19.0412  -30.7747 H   0  0  0  0  0  0  0  0  0  0  0  0
   -7.6759   20.3404  -32.0070 H   0  0  0  0  0  0  0  0  0  0  0  0
   -8.8391   18.9716  -32.0070 H   0  0  0  0  0  0  0  0  0  0  0  0
   -2.0518   20.2865  -29.7026 H   0  0  0  0  0  0  0  0  0  0  0  0
   -0.6707   22.1350  -28.7743 H   0  0  0  0  0  0  0  0  0  0  0  0
   -4.8033   23.1761  -31.3719 H   0  0  0  0  0  0  0  0  0  0  0  0
  1  2  1  0
  2  3  1  0
  3  4  1  0
  4  5  2  0
  4  6  1  0
  6  7  1  0
  7  8  2  0
  7  9  1  0
  9 10  1  0
 10 11  2  0
 10 12  2  0
 10 13  1  0
 13 14  1  0
 14 15  2  0
 15 16  1  0
 16 17  2  0
 17 18  1  0
 18 19  2  0
 18 20  1  0
 17 21  1  0
 21 22  1  0
 21 23  2  0
  9  2  2  0
 23 14  1  0
  1 24  1  0
  1 25  1  0
  1 26  1  0
 15 27  1  0
 16 28  1  0
 23 29  1  0
M  CHG  5   3  -1   6  -1  13  -1  20  -1  22  -1
M  END
>  <UniqueID>  (33) 
31

>  <SMILES>  (33) 
Cc1[n-]c(=O)[n-]c(=O)c1S(=O)(=O)[N-]c1ccc(C(=O)[O-])c([O-])c1

>  <Energy>  (33) 
39.34432647210504

>  <Genealogy>  (33) 
Cc1[n-]c(=O)[n-]c(=O)c1S(=O)(=O)[N-]c1ccc(C(=O)[O-])c([O-])c1 (protonated)
Cc1[n-]c(=O)[n-]c(=O)c1S(=O)(=O)[N-]c1ccc(C(=O)[O-])c([O-])c1 (3D coordinates assigned)
Cc1[n-]c(=O)[n-]c(=O)c1S(=O)(=O)[N-]c1ccc(C(=O)[O-])c([O-])c1 (optimized conformer: 39.34432647210504 kcal/mol)

>  <smiles>  (33) 
Cc1[nH]c(=O)[nH]c(=O)c1S(=O)(=O)Nc1ccc(C(=O)O)c(O)c1

>  <score_type>  (33) 
oracle

>  <origin>  (33) 
adgpu

>  <m_score__min__energy>  (33) 
-12.24

>  <m_primary>  (33) 
energy

$$$$
33:0
     RDKit          3D

 37 39  0  0  0  0  0  0  0  0999 V2000
   -4.5360   20.4800  -32.9920 O   0  0  0  0  0  0  0  0  0  0  0  0
   -5.1960   21.2260  -32.2200 C   0  0  0  0  0  0  0  0  0  0  0  0
   -4.4890   22.2880  -31.4620 C   0  0  0  0  0  0  0  0  0  0  0  0
   -3.1960   22.0520  -30.9610 C   0  0  0  0  0  0  0  0  0  0  0  0
   -2.5110   23.0540  -30.2690 C   0  0  0  0  0  0  0  0  0  0  0  0
   -3.1130   24.2980  -30.0590 C   0  0  0  0  0  0  0  0  0  0  0  0
   -2.4300   25.2950  -29.3740 O   0  0  0  0  0  0  0  0  0  0  0  0
   -4.4050   24.5370  -30.5370 C   0  0  0  0  0  0  0  0  0  0  0  0
   -5.0920   23.5380  -31.2320 C   0  0  0  0  0  0  0  0  0  0  0  0
   -6.6580   21.0000  -32.0920 C   0  0  0  0  0  0  0  0  0  0  0  0
   -7.5010   22.1240  -32.0930 C   0  0  0  0  0  0  0  0  0  0  0  0
   -8.8870   21.9780  -32.0230 C   0  0  0  0  0  0  0  0  0  0  0  0
   -9.6970   23.1110  -32.0400 O   0  0  0  0  0  0  0  0  0  0  0  0
   -9.4480   20.7020  -31.9420 C   0  0  0  0  0  0  0  0  0  0  0  0
   -8.6300   19.5710  -31.9120 C   0  0  0  0  0  0  0  0  0  0  0  0
   -9.2210   18.3160  -31.8030 O   0  0  0  0  0  0  0  0  0  0  0  0
   -7.2280   19.7020  -31.9720 C   0  0  0  0  0  0  0  0  0  0  0  0
   -6.3900   18.4780  -31.8900 C   0  0  0  0  0  0  0  0  0  0  0  0
   -6.2940   17.8840  -30.7810 O   0  0  0  0  0  0  0  0  0  0  0  0
   -5.6650   17.9370  -33.0660 C   0  0  0  0  0  0  0  0  0  0  0  0
   -4.6240   17.0070  -32.8840 C   0  0  0  0  0  0  0  0  0  0  0  0
   -3.9560   16.4690  -33.9880 C   0  0  0  0  0  0  0  0  0  0  0  0
   -4.3080   16.8620  -35.2810 C   0  0  0  0  0  0  0  0  0  0  0  0
   -5.3300   17.7950  -35.4730 C   0  0  0  0  0  0  0  0  0  0  0  0
   -6.0030   18.3340  -34.3730 C   0  0  0  0  0  0  0  0  0  0  0  0
   -2.7209   21.0719  -31.1151 H   0  0  0  0  0  0  0  0  0  0  0  0
   -1.4965   22.8637  -29.8889 H   0  0  0  0  0  0  0  0  0  0  0  0
   -4.8817   25.5134  -30.3657 H   0  0  0  0  0  0  0  0  0  0  0  0
   -6.1102   23.7302  -31.6013 H   0  0  0  0  0  0  0  0  0  0  0  0
   -7.0630   23.1315  -32.1497 H   0  0  0  0  0  0  0  0  0  0  0  0
   -9.3060   24.0400  -32.1410 H   0  0  0  0  0  0  0  0  0  0  0  0
  -10.5412   20.5871  -31.9016 H   0  0  0  0  0  0  0  0  0  0  0  0
   -4.3346   16.7019  -31.8676 H   0  0  0  0  0  0  0  0  0  0  0  0
   -3.1512   15.7343  -33.8378 H   0  0  0  0  0  0  0  0  0  0  0  0
   -3.7808   16.4371  -36.1479 H   0  0  0  0  0  0  0  0  0  0  0  0
   -5.6055   18.1059  -36.4916 H   0  0  0  0  0  0  0  0  0  0  0  0
   -6.8021   19.0734  -34.5300 H   0  0  0  0  0  0  0  0  0  0  0  0
  1  2  2  0
  2  3  1  0
  3  4  2  0
  4  5  1  0
  5  6  2  0
  6  7  1  0
  6  8  1  0
  8  9  2  0
  2 10  1  0
 10 11  2  0
 11 12  1  0
 12 13  1  0
 12 14  2  0
 14 15  1  0
 15 16  1  0
 15 17  2  0
 17 18  1  0
 18 19  2  0
 18 20  1  0
 20 21  2  0
 21 22  1  0
 22 23  2  0
 23 24  1  0
 24 25  2  0
  9  3  1  0
 17 10  1  0
 25 20  1  0
  4 26  1  0
  5 27  1  0
  8 28  1  0
  9 29  1  0
 11 30  1  0
 13 31  1  0
 14 32  1  0
 21 33  1  0
 22 34  1  0
 23 35  1  0
 24 36  1  0
 25 37  1  0
M  CHG  2   7  -1  16  -1
M  END
>  <UniqueID>  (34) 
32

>  <SMILES>  (34) 
O=C(c1ccc([O-])cc1)c1cc(O)cc([O-])c1C(=O)c1ccccc1

>  <Energy>  (34) 
54.08005440335233

>  <Genealogy>  (34) 
O=C(c1ccc([O-])cc1)c1cc(O)cc([O-])c1C(=O)c1ccccc1 (protonated)
O=C(c1ccc([O-])cc1)c1cc(O)cc([O-])c1C(=O)c1ccccc1 (3D coordinates assigned)
O=C(c1ccc([O-])cc1)c1cc(O)cc([O-])c1C(=O)c1ccccc1 (optimized conformer: 54.08005440335233 kcal/mol)

>  <smiles>  (34) 
O=C(c1ccc(O)cc1)c1cc(O)cc(O)c1C(=O)c1ccccc1

>  <score_type>  (34) 
oracle

>  <origin>  (34) 
adgpu

>  <m_score__min__energy>  (34) 
-10.550000000000001

>  <m_primary>  (34) 
energy

$$$$
34:0
     RDKit          3D

 42 44  0  0  0  0  0  0  0  0999 V2000
   -2.5970   23.3150  -29.6520 O   0  0  0  0  0  0  0  0  0  0  0  0
   -2.7980   24.5520  -29.5110 C   0  0  0  0  0  0  0  0  0  0  0  0
   -1.7770   25.3880  -28.9570 N   0  0  0  0  0  0  0  0  0  0  0  0
   -0.8560   24.9510  -27.9150 C   0  0  0  0  0  0  0  0  0  0  0  0
   -0.9510   25.8550  -26.7260 C   0  0  0  0  0  0  0  0  0  0  0  0
   -1.3050   25.4760  -25.4380 C   0  0  0  0  0  0  0  0  0  0  0  0
   -1.2580   26.5340  -24.5210 C   0  0  0  0  0  0  0  0  0  0  0  0
   -0.8600   27.7400  -25.0830 C   0  0  0  0  0  0  0  0  0  0  0  0
   -0.5650   27.4920  -26.7200 S   0  0  0  0  0  0  0  0  0  0  0  0
   -4.0320   25.1450  -29.9400 N   0  0  0  0  0  0  0  0  0  0  0  0
   -5.1900   24.3970  -30.3480 C   0  0  0  0  0  0  0  0  0  0  0  0
   -5.7500   24.5500  -31.6290 C   0  0  0  0  0  0  0  0  0  0  0  0
   -6.8610   23.7920  -32.0090 C   0  0  0  0  0  0  0  0  0  0  0  0
   -7.4150   22.8570  -31.1250 C   0  0  0  0  0  0  0  0  0  0  0  0
   -8.8050   21.8840  -31.6140 S   0  0  0  0  0  0  0  0  0  0  0  0
   -9.4400   21.2820  -30.3920 O   0  0  0  0  0  0  0  0  0  0  0  0
   -9.8220   22.7740  -32.2710 O   0  0  0  0  0  0  0  0  0  0  0  0
   -8.3560   20.6040  -32.7220 N   0  0  0  0  0  0  0  0  0  0  0  0
   -6.9580   20.2050  -32.5330 C   0  0  0  0  0  0  0  0  0  0  0  0
   -6.9260   18.9570  -31.6620 C   0  0  0  0  0  0  0  0  0  0  0  0
   -8.3490   18.4360  -31.6360 C   0  0  0  0  0  0  0  0  0  0  0  0
   -9.1590   19.3980  -32.4930 C   0  0  0  0  0  0  0  0  0  0  0  0
   -6.8510   22.6910  -29.8530 C   0  0  0  0  0  0  0  0  0  0  0  0
   -5.7400   23.4490  -29.4730 C   0  0  0  0  0  0  0  0  0  0  0  0
   -1.1112   23.9248  -27.6121 H   0  0  0  0  0  0  0  0  0  0  0  0
    0.1708   24.9833  -28.3082 H   0  0  0  0  0  0  0  0  0  0  0  0
   -1.5929   24.4499  -25.1655 H   0  0  0  0  0  0  0  0  0  0  0  0
   -1.5122   26.4203  -23.4568 H   0  0  0  0  0  0  0  0  0  0  0  0
   -0.7554   28.6955  -24.5481 H   0  0  0  0  0  0  0  0  0  0  0  0
   -4.0540   26.1850  -30.0430 H   0  0  0  0  0  0  0  0  0  0  0  0
   -5.3113   25.2700  -32.3355 H   0  0  0  0  0  0  0  0  0  0  0  0
   -7.3025   23.9302  -33.0070 H   0  0  0  0  0  0  0  0  0  0  0  0
   -6.4987   19.9885  -33.5088 H   0  0  0  0  0  0  0  0  0  0  0  0
   -6.3961   21.0173  -32.0488 H   0  0  0  0  0  0  0  0  0  0  0  0
   -6.2504   18.2047  -32.0951 H   0  0  0  0  0  0  0  0  0  0  0  0
   -6.5571   19.1787  -30.6497 H   0  0  0  0  0  0  0  0  0  0  0  0
   -8.3925   17.4200  -32.0553 H   0  0  0  0  0  0  0  0  0  0  0  0
   -8.7408   18.3802  -30.6097 H   0  0  0  0  0  0  0  0  0  0  0  0
   -9.4005   18.9243  -33.4560 H   0  0  0  0  0  0  0  0  0  0  0  0
  -10.0972   19.6604  -31.9821 H   0  0  0  0  0  0  0  0  0  0  0  0
   -7.2838   21.9623  -29.1518 H   0  0  0  0  0  0  0  0  0  0  0  0
   -5.2930   23.3007  -28.4789 H   0  0  0  0  0  0  0  0  0  0  0  0
  1  2  2  0
  2  3  1  0
  3  4  1  0
  4  5  1  0
  5  6  2  0
  6  7  1  0
  7  8  2  0
  8  9  1  0
  2 10  1  0
 10 11  1  0
 11 12  2  0
 12 13  1  0
 13 14  2  0
 14 15  1  0
 15 16  2  0
 15 17  2  0
 15 18  1  0
 18 19  1  0
 19 20  1  0
 20 21  1  0
 21 22  1  0
 14 23  1  0
 23 24  2  0
  9  5  1  0
 24 11  1  0
 22 18  1  0
  4 25  1  0
  4 26  1  0
  6 27  1  0
  7 28  1  0
  8 29  1  0
 10 30  1  0
 12 31  1  0
 13 32  1  0
 19 33  1  0
 19 34  1  0
 20 35  1  0
 20 36  1  0
 21 37  1  0
 21 38  1  0
 22 39  1  0
 22 40  1  0
 23 41  1  0
 24 42  1  0
M  CHG  1   3  -1
M  END
>  <UniqueID>  (35) 
33

>  <SMILES>  (35) 
O=C([N-]Cc1cccs1)Nc1ccc(S(=O)(=O)N2CCCC2)cc1

>  <Energy>  (35) 
68.91870731620645

>  <Genealogy>  (35) 
O=C([N-]Cc1cccs1)Nc1ccc(S(=O)(=O)N2CCCC2)cc1 (protonated)
O=C([N-]Cc1cccs1)Nc1ccc(S(=O)(=O)N2CCCC2)cc1 (3D coordinates assigned)
O=C([N-]Cc1cccs1)Nc1ccc(S(=O)(=O)N2CCCC2)cc1 (nonaromatic ring conformer: 68.91870731620645 kcal/mol)

>  <smiles>  (35) 
O=C(NCc1cccs1)Nc1ccc(S(=O)(=O)N2CCCC2)cc1

>  <score_type>  (35) 
oracle

>  <origin>  (35) 
adgpu

>  <m_score__min__energy>  (35) 
-10.869999999999999

>  <m_primary>  (35) 
energy

$$$$
35:0
     RDKit          3D

 64 67  0  0  0  0  0  0  0  0999 V2000
   -5.7020   25.8810  -30.1080 C   0  0  0  0  0  0  0  0  0  0  0  0
   -4.3830   25.4770  -30.4550 O   0  0  0  0  0  0  0  0  0  0  0  0
   -3.7190   24.3660  -29.9120 C   0  0  0  0  0  0  0  0  0  0  0  0
   -2.4290   24.4740  -29.3550 C   0  0  0  0  0  0  0  0  0  0  0  0
   -1.7840   23.3490  -28.8370 C   0  0  0  0  0  0  0  0  0  0  0  0
   -2.4110   22.1000  -28.8720 C   0  0  0  0  0  0  0  0  0  0  0  0
   -1.6190   20.6720  -28.2120 S   0  0  0  0  0  0  0  0  0  0  0  0
   -2.6720   19.6840  -27.7930 O   0  0  0  0  0  0  0  0  0  0  0  0
   -0.7920   21.0220  -27.0050 O   0  0  0  0  0  0  0  0  0  0  0  0
   -0.6090   19.9440  -29.4180 N   0  0  0  0  0  0  0  0  0  0  0  0
   -0.8730   19.9320  -30.8280 C   0  0  0  0  0  0  0  0  0  0  0  0
   -1.1520   21.1470  -31.4690 C   0  0  0  0  0  0  0  0  0  0  0  0
   -1.4370   21.1750  -32.8380 C   0  0  0  0  0  0  0  0  0  0  0  0
   -1.4380   19.9930  -33.5790 C   0  0  0  0  0  0  0  0  0  0  0  0
   -1.1420   18.7790  -32.9540 C   0  0  0  0  0  0  0  0  0  0  0  0
   -0.8540   18.7460  -31.5850 C   0  0  0  0  0  0  0  0  0  0  0  0
   -3.6890   21.9830  -29.4260 C   0  0  0  0  0  0  0  0  0  0  0  0
   -4.3550   23.1080  -29.9380 C   0  0  0  0  0  0  0  0  0  0  0  0
   -5.6810   22.9610  -30.4740 N   0  0  0  0  0  0  0  0  0  0  0  0
   -6.8430   22.9130  -29.5870 C   0  0  0  0  0  0  0  0  0  0  0  0
   -5.9110   22.7410  -32.1820 S   0  0  0  0  0  0  0  0  0  0  0  0
   -4.5900   22.9020  -32.8830 O   0  0  0  0  0  0  0  0  0  0  0  0
   -6.8710   23.7680  -32.7170 O   0  0  0  0  0  0  0  0  0  0  0  0
   -6.5800   21.1310  -32.4730 C   0  0  0  0  0  0  0  0  0  0  0  0
   -5.7290   20.0960  -32.8900 C   0  0  0  0  0  0  0  0  0  0  0  0
   -6.2220   18.8000  -33.0790 C   0  0  0  0  0  0  0  0  0  0  0  0
   -5.1500   17.4890  -33.5620 S   0  0  0  0  0  0  0  0  0  0  0  0
   -3.8350   17.6030  -32.8390 O   0  0  0  0  0  0  0  0  0  0  0  0
   -4.9000   17.5890  -35.0420 O   0  0  0  0  0  0  0  0  0  0  0  0
   -5.8940   15.9520  -33.1900 N   0  0  0  0  0  0  0  0  0  0  0  0
   -4.8740   14.9090  -32.9320 C   0  0  0  0  0  0  0  0  0  0  0  0
   -4.7520   13.9110  -34.0960 C   0  0  0  0  0  0  0  0  0  0  0  0
   -5.9760   13.2530  -34.3980 O   0  0  0  0  0  0  0  0  0  0  0  0
   -7.1260   14.0740  -34.2310 C   0  0  0  0  0  0  0  0  0  0  0  0
   -6.8370   15.5840  -34.2630 C   0  0  0  0  0  0  0  0  0  0  0  0
   -7.5760   18.5340  -32.8500 C   0  0  0  0  0  0  0  0  0  0  0  0
   -8.4310   19.5570  -32.4340 C   0  0  0  0  0  0  0  0  0  0  0  0
   -7.9420   20.8530  -32.2390 C   0  0  0  0  0  0  0  0  0  0  0  0
   -9.0620   22.0910  -31.6780 Cl  0  0  0  0  0  0  0  0  0  0  0  0
   -5.8001   25.9110  -29.0128 H   0  0  0  0  0  0  0  0  0  0  0  0
   -5.8999   26.8810  -30.5214 H   0  0  0  0  0  0  0  0  0  0  0  0
   -6.4260   25.1634  -30.5214 H   0  0  0  0  0  0  0  0  0  0  0  0
   -1.9263   25.4520  -29.3281 H   0  0  0  0  0  0  0  0  0  0  0  0
   -0.7792   23.4459  -28.4000 H   0  0  0  0  0  0  0  0  0  0  0  0
   -1.1468   22.0836  -30.8921 H   0  0  0  0  0  0  0  0  0  0  0  0
   -1.6611   22.1320  -33.3320 H   0  0  0  0  0  0  0  0  0  0  0  0
   -1.6715   20.0168  -34.6537 H   0  0  0  0  0  0  0  0  0  0  0  0
   -1.1353   17.8475  -33.5391 H   0  0  0  0  0  0  0  0  0  0  0  0
   -0.6119   17.7894  -31.0989 H   0  0  0  0  0  0  0  0  0  0  0  0
   -4.1784   20.9985  -29.4612 H   0  0  0  0  0  0  0  0  0  0  0  0
   -6.5059   22.9269  -28.5400 H   0  0  0  0  0  0  0  0  0  0  0  0
   -7.4856   23.7854  -29.7769 H   0  0  0  0  0  0  0  0  0  0  0  0
   -7.4114   21.9906  -29.7769 H   0  0  0  0  0  0  0  0  0  0  0  0
   -4.6642   20.3054  -33.0700 H   0  0  0  0  0  0  0  0  0  0  0  0
   -3.8997   15.3968  -32.7807 H   0  0  0  0  0  0  0  0  0  0  0  0
   -5.1853   14.3476  -32.0387 H   0  0  0  0  0  0  0  0  0  0  0  0
   -4.4177   14.4563  -34.9909 H   0  0  0  0  0  0  0  0  0  0  0  0
   -4.0311   13.1382  -33.7909 H   0  0  0  0  0  0  0  0  0  0  0  0
   -7.8350   13.8420  -35.0394 H   0  0  0  0  0  0  0  0  0  0  0  0
   -7.5285   13.8519  -33.2317 H   0  0  0  0  0  0  0  0  0  0  0  0
   -6.3986   15.8482  -35.2367 H   0  0  0  0  0  0  0  0  0  0  0  0
   -7.7797   16.1301  -34.1111 H   0  0  0  0  0  0  0  0  0  0  0  0
   -7.9682   17.5170  -32.9979 H   0  0  0  0  0  0  0  0  0  0  0  0
   -9.4955   19.3423  -32.2586 H   0  0  0  0  0  0  0  0  0  0  0  0
  1  2  1  0
  2  3  1  0
  3  4  2  0
  4  5  1  0
  5  6  2  0
  6  7  1  0
  7  8  2  0
  7  9  2  0
  7 10  1  0
 10 11  1  0
 11 12  2  0
 12 13  1  0
 13 14  2  0
 14 15  1  0
 15 16  2  0
  6 17  1  0
 17 18  2  0
 18 19  1  0
 19 20  1  0
 19 21  1  0
 21 22  2  0
 21 23  2  0
 21 24  1  0
 24 25  2  0
 25 26  1  0
 26 27  1  0
 27 28  2  0
 27 29  2  0
 27 30  1  0
 30 31  1  0
 31 32  1  0
 32 33  1  0
 33 34  1  0
 34 35  1  0
 26 36  2  0
 36 37  1  0
 37 38  2  0
 38 39  1  0
 18  3  1  0
 38 24  1  0
 16 11  1  0
 35 30  1  0
  1 40  1  0
  1 41  1  0
  1 42  1  0
  4 43  1  0
  5 44  1  0
 12 45  1  0
 13 46  1  0
 14 47  1  0
 15 48  1  0
 16 49  1  0
 17 50  1  0
 20 51  1  0
 20 52  1  0
 20 53  1  0
 25 54  1  0
 31 55  1  0
 31 56  1  0
 32 57  1  0
 32 58  1  0
 34 59  1  0
 34 60  1  0
 35 61  1  0
 35 62  1  0
 36 63  1  0
 37 64  1  0
M  CHG  1  10  -1
M  END
>  <UniqueID>  (36) 
34

>  <SMILES>  (36) 
COc1ccc(S(=O)(=O)[N-]c2ccccc2)cc1N(C)S(=O)(=O)c1cc(S(=O)(=O)N2CCOCC2)ccc1Cl

>  <Energy>  (36) 
88.22412526234805

>  <Genealogy>  (36) 
COc1ccc(S(=O)(=O)[N-]c2ccccc2)cc1N(C)S(=O)(=O)c1cc(S(=O)(=O)N2CCOCC2)ccc1Cl (protonated)
COc1ccc(S(=O)(=O)[N-]c2ccccc2)cc1N(C)S(=O)(=O)c1cc(S(=O)(=O)N2CCOCC2)ccc1Cl (3D coordinates assigned)
COc1ccc(S(=O)(=O)[N-]c2ccccc2)cc1N(C)S(=O)(=O)c1cc(S(=O)(=O)N2CCOCC2)ccc1Cl (nonaromatic ring conformer: 88.22412526234805 kcal/mol)

>  <smiles>  (36) 
COc1ccc(S(=O)(=O)Nc2ccccc2)cc1N(C)S(=O)(=O)c1cc(S(=O)(=O)N2CCOCC2)ccc1Cl

>  <score_type>  (36) 
oracle

>  <origin>  (36) 
adgpu

>  <m_score__min__energy>  (36) 
-12.789999999999999

>  <m_primary>  (36) 
energy

$$$$
36:0
     RDKit          3D

 54 57  0  0  0  0  0  0  0  0999 V2000
   -2.7810   24.8140  -27.0460 C   0  0  0  0  0  0  0  0  0  0  0  0
   -2.4290   24.8430  -28.4270 O   0  0  0  0  0  0  0  0  0  0  0  0
   -2.6640   23.7930  -29.3290 C   0  0  0  0  0  0  0  0  0  0  0  0
   -2.1270   22.5060  -29.1340 C   0  0  0  0  0  0  0  0  0  0  0  0
   -2.3840   21.4880  -30.0540 C   0  0  0  0  0  0  0  0  0  0  0  0
   -3.1780   21.7360  -31.1800 C   0  0  0  0  0  0  0  0  0  0  0  0
   -3.4440   20.6800  -32.1270 N   0  0  0  0  0  0  0  0  0  0  0  0
   -2.4430   19.8180  -32.4760 C   0  0  0  0  0  0  0  0  0  0  0  0
   -1.2870   19.9620  -31.9860 O   0  0  0  0  0  0  0  0  0  0  0  0
   -2.6960   18.7760  -33.3780 C   0  0  0  0  0  0  0  0  0  0  0  0
   -1.6840   17.8620  -33.7290 C   0  0  0  0  0  0  0  0  0  0  0  0
   -1.9440   16.8060  -34.6170 C   0  0  0  0  0  0  0  0  0  0  0  0
   -0.9560   15.8780  -34.9830 O   0  0  0  0  0  0  0  0  0  0  0  0
   -0.2960   15.8540  -36.2440 C   0  0  0  0  0  0  0  0  0  0  0  0
   -3.2250   16.6590  -35.1570 C   0  0  0  0  0  0  0  0  0  0  0  0
   -3.4530   15.5840  -36.0330 O   0  0  0  0  0  0  0  0  0  0  0  0
   -3.4490   14.2120  -35.6510 C   0  0  0  0  0  0  0  0  0  0  0  0
   -4.2360   17.5750  -34.8170 C   0  0  0  0  0  0  0  0  0  0  0  0
   -3.9910   18.6510  -33.9300 C   0  0  0  0  0  0  0  0  0  0  0  0
   -4.9720   19.5630  -33.5870 N   0  0  0  0  0  0  0  0  0  0  0  0
   -6.3360   19.4840  -34.1610 C   0  0  0  0  0  0  0  0  0  0  0  0
   -7.3500   19.2280  -33.0880 C   0  0  0  0  0  0  0  0  0  0  0  0
   -8.3640   20.0870  -32.7110 C   0  0  0  0  0  0  0  0  0  0  0  0
   -9.0380   19.4400  -31.6980 C   0  0  0  0  0  0  0  0  0  0  0  0
   -8.3980   18.2290  -31.5230 C   0  0  0  0  0  0  0  0  0  0  0  0
   -7.3970   18.1320  -32.3670 O   0  0  0  0  0  0  0  0  0  0  0  0
   -4.6960   20.5500  -32.6680 C   0  0  0  0  0  0  0  0  0  0  0  0
   -5.6090   21.3450  -32.3020 O   0  0  0  0  0  0  0  0  0  0  0  0
   -3.7150   23.0150  -31.3780 C   0  0  0  0  0  0  0  0  0  0  0  0
   -3.4630   24.0490  -30.4560 C   0  0  0  0  0  0  0  0  0  0  0  0
   -3.9850   25.3410  -30.6240 O   0  0  0  0  0  0  0  0  0  0  0  0
   -5.3590   25.6820  -30.4710 C   0  0  0  0  0  0  0  0  0  0  0  0
   -1.8702   24.8890  -26.4338 H   0  0  0  0  0  0  0  0  0  0  0  0
   -3.4460   25.6604  -26.8192 H   0  0  0  0  0  0  0  0  0  0  0  0
   -3.2985   23.8702  -26.8192 H   0  0  0  0  0  0  0  0  0  0  0  0
   -1.5018   22.3017  -28.2523 H   0  0  0  0  0  0  0  0  0  0  0  0
   -1.9604   20.4856  -29.8933 H   0  0  0  0  0  0  0  0  0  0  0  0
   -0.6768   17.9768  -33.3020 H   0  0  0  0  0  0  0  0  0  0  0  0
    0.7921   15.8144  -36.0876 H   0  0  0  0  0  0  0  0  0  0  0  0
   -0.6177   14.9670  -36.8094 H   0  0  0  0  0  0  0  0  0  0  0  0
   -0.5524   16.7621  -36.8094 H   0  0  0  0  0  0  0  0  0  0  0  0
   -3.4488   14.1369  -34.5536 H   0  0  0  0  0  0  0  0  0  0  0  0
   -4.3457   13.7171  -36.0522 H   0  0  0  0  0  0  0  0  0  0  0  0
   -2.5494   13.7223  -36.0522 H   0  0  0  0  0  0  0  0  0  0  0  0
   -5.2399   17.4529  -35.2499 H   0  0  0  0  0  0  0  0  0  0  0  0
   -6.5724   20.4346  -34.6614 H   0  0  0  0  0  0  0  0  0  0  0  0
   -6.3679   18.6539  -34.8820 H   0  0  0  0  0  0  0  0  0  0  0  0
   -8.5866   21.0789  -33.1311 H   0  0  0  0  0  0  0  0  0  0  0  0
   -9.9101   19.8131  -31.1410 H   0  0  0  0  0  0  0  0  0  0  0  0
   -8.6835   17.4620  -30.7880 H   0  0  0  0  0  0  0  0  0  0  0  0
   -4.3392   23.2131  -32.2618 H   0  0  0  0  0  0  0  0  0  0  0  0
   -5.6047   25.7430  -29.4005 H   0  0  0  0  0  0  0  0  0  0  0  0
   -5.5506   26.6549  -30.9471 H   0  0  0  0  0  0  0  0  0  0  0  0
   -5.9832   24.9115  -30.9471 H   0  0  0  0  0  0  0  0  0  0  0  0
  1  2  1  0
  2  3  1  0
  3  4  2  0
  4  5  1  0
  5  6  2  0
  6  7  1  0
  7  8  1  0
  8  9  2  0
  8 10  1  0
 10 11  2  0
 11 12  1  0
 12 13  1  0
 13 14  1  0
 12 15  2  0
 15 16  1  0
 16 17  1  0
 15 18  1  0
 18 19  2  0
 19 20  1  0
 20 21  1  0
 21 22  1  0
 22 23  2  0
 23 24  1  0
 24 25  2  0
 25 26  1  0
 20 27  1  0
 27 28  2  0
  6 29  1  0
 29 30  2  0
 30 31  1  0
 31 32  1  0
 30  3  1  0
 27  7  1  0
 19 10  1  0
 26 22  1  0
  1 33  1  0
  1 34  1  0
  1 35  1  0
  4 36  1  0
  5 37  1  0
 11 38  1  0
 14 39  1  0
 14 40  1  0
 14 41  1  0
 17 42  1  0
 17 43  1  0
 17 44  1  0
 18 45  1  0
 21 46  1  0
 21 47  1  0
 23 48  1  0
 24 49  1  0
 25 50  1  0
 29 51  1  0
 32 52  1  0
 32 53  1  0
 32 54  1  0
M  END
>  <UniqueID>  (37) 
35

>  <SMILES>  (37) 
COc1ccc(-n2c(=O)c3cc(OC)c(OC)cc3n(Cc3ccco3)c2=O)cc1OC

>  <Energy>  (37) 
102.65581924954346

>  <Genealogy>  (37) 
COc1ccc(-n2c(=O)c3cc(OC)c(OC)cc3n(Cc3ccco3)c2=O)cc1OC (3D coordinates assigned)
COc1ccc(-n2c(=O)c3cc(OC)c(OC)cc3n(Cc3ccco3)c2=O)cc1OC (optimized conformer: 102.65581924954346 kcal/mol)

>  <smiles>  (37) 
COc1ccc(-n2c(=O)c3cc(OC)c(OC)cc3n(Cc3ccco3)c2=O)cc1OC

>  <score_type>  (37) 
oracle

>  <origin>  (37) 
adgpu

>  <m_score__min__energy>  (37) 
-7.71

>  <m_primary>  (37) 
energy

$$$$
37:0
     RDKit          3D

 25 27  0  0  0  0  0  0  0  0999 V2000
   -4.5030   14.3260  -35.0830 F   0  0  0  0  0  0  0  0  0  0  0  0
   -4.9300   15.5120  -34.5840 C   0  0  0  0  0  0  0  0  0  0  0  0
   -6.1330   15.5820  -33.8780 C   0  0  0  0  0  0  0  0  0  0  0  0
   -6.5770   16.8030  -33.3620 C   0  0  0  0  0  0  0  0  0  0  0  0
   -5.8170   17.9750  -33.5460 C   0  0  0  0  0  0  0  0  0  0  0  0
   -6.2650   19.2850  -33.0080 C   0  0  0  0  0  0  0  0  0  0  0  0
   -5.4140   20.1580  -32.4000 N   0  0  0  0  0  0  0  0  0  0  0  0
   -6.2140   21.1880  -32.0730 C   0  0  0  0  0  0  0  0  0  0  0  0
   -5.8620   22.3680  -31.4240 C   0  0  0  0  0  0  0  0  0  0  0  0
   -6.8790   23.3140  -31.1860 C   0  0  0  0  0  0  0  0  0  0  0  0
   -6.4980   24.8190  -30.3730 Cl  0  0  0  0  0  0  0  0  0  0  0  0
   -8.2070   23.0520  -31.6010 C   0  0  0  0  0  0  0  0  0  0  0  0
   -8.5260   21.8460  -32.2550 C   0  0  0  0  0  0  0  0  0  0  0  0
   -7.4910   20.9400  -32.4700 C   0  0  0  0  0  0  0  0  0  0  0  0
   -7.5470   19.7410  -33.0650 N   0  0  0  0  0  0  0  0  0  0  0  0
   -4.6050   17.8900  -34.2600 C   0  0  0  0  0  0  0  0  0  0  0  0
   -4.1670   16.6660  -34.7730 C   0  0  0  0  0  0  0  0  0  0  0  0
   -6.7335   14.6728  -33.7274 H   0  0  0  0  0  0  0  0  0  0  0  0
   -7.5264   16.8491  -32.8084 H   0  0  0  0  0  0  0  0  0  0  0  0
   -4.8253   22.5557  -31.1077 H   0  0  0  0  0  0  0  0  0  0  0  0
   -8.9952   23.7955  -31.4114 H   0  0  0  0  0  0  0  0  0  0  0  0
   -9.5531   21.6284  -32.5832 H   0  0  0  0  0  0  0  0  0  0  0  0
   -8.3930   19.2860  -33.4690 H   0  0  0  0  0  0  0  0  0  0  0  0
   -3.9986   18.7946  -34.4148 H   0  0  0  0  0  0  0  0  0  0  0  0
   -3.2184   16.6116  -35.3273 H   0  0  0  0  0  0  0  0  0  0  0  0
  1  2  1  0
  2  3  2  0
  3  4  1  0
  4  5  2  0
  5  6  1  0
  6  7  2  0
  7  8  1  0
  8  9  2  0
  9 10  1  0
 10 11  1  0
 10 12  2  0
 12 13  1  0
 13 14  2  0
 14 15  1  0
  5 16  1  0
 16 17  2  0
 17  2  1  0
 15  6  1  0
 14  8  1  0
  3 18  1  0
  4 19  1  0
  9 20  1  0
 12 21  1  0
 13 22  1  0
 15 23  1  0
 16 24  1  0
 17 25  1  0
M  END
>  <UniqueID>  (38) 
36

>  <SMILES>  (38) 
Fc1ccc(-c2nc3cc(Cl)ccc3[nH]2)cc1

>  <Energy>  (38) 
65.79596604139678

>  <Genealogy>  (38) 
Fc1ccc(-c2nc3cc(Cl)ccc3[nH]2)cc1 (3D coordinates assigned)
Fc1ccc(-c2nc3cc(Cl)ccc3[nH]2)cc1 (optimized conformer: 65.79596604139678 kcal/mol)

>  <smiles>  (38) 
Fc1ccc(-c2nc3cc(Cl)ccc3[nH]2)cc1

>  <score_type>  (38) 
oracle

>  <origin>  (38) 
adgpu

>  <m_score__min__energy>  (38) 
-6.4199999999999999

>  <m_primary>  (38) 
energy

$$$$
38:0
     RDKit          3D

 42 44  0  0  0  0  0  0  0  0999 V2000
   -5.9480   15.8360  -33.5770 C   0  0  0  0  0  0  0  0  0  0  0  0
   -6.3970   17.1490  -33.0270 C   0  0  0  0  0  0  0  0  0  0  0  0
   -6.7940   18.2500  -33.7660 C   0  0  0  0  0  0  0  0  0  0  0  0
   -7.1400   19.1670  -32.7970 C   0  0  0  0  0  0  0  0  0  0  0  0
   -7.6060   20.3560  -33.0400 N   0  0  0  0  0  0  0  0  0  0  0  0
   -8.0760   21.4940  -31.8130 S   0  0  0  0  0  0  0  0  0  0  0  0
   -8.5620   20.7340  -30.6070 O   0  0  0  0  0  0  0  0  0  0  0  0
   -9.1960   22.3480  -32.3390 O   0  0  0  0  0  0  0  0  0  0  0  0
   -6.7150   22.5060  -31.3360 C   0  0  0  0  0  0  0  0  0  0  0  0
   -5.4170   22.2160  -31.7810 C   0  0  0  0  0  0  0  0  0  0  0  0
   -4.3520   23.0440  -31.4230 C   0  0  0  0  0  0  0  0  0  0  0  0
   -4.5640   24.1550  -30.5860 C   0  0  0  0  0  0  0  0  0  0  0  0
   -3.4910   25.0120  -30.1710 N   0  0  0  0  0  0  0  0  0  0  0  0
   -2.3050   24.6220  -28.9660 S   0  0  0  0  0  0  0  0  0  0  0  0
   -2.8430   24.9830  -27.6100 O   0  0  0  0  0  0  0  0  0  0  0  0
   -1.0600   25.4250  -29.2200 O   0  0  0  0  0  0  0  0  0  0  0  0
   -1.9600   22.8950  -29.0000 C   0  0  0  0  0  0  0  0  0  0  0  0
   -1.3250   22.3380  -30.1180 C   0  0  0  0  0  0  0  0  0  0  0  0
   -1.0100   20.9790  -30.1380 C   0  0  0  0  0  0  0  0  0  0  0  0
   -1.3220   20.1690  -29.0400 C   0  0  0  0  0  0  0  0  0  0  0  0
   -1.9610   20.7100  -27.9120 C   0  0  0  0  0  0  0  0  0  0  0  0
   -2.2690   19.8800  -26.7750 N   0  0  0  0  0  0  0  0  0  0  0  0
   -1.6630   20.0250  -25.6940 O   0  0  0  0  0  0  0  0  0  0  0  0
   -3.2220   18.8920  -26.8700 O   0  0  0  0  0  0  0  0  0  0  0  0
   -2.2840   22.0790  -27.9040 C   0  0  0  0  0  0  0  0  0  0  0  0
   -5.8580   24.4330  -30.1350 C   0  0  0  0  0  0  0  0  0  0  0  0
   -6.9280   23.6150  -30.5080 C   0  0  0  0  0  0  0  0  0  0  0  0
   -6.9560   18.6350  -31.5730 N   0  0  0  0  0  0  0  0  0  0  0  0
   -6.5140   17.4220  -31.7430 O   0  0  0  0  0  0  0  0  0  0  0  0
   -5.7141   15.1519  -32.7480 H   0  0  0  0  0  0  0  0  0  0  0  0
   -6.7494   15.4036  -34.1942 H   0  0  0  0  0  0  0  0  0  0  0  0
   -5.0497   15.9849  -34.1942 H   0  0  0  0  0  0  0  0  0  0  0  0
   -6.8256   18.3650  -34.8595 H   0  0  0  0  0  0  0  0  0  0  0  0
   -5.2379   21.3341  -32.4135 H   0  0  0  0  0  0  0  0  0  0  0  0
   -3.3408   22.8267  -31.7975 H   0  0  0  0  0  0  0  0  0  0  0  0
   -1.0746   22.9728  -30.9807 H   0  0  0  0  0  0  0  0  0  0  0  0
   -0.5154   20.5432  -31.0186 H   0  0  0  0  0  0  0  0  0  0  0  0
   -1.0647   19.0997  -29.0605 H   0  0  0  0  0  0  0  0  0  0  0  0
   -2.7945   22.5140  -27.0321 H   0  0  0  0  0  0  0  0  0  0  0  0
   -6.0349   25.3008  -29.4826 H   0  0  0  0  0  0  0  0  0  0  0  0
   -7.9425   23.8435  -30.1494 H   0  0  0  0  0  0  0  0  0  0  0  0
   -7.1350   19.0740  -30.6420 H   0  0  0  0  0  0  0  0  0  0  0  0
  1  2  1  0
  2  3  2  0
  3  4  1  0
  4  5  2  3
  5  6  1  0
  6  7  2  0
  6  8  2  0
  6  9  1  0
  9 10  2  0
 10 11  1  0
 11 12  2  0
 12 13  1  0
 13 14  1  0
 14 15  2  0
 14 16  2  0
 14 17  1  0
 17 18  2  0
 18 19  1  0
 19 20  2  0
 20 21  1  0
 21 22  1  0
 22 23  2  0
 22 24  1  0
 21 25  2  0
 12 26  1  0
 26 27  2  0
  4 28  1  0
 28 29  1  0
 29  2  1  0
 27  9  1  0
 25 17  1  0
  1 30  1  0
  1 31  1  0
  1 32  1  0
  3 33  1  0
 10 34  1  0
 11 35  1  0
 18 36  1  0
 19 37  1  0
 20 38  1  0
 25 39  1  0
 26 40  1  0
 27 41  1  0
 28 42  1  0
M  CHG  3  13  -1  22   1  24  -1
M  END
>  <UniqueID>  (39) 
37

>  <SMILES>  (39) 
Cc1cc(=NS(=O)(=O)c2ccc([N-]S(=O)(=O)c3cccc([N+](=O)[O-])c3)cc2)[nH]o1

>  <Energy>  (39) 
82.8698535955719

>  <Genealogy>  (39) 
Cc1cc(=NS(=O)(=O)c2ccc([N-]S(=O)(=O)c3cccc([N+](=O)[O-])c3)cc2)[nH]o1 (protonated)
Cc1cc(=NS(=O)(=O)c2ccc([N-]S(=O)(=O)c3cccc([N+](=O)[O-])c3)cc2)[nH]o1 (3D coordinates assigned)
Cc1cc(=NS(=O)(=O)c2ccc([N-]S(=O)(=O)c3cccc([N+](=O)[O-])c3)cc2)[nH]o1 (optimized conformer: 82.8698535955719 kcal/mol)

>  <smiles>  (39) 
Cc1cc(=NS(=O)(=O)c2ccc(NS(=O)(=O)c3cccc([N+](=O)[O-])c3)cc2)[nH]o1

>  <score_type>  (39) 
oracle

>  <origin>  (39) 
adgpu

>  <m_score__min__energy>  (39) 
-11.220000000000001

>  <m_primary>  (39) 
energy

$$$$
39:0
     RDKit          3D

 25 26  0  0  0  0  0  0  0  0999 V2000
   -7.4860   25.6870  -29.0930 O   0  0  0  0  0  0  0  0  0  0  0  0
   -6.6750   25.1130  -29.8680 C   0  0  0  0  0  0  0  0  0  0  0  0
   -7.1500   24.2590  -30.8650 C   0  0  0  0  0  0  0  0  0  0  0  0
   -6.2280   23.6420  -31.7160 C   0  0  0  0  0  0  0  0  0  0  0  0
   -6.6850   22.7340  -32.7320 N   0  0  0  0  0  0  0  0  0  0  0  0
   -6.5920   21.3030  -32.6340 C   0  0  0  0  0  0  0  0  0  0  0  0
   -5.3920   20.6260  -32.9080 C   0  0  0  0  0  0  0  0  0  0  0  0
   -5.3320   19.2320  -32.8290 C   0  0  0  0  0  0  0  0  0  0  0  0
   -6.4760   18.4850  -32.4890 C   0  0  0  0  0  0  0  0  0  0  0  0
   -6.4180   17.0490  -32.4060 N   0  0  0  0  0  0  0  0  0  0  0  0
   -6.9820   16.3380  -33.2640 O   0  0  0  0  0  0  0  0  0  0  0  0
   -5.7370   16.4360  -31.3800 O   0  0  0  0  0  0  0  0  0  0  0  0
   -7.6800   19.1650  -32.2390 C   0  0  0  0  0  0  0  0  0  0  0  0
   -7.7380   20.5590  -32.3190 C   0  0  0  0  0  0  0  0  0  0  0  0
   -4.8980   23.8710  -31.5360 N   0  0  0  0  0  0  0  0  0  0  0  0
   -4.4520   24.7040  -30.5610 C   0  0  0  0  0  0  0  0  0  0  0  0
   -3.2160   24.9000  -30.4250 O   0  0  0  0  0  0  0  0  0  0  0  0
   -5.3370   25.3230  -29.7340 N   0  0  0  0  0  0  0  0  0  0  0  0
   -8.2285   24.0751  -30.9788 H   0  0  0  0  0  0  0  0  0  0  0  0
   -7.1870   23.1350  -33.5570 H   0  0  0  0  0  0  0  0  0  0  0  0
   -4.4938   21.1967  -33.1865 H   0  0  0  0  0  0  0  0  0  0  0  0
   -4.3834   18.7142  -33.0341 H   0  0  0  0  0  0  0  0  0  0  0  0
   -8.5842   18.5954  -31.9782 H   0  0  0  0  0  0  0  0  0  0  0  0
   -8.6906   21.0769  -32.1333 H   0  0  0  0  0  0  0  0  0  0  0  0
   -4.9860   25.9640  -28.9850 H   0  0  0  0  0  0  0  0  0  0  0  0
  1  2  2  0
  2  3  1  0
  3  4  2  0
  4  5  1  0
  5  6  1  0
  6  7  2  0
  7  8  1  0
  8  9  2  0
  9 10  1  0
 10 11  2  0
 10 12  1  0
  9 13  1  0
 13 14  2  0
  4 15  1  0
 15 16  1  0
 16 17  2  0
 16 18  1  0
 18  2  1  0
 14  6  1  0
  3 19  1  0
  5 20  1  0
  7 21  1  0
  8 22  1  0
 13 23  1  0
 14 24  1  0
 18 25  1  0
M  CHG  3  10   1  12  -1  15  -1
M  END
>  <UniqueID>  (40) 
38

>  <SMILES>  (40) 
O=c1cc(Nc2ccc([N+](=O)[O-])cc2)[n-]c(=O)[nH]1

>  <Energy>  (40) 
31.837899412134202

>  <Genealogy>  (40) 
O=c1cc(Nc2ccc([N+](=O)[O-])cc2)[n-]c(=O)[nH]1 (protonated)
O=c1cc(Nc2ccc([N+](=O)[O-])cc2)[n-]c(=O)[nH]1 (3D coordinates assigned)
O=c1cc(Nc2ccc([N+](=O)[O-])cc2)[n-]c(=O)[nH]1 (optimized conformer: 31.837899412134202 kcal/mol)

>  <smiles>  (40) 
O=c1cc(Nc2ccc([N+](=O)[O-])cc2)[nH]c(=O)[nH]1

>  <score_type>  (40) 
oracle

>  <origin>  (40) 
adgpu

>  <m_score__min__energy>  (40) 
-7.7800000000000002

>  <m_primary>  (40) 
energy

$$$$
40:0
     RDKit          3D

 43 45  0  0  0  0  0  0  0  0999 V2000
   -2.2450   25.4820  -28.9450 O   0  0  0  0  0  0  0  0  0  0  0  0
   -3.0410   24.8860  -29.7200 C   0  0  0  0  0  0  0  0  0  0  0  0
   -3.8720   25.6460  -30.5350 O   0  0  0  0  0  0  0  0  0  0  0  0
   -3.0750   23.4000  -29.7610 C   0  0  0  0  0  0  0  0  0  0  0  0
   -3.5490   22.7510  -30.9170 C   0  0  0  0  0  0  0  0  0  0  0  0
   -3.6080   21.3500  -30.9850 C   0  0  0  0  0  0  0  0  0  0  0  0
   -4.0900   20.6980  -32.1720 N   0  0  0  0  0  0  0  0  0  0  0  0
   -3.5590   19.3840  -32.5550 C   0  0  0  0  0  0  0  0  0  0  0  0
   -4.6860   18.4740  -32.9590 C   0  0  0  0  0  0  0  0  0  0  0  0
   -5.5470   17.9360  -31.9890 C   0  0  0  0  0  0  0  0  0  0  0  0
   -6.6200   17.1250  -32.3720 C   0  0  0  0  0  0  0  0  0  0  0  0
   -6.8450   16.8530  -33.7250 C   0  0  0  0  0  0  0  0  0  0  0  0
   -6.0000   17.3960  -34.6970 C   0  0  0  0  0  0  0  0  0  0  0  0
   -4.9280   18.2100  -34.3170 C   0  0  0  0  0  0  0  0  0  0  0  0
   -5.0290   21.4010  -33.0530 C   0  0  0  0  0  0  0  0  0  0  0  0
   -6.4170   21.3250  -32.4780 C   0  0  0  0  0  0  0  0  0  0  0  0
   -7.3480   20.4110  -32.9990 C   0  0  0  0  0  0  0  0  0  0  0  0
   -8.6220   20.3050  -32.4350 C   0  0  0  0  0  0  0  0  0  0  0  0
   -8.9730   21.1030  -31.3420 C   0  0  0  0  0  0  0  0  0  0  0  0
   -8.0480   22.0050  -30.8090 C   0  0  0  0  0  0  0  0  0  0  0  0
   -6.7710   22.1140  -31.3710 C   0  0  0  0  0  0  0  0  0  0  0  0
   -3.1920   20.5890  -29.8870 C   0  0  0  0  0  0  0  0  0  0  0  0
   -2.7150   21.2160  -28.7370 C   0  0  0  0  0  0  0  0  0  0  0  0
   -2.6510   22.6160  -28.6640 C   0  0  0  0  0  0  0  0  0  0  0  0
   -2.1650   23.2160  -27.5020 O   0  0  0  0  0  0  0  0  0  0  0  0
   -3.8777   23.3501  -31.7790 H   0  0  0  0  0  0  0  0  0  0  0  0
   -2.8656   19.5033  -33.4006 H   0  0  0  0  0  0  0  0  0  0  0  0
   -3.0282   18.9442  -31.6978 H   0  0  0  0  0  0  0  0  0  0  0  0
   -5.3769   18.1532  -30.9242 H   0  0  0  0  0  0  0  0  0  0  0  0
   -7.2878   16.7005  -31.6079 H   0  0  0  0  0  0  0  0  0  0  0  0
   -7.6870   16.2117  -34.0244 H   0  0  0  0  0  0  0  0  0  0  0  0
   -6.1782   17.1830  -35.7614 H   0  0  0  0  0  0  0  0  0  0  0  0
   -4.2717   18.6452  -35.0850 H   0  0  0  0  0  0  0  0  0  0  0  0
   -4.7274   22.4551  -33.1423 H   0  0  0  0  0  0  0  0  0  0  0  0
   -5.0197   20.9288  -34.0465 H   0  0  0  0  0  0  0  0  0  0  0  0
   -7.0730   19.7763  -33.8543 H   0  0  0  0  0  0  0  0  0  0  0  0
   -9.3496   19.5929  -32.8514 H   0  0  0  0  0  0  0  0  0  0  0  0
   -9.9775   21.0209  -30.9014 H   0  0  0  0  0  0  0  0  0  0  0  0
   -8.3240   22.6299  -29.9468 H   0  0  0  0  0  0  0  0  0  0  0  0
   -6.0425   22.8194  -30.9448 H   0  0  0  0  0  0  0  0  0  0  0  0
   -3.2416   19.4910  -29.9315 H   0  0  0  0  0  0  0  0  0  0  0  0
   -2.3864   20.6090  -27.8805 H   0  0  0  0  0  0  0  0  0  0  0  0
   -2.0380   24.2200  -27.4340 H   0  0  0  0  0  0  0  0  0  0  0  0
  1  2  2  0
  2  3  1  0
  2  4  1  0
  4  5  2  0
  5  6  1  0
  6  7  1  0
  7  8  1  0
  8  9  1  0
  9 10  2  0
 10 11  1  0
 11 12  2  0
 12 13  1  0
 13 14  2  0
  7 15  1  0
 15 16  1  0
 16 17  2  0
 17 18  1  0
 18 19  2  0
 19 20  1  0
 20 21  2  0
  6 22  2  0
 22 23  1  0
 23 24  2  0
 24 25  1  0
 24  4  1  0
 14  9  1  0
 21 16  1  0
  5 26  1  0
  8 27  1  0
  8 28  1  0
 10 29  1  0
 11 30  1  0
 12 31  1  0
 13 32  1  0
 14 33  1  0
 15 34  1  0
 15 35  1  0
 17 36  1  0
 18 37  1  0
 19 38  1  0
 20 39  1  0
 21 40  1  0
 22 41  1  0
 23 42  1  0
 25 43  1  0
M  CHG  1   3  -1
M  END
>  <UniqueID>  (41) 
39

>  <SMILES>  (41) 
O=C([O-])c1cc(N(Cc2ccccc2)Cc2ccccc2)ccc1O

>  <Energy>  (41) 
48.068872040468776

>  <Genealogy>  (41) 
O=C([O-])c1cc(N(Cc2ccccc2)Cc2ccccc2)ccc1O (protonated)
O=C([O-])c1cc(N(Cc2ccccc2)Cc2ccccc2)ccc1O (3D coordinates assigned)
O=C([O-])c1cc(N(Cc2ccccc2)Cc2ccccc2)ccc1O (optimized conformer: 48.068872040468776 kcal/mol)

>  <smiles>  (41) 
O=C(O)c1cc(N(Cc2ccccc2)Cc2ccccc2)ccc1O

>  <score_type>  (41) 
oracle

>  <origin>  (41) 
adgpu

>  <m_score__min__energy>  (41) 
-10.15

>  <m_primary>  (41) 
energy

$$$$
41:0
     RDKit          3D

 35 37  0  0  0  0  0  0  0  0999 V2000
   -0.8010   19.4340  -34.2650 C   0  0  0  0  0  0  0  0  0  0  0  0
   -2.2270   19.6570  -33.8900 C   0  0  0  0  0  0  0  0  0  0  0  0
   -2.7170   20.7370  -33.1850 C   0  0  0  0  0  0  0  0  0  0  0  0
   -4.0810   20.5090  -33.1530 C   0  0  0  0  0  0  0  0  0  0  0  0
   -5.1210   21.3520  -32.5180 C   0  0  0  0  0  0  0  0  0  0  0  0
   -6.4770   20.9740  -32.5250 C   0  0  0  0  0  0  0  0  0  0  0  0
   -7.4400   21.7850  -31.9190 C   0  0  0  0  0  0  0  0  0  0  0  0
   -7.0640   22.9770  -31.2980 C   0  0  0  0  0  0  0  0  0  0  0  0
   -5.7200   23.3670  -31.2820 C   0  0  0  0  0  0  0  0  0  0  0  0
   -5.2600   24.8660  -30.4800 S   0  0  0  0  0  0  0  0  0  0  0  0
   -5.8240   24.8640  -29.0870 O   0  0  0  0  0  0  0  0  0  0  0  0
   -5.7960   26.0600  -31.2210 O   0  0  0  0  0  0  0  0  0  0  0  0
   -3.5310   24.9790  -30.3930 N   0  0  0  0  0  0  0  0  0  0  0  0
   -2.6960   24.2400  -29.4900 C   0  0  0  0  0  0  0  0  0  0  0  0
   -2.9970   22.9180  -29.1090 C   0  0  0  0  0  0  0  0  0  0  0  0
   -2.1610   22.2320  -28.2230 C   0  0  0  0  0  0  0  0  0  0  0  0
   -1.0220   22.8560  -27.7070 C   0  0  0  0  0  0  0  0  0  0  0  0
   -0.7160   24.1690  -28.0800 C   0  0  0  0  0  0  0  0  0  0  0  0
   -1.5470   24.8570  -28.9710 C   0  0  0  0  0  0  0  0  0  0  0  0
   -1.2250   26.1600  -29.3380 O   0  0  0  0  0  0  0  0  0  0  0  0
   -4.7520   22.5570  -31.8920 C   0  0  0  0  0  0  0  0  0  0  0  0
   -4.3330   19.3920  -33.7990 O   0  0  0  0  0  0  0  0  0  0  0  0
   -3.2410   18.8540  -34.2610 N   0  0  0  0  0  0  0  0  0  0  0  0
   -0.1927   19.3389  -33.3534 H   0  0  0  0  0  0  0  0  0  0  0  0
   -0.7180   18.5120  -34.8591 H   0  0  0  0  0  0  0  0  0  0  0  0
   -0.4404   20.2867  -34.8591 H   0  0  0  0  0  0  0  0  0  0  0  0
   -2.1567   21.5786  -32.7517 H   0  0  0  0  0  0  0  0  0  0  0  0
   -6.7802   20.0346  -33.0104 H   0  0  0  0  0  0  0  0  0  0  0  0
   -8.4977   21.4831  -31.9314 H   0  0  0  0  0  0  0  0  0  0  0  0
   -7.8254   23.6111  -30.8203 H   0  0  0  0  0  0  0  0  0  0  0  0
   -3.8937   22.4231  -29.5102 H   0  0  0  0  0  0  0  0  0  0  0  0
   -2.4003   21.1987  -27.9314 H   0  0  0  0  0  0  0  0  0  0  0  0
   -0.3668   22.3152  -27.0083 H   0  0  0  0  0  0  0  0  0  0  0  0
    0.1792   24.6613  -27.6723 H   0  0  0  0  0  0  0  0  0  0  0  0
   -3.6962   22.8657  -31.8812 H   0  0  0  0  0  0  0  0  0  0  0  0
  1  2  1  0
  2  3  1  0
  3  4  2  0
  4  5  1  0
  5  6  2  0
  6  7  1  0
  7  8  2  0
  8  9  1  0
  9 10  1  0
 10 11  2  0
 10 12  2  0
 10 13  1  0
 13 14  1  0
 14 15  2  0
 15 16  1  0
 16 17  2  0
 17 18  1  0
 18 19  2  0
 19 20  1  0
  9 21  2  0
  4 22  1  0
 22 23  1  0
 23  2  2  0
 21  5  1  0
 19 14  1  0
  1 24  1  0
  1 25  1  0
  1 26  1  0
  3 27  1  0
  6 28  1  0
  7 29  1  0
  8 30  1  0
 15 31  1  0
 16 32  1  0
 17 33  1  0
 18 34  1  0
 21 35  1  0
M  CHG  2  13  -1  20  -1
M  END
>  <UniqueID>  (42) 
40

>  <SMILES>  (42) 
Cc1cc(-c2cccc(S(=O)(=O)[N-]c3ccccc3[O-])c2)on1

>  <Energy>  (42) 
70.81738016549077

>  <Genealogy>  (42) 
Cc1cc(-c2cccc(S(=O)(=O)[N-]c3ccccc3[O-])c2)on1 (protonated)
Cc1cc(-c2cccc(S(=O)(=O)[N-]c3ccccc3[O-])c2)on1 (3D coordinates assigned)
Cc1cc(-c2cccc(S(=O)(=O)[N-]c3ccccc3[O-])c2)on1 (optimized conformer: 70.81738016549077 kcal/mol)

>  <smiles>  (42) 
Cc1cc(-c2cccc(S(=O)(=O)Nc3ccccc3O)c2)on1

>  <score_type>  (42) 
oracle

>  <origin>  (42) 
adgpu

>  <m_score__min__energy>  (42) 
-13.109999999999999

>  <m_primary>  (42) 
energy

$$$$
42:0
     RDKit          3D

 51 54  0  0  0  0  0  0  0  0999 V2000
   -0.1050   17.7890  -28.9360 C   0  0  0  0  0  0  0  0  0  0  0  0
   -0.7310   18.4810  -27.7720 C   0  0  0  0  0  0  0  0  0  0  0  0
   -0.5670   19.8110  -27.4290 C   0  0  0  0  0  0  0  0  0  0  0  0
   -1.3630   19.9430  -26.3040 C   0  0  0  0  0  0  0  0  0  0  0  0
   -1.5470   21.0150  -25.5940 N   0  0  0  0  0  0  0  0  0  0  0  0
   -0.8010   22.5480  -25.9270 S   0  0  0  0  0  0  0  0  0  0  0  0
   -0.8160   23.3880  -24.6790 O   0  0  0  0  0  0  0  0  0  0  0  0
    0.6260   22.3240  -26.3430 O   0  0  0  0  0  0  0  0  0  0  0  0
   -1.6550   23.3570  -27.2370 C   0  0  0  0  0  0  0  0  0  0  0  0
   -1.0310   24.3650  -27.9850 C   0  0  0  0  0  0  0  0  0  0  0  0
   -1.7260   25.0140  -29.0100 C   0  0  0  0  0  0  0  0  0  0  0  0
   -3.0510   24.6450  -29.3130 C   0  0  0  0  0  0  0  0  0  0  0  0
   -3.8090   25.3010  -30.3400 N   0  0  0  0  0  0  0  0  0  0  0  0
   -5.2210   25.1840  -30.5720 C   0  0  0  0  0  0  0  0  0  0  0  0
   -5.9760   26.1640  -30.3270 O   0  0  0  0  0  0  0  0  0  0  0  0
   -5.7780   23.9210  -31.1350 C   0  0  0  0  0  0  0  0  0  0  0  0
   -7.1770   23.7370  -31.1490 C   0  0  0  0  0  0  0  0  0  0  0  0
   -7.7440   22.5920  -31.7090 C   0  0  0  0  0  0  0  0  0  0  0  0
   -6.9300   21.6080  -32.2680 C   0  0  0  0  0  0  0  0  0  0  0  0
   -5.5440   21.7660  -32.2640 C   0  0  0  0  0  0  0  0  0  0  0  0
   -4.9550   22.9130  -31.7080 C   0  0  0  0  0  0  0  0  0  0  0  0
   -3.5240   23.0340  -31.7340 N   0  0  0  0  0  0  0  0  0  0  0  0
   -2.6370   21.9040  -31.8480 C   0  0  0  0  0  0  0  0  0  0  0  0
   -2.5000   21.1930  -33.0580 C   0  0  0  0  0  0  0  0  0  0  0  0
   -1.6200   20.1100  -33.1450 C   0  0  0  0  0  0  0  0  0  0  0  0
   -0.8610   19.7300  -32.0340 C   0  0  0  0  0  0  0  0  0  0  0  0
   -0.9810   20.4360  -30.8330 C   0  0  0  0  0  0  0  0  0  0  0  0
   -1.8620   21.5190  -30.7400 C   0  0  0  0  0  0  0  0  0  0  0  0
   -3.6750   23.6510  -28.5470 C   0  0  0  0  0  0  0  0  0  0  0  0
   -2.9830   23.0070  -27.5190 C   0  0  0  0  0  0  0  0  0  0  0  0
   -1.9470   18.7660  -26.0260 N   0  0  0  0  0  0  0  0  0  0  0  0
   -1.5540   17.9080  -26.9210 O   0  0  0  0  0  0  0  0  0  0  0  0
    0.5917   17.0188  -28.5734 H   0  0  0  0  0  0  0  0  0  0  0  0
   -0.8886   17.3164  -29.5464 H   0  0  0  0  0  0  0  0  0  0  0  0
    0.4435   18.5215  -29.5464 H   0  0  0  0  0  0  0  0  0  0  0  0
    0.0458   20.5763  -27.9279 H   0  0  0  0  0  0  0  0  0  0  0  0
    0.0093   24.6464  -27.7647 H   0  0  0  0  0  0  0  0  0  0  0  0
   -1.2361   25.8158  -29.5819 H   0  0  0  0  0  0  0  0  0  0  0  0
   -7.8296   24.5072  -30.7122 H   0  0  0  0  0  0  0  0  0  0  0  0
   -8.8367   22.4652  -31.7095 H   0  0  0  0  0  0  0  0  0  0  0  0
   -7.3802   20.7078  -32.7118 H   0  0  0  0  0  0  0  0  0  0  0  0
   -4.9058   20.9839  -32.7010 H   0  0  0  0  0  0  0  0  0  0  0  0
   -3.1160   23.9910  -31.6200 H   0  0  0  0  0  0  0  0  0  0  0  0
   -3.0885   21.4919  -33.9380 H   0  0  0  0  0  0  0  0  0  0  0  0
   -1.5245   19.5554  -34.0901 H   0  0  0  0  0  0  0  0  0  0  0  0
   -0.1704   18.8768  -32.1046 H   0  0  0  0  0  0  0  0  0  0  0  0
   -0.3816   20.1394  -29.9596 H   0  0  0  0  0  0  0  0  0  0  0  0
   -1.9488   22.0729  -29.7936 H   0  0  0  0  0  0  0  0  0  0  0  0
   -4.7190   23.3756  -28.7573 H   0  0  0  0  0  0  0  0  0  0  0  0
   -3.4810   22.2234  -26.9292 H   0  0  0  0  0  0  0  0  0  0  0  0
   -2.6020   18.5550  -25.2390 H   0  0  0  0  0  0  0  0  0  0  0  0
  1  2  1  0
  2  3  2  0
  3  4  1  0
  4  5  2  3
  5  6  1  0
  6  7  2  0
  6  8  2  0
  6  9  1  0
  9 10  2  0
 10 11  1  0
 11 12  2  0
 12 13  1  0
 13 14  1  0
 14 15  2  0
 14 16  1  0
 16 17  2  0
 17 18  1  0
 18 19  2  0
 19 20  1  0
 20 21  2  0
 21 22  1  0
 22 23  1  0
 23 24  2  0
 24 25  1  0
 25 26  2  0
 26 27  1  0
 27 28  2  0
 12 29  1  0
 29 30  2  0
  4 31  1  0
 31 32  1  0
 32  2  1  0
 30  9  1  0
 21 16  1  0
 28 23  1  0
  1 33  1  0
  1 34  1  0
  1 35  1  0
  3 36  1  0
 10 37  1  0
 11 38  1  0
 17 39  1  0
 18 40  1  0
 19 41  1  0
 20 42  1  0
 22 43  1  0
 24 44  1  0
 25 45  1  0
 26 46  1  0
 27 47  1  0
 28 48  1  0
 29 49  1  0
 30 50  1  0
 31 51  1  0
M  CHG  1  13  -1
M  END
>  <UniqueID>  (43) 
41

>  <SMILES>  (43) 
Cc1cc(=NS(=O)(=O)c2ccc([N-]C(=O)c3ccccc3Nc3ccccc3)cc2)[nH]o1

>  <Energy>  (43) 
103.30564146948873

>  <Genealogy>  (43) 
Cc1cc(=NS(=O)(=O)c2ccc([N-]C(=O)c3ccccc3Nc3ccccc3)cc2)[nH]o1 (protonated)
Cc1cc(=NS(=O)(=O)c2ccc([N-]C(=O)c3ccccc3Nc3ccccc3)cc2)[nH]o1 (3D coordinates assigned)
Cc1cc(=NS(=O)(=O)c2ccc([N-]C(=O)c3ccccc3Nc3ccccc3)cc2)[nH]o1 (optimized conformer: 103.30564146948873 kcal/mol)

>  <smiles>  (43) 
Cc1cc(=NS(=O)(=O)c2ccc(NC(=O)c3ccccc3Nc3ccccc3)cc2)[nH]o1

>  <score_type>  (43) 
oracle

>  <origin>  (43) 
adgpu

>  <m_score__min__energy>  (43) 
-11.619999999999999

>  <m_primary>  (43) 
energy

$$$$
43:0
     RDKit          3D

 42 44  0  0  0  0  0  0  0  0999 V2000
    0.6770   17.4020  -29.6580 C   0  0  0  0  0  0  0  0  0  0  0  0
    0.4520   18.3350  -28.1620 S   0  0  0  0  0  0  0  0  0  0  0  0
    1.7920   18.7390  -27.6130 O   0  0  0  0  0  0  0  0  0  0  0  0
   -0.2520   17.4870  -27.1410 O   0  0  0  0  0  0  0  0  0  0  0  0
   -0.5060   19.7710  -28.5080 C   0  0  0  0  0  0  0  0  0  0  0  0
   -0.1540   20.6140  -29.5700 C   0  0  0  0  0  0  0  0  0  0  0  0
   -0.9040   21.7640  -29.8350 C   0  0  0  0  0  0  0  0  0  0  0  0
   -2.0180   22.0850  -29.0390 C   0  0  0  0  0  0  0  0  0  0  0  0
   -2.7800   23.2850  -29.2880 N   0  0  0  0  0  0  0  0  0  0  0  0
   -2.4890   24.5060  -28.5850 C   0  0  0  0  0  0  0  0  0  0  0  0
   -1.6450   25.3280  -29.0330 O   0  0  0  0  0  0  0  0  0  0  0  0
   -3.8840   23.2500  -30.2130 C   0  0  0  0  0  0  0  0  0  0  0  0
   -4.4340   22.0140  -30.5970 C   0  0  0  0  0  0  0  0  0  0  0  0
   -5.4980   21.9550  -31.5090 C   0  0  0  0  0  0  0  0  0  0  0  0
   -6.0760   20.6480  -31.8920 C   0  0  0  0  0  0  0  0  0  0  0  0
   -5.2570   19.6980  -32.5270 C   0  0  0  0  0  0  0  0  0  0  0  0
   -5.7700   18.4500  -32.8920 C   0  0  0  0  0  0  0  0  0  0  0  0
   -7.1060   18.1400  -32.6330 C   0  0  0  0  0  0  0  0  0  0  0  0
   -7.6140   16.8990  -32.9970 O   0  0  0  0  0  0  0  0  0  0  0  0
   -7.9350   19.0800  -32.0130 C   0  0  0  0  0  0  0  0  0  0  0  0
   -7.4310   20.3320  -31.6430 C   0  0  0  0  0  0  0  0  0  0  0  0
   -8.5420   21.5000  -30.9320 Cl  0  0  0  0  0  0  0  0  0  0  0  0
   -6.0290   23.1470  -32.0240 C   0  0  0  0  0  0  0  0  0  0  0  0
   -5.4850   24.3790  -31.6540 C   0  0  0  0  0  0  0  0  0  0  0  0
   -4.4120   24.4360  -30.7590 C   0  0  0  0  0  0  0  0  0  0  0  0
   -3.8650   25.6720  -30.4340 O   0  0  0  0  0  0  0  0  0  0  0  0
   -2.3560   21.2440  -27.9660 C   0  0  0  0  0  0  0  0  0  0  0  0
   -1.6060   20.0950  -27.7030 C   0  0  0  0  0  0  0  0  0  0  0  0
    0.9281   16.3610  -29.4066 H   0  0  0  0  0  0  0  0  0  0  0  0
   -0.2520   17.4233  -30.2466 H   0  0  0  0  0  0  0  0  0  0  0  0
    1.4942   17.8444  -30.2466 H   0  0  0  0  0  0  0  0  0  0  0  0
    0.7157   20.3703  -30.1979 H   0  0  0  0  0  0  0  0  0  0  0  0
   -0.6211   22.4211  -30.6706 H   0  0  0  0  0  0  0  0  0  0  0  0
   -3.0111   24.7256  -27.6420 H   0  0  0  0  0  0  0  0  0  0  0  0
   -4.0252   21.0830  -30.1774 H   0  0  0  0  0  0  0  0  0  0  0  0
   -4.2046   19.9386  -32.7382 H   0  0  0  0  0  0  0  0  0  0  0  0
   -5.1200   17.7114  -33.3839 H   0  0  0  0  0  0  0  0  0  0  0  0
   -8.9887   18.8341  -31.8151 H   0  0  0  0  0  0  0  0  0  0  0  0
   -6.8779   23.1112  -32.7226 H   0  0  0  0  0  0  0  0  0  0  0  0
   -5.9024   25.3085  -32.0684 H   0  0  0  0  0  0  0  0  0  0  0  0
   -3.2173   21.4918  -27.3282 H   0  0  0  0  0  0  0  0  0  0  0  0
   -1.8801   19.4424  -26.8610 H   0  0  0  0  0  0  0  0  0  0  0  0
  1  2  1  0
  2  3  2  0
  2  4  2  0
  2  5  1  0
  5  6  2  0
  6  7  1  0
  7  8  2  0
  8  9  1  0
  9 10  1  0
 10 11  2  0
  9 12  1  0
 12 13  2  0
 13 14  1  0
 14 15  1  0
 15 16  2  0
 16 17  1  0
 17 18  2  0
 18 19  1  0
 18 20  1  0
 20 21  2  0
 21 22  1  0
 14 23  2  0
 23 24  1  0
 24 25  2  0
 25 26  1  0
  8 27  1  0
 27 28  2  0
 28  5  1  0
 25 12  1  0
 21 15  1  0
  1 29  1  0
  1 30  1  0
  1 31  1  0
  6 32  1  0
  7 33  1  0
 10 34  1  0
 13 35  1  0
 16 36  1  0
 17 37  1  0
 20 38  1  0
 23 39  1  0
 24 40  1  0
 27 41  1  0
 28 42  1  0
M  CHG  2  19  -1  26  -1
M  END
>  <UniqueID>  (44) 
42

>  <SMILES>  (44) 
CS(=O)(=O)c1ccc(N(C=O)c2cc(-c3ccc([O-])cc3Cl)ccc2[O-])cc1

>  <Energy>  (44) 
60.066145780840756

>  <Genealogy>  (44) 
CS(=O)(=O)c1ccc(N(C=O)c2cc(-c3ccc([O-])cc3Cl)ccc2[O-])cc1 (protonated)
CS(=O)(=O)c1ccc(N(C=O)c2cc(-c3ccc([O-])cc3Cl)ccc2[O-])cc1 (3D coordinates assigned)
CS(=O)(=O)c1ccc(N(C=O)c2cc(-c3ccc([O-])cc3Cl)ccc2[O-])cc1 (optimized conformer: 60.066145780840756 kcal/mol)

>  <smiles>  (44) 
CS(=O)(=O)c1ccc(N(C=O)c2cc(-c3ccc(O)cc3Cl)ccc2O)cc1

>  <score_type>  (44) 
oracle

>  <origin>  (44) 
adgpu

>  <m_score__min__energy>  (44) 
-12.07

>  <m_primary>  (44) 
energy

$$$$
44:0
     RDKit          3D

 54 57  0  0  0  0  0  0  0  0999 V2000
   -8.0080   24.4897  -31.7223 H   0  0  0  0  0  0  0  0  0  0  0  0
   -7.9870   23.3960  -31.8380 C   0  0  0  0  0  0  0  0  0  0  0  0
   -6.7660   22.7320  -31.9840 C   0  0  0  0  0  0  0  0  0  0  0  0
   -5.8259   23.3031  -31.9777 H   0  0  0  0  0  0  0  0  0  0  0  0
   -6.7380   21.3430  -32.1380 C   0  0  0  0  0  0  0  0  0  0  0  0
   -5.7739   20.8244  -32.2450 H   0  0  0  0  0  0  0  0  0  0  0  0
   -7.9350   20.6040  -32.1570 C   0  0  0  0  0  0  0  0  0  0  0  0
   -7.9200   19.1270  -32.3010 C   0  0  0  0  0  0  0  0  0  0  0  0
   -8.9200   18.4690  -31.9050 O   0  0  0  0  0  0  0  0  0  0  0  0
   -6.7710   18.3990  -32.8930 C   0  0  0  0  0  0  0  0  0  0  0  0
   -6.1010   18.8990  -34.0230 C   0  0  0  0  0  0  0  0  0  0  0  0
   -6.4197   19.8522  -34.4700 H   0  0  0  0  0  0  0  0  0  0  0  0
   -5.0330   18.1930  -34.5820 C   0  0  0  0  0  0  0  0  0  0  0  0
   -4.5099   18.6017  -35.4591 H   0  0  0  0  0  0  0  0  0  0  0  0
   -4.6220   16.9720  -34.0380 C   0  0  0  0  0  0  0  0  0  0  0  0
   -3.5430   16.3040  -34.6410 O   0  0  0  0  0  0  0  0  0  0  0  0
   -2.2950   16.9040  -34.9870 C   0  0  0  0  0  0  0  0  0  0  0  0
   -2.4686   17.7022  -35.7237 H   0  0  0  0  0  0  0  0  0  0  0  0
   -1.6348   16.1337  -35.4123 H   0  0  0  0  0  0  0  0  0  0  0  0
   -1.6380   17.4900  -33.7670 C   0  0  0  0  0  0  0  0  0  0  0  0
   -1.6020   16.8120  -32.7070 O   0  0  0  0  0  0  0  0  0  0  0  0
   -1.0990   18.8180  -33.7580 N   0  0  0  0  0  0  0  0  0  0  0  0
   -1.1360   19.7430  -32.6630 C   0  0  0  0  0  0  0  0  0  0  0  0
   -2.1080   20.7540  -32.5860 C   0  0  0  0  0  0  0  0  0  0  0  0
   -2.8783   20.8342  -33.3671 H   0  0  0  0  0  0  0  0  0  0  0  0
   -2.1000   21.6590  -31.5200 C   0  0  0  0  0  0  0  0  0  0  0  0
   -2.8742   22.4378  -31.4562 H   0  0  0  0  0  0  0  0  0  0  0  0
   -1.1100   21.5770  -30.5340 C   0  0  0  0  0  0  0  0  0  0  0  0
   -1.1050   22.7260  -29.1990 S   0  0  0  0  0  0  0  0  0  0  0  0
   -0.4940   24.0320  -29.6250 O   0  0  0  0  0  0  0  0  0  0  0  0
   -0.3000   22.1560  -28.0660 O   0  0  0  0  0  0  0  0  0  0  0  0
   -2.7290   23.0110  -28.6610 N   0  0  0  0  0  0  0  0  0  0  0  0
   -3.5310   23.8440  -29.2460 C   0  0  0  0  0  0  0  0  0  0  0  0
   -3.2090   24.5830  -30.3260 N   0  0  0  0  0  0  0  0  0  0  0  0
   -4.2680   25.2840  -30.6140 O   0  0  0  0  0  0  0  0  0  0  0  0
   -5.2480   25.0270  -29.7750 C   0  0  0  0  0  0  0  0  0  0  0  0
   -6.5900   25.6740  -29.8190 C   0  0  0  0  0  0  0  0  0  0  0  0
   -6.9477   25.8465  -28.7932 H   0  0  0  0  0  0  0  0  0  0  0  0
   -6.5163   26.6355  -30.3481 H   0  0  0  0  0  0  0  0  0  0  0  0
   -7.2964   25.0175  -30.3481 H   0  0  0  0  0  0  0  0  0  0  0  0
   -4.8250   24.0930  -28.8530 C   0  0  0  0  0  0  0  0  0  0  0  0
   -5.3837   23.6559  -28.0123 H   0  0  0  0  0  0  0  0  0  0  0  0
   -0.1250   20.5830  -30.6220 C   0  0  0  0  0  0  0  0  0  0  0  0
    0.6559   20.5145  -29.8503 H   0  0  0  0  0  0  0  0  0  0  0  0
   -0.1330   19.6790  -31.6880 C   0  0  0  0  0  0  0  0  0  0  0  0
    0.6530   18.9130  -31.7614 H   0  0  0  0  0  0  0  0  0  0  0  0
   -5.2990   16.4610  -32.9140 C   0  0  0  0  0  0  0  0  0  0  0  0
   -4.9852   15.5027  -32.4745 H   0  0  0  0  0  0  0  0  0  0  0  0
   -6.3690   17.1670  -32.3540 C   0  0  0  0  0  0  0  0  0  0  0  0
   -6.8998   16.7531  -31.4839 H   0  0  0  0  0  0  0  0  0  0  0  0
   -9.1570   21.2810  -31.9920 C   0  0  0  0  0  0  0  0  0  0  0  0
  -10.0996   20.7141  -31.9833 H   0  0  0  0  0  0  0  0  0  0  0  0
   -9.1800   22.6710  -31.8390 C   0  0  0  0  0  0  0  0  0  0  0  0
  -10.1402   23.1941  -31.7192 H   0  0  0  0  0  0  0  0  0  0  0  0
  1  2  1  0
  2  3  2  0
  3  4  1  0
  3  5  1  0
  5  6  1  0
  5  7  2  0
  7  8  1  0
  8  9  2  0
  8 10  1  0
 10 11  2  0
 11 12  1  0
 11 13  1  0
 13 14  1  0
 13 15  2  0
 15 16  1  0
 16 17  1  0
 17 18  1  0
 17 19  1  0
 17 20  1  0
 20 21  2  0
 20 22  1  0
 22 23  1  0
 23 24  2  0
 24 25  1  0
 24 26  1  0
 26 27  1  0
 26 28  2  0
 28 29  1  0
 29 30  2  0
 29 31  2  0
 29 32  1  0
 32 33  2  0
 33 34  1  0
 34 35  1  0
 35 36  1  0
 36 37  1  0
 37 38  1  0
 37 39  1  0
 37 40  1  0
 36 41  2  0
 41 42  1  0
 28 43  1  0
 43 44  1  0
 43 45  2  0
 45 46  1  0
 15 47  1  0
 47 48  1  0
 47 49  2  0
 49 50  1  0
  7 51  1  0
 51 52  1  0
 51 53  2  0
 53 54  1  0
 53  2  1  0
 49 10  1  0
 45 23  1  0
 41 33  1  0
M  CHG  2  22  -1  34  -1
M  END
>  <UniqueID>  (45) 
43

>  <SMILES>  (45) 
Cc1c/c(=N/S(=O)(=O)c2ccc([N-]C(=O)COc3ccc(C(=O)c4ccccc4)cc3)cc2)[n-]o1

>  <Energy>  (45) 
101.3822919777079

>  <Genealogy>  (45) 
Cc1cc(=NS(=O)(=O)c2ccc([N-]C(=O)COc3ccc(C(=O)c4ccccc4)cc3)cc2)[n-]o1 (protonated)
Cc1c/c(=N/S(=O)(=O)c2ccc([N-]C(=O)COc3ccc(C(=O)c4ccccc4)cc3)cc2)[n-]o1 (cis-trans isomerization)
Cc1c/c(=N/S(=O)(=O)c2ccc([N-]C(=O)COc3ccc(C(=O)c4ccccc4)cc3)cc2)[n-]o1 (3D coordinates assigned)
Cc1c/c(=N/S(=O)(=O)c2ccc([N-]C(=O)COc3ccc(C(=O)c4ccccc4)cc3)cc2)[n-]o1 (optimized conformer: 101.3822919777079 kcal/mol)

>  <smiles>  (45) 
Cc1cc(=NS(=O)(=O)c2ccc(NC(=O)COc3ccc(C(=O)c4ccccc4)cc3)cc2)[nH]o1

>  <score_type>  (45) 
oracle

>  <origin>  (45) 
adgpu

>  <m_score__min__energy>  (45) 
-12.4

>  <m_primary>  (45) 
energy

$$$$
45:0
     RDKit          3D

 58 61  0  0  0  0  0  0  0  0999 V2000
   -2.7880   20.5210  -27.8860 C   0  0  0  0  0  0  0  0  0  0  0  0
   -1.1170   21.2360  -27.8190 S   0  0  0  0  0  0  0  0  0  0  0  0
   -0.6330   20.5380  -29.3930 C   0  0  0  0  0  0  0  0  0  0  0  0
    0.6260   20.0550  -29.5650 N   0  0  0  0  0  0  0  0  0  0  0  0
    1.0130   19.5320  -30.7560 C   0  0  0  0  0  0  0  0  0  0  0  0
    0.1130   19.4800  -31.8210 C   0  0  0  0  0  0  0  0  0  0  0  0
   -1.1890   19.9630  -31.6260 C   0  0  0  0  0  0  0  0  0  0  0  0
   -2.1560   19.9630  -32.6930 N   0  0  0  0  0  0  0  0  0  0  0  0
   -3.0030   18.7790  -32.8950 C   0  0  0  0  0  0  0  0  0  0  0  0
   -4.2260   19.1030  -33.7690 C   0  0  0  0  0  0  0  0  0  0  0  0
   -4.8010   20.5030  -33.4620 C   0  0  0  0  0  0  0  0  0  0  0  0
   -5.5890   20.5470  -31.8410 S   0  0  0  0  0  0  0  0  0  0  0  0
   -6.9400   19.8910  -31.9050 O   0  0  0  0  0  0  0  0  0  0  0  0
   -4.7560   19.7840  -30.8480 O   0  0  0  0  0  0  0  0  0  0  0  0
   -5.7820   22.2400  -31.3300 C   0  0  0  0  0  0  0  0  0  0  0  0
   -7.0650   22.8300  -31.2900 C   0  0  0  0  0  0  0  0  0  0  0  0
   -8.5250   21.9540  -31.7420 Cl  0  0  0  0  0  0  0  0  0  0  0  0
   -7.2090   24.1650  -30.9070 C   0  0  0  0  0  0  0  0  0  0  0  0
   -6.0970   24.9270  -30.5600 C   0  0  0  0  0  0  0  0  0  0  0  0
   -4.8140   24.3620  -30.5790 C   0  0  0  0  0  0  0  0  0  0  0  0
   -3.6510   25.1430  -30.2550 N   0  0  0  0  0  0  0  0  0  0  0  0
   -2.5970   24.7830  -29.3530 C   0  0  0  0  0  0  0  0  0  0  0  0
   -2.5240   23.6170  -28.8830 O   0  0  0  0  0  0  0  0  0  0  0  0
   -1.6120   25.7470  -28.9650 N   0  0  0  0  0  0  0  0  0  0  0  0
   -0.6520   25.5890  -27.9110 C   0  0  0  0  0  0  0  0  0  0  0  0
    0.2120   24.4800  -27.8570 C   0  0  0  0  0  0  0  0  0  0  0  0
    1.1230   24.3480  -26.8050 C   0  0  0  0  0  0  0  0  0  0  0  0
    1.1670   25.3110  -25.7880 C   0  0  0  0  0  0  0  0  0  0  0  0
    2.1050   25.1750  -24.7040 C   0  0  0  0  0  0  0  0  0  0  0  0
    2.8590   25.0660  -23.8330 N   0  0  0  0  0  0  0  0  0  0  0  0
    0.2880   26.4000  -25.8230 C   0  0  0  0  0  0  0  0  0  0  0  0
   -0.6230   26.5320  -26.8750 C   0  0  0  0  0  0  0  0  0  0  0  0
   -4.6520   23.0230  -30.9930 C   0  0  0  0  0  0  0  0  0  0  0  0
   -3.3740   22.4660  -31.0750 O   0  0  0  0  0  0  0  0  0  0  0  0
   -3.7340   21.6250  -33.6020 C   0  0  0  0  0  0  0  0  0  0  0  0
   -2.2910   21.0970  -33.6160 C   0  0  0  0  0  0  0  0  0  0  0  0
   -1.5250   20.4930  -30.4170 N   0  0  0  0  0  0  0  0  0  0  0  0
   -3.1600   20.3618  -26.8631 H   0  0  0  0  0  0  0  0  0  0  0  0
   -3.4606   21.2101  -28.4177 H   0  0  0  0  0  0  0  0  0  0  0  0
   -2.7540   19.5586  -28.4177 H   0  0  0  0  0  0  0  0  0  0  0  0
    2.0365   19.1490  -30.8818 H   0  0  0  0  0  0  0  0  0  0  0  0
    0.4187   19.0683  -32.7942 H   0  0  0  0  0  0  0  0  0  0  0  0
   -2.4094   17.9948  -33.3876 H   0  0  0  0  0  0  0  0  0  0  0  0
   -3.3616   18.4396  -31.9120 H   0  0  0  0  0  0  0  0  0  0  0  0
   -3.9265   19.0661  -34.8268 H   0  0  0  0  0  0  0  0  0  0  0  0
   -5.0066   18.3594  -33.5507 H   0  0  0  0  0  0  0  0  0  0  0  0
   -5.5730   20.7023  -34.2199 H   0  0  0  0  0  0  0  0  0  0  0  0
   -8.2106   24.6188  -30.8792 H   0  0  0  0  0  0  0  0  0  0  0  0
   -6.2258   25.9799  -30.2688 H   0  0  0  0  0  0  0  0  0  0  0  0
    0.1705   23.7140  -28.6454 H   0  0  0  0  0  0  0  0  0  0  0  0
    1.8065   23.4867  -26.7755 H   0  0  0  0  0  0  0  0  0  0  0  0
    0.3142   27.1529  -25.0215 H   0  0  0  0  0  0  0  0  0  0  0  0
   -1.3216   27.3816  -26.8896 H   0  0  0  0  0  0  0  0  0  0  0  0
   -2.8080   22.2660  -30.2580 H   0  0  0  0  0  0  0  0  0  0  0  0
   -3.9169   22.1646  -34.5429 H   0  0  0  0  0  0  0  0  0  0  0  0
   -3.8322   22.2779  -32.7222 H   0  0  0  0  0  0  0  0  0  0  0  0
   -2.0341   20.7692  -34.6341 H   0  0  0  0  0  0  0  0  0  0  0  0
   -1.6118   21.9014  -33.2974 H   0  0  0  0  0  0  0  0  0  0  0  0
  1  2  1  0
  2  3  1  0
  3  4  2  0
  4  5  1  0
  5  6  2  0
  6  7  1  0
  7  8  1  0
  8  9  1  0
  9 10  1  0
 10 11  1  0
 11 12  1  0
 12 13  2  0
 12 14  2  0
 12 15  1  0
 15 16  2  0
 16 17  1  0
 16 18  1  0
 18 19  2  0
 19 20  1  0
 20 21  1  0
 21 22  1  0
 22 23  2  0
 22 24  1  0
 24 25  1  0
 25 26  2  0
 26 27  1  0
 27 28  2  0
 28 29  1  0
 29 30  3  0
 28 31  1  0
 31 32  2  0
 20 33  2  0
 33 34  1  0
 11 35  1  0
 35 36  1  0
  7 37  2  0
 37  3  1  0
 36  8  1  0
 33 15  1  0
 32 25  1  0
  1 38  1  0
  1 39  1  0
  1 40  1  0
  5 41  1  0
  6 42  1  0
  9 43  1  0
  9 44  1  0
 10 45  1  0
 10 46  1  0
 11 47  1  0
 18 48  1  0
 19 49  1  0
 26 50  1  0
 27 51  1  0
 31 52  1  0
 32 53  1  0
 34 54  1  0
 35 55  1  0
 35 56  1  0
 36 57  1  0
 36 58  1  0
M  CHG  2  21  -1  24  -1
M  END
>  <UniqueID>  (46) 
44

>  <SMILES>  (46) 
CSc1nccc(N2CCC(S(=O)(=O)c3c(Cl)ccc([N-]C(=O)[N-]c4ccc(C#N)cc4)c3O)CC2)n1

>  <Energy>  (46) 
71.24556987018093

>  <Genealogy>  (46) 
CSc1nccc(N2CCC(S(=O)(=O)c3c(Cl)ccc([N-]C(=O)[N-]c4ccc(C#N)cc4)c3O)CC2)n1 (protonated)
CSc1nccc(N2CCC(S(=O)(=O)c3c(Cl)ccc([N-]C(=O)[N-]c4ccc(C#N)cc4)c3O)CC2)n1 (3D coordinates assigned)
CSc1nccc(N2CCC(S(=O)(=O)c3c(Cl)ccc([N-]C(=O)[N-]c4ccc(C#N)cc4)c3O)CC2)n1 (nonaromatic ring conformer: 71.24556987018093 kcal/mol)

>  <smiles>  (46) 
CSc1nccc(N2CCC(S(=O)(=O)c3c(Cl)ccc(NC(=O)Nc4ccc(C#N)cc4)c3O)CC2)n1

>  <score_type>  (46) 
oracle

>  <origin>  (46) 
adgpu

>  <m_score__min__energy>  (46) 
-12.300000000000001

>  <m_primary>  (46) 
energy

$$$$
46:0
     RDKit          3D

 47 50  0  0  0  0  0  0  0  0999 V2000
   -9.7180   20.6120  -32.3550 C   0  0  0  0  0  0  0  0  0  0  0  0
   -8.7090   19.5690  -32.1310 N   0  0  0  0  0  0  0  0  0  0  0  0
   -9.1490   18.2410  -31.6860 C   0  0  0  0  0  0  0  0  0  0  0  0
   -7.3000   19.8450  -32.3480 C   0  0  0  0  0  0  0  0  0  0  0  0
   -6.4340   18.8470  -32.8410 C   0  0  0  0  0  0  0  0  0  0  0  0
   -5.0780   19.1120  -33.0470 C   0  0  0  0  0  0  0  0  0  0  0  0
   -4.5480   20.3770  -32.7490 C   0  0  0  0  0  0  0  0  0  0  0  0
   -3.1180   20.6770  -32.9770 C   0  0  0  0  0  0  0  0  0  0  0  0
   -2.4690   20.3170  -34.0990 N   0  0  0  0  0  0  0  0  0  0  0  0
   -1.1890   20.6850  -33.8770 C   0  0  0  0  0  0  0  0  0  0  0  0
   -0.1030   20.4740  -34.8600 C   0  0  0  0  0  0  0  0  0  0  0  0
    0.7100   21.5480  -35.2660 C   0  0  0  0  0  0  0  0  0  0  0  0
    1.7360   21.3470  -36.1940 C   0  0  0  0  0  0  0  0  0  0  0  0
    1.9620   20.0760  -36.7300 C   0  0  0  0  0  0  0  0  0  0  0  0
    2.9880   19.8910  -37.6540 O   0  0  0  0  0  0  0  0  0  0  0  0
    1.1570   19.0000  -36.3320 C   0  0  0  0  0  0  0  0  0  0  0  0
    0.1300   19.1980  -35.4030 C   0  0  0  0  0  0  0  0  0  0  0  0
   -0.9960   21.2650  -32.6730 N   0  0  0  0  0  0  0  0  0  0  0  0
   -2.2150   21.2680  -32.1040 C   0  0  0  0  0  0  0  0  0  0  0  0
   -2.4830   21.8990  -30.7950 C   0  0  0  0  0  0  0  0  0  0  0  0
   -2.7980   21.1220  -29.6660 C   0  0  0  0  0  0  0  0  0  0  0  0
   -3.0660   21.7370  -28.4400 C   0  0  0  0  0  0  0  0  0  0  0  0
   -3.0370   23.1290  -28.3320 C   0  0  0  0  0  0  0  0  0  0  0  0
   -2.7470   23.9110  -29.4540 C   0  0  0  0  0  0  0  0  0  0  0  0
   -2.7270   25.2970  -29.3490 O   0  0  0  0  0  0  0  0  0  0  0  0
   -2.4780   23.3000  -30.6830 C   0  0  0  0  0  0  0  0  0  0  0  0
   -5.4030   21.3820  -32.2820 C   0  0  0  0  0  0  0  0  0  0  0  0
   -6.7610   21.1200  -32.0760 C   0  0  0  0  0  0  0  0  0  0  0  0
  -10.0800   20.9862  -31.3860 H   0  0  0  0  0  0  0  0  0  0  0  0
   -9.2694   21.4401  -32.9234 H   0  0  0  0  0  0  0  0  0  0  0  0
  -10.5605   20.1911  -32.9234 H   0  0  0  0  0  0  0  0  0  0  0  0
   -9.1600   18.2077  -30.5866 H   0  0  0  0  0  0  0  0  0  0  0  0
  -10.1609   18.0426  -32.0690 H   0  0  0  0  0  0  0  0  0  0  0  0
   -8.4558   17.4776  -32.0690 H   0  0  0  0  0  0  0  0  0  0  0  0
   -6.8317   17.8465  -33.0663 H   0  0  0  0  0  0  0  0  0  0  0  0
   -4.4215   18.3243  -33.4453 H   0  0  0  0  0  0  0  0  0  0  0  0
    0.5373   22.5519  -34.8508 H   0  0  0  0  0  0  0  0  0  0  0  0
    2.3680   22.1924  -36.5036 H   0  0  0  0  0  0  0  0  0  0  0  0
    3.7740   19.2820  -37.4580 H   0  0  0  0  0  0  0  0  0  0  0  0
    1.3330   17.9982  -36.7508 H   0  0  0  0  0  0  0  0  0  0  0  0
   -0.4994   18.3500  -35.0953 H   0  0  0  0  0  0  0  0  0  0  0  0
   -2.8336   20.0257  -29.7482 H   0  0  0  0  0  0  0  0  0  0  0  0
   -3.3004   21.1231  -27.5579 H   0  0  0  0  0  0  0  0  0  0  0  0
   -3.2423   23.6101  -27.3643 H   0  0  0  0  0  0  0  0  0  0  0  0
   -2.2615   23.9189  -31.5662 H   0  0  0  0  0  0  0  0  0  0  0  0
   -5.0035   22.3858  -32.0754 H   0  0  0  0  0  0  0  0  0  0  0  0
   -7.4169   21.9177  -31.6973 H   0  0  0  0  0  0  0  0  0  0  0  0
  1  2  1  0
  2  3  1  0
  2  4  1  0
  4  5  2  0
  5  6  1  0
  6  7  2  0
  7  8  1  0
  8  9  1  0
  9 10  2  0
 10 11  1  0
 11 12  2  0
 12 13  1  0
 13 14  2  0
 14 15  1  0
 14 16  1  0
 16 17  2  0
 10 18  1  0
 18 19  1  0
 19 20  1  0
 20 21  2  0
 21 22  1  0
 22 23  2  0
 23 24  1  0
 24 25  1  0
 24 26  2  0
  7 27  1  0
 27 28  2  0
 28  4  1  0
 19  8  2  0
 26 20  1  0
 17 11  1  0
  1 29  1  0
  1 30  1  0
  1 31  1  0
  3 32  1  0
  3 33  1  0
  3 34  1  0
  5 35  1  0
  6 36  1  0
 12 37  1  0
 13 38  1  0
 15 39  1  0
 16 40  1  0
 17 41  1  0
 21 42  1  0
 22 43  1  0
 23 44  1  0
 26 45  1  0
 27 46  1  0
 28 47  1  0
M  CHG  2  18  -1  25  -1
M  END
>  <UniqueID>  (47) 
45

>  <SMILES>  (47) 
CN(C)c1ccc(-c2nc(-c3ccc(O)cc3)[n-]c2-c2cccc([O-])c2)cc1

>  <Energy>  (47) 
88.75743179239248

>  <Genealogy>  (47) 
CN(C)c1ccc(-c2nc(-c3ccc(O)cc3)[n-]c2-c2cccc([O-])c2)cc1 (protonated)
CN(C)c1ccc(-c2nc(-c3ccc(O)cc3)[n-]c2-c2cccc([O-])c2)cc1 (3D coordinates assigned)
CN(C)c1ccc(-c2nc(-c3ccc(O)cc3)[n-]c2-c2cccc([O-])c2)cc1 (optimized conformer: 88.75743179239248 kcal/mol)

>  <smiles>  (47) 
CN(C)c1ccc(-c2nc(-c3ccc(O)cc3)[nH]c2-c2cccc(O)c2)cc1

>  <score_type>  (47) 
oracle

>  <origin>  (47) 
adgpu

>  <m_score__min__energy>  (47) 
-10.26

>  <m_primary>  (47) 
energy

$$$$
47:0
     RDKit          3D

 37 39  0  0  0  0  0  0  0  0999 V2000
   -4.9820   25.3010  -28.9870 H   0  0  0  0  0  0  0  0  0  0  0  0
   -5.7630   24.8660  -29.5240 N   0  0  0  0  0  0  0  0  0  0  0  0
   -5.6960   23.7050  -30.1010 C   0  0  0  0  0  0  0  0  0  0  0  0
   -6.8030   23.2360  -30.7370 N   0  0  0  0  0  0  0  0  0  0  0  0
   -6.8410   22.0140  -31.3270 C   0  0  0  0  0  0  0  0  0  0  0  0
   -7.7583   21.6803  -31.8342 H   0  0  0  0  0  0  0  0  0  0  0  0
   -5.7190   21.1750  -31.2940 C   0  0  0  0  0  0  0  0  0  0  0  0
   -5.7530   19.8330  -31.9310 C   0  0  0  0  0  0  0  0  0  0  0  0
   -6.8530   18.9770  -31.7380 C   0  0  0  0  0  0  0  0  0  0  0  0
   -7.6956   19.3038  -31.1109 H   0  0  0  0  0  0  0  0  0  0  0  0
   -6.8830   17.7150  -32.3370 C   0  0  0  0  0  0  0  0  0  0  0  0
   -7.7491   17.0552  -32.1802 H   0  0  0  0  0  0  0  0  0  0  0  0
   -5.8160   17.2860  -33.1360 C   0  0  0  0  0  0  0  0  0  0  0  0
   -5.8640   15.7020  -33.9010 S   0  0  0  0  0  0  0  0  0  0  0  0
   -5.7390   14.6260  -32.8580 O   0  0  0  0  0  0  0  0  0  0  0  0
   -7.1710   15.5240  -34.6230 O   0  0  0  0  0  0  0  0  0  0  0  0
   -4.5590   15.5640  -35.0260 N   0  0  0  0  0  0  0  0  0  0  0  0
   -4.4630   14.5500  -35.2580 H   0  0  0  0  0  0  0  0  0  0  0  0
   -4.7220   18.1350  -33.3400 C   0  0  0  0  0  0  0  0  0  0  0  0
   -3.8853   17.8071  -33.9744 H   0  0  0  0  0  0  0  0  0  0  0  0
   -4.6880   19.3980  -32.7410 C   0  0  0  0  0  0  0  0  0  0  0  0
   -3.8221   20.0565  -32.9043 H   0  0  0  0  0  0  0  0  0  0  0  0
   -4.5620   21.6360  -30.6500 C   0  0  0  0  0  0  0  0  0  0  0  0
   -3.6700   20.9935  -30.6099 H   0  0  0  0  0  0  0  0  0  0  0  0
   -4.5280   22.9070  -30.0560 C   0  0  0  0  0  0  0  0  0  0  0  0
   -3.2690   23.3620  -29.4240 C   0  0  0  0  0  0  0  0  0  0  0  0
   -2.8410   24.6910  -29.5710 C   0  0  0  0  0  0  0  0  0  0  0  0
   -3.4543   25.4031  -30.1427 H   0  0  0  0  0  0  0  0  0  0  0  0
   -1.6380   25.1150  -28.9940 C   0  0  0  0  0  0  0  0  0  0  0  0
   -1.2370   26.4360  -29.1460 O   0  0  0  0  0  0  0  0  0  0  0  0
   -0.8450   24.2070  -28.2710 C   0  0  0  0  0  0  0  0  0  0  0  0
    0.3560   24.6120  -27.6890 O   0  0  0  0  0  0  0  0  0  0  0  0
    0.6440   25.5830  -27.6710 H   0  0  0  0  0  0  0  0  0  0  0  0
   -1.2660   22.8750  -28.1350 C   0  0  0  0  0  0  0  0  0  0  0  0
   -0.2900   21.7190  -27.2420 Cl  0  0  0  0  0  0  0  0  0  0  0  0
   -2.4690   22.4550  -28.7140 C   0  0  0  0  0  0  0  0  0  0  0  0
   -2.7888   21.4075  -28.6116 H   0  0  0  0  0  0  0  0  0  0  0  0
  1  2  1  0
  2  3  2  0
  3  4  1  0
  4  5  1  0
  5  6  1  0
  5  7  2  0
  7  8  1  0
  8  9  2  0
  9 10  1  0
  9 11  1  0
 11 12  1  0
 11 13  2  0
 13 14  1  0
 14 15  2  0
 14 16  2  0
 14 17  1  0
 17 18  1  0
 13 19  1  0
 19 20  1  0
 19 21  2  0
 21 22  1  0
  7 23  1  0
 23 24  1  0
 23 25  2  0
 25 26  1  0
 26 27  2  0
 27 28  1  0
 27 29  1  0
 29 30  1  0
 29 31  2  0
 31 32  1  0
 32 33  1  0
 31 34  1  0
 34 35  1  0
 34 36  2  0
 36 37  1  0
 25  3  1  0
 36 26  1  0
 21  8  1  0
M  CHG  3   4  -1  17  -1  30  -1
M  END
>  <UniqueID>  (48) 
46

>  <SMILES>  (48) 
[H]/N=c1/[n-]cc(-c2ccc(S([NH-])(=O)=O)cc2)cc1-c1cc([O-])c(O)c(Cl)c1

>  <Energy>  (48) 
55.2919384996856

>  <Genealogy>  (48) 
N=c1[n-]cc(-c2ccc(S([NH-])(=O)=O)cc2)cc1-c1cc([O-])c(O)c(Cl)c1 (protonated)
[H]/N=c1/[n-]cc(-c2ccc(S([NH-])(=O)=O)cc2)cc1-c1cc([O-])c(O)c(Cl)c1 (cis-trans isomerization)
[H]/N=c1/[n-]cc(-c2ccc(S([NH-])(=O)=O)cc2)cc1-c1cc([O-])c(O)c(Cl)c1 (3D coordinates assigned)
[H]/N=c1/[n-]cc(-c2ccc(S([NH-])(=O)=O)cc2)cc1-c1cc([O-])c(O)c(Cl)c1 (optimized conformer: 55.2919384996856 kcal/mol)

>  <smiles>  (48) 
N=c1[nH]cc(-c2ccc(S(N)(=O)=O)cc2)cc1-c1cc(O)c(O)c(Cl)c1

>  <score_type>  (48) 
oracle

>  <origin>  (48) 
adgpu

>  <m_score__min__energy>  (48) 
-10.82

>  <m_primary>  (48) 
energy

$$$$
48:0
     RDKit          3D

 37 38  0  0  0  0  0  0  0  0999 V2000
   -6.7090   17.7070  -31.2340 C   0  0  0  0  0  0  0  0  0  0  0  0
   -7.5610   18.6530  -31.9450 N   0  0  0  0  0  0  0  0  0  0  0  0
   -8.8160   18.9200  -31.6360 N   0  0  0  0  0  0  0  0  0  0  0  0
   -9.3030   19.7590  -32.5380 N   0  0  0  0  0  0  0  0  0  0  0  0
   -8.3790   20.0360  -33.4500 N   0  0  0  0  0  0  0  0  0  0  0  0
   -7.2980   19.3300  -33.0740 C   0  0  0  0  0  0  0  0  0  0  0  0
   -5.7350   19.3200  -33.9610 S   0  0  0  0  0  0  0  0  0  0  0  0
   -5.1530   20.9120  -33.2820 C   0  0  0  0  0  0  0  0  0  0  0  0
   -5.7900   21.1880  -31.9120 C   0  0  0  0  0  0  0  0  0  0  0  0
   -7.1450   21.7640  -32.0180 N   0  0  0  0  0  0  0  0  0  0  0  0
   -7.3240   23.0460  -31.3070 C   0  0  0  0  0  0  0  0  0  0  0  0
   -6.1040   23.4430  -30.5080 C   0  0  0  0  0  0  0  0  0  0  0  0
   -5.2530   24.4570  -30.9740 C   0  0  0  0  0  0  0  0  0  0  0  0
   -4.0990   24.7940  -30.2600 C   0  0  0  0  0  0  0  0  0  0  0  0
   -3.7810   24.1170  -29.0750 C   0  0  0  0  0  0  0  0  0  0  0  0
   -2.3290   24.5360  -28.1730 S   0  0  0  0  0  0  0  0  0  0  0  0
   -1.5050   25.8270  -28.9720 N   0  0  0  0  0  0  0  0  0  0  0  0
   -1.4190   23.3420  -28.0830 O   0  0  0  0  0  0  0  0  0  0  0  0
   -2.7020   24.9630  -26.7810 O   0  0  0  0  0  0  0  0  0  0  0  0
   -4.6360   23.1150  -28.6000 C   0  0  0  0  0  0  0  0  0  0  0  0
   -5.7880   22.7760  -29.3130 C   0  0  0  0  0  0  0  0  0  0  0  0
   -6.8332   17.8449  -30.1498 H   0  0  0  0  0  0  0  0  0  0  0  0
   -6.9929   16.6802  -31.5079 H   0  0  0  0  0  0  0  0  0  0  0  0
   -5.6582   17.8823  -31.5079 H   0  0  0  0  0  0  0  0  0  0  0  0
   -4.0592   20.8779  -33.1705 H   0  0  0  0  0  0  0  0  0  0  0  0
   -5.4433   21.7167  -33.9736 H   0  0  0  0  0  0  0  0  0  0  0  0
   -5.8530   20.2408  -31.3562 H   0  0  0  0  0  0  0  0  0  0  0  0
   -5.1567   21.9231  -31.3938 H   0  0  0  0  0  0  0  0  0  0  0  0
   -7.8400   21.0760  -31.6440 H   0  0  0  0  0  0  0  0  0  0  0  0
   -7.3640   21.9070  -33.0310 H   0  0  0  0  0  0  0  0  0  0  0  0
   -7.5320   23.8330  -32.0468 H   0  0  0  0  0  0  0  0  0  0  0  0
   -8.1585   22.9217  -30.6012 H   0  0  0  0  0  0  0  0  0  0  0  0
   -5.4951   24.9894  -31.9057 H   0  0  0  0  0  0  0  0  0  0  0  0
   -3.4390   25.5927  -30.6295 H   0  0  0  0  0  0  0  0  0  0  0  0
   -1.6100   25.6670  -29.9990 H   0  0  0  0  0  0  0  0  0  0  0  0
   -4.3993   22.5927  -27.6613 H   0  0  0  0  0  0  0  0  0  0  0  0
   -6.4510   21.9829  -28.9369 H   0  0  0  0  0  0  0  0  0  0  0  0
  1  2  1  0
  2  3  1  0
  3  4  2  0
  4  5  1  0
  5  6  2  0
  6  7  1  0
  7  8  1  0
  8  9  1  0
  9 10  1  0
 10 11  1  0
 11 12  1  0
 12 13  2  0
 13 14  1  0
 14 15  2  0
 15 16  1  0
 16 17  1  0
 16 18  2  0
 16 19  2  0
 15 20  1  0
 20 21  2  0
  6  2  1  0
 21 12  1  0
  1 22  1  0
  1 23  1  0
  1 24  1  0
  8 25  1  0
  8 26  1  0
  9 27  1  0
  9 28  1  0
 10 29  1  0
 10 30  1  0
 11 31  1  0
 11 32  1  0
 13 33  1  0
 14 34  1  0
 17 35  1  0
 20 36  1  0
 21 37  1  0
M  CHG  2  10   1  17  -1
M  END
>  <UniqueID>  (49) 
47

>  <SMILES>  (49) 
Cn1nnnc1SCC[NH2+]Cc1ccc(S([NH-])(=O)=O)cc1

>  <Energy>  (49) 
69.47611741018827

>  <Genealogy>  (49) 
Cn1nnnc1SCC[NH2+]Cc1ccc(S([NH-])(=O)=O)cc1 (protonated)
Cn1nnnc1SCC[NH2+]Cc1ccc(S([NH-])(=O)=O)cc1 (3D coordinates assigned)
Cn1nnnc1SCC[NH2+]Cc1ccc(S([NH-])(=O)=O)cc1 (optimized conformer: 69.47611741018827 kcal/mol)

>  <smiles>  (49) 
Cn1nnnc1SCCNCc1ccc(S(N)(=O)=O)cc1

>  <score_type>  (49) 
oracle

>  <origin>  (49) 
adgpu

>  <m_score__min__energy>  (49) 
-9.5600000000000005

>  <m_primary>  (49) 
energy

$$$$
