0:0
     RDKit          3D

 57 60  0  0  0  0  0  0  0  0999 V2000
   -0.1770   25.9630  -36.5980 C   0  0  0  0  0  0  0  0  0  0  0  0
    0.6400   24.7190  -36.5000 C   0  0  0  0  0  0  0  0  0  0  0  0
    0.2550   23.5470  -35.8880 C   0  0  0  0  0  0  0  0  0  0  0  0
    1.3100   22.6880  -36.1290 C   0  0  0  0  0  0  0  0  0  0  0  0
    1.4410   21.2960  -35.6610 C   0  0  0  0  0  0  0  0  0  0  0  0
    2.0440   20.4620  -36.3850 O   0  0  0  0  0  0  0  0  0  0  0  0
    0.9550   20.8770  -34.3790 N   0  0  0  0  0  0  0  0  0  0  0  0
   -0.4100   20.5850  -34.0540 C   0  0  0  0  0  0  0  0  0  0  0  0
   -1.0060   19.3640  -34.4120 C   0  0  0  0  0  0  0  0  0  0  0  0
   -2.3390   19.1060  -34.0830 C   0  0  0  0  0  0  0  0  0  0  0  0
   -3.0970   20.0590  -33.3780 C   0  0  0  0  0  0  0  0  0  0  0  0
   -4.5250   19.8050  -33.0610 C   0  0  0  0  0  0  0  0  0  0  0  0
   -5.4660   19.6450  -34.0930 C   0  0  0  0  0  0  0  0  0  0  0  0
   -6.8230   19.4860  -33.7980 C   0  0  0  0  0  0  0  0  0  0  0  0
   -7.2590   19.4840  -32.4680 C   0  0  0  0  0  0  0  0  0  0  0  0
   -8.9800   19.4480  -32.0900 S   0  0  0  0  0  0  0  0  0  0  0  0
   -9.7830   19.3330  -33.3560 O   0  0  0  0  0  0  0  0  0  0  0  0
   -9.2690   18.2490  -31.2320 O   0  0  0  0  0  0  0  0  0  0  0  0
   -9.4540   20.8900  -31.2360 N   0  0  0  0  0  0  0  0  0  0  0  0
   -8.7770   22.0750  -31.7700 C   0  0  0  0  0  0  0  0  0  0  0  0
   -7.6560   22.5100  -30.8170 C   0  0  0  0  0  0  0  0  0  0  0  0
   -6.9150   23.6690  -31.3580 N   0  0  0  0  0  0  0  0  0  0  0  0
   -6.6300   24.6480  -30.2840 C   0  0  0  0  0  0  0  0  0  0  0  0
   -5.4000   25.5090  -30.6240 C   0  0  0  0  0  0  0  0  0  0  0  0
   -4.2040   24.7540  -30.7780 O   0  0  0  0  0  0  0  0  0  0  0  0
   -4.4250   23.4200  -31.2190 C   0  0  0  0  0  0  0  0  0  0  0  0
   -5.6870   23.2600  -32.0860 C   0  0  0  0  0  0  0  0  0  0  0  0
   -6.3230   19.5960  -31.4330 C   0  0  0  0  0  0  0  0  0  0  0  0
   -4.9660   19.7600  -31.7250 C   0  0  0  0  0  0  0  0  0  0  0  0
   -2.4850   21.2670  -32.9970 C   0  0  0  0  0  0  0  0  0  0  0  0
   -1.1510   21.5210  -33.3250 C   0  0  0  0  0  0  0  0  0  0  0  0
    2.2610   23.3270  -36.8400 N   0  0  0  0  0  0  0  0  0  0  0  0
    1.8460   24.5630  -37.0760 N   0  0  0  0  0  0  0  0  0  0  0  0
   -0.4153   26.3258  -35.5872 H   0  0  0  0  0  0  0  0  0  0  0  0
    0.3916   26.7334  -37.1395 H   0  0  0  0  0  0  0  0  0  0  0  0
   -1.1099   25.7473  -37.1395 H   0  0  0  0  0  0  0  0  0  0  0  0
   -0.6746   23.3426  -35.3365 H   0  0  0  0  0  0  0  0  0  0  0  0
   -0.4199   18.6073  -34.9542 H   0  0  0  0  0  0  0  0  0  0  0  0
   -2.7992   18.1512  -34.3772 H   0  0  0  0  0  0  0  0  0  0  0  0
   -5.1318   19.6449  -35.1410 H   0  0  0  0  0  0  0  0  0  0  0  0
   -7.5505   19.3621  -34.6137 H   0  0  0  0  0  0  0  0  0  0  0  0
   -8.3471   21.8370  -32.7542 H   0  0  0  0  0  0  0  0  0  0  0  0
   -9.5050   22.8935  -31.8703 H   0  0  0  0  0  0  0  0  0  0  0  0
   -8.0962   22.7862  -29.8475 H   0  0  0  0  0  0  0  0  0  0  0  0
   -6.9538   21.6715  -30.6990 H   0  0  0  0  0  0  0  0  0  0  0  0
   -7.5032   25.3049  -30.1570 H   0  0  0  0  0  0  0  0  0  0  0  0
   -6.4209   24.0948  -29.3565 H   0  0  0  0  0  0  0  0  0  0  0  0
   -5.5982   26.0431  -31.5650 H   0  0  0  0  0  0  0  0  0  0  0  0
   -5.2425   26.1961  -29.7796 H   0  0  0  0  0  0  0  0  0  0  0  0
   -3.5540   23.1000  -31.8098 H   0  0  0  0  0  0  0  0  0  0  0  0
   -4.5699   22.8024  -30.3204 H   0  0  0  0  0  0  0  0  0  0  0  0
   -5.5821   23.8847  -32.9853 H   0  0  0  0  0  0  0  0  0  0  0  0
   -5.7860   22.1969  -32.3507 H   0  0  0  0  0  0  0  0  0  0  0  0
   -6.6569   19.5548  -30.3857 H   0  0  0  0  0  0  0  0  0  0  0  0
   -4.2381   19.8545  -30.9057 H   0  0  0  0  0  0  0  0  0  0  0  0
   -3.0614   22.0176  -32.4363 H   0  0  0  0  0  0  0  0  0  0  0  0
   -0.6802   22.4633  -33.0079 H   0  0  0  0  0  0  0  0  0  0  0  0
  1  2  1  0
  2  3  1  0
  3  4  2  0
  4  5  1  0
  5  6  2  0
  5  7  1  0
  7  8  1  0
  8  9  2  0
  9 10  1  0
 10 11  2  0
 11 12  1  0
 12 13  2  0
 13 14  1  0
 14 15  2  0
 15 16  1  0
 16 17  2  0
 16 18  2  0
 16 19  1  0
 19 20  1  0
 20 21  1  0
 21 22  1  0
 22 23  1  0
 23 24  1  0
 24 25  1  0
 25 26  1  0
 26 27  1  0
 15 28  1  0
 28 29  2  0
 11 30  1  0
 30 31  2  0
  4 32  1  0
 32 33  1  0
 33  2  2  0
 31  8  1  0
 29 12  1  0
 27 22  1  0
  1 34  1  0
  1 35  1  0
  1 36  1  0
  3 37  1  0
  9 38  1  0
 10 39  1  0
 13 40  1  0
 14 41  1  0
 20 42  1  0
 20 43  1  0
 21 44  1  0
 21 45  1  0
 23 46  1  0
 23 47  1  0
 24 48  1  0
 24 49  1  0
 26 50  1  0
 26 51  1  0
 27 52  1  0
 27 53  1  0
 28 54  1  0
 29 55  1  0
 30 56  1  0
 31 57  1  0
M  CHG  3   7  -1  19  -1  32  -1
M  END
>  <UniqueID>  (1) 
1

>  <SMILES>  (1) 
Cc1cc(C(=O)[N-]c2ccc(-c3ccc(S(=O)(=O)[N-]CCN4CCOCC4)cc3)cc2)[n-]n1

>  <Energy>  (1) 
107.61459083761923

>  <Genealogy>  (1) 
Cc1cc(C(=O)[N-]c2ccc(-c3ccc(S(=O)(=O)[N-]CCN4CCOCC4)cc3)cc2)[n-]n1 (protonated)
Cc1cc(C(=O)[N-]c2ccc(-c3ccc(S(=O)(=O)[N-]CCN4CCOCC4)cc3)cc2)[n-]n1 (3D coordinates assigned)
Cc1cc(C(=O)[N-]c2ccc(-c3ccc(S(=O)(=O)[N-]CCN4CCOCC4)cc3)cc2)[n-]n1 (nonaromatic ring conformer: 107.61459083761923 kcal/mol)

>  <smiles>  (1) 
Cc1cc(C(=O)Nc2ccc(-c3ccc(S(=O)(=O)NCCN4CCOCC4)cc3)cc2)[nH]n1

>  <score_type>  (1) 
oracle

>  <origin>  (1) 
adgpu

>  <m_score__min__energy>  (1) 
-11.67

>  <m_primary>  (1) 
energy

$$$$
1:0
     RDKit          3D

 54 57  0  0  0  0  0  0  0  0999 V2000
    1.4200   30.9040  -23.4230 C   0  0  0  0  0  0  0  0  0  0  0  0
    1.7590   30.3360  -24.6870 O   0  0  0  0  0  0  0  0  0  0  0  0
    1.2070   29.1510  -25.2000 C   0  0  0  0  0  0  0  0  0  0  0  0
   -0.1710   28.8720  -25.1340 C   0  0  0  0  0  0  0  0  0  0  0  0
   -0.6660   27.6590  -25.6220 C   0  0  0  0  0  0  0  0  0  0  0  0
    0.2070   26.7100  -26.1850 C   0  0  0  0  0  0  0  0  0  0  0  0
   -0.2510   25.4360  -26.6570 N   0  0  0  0  0  0  0  0  0  0  0  0
   -1.2940   24.3630  -25.7800 S   0  0  0  0  0  0  0  0  0  0  0  0
   -0.7840   24.2140  -24.3740 O   0  0  0  0  0  0  0  0  0  0  0  0
   -2.6780   24.9510  -25.7730 O   0  0  0  0  0  0  0  0  0  0  0  0
   -1.3000   22.7670  -26.5540 C   0  0  0  0  0  0  0  0  0  0  0  0
   -1.1630   21.6370  -25.7280 C   0  0  0  0  0  0  0  0  0  0  0  0
   -1.2010   20.3500  -26.2670 C   0  0  0  0  0  0  0  0  0  0  0  0
   -1.3610   20.1730  -27.6390 C   0  0  0  0  0  0  0  0  0  0  0  0
   -1.5010   21.2810  -28.4750 C   0  0  0  0  0  0  0  0  0  0  0  0
   -1.4910   22.5840  -27.9520 C   0  0  0  0  0  0  0  0  0  0  0  0
   -1.7090   23.9310  -29.0840 S   0  0  0  0  0  0  0  0  0  0  0  0
   -0.3830   24.5870  -29.3470 O   0  0  0  0  0  0  0  0  0  0  0  0
   -2.6440   24.9520  -28.4980 O   0  0  0  0  0  0  0  0  0  0  0  0
   -2.3960   23.3200  -30.5540 N   0  0  0  0  0  0  0  0  0  0  0  0
   -3.7960   23.2890  -30.8750 C   0  0  0  0  0  0  0  0  0  0  0  0
   -4.4490   22.1010  -31.2500 C   0  0  0  0  0  0  0  0  0  0  0  0
   -5.8270   22.1030  -31.5050 C   0  0  0  0  0  0  0  0  0  0  0  0
   -6.5480   23.3000  -31.4180 C   0  0  0  0  0  0  0  0  0  0  0  0
   -5.8920   24.4930  -31.0880 C   0  0  0  0  0  0  0  0  0  0  0  0
   -4.5220   24.4850  -30.8100 C   0  0  0  0  0  0  0  0  0  0  0  0
   -3.8850   25.6730  -30.4660 O   0  0  0  0  0  0  0  0  0  0  0  0
   -8.0310   23.2640  -31.6800 C   0  0  0  0  0  0  0  0  0  0  0  0
   -8.6540   22.0610  -30.9500 C   0  0  0  0  0  0  0  0  0  0  0  0
   -7.9290   20.7190  -31.2320 C   0  0  0  0  0  0  0  0  0  0  0  0
   -6.5540   20.8520  -31.9270 C   0  0  0  0  0  0  0  0  0  0  0  0
    1.5740   27.0030  -26.2710 C   0  0  0  0  0  0  0  0  0  0  0  0
    2.0690   28.2130  -25.7840 C   0  0  0  0  0  0  0  0  0  0  0  0
    1.8038   30.2610  -22.6173 H   0  0  0  0  0  0  0  0  0  0  0  0
    1.8686   31.9048  -23.3386 H   0  0  0  0  0  0  0  0  0  0  0  0
    0.3262   30.9842  -23.3386 H   0  0  0  0  0  0  0  0  0  0  0  0
   -0.8600   29.6100  -24.6975 H   0  0  0  0  0  0  0  0  0  0  0  0
   -1.7436   27.4454  -25.5655 H   0  0  0  0  0  0  0  0  0  0  0  0
   -1.0243   21.7689  -24.6448 H   0  0  0  0  0  0  0  0  0  0  0  0
   -1.1045   19.4749  -25.6075 H   0  0  0  0  0  0  0  0  0  0  0  0
   -1.3770   19.1585  -28.0640 H   0  0  0  0  0  0  0  0  0  0  0  0
   -1.6208   21.1319  -29.5582 H   0  0  0  0  0  0  0  0  0  0  0  0
   -3.8759   21.1668  -31.3435 H   0  0  0  0  0  0  0  0  0  0  0  0
   -6.4554   25.4369  -31.0476 H   0  0  0  0  0  0  0  0  0  0  0  0
   -8.4905   24.1935  -31.3126 H   0  0  0  0  0  0  0  0  0  0  0  0
   -8.2092   23.1681  -32.7612 H   0  0  0  0  0  0  0  0  0  0  0  0
   -8.6184   22.2546  -29.8678 H   0  0  0  0  0  0  0  0  0  0  0  0
   -9.6835   21.9556  -31.3229 H   0  0  0  0  0  0  0  0  0  0  0  0
   -7.7774   20.2047  -30.2715 H   0  0  0  0  0  0  0  0  0  0  0  0
   -8.5729   20.1624  -31.9289 H   0  0  0  0  0  0  0  0  0  0  0  0
   -5.9384   19.9784  -31.6665 H   0  0  0  0  0  0  0  0  0  0  0  0
   -6.7257   20.9083  -33.0121 H   0  0  0  0  0  0  0  0  0  0  0  0
    2.2616   26.2745  -26.7254 H   0  0  0  0  0  0  0  0  0  0  0  0
    3.1443   28.4325  -25.8590 H   0  0  0  0  0  0  0  0  0  0  0  0
  1  2  1  0
  2  3  1  0
  3  4  2  0
  4  5  1  0
  5  6  2  0
  6  7  1  0
  7  8  1  0
  8  9  2  0
  8 10  2  0
  8 11  1  0
 11 12  2  0
 12 13  1  0
 13 14  2  0
 14 15  1  0
 15 16  2  0
 16 17  1  0
 17 18  2  0
 17 19  2  0
 17 20  1  0
 20 21  1  0
 21 22  2  0
 22 23  1  0
 23 24  2  0
 24 25  1  0
 25 26  2  0
 26 27  1  0
 24 28  1  0
 28 29  1  0
 29 30  1  0
 30 31  1  0
  6 32  1  0
 32 33  2  0
 33  3  1  0
 16 11  1  0
 26 21  1  0
 31 23  1  0
  1 34  1  0
  1 35  1  0
  1 36  1  0
  4 37  1  0
  5 38  1  0
 12 39  1  0
 13 40  1  0
 14 41  1  0
 15 42  1  0
 22 43  1  0
 25 44  1  0
 28 45  1  0
 28 46  1  0
 29 47  1  0
 29 48  1  0
 30 49  1  0
 30 50  1  0
 31 51  1  0
 31 52  1  0
 32 53  1  0
 33 54  1  0
M  CHG  3   7  -1  20  -1  27  -1
M  END
>  <UniqueID>  (2) 
2

>  <SMILES>  (2) 
COc1ccc([N-]S(=O)(=O)c2ccccc2S(=O)(=O)[N-]c2cc3c(cc2[O-])CCCC3)cc1

>  <Energy>  (2) 
74.01288563850035

>  <Genealogy>  (2) 
COc1ccc([N-]S(=O)(=O)c2ccccc2S(=O)(=O)[N-]c2cc3c(cc2[O-])CCCC3)cc1 (protonated)
COc1ccc([N-]S(=O)(=O)c2ccccc2S(=O)(=O)[N-]c2cc3c(cc2[O-])CCCC3)cc1 (3D coordinates assigned)
COc1ccc([N-]S(=O)(=O)c2ccccc2S(=O)(=O)[N-]c2cc3c(cc2[O-])CCCC3)cc1 (nonaromatic ring conformer: 74.01288563850035 kcal/mol)

>  <smiles>  (2) 
COc1ccc(NS(=O)(=O)c2ccccc2S(=O)(=O)Nc2cc3c(cc2O)CCCC3)cc1

>  <score_type>  (2) 
oracle

>  <origin>  (2) 
adgpu

>  <m_score__min__energy>  (2) 
-13.85

>  <m_primary>  (2) 
energy

$$$$
2:0
     RDKit          3D

 40 41  0  0  0  0  0  0  0  0999 V2000
   -3.2150   19.8970  -31.9730 C   0  0  0  0  0  0  0  0  0  0  0  0
   -3.3730   21.3290  -31.5570 C   0  0  0  0  0  0  0  0  0  0  0  0
   -2.4150   21.8760  -30.7650 N   0  0  0  0  0  0  0  0  0  0  0  0
   -2.4630   23.1750  -30.3790 C   0  0  0  0  0  0  0  0  0  0  0  0
   -1.5540   23.6390  -29.6400 O   0  0  0  0  0  0  0  0  0  0  0  0
   -3.4840   23.9730  -30.7950 N   0  0  0  0  0  0  0  0  0  0  0  0
   -3.5170   25.2960  -30.4090 O   0  0  0  0  0  0  0  0  0  0  0  0
   -4.4760   23.4750  -31.5840 C   0  0  0  0  0  0  0  0  0  0  0  0
   -5.4140   24.2300  -31.9610 O   0  0  0  0  0  0  0  0  0  0  0  0
   -4.4670   22.1240  -31.9660 C   0  0  0  0  0  0  0  0  0  0  0  0
   -5.5380   21.6120  -32.7790 N   0  0  0  0  0  0  0  0  0  0  0  0
   -6.8620   21.3040  -32.3090 C   0  0  0  0  0  0  0  0  0  0  0  0
   -7.6800   22.3700  -31.9050 C   0  0  0  0  0  0  0  0  0  0  0  0
   -8.9630   22.1380  -31.4110 C   0  0  0  0  0  0  0  0  0  0  0  0
   -9.4380   20.8340  -31.2900 C   0  0  0  0  0  0  0  0  0  0  0  0
   -8.6290   19.7570  -31.6560 C   0  0  0  0  0  0  0  0  0  0  0  0
   -7.3340   19.9690  -32.1680 C   0  0  0  0  0  0  0  0  0  0  0  0
   -6.4780   18.7580  -32.4820 C   0  0  0  0  0  0  0  0  0  0  0  0
   -6.1090   18.6470  -33.9450 C   0  0  0  0  0  0  0  0  0  0  0  0
   -6.1410   19.6380  -34.6660 O   0  0  0  0  0  0  0  0  0  0  0  0
   -5.7500   17.3570  -34.5000 N   0  0  0  0  0  0  0  0  0  0  0  0
   -6.4930   16.2850  -33.8180 C   0  0  0  0  0  0  0  0  0  0  0  0
   -4.3000   17.1390  -34.3910 C   0  0  0  0  0  0  0  0  0  0  0  0
   -3.1448   19.2609  -31.0783 H   0  0  0  0  0  0  0  0  0  0  0  0
   -4.0849   19.5913  -32.5729 H   0  0  0  0  0  0  0  0  0  0  0  0
   -2.2994   19.7883  -32.5729 H   0  0  0  0  0  0  0  0  0  0  0  0
   -5.3300   21.4160  -33.7840 H   0  0  0  0  0  0  0  0  0  0  0  0
   -7.3045   23.4013  -31.9789 H   0  0  0  0  0  0  0  0  0  0  0  0
   -9.6003   22.9849  -31.1167 H   0  0  0  0  0  0  0  0  0  0  0  0
  -10.4525   20.6527  -30.9053 H   0  0  0  0  0  0  0  0  0  0  0  0
   -9.0073   18.7303  -31.5432 H   0  0  0  0  0  0  0  0  0  0  0  0
   -5.5516   18.8234  -31.8926 H   0  0  0  0  0  0  0  0  0  0  0  0
   -7.0701   17.8666  -32.2276 H   0  0  0  0  0  0  0  0  0  0  0  0
   -6.0030   17.3280  -35.5160 H   0  0  0  0  0  0  0  0  0  0  0  0
   -6.4044   16.4129  -32.7291 H   0  0  0  0  0  0  0  0  0  0  0  0
   -7.5531   16.3321  -34.1076 H   0  0  0  0  0  0  0  0  0  0  0  0
   -6.0768   15.3088  -34.1076 H   0  0  0  0  0  0  0  0  0  0  0  0
   -4.0144   17.0961  -33.3296 H   0  0  0  0  0  0  0  0  0  0  0  0
   -4.0339   16.1908  -34.8809 H   0  0  0  0  0  0  0  0  0  0  0  0
   -3.7669   17.9671  -34.8809 H   0  0  0  0  0  0  0  0  0  0  0  0
  1  2  1  0
  2  3  1  0
  3  4  1  0
  4  5  2  0
  4  6  1  0
  6  7  1  0
  6  8  1  0
  8  9  2  0
  8 10  1  0
 10 11  1  0
 11 12  1  0
 12 13  2  0
 13 14  1  0
 14 15  2  0
 15 16  1  0
 16 17  2  0
 17 18  1  0
 18 19  1  0
 19 20  2  0
 19 21  1  0
 21 22  1  0
 21 23  1  0
 10  2  2  0
 17 12  1  0
  1 24  1  0
  1 25  1  0
  1 26  1  0
 11 27  1  0
 13 28  1  0
 14 29  1  0
 15 30  1  0
 16 31  1  0
 18 32  1  0
 18 33  1  0
 21 34  1  0
 22 35  1  0
 22 36  1  0
 22 37  1  0
 23 38  1  0
 23 39  1  0
 23 40  1  0
M  CHG  3   3  -1   7  -1  21   1
M  END
>  <UniqueID>  (3) 
3

>  <SMILES>  (3) 
Cc1[n-]c(=O)n([O-])c(=O)c1Nc1ccccc1CC(=O)[NH+](C)C

>  <Energy>  (3) 
51.263961533053674

>  <Genealogy>  (3) 
Cc1[n-]c(=O)n([O-])c(=O)c1Nc1ccccc1CC(=O)[NH+](C)C (protonated)
Cc1[n-]c(=O)n([O-])c(=O)c1Nc1ccccc1CC(=O)[NH+](C)C (3D coordinates assigned)
Cc1[n-]c(=O)n([O-])c(=O)c1Nc1ccccc1CC(=O)[NH+](C)C (optimized conformer: 51.263961533053674 kcal/mol)

>  <smiles>  (3) 
Cc1[nH]c(=O)n(O)c(=O)c1Nc1ccccc1CC(=O)N(C)C

>  <score_type>  (3) 
oracle

>  <origin>  (3) 
adgpu

>  <m_score__min__energy>  (3) 
-11.130000000000001

>  <m_primary>  (3) 
energy

$$$$
3:0
     RDKit          3D

 25 26  0  0  0  0  0  0  0  0999 V2000
   -3.4280   20.6690  -27.7990 O   0  0  0  0  0  0  0  0  0  0  0  0
   -2.3000   20.9840  -28.2700 C   0  0  0  0  0  0  0  0  0  0  0  0
   -2.0210   22.4100  -28.5650 C   0  0  0  0  0  0  0  0  0  0  0  0
   -0.8520   23.0140  -28.0700 C   0  0  0  0  0  0  0  0  0  0  0  0
   -0.5850   24.3630  -28.3290 C   0  0  0  0  0  0  0  0  0  0  0  0
    0.5810   24.9420  -27.8420 O   0  0  0  0  0  0  0  0  0  0  0  0
   -1.4900   25.1250  -29.0760 C   0  0  0  0  0  0  0  0  0  0  0  0
   -1.2240   26.4650  -29.3350 O   0  0  0  0  0  0  0  0  0  0  0  0
   -2.6650   24.5380  -29.5600 C   0  0  0  0  0  0  0  0  0  0  0  0
   -3.5720   25.2930  -30.2950 O   0  0  0  0  0  0  0  0  0  0  0  0
   -2.9310   23.1890  -29.3020 C   0  0  0  0  0  0  0  0  0  0  0  0
   -1.3020   19.9130  -28.5080 C   0  0  0  0  0  0  0  0  0  0  0  0
   -0.5460   19.8800  -29.6940 C   0  0  0  0  0  0  0  0  0  0  0  0
    0.4040   18.8760  -29.8990 C   0  0  0  0  0  0  0  0  0  0  0  0
    0.6210   17.9010  -28.9220 C   0  0  0  0  0  0  0  0  0  0  0  0
    1.5690   16.9080  -29.1420 O   0  0  0  0  0  0  0  0  0  0  0  0
   -0.1160   17.9320  -27.7260 C   0  0  0  0  0  0  0  0  0  0  0  0
    0.0830   16.9750  -26.7320 O   0  0  0  0  0  0  0  0  0  0  0  0
   -1.0670   18.9380  -27.5220 C   0  0  0  0  0  0  0  0  0  0  0  0
   -0.1417   22.4216  -27.4745 H   0  0  0  0  0  0  0  0  0  0  0  0
   -3.8591   22.7340  -29.6785 H   0  0  0  0  0  0  0  0  0  0  0  0
   -0.7037   20.6491  -30.4645 H   0  0  0  0  0  0  0  0  0  0  0  0
    0.9836   18.8531  -30.8337 H   0  0  0  0  0  0  0  0  0  0  0  0
    0.6950   16.1780  -26.8670 H   0  0  0  0  0  0  0  0  0  0  0  0
   -1.6364   18.9665  -26.5812 H   0  0  0  0  0  0  0  0  0  0  0  0
  1  2  2  0
  2  3  1  0
  3  4  2  0
  4  5  1  0
  5  6  1  0
  5  7  2  0
  7  8  1  0
  7  9  1  0
  9 10  1  0
  9 11  2  0
  2 12  1  0
 12 13  2  0
 13 14  1  0
 14 15  2  0
 15 16  1  0
 15 17  1  0
 17 18  1  0
 17 19  2  0
 11  3  1  0
 19 12  1  0
  4 20  1  0
 11 21  1  0
 13 22  1  0
 14 23  1  0
 18 24  1  0
 19 25  1  0
M  CHG  4   6  -1   8  -1  10  -1  16  -1
M  END
>  <UniqueID>  (4) 
4

>  <SMILES>  (4) 
O=C(c1cc([O-])c([O-])c([O-])c1)c1ccc([O-])c(O)c1

>  <Energy>  (4) 
33.24867894828994

>  <Genealogy>  (4) 
O=C(c1cc([O-])c([O-])c([O-])c1)c1ccc([O-])c(O)c1 (protonated)
O=C(c1cc([O-])c([O-])c([O-])c1)c1ccc([O-])c(O)c1 (3D coordinates assigned)
O=C(c1cc([O-])c([O-])c([O-])c1)c1ccc([O-])c(O)c1 (optimized conformer: 33.24867894828994 kcal/mol)

>  <smiles>  (4) 
O=C(c1ccc(O)c(O)c1)c1cc(O)c(O)c(O)c1

>  <score_type>  (4) 
oracle

>  <origin>  (4) 
adgpu

>  <m_score__min__energy>  (4) 
-12.220000000000001

>  <m_primary>  (4) 
energy

$$$$
4:0
     RDKit          3D

 39 41  0  0  0  0  0  0  0  0999 V2000
   -3.9760   24.5110  -27.1030 C   0  0  0  0  0  0  0  0  0  0  0  0
   -2.4660   24.6250  -27.2980 C   0  0  0  0  0  0  0  0  0  0  0  0
   -2.0850   24.9080  -28.7580 C   0  0  0  0  0  0  0  0  0  0  0  0
   -3.1530   24.4550  -29.7050 C   0  0  0  0  0  0  0  0  0  0  0  0
   -3.8590   25.2910  -30.4890 N   0  0  0  0  0  0  0  0  0  0  0  0
   -4.6690   24.5350  -31.2090 N   0  0  0  0  0  0  0  0  0  0  0  0
   -4.4320   23.2580  -30.8510 C   0  0  0  0  0  0  0  0  0  0  0  0
   -5.1350   22.0940  -31.4330 C   0  0  0  0  0  0  0  0  0  0  0  0
   -6.5270   21.9720  -31.3110 C   0  0  0  0  0  0  0  0  0  0  0  0
   -7.2120   20.8730  -31.8570 C   0  0  0  0  0  0  0  0  0  0  0  0
   -8.7100   20.7980  -31.6930 C   0  0  0  0  0  0  0  0  0  0  0  0
   -6.4830   19.8680  -32.5440 C   0  0  0  0  0  0  0  0  0  0  0  0
   -7.1160   18.7420  -33.1150 C   0  0  0  0  0  0  0  0  0  0  0  0
   -6.3680   17.7600  -33.7910 C   0  0  0  0  0  0  0  0  0  0  0  0
   -6.9600   16.6270  -34.3700 O   0  0  0  0  0  0  0  0  0  0  0  0
   -6.4770   15.2960  -34.2150 C   0  0  0  0  0  0  0  0  0  0  0  0
   -4.9820   17.9060  -33.8990 C   0  0  0  0  0  0  0  0  0  0  0  0
   -4.3390   19.0110  -33.3430 C   0  0  0  0  0  0  0  0  0  0  0  0
   -5.0750   19.9940  -32.6670 C   0  0  0  0  0  0  0  0  0  0  0  0
   -4.4160   21.1000  -32.1120 C   0  0  0  0  0  0  0  0  0  0  0  0
   -3.4760   23.1630  -29.9040 N   0  0  0  0  0  0  0  0  0  0  0  0
   -4.2065   24.4936  -26.0276 H   0  0  0  0  0  0  0  0  0  0  0  0
   -4.4723   25.3742  -27.5705 H   0  0  0  0  0  0  0  0  0  0  0  0
   -4.3371   23.5830  -27.5705 H   0  0  0  0  0  0  0  0  0  0  0  0
   -2.0894   25.4452  -26.6691 H   0  0  0  0  0  0  0  0  0  0  0  0
   -2.0172   23.6615  -27.0146 H   0  0  0  0  0  0  0  0  0  0  0  0
   -1.9323   25.9901  -28.8836 H   0  0  0  0  0  0  0  0  0  0  0  0
   -1.1641   24.3517  -28.9869 H   0  0  0  0  0  0  0  0  0  0  0  0
   -7.0927   22.7506  -30.7783 H   0  0  0  0  0  0  0  0  0  0  0  0
   -8.9614   20.7854  -30.6222 H   0  0  0  0  0  0  0  0  0  0  0  0
   -9.1752   21.6740  -32.1686 H   0  0  0  0  0  0  0  0  0  0  0  0
   -9.0854   19.8799  -32.1686 H   0  0  0  0  0  0  0  0  0  0  0  0
   -8.2071   18.6311  -33.0303 H   0  0  0  0  0  0  0  0  0  0  0  0
   -6.3912   15.0595  -33.1442 H   0  0  0  0  0  0  0  0  0  0  0  0
   -7.1777   14.5940  -34.6906 H   0  0  0  0  0  0  0  0  0  0  0  0
   -5.4891   15.2067  -34.6906 H   0  0  0  0  0  0  0  0  0  0  0  0
   -4.3932   17.1419  -34.4276 H   0  0  0  0  0  0  0  0  0  0  0  0
   -3.2476   19.1121  -33.4353 H   0  0  0  0  0  0  0  0  0  0  0  0
   -3.3240   21.1889  -32.2102 H   0  0  0  0  0  0  0  0  0  0  0  0
  1  2  1  0
  2  3  1  0
  3  4  1  0
  4  5  2  0
  5  6  1  0
  6  7  1  0
  7  8  1  0
  8  9  2  0
  9 10  1  0
 10 11  1  0
 10 12  2  0
 12 13  1  0
 13 14  2  0
 14 15  1  0
 15 16  1  0
 14 17  1  0
 17 18  2  0
 18 19  1  0
 19 20  2  0
  7 21  2  0
 21  4  1  0
 20  8  1  0
 19 12  1  0
  1 22  1  0
  1 23  1  0
  1 24  1  0
  2 25  1  0
  2 26  1  0
  3 27  1  0
  3 28  1  0
  9 29  1  0
 11 30  1  0
 11 31  1  0
 11 32  1  0
 13 33  1  0
 16 34  1  0
 16 35  1  0
 16 36  1  0
 17 37  1  0
 18 38  1  0
 20 39  1  0
M  CHG  1   6  -1
M  END
>  <UniqueID>  (5) 
5

>  <SMILES>  (5) 
CCCc1n[n-]c(-c2cc(C)c3cc(OC)ccc3c2)n1

>  <Energy>  (5) 
71.90219966854065

>  <Genealogy>  (5) 
CCCc1n[n-]c(-c2cc(C)c3cc(OC)ccc3c2)n1 (protonated)
CCCc1n[n-]c(-c2cc(C)c3cc(OC)ccc3c2)n1 (3D coordinates assigned)
CCCc1n[n-]c(-c2cc(C)c3cc(OC)ccc3c2)n1 (optimized conformer: 71.90219966854065 kcal/mol)

>  <smiles>  (5) 
CCCc1n[nH]c(-c2cc(C)c3cc(OC)ccc3c2)n1

>  <score_type>  (5) 
oracle

>  <origin>  (5) 
adgpu

>  <m_score__min__energy>  (5) 
-8.9900000000000002

>  <m_primary>  (5) 
energy

$$$$
5:0
     RDKit          3D

 55 56  0  0  0  0  0  0  0  0999 V2000
   -1.3980   26.4540  -26.0200 C   0  0  0  0  0  0  0  0  0  0  0  0
   -1.1670   25.9280  -27.4370 C   0  0  0  0  0  0  0  0  0  0  0  0
   -1.7370   24.5730  -27.6220 N   0  0  0  0  0  0  0  0  0  0  0  0
   -1.5800   24.0960  -29.0140 C   0  0  0  0  0  0  0  0  0  0  0  0
   -0.9740   22.6960  -29.0250 C   0  0  0  0  0  0  0  0  0  0  0  0
   -3.1200   24.4010  -27.1000 C   0  0  0  0  0  0  0  0  0  0  0  0
   -4.1140   23.7350  -28.0720 C   0  0  0  0  0  0  0  0  0  0  0  0
   -5.0780   24.7050  -28.5950 N   0  0  0  0  0  0  0  0  0  0  0  0
   -5.1000   24.6430  -30.3300 S   0  0  0  0  0  0  0  0  0  0  0  0
   -5.7360   25.8940  -30.8720 O   0  0  0  0  0  0  0  0  0  0  0  0
   -3.6890   24.5700  -30.8400 O   0  0  0  0  0  0  0  0  0  0  0  0
   -5.9880   23.2260  -30.8840 C   0  0  0  0  0  0  0  0  0  0  0  0
   -7.3220   23.3390  -31.2990 C   0  0  0  0  0  0  0  0  0  0  0  0
   -8.0260   22.2070  -31.7190 C   0  0  0  0  0  0  0  0  0  0  0  0
   -7.4040   20.9510  -31.7280 C   0  0  0  0  0  0  0  0  0  0  0  0
   -8.2860   19.5250  -32.2830 S   0  0  0  0  0  0  0  0  0  0  0  0
   -9.4810   19.9630  -33.0820 O   0  0  0  0  0  0  0  0  0  0  0  0
   -8.7810   18.7550  -31.0900 O   0  0  0  0  0  0  0  0  0  0  0  0
   -7.2780   18.4910  -33.2680 N   0  0  0  0  0  0  0  0  0  0  0  0
   -6.4390   19.2790  -34.2070 C   0  0  0  0  0  0  0  0  0  0  0  0
   -4.9750   19.3870  -33.7550 C   0  0  0  0  0  0  0  0  0  0  0  0
   -4.3370   17.9950  -33.5990 C   0  0  0  0  0  0  0  0  0  0  0  0
   -5.3520   16.9190  -33.1750 C   0  0  0  0  0  0  0  0  0  0  0  0
   -6.5290   17.5400  -32.4180 C   0  0  0  0  0  0  0  0  0  0  0  0
   -6.0740   20.8370  -31.2980 C   0  0  0  0  0  0  0  0  0  0  0  0
   -5.3710   21.9690  -30.8780 C   0  0  0  0  0  0  0  0  0  0  0  0
   -1.0669   25.7001  -25.2905 H   0  0  0  0  0  0  0  0  0  0  0  0
   -0.8243   27.3813  -25.8750 H   0  0  0  0  0  0  0  0  0  0  0  0
   -2.4690   26.6590  -25.8750 H   0  0  0  0  0  0  0  0  0  0  0  0
   -1.6419   26.6146  -28.1532 H   0  0  0  0  0  0  0  0  0  0  0  0
   -0.0817   25.8678  -27.6061 H   0  0  0  0  0  0  0  0  0  0  0  0
   -2.5652   24.0695  -29.5025 H   0  0  0  0  0  0  0  0  0  0  0  0
   -0.9112   24.7813  -29.5554 H   0  0  0  0  0  0  0  0  0  0  0  0
   -0.8254   22.3527  -27.9906 H   0  0  0  0  0  0  0  0  0  0  0  0
   -1.6541   22.0062  -29.5462 H   0  0  0  0  0  0  0  0  0  0  0  0
   -0.0056   22.7197  -29.5462 H   0  0  0  0  0  0  0  0  0  0  0  0
   -3.0659   23.7818  -26.1924 H   0  0  0  0  0  0  0  0  0  0  0  0
   -3.5050   25.4155  -26.9198 H   0  0  0  0  0  0  0  0  0  0  0  0
   -3.5548   23.2971  -28.9120 H   0  0  0  0  0  0  0  0  0  0  0  0
   -4.6665   22.9572  -27.5245 H   0  0  0  0  0  0  0  0  0  0  0  0
   -4.7530   25.6630  -28.3270 H   0  0  0  0  0  0  0  0  0  0  0  0
   -7.8164   24.3216  -31.2941 H   0  0  0  0  0  0  0  0  0  0  0  0
   -9.0726   22.3022  -32.0439 H   0  0  0  0  0  0  0  0  0  0  0  0
   -6.4666   18.7938  -35.1938 H   0  0  0  0  0  0  0  0  0  0  0  0
   -6.8500   20.2988  -34.2401 H   0  0  0  0  0  0  0  0  0  0  0  0
   -4.4091   19.9591  -34.5050 H   0  0  0  0  0  0  0  0  0  0  0  0
   -4.9480   19.8941  -32.7792 H   0  0  0  0  0  0  0  0  0  0  0  0
   -3.8946   17.7010  -34.5623 H   0  0  0  0  0  0  0  0  0  0  0  0
   -3.5776   18.0652  -32.8063 H   0  0  0  0  0  0  0  0  0  0  0  0
   -5.7311   16.4090  -34.0728 H   0  0  0  0  0  0  0  0  0  0  0  0
   -4.8462   16.2043  -32.5092 H   0  0  0  0  0  0  0  0  0  0  0  0
   -7.2087   16.7382  -32.0939 H   0  0  0  0  0  0  0  0  0  0  0  0
   -6.1315   18.0897  -31.5521 H   0  0  0  0  0  0  0  0  0  0  0  0
   -5.5826   19.8529  -31.2914 H   0  0  0  0  0  0  0  0  0  0  0  0
   -4.3283   21.8724  -30.5412 H   0  0  0  0  0  0  0  0  0  0  0  0
  1  2  1  0
  2  3  1  0
  3  4  1  0
  4  5  1  0
  3  6  1  0
  6  7  1  0
  7  8  1  0
  8  9  1  0
  9 10  2  0
  9 11  2  0
  9 12  1  0
 12 13  2  0
 13 14  1  0
 14 15  2  0
 15 16  1  0
 16 17  2  0
 16 18  2  0
 16 19  1  0
 19 20  1  0
 20 21  1  0
 21 22  1  0
 22 23  1  0
 23 24  1  0
 15 25  1  0
 25 26  2  0
 26 12  1  0
 24 19  1  0
  1 27  1  0
  1 28  1  0
  1 29  1  0
  2 30  1  0
  2 31  1  0
  4 32  1  0
  4 33  1  0
  5 34  1  0
  5 35  1  0
  5 36  1  0
  6 37  1  0
  6 38  1  0
  7 39  1  0
  7 40  1  0
  8 41  1  0
 13 42  1  0
 14 43  1  0
 20 44  1  0
 20 45  1  0
 21 46  1  0
 21 47  1  0
 22 48  1  0
 22 49  1  0
 23 50  1  0
 23 51  1  0
 24 52  1  0
 24 53  1  0
 25 54  1  0
 26 55  1  0
M  END
>  <UniqueID>  (6) 
6

>  <SMILES>  (6) 
CCN(CC)CCNS(=O)(=O)c1ccc(S(=O)(=O)N2CCCCC2)cc1

>  <Energy>  (6) 
56.02480462826901

>  <Genealogy>  (6) 
CCN(CC)CCNS(=O)(=O)c1ccc(S(=O)(=O)N2CCCCC2)cc1 (3D coordinates assigned)
CCN(CC)CCNS(=O)(=O)c1ccc(S(=O)(=O)N2CCCCC2)cc1 (nonaromatic ring conformer: 56.02480462826901 kcal/mol)

>  <smiles>  (6) 
CCN(CC)CCNS(=O)(=O)c1ccc(S(=O)(=O)N2CCCCC2)cc1

>  <score_type>  (6) 
oracle

>  <origin>  (6) 
adgpu

>  <m_score__min__energy>  (6) 
-9.8300000000000001

>  <m_primary>  (6) 
energy

$$$$
6:0
     RDKit          3D

 43 45  0  0  0  0  0  0  0  0999 V2000
   -4.2410   25.2230  -31.1550 N   0  0  0  0  0  0  0  0  0  0  0  0
   -5.3340   24.4430  -30.0650 S   0  0  0  0  0  0  0  0  0  0  0  0
   -4.5500   23.8430  -28.9290 O   0  0  0  0  0  0  0  0  0  0  0  0
   -6.2980   25.4540  -29.5070 O   0  0  0  0  0  0  0  0  0  0  0  0
   -6.2280   23.1840  -30.9160 C   0  0  0  0  0  0  0  0  0  0  0  0
   -7.6230   23.1210  -30.8370 C   0  0  0  0  0  0  0  0  0  0  0  0
   -8.3220   22.1330  -31.5320 C   0  0  0  0  0  0  0  0  0  0  0  0
   -7.6390   21.1860  -32.3110 C   0  0  0  0  0  0  0  0  0  0  0  0
   -8.4040   20.2340  -33.0650 N   0  0  0  0  0  0  0  0  0  0  0  0
   -6.2220   21.2150  -32.3640 C   0  0  0  0  0  0  0  0  0  0  0  0
   -5.4320   20.1810  -33.0810 C   0  0  0  0  0  0  0  0  0  0  0  0
   -6.0710   19.2450  -33.9120 C   0  0  0  0  0  0  0  0  0  0  0  0
   -5.3290   18.2550  -34.5620 C   0  0  0  0  0  0  0  0  0  0  0  0
   -3.9470   18.1660  -34.3610 C   0  0  0  0  0  0  0  0  0  0  0  0
   -3.2970   19.0630  -33.4960 C   0  0  0  0  0  0  0  0  0  0  0  0
   -1.8940   18.9700  -33.2180 N   0  0  0  0  0  0  0  0  0  0  0  0
   -0.8490   20.3310  -32.9510 S   0  0  0  0  0  0  0  0  0  0  0  0
    0.5820   19.9050  -33.1370 O   0  0  0  0  0  0  0  0  0  0  0  0
   -1.1690   21.4090  -33.9490 O   0  0  0  0  0  0  0  0  0  0  0  0
   -1.1130   20.9710  -31.3280 C   0  0  0  0  0  0  0  0  0  0  0  0
   -0.9630   20.1520  -30.2010 C   0  0  0  0  0  0  0  0  0  0  0  0
   -1.2200   20.6590  -28.9250 C   0  0  0  0  0  0  0  0  0  0  0  0
   -1.6270   21.9890  -28.7600 C   0  0  0  0  0  0  0  0  0  0  0  0
   -1.9420   22.5790  -27.1330 Cl  0  0  0  0  0  0  0  0  0  0  0  0
   -1.7760   22.8190  -29.8910 C   0  0  0  0  0  0  0  0  0  0  0  0
   -2.1790   24.1500  -29.7760 O   0  0  0  0  0  0  0  0  0  0  0  0
   -1.5170   22.3030  -31.1670 C   0  0  0  0  0  0  0  0  0  0  0  0
   -4.0410   20.0770  -32.8740 C   0  0  0  0  0  0  0  0  0  0  0  0
   -5.5330   22.2290  -31.6700 C   0  0  0  0  0  0  0  0  0  0  0  0
   -3.4860   25.6610  -30.5810 H   0  0  0  0  0  0  0  0  0  0  0  0
   -8.1710   23.8526  -30.2251 H   0  0  0  0  0  0  0  0  0  0  0  0
   -9.4196   22.0961  -31.4686 H   0  0  0  0  0  0  0  0  0  0  0  0
   -9.1730   19.6890  -32.6110 H   0  0  0  0  0  0  0  0  0  0  0  0
   -8.2710   20.1020  -34.0910 H   0  0  0  0  0  0  0  0  0  0  0  0
   -7.1611   19.2918  -34.0516 H   0  0  0  0  0  0  0  0  0  0  0  0
   -5.8326   17.5439  -35.2333 H   0  0  0  0  0  0  0  0  0  0  0  0
   -3.3667   17.3905  -34.8824 H   0  0  0  0  0  0  0  0  0  0  0  0
   -0.6419   19.1068  -30.3214 H   0  0  0  0  0  0  0  0  0  0  0  0
   -1.1021   20.0100  -28.0447 H   0  0  0  0  0  0  0  0  0  0  0  0
   -2.9930   24.5180  -30.2550 H   0  0  0  0  0  0  0  0  0  0  0  0
   -1.6317   22.9487  -32.0501 H   0  0  0  0  0  0  0  0  0  0  0  0
   -3.5335   20.7990  -32.2174 H   0  0  0  0  0  0  0  0  0  0  0  0
   -4.4350   22.2717  -31.7207 H   0  0  0  0  0  0  0  0  0  0  0  0
  1  2  1  0
  2  3  2  0
  2  4  2  0
  2  5  1  0
  5  6  2  0
  6  7  1  0
  7  8  2  0
  8  9  1  0
  8 10  1  0
 10 11  1  0
 11 12  2  0
 12 13  1  0
 13 14  2  0
 14 15  1  0
 15 16  1  0
 16 17  1  0
 17 18  2  0
 17 19  2  0
 17 20  1  0
 20 21  2  0
 21 22  1  0
 22 23  2  0
 23 24  1  0
 23 25  1  0
 25 26  1  0
 25 27  2  0
 15 28  2  0
 10 29  2  0
 29  5  1  0
 28 11  1  0
 27 20  1  0
  1 30  1  0
  6 31  1  0
  7 32  1  0
  9 33  1  0
  9 34  1  0
 12 35  1  0
 13 36  1  0
 14 37  1  0
 21 38  1  0
 22 39  1  0
 26 40  1  0
 27 41  1  0
 28 42  1  0
 29 43  1  0
M  CHG  2   1  -1  16  -1
M  END
>  <UniqueID>  (7) 
7

>  <SMILES>  (7) 
[NH-]S(=O)(=O)c1ccc(N)c(-c2cccc([N-]S(=O)(=O)c3ccc(Cl)c(O)c3)c2)c1

>  <Energy>  (7) 
57.06482374744006

>  <Genealogy>  (7) 
[NH-]S(=O)(=O)c1ccc(N)c(-c2cccc([N-]S(=O)(=O)c3ccc(Cl)c(O)c3)c2)c1 (protonated)
[NH-]S(=O)(=O)c1ccc(N)c(-c2cccc([N-]S(=O)(=O)c3ccc(Cl)c(O)c3)c2)c1 (3D coordinates assigned)
[NH-]S(=O)(=O)c1ccc(N)c(-c2cccc([N-]S(=O)(=O)c3ccc(Cl)c(O)c3)c2)c1 (optimized conformer: 57.06482374744006 kcal/mol)

>  <smiles>  (7) 
Nc1ccc(S(N)(=O)=O)cc1-c1cccc(NS(=O)(=O)c2ccc(Cl)c(O)c2)c1

>  <score_type>  (7) 
oracle

>  <origin>  (7) 
adgpu

>  <m_score__min__energy>  (7) 
-10.83

>  <m_primary>  (7) 
energy

$$$$
7:0
     RDKit          3D

 42 44  0  0  0  0  0  0  0  0999 V2000
   -5.8020   25.3630  -28.8480 O   0  0  0  0  0  0  0  0  0  0  0  0
   -5.3290   25.0250  -30.2340 S   0  0  0  0  0  0  0  0  0  0  0  0
   -5.7460   26.1220  -31.1740 O   0  0  0  0  0  0  0  0  0  0  0  0
   -3.5990   24.9080  -30.2300 N   0  0  0  0  0  0  0  0  0  0  0  0
   -2.8170   24.2320  -29.2350 C   0  0  0  0  0  0  0  0  0  0  0  0
   -3.2000   22.9830  -28.7070 C   0  0  0  0  0  0  0  0  0  0  0  0
   -2.4070   22.3510  -27.7450 C   0  0  0  0  0  0  0  0  0  0  0  0
   -1.2310   22.9590  -27.2970 C   0  0  0  0  0  0  0  0  0  0  0  0
   -0.8460   24.2000  -27.8120 C   0  0  0  0  0  0  0  0  0  0  0  0
   -1.6350   24.8350  -28.7770 C   0  0  0  0  0  0  0  0  0  0  0  0
   -1.2400   26.0690  -29.2820 O   0  0  0  0  0  0  0  0  0  0  0  0
   -6.0350   23.5090  -30.7820 C   0  0  0  0  0  0  0  0  0  0  0  0
   -7.4160   23.3020  -30.6750 C   0  0  0  0  0  0  0  0  0  0  0  0
   -7.9860   22.1060  -31.1250 C   0  0  0  0  0  0  0  0  0  0  0  0
   -7.1760   21.1040  -31.6770 C   0  0  0  0  0  0  0  0  0  0  0  0
   -7.8760   19.5910  -32.2450 S   0  0  0  0  0  0  0  0  0  0  0  0
   -8.5800   18.8920  -31.1160 O   0  0  0  0  0  0  0  0  0  0  0  0
   -8.8750   19.9030  -33.3250 O   0  0  0  0  0  0  0  0  0  0  0  0
   -6.6160   18.5650  -32.8830 N   0  0  0  0  0  0  0  0  0  0  0  0
   -7.1150   17.1870  -33.0280 C   0  0  0  0  0  0  0  0  0  0  0  0
   -6.0890   16.3120  -33.7770 C   0  0  0  0  0  0  0  0  0  0  0  0
   -4.8720   17.0020  -33.9800 O   0  0  0  0  0  0  0  0  0  0  0  0
   -5.0980   18.1400  -34.7900 C   0  0  0  0  0  0  0  0  0  0  0  0
   -6.1620   19.0790  -34.1840 C   0  0  0  0  0  0  0  0  0  0  0  0
   -5.7940   21.3100  -31.7800 C   0  0  0  0  0  0  0  0  0  0  0  0
   -5.2250   22.5060  -31.3340 C   0  0  0  0  0  0  0  0  0  0  0  0
   -4.1272   22.5032  -29.0534 H   0  0  0  0  0  0  0  0  0  0  0  0
   -2.7089   21.3738  -27.3400 H   0  0  0  0  0  0  0  0  0  0  0  0
   -0.6085   22.4609  -26.5391 H   0  0  0  0  0  0  0  0  0  0  0  0
    0.0791   24.6783  -27.4579 H   0  0  0  0  0  0  0  0  0  0  0  0
   -8.0548   24.0824  -30.2357 H   0  0  0  0  0  0  0  0  0  0  0  0
   -9.0722   21.9517  -31.0454 H   0  0  0  0  0  0  0  0  0  0  0  0
   -7.2930   16.7605  -32.0298 H   0  0  0  0  0  0  0  0  0  0  0  0
   -8.0506   17.2085  -33.6061 H   0  0  0  0  0  0  0  0  0  0  0  0
   -5.8921   15.4058  -33.1853 H   0  0  0  0  0  0  0  0  0  0  0  0
   -6.5080   16.0531  -34.7606 H   0  0  0  0  0  0  0  0  0  0  0  0
   -4.1537   18.6943  -34.8951 H   0  0  0  0  0  0  0  0  0  0  0  0
   -5.4671   17.7939  -35.7667 H   0  0  0  0  0  0  0  0  0  0  0  0
   -5.7266   20.0798  -34.0467 H   0  0  0  0  0  0  0  0  0  0  0  0
   -7.0224   19.1324  -34.8672 H   0  0  0  0  0  0  0  0  0  0  0  0
   -5.1543   20.5272  -32.2136 H   0  0  0  0  0  0  0  0  0  0  0  0
   -4.1391   22.6611  -31.4161 H   0  0  0  0  0  0  0  0  0  0  0  0
  1  2  2  0
  2  3  2  0
  2  4  1  0
  4  5  1  0
  5  6  2  0
  6  7  1  0
  7  8  2  0
  8  9  1  0
  9 10  2  0
 10 11  1  0
  2 12  1  0
 12 13  2  0
 13 14  1  0
 14 15  2  0
 15 16  1  0
 16 17  2  0
 16 18  2  0
 16 19  1  0
 19 20  1  0
 20 21  1  0
 21 22  1  0
 22 23  1  0
 23 24  1  0
 15 25  1  0
 25 26  2  0
 10  5  1  0
 26 12  1  0
 24 19  1  0
  6 27  1  0
  7 28  1  0
  8 29  1  0
  9 30  1  0
 13 31  1  0
 14 32  1  0
 20 33  1  0
 20 34  1  0
 21 35  1  0
 21 36  1  0
 23 37  1  0
 23 38  1  0
 24 39  1  0
 24 40  1  0
 25 41  1  0
 26 42  1  0
M  CHG  2   4  -1  11  -1
M  END
>  <UniqueID>  (8) 
8

>  <SMILES>  (8) 
O=S(=O)([N-]c1ccccc1[O-])c1ccc(S(=O)(=O)N2CCOCC2)cc1

>  <Energy>  (8) 
54.07976505370323

>  <Genealogy>  (8) 
O=S(=O)([N-]c1ccccc1[O-])c1ccc(S(=O)(=O)N2CCOCC2)cc1 (protonated)
O=S(=O)([N-]c1ccccc1[O-])c1ccc(S(=O)(=O)N2CCOCC2)cc1 (3D coordinates assigned)
O=S(=O)([N-]c1ccccc1[O-])c1ccc(S(=O)(=O)N2CCOCC2)cc1 (nonaromatic ring conformer: 54.07976505370323 kcal/mol)

>  <smiles>  (8) 
O=S(=O)(Nc1ccccc1O)c1ccc(S(=O)(=O)N2CCOCC2)cc1

>  <score_type>  (8) 
oracle

>  <origin>  (8) 
adgpu

>  <m_score__min__energy>  (8) 
-14.34

>  <m_primary>  (8) 
energy

$$$$
8:0
     RDKit          3D

 30 31  0  0  0  0  0  0  0  0999 V2000
   -8.1366   18.3408  -32.6920 H   0  0  0  0  0  0  0  0  0  0  0  0
   -7.3310   19.0890  -32.7250 C   0  0  0  0  0  0  0  0  0  0  0  0
   -7.5740   20.3930  -32.2850 C   0  0  0  0  0  0  0  0  0  0  0  0
   -8.5733   20.6706  -31.9186 H   0  0  0  0  0  0  0  0  0  0  0  0
   -6.5490   21.3480  -32.3090 C   0  0  0  0  0  0  0  0  0  0  0  0
   -6.8640   22.9960  -31.7770 S   0  0  0  0  0  0  0  0  0  0  0  0
   -8.0070   23.0200  -30.8010 O   0  0  0  0  0  0  0  0  0  0  0  0
   -7.2330   23.8460  -32.9620 O   0  0  0  0  0  0  0  0  0  0  0  0
   -5.4280   23.6430  -31.0130 C   0  0  0  0  0  0  0  0  0  0  0  0
   -4.9910   24.9090  -31.1920 N   0  0  0  0  0  0  0  0  0  0  0  0
   -3.8700   25.1730  -30.5230 N   0  0  0  0  0  0  0  0  0  0  0  0
   -3.4200   24.1120  -29.8170 C   0  0  0  0  0  0  0  0  0  0  0  0
   -2.3480   24.1270  -29.0830 N   0  0  0  0  0  0  0  0  0  0  0  0
   -1.4710   25.2860  -28.9310 C   0  0  0  0  0  0  0  0  0  0  0  0
   -1.8935   26.1339  -29.4900 H   0  0  0  0  0  0  0  0  0  0  0  0
   -0.4752   25.0288  -29.3212 H   0  0  0  0  0  0  0  0  0  0  0  0
   -1.3360   25.6730  -27.4610 C   0  0  0  0  0  0  0  0  0  0  0  0
   -1.6326   24.8227  -26.8293 H   0  0  0  0  0  0  0  0  0  0  0  0
   -0.2910   25.9418  -27.2471 H   0  0  0  0  0  0  0  0  0  0  0  0
   -1.9871   26.5334  -27.2471 H   0  0  0  0  0  0  0  0  0  0  0  0
   -4.4150   22.7670  -29.9920 S   0  0  0  0  0  0  0  0  0  0  0  0
   -5.2800   20.9900  -32.7840 C   0  0  0  0  0  0  0  0  0  0  0  0
   -4.4740   21.7380  -32.8114 H   0  0  0  0  0  0  0  0  0  0  0  0
   -5.0350   19.6860  -33.2230 C   0  0  0  0  0  0  0  0  0  0  0  0
   -4.0328   19.4076  -33.5809 H   0  0  0  0  0  0  0  0  0  0  0  0
   -6.0630   18.7300  -33.2090 C   0  0  0  0  0  0  0  0  0  0  0  0
   -5.7910   17.3210  -33.6440 C   0  0  0  0  0  0  0  0  0  0  0  0
   -5.6675   16.6811  -32.7579 H   0  0  0  0  0  0  0  0  0  0  0  0
   -6.6349   16.9539  -34.2466 H   0  0  0  0  0  0  0  0  0  0  0  0
   -4.8711   17.2944  -34.2466 H   0  0  0  0  0  0  0  0  0  0  0  0
  1  2  1  0
  2  3  2  0
  3  4  1  0
  3  5  1  0
  5  6  1  0
  6  7  2  0
  6  8  2  0
  6  9  1  0
  9 10  2  0
 10 11  1  0
 11 12  1  0
 12 13  2  0
 13 14  1  0
 14 15  1  0
 14 16  1  0
 14 17  1  0
 17 18  1  0
 17 19  1  0
 17 20  1  0
 12 21  1  0
  5 22  2  0
 22 23  1  0
 22 24  1  0
 24 25  1  0
 24 26  2  0
 26 27  1  0
 27 28  1  0
 27 29  1  0
 27 30  1  0
 26  2  1  0
 21  9  1  0
M  CHG  1  11  -1
M  END
>  <UniqueID>  (9) 
9

>  <SMILES>  (9) 
CC/N=c1\[n-]nc(S(=O)(=O)c2ccc(C)cc2)s1

>  <Energy>  (9) 
62.444872173948745

>  <Genealogy>  (9) 
CCN=c1[n-]nc(S(=O)(=O)c2ccc(C)cc2)s1 (protonated)
CC/N=c1\[n-]nc(S(=O)(=O)c2ccc(C)cc2)s1 (cis-trans isomerization)
CC/N=c1\[n-]nc(S(=O)(=O)c2ccc(C)cc2)s1 (3D coordinates assigned)
CC/N=c1\[n-]nc(S(=O)(=O)c2ccc(C)cc2)s1 (optimized conformer: 62.444872173948745 kcal/mol)

>  <smiles>  (9) 
CCN=c1[nH]nc(S(=O)(=O)c2ccc(C)cc2)s1

>  <score_type>  (9) 
oracle

>  <origin>  (9) 
adgpu

>  <m_score__min__energy>  (9) 
-9.0500000000000007

>  <m_primary>  (9) 
energy

$$$$
9:0
     RDKit          3D

 55 58  0  0  0  0  0  0  0  0999 V2000
   -0.5070   21.9330  -34.2580 O   0  0  0  0  0  0  0  0  0  0  0  0
   -0.9660   20.8610  -33.7820 C   0  0  0  0  0  0  0  0  0  0  0  0
   -1.7790   20.8980  -32.6020 N   0  0  0  0  0  0  0  0  0  0  0  0
   -3.1150   21.4140  -32.5000 C   0  0  0  0  0  0  0  0  0  0  0  0
   -3.4170   22.5380  -31.7100 C   0  0  0  0  0  0  0  0  0  0  0  0
   -4.7340   23.0120  -31.6230 C   0  0  0  0  0  0  0  0  0  0  0  0
   -5.0870   24.4140  -30.6160 S   0  0  0  0  0  0  0  0  0  0  0  0
   -5.9510   24.0370  -29.4440 O   0  0  0  0  0  0  0  0  0  0  0  0
   -5.8260   25.4280  -31.4430 O   0  0  0  0  0  0  0  0  0  0  0  0
   -3.6080   25.1150  -30.0460 N   0  0  0  0  0  0  0  0  0  0  0  0
   -2.7380   24.5410  -29.0580 C   0  0  0  0  0  0  0  0  0  0  0  0
   -3.0340   23.3190  -28.4230 C   0  0  0  0  0  0  0  0  0  0  0  0
   -2.1600   22.7920  -27.4680 C   0  0  0  0  0  0  0  0  0  0  0  0
   -0.9910   23.4800  -27.1300 C   0  0  0  0  0  0  0  0  0  0  0  0
   -0.6930   24.6930  -27.7510 C   0  0  0  0  0  0  0  0  0  0  0  0
   -1.5590   25.2240  -28.7150 C   0  0  0  0  0  0  0  0  0  0  0  0
   -1.2360   26.4220  -29.3420 O   0  0  0  0  0  0  0  0  0  0  0  0
   -5.7550   22.3530  -32.3190 C   0  0  0  0  0  0  0  0  0  0  0  0
   -5.4660   21.2170  -33.0800 C   0  0  0  0  0  0  0  0  0  0  0  0
   -4.1540   20.7440  -33.1650 C   0  0  0  0  0  0  0  0  0  0  0  0
   -3.8830   19.6070  -33.9210 O   0  0  0  0  0  0  0  0  0  0  0  0
   -0.7230   19.5780  -34.4940 C   0  0  0  0  0  0  0  0  0  0  0  0
   -1.4570   18.4320  -34.1270 C   0  0  0  0  0  0  0  0  0  0  0  0
   -1.2400   17.2050  -34.7660 C   0  0  0  0  0  0  0  0  0  0  0  0
   -2.1320   15.7630  -34.2830 S   0  0  0  0  0  0  0  0  0  0  0  0
   -1.9730   14.6840  -35.3210 O   0  0  0  0  0  0  0  0  0  0  0  0
   -1.5700   15.2640  -32.9820 O   0  0  0  0  0  0  0  0  0  0  0  0
   -3.8180   16.1630  -34.0830 N   0  0  0  0  0  0  0  0  0  0  0  0
   -4.0430   16.7670  -32.7570 C   0  0  0  0  0  0  0  0  0  0  0  0
   -5.4320   17.4290  -32.6790 C   0  0  0  0  0  0  0  0  0  0  0  0
   -6.2620   16.9840  -33.7330 O   0  0  0  0  0  0  0  0  0  0  0  0
   -5.7410   17.4260  -34.9750 C   0  0  0  0  0  0  0  0  0  0  0  0
   -4.2440   17.0870  -35.1440 C   0  0  0  0  0  0  0  0  0  0  0  0
   -0.2810   17.1130  -35.7790 C   0  0  0  0  0  0  0  0  0  0  0  0
    0.4490   18.2390  -36.1580 C   0  0  0  0  0  0  0  0  0  0  0  0
    0.2350   19.4680  -35.5270 C   0  0  0  0  0  0  0  0  0  0  0  0
    0.9780   20.5670  -35.9470 O   0  0  0  0  0  0  0  0  0  0  0  0
   -2.6149   23.0485  -31.1568 H   0  0  0  0  0  0  0  0  0  0  0  0
   -3.9564   22.7774  -28.6796 H   0  0  0  0  0  0  0  0  0  0  0  0
   -2.3926   21.8334  -26.9811 H   0  0  0  0  0  0  0  0  0  0  0  0
   -0.3068   23.0653  -26.3751 H   0  0  0  0  0  0  0  0  0  0  0  0
    0.2260   25.2347  -27.4824 H   0  0  0  0  0  0  0  0  0  0  0  0
   -6.7869   22.7304  -32.2666 H   0  0  0  0  0  0  0  0  0  0  0  0
   -6.2734   20.6939  -33.6134 H   0  0  0  0  0  0  0  0  0  0  0  0
   -2.2100   18.5024  -33.3283 H   0  0  0  0  0  0  0  0  0  0  0  0
   -3.9748   15.9829  -31.9885 H   0  0  0  0  0  0  0  0  0  0  0  0
   -3.2775   17.5390  -32.5897 H   0  0  0  0  0  0  0  0  0  0  0  0
   -5.9006   17.1709  -31.7179 H   0  0  0  0  0  0  0  0  0  0  0  0
   -5.3077   18.5186  -32.7652 H   0  0  0  0  0  0  0  0  0  0  0  0
   -6.3056   16.9429  -35.7861 H   0  0  0  0  0  0  0  0  0  0  0  0
   -5.8410   18.5209  -35.0081 H   0  0  0  0  0  0  0  0  0  0  0  0
   -4.0853   16.6146  -36.1246 H   0  0  0  0  0  0  0  0  0  0  0  0
   -3.6531   18.0124  -35.0775 H   0  0  0  0  0  0  0  0  0  0  0  0
   -0.1017   16.1495  -36.2786 H   0  0  0  0  0  0  0  0  0  0  0  0
    1.1986   18.1597  -36.9592 H   0  0  0  0  0  0  0  0  0  0  0  0
  1  2  2  0
  2  3  1  0
  3  4  1  0
  4  5  2  0
  5  6  1  0
  6  7  1  0
  7  8  2  0
  7  9  2  0
  7 10  1  0
 10 11  1  0
 11 12  2  0
 12 13  1  0
 13 14  2  0
 14 15  1  0
 15 16  2  0
 16 17  1  0
  6 18  2  0
 18 19  1  0
 19 20  2  0
 20 21  1  0
  2 22  1  0
 22 23  2  0
 23 24  1  0
 24 25  1  0
 25 26  2  0
 25 27  2  0
 25 28  1  0
 28 29  1  0
 29 30  1  0
 30 31  1  0
 31 32  1  0
 32 33  1  0
 24 34  2  0
 34 35  1  0
 35 36  2  0
 36 37  1  0
 20  4  1  0
 36 22  1  0
 16 11  1  0
 33 28  1  0
  5 38  1  0
 12 39  1  0
 13 40  1  0
 14 41  1  0
 15 42  1  0
 18 43  1  0
 19 44  1  0
 23 45  1  0
 29 46  1  0
 29 47  1  0
 30 48  1  0
 30 49  1  0
 32 50  1  0
 32 51  1  0
 33 52  1  0
 33 53  1  0
 34 54  1  0
 35 55  1  0
M  CHG  5   3  -1  10  -1  17  -1  21  -1  37  -1
M  END
>  <UniqueID>  (10) 
10

>  <SMILES>  (10) 
O=C([N-]c1cc(S(=O)(=O)[N-]c2ccccc2[O-])ccc1[O-])c1cc(S(=O)(=O)N2CCOCC2)ccc1[O-]

>  <Energy>  (10) 
76.51538904279495

>  <Genealogy>  (10) 
O=C([N-]c1cc(S(=O)(=O)[N-]c2ccccc2[O-])ccc1[O-])c1cc(S(=O)(=O)N2CCOCC2)ccc1[O-] (protonated)
O=C([N-]c1cc(S(=O)(=O)[N-]c2ccccc2[O-])ccc1[O-])c1cc(S(=O)(=O)N2CCOCC2)ccc1[O-] (3D coordinates assigned)
O=C([N-]c1cc(S(=O)(=O)[N-]c2ccccc2[O-])ccc1[O-])c1cc(S(=O)(=O)N2CCOCC2)ccc1[O-] (nonaromatic ring conformer: 76.51538904279495 kcal/mol)

>  <smiles>  (10) 
O=C(Nc1cc(S(=O)(=O)Nc2ccccc2O)ccc1O)c1cc(S(=O)(=O)N2CCOCC2)ccc1O

>  <score_type>  (10) 
oracle

>  <origin>  (10) 
adgpu

>  <m_score__min__energy>  (10) 
-15.77

>  <m_primary>  (10) 
energy

$$$$
10:0
     RDKit          3D

 40 42  0  0  1  0  0  0  0  0999 V2000
   -9.4400   19.7920  -33.4390 N   0  0  0  0  0  0  0  0  0  0  0  0
   -8.0770   19.2700  -32.5040 S   0  0  0  0  0  0  0  0  0  0  0  0
   -7.3090   18.1750  -33.1840 O   0  0  0  0  0  0  0  0  0  0  0  0
   -8.6250   18.7200  -31.2130 O   0  0  0  0  0  0  0  0  0  0  0  0
   -7.0490   20.6320  -32.1090 C   0  0  0  0  0  0  0  0  0  0  0  0
   -5.6770   20.5400  -32.3080 C   0  0  0  0  0  0  0  0  0  0  0  0
   -4.8540   21.6130  -31.9990 C   0  0  0  0  0  0  0  0  0  0  0  0
   -5.4200   22.7800  -31.4870 C   0  0  0  0  0  0  0  0  0  0  0  0
   -4.5480   23.8690  -31.1770 N   0  0  0  0  0  0  0  0  0  0  0  0
   -3.8980   23.8890  -30.0610 C   0  0  0  0  0  0  0  0  0  0  0  0
   -4.0400   22.8560  -29.1570 C   0  0  0  0  0  0  0  0  0  0  0  0
   -3.3230   22.9250  -27.9790 C   0  0  0  0  0  0  0  0  0  0  0  0
   -2.5040   23.9390  -27.6770 N   0  0  0  0  0  0  0  0  0  0  0  0
   -2.3790   24.9380  -28.5760 C   0  0  0  0  0  0  0  0  0  0  0  0
   -1.6110   25.9350  -28.3470 N   0  0  0  0  0  0  0  0  0  0  0  0
   -0.8470   26.0650  -27.1530 C   0  0  0  0  0  0  0  0  0  0  0  0
    0.3460   25.3400  -27.0560 C   0  0  0  0  0  0  0  0  0  0  0  0
    1.1240   25.4320  -25.9170 C   0  0  0  0  0  0  0  0  0  0  0  0
    0.7280   26.2390  -24.8700 C   0  0  0  0  0  0  0  0  0  0  0  0
    1.4680   26.3700  -23.7020 O   0  0  0  0  0  0  0  0  0  0  0  0
   -0.4630   26.9690  -24.9580 C   0  0  0  0  0  0  0  0  0  0  0  0
   -1.2350   26.8720  -26.0980 C   0  0  0  0  0  0  0  0  0  0  0  0
   -3.0660   24.8910  -29.7260 N   0  0  0  0  0  0  0  0  0  0  0  0
   -6.7810   22.8600  -31.2930 C   0  0  0  0  0  0  0  0  0  0  0  0
   -7.6250   21.7880  -31.5990 C   0  0  0  0  0  0  0  0  0  0  0  0
   -9.8450   18.8990  -33.8430 H   0  0  0  0  0  0  0  0  0  0  0  0
   -9.0680   20.3630  -34.2270 H   0  0  0  0  0  0  0  0  0  0  0  0
   -5.2422   19.6137  -32.7117 H   0  0  0  0  0  0  0  0  0  0  0  0
   -3.7675   21.5441  -32.1560 H   0  0  0  0  0  0  0  0  0  0  0  0
   -4.7035   22.0044  -29.3682 H   0  0  0  0  0  0  0  0  0  0  0  0
   -3.4305   22.1057  -27.2529 H   0  0  0  0  0  0  0  0  0  0  0  0
   -1.9710   23.9870  -26.7980 H   0  0  0  0  0  0  0  0  0  0  0  0
    0.6655   24.6953  -27.8881 H   0  0  0  0  0  0  0  0  0  0  0  0
    2.0611   24.8605  -25.8451 H   0  0  0  0  0  0  0  0  0  0  0  0
    1.3580   25.6260  -23.0230 H   0  0  0  0  0  0  0  0  0  0  0  0
   -0.7809   27.6144  -24.1259 H   0  0  0  0  0  0  0  0  0  0  0  0
   -2.1718   27.4442  -26.1689 H   0  0  0  0  0  0  0  0  0  0  0  0
   -2.9610   25.6730  -30.4150 H   0  0  0  0  0  0  0  0  0  0  0  0
   -7.2135   23.7871  -30.8886 H   0  0  0  0  0  0  0  0  0  0  0  0
   -8.7113   21.8582  -31.4407 H   0  0  0  0  0  0  0  0  0  0  0  0
  1  2  1  0
  2  3  2  0
  2  4  2  0
  2  5  1  0
  5  6  2  0
  6  7  1  0
  7  8  2  0
  8  9  1  0
  9 10  2  0
 10 11  1  0
 11 12  2  0
 12 13  1  0
 13 14  1  0
 14 15  2  0
 15 16  1  0
 16 17  2  0
 17 18  1  0
 18 19  2  0
 19 20  1  0
 19 21  1  0
 21 22  2  0
 14 23  1  0
  8 24  1  0
 24 25  2  0
 25  5  1  0
 23 10  1  0
 22 16  1  0
  1 26  1  0
  1 27  1  0
  6 28  1  0
  7 29  1  0
 11 30  1  0
 12 31  1  0
 13 32  1  0
 17 33  1  0
 18 34  1  0
 20 35  1  0
 21 36  1  0
 22 37  1  0
 23 38  1  0
 24 39  1  0
 25 40  1  0
M  END
>  <smiles>  (11) 
NS(=O)(=O)c1ccc(N=c2cc[nH]c(=Nc3ccc(O)cc3)[nH]2)cc1

>  <score_type>  (11) 
oracle

>  <origin>  (11) 
adgpu

>  <m_score__min__energy>  (11) 
-9.4000000000000004

>  <m_primary>  (11) 
energy

$$$$
11:0
     RDKit          3D

 59 62  0  0  0  0  0  0  0  0999 V2000
   -2.5640   21.5200  -30.4460 O   0  0  0  0  0  0  0  0  0  0  0  0
   -3.1220   22.3850  -29.7160 C   0  0  0  0  0  0  0  0  0  0  0  0
   -2.6450   22.5970  -28.3810 N   0  0  0  0  0  0  0  0  0  0  0  0
   -1.5960   23.4920  -27.9850 C   0  0  0  0  0  0  0  0  0  0  0  0
   -0.3210   23.3230  -28.5380 C   0  0  0  0  0  0  0  0  0  0  0  0
    0.7280   24.1660  -28.1670 C   0  0  0  0  0  0  0  0  0  0  0  0
    0.5160   25.1770  -27.2250 C   0  0  0  0  0  0  0  0  0  0  0  0
   -0.7480   25.3410  -26.6420 C   0  0  0  0  0  0  0  0  0  0  0  0
   -1.0120   26.6100  -25.4430 S   0  0  0  0  0  0  0  0  0  0  0  0
   -2.3610   26.4210  -24.8060 O   0  0  0  0  0  0  0  0  0  0  0  0
    0.0300   26.4950  -24.3660 O   0  0  0  0  0  0  0  0  0  0  0  0
   -0.9250   28.1990  -26.1620 N   0  0  0  0  0  0  0  0  0  0  0  0
    0.2780   28.3090  -27.0140 C   0  0  0  0  0  0  0  0  0  0  0  0
    0.5660   29.7670  -27.4410 C   0  0  0  0  0  0  0  0  0  0  0  0
   -0.6440   30.6750  -27.2120 C   0  0  0  0  0  0  0  0  0  0  0  0
   -1.1010   30.6300  -25.7430 C   0  0  0  0  0  0  0  0  0  0  0  0
   -0.9240   29.2340  -25.1150 C   0  0  0  0  0  0  0  0  0  0  0  0
   -1.8000   24.4920  -27.0170 C   0  0  0  0  0  0  0  0  0  0  0  0
   -4.2990   23.1360  -30.2330 C   0  0  0  0  0  0  0  0  0  0  0  0
   -5.4670   22.4320  -30.5870 C   0  0  0  0  0  0  0  0  0  0  0  0
   -6.5880   23.1020  -31.0900 C   0  0  0  0  0  0  0  0  0  0  0  0
   -8.0190   22.1810  -31.5520 S   0  0  0  0  0  0  0  0  0  0  0  0
   -9.0920   23.1100  -32.0480 O   0  0  0  0  0  0  0  0  0  0  0  0
   -8.5320   21.4690  -30.3320 O   0  0  0  0  0  0  0  0  0  0  0  0
   -7.6130   21.0020  -32.7840 N   0  0  0  0  0  0  0  0  0  0  0  0
   -8.7490   20.1140  -33.0920 C   0  0  0  0  0  0  0  0  0  0  0  0
   -9.0030   19.0790  -31.9710 C   0  0  0  0  0  0  0  0  0  0  0  0
   -7.8920   18.8850  -31.1110 O   0  0  0  0  0  0  0  0  0  0  0  0
   -6.6970   18.8520  -31.8560 C   0  0  0  0  0  0  0  0  0  0  0  0
   -6.3900   20.2460  -32.4350 C   0  0  0  0  0  0  0  0  0  0  0  0
   -6.5510   24.4920  -31.2490 C   0  0  0  0  0  0  0  0  0  0  0  0
   -5.4050   25.2050  -30.9020 C   0  0  0  0  0  0  0  0  0  0  0  0
   -4.2820   24.5410  -30.3980 C   0  0  0  0  0  0  0  0  0  0  0  0
   -3.1590   25.2960  -30.0730 O   0  0  0  0  0  0  0  0  0  0  0  0
   -0.1447   22.5207  -29.2696 H   0  0  0  0  0  0  0  0  0  0  0  0
    1.7232   24.0345  -28.6167 H   0  0  0  0  0  0  0  0  0  0  0  0
    1.3426   25.8449  -26.9409 H   0  0  0  0  0  0  0  0  0  0  0  0
    1.1441   27.9273  -26.4534 H   0  0  0  0  0  0  0  0  0  0  0  0
    0.0980   27.7214  -27.9263 H   0  0  0  0  0  0  0  0  0  0  0  0
    1.4142   30.1491  -26.8540 H   0  0  0  0  0  0  0  0  0  0  0  0
    0.7969   29.7693  -28.5165 H   0  0  0  0  0  0  0  0  0  0  0  0
   -0.3717   31.7086  -27.4720 H   0  0  0  0  0  0  0  0  0  0  0  0
   -1.4707   30.3216  -27.8458 H   0  0  0  0  0  0  0  0  0  0  0  0
   -0.5076   31.3546  -25.1661 H   0  0  0  0  0  0  0  0  0  0  0  0
   -2.1729   30.8756  -25.7177 H   0  0  0  0  0  0  0  0  0  0  0  0
    0.0316   29.1992  -24.5712 H   0  0  0  0  0  0  0  0  0  0  0  0
   -1.7582   29.0443  -24.4235 H   0  0  0  0  0  0  0  0  0  0  0  0
   -2.7898   24.6089  -26.5515 H   0  0  0  0  0  0  0  0  0  0  0  0
   -5.4982   21.3391  -30.4662 H   0  0  0  0  0  0  0  0  0  0  0  0
   -9.6533   20.7271  -33.2194 H   0  0  0  0  0  0  0  0  0  0  0  0
   -8.5061   19.5622  -34.0120 H   0  0  0  0  0  0  0  0  0  0  0  0
   -9.8542   19.4244  -31.3659 H   0  0  0  0  0  0  0  0  0  0  0  0
   -9.2008   18.1151  -32.4626 H   0  0  0  0  0  0  0  0  0  0  0  0
   -5.8696   18.5406  -31.2014 H   0  0  0  0  0  0  0  0  0  0  0  0
   -6.8112   18.1374  -32.6844 H   0  0  0  0  0  0  0  0  0  0  0  0
   -5.8227   20.8202  -31.6877 H   0  0  0  0  0  0  0  0  0  0  0  0
   -5.8136   20.1014  -33.3607 H   0  0  0  0  0  0  0  0  0  0  0  0
   -7.4279   25.0225  -31.6485 H   0  0  0  0  0  0  0  0  0  0  0  0
   -5.3835   26.2978  -31.0254 H   0  0  0  0  0  0  0  0  0  0  0  0
  1  2  2  0
  2  3  1  0
  3  4  1  0
  4  5  2  0
  5  6  1  0
  6  7  2  0
  7  8  1  0
  8  9  1  0
  9 10  2  0
  9 11  2  0
  9 12  1  0
 12 13  1  0
 13 14  1  0
 14 15  1  0
 15 16  1  0
 16 17  1  0
  8 18  2  0
  2 19  1  0
 19 20  2  0
 20 21  1  0
 21 22  1  0
 22 23  2  0
 22 24  2  0
 22 25  1  0
 25 26  1  0
 26 27  1  0
 27 28  1  0
 28 29  1  0
 29 30  1  0
 21 31  2  0
 31 32  1  0
 32 33  2  0
 33 34  1  0
 18  4  1  0
 33 19  1  0
 17 12  1  0
 30 25  1  0
  5 35  1  0
  6 36  1  0
  7 37  1  0
 13 38  1  0
 13 39  1  0
 14 40  1  0
 14 41  1  0
 15 42  1  0
 15 43  1  0
 16 44  1  0
 16 45  1  0
 17 46  1  0
 17 47  1  0
 18 48  1  0
 20 49  1  0
 26 50  1  0
 26 51  1  0
 27 52  1  0
 27 53  1  0
 29 54  1  0
 29 55  1  0
 30 56  1  0
 30 57  1  0
 31 58  1  0
 32 59  1  0
M  CHG  2   3  -1  34  -1
M  END
>  <UniqueID>  (12) 
11

>  <SMILES>  (12) 
O=C([N-]c1cccc(S(=O)(=O)N2CCCCC2)c1)c1cc(S(=O)(=O)N2CCOCC2)ccc1[O-]

>  <Energy>  (12) 
80.55209593374798

>  <Genealogy>  (12) 
O=C([N-]c1cccc(S(=O)(=O)N2CCCCC2)c1)c1cc(S(=O)(=O)N2CCOCC2)ccc1[O-] (protonated)
O=C([N-]c1cccc(S(=O)(=O)N2CCCCC2)c1)c1cc(S(=O)(=O)N2CCOCC2)ccc1[O-] (3D coordinates assigned)
O=C([N-]c1cccc(S(=O)(=O)N2CCCCC2)c1)c1cc(S(=O)(=O)N2CCOCC2)ccc1[O-] (nonaromatic ring conformer: 80.55209593374798 kcal/mol)

>  <smiles>  (12) 
O=C(Nc1cccc(S(=O)(=O)N2CCCCC2)c1)c1cc(S(=O)(=O)N2CCOCC2)ccc1O

>  <score_type>  (12) 
oracle

>  <origin>  (12) 
adgpu

>  <m_score__min__energy>  (12) 
-15.130000000000001

>  <m_primary>  (12) 
energy

$$$$
12:0
     RDKit          3D

 50 52  0  0  0  0  0  0  0  0999 V2000
    1.5500   24.5480  -25.9790 C   0  0  0  0  0  0  0  0  0  0  0  0
    1.9020   24.7130  -27.4530 C   0  0  0  0  0  0  0  0  0  0  0  0
    0.9240   24.0850  -28.2800 O   0  0  0  0  0  0  0  0  0  0  0  0
    0.1370   22.9740  -27.9270 C   0  0  0  0  0  0  0  0  0  0  0  0
    0.6800   21.6770  -27.8130 C   0  0  0  0  0  0  0  0  0  0  0  0
   -0.1300   20.6000  -27.4450 C   0  0  0  0  0  0  0  0  0  0  0  0
   -1.4840   20.8010  -27.1760 C   0  0  0  0  0  0  0  0  0  0  0  0
   -2.5870   19.3270  -26.6660 Br  0  0  0  0  0  0  0  0  0  0  0  0
   -2.0330   22.0800  -27.2800 C   0  0  0  0  0  0  0  0  0  0  0  0
   -1.2350   23.1670  -27.6670 C   0  0  0  0  0  0  0  0  0  0  0  0
   -1.9700   24.7670  -27.8170 S   0  0  0  0  0  0  0  0  0  0  0  0
   -0.9500   25.8490  -27.5910 O   0  0  0  0  0  0  0  0  0  0  0  0
   -3.0580   24.8970  -26.7890 O   0  0  0  0  0  0  0  0  0  0  0  0
   -2.6570   24.9730  -29.3980 N   0  0  0  0  0  0  0  0  0  0  0  0
   -3.8400   24.2930  -29.8580 C   0  0  0  0  0  0  0  0  0  0  0  0
   -5.0900   24.9050  -29.6860 C   0  0  0  0  0  0  0  0  0  0  0  0
   -6.2600   24.2670  -30.1090 C   0  0  0  0  0  0  0  0  0  0  0  0
   -6.1960   23.0080  -30.7140 C   0  0  0  0  0  0  0  0  0  0  0  0
   -7.6810   22.2260  -31.2520 S   0  0  0  0  0  0  0  0  0  0  0  0
   -8.7060   22.2510  -30.1520 O   0  0  0  0  0  0  0  0  0  0  0  0
   -8.2180   22.9830  -32.4350 O   0  0  0  0  0  0  0  0  0  0  0  0
   -7.3410   20.5770  -31.7110 N   0  0  0  0  0  0  0  0  0  0  0  0
   -8.5620   19.7590  -31.5980 C   0  0  0  0  0  0  0  0  0  0  0  0
   -8.3670   18.3820  -32.2630 C   0  0  0  0  0  0  0  0  0  0  0  0
   -7.0010   18.1430  -32.5430 O   0  0  0  0  0  0  0  0  0  0  0  0
   -6.5380   19.0770  -33.5030 C   0  0  0  0  0  0  0  0  0  0  0  0
   -6.8280   20.5360  -33.0890 C   0  0  0  0  0  0  0  0  0  0  0  0
   -4.9520   22.3910  -30.8970 C   0  0  0  0  0  0  0  0  0  0  0  0
   -3.7820   23.0270  -30.4730 C   0  0  0  0  0  0  0  0  0  0  0  0
    2.3733   24.9339  -25.3600 H   0  0  0  0  0  0  0  0  0  0  0  0
    0.6301   25.1087  -25.7567 H   0  0  0  0  0  0  0  0  0  0  0  0
    1.3925   23.4823  -25.7567 H   0  0  0  0  0  0  0  0  0  0  0  0
    1.9451   25.7850  -27.6958 H   0  0  0  0  0  0  0  0  0  0  0  0
    2.8774   24.2393  -27.6381 H   0  0  0  0  0  0  0  0  0  0  0  0
    1.7487   21.5126  -28.0153 H   0  0  0  0  0  0  0  0  0  0  0  0
    0.3009   19.5909  -27.3671 H   0  0  0  0  0  0  0  0  0  0  0  0
   -3.0987   22.2368  -27.0570 H   0  0  0  0  0  0  0  0  0  0  0  0
   -2.1970   25.6700  -30.0250 H   0  0  0  0  0  0  0  0  0  0  0  0
   -5.1506   25.8966  -29.2137 H   0  0  0  0  0  0  0  0  0  0  0  0
   -7.2342   24.7572  -29.9654 H   0  0  0  0  0  0  0  0  0  0  0  0
   -8.8010   19.6142  -30.5341 H   0  0  0  0  0  0  0  0  0  0  0  0
   -9.3834   20.2823  -32.1093 H   0  0  0  0  0  0  0  0  0  0  0  0
   -8.7374   17.5993  -31.5847 H   0  0  0  0  0  0  0  0  0  0  0  0
   -8.9265   18.3678  -33.2100 H   0  0  0  0  0  0  0  0  0  0  0  0
   -5.4516   18.9525  -33.6223 H   0  0  0  0  0  0  0  0  0  0  0  0
   -7.0707   18.8826  -34.4456 H   0  0  0  0  0  0  0  0  0  0  0  0
   -5.8996   21.1229  -33.1494 H   0  0  0  0  0  0  0  0  0  0  0  0
   -7.5830   20.9599  -33.7674 H   0  0  0  0  0  0  0  0  0  0  0  0
   -4.8957   21.4024  -31.3761 H   0  0  0  0  0  0  0  0  0  0  0  0
   -2.8090   22.5356  -30.6205 H   0  0  0  0  0  0  0  0  0  0  0  0
  1  2  1  0
  2  3  1  0
  3  4  1  0
  4  5  2  0
  5  6  1  0
  6  7  2  0
  7  8  1  0
  7  9  1  0
  9 10  2  0
 10 11  1  0
 11 12  2  0
 11 13  2  0
 11 14  1  0
 14 15  1  0
 15 16  2  0
 16 17  1  0
 17 18  2  0
 18 19  1  0
 19 20  2  0
 19 21  2  0
 19 22  1  0
 22 23  1  0
 23 24  1  0
 24 25  1  0
 25 26  1  0
 26 27  1  0
 18 28  1  0
 28 29  2  0
 10  4  1  0
 29 15  1  0
 27 22  1  0
  1 30  1  0
  1 31  1  0
  1 32  1  0
  2 33  1  0
  2 34  1  0
  5 35  1  0
  6 36  1  0
  9 37  1  0
 14 38  1  0
 16 39  1  0
 17 40  1  0
 23 41  1  0
 23 42  1  0
 24 43  1  0
 24 44  1  0
 26 45  1  0
 26 46  1  0
 27 47  1  0
 27 48  1  0
 28 49  1  0
 29 50  1  0
M  END
>  <UniqueID>  (13) 
12

>  <SMILES>  (13) 
CCOc1ccc(Br)cc1S(=O)(=O)Nc1ccc(S(=O)(=O)N2CCOCC2)cc1

>  <Energy>  (13) 
59.190658287750324

>  <Genealogy>  (13) 
CCOc1ccc(Br)cc1S(=O)(=O)Nc1ccc(S(=O)(=O)N2CCOCC2)cc1 (3D coordinates assigned)
CCOc1ccc(Br)cc1S(=O)(=O)Nc1ccc(S(=O)(=O)N2CCOCC2)cc1 (nonaromatic ring conformer: 59.190658287750324 kcal/mol)

>  <smiles>  (13) 
CCOc1ccc(Br)cc1S(=O)(=O)Nc1ccc(S(=O)(=O)N2CCOCC2)cc1

>  <score_type>  (13) 
oracle

>  <origin>  (13) 
adgpu

>  <m_score__min__energy>  (13) 
-10.029999999999999

>  <m_primary>  (13) 
energy

$$$$
13:0
     RDKit          3D

 53 56  0  0  0  0  0  0  0  0999 V2000
   -8.3400   23.4960  -31.9220 C   0  0  0  0  0  0  0  0  0  0  0  0
   -7.0580   23.3050  -31.1560 C   0  0  0  0  0  0  0  0  0  0  0  0
   -6.4560   24.4070  -30.5360 C   0  0  0  0  0  0  0  0  0  0  0  0
   -5.2800   24.2690  -29.8700 N   0  0  0  0  0  0  0  0  0  0  0  0
   -4.6680   23.0510  -29.7760 C   0  0  0  0  0  0  0  0  0  0  0  0
   -3.5300   22.8930  -29.1600 N   0  0  0  0  0  0  0  0  0  0  0  0
   -2.8160   23.8710  -28.3880 C   0  0  0  0  0  0  0  0  0  0  0  0
   -3.3420   24.2880  -27.1600 C   0  0  0  0  0  0  0  0  0  0  0  0
   -2.6960   25.2800  -26.4150 C   0  0  0  0  0  0  0  0  0  0  0  0
   -1.5300   25.8840  -26.9060 C   0  0  0  0  0  0  0  0  0  0  0  0
   -0.7210   27.1420  -25.9680 S   0  0  0  0  0  0  0  0  0  0  0  0
   -1.6070   27.5520  -24.8240 O   0  0  0  0  0  0  0  0  0  0  0  0
   -0.5050   28.3450  -26.8420 O   0  0  0  0  0  0  0  0  0  0  0  0
    0.8170   26.6000  -25.3420 N   0  0  0  0  0  0  0  0  0  0  0  0
    0.7480   25.1850  -24.9550 C   0  0  0  0  0  0  0  0  0  0  0  0
    2.1220   24.7170  -24.4280 C   0  0  0  0  0  0  0  0  0  0  0  0
    3.0360   25.7900  -24.2850 O   0  0  0  0  0  0  0  0  0  0  0  0
    2.4580   26.8120  -23.4950 C   0  0  0  0  0  0  0  0  0  0  0  0
    1.2260   27.4230  -24.1910 C   0  0  0  0  0  0  0  0  0  0  0  0
   -1.0210   25.4910  -28.1510 C   0  0  0  0  0  0  0  0  0  0  0  0
   -1.6670   24.5000  -28.8950 C   0  0  0  0  0  0  0  0  0  0  0  0
   -5.2380   21.9710  -30.3680 N   0  0  0  0  0  0  0  0  0  0  0  0
   -6.4200   22.0510  -31.0350 C   0  0  0  0  0  0  0  0  0  0  0  0
   -6.9740   20.8140  -31.6240 C   0  0  0  0  0  0  0  0  0  0  0  0
   -8.2350   20.3350  -31.2370 C   0  0  0  0  0  0  0  0  0  0  0  0
   -8.7360   19.1510  -31.7840 C   0  0  0  0  0  0  0  0  0  0  0  0
   -7.9790   18.4300  -32.7090 C   0  0  0  0  0  0  0  0  0  0  0  0
   -6.7040   18.8820  -33.0930 C   0  0  0  0  0  0  0  0  0  0  0  0
   -5.8940   18.1150  -34.0660 C   0  0  0  0  0  0  0  0  0  0  0  0
   -5.7520   18.5270  -35.2470 O   0  0  0  0  0  0  0  0  0  0  0  0
   -5.2780   16.9270  -33.6880 O   0  0  0  0  0  0  0  0  0  0  0  0
   -6.2060   20.0740  -32.5380 C   0  0  0  0  0  0  0  0  0  0  0  0
   -9.1741   23.6203  -31.2157 H   0  0  0  0  0  0  0  0  0  0  0  0
   -8.2589   24.3920  -32.5550 H   0  0  0  0  0  0  0  0  0  0  0  0
   -8.5236   22.6153  -32.5550 H   0  0  0  0  0  0  0  0  0  0  0  0
   -6.9398   25.3935  -30.5888 H   0  0  0  0  0  0  0  0  0  0  0  0
   -4.8470   25.1330  -29.4760 H   0  0  0  0  0  0  0  0  0  0  0  0
   -4.2682   23.8333  -26.7787 H   0  0  0  0  0  0  0  0  0  0  0  0
   -3.1041   25.5872  -25.4408 H   0  0  0  0  0  0  0  0  0  0  0  0
   -0.0076   25.0591  -24.1656 H   0  0  0  0  0  0  0  0  0  0  0  0
    0.4723   24.5823  -25.8329 H   0  0  0  0  0  0  0  0  0  0  0  0
    1.9809   24.2392  -23.4473 H   0  0  0  0  0  0  0  0  0  0  0  0
    2.5417   24.0123  -25.1610 H   0  0  0  0  0  0  0  0  0  0  0  0
    2.1504   26.3877  -22.5279 H   0  0  0  0  0  0  0  0  0  0  0  0
    3.2058   27.6055  -23.3493 H   0  0  0  0  0  0  0  0  0  0  0  0
    0.3950   27.4771  -23.4723 H   0  0  0  0  0  0  0  0  0  0  0  0
    1.4858   28.4296  -24.5504 H   0  0  0  0  0  0  0  0  0  0  0  0
   -0.1093   25.9644  -28.5443 H   0  0  0  0  0  0  0  0  0  0  0  0
   -1.2743   24.2115  -29.8812 H   0  0  0  0  0  0  0  0  0  0  0  0
   -8.8311   20.8937  -30.5004 H   0  0  0  0  0  0  0  0  0  0  0  0
   -9.7297   18.7860  -31.4849 H   0  0  0  0  0  0  0  0  0  0  0  0
   -8.3825   17.5021  -33.1404 H   0  0  0  0  0  0  0  0  0  0  0  0
   -5.2050   20.4306  -32.8224 H   0  0  0  0  0  0  0  0  0  0  0  0
  1  2  1  0
  2  3  2  0
  3  4  1  0
  4  5  1  0
  5  6  2  3
  6  7  1  0
  7  8  2  0
  8  9  1  0
  9 10  2  0
 10 11  1  0
 11 12  2  0
 11 13  2  0
 11 14  1  0
 14 15  1  0
 15 16  1  0
 16 17  1  0
 17 18  1  0
 18 19  1  0
 10 20  1  0
 20 21  2  0
  5 22  1  0
 22 23  2  0
 23 24  1  0
 24 25  2  0
 25 26  1  0
 26 27  2  0
 27 28  1  0
 28 29  1  0
 29 30  2  0
 29 31  1  0
 28 32  2  0
 23  2  1  0
 32 24  1  0
 21  7  1  0
 19 14  1  0
  1 33  1  0
  1 34  1  0
  1 35  1  0
  3 36  1  0
  4 37  1  0
  8 38  1  0
  9 39  1  0
 15 40  1  0
 15 41  1  0
 16 42  1  0
 16 43  1  0
 18 44  1  0
 18 45  1  0
 19 46  1  0
 19 47  1  0
 20 48  1  0
 21 49  1  0
 25 50  1  0
 26 51  1  0
 27 52  1  0
 32 53  1  0
M  CHG  1  31  -1
M  END
>  <UniqueID>  (14) 
13

>  <SMILES>  (14) 
Cc1c[nH]c(=Nc2ccc(S(=O)(=O)N3CCOCC3)cc2)nc1-c1cccc(C(=O)[O-])c1

>  <Energy>  (14) 
80.21061233641

>  <Genealogy>  (14) 
Cc1c[nH]c(=Nc2ccc(S(=O)(=O)N3CCOCC3)cc2)nc1-c1cccc(C(=O)[O-])c1 (protonated)
Cc1c[nH]c(=Nc2ccc(S(=O)(=O)N3CCOCC3)cc2)nc1-c1cccc(C(=O)[O-])c1 (3D coordinates assigned)
Cc1c[nH]c(=Nc2ccc(S(=O)(=O)N3CCOCC3)cc2)nc1-c1cccc(C(=O)[O-])c1 (nonaromatic ring conformer: 80.21061233641 kcal/mol)

>  <smiles>  (14) 
Cc1c[nH]c(=Nc2ccc(S(=O)(=O)N3CCOCC3)cc2)nc1-c1cccc(C(=O)O)c1

>  <score_type>  (14) 
oracle

>  <origin>  (14) 
adgpu

>  <m_score__min__energy>  (14) 
-9.5800000000000001

>  <m_primary>  (14) 
energy

$$$$
14:0
     RDKit          3D

 68 71  0  0  1  0  0  0  0  0999 V2000
   -4.7010   16.6600  -34.0760 C   0  0  0  0  0  0  0  0  0  0  0  0
   -4.8490   17.8810  -33.2900 N   0  0  0  0  0  0  0  0  0  0  0  0
   -5.4760   18.9720  -33.9250 C   0  0  0  0  0  0  0  0  0  0  0  0
   -5.8720   18.7940  -35.1040 O   0  0  0  0  0  0  0  0  0  0  0  0
   -5.6840   20.2940  -33.2500 C   0  0  0  0  0  0  0  0  0  0  0  0
   -4.5510   21.0820  -33.0980 C   0  0  0  0  0  0  0  0  0  0  0  0
   -3.2140   20.8620  -33.5030 N   0  0  0  0  0  0  0  0  0  0  0  0
   -2.3600   19.8500  -32.9270 C   0  0  0  0  0  0  0  0  0  0  0  0
   -2.8490   19.1580  -32.0330 O   0  0  0  0  0  0  0  0  0  0  0  0
   -1.0290   19.7740  -33.4880 C   0  0  0  0  0  0  0  0  0  0  0  0
   -0.9360   19.0960  -34.7100 C   0  0  0  0  0  0  0  0  0  0  0  0
    0.2120   18.9230  -35.3690 N   0  0  0  0  0  0  0  0  0  0  0  0
    1.3590   19.4300  -34.8320 C   0  0  0  0  0  0  0  0  0  0  0  0
    2.5290   19.2300  -35.5470 O   0  0  0  0  0  0  0  0  0  0  0  0
    3.4990   20.2490  -35.5450 C   0  0  0  0  0  0  0  0  0  0  0  0
    1.2950   20.0790  -33.6700 N   0  0  0  0  0  0  0  0  0  0  0  0
    0.1220   20.2670  -32.9790 C   0  0  0  0  0  0  0  0  0  0  0  0
    0.2220   20.9150  -31.9100 N   0  0  0  0  0  0  0  0  0  0  0  0
   -0.8300   21.2410  -31.0630 C   0  0  0  0  0  0  0  0  0  0  0  0
   -1.0310   20.3790  -29.9610 C   0  0  0  0  0  0  0  0  0  0  0  0
   -2.0070   20.6560  -29.0190 C   0  0  0  0  0  0  0  0  0  0  0  0
   -2.7840   21.7820  -29.1620 C   0  0  0  0  0  0  0  0  0  0  0  0
   -3.7630   22.0910  -28.2460 O   0  0  0  0  0  0  0  0  0  0  0  0
   -4.9710   22.7440  -28.5640 C   0  0  0  0  0  0  0  0  0  0  0  0
   -4.7710   24.1960  -28.9410 C   0  0  0  0  0  0  0  0  0  0  0  0
   -5.6390   24.6320  -30.0060 N   0  0  0  0  0  0  0  0  0  0  0  0
   -4.9890   25.6020  -30.8530 C   0  0  0  0  0  0  0  0  0  0  0  0
   -6.7990   25.2620  -29.4060 C   0  0  0  0  0  0  0  0  0  0  0  0
   -2.5560   22.5710  -30.2220 N   0  0  0  0  0  0  0  0  0  0  0  0
   -1.6340   22.3620  -31.1660 C   0  0  0  0  0  0  0  0  0  0  0  0
   -5.0700   22.5570  -32.2880 S   0  0  0  0  0  0  0  0  0  0  0  0
   -6.8580   22.0150  -32.1910 C   0  0  0  0  0  0  0  0  0  0  0  0
   -6.8550   20.7780  -32.7800 C   0  0  0  0  0  0  0  0  0  0  0  0
   -8.1880   20.0520  -32.7430 C   0  0  0  0  0  0  0  0  0  0  0  0
   -8.9310   20.5410  -31.5190 C   0  0  0  0  0  0  0  0  0  0  0  0
   -9.2340   22.0100  -31.6070 C   0  0  0  0  0  0  0  0  0  0  0  0
   -7.9230   22.7930  -31.6470 C   0  0  0  0  0  0  0  0  0  0  0  0
   -4.5966   15.7989  -33.3996 H   0  0  0  0  0  0  0  0  0  0  0  0
   -5.5890   16.5224  -34.7104 H   0  0  0  0  0  0  0  0  0  0  0  0
   -3.8058   16.7386  -34.7104 H   0  0  0  0  0  0  0  0  0  0  0  0
   -4.5160   17.8410  -32.3200 H   0  0  0  0  0  0  0  0  0  0  0  0
   -2.8570   21.4960  -34.2730 H   0  0  0  0  0  0  0  0  0  0  0  0
   -1.8567   18.6847  -35.1495 H   0  0  0  0  0  0  0  0  0  0  0  0
    3.7508   20.5135  -34.5074 H   0  0  0  0  0  0  0  0  0  0  0  0
    4.4029   19.8959  -36.0630 H   0  0  0  0  0  0  0  0  0  0  0  0
    3.1018   21.1344  -36.0630 H   0  0  0  0  0  0  0  0  0  0  0  0
    2.2050   20.4530  -33.2920 H   0  0  0  0  0  0  0  0  0  0  0  0
   -0.4065   19.4802  -29.8509 H   0  0  0  0  0  0  0  0  0  0  0  0
   -2.1598   19.9815  -28.1636 H   0  0  0  0  0  0  0  0  0  0  0  0
   -5.4401   22.2223  -29.4112 H   0  0  0  0  0  0  0  0  0  0  0  0
   -5.6070   22.7193  -27.6669 H   0  0  0  0  0  0  0  0  0  0  0  0
   -4.9664   24.8173  -28.0545 H   0  0  0  0  0  0  0  0  0  0  0  0
   -3.7364   24.3006  -29.2997 H   0  0  0  0  0  0  0  0  0  0  0  0
   -4.4848   26.3544  -30.2288 H   0  0  0  0  0  0  0  0  0  0  0  0
   -4.2472   25.0956  -31.4880 H   0  0  0  0  0  0  0  0  0  0  0  0
   -5.7394   26.0956  -31.4880 H   0  0  0  0  0  0  0  0  0  0  0  0
   -6.7152   25.2165  -28.3101 H   0  0  0  0  0  0  0  0  0  0  0  0
   -6.8522   26.3130  -29.7263 H   0  0  0  0  0  0  0  0  0  0  0  0
   -7.7095   24.7345  -29.7263 H   0  0  0  0  0  0  0  0  0  0  0  0
   -1.5170   23.0641  -32.0046 H   0  0  0  0  0  0  0  0  0  0  0  0
   -8.7663   20.2796  -33.6506 H   0  0  0  0  0  0  0  0  0  0  0  0
   -8.0381   18.9631  -32.6992 H   0  0  0  0  0  0  0  0  0  0  0  0
   -9.8766   19.9861  -31.4298 H   0  0  0  0  0  0  0  0  0  0  0  0
   -8.2929   20.3731  -30.6389 H   0  0  0  0  0  0  0  0  0  0  0  0
   -9.8111   22.2123  -32.5213 H   0  0  0  0  0  0  0  0  0  0  0  0
   -9.8217   22.3188  -30.7299 H   0  0  0  0  0  0  0  0  0  0  0  0
   -8.0626   23.6897  -32.2687 H   0  0  0  0  0  0  0  0  0  0  0  0
   -7.6555   23.0651  -30.6153 H   0  0  0  0  0  0  0  0  0  0  0  0
  1  2  1  0
  2  3  1  0
  3  4  2  0
  3  5  1  0
  5  6  2  0
  6  7  1  0
  7  8  1  0
  8  9  2  0
  8 10  1  0
 10 11  2  0
 11 12  1  0
 12 13  2  0
 13 14  1  0
 14 15  1  0
 13 16  1  0
 16 17  1  0
 17 18  2  0
 18 19  1  0
 19 20  2  0
 20 21  1  0
 21 22  2  0
 22 23  1  0
 23 24  1  0
 24 25  1  0
 25 26  1  0
 26 27  1  0
 26 28  1  0
 22 29  1  0
 29 30  2  0
  6 31  1  0
 31 32  1  0
 32 33  2  0
 33 34  1  0
 34 35  1  0
 35 36  1  0
 36 37  1  0
 33  5  1  0
 17 10  1  0
 30 19  1  0
 37 32  1  0
  1 38  1  0
  1 39  1  0
  1 40  1  0
  2 41  1  0
  7 42  1  0
 11 43  1  0
 15 44  1  0
 15 45  1  0
 15 46  1  0
 16 47  1  0
 20 48  1  0
 21 49  1  0
 24 50  1  0
 24 51  1  0
 25 52  1  0
 25 53  1  0
 27 54  1  0
 27 55  1  0
 27 56  1  0
 28 57  1  0
 28 58  1  0
 28 59  1  0
 30 60  1  0
 34 61  1  0
 34 62  1  0
 35 63  1  0
 35 64  1  0
 36 65  1  0
 36 66  1  0
 37 67  1  0
 37 68  1  0
M  END
>  <smiles>  (15) 
CNC(=O)c1c(NC(=O)c2cnc(OC)[nH]c2=Nc2ccc(OCCN(C)C)nc2)sc2c1CCCC2

>  <score_type>  (15) 
oracle

>  <origin>  (15) 
adgpu

>  <m_score__min__energy>  (15) 
-8.5299999999999994

>  <m_primary>  (15) 
energy

$$$$
15:0
     RDKit          3D

 57 61  0  0  0  0  0  0  0  0999 V2000
    0.8700   19.0480  -36.8450 C   0  0  0  0  0  0  0  0  0  0  0  0
    0.3140   19.6680  -35.6010 C   0  0  0  0  0  0  0  0  0  0  0  0
   -0.6020   18.9410  -34.8370 C   0  0  0  0  0  0  0  0  0  0  0  0
   -1.1040   19.5270  -33.6950 C   0  0  0  0  0  0  0  0  0  0  0  0
   -0.7310   20.8030  -33.2840 C   0  0  0  0  0  0  0  0  0  0  0  0
   -1.3280   21.2780  -32.0870 N   0  0  0  0  0  0  0  0  0  0  0  0
   -0.9460   20.6680  -30.8650 C   0  0  0  0  0  0  0  0  0  0  0  0
   -0.0860   19.7330  -30.9560 O   0  0  0  0  0  0  0  0  0  0  0  0
   -1.4920   21.0740  -29.5890 C   0  0  0  0  0  0  0  0  0  0  0  0
   -1.4070   20.3260  -28.4340 C   0  0  0  0  0  0  0  0  0  0  0  0
   -1.9420   20.7460  -27.2270 C   0  0  0  0  0  0  0  0  0  0  0  0
   -2.5910   21.9790  -27.2030 C   0  0  0  0  0  0  0  0  0  0  0  0
   -2.7020   22.7610  -28.3270 C   0  0  0  0  0  0  0  0  0  0  0  0
   -3.4950   24.3160  -28.3590 S   0  0  0  0  0  0  0  0  0  0  0  0
   -3.5610   24.8520  -26.9440 O   0  0  0  0  0  0  0  0  0  0  0  0
   -2.7270   25.3060  -29.1900 O   0  0  0  0  0  0  0  0  0  0  0  0
   -5.0980   24.1120  -28.9240 N   0  0  0  0  0  0  0  0  0  0  0  0
   -5.4760   23.2950  -30.0120 C   0  0  0  0  0  0  0  0  0  0  0  0
   -6.6390   22.5510  -30.0510 C   0  0  0  0  0  0  0  0  0  0  0  0
   -6.9920   21.7510  -31.1170 C   0  0  0  0  0  0  0  0  0  0  0  0
   -6.1690   21.6580  -32.2200 C   0  0  0  0  0  0  0  0  0  0  0  0
   -5.0120   22.3780  -32.2150 C   0  0  0  0  0  0  0  0  0  0  0  0
   -4.6620   23.1780  -31.1490 C   0  0  0  0  0  0  0  0  0  0  0  0
   -3.4520   23.8930  -31.2130 O   0  0  0  0  0  0  0  0  0  0  0  0
   -6.5240   20.8080  -33.3730 C   0  0  0  0  0  0  0  0  0  0  0  0
   -7.1850   19.5790  -32.8350 C   0  0  0  0  0  0  0  0  0  0  0  0
   -8.0190   19.6680  -31.7420 C   0  0  0  0  0  0  0  0  0  0  0  0
   -8.4410   18.4000  -31.5210 N   0  0  0  0  0  0  0  0  0  0  0  0
   -7.9280   17.5710  -32.3910 N   0  0  0  0  0  0  0  0  0  0  0  0
   -7.1230   18.2510  -33.2520 C   0  0  0  0  0  0  0  0  0  0  0  0
   -6.4700   17.7630  -34.2150 O   0  0  0  0  0  0  0  0  0  0  0  0
   -8.2790   20.9750  -31.0750 C   0  0  0  0  0  0  0  0  0  0  0  0
   -2.1470   22.2860  -29.4990 C   0  0  0  0  0  0  0  0  0  0  0  0
    0.1700   21.5160  -34.0340 C   0  0  0  0  0  0  0  0  0  0  0  0
    0.6770   20.9320  -35.1830 C   0  0  0  0  0  0  0  0  0  0  0  0
    1.5816   18.2545  -36.5728 H   0  0  0  0  0  0  0  0  0  0  0  0
    0.0498   18.6173  -37.4382 H   0  0  0  0  0  0  0  0  0  0  0  0
    1.3872   19.8166  -37.4382 H   0  0  0  0  0  0  0  0  0  0  0  0
   -0.9137   17.9300  -35.1381 H   0  0  0  0  0  0  0  0  0  0  0  0
   -1.8268   18.9648  -33.0855 H   0  0  0  0  0  0  0  0  0  0  0  0
   -2.0270   22.0540  -32.1100 H   0  0  0  0  0  0  0  0  0  0  0  0
   -0.8926   19.3545  -28.4724 H   0  0  0  0  0  0  0  0  0  0  0  0
   -1.8576   20.1286  -26.3205 H   0  0  0  0  0  0  0  0  0  0  0  0
   -3.0264   22.3359  -26.2580 H   0  0  0  0  0  0  0  0  0  0  0  0
   -5.9000   24.6260  -28.4430 H   0  0  0  0  0  0  0  0  0  0  0  0
   -7.3185   22.5992  -29.1873 H   0  0  0  0  0  0  0  0  0  0  0  0
   -4.3403   22.3191  -33.0841 H   0  0  0  0  0  0  0  0  0  0  0  0
   -3.5110   24.9240  -31.2200 H   0  0  0  0  0  0  0  0  0  0  0  0
   -7.2152   21.3462  -34.0383 H   0  0  0  0  0  0  0  0  0  0  0  0
   -5.6269   20.5448  -33.9527 H   0  0  0  0  0  0  0  0  0  0  0  0
   -9.0970   18.0810  -30.7570 H   0  0  0  0  0  0  0  0  0  0  0  0
   -8.1020   16.5270  -32.4320 H   0  0  0  0  0  0  0  0  0  0  0  0
   -9.0684   21.5226  -31.6107 H   0  0  0  0  0  0  0  0  0  0  0  0
   -8.6160   20.8276  -30.0383 H   0  0  0  0  0  0  0  0  0  0  0  0
   -2.2309   22.9037  -30.4053 H   0  0  0  0  0  0  0  0  0  0  0  0
    0.4819   22.5262  -33.7303 H   0  0  0  0  0  0  0  0  0  0  0  0
    1.3995   21.4997  -35.7878 H   0  0  0  0  0  0  0  0  0  0  0  0
  1  2  1  0
  2  3  2  0
  3  4  1  0
  4  5  2  0
  5  6  1  0
  6  7  1  0
  7  8  2  0
  7  9  1  0
  9 10  2  0
 10 11  1  0
 11 12  2  0
 12 13  1  0
 13 14  1  0
 14 15  2  0
 14 16  2  0
 14 17  1  0
 17 18  1  0
 18 19  2  0
 19 20  1  0
 20 21  2  0
 21 22  1  0
 22 23  2  0
 23 24  1  0
 21 25  1  0
 25 26  1  0
 26 27  2  0
 27 28  1  0
 28 29  1  0
 29 30  1  0
 30 31  2  0
 27 32  1  0
 13 33  2  0
  5 34  1  0
 34 35  2  0
 35  2  1  0
 33  9  1  0
 23 18  1  0
 30 26  1  0
 32 20  1  0
  1 36  1  0
  1 37  1  0
  1 38  1  0
  3 39  1  0
  4 40  1  0
  6 41  1  0
 10 42  1  0
 11 43  1  0
 12 44  1  0
 17 45  1  0
 19 46  1  0
 22 47  1  0
 24 48  1  0
 25 49  1  0
 25 50  1  0
 28 51  1  0
 29 52  1  0
 32 53  1  0
 32 54  1  0
 33 55  1  0
 34 56  1  0
 35 57  1  0
M  END
>  <smiles>  (16) 
Cc1ccc(NC(=O)c2cccc(S(=O)(=O)Nc3cc4c(cc3O)Cc3c([nH][nH]c3=O)C4)c2)cc1

>  <score_type>  (16) 
oracle

>  <origin>  (16) 
adgpu

>  <m_score__min__energy>  (16) 
-12.720000000000001

>  <m_primary>  (16) 
energy

$$$$
16:0
     RDKit          3D

 40 42  0  0  0  0  0  0  0  0999 V2000
   -4.5170   25.6700  -31.2030 O   0  0  0  0  0  0  0  0  0  0  0  0
   -5.3770   25.0570  -30.1350 S   0  0  0  0  0  0  0  0  0  0  0  0
   -6.3840   26.0730  -29.6730 O   0  0  0  0  0  0  0  0  0  0  0  0
   -4.3790   24.5940  -28.7920 N   0  0  0  0  0  0  0  0  0  0  0  0
   -3.2260   23.7380  -28.9070 C   0  0  0  0  0  0  0  0  0  0  0  0
   -3.3260   22.3410  -28.7460 C   0  0  0  0  0  0  0  0  0  0  0  0
   -2.1950   21.5300  -28.8650 C   0  0  0  0  0  0  0  0  0  0  0  0
   -0.9500   22.0990  -29.1420 C   0  0  0  0  0  0  0  0  0  0  0  0
   -0.8340   23.4800  -29.2970 C   0  0  0  0  0  0  0  0  0  0  0  0
   -1.9630   24.3000  -29.1800 C   0  0  0  0  0  0  0  0  0  0  0  0
   -1.8200   25.6740  -29.3440 O   0  0  0  0  0  0  0  0  0  0  0  0
   -6.1820   23.6410  -30.8040 C   0  0  0  0  0  0  0  0  0  0  0  0
   -7.4930   23.3210  -30.4340 C   0  0  0  0  0  0  0  0  0  0  0  0
   -8.1130   22.1910  -30.9730 C   0  0  0  0  0  0  0  0  0  0  0  0
   -7.4120   21.3970  -31.8840 C   0  0  0  0  0  0  0  0  0  0  0  0
   -8.1870   19.9550  -32.6160 S   0  0  0  0  0  0  0  0  0  0  0  0
   -6.8570   19.6630  -33.8350 C   0  0  0  0  0  0  0  0  0  0  0  0
   -6.1590   18.3560  -33.5690 C   0  0  0  0  0  0  0  0  0  0  0  0
   -6.2200   17.7610  -32.2970 C   0  0  0  0  0  0  0  0  0  0  0  0
   -5.5990   16.5310  -32.0660 C   0  0  0  0  0  0  0  0  0  0  0  0
   -4.9140   15.8860  -33.1000 C   0  0  0  0  0  0  0  0  0  0  0  0
   -4.8490   16.4720  -34.3670 C   0  0  0  0  0  0  0  0  0  0  0  0
   -5.4710   17.7020  -34.6030 C   0  0  0  0  0  0  0  0  0  0  0  0
   -6.1370   21.7220  -32.2280 N   0  0  0  0  0  0  0  0  0  0  0  0
   -5.5140   22.8160  -31.7160 C   0  0  0  0  0  0  0  0  0  0  0  0
   -4.6020   25.0360  -27.8740 H   0  0  0  0  0  0  0  0  0  0  0  0
   -4.3027   21.8859  -28.5248 H   0  0  0  0  0  0  0  0  0  0  0  0
   -2.2851   20.4408  -28.7403 H   0  0  0  0  0  0  0  0  0  0  0  0
   -0.0612   21.4580  -29.2379 H   0  0  0  0  0  0  0  0  0  0  0  0
    0.1479   23.9268  -29.5119 H   0  0  0  0  0  0  0  0  0  0  0  0
   -8.0347   23.9584  -29.7197 H   0  0  0  0  0  0  0  0  0  0  0  0
   -9.1414   21.9294  -30.6834 H   0  0  0  0  0  0  0  0  0  0  0  0
   -7.2932   19.6389  -34.8445 H   0  0  0  0  0  0  0  0  0  0  0  0
   -6.1212   20.4765  -33.7525 H   0  0  0  0  0  0  0  0  0  0  0  0
   -6.7583   18.2653  -31.4810 H   0  0  0  0  0  0  0  0  0  0  0  0
   -5.6491   16.0693  -31.0688 H   0  0  0  0  0  0  0  0  0  0  0  0
   -4.4262   14.9173  -32.9163 H   0  0  0  0  0  0  0  0  0  0  0  0
   -4.3079   15.9651  -35.1796 H   0  0  0  0  0  0  0  0  0  0  0  0
   -5.4209   18.1586  -35.6025 H   0  0  0  0  0  0  0  0  0  0  0  0
   -4.4835   23.0533  -32.0188 H   0  0  0  0  0  0  0  0  0  0  0  0
  1  2  2  0
  2  3  2  0
  2  4  1  0
  4  5  1  0
  5  6  2  0
  6  7  1  0
  7  8  2  0
  8  9  1  0
  9 10  2  0
 10 11  1  0
  2 12  1  0
 12 13  2  0
 13 14  1  0
 14 15  2  0
 15 16  1  0
 16 17  1  0
 17 18  1  0
 18 19  2  0
 19 20  1  0
 20 21  2  0
 21 22  1  0
 22 23  2  0
 15 24  1  0
 24 25  2  0
 10  5  1  0
 25 12  1  0
 23 18  1  0
  4 26  1  0
  6 27  1  0
  7 28  1  0
  8 29  1  0
  9 30  1  0
 13 31  1  0
 14 32  1  0
 17 33  1  0
 17 34  1  0
 19 35  1  0
 20 36  1  0
 21 37  1  0
 22 38  1  0
 23 39  1  0
 25 40  1  0
M  CHG  1  11  -1
M  END
>  <UniqueID>  (17) 
14

>  <SMILES>  (17) 
O=S(=O)(Nc1ccccc1[O-])c1ccc(SCc2ccccc2)nc1

>  <Energy>  (17) 
41.86971611942341

>  <Genealogy>  (17) 
O=S(=O)(Nc1ccccc1[O-])c1ccc(SCc2ccccc2)nc1 (protonated)
O=S(=O)(Nc1ccccc1[O-])c1ccc(SCc2ccccc2)nc1 (3D coordinates assigned)
O=S(=O)(Nc1ccccc1[O-])c1ccc(SCc2ccccc2)nc1 (optimized conformer: 41.86971611942341 kcal/mol)

>  <smiles>  (17) 
O=S(=O)(Nc1ccccc1O)c1ccc(SCc2ccccc2)nc1

>  <score_type>  (17) 
oracle

>  <origin>  (17) 
adgpu

>  <m_score__min__energy>  (17) 
-13.44

>  <m_primary>  (17) 
energy

$$$$
17:0
     RDKit          3D

 48 51  0  0  0  0  0  0  0  0999 V2000
   -0.0088   27.1461  -25.2533 H   0  0  0  0  0  0  0  0  0  0  0  0
   -0.5210   26.5450  -26.0190 C   0  0  0  0  0  0  0  0  0  0  0  0
   -0.3290   26.8270  -27.3730 C   0  0  0  0  0  0  0  0  0  0  0  0
    0.3340   27.6519  -27.6729 H   0  0  0  0  0  0  0  0  0  0  0  0
   -0.9770   26.0640  -28.3480 C   0  0  0  0  0  0  0  0  0  0  0  0
   -0.8222   26.2928  -29.4127 H   0  0  0  0  0  0  0  0  0  0  0  0
   -1.8270   25.0040  -27.9770 C   0  0  0  0  0  0  0  0  0  0  0  0
   -2.5040   24.2010  -29.0240 C   0  0  0  0  0  0  0  0  0  0  0  0
   -3.7810   24.4070  -29.4160 N   0  0  0  0  0  0  0  0  0  0  0  0
   -4.0730   23.5340  -30.3660 N   0  0  0  0  0  0  0  0  0  0  0  0
   -5.4210   23.3480  -30.8210 C   0  0  0  0  0  0  0  0  0  0  0  0
   -6.3780   22.7440  -29.9900 C   0  0  0  0  0  0  0  0  0  0  0  0
   -6.0889   22.3896  -28.9896 H   0  0  0  0  0  0  0  0  0  0  0  0
   -7.6960   22.5910  -30.4280 C   0  0  0  0  0  0  0  0  0  0  0  0
   -8.4340   22.0940  -29.7812 H   0  0  0  0  0  0  0  0  0  0  0  0
   -8.0820   23.0690  -31.6900 C   0  0  0  0  0  0  0  0  0  0  0  0
   -9.4880   22.8690  -32.1710 C   0  0  0  0  0  0  0  0  0  0  0  0
  -10.1612   22.7732  -31.3063 H   0  0  0  0  0  0  0  0  0  0  0  0
   -9.7936   23.7327  -32.7798 H   0  0  0  0  0  0  0  0  0  0  0  0
   -9.5407   21.9543  -32.7798 H   0  0  0  0  0  0  0  0  0  0  0  0
   -7.1270   23.6830  -32.5170 C   0  0  0  0  0  0  0  0  0  0  0  0
   -7.4173   24.0447  -33.5144 H   0  0  0  0  0  0  0  0  0  0  0  0
   -5.8090   23.8360  -32.0770 C   0  0  0  0  0  0  0  0  0  0  0  0
   -5.0728   24.3416  -32.7191 H   0  0  0  0  0  0  0  0  0  0  0  0
   -2.9780   22.7660  -30.5940 C   0  0  0  0  0  0  0  0  0  0  0  0
   -2.8440   21.8350  -31.5000 N   0  0  0  0  0  0  0  0  0  0  0  0
   -3.7320   21.5360  -32.5840 C   0  0  0  0  0  0  0  0  0  0  0  0
   -3.7660   22.2980  -33.5890 O   0  0  0  0  0  0  0  0  0  0  0  0
   -4.5480   20.3010  -32.5640 C   0  0  0  0  0  0  0  0  0  0  0  0
   -3.9460   19.0460  -32.7630 C   0  0  0  0  0  0  0  0  0  0  0  0
   -2.8614   18.9818  -32.9349 H   0  0  0  0  0  0  0  0  0  0  0  0
   -4.7140   17.8820  -32.7440 C   0  0  0  0  0  0  0  0  0  0  0  0
   -4.2311   16.9047  -32.8912 H   0  0  0  0  0  0  0  0  0  0  0  0
   -6.0930   17.9520  -32.5390 C   0  0  0  0  0  0  0  0  0  0  0  0
   -6.6895   17.0282  -32.5088 H   0  0  0  0  0  0  0  0  0  0  0  0
   -6.7230   19.1970  -32.3710 C   0  0  0  0  0  0  0  0  0  0  0  0
   -8.2080   19.2870  -32.1190 C   0  0  0  0  0  0  0  0  0  0  0  0
   -8.7840   18.0290  -32.0670 F   0  0  0  0  0  0  0  0  0  0  0  0
   -8.4260   19.9310  -30.9150 F   0  0  0  0  0  0  0  0  0  0  0  0
   -8.8210   20.0020  -33.1320 F   0  0  0  0  0  0  0  0  0  0  0  0
   -5.9400   20.3650  -32.3650 C   0  0  0  0  0  0  0  0  0  0  0  0
   -6.4212   21.3408  -32.2028 H   0  0  0  0  0  0  0  0  0  0  0  0
   -1.9660   23.1410  -29.7400 C   0  0  0  0  0  0  0  0  0  0  0  0
   -0.9619   22.7017  -29.6465 H   0  0  0  0  0  0  0  0  0  0  0  0
   -2.0160   24.7320  -26.6080 C   0  0  0  0  0  0  0  0  0  0  0  0
   -2.6806   23.9112  -26.3003 H   0  0  0  0  0  0  0  0  0  0  0  0
   -1.3640   25.4990  -25.6380 C   0  0  0  0  0  0  0  0  0  0  0  0
   -1.5155   25.2778  -24.5712 H   0  0  0  0  0  0  0  0  0  0  0  0
  1  2  1  0
  2  3  2  0
  3  4  1  0
  3  5  1  0
  5  6  1  0
  5  7  2  0
  7  8  1  0
  8  9  1  0
  9 10  1  0
 10 11  1  0
 11 12  2  0
 12 13  1  0
 12 14  1  0
 14 15  1  0
 14 16  2  0
 16 17  1  0
 17 18  1  0
 17 19  1  0
 17 20  1  0
 16 21  1  0
 21 22  1  0
 21 23  2  0
 23 24  1  0
 10 25  1  0
 25 26  2  0
 26 27  1  0
 27 28  2  0
 27 29  1  0
 29 30  2  0
 30 31  1  0
 30 32  1  0
 32 33  1  0
 32 34  2  0
 34 35  1  0
 34 36  1  0
 36 37  1  0
 37 38  1  0
 37 39  1  0
 37 40  1  0
 36 41  2  0
 41 42  1  0
 25 43  1  0
 43 44  1  0
  7 45  1  0
 45 46  1  0
 45 47  2  0
 47 48  1  0
 47  2  1  0
 43  8  2  0
 23 11  1  0
 41 29  1  0
M  CHG  1   9  -1
M  END
>  <UniqueID>  (18) 
15

>  <SMILES>  (18) 
Cc1ccc(-n2[n-]c(-c3ccccc3)c/c2=N/C(=O)c2cccc(C(F)(F)F)c2)cc1

>  <Energy>  (18) 
101.16596345730274

>  <Genealogy>  (18) 
Cc1ccc(-n2[n-]c(-c3ccccc3)cc2=NC(=O)c2cccc(C(F)(F)F)c2)cc1 (protonated)
Cc1ccc(-n2[n-]c(-c3ccccc3)c/c2=N/C(=O)c2cccc(C(F)(F)F)c2)cc1 (cis-trans isomerization)
Cc1ccc(-n2[n-]c(-c3ccccc3)c/c2=N/C(=O)c2cccc(C(F)(F)F)c2)cc1 (3D coordinates assigned)
Cc1ccc(-n2[n-]c(-c3ccccc3)c/c2=N/C(=O)c2cccc(C(F)(F)F)c2)cc1 (optimized conformer: 101.16596345730274 kcal/mol)

>  <smiles>  (18) 
Cc1ccc(-n2[nH]c(-c3ccccc3)cc2=NC(=O)c2cccc(C(F)(F)F)c2)cc1

>  <score_type>  (18) 
oracle

>  <origin>  (18) 
adgpu

>  <m_score__min__energy>  (18) 
-9.6799999999999997

>  <m_primary>  (18) 
energy

$$$$
18:0
     RDKit          3D

 37 40  0  0  0  0  0  0  0  0999 V2000
   -9.1160   18.1360  -31.5880 C   0  0  0  0  0  0  0  0  0  0  0  0
   -7.9730   18.6810  -32.3190 N   0  0  0  0  0  0  0  0  0  0  0  0
   -7.6390   19.9870  -32.5060 C   0  0  0  0  0  0  0  0  0  0  0  0
   -8.3930   21.1490  -31.9270 C   0  0  0  0  0  0  0  0  0  0  0  0
   -7.4680   22.2970  -31.6890 C   0  0  0  0  0  0  0  0  0  0  0  0
   -6.5020   22.2930  -30.7440 N   0  0  0  0  0  0  0  0  0  0  0  0
   -5.7810   23.4500  -30.7330 C   0  0  0  0  0  0  0  0  0  0  0  0
   -4.6680   23.6570  -29.7690 C   0  0  0  0  0  0  0  0  0  0  0  0
   -4.6220   22.8990  -28.5830 C   0  0  0  0  0  0  0  0  0  0  0  0
   -3.5830   23.0760  -27.6650 C   0  0  0  0  0  0  0  0  0  0  0  0
   -2.5750   24.0080  -27.9180 C   0  0  0  0  0  0  0  0  0  0  0  0
   -2.6020   24.7630  -29.0910 C   0  0  0  0  0  0  0  0  0  0  0  0
   -1.5960   25.6870  -29.3450 O   0  0  0  0  0  0  0  0  0  0  0  0
   -3.6410   24.5910  -30.0140 C   0  0  0  0  0  0  0  0  0  0  0  0
   -6.1880   24.3900  -31.6860 C   0  0  0  0  0  0  0  0  0  0  0  0
   -7.4740   23.7370  -32.5510 S   0  0  0  0  0  0  0  0  0  0  0  0
   -6.5860   20.1600  -33.3490 N   0  0  0  0  0  0  0  0  0  0  0  0
   -6.2650   18.8990  -33.6950 C   0  0  0  0  0  0  0  0  0  0  0  0
   -5.2620   18.4920  -34.5720 C   0  0  0  0  0  0  0  0  0  0  0  0
   -5.1310   17.1130  -34.8220 C   0  0  0  0  0  0  0  0  0  0  0  0
   -6.0020   16.1880  -34.2030 C   0  0  0  0  0  0  0  0  0  0  0  0
   -7.0090   16.6330  -33.3250 C   0  0  0  0  0  0  0  0  0  0  0  0
   -7.1020   18.0080  -33.0900 C   0  0  0  0  0  0  0  0  0  0  0  0
   -8.9346   18.2225  -30.5065 H   0  0  0  0  0  0  0  0  0  0  0  0
  -10.0232   18.6985  -31.8538 H   0  0  0  0  0  0  0  0  0  0  0  0
   -9.2501   17.0770  -31.8538 H   0  0  0  0  0  0  0  0  0  0  0  0
   -9.1812   21.4571  -32.6297 H   0  0  0  0  0  0  0  0  0  0  0  0
   -8.8413   20.8448  -30.9696 H   0  0  0  0  0  0  0  0  0  0  0  0
   -5.4111   22.1608  -28.3772 H   0  0  0  0  0  0  0  0  0  0  0  0
   -3.5595   22.4795  -26.7411 H   0  0  0  0  0  0  0  0  0  0  0  0
   -1.7597   24.1471  -27.1928 H   0  0  0  0  0  0  0  0  0  0  0  0
   -3.6558   25.1892  -30.9370 H   0  0  0  0  0  0  0  0  0  0  0  0
   -5.7438   25.3841  -31.8424 H   0  0  0  0  0  0  0  0  0  0  0  0
   -4.5953   19.2232  -35.0526 H   0  0  0  0  0  0  0  0  0  0  0  0
   -4.3459   16.7531  -35.5033 H   0  0  0  0  0  0  0  0  0  0  0  0
   -5.8925   15.1129  -34.4085 H   0  0  0  0  0  0  0  0  0  0  0  0
   -7.6975   15.9244  -32.8415 H   0  0  0  0  0  0  0  0  0  0  0  0
  1  2  1  0
  2  3  1  0
  3  4  1  0
  4  5  1  0
  5  6  2  0
  6  7  1  0
  7  8  1  0
  8  9  2  0
  9 10  1  0
 10 11  2  0
 11 12  1  0
 12 13  1  0
 12 14  2  0
  7 15  2  0
 15 16  1  0
  3 17  2  0
 17 18  1  0
 18 19  2  0
 19 20  1  0
 20 21  2  0
 21 22  1  0
 22 23  2  0
 23  2  1  0
 16  5  1  0
 23 18  1  0
 14  8  1  0
  1 24  1  0
  1 25  1  0
  1 26  1  0
  4 27  1  0
  4 28  1  0
  9 29  1  0
 10 30  1  0
 11 31  1  0
 14 32  1  0
 15 33  1  0
 19 34  1  0
 20 35  1  0
 21 36  1  0
 22 37  1  0
M  CHG  1  13  -1
M  END
>  <UniqueID>  (19) 
16

>  <SMILES>  (19) 
Cn1c(Cc2nc(-c3cccc([O-])c3)cs2)nc2ccccc21

>  <Energy>  (19) 
107.96453035894262

>  <Genealogy>  (19) 
Cn1c(Cc2nc(-c3cccc([O-])c3)cs2)nc2ccccc21 (protonated)
Cn1c(Cc2nc(-c3cccc([O-])c3)cs2)nc2ccccc21 (3D coordinates assigned)
Cn1c(Cc2nc(-c3cccc([O-])c3)cs2)nc2ccccc21 (optimized conformer: 107.96453035894262 kcal/mol)

>  <smiles>  (19) 
Cn1c(Cc2nc(-c3cccc(O)c3)cs2)nc2ccccc21

>  <score_type>  (19) 
oracle

>  <origin>  (19) 
adgpu

>  <m_score__min__energy>  (19) 
-11.5

>  <m_primary>  (19) 
energy

$$$$
19:0
     RDKit          3D

 48 51  0  0  0  0  0  0  0  0999 V2000
   -5.0200   24.1580  -31.7960 O   0  0  0  0  0  0  0  0  0  0  0  0
   -5.1190   22.9580  -31.4210 C   0  0  0  0  0  0  0  0  0  0  0  0
   -3.9990   22.3130  -30.7990 N   0  0  0  0  0  0  0  0  0  0  0  0
   -3.3760   22.7640  -29.5900 C   0  0  0  0  0  0  0  0  0  0  0  0
   -3.1190   21.8250  -28.5820 C   0  0  0  0  0  0  0  0  0  0  0  0
   -2.4750   22.2090  -27.4040 C   0  0  0  0  0  0  0  0  0  0  0  0
   -2.0930   23.5390  -27.2180 C   0  0  0  0  0  0  0  0  0  0  0  0
   -2.3750   24.4910  -28.2020 C   0  0  0  0  0  0  0  0  0  0  0  0
   -3.0360   24.1200  -29.3800 C   0  0  0  0  0  0  0  0  0  0  0  0
   -3.3700   25.1190  -30.2950 O   0  0  0  0  0  0  0  0  0  0  0  0
   -6.3790   22.2100  -31.6460 C   0  0  0  0  0  0  0  0  0  0  0  0
   -7.6080   22.8880  -31.7060 C   0  0  0  0  0  0  0  0  0  0  0  0
   -8.7940   22.1830  -31.9210 C   0  0  0  0  0  0  0  0  0  0  0  0
   -8.7730   20.7960  -32.0780 C   0  0  0  0  0  0  0  0  0  0  0  0
   -9.9420   20.1430  -32.2920 F   0  0  0  0  0  0  0  0  0  0  0  0
   -7.5530   20.1010  -32.0160 C   0  0  0  0  0  0  0  0  0  0  0  0
   -7.4670   18.3480  -32.2250 S   0  0  0  0  0  0  0  0  0  0  0  0
   -6.4950   17.8060  -31.2140 O   0  0  0  0  0  0  0  0  0  0  0  0
   -8.8070   17.7140  -31.9740 O   0  0  0  0  0  0  0  0  0  0  0  0
   -6.8940   17.9550  -33.8340 N   0  0  0  0  0  0  0  0  0  0  0  0
   -6.3650   16.5830  -33.9430 C   0  0  0  0  0  0  0  0  0  0  0  0
   -5.0830   16.3740  -33.1250 C   0  0  0  0  0  0  0  0  0  0  0  0
   -4.1200   17.5220  -33.2660 C   0  0  0  0  0  0  0  0  0  0  0  0
   -2.8050   17.3730  -32.7970 C   0  0  0  0  0  0  0  0  0  0  0  0
   -1.9070   18.4400  -32.8600 C   0  0  0  0  0  0  0  0  0  0  0  0
   -2.3150   19.6680  -33.3860 C   0  0  0  0  0  0  0  0  0  0  0  0
   -3.6250   19.8320  -33.8450 C   0  0  0  0  0  0  0  0  0  0  0  0
   -4.5400   18.7700  -33.7740 C   0  0  0  0  0  0  0  0  0  0  0  0
   -5.9320   18.9550  -34.3320 C   0  0  0  0  0  0  0  0  0  0  0  0
   -6.3630   20.8120  -31.8020 C   0  0  0  0  0  0  0  0  0  0  0  0
   -3.4268   20.7780  -28.7197 H   0  0  0  0  0  0  0  0  0  0  0  0
   -2.2685   21.4633  -26.6222 H   0  0  0  0  0  0  0  0  0  0  0  0
   -1.5703   23.8376  -26.2974 H   0  0  0  0  0  0  0  0  0  0  0  0
   -2.0758   25.5386  -28.0502 H   0  0  0  0  0  0  0  0  0  0  0  0
   -3.6110   24.9220  -31.2570 H   0  0  0  0  0  0  0  0  0  0  0  0
   -7.6362   23.9807  -31.5829 H   0  0  0  0  0  0  0  0  0  0  0  0
   -9.7507   22.7239  -31.9669 H   0  0  0  0  0  0  0  0  0  0  0  0
   -7.1310   15.8811  -33.5817 H   0  0  0  0  0  0  0  0  0  0  0  0
   -6.1164   16.4065  -34.9999 H   0  0  0  0  0  0  0  0  0  0  0  0
   -5.3539   16.2682  -32.0642 H   0  0  0  0  0  0  0  0  0  0  0  0
   -4.5855   15.4697  -33.5056 H   0  0  0  0  0  0  0  0  0  0  0  0
   -2.4803   16.4095  -32.3773 H   0  0  0  0  0  0  0  0  0  0  0  0
   -0.8770   18.3136  -32.4950 H   0  0  0  0  0  0  0  0  0  0  0  0
   -1.6049   20.5065  -33.4390 H   0  0  0  0  0  0  0  0  0  0  0  0
   -3.9406   20.7988  -34.2642 H   0  0  0  0  0  0  0  0  0  0  0  0
   -6.2912   19.9561  -34.0512 H   0  0  0  0  0  0  0  0  0  0  0  0
   -5.8664   18.8311  -35.4230 H   0  0  0  0  0  0  0  0  0  0  0  0
   -5.4067   20.2705  -31.7556 H   0  0  0  0  0  0  0  0  0  0  0  0
  1  2  2  0
  2  3  1  0
  3  4  1  0
  4  5  2  0
  5  6  1  0
  6  7  2  0
  7  8  1  0
  8  9  2  0
  9 10  1  0
  2 11  1  0
 11 12  2  0
 12 13  1  0
 13 14  2  0
 14 15  1  0
 14 16  1  0
 16 17  1  0
 17 18  2  0
 17 19  2  0
 17 20  1  0
 20 21  1  0
 21 22  1  0
 22 23  1  0
 23 24  2  0
 24 25  1  0
 25 26  2  0
 26 27  1  0
 27 28  2  0
 28 29  1  0
 16 30  2  0
  9  4  1  0
 30 11  1  0
 29 20  1  0
 28 23  1  0
  5 31  1  0
  6 32  1  0
  7 33  1  0
  8 34  1  0
 10 35  1  0
 12 36  1  0
 13 37  1  0
 21 38  1  0
 21 39  1  0
 22 40  1  0
 22 41  1  0
 24 42  1  0
 25 43  1  0
 26 44  1  0
 27 45  1  0
 29 46  1  0
 29 47  1  0
 30 48  1  0
M  CHG  1   3  -1
M  END
>  <UniqueID>  (20) 
17

>  <SMILES>  (20) 
O=C([N-]c1ccccc1O)c1ccc(F)c(S(=O)(=O)N2CCc3ccccc3C2)c1

>  <Energy>  (20) 
65.37389083299735

>  <Genealogy>  (20) 
O=C([N-]c1ccccc1O)c1ccc(F)c(S(=O)(=O)N2CCc3ccccc3C2)c1 (protonated)
O=C([N-]c1ccccc1O)c1ccc(F)c(S(=O)(=O)N2CCc3ccccc3C2)c1 (3D coordinates assigned)
O=C([N-]c1ccccc1O)c1ccc(F)c(S(=O)(=O)N2CCc3ccccc3C2)c1 (nonaromatic ring conformer: 65.37389083299735 kcal/mol)

>  <smiles>  (20) 
O=C(Nc1ccccc1O)c1ccc(F)c(S(=O)(=O)N2CCc3ccccc3C2)c1

>  <score_type>  (20) 
oracle

>  <origin>  (20) 
adgpu

>  <m_score__min__energy>  (20) 
-13.35

>  <m_primary>  (20) 
energy

$$$$
20:0
     RDKit          3D

 52 56  0  0  0  0  0  0  0  0999 V2000
    0.7380   18.9940  -29.9380 C   0  0  0  0  0  0  0  0  0  0  0  0
    0.9680   18.4660  -31.2400 O   0  0  0  0  0  0  0  0  0  0  0  0
   -0.0420   18.0300  -32.1150 C   0  0  0  0  0  0  0  0  0  0  0  0
   -0.4220   16.6740  -32.1850 C   0  0  0  0  0  0  0  0  0  0  0  0
   -1.4210   16.2640  -33.0690 C   0  0  0  0  0  0  0  0  0  0  0  0
   -2.0480   17.1930  -33.8970 C   0  0  0  0  0  0  0  0  0  0  0  0
   -1.6830   18.5390  -33.8410 C   0  0  0  0  0  0  0  0  0  0  0  0
   -0.6900   18.9740  -32.9420 C   0  0  0  0  0  0  0  0  0  0  0  0
   -0.2970   20.4390  -32.8940 C   0  0  1  0  0  0  0  0  0  0  0  0
    0.8120   20.7220  -33.8480 C   0  0  0  0  0  0  0  0  0  0  0  0
    2.1150   20.4040  -34.1560 C   0  0  0  0  0  0  0  0  0  0  0  0
    2.9280   19.5220  -33.4540 O   0  0  0  0  0  0  0  0  0  0  0  0
    2.5140   21.0800  -35.2710 N   0  0  0  0  0  0  0  0  0  0  0  0
    1.4310   21.8140  -35.6410 C   0  0  0  0  0  0  0  0  0  0  0  0
    1.3940   22.6560  -36.7450 O   0  0  0  0  0  0  0  0  0  0  0  0
    0.4050   21.5850  -34.7670 C   0  0  0  0  0  0  0  0  0  0  0  0
   -0.8980   21.9730  -34.5820 O   0  0  0  0  0  0  0  0  0  0  0  0
   -1.3580   21.3120  -33.4540 N   0  0  0  0  0  0  0  0  0  0  0  0
   -2.7140   21.4090  -32.9850 C   0  0  0  0  0  0  0  0  0  0  0  0
   -3.6960   20.5030  -33.4190 C   0  0  0  0  0  0  0  0  0  0  0  0
   -5.0240   20.6510  -33.0080 C   0  0  0  0  0  0  0  0  0  0  0  0
   -5.3840   21.7090  -32.1700 C   0  0  0  0  0  0  0  0  0  0  0  0
   -4.4120   22.6130  -31.7200 C   0  0  0  0  0  0  0  0  0  0  0  0
   -4.8790   24.0160  -30.7630 S   0  0  0  0  0  0  0  0  0  0  0  0
   -5.7330   24.9240  -31.6010 O   0  0  0  0  0  0  0  0  0  0  0  0
   -5.6690   23.5900  -29.5580 O   0  0  0  0  0  0  0  0  0  0  0  0
   -3.4500   24.8680  -30.2800 N   0  0  0  0  0  0  0  0  0  0  0  0
   -2.6740   24.4730  -29.1440 C   0  0  0  0  0  0  0  0  0  0  0  0
   -2.9830   23.2700  -28.4950 C   0  0  0  0  0  0  0  0  0  0  0  0
   -2.2730   22.8810  -27.3550 C   0  0  0  0  0  0  0  0  0  0  0  0
   -1.2390   23.6840  -26.8680 C   0  0  0  0  0  0  0  0  0  0  0  0
   -0.9080   24.8720  -27.5230 C   0  0  0  0  0  0  0  0  0  0  0  0
   -1.6140   25.2650  -28.6660 C   0  0  0  0  0  0  0  0  0  0  0  0
   -1.2380   26.4260  -29.3300 O   0  0  0  0  0  0  0  0  0  0  0  0
   -3.0780   22.4490  -32.1160 C   0  0  0  0  0  0  0  0  0  0  0  0
    1.0575   18.2605  -29.1831 H   0  0  0  0  0  0  0  0  0  0  0  0
    1.3128   19.9234  -29.8124 H   0  0  0  0  0  0  0  0  0  0  0  0
   -0.3340   19.2061  -29.8124 H   0  0  0  0  0  0  0  0  0  0  0  0
    0.0724   15.9341  -31.5383 H   0  0  0  0  0  0  0  0  0  0  0  0
   -1.7143   15.2047  -33.1123 H   0  0  0  0  0  0  0  0  0  0  0  0
   -2.8317   16.8651  -34.5957 H   0  0  0  0  0  0  0  0  0  0  0  0
   -2.1748   19.2658  -34.5043 H   0  0  0  0  0  0  0  0  0  0  0  0
   -0.0652   20.6277  -31.8354 H   0  0  0  0  0  0  0  0  0  0  0  0
    2.5680   19.0040  -32.6620 H   0  0  0  0  0  0  0  0  0  0  0  0
   -3.4186   19.6730  -34.0855 H   0  0  0  0  0  0  0  0  0  0  0  0
   -5.7865   19.9333  -33.3450 H   0  0  0  0  0  0  0  0  0  0  0  0
   -6.4328   21.8330  -31.8625 H   0  0  0  0  0  0  0  0  0  0  0  0
   -3.7877   22.6289  -28.8842 H   0  0  0  0  0  0  0  0  0  0  0  0
   -2.5288   21.9424  -26.8415 H   0  0  0  0  0  0  0  0  0  0  0  0
   -0.6849   23.3802  -25.9676 H   0  0  0  0  0  0  0  0  0  0  0  0
   -0.0905   25.5005  -27.1399 H   0  0  0  0  0  0  0  0  0  0  0  0
   -2.3093   23.1415  -31.7424 H   0  0  0  0  0  0  0  0  0  0  0  0
  1  2  1  0
  2  3  1  0
  3  4  2  0
  4  5  1  0
  5  6  2  0
  6  7  1  0
  7  8  2  0
  8  9  1  0
  9 10  1  0
 10 11  2  0
 11 12  1  0
 11 13  1  0
 13 14  1  0
 14 15  1  0
 14 16  2  0
 16 17  1  0
 17 18  1  0
 18 19  1  0
 19 20  2  0
 20 21  1  0
 21 22  2  0
 22 23  1  0
 23 24  1  0
 24 25  2  0
 24 26  2  0
 24 27  1  0
 27 28  1  0
 28 29  2  0
 29 30  1  0
 30 31  2  0
 31 32  1  0
 32 33  2  0
 33 34  1  0
 23 35  2  0
  8  3  1  0
 18  9  1  0
 35 19  1  0
 16 10  1  0
 33 28  1  0
  1 36  1  0
  1 37  1  0
  1 38  1  0
  4 39  1  0
  5 40  1  0
  6 41  1  0
  7 42  1  0
  9 43  1  1
 12 44  1  0
 20 45  1  0
 21 46  1  0
 22 47  1  0
 29 48  1  0
 30 49  1  0
 31 50  1  0
 32 51  1  0
 35 52  1  0
M  CHG  4  13  -1  15  -1  27  -1  34  -1
M  END
>  <UniqueID>  (21) 
18

>  <SMILES>  (21) 
COc1ccccc1[C@H]1c2c(O)[n-]c([O-])c2ON1c1cccc(S(=O)(=O)[N-]c2ccccc2[O-])c1

>  <Energy>  (21) 
136.67009087765894

>  <Genealogy>  (21) 
COc1ccccc1C1c2c(O)[n-]c([O-])c2ON1c1cccc(S(=O)(=O)[N-]c2ccccc2[O-])c1 (protonated)
COc1ccccc1[C@H]1c2c(O)[n-]c([O-])c2ON1c1cccc(S(=O)(=O)[N-]c2ccccc2[O-])c1 (chirality)
COc1ccccc1[C@H]1c2c(O)[n-]c([O-])c2ON1c1cccc(S(=O)(=O)[N-]c2ccccc2[O-])c1 (3D coordinates assigned)
COc1ccccc1[C@H]1c2c(O)[n-]c([O-])c2ON1c1cccc(S(=O)(=O)[N-]c2ccccc2[O-])c1 (nonaromatic ring conformer: 136.67009087765894 kcal/mol)

>  <smiles>  (21) 
COc1ccccc1C1c2c(O)[nH]c(O)c2ON1c1cccc(S(=O)(=O)Nc2ccccc2O)c1

>  <score_type>  (21) 
oracle

>  <origin>  (21) 
adgpu

>  <m_score__min__energy>  (21) 
-14.039999999999999

>  <m_primary>  (21) 
energy

$$$$
21:0
     RDKit          3D

 55 58  0  0  1  0  0  0  0  0999 V2000
   -0.8860   27.9440  -25.7580 C   0  0  0  0  0  0  0  0  0  0  0  0
   -1.0910   26.6200  -26.1730 N   0  0  0  0  0  0  0  0  0  0  0  0
    0.0270   25.8260  -26.5440 C   0  0  0  0  0  0  0  0  0  0  0  0
   -0.3670   25.1550  -27.8450 C   0  0  0  0  0  0  0  0  0  0  0  0
   -1.7270   24.6970  -27.8070 N   0  0  0  0  0  0  0  0  0  0  0  0
   -2.2060   23.9660  -28.9380 C   0  0  0  0  0  0  0  0  0  0  0  0
   -1.5160   22.8500  -29.3500 C   0  0  0  0  0  0  0  0  0  0  0  0
   -1.9600   22.1230  -30.4440 C   0  0  0  0  0  0  0  0  0  0  0  0
   -3.0870   22.4720  -31.1620 C   0  0  0  0  0  0  0  0  0  0  0  0
   -3.5470   21.7300  -32.2870 N   0  0  0  0  0  0  0  0  0  0  0  0
   -4.2340   20.5090  -32.0280 C   0  0  0  0  0  0  0  0  0  0  0  0
   -4.4490   20.0690  -30.8690 O   0  0  0  0  0  0  0  0  0  0  0  0
   -4.7020   19.7550  -33.2440 C   0  0  0  0  0  0  0  0  0  0  0  0
   -6.0880   19.3320  -32.9530 C   0  0  0  0  0  0  0  0  0  0  0  0
   -7.1230   20.2430  -32.9990 C   0  0  0  0  0  0  0  0  0  0  0  0
   -8.4360   19.9130  -32.7390 C   0  0  0  0  0  0  0  0  0  0  0  0
   -8.7060   18.5810  -32.4140 C   0  0  0  0  0  0  0  0  0  0  0  0
   -7.6700   17.6710  -32.3670 C   0  0  0  0  0  0  0  0  0  0  0  0
   -6.3570   17.9990  -32.6270 C   0  0  0  0  0  0  0  0  0  0  0  0
   -3.7730   23.5930  -30.7440 C   0  0  0  0  0  0  0  0  0  0  0  0
   -4.9600   24.0300  -31.4340 N   0  0  0  0  0  0  0  0  0  0  0  0
   -6.1020   23.5070  -31.2330 C   0  0  0  0  0  0  0  0  0  0  0  0
   -6.3350   22.4790  -30.3470 C   0  0  0  0  0  0  0  0  0  0  0  0
   -7.6760   22.1540  -30.3760 C   0  0  0  0  0  0  0  0  0  0  0  0
   -8.2370   22.9970  -31.2860 N   0  0  0  0  0  0  0  0  0  0  0  0
   -7.2880   23.7920  -31.7840 N   0  0  0  0  0  0  0  0  0  0  0  0
   -3.3340   24.3320  -29.6410 C   0  0  0  0  0  0  0  0  0  0  0  0
   -2.6480   24.9130  -26.7250 C   0  0  0  0  0  0  0  0  0  0  0  0
   -2.2340   25.9340  -25.7270 C   0  0  0  0  0  0  0  0  0  0  0  0
   -0.8794   27.9869  -24.6589 H   0  0  0  0  0  0  0  0  0  0  0  0
    0.0786   28.3043  -26.1448 H   0  0  0  0  0  0  0  0  0  0  0  0
   -1.6965   28.5792  -26.1448 H   0  0  0  0  0  0  0  0  0  0  0  0
    0.9154   26.4577  -26.6909 H   0  0  0  0  0  0  0  0  0  0  0  0
    0.2817   25.0909  -25.7663 H   0  0  0  0  0  0  0  0  0  0  0  0
   -0.2551   25.8763  -28.6680 H   0  0  0  0  0  0  0  0  0  0  0  0
    0.2875   24.2842  -27.9976 H   0  0  0  0  0  0  0  0  0  0  0  0
   -0.6108   22.5337  -28.8110 H   0  0  0  0  0  0  0  0  0  0  0  0
   -1.3920   21.2329  -30.7523 H   0  0  0  0  0  0  0  0  0  0  0  0
   -3.3810   22.0720  -33.2660 H   0  0  0  0  0  0  0  0  0  0  0  0
   -4.6794   20.4067  -34.1299 H   0  0  0  0  0  0  0  0  0  0  0  0
   -4.0539   18.8921  -33.4571 H   0  0  0  0  0  0  0  0  0  0  0  0
   -6.8885   21.2864  -33.2564 H   0  0  0  0  0  0  0  0  0  0  0  0
   -9.2367   20.6658  -32.7854 H   0  0  0  0  0  0  0  0  0  0  0  0
   -9.7358   18.2607  -32.1975 H   0  0  0  0  0  0  0  0  0  0  0  0
   -7.9046   16.6279  -32.1082 H   0  0  0  0  0  0  0  0  0  0  0  0
   -5.5565   17.2460  -32.5802 H   0  0  0  0  0  0  0  0  0  0  0  0
   -5.5743   21.9945  -29.7172 H   0  0  0  0  0  0  0  0  0  0  0  0
   -8.1849   21.3767  -29.7872 H   0  0  0  0  0  0  0  0  0  0  0  0
   -9.2470   22.9930  -31.5290 H   0  0  0  0  0  0  0  0  0  0  0  0
   -7.4720   24.5400  -32.5160 H   0  0  0  0  0  0  0  0  0  0  0  0
   -3.8994   25.2222  -29.3284 H   0  0  0  0  0  0  0  0  0  0  0  0
   -3.6090   25.2304  -27.1561 H   0  0  0  0  0  0  0  0  0  0  0  0
   -2.7008   23.9600  -26.1783 H   0  0  0  0  0  0  0  0  0  0  0  0
   -3.0543   26.6524  -25.5818 H   0  0  0  0  0  0  0  0  0  0  0  0
   -2.0000   25.4304  -24.7774 H   0  0  0  0  0  0  0  0  0  0  0  0
  1  2  1  0
  2  3  1  0
  3  4  1  0
  4  5  1  0
  5  6  1  0
  6  7  2  0
  7  8  1  0
  8  9  2  0
  9 10  1  0
 10 11  1  0
 11 12  2  0
 11 13  1  0
 13 14  1  0
 14 15  2  0
 15 16  1  0
 16 17  2  0
 17 18  1  0
 18 19  2  0
  9 20  1  0
 20 21  1  0
 21 22  2  0
 22 23  1  0
 23 24  2  0
 24 25  1  0
 25 26  1  0
 20 27  2  0
  5 28  1  0
 28 29  1  0
 29  2  1  0
 27  6  1  0
 19 14  1  0
 26 22  1  0
  1 30  1  0
  1 31  1  0
  1 32  1  0
  3 33  1  0
  3 34  1  0
  4 35  1  0
  4 36  1  0
  7 37  1  0
  8 38  1  0
 10 39  1  0
 13 40  1  0
 13 41  1  0
 15 42  1  0
 16 43  1  0
 17 44  1  0
 18 45  1  0
 19 46  1  0
 23 47  1  0
 24 48  1  0
 25 49  1  0
 26 50  1  0
 27 51  1  0
 28 52  1  0
 28 53  1  0
 29 54  1  0
 29 55  1  0
M  END
>  <smiles>  (22) 
CN1CCN(c2ccc(NC(=O)Cc3ccccc3)c(N=c3cc[nH][nH]3)c2)CC1

>  <score_type>  (22) 
oracle

>  <origin>  (22) 
adgpu

>  <m_score__min__energy>  (22) 
-8.8200000000000003

>  <m_primary>  (22) 
energy

$$$$
22:0
     RDKit          3D

 65 68  0  0  0  0  0  0  0  0999 V2000
   -3.3960   23.9300  -31.1160 O   0  0  0  0  0  0  0  0  0  0  0  0
   -4.2810   24.3550  -30.3250 C   0  0  0  0  0  0  0  0  0  0  0  0
   -5.6530   24.6470  -30.8500 C   0  0  0  0  0  0  0  0  0  0  0  0
   -6.3080   23.3690  -31.2930 C   0  0  0  0  0  0  0  0  0  0  0  0
   -7.6620   23.3610  -31.6600 C   0  0  0  0  0  0  0  0  0  0  0  0
   -8.2960   22.1590  -31.9870 C   0  0  0  0  0  0  0  0  0  0  0  0
   -7.5880   20.9500  -31.9360 C   0  0  0  0  0  0  0  0  0  0  0  0
   -8.4200   19.4220  -32.2280 S   0  0  0  0  0  0  0  0  0  0  0  0
   -8.9950   18.9130  -30.9340 O   0  0  0  0  0  0  0  0  0  0  0  0
   -9.5570   19.6480  -33.1840 O   0  0  0  0  0  0  0  0  0  0  0  0
   -7.3320   18.2270  -32.8950 N   0  0  0  0  0  0  0  0  0  0  0  0
   -6.5670   17.5660  -31.8130 C   0  0  0  0  0  0  0  0  0  0  0  0
   -5.3090   16.8720  -32.3510 C   0  0  0  0  0  0  0  0  0  0  0  0
   -4.3520   17.8790  -33.0150 C   0  0  0  0  0  0  0  0  0  0  0  0
   -5.0750   19.1360  -33.5300 C   0  0  0  0  0  0  0  0  0  0  0  0
   -6.5010   18.7980  -33.9840 C   0  0  0  0  0  0  0  0  0  0  0  0
   -6.2300   20.9600  -31.5890 C   0  0  0  0  0  0  0  0  0  0  0  0
   -5.5950   22.1600  -31.2630 C   0  0  0  0  0  0  0  0  0  0  0  0
   -3.9830   24.5240  -28.9330 N   0  0  0  0  0  0  0  0  0  0  0  0
   -2.7630   24.0420  -28.3560 C   0  0  0  0  0  0  0  0  0  0  0  0
   -2.7180   22.7760  -27.7530 C   0  0  0  0  0  0  0  0  0  0  0  0
   -1.5160   22.2790  -27.2330 C   0  0  0  0  0  0  0  0  0  0  0  0
   -1.4560   20.6650  -26.5220 S   0  0  0  0  0  0  0  0  0  0  0  0
   -1.2710   20.7830  -25.0350 O   0  0  0  0  0  0  0  0  0  0  0  0
   -2.7660   19.9710  -26.7700 O   0  0  0  0  0  0  0  0  0  0  0  0
   -0.1470   19.7130  -27.1840 N   0  0  0  0  0  0  0  0  0  0  0  0
   -0.5470   18.2960  -27.3380 C   0  0  0  0  0  0  0  0  0  0  0  0
    0.2990   17.5730  -28.3870 C   0  0  0  0  0  0  0  0  0  0  0  0
    0.0770   18.2060  -29.7680 C   0  0  0  0  0  0  0  0  0  0  0  0
   -0.1210   19.7340  -29.7050 C   0  0  0  0  0  0  0  0  0  0  0  0
    0.4250   20.3400  -28.4010 C   0  0  0  0  0  0  0  0  0  0  0  0
   -0.3600   23.0680  -27.2970 C   0  0  0  0  0  0  0  0  0  0  0  0
   -0.4080   24.3430  -27.8670 C   0  0  0  0  0  0  0  0  0  0  0  0
   -1.6060   24.8340  -28.3920 C   0  0  0  0  0  0  0  0  0  0  0  0
   -1.6360   26.0990  -28.9670 O   0  0  0  0  0  0  0  0  0  0  0  0
   -6.2569   25.1116  -30.0566 H   0  0  0  0  0  0  0  0  0  0  0  0
   -5.5771   25.3335  -31.7062 H   0  0  0  0  0  0  0  0  0  0  0  0
   -8.2269   24.3044  -31.6905 H   0  0  0  0  0  0  0  0  0  0  0  0
   -9.3547   22.1616  -32.2856 H   0  0  0  0  0  0  0  0  0  0  0  0
   -6.2678   18.3235  -31.0736 H   0  0  0  0  0  0  0  0  0  0  0  0
   -7.2114   16.8014  -31.3547 H   0  0  0  0  0  0  0  0  0  0  0  0
   -4.7877   16.3794  -31.5170 H   0  0  0  0  0  0  0  0  0  0  0  0
   -5.6168   16.1360  -33.1083 H   0  0  0  0  0  0  0  0  0  0  0  0
   -3.5964   18.1855  -32.2767 H   0  0  0  0  0  0  0  0  0  0  0  0
   -3.8951   17.3802  -33.8824 H   0  0  0  0  0  0  0  0  0  0  0  0
   -5.1210   19.8816  -32.7226 H   0  0  0  0  0  0  0  0  0  0  0  0
   -4.5172   19.5357  -34.3897 H   0  0  0  0  0  0  0  0  0  0  0  0
   -6.9816   19.7185  -34.3468 H   0  0  0  0  0  0  0  0  0  0  0  0
   -6.4248   18.0377  -34.7753 H   0  0  0  0  0  0  0  0  0  0  0  0
   -5.6619   20.0182  -31.5734 H   0  0  0  0  0  0  0  0  0  0  0  0
   -4.5316   22.1581  -30.9815 H   0  0  0  0  0  0  0  0  0  0  0  0
   -4.5980   25.1430  -28.3610 H   0  0  0  0  0  0  0  0  0  0  0  0
   -3.6333   22.1693  -27.6881 H   0  0  0  0  0  0  0  0  0  0  0  0
   -0.4262   17.7857  -26.3710 H   0  0  0  0  0  0  0  0  0  0  0  0
   -1.5949   18.2730  -27.6717 H   0  0  0  0  0  0  0  0  0  0  0  0
    1.3621   17.6534  -28.1161 H   0  0  0  0  0  0  0  0  0  0  0  0
    0.0022   16.5144  -28.4231 H   0  0  0  0  0  0  0  0  0  0  0  0
    0.9536   17.9917  -30.3970 H   0  0  0  0  0  0  0  0  0  0  0  0
   -0.8435   17.7716  -30.1852 H   0  0  0  0  0  0  0  0  0  0  0  0
    0.4033   20.1940  -30.5556 H   0  0  0  0  0  0  0  0  0  0  0  0
   -1.2018   19.9352  -29.7429 H   0  0  0  0  0  0  0  0  0  0  0  0
    1.5168   20.2069  -28.3833 H   0  0  0  0  0  0  0  0  0  0  0  0
    0.1395   21.4022  -28.3880 H   0  0  0  0  0  0  0  0  0  0  0  0
    0.5893   22.6823  -26.8969 H   0  0  0  0  0  0  0  0  0  0  0  0
    0.5005   24.9621  -27.9024 H   0  0  0  0  0  0  0  0  0  0  0  0
  1  2  2  0
  2  3  1  0
  3  4  1  0
  4  5  2  0
  5  6  1  0
  6  7  2  0
  7  8  1  0
  8  9  2  0
  8 10  2  0
  8 11  1  0
 11 12  1  0
 12 13  1  0
 13 14  1  0
 14 15  1  0
 15 16  1  0
  7 17  1  0
 17 18  2  0
  2 19  1  0
 19 20  1  0
 20 21  2  0
 21 22  1  0
 22 23  1  0
 23 24  2  0
 23 25  2  0
 23 26  1  0
 26 27  1  0
 27 28  1  0
 28 29  1  0
 29 30  1  0
 30 31  1  0
 22 32  2  0
 32 33  1  0
 33 34  2  0
 34 35  1  0
 18  4  1  0
 34 20  1  0
 16 11  1  0
 31 26  1  0
  3 36  1  0
  3 37  1  0
  5 38  1  0
  6 39  1  0
 12 40  1  0
 12 41  1  0
 13 42  1  0
 13 43  1  0
 14 44  1  0
 14 45  1  0
 15 46  1  0
 15 47  1  0
 16 48  1  0
 16 49  1  0
 17 50  1  0
 18 51  1  0
 19 52  1  0
 21 53  1  0
 27 54  1  0
 27 55  1  0
 28 56  1  0
 28 57  1  0
 29 58  1  0
 29 59  1  0
 30 60  1  0
 30 61  1  0
 31 62  1  0
 31 63  1  0
 32 64  1  0
 33 65  1  0
M  CHG  1  35  -1
M  END
>  <UniqueID>  (23) 
19

>  <SMILES>  (23) 
O=C(Cc1ccc(S(=O)(=O)N2CCCCC2)cc1)Nc1cc(S(=O)(=O)N2CCCCC2)ccc1[O-]

>  <Energy>  (23) 
75.73255789289317

>  <Genealogy>  (23) 
O=C(Cc1ccc(S(=O)(=O)N2CCCCC2)cc1)Nc1cc(S(=O)(=O)N2CCCCC2)ccc1[O-] (protonated)
O=C(Cc1ccc(S(=O)(=O)N2CCCCC2)cc1)Nc1cc(S(=O)(=O)N2CCCCC2)ccc1[O-] (3D coordinates assigned)
O=C(Cc1ccc(S(=O)(=O)N2CCCCC2)cc1)Nc1cc(S(=O)(=O)N2CCCCC2)ccc1[O-] (nonaromatic ring conformer: 75.73255789289317 kcal/mol)

>  <smiles>  (23) 
O=C(Cc1ccc(S(=O)(=O)N2CCCCC2)cc1)Nc1cc(S(=O)(=O)N2CCCCC2)ccc1O

>  <score_type>  (23) 
oracle

>  <origin>  (23) 
adgpu

>  <m_score__min__energy>  (23) 
-15.220000000000001

>  <m_primary>  (23) 
energy

$$$$
23:0
     RDKit          3D

 46 48  0  0  0  0  0  0  0  0999 V2000
   -1.3900   21.3950  -26.5860 C   0  0  0  0  0  0  0  0  0  0  0  0
   -1.9660   22.4770  -27.4610 C   0  0  0  0  0  0  0  0  0  0  0  0
   -3.2910   22.3320  -27.9000 C   0  0  0  0  0  0  0  0  0  0  0  0
   -3.8760   23.2810  -28.7320 C   0  0  0  0  0  0  0  0  0  0  0  0
   -3.1450   24.3830  -29.1710 C   0  0  0  0  0  0  0  0  0  0  0  0
   -3.7670   25.2770  -30.1050 N   0  0  0  0  0  0  0  0  0  0  0  0
   -4.9030   24.9630  -30.9220 C   0  0  0  0  0  0  0  0  0  0  0  0
   -5.8680   25.7700  -30.9630 O   0  0  0  0  0  0  0  0  0  0  0  0
   -4.9570   23.7750  -31.7220 N   0  0  0  0  0  0  0  0  0  0  0  0
   -6.0630   22.8660  -31.7970 C   0  0  0  0  0  0  0  0  0  0  0  0
   -7.3520   23.2400  -31.3790 C   0  0  0  0  0  0  0  0  0  0  0  0
   -8.4110   22.3300  -31.4620 C   0  0  0  0  0  0  0  0  0  0  0  0
   -8.1960   21.0530  -31.9850 C   0  0  0  0  0  0  0  0  0  0  0  0
   -6.9250   20.6880  -32.4370 C   0  0  0  0  0  0  0  0  0  0  0  0
   -5.8630   21.5940  -32.3490 C   0  0  0  0  0  0  0  0  0  0  0  0
   -1.8330   24.5890  -28.6890 C   0  0  0  0  0  0  0  0  0  0  0  0
   -1.1200   25.7450  -29.0190 O   0  0  0  0  0  0  0  0  0  0  0  0
   -1.2340   23.6380  -27.8330 C   0  0  0  0  0  0  0  0  0  0  0  0
    0.4140   23.9840  -27.2460 S   0  0  0  0  0  0  0  0  0  0  0  0
    1.1750   24.9110  -28.1530 O   0  0  0  0  0  0  0  0  0  0  0  0
    1.1660   22.6840  -27.1810 O   0  0  0  0  0  0  0  0  0  0  0  0
    0.3230   24.6830  -25.6470 N   0  0  0  0  0  0  0  0  0  0  0  0
   -1.0670   24.6900  -25.1450 C   0  0  0  0  0  0  0  0  0  0  0  0
   -1.7260   26.0740  -25.2910 C   0  0  0  0  0  0  0  0  0  0  0  0
   -1.0290   27.1080  -24.6060 O   0  0  0  0  0  0  0  0  0  0  0  0
    0.3730   26.8900  -24.5110 C   0  0  0  0  0  0  0  0  0  0  0  0
    0.9410   26.0240  -25.6470 C   0  0  0  0  0  0  0  0  0  0  0  0
   -1.5329   21.6635  -25.5289 H   0  0  0  0  0  0  0  0  0  0  0  0
   -1.9010   20.4436  -26.7950 H   0  0  0  0  0  0  0  0  0  0  0  0
   -0.3154   21.2877  -26.7950 H   0  0  0  0  0  0  0  0  0  0  0  0
   -3.8750   21.4558  -27.5818 H   0  0  0  0  0  0  0  0  0  0  0  0
   -4.9234   23.1606  -29.0457 H   0  0  0  0  0  0  0  0  0  0  0  0
   -7.5284   24.2518  -30.9853 H   0  0  0  0  0  0  0  0  0  0  0  0
   -9.4137   22.6203  -31.1152 H   0  0  0  0  0  0  0  0  0  0  0  0
   -9.0271   20.3345  -32.0411 H   0  0  0  0  0  0  0  0  0  0  0  0
   -6.7596   19.6872  -32.8624 H   0  0  0  0  0  0  0  0  0  0  0  0
   -4.8663   21.3065  -32.7149 H   0  0  0  0  0  0  0  0  0  0  0  0
   -0.1100   25.7880  -29.0350 H   0  0  0  0  0  0  0  0  0  0  0  0
   -1.6542   23.9551  -25.7152 H   0  0  0  0  0  0  0  0  0  0  0  0
   -1.0431   24.4362  -24.0749 H   0  0  0  0  0  0  0  0  0  0  0  0
   -1.7661   26.3298  -26.3601 H   0  0  0  0  0  0  0  0  0  0  0  0
   -2.7276   26.0052  -24.8414 H   0  0  0  0  0  0  0  0  0  0  0  0
    0.8787   27.8666  -24.5324 H   0  0  0  0  0  0  0  0  0  0  0  0
    0.5513   26.3462  -23.5716 H   0  0  0  0  0  0  0  0  0  0  0  0
    0.7370   26.5145  -26.6102 H   0  0  0  0  0  0  0  0  0  0  0  0
    2.0246   25.9115  -25.4949 H   0  0  0  0  0  0  0  0  0  0  0  0
  1  2  1  0
  2  3  2  0
  3  4  1  0
  4  5  2  0
  5  6  1  0
  6  7  1  0
  7  8  2  0
  7  9  1  0
  9 10  1  0
 10 11  2  0
 11 12  1  0
 12 13  2  0
 13 14  1  0
 14 15  2  0
  5 16  1  0
 16 17  1  0
 16 18  2  0
 18 19  1  0
 19 20  2  0
 19 21  2  0
 19 22  1  0
 22 23  1  0
 23 24  1  0
 24 25  1  0
 25 26  1  0
 26 27  1  0
 18  2  1  0
 27 22  1  0
 15 10  1  0
  1 28  1  0
  1 29  1  0
  1 30  1  0
  3 31  1  0
  4 32  1  0
 11 33  1  0
 12 34  1  0
 13 35  1  0
 14 36  1  0
 15 37  1  0
 17 38  1  0
 23 39  1  0
 23 40  1  0
 24 41  1  0
 24 42  1  0
 26 43  1  0
 26 44  1  0
 27 45  1  0
 27 46  1  0
M  CHG  2   6  -1   9  -1
M  END
>  <UniqueID>  (24) 
20

>  <SMILES>  (24) 
Cc1ccc([N-]C(=O)[N-]c2ccccc2)c(O)c1S(=O)(=O)N1CCOCC1

>  <Energy>  (24) 
72.41960086961444

>  <Genealogy>  (24) 
Cc1ccc([N-]C(=O)[N-]c2ccccc2)c(O)c1S(=O)(=O)N1CCOCC1 (protonated)
Cc1ccc([N-]C(=O)[N-]c2ccccc2)c(O)c1S(=O)(=O)N1CCOCC1 (3D coordinates assigned)
Cc1ccc([N-]C(=O)[N-]c2ccccc2)c(O)c1S(=O)(=O)N1CCOCC1 (nonaromatic ring conformer: 72.41960086961444 kcal/mol)

>  <smiles>  (24) 
Cc1ccc(NC(=O)Nc2ccccc2)c(O)c1S(=O)(=O)N1CCOCC1

>  <score_type>  (24) 
oracle

>  <origin>  (24) 
adgpu

>  <m_score__min__energy>  (24) 
-11.710000000000001

>  <m_primary>  (24) 
energy

$$$$
24:0
     RDKit          3D

 59 61  0  0  0  0  0  0  0  0999 V2000
   -0.1440   24.8900  -27.7590 C   0  0  0  0  0  0  0  0  0  0  0  0
   -0.3340   24.2930  -29.0350 O   0  0  0  0  0  0  0  0  0  0  0  0
   -1.0950   23.1350  -29.2690 C   0  0  0  0  0  0  0  0  0  0  0  0
   -0.4970   21.8650  -29.3870 C   0  0  0  0  0  0  0  0  0  0  0  0
   -1.2810   20.7340  -29.6230 C   0  0  0  0  0  0  0  0  0  0  0  0
   -2.6670   20.8540  -29.7450 C   0  0  0  0  0  0  0  0  0  0  0  0
   -3.2740   22.1050  -29.6290 C   0  0  0  0  0  0  0  0  0  0  0  0
   -2.4970   23.2520  -29.3900 C   0  0  0  0  0  0  0  0  0  0  0  0
   -3.1640   24.5990  -29.2850 C   0  0  0  0  0  0  0  0  0  0  0  0
   -3.8540   24.9250  -30.5280 N   0  0  0  0  0  0  0  0  0  0  0  0
   -5.1850   25.4500  -30.5800 C   0  0  0  0  0  0  0  0  0  0  0  0
   -5.3900   26.6870  -30.4390 O   0  0  0  0  0  0  0  0  0  0  0  0
   -6.3370   24.5300  -30.8400 C   0  0  0  0  0  0  0  0  0  0  0  0
   -5.8540   23.1350  -31.2440 C   0  0  0  0  0  0  0  0  0  0  0  0
   -6.6780   22.6000  -32.3330 N   0  0  0  0  0  0  0  0  0  0  0  0
   -6.3200   20.9180  -32.5750 S   0  0  0  0  0  0  0  0  0  0  0  0
   -6.6420   20.1430  -31.3260 O   0  0  0  0  0  0  0  0  0  0  0  0
   -7.1770   20.3900  -33.6920 O   0  0  0  0  0  0  0  0  0  0  0  0
   -4.6210   20.6980  -32.9930 C   0  0  0  0  0  0  0  0  0  0  0  0
   -4.1760   19.4710  -33.5000 C   0  0  0  0  0  0  0  0  0  0  0  0
   -2.8310   19.2950  -33.8410 C   0  0  0  0  0  0  0  0  0  0  0  0
   -1.9210   20.3500  -33.6850 C   0  0  0  0  0  0  0  0  0  0  0  0
   -0.2220   20.1300  -34.1100 S   0  0  0  0  0  0  0  0  0  0  0  0
   -0.1290   19.4900  -35.4680 O   0  0  0  0  0  0  0  0  0  0  0  0
    0.4440   21.4770  -34.1860 O   0  0  0  0  0  0  0  0  0  0  0  0
    0.6170   19.1360  -32.9450 N   0  0  0  0  0  0  0  0  0  0  0  0
    1.0130   19.9320  -31.7740 C   0  0  0  0  0  0  0  0  0  0  0  0
    1.7800   19.0440  -30.7710 C   0  0  0  0  0  0  0  0  0  0  0  0
    1.7390   17.6720  -31.1250 O   0  0  0  0  0  0  0  0  0  0  0  0
    0.3990   17.2660  -31.3270 C   0  0  0  0  0  0  0  0  0  0  0  0
   -0.2280   18.0030  -32.5300 C   0  0  0  0  0  0  0  0  0  0  0  0
   -2.3700   21.5820  -33.1900 C   0  0  0  0  0  0  0  0  0  0  0  0
   -3.7130   21.7550  -32.8420 C   0  0  0  0  0  0  0  0  0  0  0  0
   -0.3773   24.1569  -26.9728 H   0  0  0  0  0  0  0  0  0  0  0  0
    0.9020   25.2152  -27.6584 H   0  0  0  0  0  0  0  0  0  0  0  0
   -0.8097   25.7599  -27.6584 H   0  0  0  0  0  0  0  0  0  0  0  0
    0.5943   21.7637  -29.2926 H   0  0  0  0  0  0  0  0  0  0  0  0
   -0.8058   19.7460  -29.7130 H   0  0  0  0  0  0  0  0  0  0  0  0
   -3.2811   19.9609  -29.9328 H   0  0  0  0  0  0  0  0  0  0  0  0
   -4.3662   22.1942  -29.7251 H   0  0  0  0  0  0  0  0  0  0  0  0
   -3.8924   24.5791  -28.4610 H   0  0  0  0  0  0  0  0  0  0  0  0
   -2.3958   25.3627  -29.0934 H   0  0  0  0  0  0  0  0  0  0  0  0
   -6.9438   24.4484  -29.9262 H   0  0  0  0  0  0  0  0  0  0  0  0
   -6.9326   24.9443  -31.6668 H   0  0  0  0  0  0  0  0  0  0  0  0
   -4.8080   23.1972  -31.5788 H   0  0  0  0  0  0  0  0  0  0  0  0
   -5.9355   22.4655  -30.3751 H   0  0  0  0  0  0  0  0  0  0  0  0
   -6.4170   23.0980  -33.2150 H   0  0  0  0  0  0  0  0  0  0  0  0
   -4.8872   18.6420  -33.6307 H   0  0  0  0  0  0  0  0  0  0  0  0
   -2.4864   18.3265  -34.2325 H   0  0  0  0  0  0  0  0  0  0  0  0
    1.6607   20.7600  -32.0978 H   0  0  0  0  0  0  0  0  0  0  0  0
    0.1120   20.3336  -31.2873 H   0  0  0  0  0  0  0  0  0  0  0  0
    2.8301   19.3702  -30.7411 H   0  0  0  0  0  0  0  0  0  0  0  0
    1.2971   19.1522  -29.7886 H   0  0  0  0  0  0  0  0  0  0  0  0
    0.3763   16.1828  -31.5173 H   0  0  0  0  0  0  0  0  0  0  0  0
   -0.1809   17.5115  -30.4251 H   0  0  0  0  0  0  0  0  0  0  0  0
   -0.3290   17.3009  -33.3708 H   0  0  0  0  0  0  0  0  0  0  0  0
   -1.2148   18.3880  -32.2334 H   0  0  0  0  0  0  0  0  0  0  0  0
   -1.6626   22.4165  -33.0748 H   0  0  0  0  0  0  0  0  0  0  0  0
   -4.0578   22.7228  -32.4488 H   0  0  0  0  0  0  0  0  0  0  0  0
  1  2  1  0
  2  3  1  0
  3  4  2  0
  4  5  1  0
  5  6  2  0
  6  7  1  0
  7  8  2  0
  8  9  1  0
  9 10  1  0
 10 11  1  0
 11 12  2  0
 11 13  1  0
 13 14  1  0
 14 15  1  0
 15 16  1  0
 16 17  2  0
 16 18  2  0
 16 19  1  0
 19 20  2  0
 20 21  1  0
 21 22  2  0
 22 23  1  0
 23 24  2  0
 23 25  2  0
 23 26  1  0
 26 27  1  0
 27 28  1  0
 28 29  1  0
 29 30  1  0
 30 31  1  0
 22 32  1  0
 32 33  2  0
  8  3  1  0
 33 19  1  0
 31 26  1  0
  1 34  1  0
  1 35  1  0
  1 36  1  0
  4 37  1  0
  5 38  1  0
  6 39  1  0
  7 40  1  0
  9 41  1  0
  9 42  1  0
 13 43  1  0
 13 44  1  0
 14 45  1  0
 14 46  1  0
 15 47  1  0
 20 48  1  0
 21 49  1  0
 27 50  1  0
 27 51  1  0
 28 52  1  0
 28 53  1  0
 30 54  1  0
 30 55  1  0
 31 56  1  0
 31 57  1  0
 32 58  1  0
 33 59  1  0
M  CHG  1  10  -1
M  END
>  <UniqueID>  (25) 
21

>  <SMILES>  (25) 
COc1ccccc1C[N-]C(=O)CCNS(=O)(=O)c1ccc(S(=O)(=O)N2CCOCC2)cc1

>  <Energy>  (25) 
58.678589130177976

>  <Genealogy>  (25) 
COc1ccccc1C[N-]C(=O)CCNS(=O)(=O)c1ccc(S(=O)(=O)N2CCOCC2)cc1 (protonated)
COc1ccccc1C[N-]C(=O)CCNS(=O)(=O)c1ccc(S(=O)(=O)N2CCOCC2)cc1 (3D coordinates assigned)
COc1ccccc1C[N-]C(=O)CCNS(=O)(=O)c1ccc(S(=O)(=O)N2CCOCC2)cc1 (nonaromatic ring conformer: 58.678589130177976 kcal/mol)

>  <smiles>  (25) 
COc1ccccc1CNC(=O)CCNS(=O)(=O)c1ccc(S(=O)(=O)N2CCOCC2)cc1

>  <score_type>  (25) 
oracle

>  <origin>  (25) 
adgpu

>  <m_score__min__energy>  (25) 
-12.66

>  <m_primary>  (25) 
energy

$$$$
25:0
     RDKit          3D

 47 50  0  0  0  0  0  0  0  0999 V2000
   -9.7770   21.5500  -30.5320 C   0  0  0  0  0  0  0  0  0  0  0  0
   -9.0830   21.8810  -31.7870 N   0  0  0  0  0  0  0  0  0  0  0  0
   -8.2600   23.1090  -31.6360 C   0  0  0  0  0  0  0  0  0  0  0  0
   -6.9440   23.0500  -32.4180 C   0  0  0  0  0  0  0  0  0  0  0  0
   -6.2050   21.8560  -32.0150 N   0  0  0  0  0  0  0  0  0  0  0  0
   -4.7740   21.8570  -32.0600 C   0  0  0  0  0  0  0  0  0  0  0  0
   -3.8460   20.7870  -32.9600 S   0  0  0  0  0  0  0  0  0  0  0  0
   -2.3870   21.4710  -32.4500 C   0  0  0  0  0  0  0  0  0  0  0  0
   -1.0360   21.0220  -32.8550 C   0  0  0  0  0  0  0  0  0  0  0  0
   -0.6090   21.1620  -34.1860 C   0  0  0  0  0  0  0  0  0  0  0  0
    0.6670   20.7380  -34.5620 C   0  0  0  0  0  0  0  0  0  0  0  0
    1.5100   20.1740  -33.6060 C   0  0  0  0  0  0  0  0  0  0  0  0
    1.0880   20.0420  -32.3210 N   0  0  0  0  0  0  0  0  0  0  0  0
   -0.1480   20.4470  -31.9280 C   0  0  0  0  0  0  0  0  0  0  0  0
   -2.6030   22.4990  -31.5940 N   0  0  0  0  0  0  0  0  0  0  0  0
   -3.9250   22.7220  -31.3740 C   0  0  0  0  0  0  0  0  0  0  0  0
   -4.4670   23.9510  -30.2370 S   0  0  0  0  0  0  0  0  0  0  0  0
   -4.6400   25.2560  -30.9620 O   0  0  0  0  0  0  0  0  0  0  0  0
   -5.7900   23.5390  -29.6580 O   0  0  0  0  0  0  0  0  0  0  0  0
   -3.2700   24.1710  -28.9650 C   0  0  0  0  0  0  0  0  0  0  0  0
   -1.9050   24.1490  -29.2790 C   0  0  0  0  0  0  0  0  0  0  0  0
   -0.9480   24.3170  -28.2730 C   0  0  0  0  0  0  0  0  0  0  0  0
   -1.3540   24.5200  -26.9500 C   0  0  0  0  0  0  0  0  0  0  0  0
   -2.7140   24.5580  -26.6350 C   0  0  0  0  0  0  0  0  0  0  0  0
   -3.6730   24.3860  -27.6390 C   0  0  0  0  0  0  0  0  0  0  0  0
   -6.9210   20.5920  -31.8270 C   0  0  0  0  0  0  0  0  0  0  0  0
   -8.3680   20.7020  -32.3340 C   0  0  0  0  0  0  0  0  0  0  0  0
   -9.1517   21.8482  -29.6776 H   0  0  0  0  0  0  0  0  0  0  0  0
  -10.7356   22.0879  -30.4902 H   0  0  0  0  0  0  0  0  0  0  0  0
   -9.9623   20.4665  -30.4902 H   0  0  0  0  0  0  0  0  0  0  0  0
   -8.8438   23.9684  -31.9974 H   0  0  0  0  0  0  0  0  0  0  0  0
   -8.0045   23.2038  -30.5703 H   0  0  0  0  0  0  0  0  0  0  0  0
   -7.1573   23.0054  -33.4962 H   0  0  0  0  0  0  0  0  0  0  0  0
   -6.3447   23.9476  -32.2056 H   0  0  0  0  0  0  0  0  0  0  0  0
   -1.2818   21.6069  -34.9340 H   0  0  0  0  0  0  0  0  0  0  0  0
    1.0040   20.8481  -35.6033 H   0  0  0  0  0  0  0  0  0  0  0  0
    2.5170   19.8357  -33.8917 H   0  0  0  0  0  0  0  0  0  0  0  0
   -0.4559   20.3245  -30.8791 H   0  0  0  0  0  0  0  0  0  0  0  0
   -1.5846   23.9990  -30.3206 H   0  0  0  0  0  0  0  0  0  0  0  0
    0.1231   24.2895  -28.5220 H   0  0  0  0  0  0  0  0  0  0  0  0
   -0.6021   24.6497  -26.1577 H   0  0  0  0  0  0  0  0  0  0  0  0
   -3.0320   24.7236  -25.5950 H   0  0  0  0  0  0  0  0  0  0  0  0
   -4.7435   24.4194  -27.3883 H   0  0  0  0  0  0  0  0  0  0  0  0
   -6.4030   19.7980  -32.3849 H   0  0  0  0  0  0  0  0  0  0  0  0
   -6.9414   20.3554  -30.7529 H   0  0  0  0  0  0  0  0  0  0  0  0
   -8.3506   20.7799  -33.4311 H   0  0  0  0  0  0  0  0  0  0  0  0
   -8.9055   19.8038  -31.9960 H   0  0  0  0  0  0  0  0  0  0  0  0
  1  2  1  0
  2  3  1  0
  3  4  1  0
  4  5  1  0
  5  6  1  0
  6  7  1  0
  7  8  1  0
  8  9  1  0
  9 10  2  0
 10 11  1  0
 11 12  2  0
 12 13  1  0
 13 14  2  0
  8 15  2  0
 15 16  1  0
 16 17  1  0
 17 18  2  0
 17 19  2  0
 17 20  1  0
 20 21  2  0
 21 22  1  0
 22 23  2  0
 23 24  1  0
 24 25  2  0
  5 26  1  0
 26 27  1  0
 27  2  1  0
 16  6  2  0
 25 20  1  0
 14  9  1  0
  1 28  1  0
  1 29  1  0
  1 30  1  0
  3 31  1  0
  3 32  1  0
  4 33  1  0
  4 34  1  0
 10 35  1  0
 11 36  1  0
 12 37  1  0
 14 38  1  0
 21 39  1  0
 22 40  1  0
 23 41  1  0
 24 42  1  0
 25 43  1  0
 26 44  1  0
 26 45  1  0
 27 46  1  0
 27 47  1  0
M  END
>  <UniqueID>  (26) 
22

>  <SMILES>  (26) 
CN1CCN(c2sc(-c3cccnc3)nc2S(=O)(=O)c2ccccc2)CC1

>  <Energy>  (26) 
93.06641766227118

>  <Genealogy>  (26) 
CN1CCN(c2sc(-c3cccnc3)nc2S(=O)(=O)c2ccccc2)CC1 (3D coordinates assigned)
CN1CCN(c2sc(-c3cccnc3)nc2S(=O)(=O)c2ccccc2)CC1 (nonaromatic ring conformer: 93.06641766227118 kcal/mol)

>  <smiles>  (26) 
CN1CCN(c2sc(-c3cccnc3)nc2S(=O)(=O)c2ccccc2)CC1

>  <score_type>  (26) 
oracle

>  <origin>  (26) 
adgpu

>  <m_score__min__energy>  (26) 
-8.4000000000000004

>  <m_primary>  (26) 
energy

$$$$
26:0
     RDKit          3D

 45 47  0  0  0  0  0  0  0  0999 V2000
    0.6320   15.3300  -26.8790 N   0  0  0  0  0  0  0  0  0  0  0  0
    1.7620   16.4780  -27.5090 S   0  0  0  0  0  0  0  0  0  0  0  0
    2.4010   15.9230  -28.7510 O   0  0  0  0  0  0  0  0  0  0  0  0
    2.8360   16.7420  -26.4910 O   0  0  0  0  0  0  0  0  0  0  0  0
    0.9210   17.9770  -27.8890 C   0  0  0  0  0  0  0  0  0  0  0  0
    1.5630   18.9750  -28.6310 C   0  0  0  0  0  0  0  0  0  0  0  0
    0.9050   20.1730  -28.9190 C   0  0  0  0  0  0  0  0  0  0  0  0
   -0.4080   20.3930  -28.4650 C   0  0  0  0  0  0  0  0  0  0  0  0
   -1.1020   21.6740  -28.7470 C   0  0  0  0  0  0  0  0  0  0  0  0
   -0.4060   22.8930  -28.6840 C   0  0  0  0  0  0  0  0  0  0  0  0
   -1.0490   24.0920  -28.9970 C   0  0  0  0  0  0  0  0  0  0  0  0
   -2.3870   24.0920  -29.3990 C   0  0  0  0  0  0  0  0  0  0  0  0
   -2.9950   25.2990  -29.7270 O   0  0  0  0  0  0  0  0  0  0  0  0
   -3.0990   22.8790  -29.4780 C   0  0  0  0  0  0  0  0  0  0  0  0
   -4.5260   22.8350  -29.9760 C   0  0  0  0  0  0  0  0  0  0  0  0
   -4.6980   23.6440  -31.1950 N   0  0  0  0  0  0  0  0  0  0  0  0
   -4.9960   22.8260  -32.3830 C   0  0  0  0  0  0  0  0  0  0  0  0
   -6.3590   22.1940  -32.2630 C   0  0  0  0  0  0  0  0  0  0  0  0
   -7.4320   22.9280  -31.7290 C   0  0  0  0  0  0  0  0  0  0  0  0
   -8.6820   22.3260  -31.5560 C   0  0  0  0  0  0  0  0  0  0  0  0
   -8.8720   20.9910  -31.9230 C   0  0  0  0  0  0  0  0  0  0  0  0
   -7.8160   20.2580  -32.4690 C   0  0  0  0  0  0  0  0  0  0  0  0
   -6.5640   20.8570  -32.6430 C   0  0  0  0  0  0  0  0  0  0  0  0
   -2.4570   21.6810  -29.1200 C   0  0  0  0  0  0  0  0  0  0  0  0
   -1.0450   19.3870  -27.7150 C   0  0  0  0  0  0  0  0  0  0  0  0
   -0.3830   18.1910  -27.4270 C   0  0  0  0  0  0  0  0  0  0  0  0
   -0.2670   15.8390  -26.7280 H   0  0  0  0  0  0  0  0  0  0  0  0
    0.9800   15.0450  -25.9360 H   0  0  0  0  0  0  0  0  0  0  0  0
    2.5907   18.8152  -28.9891 H   0  0  0  0  0  0  0  0  0  0  0  0
    1.4174   20.9501  -29.5052 H   0  0  0  0  0  0  0  0  0  0  0  0
    0.6528   22.9026  -28.3860 H   0  0  0  0  0  0  0  0  0  0  0  0
   -0.4991   25.0421  -28.9267 H   0  0  0  0  0  0  0  0  0  0  0  0
   -4.7948   21.7918  -30.1985 H   0  0  0  0  0  0  0  0  0  0  0  0
   -5.1777   23.2489  -29.1925 H   0  0  0  0  0  0  0  0  0  0  0  0
   -3.7900   24.1330  -31.3690 H   0  0  0  0  0  0  0  0  0  0  0  0
   -4.9714   23.4654  -33.2777 H   0  0  0  0  0  0  0  0  0  0  0  0
   -4.2415   22.0296  -32.4638 H   0  0  0  0  0  0  0  0  0  0  0  0
   -7.2877   23.9811  -31.4458 H   0  0  0  0  0  0  0  0  0  0  0  0
   -9.5162   22.9034  -31.1309 H   0  0  0  0  0  0  0  0  0  0  0  0
   -9.8545   20.5169  -31.7817 H   0  0  0  0  0  0  0  0  0  0  0  0
   -7.9689   19.2089  -32.7624 H   0  0  0  0  0  0  0  0  0  0  0  0
   -5.7362   20.2787  -33.0793 H   0  0  0  0  0  0  0  0  0  0  0  0
   -3.0220   20.7373  -29.1319 H   0  0  0  0  0  0  0  0  0  0  0  0
   -2.0718   19.5435  -27.3528 H   0  0  0  0  0  0  0  0  0  0  0  0
   -0.8886   17.4141  -26.8347 H   0  0  0  0  0  0  0  0  0  0  0  0
  1  2  1  0
  2  3  2  0
  2  4  2  0
  2  5  1  0
  5  6  2  0
  6  7  1  0
  7  8  2  0
  8  9  1  0
  9 10  2  0
 10 11  1  0
 11 12  2  0
 12 13  1  0
 12 14  1  0
 14 15  1  0
 15 16  1  0
 16 17  1  0
 17 18  1  0
 18 19  2  0
 19 20  1  0
 20 21  2  0
 21 22  1  0
 22 23  2  0
 14 24  2  0
  8 25  1  0
 25 26  2  0
 26  5  1  0
 24  9  1  0
 23 18  1  0
  1 27  1  0
  1 28  1  0
  6 29  1  0
  7 30  1  0
 10 31  1  0
 11 32  1  0
 15 33  1  0
 15 34  1  0
 16 35  1  0
 17 36  1  0
 17 37  1  0
 19 38  1  0
 20 39  1  0
 21 40  1  0
 22 41  1  0
 23 42  1  0
 24 43  1  0
 25 44  1  0
 26 45  1  0
M  CHG  1  13  -1
M  END
>  <UniqueID>  (27) 
23

>  <SMILES>  (27) 
NS(=O)(=O)c1ccc(-c2ccc([O-])c(CNCc3ccccc3)c2)cc1

>  <Energy>  (27) 
47.890115098437676

>  <Genealogy>  (27) 
NS(=O)(=O)c1ccc(-c2ccc([O-])c(CNCc3ccccc3)c2)cc1 (protonated)
NS(=O)(=O)c1ccc(-c2ccc([O-])c(CNCc3ccccc3)c2)cc1 (3D coordinates assigned)
NS(=O)(=O)c1ccc(-c2ccc([O-])c(CNCc3ccccc3)c2)cc1 (optimized conformer: 47.890115098437676 kcal/mol)

>  <smiles>  (27) 
NS(=O)(=O)c1ccc(-c2ccc(O)c(CNCc3ccccc3)c2)cc1

>  <score_type>  (27) 
oracle

>  <origin>  (27) 
adgpu

>  <m_score__min__energy>  (27) 
-11.26

>  <m_primary>  (27) 
energy

$$$$
27:0
     RDKit          3D

 39 41  0  0  0  0  0  0  0  0999 V2000
   -3.8870   25.6680  -30.9360 O   0  0  0  0  0  0  0  0  0  0  0  0
   -4.4260   24.7490  -30.2650 C   0  0  0  0  0  0  0  0  0  0  0  0
   -5.8240   24.4870  -30.4530 N   0  0  0  0  0  0  0  0  0  0  0  0
   -6.4010   23.2570  -30.9130 C   0  0  0  0  0  0  0  0  0  0  0  0
   -5.8660   22.5510  -32.0060 C   0  0  0  0  0  0  0  0  0  0  0  0
   -6.4530   21.3540  -32.4260 C   0  0  0  0  0  0  0  0  0  0  0  0
   -7.5900   20.8590  -31.7750 C   0  0  0  0  0  0  0  0  0  0  0  0
   -8.3000   19.3320  -32.2810 S   0  0  0  0  0  0  0  0  0  0  0  0
   -8.8520   18.5990  -31.0890 O   0  0  0  0  0  0  0  0  0  0  0  0
   -9.4320   19.5870  -33.2380 O   0  0  0  0  0  0  0  0  0  0  0  0
   -7.0600   18.3580  -33.0610 C   0  0  0  0  0  0  0  0  0  0  0  0
   -6.4040   18.8370  -34.2040 C   0  0  0  0  0  0  0  0  0  0  0  0
   -5.4020   18.0740  -34.8090 C   0  0  0  0  0  0  0  0  0  0  0  0
   -5.0440   16.8330  -34.2720 C   0  0  0  0  0  0  0  0  0  0  0  0
   -5.6870   16.3530  -33.1260 C   0  0  0  0  0  0  0  0  0  0  0  0
   -5.3180   15.1190  -32.5970 O   0  0  0  0  0  0  0  0  0  0  0  0
   -6.6930   17.1180  -32.5190 C   0  0  0  0  0  0  0  0  0  0  0  0
   -8.1360   21.5720  -30.6990 C   0  0  0  0  0  0  0  0  0  0  0  0
   -7.5490   22.7690  -30.2780 C   0  0  0  0  0  0  0  0  0  0  0  0
   -3.6080   23.9950  -29.2860 C   0  0  0  0  0  0  0  0  0  0  0  0
   -4.0750   22.7590  -28.8040 C   0  0  0  0  0  0  0  0  0  0  0  0
   -3.3310   22.0390  -27.8650 C   0  0  0  0  0  0  0  0  0  0  0  0
   -2.1100   22.5380  -27.4070 C   0  0  0  0  0  0  0  0  0  0  0  0
   -1.6250   23.7540  -27.8950 C   0  0  0  0  0  0  0  0  0  0  0  0
   -2.3600   24.4800  -28.8370 C   0  0  0  0  0  0  0  0  0  0  0  0
   -1.8320   25.6650  -29.3380 O   0  0  0  0  0  0  0  0  0  0  0  0
   -4.9827   22.9424  -32.5319 H   0  0  0  0  0  0  0  0  0  0  0  0
   -6.0203   20.7986  -33.2711 H   0  0  0  0  0  0  0  0  0  0  0  0
   -6.6788   19.8153  -34.6251 H   0  0  0  0  0  0  0  0  0  0  0  0
   -4.8938   18.4499  -35.7092 H   0  0  0  0  0  0  0  0  0  0  0  0
   -4.2559   16.2338  -34.7514 H   0  0  0  0  0  0  0  0  0  0  0  0
   -4.3670   14.7750  -32.6690 H   0  0  0  0  0  0  0  0  0  0  0  0
   -7.1959   16.7443  -31.6149 H   0  0  0  0  0  0  0  0  0  0  0  0
   -9.0292   21.1886  -30.1841 H   0  0  0  0  0  0  0  0  0  0  0  0
   -7.9921   23.3308  -29.4425 H   0  0  0  0  0  0  0  0  0  0  0  0
   -5.0317   22.3565  -29.1683 H   0  0  0  0  0  0  0  0  0  0  0  0
   -3.7080   21.0776  -27.4862 H   0  0  0  0  0  0  0  0  0  0  0  0
   -1.5299   21.9737  -26.6620 H   0  0  0  0  0  0  0  0  0  0  0  0
   -0.6602   24.1420  -27.5363 H   0  0  0  0  0  0  0  0  0  0  0  0
  1  2  2  0
  2  3  1  0
  3  4  1  0
  4  5  2  0
  5  6  1  0
  6  7  2  0
  7  8  1  0
  8  9  2  0
  8 10  2  0
  8 11  1  0
 11 12  2  0
 12 13  1  0
 13 14  2  0
 14 15  1  0
 15 16  1  0
 15 17  2  0
  7 18  1  0
 18 19  2  0
  2 20  1  0
 20 21  2  0
 21 22  1  0
 22 23  2  0
 23 24  1  0
 24 25  2  0
 25 26  1  0
 19  4  1  0
 25 20  1  0
 17 11  1  0
  5 27  1  0
  6 28  1  0
 12 29  1  0
 13 30  1  0
 14 31  1  0
 16 32  1  0
 17 33  1  0
 18 34  1  0
 19 35  1  0
 21 36  1  0
 22 37  1  0
 23 38  1  0
 24 39  1  0
M  CHG  2   3  -1  26  -1
M  END
>  <UniqueID>  (28) 
24

>  <SMILES>  (28) 
O=C([N-]c1ccc(S(=O)(=O)c2cccc(O)c2)cc1)c1ccccc1[O-]

>  <Energy>  (28) 
51.87936245764737

>  <Genealogy>  (28) 
O=C([N-]c1ccc(S(=O)(=O)c2cccc(O)c2)cc1)c1ccccc1[O-] (protonated)
O=C([N-]c1ccc(S(=O)(=O)c2cccc(O)c2)cc1)c1ccccc1[O-] (3D coordinates assigned)
O=C([N-]c1ccc(S(=O)(=O)c2cccc(O)c2)cc1)c1ccccc1[O-] (optimized conformer: 51.87936245764737 kcal/mol)

>  <smiles>  (28) 
O=C(Nc1ccc(S(=O)(=O)c2cccc(O)c2)cc1)c1ccccc1O

>  <score_type>  (28) 
oracle

>  <origin>  (28) 
adgpu

>  <m_score__min__energy>  (28) 
-13.52

>  <m_primary>  (28) 
energy

$$$$
28:0
     RDKit          3D

 44 46  0  0  0  0  0  0  0  0999 V2000
    1.0290   22.3430  -34.7540 O   0  0  0  0  0  0  0  0  0  0  0  0
    0.4160   20.9740  -34.7130 S   0  0  0  0  0  0  0  0  0  0  0  0
   -0.7110   20.9310  -35.7020 O   0  0  0  0  0  0  0  0  0  0  0  0
    1.6170   19.7970  -35.1570 N   0  0  0  0  0  0  0  0  0  0  0  0
    0.9990   18.5950  -35.7210 C   0  0  0  0  0  0  0  0  0  0  0  0
    0.1350   17.9100  -34.6970 C   0  0  0  0  0  0  0  0  0  0  0  0
   -1.2590   17.8520  -34.8710 C   0  0  0  0  0  0  0  0  0  0  0  0
   -2.0630   17.2010  -33.9300 C   0  0  0  0  0  0  0  0  0  0  0  0
   -1.4910   16.6110  -32.8090 C   0  0  0  0  0  0  0  0  0  0  0  0
   -0.1020   16.6940  -32.6070 C   0  0  0  0  0  0  0  0  0  0  0  0
    0.7090   17.3470  -33.5390 C   0  0  0  0  0  0  0  0  0  0  0  0
   -0.1850   20.6740  -33.0840 C   0  0  0  0  0  0  0  0  0  0  0  0
   -1.5550   20.7640  -32.8200 C   0  0  0  0  0  0  0  0  0  0  0  0
   -2.0410   20.5560  -31.5260 C   0  0  0  0  0  0  0  0  0  0  0  0
   -1.1610   20.2610  -30.4740 C   0  0  0  0  0  0  0  0  0  0  0  0
   -1.6990   20.0400  -29.1550 N   0  0  0  0  0  0  0  0  0  0  0  0
   -2.7270   20.8670  -28.5280 C   0  0  0  0  0  0  0  0  0  0  0  0
   -2.3780   22.3220  -28.6490 C   0  0  0  0  0  0  0  0  0  0  0  0
   -1.3500   22.8800  -27.8750 C   0  0  0  0  0  0  0  0  0  0  0  0
   -1.0430   24.2410  -27.9850 C   0  0  0  0  0  0  0  0  0  0  0  0
   -1.7600   25.0540  -28.8650 C   0  0  0  0  0  0  0  0  0  0  0  0
   -1.4460   26.4070  -28.9700 O   0  0  0  0  0  0  0  0  0  0  0  0
   -2.7860   24.5030  -29.6400 C   0  0  0  0  0  0  0  0  0  0  0  0
   -3.4990   25.3050  -30.5210 O   0  0  0  0  0  0  0  0  0  0  0  0
   -3.0960   23.1430  -29.5330 C   0  0  0  0  0  0  0  0  0  0  0  0
    0.2180   20.1770  -30.7430 C   0  0  0  0  0  0  0  0  0  0  0  0
    0.7010   20.3750  -32.0410 C   0  0  0  0  0  0  0  0  0  0  0  0
    0.3793   18.8789  -36.5844 H   0  0  0  0  0  0  0  0  0  0  0  0
    1.7942   17.9019  -36.0330 H   0  0  0  0  0  0  0  0  0  0  0  0
   -1.7199   18.3215  -35.7525 H   0  0  0  0  0  0  0  0  0  0  0  0
   -3.1521   17.1557  -34.0775 H   0  0  0  0  0  0  0  0  0  0  0  0
   -2.1233   16.0805  -32.0818 H   0  0  0  0  0  0  0  0  0  0  0  0
    0.3486   16.2426  -31.7108 H   0  0  0  0  0  0  0  0  0  0  0  0
    1.7933   17.4216  -33.3694 H   0  0  0  0  0  0  0  0  0  0  0  0
   -2.2546   20.9999  -33.6354 H   0  0  0  0  0  0  0  0  0  0  0  0
   -3.1215   20.6241  -31.3311 H   0  0  0  0  0  0  0  0  0  0  0  0
   -1.3660   19.2180  -28.6110 H   0  0  0  0  0  0  0  0  0  0  0  0
   -3.6914   20.6837  -29.0243 H   0  0  0  0  0  0  0  0  0  0  0  0
   -2.7930   20.6047  -27.4618 H   0  0  0  0  0  0  0  0  0  0  0  0
   -0.7826   22.2452  -27.1785 H   0  0  0  0  0  0  0  0  0  0  0  0
   -0.2343   24.6716  -27.3762 H   0  0  0  0  0  0  0  0  0  0  0  0
   -3.9050   22.7155  -30.1435 H   0  0  0  0  0  0  0  0  0  0  0  0
    0.9210   19.9541  -29.9268 H   0  0  0  0  0  0  0  0  0  0  0  0
    1.7794   20.2957  -32.2431 H   0  0  0  0  0  0  0  0  0  0  0  0
  1  2  2  0
  2  3  2  0
  2  4  1  0
  4  5  1  0
  5  6  1  0
  6  7  2  0
  7  8  1  0
  8  9  2  0
  9 10  1  0
 10 11  2  0
  2 12  1  0
 12 13  2  0
 13 14  1  0
 14 15  2  0
 15 16  1  0
 16 17  1  0
 17 18  1  0
 18 19  2  0
 19 20  1  0
 20 21  2  0
 21 22  1  0
 21 23  1  0
 23 24  1  0
 23 25  2  0
 15 26  1  0
 26 27  2  0
 11  6  1  0
 27 12  1  0
 25 18  1  0
  5 28  1  0
  5 29  1  0
  7 30  1  0
  8 31  1  0
  9 32  1  0
 10 33  1  0
 11 34  1  0
 13 35  1  0
 14 36  1  0
 16 37  1  0
 17 38  1  0
 17 39  1  0
 19 40  1  0
 20 41  1  0
 25 42  1  0
 26 43  1  0
 27 44  1  0
M  CHG  3   4  -1  22  -1  24  -1
M  END
>  <UniqueID>  (29) 
25

>  <SMILES>  (29) 
O=S(=O)([N-]Cc1ccccc1)c1ccc(NCc2ccc([O-])c([O-])c2)cc1

>  <Energy>  (29) 
40.37806673982111

>  <Genealogy>  (29) 
O=S(=O)([N-]Cc1ccccc1)c1ccc(NCc2ccc([O-])c([O-])c2)cc1 (protonated)
O=S(=O)([N-]Cc1ccccc1)c1ccc(NCc2ccc([O-])c([O-])c2)cc1 (3D coordinates assigned)
O=S(=O)([N-]Cc1ccccc1)c1ccc(NCc2ccc([O-])c([O-])c2)cc1 (optimized conformer: 40.37806673982111 kcal/mol)

>  <smiles>  (29) 
O=S(=O)(NCc1ccccc1)c1ccc(NCc2ccc(O)c(O)c2)cc1

>  <score_type>  (29) 
oracle

>  <origin>  (29) 
adgpu

>  <m_score__min__energy>  (29) 
-13.880000000000001

>  <m_primary>  (29) 
energy

$$$$
29:0
     RDKit          3D

 39 39  0  0  0  0  0  0  0  0999 V2000
    1.8350   24.8850  -23.0280 H   0  0  0  0  0  0  0  0  0  0  0  0
    1.5220   25.0210  -23.9800 O   0  0  0  0  0  0  0  0  0  0  0  0
    0.1910   25.1570  -24.3250 N   0  0  0  0  0  0  0  0  0  0  0  0
   -0.2770   24.3160  -24.7290 H   0  0  0  0  0  0  0  0  0  0  0  0
   -0.4890   26.2640  -24.1830 C   0  0  0  0  0  0  0  0  0  0  0  0
    0.0480   27.3830  -23.4650 N   0  0  0  0  0  0  0  0  0  0  0  0
    0.8810   27.3090  -22.8420 H   0  0  0  0  0  0  0  0  0  0  0  0
   -0.4790   28.2830  -23.4480 H   0  0  0  0  0  0  0  0  0  0  0  0
   -1.8450   26.3470  -24.6550 N   0  0  0  0  0  0  0  0  0  0  0  0
   -2.5080   26.9450  -24.1130 H   0  0  0  0  0  0  0  0  0  0  0  0
   -2.3360   25.6930  -25.8380 C   0  0  0  0  0  0  0  0  0  0  0  0
   -1.5250   25.5260  -26.9740 C   0  0  0  0  0  0  0  0  0  0  0  0
   -0.4846   25.8829  -26.9603 H   0  0  0  0  0  0  0  0  0  0  0  0
   -2.0330   24.9090  -28.1210 C   0  0  0  0  0  0  0  0  0  0  0  0
   -1.3887   24.7762  -29.0026 H   0  0  0  0  0  0  0  0  0  0  0  0
   -3.3600   24.4590  -28.1520 C   0  0  0  0  0  0  0  0  0  0  0  0
   -4.0010   23.6700  -29.5960 S   0  0  0  0  0  0  0  0  0  0  0  0
   -3.4870   22.2590  -29.6560 O   0  0  0  0  0  0  0  0  0  0  0  0
   -3.4910   24.3930  -30.8120 O   0  0  0  0  0  0  0  0  0  0  0  0
   -5.7540   23.6770  -29.6070 N   0  0  0  0  0  0  0  0  0  0  0  0
   -6.0600   23.6200  -28.6070 H   0  0  0  0  0  0  0  0  0  0  0  0
   -6.2680   24.9240  -30.2350 C   0  0  0  0  0  0  0  0  0  0  0  0
   -7.2282   24.7045  -30.7247 H   0  0  0  0  0  0  0  0  0  0  0  0
   -5.5185   25.2704  -30.9618 H   0  0  0  0  0  0  0  0  0  0  0  0
   -6.4810   26.0410  -29.2100 C   0  0  0  0  0  0  0  0  0  0  0  0
   -6.4019   25.6264  -28.1942 H   0  0  0  0  0  0  0  0  0  0  0  0
   -5.7148   26.8178  -29.3497 H   0  0  0  0  0  0  0  0  0  0  0  0
   -7.4793   26.4813  -29.3497 H   0  0  0  0  0  0  0  0  0  0  0  0
   -6.2430   22.4700  -30.3160 C   0  0  0  0  0  0  0  0  0  0  0  0
   -5.3993   21.7798  -30.4633 H   0  0  0  0  0  0  0  0  0  0  0  0
   -7.0317   22.0134  -29.6999 H   0  0  0  0  0  0  0  0  0  0  0  0
   -6.8500   22.8060  -31.6830 C   0  0  0  0  0  0  0  0  0  0  0  0
   -7.8043   23.3342  -31.5406 H   0  0  0  0  0  0  0  0  0  0  0  0
   -6.1557   23.4482  -32.2446 H   0  0  0  0  0  0  0  0  0  0  0  0
   -7.0256   21.8766  -32.2446 H   0  0  0  0  0  0  0  0  0  0  0  0
   -4.1780   24.6480  -27.0300 C   0  0  0  0  0  0  0  0  0  0  0  0
   -5.2239   24.3081  -27.0513 H   0  0  0  0  0  0  0  0  0  0  0  0
   -3.6710   25.2660  -25.8850 C   0  0  0  0  0  0  0  0  0  0  0  0
   -4.3239   25.4191  -25.0131 H   0  0  0  0  0  0  0  0  0  0  0  0
  1  2  1  0
  2  3  1  0
  3  4  1  0
  3  5  2  0
  5  6  1  0
  6  7  1  0
  6  8  1  0
  5  9  1  0
  9 10  1  0
  9 11  1  0
 11 12  2  0
 12 13  1  0
 12 14  1  0
 14 15  1  0
 14 16  2  0
 16 17  1  0
 17 18  2  0
 17 19  2  0
 17 20  1  0
 20 21  1  0
 20 22  1  0
 22 23  1  0
 22 24  1  0
 22 25  1  0
 25 26  1  0
 25 27  1  0
 25 28  1  0
 20 29  1  0
 29 30  1  0
 29 31  1  0
 29 32  1  0
 32 33  1  0
 32 34  1  0
 32 35  1  0
 16 36  1  0
 36 37  1  0
 36 38  2  0
 38 39  1  0
 38 11  1  0
M  CHG  2   3   1  20   1
M  END
>  <UniqueID>  (30) 
26

>  <SMILES>  (30) 
CC[NH+](CC)S(=O)(=O)c1ccc(N/C(N)=[NH+]/O)cc1

>  <Energy>  (30) 
41.7731083172917

>  <Genealogy>  (30) 
CC[NH+](CC)S(=O)(=O)c1ccc(NC(N)=[NH+]O)cc1 (protonated)
CC[NH+](CC)S(=O)(=O)c1ccc(N/C(N)=[NH+]/O)cc1 (cis-trans isomerization)
CC[NH+](CC)S(=O)(=O)c1ccc(N/C(N)=[NH+]/O)cc1 (3D coordinates assigned)
CC[NH+](CC)S(=O)(=O)c1ccc(N/C(N)=[NH+]/O)cc1 (optimized conformer: 41.7731083172917 kcal/mol)

>  <smiles>  (30) 
CCN(CC)S(=O)(=O)c1ccc(NC(N)=NO)cc1

>  <score_type>  (30) 
oracle

>  <origin>  (30) 
adgpu

>  <m_score__min__energy>  (30) 
-6.71

>  <m_primary>  (30) 
energy

$$$$
30:0
     RDKit          3D

 50 52  0  0  0  0  0  0  0  0999 V2000
   -2.6270   18.0120  -33.8870 C   0  0  0  0  0  0  0  0  0  0  0  0
   -3.1530   16.6220  -34.2270 C   0  0  0  0  0  0  0  0  0  0  0  0
   -4.4040   16.3660  -33.5120 N   0  0  0  0  0  0  0  0  0  0  0  0
   -5.7360   17.2130  -34.2440 S   0  0  0  0  0  0  0  0  0  0  0  0
   -5.3560   17.6160  -35.6400 O   0  0  0  0  0  0  0  0  0  0  0  0
   -6.9350   16.3080  -34.3020 O   0  0  0  0  0  0  0  0  0  0  0  0
   -6.1260   18.6610  -33.3200 C   0  0  0  0  0  0  0  0  0  0  0  0
   -5.3810   19.8340  -33.5020 C   0  0  0  0  0  0  0  0  0  0  0  0
   -5.6980   20.9880  -32.7800 C   0  0  0  0  0  0  0  0  0  0  0  0
   -6.7720   20.9830  -31.8820 C   0  0  0  0  0  0  0  0  0  0  0  0
   -7.1490   22.1870  -31.2040 N   0  0  0  0  0  0  0  0  0  0  0  0
   -8.3580   22.2120  -30.3820 C   0  0  0  0  0  0  0  0  0  0  0  0
   -6.1640   23.6110  -31.3530 S   0  0  0  0  0  0  0  0  0  0  0  0
   -5.8290   23.8400  -32.8020 O   0  0  0  0  0  0  0  0  0  0  0  0
   -6.9180   24.8010  -30.8270 O   0  0  0  0  0  0  0  0  0  0  0  0
   -4.6620   23.4030  -30.4510 C   0  0  0  0  0  0  0  0  0  0  0  0
   -4.2940   22.1280  -30.0000 C   0  0  0  0  0  0  0  0  0  0  0  0
   -3.1560   21.9650  -29.2060 C   0  0  0  0  0  0  0  0  0  0  0  0
   -2.3760   23.0720  -28.8620 C   0  0  0  0  0  0  0  0  0  0  0  0
   -2.7210   24.3520  -29.3300 C   0  0  0  0  0  0  0  0  0  0  0  0
   -1.9620   25.5150  -28.9680 N   0  0  0  0  0  0  0  0  0  0  0  0
   -0.8520   25.5530  -28.0640 C   0  0  0  0  0  0  0  0  0  0  0  0
    0.1750   24.8840  -28.3390 O   0  0  0  0  0  0  0  0  0  0  0  0
   -0.9010   26.2920  -26.7900 C   0  0  0  0  0  0  0  0  0  0  0  0
   -1.3190   25.8040  -25.5640 C   0  0  0  0  0  0  0  0  0  0  0  0
   -1.1690   26.8470  -24.6760 C   0  0  0  0  0  0  0  0  0  0  0  0
   -0.6630   27.9030  -25.4080 C   0  0  0  0  0  0  0  0  0  0  0  0
   -0.5100   27.5410  -26.6620 O   0  0  0  0  0  0  0  0  0  0  0  0
   -3.8760   24.5120  -30.1060 C   0  0  0  0  0  0  0  0  0  0  0  0
   -7.5120   19.8090  -31.6950 C   0  0  0  0  0  0  0  0  0  0  0  0
   -7.1910   18.6540  -32.4130 C   0  0  0  0  0  0  0  0  0  0  0  0
   -2.5824   18.1300  -32.7943 H   0  0  0  0  0  0  0  0  0  0  0  0
   -1.6196   18.1366  -34.3107 H   0  0  0  0  0  0  0  0  0  0  0  0
   -3.2996   18.7723  -34.3107 H   0  0  0  0  0  0  0  0  0  0  0  0
   -3.3337   16.5568  -35.3101 H   0  0  0  0  0  0  0  0  0  0  0  0
   -2.4070   15.8722  -33.9248 H   0  0  0  0  0  0  0  0  0  0  0  0
   -4.5439   19.8465  -34.2155 H   0  0  0  0  0  0  0  0  0  0  0  0
   -5.1022   21.9024  -32.9177 H   0  0  0  0  0  0  0  0  0  0  0  0
   -8.0783   22.2062  -29.3182 H   0  0  0  0  0  0  0  0  0  0  0  0
   -8.9341   23.1222  -30.6047 H   0  0  0  0  0  0  0  0  0  0  0  0
   -8.9712   21.3263  -30.6047 H   0  0  0  0  0  0  0  0  0  0  0  0
   -4.9029   21.2532  -30.2719 H   0  0  0  0  0  0  0  0  0  0  0  0
   -2.8735   20.9629  -28.8509 H   0  0  0  0  0  0  0  0  0  0  0  0
   -1.4898   22.9417  -28.2235 H   0  0  0  0  0  0  0  0  0  0  0  0
   -1.6933   24.7933  -25.3442 H   0  0  0  0  0  0  0  0  0  0  0  0
   -1.4046   26.8399  -23.6016 H   0  0  0  0  0  0  0  0  0  0  0  0
   -0.4240   28.8972  -25.0026 H   0  0  0  0  0  0  0  0  0  0  0  0
   -4.1690   25.5157  -30.4476 H   0  0  0  0  0  0  0  0  0  0  0  0
   -8.3485   19.7960  -30.9808 H   0  0  0  0  0  0  0  0  0  0  0  0
   -7.7780   17.7357  -32.2644 H   0  0  0  0  0  0  0  0  0  0  0  0
  1  2  1  0
  2  3  1  0
  3  4  1  0
  4  5  2  0
  4  6  2  0
  4  7  1  0
  7  8  2  0
  8  9  1  0
  9 10  2  0
 10 11  1  0
 11 12  1  0
 11 13  1  0
 13 14  2  0
 13 15  2  0
 13 16  1  0
 16 17  2  0
 17 18  1  0
 18 19  2  0
 19 20  1  0
 20 21  1  0
 21 22  1  0
 22 23  2  0
 22 24  1  0
 24 25  2  0
 25 26  1  0
 26 27  2  0
 27 28  1  0
 20 29  2  0
 10 30  1  0
 30 31  2  0
 31  7  1  0
 29 16  1  0
 28 24  1  0
  1 32  1  0
  1 33  1  0
  1 34  1  0
  2 35  1  0
  2 36  1  0
  8 37  1  0
  9 38  1  0
 12 39  1  0
 12 40  1  0
 12 41  1  0
 17 42  1  0
 18 43  1  0
 19 44  1  0
 25 45  1  0
 26 46  1  0
 27 47  1  0
 29 48  1  0
 30 49  1  0
 31 50  1  0
M  CHG  2   3  -1  21  -1
M  END
>  <UniqueID>  (31) 
27

>  <SMILES>  (31) 
CC[N-]S(=O)(=O)c1ccc(N(C)S(=O)(=O)c2cccc([N-]C(=O)c3ccco3)c2)cc1

>  <Energy>  (31) 
84.47890211969522

>  <Genealogy>  (31) 
CC[N-]S(=O)(=O)c1ccc(N(C)S(=O)(=O)c2cccc([N-]C(=O)c3ccco3)c2)cc1 (protonated)
CC[N-]S(=O)(=O)c1ccc(N(C)S(=O)(=O)c2cccc([N-]C(=O)c3ccco3)c2)cc1 (3D coordinates assigned)
CC[N-]S(=O)(=O)c1ccc(N(C)S(=O)(=O)c2cccc([N-]C(=O)c3ccco3)c2)cc1 (optimized conformer: 84.47890211969522 kcal/mol)

>  <smiles>  (31) 
CCNS(=O)(=O)c1ccc(N(C)S(=O)(=O)c2cccc(NC(=O)c3ccco3)c2)cc1

>  <score_type>  (31) 
oracle

>  <origin>  (31) 
adgpu

>  <m_score__min__energy>  (31) 
-11

>  <m_primary>  (31) 
energy

$$$$
31:0
     RDKit          3D

 44 46  0  0  0  0  0  0  0  0999 V2000
   -9.0050   18.5450  -31.5910 C   0  0  0  0  0  0  0  0  0  0  0  0
   -7.5920   18.5650  -32.1150 C   0  0  0  0  0  0  0  0  0  0  0  0
   -6.7660   17.4400  -31.9440 C   0  0  0  0  0  0  0  0  0  0  0  0
   -5.4610   17.4410  -32.4410 C   0  0  0  0  0  0  0  0  0  0  0  0
   -4.9710   18.5590  -33.1130 C   0  0  0  0  0  0  0  0  0  0  0  0
   -5.7810   19.6810  -33.2940 C   0  0  0  0  0  0  0  0  0  0  0  0
   -7.1010   19.6930  -32.8060 C   0  0  0  0  0  0  0  0  0  0  0  0
   -7.9590   20.8300  -32.9940 N   0  0  0  0  0  0  0  0  0  0  0  0
   -8.4460   21.9420  -31.7570 S   0  0  0  0  0  0  0  0  0  0  0  0
   -9.4360   22.9170  -32.3310 O   0  0  0  0  0  0  0  0  0  0  0  0
   -9.1070   21.1870  -30.6350 O   0  0  0  0  0  0  0  0  0  0  0  0
   -7.0450   22.8390  -31.1750 C   0  0  0  0  0  0  0  0  0  0  0  0
   -5.7450   22.3740  -31.4130 C   0  0  0  0  0  0  0  0  0  0  0  0
   -4.6420   23.1060  -30.9660 C   0  0  0  0  0  0  0  0  0  0  0  0
   -4.8260   24.3070  -30.2560 C   0  0  0  0  0  0  0  0  0  0  0  0
   -3.7110   25.0960  -29.8040 N   0  0  0  0  0  0  0  0  0  0  0  0
   -2.4940   24.5490  -29.2730 C   0  0  0  0  0  0  0  0  0  0  0  0
   -2.4790   23.3880  -28.7840 O   0  0  0  0  0  0  0  0  0  0  0  0
   -1.3030   25.3410  -29.2030 N   0  0  0  0  0  0  0  0  0  0  0  0
   -0.6170   25.7270  -28.0020 C   0  0  0  0  0  0  0  0  0  0  0  0
    0.3120   24.8400  -27.4390 C   0  0  0  0  0  0  0  0  0  0  0  0
    1.0140   25.1940  -26.2820 C   0  0  0  0  0  0  0  0  0  0  0  0
    0.8050   26.4430  -25.6890 C   0  0  0  0  0  0  0  0  0  0  0  0
   -0.1040   27.3410  -26.2560 C   0  0  0  0  0  0  0  0  0  0  0  0
   -0.8070   26.9910  -27.4140 C   0  0  0  0  0  0  0  0  0  0  0  0
   -6.1300   24.7780  -30.0410 C   0  0  0  0  0  0  0  0  0  0  0  0
   -7.2320   24.0460  -30.4940 C   0  0  0  0  0  0  0  0  0  0  0  0
   -8.9882   18.5452  -30.4911 H   0  0  0  0  0  0  0  0  0  0  0  0
   -9.5417   19.4356  -31.9497 H   0  0  0  0  0  0  0  0  0  0  0  0
   -9.5163   17.6395  -31.9497 H   0  0  0  0  0  0  0  0  0  0  0  0
   -7.1498   16.5546  -31.4160 H   0  0  0  0  0  0  0  0  0  0  0  0
   -4.8193   16.5585  -32.3019 H   0  0  0  0  0  0  0  0  0  0  0  0
   -3.9422   18.5572  -33.5022 H   0  0  0  0  0  0  0  0  0  0  0  0
   -5.3852   20.5615  -33.8214 H   0  0  0  0  0  0  0  0  0  0  0  0
   -5.5920   21.4286  -31.9541 H   0  0  0  0  0  0  0  0  0  0  0  0
   -3.6244   22.7416  -31.1702 H   0  0  0  0  0  0  0  0  0  0  0  0
   -3.8200   26.1350  -29.7840 H   0  0  0  0  0  0  0  0  0  0  0  0
    0.4894   23.8616  -27.9093 H   0  0  0  0  0  0  0  0  0  0  0  0
    1.7317   24.4886  -25.8379 H   0  0  0  0  0  0  0  0  0  0  0  0
    1.3553   26.7186  -24.7773 H   0  0  0  0  0  0  0  0  0  0  0  0
   -0.2669   28.3245  -25.7910 H   0  0  0  0  0  0  0  0  0  0  0  0
   -1.5102   27.7060  -27.8659 H   0  0  0  0  0  0  0  0  0  0  0  0
   -6.2866   25.7298  -29.5123 H   0  0  0  0  0  0  0  0  0  0  0  0
   -8.2502   24.4212  -30.3139 H   0  0  0  0  0  0  0  0  0  0  0  0
  1  2  1  0
  2  3  2  0
  3  4  1  0
  4  5  2  0
  5  6  1  0
  6  7  2  0
  7  8  1  0
  8  9  1  0
  9 10  2  0
  9 11  2  0
  9 12  1  0
 12 13  2  0
 13 14  1  0
 14 15  2  0
 15 16  1  0
 16 17  1  0
 17 18  2  0
 17 19  1  0
 19 20  1  0
 20 21  2  0
 21 22  1  0
 22 23  2  0
 23 24  1  0
 24 25  2  0
 15 26  1  0
 26 27  2  0
  7  2  1  0
 27 12  1  0
 25 20  1  0
  1 28  1  0
  1 29  1  0
  1 30  1  0
  3 31  1  0
  4 32  1  0
  5 33  1  0
  6 34  1  0
 13 35  1  0
 14 36  1  0
 16 37  1  0
 21 38  1  0
 22 39  1  0
 23 40  1  0
 24 41  1  0
 25 42  1  0
 26 43  1  0
 27 44  1  0
M  CHG  2   8  -1  19  -1
M  END
>  <UniqueID>  (32) 
28

>  <SMILES>  (32) 
Cc1ccccc1[N-]S(=O)(=O)c1ccc(NC(=O)[N-]c2ccccc2)cc1

>  <Energy>  (32) 
56.74468355703708

>  <Genealogy>  (32) 
Cc1ccccc1[N-]S(=O)(=O)c1ccc(NC(=O)[N-]c2ccccc2)cc1 (protonated)
Cc1ccccc1[N-]S(=O)(=O)c1ccc(NC(=O)[N-]c2ccccc2)cc1 (3D coordinates assigned)
Cc1ccccc1[N-]S(=O)(=O)c1ccc(NC(=O)[N-]c2ccccc2)cc1 (optimized conformer: 56.74468355703708 kcal/mol)

>  <smiles>  (32) 
Cc1ccccc1NS(=O)(=O)c1ccc(NC(=O)Nc2ccccc2)cc1

>  <score_type>  (32) 
oracle

>  <origin>  (32) 
adgpu

>  <m_score__min__energy>  (32) 
-10.76

>  <m_primary>  (32) 
energy

$$$$
32:0
     RDKit          3D

 52 55  0  0  0  0  0  0  0  0999 V2000
   -6.7970   15.4950  -33.0950 H   0  0  0  0  0  0  0  0  0  0  0  0
   -6.1610   16.1750  -33.4970 O   0  0  0  0  0  0  0  0  0  0  0  0
   -4.7740   16.0150  -33.4510 C   0  0  0  0  0  0  0  0  0  0  0  0
   -4.2150   14.9210  -32.7690 C   0  0  0  0  0  0  0  0  0  0  0  0
   -5.0310   14.0040  -32.1160 O   0  0  0  0  0  0  0  0  0  0  0  0
   -2.8330   14.7440  -32.7400 C   0  0  0  0  0  0  0  0  0  0  0  0
   -2.4001   13.8961  -32.1890 H   0  0  0  0  0  0  0  0  0  0  0  0
   -1.9980   15.6380  -33.4070 C   0  0  0  0  0  0  0  0  0  0  0  0
   -0.9087   15.4866  -33.3853 H   0  0  0  0  0  0  0  0  0  0  0  0
   -2.5340   16.7280  -34.1050 C   0  0  0  0  0  0  0  0  0  0  0  0
   -1.3850   17.7780  -35.0130 S   0  0  0  0  0  0  0  0  0  0  0  0
   -1.3680   19.0330  -33.7300 C   0  0  0  0  0  0  0  0  0  0  0  0
   -1.3490   20.3920  -34.0730 C   0  0  0  0  0  0  0  0  0  0  0  0
   -1.3663   20.6917  -35.1313 H   0  0  0  0  0  0  0  0  0  0  0  0
   -1.3080   21.3680  -33.0710 C   0  0  0  0  0  0  0  0  0  0  0  0
   -1.2852   22.4336  -33.3428 H   0  0  0  0  0  0  0  0  0  0  0  0
   -1.2960   20.9900  -31.7230 C   0  0  0  0  0  0  0  0  0  0  0  0
   -1.2390   22.2150  -30.4670 Cl  0  0  0  0  0  0  0  0  0  0  0  0
   -1.3260   19.6330  -31.3790 C   0  0  0  0  0  0  0  0  0  0  0  0
   -1.3197   19.3343  -30.3203 H   0  0  0  0  0  0  0  0  0  0  0  0
   -1.3640   18.6560  -32.3810 C   0  0  0  0  0  0  0  0  0  0  0  0
   -1.3908   17.5906  -32.1085 H   0  0  0  0  0  0  0  0  0  0  0  0
   -3.9340   16.9530  -34.0970 C   0  0  0  0  0  0  0  0  0  0  0  0
   -4.5530   18.1450  -34.8060 C   0  0  0  0  0  0  0  0  0  0  0  0
   -4.8744   17.8361  -35.8116 H   0  0  0  0  0  0  0  0  0  0  0  0
   -3.7982   18.9429  -34.8658 H   0  0  0  0  0  0  0  0  0  0  0  0
   -5.7120   18.6600  -34.0720 N   0  0  0  0  0  0  0  0  0  0  0  0
   -6.5750   18.0690  -34.0690 H   0  0  0  0  0  0  0  0  0  0  0  0
   -5.7240   19.8920  -33.3240 C   0  0  0  0  0  0  0  0  0  0  0  0
   -4.5810   20.7030  -33.2080 C   0  0  0  0  0  0  0  0  0  0  0  0
   -3.6485   20.4080  -33.7113 H   0  0  0  0  0  0  0  0  0  0  0  0
   -4.6220   21.8820  -32.4570 C   0  0  0  0  0  0  0  0  0  0  0  0
   -3.7197   22.5044  -32.3650 H   0  0  0  0  0  0  0  0  0  0  0  0
   -5.8080   22.2740  -31.8210 C   0  0  0  0  0  0  0  0  0  0  0  0
   -5.8500   23.7310  -30.8330 S   0  0  0  0  0  0  0  0  0  0  0  0
   -5.2410   24.8770  -31.5920 O   0  0  0  0  0  0  0  0  0  0  0  0
   -7.2720   24.0920  -30.4990 O   0  0  0  0  0  0  0  0  0  0  0  0
   -4.9380   23.4750  -29.3790 N   0  0  0  0  0  0  0  0  0  0  0  0
   -3.8070   24.0610  -29.1290 C   0  0  0  0  0  0  0  0  0  0  0  0
   -3.1910   24.9240  -29.9590 N   0  0  0  0  0  0  0  0  0  0  0  0
   -2.1010   25.2980  -29.3540 O   0  0  0  0  0  0  0  0  0  0  0  0
   -1.9880   24.7150  -28.1810 C   0  0  0  0  0  0  0  0  0  0  0  0
   -0.8670   24.9540  -27.2250 C   0  0  0  0  0  0  0  0  0  0  0  0
   -1.2413   24.8742  -26.1937 H   0  0  0  0  0  0  0  0  0  0  0  0
   -0.0795   24.2036  -27.3884 H   0  0  0  0  0  0  0  0  0  0  0  0
   -0.4541   25.9604  -27.3884 H   0  0  0  0  0  0  0  0  0  0  0  0
   -3.0780   23.8940  -27.9740 C   0  0  0  0  0  0  0  0  0  0  0  0
   -3.3070   23.2631  -27.1025 H   0  0  0  0  0  0  0  0  0  0  0  0
   -6.9510   21.4760  -31.9450 C   0  0  0  0  0  0  0  0  0  0  0  0
   -7.8867   21.7804  -31.4532 H   0  0  0  0  0  0  0  0  0  0  0  0
   -6.9100   20.2950  -32.6900 C   0  0  0  0  0  0  0  0  0  0  0  0
   -7.8145   19.6756  -32.7806 H   0  0  0  0  0  0  0  0  0  0  0  0
  1  2  1  0
  2  3  1  0
  3  4  2  0
  4  5  1  0
  4  6  1  0
  6  7  1  0
  6  8  2  0
  8  9  1  0
  8 10  1  0
 10 11  1  0
 11 12  1  0
 12 13  2  0
 13 14  1  0
 13 15  1  0
 15 16  1  0
 15 17  2  0
 17 18  1  0
 17 19  1  0
 19 20  1  0
 19 21  2  0
 21 22  1  0
 10 23  2  0
 23 24  1  0
 24 25  1  0
 24 26  1  0
 24 27  1  0
 27 28  1  0
 27 29  1  0
 29 30  2  0
 30 31  1  0
 30 32  1  0
 32 33  1  0
 32 34  2  0
 34 35  1  0
 35 36  2  0
 35 37  2  0
 35 38  1  0
 38 39  2  0
 39 40  1  0
 40 41  1  0
 41 42  1  0
 42 43  1  0
 43 44  1  0
 43 45  1  0
 43 46  1  0
 42 47  2  0
 47 48  1  0
 34 49  1  0
 49 50  1  0
 49 51  2  0
 51 52  1  0
 23  3  1  0
 51 29  1  0
 21 12  1  0
 47 39  1  0
M  CHG  2   5  -1  40  -1
M  END
>  <UniqueID>  (33) 
29

>  <SMILES>  (33) 
Cc1c/c(=N\S(=O)(=O)c2ccc(NCc3c(Sc4ccc(Cl)cc4)ccc([O-])c3O)cc2)[n-]o1

>  <Energy>  (33) 
87.16385220500395

>  <Genealogy>  (33) 
Cc1cc(=NS(=O)(=O)c2ccc(NCc3c(Sc4ccc(Cl)cc4)ccc([O-])c3O)cc2)[n-]o1 (protonated)
Cc1c/c(=N\S(=O)(=O)c2ccc(NCc3c(Sc4ccc(Cl)cc4)ccc([O-])c3O)cc2)[n-]o1 (cis-trans isomerization)
Cc1c/c(=N\S(=O)(=O)c2ccc(NCc3c(Sc4ccc(Cl)cc4)ccc([O-])c3O)cc2)[n-]o1 (3D coordinates assigned)
Cc1c/c(=N\S(=O)(=O)c2ccc(NCc3c(Sc4ccc(Cl)cc4)ccc([O-])c3O)cc2)[n-]o1 (optimized conformer: 87.16385220500395 kcal/mol)

>  <smiles>  (33) 
Cc1cc(=NS(=O)(=O)c2ccc(NCc3c(Sc4ccc(Cl)cc4)ccc(O)c3O)cc2)[nH]o1

>  <score_type>  (33) 
oracle

>  <origin>  (33) 
adgpu

>  <m_score__min__energy>  (33) 
-13.83

>  <m_primary>  (33) 
energy

$$$$
33:0
     RDKit          3D

 35 36  0  0  0  0  0  0  0  0999 V2000
   -5.6590   19.9190  -31.6460 C   0  0  0  0  0  0  0  0  0  0  0  0
   -6.9980   19.3510  -31.8510 N   0  0  0  0  0  0  0  0  0  0  0  0
   -7.0560   18.5320  -33.0910 C   0  0  0  0  0  0  0  0  0  0  0  0
   -6.1190   19.0700  -34.1760 C   0  0  0  0  0  0  0  0  0  0  0  0
   -5.5740   17.8470  -34.8940 C   0  0  0  0  0  0  0  0  0  0  0  0
   -5.6000   16.7170  -33.8760 C   0  0  0  0  0  0  0  0  0  0  0  0
   -6.7370   17.0350  -32.9140 C   0  0  0  0  0  0  0  0  0  0  0  0
   -8.2100   20.6160  -31.7110 S   0  0  0  0  0  0  0  0  0  0  0  0
   -9.0460   20.4620  -30.4720 O   0  0  0  0  0  0  0  0  0  0  0  0
   -9.1210   20.6140  -32.9070 O   0  0  0  0  0  0  0  0  0  0  0  0
   -7.3820   22.1580  -31.6300 C   0  0  0  0  0  0  0  0  0  0  0  0
   -7.3990   23.1480  -32.5870 C   0  0  0  0  0  0  0  0  0  0  0  0
   -6.6250   24.1730  -32.1860 N   0  0  0  0  0  0  0  0  0  0  0  0
   -6.1120   23.8390  -30.9830 C   0  0  0  0  0  0  0  0  0  0  0  0
   -5.2000   24.7100  -30.2170 C   0  0  0  0  0  0  0  0  0  0  0  0
   -5.3580   24.9030  -28.8100 N   0  0  0  0  0  0  0  0  0  0  0  0
   -4.2600   25.2990  -30.8150 O   0  0  0  0  0  0  0  0  0  0  0  0
   -6.5630   22.5840  -30.6050 C   0  0  0  0  0  0  0  0  0  0  0  0
   -5.4580   20.0043  -30.5679 H   0  0  0  0  0  0  0  0  0  0  0  0
   -4.9074   19.2622  -32.1083 H   0  0  0  0  0  0  0  0  0  0  0  0
   -5.6089   20.9159  -32.1083 H   0  0  0  0  0  0  0  0  0  0  0  0
   -8.1121   18.6176  -33.3865 H   0  0  0  0  0  0  0  0  0  0  0  0
   -6.6730   19.7111  -34.8775 H   0  0  0  0  0  0  0  0  0  0  0  0
   -5.3116   19.6819  -33.7474 H   0  0  0  0  0  0  0  0  0  0  0  0
   -6.2071   17.5975  -35.7583 H   0  0  0  0  0  0  0  0  0  0  0  0
   -4.5571   18.0231  -35.2747 H   0  0  0  0  0  0  0  0  0  0  0  0
   -5.7836   15.7558  -34.3784 H   0  0  0  0  0  0  0  0  0  0  0  0
   -4.6395   16.6336  -33.3464 H   0  0  0  0  0  0  0  0  0  0  0  0
   -7.6210   16.4271  -33.1567 H   0  0  0  0  0  0  0  0  0  0  0  0
   -6.4534   16.8094  -31.8754 H   0  0  0  0  0  0  0  0  0  0  0  0
   -7.9588   23.1072  -33.5330 H   0  0  0  0  0  0  0  0  0  0  0  0
   -6.4540   25.0550  -32.7180 H   0  0  0  0  0  0  0  0  0  0  0  0
   -4.6990   25.5250  -28.2920 H   0  0  0  0  0  0  0  0  0  0  0  0
   -6.1220   24.4380  -28.2730 H   0  0  0  0  0  0  0  0  0  0  0  0
   -6.3187   22.0408  -29.6802 H   0  0  0  0  0  0  0  0  0  0  0  0
  1  2  1  0
  2  3  1  0
  3  4  1  0
  4  5  1  0
  5  6  1  0
  6  7  1  0
  2  8  1  0
  8  9  2  0
  8 10  2  0
  8 11  1  0
 11 12  2  0
 12 13  1  0
 13 14  1  0
 14 15  1  0
 15 16  1  0
 15 17  2  0
 14 18  2  0
  7  3  1  0
 18 11  1  0
  1 19  1  0
  1 20  1  0
  1 21  1  0
  3 22  1  0
  4 23  1  0
  4 24  1  0
  5 25  1  0
  5 26  1  0
  6 27  1  0
  6 28  1  0
  7 29  1  0
  7 30  1  0
 12 31  1  0
 13 32  1  0
 16 33  1  0
 16 34  1  0
 18 35  1  0
M  END
>  <UniqueID>  (34) 
30

>  <SMILES>  (34) 
CN(C1CCCC1)S(=O)(=O)c1c[nH]c(C(N)=O)c1

>  <Energy>  (34) 
64.36231834969632

>  <Genealogy>  (34) 
CN(C1CCCC1)S(=O)(=O)c1c[nH]c(C(N)=O)c1 (3D coordinates assigned)
CN(C1CCCC1)S(=O)(=O)c1c[nH]c(C(N)=O)c1 (nonaromatic ring conformer: 64.36231834969632 kcal/mol)

>  <smiles>  (34) 
CN(C1CCCC1)S(=O)(=O)c1c[nH]c(C(N)=O)c1

>  <score_type>  (34) 
oracle

>  <origin>  (34) 
adgpu

>  <m_score__min__energy>  (34) 
-8.6500000000000004

>  <m_primary>  (34) 
energy

$$$$
34:0
     RDKit          3D

 54 57  0  0  0  0  0  0  0  0999 V2000
    0.4870   21.7710  -28.4470 O   0  0  0  0  0  0  0  0  0  0  0  0
   -0.2590   22.2820  -29.3230 C   0  0  0  0  0  0  0  0  0  0  0  0
   -0.6140   23.6640  -29.1880 N   0  0  0  0  0  0  0  0  0  0  0  0
   -0.7910   24.3190  -28.0760 C   0  0  0  0  0  0  0  0  0  0  0  0
   -0.7110   23.6890  -26.8670 N   0  0  0  0  0  0  0  0  0  0  0  0
   -0.9070   24.3510  -25.6950 C   0  0  0  0  0  0  0  0  0  0  0  0
   -1.2190   25.7130  -25.7050 C   0  0  0  0  0  0  0  0  0  0  0  0
   -1.3260   26.3780  -26.9270 C   0  0  0  0  0  0  0  0  0  0  0  0
   -1.1130   25.6820  -28.1210 C   0  0  0  0  0  0  0  0  0  0  0  0
   -1.2250   26.3470  -29.3380 O   0  0  0  0  0  0  0  0  0  0  0  0
   -0.7890   21.4190  -30.4060 C   0  0  0  0  0  0  0  0  0  0  0  0
    0.0460   21.0420  -31.4720 C   0  0  0  0  0  0  0  0  0  0  0  0
   -0.4190   20.1790  -32.4680 C   0  0  0  0  0  0  0  0  0  0  0  0
   -1.7290   19.6850  -32.4210 C   0  0  0  0  0  0  0  0  0  0  0  0
   -2.2810   18.5440  -33.6440 S   0  0  0  0  0  0  0  0  0  0  0  0
   -2.2910   17.1650  -33.0490 O   0  0  0  0  0  0  0  0  0  0  0  0
   -1.3590   18.5370  -34.8290 O   0  0  0  0  0  0  0  0  0  0  0  0
   -3.8890   18.9560  -34.1340 N   0  0  0  0  0  0  0  0  0  0  0  0
   -4.7750   19.8300  -33.4220 C   0  0  0  0  0  0  0  0  0  0  0  0
   -5.9200   19.3530  -32.7600 C   0  0  0  0  0  0  0  0  0  0  0  0
   -6.7700   20.2380  -32.0880 C   0  0  0  0  0  0  0  0  0  0  0  0
   -6.4880   21.6060  -32.0670 C   0  0  0  0  0  0  0  0  0  0  0  0
   -7.5470   22.7170  -31.1990 S   0  0  0  0  0  0  0  0  0  0  0  0
   -8.0080   23.7980  -32.1430 O   0  0  0  0  0  0  0  0  0  0  0  0
   -8.7670   21.9670  -30.7320 O   0  0  0  0  0  0  0  0  0  0  0  0
   -6.7570   23.4470  -29.8180 N   0  0  0  0  0  0  0  0  0  0  0  0
   -5.4090   22.8920  -29.5710 C   0  0  0  0  0  0  0  0  0  0  0  0
   -4.2810   23.8340  -30.0210 C   0  0  0  0  0  0  0  0  0  0  0  0
   -4.6970   24.5960  -31.1290 O   0  0  0  0  0  0  0  0  0  0  0  0
   -5.6650   25.5390  -30.7170 C   0  0  0  0  0  0  0  0  0  0  0  0
   -6.7970   24.9210  -29.8610 C   0  0  0  0  0  0  0  0  0  0  0  0
   -5.3470   22.0850  -32.7270 C   0  0  0  0  0  0  0  0  0  0  0  0
   -4.4880   21.1990  -33.3850 C   0  0  0  0  0  0  0  0  0  0  0  0
   -2.5710   20.0660  -31.3670 C   0  0  0  0  0  0  0  0  0  0  0  0
   -2.1000   20.9130  -30.3570 C   0  0  0  0  0  0  0  0  0  0  0  0
   -0.8199   23.8139  -24.7390 H   0  0  0  0  0  0  0  0  0  0  0  0
   -1.3784   26.2545  -24.7608 H   0  0  0  0  0  0  0  0  0  0  0  0
   -1.5776   27.4486  -26.9511 H   0  0  0  0  0  0  0  0  0  0  0  0
    1.0742   21.4295  -31.5227 H   0  0  0  0  0  0  0  0  0  0  0  0
    0.2470   19.8862  -33.2930 H   0  0  0  0  0  0  0  0  0  0  0  0
   -6.1489   18.2771  -32.7705 H   0  0  0  0  0  0  0  0  0  0  0  0
   -7.6640   19.8551  -31.5741 H   0  0  0  0  0  0  0  0  0  0  0  0
   -5.2994   22.7037  -28.4928 H   0  0  0  0  0  0  0  0  0  0  0  0
   -5.3205   21.9672  -30.1600 H   0  0  0  0  0  0  0  0  0  0  0  0
   -4.0196   24.5094  -29.1930 H   0  0  0  0  0  0  0  0  0  0  0  0
   -3.4047   23.2337  -30.3069 H   0  0  0  0  0  0  0  0  0  0  0  0
   -5.1635   26.3173  -30.1231 H   0  0  0  0  0  0  0  0  0  0  0  0
   -6.1302   25.9467  -31.6266 H   0  0  0  0  0  0  0  0  0  0  0  0
   -6.7061   25.3030  -28.8335 H   0  0  0  0  0  0  0  0  0  0  0  0
   -7.7515   25.2078  -30.3266 H   0  0  0  0  0  0  0  0  0  0  0  0
   -5.1267   23.1627  -32.7271 H   0  0  0  0  0  0  0  0  0  0  0  0
   -3.5810   21.5807  -33.8766 H   0  0  0  0  0  0  0  0  0  0  0  0
   -3.6069   19.6976  -31.3335 H   0  0  0  0  0  0  0  0  0  0  0  0
   -2.7596   21.1845  -29.5196 H   0  0  0  0  0  0  0  0  0  0  0  0
  1  2  2  0
  2  3  1  0
  3  4  2  3
  4  5  1  0
  5  6  1  0
  6  7  2  0
  7  8  1  0
  8  9  2  0
  9 10  1  0
  2 11  1  0
 11 12  2  0
 12 13  1  0
 13 14  2  0
 14 15  1  0
 15 16  2  0
 15 17  2  0
 15 18  1  0
 18 19  1  0
 19 20  2  0
 20 21  1  0
 21 22  2  0
 22 23  1  0
 23 24  2  0
 23 25  2  0
 23 26  1  0
 26 27  1  0
 27 28  1  0
 28 29  1  0
 29 30  1  0
 30 31  1  0
 22 32  1  0
 32 33  2  0
 14 34  1  0
 34 35  2  0
  9  4  1  0
 35 11  1  0
 33 19  1  0
 31 26  1  0
  6 36  1  0
  7 37  1  0
  8 38  1  0
 12 39  1  0
 13 40  1  0
 20 41  1  0
 21 42  1  0
 27 43  1  0
 27 44  1  0
 28 45  1  0
 28 46  1  0
 30 47  1  0
 30 48  1  0
 31 49  1  0
 31 50  1  0
 32 51  1  0
 33 52  1  0
 34 53  1  0
 35 54  1  0
M  CHG  3   5  -1  10  -1  18  -1
M  END
>  <UniqueID>  (35) 
31

>  <SMILES>  (35) 
O=C(N=c1[n-]cccc1[O-])c1ccc(S(=O)(=O)[N-]c2ccc(S(=O)(=O)N3CCOCC3)cc2)cc1

>  <Energy>  (35) 
82.27062484773802

>  <Genealogy>  (35) 
O=C(N=c1[n-]cccc1[O-])c1ccc(S(=O)(=O)[N-]c2ccc(S(=O)(=O)N3CCOCC3)cc2)cc1 (protonated)
O=C(N=c1[n-]cccc1[O-])c1ccc(S(=O)(=O)[N-]c2ccc(S(=O)(=O)N3CCOCC3)cc2)cc1 (3D coordinates assigned)
O=C(N=c1[n-]cccc1[O-])c1ccc(S(=O)(=O)[N-]c2ccc(S(=O)(=O)N3CCOCC3)cc2)cc1 (nonaromatic ring conformer: 82.27062484773802 kcal/mol)

>  <smiles>  (35) 
O=C(N=c1[nH]cccc1O)c1ccc(S(=O)(=O)Nc2ccc(S(=O)(=O)N3CCOCC3)cc2)cc1

>  <score_type>  (35) 
oracle

>  <origin>  (35) 
adgpu

>  <m_score__min__energy>  (35) 
-13.58

>  <m_primary>  (35) 
energy

$$$$
35:0
     RDKit          3D

 58 61  0  0  0  0  0  0  0  0999 V2000
    0.2040   23.6970  -25.5970 C   0  0  0  0  0  0  0  0  0  0  0  0
   -0.7640   23.5000  -26.7360 C   0  0  0  0  0  0  0  0  0  0  0  0
   -1.2960   22.2150  -26.9310 C   0  0  0  0  0  0  0  0  0  0  0  0
   -2.2090   21.9680  -27.9520 C   0  0  0  0  0  0  0  0  0  0  0  0
   -2.6310   23.0010  -28.7880 C   0  0  0  0  0  0  0  0  0  0  0  0
   -3.5680   22.7110  -29.8340 N   0  0  0  0  0  0  0  0  0  0  0  0
   -3.1670   22.4170  -31.1830 C   0  0  0  0  0  0  0  0  0  0  0  0
   -1.9470   22.2840  -31.4680 O   0  0  0  0  0  0  0  0  0  0  0  0
   -4.1400   22.2340  -32.2170 N   0  0  0  0  0  0  0  0  0  0  0  0
   -5.5580   22.1430  -32.0260 C   0  0  0  0  0  0  0  0  0  0  0  0
   -6.3420   23.2850  -31.7810 C   0  0  0  0  0  0  0  0  0  0  0  0
   -7.7270   23.1680  -31.6370 C   0  0  0  0  0  0  0  0  0  0  0  0
   -8.3420   21.9190  -31.7530 C   0  0  0  0  0  0  0  0  0  0  0  0
   -7.5730   20.7790  -32.0180 C   0  0  0  0  0  0  0  0  0  0  0  0
   -8.3580   19.2140  -32.2070 S   0  0  0  0  0  0  0  0  0  0  0  0
   -9.5680   19.3720  -33.0840 O   0  0  0  0  0  0  0  0  0  0  0  0
   -8.8040   18.7020  -30.8640 O   0  0  0  0  0  0  0  0  0  0  0  0
   -7.2420   18.0960  -32.9510 N   0  0  0  0  0  0  0  0  0  0  0  0
   -6.4980   18.7320  -34.0380 C   0  0  0  0  0  0  0  0  0  0  0  0
   -5.1720   17.9940  -34.1460 C   0  0  0  0  0  0  0  0  0  0  0  0
   -5.0030   17.2710  -32.8180 C   0  0  0  0  0  0  0  0  0  0  0  0
   -6.2290   17.6450  -31.9980 C   0  0  0  0  0  0  0  0  0  0  0  0
   -6.1840   20.8980  -32.1690 C   0  0  0  0  0  0  0  0  0  0  0  0
   -2.0940   24.2920  -28.6270 C   0  0  0  0  0  0  0  0  0  0  0  0
   -2.4660   25.2940  -29.5160 O   0  0  0  0  0  0  0  0  0  0  0  0
   -1.1720   24.5620  -27.5900 C   0  0  0  0  0  0  0  0  0  0  0  0
   -0.5310   26.2200  -27.4060 S   0  0  0  0  0  0  0  0  0  0  0  0
   -0.8880   27.0510  -28.6050 O   0  0  0  0  0  0  0  0  0  0  0  0
    0.9700   26.1680  -27.3430 O   0  0  0  0  0  0  0  0  0  0  0  0
   -1.1370   27.0590  -25.9310 C   0  0  0  0  0  0  0  0  0  0  0  0
   -0.0720   27.2670  -24.8590 C   0  0  0  0  0  0  0  0  0  0  0  0
   -0.8660   26.3930  -23.8990 C   0  0  0  0  0  0  0  0  0  0  0  0
   -1.9330   26.1850  -24.9640 C   0  0  0  0  0  0  0  0  0  0  0  0
   -0.3283   23.5887  -24.6405 H   0  0  0  0  0  0  0  0  0  0  0  0
    1.0024   22.9429  -25.6597 H   0  0  0  0  0  0  0  0  0  0  0  0
    0.6442   24.7031  -25.6597 H   0  0  0  0  0  0  0  0  0  0  0  0
   -0.9871   21.3932  -26.2683 H   0  0  0  0  0  0  0  0  0  0  0  0
   -2.6004   20.9508  -28.1004 H   0  0  0  0  0  0  0  0  0  0  0  0
   -4.5820   22.8410  -29.6220 H   0  0  0  0  0  0  0  0  0  0  0  0
   -5.8637   24.2724  -31.7026 H   0  0  0  0  0  0  0  0  0  0  0  0
   -8.3346   24.0617  -31.4318 H   0  0  0  0  0  0  0  0  0  0  0  0
   -9.4322   21.8308  -31.6360 H   0  0  0  0  0  0  0  0  0  0  0  0
   -7.0575   18.6475  -34.9813 H   0  0  0  0  0  0  0  0  0  0  0  0
   -6.3415   19.8025  -33.8389 H   0  0  0  0  0  0  0  0  0  0  0  0
   -5.1994   17.2728  -34.9761 H   0  0  0  0  0  0  0  0  0  0  0  0
   -4.3366   18.6808  -34.3472 H   0  0  0  0  0  0  0  0  0  0  0  0
   -4.9613   16.1830  -32.9743 H   0  0  0  0  0  0  0  0  0  0  0  0
   -4.0688   17.5560  -32.3120 H   0  0  0  0  0  0  0  0  0  0  0  0
   -6.5945   16.7704  -31.4399 H   0  0  0  0  0  0  0  0  0  0  0  0
   -5.9936   18.4307  -31.2650 H   0  0  0  0  0  0  0  0  0  0  0  0
   -5.5817   20.0074  -32.4014 H   0  0  0  0  0  0  0  0  0  0  0  0
   -1.6241   27.9144  -26.4219 H   0  0  0  0  0  0  0  0  0  0  0  0
    0.9158   26.8614  -25.1229 H   0  0  0  0  0  0  0  0  0  0  0  0
    0.2310   28.2829  -24.5655 H   0  0  0  0  0  0  0  0  0  0  0  0
   -0.3469   25.4710  -23.5982 H   0  0  0  0  0  0  0  0  0  0  0  0
   -1.1415   26.7703  -22.9031 H   0  0  0  0  0  0  0  0  0  0  0  0
   -2.0444   25.1404  -25.2903 H   0  0  0  0  0  0  0  0  0  0  0  0
   -2.9875   26.4114  -24.7477 H   0  0  0  0  0  0  0  0  0  0  0  0
  1  2  1  0
  2  3  2  0
  3  4  1  0
  4  5  2  0
  5  6  1  0
  6  7  1  0
  7  8  2  0
  7  9  1  0
  9 10  1  0
 10 11  2  0
 11 12  1  0
 12 13  2  0
 13 14  1  0
 14 15  1  0
 15 16  2  0
 15 17  2  0
 15 18  1  0
 18 19  1  0
 19 20  1  0
 20 21  1  0
 21 22  1  0
 14 23  2  0
  5 24  1  0
 24 25  1  0
 24 26  2  0
 26 27  1  0
 27 28  2  0
 27 29  2  0
 27 30  1  0
 30 31  1  0
 31 32  1  0
 32 33  1  0
 26  2  1  0
 33 30  1  0
 23 10  1  0
 22 18  1  0
  1 34  1  0
  1 35  1  0
  1 36  1  0
  3 37  1  0
  4 38  1  0
  6 39  1  0
 11 40  1  0
 12 41  1  0
 13 42  1  0
 19 43  1  0
 19 44  1  0
 20 45  1  0
 20 46  1  0
 21 47  1  0
 21 48  1  0
 22 49  1  0
 22 50  1  0
 23 51  1  0
 30 52  1  0
 31 53  1  0
 31 54  1  0
 32 55  1  0
 32 56  1  0
 33 57  1  0
 33 58  1  0
M  CHG  2   9  -1  25  -1
M  END
>  <UniqueID>  (36) 
32

>  <SMILES>  (36) 
Cc1ccc(NC(=O)[N-]c2cccc(S(=O)(=O)N3CCCC3)c2)c([O-])c1S(=O)(=O)C1CCC1

>  <Energy>  (36) 
132.64279004982473

>  <Genealogy>  (36) 
Cc1ccc(NC(=O)[N-]c2cccc(S(=O)(=O)N3CCCC3)c2)c([O-])c1S(=O)(=O)C1CCC1 (protonated)
Cc1ccc(NC(=O)[N-]c2cccc(S(=O)(=O)N3CCCC3)c2)c([O-])c1S(=O)(=O)C1CCC1 (3D coordinates assigned)
Cc1ccc(NC(=O)[N-]c2cccc(S(=O)(=O)N3CCCC3)c2)c([O-])c1S(=O)(=O)C1CCC1 (nonaromatic ring conformer: 132.64279004982473 kcal/mol)

>  <smiles>  (36) 
Cc1ccc(NC(=O)Nc2cccc(S(=O)(=O)N3CCCC3)c2)c(O)c1S(=O)(=O)C1CCC1

>  <score_type>  (36) 
oracle

>  <origin>  (36) 
adgpu

>  <m_score__min__energy>  (36) 
-15.08

>  <m_primary>  (36) 
energy

$$$$
36:0
     RDKit          3D

 46 48  0  0  0  0  0  0  0  0999 V2000
   -0.2900   22.5080  -25.9320 C   0  0  0  0  0  0  0  0  0  0  0  0
   -1.0870   22.1150  -27.1500 C   0  0  0  0  0  0  0  0  0  0  0  0
   -1.4000   20.7570  -27.3280 C   0  0  0  0  0  0  0  0  0  0  0  0
   -2.1280   20.3380  -28.4380 C   0  0  0  0  0  0  0  0  0  0  0  0
   -2.5560   21.2610  -29.3850 C   0  0  0  0  0  0  0  0  0  0  0  0
   -2.2550   22.6210  -29.2400 C   0  0  0  0  0  0  0  0  0  0  0  0
   -2.7400   23.5640  -30.2020 N   0  0  0  0  0  0  0  0  0  0  0  0
   -4.2800   24.3580  -30.0870 S   0  0  0  0  0  0  0  0  0  0  0  0
   -4.2200   25.6630  -30.8280 O   0  0  0  0  0  0  0  0  0  0  0  0
   -4.6000   24.6190  -28.6410 O   0  0  0  0  0  0  0  0  0  0  0  0
   -5.5110   23.3460  -30.8310 C   0  0  0  0  0  0  0  0  0  0  0  0
   -6.8680   23.6700  -30.7210 C   0  0  0  0  0  0  0  0  0  0  0  0
   -7.8360   22.8310  -31.2810 C   0  0  0  0  0  0  0  0  0  0  0  0
   -7.4510   21.6630  -31.9440 C   0  0  0  0  0  0  0  0  0  0  0  0
   -6.0950   21.3320  -32.0570 C   0  0  0  0  0  0  0  0  0  0  0  0
   -5.6000   19.8620  -32.8880 S   0  0  0  0  0  0  0  0  0  0  0  0
   -6.0080   18.6740  -32.0630 O   0  0  0  0  0  0  0  0  0  0  0  0
   -6.2790   19.7660  -34.2250 O   0  0  0  0  0  0  0  0  0  0  0  0
   -3.8540   19.8790  -33.1190 C   0  0  0  0  0  0  0  0  0  0  0  0
   -3.1860   21.0650  -33.4590 C   0  0  0  0  0  0  0  0  0  0  0  0
   -1.7970   21.0640  -33.6340 C   0  0  0  0  0  0  0  0  0  0  0  0
   -1.0720   19.8820  -33.4720 C   0  0  0  0  0  0  0  0  0  0  0  0
   -1.7330   18.6970  -33.1360 C   0  0  0  0  0  0  0  0  0  0  0  0
   -3.1210   18.6940  -32.9590 C   0  0  0  0  0  0  0  0  0  0  0  0
   -5.1280   22.1840  -31.5130 C   0  0  0  0  0  0  0  0  0  0  0  0
   -1.4950   23.0610  -28.1270 C   0  0  0  0  0  0  0  0  0  0  0  0
   -1.0460   24.7820  -27.9610 S   0  0  0  0  0  0  0  0  0  0  0  0
   -1.6170   25.6570  -29.3370 N   0  0  0  0  0  0  0  0  0  0  0  0
    0.4430   24.9600  -27.8590 O   0  0  0  0  0  0  0  0  0  0  0  0
   -1.6620   25.3520  -26.7140 O   0  0  0  0  0  0  0  0  0  0  0  0
   -0.8476   22.2330  -25.0245 H   0  0  0  0  0  0  0  0  0  0  0  0
    0.6767   21.9833  -25.9414 H   0  0  0  0  0  0  0  0  0  0  0  0
   -0.1177   23.5944  -25.9414 H   0  0  0  0  0  0  0  0  0  0  0  0
   -1.0669   20.0185  -26.5839 H   0  0  0  0  0  0  0  0  0  0  0  0
   -2.3656   19.2717  -28.5663 H   0  0  0  0  0  0  0  0  0  0  0  0
   -3.1359   20.9204  -30.2555 H   0  0  0  0  0  0  0  0  0  0  0  0
   -7.1733   24.5857  -30.1934 H   0  0  0  0  0  0  0  0  0  0  0  0
   -8.9018   23.0907  -31.1995 H   0  0  0  0  0  0  0  0  0  0  0  0
   -8.2151   21.0016  -32.3784 H   0  0  0  0  0  0  0  0  0  0  0  0
   -3.7548   21.9976  -33.5883 H   0  0  0  0  0  0  0  0  0  0  0  0
   -1.2762   21.9958  -33.8995 H   0  0  0  0  0  0  0  0  0  0  0  0
    0.0195   19.8832  -33.6088 H   0  0  0  0  0  0  0  0  0  0  0  0
   -1.1613   17.7657  -33.0106 H   0  0  0  0  0  0  0  0  0  0  0  0
   -3.6384   17.7602  -32.6938 H   0  0  0  0  0  0  0  0  0  0  0  0
   -4.0609   21.9401  -31.6214 H   0  0  0  0  0  0  0  0  0  0  0  0
   -2.6590   25.6090  -29.3190 H   0  0  0  0  0  0  0  0  0  0  0  0
  1  2  1  0
  2  3  2  0
  3  4  1  0
  4  5  2  0
  5  6  1  0
  6  7  1  0
  7  8  1  0
  8  9  2  0
  8 10  2  0
  8 11  1  0
 11 12  2  0
 12 13  1  0
 13 14  2  0
 14 15  1  0
 15 16  1  0
 16 17  2  0
 16 18  2  0
 16 19  1  0
 19 20  2  0
 20 21  1  0
 21 22  2  0
 22 23  1  0
 23 24  2  0
 15 25  2  0
  6 26  2  0
 26 27  1  0
 27 28  1  0
 27 29  2  0
 27 30  2  0
 26  2  1  0
 25 11  1  0
 24 19  1  0
  1 31  1  0
  1 32  1  0
  1 33  1  0
  3 34  1  0
  4 35  1  0
  5 36  1  0
 12 37  1  0
 13 38  1  0
 14 39  1  0
 20 40  1  0
 21 41  1  0
 22 42  1  0
 23 43  1  0
 24 44  1  0
 25 45  1  0
 28 46  1  0
M  CHG  2   7  -1  28  -1
M  END
>  <UniqueID>  (37) 
33

>  <SMILES>  (37) 
Cc1cccc([N-]S(=O)(=O)c2cccc(S(=O)(=O)c3ccccc3)c2)c1S([NH-])(=O)=O

>  <Energy>  (37) 
57.820864737911286

>  <Genealogy>  (37) 
Cc1cccc([N-]S(=O)(=O)c2cccc(S(=O)(=O)c3ccccc3)c2)c1S([NH-])(=O)=O (protonated)
Cc1cccc([N-]S(=O)(=O)c2cccc(S(=O)(=O)c3ccccc3)c2)c1S([NH-])(=O)=O (3D coordinates assigned)
Cc1cccc([N-]S(=O)(=O)c2cccc(S(=O)(=O)c3ccccc3)c2)c1S([NH-])(=O)=O (optimized conformer: 57.820864737911286 kcal/mol)

>  <smiles>  (37) 
Cc1cccc(NS(=O)(=O)c2cccc(S(=O)(=O)c3ccccc3)c2)c1S(N)(=O)=O

>  <score_type>  (37) 
oracle

>  <origin>  (37) 
adgpu

>  <m_score__min__energy>  (37) 
-13.26

>  <m_primary>  (37) 
energy

$$$$
37:0
     RDKit          3D

 49 51  0  0  0  0  0  0  0  0999 V2000
    2.7510   18.3550  -31.0480 C   0  0  0  0  0  0  0  0  0  0  0  0
    2.1800   19.0800  -32.1310 O   0  0  0  0  0  0  0  0  0  0  0  0
    0.9390   19.7350  -32.0840 C   0  0  0  0  0  0  0  0  0  0  0  0
    0.2900   20.0240  -30.8700 C   0  0  0  0  0  0  0  0  0  0  0  0
   -0.9310   20.7030  -30.8660 C   0  0  0  0  0  0  0  0  0  0  0  0
   -1.5270   21.1040  -32.0720 C   0  0  0  0  0  0  0  0  0  0  0  0
   -2.8090   21.8440  -32.0720 C   0  0  0  0  0  0  0  0  0  0  0  0
   -3.4840   21.9160  -33.1330 O   0  0  0  0  0  0  0  0  0  0  0  0
   -3.3240   22.4550  -30.8820 N   0  0  0  0  0  0  0  0  0  0  0  0
   -4.5740   23.1520  -30.7850 C   0  0  0  0  0  0  0  0  0  0  0  0
   -5.7640   22.4330  -30.9630 C   0  0  0  0  0  0  0  0  0  0  0  0
   -7.0000   23.0760  -30.8550 C   0  0  0  0  0  0  0  0  0  0  0  0
   -7.0560   24.4460  -30.5850 C   0  0  0  0  0  0  0  0  0  0  0  0
   -5.8760   25.1780  -30.4400 C   0  0  0  0  0  0  0  0  0  0  0  0
   -4.6340   24.5430  -30.5540 C   0  0  0  0  0  0  0  0  0  0  0  0
   -3.4730   25.3040  -30.4690 O   0  0  0  0  0  0  0  0  0  0  0  0
   -0.8900   20.7970  -33.2830 C   0  0  0  0  0  0  0  0  0  0  0  0
    0.3380   20.1250  -33.2910 C   0  0  0  0  0  0  0  0  0  0  0  0
    1.0190   19.9160  -34.5310 N   0  0  0  0  0  0  0  0  0  0  0  0
    1.7640   18.6790  -34.7450 C   0  0  0  0  0  0  0  0  0  0  0  0
    1.0530   21.2160  -35.6820 S   0  0  0  0  0  0  0  0  0  0  0  0
    1.0270   22.5300  -34.9540 O   0  0  0  0  0  0  0  0  0  0  0  0
   -0.1480   21.1560  -36.5850 O   0  0  0  0  0  0  0  0  0  0  0  0
    2.5200   21.0840  -36.6490 C   0  0  0  0  0  0  0  0  0  0  0  0
    3.5440   22.0030  -36.7460 C   0  0  0  0  0  0  0  0  0  0  0  0
    3.6640   23.2900  -35.9980 C   0  0  0  0  0  0  0  0  0  0  0  0
    4.4350   21.5850  -37.6680 N   0  0  0  0  0  0  0  0  0  0  0  0
    4.0070   20.4380  -38.1740 N   0  0  0  0  0  0  0  0  0  0  0  0
    2.8420   20.1150  -37.5790 C   0  0  0  0  0  0  0  0  0  0  0  0
    2.0350   18.9120  -37.9400 C   0  0  0  0  0  0  0  0  0  0  0  0
    2.4097   18.7883  -30.0963 H   0  0  0  0  0  0  0  0  0  0  0  0
    2.4368   17.3024  -31.1052 H   0  0  0  0  0  0  0  0  0  0  0  0
    3.8479   18.4138  -31.1052 H   0  0  0  0  0  0  0  0  0  0  0  0
    0.7464   19.7137  -29.9185 H   0  0  0  0  0  0  0  0  0  0  0  0
   -1.4290   20.9250  -29.9107 H   0  0  0  0  0  0  0  0  0  0  0  0
   -5.7247   21.3572  -31.1888 H   0  0  0  0  0  0  0  0  0  0  0  0
   -7.9302   22.5029  -30.9827 H   0  0  0  0  0  0  0  0  0  0  0  0
   -8.0300   24.9477  -30.4867 H   0  0  0  0  0  0  0  0  0  0  0  0
   -5.9226   26.2578  -30.2354 H   0  0  0  0  0  0  0  0  0  0  0  0
   -1.3593   21.0867  -34.2348 H   0  0  0  0  0  0  0  0  0  0  0  0
    2.0296   18.2381  -33.7729 H   0  0  0  0  0  0  0  0  0  0  0  0
    1.1425   17.9700  -35.3117 H   0  0  0  0  0  0  0  0  0  0  0  0
    2.6813   18.8968  -35.3117 H   0  0  0  0  0  0  0  0  0  0  0  0
    3.6452   23.0888  -34.9167 H   0  0  0  0  0  0  0  0  0  0  0  0
    4.6118   23.7812  -36.2632 H   0  0  0  0  0  0  0  0  0  0  0  0
    2.8233   23.9480  -36.2632 H   0  0  0  0  0  0  0  0  0  0  0  0
    1.6971   18.4083  -37.0223 H   0  0  0  0  0  0  0  0  0  0  0  0
    1.1608   19.2210  -38.5318 H   0  0  0  0  0  0  0  0  0  0  0  0
    2.6525   18.2203  -38.5318 H   0  0  0  0  0  0  0  0  0  0  0  0
  1  2  1  0
  2  3  1  0
  3  4  2  0
  4  5  1  0
  5  6  2  0
  6  7  1  0
  7  8  2  0
  7  9  1  0
  9 10  1  0
 10 11  2  0
 11 12  1  0
 12 13  2  0
 13 14  1  0
 14 15  2  0
 15 16  1  0
  6 17  1  0
 17 18  2  0
 18 19  1  0
 19 20  1  0
 19 21  1  0
 21 22  2  0
 21 23  2  0
 21 24  1  0
 24 25  1  0
 25 26  1  0
 25 27  2  0
 27 28  1  0
 28 29  1  0
 29 30  1  0
 18  3  1  0
 29 24  2  0
 15 10  1  0
  1 31  1  0
  1 32  1  0
  1 33  1  0
  4 34  1  0
  5 35  1  0
 11 36  1  0
 12 37  1  0
 13 38  1  0
 14 39  1  0
 17 40  1  0
 20 41  1  0
 20 42  1  0
 20 43  1  0
 26 44  1  0
 26 45  1  0
 26 46  1  0
 30 47  1  0
 30 48  1  0
 30 49  1  0
M  CHG  3   9  -1  16  -1  28  -1
M  END
>  <UniqueID>  (38) 
34

>  <SMILES>  (38) 
COc1ccc(C(=O)[N-]c2ccccc2[O-])cc1N(C)S(=O)(=O)c1c(C)n[n-]c1C

>  <Energy>  (38) 
89.57433775510619

>  <Genealogy>  (38) 
COc1ccc(C(=O)[N-]c2ccccc2[O-])cc1N(C)S(=O)(=O)c1c(C)n[n-]c1C (protonated)
COc1ccc(C(=O)[N-]c2ccccc2[O-])cc1N(C)S(=O)(=O)c1c(C)n[n-]c1C (3D coordinates assigned)
COc1ccc(C(=O)[N-]c2ccccc2[O-])cc1N(C)S(=O)(=O)c1c(C)n[n-]c1C (optimized conformer: 89.57433775510619 kcal/mol)

>  <smiles>  (38) 
COc1ccc(C(=O)Nc2ccccc2O)cc1N(C)S(=O)(=O)c1c(C)n[nH]c1C

>  <score_type>  (38) 
oracle

>  <origin>  (38) 
adgpu

>  <m_score__min__energy>  (38) 
-13.779999999999999

>  <m_primary>  (38) 
energy

$$$$
38:0
     RDKit          3D

 46 48  0  0  0  0  0  0  0  0999 V2000
   -5.6578   25.0627  -31.8677 H   0  0  0  0  0  0  0  0  0  0  0  0
   -5.0500   24.5480  -31.1090 C   0  0  0  0  0  0  0  0  0  0  0  0
   -3.9220   25.1350  -30.6360 N   0  0  0  0  0  0  0  0  0  0  0  0
   -3.1100   24.5580  -29.7100 C   0  0  0  0  0  0  0  0  0  0  0  0
   -2.0920   25.2720  -29.3020 N   0  0  0  0  0  0  0  0  0  0  0  0
   -1.1020   25.0520  -28.2480 C   0  0  0  0  0  0  0  0  0  0  0  0
   -0.1029   25.2984  -28.6366 H   0  0  0  0  0  0  0  0  0  0  0  0
   -1.1480   23.9969  -27.9404 H   0  0  0  0  0  0  0  0  0  0  0  0
   -1.3940   25.9300  -27.0230 C   0  0  0  0  0  0  0  0  0  0  0  0
   -1.7317   26.9190  -27.3665 H   0  0  0  0  0  0  0  0  0  0  0  0
   -0.4695   26.0101  -26.4324 H   0  0  0  0  0  0  0  0  0  0  0  0
   -2.4750   25.3210  -26.1310 C   0  0  0  0  0  0  0  0  0  0  0  0
   -2.2069   25.4720  -25.0749 H   0  0  0  0  0  0  0  0  0  0  0  0
   -3.4389   25.8088  -26.3380 H   0  0  0  0  0  0  0  0  0  0  0  0
   -2.5573   24.2438  -26.3380 H   0  0  0  0  0  0  0  0  0  0  0  0
   -3.4420   23.2530  -29.2370 C   0  0  0  0  0  0  0  0  0  0  0  0
   -2.5720   22.4070  -28.3980 C   0  0  0  0  0  0  0  0  0  0  0  0
   -2.7110   22.4580  -27.1460 O   0  0  0  0  0  0  0  0  0  0  0  0
   -1.6280   21.4260  -28.9980 C   0  0  0  0  0  0  0  0  0  0  0  0
   -1.0330   20.4140  -28.2180 C   0  0  0  0  0  0  0  0  0  0  0  0
   -1.2613   20.3482  -27.1440 H   0  0  0  0  0  0  0  0  0  0  0  0
   -0.1560   19.4940  -28.7970 C   0  0  0  0  0  0  0  0  0  0  0  0
    0.2935   18.7033  -28.1783 H   0  0  0  0  0  0  0  0  0  0  0  0
    0.1550   19.5720  -30.1620 C   0  0  0  0  0  0  0  0  0  0  0  0
    1.0650   18.5580  -30.7870 C   0  0  0  0  0  0  0  0  0  0  0  0
    1.5764   17.9881  -29.9972 H   0  0  0  0  0  0  0  0  0  0  0  0
    0.4748   17.8710  -31.4112 H   0  0  0  0  0  0  0  0  0  0  0  0
    1.8116   19.0708  -31.4112 H   0  0  0  0  0  0  0  0  0  0  0  0
   -0.4470   20.5640  -30.9480 C   0  0  0  0  0  0  0  0  0  0  0  0
   -0.2274   20.6173  -32.0245 H   0  0  0  0  0  0  0  0  0  0  0  0
   -1.3250   21.4860  -30.3710 C   0  0  0  0  0  0  0  0  0  0  0  0
   -1.7836   22.2662  -30.9963 H   0  0  0  0  0  0  0  0  0  0  0  0
   -4.6230   22.6520  -29.6990 C   0  0  0  0  0  0  0  0  0  0  0  0
   -4.9094   21.6607  -29.3179 H   0  0  0  0  0  0  0  0  0  0  0  0
   -5.4440   23.2920  -30.6370 C   0  0  0  0  0  0  0  0  0  0  0  0
   -6.6840   22.6430  -31.1340 C   0  0  0  0  0  0  0  0  0  0  0  0
   -7.8010   23.4180  -31.5010 C   0  0  0  0  0  0  0  0  0  0  0  0
   -7.7566   24.5140  -31.4189 H   0  0  0  0  0  0  0  0  0  0  0  0
   -8.9660   22.8030  -31.9690 C   0  0  0  0  0  0  0  0  0  0  0  0
   -9.8342   23.4160  -32.2528 H   0  0  0  0  0  0  0  0  0  0  0  0
   -9.0300   21.4120  -32.0770 C   0  0  0  0  0  0  0  0  0  0  0  0
   -9.9473   20.9307  -32.4471 H   0  0  0  0  0  0  0  0  0  0  0  0
   -7.9290   20.6320  -31.7150 C   0  0  0  0  0  0  0  0  0  0  0  0
   -7.9807   19.5364  -31.7989 H   0  0  0  0  0  0  0  0  0  0  0  0
   -6.7610   21.2420  -31.2460 C   0  0  0  0  0  0  0  0  0  0  0  0
   -5.8970   20.6229  -30.9628 H   0  0  0  0  0  0  0  0  0  0  0  0
  1  2  1  0
  2  3  1  0
  3  4  1  0
  4  5  2  0
  5  6  1  0
  6  7  1  0
  6  8  1  0
  6  9  1  0
  9 10  1  0
  9 11  1  0
  9 12  1  0
 12 13  1  0
 12 14  1  0
 12 15  1  0
  4 16  1  0
 16 17  1  0
 17 18  2  0
 17 19  1  0
 19 20  2  0
 20 21  1  0
 20 22  1  0
 22 23  1  0
 22 24  2  0
 24 25  1  0
 25 26  1  0
 25 27  1  0
 25 28  1  0
 24 29  1  0
 29 30  1  0
 29 31  2  0
 31 32  1  0
 16 33  2  0
 33 34  1  0
 33 35  1  0
 35 36  1  0
 36 37  2  0
 37 38  1  0
 37 39  1  0
 39 40  1  0
 39 41  2  0
 41 42  1  0
 41 43  1  0
 43 44  1  0
 43 45  2  0
 45 46  1  0
 35  2  2  0
 45 36  1  0
 31 19  1  0
M  CHG  1   3  -1
M  END
>  <UniqueID>  (39) 
35

>  <SMILES>  (39) 
CCC/N=c1/[n-]cc(-c2ccccc2)cc1C(=O)c1ccc(C)cc1

>  <Energy>  (39) 
67.9786639345127

>  <Genealogy>  (39) 
CCCN=c1[n-]cc(-c2ccccc2)cc1C(=O)c1ccc(C)cc1 (protonated)
CCC/N=c1/[n-]cc(-c2ccccc2)cc1C(=O)c1ccc(C)cc1 (cis-trans isomerization)
CCC/N=c1/[n-]cc(-c2ccccc2)cc1C(=O)c1ccc(C)cc1 (3D coordinates assigned)
CCC/N=c1/[n-]cc(-c2ccccc2)cc1C(=O)c1ccc(C)cc1 (optimized conformer: 67.9786639345127 kcal/mol)

>  <smiles>  (39) 
CCCN=c1[nH]cc(-c2ccccc2)cc1C(=O)c1ccc(C)cc1

>  <score_type>  (39) 
oracle

>  <origin>  (39) 
adgpu

>  <m_score__min__energy>  (39) 
-10.289999999999999

>  <m_primary>  (39) 
energy

$$$$
39:0
     RDKit          3D

 55 58  0  0  0  0  0  0  0  0999 V2000
   -5.8980   22.0380  -31.8200 O   0  0  0  0  0  0  0  0  0  0  0  0
   -5.0950   22.3730  -30.9070 C   0  0  0  0  0  0  0  0  0  0  0  0
   -5.5720   23.2710  -29.8080 C   0  0  0  0  0  0  0  0  0  0  0  0
   -4.4060   23.8060  -29.0370 C   0  0  0  0  0  0  0  0  0  0  0  0
   -3.9670   23.3250  -27.4840 S   0  0  0  0  0  0  0  0  0  0  0  0
   -2.6000   24.3150  -27.4620 C   0  0  0  0  0  0  0  0  0  0  0  0
   -1.6900   24.4330  -26.3600 N   0  0  0  0  0  0  0  0  0  0  0  0
   -1.6410   25.5830  -25.4760 C   0  0  0  0  0  0  0  0  0  0  0  0
   -0.4220   25.3640  -24.5880 C   0  0  0  0  0  0  0  0  0  0  0  0
   -0.0440   23.8920  -24.7480 C   0  0  0  0  0  0  0  0  0  0  0  0
   -0.7000   23.4230  -26.0410 C   0  0  0  0  0  0  0  0  0  0  0  0
   -2.4550   25.0010  -28.6190 N   0  0  0  0  0  0  0  0  0  0  0  0
   -3.4540   24.7160  -29.4950 C   0  0  0  0  0  0  0  0  0  0  0  0
   -3.5070   25.2980  -30.7550 O   0  0  0  0  0  0  0  0  0  0  0  0
   -3.7600   21.8440  -30.8750 N   0  0  0  0  0  0  0  0  0  0  0  0
   -3.1570   21.0990  -31.9460 C   0  0  0  0  0  0  0  0  0  0  0  0
   -1.9750   21.5350  -32.5720 C   0  0  0  0  0  0  0  0  0  0  0  0
   -1.3970   20.7750  -33.5940 C   0  0  0  0  0  0  0  0  0  0  0  0
   -1.9820   19.5690  -33.9880 C   0  0  0  0  0  0  0  0  0  0  0  0
   -3.1420   19.1060  -33.3520 C   0  0  0  0  0  0  0  0  0  0  0  0
   -3.8510   17.5560  -33.8150 S   0  0  0  0  0  0  0  0  0  0  0  0
   -3.3730   17.1800  -35.1910 O   0  0  0  0  0  0  0  0  0  0  0  0
   -3.3880   16.4940  -32.8570 O   0  0  0  0  0  0  0  0  0  0  0  0
   -5.5990   17.6250  -33.8080 N   0  0  0  0  0  0  0  0  0  0  0  0
   -6.1120   17.5290  -32.4230 C   0  0  0  0  0  0  0  0  0  0  0  0
   -7.5710   17.9860  -32.3380 C   0  0  0  0  0  0  0  0  0  0  0  0
   -7.7100   19.4680  -32.7350 C   0  0  0  0  0  0  0  0  0  0  0  0
   -6.5930   19.9360  -33.6850 C   0  0  0  0  0  0  0  0  0  0  0  0
   -6.1060   18.7880  -34.5800 C   0  0  0  0  0  0  0  0  0  0  0  0
   -3.7250   19.8750  -32.3340 C   0  0  0  0  0  0  0  0  0  0  0  0
   -6.1362   24.1094  -30.2425 H   0  0  0  0  0  0  0  0  0  0  0  0
   -6.2188   22.6960  -29.1290 H   0  0  0  0  0  0  0  0  0  0  0  0
   -1.5311   26.5102  -26.0575 H   0  0  0  0  0  0  0  0  0  0  0  0
   -2.5633   25.6822  -24.8848 H   0  0  0  0  0  0  0  0  0  0  0  0
    0.4079   26.0092  -24.9120 H   0  0  0  0  0  0  0  0  0  0  0  0
   -0.6378   25.6130  -23.5385 H   0  0  0  0  0  0  0  0  0  0  0  0
    1.0487   23.7838  -24.8137 H   0  0  0  0  0  0  0  0  0  0  0  0
   -0.3818   23.2955  -23.8877 H   0  0  0  0  0  0  0  0  0  0  0  0
    0.0462   23.3480  -26.8457 H   0  0  0  0  0  0  0  0  0  0  0  0
   -1.1533   22.4268  -25.9313 H   0  0  0  0  0  0  0  0  0  0  0  0
   -3.2240   21.9310  -29.9820 H   0  0  0  0  0  0  0  0  0  0  0  0
   -1.5035   22.4774  -32.2564 H   0  0  0  0  0  0  0  0  0  0  0  0
   -0.4799   21.1275  -34.0886 H   0  0  0  0  0  0  0  0  0  0  0  0
   -1.5305   18.9806  -34.8004 H   0  0  0  0  0  0  0  0  0  0  0  0
   -6.0436   16.4838  -32.0870 H   0  0  0  0  0  0  0  0  0  0  0  0
   -5.5047   18.1842  -31.7812 H   0  0  0  0  0  0  0  0  0  0  0  0
   -8.1801   17.3728  -33.0184 H   0  0  0  0  0  0  0  0  0  0  0  0
   -7.9151   17.8678  -31.2999 H   0  0  0  0  0  0  0  0  0  0  0  0
   -8.6794   19.6088  -33.2354 H   0  0  0  0  0  0  0  0  0  0  0  0
   -7.6361   20.0666  -31.8151 H   0  0  0  0  0  0  0  0  0  0  0  0
   -6.9790   20.7468  -34.3203 H   0  0  0  0  0  0  0  0  0  0  0  0
   -5.7453   20.2874  -33.0784 H   0  0  0  0  0  0  0  0  0  0  0  0
   -6.9448   18.4531  -35.2079 H   0  0  0  0  0  0  0  0  0  0  0  0
   -5.2699   19.1726  -35.1825 H   0  0  0  0  0  0  0  0  0  0  0  0
   -4.6367   19.5154  -31.8345 H   0  0  0  0  0  0  0  0  0  0  0  0
  1  2  2  0
  2  3  1  0
  3  4  1  0
  4  5  1  0
  5  6  1  0
  6  7  1  0
  7  8  1  0
  8  9  1  0
  9 10  1  0
 10 11  1  0
  6 12  2  0
 12 13  1  0
 13 14  1  0
  2 15  1  0
 15 16  1  0
 16 17  2  0
 17 18  1  0
 18 19  2  0
 19 20  1  0
 20 21  1  0
 21 22  2  0
 21 23  2  0
 21 24  1  0
 24 25  1  0
 25 26  1  0
 26 27  1  0
 27 28  1  0
 28 29  1  0
 20 30  2  0
 13  4  2  0
 30 16  1  0
 11  7  1  0
 29 24  1  0
  3 31  1  0
  3 32  1  0
  8 33  1  0
  8 34  1  0
  9 35  1  0
  9 36  1  0
 10 37  1  0
 10 38  1  0
 11 39  1  0
 11 40  1  0
 15 41  1  0
 17 42  1  0
 18 43  1  0
 19 44  1  0
 25 45  1  0
 25 46  1  0
 26 47  1  0
 26 48  1  0
 27 49  1  0
 27 50  1  0
 28 51  1  0
 28 52  1  0
 29 53  1  0
 29 54  1  0
 30 55  1  0
M  CHG  1  14  -1
M  END
>  <UniqueID>  (40) 
36

>  <SMILES>  (40) 
O=C(Cc1sc(N2CCCC2)nc1[O-])Nc1cccc(S(=O)(=O)N2CCCCC2)c1

>  <Energy>  (40) 
90.80572096147498

>  <Genealogy>  (40) 
O=C(Cc1sc(N2CCCC2)nc1[O-])Nc1cccc(S(=O)(=O)N2CCCCC2)c1 (protonated)
O=C(Cc1sc(N2CCCC2)nc1[O-])Nc1cccc(S(=O)(=O)N2CCCCC2)c1 (3D coordinates assigned)
O=C(Cc1sc(N2CCCC2)nc1[O-])Nc1cccc(S(=O)(=O)N2CCCCC2)c1 (nonaromatic ring conformer: 90.80572096147498 kcal/mol)

>  <smiles>  (40) 
O=C(Cc1sc(N2CCCC2)nc1O)Nc1cccc(S(=O)(=O)N2CCCCC2)c1

>  <score_type>  (40) 
oracle

>  <origin>  (40) 
adgpu

>  <m_score__min__energy>  (40) 
-13.050000000000001

>  <m_primary>  (40) 
energy

$$$$
40:0
     RDKit          3D

 46 48  0  0  0  0  0  0  0  0999 V2000
   -7.5434   19.1954  -30.7010 H   0  0  0  0  0  0  0  0  0  0  0  0
   -6.9020   19.0580  -31.5840 C   0  0  0  0  0  0  0  0  0  0  0  0
   -6.7400   17.7840  -32.1360 C   0  0  0  0  0  0  0  0  0  0  0  0
   -7.2395   16.9194  -31.6746 H   0  0  0  0  0  0  0  0  0  0  0  0
   -5.9430   17.6040  -33.2760 C   0  0  0  0  0  0  0  0  0  0  0  0
   -5.7170   15.9900  -33.9600 S   0  0  0  0  0  0  0  0  0  0  0  0
   -7.0080   15.5370  -34.5810 O   0  0  0  0  0  0  0  0  0  0  0  0
   -4.6770   16.0580  -35.0430 O   0  0  0  0  0  0  0  0  0  0  0  0
   -5.2180   14.8150  -32.7650 N   0  0  0  0  0  0  0  0  0  0  0  0
   -5.3790   13.4420  -33.2440 C   0  0  0  0  0  0  0  0  0  0  0  0
   -6.4045   13.0912  -33.0563 H   0  0  0  0  0  0  0  0  0  0  0  0
   -5.1996   13.3735  -34.3271 H   0  0  0  0  0  0  0  0  0  0  0  0
   -4.3830   12.5970  -32.4650 C   0  0  0  0  0  0  0  0  0  0  0  0
   -4.8852   12.0760  -31.6366 H   0  0  0  0  0  0  0  0  0  0  0  0
   -3.9214   11.8230  -33.0957 H   0  0  0  0  0  0  0  0  0  0  0  0
   -3.3520   13.5800  -31.9290 C   0  0  0  0  0  0  0  0  0  0  0  0
   -3.3316   13.5554  -30.8295 H   0  0  0  0  0  0  0  0  0  0  0  0
   -2.3358   13.3358  -32.2720 H   0  0  0  0  0  0  0  0  0  0  0  0
   -3.8040   14.9460  -32.4230 C   0  0  0  0  0  0  0  0  0  0  0  0
   -3.6723   15.6991  -31.6321 H   0  0  0  0  0  0  0  0  0  0  0  0
   -3.2126   15.2711  -33.2916 H   0  0  0  0  0  0  0  0  0  0  0  0
   -5.3410   18.7170  -33.8800 C   0  0  0  0  0  0  0  0  0  0  0  0
   -4.7411   18.5871  -34.7928 H   0  0  0  0  0  0  0  0  0  0  0  0
   -5.5000   19.9910  -33.3270 C   0  0  0  0  0  0  0  0  0  0  0  0
   -4.9250   21.0600  -33.9330 F   0  0  0  0  0  0  0  0  0  0  0  0
   -6.2510   20.1590  -32.1510 C   0  0  0  0  0  0  0  0  0  0  0  0
   -6.4490   21.4620  -31.5880 N   0  0  0  0  0  0  0  0  0  0  0  0
   -5.5840   22.2760  -31.0450 C   0  0  0  0  0  0  0  0  0  0  0  0
   -5.9970   23.5540  -30.8420 N   0  0  0  0  0  0  0  0  0  0  0  0
   -5.1850   24.5370  -30.3820 C   0  0  0  0  0  0  0  0  0  0  0  0
   -5.7360   25.9190  -30.2030 C   0  0  0  0  0  0  0  0  0  0  0  0
   -5.8249   26.1421  -29.1295 H   0  0  0  0  0  0  0  0  0  0  0  0
   -5.0595   26.6473  -30.6740 H   0  0  0  0  0  0  0  0  0  0  0  0
   -6.7280   25.9821  -30.6740 H   0  0  0  0  0  0  0  0  0  0  0  0
   -3.8370   24.2650  -30.1420 C   0  0  0  0  0  0  0  0  0  0  0  0
   -2.9890   25.2890  -29.7240 O   0  0  0  0  0  0  0  0  0  0  0  0
   -3.3500   22.9560  -30.3110 C   0  0  0  0  0  0  0  0  0  0  0  0
   -1.8910   22.6760  -30.0340 C   0  0  0  0  0  0  0  0  0  0  0  0
   -1.7237   22.6439  -28.9473 H   0  0  0  0  0  0  0  0  0  0  0  0
   -1.6129   21.7081  -30.4766 H   0  0  0  0  0  0  0  0  0  0  0  0
   -1.2744   23.4722  -30.4766 H   0  0  0  0  0  0  0  0  0  0  0  0
   -4.2510   21.9160  -30.6690 C   0  0  0  0  0  0  0  0  0  0  0  0
   -3.8090   20.4730  -30.5160 C   0  0  0  0  0  0  0  0  0  0  0  0
   -3.7328   20.2242  -29.4472 H   0  0  0  0  0  0  0  0  0  0  0  0
   -4.5456   19.8111  -30.9949 H   0  0  0  0  0  0  0  0  0  0  0  0
   -2.8281   20.3372  -30.9949 H   0  0  0  0  0  0  0  0  0  0  0  0
  1  2  1  0
  2  3  2  0
  3  4  1  0
  3  5  1  0
  5  6  1  0
  6  7  2  0
  6  8  2  0
  6  9  1  0
  9 10  1  0
 10 11  1  0
 10 12  1  0
 10 13  1  0
 13 14  1  0
 13 15  1  0
 13 16  1  0
 16 17  1  0
 16 18  1  0
 16 19  1  0
 19 20  1  0
 19 21  1  0
  5 22  2  0
 22 23  1  0
 22 24  1  0
 24 25  1  0
 24 26  2  0
 26 27  1  0
 27 28  2  0
 28 29  1  0
 29 30  1  0
 30 31  1  0
 31 32  1  0
 31 33  1  0
 31 34  1  0
 30 35  2  0
 35 36  1  0
 35 37  1  0
 37 38  1  0
 38 39  1  0
 38 40  1  0
 38 41  1  0
 37 42  2  0
 42 43  1  0
 43 44  1  0
 43 45  1  0
 43 46  1  0
 26  2  1  0
 42 28  1  0
 19  9  1  0
M  CHG  2  29  -1  36  -1
M  END
>  <UniqueID>  (41) 
37

>  <SMILES>  (41) 
Cc1[n-]/c(=N/c2ccc(S(=O)(=O)N3CCCC3)cc2F)c(C)c(C)c1[O-]

>  <Energy>  (41) 
68.72941789011553

>  <Genealogy>  (41) 
Cc1[n-]c(=Nc2ccc(S(=O)(=O)N3CCCC3)cc2F)c(C)c(C)c1[O-] (protonated)
Cc1[n-]/c(=N/c2ccc(S(=O)(=O)N3CCCC3)cc2F)c(C)c(C)c1[O-] (cis-trans isomerization)
Cc1[n-]/c(=N/c2ccc(S(=O)(=O)N3CCCC3)cc2F)c(C)c(C)c1[O-] (3D coordinates assigned)
Cc1[n-]/c(=N/c2ccc(S(=O)(=O)N3CCCC3)cc2F)c(C)c(C)c1[O-] (nonaromatic ring conformer: 68.72941789011553 kcal/mol)

>  <smiles>  (41) 
Cc1[nH]c(=Nc2ccc(S(=O)(=O)N3CCCC3)cc2F)c(C)c(C)c1O

>  <score_type>  (41) 
oracle

>  <origin>  (41) 
adgpu

>  <m_score__min__energy>  (41) 
-10.93

>  <m_primary>  (41) 
energy

$$$$
41:0
     RDKit          3D

 36 38  0  0  0  0  0  0  0  0999 V2000
   -3.6020   20.2680  -31.7750 N   0  0  0  0  0  0  0  0  0  0  0  0
   -3.6320   20.9610  -32.8770 C   0  0  0  0  0  0  0  0  0  0  0  0
   -2.6530   20.7420  -33.9060 N   0  0  0  0  0  0  0  0  0  0  0  0
   -1.3100   20.2880  -33.6640 C   0  0  0  0  0  0  0  0  0  0  0  0
   -0.2360   21.1980  -33.6760 C   0  0  0  0  0  0  0  0  0  0  0  0
    1.0720   20.7520  -33.4730 C   0  0  0  0  0  0  0  0  0  0  0  0
    1.3250   19.3940  -33.2680 C   0  0  0  0  0  0  0  0  0  0  0  0
    0.2700   18.4790  -33.2700 C   0  0  0  0  0  0  0  0  0  0  0  0
   -1.0450   18.9170  -33.4730 C   0  0  0  0  0  0  0  0  0  0  0  0
   -2.3420   17.7300  -33.4480 Cl  0  0  0  0  0  0  0  0  0  0  0  0
   -4.6510   21.9510  -33.0950 N   0  0  0  0  0  0  0  0  0  0  0  0
   -5.9360   21.9390  -32.4480 C   0  0  0  0  0  0  0  0  0  0  0  0
   -6.3950   23.0970  -31.7990 C   0  0  0  0  0  0  0  0  0  0  0  0
   -7.6130   23.0980  -31.1180 C   0  0  0  0  0  0  0  0  0  0  0  0
   -8.3900   21.9420  -31.0660 C   0  0  0  0  0  0  0  0  0  0  0  0
   -7.9540   20.7700  -31.7000 C   0  0  0  0  0  0  0  0  0  0  0  0
   -8.7400   19.6080  -31.6460 C   0  0  0  0  0  0  0  0  0  0  0  0
   -8.3150   18.4420  -32.2850 C   0  0  0  0  0  0  0  0  0  0  0  0
   -7.1090   18.4250  -32.9870 C   0  0  0  0  0  0  0  0  0  0  0  0
   -6.5920   16.9590  -33.8000 Cl  0  0  0  0  0  0  0  0  0  0  0  0
   -6.3140   19.5750  -33.0490 C   0  0  0  0  0  0  0  0  0  0  0  0
   -6.7180   20.7590  -32.3990 C   0  0  0  0  0  0  0  0  0  0  0  0
   -2.8990   19.5100  -31.6290 H   0  0  0  0  0  0  0  0  0  0  0  0
   -4.2800   20.4440  -31.0010 H   0  0  0  0  0  0  0  0  0  0  0  0
   -2.9260   20.9760  -34.8870 H   0  0  0  0  0  0  0  0  0  0  0  0
   -0.4282   22.2676  -33.8464 H   0  0  0  0  0  0  0  0  0  0  0  0
    1.9040   21.4715  -33.4746 H   0  0  0  0  0  0  0  0  0  0  0  0
    2.3554   19.0450  -33.1049 H   0  0  0  0  0  0  0  0  0  0  0  0
    0.4725   17.4095  -33.1115 H   0  0  0  0  0  0  0  0  0  0  0  0
   -4.4740   22.6770  -33.8250 H   0  0  0  0  0  0  0  0  0  0  0  0
   -5.7874   24.0135  -31.8279 H   0  0  0  0  0  0  0  0  0  0  0  0
   -7.9614   24.0149  -30.6201 H   0  0  0  0  0  0  0  0  0  0  0  0
   -9.3482   21.9493  -30.5259 H   0  0  0  0  0  0  0  0  0  0  0  0
   -9.6939   19.6164  -31.0983 H   0  0  0  0  0  0  0  0  0  0  0  0
   -8.9329   17.5333  -32.2350 H   0  0  0  0  0  0  0  0  0  0  0  0
   -5.3673   19.5550  -33.6088 H   0  0  0  0  0  0  0  0  0  0  0  0
  1  2  2  0
  2  3  1  0
  3  4  1  0
  4  5  2  0
  5  6  1  0
  6  7  2  0
  7  8  1  0
  8  9  2  0
  9 10  1  0
  2 11  1  0
 11 12  1  0
 12 13  2  0
 13 14  1  0
 14 15  2  0
 15 16  1  0
 16 17  2  0
 17 18  1  0
 18 19  2  0
 19 20  1  0
 19 21  1  0
 21 22  2  0
  9  4  1  0
 22 12  1  0
 22 16  1  0
  1 23  1  0
  1 24  1  0
  3 25  1  0
  5 26  1  0
  6 27  1  0
  7 28  1  0
  8 29  1  0
 11 30  1  0
 13 31  1  0
 14 32  1  0
 15 33  1  0
 17 34  1  0
 18 35  1  0
 21 36  1  0
M  CHG  1   1   1
M  END
>  <UniqueID>  (42) 
38

>  <SMILES>  (42) 
[NH2+]=C(Nc1ccccc1Cl)Nc1cccc2ccc(Cl)cc12

>  <Energy>  (42) 
53.695516621830755

>  <Genealogy>  (42) 
[NH2+]=C(Nc1ccccc1Cl)Nc1cccc2ccc(Cl)cc12 (protonated)
[NH2+]=C(Nc1ccccc1Cl)Nc1cccc2ccc(Cl)cc12 (3D coordinates assigned)
[NH2+]=C(Nc1ccccc1Cl)Nc1cccc2ccc(Cl)cc12 (optimized conformer: 53.695516621830755 kcal/mol)

>  <smiles>  (42) 
N=C(Nc1ccccc1Cl)Nc1cccc2ccc(Cl)cc12

>  <score_type>  (42) 
oracle

>  <origin>  (42) 
adgpu

>  <m_score__min__energy>  (42) 
-7.8600000000000003

>  <m_primary>  (42) 
energy

$$$$
42:0
     RDKit          3D

 57 60  0  0  0  0  0  0  0  0999 V2000
   -6.2910   20.0540  -34.2310 O   0  0  0  0  0  0  0  0  0  0  0  0
   -5.6800   20.2850  -33.1530 C   0  0  0  0  0  0  0  0  0  0  0  0
   -4.4260   19.6280  -32.9260 N   0  0  0  0  0  0  0  0  0  0  0  0
   -3.1660   20.2690  -32.6770 C   0  0  0  0  0  0  0  0  0  0  0  0
   -2.8780   20.8750  -31.4430 C   0  0  0  0  0  0  0  0  0  0  0  0
   -1.6430   21.4950  -31.2360 C   0  0  0  0  0  0  0  0  0  0  0  0
   -0.6910   21.5210  -32.2590 C   0  0  0  0  0  0  0  0  0  0  0  0
   -0.9750   20.9360  -33.4990 C   0  0  0  0  0  0  0  0  0  0  0  0
    0.2380   20.9630  -34.7760 S   0  0  0  0  0  0  0  0  0  0  0  0
   -0.4340   20.8800  -36.1190 O   0  0  0  0  0  0  0  0  0  0  0  0
    0.9990   22.2580  -34.6890 O   0  0  0  0  0  0  0  0  0  0  0  0
    1.3270   19.6090  -34.5660 N   0  0  0  0  0  0  0  0  0  0  0  0
    0.8760   18.4170  -35.3100 C   0  0  0  0  0  0  0  0  0  0  0  0
   -0.3180   17.7050  -34.6450 C   0  0  0  0  0  0  0  0  0  0  0  0
   -0.2390   17.6950  -33.1080 C   0  0  0  0  0  0  0  0  0  0  0  0
    1.1720   17.9990  -32.6110 C   0  0  0  0  0  0  0  0  0  0  0  0
    1.6460   19.3640  -33.1360 C   0  0  0  0  0  0  0  0  0  0  0  0
   -2.2200   20.3220  -33.7080 C   0  0  0  0  0  0  0  0  0  0  0  0
   -6.3050   21.1710  -32.1400 C   0  0  0  0  0  0  0  0  0  0  0  0
   -7.5920   20.9060  -31.6400 C   0  0  0  0  0  0  0  0  0  0  0  0
   -8.1660   21.7490  -30.6860 C   0  0  0  0  0  0  0  0  0  0  0  0
   -7.4740   22.8720  -30.2330 C   0  0  0  0  0  0  0  0  0  0  0  0
   -6.2030   23.1710  -30.7430 C   0  0  0  0  0  0  0  0  0  0  0  0
   -5.3470   24.6140  -30.1970 S   0  0  0  0  0  0  0  0  0  0  0  0
   -4.2950   24.9770  -31.2070 O   0  0  0  0  0  0  0  0  0  0  0  0
   -6.2980   25.7720  -30.0760 O   0  0  0  0  0  0  0  0  0  0  0  0
   -4.5430   24.3110  -28.6870 N   0  0  0  0  0  0  0  0  0  0  0  0
   -3.3600   23.5280  -28.4660 C   0  0  0  0  0  0  0  0  0  0  0  0
   -3.4030   22.2190  -27.9490 C   0  0  0  0  0  0  0  0  0  0  0  0
   -2.2180   21.4990  -27.7550 C   0  0  0  0  0  0  0  0  0  0  0  0
   -0.9850   22.0760  -28.0650 C   0  0  0  0  0  0  0  0  0  0  0  0
   -0.9340   23.3690  -28.5910 C   0  0  0  0  0  0  0  0  0  0  0  0
   -2.1150   24.0920  -28.7960 C   0  0  0  0  0  0  0  0  0  0  0  0
   -2.0500   25.3720  -29.3360 O   0  0  0  0  0  0  0  0  0  0  0  0
   -5.6240   22.3190  -31.6950 C   0  0  0  0  0  0  0  0  0  0  0  0
   -3.6268   20.8615  -30.6373 H   0  0  0  0  0  0  0  0  0  0  0  0
   -1.4196   21.9635  -30.2661 H   0  0  0  0  0  0  0  0  0  0  0  0
    0.2836   22.0021  -32.0896 H   0  0  0  0  0  0  0  0  0  0  0  0
    0.5785   18.7280  -36.3223 H   0  0  0  0  0  0  0  0  0  0  0  0
    1.7142   17.7048  -35.3275 H   0  0  0  0  0  0  0  0  0  0  0  0
   -1.2428   18.2200  -34.9441 H   0  0  0  0  0  0  0  0  0  0  0  0
   -0.3014   16.6573  -34.9798 H   0  0  0  0  0  0  0  0  0  0  0  0
   -0.9278   18.4552  -32.7111 H   0  0  0  0  0  0  0  0  0  0  0  0
   -0.5157   16.6896  -32.7579 H   0  0  0  0  0  0  0  0  0  0  0  0
    1.1728   18.0142  -31.5111 H   0  0  0  0  0  0  0  0  0  0  0  0
    1.8546   17.2195  -32.9803 H   0  0  0  0  0  0  0  0  0  0  0  0
    1.1658   20.1506  -32.5355 H   0  0  0  0  0  0  0  0  0  0  0  0
    2.7426   19.3730  -33.0501 H   0  0  0  0  0  0  0  0  0  0  0  0
   -2.4538   19.8798  -34.6877 H   0  0  0  0  0  0  0  0  0  0  0  0
   -8.1499   20.0299  -32.0022 H   0  0  0  0  0  0  0  0  0  0  0  0
   -9.1679   21.5264  -30.2903 H   0  0  0  0  0  0  0  0  0  0  0  0
   -7.9272   23.5253  -29.4729 H   0  0  0  0  0  0  0  0  0  0  0  0
   -4.3706   21.7606  -27.6967 H   0  0  0  0  0  0  0  0  0  0  0  0
   -2.2586   20.4745  -27.3567 H   0  0  0  0  0  0  0  0  0  0  0  0
   -0.0552   21.5133  -27.8953 H   0  0  0  0  0  0  0  0  0  0  0  0
    0.0366   23.8202  -28.8448 H   0  0  0  0  0  0  0  0  0  0  0  0
   -4.6270   22.5508  -32.0979 H   0  0  0  0  0  0  0  0  0  0  0  0
  1  2  2  0
  2  3  1  0
  3  4  1  0
  4  5  2  0
  5  6  1  0
  6  7  2  0
  7  8  1  0
  8  9  1  0
  9 10  2  0
  9 11  2  0
  9 12  1  0
 12 13  1  0
 13 14  1  0
 14 15  1  0
 15 16  1  0
 16 17  1  0
  8 18  2  0
  2 19  1  0
 19 20  2  0
 20 21  1  0
 21 22  2  0
 22 23  1  0
 23 24  1  0
 24 25  2  0
 24 26  2  0
 24 27  1  0
 27 28  1  0
 28 29  2  0
 29 30  1  0
 30 31  2  0
 31 32  1  0
 32 33  2  0
 33 34  1  0
 23 35  2  0
 18  4  1  0
 35 19  1  0
 17 12  1  0
 33 28  1  0
  5 36  1  0
  6 37  1  0
  7 38  1  0
 13 39  1  0
 13 40  1  0
 14 41  1  0
 14 42  1  0
 15 43  1  0
 15 44  1  0
 16 45  1  0
 16 46  1  0
 17 47  1  0
 17 48  1  0
 18 49  1  0
 20 50  1  0
 21 51  1  0
 22 52  1  0
 29 53  1  0
 30 54  1  0
 31 55  1  0
 32 56  1  0
 35 57  1  0
M  CHG  3   3  -1  27  -1  34  -1
M  END
>  <UniqueID>  (43) 
39

>  <SMILES>  (43) 
O=C([N-]c1cccc(S(=O)(=O)N2CCCCC2)c1)c1cccc(S(=O)(=O)[N-]c2ccccc2[O-])c1

>  <Energy>  (43) 
79.85240989138694

>  <Genealogy>  (43) 
O=C([N-]c1cccc(S(=O)(=O)N2CCCCC2)c1)c1cccc(S(=O)(=O)[N-]c2ccccc2[O-])c1 (protonated)
O=C([N-]c1cccc(S(=O)(=O)N2CCCCC2)c1)c1cccc(S(=O)(=O)[N-]c2ccccc2[O-])c1 (3D coordinates assigned)
O=C([N-]c1cccc(S(=O)(=O)N2CCCCC2)c1)c1cccc(S(=O)(=O)[N-]c2ccccc2[O-])c1 (nonaromatic ring conformer: 79.85240989138694 kcal/mol)

>  <smiles>  (43) 
O=C(Nc1cccc(S(=O)(=O)N2CCCCC2)c1)c1cccc(S(=O)(=O)Nc2ccccc2O)c1

>  <score_type>  (43) 
oracle

>  <origin>  (43) 
adgpu

>  <m_score__min__energy>  (43) 
-14.390000000000001

>  <m_primary>  (43) 
energy

$$$$
43:0
     RDKit          3D

 53 56  0  0  0  0  0  0  0  0999 V2000
   -6.2710   22.8240  -32.3070 C   0  0  0  0  0  0  0  0  0  0  0  0
   -7.3780   21.8050  -32.2670 C   0  0  0  0  0  0  0  0  0  0  0  0
   -8.5960   22.1460  -31.6510 C   0  0  0  0  0  0  0  0  0  0  0  0
   -9.6290   21.2110  -31.5590 C   0  0  0  0  0  0  0  0  0  0  0  0
   -9.4620   19.9280  -32.0800 C   0  0  0  0  0  0  0  0  0  0  0  0
   -8.2670   19.5810  -32.7130 C   0  0  0  0  0  0  0  0  0  0  0  0
   -7.2300   20.5180  -32.8390 C   0  0  0  0  0  0  0  0  0  0  0  0
   -6.0240   20.1280  -33.5100 N   0  0  0  0  0  0  0  0  0  0  0  0
   -5.4030   18.8520  -33.2990 C   0  0  0  0  0  0  0  0  0  0  0  0
   -5.8460   18.0630  -32.4210 O   0  0  0  0  0  0  0  0  0  0  0  0
   -4.2260   18.4530  -34.1270 C   0  0  0  0  0  0  0  0  0  0  0  0
   -3.2820   19.5200  -34.1400 O   0  0  0  0  0  0  0  0  0  0  0  0
   -2.9930   20.3360  -33.0380 C   0  0  0  0  0  0  0  0  0  0  0  0
   -2.2310   19.8890  -31.9430 C   0  0  0  0  0  0  0  0  0  0  0  0
   -1.9700   20.7430  -30.8680 C   0  0  0  0  0  0  0  0  0  0  0  0
   -2.4630   22.0600  -30.8630 C   0  0  0  0  0  0  0  0  0  0  0  0
   -2.1860   22.9670  -29.7200 C   0  0  0  0  0  0  0  0  0  0  0  0
   -3.1410   23.4530  -28.8220 C   0  0  0  0  0  0  0  0  0  0  0  0
   -2.4280   24.2450  -27.9410 C   0  0  0  0  0  0  0  0  0  0  0  0
   -1.1260   24.2100  -28.3180 C   0  0  0  0  0  0  0  0  0  0  0  0
   -0.9520   23.4360  -29.4030 N   0  0  0  0  0  0  0  0  0  0  0  0
   -0.1690   24.9050  -27.5960 C   0  0  0  0  0  0  0  0  0  0  0  0
    1.0430   24.8560  -27.9400 O   0  0  0  0  0  0  0  0  0  0  0  0
   -0.5760   25.6320  -26.5010 N   0  0  0  0  0  0  0  0  0  0  0  0
    0.4180   26.3520  -25.6870 C   0  0  0  0  0  0  0  0  0  0  0  0
   -1.9070   25.6250  -26.1140 C   0  0  0  0  0  0  0  0  0  0  0  0
   -2.2570   26.2430  -25.0690 O   0  0  0  0  0  0  0  0  0  0  0  0
   -2.8540   24.9480  -26.8550 N   0  0  0  0  0  0  0  0  0  0  0  0
   -4.2710   24.9190  -26.4650 C   0  0  0  0  0  0  0  0  0  0  0  0
   -3.2260   22.5010  -31.9600 C   0  0  0  0  0  0  0  0  0  0  0  0
   -3.4840   21.6460  -33.0350 C   0  0  0  0  0  0  0  0  0  0  0  0
   -5.9810   23.0909  -31.2800 H   0  0  0  0  0  0  0  0  0  0  0  0
   -5.4032   22.4021  -32.8351 H   0  0  0  0  0  0  0  0  0  0  0  0
   -6.6197   23.7237  -32.8351 H   0  0  0  0  0  0  0  0  0  0  0  0
   -8.7355   23.1563  -31.2389 H   0  0  0  0  0  0  0  0  0  0  0  0
  -10.5771   21.4870  -31.0743 H   0  0  0  0  0  0  0  0  0  0  0  0
  -10.2722   19.1892  -31.9921 H   0  0  0  0  0  0  0  0  0  0  0  0
   -8.1374   18.5657  -33.1159 H   0  0  0  0  0  0  0  0  0  0  0  0
   -5.4920   20.8580  -34.0360 H   0  0  0  0  0  0  0  0  0  0  0  0
   -3.7603   17.5544  -33.6963 H   0  0  0  0  0  0  0  0  0  0  0  0
   -4.5526   18.2346  -35.1544 H   0  0  0  0  0  0  0  0  0  0  0  0
   -1.8384   18.8615  -31.9330 H   0  0  0  0  0  0  0  0  0  0  0  0
   -1.3732   20.3815  -30.0176 H   0  0  0  0  0  0  0  0  0  0  0  0
   -4.2221   23.2499  -28.8174 H   0  0  0  0  0  0  0  0  0  0  0  0
   -0.0520   23.2570  -29.8990 H   0  0  0  0  0  0  0  0  0  0  0  0
    0.2013   26.1950  -24.6201 H   0  0  0  0  0  0  0  0  0  0  0  0
    1.4245   25.9720  -25.9165 H   0  0  0  0  0  0  0  0  0  0  0  0
    0.3707   27.4268  -25.9165 H   0  0  0  0  0  0  0  0  0  0  0  0
   -4.3494   24.9174  -25.3678 H   0  0  0  0  0  0  0  0  0  0  0  0
   -4.7804   25.8069  -26.8677 H   0  0  0  0  0  0  0  0  0  0  0  0
   -4.7436   24.0110  -26.8677 H   0  0  0  0  0  0  0  0  0  0  0  0
   -3.6226   23.5270  -31.9715 H   0  0  0  0  0  0  0  0  0  0  0  0
   -4.0789   22.0066  -33.8871 H   0  0  0  0  0  0  0  0  0  0  0  0
  1  2  1  0
  2  3  2  0
  3  4  1  0
  4  5  2  0
  5  6  1  0
  6  7  2  0
  7  8  1  0
  8  9  1  0
  9 10  2  0
  9 11  1  0
 11 12  1  0
 12 13  1  0
 13 14  2  0
 14 15  1  0
 15 16  2  0
 16 17  1  0
 17 18  2  0
 18 19  1  0
 19 20  2  0
 20 21  1  0
 20 22  1  0
 22 23  2  0
 22 24  1  0
 24 25  1  0
 24 26  1  0
 26 27  2  0
 26 28  1  0
 28 29  1  0
 16 30  1  0
 30 31  2  0
  7  2  1  0
 31 13  1  0
 21 17  1  0
 28 19  1  0
  1 32  1  0
  1 33  1  0
  1 34  1  0
  3 35  1  0
  4 36  1  0
  5 37  1  0
  6 38  1  0
  8 39  1  0
 11 40  1  0
 11 41  1  0
 14 42  1  0
 15 43  1  0
 18 44  1  0
 21 45  1  0
 25 46  1  0
 25 47  1  0
 25 48  1  0
 29 49  1  0
 29 50  1  0
 29 51  1  0
 30 52  1  0
 31 53  1  0
M  END
>  <UniqueID>  (44) 
40

>  <SMILES>  (44) 
Cc1ccccc1NC(=O)COc1ccc(-c2cc3c([nH]2)c(=O)n(C)c(=O)n3C)cc1

>  <Energy>  (44) 
104.72753697171748

>  <Genealogy>  (44) 
Cc1ccccc1NC(=O)COc1ccc(-c2cc3c([nH]2)c(=O)n(C)c(=O)n3C)cc1 (3D coordinates assigned)
Cc1ccccc1NC(=O)COc1ccc(-c2cc3c([nH]2)c(=O)n(C)c(=O)n3C)cc1 (optimized conformer: 104.72753697171748 kcal/mol)

>  <smiles>  (44) 
Cc1ccccc1NC(=O)COc1ccc(-c2cc3c([nH]2)c(=O)n(C)c(=O)n3C)cc1

>  <score_type>  (44) 
oracle

>  <origin>  (44) 
adgpu

>  <m_score__min__energy>  (44) 
-9.1199999999999992

>  <m_primary>  (44) 
energy

$$$$
44:0
     RDKit          3D

 58 61  0  0  0  0  0  0  0  0999 V2000
   -1.3940   21.6400  -26.6540 C   0  0  0  0  0  0  0  0  0  0  0  0
   -2.0030   22.6220  -27.6220 C   0  0  0  0  0  0  0  0  0  0  0  0
   -3.1310   22.2190  -28.3540 C   0  0  0  0  0  0  0  0  0  0  0  0
   -3.7350   23.0790  -29.2670 C   0  0  0  0  0  0  0  0  0  0  0  0
   -3.2110   24.3590  -29.4870 C   0  0  0  0  0  0  0  0  0  0  0  0
   -3.8290   25.2830  -30.3970 N   0  0  0  0  0  0  0  0  0  0  0  0
   -5.2030   25.3040  -30.8090 C   0  0  0  0  0  0  0  0  0  0  0  0
   -6.0650   25.9160  -30.1270 O   0  0  0  0  0  0  0  0  0  0  0  0
   -5.6300   24.5390  -31.9400 N   0  0  0  0  0  0  0  0  0  0  0  0
   -6.0340   23.1630  -31.9200 C   0  0  0  0  0  0  0  0  0  0  0  0
   -5.0530   22.1680  -32.0210 C   0  0  0  0  0  0  0  0  0  0  0  0
   -5.4100   20.8160  -31.9990 C   0  0  0  0  0  0  0  0  0  0  0  0
   -6.7540   20.4450  -31.8620 C   0  0  0  0  0  0  0  0  0  0  0  0
   -7.2140   18.7450  -31.8610 S   0  0  0  0  0  0  0  0  0  0  0  0
   -6.4380   18.0090  -30.8020 O   0  0  0  0  0  0  0  0  0  0  0  0
   -8.6830   18.6410  -31.5610 O   0  0  0  0  0  0  0  0  0  0  0  0
   -6.8760   18.0410  -33.4240 N   0  0  0  0  0  0  0  0  0  0  0  0
   -6.1030   18.9750  -34.2740 C   0  0  0  0  0  0  0  0  0  0  0  0
   -4.6390   18.5320  -34.4480 C   0  0  0  0  0  0  0  0  0  0  0  0
   -4.5190   17.2340  -35.0110 O   0  0  0  0  0  0  0  0  0  0  0  0
   -5.5050   16.3160  -34.5510 C   0  0  0  0  0  0  0  0  0  0  0  0
   -6.2150   16.7350  -33.2530 C   0  0  0  0  0  0  0  0  0  0  0  0
   -7.7330   21.4340  -31.7190 C   0  0  0  0  0  0  0  0  0  0  0  0
   -7.3780   22.7870  -31.7430 C   0  0  0  0  0  0  0  0  0  0  0  0
   -2.0920   24.7810  -28.7580 C   0  0  0  0  0  0  0  0  0  0  0  0
   -1.6140   26.0720  -28.9620 O   0  0  0  0  0  0  0  0  0  0  0  0
   -1.4580   23.9170  -27.8370 C   0  0  0  0  0  0  0  0  0  0  0  0
   -0.0290   24.4860  -26.9370 S   0  0  0  0  0  0  0  0  0  0  0  0
    1.1520   24.6280  -27.8580 O   0  0  0  0  0  0  0  0  0  0  0  0
    0.3440   23.4960  -25.8700 O   0  0  0  0  0  0  0  0  0  0  0  0
   -0.3970   26.0710  -26.1750 C   0  0  0  0  0  0  0  0  0  0  0  0
    0.3640   26.3130  -24.8750 C   0  0  0  0  0  0  0  0  0  0  0  0
   -0.9520   26.3160  -24.1100 C   0  0  0  0  0  0  0  0  0  0  0  0
   -1.7130   26.0770  -25.4060 C   0  0  0  0  0  0  0  0  0  0  0  0
   -1.5969   21.9671  -25.6235 H   0  0  0  0  0  0  0  0  0  0  0  0
   -1.8336   20.6448  -26.8160 H   0  0  0  0  0  0  0  0  0  0  0  0
   -0.3071   21.5915  -26.8160 H   0  0  0  0  0  0  0  0  0  0  0  0
   -3.5431   21.2102  -28.2042 H   0  0  0  0  0  0  0  0  0  0  0  0
   -4.6286   22.7514  -29.8186 H   0  0  0  0  0  0  0  0  0  0  0  0
   -3.9948   22.4521  -32.1183 H   0  0  0  0  0  0  0  0  0  0  0  0
   -4.6336   20.0420  -32.0895 H   0  0  0  0  0  0  0  0  0  0  0  0
   -6.5772   19.0261  -35.2652 H   0  0  0  0  0  0  0  0  0  0  0  0
   -6.1006   19.9571  -33.7785 H   0  0  0  0  0  0  0  0  0  0  0  0
   -4.1310   19.2498  -35.1088 H   0  0  0  0  0  0  0  0  0  0  0  0
   -4.1814   18.5024  -33.4481 H   0  0  0  0  0  0  0  0  0  0  0  0
   -6.2656   16.2068  -35.3381 H   0  0  0  0  0  0  0  0  0  0  0  0
   -4.9766   15.3774  -34.3278 H   0  0  0  0  0  0  0  0  0  0  0  0
   -6.9701   15.9785  -32.9931 H   0  0  0  0  0  0  0  0  0  0  0  0
   -5.4680   16.8171  -32.4498 H   0  0  0  0  0  0  0  0  0  0  0  0
   -8.7866   21.1466  -31.5871 H   0  0  0  0  0  0  0  0  0  0  0  0
   -8.1522   23.5592  -31.6231 H   0  0  0  0  0  0  0  0  0  0  0  0
   -0.2491   26.7369  -27.0379 H   0  0  0  0  0  0  0  0  0  0  0  0
    1.0455   25.4965  -24.5942 H   0  0  0  0  0  0  0  0  0  0  0  0
    1.0630   27.1578  -24.7864 H   0  0  0  0  0  0  0  0  0  0  0  0
   -1.0466   25.5006  -23.3778 H   0  0  0  0  0  0  0  0  0  0  0  0
   -1.2144   27.1645  -23.4611 H   0  0  0  0  0  0  0  0  0  0  0  0
   -2.2567   25.1213  -25.4382 H   0  0  0  0  0  0  0  0  0  0  0  0
   -2.5302   26.7499  -25.7048 H   0  0  0  0  0  0  0  0  0  0  0  0
  1  2  1  0
  2  3  2  0
  3  4  1  0
  4  5  2  0
  5  6  1  0
  6  7  1  0
  7  8  2  0
  7  9  1  0
  9 10  1  0
 10 11  2  0
 11 12  1  0
 12 13  2  0
 13 14  1  0
 14 15  2  0
 14 16  2  0
 14 17  1  0
 17 18  1  0
 18 19  1  0
 19 20  1  0
 20 21  1  0
 21 22  1  0
 13 23  1  0
 23 24  2  0
  5 25  1  0
 25 26  1  0
 25 27  2  0
 27 28  1  0
 28 29  2  0
 28 30  2  0
 28 31  1  0
 31 32  1  0
 32 33  1  0
 33 34  1  0
 27  2  1  0
 34 31  1  0
 24 10  1  0
 22 17  1  0
  1 35  1  0
  1 36  1  0
  1 37  1  0
  3 38  1  0
  4 39  1  0
 11 40  1  0
 12 41  1  0
 18 42  1  0
 18 43  1  0
 19 44  1  0
 19 45  1  0
 21 46  1  0
 21 47  1  0
 22 48  1  0
 22 49  1  0
 23 50  1  0
 24 51  1  0
 31 52  1  0
 32 53  1  0
 32 54  1  0
 33 55  1  0
 33 56  1  0
 34 57  1  0
 34 58  1  0
M  CHG  3   6  -1   9  -1  26  -1
M  END
>  <UniqueID>  (45) 
41

>  <SMILES>  (45) 
Cc1ccc([N-]C(=O)[N-]c2ccc(S(=O)(=O)N3CCOCC3)cc2)c([O-])c1S(=O)(=O)C1CCC1

>  <Energy>  (45) 
139.81669727323344

>  <Genealogy>  (45) 
Cc1ccc([N-]C(=O)[N-]c2ccc(S(=O)(=O)N3CCOCC3)cc2)c([O-])c1S(=O)(=O)C1CCC1 (protonated)
Cc1ccc([N-]C(=O)[N-]c2ccc(S(=O)(=O)N3CCOCC3)cc2)c([O-])c1S(=O)(=O)C1CCC1 (3D coordinates assigned)
Cc1ccc([N-]C(=O)[N-]c2ccc(S(=O)(=O)N3CCOCC3)cc2)c([O-])c1S(=O)(=O)C1CCC1 (nonaromatic ring conformer: 139.81669727323344 kcal/mol)

>  <smiles>  (45) 
Cc1ccc(NC(=O)Nc2ccc(S(=O)(=O)N3CCOCC3)cc2)c(O)c1S(=O)(=O)C1CCC1

>  <score_type>  (45) 
oracle

>  <origin>  (45) 
adgpu

>  <m_score__min__energy>  (45) 
-16.989999999999998

>  <m_primary>  (45) 
energy

$$$$
45:0
     RDKit          3D

 40 42  0  0  0  0  0  0  0  0999 V2000
   -3.5070   25.1860  -30.6400 N   0  0  0  0  0  0  0  0  0  0  0  0
   -5.1470   24.6990  -30.3950 S   0  0  0  0  0  0  0  0  0  0  0  0
   -6.0630   25.6390  -31.1250 O   0  0  0  0  0  0  0  0  0  0  0  0
   -5.4500   24.7500  -28.9230 O   0  0  0  0  0  0  0  0  0  0  0  0
   -5.3830   23.0630  -31.0000 C   0  0  0  0  0  0  0  0  0  0  0  0
   -4.2850   22.2960  -31.4150 C   0  0  0  0  0  0  0  0  0  0  0  0
   -4.4750   20.9940  -31.8880 C   0  0  0  0  0  0  0  0  0  0  0  0
   -5.7660   20.4430  -31.9510 C   0  0  0  0  0  0  0  0  0  0  0  0
   -5.9590   19.0960  -32.4290 N   0  0  0  0  0  0  0  0  0  0  0  0
   -5.8920   18.0620  -31.5370 C   0  0  0  0  0  0  0  0  0  0  0  0
   -6.0830   16.7440  -31.9550 C   0  0  0  0  0  0  0  0  0  0  0  0
   -6.3490   16.4750  -33.3050 C   0  0  0  0  0  0  0  0  0  0  0  0
   -6.5590   15.1760  -33.7960 O   0  0  0  0  0  0  0  0  0  0  0  0
   -5.5290   14.2480  -34.1410 C   0  0  0  0  0  0  0  0  0  0  0  0
   -4.1810   14.9060  -34.0960 C   0  0  0  0  0  0  0  0  0  0  0  0
   -3.2930   14.6430  -33.0430 C   0  0  0  0  0  0  0  0  0  0  0  0
   -2.0450   15.2680  -33.0280 C   0  0  0  0  0  0  0  0  0  0  0  0
   -1.6900   16.1420  -34.0590 C   0  0  0  0  0  0  0  0  0  0  0  0
   -0.4450   16.7660  -34.0420 O   0  0  0  0  0  0  0  0  0  0  0  0
   -2.5990   16.3750  -35.0980 C   0  0  0  0  0  0  0  0  0  0  0  0
   -3.8110   15.7560  -35.0930 N   0  0  0  0  0  0  0  0  0  0  0  0
   -6.4030   17.5390  -34.2070 C   0  0  0  0  0  0  0  0  0  0  0  0
   -6.2030   18.8490  -33.7580 C   0  0  0  0  0  0  0  0  0  0  0  0
   -6.2380   19.7930  -34.5940 O   0  0  0  0  0  0  0  0  0  0  0  0
   -6.8620   21.2100  -31.5220 C   0  0  0  0  0  0  0  0  0  0  0  0
   -6.6700   22.5120  -31.0500 C   0  0  0  0  0  0  0  0  0  0  0  0
   -3.5310   26.0770  -31.1860 H   0  0  0  0  0  0  0  0  0  0  0  0
   -3.2710   22.7199  -31.3683 H   0  0  0  0  0  0  0  0  0  0  0  0
   -3.6093   20.3980  -32.2125 H   0  0  0  0  0  0  0  0  0  0  0  0
   -5.6851   18.2713  -30.4771 H   0  0  0  0  0  0  0  0  0  0  0  0
   -6.0251   15.9201  -31.2285 H   0  0  0  0  0  0  0  0  0  0  0  0
   -5.5452   13.4102  -33.4284 H   0  0  0  0  0  0  0  0  0  0  0  0
   -5.7099   13.8850  -35.1635 H   0  0  0  0  0  0  0  0  0  0  0  0
   -3.5772   13.9509  -32.2367 H   0  0  0  0  0  0  0  0  0  0  0  0
   -1.3415   15.0727  -32.2053 H   0  0  0  0  0  0  0  0  0  0  0  0
    0.4150   16.2310  -34.0230 H   0  0  0  0  0  0  0  0  0  0  0  0
   -2.3336   17.0582  -35.9182 H   0  0  0  0  0  0  0  0  0  0  0  0
   -6.6029   17.3474  -35.2716 H   0  0  0  0  0  0  0  0  0  0  0  0
   -7.8757   20.7844  -31.5576 H   0  0  0  0  0  0  0  0  0  0  0  0
   -7.5334   23.1064  -30.7164 H   0  0  0  0  0  0  0  0  0  0  0  0
  1  2  1  0
  2  3  2  0
  2  4  2  0
  2  5  1  0
  5  6  2  0
  6  7  1  0
  7  8  2  0
  8  9  1  0
  9 10  1  0
 10 11  2  0
 11 12  1  0
 12 13  1  0
 13 14  1  0
 14 15  1  0
 15 16  2  0
 16 17  1  0
 17 18  2  0
 18 19  1  0
 18 20  1  0
 20 21  2  0
 12 22  2  0
 22 23  1  0
 23 24  2  0
  8 25  1  0
 25 26  2  0
 26  5  1  0
 23  9  1  0
 21 15  1  0
  1 27  1  0
  6 28  1  0
  7 29  1  0
 10 30  1  0
 11 31  1  0
 14 32  1  0
 14 33  1  0
 16 34  1  0
 17 35  1  0
 19 36  1  0
 20 37  1  0
 22 38  1  0
 25 39  1  0
 26 40  1  0
M  CHG  1   1  -1
M  END
>  <UniqueID>  (46) 
42

>  <SMILES>  (46) 
[NH-]S(=O)(=O)c1ccc(-n2ccc(OCc3ccc(O)cn3)cc2=O)cc1

>  <Energy>  (46) 
51.1037921775916

>  <Genealogy>  (46) 
[NH-]S(=O)(=O)c1ccc(-n2ccc(OCc3ccc(O)cn3)cc2=O)cc1 (protonated)
[NH-]S(=O)(=O)c1ccc(-n2ccc(OCc3ccc(O)cn3)cc2=O)cc1 (3D coordinates assigned)
[NH-]S(=O)(=O)c1ccc(-n2ccc(OCc3ccc(O)cn3)cc2=O)cc1 (optimized conformer: 51.1037921775916 kcal/mol)

>  <smiles>  (46) 
NS(=O)(=O)c1ccc(-n2ccc(OCc3ccc(O)cn3)cc2=O)cc1

>  <score_type>  (46) 
oracle

>  <origin>  (46) 
adgpu

>  <m_score__min__energy>  (46) 
-9.3100000000000005

>  <m_primary>  (46) 
energy

$$$$
46:0
     RDKit          3D

 40 41  0  0  0  0  0  0  0  0999 V2000
   -3.5670   21.8720  -33.4600 C   0  0  0  0  0  0  0  0  0  0  0  0
   -4.3960   21.6310  -32.4410 C   0  0  0  0  0  0  0  0  0  0  0  0
   -3.9020   21.6240  -31.0210 C   0  0  0  0  0  0  0  0  0  0  0  0
   -4.7050   22.5230  -30.1940 N   0  0  0  0  0  0  0  0  0  0  0  0
   -4.4280   23.9290  -30.1160 C   0  0  0  0  0  0  0  0  0  0  0  0
   -3.5190   24.4410  -30.8230 O   0  0  0  0  0  0  0  0  0  0  0  0
   -5.1870   24.7880  -29.1500 C   0  0  0  0  0  0  0  0  0  0  0  0
   -6.7710   25.3460  -29.8670 S   0  0  0  0  0  0  0  0  0  0  0  0
   -7.2270   23.7390  -30.5110 C   0  0  0  0  0  0  0  0  0  0  0  0
   -7.5270   22.6800  -29.7270 N   0  0  0  0  0  0  0  0  0  0  0  0
   -7.7800   21.5700  -30.4200 N   0  0  0  0  0  0  0  0  0  0  0  0
   -7.6860   21.7420  -31.7570 C   0  0  0  0  0  0  0  0  0  0  0  0
   -7.8690   20.6350  -32.7410 C   0  0  0  0  0  0  0  0  0  0  0  0
   -8.1980   19.0650  -31.8720 S   0  0  0  0  0  0  0  0  0  0  0  0
   -6.9810   18.1260  -32.7900 C   0  0  0  0  0  0  0  0  0  0  0  0
   -5.7890   18.6890  -33.1140 N   0  0  0  0  0  0  0  0  0  0  0  0
   -4.8430   17.9890  -33.7940 C   0  0  0  0  0  0  0  0  0  0  0  0
   -3.5460   18.6440  -34.1520 C   0  0  0  0  0  0  0  0  0  0  0  0
   -5.1060   16.6740  -34.1880 C   0  0  0  0  0  0  0  0  0  0  0  0
   -6.3380   16.1060  -33.8420 C   0  0  0  0  0  0  0  0  0  0  0  0
   -6.6530   14.6950  -34.2240 C   0  0  0  0  0  0  0  0  0  0  0  0
   -7.2450   16.8410  -33.1460 N   0  0  0  0  0  0  0  0  0  0  0  0
   -7.2680   23.3310  -32.1450 S   0  0  0  0  0  0  0  0  0  0  0  0
   -3.9490   21.8725  -34.4915 H   0  0  0  0  0  0  0  0  0  0  0  0
   -2.5022   22.0700  -33.2677 H   0  0  0  0  0  0  0  0  0  0  0  0
   -5.4590   21.4342  -32.6442 H   0  0  0  0  0  0  0  0  0  0  0  0
   -3.9723   20.6027  -30.6185 H   0  0  0  0  0  0  0  0  0  0  0  0
   -2.8568   21.9667  -31.0067 H   0  0  0  0  0  0  0  0  0  0  0  0
   -5.4500   22.1300  -29.5780 H   0  0  0  0  0  0  0  0  0  0  0  0
   -5.3905   24.2084  -28.2375 H   0  0  0  0  0  0  0  0  0  0  0  0
   -4.5778   25.6742  -28.9185 H   0  0  0  0  0  0  0  0  0  0  0  0
   -8.7185   20.8708  -33.3989 H   0  0  0  0  0  0  0  0  0  0  0  0
   -6.9500   20.5292  -33.3363 H   0  0  0  0  0  0  0  0  0  0  0  0
   -3.0067   18.9163  -33.2327 H   0  0  0  0  0  0  0  0  0  0  0  0
   -2.9341   17.9469  -34.7432 H   0  0  0  0  0  0  0  0  0  0  0  0
   -3.7438   19.5503  -34.7432 H   0  0  0  0  0  0  0  0  0  0  0  0
   -4.3615   16.0981  -34.7573 H   0  0  0  0  0  0  0  0  0  0  0  0
   -6.7880   14.0905  -33.3150 H   0  0  0  0  0  0  0  0  0  0  0  0
   -7.5779   14.6740  -34.8190 H   0  0  0  0  0  0  0  0  0  0  0  0
   -5.8248   14.2826  -34.8190 H   0  0  0  0  0  0  0  0  0  0  0  0
  1  2  2  0
  2  3  1  0
  3  4  1  0
  4  5  1  0
  5  6  2  0
  5  7  1  0
  7  8  1  0
  8  9  1  0
  9 10  2  0
 10 11  1  0
 11 12  2  0
 12 13  1  0
 13 14  1  0
 14 15  1  0
 15 16  2  0
 16 17  1  0
 17 18  1  0
 17 19  2  0
 19 20  1  0
 20 21  1  0
 20 22  2  0
 12 23  1  0
 23  9  1  0
 22 15  1  0
  1 24  1  0
  1 25  1  0
  2 26  1  0
  3 27  1  0
  3 28  1  0
  4 29  1  0
  7 30  1  0
  7 31  1  0
 13 32  1  0
 13 33  1  0
 18 34  1  0
 18 35  1  0
 18 36  1  0
 19 37  1  0
 21 38  1  0
 21 39  1  0
 21 40  1  0
M  END
>  <UniqueID>  (47) 
43

>  <SMILES>  (47) 
C=CCNC(=O)CSc1nnc(CSc2nc(C)cc(C)n2)s1

>  <Energy>  (47) 
52.47152441193362

>  <Genealogy>  (47) 
C=CCNC(=O)CSc1nnc(CSc2nc(C)cc(C)n2)s1 (3D coordinates assigned)
C=CCNC(=O)CSc1nnc(CSc2nc(C)cc(C)n2)s1 (optimized conformer: 52.47152441193362 kcal/mol)

>  <smiles>  (47) 
C=CCNC(=O)CSc1nnc(CSc2nc(C)cc(C)n2)s1

>  <score_type>  (47) 
oracle

>  <origin>  (47) 
adgpu

>  <m_score__min__energy>  (47) 
-8.0899999999999999

>  <m_primary>  (47) 
energy

$$$$
47:0
     RDKit          3D

 61 64  0  0  0  0  0  0  0  0999 V2000
   -2.8310   22.3940  -27.2250 O   0  0  0  0  0  0  0  0  0  0  0  0
   -3.1880   23.0490  -28.5320 S   0  0  0  0  0  0  0  0  0  0  0  0
   -2.5520   24.4110  -28.5600 O   0  0  0  0  0  0  0  0  0  0  0  0
   -4.9080   23.2370  -28.6730 N   0  0  0  0  0  0  0  0  0  0  0  0
   -5.6390   23.3280  -29.9040 C   0  0  0  0  0  0  0  0  0  0  0  0
   -6.6210   22.3840  -30.2520 C   0  0  0  0  0  0  0  0  0  0  0  0
   -7.3470   22.5190  -31.4420 C   0  0  0  0  0  0  0  0  0  0  0  0
   -8.6820   21.4170  -31.7770 S   0  0  0  0  0  0  0  0  0  0  0  0
   -9.1250   20.7570  -30.5000 O   0  0  0  0  0  0  0  0  0  0  0  0
   -9.8380   22.2080  -32.3250 O   0  0  0  0  0  0  0  0  0  0  0  0
   -8.1620   20.2390  -32.9700 N   0  0  0  0  0  0  0  0  0  0  0  0
   -6.7240   20.3310  -33.2960 C   0  0  0  0  0  0  0  0  0  0  0  0
   -5.8250   19.7000  -32.2200 C   0  0  0  0  0  0  0  0  0  0  0  0
   -6.2520   18.2590  -31.9390 C   0  0  0  0  0  0  0  0  0  0  0  0
   -7.7360   18.1930  -31.5760 C   0  0  0  0  0  0  0  0  0  0  0  0
   -8.5980   18.8640  -32.6560 C   0  0  0  0  0  0  0  0  0  0  0  0
   -7.0750   23.5900  -32.3040 C   0  0  0  0  0  0  0  0  0  0  0  0
   -6.1030   24.5330  -31.9640 C   0  0  0  0  0  0  0  0  0  0  0  0
   -5.3930   24.4140  -30.7610 C   0  0  0  0  0  0  0  0  0  0  0  0
   -4.4410   25.3710  -30.4130 O   0  0  0  0  0  0  0  0  0  0  0  0
   -2.5880   22.1130  -29.8980 C   0  0  0  0  0  0  0  0  0  0  0  0
   -3.1040   22.3020  -31.1900 C   0  0  0  0  0  0  0  0  0  0  0  0
   -2.5740   21.5850  -32.2690 C   0  0  0  0  0  0  0  0  0  0  0  0
   -1.5280   20.6800  -32.0630 C   0  0  0  0  0  0  0  0  0  0  0  0
   -1.0050   20.4910  -30.7760 C   0  0  0  0  0  0  0  0  0  0  0  0
    0.3260   19.3700  -30.4950 S   0  0  0  0  0  0  0  0  0  0  0  0
    1.3960   19.6590  -31.5140 O   0  0  0  0  0  0  0  0  0  0  0  0
   -0.1370   17.9510  -30.6770 O   0  0  0  0  0  0  0  0  0  0  0  0
    0.9740   19.6110  -28.8860 N   0  0  0  0  0  0  0  0  0  0  0  0
    0.0870   19.0430  -27.8500 C   0  0  0  0  0  0  0  0  0  0  0  0
    0.2190   17.5030  -27.7260 C   0  0  0  0  0  0  0  0  0  0  0  0
    1.3830   16.9820  -28.3480 O   0  0  0  0  0  0  0  0  0  0  0  0
    2.4930   17.7940  -28.0410 C   0  0  0  0  0  0  0  0  0  0  0  0
    2.3740   19.1390  -28.7750 C   0  0  0  0  0  0  0  0  0  0  0  0
   -1.5410   21.2050  -29.6970 C   0  0  0  0  0  0  0  0  0  0  0  0
   -6.8206   21.5328  -29.5845 H   0  0  0  0  0  0  0  0  0  0  0  0
   -6.5465   19.8127  -34.2498 H   0  0  0  0  0  0  0  0  0  0  0  0
   -6.4669   21.3988  -33.3563 H   0  0  0  0  0  0  0  0  0  0  0  0
   -4.7825   19.7062  -32.5709 H   0  0  0  0  0  0  0  0  0  0  0  0
   -5.9180   20.2846  -31.2928 H   0  0  0  0  0  0  0  0  0  0  0  0
   -6.0728   17.6483  -32.8362 H   0  0  0  0  0  0  0  0  0  0  0  0
   -5.6645   17.8762  -31.0915 H   0  0  0  0  0  0  0  0  0  0  0  0
   -8.0361   17.1391  -31.4798 H   0  0  0  0  0  0  0  0  0  0  0  0
   -7.8880   18.7257  -30.6257 H   0  0  0  0  0  0  0  0  0  0  0  0
   -8.5425   18.2604  -33.5739 H   0  0  0  0  0  0  0  0  0  0  0  0
   -9.6249   18.9253  -32.2664 H   0  0  0  0  0  0  0  0  0  0  0  0
   -7.6281   23.6879  -33.2498 H   0  0  0  0  0  0  0  0  0  0  0  0
   -5.8935   25.3728  -32.6429 H   0  0  0  0  0  0  0  0  0  0  0  0
   -4.1670   25.5200  -29.4500 H   0  0  0  0  0  0  0  0  0  0  0  0
   -3.9258   23.0144  -31.3545 H   0  0  0  0  0  0  0  0  0  0  0  0
   -2.9808   21.7336  -33.2802 H   0  0  0  0  0  0  0  0  0  0  0  0
   -1.1149   20.1156  -32.9120 H   0  0  0  0  0  0  0  0  0  0  0  0
    0.3422   19.4970  -26.8811 H   0  0  0  0  0  0  0  0  0  0  0  0
   -0.9498   19.2645  -28.1433 H   0  0  0  0  0  0  0  0  0  0  0  0
    0.2482   17.2411  -26.6580 H   0  0  0  0  0  0  0  0  0  0  0  0
   -0.6474   17.0619  -28.2406 H   0  0  0  0  0  0  0  0  0  0  0  0
    2.5262   17.9719  -26.9560 H   0  0  0  0  0  0  0  0  0  0  0  0
    3.4142   17.2857  -28.3620 H   0  0  0  0  0  0  0  0  0  0  0  0
    2.9562   19.8925  -28.2244 H   0  0  0  0  0  0  0  0  0  0  0  0
    2.7563   18.9938  -29.7961 H   0  0  0  0  0  0  0  0  0  0  0  0
   -1.1371   21.0516  -28.6854 H   0  0  0  0  0  0  0  0  0  0  0  0
  1  2  2  0
  2  3  2  0
  2  4  1  0
  4  5  1  0
  5  6  2  0
  6  7  1  0
  7  8  1  0
  8  9  2  0
  8 10  2  0
  8 11  1  0
 11 12  1  0
 12 13  1  0
 13 14  1  0
 14 15  1  0
 15 16  1  0
  7 17  2  0
 17 18  1  0
 18 19  2  0
 19 20  1  0
  2 21  1  0
 21 22  2  0
 22 23  1  0
 23 24  2  0
 24 25  1  0
 25 26  1  0
 26 27  2  0
 26 28  2  0
 26 29  1  0
 29 30  1  0
 30 31  1  0
 31 32  1  0
 32 33  1  0
 33 34  1  0
 25 35  2  0
 19  5  1  0
 35 21  1  0
 16 11  1  0
 34 29  1  0
  6 36  1  0
 12 37  1  0
 12 38  1  0
 13 39  1  0
 13 40  1  0
 14 41  1  0
 14 42  1  0
 15 43  1  0
 15 44  1  0
 16 45  1  0
 16 46  1  0
 17 47  1  0
 18 48  1  0
 20 49  1  0
 22 50  1  0
 23 51  1  0
 24 52  1  0
 30 53  1  0
 30 54  1  0
 31 55  1  0
 31 56  1  0
 33 57  1  0
 33 58  1  0
 34 59  1  0
 34 60  1  0
 35 61  1  0
M  CHG  1   4  -1
M  END
>  <UniqueID>  (48) 
44

>  <SMILES>  (48) 
O=S(=O)([N-]c1cc(S(=O)(=O)N2CCCCC2)ccc1O)c1cccc(S(=O)(=O)N2CCOCC2)c1

>  <Energy>  (48) 
77.69533274256214

>  <Genealogy>  (48) 
O=S(=O)([N-]c1cc(S(=O)(=O)N2CCCCC2)ccc1O)c1cccc(S(=O)(=O)N2CCOCC2)c1 (protonated)
O=S(=O)([N-]c1cc(S(=O)(=O)N2CCCCC2)ccc1O)c1cccc(S(=O)(=O)N2CCOCC2)c1 (3D coordinates assigned)
O=S(=O)([N-]c1cc(S(=O)(=O)N2CCCCC2)ccc1O)c1cccc(S(=O)(=O)N2CCOCC2)c1 (nonaromatic ring conformer: 77.69533274256214 kcal/mol)

>  <smiles>  (48) 
O=S(=O)(Nc1cc(S(=O)(=O)N2CCCCC2)ccc1O)c1cccc(S(=O)(=O)N2CCOCC2)c1

>  <score_type>  (48) 
oracle

>  <origin>  (48) 
adgpu

>  <m_score__min__energy>  (48) 
-12.109999999999999

>  <m_primary>  (48) 
energy

$$$$
