0:0
     RDKit          3D

 53 57  0  0  0  0  0  0  0  0999 V2000
   -3.7680   24.8630  -30.8380 O   0  0  0  0  0  0  0  0  0  0  0  0
   -4.7950   24.1580  -30.7590 C   0  0  0  0  0  0  0  0  0  0  0  0
   -5.7890   24.5060  -29.7010 C   0  0  0  0  0  0  0  0  0  0  0  0
   -6.9330   23.7050  -29.7360 O   0  0  0  0  0  0  0  0  0  0  0  0
   -7.1380   22.6410  -30.6050 C   0  0  0  0  0  0  0  0  0  0  0  0
   -8.3150   21.9310  -30.4770 C   0  0  0  0  0  0  0  0  0  0  0  0
   -8.5090   20.8760  -31.3450 C   0  0  0  0  0  0  0  0  0  0  0  0
   -7.5600   20.5340  -32.3140 C   0  0  0  0  0  0  0  0  0  0  0  0
   -7.8890   19.4510  -33.1170 O   0  0  0  0  0  0  0  0  0  0  0  0
   -6.8660   18.5900  -33.4820 C   0  0  0  0  0  0  0  0  0  0  0  0
   -6.0830   18.8620  -34.5930 C   0  0  0  0  0  0  0  0  0  0  0  0
   -5.0620   18.0150  -34.9670 C   0  0  0  0  0  0  0  0  0  0  0  0
   -4.7970   16.8660  -34.2340 C   0  0  0  0  0  0  0  0  0  0  0  0
   -3.4790   15.8630  -34.7980 S   0  0  0  0  0  0  0  0  0  0  0  0
   -4.0190   14.4610  -34.9280 O   0  0  0  0  0  0  0  0  0  0  0  0
   -3.0060   16.2870  -36.1390 O   0  0  0  0  0  0  0  0  0  0  0  0
   -2.2060   15.8480  -33.6410 N   0  0  0  0  0  0  0  0  0  0  0  0
   -0.9110   15.8150  -34.2410 C   0  0  0  0  0  0  0  0  0  0  0  0
    0.0030   16.9420  -33.8380 C   0  0  0  0  0  0  0  0  0  0  0  0
   -0.7410   18.2520  -33.8250 C   0  0  0  0  0  0  0  0  0  0  0  0
   -0.2290   19.3990  -34.3620 C   0  0  0  0  0  0  0  0  0  0  0  0
   -0.9800   20.5720  -34.3100 C   0  0  0  0  0  0  0  0  0  0  0  0
   -0.5070   21.7660  -34.8410 O   0  0  0  0  0  0  0  0  0  0  0  0
   -2.2220   20.5060  -33.7080 C   0  0  0  0  0  0  0  0  0  0  0  0
   -2.9500   21.7050  -33.6740 O   0  0  0  0  0  0  0  0  0  0  0  0
   -2.7310   19.3370  -33.1660 C   0  0  0  0  0  0  0  0  0  0  0  0
   -2.0000   18.1940  -33.2160 C   0  0  0  0  0  0  0  0  0  0  0  0
   -2.4230   16.8820  -32.6790 C   0  0  0  0  0  0  0  0  0  0  0  0
   -5.5560   16.5770  -33.1350 C   0  0  0  0  0  0  0  0  0  0  0  0
   -6.5800   17.4400  -32.7720 C   0  0  0  0  0  0  0  0  0  0  0  0
   -6.3830   21.2430  -32.4420 C   0  0  0  0  0  0  0  0  0  0  0  0
   -6.1890   22.3080  -31.5650 C   0  0  0  0  0  0  0  0  0  0  0  0
   -4.9850   23.0720  -31.6600 N   0  0  0  0  0  0  0  0  0  0  0  0
   -5.3094   24.3878  -28.7182 H   0  0  0  0  0  0  0  0  0  0  0  0
   -6.1099   25.5424  -29.8821 H   0  0  0  0  0  0  0  0  0  0  0  0
   -9.0650   22.1946  -29.7167 H   0  0  0  0  0  0  0  0  0  0  0  0
   -9.4356   20.2876  -31.2729 H   0  0  0  0  0  0  0  0  0  0  0  0
   -6.2795   19.7678  -35.1853 H   0  0  0  0  0  0  0  0  0  0  0  0
   -4.4530   18.2509  -35.8521 H   0  0  0  0  0  0  0  0  0  0  0  0
   -0.4286   14.8669  -33.9609 H   0  0  0  0  0  0  0  0  0  0  0  0
   -1.0700   15.9189  -35.3245 H   0  0  0  0  0  0  0  0  0  0  0  0
    0.4005   16.7424  -32.8319 H   0  0  0  0  0  0  0  0  0  0  0  0
    0.8245   17.0090  -34.5665 H   0  0  0  0  0  0  0  0  0  0  0  0
    0.7661   19.3969  -34.8308 H   0  0  0  0  0  0  0  0  0  0  0  0
   -1.1840   22.5080  -34.9630 H   0  0  0  0  0  0  0  0  0  0  0  0
   -2.6860   22.4390  -34.3400 H   0  0  0  0  0  0  0  0  0  0  0  0
   -3.7255   19.3349  -32.6960 H   0  0  0  0  0  0  0  0  0  0  0  0
   -1.8420   16.6589  -31.7720 H   0  0  0  0  0  0  0  0  0  0  0  0
   -3.4966   16.9260  -32.4437 H   0  0  0  0  0  0  0  0  0  0  0  0
   -5.3574   15.6703  -32.5447 H   0  0  0  0  0  0  0  0  0  0  0  0
   -7.1864   17.1996  -31.8863 H   0  0  0  0  0  0  0  0  0  0  0  0
   -5.6324   20.9794  -33.2017 H   0  0  0  0  0  0  0  0  0  0  0  0
   -4.2470   22.8560  -32.3670 H   0  0  0  0  0  0  0  0  0  0  0  0
  1  2  2  0
  2  3  1  0
  3  4  1  0
  4  5  1  0
  5  6  2  0
  6  7  1  0
  7  8  2  0
  8  9  1  0
  9 10  1  0
 10 11  2  0
 11 12  1  0
 12 13  2  0
 13 14  1  0
 14 15  2  0
 14 16  2  0
 14 17  1  0
 17 18  1  0
 18 19  1  0
 19 20  1  0
 20 21  2  0
 21 22  1  0
 22 23  1  0
 22 24  2  0
 24 25  1  0
 24 26  1  0
 26 27  2  0
 27 28  1  0
 13 29  1  0
 29 30  2  0
  8 31  1  0
 31 32  2  0
 32 33  1  0
 33  2  1  0
 32  5  1  0
 30 10  1  0
 28 17  1  0
 27 20  1  0
  3 34  1  0
  3 35  1  0
  6 36  1  0
  7 37  1  0
 11 38  1  0
 12 39  1  0
 18 40  1  0
 18 41  1  0
 19 42  1  0
 19 43  1  0
 21 44  1  0
 23 45  1  0
 25 46  1  0
 26 47  1  0
 28 48  1  0
 28 49  1  0
 29 50  1  0
 30 51  1  0
 31 52  1  0
 33 53  1  0
M  END
>  <smiles>  (1) 
O=C1COc2ccc(Oc3ccc(S(=O)(=O)N4CCc5cc(O)c(O)cc5C4)cc3)cc2N1

>  <score_type>  (1) 
oracle

>  <origin>  (1) 
adgpu

>  <m_score__min__energy>  (1) 
-8.9700000000000006

>  <m_primary>  (1) 
energy

$$$$
1:0
     RDKit          3D

 42 44  0  0  0  0  0  0  0  0999 V2000
   -1.9130   20.8230  -33.0470 C   0  0  0  0  0  0  0  0  0  0  0  0
   -3.3120   20.4300  -32.9940 N   0  0  0  0  0  0  0  0  0  0  0  0
   -3.8970   19.2560  -33.5530 C   0  0  0  0  0  0  0  0  0  0  0  0
   -3.3060   18.3450  -34.1940 O   0  0  0  0  0  0  0  0  0  0  0  0
   -5.3550   19.2410  -33.2700 C   0  0  0  0  0  0  0  0  0  0  0  0
   -6.1140   19.3220  -34.5660 C   0  0  0  0  0  0  0  0  0  0  0  0
   -5.7690   18.0230  -32.4760 C   0  0  0  0  0  0  0  0  0  0  0  0
   -5.5480   20.4850  -32.5160 C   0  0  0  0  0  0  0  0  0  0  0  0
   -6.6820   21.0490  -31.9660 C   0  0  0  0  0  0  0  0  0  0  0  0
   -6.6120   22.2580  -31.2850 C   0  0  0  0  0  0  0  0  0  0  0  0
   -5.4410   22.9550  -31.1170 C   0  0  0  0  0  0  0  0  0  0  0  0
   -5.2870   24.4580  -30.2740 S   0  0  0  0  0  0  0  0  0  0  0  0
   -6.6240   25.1630  -30.1770 O   0  0  0  0  0  0  0  0  0  0  0  0
   -4.3200   25.3360  -31.0110 O   0  0  0  0  0  0  0  0  0  0  0  0
   -4.7450   24.2600  -28.6510 N   0  0  0  0  0  0  0  0  0  0  0  0
   -3.5510   23.6170  -28.2780 C   0  0  0  0  0  0  0  0  0  0  0  0
   -3.4880   22.4400  -27.5610 C   0  0  0  0  0  0  0  0  0  0  0  0
   -2.3090   21.8300  -27.1970 C   0  0  0  0  0  0  0  0  0  0  0  0
   -2.3220   20.6650  -26.4880 F   0  0  0  0  0  0  0  0  0  0  0  0
   -1.0940   22.3930  -27.5480 C   0  0  0  0  0  0  0  0  0  0  0  0
   -1.1230   23.5720  -28.2650 C   0  0  0  0  0  0  0  0  0  0  0  0
   -2.3080   24.1690  -28.6210 C   0  0  0  0  0  0  0  0  0  0  0  0
   -2.2870   25.3560  -29.3440 O   0  0  0  0  0  0  0  0  0  0  0  0
   -4.2920   22.3860  -31.6730 C   0  0  0  0  0  0  0  0  0  0  0  0
   -4.3640   21.1750  -32.3560 C   0  0  0  0  0  0  0  0  0  0  0  0
   -1.5238   20.9323  -32.0240 H   0  0  0  0  0  0  0  0  0  0  0  0
   -1.3355   20.0523  -33.5786 H   0  0  0  0  0  0  0  0  0  0  0  0
   -1.8213   21.7817  -33.5786 H   0  0  0  0  0  0  0  0  0  0  0  0
   -7.1876   19.4366  -34.3556 H   0  0  0  0  0  0  0  0  0  0  0  0
   -5.7594   20.1874  -35.1451 H   0  0  0  0  0  0  0  0  0  0  0  0
   -5.9501   18.4013  -35.1451 H   0  0  0  0  0  0  0  0  0  0  0  0
   -5.6941   18.2433  -31.4009 H   0  0  0  0  0  0  0  0  0  0  0  0
   -6.8074   17.7588  -32.7247 H   0  0  0  0  0  0  0  0  0  0  0  0
   -5.1067   17.1807  -32.7247 H   0  0  0  0  0  0  0  0  0  0  0  0
   -7.6499   20.5363  -32.0680 H   0  0  0  0  0  0  0  0  0  0  0  0
   -7.5370   22.6759  -30.8610 H   0  0  0  0  0  0  0  0  0  0  0  0
   -5.3440   24.6450  -27.8600 H   0  0  0  0  0  0  0  0  0  0  0  0
   -4.4331   21.9622  -27.2635 H   0  0  0  0  0  0  0  0  0  0  0  0
   -0.1422   21.9190  -27.2663 H   0  0  0  0  0  0  0  0  0  0  0  0
   -0.1743   24.0451  -28.5585 H   0  0  0  0  0  0  0  0  0  0  0  0
   -3.0570   25.9930  -29.3350 H   0  0  0  0  0  0  0  0  0  0  0  0
   -3.3241   22.8985  -31.5703 H   0  0  0  0  0  0  0  0  0  0  0  0
  1  2  1  0
  2  3  1  0
  3  4  2  0
  3  5  1  0
  5  6  1  0
  5  7  1  0
  5  8  1  0
  8  9  2  0
  9 10  1  0
 10 11  2  0
 11 12  1  0
 12 13  2  0
 12 14  2  0
 12 15  1  0
 15 16  1  0
 16 17  2  0
 17 18  1  0
 18 19  1  0
 18 20  2  0
 20 21  1  0
 21 22  2  0
 22 23  1  0
 11 24  1  0
 24 25  2  0
 25  2  1  0
 25  8  1  0
 22 16  1  0
  1 26  1  0
  1 27  1  0
  1 28  1  0
  6 29  1  0
  6 30  1  0
  6 31  1  0
  7 32  1  0
  7 33  1  0
  7 34  1  0
  9 35  1  0
 10 36  1  0
 15 37  1  0
 17 38  1  0
 20 39  1  0
 21 40  1  0
 23 41  1  0
 24 42  1  0
M  END
>  <smiles>  (2) 
CN1C(=O)C(C)(C)c2ccc(S(=O)(=O)Nc3cc(F)ccc3O)cc21

>  <score_type>  (2) 
oracle

>  <origin>  (2) 
adgpu

>  <m_score__min__energy>  (2) 
-11.01

>  <m_primary>  (2) 
energy

$$$$
2:0
     RDKit          3D

 59 62  0  0  0  0  0  0  0  0999 V2000
    3.5280   20.2660  -34.6900 C   0  0  0  0  0  0  0  0  0  0  0  0
    2.0780   20.5530  -34.6130 C   0  0  0  0  0  0  0  0  0  0  0  0
    1.6250   21.6840  -35.2570 C   0  0  0  0  0  0  0  0  0  0  0  0
    0.2700   21.9600  -35.1910 C   0  0  0  0  0  0  0  0  0  0  0  0
   -0.1160   23.0030  -35.7910 O   0  0  0  0  0  0  0  0  0  0  0  0
   -0.6050   21.1810  -34.5320 N   0  0  0  0  0  0  0  0  0  0  0  0
   -0.1250   20.0980  -33.9220 C   0  0  0  0  0  0  0  0  0  0  0  0
   -0.9810   19.1500  -33.1380 C   0  0  0  0  0  0  0  0  0  0  0  0
   -2.4250   19.3650  -33.4280 C   0  0  0  0  0  0  0  0  0  0  0  0
   -3.1410   20.5010  -33.4240 N   0  0  0  0  0  0  0  0  0  0  0  0
   -4.4140   20.2170  -33.7380 N   0  0  0  0  0  0  0  0  0  0  0  0
   -4.5260   18.8810  -33.9490 C   0  0  0  0  0  0  0  0  0  0  0  0
   -5.9200   17.8920  -34.3840 S   0  0  0  0  0  0  0  0  0  0  0  0
   -7.1220   17.7320  -33.0450 C   0  0  0  0  0  0  0  0  0  0  0  0
   -7.5780   19.0910  -32.6660 C   0  0  0  0  0  0  0  0  0  0  0  0
   -8.8000   19.3770  -32.7630 O   0  0  0  0  0  0  0  0  0  0  0  0
   -6.6120   20.0130  -32.2030 N   0  0  0  0  0  0  0  0  0  0  0  0
   -6.8550   21.3390  -31.7950 C   0  0  0  0  0  0  0  0  0  0  0  0
   -8.0310   22.0230  -31.9800 C   0  0  0  0  0  0  0  0  0  0  0  0
   -8.2290   23.3290  -31.5820 C   0  0  0  0  0  0  0  0  0  0  0  0
   -7.1600   23.9690  -30.9600 C   0  0  0  0  0  0  0  0  0  0  0  0
   -5.9570   23.3330  -30.7480 C   0  0  0  0  0  0  0  0  0  0  0  0
   -4.6470   24.1970  -29.9720 S   0  0  0  0  0  0  0  0  0  0  0  0
   -4.2300   25.3290  -30.8960 O   0  0  0  0  0  0  0  0  0  0  0  0
   -5.0480   24.8060  -28.6620 O   0  0  0  0  0  0  0  0  0  0  0  0
   -3.2540   23.2290  -29.7380 N   0  0  0  0  0  0  0  0  0  0  0  0
   -3.5040   22.1130  -28.8410 C   0  0  0  0  0  0  0  0  0  0  0  0
   -2.1970   21.3370  -29.0290 C   0  0  0  0  0  0  0  0  0  0  0  0
   -2.0720   21.3430  -30.5430 C   0  0  0  0  0  0  0  0  0  0  0  0
   -2.7340   22.6480  -30.9340 C   0  0  0  0  0  0  0  0  0  0  0  0
   -5.8040   22.0030  -31.1700 C   0  0  0  0  0  0  0  0  0  0  0  0
   -3.2810   18.3780  -33.7500 N   0  0  0  0  0  0  0  0  0  0  0  0
   -2.9090   16.9840  -33.8700 C   0  0  0  0  0  0  0  0  0  0  0  0
    1.2070   19.7640  -33.9500 N   0  0  0  0  0  0  0  0  0  0  0  0
    3.9401   20.1844  -33.6734 H   0  0  0  0  0  0  0  0  0  0  0  0
    3.6864   19.3191  -35.2269 H   0  0  0  0  0  0  0  0  0  0  0  0
    4.0351   21.0812  -35.2269 H   0  0  0  0  0  0  0  0  0  0  0  0
    2.3150   22.3436  -35.8037 H   0  0  0  0  0  0  0  0  0  0  0  0
   -1.6200   21.4000  -34.4890 H   0  0  0  0  0  0  0  0  0  0  0  0
   -0.7110   18.1177  -33.4051 H   0  0  0  0  0  0  0  0  0  0  0  0
   -0.8098   19.3301  -32.0664 H   0  0  0  0  0  0  0  0  0  0  0  0
   -7.9797   17.1327  -33.3844 H   0  0  0  0  0  0  0  0  0  0  0  0
   -6.6626   17.2308  -32.1803 H   0  0  0  0  0  0  0  0  0  0  0  0
   -5.5970   19.6990  -32.1550 H   0  0  0  0  0  0  0  0  0  0  0  0
   -8.8630   21.4997  -32.4739 H   0  0  0  0  0  0  0  0  0  0  0  0
   -9.1879   23.8416  -31.7485 H   0  0  0  0  0  0  0  0  0  0  0  0
   -7.2797   25.0111  -30.6289 H   0  0  0  0  0  0  0  0  0  0  0  0
   -3.6377   22.4450  -27.8009 H   0  0  0  0  0  0  0  0  0  0  0  0
   -4.4207   21.5420  -29.0496 H   0  0  0  0  0  0  0  0  0  0  0  0
   -1.3497   21.8510  -28.5516 H   0  0  0  0  0  0  0  0  0  0  0  0
   -2.1962   20.3338  -28.5778 H   0  0  0  0  0  0  0  0  0  0  0  0
   -1.0166   21.3266  -30.8527 H   0  0  0  0  0  0  0  0  0  0  0  0
   -2.5309   20.4642  -31.0195 H   0  0  0  0  0  0  0  0  0  0  0  0
   -1.9961   23.3232  -31.3918 H   0  0  0  0  0  0  0  0  0  0  0  0
   -3.5360   22.4763  -31.6670 H   0  0  0  0  0  0  0  0  0  0  0  0
   -4.8486   21.4832  -31.0058 H   0  0  0  0  0  0  0  0  0  0  0  0
   -2.7926   16.5479  -32.8669 H   0  0  0  0  0  0  0  0  0  0  0  0
   -3.6936   16.4409  -34.4172 H   0  0  0  0  0  0  0  0  0  0  0  0
   -1.9581   16.9040  -34.4172 H   0  0  0  0  0  0  0  0  0  0  0  0
  1  2  1  0
  2  3  2  0
  3  4  1  0
  4  5  2  0
  4  6  1  0
  6  7  1  0
  7  8  1  0
  8  9  1  0
  9 10  2  0
 10 11  1  0
 11 12  2  0
 12 13  1  0
 13 14  1  0
 14 15  1  0
 15 16  2  0
 15 17  1  0
 17 18  1  0
 18 19  2  0
 19 20  1  0
 20 21  2  0
 21 22  1  0
 22 23  1  0
 23 24  2  0
 23 25  2  0
 23 26  1  0
 26 27  1  0
 27 28  1  0
 28 29  1  0
 29 30  1  0
 22 31  2  0
 12 32  1  0
 32 33  1  0
  7 34  2  0
 34  2  1  0
 32  9  1  0
 31 18  1  0
 30 26  1  0
  1 35  1  0
  1 36  1  0
  1 37  1  0
  3 38  1  0
  6 39  1  0
  8 40  1  0
  8 41  1  0
 14 42  1  0
 14 43  1  0
 17 44  1  0
 19 45  1  0
 20 46  1  0
 21 47  1  0
 27 48  1  0
 27 49  1  0
 28 50  1  0
 28 51  1  0
 29 52  1  0
 29 53  1  0
 30 54  1  0
 30 55  1  0
 31 56  1  0
 33 57  1  0
 33 58  1  0
 33 59  1  0
M  END
>  <smiles>  (3) 
Cc1cc(=O)[nH]c(Cc2nnc(SCC(=O)Nc3cccc(S(=O)(=O)N4CCCC4)c3)n2C)n1

>  <score_type>  (3) 
oracle

>  <origin>  (3) 
adgpu

>  <m_score__min__energy>  (3) 
-11.41

>  <m_primary>  (3) 
energy

$$$$
3:0
     RDKit          3D

 52 54  0  0  1  0  0  0  0  0999 V2000
   -9.1020   19.0180  -32.1630 C   0  0  0  0  0  0  0  0  0  0  0  0
   -7.8460   19.8150  -32.3340 C   0  0  0  0  0  0  0  0  0  0  0  0
   -7.8340   21.1440  -31.9590 C   0  0  0  0  0  0  0  0  0  0  0  0
   -6.7170   21.9440  -32.0860 C   0  0  0  0  0  0  0  0  0  0  0  0
   -5.5600   21.3640  -32.6180 C   0  0  0  0  0  0  0  0  0  0  0  0
   -4.3410   22.2300  -32.7580 C   0  0  0  0  0  0  0  0  0  0  0  0
   -4.5200   23.3450  -31.8880 O   0  0  0  0  0  0  0  0  0  0  0  0
   -4.0300   23.2840  -30.5920 C   0  0  0  0  0  0  0  0  0  0  0  0
   -3.8670   22.0560  -29.9460 C   0  0  0  0  0  0  0  0  0  0  0  0
   -3.3910   21.9120  -28.6820 C   0  0  0  0  0  0  0  0  0  0  0  0
   -3.0440   20.7540  -27.9360 C   0  0  0  0  0  0  0  0  0  0  0  0
   -1.8810   20.2880  -27.5900 C   0  0  0  0  0  0  0  0  0  0  0  0
   -0.5980   20.8330  -27.8500 C   0  0  0  0  0  0  0  0  0  0  0  0
   -0.3910   22.0290  -27.4300 O   0  0  0  0  0  0  0  0  0  0  0  0
    0.5340   20.2900  -28.5230 C   0  0  0  0  0  0  0  0  0  0  0  0
    0.7420   20.0500  -29.7610 C   0  0  0  0  0  0  0  0  0  0  0  0
   -0.0870   20.2690  -30.9110 C   0  0  0  0  0  0  0  0  0  0  0  0
   -1.2420   19.4990  -30.9950 C   0  0  0  0  0  0  0  0  0  0  0  0
   -2.0010   19.5740  -32.1310 C   0  0  0  0  0  0  0  0  0  0  0  0
   -1.7110   20.3640  -33.2190 C   0  0  0  0  0  0  0  0  0  0  0  0
   -2.4940   20.4250  -34.3580 O   0  0  0  0  0  0  0  0  0  0  0  0
   -0.5690   21.1280  -33.1430 C   0  0  0  0  0  0  0  0  0  0  0  0
   -0.2230   21.9470  -34.2110 O   0  0  0  0  0  0  0  0  0  0  0  0
    0.1930   21.0510  -32.0010 C   0  0  0  0  0  0  0  0  0  0  0  0
   -3.0650   23.1390  -28.0400 C   0  0  0  0  0  0  0  0  0  0  0  0
   -3.2230   24.3440  -28.6660 C   0  0  0  0  0  0  0  0  0  0  0  0
   -3.7050   24.4570  -29.9510 C   0  0  0  0  0  0  0  0  0  0  0  0
   -3.8730   25.6670  -30.6070 O   0  0  0  0  0  0  0  0  0  0  0  0
   -5.5560   20.0410  -32.9960 C   0  0  0  0  0  0  0  0  0  0  0  0
   -6.6950   19.2640  -32.8570 C   0  0  0  0  0  0  0  0  0  0  0  0
   -9.3096   18.8863  -31.0908 H   0  0  0  0  0  0  0  0  0  0  0  0
   -9.9408   19.5494  -32.6363 H   0  0  0  0  0  0  0  0  0  0  0  0
   -8.9784   18.0327  -32.6363 H   0  0  0  0  0  0  0  0  0  0  0  0
   -8.7525   21.5828  -31.5420 H   0  0  0  0  0  0  0  0  0  0  0  0
   -6.7354   23.0004  -31.7799 H   0  0  0  0  0  0  0  0  0  0  0  0
   -3.4418   21.6661  -32.4693 H   0  0  0  0  0  0  0  0  0  0  0  0
   -4.2120   22.5610  -33.7990 H   0  0  0  0  0  0  0  0  0  0  0  0
   -4.1425   21.1451  -30.4977 H   0  0  0  0  0  0  0  0  0  0  0  0
   -3.9000   20.1530  -27.5952 H   0  0  0  0  0  0  0  0  0  0  0  0
   -1.8937   19.3470  -27.0205 H   0  0  0  0  0  0  0  0  0  0  0  0
    1.3751   20.0326  -27.8625 H   0  0  0  0  0  0  0  0  0  0  0  0
    1.7211   19.5999  -29.9817 H   0  0  0  0  0  0  0  0  0  0  0  0
   -1.5397   18.8423  -30.1642 H   0  0  0  0  0  0  0  0  0  0  0  0
   -2.9104   18.9569  -32.1776 H   0  0  0  0  0  0  0  0  0  0  0  0
   -2.3140   21.0640  -35.1210 H   0  0  0  0  0  0  0  0  0  0  0  0
   -0.8860   21.9940  -34.9800 H   0  0  0  0  0  0  0  0  0  0  0  0
    1.1026   21.6682  -31.9589 H   0  0  0  0  0  0  0  0  0  0  0  0
   -2.6751   23.1175  -27.0116 H   0  0  0  0  0  0  0  0  0  0  0  0
   -2.9541   25.2609  -28.1209 H   0  0  0  0  0  0  0  0  0  0  0  0
   -4.1830   25.6280  -31.5850 H   0  0  0  0  0  0  0  0  0  0  0  0
   -4.6402   19.5960  -33.4124 H   0  0  0  0  0  0  0  0  0  0  0  0
   -6.6811   18.2077  -33.1638 H   0  0  0  0  0  0  0  0  0  0  0  0
  1  2  1  0
  2  3  2  0
  3  4  1  0
  4  5  2  0
  5  6  1  0
  6  7  1  0
  7  8  1  0
  8  9  2  0
  9 10  1  0
 10 11  1  0
 11 12  2  0
 12 13  1  0
 13 14  2  0
 13 15  1  0
 15 16  2  0
 16 17  1  0
 17 18  2  0
 18 19  1  0
 19 20  2  0
 20 21  1  0
 20 22  1  0
 22 23  1  0
 22 24  2  0
 10 25  2  0
 25 26  1  0
 26 27  2  0
 27 28  1  0
  5 29  1  0
 29 30  2  0
 30  2  1  0
 27  8  1  0
 24 17  1  0
  1 31  1  0
  1 32  1  0
  1 33  1  0
  3 34  1  0
  4 35  1  0
  6 36  1  0
  6 37  1  0
  9 38  1  0
 11 39  1  0
 12 40  1  0
 15 41  1  0
 16 42  1  0
 18 43  1  0
 19 44  1  0
 21 45  1  0
 23 46  1  0
 24 47  1  0
 25 48  1  0
 26 49  1  0
 28 50  1  0
 29 51  1  0
 30 52  1  0
M  END
>  <smiles>  (4) 
Cc1ccc(COc2cc(C=CC(=O)C=Cc3ccc(O)c(O)c3)ccc2O)cc1

>  <score_type>  (4) 
oracle

>  <origin>  (4) 
adgpu

>  <m_score__min__energy>  (4) 
-10.789999999999999

>  <m_primary>  (4) 
energy

$$$$
4:0
     RDKit          3D

 66 69  0  0  0  0  0  0  0  0999 V2000
   -1.1300   23.7860  -25.9200 C   0  0  0  0  0  0  0  0  0  0  0  0
   -0.5630   23.8910  -27.3110 C   0  0  0  0  0  0  0  0  0  0  0  0
   -0.1100   25.3190  -27.4990 C   0  0  0  0  0  0  0  0  0  0  0  0
    0.6230   22.9680  -27.5200 C   0  0  0  0  0  0  0  0  0  0  0  0
    0.2530   21.5320  -27.3940 C   0  0  0  0  0  0  0  0  0  0  0  0
   -0.9550   21.0890  -28.1410 C   0  0  0  0  0  0  0  0  0  0  0  0
   -1.8250   20.2110  -27.2540 C   0  0  0  0  0  0  0  0  0  0  0  0
   -0.4660   20.1840  -29.2630 C   0  0  0  0  0  0  0  0  0  0  0  0
   -1.7240   22.1860  -28.7500 C   0  0  0  0  0  0  0  0  0  0  0  0
   -2.6590   21.9410  -29.7330 C   0  0  0  0  0  0  0  0  0  0  0  0
   -3.4110   22.9060  -30.3430 C   0  0  0  0  0  0  0  0  0  0  0  0
   -4.4050   22.7210  -31.3140 N   0  0  0  0  0  0  0  0  0  0  0  0
   -6.0110   23.2310  -31.3440 S   0  0  0  0  0  0  0  0  0  0  0  0
   -6.2290   24.3950  -32.2910 O   0  0  0  0  0  0  0  0  0  0  0  0
   -6.3940   23.7170  -29.9460 O   0  0  0  0  0  0  0  0  0  0  0  0
   -7.0950   21.9260  -31.7080 C   0  0  0  0  0  0  0  0  0  0  0  0
   -6.6400   20.6230  -31.8180 C   0  0  0  0  0  0  0  0  0  0  0  0
   -7.4590   19.5630  -32.1470 C   0  0  0  0  0  0  0  0  0  0  0  0
   -6.8540   17.9280  -32.2790 S   0  0  0  0  0  0  0  0  0  0  0  0
   -6.3140   17.4480  -30.9610 O   0  0  0  0  0  0  0  0  0  0  0  0
   -7.9210   16.9830  -32.7020 O   0  0  0  0  0  0  0  0  0  0  0  0
   -5.5760   17.8100  -33.4240 N   0  0  0  0  0  0  0  0  0  0  0  0
   -4.4410   18.6430  -33.1060 C   0  0  0  0  0  0  0  0  0  0  0  0
   -3.4510   18.1940  -34.1740 C   0  0  0  0  0  0  0  0  0  0  0  0
   -3.7020   16.6910  -34.2070 C   0  0  0  0  0  0  0  0  0  0  0  0
   -4.9930   16.4840  -33.4500 C   0  0  0  0  0  0  0  0  0  0  0  0
   -8.8000   19.7620  -32.3870 C   0  0  0  0  0  0  0  0  0  0  0  0
   -9.2840   21.0470  -32.2860 C   0  0  0  0  0  0  0  0  0  0  0  0
   -8.4530   22.1030  -31.9530 C   0  0  0  0  0  0  0  0  0  0  0  0
   -9.0370   23.3530  -31.8700 O   0  0  0  0  0  0  0  0  0  0  0  0
   -3.1890   24.2220  -29.9150 C   0  0  0  0  0  0  0  0  0  0  0  0
   -3.9030   25.2730  -30.4740 O   0  0  0  0  0  0  0  0  0  0  0  0
   -2.2690   24.5250  -28.9380 C   0  0  0  0  0  0  0  0  0  0  0  0
   -1.5450   23.5010  -28.3640 C   0  0  0  0  0  0  0  0  0  0  0  0
   -0.3260   23.9349  -25.1841 H   0  0  0  0  0  0  0  0  0  0  0  0
   -1.9026   24.5563  -25.7799 H   0  0  0  0  0  0  0  0  0  0  0  0
   -1.5755   22.7901  -25.7799 H   0  0  0  0  0  0  0  0  0  0  0  0
    0.0391   25.7889  -26.5156 H   0  0  0  0  0  0  0  0  0  0  0  0
    0.8366   25.3327  -28.0592 H   0  0  0  0  0  0  0  0  0  0  0  0
   -0.8756   25.8758  -28.0592 H   0  0  0  0  0  0  0  0  0  0  0  0
    1.0319   23.1405  -28.5265 H   0  0  0  0  0  0  0  0  0  0  0  0
    1.3649   23.1931  -26.7397 H   0  0  0  0  0  0  0  0  0  0  0  0
    1.1047   20.9349  -27.7519 H   0  0  0  0  0  0  0  0  0  0  0  0
    0.0073   21.3872  -26.3316 H   0  0  0  0  0  0  0  0  0  0  0  0
   -1.6091   20.4289  -26.1976 H   0  0  0  0  0  0  0  0  0  0  0  0
   -2.8855   20.4168  -27.4615 H   0  0  0  0  0  0  0  0  0  0  0  0
   -1.6095   19.1525  -27.4615 H   0  0  0  0  0  0  0  0  0  0  0  0
    0.0152   19.2935  -28.8324 H   0  0  0  0  0  0  0  0  0  0  0  0
   -1.3201   19.8753  -29.8837 H   0  0  0  0  0  0  0  0  0  0  0  0
    0.2603   20.7292  -29.8837 H   0  0  0  0  0  0  0  0  0  0  0  0
   -2.8103   20.8980  -30.0480 H   0  0  0  0  0  0  0  0  0  0  0  0
   -4.0600   22.1570  -32.1760 H   0  0  0  0  0  0  0  0  0  0  0  0
   -5.5740   20.4235  -31.6342 H   0  0  0  0  0  0  0  0  0  0  0  0
   -4.6833   19.7117  -33.2019 H   0  0  0  0  0  0  0  0  0  0  0  0
   -4.0754   18.5409  -32.0736 H   0  0  0  0  0  0  0  0  0  0  0  0
   -3.6700   18.6596  -35.1463 H   0  0  0  0  0  0  0  0  0  0  0  0
   -2.4073   18.4703  -33.9632 H   0  0  0  0  0  0  0  0  0  0  0  0
   -3.8036   16.3403  -35.2446 H   0  0  0  0  0  0  0  0  0  0  0  0
   -2.8702   16.1271  -33.7597 H   0  0  0  0  0  0  0  0  0  0  0  0
   -5.6492   15.7745  -33.9754 H   0  0  0  0  0  0  0  0  0  0  0  0
   -4.8421   16.0587  -32.4468 H   0  0  0  0  0  0  0  0  0  0  0  0
   -9.4617   18.9236  -32.6503 H   0  0  0  0  0  0  0  0  0  0  0  0
  -10.3509   21.2381  -32.4734 H   0  0  0  0  0  0  0  0  0  0  0  0
   -8.4070   24.1410  -31.8060 H   0  0  0  0  0  0  0  0  0  0  0  0
   -4.8690   25.1170  -30.7140 H   0  0  0  0  0  0  0  0  0  0  0  0
   -2.1135   25.5665  -28.6200 H   0  0  0  0  0  0  0  0  0  0  0  0
  1  2  1  0
  2  3  1  0
  2  4  1  0
  4  5  1  0
  5  6  1  0
  6  7  1  0
  6  8  1  0
  6  9  1  0
  9 10  2  0
 10 11  1  0
 11 12  1  0
 12 13  1  0
 13 14  2  0
 13 15  2  0
 13 16  1  0
 16 17  2  0
 17 18  1  0
 18 19  1  0
 19 20  2  0
 19 21  2  0
 19 22  1  0
 22 23  1  0
 23 24  1  0
 24 25  1  0
 25 26  1  0
 18 27  2  0
 27 28  1  0
 28 29  2  0
 29 30  1  0
 11 31  2  0
 31 32  1  0
 31 33  1  0
 33 34  2  0
 34  2  1  0
 34  9  1  0
 29 16  1  0
 26 22  1  0
  1 35  1  0
  1 36  1  0
  1 37  1  0
  3 38  1  0
  3 39  1  0
  3 40  1  0
  4 41  1  0
  4 42  1  0
  5 43  1  0
  5 44  1  0
  7 45  1  0
  7 46  1  0
  7 47  1  0
  8 48  1  0
  8 49  1  0
  8 50  1  0
 10 51  1  0
 12 52  1  0
 17 53  1  0
 23 54  1  0
 23 55  1  0
 24 56  1  0
 24 57  1  0
 25 58  1  0
 25 59  1  0
 26 60  1  0
 26 61  1  0
 27 62  1  0
 28 63  1  0
 30 64  1  0
 32 65  1  0
 33 66  1  0
M  END
>  <smiles>  (5) 
CC1(C)CCC(C)(C)c2cc(NS(=O)(=O)c3cc(S(=O)(=O)N4CCCC4)ccc3O)c(O)cc21

>  <score_type>  (5) 
oracle

>  <origin>  (5) 
adgpu

>  <m_score__min__energy>  (5) 
-11.43

>  <m_primary>  (5) 
energy

$$$$
5:0
     RDKit          3D

 73 77  0  0  0  0  0  0  0  0999 V2000
   -4.9750   13.5690  -32.7630 C   0  0  0  0  0  0  0  0  0  0  0  0
   -4.9550   14.6460  -33.6750 O   0  0  0  0  0  0  0  0  0  0  0  0
   -4.0630   15.6800  -33.4580 C   0  0  0  0  0  0  0  0  0  0  0  0
   -2.7840   15.4100  -32.9800 C   0  0  0  0  0  0  0  0  0  0  0  0
   -1.8520   16.3970  -32.7470 C   0  0  0  0  0  0  0  0  0  0  0  0
   -2.2350   17.6920  -33.0090 C   0  0  0  0  0  0  0  0  0  0  0  0
   -1.3550   18.8450  -32.8040 C   0  0  0  0  0  0  0  0  0  0  0  0
   -0.2150   18.7650  -33.3540 O   0  0  0  0  0  0  0  0  0  0  0  0
   -1.7640   19.9710  -32.0370 N   0  0  0  0  0  0  0  0  0  0  0  0
   -3.0770   20.0510  -31.4010 C   0  0  0  0  0  0  0  0  0  0  0  0
   -3.0210   20.8640  -30.1060 C   0  0  0  0  0  0  0  0  0  0  0  0
   -2.1900   22.0470  -30.2580 N   0  0  0  0  0  0  0  0  0  0  0  0
   -1.9650   22.8560  -29.1280 C   0  0  0  0  0  0  0  0  0  0  0  0
   -3.0610   23.3590  -28.4560 C   0  0  0  0  0  0  0  0  0  0  0  0
   -2.8990   24.1620  -27.3250 C   0  0  0  0  0  0  0  0  0  0  0  0
   -1.6490   24.4830  -26.8370 C   0  0  0  0  0  0  0  0  0  0  0  0
   -1.4520   25.4830  -25.4110 S   0  0  0  0  0  0  0  0  0  0  0  0
   -2.7700   26.0820  -25.0720 O   0  0  0  0  0  0  0  0  0  0  0  0
   -1.0510   24.6230  -24.2470 O   0  0  0  0  0  0  0  0  0  0  0  0
   -0.2830   26.7050  -25.6410 N   0  0  0  0  0  0  0  0  0  0  0  0
   -0.3830   27.4200  -26.8730 C   0  0  0  0  0  0  0  0  0  0  0  0
   -0.4990   28.8900  -26.5780 C   0  0  0  0  0  0  0  0  0  0  0  0
   -0.0580   29.0110  -25.1580 C   0  0  0  0  0  0  0  0  0  0  0  0
   -0.1530   27.6270  -24.5570 C   0  0  0  0  0  0  0  0  0  0  0  0
   -0.5560   23.9830  -27.5030 C   0  0  0  0  0  0  0  0  0  0  0  0
   -0.7280   23.1830  -28.6300 C   0  0  0  0  0  0  0  0  0  0  0  0
   -1.6490   22.2990  -31.5760 C   0  0  0  0  0  0  0  0  0  0  0  0
   -0.7970   21.0670  -31.9210 C   0  0  0  0  0  0  0  0  0  0  0  0
   -3.4980   17.9590  -33.4810 C   0  0  0  0  0  0  0  0  0  0  0  0
   -4.4530   16.9870  -33.7220 C   0  0  0  0  0  0  0  0  0  0  0  0
   -6.0270   17.4360  -34.2840 S   0  0  0  0  0  0  0  0  0  0  0  0
   -6.8570   16.2160  -34.6310 O   0  0  0  0  0  0  0  0  0  0  0  0
   -5.8520   18.1520  -35.6260 O   0  0  0  0  0  0  0  0  0  0  0  0
   -6.9260   18.4440  -33.2930 N   0  0  0  0  0  0  0  0  0  0  0  0
   -7.5430   17.9540  -32.1370 C   0  0  0  0  0  0  0  0  0  0  0  0
   -8.5180   18.9140  -31.4960 C   0  0  0  0  0  0  0  0  0  0  0  0
   -8.3550   20.2280  -31.8600 O   0  0  0  0  0  0  0  0  0  0  0  0
   -6.9860   20.4850  -31.9510 C   0  0  0  0  0  0  0  0  0  0  0  0
   -6.5390   19.8300  -33.2460 C   0  0  0  0  0  0  0  0  0  0  0  0
   -4.9678   13.9592  -31.7346 H   0  0  0  0  0  0  0  0  0  0  0  0
   -5.8844   12.9709  -32.9218 H   0  0  0  0  0  0  0  0  0  0  0  0
   -4.0884   12.9375  -32.9218 H   0  0  0  0  0  0  0  0  0  0  0  0
   -2.5059   14.3647  -32.7800 H   0  0  0  0  0  0  0  0  0  0  0  0
   -0.8467   16.1604  -32.3685 H   0  0  0  0  0  0  0  0  0  0  0  0
   -3.7823   20.5315  -32.0951 H   0  0  0  0  0  0  0  0  0  0  0  0
   -3.4056   19.0304  -31.1553 H   0  0  0  0  0  0  0  0  0  0  0  0
   -4.0405   21.1753  -29.8345 H   0  0  0  0  0  0  0  0  0  0  0  0
   -2.5832   20.2321  -29.3192 H   0  0  0  0  0  0  0  0  0  0  0  0
   -4.0738   23.1245  -28.8156 H   0  0  0  0  0  0  0  0  0  0  0  0
   -3.7908   24.5485  -26.8100 H   0  0  0  0  0  0  0  0  0  0  0  0
    0.5153   27.2355  -27.4804 H   0  0  0  0  0  0  0  0  0  0  0  0
   -1.2701   27.0813  -27.4283 H   0  0  0  0  0  0  0  0  0  0  0  0
    0.1554   29.4744  -27.2415 H   0  0  0  0  0  0  0  0  0  0  0  0
   -1.5172   29.2742  -26.7385 H   0  0  0  0  0  0  0  0  0  0  0  0
    0.9793   29.3743  -25.1123 H   0  0  0  0  0  0  0  0  0  0  0  0
   -0.6859   29.7267  -24.6071 H   0  0  0  0  0  0  0  0  0  0  0  0
    0.7558   27.4037  -23.9789 H   0  0  0  0  0  0  0  0  0  0  0  0
   -1.0142   27.5545  -23.8765 H   0  0  0  0  0  0  0  0  0  0  0  0
    0.4578   24.2153  -27.1450 H   0  0  0  0  0  0  0  0  0  0  0  0
    0.1651   22.7967  -29.1429 H   0  0  0  0  0  0  0  0  0  0  0  0
   -2.4619   22.4196  -32.3072 H   0  0  0  0  0  0  0  0  0  0  0  0
   -1.0529   23.2232  -31.5993 H   0  0  0  0  0  0  0  0  0  0  0  0
   -0.2639   21.2170  -32.8714 H   0  0  0  0  0  0  0  0  0  0  0  0
   -0.0268   20.8659  -31.1618 H   0  0  0  0  0  0  0  0  0  0  0  0
   -3.7655   19.0075  -33.6789 H   0  0  0  0  0  0  0  0  0  0  0  0
   -8.0875   17.0353  -32.4005 H   0  0  0  0  0  0  0  0  0  0  0  0
   -6.7425   17.7819  -31.4024 H   0  0  0  0  0  0  0  0  0  0  0  0
   -9.5362   18.6052  -31.7753 H   0  0  0  0  0  0  0  0  0  0  0  0
   -8.3324   18.8671  -30.4128 H   0  0  0  0  0  0  0  0  0  0  0  0
   -6.7989   21.5685  -31.9830 H   0  0  0  0  0  0  0  0  0  0  0  0
   -6.4370   20.0920  -31.0826 H   0  0  0  0  0  0  0  0  0  0  0  0
   -6.9999   20.3595  -34.0929 H   0  0  0  0  0  0  0  0  0  0  0  0
   -5.4419   19.8858  -33.3022 H   0  0  0  0  0  0  0  0  0  0  0  0
  1  2  1  0
  2  3  1  0
  3  4  2  0
  4  5  1  0
  5  6  2  0
  6  7  1  0
  7  8  2  0
  7  9  1  0
  9 10  1  0
 10 11  1  0
 11 12  1  0
 12 13  1  0
 13 14  2  0
 14 15  1  0
 15 16  2  0
 16 17  1  0
 17 18  2  0
 17 19  2  0
 17 20  1  0
 20 21  1  0
 21 22  1  0
 22 23  1  0
 23 24  1  0
 16 25  1  0
 25 26  2  0
 12 27  1  0
 27 28  1  0
  6 29  1  0
 29 30  2  0
 30 31  1  0
 31 32  2  0
 31 33  2  0
 31 34  1  0
 34 35  1  0
 35 36  1  0
 36 37  1  0
 37 38  1  0
 38 39  1  0
 30  3  1  0
 39 34  1  0
 28  9  1  0
 26 13  1  0
 24 20  1  0
  1 40  1  0
  1 41  1  0
  1 42  1  0
  4 43  1  0
  5 44  1  0
 10 45  1  0
 10 46  1  0
 11 47  1  0
 11 48  1  0
 14 49  1  0
 15 50  1  0
 21 51  1  0
 21 52  1  0
 22 53  1  0
 22 54  1  0
 23 55  1  0
 23 56  1  0
 24 57  1  0
 24 58  1  0
 25 59  1  0
 26 60  1  0
 27 61  1  0
 27 62  1  0
 28 63  1  0
 28 64  1  0
 29 65  1  0
 35 66  1  0
 35 67  1  0
 36 68  1  0
 36 69  1  0
 38 70  1  0
 38 71  1  0
 39 72  1  0
 39 73  1  0
M  END
>  <smiles>  (6) 
COc1ccc(C(=O)N2CCN(c3ccc(S(=O)(=O)N4CCCC4)cc3)CC2)cc1S(=O)(=O)N1CCOCC1

>  <score_type>  (6) 
oracle

>  <origin>  (6) 
adgpu

>  <m_score__min__energy>  (6) 
-9.7799999999999994

>  <m_primary>  (6) 
energy

$$$$
6:0
     RDKit          3D

 56 59  0  0  0  0  0  0  0  0999 V2000
   -8.8290   20.9540  -30.4270 O   0  0  0  0  0  0  0  0  0  0  0  0
   -8.5120   21.6340  -31.7280 S   0  0  0  0  0  0  0  0  0  0  0  0
   -9.6910   22.4980  -32.0520 O   0  0  0  0  0  0  0  0  0  0  0  0
   -7.1370   22.6820  -31.4610 C   0  0  0  0  0  0  0  0  0  0  0  0
   -7.2800   24.0270  -31.1810 C   0  0  0  0  0  0  0  0  0  0  0  0
   -6.2130   24.8730  -30.9640 C   0  0  0  0  0  0  0  0  0  0  0  0
   -4.9330   24.3150  -31.0360 C   0  0  0  0  0  0  0  0  0  0  0  0
   -3.8360   25.1380  -30.8240 O   0  0  0  0  0  0  0  0  0  0  0  0
   -4.7550   22.9780  -31.3130 C   0  0  0  0  0  0  0  0  0  0  0  0
   -3.4170   22.3320  -31.3910 C   0  0  0  0  0  0  0  0  0  0  0  0
   -2.7150   22.2260  -30.1740 N   0  0  0  0  0  0  0  0  0  0  0  0
   -3.4680   22.2870  -28.9840 C   0  0  0  0  0  0  0  0  0  0  0  0
   -2.5140   22.1200  -27.8050 C   0  0  0  0  0  0  0  0  0  0  0  0
   -1.5900   23.2370  -27.8410 N   0  0  0  0  0  0  0  0  0  0  0  0
   -1.1290   23.8960  -26.6690 C   0  0  0  0  0  0  0  0  0  0  0  0
   -0.4760   23.1220  -25.7220 C   0  0  0  0  0  0  0  0  0  0  0  0
   -0.0250   23.7590  -24.5810 C   0  0  0  0  0  0  0  0  0  0  0  0
   -0.2150   25.1200  -24.3820 C   0  0  0  0  0  0  0  0  0  0  0  0
   -0.8690   25.8800  -25.3360 C   0  0  0  0  0  0  0  0  0  0  0  0
   -1.3290   25.2650  -26.4850 C   0  0  0  0  0  0  0  0  0  0  0  0
   -1.9870   26.0220  -27.4460 O   0  0  0  0  0  0  0  0  0  0  0  0
   -1.1120   23.7110  -29.1330 C   0  0  0  0  0  0  0  0  0  0  0  0
   -1.3500   22.5770  -30.1290 C   0  0  0  0  0  0  0  0  0  0  0  0
   -5.8560   22.1390  -31.5310 C   0  0  0  0  0  0  0  0  0  0  0  0
   -8.1880   20.4780  -32.9630 N   0  0  0  0  0  0  0  0  0  0  0  0
   -9.3000   19.5480  -33.0050 C   0  0  0  0  0  0  0  0  0  0  0  0
   -9.1030   18.6480  -31.8200 C   0  0  0  0  0  0  0  0  0  0  0  0
   -7.6280   18.6910  -31.5220 C   0  0  0  0  0  0  0  0  0  0  0  0
   -7.0940   19.6200  -32.5900 C   0  0  0  0  0  0  0  0  0  0  0  0
   -8.2964   24.4443  -31.1285 H   0  0  0  0  0  0  0  0  0  0  0  0
   -6.3623   25.9404  -30.7438 H   0  0  0  0  0  0  0  0  0  0  0  0
   -3.3800   25.6330  -31.5960 H   0  0  0  0  0  0  0  0  0  0  0  0
   -3.5554   21.3164  -31.7903 H   0  0  0  0  0  0  0  0  0  0  0  0
   -2.8068   22.9856  -32.0317 H   0  0  0  0  0  0  0  0  0  0  0  0
   -3.9774   23.2595  -28.9155 H   0  0  0  0  0  0  0  0  0  0  0  0
   -4.2265   21.4904  -28.9739 H   0  0  0  0  0  0  0  0  0  0  0  0
   -3.0773   22.1269  -26.8602 H   0  0  0  0  0  0  0  0  0  0  0  0
   -1.9742   21.1638  -27.8712 H   0  0  0  0  0  0  0  0  0  0  0  0
   -0.3228   22.0432  -25.8727 H   0  0  0  0  0  0  0  0  0  0  0  0
    0.4978   23.1727  -23.8110 H   0  0  0  0  0  0  0  0  0  0  0  0
    0.1558   25.5961  -23.4623 H   0  0  0  0  0  0  0  0  0  0  0  0
   -1.0206   26.9585  -25.1819 H   0  0  0  0  0  0  0  0  0  0  0  0
   -3.0070   26.0290  -27.5070 H   0  0  0  0  0  0  0  0  0  0  0  0
   -1.6705   24.6080  -29.4386 H   0  0  0  0  0  0  0  0  0  0  0  0
   -0.0468   23.9817  -29.0870 H   0  0  0  0  0  0  0  0  0  0  0  0
   -1.0286   22.9027  -31.1293 H   0  0  0  0  0  0  0  0  0  0  0  0
   -0.7713   21.6987  -29.8069 H   0  0  0  0  0  0  0  0  0  0  0  0
   -5.7115   21.0714  -31.7533 H   0  0  0  0  0  0  0  0  0  0  0  0
  -10.2563   20.0859  -32.9265 H   0  0  0  0  0  0  0  0  0  0  0  0
   -9.3304   18.9848  -33.9494 H   0  0  0  0  0  0  0  0  0  0  0  0
   -9.6800   19.0152  -30.9584 H   0  0  0  0  0  0  0  0  0  0  0  0
   -9.4480   17.6237  -32.0241 H   0  0  0  0  0  0  0  0  0  0  0  0
   -7.4391   19.0943  -30.5162 H   0  0  0  0  0  0  0  0  0  0  0  0
   -7.1537   17.6986  -31.5329 H   0  0  0  0  0  0  0  0  0  0  0  0
   -6.2599   20.2172  -32.1930 H   0  0  0  0  0  0  0  0  0  0  0  0
   -6.7140   19.0575  -33.4556 H   0  0  0  0  0  0  0  0  0  0  0  0
  1  2  2  0
  2  3  2  0
  2  4  1  0
  4  5  2  0
  5  6  1  0
  6  7  2  0
  7  8  1  0
  7  9  1  0
  9 10  1  0
 10 11  1  0
 11 12  1  0
 12 13  1  0
 13 14  1  0
 14 15  1  0
 15 16  2  0
 16 17  1  0
 17 18  2  0
 18 19  1  0
 19 20  2  0
 20 21  1  0
 14 22  1  0
 22 23  1  0
  9 24  2  0
  2 25  1  0
 25 26  1  0
 26 27  1  0
 27 28  1  0
 28 29  1  0
 24  4  1  0
 29 25  1  0
 23 11  1  0
 20 15  1  0
  5 30  1  0
  6 31  1  0
  8 32  1  0
 10 33  1  0
 10 34  1  0
 12 35  1  0
 12 36  1  0
 13 37  1  0
 13 38  1  0
 16 39  1  0
 17 40  1  0
 18 41  1  0
 19 42  1  0
 21 43  1  0
 22 44  1  0
 22 45  1  0
 23 46  1  0
 23 47  1  0
 24 48  1  0
 26 49  1  0
 26 50  1  0
 27 51  1  0
 27 52  1  0
 28 53  1  0
 28 54  1  0
 29 55  1  0
 29 56  1  0
M  END
>  <smiles>  (7) 
O=S(=O)(c1ccc(O)c(CN2CCN(c3ccccc3O)CC2)c1)N1CCCC1

>  <score_type>  (7) 
oracle

>  <origin>  (7) 
adgpu

>  <m_score__min__energy>  (7) 
-10.300000000000001

>  <m_primary>  (7) 
energy

$$$$
7:0
     RDKit          3D

 50 52  0  0  1  0  0  0  0  0999 V2000
   -7.2410   24.1740  -30.8250 C   0  0  0  0  0  0  0  0  0  0  0  0
   -7.5340   22.7080  -30.7690 C   0  0  0  0  0  0  0  0  0  0  0  0
   -7.9470   22.2650  -29.6660 O   0  0  0  0  0  0  0  0  0  0  0  0
   -7.3460   21.8820  -31.9110 N   0  0  0  0  0  0  0  0  0  0  0  0
   -7.6150   20.4560  -31.9130 C   0  0  1  0  0  0  0  0  0  0  0  0
   -8.8660   20.1260  -32.6970 C   0  0  0  0  0  0  0  0  0  0  0  0
   -6.4390   19.7830  -32.5250 C   0  0  0  0  0  0  0  0  0  0  0  0
   -6.4870   19.3530  -33.8480 C   0  0  0  0  0  0  0  0  0  0  0  0
   -5.3970   18.7280  -34.4190 C   0  0  0  0  0  0  0  0  0  0  0  0
   -4.2360   18.5160  -33.6940 C   0  0  0  0  0  0  0  0  0  0  0  0
   -3.0910   17.8380  -34.3570 C   0  0  0  0  0  0  0  0  0  0  0  0
   -1.8280   18.2230  -33.8010 N   0  0  0  0  0  0  0  0  0  0  0  0
   -1.2210   19.4710  -34.1110 C   0  0  0  0  0  0  0  0  0  0  0  0
   -1.6260   20.7820  -33.9900 C   0  0  0  0  0  0  0  0  0  0  0  0
   -2.7360   21.5410  -33.5430 N   0  0  0  0  0  0  0  0  0  0  0  0
   -2.8900   21.9420  -32.1860 C   0  0  0  0  0  0  0  0  0  0  0  0
   -1.9220   21.6150  -31.2600 C   0  0  0  0  0  0  0  0  0  0  0  0
   -2.1270   22.0310  -29.9650 C   0  0  0  0  0  0  0  0  0  0  0  0
   -3.2390   22.7470  -29.5630 C   0  0  0  0  0  0  0  0  0  0  0  0
   -3.4400   23.1740  -28.2060 C   0  0  0  0  0  0  0  0  0  0  0  0
   -3.5980   23.5210  -27.1040 N   0  0  0  0  0  0  0  0  0  0  0  0
   -4.1880   23.0610  -30.4980 C   0  0  0  0  0  0  0  0  0  0  0  0
   -3.9860   22.6460  -31.7980 C   0  0  0  0  0  0  0  0  0  0  0  0
   -4.9520   22.9690  -32.7360 O   0  0  0  0  0  0  0  0  0  0  0  0
   -0.4080   21.1670  -34.5280 C   0  0  0  0  0  0  0  0  0  0  0  0
    0.1820   22.2550  -34.8240 O   0  0  0  0  0  0  0  0  0  0  0  0
   -0.0060   19.8430  -34.6470 C   0  0  0  0  0  0  0  0  0  0  0  0
    1.0380   19.2760  -35.0730 O   0  0  0  0  0  0  0  0  0  0  0  0
   -4.1860   18.9420  -32.3800 C   0  0  0  0  0  0  0  0  0  0  0  0
   -5.2840   19.5730  -31.8000 C   0  0  0  0  0  0  0  0  0  0  0  0
   -7.1616   24.5714  -29.8024 H   0  0  0  0  0  0  0  0  0  0  0  0
   -6.2923   24.3382  -31.3569 H   0  0  0  0  0  0  0  0  0  0  0  0
   -8.0537   24.6903  -31.3569 H   0  0  0  0  0  0  0  0  0  0  0  0
   -6.9970   22.2760  -32.8290 H   0  0  0  0  0  0  0  0  0  0  0  0
   -7.7809   20.1098  -30.8822 H   0  0  0  0  0  0  0  0  0  0  0  0
   -9.6889   19.9089  -32.0001 H   0  0  0  0  0  0  0  0  0  0  0  0
   -9.1385   20.9830  -33.3305 H   0  0  0  0  0  0  0  0  0  0  0  0
   -8.6803   19.2461  -33.3305 H   0  0  0  0  0  0  0  0  0  0  0  0
   -7.3991   19.5123  -34.4419 H   0  0  0  0  0  0  0  0  0  0  0  0
   -5.4511   18.3932  -35.4654 H   0  0  0  0  0  0  0  0  0  0  0  0
   -3.2103   16.7506  -34.2417 H   0  0  0  0  0  0  0  0  0  0  0  0
   -3.0944   18.1356  -35.4160 H   0  0  0  0  0  0  0  0  0  0  0  0
   -1.3610   17.5470  -33.1510 H   0  0  0  0  0  0  0  0  0  0  0  0
   -3.4530   21.8020  -34.2530 H   0  0  0  0  0  0  0  0  0  0  0  0
   -1.0246   21.0460  -31.5446 H   0  0  0  0  0  0  0  0  0  0  0  0
   -1.3668   21.7810  -29.2103 H   0  0  0  0  0  0  0  0  0  0  0  0
   -5.0880   23.6292  -30.2202 H   0  0  0  0  0  0  0  0  0  0  0  0
   -4.7180   22.9840  -33.7090 H   0  0  0  0  0  0  0  0  0  0  0  0
   -3.2727   18.7816  -31.7882 H   0  0  0  0  0  0  0  0  0  0  0  0
   -5.2298   19.9073  -30.7534 H   0  0  0  0  0  0  0  0  0  0  0  0
  1  2  1  0
  2  3  2  0
  2  4  1  0
  4  5  1  0
  5  6  1  0
  5  7  1  0
  7  8  2  0
  8  9  1  0
  9 10  2  0
 10 11  1  0
 11 12  1  0
 12 13  1  0
 13 14  2  0
 14 15  1  0
 15 16  1  0
 16 17  2  0
 17 18  1  0
 18 19  2  0
 19 20  1  0
 20 21  3  0
 19 22  1  0
 22 23  2  0
 23 24  1  0
 14 25  1  0
 25 26  2  0
 25 27  1  0
 27 28  2  0
 10 29  1  0
 29 30  2  0
 30  7  1  0
 27 13  1  0
 23 16  1  0
  1 31  1  0
  1 32  1  0
  1 33  1  0
  4 34  1  0
  5 35  1  1
  6 36  1  0
  6 37  1  0
  6 38  1  0
  8 39  1  0
  9 40  1  0
 11 41  1  0
 11 42  1  0
 12 43  1  0
 15 44  1  0
 17 45  1  0
 18 46  1  0
 22 47  1  0
 24 48  1  0
 29 49  1  0
 30 50  1  0
M  END
>  <smiles>  (8) 
CC(=O)NC(C)c1ccc(CNc2c(Nc3ccc(C#N)cc3O)c(=O)c2=O)cc1

>  <score_type>  (8) 
oracle

>  <origin>  (8) 
adgpu

>  <m_score__min__energy>  (8) 
-9.6799999999999997

>  <m_primary>  (8) 
energy

$$$$
8:0
     RDKit          3D

 55 58  0  0  0  0  0  0  0  0999 V2000
   -0.8530   18.3110  -27.8390 C   0  0  0  0  0  0  0  0  0  0  0  0
   -0.7320   19.6580  -27.4470 N   0  0  0  0  0  0  0  0  0  0  0  0
    0.4130   20.3590  -27.8540 C   0  0  0  0  0  0  0  0  0  0  0  0
    0.4640   21.8010  -27.4400 C   0  0  0  0  0  0  0  0  0  0  0  0
   -0.8300   22.4970  -27.7400 C   0  0  0  0  0  0  0  0  0  0  0  0
   -0.8700   23.7900  -28.2140 C   0  0  0  0  0  0  0  0  0  0  0  0
   -2.0870   24.3920  -28.4700 C   0  0  0  0  0  0  0  0  0  0  0  0
   -2.2130   25.6910  -28.9480 O   0  0  0  0  0  0  0  0  0  0  0  0
   -3.2490   23.6690  -28.2410 C   0  0  0  0  0  0  0  0  0  0  0  0
   -4.5350   24.2500  -28.5200 N   0  0  0  0  0  0  0  0  0  0  0  0
   -4.9960   24.7820  -30.0830 S   0  0  0  0  0  0  0  0  0  0  0  0
   -6.0330   25.8660  -29.9100 O   0  0  0  0  0  0  0  0  0  0  0  0
   -3.8470   25.3830  -30.8310 O   0  0  0  0  0  0  0  0  0  0  0  0
   -5.7120   23.4220  -30.9100 C   0  0  0  0  0  0  0  0  0  0  0  0
   -4.8790   22.3860  -31.2690 C   0  0  0  0  0  0  0  0  0  0  0  0
   -5.2860   21.2520  -31.9210 C   0  0  0  0  0  0  0  0  0  0  0  0
   -6.6360   21.1460  -32.2400 C   0  0  0  0  0  0  0  0  0  0  0  0
   -7.1520   19.7000  -33.0640 S   0  0  0  0  0  0  0  0  0  0  0  0
   -6.6310   19.7740  -34.4890 O   0  0  0  0  0  0  0  0  0  0  0  0
   -8.6690   19.7180  -33.0960 O   0  0  0  0  0  0  0  0  0  0  0  0
   -6.5720   18.2810  -32.3050 N   0  0  0  0  0  0  0  0  0  0  0  0
   -5.1950   18.0600  -32.6550 C   0  0  0  0  0  0  0  0  0  0  0  0
   -5.1890   17.3810  -34.0000 C   0  0  0  0  0  0  0  0  0  0  0  0
   -6.5040   16.6480  -34.0030 C   0  0  0  0  0  0  0  0  0  0  0  0
   -7.2330   17.0880  -32.7700 C   0  0  0  0  0  0  0  0  0  0  0  0
   -7.4890   22.1750  -31.8880 C   0  0  0  0  0  0  0  0  0  0  0  0
   -7.0410   23.3160  -31.2250 C   0  0  0  0  0  0  0  0  0  0  0  0
   -3.1760   22.3720  -27.7650 C   0  0  0  0  0  0  0  0  0  0  0  0
   -1.9760   21.7440  -27.4990 C   0  0  0  0  0  0  0  0  0  0  0  0
   -1.8710   20.3550  -27.0070 C   0  0  0  0  0  0  0  0  0  0  0  0
   -0.9103   17.6727  -26.9450 H   0  0  0  0  0  0  0  0  0  0  0  0
   -1.7661   18.1844  -28.4391 H   0  0  0  0  0  0  0  0  0  0  0  0
    0.0230   18.0237  -28.4391 H   0  0  0  0  0  0  0  0  0  0  0  0
    1.2912   19.8519  -27.4278 H   0  0  0  0  0  0  0  0  0  0  0  0
    0.3944   20.3591  -28.9538 H   0  0  0  0  0  0  0  0  0  0  0  0
    0.6596   21.8573  -26.3590 H   0  0  0  0  0  0  0  0  0  0  0  0
    1.2662   22.2978  -28.0055 H   0  0  0  0  0  0  0  0  0  0  0  0
    0.0653   24.3421  -28.3883 H   0  0  0  0  0  0  0  0  0  0  0  0
   -3.0790   26.0530  -29.3440 H   0  0  0  0  0  0  0  0  0  0  0  0
   -5.1700   24.3220  -27.6900 H   0  0  0  0  0  0  0  0  0  0  0  0
   -3.8126   22.4751  -31.0146 H   0  0  0  0  0  0  0  0  0  0  0  0
   -4.5730   20.4561  -32.1822 H   0  0  0  0  0  0  0  0  0  0  0  0
   -4.6608   19.0198  -32.7134 H   0  0  0  0  0  0  0  0  0  0  0  0
   -4.6910   17.4402  -31.8987 H   0  0  0  0  0  0  0  0  0  0  0  0
   -5.1426   18.1169  -34.8163 H   0  0  0  0  0  0  0  0  0  0  0  0
   -4.3209   16.7233  -34.1545 H   0  0  0  0  0  0  0  0  0  0  0  0
   -7.0832   16.9082  -34.9013 H   0  0  0  0  0  0  0  0  0  0  0  0
   -6.3545   15.5582  -34.0118 H   0  0  0  0  0  0  0  0  0  0  0  0
   -8.2848   17.3050  -33.0080 H   0  0  0  0  0  0  0  0  0  0  0  0
   -7.2212   16.3022  -32.0004 H   0  0  0  0  0  0  0  0  0  0  0  0
   -8.5565   22.0906  -32.1394 H   0  0  0  0  0  0  0  0  0  0  0  0
   -7.7438   24.1192  -30.9587 H   0  0  0  0  0  0  0  0  0  0  0  0
   -4.1112   21.8194  -27.5917 H   0  0  0  0  0  0  0  0  0  0  0  0
   -1.8521   20.3820  -25.9075 H   0  0  0  0  0  0  0  0  0  0  0  0
   -2.7397   19.8162  -27.4132 H   0  0  0  0  0  0  0  0  0  0  0  0
  1  2  1  0
  2  3  1  0
  3  4  1  0
  4  5  1  0
  5  6  2  0
  6  7  1  0
  7  8  1  0
  7  9  2  0
  9 10  1  0
 10 11  1  0
 11 12  2  0
 11 13  2  0
 11 14  1  0
 14 15  2  0
 15 16  1  0
 16 17  2  0
 17 18  1  0
 18 19  2  0
 18 20  2  0
 18 21  1  0
 21 22  1  0
 22 23  1  0
 23 24  1  0
 24 25  1  0
 17 26  1  0
 26 27  2  0
  9 28  1  0
 28 29  2  0
 29 30  1  0
 30  2  1  0
 29  5  1  0
 27 14  1  0
 25 21  1  0
  1 31  1  0
  1 32  1  0
  1 33  1  0
  3 34  1  0
  3 35  1  0
  4 36  1  0
  4 37  1  0
  6 38  1  0
  8 39  1  0
 10 40  1  0
 15 41  1  0
 16 42  1  0
 22 43  1  0
 22 44  1  0
 23 45  1  0
 23 46  1  0
 24 47  1  0
 24 48  1  0
 25 49  1  0
 25 50  1  0
 26 51  1  0
 27 52  1  0
 28 53  1  0
 30 54  1  0
 30 55  1  0
M  END
>  <smiles>  (9) 
CN1CCc2cc(O)c(NS(=O)(=O)c3ccc(S(=O)(=O)N4CCCC4)cc3)cc2C1

>  <score_type>  (9) 
oracle

>  <origin>  (9) 
adgpu

>  <m_score__min__energy>  (9) 
-12.33

>  <m_primary>  (9) 
energy

$$$$
9:0
     RDKit          3D

 50 53  0  0  1  0  0  0  0  0999 V2000
   -6.5490   18.5040  -31.6550 C   0  0  0  0  0  0  0  0  0  0  0  0
   -7.1190   18.9630  -32.9760 C   0  0  2  0  0  0  0  0  0  0  0  0
   -6.0250   19.5250  -33.8390 C   0  0  0  0  0  0  0  0  0  0  0  0
   -5.3630   20.6290  -33.1690 N   0  0  0  0  0  0  0  0  0  0  0  0
   -6.1300   21.4740  -32.3200 C   0  0  0  0  0  0  0  0  0  0  0  0
   -5.5220   22.5550  -31.7290 C   0  0  0  0  0  0  0  0  0  0  0  0
   -6.2390   23.4130  -30.8850 C   0  0  0  0  0  0  0  0  0  0  0  0
   -5.3690   24.7420  -30.1880 S   0  0  0  0  0  0  0  0  0  0  0  0
   -6.3210   25.8820  -29.9930 O   0  0  0  0  0  0  0  0  0  0  0  0
   -4.2530   25.1720  -31.1260 O   0  0  0  0  0  0  0  0  0  0  0  0
   -4.7520   24.2700  -28.6650 N   0  0  0  0  0  0  0  0  0  0  0  0
   -3.5980   23.4670  -28.4730 C   0  0  0  0  0  0  0  0  0  0  0  0
   -3.6320   22.1880  -27.9610 C   0  0  0  0  0  0  0  0  0  0  0  0
   -2.5160   21.4030  -27.7810 C   0  0  0  0  0  0  0  0  0  0  0  0
   -1.2660   21.8840  -28.1210 C   0  0  0  0  0  0  0  0  0  0  0  0
   -1.2070   23.1610  -28.6350 C   0  0  0  0  0  0  0  0  0  0  0  0
   -2.3270   23.9470  -28.8140 C   0  0  0  0  0  0  0  0  0  0  0  0
   -2.2620   25.2240  -29.3280 O   0  0  0  0  0  0  0  0  0  0  0  0
   -0.0190   21.1040  -27.9600 C   0  0  0  0  0  0  0  0  0  0  0  0
   -0.3990   19.6420  -27.8000 C   0  0  0  0  0  0  0  0  0  0  0  0
   -1.3920   19.6050  -26.6410 C   0  0  0  0  0  0  0  0  0  0  0  0
   -2.7250   20.0380  -27.2140 C   0  0  0  0  0  0  0  0  0  0  0  0
   -7.5480   23.1230  -30.6850 C   0  0  0  0  0  0  0  0  0  0  0  0
   -8.1890   22.0380  -31.2700 C   0  0  0  0  0  0  0  0  0  0  0  0
   -7.4630   21.1910  -32.1080 C   0  0  0  0  0  0  0  0  0  0  0  0
   -8.1580   20.0310  -32.7310 C   0  0  0  0  0  0  0  0  0  0  0  0
   -7.1172   18.9615  -30.8317 H   0  0  0  0  0  0  0  0  0  0  0  0
   -6.6206   17.4085  -31.5856 H   0  0  0  0  0  0  0  0  0  0  0  0
   -5.4940   18.8076  -31.5856 H   0  0  0  0  0  0  0  0  0  0  0  0
   -7.5800   18.1047  -33.4867 H   0  0  0  0  0  0  0  0  0  0  0  0
   -5.2885   18.7355  -34.0491 H   0  0  0  0  0  0  0  0  0  0  0  0
   -6.4664   19.8925  -34.7771 H   0  0  0  0  0  0  0  0  0  0  0  0
   -4.3490   20.8170  -33.2930 H   0  0  0  0  0  0  0  0  0  0  0  0
   -4.4566   22.7497  -31.9213 H   0  0  0  0  0  0  0  0  0  0  0  0
   -5.2410   24.5810  -27.7720 H   0  0  0  0  0  0  0  0  0  0  0  0
   -4.6095   21.7695  -27.6794 H   0  0  0  0  0  0  0  0  0  0  0  0
   -0.2254   23.5714  -28.9145 H   0  0  0  0  0  0  0  0  0  0  0  0
   -3.0520   25.7120  -29.7290 H   0  0  0  0  0  0  0  0  0  0  0  0
    0.6175   21.2295  -28.8484 H   0  0  0  0  0  0  0  0  0  0  0  0
    0.5397   21.4529  -27.0790 H   0  0  0  0  0  0  0  0  0  0  0  0
   -0.8676   19.2633  -28.7203 H   0  0  0  0  0  0  0  0  0  0  0  0
    0.4801   19.0101  -27.6055 H   0  0  0  0  0  0  0  0  0  0  0  0
   -1.4649   18.5859  -26.2335 H   0  0  0  0  0  0  0  0  0  0  0  0
   -1.0750   20.2647  -25.8198 H   0  0  0  0  0  0  0  0  0  0  0  0
   -3.0435   19.3423  -28.0043 H   0  0  0  0  0  0  0  0  0  0  0  0
   -3.5087   20.0423  -26.4421 H   0  0  0  0  0  0  0  0  0  0  0  0
   -8.1330   23.7808  -30.0254 H   0  0  0  0  0  0  0  0  0  0  0  0
   -9.2550   21.8492  -31.0750 H   0  0  0  0  0  0  0  0  0  0  0  0
   -8.9364   19.6504  -32.0533 H   0  0  0  0  0  0  0  0  0  0  0  0
   -8.6413   20.3273  -33.6736 H   0  0  0  0  0  0  0  0  0  0  0  0
  1  2  1  0
  2  3  1  0
  3  4  1  0
  4  5  1  0
  5  6  2  0
  6  7  1  0
  7  8  1  0
  8  9  2  0
  8 10  2  0
  8 11  1  0
 11 12  1  0
 12 13  2  0
 13 14  1  0
 14 15  2  0
 15 16  1  0
 16 17  2  0
 17 18  1  0
 15 19  1  0
 19 20  1  0
 20 21  1  0
 21 22  1  0
  7 23  2  0
 23 24  1  0
 24 25  2  0
 25 26  1  0
 26  2  1  0
 25  5  1  0
 17 12  1  0
 22 14  1  0
  1 27  1  0
  1 28  1  0
  1 29  1  0
  2 30  1  6
  3 31  1  0
  3 32  1  0
  4 33  1  0
  6 34  1  0
 11 35  1  0
 13 36  1  0
 16 37  1  0
 18 38  1  0
 19 39  1  0
 19 40  1  0
 20 41  1  0
 20 42  1  0
 21 43  1  0
 21 44  1  0
 22 45  1  0
 22 46  1  0
 23 47  1  0
 24 48  1  0
 26 49  1  0
 26 50  1  0
M  END
>  <smiles>  (10) 
CC1CNc2cc(S(=O)(=O)Nc3cc4c(cc3O)CCCC4)ccc2C1

>  <score_type>  (10) 
oracle

>  <origin>  (10) 
adgpu

>  <m_score__min__energy>  (10) 
-12.27

>  <m_primary>  (10) 
energy

$$$$
10:0
     RDKit          3D

 71 74  0  0  1  0  0  0  0  0999 V2000
    0.8700   30.3440  -26.4520 C   0  0  0  0  0  0  0  0  0  0  0  0
    1.2030   29.2800  -25.4010 C   0  0  0  0  0  0  0  0  0  0  0  0
   -0.2510   28.4950  -24.8030 S   0  0  0  0  0  0  0  0  0  0  0  0
    0.0580   27.9060  -23.4560 O   0  0  0  0  0  0  0  0  0  0  0  0
   -1.3290   29.5330  -24.6240 O   0  0  0  0  0  0  0  0  0  0  0  0
   -0.8540   27.2660  -25.8990 C   0  0  0  0  0  0  0  0  0  0  0  0
   -0.4170   27.3100  -27.1990 C   0  0  0  0  0  0  0  0  0  0  0  0
   -0.8830   26.3420  -28.0880 C   0  0  0  0  0  0  0  0  0  0  0  0
   -1.7560   25.3520  -27.7160 C   0  0  0  0  0  0  0  0  0  0  0  0
   -2.1840   24.3920  -28.7150 C   0  0  0  0  0  0  0  0  0  0  0  0
   -2.8400   24.8330  -29.6940 O   0  0  0  0  0  0  0  0  0  0  0  0
   -1.9100   23.0060  -28.6510 N   0  0  0  0  0  0  0  0  0  0  0  0
   -2.4010   22.1890  -29.7090 C   0  0  0  0  0  0  0  0  0  0  0  0
   -1.6590   21.0700  -30.0240 C   0  0  0  0  0  0  0  0  0  0  0  0
   -2.1100   20.2640  -31.0450 C   0  0  0  0  0  0  0  0  0  0  0  0
   -3.2840   20.5510  -31.7560 C   0  0  0  0  0  0  0  0  0  0  0  0
   -3.6260   19.6230  -32.7650 N   0  0  0  0  0  0  0  0  0  0  0  0
   -2.9580   19.4830  -34.0370 C   0  0  0  0  0  0  0  0  0  0  0  0
   -2.7360   18.0270  -34.3920 C   0  0  0  0  0  0  0  0  0  0  0  0
   -4.1290   17.4370  -34.5900 C   0  0  0  0  0  0  0  0  0  0  0  0
   -5.2040   18.2210  -33.8780 C   0  0  0  0  0  0  0  0  0  0  0  0
   -4.7470   18.7100  -32.5210 C   0  0  0  0  0  0  0  0  0  0  0  0
   -4.0250   21.6680  -31.4410 C   0  0  0  0  0  0  0  0  0  0  0  0
   -5.4880   22.0660  -32.3080 S   0  0  0  0  0  0  0  0  0  0  0  0
   -5.4000   23.5120  -32.7090 O   0  0  0  0  0  0  0  0  0  0  0  0
   -5.7480   21.1550  -33.4760 O   0  0  0  0  0  0  0  0  0  0  0  0
   -6.8720   21.8940  -31.2860 N   0  0  0  0  0  0  0  0  0  0  0  0
   -7.7840   22.9530  -31.3110 C   0  0  0  0  0  0  0  0  0  0  0  0
   -9.1150   22.6550  -31.9550 C   0  0  0  0  0  0  0  0  0  0  0  0
   -9.6990   21.5010  -31.1530 C   0  0  0  0  0  0  0  0  0  0  0  0
   -8.8060   20.3360  -31.4500 C   0  0  1  0  0  0  0  0  0  0  0  0
   -9.1470   19.9080  -32.8850 C   0  0  0  0  0  0  0  0  0  0  0  0
   -7.3580   20.5680  -31.3170 C   0  0  0  0  0  0  0  0  0  0  0  0
   -3.5610   22.4840  -30.4030 C   0  0  0  0  0  0  0  0  0  0  0  0
   -2.1770   25.3330  -26.4030 C   0  0  0  0  0  0  0  0  0  0  0  0
   -1.7380   26.2780  -25.4810 C   0  0  0  0  0  0  0  0  0  0  0  0
    0.5778   31.2775  -25.9489 H   0  0  0  0  0  0  0  0  0  0  0  0
    1.7537   30.5274  -27.0808 H   0  0  0  0  0  0  0  0  0  0  0  0
    0.0394   29.9909  -27.0808 H   0  0  0  0  0  0  0  0  0  0  0  0
    1.8588   28.5220  -25.8540 H   0  0  0  0  0  0  0  0  0  0  0  0
    1.7040   29.7731  -24.5549 H   0  0  0  0  0  0  0  0  0  0  0  0
    0.2838   28.0898  -27.5317 H   0  0  0  0  0  0  0  0  0  0  0  0
   -0.5358   26.3738  -29.1313 H   0  0  0  0  0  0  0  0  0  0  0  0
   -1.3660   22.6360  -27.8410 H   0  0  0  0  0  0  0  0  0  0  0  0
   -0.7358   20.8290  -29.4767 H   0  0  0  0  0  0  0  0  0  0  0  0
   -1.5314   19.3671  -31.3112 H   0  0  0  0  0  0  0  0  0  0  0  0
   -3.5753   19.9509  -34.8180 H   0  0  0  0  0  0  0  0  0  0  0  0
   -1.9762   19.9739  -33.9663 H   0  0  0  0  0  0  0  0  0  0  0  0
   -2.1480   17.9427  -35.3178 H   0  0  0  0  0  0  0  0  0  0  0  0
   -2.1768   17.4969  -33.6069 H   0  0  0  0  0  0  0  0  0  0  0  0
   -4.3563   17.4266  -35.6662 H   0  0  0  0  0  0  0  0  0  0  0  0
   -4.1222   16.4229  -34.1639 H   0  0  0  0  0  0  0  0  0  0  0  0
   -5.4768   19.0900  -34.4948 H   0  0  0  0  0  0  0  0  0  0  0  0
   -6.0652   17.5539  -33.7255 H   0  0  0  0  0  0  0  0  0  0  0  0
   -5.5656   19.2403  -32.0124 H   0  0  0  0  0  0  0  0  0  0  0  0
   -4.4448   17.8715  -31.8764 H   0  0  0  0  0  0  0  0  0  0  0  0
   -7.9727   23.2611  -30.2720 H   0  0  0  0  0  0  0  0  0  0  0  0
   -7.3194   23.7342  -31.9306 H   0  0  0  0  0  0  0  0  0  0  0  0
   -9.7743   23.5339  -31.9018 H   0  0  0  0  0  0  0  0  0  0  0  0
   -9.0080   22.4018  -33.0201 H   0  0  0  0  0  0  0  0  0  0  0  0
   -9.6887   21.7325  -30.0777 H   0  0  0  0  0  0  0  0  0  0  0  0
  -10.7468   21.2989  -31.4201 H   0  0  0  0  0  0  0  0  0  0  0  0
   -9.0000   19.5639  -30.6909 H   0  0  0  0  0  0  0  0  0  0  0  0
   -9.8322   19.0479  -32.8581 H   0  0  0  0  0  0  0  0  0  0  0  0
   -9.6289   20.7444  -33.4124 H   0  0  0  0  0  0  0  0  0  0  0  0
   -8.2240   19.6251  -33.4124 H   0  0  0  0  0  0  0  0  0  0  0  0
   -7.0404   20.0874  -30.3799 H   0  0  0  0  0  0  0  0  0  0  0  0
   -6.9410   20.1585  -32.2489 H   0  0  0  0  0  0  0  0  0  0  0  0
   -4.1335   23.3833  -30.1318 H   0  0  0  0  0  0  0  0  0  0  0  0
   -2.8779   24.5507  -26.0762 H   0  0  0  0  0  0  0  0  0  0  0  0
   -2.0850   26.2438  -24.4377 H   0  0  0  0  0  0  0  0  0  0  0  0
  1  2  1  0
  2  3  1  0
  3  4  2  0
  3  5  2  0
  3  6  1  0
  6  7  2  0
  7  8  1  0
  8  9  2  0
  9 10  1  0
 10 11  2  0
 10 12  1  0
 12 13  1  0
 13 14  2  0
 14 15  1  0
 15 16  2  0
 16 17  1  0
 17 18  1  0
 18 19  1  0
 19 20  1  0
 20 21  1  0
 21 22  1  0
 16 23  1  0
 23 24  1  0
 24 25  2  0
 24 26  2  0
 24 27  1  0
 27 28  1  0
 28 29  1  0
 29 30  1  0
 30 31  1  0
 31 32  1  0
 31 33  1  0
 23 34  2  0
  9 35  1  0
 35 36  2  0
 36  6  1  0
 34 13  1  0
 22 17  1  0
 33 27  1  0
  1 37  1  0
  1 38  1  0
  1 39  1  0
  2 40  1  0
  2 41  1  0
  7 42  1  0
  8 43  1  0
 12 44  1  0
 14 45  1  0
 15 46  1  0
 18 47  1  0
 18 48  1  0
 19 49  1  0
 19 50  1  0
 20 51  1  0
 20 52  1  0
 21 53  1  0
 21 54  1  0
 22 55  1  0
 22 56  1  0
 28 57  1  0
 28 58  1  0
 29 59  1  0
 29 60  1  0
 30 61  1  0
 30 62  1  0
 31 63  1  1
 32 64  1  0
 32 65  1  0
 32 66  1  0
 33 67  1  0
 33 68  1  0
 34 69  1  0
 35 70  1  0
 36 71  1  0
M  END
>  <smiles>  (11) 
CCS(=O)(=O)c1ccc(C(=O)Nc2ccc(N3CCCCC3)c(S(=O)(=O)N3CCCC(C)C3)c2)cc1

>  <score_type>  (11) 
oracle

>  <origin>  (11) 
adgpu

>  <m_score__min__energy>  (11) 
-10.23

>  <m_primary>  (11) 
energy

$$$$
11:0
     RDKit          3D

 51 54  0  0  0  0  0  0  0  0999 V2000
   -5.4200   25.6510  -30.1780 C   0  0  0  0  0  0  0  0  0  0  0  0
   -5.1180   24.3130  -30.7120 N   0  0  0  0  0  0  0  0  0  0  0  0
   -3.9040   23.8370  -30.4370 C   0  0  0  0  0  0  0  0  0  0  0  0
   -3.0740   24.4840  -29.7670 O   0  0  0  0  0  0  0  0  0  0  0  0
   -3.6370   22.5630  -30.9520 C   0  0  0  0  0  0  0  0  0  0  0  0
   -4.5940   21.8920  -31.6860 C   0  0  0  0  0  0  0  0  0  0  0  0
   -5.8160   22.3910  -31.9530 N   0  0  0  0  0  0  0  0  0  0  0  0
   -6.8630   21.8380  -32.7150 C   0  0  0  0  0  0  0  0  0  0  0  0
   -7.3810   20.4860  -32.5080 C   0  0  0  0  0  0  0  0  0  0  0  0
   -6.9130   19.3620  -33.2080 C   0  0  0  0  0  0  0  0  0  0  0  0
   -6.0370   19.4670  -34.2390 F   0  0  0  0  0  0  0  0  0  0  0  0
   -7.3620   18.0790  -32.9640 C   0  0  0  0  0  0  0  0  0  0  0  0
   -8.3070   17.8080  -32.0140 C   0  0  0  0  0  0  0  0  0  0  0  0
   -8.7970   18.8800  -31.3070 C   0  0  0  0  0  0  0  0  0  0  0  0
   -8.3540   20.1900  -31.5370 C   0  0  0  0  0  0  0  0  0  0  0  0
   -8.9510   21.1200  -30.7780 F   0  0  0  0  0  0  0  0  0  0  0  0
   -6.0370   23.6510  -31.4260 C   0  0  0  0  0  0  0  0  0  0  0  0
   -7.1260   24.2530  -31.5950 O   0  0  0  0  0  0  0  0  0  0  0  0
   -4.2350   20.5570  -32.2030 C   0  0  0  0  0  0  0  0  0  0  0  0
   -2.7450   20.3110  -32.2400 C   0  0  0  0  0  0  0  0  0  0  0  0
   -2.0510   20.7380  -31.0900 N   0  0  0  0  0  0  0  0  0  0  0  0
   -0.6630   20.4210  -31.1850 C   0  0  0  0  0  0  0  0  0  0  0  0
   -0.1300   20.4100  -32.5770 C   0  0  0  0  0  0  0  0  0  0  0  0
    0.3980   19.2490  -33.1110 C   0  0  0  0  0  0  0  0  0  0  0  0
    0.8670   19.2210  -34.3880 C   0  0  0  0  0  0  0  0  0  0  0  0
    0.8340   20.3390  -35.1880 C   0  0  0  0  0  0  0  0  0  0  0  0
    0.3150   21.5070  -34.6860 C   0  0  0  0  0  0  0  0  0  0  0  0
    0.2800   22.6280  -35.4850 O   0  0  0  0  0  0  0  0  0  0  0  0
   -0.1700   21.5440  -33.3760 C   0  0  0  0  0  0  0  0  0  0  0  0
   -2.2800   22.0420  -30.6410 C   0  0  0  0  0  0  0  0  0  0  0  0
   -5.4124   25.6173  -29.0785 H   0  0  0  0  0  0  0  0  0  0  0  0
   -4.6605   26.3656  -30.5282 H   0  0  0  0  0  0  0  0  0  0  0  0
   -6.4128   25.9701  -30.5282 H   0  0  0  0  0  0  0  0  0  0  0  0
   -7.7213   22.5131  -32.5824 H   0  0  0  0  0  0  0  0  0  0  0  0
   -6.3837   21.7374  -33.7000 H   0  0  0  0  0  0  0  0  0  0  0  0
   -6.9459   17.2484  -33.5530 H   0  0  0  0  0  0  0  0  0  0  0  0
   -8.6578   16.7828  -31.8248 H   0  0  0  0  0  0  0  0  0  0  0  0
   -9.5615   18.7044  -30.5358 H   0  0  0  0  0  0  0  0  0  0  0  0
   -4.6984   19.7964  -31.5574 H   0  0  0  0  0  0  0  0  0  0  0  0
   -4.6003   20.5000  -33.2390 H   0  0  0  0  0  0  0  0  0  0  0  0
   -2.5786   19.2303  -32.3596 H   0  0  0  0  0  0  0  0  0  0  0  0
   -2.3520   20.9036  -33.0792 H   0  0  0  0  0  0  0  0  0  0  0  0
   -0.0989   21.1670  -30.6060 H   0  0  0  0  0  0  0  0  0  0  0  0
   -0.5459   19.3992  -30.7949 H   0  0  0  0  0  0  0  0  0  0  0  0
    0.4394   18.3376  -32.4965 H   0  0  0  0  0  0  0  0  0  0  0  0
    1.2813   18.2842  -34.7889 H   0  0  0  0  0  0  0  0  0  0  0  0
    1.2187   20.2982  -36.2177 H   0  0  0  0  0  0  0  0  0  0  0  0
   -0.6110   22.9730  -35.8460 H   0  0  0  0  0  0  0  0  0  0  0  0
   -0.5869   22.4796  -32.9748 H   0  0  0  0  0  0  0  0  0  0  0  0
   -2.1452   22.0599  -29.5494 H   0  0  0  0  0  0  0  0  0  0  0  0
   -1.5639   22.6889  -31.1690 H   0  0  0  0  0  0  0  0  0  0  0  0
  1  2  1  0
  2  3  1  0
  3  4  2  0
  3  5  1  0
  5  6  2  0
  6  7  1  0
  7  8  1  0
  8  9  1  0
  9 10  2  0
 10 11  1  0
 10 12  1  0
 12 13  2  0
 13 14  1  0
 14 15  2  0
 15 16  1  0
  7 17  1  0
 17 18  2  0
  6 19  1  0
 19 20  1  0
 20 21  1  0
 21 22  1  0
 22 23  1  0
 23 24  2  0
 24 25  1  0
 25 26  2  0
 26 27  1  0
 27 28  1  0
 27 29  2  0
 21 30  1  0
 17  2  1  0
 29 23  1  0
 30  5  1  0
 15  9  1  0
  1 31  1  0
  1 32  1  0
  1 33  1  0
  8 34  1  0
  8 35  1  0
 12 36  1  0
 13 37  1  0
 14 38  1  0
 19 39  1  0
 19 40  1  0
 20 41  1  0
 20 42  1  0
 22 43  1  0
 22 44  1  0
 24 45  1  0
 25 46  1  0
 26 47  1  0
 28 48  1  0
 29 49  1  0
 30 50  1  0
 30 51  1  0
M  END
>  <smiles>  (12) 
Cn1c(=O)c2c(n(Cc3c(F)cccc3F)c1=O)CCN(Cc1cccc(O)c1)C2

>  <score_type>  (12) 
oracle

>  <origin>  (12) 
adgpu

>  <m_score__min__energy>  (12) 
-9.3000000000000007

>  <m_primary>  (12) 
energy

$$$$
12:0
     RDKit          3D

 45 48  0  0  0  0  0  0  0  0999 V2000
   -1.2860   20.4450  -26.8200 C   0  0  0  0  0  0  0  0  0  0  0  0
   -1.3610   21.7660  -27.4260 N   0  0  0  0  0  0  0  0  0  0  0  0
   -0.2330   22.6200  -27.5820 C   0  0  0  0  0  0  0  0  0  0  0  0
    0.9390   22.3560  -27.2290 O   0  0  0  0  0  0  0  0  0  0  0  0
   -0.7350   23.8460  -28.2310 C   0  0  0  0  0  0  0  0  0  0  0  0
   -0.0220   24.8180  -28.5230 O   0  0  0  0  0  0  0  0  0  0  0  0
   -2.1740   23.6510  -28.4310 C   0  0  0  0  0  0  0  0  0  0  0  0
   -3.1470   24.4700  -28.9910 C   0  0  0  0  0  0  0  0  0  0  0  0
   -4.4660   24.1070  -29.0930 C   0  0  0  0  0  0  0  0  0  0  0  0
   -5.7070   25.1110  -29.7980 S   0  0  0  0  0  0  0  0  0  0  0  0
   -6.2430   25.9910  -28.6850 O   0  0  0  0  0  0  0  0  0  0  0  0
   -5.1360   26.0400  -30.8330 O   0  0  0  0  0  0  0  0  0  0  0  0
   -6.9840   24.1890  -30.4340 N   0  0  0  0  0  0  0  0  0  0  0  0
   -6.8480   22.9580  -31.1260 C   0  0  0  0  0  0  0  0  0  0  0  0
   -7.7940   21.9520  -31.0880 C   0  0  0  0  0  0  0  0  0  0  0  0
   -7.6300   20.7600  -31.7660 C   0  0  0  0  0  0  0  0  0  0  0  0
   -6.4960   20.5210  -32.5220 C   0  0  0  0  0  0  0  0  0  0  0  0
   -5.5520   21.4990  -32.5730 C   0  0  0  0  0  0  0  0  0  0  0  0
   -5.7160   22.6750  -31.9030 C   0  0  0  0  0  0  0  0  0  0  0  0
   -4.7350   23.6750  -31.9630 O   0  0  0  0  0  0  0  0  0  0  0  0
   -6.2610   19.2700  -33.2710 C   0  0  0  0  0  0  0  0  0  0  0  0
   -6.8890   18.1580  -32.4230 C   0  0  0  0  0  0  0  0  0  0  0  0
   -8.3590   18.4460  -32.3130 C   0  0  0  0  0  0  0  0  0  0  0  0
   -8.6990   19.7340  -31.6690 C   0  0  0  0  0  0  0  0  0  0  0  0
   -4.8160   22.8510  -28.6020 C   0  0  0  0  0  0  0  0  0  0  0  0
   -3.8610   22.0200  -28.0390 C   0  0  0  0  0  0  0  0  0  0  0  0
   -2.5340   22.3970  -27.9420 C   0  0  0  0  0  0  0  0  0  0  0  0
   -1.2916   20.5433  -25.7244 H   0  0  0  0  0  0  0  0  0  0  0  0
   -2.1516   19.8457  -27.1388 H   0  0  0  0  0  0  0  0  0  0  0  0
   -0.3582   19.9475  -27.1388 H   0  0  0  0  0  0  0  0  0  0  0  0
   -2.8449   25.4571  -29.3709 H   0  0  0  0  0  0  0  0  0  0  0  0
   -7.9880   24.5320  -30.3260 H   0  0  0  0  0  0  0  0  0  0  0  0
   -8.7093   22.1056  -30.4975 H   0  0  0  0  0  0  0  0  0  0  0  0
   -4.6394   21.3381  -33.1658 H   0  0  0  0  0  0  0  0  0  0  0  0
   -4.9650   24.5810  -32.3340 H   0  0  0  0  0  0  0  0  0  0  0  0
   -6.7422   19.3178  -34.2590 H   0  0  0  0  0  0  0  0  0  0  0  0
   -5.1890   19.0941  -33.4437 H   0  0  0  0  0  0  0  0  0  0  0  0
   -6.7330   17.1830  -32.9079 H   0  0  0  0  0  0  0  0  0  0  0  0
   -6.4262   18.1246  -31.4257 H   0  0  0  0  0  0  0  0  0  0  0  0
   -8.7825   18.4502  -33.3282 H   0  0  0  0  0  0  0  0  0  0  0  0
   -8.7780   17.6602  -31.6673 H   0  0  0  0  0  0  0  0  0  0  0  0
   -9.6049   20.1322  -32.1495 H   0  0  0  0  0  0  0  0  0  0  0  0
   -8.8431   19.5256  -30.5986 H   0  0  0  0  0  0  0  0  0  0  0  0
   -5.8619   22.5155  -28.6620 H   0  0  0  0  0  0  0  0  0  0  0  0
   -4.1665   21.0340  -27.6590 H   0  0  0  0  0  0  0  0  0  0  0  0
  1  2  1  0
  2  3  1  0
  3  4  2  0
  3  5  1  0
  5  6  2  0
  5  7  1  0
  7  8  2  0
  8  9  1  0
  9 10  1  0
 10 11  2  0
 10 12  2  0
 10 13  1  0
 13 14  1  0
 14 15  2  0
 15 16  1  0
 16 17  2  0
 17 18  1  0
 18 19  2  0
 19 20  1  0
 17 21  1  0
 21 22  1  0
 22 23  1  0
 23 24  1  0
  9 25  2  0
 25 26  1  0
 26 27  2  0
 27  2  1  0
 27  7  1  0
 19 14  1  0
 24 16  1  0
  1 28  1  0
  1 29  1  0
  1 30  1  0
  8 31  1  0
 13 32  1  0
 15 33  1  0
 18 34  1  0
 20 35  1  0
 21 36  1  0
 21 37  1  0
 22 38  1  0
 22 39  1  0
 23 40  1  0
 23 41  1  0
 24 42  1  0
 24 43  1  0
 25 44  1  0
 26 45  1  0
M  END
>  <smiles>  (13) 
CN1C(=O)C(=O)c2cc(S(=O)(=O)Nc3cc4c(cc3O)CCCC4)ccc21

>  <score_type>  (13) 
oracle

>  <origin>  (13) 
adgpu

>  <m_score__min__energy>  (13) 
-11.76

>  <m_primary>  (13) 
energy

$$$$
13:0
     RDKit          3D

 63 66  0  0  0  0  0  0  0  0999 V2000
   -0.1200   24.1940  -27.7130 C   0  0  0  0  0  0  0  0  0  0  0  0
   -1.5600   24.3550  -28.2150 C   0  0  0  0  0  0  0  0  0  0  0  0
   -1.8480   23.4210  -29.3510 C   0  0  0  0  0  0  0  0  0  0  0  0
   -3.2220   22.8480  -29.3430 C   0  0  0  0  0  0  0  0  0  0  0  0
   -4.2490   23.6480  -28.7800 N   0  0  0  0  0  0  0  0  0  0  0  0
   -5.2110   24.5250  -29.8920 S   0  0  0  0  0  0  0  0  0  0  0  0
   -4.3820   25.3170  -30.8640 O   0  0  0  0  0  0  0  0  0  0  0  0
   -6.1110   25.4500  -29.1390 O   0  0  0  0  0  0  0  0  0  0  0  0
   -6.1340   23.3440  -30.8080 C   0  0  0  0  0  0  0  0  0  0  0  0
   -7.4860   23.3800  -30.9500 C   0  0  0  0  0  0  0  0  0  0  0  0
   -8.1170   22.4050  -31.6840 C   0  0  0  0  0  0  0  0  0  0  0  0
   -7.4330   21.3660  -32.3010 C   0  0  0  0  0  0  0  0  0  0  0  0
   -6.0620   21.3280  -32.1600 C   0  0  0  0  0  0  0  0  0  0  0  0
   -5.2400   20.3180  -32.7260 N   0  0  0  0  0  0  0  0  0  0  0  0
   -4.0800   20.6990  -33.4410 C   0  0  0  0  0  0  0  0  0  0  0  0
   -3.8230   21.9480  -33.5560 O   0  0  0  0  0  0  0  0  0  0  0  0
   -3.1290   19.7760  -34.0750 C   0  0  0  0  0  0  0  0  0  0  0  0
   -1.9860   19.4590  -33.2180 C   0  0  0  0  0  0  0  0  0  0  0  0
   -1.7330   18.2720  -32.6450 N   0  0  0  0  0  0  0  0  0  0  0  0
   -0.6310   18.1000  -31.8500 C   0  0  0  0  0  0  0  0  0  0  0  0
   -0.4080   16.9870  -31.3210 O   0  0  0  0  0  0  0  0  0  0  0  0
    0.2540   19.1190  -31.6050 C   0  0  0  0  0  0  0  0  0  0  0  0
    1.4570   19.0280  -30.7590 C   0  0  0  0  0  0  0  0  0  0  0  0
    1.1400   18.3220  -29.5150 C   0  0  0  0  0  0  0  0  0  0  0  0
    0.1310   18.7920  -28.6940 C   0  0  0  0  0  0  0  0  0  0  0  0
   -0.2100   18.1650  -27.5010 C   0  0  0  0  0  0  0  0  0  0  0  0
    0.4920   17.0390  -27.1420 C   0  0  0  0  0  0  0  0  0  0  0  0
    1.5210   16.5150  -27.9300 C   0  0  0  0  0  0  0  0  0  0  0  0
    1.8060   17.1870  -29.1000 C   0  0  0  0  0  0  0  0  0  0  0  0
   -0.0070   20.3120  -32.1850 N   0  0  0  0  0  0  0  0  0  0  0  0
   -1.0790   20.4910  -32.9640 C   0  0  0  0  0  0  0  0  0  0  0  0
   -1.2760   21.7380  -33.5230 O   0  0  0  0  0  0  0  0  0  0  0  0
   -5.4520   22.3060  -31.4260 C   0  0  0  0  0  0  0  0  0  0  0  0
   -3.9180   24.3420  -27.5840 C   0  0  0  0  0  0  0  0  0  0  0  0
   -2.5330   24.0310  -27.0920 C   0  0  0  0  0  0  0  0  0  0  0  0
   -0.1131   24.1932  -26.6130 H   0  0  0  0  0  0  0  0  0  0  0  0
    0.2932   23.2441  -28.0829 H   0  0  0  0  0  0  0  0  0  0  0  0
    0.4928   25.0292  -28.0829 H   0  0  0  0  0  0  0  0  0  0  0  0
   -1.6782   25.3945  -28.5549 H   0  0  0  0  0  0  0  0  0  0  0  0
   -1.7107   23.9723  -30.2929 H   0  0  0  0  0  0  0  0  0  0  0  0
   -1.1541   22.5741  -29.2447 H   0  0  0  0  0  0  0  0  0  0  0  0
   -3.4998   22.6369  -30.3862 H   0  0  0  0  0  0  0  0  0  0  0  0
   -3.1593   21.9633  -28.6923 H   0  0  0  0  0  0  0  0  0  0  0  0
   -8.0707   24.1846  -30.4802 H   0  0  0  0  0  0  0  0  0  0  0  0
   -9.2112   22.4494  -31.7874 H   0  0  0  0  0  0  0  0  0  0  0  0
   -7.9666   20.5996  -32.8823 H   0  0  0  0  0  0  0  0  0  0  0  0
   -5.4590   19.3070  -32.6350 H   0  0  0  0  0  0  0  0  0  0  0  0
   -3.6557   18.8413  -34.3177 H   0  0  0  0  0  0  0  0  0  0  0  0
   -2.7387   20.2716  -34.9761 H   0  0  0  0  0  0  0  0  0  0  0  0
   -2.4050   17.4970  -32.8320 H   0  0  0  0  0  0  0  0  0  0  0  0
    2.2424   18.4795  -31.2996 H   0  0  0  0  0  0  0  0  0  0  0  0
    1.8090   20.0424  -30.5199 H   0  0  0  0  0  0  0  0  0  0  0  0
   -0.4214   19.6941  -28.9958 H   0  0  0  0  0  0  0  0  0  0  0  0
   -1.0164   18.5577  -26.8642 H   0  0  0  0  0  0  0  0  0  0  0  0
    0.2347   16.5318  -26.2004 H   0  0  0  0  0  0  0  0  0  0  0  0
    2.0751   15.6127  -27.6320 H   0  0  0  0  0  0  0  0  0  0  0  0
    2.6109   16.7956  -29.7395 H   0  0  0  0  0  0  0  0  0  0  0  0
   -1.9880   21.9380  -34.2170 H   0  0  0  0  0  0  0  0  0  0  0  0
   -4.3579   22.2680  -31.3191 H   0  0  0  0  0  0  0  0  0  0  0  0
   -3.9883   25.4231  -27.7746 H   0  0  0  0  0  0  0  0  0  0  0  0
   -4.6253   24.0165  -26.8069 H   0  0  0  0  0  0  0  0  0  0  0  0
   -2.3028   24.6442  -26.2083 H   0  0  0  0  0  0  0  0  0  0  0  0
   -2.4540   22.9714  -26.8074 H   0  0  0  0  0  0  0  0  0  0  0  0
  1  2  1  0
  2  3  1  0
  3  4  1  0
  4  5  1  0
  5  6  1  0
  6  7  2  0
  6  8  2  0
  6  9  1  0
  9 10  2  0
 10 11  1  0
 11 12  2  0
 12 13  1  0
 13 14  1  0
 14 15  1  0
 15 16  2  0
 15 17  1  0
 17 18  1  0
 18 19  1  0
 19 20  1  0
 20 21  2  0
 20 22  1  0
 22 23  1  0
 23 24  1  0
 24 25  2  0
 25 26  1  0
 26 27  2  0
 27 28  1  0
 28 29  2  0
 22 30  2  0
 30 31  1  0
 31 32  1  0
 13 33  2  0
  5 34  1  0
 34 35  1  0
 35  2  1  0
 33  9  1  0
 31 18  2  0
 29 24  1  0
  1 36  1  0
  1 37  1  0
  1 38  1  0
  2 39  1  0
  3 40  1  0
  3 41  1  0
  4 42  1  0
  4 43  1  0
 10 44  1  0
 11 45  1  0
 12 46  1  0
 14 47  1  0
 17 48  1  0
 17 49  1  0
 19 50  1  0
 23 51  1  0
 23 52  1  0
 25 53  1  0
 26 54  1  0
 27 55  1  0
 28 56  1  0
 29 57  1  0
 32 58  1  0
 33 59  1  0
 34 60  1  0
 34 61  1  0
 35 62  1  0
 35 63  1  0
M  END
>  <smiles>  (14) 
CC1CCN(S(=O)(=O)c2cccc(NC(=O)Cc3[nH]c(=O)c(Cc4ccccc4)nc3O)c2)CC1

>  <score_type>  (14) 
oracle

>  <origin>  (14) 
adgpu

>  <m_score__min__energy>  (14) 
-11.58

>  <m_primary>  (14) 
energy

$$$$
14:0
     RDKit          3D

 61 64  0  0  0  0  0  0  0  0999 V2000
    0.1110   20.4070  -30.9260 C   0  0  0  0  0  0  0  0  0  0  0  0
   -1.1950   21.1180  -30.8770 C   0  0  0  0  0  0  0  0  0  0  0  0
   -1.8060   21.3680  -32.0880 C   0  0  0  0  0  0  0  0  0  0  0  0
   -3.0260   22.0480  -32.1050 C   0  0  0  0  0  0  0  0  0  0  0  0
   -3.6420   22.4790  -30.9390 C   0  0  0  0  0  0  0  0  0  0  0  0
   -5.1650   23.3390  -31.0390 S   0  0  0  0  0  0  0  0  0  0  0  0
   -5.9220   23.0430  -29.7470 O   0  0  0  0  0  0  0  0  0  0  0  0
   -4.9990   24.8090  -31.2110 O   0  0  0  0  0  0  0  0  0  0  0  0
   -6.1050   22.7320  -32.3520 N   0  0  0  0  0  0  0  0  0  0  0  0
   -6.6140   21.4230  -32.4390 C   0  0  0  0  0  0  0  0  0  0  0  0
   -5.9250   20.5320  -33.2690 C   0  0  0  0  0  0  0  0  0  0  0  0
   -6.3260   19.2090  -33.3950 C   0  0  0  0  0  0  0  0  0  0  0  0
   -5.5600   18.2670  -34.2520 C   0  0  0  0  0  0  0  0  0  0  0  0
   -6.0860   17.7320  -35.2690 O   0  0  0  0  0  0  0  0  0  0  0  0
   -4.1960   17.9710  -33.9010 N   0  0  0  0  0  0  0  0  0  0  0  0
   -3.6550   18.6260  -32.7230 C   0  0  0  0  0  0  0  0  0  0  0  0
   -2.2020   18.1440  -32.6030 C   0  0  0  0  0  0  0  0  0  0  0  0
   -1.5300   18.4530  -33.9220 C   0  0  0  0  0  0  0  0  0  0  0  0
   -0.0510   18.5590  -33.8100 C   0  0  0  0  0  0  0  0  0  0  0  0
    0.5150   19.7990  -34.3400 C   0  0  0  0  0  0  0  0  0  0  0  0
   -0.2740   20.7490  -34.9790 C   0  0  0  0  0  0  0  0  0  0  0  0
    0.2380   21.9230  -35.4940 C   0  0  0  0  0  0  0  0  0  0  0  0
    1.5880   22.1760  -35.3770 C   0  0  0  0  0  0  0  0  0  0  0  0
    2.4110   21.2650  -34.7530 C   0  0  0  0  0  0  0  0  0  0  0  0
    1.8570   20.0860  -34.2430 C   0  0  0  0  0  0  0  0  0  0  0  0
   -2.0250   17.4980  -34.9700 C   0  0  0  0  0  0  0  0  0  0  0  0
   -3.4280   17.0540  -34.7030 C   0  0  0  0  0  0  0  0  0  0  0  0
   -7.4250   18.7700  -32.6880 C   0  0  0  0  0  0  0  0  0  0  0  0
   -8.1280   19.6210  -31.8570 C   0  0  0  0  0  0  0  0  0  0  0  0
   -7.6950   20.9320  -31.7610 C   0  0  0  0  0  0  0  0  0  0  0  0
   -8.4070   21.7690  -30.9290 O   0  0  0  0  0  0  0  0  0  0  0  0
   -3.0110   22.2160  -29.7400 C   0  0  0  0  0  0  0  0  0  0  0  0
   -1.7970   21.5390  -29.7230 C   0  0  0  0  0  0  0  0  0  0  0  0
    0.4629   20.2154  -29.9015 H   0  0  0  0  0  0  0  0  0  0  0  0
   -0.0116   19.4511  -31.4563 H   0  0  0  0  0  0  0  0  0  0  0  0
    0.8473   21.0288  -31.4563 H   0  0  0  0  0  0  0  0  0  0  0  0
   -1.3391   21.0365  -33.0272 H   0  0  0  0  0  0  0  0  0  0  0  0
   -3.5126   22.2476  -33.0711 H   0  0  0  0  0  0  0  0  0  0  0  0
   -6.2970   23.4230  -33.1310 H   0  0  0  0  0  0  0  0  0  0  0  0
   -5.0492   20.8865  -33.8323 H   0  0  0  0  0  0  0  0  0  0  0  0
   -3.6868   19.7188  -32.8444 H   0  0  0  0  0  0  0  0  0  0  0  0
   -4.2371   18.3818  -31.8221 H   0  0  0  0  0  0  0  0  0  0  0  0
   -1.6931   18.6748  -31.7850 H   0  0  0  0  0  0  0  0  0  0  0  0
   -2.1599   17.0675  -32.3807 H   0  0  0  0  0  0  0  0  0  0  0  0
   -1.8196   19.4623  -34.2498 H   0  0  0  0  0  0  0  0  0  0  0  0
    0.2180   18.4870  -32.7458 H   0  0  0  0  0  0  0  0  0  0  0  0
    0.3658   17.7426  -34.4181 H   0  0  0  0  0  0  0  0  0  0  0  0
   -1.3525   20.5568  -35.0784 H   0  0  0  0  0  0  0  0  0  0  0  0
   -0.4232   22.6477  -35.9916 H   0  0  0  0  0  0  0  0  0  0  0  0
    2.0089   23.1077  -35.7830 H   0  0  0  0  0  0  0  0  0  0  0  0
    3.4890   21.4617  -34.6569 H   0  0  0  0  0  0  0  0  0  0  0  0
    2.5189   19.3616  -33.7460 H   0  0  0  0  0  0  0  0  0  0  0  0
   -1.9903   17.9964  -35.9500 H   0  0  0  0  0  0  0  0  0  0  0  0
   -1.3775   16.6089  -34.9537 H   0  0  0  0  0  0  0  0  0  0  0  0
   -3.9396   16.9287  -35.6687 H   0  0  0  0  0  0  0  0  0  0  0  0
   -3.3590   16.1165  -34.1317 H   0  0  0  0  0  0  0  0  0  0  0  0
   -7.7481   17.7232  -32.7872 H   0  0  0  0  0  0  0  0  0  0  0  0
   -9.0026   19.2683  -31.2907 H   0  0  0  0  0  0  0  0  0  0  0  0
   -7.8620   22.3630  -30.3200 H   0  0  0  0  0  0  0  0  0  0  0  0
   -3.4700   22.5430  -28.7953 H   0  0  0  0  0  0  0  0  0  0  0  0
   -1.3086   21.3369  -28.7583 H   0  0  0  0  0  0  0  0  0  0  0  0
  1  2  1  0
  2  3  2  0
  3  4  1  0
  4  5  2  0
  5  6  1  0
  6  7  2  0
  6  8  2  0
  6  9  1  0
  9 10  1  0
 10 11  2  0
 11 12  1  0
 12 13  1  0
 13 14  2  0
 13 15  1  0
 15 16  1  0
 16 17  1  0
 17 18  1  0
 18 19  1  0
 19 20  1  0
 20 21  2  0
 21 22  1  0
 22 23  2  0
 23 24  1  0
 24 25  2  0
 18 26  1  0
 26 27  1  0
 12 28  2  0
 28 29  1  0
 29 30  2  0
 30 31  1  0
  5 32  1  0
 32 33  2  0
 33  2  1  0
 30 10  1  0
 27 15  1  0
 25 20  1  0
  1 34  1  0
  1 35  1  0
  1 36  1  0
  3 37  1  0
  4 38  1  0
  9 39  1  0
 11 40  1  0
 16 41  1  0
 16 42  1  0
 17 43  1  0
 17 44  1  0
 18 45  1  0
 19 46  1  0
 19 47  1  0
 21 48  1  0
 22 49  1  0
 23 50  1  0
 24 51  1  0
 25 52  1  0
 26 53  1  0
 26 54  1  0
 27 55  1  0
 27 56  1  0
 28 57  1  0
 29 58  1  0
 31 59  1  0
 32 60  1  0
 33 61  1  0
M  END
>  <smiles>  (15) 
Cc1ccc(S(=O)(=O)Nc2cc(C(=O)N3CCC(Cc4ccccc4)CC3)ccc2O)cc1

>  <score_type>  (15) 
oracle

>  <origin>  (15) 
adgpu

>  <m_score__min__energy>  (15) 
-11.98

>  <m_primary>  (15) 
energy

$$$$
15:0
     RDKit          3D

 53 56  0  0  1  0  0  0  0  0999 V2000
   -5.0370   24.9200  -28.7250 O   0  0  0  0  0  0  0  0  0  0  0  0
   -4.9910   24.1210  -30.0080 S   0  0  0  0  0  0  0  0  0  0  0  0
   -4.8260   25.0900  -31.1580 O   0  0  0  0  0  0  0  0  0  0  0  0
   -6.4750   23.2610  -30.2410 N   0  0  0  0  0  0  0  0  0  0  0  0
   -6.8540   23.4690  -31.6420 C   0  0  0  0  0  0  0  0  0  0  0  0
   -8.1870   22.7890  -31.9560 C   0  0  0  0  0  0  0  0  0  0  0  0
   -8.0390   21.3280  -32.0910 C   0  0  0  0  0  0  0  0  0  0  0  0
   -6.8600   20.8540  -32.6340 C   0  0  0  0  0  0  0  0  0  0  0  0
   -6.6420   19.4830  -32.7960 C   0  0  0  0  0  0  0  0  0  0  0  0
   -7.5940   18.5570  -32.4200 C   0  0  0  0  0  0  0  0  0  0  0  0
   -8.7680   19.0610  -31.8780 C   0  0  0  0  0  0  0  0  0  0  0  0
   -8.9830   20.4070  -31.7190 C   0  0  0  0  0  0  0  0  0  0  0  0
   -3.6150   23.0450  -30.0030 C   0  0  0  0  0  0  0  0  0  0  0  0
   -3.6820   21.8980  -30.7660 C   0  0  0  0  0  0  0  0  0  0  0  0
   -2.6230   21.0240  -30.7910 C   0  0  0  0  0  0  0  0  0  0  0  0
   -1.4920   21.2930  -30.0540 C   0  0  0  0  0  0  0  0  0  0  0  0
   -0.4310   20.3230  -30.1400 N   0  0  0  0  0  0  0  0  0  0  0  0
   -0.3140   19.4380  -29.1870 C   0  0  0  0  0  0  0  0  0  0  0  0
   -1.2290   19.4980  -28.1540 C   0  0  0  0  0  0  0  0  0  0  0  0
   -1.1830   18.5970  -27.0960 C   0  0  0  0  0  0  0  0  0  0  0  0
   -0.2070   17.6730  -27.1350 N   0  0  0  0  0  0  0  0  0  0  0  0
    0.6980   17.5950  -28.1310 C   0  0  0  0  0  0  0  0  0  0  0  0
    1.6690   16.6080  -28.0850 C   0  0  0  0  0  0  0  0  0  0  0  0
    1.6990   15.6500  -26.9380 C   0  0  0  0  0  0  0  0  0  0  0  0
    2.6280   14.6420  -27.2180 F   0  0  0  0  0  0  0  0  0  0  0  0
    2.1670   16.2670  -25.7840 F   0  0  0  0  0  0  0  0  0  0  0  0
    0.4850   15.0270  -26.7390 F   0  0  0  0  0  0  0  0  0  0  0  0
    2.5990   16.5270  -29.1110 C   0  0  0  0  0  0  0  0  0  0  0  0
    2.5420   17.4320  -30.1630 C   0  0  0  0  0  0  0  0  0  0  0  0
    1.5830   18.4270  -30.2320 C   0  0  0  0  0  0  0  0  0  0  0  0
    0.6750   18.4760  -29.1930 C   0  0  0  0  0  0  0  0  0  0  0  0
   -1.3820   22.4280  -29.2780 C   0  0  0  0  0  0  0  0  0  0  0  0
   -2.4800   23.2810  -29.2850 C   0  0  0  0  0  0  0  0  0  0  0  0
   -6.3090   22.2420  -30.1010 H   0  0  0  0  0  0  0  0  0  0  0  0
   -6.9470   24.5483  -31.8330 H   0  0  0  0  0  0  0  0  0  0  0  0
   -6.0766   23.0295  -32.2842 H   0  0  0  0  0  0  0  0  0  0  0  0
   -8.8953   23.0012  -31.1416 H   0  0  0  0  0  0  0  0  0  0  0  0
   -8.5551   23.1850  -32.9140 H   0  0  0  0  0  0  0  0  0  0  0  0
   -6.0812   21.5666  -32.9434 H   0  0  0  0  0  0  0  0  0  0  0  0
   -5.6936   19.1353  -33.2315 H   0  0  0  0  0  0  0  0  0  0  0  0
   -7.4307   17.4762  -32.5435 H   0  0  0  0  0  0  0  0  0  0  0  0
   -9.5533   18.3572  -31.5650 H   0  0  0  0  0  0  0  0  0  0  0  0
   -9.9321   20.7535  -31.2842 H   0  0  0  0  0  0  0  0  0  0  0  0
   -4.5854   21.6829  -31.3556 H   0  0  0  0  0  0  0  0  0  0  0  0
   -2.6786   20.1094  -31.3997 H   0  0  0  0  0  0  0  0  0  0  0  0
   -2.0090   20.2735  -28.1686 H   0  0  0  0  0  0  0  0  0  0  0  0
   -1.9078   18.6380  -26.2696 H   0  0  0  0  0  0  0  0  0  0  0  0
   -0.1770   17.0000  -26.3380 H   0  0  0  0  0  0  0  0  0  0  0  0
    3.3775   15.7501  -29.0915 H   0  0  0  0  0  0  0  0  0  0  0  0
    3.2856   17.3550  -30.9699 H   0  0  0  0  0  0  0  0  0  0  0  0
    1.5460   19.1400  -31.0688 H   0  0  0  0  0  0  0  0  0  0  0  0
   -0.4791   22.6454  -28.6885 H   0  0  0  0  0  0  0  0  0  0  0  0
   -2.4303   24.1969  -28.6778 H   0  0  0  0  0  0  0  0  0  0  0  0
  1  2  2  0
  2  3  2  0
  2  4  1  0
  4  5  1  0
  5  6  1  0
  6  7  1  0
  7  8  2  0
  8  9  1  0
  9 10  2  0
 10 11  1  0
 11 12  2  0
  2 13  1  0
 13 14  2  0
 14 15  1  0
 15 16  2  0
 16 17  1  0
 17 18  2  0
 18 19  1  0
 19 20  2  0
 20 21  1  0
 21 22  1  0
 22 23  2  0
 23 24  1  0
 24 25  1  0
 24 26  1  0
 24 27  1  0
 23 28  1  0
 28 29  2  0
 29 30  1  0
 30 31  2  0
 16 32  1  0
 32 33  2  0
 12  7  1  0
 33 13  1  0
 31 18  1  0
 31 22  1  0
  4 34  1  0
  5 35  1  0
  5 36  1  0
  6 37  1  0
  6 38  1  0
  8 39  1  0
  9 40  1  0
 10 41  1  0
 11 42  1  0
 12 43  1  0
 14 44  1  0
 15 45  1  0
 19 46  1  0
 20 47  1  0
 21 48  1  0
 28 49  1  0
 29 50  1  0
 30 51  1  0
 32 52  1  0
 33 53  1  0
M  END
>  <smiles>  (16) 
O=S(=O)(NCCc1ccccc1)c1ccc(N=c2cc[nH]c3c(C(F)(F)F)cccc23)cc1

>  <score_type>  (16) 
oracle

>  <origin>  (16) 
adgpu

>  <m_score__min__energy>  (16) 
-9.7100000000000009

>  <m_primary>  (16) 
energy

$$$$
16:0
     RDKit          3D

 62 65  0  0  0  0  0  0  0  0999 V2000
   -4.5220   15.3850  -32.3350 C   0  0  0  0  0  0  0  0  0  0  0  0
   -4.8200   15.8930  -33.6560 N   0  0  0  0  0  0  0  0  0  0  0  0
   -4.2920   15.0060  -34.6460 C   0  0  0  0  0  0  0  0  0  0  0  0
   -2.8270   15.1850  -34.9320 C   0  0  0  0  0  0  0  0  0  0  0  0
   -2.4260   16.5450  -35.1240 N   0  0  0  0  0  0  0  0  0  0  0  0
   -1.1220   16.9980  -34.0820 S   0  0  0  0  0  0  0  0  0  0  0  0
   -1.2430   16.3650  -32.7460 O   0  0  0  0  0  0  0  0  0  0  0  0
    0.1520   16.4730  -34.7170 O   0  0  0  0  0  0  0  0  0  0  0  0
   -0.9490   18.7300  -34.0090 C   0  0  0  0  0  0  0  0  0  0  0  0
    0.0520   19.4230  -34.6490 C   0  0  0  0  0  0  0  0  0  0  0  0
    0.1600   20.7810  -34.5720 C   0  0  0  0  0  0  0  0  0  0  0  0
   -0.7450   21.4930  -33.8420 C   0  0  0  0  0  0  0  0  0  0  0  0
   -1.7530   20.8080  -33.1970 C   0  0  0  0  0  0  0  0  0  0  0  0
   -2.6840   21.6000  -32.4380 N   0  0  0  0  0  0  0  0  0  0  0  0
   -4.0750   21.5060  -32.6040 C   0  0  0  0  0  0  0  0  0  0  0  0
   -4.4680   20.6610  -33.4840 O   0  0  0  0  0  0  0  0  0  0  0  0
   -5.0820   22.2550  -31.8940 C   0  0  0  0  0  0  0  0  0  0  0  0
   -6.4020   21.7960  -31.9400 C   0  0  0  0  0  0  0  0  0  0  0  0
   -7.4290   22.4440  -31.2930 C   0  0  0  0  0  0  0  0  0  0  0  0
   -9.0410   21.8230  -31.3920 S   0  0  0  0  0  0  0  0  0  0  0  0
   -9.8390   22.7090  -32.3090 O   0  0  0  0  0  0  0  0  0  0  0  0
   -9.7450   21.8550  -30.0590 O   0  0  0  0  0  0  0  0  0  0  0  0
   -9.1130   20.2290  -32.0220 N   0  0  0  0  0  0  0  0  0  0  0  0
   -8.3880   20.0540  -33.2320 C   0  0  0  0  0  0  0  0  0  0  0  0
   -7.1950   19.1740  -32.9390 C   0  0  0  0  0  0  0  0  0  0  0  0
   -7.5140   18.4980  -31.6310 C   0  0  0  0  0  0  0  0  0  0  0  0
   -8.7220   19.2110  -31.0950 C   0  0  0  0  0  0  0  0  0  0  0  0
   -7.2140   23.5900  -30.5580 C   0  0  0  0  0  0  0  0  0  0  0  0
   -5.9190   24.0580  -30.5010 C   0  0  0  0  0  0  0  0  0  0  0  0
   -4.8750   23.3940  -31.1610 C   0  0  0  0  0  0  0  0  0  0  0  0
   -3.6340   23.9370  -31.0410 O   0  0  0  0  0  0  0  0  0  0  0  0
   -1.8800   19.4320  -33.2620 C   0  0  0  0  0  0  0  0  0  0  0  0
   -3.5230   17.4600  -35.0480 C   0  0  0  0  0  0  0  0  0  0  0  0
   -4.4280   17.2550  -33.8650 C   0  0  0  0  0  0  0  0  0  0  0  0
   -4.9257   16.0732  -31.5778 H   0  0  0  0  0  0  0  0  0  0  0  0
   -4.9815   14.3933  -32.2113 H   0  0  0  0  0  0  0  0  0  0  0  0
   -3.4321   15.3022  -32.2113 H   0  0  0  0  0  0  0  0  0  0  0  0
   -4.4501   13.9737  -34.3005 H   0  0  0  0  0  0  0  0  0  0  0  0
   -4.8218   15.2347  -35.5825 H   0  0  0  0  0  0  0  0  0  0  0  0
   -2.2580   14.7745  -34.0848 H   0  0  0  0  0  0  0  0  0  0  0  0
   -2.6245   14.6606  -35.8775 H   0  0  0  0  0  0  0  0  0  0  0  0
    0.7901   18.8638  -35.2427 H   0  0  0  0  0  0  0  0  0  0  0  0
    0.9751   21.3000  -35.0975 H   0  0  0  0  0  0  0  0  0  0  0  0
   -0.6727   22.5882  -33.7693 H   0  0  0  0  0  0  0  0  0  0  0  0
   -2.2680   22.2510  -31.7550 H   0  0  0  0  0  0  0  0  0  0  0  0
   -6.6273   20.8848  -32.5136 H   0  0  0  0  0  0  0  0  0  0  0  0
   -9.0297   19.5740  -33.9855 H   0  0  0  0  0  0  0  0  0  0  0  0
   -8.0576   21.0274  -33.6235 H   0  0  0  0  0  0  0  0  0  0  0  0
   -7.0611   18.4279  -33.7361 H   0  0  0  0  0  0  0  0  0  0  0  0
   -6.2609   19.7525  -32.8855 H   0  0  0  0  0  0  0  0  0  0  0  0
   -7.7366   17.4330  -31.7929 H   0  0  0  0  0  0  0  0  0  0  0  0
   -6.6676   18.5455  -30.9300 H   0  0  0  0  0  0  0  0  0  0  0  0
   -9.5461   18.4939  -30.9658 H   0  0  0  0  0  0  0  0  0  0  0  0
   -8.4832   19.6664  -30.1226 H   0  0  0  0  0  0  0  0  0  0  0  0
   -8.0367   24.1063  -30.0416 H   0  0  0  0  0  0  0  0  0  0  0  0
   -5.7000   24.9702  -29.9266 H   0  0  0  0  0  0  0  0  0  0  0  0
   -3.5160   24.9240  -31.2810 H   0  0  0  0  0  0  0  0  0  0  0  0
   -2.6948   18.9120  -32.7369 H   0  0  0  0  0  0  0  0  0  0  0  0
   -3.1157   18.4805  -34.9956 H   0  0  0  0  0  0  0  0  0  0  0  0
   -4.1368   17.2860  -35.9441 H   0  0  0  0  0  0  0  0  0  0  0  0
   -3.9031   17.6053  -32.9640 H   0  0  0  0  0  0  0  0  0  0  0  0
   -5.3485   17.8217  -34.0686 H   0  0  0  0  0  0  0  0  0  0  0  0
  1  2  1  0
  2  3  1  0
  3  4  1  0
  4  5  1  0
  5  6  1  0
  6  7  2  0
  6  8  2  0
  6  9  1  0
  9 10  2  0
 10 11  1  0
 11 12  2  0
 12 13  1  0
 13 14  1  0
 14 15  1  0
 15 16  2  0
 15 17  1  0
 17 18  2  0
 18 19  1  0
 19 20  1  0
 20 21  2  0
 20 22  2  0
 20 23  1  0
 23 24  1  0
 24 25  1  0
 25 26  1  0
 26 27  1  0
 19 28  2  0
 28 29  1  0
 29 30  2  0
 30 31  1  0
 13 32  2  0
  5 33  1  0
 33 34  1  0
 34  2  1  0
 32  9  1  0
 30 17  1  0
 27 23  1  0
  1 35  1  0
  1 36  1  0
  1 37  1  0
  3 38  1  0
  3 39  1  0
  4 40  1  0
  4 41  1  0
 10 42  1  0
 11 43  1  0
 12 44  1  0
 14 45  1  0
 18 46  1  0
 24 47  1  0
 24 48  1  0
 25 49  1  0
 25 50  1  0
 26 51  1  0
 26 52  1  0
 27 53  1  0
 27 54  1  0
 28 55  1  0
 29 56  1  0
 31 57  1  0
 32 58  1  0
 33 59  1  0
 33 60  1  0
 34 61  1  0
 34 62  1  0
M  END
>  <smiles>  (17) 
CN1CCN(S(=O)(=O)c2cccc(NC(=O)c3cc(S(=O)(=O)N4CCCC4)ccc3O)c2)CC1

>  <score_type>  (17) 
oracle

>  <origin>  (17) 
adgpu

>  <m_score__min__energy>  (17) 
-10.9

>  <m_primary>  (17) 
energy

$$$$
17:0
     RDKit          3D

 50 52  0  0  0  0  0  0  0  0999 V2000
   -2.7030   18.3510  -25.6460 C   0  0  0  0  0  0  0  0  0  0  0  0
   -2.4330   19.7370  -26.0170 N   0  0  0  0  0  0  0  0  0  0  0  0
   -2.8570   20.2130  -27.2800 C   0  0  0  0  0  0  0  0  0  0  0  0
   -3.4540   19.4000  -28.0320 O   0  0  0  0  0  0  0  0  0  0  0  0
   -2.6410   21.5750  -27.7510 C   0  0  0  0  0  0  0  0  0  0  0  0
   -1.3300   21.9610  -27.9510 C   0  0  0  0  0  0  0  0  0  0  0  0
   -1.0870   23.2420  -28.3970 C   0  0  0  0  0  0  0  0  0  0  0  0
   -2.1200   24.1220  -28.6370 C   0  0  0  0  0  0  0  0  0  0  0  0
   -1.8110   25.4200  -29.0910 O   0  0  0  0  0  0  0  0  0  0  0  0
   -3.4590   23.7570  -28.4410 C   0  0  0  0  0  0  0  0  0  0  0  0
   -4.4970   24.6810  -28.7030 N   0  0  0  0  0  0  0  0  0  0  0  0
   -5.3040   24.8900  -30.1830 S   0  0  0  0  0  0  0  0  0  0  0  0
   -6.2890   26.0430  -30.0840 O   0  0  0  0  0  0  0  0  0  0  0  0
   -4.2450   25.2890  -31.2030 O   0  0  0  0  0  0  0  0  0  0  0  0
   -6.1320   23.4650  -30.7620 C   0  0  0  0  0  0  0  0  0  0  0  0
   -5.4020   22.2820  -30.9450 C   0  0  0  0  0  0  0  0  0  0  0  0
   -6.0320   21.1290  -31.3970 C   0  0  0  0  0  0  0  0  0  0  0  0
   -7.4060   21.1270  -31.6770 C   0  0  0  0  0  0  0  0  0  0  0  0
   -8.1880   19.6840  -32.2430 S   0  0  0  0  0  0  0  0  0  0  0  0
   -8.6890   18.8440  -31.0770 O   0  0  0  0  0  0  0  0  0  0  0  0
   -9.4100   19.9960  -33.0710 O   0  0  0  0  0  0  0  0  0  0  0  0
   -7.1640   18.6760  -33.1810 N   0  0  0  0  0  0  0  0  0  0  0  0
   -6.2770   19.3940  -34.0350 C   0  0  0  0  0  0  0  0  0  0  0  0
   -4.8810   18.9000  -33.8480 C   0  0  0  0  0  0  0  0  0  0  0  0
   -4.9850   17.8040  -32.8430 C   0  0  0  0  0  0  0  0  0  0  0  0
   -6.3970   17.7680  -32.3640 C   0  0  0  0  0  0  0  0  0  0  0  0
   -8.1170   22.2940  -31.4950 C   0  0  0  0  0  0  0  0  0  0  0  0
   -7.4790   23.4300  -31.0460 C   0  0  0  0  0  0  0  0  0  0  0  0
   -3.6630   22.4680  -27.9960 C   0  0  0  0  0  0  0  0  0  0  0  0
   -2.7204   18.2616  -24.5498 H   0  0  0  0  0  0  0  0  0  0  0  0
   -3.6776   18.0453  -26.0543 H   0  0  0  0  0  0  0  0  0  0  0  0
   -1.9144   17.7018  -26.0543 H   0  0  0  0  0  0  0  0  0  0  0  0
   -1.9380   20.3620  -25.3630 H   0  0  0  0  0  0  0  0  0  0  0  0
   -0.5011   21.2637  -27.7592 H   0  0  0  0  0  0  0  0  0  0  0  0
   -0.0498   23.5680  -28.5645 H   0  0  0  0  0  0  0  0  0  0  0  0
   -2.0250   25.6720  -30.0590 H   0  0  0  0  0  0  0  0  0  0  0  0
   -4.7900   25.2980  -27.8850 H   0  0  0  0  0  0  0  0  0  0  0  0
   -4.3235   22.2666  -30.7293 H   0  0  0  0  0  0  0  0  0  0  0  0
   -5.4468   20.2081  -31.5366 H   0  0  0  0  0  0  0  0  0  0  0  0
   -6.5792   19.2458  -35.0822 H   0  0  0  0  0  0  0  0  0  0  0  0
   -6.3193   20.4641  -33.7838 H   0  0  0  0  0  0  0  0  0  0  0  0
   -4.4774   18.5163  -34.7966 H   0  0  0  0  0  0  0  0  0  0  0  0
   -4.2032   19.6999  -33.5150 H   0  0  0  0  0  0  0  0  0  0  0  0
   -4.7212   16.8423  -33.3073 H   0  0  0  0  0  0  0  0  0  0  0  0
   -4.2956   17.9805  -32.0042 H   0  0  0  0  0  0  0  0  0  0  0  0
   -6.7986   16.7484  -32.4598 H   0  0  0  0  0  0  0  0  0  0  0  0
   -6.4511   18.0645  -31.3061 H   0  0  0  0  0  0  0  0  0  0  0  0
   -9.1958   22.3185  -31.7086 H   0  0  0  0  0  0  0  0  0  0  0  0
   -8.0705   24.3472  -30.9087 H   0  0  0  0  0  0  0  0  0  0  0  0
   -4.6973   22.1337  -27.8272 H   0  0  0  0  0  0  0  0  0  0  0  0
  1  2  1  0
  2  3  1  0
  3  4  2  0
  3  5  1  0
  5  6  2  0
  6  7  1  0
  7  8  2  0
  8  9  1  0
  8 10  1  0
 10 11  1  0
 11 12  1  0
 12 13  2  0
 12 14  2  0
 12 15  1  0
 15 16  2  0
 16 17  1  0
 17 18  2  0
 18 19  1  0
 19 20  2  0
 19 21  2  0
 19 22  1  0
 22 23  1  0
 23 24  1  0
 24 25  1  0
 25 26  1  0
 18 27  1  0
 27 28  2  0
 10 29  2  0
 29  5  1  0
 28 15  1  0
 26 22  1  0
  1 30  1  0
  1 31  1  0
  1 32  1  0
  2 33  1  0
  6 34  1  0
  7 35  1  0
  9 36  1  0
 11 37  1  0
 16 38  1  0
 17 39  1  0
 23 40  1  0
 23 41  1  0
 24 42  1  0
 24 43  1  0
 25 44  1  0
 25 45  1  0
 26 46  1  0
 26 47  1  0
 27 48  1  0
 28 49  1  0
 29 50  1  0
M  END
>  <smiles>  (18) 
CNC(=O)c1ccc(O)c(NS(=O)(=O)c2ccc(S(=O)(=O)N3CCCC3)cc2)c1

>  <score_type>  (18) 
oracle

>  <origin>  (18) 
adgpu

>  <m_score__min__energy>  (18) 
-12.24

>  <m_primary>  (18) 
energy

$$$$
18:0
     RDKit          3D

 59 62  0  0  1  0  0  0  0  0999 V2000
   -2.9140   18.8780  -26.3980 C   0  0  0  0  0  0  0  0  0  0  0  0
   -2.0060   20.0850  -26.3020 C   0  0  0  0  0  0  0  0  0  0  0  0
   -1.9720   20.7970  -27.5890 N   0  0  0  0  0  0  0  0  0  0  0  0
   -2.8020   21.8350  -27.8960 C   0  0  0  0  0  0  0  0  0  0  0  0
   -2.4940   22.2600  -29.1760 C   0  0  0  0  0  0  0  0  0  0  0  0
   -3.1260   23.3330  -29.8970 C   0  0  0  0  0  0  0  0  0  0  0  0
   -3.6320   24.2170  -30.4740 N   0  0  0  0  0  0  0  0  0  0  0  0
   -1.4600   21.4530  -29.6310 C   0  0  0  0  0  0  0  0  0  0  0  0
   -0.7500   21.4060  -30.8130 C   0  0  0  0  0  0  0  0  0  0  0  0
    0.2560   20.5130  -31.0680 C   0  0  0  0  0  0  0  0  0  0  0  0
    1.0200   20.4170  -32.2370 N   0  0  0  0  0  0  0  0  0  0  0  0
    0.4300   20.3340  -33.8420 S   0  0  0  0  0  0  0  0  0  0  0  0
    0.4470   21.6820  -34.5120 O   0  0  0  0  0  0  0  0  0  0  0  0
    1.4210   19.4570  -34.6040 O   0  0  0  0  0  0  0  0  0  0  0  0
   -1.1710   19.6650  -33.9830 C   0  0  0  0  0  0  0  0  0  0  0  0
   -1.4400   18.4140  -34.4950 C   0  0  0  0  0  0  0  0  0  0  0  0
   -2.7530   17.9440  -34.5770 C   0  0  0  0  0  0  0  0  0  0  0  0
   -3.8030   18.7280  -34.1460 C   0  0  0  0  0  0  0  0  0  0  0  0
   -5.4730   18.2070  -34.2180 S   0  0  0  0  0  0  0  0  0  0  0  0
   -6.1150   18.5610  -35.5260 O   0  0  0  0  0  0  0  0  0  0  0  0
   -5.5980   16.7140  -34.0740 O   0  0  0  0  0  0  0  0  0  0  0  0
   -6.4180   18.9090  -32.9620 N   0  0  0  0  0  0  0  0  0  0  0  0
   -7.6440   18.1760  -32.7280 C   0  0  0  0  0  0  0  0  0  0  0  0
   -8.7000   19.1350  -32.2780 C   0  0  0  0  0  0  0  0  0  0  0  0
   -8.1960   20.2510  -31.4020 C   0  0  0  0  0  0  0  0  0  0  0  0
   -7.0510   21.0020  -32.0180 C   0  0  2  0  0  0  0  0  0  0  0  0
   -7.3860   22.4610  -32.2800 C   0  0  0  0  0  0  0  0  0  0  0  0
   -6.7080   20.2900  -33.3170 C   0  0  0  0  0  0  0  0  0  0  0  0
   -3.5510   19.9880  -33.6300 C   0  0  0  0  0  0  0  0  0  0  0  0
   -2.2420   20.4400  -33.5550 C   0  0  0  0  0  0  0  0  0  0  0  0
    0.5520   19.6100  -30.0410 C   0  0  0  0  0  0  0  0  0  0  0  0
   -0.1430   19.6320  -28.8420 C   0  0  0  0  0  0  0  0  0  0  0  0
   -1.1510   20.5530  -28.6330 C   0  0  0  0  0  0  0  0  0  0  0  0
   -3.1735   18.5330  -25.3863 H   0  0  0  0  0  0  0  0  0  0  0  0
   -3.8319   19.1518  -26.9388 H   0  0  0  0  0  0  0  0  0  0  0  0
   -2.3965   18.0719  -26.9388 H   0  0  0  0  0  0  0  0  0  0  0  0
   -2.3829   20.7624  -25.5215 H   0  0  0  0  0  0  0  0  0  0  0  0
   -0.9890   19.7507  -26.0490 H   0  0  0  0  0  0  0  0  0  0  0  0
   -3.5783   22.2588  -27.2420 H   0  0  0  0  0  0  0  0  0  0  0  0
   -1.0081   22.1308  -31.5991 H   0  0  0  0  0  0  0  0  0  0  0  0
    2.0710   20.3940  -32.1170 H   0  0  0  0  0  0  0  0  0  0  0  0
   -0.6120   17.7788  -34.8428 H   0  0  0  0  0  0  0  0  0  0  0  0
   -2.9507   16.9429  -34.9877 H   0  0  0  0  0  0  0  0  0  0  0  0
   -7.9638   17.6836  -33.6582 H   0  0  0  0  0  0  0  0  0  0  0  0
   -7.4803   17.4104  -31.9553 H   0  0  0  0  0  0  0  0  0  0  0  0
   -9.1625   19.5809  -33.1709 H   0  0  0  0  0  0  0  0  0  0  0  0
   -9.4106   18.5559  -31.6700 H   0  0  0  0  0  0  0  0  0  0  0  0
   -9.0212   20.9553  -31.2204 H   0  0  0  0  0  0  0  0  0  0  0  0
   -7.8317   19.7998  -30.4673 H   0  0  0  0  0  0  0  0  0  0  0  0
   -6.1979   21.0114  -31.3237 H   0  0  0  0  0  0  0  0  0  0  0  0
   -7.5068   22.9873  -31.3216 H   0  0  0  0  0  0  0  0  0  0  0  0
   -6.5715   22.9269  -32.8540 H   0  0  0  0  0  0  0  0  0  0  0  0
   -8.3222   22.5249  -32.8540 H   0  0  0  0  0  0  0  0  0  0  0  0
   -7.5598   20.3338  -34.0117 H   0  0  0  0  0  0  0  0  0  0  0  0
   -5.8499   20.7627  -33.8173 H   0  0  0  0  0  0  0  0  0  0  0  0
   -4.3796   20.6232  -33.2835 H   0  0  0  0  0  0  0  0  0  0  0  0
   -2.0458   21.4415  -33.1446 H   0  0  0  0  0  0  0  0  0  0  0  0
    1.3513   18.8687  -30.1879 H   0  0  0  0  0  0  0  0  0  0  0  0
    0.1100   18.9107  -28.0510 H   0  0  0  0  0  0  0  0  0  0  0  0
  1  2  1  0
  2  3  1  0
  3  4  1  0
  4  5  2  0
  5  6  1  0
  6  7  3  0
  5  8  1  0
  8  9  2  0
  9 10  1  0
 10 11  1  0
 11 12  1  0
 12 13  2  0
 12 14  2  0
 12 15  1  0
 15 16  2  0
 16 17  1  0
 17 18  2  0
 18 19  1  0
 19 20  2  0
 19 21  2  0
 19 22  1  0
 22 23  1  0
 23 24  1  0
 24 25  1  0
 25 26  1  0
 26 27  1  0
 26 28  1  0
 18 29  1  0
 29 30  2  0
 10 31  2  0
 31 32  1  0
 32 33  2  0
 33  3  1  0
 33  8  1  0
 30 15  1  0
 28 22  1  0
  1 34  1  0
  1 35  1  0
  1 36  1  0
  2 37  1  0
  2 38  1  0
  4 39  1  0
  9 40  1  0
 11 41  1  0
 16 42  1  0
 17 43  1  0
 23 44  1  0
 23 45  1  0
 24 46  1  0
 24 47  1  0
 25 48  1  0
 25 49  1  0
 26 50  1  1
 27 51  1  0
 27 52  1  0
 27 53  1  0
 28 54  1  0
 28 55  1  0
 29 56  1  0
 30 57  1  0
 31 58  1  0
 32 59  1  0
M  END
>  <smiles>  (19) 
CCn1cc(C#N)c2cc(NS(=O)(=O)c3ccc(S(=O)(=O)N4CCCC(C)C4)cc3)ccc21

>  <score_type>  (19) 
oracle

>  <origin>  (19) 
adgpu

>  <m_score__min__energy>  (19) 
-12.5

>  <m_primary>  (19) 
energy

$$$$
19:0
     RDKit          3D

 55 58  0  0  1  0  0  0  0  0999 V2000
   -6.8310   25.6670  -29.4000 O   0  0  0  0  0  0  0  0  0  0  0  0
   -5.8590   24.8750  -29.5150 C   0  0  0  0  0  0  0  0  0  0  0  0
   -4.9710   24.8720  -28.4950 N   0  0  0  0  0  0  0  0  0  0  0  0
   -3.8810   24.0710  -28.4880 C   0  0  0  0  0  0  0  0  0  0  0  0
   -3.0490   24.0920  -27.4940 N   0  0  0  0  0  0  0  0  0  0  0  0
   -3.2460   24.9690  -26.3510 C   0  0  0  0  0  0  0  0  0  0  0  0
   -2.0300   25.8340  -26.2670 C   0  0  0  0  0  0  0  0  0  0  0  0
   -1.5610   26.5170  -25.2090 C   0  0  0  0  0  0  0  0  0  0  0  0
   -0.4460   27.2490  -25.3060 C   0  0  0  0  0  0  0  0  0  0  0  0
    0.1570   27.2240  -26.5920 C   0  0  0  0  0  0  0  0  0  0  0  0
   -0.9040   26.1500  -27.6070 S   0  0  0  0  0  0  0  0  0  0  0  0
   -3.7210   23.2490  -29.5830 C   0  0  0  0  0  0  0  0  0  0  0  0
   -4.6360   23.2610  -30.6230 C   0  0  0  0  0  0  0  0  0  0  0  0
   -5.7020   24.0690  -30.5920 N   0  0  0  0  0  0  0  0  0  0  0  0
   -6.6800   24.1060  -31.6600 C   0  0  0  0  0  0  0  0  0  0  0  0
   -7.2600   22.7760  -31.9600 C   0  0  0  0  0  0  0  0  0  0  0  0
   -8.5940   22.5620  -31.6840 C   0  0  0  0  0  0  0  0  0  0  0  0
   -9.2210   21.3460  -31.9340 C   0  0  0  0  0  0  0  0  0  0  0  0
   -8.4420   20.3320  -32.4820 C   0  0  0  0  0  0  0  0  0  0  0  0
   -9.0710   19.1050  -32.7350 O   0  0  0  0  0  0  0  0  0  0  0  0
   -7.1200   20.5030  -32.7710 C   0  0  0  0  0  0  0  0  0  0  0  0
   -6.1820   19.2110  -33.4570 S   0  0  0  0  0  0  0  0  0  0  0  0
   -6.7480   17.8740  -33.0140 O   0  0  0  0  0  0  0  0  0  0  0  0
   -6.3910   19.2510  -34.9630 O   0  0  0  0  0  0  0  0  0  0  0  0
   -4.5410   19.2510  -33.1560 N   0  0  0  0  0  0  0  0  0  0  0  0
   -3.6480   18.6190  -34.0120 C   0  0  0  0  0  0  0  0  0  0  0  0
   -2.2360   19.0730  -33.9980 C   0  0  0  0  0  0  0  0  0  0  0  0
   -2.1920   20.4970  -33.4860 C   0  0  0  0  0  0  0  0  0  0  0  0
   -2.6830   20.4130  -32.0420 C   0  0  0  0  0  0  0  0  0  0  0  0
   -4.0740   19.8550  -31.9700 C   0  0  0  0  0  0  0  0  0  0  0  0
   -6.5440   21.7350  -32.5020 C   0  0  0  0  0  0  0  0  0  0  0  0
   -5.0960   25.4950  -27.6680 H   0  0  0  0  0  0  0  0  0  0  0  0
   -4.1436   25.5879  -26.4968 H   0  0  0  0  0  0  0  0  0  0  0  0
   -3.3888   24.3915  -25.4257 H   0  0  0  0  0  0  0  0  0  0  0  0
   -2.1008   26.4735  -24.2515 H   0  0  0  0  0  0  0  0  0  0  0  0
   -0.0316   27.8211  -24.4628 H   0  0  0  0  0  0  0  0  0  0  0  0
    1.0731   27.7447  -26.9077 H   0  0  0  0  0  0  0  0  0  0  0  0
   -2.8541   22.5737  -29.6316 H   0  0  0  0  0  0  0  0  0  0  0  0
   -4.4840   22.5968  -31.4866 H   0  0  0  0  0  0  0  0  0  0  0  0
   -7.4939   24.7853  -31.3666 H   0  0  0  0  0  0  0  0  0  0  0  0
   -6.1634   24.4520  -32.5674 H   0  0  0  0  0  0  0  0  0  0  0  0
   -9.1838   23.3830  -31.2503 H   0  0  0  0  0  0  0  0  0  0  0  0
  -10.2866   21.1927  -31.7082 H   0  0  0  0  0  0  0  0  0  0  0  0
   -8.7670   18.4980  -33.4680 H   0  0  0  0  0  0  0  0  0  0  0  0
   -3.6509   17.5489  -33.7571 H   0  0  0  0  0  0  0  0  0  0  0  0
   -4.0086   18.8681  -35.0209 H   0  0  0  0  0  0  0  0  0  0  0  0
   -1.6442   18.4229  -33.3368 H   0  0  0  0  0  0  0  0  0  0  0  0
   -1.8157   19.0254  -35.0134 H   0  0  0  0  0  0  0  0  0  0  0  0
   -1.1651   20.8896  -33.5230 H   0  0  0  0  0  0  0  0  0  0  0  0
   -2.8101   21.1741  -34.0940 H   0  0  0  0  0  0  0  0  0  0  0  0
   -2.0056   19.7613  -31.4707 H   0  0  0  0  0  0  0  0  0  0  0  0
   -2.6944   21.4287  -31.6198 H   0  0  0  0  0  0  0  0  0  0  0  0
   -4.0964   19.0989  -31.1714 H   0  0  0  0  0  0  0  0  0  0  0  0
   -4.7374   20.7122  -31.7823 H   0  0  0  0  0  0  0  0  0  0  0  0
   -5.4783   21.8846  -32.7299 H   0  0  0  0  0  0  0  0  0  0  0  0
  1  2  2  0
  2  3  1  0
  3  4  1  0
  4  5  2  0
  5  6  1  0
  6  7  1  0
  7  8  2  0
  8  9  1  0
  9 10  2  0
 10 11  1  0
  4 12  1  0
 12 13  2  0
 13 14  1  0
 14 15  1  0
 15 16  1  0
 16 17  2  0
 17 18  1  0
 18 19  2  0
 19 20  1  0
 19 21  1  0
 21 22  1  0
 22 23  2  0
 22 24  2  0
 22 25  1  0
 25 26  1  0
 26 27  1  0
 27 28  1  0
 28 29  1  0
 29 30  1  0
 21 31  2  0
 14  2  1  0
 31 16  1  0
 11  7  1  0
 30 25  1  0
  3 32  1  0
  6 33  1  0
  6 34  1  0
  8 35  1  0
  9 36  1  0
 10 37  1  0
 12 38  1  0
 13 39  1  0
 15 40  1  0
 15 41  1  0
 17 42  1  0
 18 43  1  0
 20 44  1  0
 26 45  1  0
 26 46  1  0
 27 47  1  0
 27 48  1  0
 28 49  1  0
 28 50  1  0
 29 51  1  0
 29 52  1  0
 30 53  1  0
 30 54  1  0
 31 55  1  0
M  END
>  <smiles>  (20) 
O=c1[nH]c(=NCc2cccs2)ccn1Cc1ccc(O)c(S(=O)(=O)N2CCCCC2)c1

>  <score_type>  (20) 
oracle

>  <origin>  (20) 
adgpu

>  <m_score__min__energy>  (20) 
-10.199999999999999

>  <m_primary>  (20) 
energy

$$$$
20:0
     RDKit          3D

 58 61  0  0  1  0  0  0  0  0999 V2000
   -5.7410   18.5360  -34.1810 C   0  0  0  0  0  0  0  0  0  0  0  0
   -6.5910   18.2600  -32.6610 S   0  0  0  0  0  0  0  0  0  0  0  0
   -5.5490   17.9080  -31.6100 O   0  0  0  0  0  0  0  0  0  0  0  0
   -7.5440   17.1120  -32.7560 O   0  0  0  0  0  0  0  0  0  0  0  0
   -7.3940   19.7280  -32.1520 C   0  0  0  0  0  0  0  0  0  0  0  0
   -8.7740   19.6900  -31.9670 C   0  0  0  0  0  0  0  0  0  0  0  0
   -9.4740   20.8220  -31.5640 C   0  0  0  0  0  0  0  0  0  0  0  0
   -8.7390   21.9650  -31.3600 C   0  0  0  0  0  0  0  0  0  0  0  0
   -7.3610   22.0120  -31.5420 C   0  0  0  0  0  0  0  0  0  0  0  0
   -6.5830   23.5480  -31.2390 S   0  0  0  0  0  0  0  0  0  0  0  0
   -7.6200   24.5370  -30.7620 O   0  0  0  0  0  0  0  0  0  0  0  0
   -5.9680   24.1270  -32.4650 O   0  0  0  0  0  0  0  0  0  0  0  0
   -5.3800   23.3180  -30.0110 N   0  0  0  0  0  0  0  0  0  0  0  0
   -4.0030   23.0980  -30.3610 C   0  0  0  0  0  0  0  0  0  0  0  0
   -3.7690   23.0900  -31.6120 O   0  0  0  0  0  0  0  0  0  0  0  0
   -3.0000   22.9080  -29.3950 N   0  0  0  0  0  0  0  0  0  0  0  0
   -3.2240   22.2760  -28.1110 C   0  0  0  0  0  0  0  0  0  0  0  0
   -2.0040   22.5830  -27.3050 C   0  0  2  0  0  0  0  0  0  0  0  0
   -2.1180   23.8710  -26.5000 C   0  0  0  0  0  0  0  0  0  0  0  0
   -0.6380   24.1290  -26.2440 C   0  0  2  0  0  0  0  0  0  0  0  0
   -0.3570   25.3510  -25.5050 C   0  0  0  0  0  0  0  0  0  0  0  0
   -1.2250   26.4300  -25.5350 C   0  0  0  0  0  0  0  0  0  0  0  0
   -0.9740   27.6020  -24.8250 C   0  0  0  0  0  0  0  0  0  0  0  0
    0.1600   27.7000  -24.0740 C   0  0  0  0  0  0  0  0  0  0  0  0
    1.0190   26.6480  -24.0360 C   0  0  0  0  0  0  0  0  0  0  0  0
    2.1750   26.7860  -23.2520 O   0  0  0  0  0  0  0  0  0  0  0  0
    0.8050   25.4530  -24.7330 C   0  0  0  0  0  0  0  0  0  0  0  0
    1.8010   24.3810  -24.6310 C   0  0  0  0  0  0  0  0  0  0  0  0
    2.8720   24.6470  -23.8260 F   0  0  0  0  0  0  0  0  0  0  0  0
    2.3200   24.1040  -25.8910 F   0  0  0  0  0  0  0  0  0  0  0  0
    1.2140   23.1740  -24.2240 F   0  0  0  0  0  0  0  0  0  0  0  0
   -0.1320   24.1030  -27.6710 C   0  0  0  0  0  0  0  0  0  0  0  0
   -0.9060   22.9270  -28.2920 C   0  0  2  0  0  0  0  0  0  0  0  0
   -1.6310   23.3060  -29.5400 C   0  0  0  0  0  0  0  0  0  0  0  0
   -6.6690   20.8890  -31.9420 C   0  0  0  0  0  0  0  0  0  0  0  0
   -4.7139   18.8695  -33.9714 H   0  0  0  0  0  0  0  0  0  0  0  0
   -5.7120   17.6011  -34.7599 H   0  0  0  0  0  0  0  0  0  0  0  0
   -6.2668   19.3096  -34.7599 H   0  0  0  0  0  0  0  0  0  0  0  0
   -9.3184   18.7504  -32.1423 H   0  0  0  0  0  0  0  0  0  0  0  0
  -10.5638   20.8034  -31.4156 H   0  0  0  0  0  0  0  0  0  0  0  0
   -9.2611   22.8788  -31.0401 H   0  0  0  0  0  0  0  0  0  0  0  0
   -5.6530   23.3380  -29.0090 H   0  0  0  0  0  0  0  0  0  0  0  0
   -3.3432   21.1891  -28.2316 H   0  0  0  0  0  0  0  0  0  0  0  0
   -4.1403   22.6437  -27.6261 H   0  0  0  0  0  0  0  0  0  0  0  0
   -1.8374   21.7188  -26.6452 H   0  0  0  0  0  0  0  0  0  0  0  0
   -2.6781   23.7239  -25.5648 H   0  0  0  0  0  0  0  0  0  0  0  0
   -2.6606   24.6899  -26.9950 H   0  0  0  0  0  0  0  0  0  0  0  0
   -0.1464   23.4058  -25.5767 H   0  0  0  0  0  0  0  0  0  0  0  0
   -2.1418   26.3592  -26.1387 H   0  0  0  0  0  0  0  0  0  0  0  0
   -1.6842   28.4408  -24.8698 H   0  0  0  0  0  0  0  0  0  0  0  0
    0.3762   28.6176  -23.5071 H   0  0  0  0  0  0  0  0  0  0  0  0
    2.1330   26.4620  -22.2750 H   0  0  0  0  0  0  0  0  0  0  0  0
    0.9527   23.9229  -27.7025 H   0  0  0  0  0  0  0  0  0  0  0  0
   -0.2873   25.0531  -28.2031 H   0  0  0  0  0  0  0  0  0  0  0  0
   -0.1881   22.1236  -28.5137 H   0  0  0  0  0  0  0  0  0  0  0  0
   -1.1823   22.7923  -30.4030 H   0  0  0  0  0  0  0  0  0  0  0  0
   -1.5641   24.3913  -29.7062 H   0  0  0  0  0  0  0  0  0  0  0  0
   -5.5792   20.9142  -32.0892 H   0  0  0  0  0  0  0  0  0  0  0  0
  1  2  1  0
  2  3  2  0
  2  4  2  0
  2  5  1  0
  5  6  2  0
  6  7  1  0
  7  8  2  0
  8  9  1  0
  9 10  1  0
 10 11  2  0
 10 12  2  0
 10 13  1  0
 13 14  1  0
 14 15  2  0
 14 16  1  0
 16 17  1  0
 17 18  1  0
 18 19  1  0
 19 20  1  0
 20 21  1  0
 21 22  2  0
 22 23  1  0
 23 24  2  0
 24 25  1  0
 25 26  1  0
 25 27  2  0
 27 28  1  0
 28 29  1  0
 28 30  1  0
 28 31  1  0
 20 32  1  0
 32 33  1  0
 33 34  1  0
  9 35  2  0
 35  5  1  0
 34 16  1  0
 33 18  1  0
 27 21  1  0
  1 36  1  0
  1 37  1  0
  1 38  1  0
  6 39  1  0
  7 40  1  0
  8 41  1  0
 13 42  1  0
 17 43  1  0
 17 44  1  0
 18 45  1  1
 19 46  1  0
 19 47  1  0
 20 48  1  1
 22 49  1  0
 23 50  1  0
 24 51  1  0
 26 52  1  0
 32 53  1  0
 32 54  1  0
 33 55  1  6
 34 56  1  0
 34 57  1  0
 35 58  1  0
M  END
>  <smiles>  (21) 
CS(=O)(=O)c1cccc(S(=O)(=O)NC(=O)N2CC3CC(c4cccc(O)c4C(F)(F)F)CC3C2)c1

>  <score_type>  (21) 
oracle

>  <origin>  (21) 
adgpu

>  <m_score__min__energy>  (21) 
-10.869999999999999

>  <m_primary>  (21) 
energy

$$$$
21:0
     RDKit          3D

 37 39  0  0  0  0  0  0  0  0999 V2000
   -7.6710   17.8480  -33.4050 O   0  0  0  0  0  0  0  0  0  0  0  0
   -7.4900   18.9280  -32.7910 C   0  0  0  0  0  0  0  0  0  0  0  0
   -8.5140   19.3870  -32.0040 C   0  0  0  0  0  0  0  0  0  0  0  0
   -8.4230   20.5770  -31.2750 C   0  0  0  0  0  0  0  0  0  0  0  0
   -7.2200   21.2540  -31.4110 C   0  0  0  0  0  0  0  0  0  0  0  0
   -7.1000   22.4330  -30.7040 C   0  0  0  0  0  0  0  0  0  0  0  0
   -5.9200   23.1360  -30.8120 C   0  0  0  0  0  0  0  0  0  0  0  0
   -5.6240   24.6430  -29.9750 S   0  0  0  0  0  0  0  0  0  0  0  0
   -4.6940   25.4430  -30.8680 O   0  0  0  0  0  0  0  0  0  0  0  0
   -6.8950   25.4300  -29.8950 O   0  0  0  0  0  0  0  0  0  0  0  0
   -4.8510   24.4550  -28.4790 N   0  0  0  0  0  0  0  0  0  0  0  0
   -4.1770   23.2290  -28.2570 C   0  0  0  0  0  0  0  0  0  0  0  0
   -2.7450   23.3440  -27.8910 C   0  0  0  0  0  0  0  0  0  0  0  0
   -2.1180   22.4890  -27.0500 C   0  0  0  0  0  0  0  0  0  0  0  0
   -0.7660   22.6670  -26.7550 C   0  0  0  0  0  0  0  0  0  0  0  0
   -0.0860   23.7250  -27.3350 C   0  0  0  0  0  0  0  0  0  0  0  0
   -0.7150   24.6080  -28.1970 C   0  0  0  0  0  0  0  0  0  0  0  0
   -2.0510   24.4100  -28.4720 C   0  0  0  0  0  0  0  0  0  0  0  0
   -2.6880   25.2990  -29.3430 O   0  0  0  0  0  0  0  0  0  0  0  0
   -4.8990   22.6530  -31.6140 C   0  0  0  0  0  0  0  0  0  0  0  0
   -5.0190   21.4690  -32.3260 C   0  0  0  0  0  0  0  0  0  0  0  0
   -6.2130   20.7540  -32.2180 C   0  0  0  0  0  0  0  0  0  0  0  0
   -6.3480   19.6110  -32.8960 N   0  0  0  0  0  0  0  0  0  0  0  0
   -9.4410   18.7980  -31.9436 H   0  0  0  0  0  0  0  0  0  0  0  0
   -9.2428   20.9478  -30.6421 H   0  0  0  0  0  0  0  0  0  0  0  0
   -7.9223   22.8008  -30.0727 H   0  0  0  0  0  0  0  0  0  0  0  0
   -4.4170   25.2770  -28.0600 H   0  0  0  0  0  0  0  0  0  0  0  0
   -4.6936   22.7013  -27.4418 H   0  0  0  0  0  0  0  0  0  0  0  0
   -4.2007   22.6936  -29.2176 H   0  0  0  0  0  0  0  0  0  0  0  0
   -2.6742   21.6539  -26.5991 H   0  0  0  0  0  0  0  0  0  0  0  0
   -0.2480   21.9775  -26.0721 H   0  0  0  0  0  0  0  0  0  0  0  0
    0.9803   23.8676  -27.1053 H   0  0  0  0  0  0  0  0  0  0  0  0
   -0.1631   25.4448  -28.6500 H   0  0  0  0  0  0  0  0  0  0  0  0
   -3.6970   25.4080  -29.1760 H   0  0  0  0  0  0  0  0  0  0  0  0
   -3.9635   23.2268  -31.6885 H   0  0  0  0  0  0  0  0  0  0  0  0
   -4.1963   21.1035  -32.9582 H   0  0  0  0  0  0  0  0  0  0  0  0
   -5.5930   19.2120  -33.5150 H   0  0  0  0  0  0  0  0  0  0  0  0
  1  2  2  0
  2  3  1  0
  3  4  2  0
  4  5  1  0
  5  6  2  0
  6  7  1  0
  7  8  1  0
  8  9  2  0
  8 10  2  0
  8 11  1  0
 11 12  1  0
 12 13  1  0
 13 14  2  0
 14 15  1  0
 15 16  2  0
 16 17  1  0
 17 18  2  0
 18 19  1  0
  7 20  2  0
 20 21  1  0
 21 22  2  0
 22 23  1  0
 23  2  1  0
 22  5  1  0
 18 13  1  0
  3 24  1  0
  4 25  1  0
  6 26  1  0
 11 27  1  0
 12 28  1  0
 12 29  1  0
 14 30  1  0
 15 31  1  0
 16 32  1  0
 17 33  1  0
 19 34  1  0
 20 35  1  0
 21 36  1  0
 23 37  1  0
M  END
>  <smiles>  (22) 
O=c1ccc2cc(S(=O)(=O)NCc3ccccc3O)ccc2[nH]1

>  <score_type>  (22) 
oracle

>  <origin>  (22) 
adgpu

>  <m_score__min__energy>  (22) 
-9.9100000000000001

>  <m_primary>  (22) 
energy

$$$$
22:0
     RDKit          3D

 76 80  0  0  0  0  0  0  0  0999 V2000
    2.3210   16.3710  -30.2070 C   0  0  0  0  0  0  0  0  0  0  0  0
    2.4870   17.6940  -29.7280 O   0  0  0  0  0  0  0  0  0  0  0  0
    1.5590   18.3030  -28.8990 C   0  0  0  0  0  0  0  0  0  0  0  0
    1.6750   19.6820  -28.6750 C   0  0  0  0  0  0  0  0  0  0  0  0
    0.7410   20.3030  -27.8360 C   0  0  0  0  0  0  0  0  0  0  0  0
   -0.2610   19.5730  -27.2520 C   0  0  0  0  0  0  0  0  0  0  0  0
   -1.2730   20.1430  -26.3230 C   0  0  0  0  0  0  0  0  0  0  0  0
   -2.6850   19.7640  -26.7380 C   0  0  0  0  0  0  0  0  0  0  0  0
   -3.1310   20.6990  -27.7440 N   0  0  0  0  0  0  0  0  0  0  0  0
   -2.6630   20.7920  -29.0610 C   0  0  0  0  0  0  0  0  0  0  0  0
   -1.7760   20.0070  -29.4660 O   0  0  0  0  0  0  0  0  0  0  0  0
   -3.2520   21.8440  -29.9110 C   0  0  0  0  0  0  0  0  0  0  0  0
   -4.0290   21.6200  -31.0300 C   0  0  0  0  0  0  0  0  0  0  0  0
   -4.4860   22.8620  -31.5280 C   0  0  0  0  0  0  0  0  0  0  0  0
   -5.4250   22.8970  -32.6550 C   0  0  0  0  0  0  0  0  0  0  0  0
   -6.7780   22.4090  -32.4250 C   0  0  0  0  0  0  0  0  0  0  0  0
   -7.7400   23.4090  -32.1650 C   0  0  0  0  0  0  0  0  0  0  0  0
   -9.0520   23.1670  -31.8990 C   0  0  0  0  0  0  0  0  0  0  0  0
   -9.4980   21.8760  -31.8750 C   0  0  0  0  0  0  0  0  0  0  0  0
   -8.5930   20.8770  -32.1240 C   0  0  0  0  0  0  0  0  0  0  0  0
   -7.2370   21.1320  -32.3990 C   0  0  0  0  0  0  0  0  0  0  0  0
   -6.4550   19.9440  -32.6910 C   0  0  0  0  0  0  0  0  0  0  0  0
   -5.7290   19.7670  -33.8250 C   0  0  0  0  0  0  0  0  0  0  0  0
   -4.9940   18.6140  -34.1030 C   0  0  0  0  0  0  0  0  0  0  0  0
   -5.0290   17.6080  -33.1450 C   0  0  0  0  0  0  0  0  0  0  0  0
   -5.7510   17.7430  -31.9810 C   0  0  0  0  0  0  0  0  0  0  0  0
   -6.4720   18.9070  -31.7350 C   0  0  0  0  0  0  0  0  0  0  0  0
   -3.9540   23.7730  -30.6820 C   0  0  0  0  0  0  0  0  0  0  0  0
   -4.1110   25.1390  -30.7600 O   0  0  0  0  0  0  0  0  0  0  0  0
   -3.2130   23.1850  -29.7070 N   0  0  0  0  0  0  0  0  0  0  0  0
   -2.4890   23.7940  -28.6110 C   0  0  0  0  0  0  0  0  0  0  0  0
   -1.0250   23.7200  -28.9910 C   0  0  0  0  0  0  0  0  0  0  0  0
   -0.1920   23.8400  -27.7560 C   0  0  0  0  0  0  0  0  0  0  0  0
    1.1660   24.0250  -27.8350 C   0  0  0  0  0  0  0  0  0  0  0  0
    1.9160   24.1290  -26.6920 C   0  0  0  0  0  0  0  0  0  0  0  0
    1.2610   24.0400  -25.4870 C   0  0  0  0  0  0  0  0  0  0  0  0
    1.9230   24.1280  -24.2710 O   0  0  0  0  0  0  0  0  0  0  0  0
   -0.1160   23.8550  -25.4080 C   0  0  0  0  0  0  0  0  0  0  0  0
   -0.7880   23.7670  -24.1920 O   0  0  0  0  0  0  0  0  0  0  0  0
   -0.8770   23.7500  -26.5490 C   0  0  0  0  0  0  0  0  0  0  0  0
   -0.3760   18.1980  -27.4780 C   0  0  0  0  0  0  0  0  0  0  0  0
    0.5430   17.5890  -28.3010 C   0  0  0  0  0  0  0  0  0  0  0  0
    2.2344   15.6807  -29.3549 H   0  0  0  0  0  0  0  0  0  0  0  0
    1.4087   16.3144  -30.8190 H   0  0  0  0  0  0  0  0  0  0  0  0
    3.1910   16.0907  -30.8190 H   0  0  0  0  0  0  0  0  0  0  0  0
    2.4809   20.2629  -29.1472 H   0  0  0  0  0  0  0  0  0  0  0  0
    0.8123   21.3839  -27.6446 H   0  0  0  0  0  0  0  0  0  0  0  0
   -1.0834   19.7604  -25.3093 H   0  0  0  0  0  0  0  0  0  0  0  0
   -1.1877   21.2394  -26.3497 H   0  0  0  0  0  0  0  0  0  0  0  0
   -2.6899   18.7442  -27.1504 H   0  0  0  0  0  0  0  0  0  0  0  0
   -3.3565   19.7969  -25.8673 H   0  0  0  0  0  0  0  0  0  0  0  0
   -3.8910   21.3740  -27.4220 H   0  0  0  0  0  0  0  0  0  0  0  0
   -4.2558   20.6350  -31.4639 H   0  0  0  0  0  0  0  0  0  0  0  0
   -5.5048   23.9437  -32.9836 H   0  0  0  0  0  0  0  0  0  0  0  0
   -5.0000   22.2002  -33.3924 H   0  0  0  0  0  0  0  0  0  0  0  0
   -7.4054   24.4568  -32.1784 H   0  0  0  0  0  0  0  0  0  0  0  0
   -9.7444   23.9996  -31.7058 H   0  0  0  0  0  0  0  0  0  0  0  0
  -10.5522   21.6449  -31.6622 H   0  0  0  0  0  0  0  0  0  0  0  0
   -8.9411   19.8336  -32.1082 H   0  0  0  0  0  0  0  0  0  0  0  0
   -5.7199   20.5791  -34.5669 H   0  0  0  0  0  0  0  0  0  0  0  0
   -4.4164   18.5068  -35.0330 H   0  0  0  0  0  0  0  0  0  0  0  0
   -4.4653   16.6801  -33.3214 H   0  0  0  0  0  0  0  0  0  0  0  0
   -5.7579   16.9276  -31.2427 H   0  0  0  0  0  0  0  0  0  0  0  0
   -7.0491   19.0175  -30.8051 H   0  0  0  0  0  0  0  0  0  0  0  0
   -4.2010   25.7020  -31.5930 H   0  0  0  0  0  0  0  0  0  0  0  0
   -2.7988   24.8416  -28.4826 H   0  0  0  0  0  0  0  0  0  0  0  0
   -2.6866   23.2785  -27.6596 H   0  0  0  0  0  0  0  0  0  0  0  0
   -0.8200   22.7569  -29.4813 H   0  0  0  0  0  0  0  0  0  0  0  0
   -0.7803   24.5387  -29.6837 H   0  0  0  0  0  0  0  0  0  0  0  0
    1.6540   24.0900  -28.8187 H   0  0  0  0  0  0  0  0  0  0  0  0
    3.0048   24.2786  -26.7378 H   0  0  0  0  0  0  0  0  0  0  0  0
    1.3360   24.2250  -23.4310 H   0  0  0  0  0  0  0  0  0  0  0  0
   -0.3070   23.8760  -23.2900 H   0  0  0  0  0  0  0  0  0  0  0  0
   -1.9664   23.6031  -26.5090 H   0  0  0  0  0  0  0  0  0  0  0  0
   -1.1830   17.6164  -27.0084 H   0  0  0  0  0  0  0  0  0  0  0  0
    0.4651   16.5075  -28.4860 H   0  0  0  0  0  0  0  0  0  0  0  0
  1  2  1  0
  2  3  1  0
  3  4  2  0
  4  5  1  0
  5  6  2  0
  6  7  1  0
  7  8  1  0
  8  9  1  0
  9 10  1  0
 10 11  2  0
 10 12  1  0
 12 13  2  0
 13 14  1  0
 14 15  1  0
 15 16  1  0
 16 17  2  0
 17 18  1  0
 18 19  2  0
 19 20  1  0
 20 21  2  0
 21 22  1  0
 22 23  2  0
 23 24  1  0
 24 25  2  0
 25 26  1  0
 26 27  2  0
 14 28  2  0
 28 29  1  0
 28 30  1  0
 30 31  1  0
 31 32  1  0
 32 33  1  0
 33 34  2  0
 34 35  1  0
 35 36  2  0
 36 37  1  0
 36 38  1  0
 38 39  1  0
 38 40  2  0
  6 41  1  0
 41 42  2  0
 42  3  1  0
 30 12  1  0
 40 33  1  0
 21 16  1  0
 27 22  1  0
  1 43  1  0
  1 44  1  0
  1 45  1  0
  4 46  1  0
  5 47  1  0
  7 48  1  0
  7 49  1  0
  8 50  1  0
  8 51  1  0
  9 52  1  0
 13 53  1  0
 15 54  1  0
 15 55  1  0
 17 56  1  0
 18 57  1  0
 19 58  1  0
 20 59  1  0
 23 60  1  0
 24 61  1  0
 25 62  1  0
 26 63  1  0
 27 64  1  0
 29 65  1  0
 31 66  1  0
 31 67  1  0
 32 68  1  0
 32 69  1  0
 34 70  1  0
 35 71  1  0
 37 72  1  0
 39 73  1  0
 40 74  1  0
 41 75  1  0
 42 76  1  0
M  END
>  <smiles>  (23) 
COc1ccc(CCNC(=O)c2cc(Cc3ccccc3-c3ccccc3)c(O)n2CCc2ccc(O)c(O)c2)cc1

>  <score_type>  (23) 
oracle

>  <origin>  (23) 
adgpu

>  <m_score__min__energy>  (23) 
-11.6

>  <m_primary>  (23) 
energy

$$$$
23:0
     RDKit          3D

 49 51  0  0  0  0  0  0  0  0999 V2000
   -9.1760   19.3240  -32.3700 C   0  0  0  0  0  0  0  0  0  0  0  0
   -8.5910   20.4600  -32.9270 O   0  0  0  0  0  0  0  0  0  0  0  0
   -7.8290   21.4020  -32.2960 C   0  0  0  0  0  0  0  0  0  0  0  0
   -8.4600   22.5900  -31.9370 C   0  0  0  0  0  0  0  0  0  0  0  0
   -7.7750   23.5920  -31.2990 C   0  0  0  0  0  0  0  0  0  0  0  0
   -6.4440   23.3770  -31.0280 C   0  0  0  0  0  0  0  0  0  0  0  0
   -5.4960   24.6020  -30.2090 S   0  0  0  0  0  0  0  0  0  0  0  0
   -4.4780   25.1670  -31.1220 O   0  0  0  0  0  0  0  0  0  0  0  0
   -6.4440   25.7340  -29.8360 O   0  0  0  0  0  0  0  0  0  0  0  0
   -4.8190   23.9970  -28.7640 N   0  0  0  0  0  0  0  0  0  0  0  0
   -3.6090   23.2840  -28.6560 C   0  0  0  0  0  0  0  0  0  0  0  0
   -3.5020   21.9590  -28.3170 C   0  0  0  0  0  0  0  0  0  0  0  0
   -2.3060   21.2820  -28.2090 C   0  0  0  0  0  0  0  0  0  0  0  0
   -2.2520   19.9540  -27.8680 F   0  0  0  0  0  0  0  0  0  0  0  0
   -1.1170   21.9690  -28.4540 C   0  0  0  0  0  0  0  0  0  0  0  0
   -1.1910   23.3060  -28.7960 C   0  0  0  0  0  0  0  0  0  0  0  0
   -2.3950   23.9450  -28.8940 C   0  0  0  0  0  0  0  0  0  0  0  0
   -2.3930   25.2860  -29.2430 O   0  0  0  0  0  0  0  0  0  0  0  0
   -5.8250   22.2040  -31.3830 C   0  0  0  0  0  0  0  0  0  0  0  0
   -6.4970   21.1600  -32.0370 C   0  0  0  0  0  0  0  0  0  0  0  0
   -5.7930   20.0050  -32.3790 N   0  0  0  0  0  0  0  0  0  0  0  0
   -6.0890   18.7760  -31.6080 C   0  0  0  0  0  0  0  0  0  0  0  0
   -5.4300   17.5880  -32.2600 C   0  0  0  0  0  0  0  0  0  0  0  0
   -5.4700   17.5510  -33.6740 N   0  0  0  0  0  0  0  0  0  0  0  0
   -6.5030   16.7620  -34.2620 C   0  0  0  0  0  0  0  0  0  0  0  0
   -5.3410   18.8110  -34.3570 C   0  0  0  0  0  0  0  0  0  0  0  0
   -4.7930   19.8440  -33.3900 C   0  0  0  0  0  0  0  0  0  0  0  0
   -9.1402   19.3936  -31.2728 H   0  0  0  0  0  0  0  0  0  0  0  0
  -10.2232   19.2521  -32.6988 H   0  0  0  0  0  0  0  0  0  0  0  0
   -8.6263   18.4298  -32.6988 H   0  0  0  0  0  0  0  0  0  0  0  0
   -9.5264   22.7272  -32.1692 H   0  0  0  0  0  0  0  0  0  0  0  0
   -8.2711   24.5318  -31.0149 H   0  0  0  0  0  0  0  0  0  0  0  0
   -5.3660   24.1770  -27.8690 H   0  0  0  0  0  0  0  0  0  0  0  0
   -4.4293   21.4015  -28.1188 H   0  0  0  0  0  0  0  0  0  0  0  0
   -0.1451   21.4595  -28.3770 H   0  0  0  0  0  0  0  0  0  0  0  0
   -0.2646   23.8656  -28.9928 H   0  0  0  0  0  0  0  0  0  0  0  0
   -3.1120   25.6770  -29.8320 H   0  0  0  0  0  0  0  0  0  0  0  0
   -4.7585   22.0774  -31.1450 H   0  0  0  0  0  0  0  0  0  0  0  0
   -5.7062   18.8879  -30.5829 H   0  0  0  0  0  0  0  0  0  0  0  0
   -7.1773   18.6176  -31.5843 H   0  0  0  0  0  0  0  0  0  0  0  0
   -4.3736   17.5798  -31.9535 H   0  0  0  0  0  0  0  0  0  0  0  0
   -6.0045   16.7116  -31.9256 H   0  0  0  0  0  0  0  0  0  0  0  0
   -7.1082   16.2998  -33.4682 H   0  0  0  0  0  0  0  0  0  0  0  0
   -7.1438   17.4027  -34.8856 H   0  0  0  0  0  0  0  0  0  0  0  0
   -6.0535   15.9752  -34.8856 H   0  0  0  0  0  0  0  0  0  0  0  0
   -4.6524   18.7005  -35.2077 H   0  0  0  0  0  0  0  0  0  0  0  0
   -6.3246   19.1347  -34.7281 H   0  0  0  0  0  0  0  0  0  0  0  0
   -3.8520   19.4894  -32.9442 H   0  0  0  0  0  0  0  0  0  0  0  0
   -4.5746   20.7955  -33.8969 H   0  0  0  0  0  0  0  0  0  0  0  0
  1  2  1  0
  2  3  1  0
  3  4  2  0
  4  5  1  0
  5  6  2  0
  6  7  1  0
  7  8  2  0
  7  9  2  0
  7 10  1  0
 10 11  1  0
 11 12  2  0
 12 13  1  0
 13 14  1  0
 13 15  2  0
 15 16  1  0
 16 17  2  0
 17 18  1  0
  6 19  1  0
 19 20  2  0
 20 21  1  0
 21 22  1  0
 22 23  1  0
 23 24  1  0
 24 25  1  0
 24 26  1  0
 26 27  1  0
 20  3  1  0
 27 21  1  0
 17 11  1  0
  1 28  1  0
  1 29  1  0
  1 30  1  0
  4 31  1  0
  5 32  1  0
 10 33  1  0
 12 34  1  0
 15 35  1  0
 16 36  1  0
 18 37  1  0
 19 38  1  0
 22 39  1  0
 22 40  1  0
 23 41  1  0
 23 42  1  0
 25 43  1  0
 25 44  1  0
 25 45  1  0
 26 46  1  0
 26 47  1  0
 27 48  1  0
 27 49  1  0
M  END
>  <smiles>  (24) 
COc1ccc(S(=O)(=O)Nc2cc(F)ccc2O)cc1N1CCN(C)CC1

>  <score_type>  (24) 
oracle

>  <origin>  (24) 
adgpu

>  <m_score__min__energy>  (24) 
-10.27

>  <m_primary>  (24) 
energy

$$$$
24:0
     RDKit          3D

 57 61  0  0  0  0  0  0  0  0999 V2000
   -2.6990   22.5100  -27.8700 O   0  0  0  0  0  0  0  0  0  0  0  0
   -2.3330   23.7150  -27.7020 C   0  0  0  0  0  0  0  0  0  0  0  0
   -3.0010   24.6930  -28.4660 N   0  0  0  0  0  0  0  0  0  0  0  0
   -4.0260   24.2350  -29.3600 C   0  0  0  0  0  0  0  0  0  0  0  0
   -5.3410   24.5650  -29.0970 C   0  0  0  0  0  0  0  0  0  0  0  0
   -6.3370   24.1290  -29.9530 C   0  0  0  0  0  0  0  0  0  0  0  0
   -6.0400   23.3660  -31.0740 C   0  0  0  0  0  0  0  0  0  0  0  0
   -7.3100   22.7920  -32.1940 S   0  0  0  0  0  0  0  0  0  0  0  0
   -7.0210   21.1150  -32.7120 C   0  0  0  0  0  0  0  0  0  0  0  0
   -6.3740   20.5030  -33.4780 N   0  0  0  0  0  0  0  0  0  0  0  0
   -6.3180   19.2140  -33.6990 C   0  0  0  0  0  0  0  0  0  0  0  0
   -5.5450   18.5010  -34.6140 C   0  0  0  0  0  0  0  0  0  0  0  0
   -5.6490   17.1510  -34.6710 C   0  0  0  0  0  0  0  0  0  0  0  0
   -6.4780   16.3780  -33.8840 C   0  0  0  0  0  0  0  0  0  0  0  0
   -7.2560   17.0910  -32.9640 C   0  0  0  0  0  0  0  0  0  0  0  0
   -7.1540   18.4610  -32.9010 C   0  0  0  0  0  0  0  0  0  0  0  0
   -7.9620   19.6850  -31.8860 S   0  0  0  0  0  0  0  0  0  0  0  0
   -4.7130   23.0540  -31.3080 C   0  0  0  0  0  0  0  0  0  0  0  0
   -4.3660   22.3000  -32.4040 O   0  0  0  0  0  0  0  0  0  0  0  0
   -3.6910   23.4740  -30.4710 C   0  0  0  0  0  0  0  0  0  0  0  0
   -1.2710   23.9990  -26.7470 C   0  0  0  0  0  0  0  0  0  0  0  0
   -0.3380   22.9900  -26.5430 C   0  0  0  0  0  0  0  0  0  0  0  0
    0.6880   23.2120  -25.6480 C   0  0  0  0  0  0  0  0  0  0  0  0
    0.7710   24.4300  -24.9720 C   0  0  0  0  0  0  0  0  0  0  0  0
    1.8190   24.5810  -24.1000 O   0  0  0  0  0  0  0  0  0  0  0  0
   -0.1300   25.4350  -25.1520 C   0  0  0  0  0  0  0  0  0  0  0  0
   -0.1550   26.9710  -24.3630 S   0  0  0  0  0  0  0  0  0  0  0  0
    0.6710   26.8910  -23.0730 O   0  0  0  0  0  0  0  0  0  0  0  0
   -1.6020   27.2010  -23.8760 O   0  0  0  0  0  0  0  0  0  0  0  0
    0.2680   28.3250  -25.2580 N   0  0  0  0  0  0  0  0  0  0  0  0
    0.1860   29.6130  -24.6990 C   0  0  0  0  0  0  0  0  0  0  0  0
   -1.1070   30.3140  -25.0640 C   0  0  0  0  0  0  0  0  0  0  0  0
   -1.1740   30.5480  -26.4420 O   0  0  0  0  0  0  0  0  0  0  0  0
   -0.4530   29.6510  -27.1900 C   0  0  0  0  0  0  0  0  0  0  0  0
   -0.3560   28.2660  -26.5730 C   0  0  0  0  0  0  0  0  0  0  0  0
   -1.1590   25.1720  -26.0710 C   0  0  0  0  0  0  0  0  0  0  0  0
   -2.7420   25.6890  -28.3660 H   0  0  0  0  0  0  0  0  0  0  0  0
   -5.5947   25.1698  -28.2139 H   0  0  0  0  0  0  0  0  0  0  0  0
   -7.3839   24.3920  -29.7412 H   0  0  0  0  0  0  0  0  0  0  0  0
   -4.8543   19.0313  -35.2861 H   0  0  0  0  0  0  0  0  0  0  0  0
   -5.0200   16.6276  -35.4061 H   0  0  0  0  0  0  0  0  0  0  0  0
   -6.5242   15.2826  -33.9729 H   0  0  0  0  0  0  0  0  0  0  0  0
   -7.9463   16.5574  -32.2941 H   0  0  0  0  0  0  0  0  0  0  0  0
   -4.9600   22.1490  -33.2000 H   0  0  0  0  0  0  0  0  0  0  0  0
   -2.6438   23.2114  -30.6816 H   0  0  0  0  0  0  0  0  0  0  0  0
   -0.4157   22.0350  -27.0833 H   0  0  0  0  0  0  0  0  0  0  0  0
    1.4399   22.4297  -25.4674 H   0  0  0  0  0  0  0  0  0  0  0  0
    1.6350   24.9590  -23.1700 H   0  0  0  0  0  0  0  0  0  0  0  0
    0.2462   29.5284  -23.6039 H   0  0  0  0  0  0  0  0  0  0  0  0
    1.0185   30.2092  -25.1008 H   0  0  0  0  0  0  0  0  0  0  0  0
   -1.9565   29.6829  -24.7637 H   0  0  0  0  0  0  0  0  0  0  0  0
   -1.1438   31.2806  -24.5402 H   0  0  0  0  0  0  0  0  0  0  0  0
   -0.9335   29.5575  -28.1751 H   0  0  0  0  0  0  0  0  0  0  0  0
    0.5729   30.0428  -27.2534 H   0  0  0  0  0  0  0  0  0  0  0  0
   -1.3672   27.8446  -26.4732 H   0  0  0  0  0  0  0  0  0  0  0  0
    0.2615   27.6326  -27.2268 H   0  0  0  0  0  0  0  0  0  0  0  0
   -1.9110   25.9541  -26.2522 H   0  0  0  0  0  0  0  0  0  0  0  0
  1  2  2  0
  2  3  1  0
  3  4  1  0
  4  5  2  0
  5  6  1  0
  6  7  2  0
  7  8  1  0
  8  9  1  0
  9 10  2  0
 10 11  1  0
 11 12  2  0
 12 13  1  0
 13 14  2  0
 14 15  1  0
 15 16  2  0
 16 17  1  0
  7 18  1  0
 18 19  1  0
 18 20  2  0
  2 21  1  0
 21 22  2  0
 22 23  1  0
 23 24  2  0
 24 25  1  0
 24 26  1  0
 26 27  1  0
 27 28  2  0
 27 29  2  0
 27 30  1  0
 30 31  1  0
 31 32  1  0
 32 33  1  0
 33 34  1  0
 34 35  1  0
 26 36  2  0
 20  4  1  0
 36 21  1  0
 17  9  1  0
 35 30  1  0
 16 11  1  0
  3 37  1  0
  5 38  1  0
  6 39  1  0
 12 40  1  0
 13 41  1  0
 14 42  1  0
 15 43  1  0
 19 44  1  0
 20 45  1  0
 22 46  1  0
 23 47  1  0
 25 48  1  0
 31 49  1  0
 31 50  1  0
 32 51  1  0
 32 52  1  0
 34 53  1  0
 34 54  1  0
 35 55  1  0
 35 56  1  0
 36 57  1  0
M  END
>  <smiles>  (25) 
O=C(Nc1ccc(Sc2nc3ccccc3s2)c(O)c1)c1ccc(O)c(S(=O)(=O)N2CCOCC2)c1

>  <score_type>  (25) 
oracle

>  <origin>  (25) 
adgpu

>  <m_score__min__energy>  (25) 
-9.8699999999999992

>  <m_primary>  (25) 
energy

$$$$
25:0
     RDKit          3D

 58 61  0  0  0  0  0  0  0  0999 V2000
   -3.4860   16.3070  -33.9150 C   0  0  0  0  0  0  0  0  0  0  0  0
   -4.7030   17.0390  -34.2080 N   0  0  0  0  0  0  0  0  0  0  0  0
   -5.8900   16.3730  -33.8090 C   0  0  0  0  0  0  0  0  0  0  0  0
   -7.0680   17.1800  -33.4840 C   0  0  0  0  0  0  0  0  0  0  0  0
   -6.8580   18.6720  -33.3970 C   0  0  0  0  0  0  0  0  0  0  0  0
   -8.1120   19.4100  -32.3740 S   0  0  0  0  0  0  0  0  0  0  0  0
   -8.3360   18.4670  -31.2030 O   0  0  0  0  0  0  0  0  0  0  0  0
   -9.3960   19.5540  -33.1060 O   0  0  0  0  0  0  0  0  0  0  0  0
   -7.5210   20.9060  -31.6940 C   0  0  0  0  0  0  0  0  0  0  0  0
   -6.5060   21.5990  -32.3140 C   0  0  0  0  0  0  0  0  0  0  0  0
   -6.0400   22.7840  -31.7910 C   0  0  0  0  0  0  0  0  0  0  0  0
   -6.5330   23.3590  -30.6400 C   0  0  0  0  0  0  0  0  0  0  0  0
   -6.0110   24.8390  -29.9410 S   0  0  0  0  0  0  0  0  0  0  0  0
   -7.2040   25.6720  -29.5210 O   0  0  0  0  0  0  0  0  0  0  0  0
   -5.3420   25.6670  -31.0470 O   0  0  0  0  0  0  0  0  0  0  0  0
   -4.9030   24.6370  -28.6720 N   0  0  0  0  0  0  0  0  0  0  0  0
   -3.8890   23.6830  -28.5240 C   0  0  0  0  0  0  0  0  0  0  0  0
   -4.0180   22.4320  -27.9670 C   0  0  0  0  0  0  0  0  0  0  0  0
   -2.9810   21.5300  -27.8480 C   0  0  0  0  0  0  0  0  0  0  0  0
   -1.7450   21.9110  -28.3160 C   0  0  0  0  0  0  0  0  0  0  0  0
   -1.5370   23.1390  -28.8830 C   0  0  0  0  0  0  0  0  0  0  0  0
   -2.5980   24.0020  -28.9800 C   0  0  0  0  0  0  0  0  0  0  0  0
   -2.3380   25.2550  -29.5710 O   0  0  0  0  0  0  0  0  0  0  0  0
   -0.6460   20.8920  -28.1600 C   0  0  0  0  0  0  0  0  0  0  0  0
   -0.6680   20.2990  -26.8590 N   0  0  0  0  0  0  0  0  0  0  0  0
   -1.9200   19.7310  -26.4750 C   0  0  0  0  0  0  0  0  0  0  0  0
   -3.1100   20.1950  -27.2470 C   0  0  0  0  0  0  0  0  0  0  0  0
   -7.5660   22.6460  -30.0160 C   0  0  0  0  0  0  0  0  0  0  0  0
   -8.0330   21.4640  -30.5370 C   0  0  0  0  0  0  0  0  0  0  0  0
   -5.4950   18.8760  -32.7740 C   0  0  0  0  0  0  0  0  0  0  0  0
   -4.5390   18.3920  -33.8560 C   0  0  0  0  0  0  0  0  0  0  0  0
   -3.3578   16.2299  -32.8252 H   0  0  0  0  0  0  0  0  0  0  0  0
   -3.5514   15.2983  -34.3488 H   0  0  0  0  0  0  0  0  0  0  0  0
   -2.6256   16.8376  -34.3488 H   0  0  0  0  0  0  0  0  0  0  0  0
   -6.1750   15.6979  -34.6293 H   0  0  0  0  0  0  0  0  0  0  0  0
   -5.6219   15.8918  -32.8568 H   0  0  0  0  0  0  0  0  0  0  0  0
   -7.8253   16.9936  -34.2597 H   0  0  0  0  0  0  0  0  0  0  0  0
   -7.3649   16.8679  -32.4719 H   0  0  0  0  0  0  0  0  0  0  0  0
   -6.9189   19.1409  -34.3902 H   0  0  0  0  0  0  0  0  0  0  0  0
   -6.0620   21.2011  -33.2384 H   0  0  0  0  0  0  0  0  0  0  0  0
   -5.2276   23.3014  -32.3223 H   0  0  0  0  0  0  0  0  0  0  0  0
   -4.9970   25.3390  -27.8620 H   0  0  0  0  0  0  0  0  0  0  0  0
   -5.0084   22.1325  -27.5937 H   0  0  0  0  0  0  0  0  0  0  0  0
   -0.5417   23.4270  -29.2524 H   0  0  0  0  0  0  0  0  0  0  0  0
   -2.9520   25.6690  -30.2620 H   0  0  0  0  0  0  0  0  0  0  0  0
   -0.7786   20.1035  -28.9154 H   0  0  0  0  0  0  0  0  0  0  0  0
    0.3203   21.4004  -28.2935 H   0  0  0  0  0  0  0  0  0  0  0  0
   -0.2140   20.8570  -26.1290 H   0  0  0  0  0  0  0  0  0  0  0  0
   -1.8457   18.6399  -26.5936 H   0  0  0  0  0  0  0  0  0  0  0  0
   -2.0906   20.0590  -25.4390 H   0  0  0  0  0  0  0  0  0  0  0  0
   -3.2938   19.4731  -28.0564 H   0  0  0  0  0  0  0  0  0  0  0  0
   -3.9367   20.2627  -26.5245 H   0  0  0  0  0  0  0  0  0  0  0  0
   -8.0114   23.0408  -29.0909 H   0  0  0  0  0  0  0  0  0  0  0  0
   -8.8464   20.9406  -30.0132 H   0  0  0  0  0  0  0  0  0  0  0  0
   -5.3227   19.9374  -32.5420 H   0  0  0  0  0  0  0  0  0  0  0  0
   -5.3729   18.3405  -31.8209 H   0  0  0  0  0  0  0  0  0  0  0  0
   -4.6981   19.0043  -34.7559 H   0  0  0  0  0  0  0  0  0  0  0  0
   -3.5226   18.4912  -33.4471 H   0  0  0  0  0  0  0  0  0  0  0  0
  1  2  1  0
  2  3  1  0
  3  4  1  0
  4  5  1  0
  5  6  1  0
  6  7  2  0
  6  8  2  0
  6  9  1  0
  9 10  2  0
 10 11  1  0
 11 12  2  0
 12 13  1  0
 13 14  2  0
 13 15  2  0
 13 16  1  0
 16 17  1  0
 17 18  2  0
 18 19  1  0
 19 20  2  0
 20 21  1  0
 21 22  2  0
 22 23  1  0
 20 24  1  0
 24 25  1  0
 25 26  1  0
 26 27  1  0
 12 28  1  0
 28 29  2  0
  5 30  1  0
 30 31  1  0
 31  2  1  0
 29  9  1  0
 22 17  1  0
 27 19  1  0
  1 32  1  0
  1 33  1  0
  1 34  1  0
  3 35  1  0
  3 36  1  0
  4 37  1  0
  4 38  1  0
  5 39  1  0
 10 40  1  0
 11 41  1  0
 16 42  1  0
 18 43  1  0
 21 44  1  0
 23 45  1  0
 24 46  1  0
 24 47  1  0
 25 48  1  0
 26 49  1  0
 26 50  1  0
 27 51  1  0
 27 52  1  0
 28 53  1  0
 29 54  1  0
 30 55  1  0
 30 56  1  0
 31 57  1  0
 31 58  1  0
M  END
>  <smiles>  (26) 
CN1CCC(S(=O)(=O)c2ccc(S(=O)(=O)Nc3cc4c(cc3O)CNCC4)cc2)CC1

>  <score_type>  (26) 
oracle

>  <origin>  (26) 
adgpu

>  <m_score__min__energy>  (26) 
-12.99

>  <m_primary>  (26) 
energy

$$$$
26:0
     RDKit          3D

 61 64  0  0  0  0  0  0  0  0999 V2000
   -0.2060   12.1220  -30.6350 C   0  0  0  0  0  0  0  0  0  0  0  0
   -1.6090   12.0710  -30.6510 O   0  0  0  0  0  0  0  0  0  0  0  0
   -2.3260   12.8970  -31.4960 C   0  0  0  0  0  0  0  0  0  0  0  0
   -3.6950   12.9140  -31.4780 C   0  0  0  0  0  0  0  0  0  0  0  0
   -4.3600   13.7420  -32.3260 C   0  0  0  0  0  0  0  0  0  0  0  0
   -3.7390   14.6090  -33.2520 C   0  0  0  0  0  0  0  0  0  0  0  0
   -4.7810   15.5150  -34.2510 S   0  0  0  0  0  0  0  0  0  0  0  0
   -6.0870   14.8170  -34.5530 O   0  0  0  0  0  0  0  0  0  0  0  0
   -4.1250   15.6470  -35.6330 O   0  0  0  0  0  0  0  0  0  0  0  0
   -5.1420   17.0780  -33.7490 N   0  0  0  0  0  0  0  0  0  0  0  0
   -6.0640   17.8720  -34.4310 C   0  0  0  0  0  0  0  0  0  0  0  0
   -5.8560   19.3090  -34.0050 C   0  0  0  0  0  0  0  0  0  0  0  0
   -5.9370   19.5100  -32.6900 C   0  0  0  0  0  0  0  0  0  0  0  0
   -5.7760   20.7990  -32.0550 C   0  0  0  0  0  0  0  0  0  0  0  0
   -6.6620   21.8520  -32.2180 C   0  0  0  0  0  0  0  0  0  0  0  0
   -6.4840   23.0770  -31.5970 C   0  0  0  0  0  0  0  0  0  0  0  0
   -5.4020   23.3120  -30.7770 C   0  0  0  0  0  0  0  0  0  0  0  0
   -5.1160   24.8270  -29.9670 S   0  0  0  0  0  0  0  0  0  0  0  0
   -6.6630   25.6190  -29.6580 C   0  0  0  0  0  0  0  0  0  0  0  0
   -4.2340   25.6790  -30.8410 O   0  0  0  0  0  0  0  0  0  0  0  0
   -4.4100   24.5430  -28.6710 O   0  0  0  0  0  0  0  0  0  0  0  0
   -4.5130   22.2760  -30.6060 C   0  0  0  0  0  0  0  0  0  0  0  0
   -4.6940   21.0370  -31.2340 C   0  0  0  0  0  0  0  0  0  0  0  0
   -6.1970   18.2370  -31.9210 C   0  0  0  0  0  0  0  0  0  0  0  0
   -5.1640   17.2030  -32.3000 C   0  0  0  0  0  0  0  0  0  0  0  0
   -2.3660   14.5850  -33.2610 C   0  0  0  0  0  0  0  0  0  0  0  0
   -1.4140   15.6070  -34.3010 S   0  0  0  0  0  0  0  0  0  0  0  0
   -1.8550   15.5930  -35.7290 O   0  0  0  0  0  0  0  0  0  0  0  0
    0.0720   15.4180  -34.1330 O   0  0  0  0  0  0  0  0  0  0  0  0
   -1.7430   17.2920  -33.7790 C   0  0  0  0  0  0  0  0  0  0  0  0
   -2.4550   18.1440  -34.5960 C   0  0  0  0  0  0  0  0  0  0  0  0
   -2.7130   19.4320  -34.2040 C   0  0  0  0  0  0  0  0  0  0  0  0
   -2.2430   19.8500  -32.9780 C   0  0  0  0  0  0  0  0  0  0  0  0
   -1.5370   18.9960  -32.1760 C   0  0  0  0  0  0  0  0  0  0  0  0
   -1.2680   17.6970  -32.5540 C   0  0  0  0  0  0  0  0  0  0  0  0
   -1.6920   13.7300  -32.3840 C   0  0  0  0  0  0  0  0  0  0  0  0
    0.1486   12.1349  -29.5938 H   0  0  0  0  0  0  0  0  0  0  0  0
    0.1989   11.2380  -31.1493 H   0  0  0  0  0  0  0  0  0  0  0  0
    0.1337   13.0331  -31.1493 H   0  0  0  0  0  0  0  0  0  0  0  0
   -4.2503   12.2648  -30.7850 H   0  0  0  0  0  0  0  0  0  0  0  0
   -5.4593   13.7366  -32.2885 H   0  0  0  0  0  0  0  0  0  0  0  0
   -5.9059   17.7784  -35.5155 H   0  0  0  0  0  0  0  0  0  0  0  0
   -7.0895   17.5506  -34.1965 H   0  0  0  0  0  0  0  0  0  0  0  0
   -5.6548   20.1198  -34.7207 H   0  0  0  0  0  0  0  0  0  0  0  0
   -7.5400   21.7094  -32.8652 H   0  0  0  0  0  0  0  0  0  0  0  0
   -7.2203   23.8775  -31.7615 H   0  0  0  0  0  0  0  0  0  0  0  0
   -6.8227   25.7008  -28.5727 H   0  0  0  0  0  0  0  0  0  0  0  0
   -6.6558   26.6243  -30.1044 H   0  0  0  0  0  0  0  0  0  0  0  0
   -7.4744   25.0254  -30.1044 H   0  0  0  0  0  0  0  0  0  0  0  0
   -3.6363   22.4247  -29.9585 H   0  0  0  0  0  0  0  0  0  0  0  0
   -3.9574   20.2370  -31.0687 H   0  0  0  0  0  0  0  0  0  0  0  0
   -6.1339   18.4406  -30.8419 H   0  0  0  0  0  0  0  0  0  0  0  0
   -7.2013   17.8595  -32.1636 H   0  0  0  0  0  0  0  0  0  0  0  0
   -4.1738   17.5194  -31.9403 H   0  0  0  0  0  0  0  0  0  0  0  0
   -5.4165   16.2347  -31.8432 H   0  0  0  0  0  0  0  0  0  0  0  0
   -2.8192   17.7873  -35.5707 H   0  0  0  0  0  0  0  0  0  0  0  0
   -3.2813   20.1151  -34.8523 H   0  0  0  0  0  0  0  0  0  0  0  0
   -2.4372   20.8791  -32.6414 H   0  0  0  0  0  0  0  0  0  0  0  0
   -1.1735   19.3553  -31.2020 H   0  0  0  0  0  0  0  0  0  0  0  0
   -0.6989   17.0156  -31.9045 H   0  0  0  0  0  0  0  0  0  0  0  0
   -0.5923   13.7244  -32.4068 H   0  0  0  0  0  0  0  0  0  0  0  0
  1  2  1  0
  2  3  1  0
  3  4  2  0
  4  5  1  0
  5  6  2  0
  6  7  1  0
  7  8  2  0
  7  9  2  0
  7 10  1  0
 10 11  1  0
 11 12  1  0
 12 13  2  0
 13 14  1  0
 14 15  2  0
 15 16  1  0
 16 17  2  0
 17 18  1  0
 18 19  1  0
 18 20  2  0
 18 21  2  0
 17 22  1  0
 22 23  2  0
 13 24  1  0
 24 25  1  0
  6 26  1  0
 26 27  1  0
 27 28  2  0
 27 29  2  0
 27 30  1  0
 30 31  2  0
 31 32  1  0
 32 33  2  0
 33 34  1  0
 34 35  2  0
 26 36  2  0
 36  3  1  0
 25 10  1  0
 35 30  1  0
 23 14  1  0
  1 37  1  0
  1 38  1  0
  1 39  1  0
  4 40  1  0
  5 41  1  0
 11 42  1  0
 11 43  1  0
 12 44  1  0
 15 45  1  0
 16 46  1  0
 19 47  1  0
 19 48  1  0
 19 49  1  0
 22 50  1  0
 23 51  1  0
 24 52  1  0
 24 53  1  0
 25 54  1  0
 25 55  1  0
 31 56  1  0
 32 57  1  0
 33 58  1  0
 34 59  1  0
 35 60  1  0
 36 61  1  0
M  END
>  <smiles>  (27) 
COc1ccc(S(=O)(=O)N2CC=C(c3ccc(S(C)(=O)=O)cc3)CC2)c(S(=O)(=O)c2ccccc2)c1

>  <score_type>  (27) 
oracle

>  <origin>  (27) 
adgpu

>  <m_score__min__energy>  (27) 
-10.18

>  <m_primary>  (27) 
energy

$$$$
27:0
     RDKit          3D

 65 70  0  0  0  0  0  0  0  0999 V2000
   -0.1780   15.1180  -32.8380 C   0  0  0  0  0  0  0  0  0  0  0  0
    0.4100   16.2440  -33.4260 O   0  0  0  0  0  0  0  0  0  0  0  0
   -0.2150   17.4770  -33.2890 C   0  0  0  0  0  0  0  0  0  0  0  0
    0.1180   18.3390  -32.2670 C   0  0  0  0  0  0  0  0  0  0  0  0
   -0.4930   19.5460  -32.1320 C   0  0  0  0  0  0  0  0  0  0  0  0
   -1.4680   19.8750  -33.0660 C   0  0  0  0  0  0  0  0  0  0  0  0
   -1.8000   19.0170  -34.0820 C   0  0  0  0  0  0  0  0  0  0  0  0
   -1.1940   17.7940  -34.2380 C   0  0  0  0  0  0  0  0  0  0  0  0
   -1.5020   16.8700  -35.2600 N   0  0  0  0  0  0  0  0  0  0  0  0
   -2.9560   15.9530  -35.3420 S   0  0  0  0  0  0  0  0  0  0  0  0
   -2.6870   14.5300  -34.9370 O   0  0  0  0  0  0  0  0  0  0  0  0
   -3.4590   15.8950  -36.7650 O   0  0  0  0  0  0  0  0  0  0  0  0
   -4.1560   16.6940  -34.3150 C   0  0  0  0  0  0  0  0  0  0  0  0
   -4.8100   17.8160  -34.8240 C   0  0  0  0  0  0  0  0  0  0  0  0
   -5.7760   18.4640  -34.0900 C   0  0  0  0  0  0  0  0  0  0  0  0
   -6.0890   17.9900  -32.8420 C   0  0  0  0  0  0  0  0  0  0  0  0
   -7.0030   18.4330  -31.8970 C   0  0  0  0  0  0  0  0  0  0  0  0
   -8.0490   19.8250  -32.1180 S   0  0  0  0  0  0  0  0  0  0  0  0
   -8.7210   19.8090  -33.4500 O   0  0  0  0  0  0  0  0  0  0  0  0
   -9.1140   19.8800  -31.0620 O   0  0  0  0  0  0  0  0  0  0  0  0
   -7.0680   21.2790  -31.9540 C   0  0  0  0  0  0  0  0  0  0  0  0
   -5.8540   21.4280  -32.5720 C   0  0  0  0  0  0  0  0  0  0  0  0
   -5.1190   22.5980  -32.4090 C   0  0  0  0  0  0  0  0  0  0  0  0
   -5.6410   23.5980  -31.6130 C   0  0  0  0  0  0  0  0  0  0  0  0
   -6.8680   23.4450  -30.9910 C   0  0  0  0  0  0  0  0  0  0  0  0
   -7.5930   22.2850  -31.1550 C   0  0  0  0  0  0  0  0  0  0  0  0
   -7.3040   24.5090  -30.2130 O   0  0  0  0  0  0  0  0  0  0  0  0
   -6.4190   25.3370  -29.4870 C   0  0  0  0  0  0  0  0  0  0  0  0
   -5.0540   25.4090  -30.1130 C   0  0  0  0  0  0  0  0  0  0  0  0
   -4.9830   24.8020  -31.3900 O   0  0  0  0  0  0  0  0  0  0  0  0
   -6.9150   17.6100  -30.8360 N   0  0  0  0  0  0  0  0  0  0  0  0
   -5.9860   16.6700  -31.0750 N   0  0  0  0  0  0  0  0  0  0  0  0
   -5.4570   16.8760  -32.3060 C   0  0  0  0  0  0  0  0  0  0  0  0
   -4.4850   16.2360  -33.0620 C   0  0  0  0  0  0  0  0  0  0  0  0
   -2.1140   21.2110  -32.8760 C   0  0  0  0  0  0  0  0  0  0  0  0
   -2.5100   21.2470  -31.4080 C   0  0  0  0  0  0  0  0  0  0  0  0
   -1.3530   21.2290  -30.5720 N   0  0  0  0  0  0  0  0  0  0  0  0
   -1.0430   22.5580  -30.0820 C   0  0  0  0  0  0  0  0  0  0  0  0
   -0.2120   20.5410  -31.0810 C   0  0  0  0  0  0  0  0  0  0  0  0
   -0.1304   15.2092  -31.7428 H   0  0  0  0  0  0  0  0  0  0  0  0
   -1.2290   15.0457  -33.1546 H   0  0  0  0  0  0  0  0  0  0  0  0
    0.3633   14.2142  -33.1546 H   0  0  0  0  0  0  0  0  0  0  0  0
    0.8942   18.0445  -31.5454 H   0  0  0  0  0  0  0  0  0  0  0  0
   -2.5791   19.3183  -34.7977 H   0  0  0  0  0  0  0  0  0  0  0  0
   -0.7820   16.7330  -36.0310 H   0  0  0  0  0  0  0  0  0  0  0  0
   -4.5496   18.1876  -35.8261 H   0  0  0  0  0  0  0  0  0  0  0  0
   -6.2889   19.3477  -34.4974 H   0  0  0  0  0  0  0  0  0  0  0  0
   -5.4580   20.6172  -33.2011 H   0  0  0  0  0  0  0  0  0  0  0  0
   -4.1442   22.7234  -32.9031 H   0  0  0  0  0  0  0  0  0  0  0  0
   -8.5685   22.1587  -30.6625 H   0  0  0  0  0  0  0  0  0  0  0  0
   -6.8411   26.3519  -29.4434 H   0  0  0  0  0  0  0  0  0  0  0  0
   -6.3037   24.9035  -28.4826 H   0  0  0  0  0  0  0  0  0  0  0  0
   -4.7738   26.4678  -30.2153 H   0  0  0  0  0  0  0  0  0  0  0  0
   -4.3678   24.8561  -29.4546 H   0  0  0  0  0  0  0  0  0  0  0  0
   -5.6880   15.8920  -30.4490 H   0  0  0  0  0  0  0  0  0  0  0  0
   -3.9724   15.3525  -32.6537 H   0  0  0  0  0  0  0  0  0  0  0  0
   -1.4052   22.0202  -33.1059 H   0  0  0  0  0  0  0  0  0  0  0  0
   -2.9778   21.3526  -33.5422 H   0  0  0  0  0  0  0  0  0  0  0  0
   -3.0833   22.1649  -31.2112 H   0  0  0  0  0  0  0  0  0  0  0  0
   -3.1209   20.3599  -31.1850 H   0  0  0  0  0  0  0  0  0  0  0  0
   -1.0442   22.5528  -28.9820 H   0  0  0  0  0  0  0  0  0  0  0  0
   -0.0501   22.8607  -30.4461 H   0  0  0  0  0  0  0  0  0  0  0  0
   -1.7995   23.2688  -30.4461 H   0  0  0  0  0  0  0  0  0  0  0  0
    0.4783   21.2894  -31.4974 H   0  0  0  0  0  0  0  0  0  0  0  0
    0.2068   19.9783  -30.2337 H   0  0  0  0  0  0  0  0  0  0  0  0
  1  2  1  0
  2  3  1  0
  3  4  2  0
  4  5  1  0
  5  6  2  0
  6  7  1  0
  7  8  2  0
  8  9  1  0
  9 10  1  0
 10 11  2  0
 10 12  2  0
 10 13  1  0
 13 14  2  0
 14 15  1  0
 15 16  2  0
 16 17  1  0
 17 18  1  0
 18 19  2  0
 18 20  2  0
 18 21  1  0
 21 22  2  0
 22 23  1  0
 23 24  2  0
 24 25  1  0
 25 26  2  0
 25 27  1  0
 27 28  1  0
 28 29  1  0
 29 30  1  0
 17 31  2  0
 31 32  1  0
 32 33  1  0
 33 34  2  0
  6 35  1  0
 35 36  1  0
 36 37  1  0
 37 38  1  0
 37 39  1  0
  8  3  1  0
 34 13  1  0
 39  5  1  0
 33 16  1  0
 26 21  1  0
 30 24  1  0
  1 40  1  0
  1 41  1  0
  1 42  1  0
  4 43  1  0
  7 44  1  0
  9 45  1  0
 14 46  1  0
 15 47  1  0
 22 48  1  0
 23 49  1  0
 26 50  1  0
 28 51  1  0
 28 52  1  0
 29 53  1  0
 29 54  1  0
 32 55  1  0
 34 56  1  0
 35 57  1  0
 35 58  1  0
 36 59  1  0
 36 60  1  0
 38 61  1  0
 38 62  1  0
 38 63  1  0
 39 64  1  0
 39 65  1  0
M  END
>  <smiles>  (28) 
COc1cc2c(cc1NS(=O)(=O)c1ccc3c(S(=O)(=O)c4ccc5c(c4)OCCO5)n[nH]c3c1)CCN(C)C2

>  <score_type>  (28) 
oracle

>  <origin>  (28) 
adgpu

>  <m_score__min__energy>  (28) 
-11.800000000000001

>  <m_primary>  (28) 
energy

$$$$
28:0
     RDKit          3D

 77 82  0  0  0  0  0  0  0  0999 V2000
    0.2860   19.1650  -27.5790 O   0  0  0  0  0  0  0  0  0  0  0  0
    0.1200   19.2530  -28.8180 C   0  0  0  0  0  0  0  0  0  0  0  0
    0.8290   18.4130  -29.7870 C   0  0  0  0  0  0  0  0  0  0  0  0
    1.9160   18.8150  -30.5040 C   0  0  0  0  0  0  0  0  0  0  0  0
    2.4900   17.9070  -31.3700 C   0  0  0  0  0  0  0  0  0  0  0  0
    1.9810   16.6140  -31.5150 C   0  0  0  0  0  0  0  0  0  0  0  0
    2.5540   15.7030  -32.3830 O   0  0  0  0  0  0  0  0  0  0  0  0
    0.8870   16.2040  -30.7960 C   0  0  0  0  0  0  0  0  0  0  0  0
    0.3210   14.9080  -30.8550 N   0  0  0  0  0  0  0  0  0  0  0  0
   -0.3040   14.2160  -32.3290 S   0  0  0  0  0  0  0  0  0  0  0  0
    0.7930   13.7590  -33.2310 O   0  0  0  0  0  0  0  0  0  0  0  0
   -1.2710   13.0960  -32.0270 O   0  0  0  0  0  0  0  0  0  0  0  0
   -1.2780   15.4920  -33.0660 C   0  0  0  0  0  0  0  0  0  0  0  0
   -2.6140   15.6470  -32.8180 C   0  0  0  0  0  0  0  0  0  0  0  0
   -3.2490   16.6980  -33.4680 C   0  0  0  0  0  0  0  0  0  0  0  0
   -4.9480   17.0290  -33.2480 S   0  0  0  0  0  0  0  0  0  0  0  0
   -5.5810   17.2870  -34.6090 O   0  0  0  0  0  0  0  0  0  0  0  0
   -5.6230   15.7960  -32.7180 O   0  0  0  0  0  0  0  0  0  0  0  0
   -5.2650   18.4070  -32.2900 N   0  0  0  0  0  0  0  0  0  0  0  0
   -6.5240   18.3550  -31.5910 C   0  0  0  0  0  0  0  0  0  0  0  0
   -7.5650   18.7090  -32.6190 C   0  0  0  0  0  0  0  0  0  0  0  0
   -6.8350   19.5660  -33.6060 C   0  0  0  0  0  0  0  0  0  0  0  0
   -5.3790   19.5330  -33.2260 C   0  0  0  0  0  0  0  0  0  0  0  0
   -2.5550   17.5440  -34.3240 C   0  0  0  0  0  0  0  0  0  0  0  0
   -1.2070   17.3920  -34.5750 C   0  0  0  0  0  0  0  0  0  0  0  0
   -0.5760   16.3420  -33.9270 C   0  0  0  0  0  0  0  0  0  0  0  0
    0.7930   16.1630  -34.1650 O   0  0  0  0  0  0  0  0  0  0  0  0
    0.3220   17.1200  -29.9340 C   0  0  0  0  0  0  0  0  0  0  0  0
   -0.8150   20.2350  -29.3210 N   0  0  0  0  0  0  0  0  0  0  0  0
   -1.4710   21.0540  -28.3360 C   0  0  0  0  0  0  0  0  0  0  0  0
   -2.8700   21.3600  -28.7380 C   0  0  0  0  0  0  0  0  0  0  0  0
   -3.1160   21.6020  -30.2020 C   0  0  0  0  0  0  0  0  0  0  0  0
   -3.8720   22.8110  -30.3410 N   0  0  0  0  0  0  0  0  0  0  0  0
   -3.2270   24.0770  -30.0830 C   0  0  0  0  0  0  0  0  0  0  0  0
   -2.0080   24.1300  -29.7330 O   0  0  0  0  0  0  0  0  0  0  0  0
   -3.8880   25.2590  -30.2010 O   0  0  0  0  0  0  0  0  0  0  0  0
   -5.2250   25.4110  -30.5650 C   0  0  0  0  0  0  0  0  0  0  0  0
   -5.8620   24.1040  -30.8280 C   0  0  0  0  0  0  0  0  0  0  0  0
   -7.2130   24.1600  -31.2130 C   0  0  0  0  0  0  0  0  0  0  0  0
   -7.9300   23.0160  -31.4900 C   0  0  0  0  0  0  0  0  0  0  0  0
   -7.2660   21.8180  -31.3700 C   0  0  0  0  0  0  0  0  0  0  0  0
   -5.9370   21.7380  -30.9930 C   0  0  0  0  0  0  0  0  0  0  0  0
   -5.2340   22.8860  -30.7210 C   0  0  0  0  0  0  0  0  0  0  0  0
   -1.7760   21.7120  -30.9140 C   0  0  0  0  0  0  0  0  0  0  0  0
   -1.0500   20.3610  -30.7480 C   0  0  0  0  0  0  0  0  0  0  0  0
    2.3229   19.8312  -30.3958 H   0  0  0  0  0  0  0  0  0  0  0  0
    3.3684   18.2080  -31.9597 H   0  0  0  0  0  0  0  0  0  0  0  0
    1.9790   14.9780  -32.7810 H   0  0  0  0  0  0  0  0  0  0  0  0
    0.2510   14.2890  -30.0100 H   0  0  0  0  0  0  0  0  0  0  0  0
   -3.1579   14.9741  -32.1388 H   0  0  0  0  0  0  0  0  0  0  0  0
   -6.7027   17.3448  -31.1940 H   0  0  0  0  0  0  0  0  0  0  0  0
   -6.5450   19.0429  -30.7329 H   0  0  0  0  0  0  0  0  0  0  0  0
   -7.9568   17.8031  -33.1045 H   0  0  0  0  0  0  0  0  0  0  0  0
   -8.4328   19.2218  -32.1786 H   0  0  0  0  0  0  0  0  0  0  0  0
   -6.9690   19.1687  -34.6230 H   0  0  0  0  0  0  0  0  0  0  0  0
   -7.2209   20.5960  -33.5922 H   0  0  0  0  0  0  0  0  0  0  0  0
   -4.7501   19.3658  -34.1128 H   0  0  0  0  0  0  0  0  0  0  0  0
   -5.0429   20.4810  -32.7806 H   0  0  0  0  0  0  0  0  0  0  0  0
   -3.0986   18.3626  -34.8183 H   0  0  0  0  0  0  0  0  0  0  0  0
   -0.6630   18.0670  -35.2521 H   0  0  0  0  0  0  0  0  0  0  0  0
    1.2350   15.2720  -34.0560 H   0  0  0  0  0  0  0  0  0  0  0  0
   -0.5567   16.8226  -29.3428 H   0  0  0  0  0  0  0  0  0  0  0  0
   -1.4824   20.5195  -27.3746 H   0  0  0  0  0  0  0  0  0  0  0  0
   -0.9188   22.0011  -28.2460 H   0  0  0  0  0  0  0  0  0  0  0  0
   -3.4981   20.5109  -28.4306 H   0  0  0  0  0  0  0  0  0  0  0  0
   -3.1103   22.3129  -28.2438 H   0  0  0  0  0  0  0  0  0  0  0  0
   -3.6831   20.7729  -30.6502 H   0  0  0  0  0  0  0  0  0  0  0  0
   -5.7636   25.9142  -29.7485 H   0  0  0  0  0  0  0  0  0  0  0  0
   -5.2678   26.0097  -31.4868 H   0  0  0  0  0  0  0  0  0  0  0  0
   -7.7088   25.1385  -31.2950 H   0  0  0  0  0  0  0  0  0  0  0  0
   -8.9864   23.0595  -31.7936 H   0  0  0  0  0  0  0  0  0  0  0  0
   -7.8124   20.8871  -31.5819 H   0  0  0  0  0  0  0  0  0  0  0  0
   -5.4449   20.7576  -30.9114 H   0  0  0  0  0  0  0  0  0  0  0  0
   -1.9344   21.9245  -31.9816 H   0  0  0  0  0  0  0  0  0  0  0  0
   -1.1762   22.5290  -30.4865 H   0  0  0  0  0  0  0  0  0  0  0  0
   -1.6806   19.5358  -31.1105 H   0  0  0  0  0  0  0  0  0  0  0  0
   -0.1153   20.3199  -31.3264 H   0  0  0  0  0  0  0  0  0  0  0  0
  1  2  2  0
  2  3  1  0
  3  4  2  0
  4  5  1  0
  5  6  2  0
  6  7  1  0
  6  8  1  0
  8  9  1  0
  9 10  1  0
 10 11  2  0
 10 12  2  0
 10 13  1  0
 13 14  2  0
 14 15  1  0
 15 16  1  0
 16 17  2  0
 16 18  2  0
 16 19  1  0
 19 20  1  0
 20 21  1  0
 21 22  1  0
 22 23  1  0
 15 24  2  0
 24 25  1  0
 25 26  2  0
 26 27  1  0
  8 28  2  0
  2 29  1  0
 29 30  1  0
 30 31  1  0
 31 32  1  0
 32 33  1  0
 33 34  1  0
 34 35  2  0
 34 36  1  0
 36 37  1  0
 37 38  1  0
 38 39  2  0
 39 40  1  0
 40 41  2  0
 41 42  1  0
 42 43  2  0
 32 44  1  0
 44 45  1  0
 28  3  1  0
 45 29  1  0
 26 13  1  0
 43 33  1  0
 23 19  1  0
 43 38  1  0
  4 46  1  0
  5 47  1  0
  7 48  1  0
  9 49  1  0
 14 50  1  0
 20 51  1  0
 20 52  1  0
 21 53  1  0
 21 54  1  0
 22 55  1  0
 22 56  1  0
 23 57  1  0
 23 58  1  0
 24 59  1  0
 25 60  1  0
 27 61  1  0
 28 62  1  0
 30 63  1  0
 30 64  1  0
 31 65  1  0
 31 66  1  0
 32 67  1  0
 37 68  1  0
 37 69  1  0
 39 70  1  0
 40 71  1  0
 41 72  1  0
 42 73  1  0
 44 74  1  0
 44 75  1  0
 45 76  1  0
 45 77  1  0
M  END
>  <smiles>  (29) 
O=C(c1ccc(O)c(NS(=O)(=O)c2cc(S(=O)(=O)N3CCCC3)ccc2O)c1)N1CCC(N2C(=O)OCc3ccccc32)CC1

>  <score_type>  (29) 
oracle

>  <origin>  (29) 
adgpu

>  <m_score__min__energy>  (29) 
-11.210000000000001

>  <m_primary>  (29) 
energy

$$$$
29:0
     RDKit          3D

 46 47  0  0  0  0  0  0  0  0999 V2000
   -2.3880   19.0370  -33.9010 C   0  0  0  0  0  0  0  0  0  0  0  0
   -2.5410   20.4860  -33.6050 C   0  0  0  0  0  0  0  0  0  0  0  0
   -1.5530   21.2350  -33.8410 O   0  0  0  0  0  0  0  0  0  0  0  0
   -3.7920   21.0040  -33.0620 C   0  0  0  0  0  0  0  0  0  0  0  0
   -4.9760   20.3840  -33.4650 C   0  0  0  0  0  0  0  0  0  0  0  0
   -6.2110   20.7950  -33.0130 C   0  0  0  0  0  0  0  0  0  0  0  0
   -7.4350   20.1990  -33.3930 N   0  0  0  0  0  0  0  0  0  0  0  0
   -8.6970   19.8110  -32.2860 S   0  0  0  0  0  0  0  0  0  0  0  0
   -9.2580   21.2030  -31.3580 C   0  0  0  0  0  0  0  0  0  0  0  0
   -9.8640   19.2650  -33.0590 O   0  0  0  0  0  0  0  0  0  0  0  0
   -8.2070   18.7450  -31.3190 O   0  0  0  0  0  0  0  0  0  0  0  0
   -6.2650   21.8530  -32.1320 C   0  0  0  0  0  0  0  0  0  0  0  0
   -5.1020   22.4860  -31.7150 C   0  0  0  0  0  0  0  0  0  0  0  0
   -5.1930   23.8290  -30.5950 S   0  0  0  0  0  0  0  0  0  0  0  0
   -6.5880   24.3730  -30.5810 O   0  0  0  0  0  0  0  0  0  0  0  0
   -4.2830   24.9560  -31.0010 O   0  0  0  0  0  0  0  0  0  0  0  0
   -4.7410   23.3320  -29.0020 N   0  0  0  0  0  0  0  0  0  0  0  0
   -4.5970   24.5480  -28.2200 C   0  0  0  0  0  0  0  0  0  0  0  0
   -3.5850   24.4100  -27.1000 C   0  0  0  0  0  0  0  0  0  0  0  0
   -2.3080   24.0230  -27.6090 N   0  0  0  0  0  0  0  0  0  0  0  0
   -1.5720   23.2300  -26.6740 C   0  0  0  0  0  0  0  0  0  0  0  0
   -2.3450   23.4590  -28.9180 C   0  0  0  0  0  0  0  0  0  0  0  0
   -3.5400   22.5480  -29.0750 C   0  0  0  0  0  0  0  0  0  0  0  0
   -3.8910   22.0450  -32.1910 C   0  0  0  0  0  0  0  0  0  0  0  0
   -2.7540   22.6820  -31.7690 O   0  0  0  0  0  0  0  0  0  0  0  0
   -2.3286   18.4743  -32.9577 H   0  0  0  0  0  0  0  0  0  0  0  0
   -3.2543   18.6880  -34.4822 H   0  0  0  0  0  0  0  0  0  0  0  0
   -1.4679   18.8766  -34.4822 H   0  0  0  0  0  0  0  0  0  0  0  0
   -4.9212   19.5389  -34.1670 H   0  0  0  0  0  0  0  0  0  0  0  0
   -7.5420   19.9930  -34.4310 H   0  0  0  0  0  0  0  0  0  0  0  0
   -9.1707   20.9864  -30.2831 H   0  0  0  0  0  0  0  0  0  0  0  0
   -8.6435   22.0809  -31.6062 H   0  0  0  0  0  0  0  0  0  0  0  0
  -10.3096   21.4095  -31.6062 H   0  0  0  0  0  0  0  0  0  0  0  0
   -7.2388   22.1993  -31.7555 H   0  0  0  0  0  0  0  0  0  0  0  0
   -4.2730   25.3593  -28.8884 H   0  0  0  0  0  0  0  0  0  0  0  0
   -5.5727   24.7633  -27.7599 H   0  0  0  0  0  0  0  0  0  0  0  0
   -3.4882   25.3754  -26.5817 H   0  0  0  0  0  0  0  0  0  0  0  0
   -3.9354   23.6329  -26.4048 H   0  0  0  0  0  0  0  0  0  0  0  0
   -1.8446   23.5237  -25.6496 H   0  0  0  0  0  0  0  0  0  0  0  0
   -1.8109   22.1672  -26.8266 H   0  0  0  0  0  0  0  0  0  0  0  0
   -0.4943   23.3891  -26.8266 H   0  0  0  0  0  0  0  0  0  0  0  0
   -2.4097   24.2698  -29.6585 H   0  0  0  0  0  0  0  0  0  0  0  0
   -1.4292   22.8701  -29.0747 H   0  0  0  0  0  0  0  0  0  0  0  0
   -3.4904   22.0399  -30.0494 H   0  0  0  0  0  0  0  0  0  0  0  0
   -3.5397   21.7947  -28.2734 H   0  0  0  0  0  0  0  0  0  0  0  0
   -1.8640   22.3370  -32.0830 H   0  0  0  0  0  0  0  0  0  0  0  0
  1  2  1  0
  2  3  2  0
  2  4  1  0
  4  5  2  0
  5  6  1  0
  6  7  1  0
  7  8  1  0
  8  9  1  0
  8 10  2  0
  8 11  2  0
  6 12  2  0
 12 13  1  0
 13 14  1  0
 14 15  2  0
 14 16  2  0
 14 17  1  0
 17 18  1  0
 18 19  1  0
 19 20  1  0
 20 21  1  0
 20 22  1  0
 22 23  1  0
 13 24  2  0
 24 25  1  0
 24  4  1  0
 23 17  1  0
  1 26  1  0
  1 27  1  0
  1 28  1  0
  5 29  1  0
  7 30  1  0
  9 31  1  0
  9 32  1  0
  9 33  1  0
 12 34  1  0
 18 35  1  0
 18 36  1  0
 19 37  1  0
 19 38  1  0
 21 39  1  0
 21 40  1  0
 21 41  1  0
 22 42  1  0
 22 43  1  0
 23 44  1  0
 23 45  1  0
 25 46  1  0
M  END
>  <smiles>  (30) 
CC(=O)c1cc(NS(C)(=O)=O)cc(S(=O)(=O)N2CCN(C)CC2)c1O

>  <score_type>  (30) 
oracle

>  <origin>  (30) 
adgpu

>  <m_score__min__energy>  (30) 
-10.09

>  <m_primary>  (30) 
energy

$$$$
31:0
     RDKit          3D

 41 43  0  0  0  0  0  0  0  0999 V2000
   -0.5620   26.5970  -27.8420 C   0  0  0  0  0  0  0  0  0  0  0  0
   -1.2960   25.7080  -28.6360 O   0  0  0  0  0  0  0  0  0  0  0  0
   -1.1390   24.3430  -28.4420 C   0  0  0  0  0  0  0  0  0  0  0  0
   -0.3830   23.5850  -29.3120 C   0  0  0  0  0  0  0  0  0  0  0  0
   -0.2310   22.2340  -29.1130 C   0  0  0  0  0  0  0  0  0  0  0  0
   -0.8330   21.6110  -28.0330 C   0  0  0  0  0  0  0  0  0  0  0  0
   -0.6510   20.2110  -27.8710 N   0  0  0  0  0  0  0  0  0  0  0  0
   -1.6450   19.4770  -27.7290 O   0  0  0  0  0  0  0  0  0  0  0  0
    0.5860   19.6140  -27.8610 O   0  0  0  0  0  0  0  0  0  0  0  0
   -1.5940   22.3610  -27.1530 C   0  0  0  0  0  0  0  0  0  0  0  0
   -1.7390   23.6970  -27.3590 C   0  0  0  0  0  0  0  0  0  0  0  0
   -2.5440   24.5790  -26.4570 C   0  0  0  0  0  0  0  0  0  0  0  0
   -4.2160   24.6870  -27.1510 S   0  0  0  0  0  0  0  0  0  0  0  0
   -4.1510   24.0830  -28.8300 C   0  0  0  0  0  0  0  0  0  0  0  0
   -4.6570   22.9160  -29.3220 N   0  0  0  0  0  0  0  0  0  0  0  0
   -4.4010   22.8420  -30.6380 C   0  0  0  0  0  0  0  0  0  0  0  0
   -4.7350   21.8090  -31.6050 C   0  0  0  0  0  0  0  0  0  0  0  0
   -6.0730   21.5320  -31.8020 C   0  0  0  0  0  0  0  0  0  0  0  0
   -6.5200   20.5770  -32.6970 C   0  0  0  0  0  0  0  0  0  0  0  0
   -5.5880   19.8510  -33.4450 C   0  0  0  0  0  0  0  0  0  0  0  0
   -6.0400   18.8170  -34.4240 C   0  0  0  0  0  0  0  0  0  0  0  0
   -4.2420   20.1350  -33.2420 C   0  0  0  0  0  0  0  0  0  0  0  0
   -3.8230   21.0980  -32.3370 C   0  0  0  0  0  0  0  0  0  0  0  0
   -3.7350   23.9730  -30.9440 N   0  0  0  0  0  0  0  0  0  0  0  0
   -3.5810   24.7260  -29.8600 N   0  0  0  0  0  0  0  0  0  0  0  0
   -0.7443   26.3762  -26.7799 H   0  0  0  0  0  0  0  0  0  0  0  0
    0.5101   26.4848  -28.0611 H   0  0  0  0  0  0  0  0  0  0  0  0
   -0.8751   27.6285  -28.0611 H   0  0  0  0  0  0  0  0  0  0  0  0
    0.1028   24.0668  -30.1733 H   0  0  0  0  0  0  0  0  0  0  0  0
    0.3734   21.6431  -29.8169 H   0  0  0  0  0  0  0  0  0  0  0  0
   -2.0789   21.8786  -26.2915 H   0  0  0  0  0  0  0  0  0  0  0  0
   -2.5840   24.1464  -25.4464 H   0  0  0  0  0  0  0  0  0  0  0  0
   -2.0891   25.5779  -26.3848 H   0  0  0  0  0  0  0  0  0  0  0  0
   -6.8172   22.0963  -31.2209 H   0  0  0  0  0  0  0  0  0  0  0  0
   -7.5972   20.3906  -32.8191 H   0  0  0  0  0  0  0  0  0  0  0  0
   -6.4231   17.9405  -33.8809 H   0  0  0  0  0  0  0  0  0  0  0  0
   -6.8378   19.2343  -35.0560 H   0  0  0  0  0  0  0  0  0  0  0  0
   -5.1919   18.5148  -35.0560 H   0  0  0  0  0  0  0  0  0  0  0  0
   -3.4869   19.5788  -33.8168 H   0  0  0  0  0  0  0  0  0  0  0  0
   -2.7482   21.2923  -32.2061 H   0  0  0  0  0  0  0  0  0  0  0  0
   -3.1060   25.6570  -29.7870 H   0  0  0  0  0  0  0  0  0  0  0  0
  1  2  1  0
  2  3  1  0
  3  4  2  0
  4  5  1  0
  5  6  2  0
  6  7  1  0
  7  8  2  0
  7  9  1  0
  6 10  1  0
 10 11  2  0
 11 12  1  0
 12 13  1  0
 13 14  1  0
 14 15  2  0
 15 16  1  0
 16 17  1  0
 17 18  2  0
 18 19  1  0
 19 20  2  0
 20 21  1  0
 20 22  1  0
 22 23  2  0
 16 24  2  0
 24 25  1  0
 11  3  1  0
 25 14  1  0
 23 17  1  0
  1 26  1  0
  1 27  1  0
  1 28  1  0
  4 29  1  0
  5 30  1  0
 10 31  1  0
 12 32  1  0
 12 33  1  0
 18 34  1  0
 19 35  1  0
 21 36  1  0
 21 37  1  0
 21 38  1  0
 22 39  1  0
 23 40  1  0
 25 41  1  0
M  CHG  2   7   1   9  -1
M  END
>  <smiles>  (31) 
COc1ccc([N+](=O)[O-])cc1CSc1nc(-c2ccc(C)cc2)n[nH]1

>  <score_type>  (31) 
oracle

>  <origin>  (31) 
adgpu

>  <m_score__min__energy>  (31) 
-8.5800000000000001

>  <m_primary>  (31) 
energy

$$$$
32:0
     RDKit          3D

 50 53  0  0  0  0  0  0  0  0999 V2000
   -6.0460   19.3390  -32.2410 O   0  0  0  0  0  0  0  0  0  0  0  0
   -5.3220   19.7530  -33.1610 C   0  0  0  0  0  0  0  0  0  0  0  0
   -4.6320   18.9140  -34.0420 N   0  0  0  0  0  0  0  0  0  0  0  0
   -4.6350   17.5020  -34.0420 C   0  0  0  0  0  0  0  0  0  0  0  0
   -3.5160   16.7090  -33.9570 C   0  0  0  0  0  0  0  0  0  0  0  0
   -3.5910   15.3090  -33.9630 C   0  0  0  0  0  0  0  0  0  0  0  0
   -4.8070   14.6680  -34.0560 C   0  0  0  0  0  0  0  0  0  0  0  0
   -5.9260   15.4700  -34.1410 C   0  0  0  0  0  0  0  0  0  0  0  0
   -5.8470   16.8460  -34.1350 C   0  0  0  0  0  0  0  0  0  0  0  0
   -7.0500   14.6190  -34.2270 N   0  0  0  0  0  0  0  0  0  0  0  0
   -6.6120   13.2810  -34.5790 C   0  0  0  0  0  0  0  0  0  0  0  0
   -5.1840   13.2310  -34.0840 C   0  0  0  0  0  0  0  0  0  0  0  0
   -5.2160   21.1840  -33.2930 N   0  0  0  0  0  0  0  0  0  0  0  0
   -5.9580   21.9520  -32.3460 C   0  0  0  0  0  0  0  0  0  0  0  0
   -7.3140   21.7440  -32.1390 C   0  0  0  0  0  0  0  0  0  0  0  0
   -7.9740   22.5280  -31.2020 C   0  0  0  0  0  0  0  0  0  0  0  0
   -7.2780   23.4910  -30.5000 C   0  0  0  0  0  0  0  0  0  0  0  0
   -5.9200   23.6990  -30.7080 C   0  0  0  0  0  0  0  0  0  0  0  0
   -4.9990   24.8970  -29.8510 S   0  0  0  0  0  0  0  0  0  0  0  0
   -5.9060   26.0920  -29.6580 O   0  0  0  0  0  0  0  0  0  0  0  0
   -3.8720   25.3450  -30.7370 O   0  0  0  0  0  0  0  0  0  0  0  0
   -4.4260   24.3120  -28.3380 N   0  0  0  0  0  0  0  0  0  0  0  0
   -4.5910   22.8790  -28.3180 C   0  0  0  0  0  0  0  0  0  0  0  0
   -3.3300   22.2800  -28.8780 C   0  0  0  0  0  0  0  0  0  0  0  0
   -2.3460   23.4070  -29.0670 C   0  0  0  0  0  0  0  0  0  0  0  0
   -2.9950   24.5260  -28.2750 C   0  0  0  0  0  0  0  0  0  0  0  0
   -5.2760   22.9210  -31.6350 C   0  0  0  0  0  0  0  0  0  0  0  0
   -3.9060   23.1080  -31.8670 O   0  0  0  0  0  0  0  0  0  0  0  0
   -4.0460   19.4040  -34.7860 H   0  0  0  0  0  0  0  0  0  0  0  0
   -2.5288   17.1884  -33.8818 H   0  0  0  0  0  0  0  0  0  0  0  0
   -2.6678   14.7151  -33.8926 H   0  0  0  0  0  0  0  0  0  0  0  0
   -6.7723   17.4366  -34.2060 H   0  0  0  0  0  0  0  0  0  0  0  0
   -8.0340   14.8960  -34.0670 H   0  0  0  0  0  0  0  0  0  0  0  0
   -7.2285   12.5212  -34.0763 H   0  0  0  0  0  0  0  0  0  0  0  0
   -6.6980   13.0731  -35.6557 H   0  0  0  0  0  0  0  0  0  0  0  0
   -5.1259   12.7845  -33.0804 H   0  0  0  0  0  0  0  0  0  0  0  0
   -4.5224   12.6146  -34.7104 H   0  0  0  0  0  0  0  0  0  0  0  0
   -4.6260   21.6170  -34.0410 H   0  0  0  0  0  0  0  0  0  0  0  0
   -7.8559   20.9729  -32.7062 H   0  0  0  0  0  0  0  0  0  0  0  0
   -9.0489   22.3818  -31.0197 H   0  0  0  0  0  0  0  0  0  0  0  0
   -7.8097   24.1071  -29.7599 H   0  0  0  0  0  0  0  0  0  0  0  0
   -4.7476   22.5317  -27.2861 H   0  0  0  0  0  0  0  0  0  0  0  0
   -5.4653   22.5775  -28.9135 H   0  0  0  0  0  0  0  0  0  0  0  0
   -2.9220   21.5372  -28.1767 H   0  0  0  0  0  0  0  0  0  0  0  0
   -3.5299   21.7722  -29.8331 H   0  0  0  0  0  0  0  0  0  0  0  0
   -1.3582   23.1483  -28.6580 H   0  0  0  0  0  0  0  0  0  0  0  0
   -2.1575   23.6601  -30.1208 H   0  0  0  0  0  0  0  0  0  0  0  0
   -2.6539   24.4965  -27.2296 H   0  0  0  0  0  0  0  0  0  0  0  0
   -2.7256   25.5087  -28.6893 H   0  0  0  0  0  0  0  0  0  0  0  0
   -3.5110   24.0010  -31.6170 H   0  0  0  0  0  0  0  0  0  0  0  0
  1  2  2  0
  2  3  1  0
  3  4  1  0
  4  5  2  0
  5  6  1  0
  6  7  2  0
  7  8  1  0
  8  9  2  0
  8 10  1  0
 10 11  1  0
 11 12  1  0
  2 13  1  0
 13 14  1  0
 14 15  2  0
 15 16  1  0
 16 17  2  0
 17 18  1  0
 18 19  1  0
 19 20  2  0
 19 21  2  0
 19 22  1  0
 22 23  1  0
 23 24  1  0
 24 25  1  0
 25 26  1  0
 18 27  2  0
 27 28  1  0
  9  4  1  0
 27 14  1  0
 12  7  1  0
 26 22  1  0
  3 29  1  0
  5 30  1  0
  6 31  1  0
  9 32  1  0
 10 33  1  0
 11 34  1  0
 11 35  1  0
 12 36  1  0
 12 37  1  0
 13 38  1  0
 15 39  1  0
 16 40  1  0
 17 41  1  0
 23 42  1  0
 23 43  1  0
 24 44  1  0
 24 45  1  0
 25 46  1  0
 25 47  1  0
 26 48  1  0
 26 49  1  0
 28 50  1  0
M  END
>  <smiles>  (32) 
O=C(Nc1ccc2c(c1)NCC2)Nc1cccc(S(=O)(=O)N2CCCC2)c1O

>  <score_type>  (32) 
oracle

>  <origin>  (32) 
adgpu

>  <m_score__min__energy>  (32) 
-9.8599999999999994

>  <m_primary>  (32) 
energy

$$$$
33:0
     RDKit          3D

 54 57  0  0  0  0  0  0  0  0999 V2000
   -6.2640   25.7440  -30.0140 O   0  0  0  0  0  0  0  0  0  0  0  0
   -5.1280   24.7870  -30.1230 S   0  0  0  0  0  0  0  0  0  0  0  0
   -4.0240   25.5140  -30.8540 O   0  0  0  0  0  0  0  0  0  0  0  0
   -4.6380   24.3300  -28.5470 N   0  0  0  0  0  0  0  0  0  0  0  0
   -3.4360   23.5860  -28.3190 C   0  0  0  0  0  0  0  0  0  0  0  0
   -3.4780   22.2640  -27.8590 C   0  0  0  0  0  0  0  0  0  0  0  0
   -2.3590   21.5240  -27.6360 C   0  0  0  0  0  0  0  0  0  0  0  0
   -1.1130   22.0540  -27.8580 C   0  0  0  0  0  0  0  0  0  0  0  0
   -1.0420   23.3680  -28.3170 C   0  0  0  0  0  0  0  0  0  0  0  0
   -2.1800   24.1190  -28.5440 C   0  0  0  0  0  0  0  0  0  0  0  0
   -2.1110   25.4260  -28.9990 O   0  0  0  0  0  0  0  0  0  0  0  0
    0.1640   21.3470  -27.6480 C   0  0  0  0  0  0  0  0  0  0  0  0
   -0.0160   19.8740  -27.5460 C   0  0  0  0  0  0  0  0  0  0  0  0
   -1.3630   19.3810  -27.9660 C   0  0  0  0  0  0  0  0  0  0  0  0
   -2.4440   20.1020  -27.1450 C   0  0  0  0  0  0  0  0  0  0  0  0
   -5.5470   23.3910  -31.1170 C   0  0  0  0  0  0  0  0  0  0  0  0
   -4.6120   22.4480  -31.4880 C   0  0  0  0  0  0  0  0  0  0  0  0
   -4.9180   21.3440  -32.2640 C   0  0  0  0  0  0  0  0  0  0  0  0
   -3.6620   20.2160  -32.6750 S   0  0  0  0  0  0  0  0  0  0  0  0
   -2.6460   20.1980  -31.5440 O   0  0  0  0  0  0  0  0  0  0  0  0
   -2.8910   20.6340  -33.9080 O   0  0  0  0  0  0  0  0  0  0  0  0
   -4.2510   18.6140  -32.8360 N   0  0  0  0  0  0  0  0  0  0  0  0
   -5.3960   18.3260  -32.0360 C   0  0  0  0  0  0  0  0  0  0  0  0
   -6.5710   18.0580  -32.9330 C   0  0  0  0  0  0  0  0  0  0  0  0
   -6.0790   18.4320  -34.3190 C   0  0  0  0  0  0  0  0  0  0  0  0
   -4.5870   18.2750  -34.1820 C   0  0  0  0  0  0  0  0  0  0  0  0
   -6.2240   21.1740  -32.6890 C   0  0  0  0  0  0  0  0  0  0  0  0
   -7.1790   22.0990  -32.3350 C   0  0  0  0  0  0  0  0  0  0  0  0
   -6.8530   23.1920  -31.5610 C   0  0  0  0  0  0  0  0  0  0  0  0
   -7.8530   24.0890  -31.2360 O   0  0  0  0  0  0  0  0  0  0  0  0
   -5.1910   24.5740  -27.7080 H   0  0  0  0  0  0  0  0  0  0  0  0
   -4.4591   21.8039  -27.6697 H   0  0  0  0  0  0  0  0  0  0  0  0
   -0.0560   23.8186  -28.5032 H   0  0  0  0  0  0  0  0  0  0  0  0
   -2.0190   25.6750  -29.9650 H   0  0  0  0  0  0  0  0  0  0  0  0
    0.8318   21.5639  -28.4948 H   0  0  0  0  0  0  0  0  0  0  0  0
    0.5918   21.7002  -26.6981 H   0  0  0  0  0  0  0  0  0  0  0  0
    0.7399   19.3911  -28.1827 H   0  0  0  0  0  0  0  0  0  0  0  0
    0.0907   19.6200  -26.4811 H   0  0  0  0  0  0  0  0  0  0  0  0
   -1.5137   19.5888  -29.0356 H   0  0  0  0  0  0  0  0  0  0  0  0
   -1.4299   18.2967  -27.7934 H   0  0  0  0  0  0  0  0  0  0  0  0
   -3.4387   19.6756  -27.3420 H   0  0  0  0  0  0  0  0  0  0  0  0
   -2.2930   20.0111  -26.0592 H   0  0  0  0  0  0  0  0  0  0  0  0
   -3.5732   22.5796  -31.1510 H   0  0  0  0  0  0  0  0  0  0  0  0
   -5.1975   17.4399  -31.4151 H   0  0  0  0  0  0  0  0  0  0  0  0
   -5.6168   19.1843  -31.3845 H   0  0  0  0  0  0  0  0  0  0  0  0
   -6.8564   16.9964  -32.8943 H   0  0  0  0  0  0  0  0  0  0  0  0
   -7.4640   18.6277  -32.6366 H   0  0  0  0  0  0  0  0  0  0  0  0
   -6.4830   17.7510  -35.0825 H   0  0  0  0  0  0  0  0  0  0  0  0
   -6.3889   19.4373  -34.6405 H   0  0  0  0  0  0  0  0  0  0  0  0
   -4.2960   17.2354  -34.3932 H   0  0  0  0  0  0  0  0  0  0  0  0
   -4.0578   18.9260  -34.8935 H   0  0  0  0  0  0  0  0  0  0  0  0
   -6.4968   20.3050  -33.3058 H   0  0  0  0  0  0  0  0  0  0  0  0
   -8.2167   21.9645  -32.6742 H   0  0  0  0  0  0  0  0  0  0  0  0
   -7.5760   24.9260  -30.7130 H   0  0  0  0  0  0  0  0  0  0  0  0
  1  2  2  0
  2  3  2  0
  2  4  1  0
  4  5  1  0
  5  6  2  0
  6  7  1  0
  7  8  2  0
  8  9  1  0
  9 10  2  0
 10 11  1  0
  8 12  1  0
 12 13  1  0
 13 14  1  0
 14 15  1  0
  2 16  1  0
 16 17  2  0
 17 18  1  0
 18 19  1  0
 19 20  2  0
 19 21  2  0
 19 22  1  0
 22 23  1  0
 23 24  1  0
 24 25  1  0
 25 26  1  0
 18 27  2  0
 27 28  1  0
 28 29  2  0
 29 30  1  0
 10  5  1  0
 29 16  1  0
 15  7  1  0
 26 22  1  0
  4 31  1  0
  6 32  1  0
  9 33  1  0
 11 34  1  0
 12 35  1  0
 12 36  1  0
 13 37  1  0
 13 38  1  0
 14 39  1  0
 14 40  1  0
 15 41  1  0
 15 42  1  0
 17 43  1  0
 23 44  1  0
 23 45  1  0
 24 46  1  0
 24 47  1  0
 25 48  1  0
 25 49  1  0
 26 50  1  0
 26 51  1  0
 27 52  1  0
 28 53  1  0
 30 54  1  0
M  END
>  <smiles>  (33) 
O=S(=O)(Nc1cc2c(cc1O)CCCC2)c1cc(S(=O)(=O)N2CCCC2)ccc1O

>  <score_type>  (33) 
oracle

>  <origin>  (33) 
adgpu

>  <m_score__min__energy>  (33) 
-11.470000000000001

>  <m_primary>  (33) 
energy

$$$$
35:0
     RDKit          3D

 53 56  0  0  0  0  0  0  0  0999 V2000
   -8.4750   18.9300  -32.0320 C   0  0  0  0  0  0  0  0  0  0  0  0
   -7.2600   19.7060  -32.3940 C   0  0  0  0  0  0  0  0  0  0  0  0
   -7.1540   21.0660  -32.1520 C   0  0  0  0  0  0  0  0  0  0  0  0
   -6.0450   21.7920  -32.4780 C   0  0  0  0  0  0  0  0  0  0  0  0
   -5.8570   23.1710  -32.2790 N   0  0  0  0  0  0  0  0  0  0  0  0
   -5.2840   23.9180  -30.8480 S   0  0  0  0  0  0  0  0  0  0  0  0
   -4.4060   25.1030  -31.1870 O   0  0  0  0  0  0  0  0  0  0  0  0
   -6.4750   24.3830  -30.0210 O   0  0  0  0  0  0  0  0  0  0  0  0
   -4.3600   22.8630  -29.8110 C   0  0  0  0  0  0  0  0  0  0  0  0
   -4.2670   23.1930  -28.4550 C   0  0  0  0  0  0  0  0  0  0  0  0
   -3.5300   22.4040  -27.5740 C   0  0  0  0  0  0  0  0  0  0  0  0
   -2.8850   21.2780  -28.0740 C   0  0  0  0  0  0  0  0  0  0  0  0
   -1.9430   20.2570  -26.9910 S   0  0  0  0  0  0  0  0  0  0  0  0
   -2.8470   19.2090  -26.4300 O   0  0  0  0  0  0  0  0  0  0  0  0
   -1.4060   21.0460  -25.8400 O   0  0  0  0  0  0  0  0  0  0  0  0
   -0.6730   19.5430  -27.8730 N   0  0  0  0  0  0  0  0  0  0  0  0
   -0.3180   18.2190  -27.4570 C   0  0  0  0  0  0  0  0  0  0  0  0
    0.2710   17.5050  -28.6550 C   0  0  0  0  0  0  0  0  0  0  0  0
    1.1340   18.4620  -29.4060 C   0  0  0  0  0  0  0  0  0  0  0  0
    1.6530   19.6170  -28.5830 C   0  0  0  0  0  0  0  0  0  0  0  0
    0.5310   20.3550  -27.8830 C   0  0  0  0  0  0  0  0  0  0  0  0
   -2.9580   20.9280  -29.4040 C   0  0  0  0  0  0  0  0  0  0  0  0
   -3.7030   21.7360  -30.2590 C   0  0  0  0  0  0  0  0  0  0  0  0
   -4.9930   21.0970  -33.0820 C   0  0  0  0  0  0  0  0  0  0  0  0
   -5.0640   19.7430  -33.3390 C   0  0  0  0  0  0  0  0  0  0  0  0
   -6.2050   19.0480  -32.9910 C   0  0  0  0  0  0  0  0  0  0  0  0
   -6.2200   17.6560  -33.2800 N   0  0  0  0  0  0  0  0  0  0  0  0
   -5.5210   16.7460  -32.5820 C   0  0  0  0  0  0  0  0  0  0  0  0
   -5.7670   15.5530  -33.1220 N   0  0  0  0  0  0  0  0  0  0  0  0
   -6.5880   15.7270  -34.1170 N   0  0  0  0  0  0  0  0  0  0  0  0
   -6.8700   17.0110  -34.2210 N   0  0  0  0  0  0  0  0  0  0  0  0
   -8.5619   18.8745  -30.9368 H   0  0  0  0  0  0  0  0  0  0  0  0
   -9.3646   19.4275  -32.4456 H   0  0  0  0  0  0  0  0  0  0  0  0
   -8.3977   17.9137  -32.4456 H   0  0  0  0  0  0  0  0  0  0  0  0
   -8.0003   21.5833  -31.6765 H   0  0  0  0  0  0  0  0  0  0  0  0
   -6.1020   23.7910  -33.1130 H   0  0  0  0  0  0  0  0  0  0  0  0
   -4.7832   24.0884  -28.0785 H   0  0  0  0  0  0  0  0  0  0  0  0
   -3.4601   22.6657  -26.5079 H   0  0  0  0  0  0  0  0  0  0  0  0
    0.4243   18.2669  -26.6466 H   0  0  0  0  0  0  0  0  0  0  0  0
   -1.2020   17.6815  -27.0832 H   0  0  0  0  0  0  0  0  0  0  0  0
    0.8744   16.6499  -28.3163 H   0  0  0  0  0  0  0  0  0  0  0  0
   -0.5359   17.1378  -29.3062 H   0  0  0  0  0  0  0  0  0  0  0  0
    1.9973   17.9075  -29.8025 H   0  0  0  0  0  0  0  0  0  0  0  0
    0.5036   18.8986  -30.1947 H   0  0  0  0  0  0  0  0  0  0  0  0
    2.3516   19.2301  -27.8265 H   0  0  0  0  0  0  0  0  0  0  0  0
    2.1566   20.3220  -29.2608 H   0  0  0  0  0  0  0  0  0  0  0  0
    0.8304   20.5738  -26.8474 H   0  0  0  0  0  0  0  0  0  0  0  0
    0.3274   21.2927  -28.4208 H   0  0  0  0  0  0  0  0  0  0  0  0
   -2.4411   20.0332  -29.7811 H   0  0  0  0  0  0  0  0  0  0  0  0
   -3.7696   21.4675  -31.3236 H   0  0  0  0  0  0  0  0  0  0  0  0
   -4.0814   21.6459  -33.3607 H   0  0  0  0  0  0  0  0  0  0  0  0
   -4.2203   19.2229  -33.8161 H   0  0  0  0  0  0  0  0  0  0  0  0
   -4.8656   16.9485  -31.7221 H   0  0  0  0  0  0  0  0  0  0  0  0
  1  2  1  0
  2  3  2  0
  3  4  1  0
  4  5  1  0
  5  6  1  0
  6  7  2  0
  6  8  2  0
  6  9  1  0
  9 10  2  0
 10 11  1  0
 11 12  2  0
 12 13  1  0
 13 14  2  0
 13 15  2  0
 13 16  1  0
 16 17  1  0
 17 18  1  0
 18 19  1  0
 19 20  1  0
 20 21  1  0
 12 22  1  0
 22 23  2  0
  4 24  2  0
 24 25  1  0
 25 26  2  0
 26 27  1  0
 27 28  1  0
 28 29  2  0
 29 30  1  0
 30 31  2  0
 26  2  1  0
 31 27  1  0
 23  9  1  0
 21 16  1  0
  1 32  1  0
  1 33  1  0
  1 34  1  0
  3 35  1  0
  5 36  1  0
 10 37  1  0
 11 38  1  0
 17 39  1  0
 17 40  1  0
 18 41  1  0
 18 42  1  0
 19 43  1  0
 19 44  1  0
 20 45  1  0
 20 46  1  0
 21 47  1  0
 21 48  1  0
 22 49  1  0
 23 50  1  0
 24 51  1  0
 25 52  1  0
 28 53  1  0
M  END
>  <smiles>  (34) 
Cc1cc(NS(=O)(=O)c2ccc(S(=O)(=O)N3CCCCC3)cc2)ccc1-n1cnnn1

>  <score_type>  (34) 
oracle

>  <origin>  (34) 
adgpu

>  <m_score__min__energy>  (34) 
-11.94

>  <m_primary>  (34) 
energy

$$$$
36:0
     RDKit          3D

 57 60  0  0  0  0  0  0  0  0999 V2000
   -4.7380   17.0520  -34.1220 C   0  0  0  0  0  0  0  0  0  0  0  0
   -6.2890   17.0040  -33.2420 S   0  0  0  0  0  0  0  0  0  0  0  0
   -6.0550   16.6760  -31.7890 O   0  0  0  0  0  0  0  0  0  0  0  0
   -7.1770   15.9870  -33.8660 O   0  0  0  0  0  0  0  0  0  0  0  0
   -7.0030   18.5470  -33.3900 N   0  0  0  0  0  0  0  0  0  0  0  0
   -6.0940   19.6360  -33.3250 C   0  0  0  0  0  0  0  0  0  0  0  0
   -5.8810   20.1570  -31.9190 C   0  0  0  0  0  0  0  0  0  0  0  0
   -7.1960   20.3590  -31.3450 N   0  0  0  0  0  0  0  0  0  0  0  0
   -7.6220   21.5930  -30.7840 C   0  0  0  0  0  0  0  0  0  0  0  0
   -8.7780   21.7420  -30.2910 O   0  0  0  0  0  0  0  0  0  0  0  0
   -6.7560   22.7760  -30.7380 C   0  0  0  0  0  0  0  0  0  0  0  0
   -6.8450   23.7670  -31.6900 C   0  0  0  0  0  0  0  0  0  0  0  0
   -5.9940   24.8410  -31.5730 C   0  0  0  0  0  0  0  0  0  0  0  0
   -5.0850   24.9290  -30.5450 C   0  0  0  0  0  0  0  0  0  0  0  0
   -4.2490   26.0470  -30.4820 O   0  0  0  0  0  0  0  0  0  0  0  0
   -4.9800   23.9270  -29.5640 C   0  0  0  0  0  0  0  0  0  0  0  0
   -4.0160   24.1120  -28.5780 N   0  0  0  0  0  0  0  0  0  0  0  0
   -2.3250   23.9450  -28.7070 S   0  0  0  0  0  0  0  0  0  0  0  0
   -1.7650   23.6540  -27.3280 O   0  0  0  0  0  0  0  0  0  0  0  0
   -1.7040   25.2610  -29.1550 O   0  0  0  0  0  0  0  0  0  0  0  0
   -1.8150   22.7260  -29.8200 C   0  0  0  0  0  0  0  0  0  0  0  0
   -0.6940   21.9440  -29.6850 C   0  0  0  0  0  0  0  0  0  0  0  0
   -0.3360   20.9790  -30.6140 C   0  0  0  0  0  0  0  0  0  0  0  0
   -1.1200   20.7650  -31.7440 C   0  0  0  0  0  0  0  0  0  0  0  0
   -2.2580   21.5520  -31.8910 C   0  0  0  0  0  0  0  0  0  0  0  0
   -2.5920   22.5080  -30.9480 C   0  0  0  0  0  0  0  0  0  0  0  0
   -2.9720   21.1880  -33.1520 C   0  0  0  0  0  0  0  0  0  0  0  0
   -1.8860   20.4760  -33.9560 C   0  0  0  0  0  0  0  0  0  0  0  0
   -1.0050   19.8250  -32.9040 C   0  0  0  0  0  0  0  0  0  0  0  0
   -5.8380   22.8730  -29.7070 C   0  0  0  0  0  0  0  0  0  0  0  0
   -8.1250   19.2490  -31.3400 C   0  0  0  0  0  0  0  0  0  0  0  0
   -8.2400   18.6870  -32.7140 C   0  0  0  0  0  0  0  0  0  0  0  0
   -3.9079   17.0777  -33.4008 H   0  0  0  0  0  0  0  0  0  0  0  0
   -4.6471   16.1562  -34.7539 H   0  0  0  0  0  0  0  0  0  0  0  0
   -4.7027   17.9517  -34.7539 H   0  0  0  0  0  0  0  0  0  0  0  0
   -5.1242   19.3054  -33.7252 H   0  0  0  0  0  0  0  0  0  0  0  0
   -6.5279   20.4575  -33.9140 H   0  0  0  0  0  0  0  0  0  0  0  0
   -5.3167   19.4234  -31.3245 H   0  0  0  0  0  0  0  0  0  0  0  0
   -5.3054   21.0943  -31.9278 H   0  0  0  0  0  0  0  0  0  0  0  0
   -7.5705   23.7019  -32.5142 H   0  0  0  0  0  0  0  0  0  0  0  0
   -6.0416   25.6481  -32.3189 H   0  0  0  0  0  0  0  0  0  0  0  0
   -3.5260   26.0530  -29.7710 H   0  0  0  0  0  0  0  0  0  0  0  0
   -4.3850   24.4010  -27.6110 H   0  0  0  0  0  0  0  0  0  0  0  0
   -0.0533   22.0894  -28.8028 H   0  0  0  0  0  0  0  0  0  0  0  0
    0.5726   20.3792  -30.4571 H   0  0  0  0  0  0  0  0  0  0  0  0
   -3.4992   23.1120  -31.0972 H   0  0  0  0  0  0  0  0  0  0  0  0
   -3.8198   20.5173  -32.9488 H   0  0  0  0  0  0  0  0  0  0  0  0
   -3.4067   22.0532  -33.6741 H   0  0  0  0  0  0  0  0  0  0  0  0
   -2.3267   19.7169  -34.6190 H   0  0  0  0  0  0  0  0  0  0  0  0
   -1.3255   21.1641  -34.6059 H   0  0  0  0  0  0  0  0  0  0  0  0
   -1.3769   18.8238  -32.6406 H   0  0  0  0  0  0  0  0  0  0  0  0
    0.0316   19.6727  -33.2389 H   0  0  0  0  0  0  0  0  0  0  0  0
   -5.7969   22.0613  -28.9657 H   0  0  0  0  0  0  0  0  0  0  0  0
   -7.7601   18.4694  -30.6551 H   0  0  0  0  0  0  0  0  0  0  0  0
   -9.1122   19.6007  -31.0056 H   0  0  0  0  0  0  0  0  0  0  0  0
   -8.7082   17.6942  -32.6425 H   0  0  0  0  0  0  0  0  0  0  0  0
   -8.8401   19.4004  -33.2979 H   0  0  0  0  0  0  0  0  0  0  0  0
  1  2  1  0
  2  3  2  0
  2  4  2  0
  2  5  1  0
  5  6  1  0
  6  7  1  0
  7  8  1  0
  8  9  1  0
  9 10  2  0
  9 11  1  0
 11 12  2  0
 12 13  1  0
 13 14  2  0
 14 15  1  0
 14 16  1  0
 16 17  1  0
 17 18  1  0
 18 19  2  0
 18 20  2  0
 18 21  1  0
 21 22  2  0
 22 23  1  0
 23 24  2  0
 24 25  1  0
 25 26  2  0
 25 27  1  0
 27 28  1  0
 28 29  1  0
 16 30  2  0
  8 31  1  0
 31 32  1  0
 32  5  1  0
 30 11  1  0
 26 21  1  0
 29 24  1  0
  1 33  1  0
  1 34  1  0
  1 35  1  0
  6 36  1  0
  6 37  1  0
  7 38  1  0
  7 39  1  0
 12 40  1  0
 13 41  1  0
 15 42  1  0
 17 43  1  0
 22 44  1  0
 23 45  1  0
 26 46  1  0
 27 47  1  0
 27 48  1  0
 28 49  1  0
 28 50  1  0
 29 51  1  0
 29 52  1  0
 30 53  1  0
 31 54  1  0
 31 55  1  0
 32 56  1  0
 32 57  1  0
M  END
>  <smiles>  (35) 
CS(=O)(=O)N1CCN(C(=O)c2ccc(O)c(NS(=O)(=O)c3ccc4c(c3)CCC4)c2)CC1

>  <score_type>  (35) 
oracle

>  <origin>  (35) 
adgpu

>  <m_score__min__energy>  (35) 
-11.56

>  <m_primary>  (35) 
energy

$$$$
37:0
     RDKit          3D

 51 54  0  0  0  0  0  0  0  0999 V2000
   -6.1860   17.0790  -33.5000 C   0  0  0  0  0  0  0  0  0  0  0  0
   -6.4410   18.5010  -33.8450 C   0  0  0  0  0  0  0  0  0  0  0  0
   -6.1040   18.9360  -34.9630 O   0  0  0  0  0  0  0  0  0  0  0  0
   -7.0650   19.3550  -32.9120 N   0  0  0  0  0  0  0  0  0  0  0  0
   -8.4250   19.2740  -32.3970 C   0  0  0  0  0  0  0  0  0  0  0  0
   -8.7930   20.7520  -32.3490 C   0  0  0  0  0  0  0  0  0  0  0  0
   -7.4880   21.3520  -31.9230 C   0  0  0  0  0  0  0  0  0  0  0  0
   -7.1660   22.5360  -31.2860 C   0  0  0  0  0  0  0  0  0  0  0  0
   -5.8710   22.8950  -30.9860 C   0  0  0  0  0  0  0  0  0  0  0  0
   -5.5970   24.4220  -30.1870 S   0  0  0  0  0  0  0  0  0  0  0  0
   -6.9500   25.0850  -30.0110 O   0  0  0  0  0  0  0  0  0  0  0  0
   -4.8090   25.3540  -31.0640 O   0  0  0  0  0  0  0  0  0  0  0  0
   -4.8760   24.1960  -28.6620 N   0  0  0  0  0  0  0  0  0  0  0  0
   -3.6950   23.4550  -28.4100 C   0  0  0  0  0  0  0  0  0  0  0  0
   -3.6840   22.2020  -27.8290 C   0  0  0  0  0  0  0  0  0  0  0  0
   -2.5210   21.4950  -27.6010 C   0  0  0  0  0  0  0  0  0  0  0  0
   -1.2970   22.0150  -27.9490 C   0  0  0  0  0  0  0  0  0  0  0  0
   -1.2760   23.2580  -28.5290 C   0  0  0  0  0  0  0  0  0  0  0  0
   -2.4330   23.9600  -28.7550 C   0  0  0  0  0  0  0  0  0  0  0  0
   -2.3340   25.2210  -29.3510 O   0  0  0  0  0  0  0  0  0  0  0  0
   -0.0080   21.3220  -27.7390 C   0  0  0  0  0  0  0  0  0  0  0  0
   -0.1200   19.9390  -27.3970 N   0  0  0  0  0  0  0  0  0  0  0  0
    0.8090   19.1520  -28.2210 C   0  0  0  0  0  0  0  0  0  0  0  0
   -1.4170   19.3590  -27.5970 C   0  0  0  0  0  0  0  0  0  0  0  0
   -2.5340   20.1440  -26.9720 C   0  0  0  0  0  0  0  0  0  0  0  0
   -4.8720   22.0240  -31.3450 C   0  0  0  0  0  0  0  0  0  0  0  0
   -5.1640   20.8200  -31.9900 C   0  0  0  0  0  0  0  0  0  0  0  0
   -6.4760   20.4840  -32.2790 C   0  0  0  0  0  0  0  0  0  0  0  0
   -6.1656   16.9651  -32.4061 H   0  0  0  0  0  0  0  0  0  0  0  0
   -6.9858   16.4509  -33.9192 H   0  0  0  0  0  0  0  0  0  0  0  0
   -5.2177   16.7679  -33.9192 H   0  0  0  0  0  0  0  0  0  0  0  0
   -9.0838   18.7135  -33.0766 H   0  0  0  0  0  0  0  0  0  0  0  0
   -8.5205   18.7467  -31.4364 H   0  0  0  0  0  0  0  0  0  0  0  0
   -9.1065   21.1235  -33.3358 H   0  0  0  0  0  0  0  0  0  0  0  0
   -9.6406   20.9893  -31.6892 H   0  0  0  0  0  0  0  0  0  0  0  0
   -7.9799   23.2212  -31.0066 H   0  0  0  0  0  0  0  0  0  0  0  0
   -5.3250   24.6360  -27.8020 H   0  0  0  0  0  0  0  0  0  0  0  0
   -4.6424   21.7487  -27.5358 H   0  0  0  0  0  0  0  0  0  0  0  0
   -0.3118   23.7010  -28.8188 H   0  0  0  0  0  0  0  0  0  0  0  0
   -3.1130   25.7040  -29.7500 H   0  0  0  0  0  0  0  0  0  0  0  0
    0.5770   21.3987  -28.6674 H   0  0  0  0  0  0  0  0  0  0  0  0
    0.4726   21.8152  -26.8812 H   0  0  0  0  0  0  0  0  0  0  0  0
    1.4842   18.5800  -27.5676 H   0  0  0  0  0  0  0  0  0  0  0  0
    0.2384   18.4583  -28.8560 H   0  0  0  0  0  0  0  0  0  0  0  0
    1.3995   19.8289  -28.8560 H   0  0  0  0  0  0  0  0  0  0  0  0
   -1.6036   19.2912  -28.6789 H   0  0  0  0  0  0  0  0  0  0  0  0
   -1.4060   18.3730  -27.1094 H   0  0  0  0  0  0  0  0  0  0  0  0
   -3.4971   19.6478  -27.1622 H   0  0  0  0  0  0  0  0  0  0  0  0
   -2.4015   20.2166  -25.8824 H   0  0  0  0  0  0  0  0  0  0  0  0
   -3.8255   22.2784  -31.1211 H   0  0  0  0  0  0  0  0  0  0  0  0
   -4.3489   20.1362  -32.2694 H   0  0  0  0  0  0  0  0  0  0  0  0
  1  2  1  0
  2  3  2  0
  2  4  1  0
  4  5  1  0
  5  6  1  0
  6  7  1  0
  7  8  2  0
  8  9  1  0
  9 10  1  0
 10 11  2  0
 10 12  2  0
 10 13  1  0
 13 14  1  0
 14 15  2  0
 15 16  1  0
 16 17  2  0
 17 18  1  0
 18 19  2  0
 19 20  1  0
 17 21  1  0
 21 22  1  0
 22 23  1  0
 22 24  1  0
 24 25  1  0
  9 26  2  0
 26 27  1  0
 27 28  2  0
 28  4  1  0
 28  7  1  0
 19 14  1  0
 25 16  1  0
  1 29  1  0
  1 30  1  0
  1 31  1  0
  5 32  1  0
  5 33  1  0
  6 34  1  0
  6 35  1  0
  8 36  1  0
 13 37  1  0
 15 38  1  0
 18 39  1  0
 20 40  1  0
 21 41  1  0
 21 42  1  0
 23 43  1  0
 23 44  1  0
 23 45  1  0
 24 46  1  0
 24 47  1  0
 25 48  1  0
 25 49  1  0
 26 50  1  0
 27 51  1  0
M  END
>  <smiles>  (36) 
CC(=O)N1CCc2cc(S(=O)(=O)Nc3cc4c(cc3O)CN(C)CC4)ccc21

>  <score_type>  (36) 
oracle

>  <origin>  (36) 
adgpu

>  <m_score__min__energy>  (36) 
-11.92

>  <m_primary>  (36) 
energy

$$$$
38:0
     RDKit          3D

 38 40  0  0  1  0  0  0  0  0999 V2000
   -3.7510   23.5520  -27.5750 O   0  0  0  0  0  0  0  0  0  0  0  0
   -3.2030   24.5280  -28.1110 C   0  0  0  0  0  0  0  0  0  0  0  0
   -3.5550   24.8490  -29.4440 N   0  0  0  0  0  0  0  0  0  0  0  0
   -4.5190   24.0450  -30.1140 C   0  0  0  0  0  0  0  0  0  0  0  0
   -4.2140   23.1390  -31.0950 C   0  0  0  0  0  0  0  0  0  0  0  0
   -5.2250   22.4070  -31.6830 C   0  0  0  0  0  0  0  0  0  0  0  0
   -6.5450   22.5620  -31.3110 C   0  0  0  0  0  0  0  0  0  0  0  0
   -7.8600   21.6750  -32.0080 S   0  0  0  0  0  0  0  0  0  0  0  0
   -8.4040   20.7170  -30.9620 O   0  0  0  0  0  0  0  0  0  0  0  0
   -8.9960   22.6460  -32.2640 O   0  0  0  0  0  0  0  0  0  0  0  0
   -7.4480   20.7850  -33.4000 N   0  0  0  0  0  0  0  0  0  0  0  0
   -6.8220   19.6550  -33.2390 C   0  0  0  0  0  0  0  0  0  0  0  0
   -6.3810   18.7650  -34.1160 N   0  0  0  0  0  0  0  0  0  0  0  0
   -5.7720   17.6910  -33.7170 C   0  0  0  0  0  0  0  0  0  0  0  0
   -5.5890   17.4870  -32.3740 C   0  0  0  0  0  0  0  0  0  0  0  0
   -6.3750   19.0010  -31.5890 S   0  0  0  0  0  0  0  0  0  0  0  0
   -6.8570   23.4850  -30.3100 C   0  0  0  0  0  0  0  0  0  0  0  0
   -5.8430   24.2130  -29.7270 C   0  0  0  0  0  0  0  0  0  0  0  0
   -2.2310   25.2840  -27.3370 C   0  0  0  0  0  0  0  0  0  0  0  0
   -2.2340   25.3260  -25.9520 C   0  0  0  0  0  0  0  0  0  0  0  0
   -1.3000   26.0520  -25.2420 C   0  0  0  0  0  0  0  0  0  0  0  0
   -0.3100   26.7750  -25.8850 C   0  0  0  0  0  0  0  0  0  0  0  0
   -0.2920   26.7460  -27.2650 C   0  0  0  0  0  0  0  0  0  0  0  0
   -1.2200   26.0250  -27.9530 C   0  0  0  0  0  0  0  0  0  0  0  0
   -1.1720   26.0160  -29.3400 O   0  0  0  0  0  0  0  0  0  0  0  0
   -3.1120   25.6640  -29.9220 H   0  0  0  0  0  0  0  0  0  0  0  0
   -3.1704   22.9960  -31.4118 H   0  0  0  0  0  0  0  0  0  0  0  0
   -4.9722   21.6805  -32.4693 H   0  0  0  0  0  0  0  0  0  0  0  0
   -6.5450   18.9630  -35.1720 H   0  0  0  0  0  0  0  0  0  0  0  0
   -5.4072   16.9536  -34.4472 H   0  0  0  0  0  0  0  0  0  0  0  0
   -5.0984   16.6384  -31.8748 H   0  0  0  0  0  0  0  0  0  0  0  0
   -7.8999   23.6289  -29.9910 H   0  0  0  0  0  0  0  0  0  0  0  0
   -6.0863   24.9416  -28.9396 H   0  0  0  0  0  0  0  0  0  0  0  0
   -3.0036   24.7641  -25.4025 H   0  0  0  0  0  0  0  0  0  0  0  0
   -1.3429   26.0564  -24.1428 H   0  0  0  0  0  0  0  0  0  0  0  0
    0.4351   27.3515  -25.3171 H   0  0  0  0  0  0  0  0  0  0  0  0
    0.4776   27.3094  -27.8129 H   0  0  0  0  0  0  0  0  0  0  0  0
   -0.4220   25.5680  -29.8450 H   0  0  0  0  0  0  0  0  0  0  0  0
  1  2  2  0
  2  3  1  0
  3  4  1  0
  4  5  2  0
  5  6  1  0
  6  7  2  0
  7  8  1  0
  8  9  2  0
  8 10  2  0
  8 11  1  0
 11 12  2  0
 12 13  1  0
 13 14  1  0
 14 15  2  0
 15 16  1  0
  7 17  1  0
 17 18  2  0
  2 19  1  0
 19 20  2  0
 20 21  1  0
 21 22  2  0
 22 23  1  0
 23 24  2  0
 24 25  1  0
 18  4  1  0
 24 19  1  0
 16 12  1  0
  3 26  1  0
  5 27  1  0
  6 28  1  0
 13 29  1  0
 14 30  1  0
 15 31  1  0
 17 32  1  0
 18 33  1  0
 20 34  1  0
 21 35  1  0
 22 36  1  0
 23 37  1  0
 25 38  1  0
M  END
>  <smiles>  (37) 
O=C(Nc1ccc(S(=O)(=O)N=c2[nH]ccs2)cc1)c1ccccc1O

>  <score_type>  (37) 
oracle

>  <origin>  (37) 
adgpu

>  <m_score__min__energy>  (37) 
-10.24

>  <m_primary>  (37) 
energy

$$$$
39:0
     RDKit          3D

 38 40  0  0  0  0  0  0  0  0999 V2000
    0.1110   23.1150  -27.2440 C   0  0  0  0  0  0  0  0  0  0  0  0
   -0.8830   23.2730  -28.3180 N   0  0  0  0  0  0  0  0  0  0  0  0
   -1.3220   22.2960  -29.1300 C   0  0  0  0  0  0  0  0  0  0  0  0
   -2.2520   22.8450  -29.9970 C   0  0  0  0  0  0  0  0  0  0  0  0
   -2.9900   22.1580  -31.0320 C   0  0  0  0  0  0  0  0  0  0  0  0
   -2.5930   21.0430  -31.4270 O   0  0  0  0  0  0  0  0  0  0  0  0
   -4.1470   22.7280  -31.6000 N   0  0  0  0  0  0  0  0  0  0  0  0
   -4.8930   22.0340  -32.6580 C   0  0  0  0  0  0  0  0  0  0  0  0
   -6.2320   21.6290  -32.1670 C   0  0  0  0  0  0  0  0  0  0  0  0
   -6.8350   20.4340  -32.4410 C   0  0  0  0  0  0  0  0  0  0  0  0
   -8.0920   20.1020  -31.9640 C   0  0  0  0  0  0  0  0  0  0  0  0
   -8.8490   18.5550  -32.3310 Cl  0  0  0  0  0  0  0  0  0  0  0  0
   -8.7680   21.0090  -31.1800 C   0  0  0  0  0  0  0  0  0  0  0  0
   -8.2050   22.2200  -30.8770 C   0  0  0  0  0  0  0  0  0  0  0  0
   -6.9540   22.5210  -31.3660 C   0  0  0  0  0  0  0  0  0  0  0  0
   -6.4140   23.8030  -31.0150 N   0  0  0  0  0  0  0  0  0  0  0  0
   -6.4790   24.4510  -29.8390 C   0  0  0  0  0  0  0  0  0  0  0  0
   -5.8190   25.6690  -29.9390 C   0  0  0  0  0  0  0  0  0  0  0  0
   -5.3710   25.6980  -31.2220 N   0  0  0  0  0  0  0  0  0  0  0  0
   -5.7350   24.5930  -31.8250 N   0  0  0  0  0  0  0  0  0  0  0  0
   -2.3290   24.1740  -29.6520 C   0  0  0  0  0  0  0  0  0  0  0  0
   -3.1550   25.1360  -30.2660 O   0  0  0  0  0  0  0  0  0  0  0  0
   -1.4680   24.4430  -28.5960 C   0  0  0  0  0  0  0  0  0  0  0  0
   -1.2480   25.6430  -27.9580 O   0  0  0  0  0  0  0  0  0  0  0  0
   -0.3887   23.1944  -26.2673 H   0  0  0  0  0  0  0  0  0  0  0  0
    0.5913   22.1292  -27.3310 H   0  0  0  0  0  0  0  0  0  0  0  0
    0.8733   23.9033  -27.3310 H   0  0  0  0  0  0  0  0  0  0  0  0
   -0.9992   21.2446  -29.1095 H   0  0  0  0  0  0  0  0  0  0  0  0
   -4.4500   23.6670  -31.2380 H   0  0  0  0  0  0  0  0  0  0  0  0
   -5.0115   22.7078  -33.5194 H   0  0  0  0  0  0  0  0  0  0  0  0
   -4.3352   21.1338  -32.9556 H   0  0  0  0  0  0  0  0  0  0  0  0
   -6.2995   19.7049  -33.0668 H   0  0  0  0  0  0  0  0  0  0  0  0
   -9.7674   20.7594  -30.7941 H   0  0  0  0  0  0  0  0  0  0  0  0
   -8.7462   22.9439  -30.2501 H   0  0  0  0  0  0  0  0  0  0  0  0
   -6.9790   24.0738  -28.9347 H   0  0  0  0  0  0  0  0  0  0  0  0
   -5.6888   26.4340  -29.1594 H   0  0  0  0  0  0  0  0  0  0  0  0
   -3.4810   24.9240  -31.2230 H   0  0  0  0  0  0  0  0  0  0  0  0
   -2.0030   26.1030  -27.4820 H   0  0  0  0  0  0  0  0  0  0  0  0
  1  2  1  0
  2  3  1  0
  3  4  2  0
  4  5  1  0
  5  6  2  0
  5  7  1  0
  7  8  1  0
  8  9  1  0
  9 10  2  0
 10 11  1  0
 11 12  1  0
 11 13  2  0
 13 14  1  0
 14 15  2  0
 15 16  1  0
 16 17  1  0
 17 18  2  0
 18 19  1  0
 19 20  2  0
  4 21  1  0
 21 22  1  0
 21 23  2  0
 23 24  1  0
 23  2  1  0
 15  9  1  0
 20 16  1  0
  1 25  1  0
  1 26  1  0
  1 27  1  0
  3 28  1  0
  7 29  1  0
  8 30  1  0
  8 31  1  0
 10 32  1  0
 13 33  1  0
 14 34  1  0
 17 35  1  0
 18 36  1  0
 22 37  1  0
 24 38  1  0
M  END
>  <smiles>  (38) 
Cn1cc(C(=O)NCc2cc(Cl)ccc2-n2ccnn2)c(O)c1O

>  <score_type>  (38) 
oracle

>  <origin>  (38) 
adgpu

>  <m_score__min__energy>  (38) 
-8.3900000000000006

>  <m_primary>  (38) 
energy

$$$$
40:0
     RDKit          3D

 66 70  0  0  0  0  0  0  0  0999 V2000
   -8.8030   23.1630  -32.2000 C   0  0  0  0  0  0  0  0  0  0  0  0
   -9.2770   21.5330  -31.6710 S   0  0  0  0  0  0  0  0  0  0  0  0
  -10.5660   21.1530  -32.3100 O   0  0  0  0  0  0  0  0  0  0  0  0
   -9.4410   21.5080  -30.1840 O   0  0  0  0  0  0  0  0  0  0  0  0
   -8.0370   20.3940  -32.1750 C   0  0  0  0  0  0  0  0  0  0  0  0
   -7.5180   20.3850  -33.4540 C   0  0  0  0  0  0  0  0  0  0  0  0
   -6.5370   19.4780  -33.8400 C   0  0  0  0  0  0  0  0  0  0  0  0
   -6.0930   18.5760  -32.8960 C   0  0  0  0  0  0  0  0  0  0  0  0
   -5.0740   17.5690  -33.1600 C   0  0  0  0  0  0  0  0  0  0  0  0
   -3.7360   17.8760  -33.3040 C   0  0  0  0  0  0  0  0  0  0  0  0
   -3.3200   19.2910  -33.1990 C   0  0  0  0  0  0  0  0  0  0  0  0
   -4.1540   20.1450  -32.5030 C   0  0  0  0  0  0  0  0  0  0  0  0
   -3.8380   21.4830  -32.3550 C   0  0  0  0  0  0  0  0  0  0  0  0
   -4.7480   22.3540  -31.6160 C   0  0  0  0  0  0  0  0  0  0  0  0
   -4.7250   23.5780  -31.9390 O   0  0  0  0  0  0  0  0  0  0  0  0
   -5.6150   21.8920  -30.5940 N   0  0  0  0  0  0  0  0  0  0  0  0
   -6.5190   22.7410  -29.8470 C   0  0  0  0  0  0  0  0  0  0  0  0
   -5.7760   23.9380  -29.3580 C   0  0  0  0  0  0  0  0  0  0  0  0
   -4.3890   23.6530  -28.9050 C   0  0  0  0  0  0  0  0  0  0  0  0
   -4.1510   22.6940  -27.9200 C   0  0  0  0  0  0  0  0  0  0  0  0
   -2.8370   22.4520  -27.5210 C   0  0  0  0  0  0  0  0  0  0  0  0
   -1.7740   23.1250  -28.0630 C   0  0  0  0  0  0  0  0  0  0  0  0
   -2.0050   24.0800  -29.0430 C   0  0  0  0  0  0  0  0  0  0  0  0
   -3.3080   24.3310  -29.4490 C   0  0  0  0  0  0  0  0  0  0  0  0
   -3.5020   25.2940  -30.4330 O   0  0  0  0  0  0  0  0  0  0  0  0
   -2.6690   21.9130  -32.9290 C   0  0  0  0  0  0  0  0  0  0  0  0
   -1.8270   21.0690  -33.6270 C   0  0  0  0  0  0  0  0  0  0  0  0
   -2.1450   19.7350  -33.7720 C   0  0  0  0  0  0  0  0  0  0  0  0
   -1.3200   18.8500  -34.4700 O   0  0  0  0  0  0  0  0  0  0  0  0
   -2.7940   16.9460  -33.5440 N   0  0  0  0  0  0  0  0  0  0  0  0
   -3.1650   15.6580  -33.6490 C   0  0  0  0  0  0  0  0  0  0  0  0
   -2.2090   14.6800  -33.8970 C   0  0  0  0  0  0  0  0  0  0  0  0
   -2.6290   13.3730  -33.9990 C   0  0  0  0  0  0  0  0  0  0  0  0
   -3.9700   13.0060  -33.8610 C   0  0  0  0  0  0  0  0  0  0  0  0
   -4.9070   13.9960  -33.6150 C   0  0  0  0  0  0  0  0  0  0  0  0
   -4.5000   15.3020  -33.5110 C   0  0  0  0  0  0  0  0  0  0  0  0
   -5.4910   16.2520  -33.2630 C   0  0  0  0  0  0  0  0  0  0  0  0
   -6.7010   15.9290  -33.1380 O   0  0  0  0  0  0  0  0  0  0  0  0
   -6.6170   18.5810  -31.6000 C   0  0  0  0  0  0  0  0  0  0  0  0
   -7.5920   19.4860  -31.2210 C   0  0  0  0  0  0  0  0  0  0  0  0
   -8.6191   23.7954  -31.3190 H   0  0  0  0  0  0  0  0  0  0  0  0
   -7.8859   23.1002  -32.8042 H   0  0  0  0  0  0  0  0  0  0  0  0
   -9.6108   23.6018  -32.8042 H   0  0  0  0  0  0  0  0  0  0  0  0
   -7.8904   21.1150  -34.1878 H   0  0  0  0  0  0  0  0  0  0  0  0
   -6.1297   19.4800  -34.8618 H   0  0  0  0  0  0  0  0  0  0  0  0
   -5.0824   19.7549  -32.0604 H   0  0  0  0  0  0  0  0  0  0  0  0
   -5.5840   20.8700  -30.3810 H   0  0  0  0  0  0  0  0  0  0  0  0
   -7.3453   23.0617  -30.4984 H   0  0  0  0  0  0  0  0  0  0  0  0
   -6.9266   22.1837  -28.9907 H   0  0  0  0  0  0  0  0  0  0  0  0
   -5.7275   24.6716  -30.1762 H   0  0  0  0  0  0  0  0  0  0  0  0
   -6.3237   24.3126  -28.4807 H   0  0  0  0  0  0  0  0  0  0  0  0
   -4.9851   22.1387  -27.4662 H   0  0  0  0  0  0  0  0  0  0  0  0
   -2.6477   21.6955  -26.7452 H   0  0  0  0  0  0  0  0  0  0  0  0
   -0.7492   22.9109  -27.7253 H   0  0  0  0  0  0  0  0  0  0  0  0
   -1.1657   24.6311  -29.4923 H   0  0  0  0  0  0  0  0  0  0  0  0
   -3.5250   24.9240  -31.3910 H   0  0  0  0  0  0  0  0  0  0  0  0
   -2.3906   22.9725  -32.8296 H   0  0  0  0  0  0  0  0  0  0  0  0
   -0.8996   21.4625  -34.0687 H   0  0  0  0  0  0  0  0  0  0  0  0
   -0.3240   18.8590  -34.2850 H   0  0  0  0  0  0  0  0  0  0  0  0
   -1.7810   17.2130  -33.6490 H   0  0  0  0  0  0  0  0  0  0  0  0
   -1.1467   14.9430  -34.0086 H   0  0  0  0  0  0  0  0  0  0  0  0
   -1.8823   12.5897  -34.1962 H   0  0  0  0  0  0  0  0  0  0  0  0
   -4.2754   11.9527  -33.9460 H   0  0  0  0  0  0  0  0  0  0  0  0
   -5.9702   13.7368  -33.5038 H   0  0  0  0  0  0  0  0  0  0  0  0
   -6.2462   17.8500  -30.8664 H   0  0  0  0  0  0  0  0  0  0  0  0
   -8.0012   19.4872  -30.1999 H   0  0  0  0  0  0  0  0  0  0  0  0
  1  2  1  0
  2  3  2  0
  2  4  2  0
  2  5  1  0
  5  6  2  0
  6  7  1  0
  7  8  2  0
  8  9  1  0
  9 10  2  0
 10 11  1  0
 11 12  2  0
 12 13  1  0
 13 14  1  0
 14 15  2  0
 14 16  1  0
 16 17  1  0
 17 18  1  0
 18 19  1  0
 19 20  2  0
 20 21  1  0
 21 22  2  0
 22 23  1  0
 23 24  2  0
 24 25  1  0
 13 26  2  0
 26 27  1  0
 27 28  2  0
 28 29  1  0
 10 30  1  0
 30 31  1  0
 31 32  2  0
 32 33  1  0
 33 34  2  0
 34 35  1  0
 35 36  2  0
 36 37  1  0
 37 38  2  0
  8 39  1  0
 39 40  2  0
 40  5  1  0
 37  9  1  0
 28 11  1  0
 36 31  1  0
 24 19  1  0
  1 41  1  0
  1 42  1  0
  1 43  1  0
  6 44  1  0
  7 45  1  0
 12 46  1  0
 16 47  1  0
 17 48  1  0
 17 49  1  0
 18 50  1  0
 18 51  1  0
 20 52  1  0
 21 53  1  0
 22 54  1  0
 23 55  1  0
 25 56  1  0
 26 57  1  0
 27 58  1  0
 29 59  1  0
 30 60  1  0
 32 61  1  0
 33 62  1  0
 34 63  1  0
 35 64  1  0
 39 65  1  0
 40 66  1  0
M  END
>  <smiles>  (39) 
CS(=O)(=O)c1ccc(-c2c(-c3cc(C(=O)NCCc4ccccc4O)ccc3O)[nH]c3ccccc3c2=O)cc1

>  <score_type>  (39) 
oracle

>  <origin>  (39) 
adgpu

>  <m_score__min__energy>  (39) 
-11.24

>  <m_primary>  (39) 
energy

$$$$
41:0
     RDKit          3D

 67 71  0  0  0  0  0  0  0  0999 V2000
   -2.2550   21.9190  -32.2420 C   0  0  0  0  0  0  0  0  0  0  0  0
   -1.7990   20.7220  -32.8850 N   0  0  0  0  0  0  0  0  0  0  0  0
   -0.7820   20.7970  -33.8600 C   0  0  0  0  0  0  0  0  0  0  0  0
   -0.2660   21.9190  -34.1740 O   0  0  0  0  0  0  0  0  0  0  0  0
   -0.3250   19.5580  -34.5100 C   0  0  0  0  0  0  0  0  0  0  0  0
   -1.2060   18.4720  -34.5590 C   0  0  0  0  0  0  0  0  0  0  0  0
   -0.8220   17.2720  -35.1670 C   0  0  0  0  0  0  0  0  0  0  0  0
   -1.7580   16.2360  -35.1910 N   0  0  0  0  0  0  0  0  0  0  0  0
   -1.4290   14.8690  -35.6080 C   0  0  0  0  0  0  0  0  0  0  0  0
   -2.2980   13.9990  -34.7130 C   0  0  0  0  0  0  0  0  0  0  0  0
   -3.5150   14.8770  -34.5540 C   0  0  0  0  0  0  0  0  0  0  0  0
   -4.8250   14.6530  -34.2030 C   0  0  0  0  0  0  0  0  0  0  0  0
   -5.7250   15.7040  -34.1690 C   0  0  0  0  0  0  0  0  0  0  0  0
   -5.3960   17.0000  -34.4710 C   0  0  0  0  0  0  0  0  0  0  0  0
   -6.2670   18.1020  -34.4470 N   0  0  0  0  0  0  0  0  0  0  0  0
   -6.5100   18.9700  -33.3780 C   0  0  0  0  0  0  0  0  0  0  0  0
   -5.9410   18.8330  -32.2960 O   0  0  0  0  0  0  0  0  0  0  0  0
   -7.4330   20.0490  -33.5140 N   0  0  0  0  0  0  0  0  0  0  0  0
   -7.6070   20.8780  -32.3620 C   0  0  0  0  0  0  0  0  0  0  0  0
   -8.7330   20.6360  -31.6020 C   0  0  0  0  0  0  0  0  0  0  0  0
   -8.9210   21.4170  -30.4930 C   0  0  0  0  0  0  0  0  0  0  0  0
   -8.0300   22.3890  -30.1610 C   0  0  0  0  0  0  0  0  0  0  0  0
   -6.8750   22.6630  -30.9100 C   0  0  0  0  0  0  0  0  0  0  0  0
   -5.7980   23.9040  -30.3930 S   0  0  0  0  0  0  0  0  0  0  0  0
   -6.6410   25.0740  -29.8940 O   0  0  0  0  0  0  0  0  0  0  0  0
   -4.9990   24.4810  -31.5390 O   0  0  0  0  0  0  0  0  0  0  0  0
   -4.7340   23.5030  -29.1390 N   0  0  0  0  0  0  0  0  0  0  0  0
   -4.0380   24.5530  -28.4920 C   0  0  0  0  0  0  0  0  0  0  0  0
   -3.5870   23.9880  -27.1250 C   0  0  0  0  0  0  0  0  0  0  0  0
   -3.0300   22.7290  -27.2520 O   0  0  0  0  0  0  0  0  0  0  0  0
   -2.6730   22.4280  -28.5600 C   0  0  0  0  0  0  0  0  0  0  0  0
   -3.9590   22.3230  -29.3730 C   0  0  0  0  0  0  0  0  0  0  0  0
   -6.7030   21.8700  -32.0200 C   0  0  0  0  0  0  0  0  0  0  0  0
   -5.6170   22.0460  -32.8260 O   0  0  0  0  0  0  0  0  0  0  0  0
   -4.0590   17.2140  -34.8270 C   0  0  0  0  0  0  0  0  0  0  0  0
   -3.1400   16.1880  -34.8680 C   0  0  0  0  0  0  0  0  0  0  0  0
    0.4450   17.2450  -35.6930 C   0  0  0  0  0  0  0  0  0  0  0  0
    1.3210   18.3110  -35.6500 C   0  0  0  0  0  0  0  0  0  0  0  0
    0.9020   19.4470  -35.0520 N   0  0  0  0  0  0  0  0  0  0  0  0
   -2.2060   21.7904  -31.1506 H   0  0  0  0  0  0  0  0  0  0  0  0
   -1.6152   22.7624  -32.5409 H   0  0  0  0  0  0  0  0  0  0  0  0
   -3.2938   22.1229  -32.5409 H   0  0  0  0  0  0  0  0  0  0  0  0
   -2.2090   19.8170  -32.6360 H   0  0  0  0  0  0  0  0  0  0  0  0
   -2.2087   18.5626  -34.1158 H   0  0  0  0  0  0  0  0  0  0  0  0
   -1.6773   14.7120  -36.6680 H   0  0  0  0  0  0  0  0  0  0  0  0
   -0.3571   14.6410  -35.5127 H   0  0  0  0  0  0  0  0  0  0  0  0
   -2.5491   13.0442  -35.1981 H   0  0  0  0  0  0  0  0  0  0  0  0
   -1.8228   13.7058  -33.7652 H   0  0  0  0  0  0  0  0  0  0  0  0
   -5.1588   13.6362  -33.9486 H   0  0  0  0  0  0  0  0  0  0  0  0
   -6.7647   15.4866  -33.8830 H   0  0  0  0  0  0  0  0  0  0  0  0
   -6.8150   18.3140  -35.3410 H   0  0  0  0  0  0  0  0  0  0  0  0
   -7.9600   20.2380  -34.3990 H   0  0  0  0  0  0  0  0  0  0  0  0
   -9.4501   19.8481  -31.8757 H   0  0  0  0  0  0  0  0  0  0  0  0
   -9.8066   21.2555  -29.8609 H   0  0  0  0  0  0  0  0  0  0  0  0
   -8.2240   22.9905  -29.2607 H   0  0  0  0  0  0  0  0  0  0  0  0
   -3.1640   24.8558  -29.0874 H   0  0  0  0  0  0  0  0  0  0  0  0
   -4.6739   25.4422  -28.3700 H   0  0  0  0  0  0  0  0  0  0  0  0
   -2.8395   24.6663  -26.6877 H   0  0  0  0  0  0  0  0  0  0  0  0
   -4.4725   23.9081  -26.4773 H   0  0  0  0  0  0  0  0  0  0  0  0
   -2.0346   23.2254  -28.9681 H   0  0  0  0  0  0  0  0  0  0  0  0
   -2.1104   21.4836  -28.6007 H   0  0  0  0  0  0  0  0  0  0  0  0
   -3.7174   22.2424  -30.4431 H   0  0  0  0  0  0  0  0  0  0  0  0
   -4.5266   21.4300  -29.0723 H   0  0  0  0  0  0  0  0  0  0  0  0
   -5.2030   22.9190  -33.1010 H   0  0  0  0  0  0  0  0  0  0  0  0
   -3.7319   18.2329  -35.0819 H   0  0  0  0  0  0  0  0  0  0  0  0
    0.7832   16.3176  -36.1784 H   0  0  0  0  0  0  0  0  0  0  0  0
    2.3272   18.2375  -36.0884 H   0  0  0  0  0  0  0  0  0  0  0  0
  1  2  1  0
  2  3  1  0
  3  4  2  0
  3  5  1  0
  5  6  2  0
  6  7  1  0
  7  8  1  0
  8  9  1  0
  9 10  1  0
 10 11  1  0
 11 12  2  0
 12 13  1  0
 13 14  2  0
 14 15  1  0
 15 16  1  0
 16 17  2  0
 16 18  1  0
 18 19  1  0
 19 20  2  0
 20 21  1  0
 21 22  2  0
 22 23  1  0
 23 24  1  0
 24 25  2  0
 24 26  2  0
 24 27  1  0
 27 28  1  0
 28 29  1  0
 29 30  1  0
 30 31  1  0
 31 32  1  0
 23 33  2  0
 33 34  1  0
 14 35  1  0
 35 36  2  0
  7 37  2  0
 37 38  1  0
 38 39  2  0
 39  5  1  0
 36  8  1  0
 36 11  1  0
 33 19  1  0
 32 27  1  0
  1 40  1  0
  1 41  1  0
  1 42  1  0
  2 43  1  0
  6 44  1  0
  9 45  1  0
  9 46  1  0
 10 47  1  0
 10 48  1  0
 12 49  1  0
 13 50  1  0
 15 51  1  0
 18 52  1  0
 20 53  1  0
 21 54  1  0
 22 55  1  0
 28 56  1  0
 28 57  1  0
 29 58  1  0
 29 59  1  0
 31 60  1  0
 31 61  1  0
 32 62  1  0
 32 63  1  0
 34 64  1  0
 35 65  1  0
 37 66  1  0
 38 67  1  0
M  END
>  <smiles>  (40) 
CNC(=O)c1cc(N2CCc3ccc(NC(=O)Nc4cccc(S(=O)(=O)N5CCOCC5)c4O)cc32)ccn1

>  <score_type>  (40) 
oracle

>  <origin>  (40) 
adgpu

>  <m_score__min__energy>  (40) 
-10.06

>  <m_primary>  (40) 
energy

$$$$
42:0
     RDKit          3D

 45 47  0  0  0  0  0  0  0  0999 V2000
    0.0720   21.1040  -28.6730 C   0  0  0  0  0  0  0  0  0  0  0  0
   -0.8950   22.2030  -28.9740 C   0  0  0  0  0  0  0  0  0  0  0  0
   -0.5380   23.4920  -28.6520 C   0  0  0  0  0  0  0  0  0  0  0  0
   -1.4440   24.4860  -28.9370 C   0  0  0  0  0  0  0  0  0  0  0  0
   -2.6810   24.2000  -29.5320 C   0  0  0  0  0  0  0  0  0  0  0  0
   -3.4920   25.2850  -29.7630 O   0  0  0  0  0  0  0  0  0  0  0  0
   -3.0480   22.9150  -29.8570 C   0  0  0  0  0  0  0  0  0  0  0  0
   -4.3090   22.5400  -30.4720 C   0  0  0  0  0  0  0  0  0  0  0  0
   -4.2780   21.4480  -31.1390 O   0  0  0  0  0  0  0  0  0  0  0  0
   -5.5190   23.2140  -30.4210 N   0  0  0  0  0  0  0  0  0  0  0  0
   -6.7490   22.8600  -31.0150 C   0  0  0  0  0  0  0  0  0  0  0  0
   -7.7430   23.7300  -31.3840 C   0  0  0  0  0  0  0  0  0  0  0  0
   -8.9410   23.3030  -31.9690 C   0  0  0  0  0  0  0  0  0  0  0  0
   -9.1770   21.9690  -32.2020 C   0  0  0  0  0  0  0  0  0  0  0  0
   -8.1930   21.0810  -31.8390 C   0  0  0  0  0  0  0  0  0  0  0  0
   -8.4790   19.3870  -32.1290 S   0  0  0  0  0  0  0  0  0  0  0  0
   -8.7410   18.6590  -30.8400 O   0  0  0  0  0  0  0  0  0  0  0  0
   -9.7400   19.2960  -32.9600 O   0  0  0  0  0  0  0  0  0  0  0  0
   -7.2470   18.6020  -32.9670 N   0  0  0  0  0  0  0  0  0  0  0  0
   -6.4380   17.7100  -32.2060 C   0  0  0  0  0  0  0  0  0  0  0  0
   -4.9970   17.9940  -32.5570 C   0  0  0  0  0  0  0  0  0  0  0  0
   -5.0960   18.6650  -33.9240 C   0  0  0  0  0  0  0  0  0  0  0  0
   -6.4400   19.3910  -33.8310 C   0  0  0  0  0  0  0  0  0  0  0  0
   -7.0180   21.5050  -31.2650 C   0  0  0  0  0  0  0  0  0  0  0  0
   -2.1120   21.9290  -29.5560 C   0  0  0  0  0  0  0  0  0  0  0  0
    0.1713   20.9912  -27.5833 H   0  0  0  0  0  0  0  0  0  0  0  0
   -0.2960   20.1627  -29.1071 H   0  0  0  0  0  0  0  0  0  0  0  0
    1.0525   21.3493  -29.1071 H   0  0  0  0  0  0  0  0  0  0  0  0
    0.4323   23.7180  -28.1857 H   0  0  0  0  0  0  0  0  0  0  0  0
   -1.1929   25.5288  -28.6928 H   0  0  0  0  0  0  0  0  0  0  0  0
   -4.1470   25.5120  -28.9980 H   0  0  0  0  0  0  0  0  0  0  0  0
   -5.5400   24.1210  -29.8660 H   0  0  0  0  0  0  0  0  0  0  0  0
   -7.5929   24.8063  -31.2135 H   0  0  0  0  0  0  0  0  0  0  0  0
   -9.7041   24.0453  -32.2461 H   0  0  0  0  0  0  0  0  0  0  0  0
  -10.1161   21.6259  -32.6607 H   0  0  0  0  0  0  0  0  0  0  0  0
   -6.6029   17.8772  -31.1314 H   0  0  0  0  0  0  0  0  0  0  0  0
   -6.6938   16.6646  -32.4335 H   0  0  0  0  0  0  0  0  0  0  0  0
   -4.5369   18.6679  -31.8193 H   0  0  0  0  0  0  0  0  0  0  0  0
   -4.3691   17.0908  -32.5646 H   0  0  0  0  0  0  0  0  0  0  0  0
   -4.2697   19.3740  -34.0811 H   0  0  0  0  0  0  0  0  0  0  0  0
   -5.0316   17.9614  -34.7670 H   0  0  0  0  0  0  0  0  0  0  0  0
   -6.3028   20.3990  -33.4126 H   0  0  0  0  0  0  0  0  0  0  0  0
   -6.9044   19.5117  -34.8208 H   0  0  0  0  0  0  0  0  0  0  0  0
   -6.2610   20.7552  -30.9916 H   0  0  0  0  0  0  0  0  0  0  0  0
   -2.3563   20.8832  -29.7942 H   0  0  0  0  0  0  0  0  0  0  0  0
  1  2  1  0
  2  3  2  0
  3  4  1  0
  4  5  2  0
  5  6  1  0
  5  7  1  0
  7  8  1  0
  8  9  2  0
  8 10  1  0
 10 11  1  0
 11 12  2  0
 12 13  1  0
 13 14  2  0
 14 15  1  0
 15 16  1  0
 16 17  2  0
 16 18  2  0
 16 19  1  0
 19 20  1  0
 20 21  1  0
 21 22  1  0
 22 23  1  0
 15 24  2  0
  7 25  2  0
 25  2  1  0
 24 11  1  0
 23 19  1  0
  1 26  1  0
  1 27  1  0
  1 28  1  0
  3 29  1  0
  4 30  1  0
  6 31  1  0
 10 32  1  0
 12 33  1  0
 13 34  1  0
 14 35  1  0
 20 36  1  0
 20 37  1  0
 21 38  1  0
 21 39  1  0
 22 40  1  0
 22 41  1  0
 23 42  1  0
 23 43  1  0
 24 44  1  0
 25 45  1  0
M  END
>  <smiles>  (41) 
Cc1ccc(O)c(C(=O)Nc2cccc(S(=O)(=O)N3CCCC3)c2)c1

>  <score_type>  (41) 
oracle

>  <origin>  (41) 
adgpu

>  <m_score__min__energy>  (41) 
-9.9700000000000006

>  <m_primary>  (41) 
energy

$$$$
43:0
     RDKit          3D

 43 45  0  0  0  0  0  0  0  0999 V2000
   -9.8600   21.5650  -31.8580 C   0  0  0  0  0  0  0  0  0  0  0  0
   -8.5220   21.0290  -32.0510 N   0  0  0  0  0  0  0  0  0  0  0  0
   -8.2390   19.7630  -32.6350 C   0  0  0  0  0  0  0  0  0  0  0  0
   -9.0790   18.9220  -33.0660 O   0  0  0  0  0  0  0  0  0  0  0  0
   -6.7700   19.5280  -32.6820 C   0  0  0  0  0  0  0  0  0  0  0  0
   -6.2680   19.3320  -34.0930 C   0  0  0  0  0  0  0  0  0  0  0  0
   -6.4900   18.3080  -31.8200 C   0  0  0  0  0  0  0  0  0  0  0  0
   -6.2310   20.7730  -32.0730 C   0  0  0  0  0  0  0  0  0  0  0  0
   -4.9080   21.1120  -31.8580 C   0  0  0  0  0  0  0  0  0  0  0  0
   -4.6350   22.3330  -31.2720 C   0  0  0  0  0  0  0  0  0  0  0  0
   -5.6400   23.2010  -30.9070 C   0  0  0  0  0  0  0  0  0  0  0  0
   -5.1730   24.7190  -30.1730 S   0  0  0  0  0  0  0  0  0  0  0  0
   -6.2470   25.7240  -30.4590 O   0  0  0  0  0  0  0  0  0  0  0  0
   -3.8740   25.1620  -30.8150 O   0  0  0  0  0  0  0  0  0  0  0  0
   -4.9160   24.5880  -28.4960 N   0  0  0  0  0  0  0  0  0  0  0  0
   -4.0580   23.4830  -28.2150 C   0  0  0  0  0  0  0  0  0  0  0  0
   -2.6080   23.8290  -28.3490 C   0  0  0  0  0  0  0  0  0  0  0  0
   -2.0650   24.9120  -27.6890 C   0  0  0  0  0  0  0  0  0  0  0  0
   -0.7180   25.2040  -27.8340 C   0  0  0  0  0  0  0  0  0  0  0  0
    0.1060   24.4720  -28.6010 N   0  0  0  0  0  0  0  0  0  0  0  0
   -0.4130   23.4140  -29.2490 C   0  0  0  0  0  0  0  0  0  0  0  0
   -1.7480   23.0830  -29.1350 C   0  0  0  0  0  0  0  0  0  0  0  0
   -6.9520   22.8490  -31.1290 C   0  0  0  0  0  0  0  0  0  0  0  0
   -7.2650   21.6210  -31.7190 C   0  0  0  0  0  0  0  0  0  0  0  0
  -10.0696   21.6490  -30.7814 H   0  0  0  0  0  0  0  0  0  0  0  0
   -9.9273   22.5595  -32.3233 H   0  0  0  0  0  0  0  0  0  0  0  0
  -10.5952   20.8920  -32.3233 H   0  0  0  0  0  0  0  0  0  0  0  0
   -5.2437   18.9321  -34.0655 H   0  0  0  0  0  0  0  0  0  0  0  0
   -6.9240   18.6240  -34.6205 H   0  0  0  0  0  0  0  0  0  0  0  0
   -6.2707   20.2972  -34.6205 H   0  0  0  0  0  0  0  0  0  0  0  0
   -6.5540   18.5870  -30.7579 H   0  0  0  0  0  0  0  0  0  0  0  0
   -7.2320   17.5261  -32.0391 H   0  0  0  0  0  0  0  0  0  0  0  0
   -5.4813   17.9279  -32.0391 H   0  0  0  0  0  0  0  0  0  0  0  0
   -4.0954   20.4286  -32.1455 H   0  0  0  0  0  0  0  0  0  0  0  0
   -3.5882   22.6192  -31.0924 H   0  0  0  0  0  0  0  0  0  0  0  0
   -5.7380   24.6980  -27.8980 H   0  0  0  0  0  0  0  0  0  0  0  0
   -4.2454   23.1449  -27.1852 H   0  0  0  0  0  0  0  0  0  0  0  0
   -4.2806   22.6944  -28.9489 H   0  0  0  0  0  0  0  0  0  0  0  0
   -2.6998   25.5424  -27.0490 H   0  0  0  0  0  0  0  0  0  0  0  0
   -0.3065   26.0721  -27.2981 H   0  0  0  0  0  0  0  0  0  0  0  0
    0.2412   22.7986  -29.8841 H   0  0  0  0  0  0  0  0  0  0  0  0
   -2.1356   22.2093  -29.6795 H   0  0  0  0  0  0  0  0  0  0  0  0
   -7.7592   23.5383  -30.8404 H   0  0  0  0  0  0  0  0  0  0  0  0
  1  2  1  0
  2  3  1  0
  3  4  2  0
  3  5  1  0
  5  6  1  0
  5  7  1  0
  5  8  1  0
  8  9  2  0
  9 10  1  0
 10 11  2  0
 11 12  1  0
 12 13  2  0
 12 14  2  0
 12 15  1  0
 15 16  1  0
 16 17  1  0
 17 18  2  0
 18 19  1  0
 19 20  2  0
 20 21  1  0
 21 22  2  0
 11 23  1  0
 23 24  2  0
 24  2  1  0
 24  8  1  0
 22 17  1  0
  1 25  1  0
  1 26  1  0
  1 27  1  0
  6 28  1  0
  6 29  1  0
  6 30  1  0
  7 31  1  0
  7 32  1  0
  7 33  1  0
  9 34  1  0
 10 35  1  0
 15 36  1  0
 16 37  1  0
 16 38  1  0
 18 39  1  0
 19 40  1  0
 21 41  1  0
 22 42  1  0
 23 43  1  0
M  END
>  <smiles>  (42) 
CN1C(=O)C(C)(C)c2ccc(S(=O)(=O)NCc3ccncc3)cc21

>  <score_type>  (42) 
oracle

>  <origin>  (42) 
adgpu

>  <m_score__min__energy>  (42) 
-10.359999999999999

>  <m_primary>  (42) 
energy

$$$$
44:0
     RDKit          3D

 75 79  0  0  1  0  0  0  0  0999 V2000
   -4.2440   23.9690  -28.2420 C   0  0  0  0  0  0  0  0  0  0  0  0
   -4.1400   24.1270  -29.6670 N   0  0  0  0  0  0  0  0  0  0  0  0
   -3.6790   23.0150  -30.4830 C   0  0  0  0  0  0  0  0  0  0  0  0
   -4.4700   25.3440  -30.3300 C   0  0  0  0  0  0  0  0  0  0  0  0
   -5.7240   25.7410  -30.4940 C   0  0  0  0  0  0  0  0  0  0  0  0
   -6.8760   24.9150  -29.9810 C   0  0  0  0  0  0  0  0  0  0  0  0
   -6.8790   23.6910  -30.8310 C   0  0  0  0  0  0  0  0  0  0  0  0
   -6.1940   23.6920  -31.8700 O   0  0  0  0  0  0  0  0  0  0  0  0
   -7.6490   22.5300  -30.4710 N   0  0  0  0  0  0  0  0  0  0  0  0
   -7.5580   21.4290  -31.3750 C   0  0  0  0  0  0  0  0  0  0  0  0
   -8.7690   20.8390  -31.7270 C   0  0  0  0  0  0  0  0  0  0  0  0
   -8.7640   19.7710  -32.5960 C   0  0  0  0  0  0  0  0  0  0  0  0
   -7.5440   19.3160  -33.0950 C   0  0  0  0  0  0  0  0  0  0  0  0
   -6.3440   19.8910  -32.7540 C   0  0  0  0  0  0  0  0  0  0  0  0
   -5.0490   19.4500  -33.2240 C   0  0  0  0  0  0  0  0  0  0  0  0
   -4.1400   20.3940  -33.5280 N   0  0  0  0  0  0  0  0  0  0  0  0
   -2.9160   20.1430  -33.9630 N   0  0  0  0  0  0  0  0  0  0  0  0
   -2.5540   18.8630  -34.1120 C   0  0  0  0  0  0  0  0  0  0  0  0
   -1.3800   18.6040  -34.5320 N   0  0  0  0  0  0  0  0  0  0  0  0
   -0.3880   19.5680  -34.8670 C   0  0  0  0  0  0  0  0  0  0  0  0
    0.2500   19.4360  -36.0860 C   0  0  0  0  0  0  0  0  0  0  0  0
    1.2330   20.3510  -36.4720 C   0  0  0  0  0  0  0  0  0  0  0  0
    1.5560   21.3860  -35.6220 C   0  0  0  0  0  0  0  0  0  0  0  0
    2.7850   22.5320  -36.1070 S   0  0  0  0  0  0  0  0  0  0  0  0
    3.7660   22.7850  -34.9710 O   0  0  0  0  0  0  0  0  0  0  0  0
    3.6150   21.9760  -37.2280 O   0  0  0  0  0  0  0  0  0  0  0  0
    2.1620   24.0310  -36.6210 N   0  0  0  0  0  0  0  0  0  0  0  0
    0.7740   24.1800  -36.2640 C   0  0  0  0  0  0  0  0  0  0  0  0
    0.2290   25.5180  -36.7040 C   0  0  0  0  0  0  0  0  0  0  0  0
    1.3000   26.3620  -37.3680 C   0  0  0  0  0  0  0  0  0  0  0  0
    2.4350   26.4640  -36.3560 C   0  0  0  0  0  0  0  0  0  0  0  0
    3.0170   25.0920  -36.1890 C   0  0  0  0  0  0  0  0  0  0  0  0
    0.9280   21.5350  -34.3980 C   0  0  0  0  0  0  0  0  0  0  0  0
   -0.0380   20.6160  -34.0420 C   0  0  0  0  0  0  0  0  0  0  0  0
   -3.4070   17.8030  -33.8280 C   0  0  0  0  0  0  0  0  0  0  0  0
   -2.9900   16.4980  -33.9830 C   0  0  0  0  0  0  0  0  0  0  0  0
   -3.9010   15.5120  -33.6630 C   0  0  0  0  0  0  0  0  0  0  0  0
   -5.1670   15.8240  -33.2100 C   0  0  0  0  0  0  0  0  0  0  0  0
   -5.5560   17.1390  -33.0640 C   0  0  0  0  0  0  0  0  0  0  0  0
   -4.6670   18.1400  -33.3780 C   0  0  0  0  0  0  0  0  0  0  0  0
   -6.3700   20.9640  -31.8800 C   0  0  0  0  0  0  0  0  0  0  0  0
   -3.7053   24.7874  -27.7421 H   0  0  0  0  0  0  0  0  0  0  0  0
   -5.3034   23.9931  -27.9468 H   0  0  0  0  0  0  0  0  0  0  0  0
   -3.8029   23.0055  -27.9468 H   0  0  0  0  0  0  0  0  0  0  0  0
   -3.3399   22.1971  -29.8303 H   0  0  0  0  0  0  0  0  0  0  0  0
   -4.5039   22.6594  -31.1180 H   0  0  0  0  0  0  0  0  0  0  0  0
   -2.8445   23.3474  -31.1180 H   0  0  0  0  0  0  0  0  0  0  0  0
   -3.6572   25.9751  -30.7187 H   0  0  0  0  0  0  0  0  0  0  0  0
   -5.9275   26.6892  -31.0132 H   0  0  0  0  0  0  0  0  0  0  0  0
   -6.7229   24.6517  -28.9240 H   0  0  0  0  0  0  0  0  0  0  0  0
   -7.8310   25.4583  -30.0342 H   0  0  0  0  0  0  0  0  0  0  0  0
   -8.2250   22.5180  -29.6050 H   0  0  0  0  0  0  0  0  0  0  0  0
   -9.7157   21.2205  -31.3169 H   0  0  0  0  0  0  0  0  0  0  0  0
   -9.7057   19.2853  -32.8914 H   0  0  0  0  0  0  0  0  0  0  0  0
   -7.5425   18.4628  -33.7893 H   0  0  0  0  0  0  0  0  0  0  0  0
   -2.2460   20.9090  -34.1850 H   0  0  0  0  0  0  0  0  0  0  0  0
   -0.0177   18.6058  -36.7562 H   0  0  0  0  0  0  0  0  0  0  0  0
    1.7421   20.2463  -37.4415 H   0  0  0  0  0  0  0  0  0  0  0  0
    0.1929   23.3810  -36.7477 H   0  0  0  0  0  0  0  0  0  0  0  0
    0.6910   24.1172  -35.1689 H   0  0  0  0  0  0  0  0  0  0  0  0
   -0.5905   25.3528  -37.4189 H   0  0  0  0  0  0  0  0  0  0  0  0
   -0.1310   26.0543  -35.8136 H   0  0  0  0  0  0  0  0  0  0  0  0
    1.6520   25.8777  -38.2908 H   0  0  0  0  0  0  0  0  0  0  0  0
    0.9173   27.3544  -37.6486 H   0  0  0  0  0  0  0  0  0  0  0  0
    3.2060   27.1563  -36.7253 H   0  0  0  0  0  0  0  0  0  0  0  0
    2.0622   26.8457  -35.3940 H   0  0  0  0  0  0  0  0  0  0  0  0
    3.9494   25.0408  -36.7704 H   0  0  0  0  0  0  0  0  0  0  0  0
    3.1757   24.9476  -35.1101 H   0  0  0  0  0  0  0  0  0  0  0  0
    1.1920   22.3648  -33.7259 H   0  0  0  0  0  0  0  0  0  0  0  0
   -0.5439   20.7227  -33.0711 H   0  0  0  0  0  0  0  0  0  0  0  0
   -1.9800   16.2545  -34.3443 H   0  0  0  0  0  0  0  0  0  0  0  0
   -3.6124   14.4561  -33.7711 H   0  0  0  0  0  0  0  0  0  0  0  0
   -5.8720   15.0165  -32.9632 H   0  0  0  0  0  0  0  0  0  0  0  0
   -6.5650   17.3841  -32.7008 H   0  0  0  0  0  0  0  0  0  0  0  0
   -5.4274   21.4495  -31.5869 H   0  0  0  0  0  0  0  0  0  0  0  0
  1  2  1  0
  2  3  1  0
  2  4  1  0
  4  5  2  0
  5  6  1  0
  6  7  1  0
  7  8  2  0
  7  9  1  0
  9 10  1  0
 10 11  2  0
 11 12  1  0
 12 13  2  0
 13 14  1  0
 14 15  1  0
 15 16  2  0
 16 17  1  0
 17 18  1  0
 18 19  2  0
 19 20  1  0
 20 21  2  0
 21 22  1  0
 22 23  2  0
 23 24  1  0
 24 25  2  0
 24 26  2  0
 24 27  1  0
 27 28  1  0
 28 29  1  0
 29 30  1  0
 30 31  1  0
 31 32  1  0
 23 33  1  0
 33 34  2  0
 18 35  1  0
 35 36  2  0
 36 37  1  0
 37 38  2  0
 38 39  1  0
 39 40  2  0
 14 41  2  0
 41 10  1  0
 40 15  1  0
 34 20  1  0
 40 35  1  0
 32 27  1  0
  1 42  1  0
  1 43  1  0
  1 44  1  0
  3 45  1  0
  3 46  1  0
  3 47  1  0
  4 48  1  0
  5 49  1  0
  6 50  1  0
  6 51  1  0
  9 52  1  0
 11 53  1  0
 12 54  1  0
 13 55  1  0
 17 56  1  0
 21 57  1  0
 22 58  1  0
 28 59  1  0
 28 60  1  0
 29 61  1  0
 29 62  1  0
 30 63  1  0
 30 64  1  0
 31 65  1  0
 31 66  1  0
 32 67  1  0
 32 68  1  0
 33 69  1  0
 34 70  1  0
 36 71  1  0
 37 72  1  0
 38 73  1  0
 39 74  1  0
 41 75  1  0
M  END
>  <smiles>  (43) 
CN(C)C=CCC(=O)Nc1cccc(-c2n[nH]c(=Nc3ccc(S(=O)(=O)N4CCCCC4)cc3)c3ccccc23)c1

>  <score_type>  (43) 
oracle

>  <origin>  (43) 
adgpu

>  <m_score__min__energy>  (43) 
-11.619999999999999

>  <m_primary>  (43) 
energy

$$$$
45:0
     RDKit          3D

 42 43  0  0  0  0  0  0  0  0999 V2000
   -8.7720   18.4990  -31.2430 C   0  0  0  0  0  0  0  0  0  0  0  0
   -8.1610   19.5220  -32.5670 S   0  0  0  0  0  0  0  0  0  0  0  0
   -9.3720   20.0240  -33.3180 O   0  0  0  0  0  0  0  0  0  0  0  0
   -7.2060   18.7830  -33.4630 O   0  0  0  0  0  0  0  0  0  0  0  0
   -7.3350   20.9170  -31.9190 C   0  0  0  0  0  0  0  0  0  0  0  0
   -5.9450   20.8630  -31.8130 C   0  0  0  0  0  0  0  0  0  0  0  0
   -5.2320   21.9380  -31.3070 C   0  0  0  0  0  0  0  0  0  0  0  0
   -5.8840   23.0980  -30.8930 C   0  0  0  0  0  0  0  0  0  0  0  0
   -4.9930   24.4550  -30.2540 S   0  0  0  0  0  0  0  0  0  0  0  0
   -5.6450   24.9610  -28.9900 O   0  0  0  0  0  0  0  0  0  0  0  0
   -4.9740   25.6180  -31.2290 O   0  0  0  0  0  0  0  0  0  0  0  0
   -3.3440   24.0030  -29.8940 N   0  0  0  0  0  0  0  0  0  0  0  0
   -2.7930   24.1520  -28.6060 C   0  0  0  0  0  0  0  0  0  0  0  0
   -3.5300   24.6270  -27.7050 O   0  0  0  0  0  0  0  0  0  0  0  0
   -1.4290   23.7710  -28.3360 N   0  0  0  0  0  0  0  0  0  0  0  0
   -0.9040   23.9370  -27.0160 C   0  0  0  0  0  0  0  0  0  0  0  0
   -0.4920   22.8220  -26.2860 C   0  0  0  0  0  0  0  0  0  0  0  0
    0.0060   23.0250  -25.0200 C   0  0  0  0  0  0  0  0  0  0  0  0
    0.0960   24.2970  -24.4870 C   0  0  0  0  0  0  0  0  0  0  0  0
   -0.3220   25.4040  -25.2310 C   0  0  0  0  0  0  0  0  0  0  0  0
   -0.2110   27.0230  -24.5590 S   0  0  0  0  0  0  0  0  0  0  0  0
   -0.0980   27.0110  -22.8450 N   0  0  0  0  0  0  0  0  0  0  0  0
    0.9620   27.7800  -25.1010 O   0  0  0  0  0  0  0  0  0  0  0  0
   -1.4750   27.7670  -24.9250 O   0  0  0  0  0  0  0  0  0  0  0  0
   -0.8210   25.2120  -26.4990 C   0  0  0  0  0  0  0  0  0  0  0  0
   -7.2620   23.1240  -31.0090 C   0  0  0  0  0  0  0  0  0  0  0  0
   -7.9870   22.0570  -31.5120 C   0  0  0  0  0  0  0  0  0  0  0  0
   -8.5025   18.9502  -30.2767 H   0  0  0  0  0  0  0  0  0  0  0  0
   -9.8665   18.4180  -31.3173 H   0  0  0  0  0  0  0  0  0  0  0  0
   -8.3243   17.4970  -31.3173 H   0  0  0  0  0  0  0  0  0  0  0  0
   -5.4094   19.9576  -32.1345 H   0  0  0  0  0  0  0  0  0  0  0  0
   -4.1364   21.8749  -31.2311 H   0  0  0  0  0  0  0  0  0  0  0  0
   -2.7620   23.6070  -30.6870 H   0  0  0  0  0  0  0  0  0  0  0  0
   -0.8140   23.3730  -29.0970 H   0  0  0  0  0  0  0  0  0  0  0  0
   -0.5633   21.8097  -26.7105 H   0  0  0  0  0  0  0  0  0  0  0  0
    0.3374   22.1625  -24.4231 H   0  0  0  0  0  0  0  0  0  0  0  0
    0.4983   24.4388  -23.4731 H   0  0  0  0  0  0  0  0  0  0  0  0
    0.7000   26.4780  -22.4880 H   0  0  0  0  0  0  0  0  0  0  0  0
   -0.1310   27.9650  -22.4390 H   0  0  0  0  0  0  0  0  0  0  0  0
   -1.1525   26.0731  -27.0979 H   0  0  0  0  0  0  0  0  0  0  0  0
   -7.8027   24.0270  -30.6894 H   0  0  0  0  0  0  0  0  0  0  0  0
   -9.0826   22.1213  -31.5858 H   0  0  0  0  0  0  0  0  0  0  0  0
  1  2  1  0
  2  3  2  0
  2  4  2  0
  2  5  1  0
  5  6  2  0
  6  7  1  0
  7  8  2  0
  8  9  1  0
  9 10  2  0
  9 11  2  0
  9 12  1  0
 12 13  1  0
 13 14  2  0
 13 15  1  0
 15 16  1  0
 16 17  2  0
 17 18  1  0
 18 19  2  0
 19 20  1  0
 20 21  1  0
 21 22  1  0
 21 23  2  0
 21 24  2  0
 20 25  2  0
  8 26  1  0
 26 27  2  0
 27  5  1  0
 25 16  1  0
  1 28  1  0
  1 29  1  0
  1 30  1  0
  6 31  1  0
  7 32  1  0
 12 33  1  0
 15 34  1  0
 17 35  1  0
 18 36  1  0
 19 37  1  0
 22 38  1  0
 22 39  1  0
 25 40  1  0
 26 41  1  0
 27 42  1  0
M  END
>  <smiles>  (44) 
CS(=O)(=O)c1ccc(S(=O)(=O)NC(=O)Nc2cccc(S(N)(=O)=O)c2)cc1

>  <score_type>  (44) 
oracle

>  <origin>  (44) 
adgpu

>  <m_score__min__energy>  (44) 
-10.720000000000001

>  <m_primary>  (44) 
energy

$$$$
46:0
     RDKit          3D

 44 46  0  0  0  0  0  0  0  0999 V2000
   -1.3130   23.6030  -27.6350 C   0  0  0  0  0  0  0  0  0  0  0  0
   -1.9070   22.9060  -28.7960 C   0  0  0  0  0  0  0  0  0  0  0  0
   -3.1430   22.2860  -28.7190 C   0  0  0  0  0  0  0  0  0  0  0  0
   -3.7050   21.6250  -29.8030 C   0  0  0  0  0  0  0  0  0  0  0  0
   -2.9990   21.6010  -30.9600 C   0  0  0  0  0  0  0  0  0  0  0  0
   -3.5780   20.7740  -32.4250 S   0  0  0  0  0  0  0  0  0  0  0  0
   -3.8230   21.8980  -33.4010 O   0  0  0  0  0  0  0  0  0  0  0  0
   -2.5550   19.8910  -33.0080 O   0  0  0  0  0  0  0  0  0  0  0  0
   -5.0950   20.0120  -32.1130 C   0  0  0  0  0  0  0  0  0  0  0  0
   -5.0600   18.6800  -31.6770 C   0  0  0  0  0  0  0  0  0  0  0  0
   -6.2070   17.9650  -31.4110 C   0  0  0  0  0  0  0  0  0  0  0  0
   -6.1260   16.6530  -30.9830 O   0  0  0  0  0  0  0  0  0  0  0  0
   -7.4040   18.6280  -31.5980 C   0  0  0  0  0  0  0  0  0  0  0  0
   -7.4410   19.9330  -32.0250 C   0  0  0  0  0  0  0  0  0  0  0  0
   -6.2770   20.6730  -32.2970 C   0  0  0  0  0  0  0  0  0  0  0  0
   -6.4620   22.0520  -32.7230 C   0  0  0  0  0  0  0  0  0  0  0  0
   -6.2270   23.0980  -31.7090 C   0  0  0  0  0  0  0  0  0  0  0  0
   -7.2690   23.3400  -30.8160 C   0  0  0  0  0  0  0  0  0  0  0  0
   -7.2150   24.2980  -29.8430 C   0  0  0  0  0  0  0  0  0  0  0  0
   -6.0910   25.0800  -29.7090 C   0  0  0  0  0  0  0  0  0  0  0  0
   -6.0120   26.0550  -28.7340 O   0  0  0  0  0  0  0  0  0  0  0  0
   -5.0320   24.8600  -30.5910 C   0  0  0  0  0  0  0  0  0  0  0  0
   -3.8910   25.6410  -30.4710 O   0  0  0  0  0  0  0  0  0  0  0  0
   -5.1100   23.8740  -31.5800 C   0  0  0  0  0  0  0  0  0  0  0  0
   -1.7440   22.2100  -31.0990 C   0  0  0  0  0  0  0  0  0  0  0  0
   -1.2220   22.8580  -29.9910 C   0  0  0  0  0  0  0  0  0  0  0  0
   -1.6939   23.1561  -26.7048 H   0  0  0  0  0  0  0  0  0  0  0  0
   -0.2180   23.5031  -27.6683 H   0  0  0  0  0  0  0  0  0  0  0  0
   -1.5852   24.6683  -27.6683 H   0  0  0  0  0  0  0  0  0  0  0  0
   -3.6969   22.3182  -27.7692 H   0  0  0  0  0  0  0  0  0  0  0  0
   -4.6883   21.1380  -29.7257 H   0  0  0  0  0  0  0  0  0  0  0  0
   -4.0845   18.1897  -31.5429 H   0  0  0  0  0  0  0  0  0  0  0  0
   -6.0060   16.4190  -30.0060 H   0  0  0  0  0  0  0  0  0  0  0  0
   -8.3483   18.0995  -31.4007 H   0  0  0  0  0  0  0  0  0  0  0  0
   -8.4192   20.4178  -32.1593 H   0  0  0  0  0  0  0  0  0  0  0  0
   -5.7716   22.2377  -33.5590 H   0  0  0  0  0  0  0  0  0  0  0  0
   -7.5285   22.1338  -32.9796 H   0  0  0  0  0  0  0  0  0  0  0  0
   -8.1803   22.7295  -30.8984 H   0  0  0  0  0  0  0  0  0  0  0  0
   -8.0703   24.4439  -29.1668 H   0  0  0  0  0  0  0  0  0  0  0  0
   -5.3600   25.9270  -27.9770 H   0  0  0  0  0  0  0  0  0  0  0  0
   -3.8860   26.4340  -29.8500 H   0  0  0  0  0  0  0  0  0  0  0  0
   -4.2611   23.7214  -32.2627 H   0  0  0  0  0  0  0  0  0  0  0  0
   -1.1946   22.1748  -32.0513 H   0  0  0  0  0  0  0  0  0  0  0  0
   -0.2387   23.3451  -30.0669 H   0  0  0  0  0  0  0  0  0  0  0  0
  1  2  1  0
  2  3  2  0
  3  4  1  0
  4  5  2  0
  5  6  1  0
  6  7  2  0
  6  8  2  0
  6  9  1  0
  9 10  2  0
 10 11  1  0
 11 12  1  0
 11 13  2  0
 13 14  1  0
 14 15  2  0
 15 16  1  0
 16 17  1  0
 17 18  2  0
 18 19  1  0
 19 20  2  0
 20 21  1  0
 20 22  1  0
 22 23  1  0
 22 24  2  0
  5 25  1  0
 25 26  2  0
 26  2  1  0
 15  9  1  0
 24 17  1  0
  1 27  1  0
  1 28  1  0
  1 29  1  0
  3 30  1  0
  4 31  1  0
 10 32  1  0
 12 33  1  0
 13 34  1  0
 14 35  1  0
 16 36  1  0
 16 37  1  0
 18 38  1  0
 19 39  1  0
 21 40  1  0
 23 41  1  0
 24 42  1  0
 25 43  1  0
 26 44  1  0
M  END
>  <smiles>  (45) 
Cc1ccc(S(=O)(=O)c2cc(O)ccc2Cc2ccc(O)c(O)c2)cc1

>  <score_type>  (45) 
oracle

>  <origin>  (45) 
adgpu

>  <m_score__min__energy>  (45) 
-8.6899999999999995

>  <m_primary>  (45) 
energy

$$$$
47:0
     RDKit          3D

 63 66  0  0  0  0  0  0  0  0999 V2000
   -8.2060   23.2380  -31.9790 C   0  0  0  0  0  0  0  0  0  0  0  0
   -8.8390   21.9550  -31.6540 C   0  0  0  0  0  0  0  0  0  0  0  0
   -9.9660   21.9010  -31.0600 O   0  0  0  0  0  0  0  0  0  0  0  0
   -8.2120   20.7250  -31.9920 N   0  0  0  0  0  0  0  0  0  0  0  0
   -8.8240   19.4500  -31.6760 C   0  0  0  0  0  0  0  0  0  0  0  0
   -8.3360   18.3170  -32.5400 C   0  0  0  0  0  0  0  0  0  0  0  0
   -6.8920   18.3480  -32.6570 N   0  0  0  0  0  0  0  0  0  0  0  0
   -6.1760   17.2810  -33.2630 C   0  0  0  0  0  0  0  0  0  0  0  0
   -6.8440   16.3140  -33.6930 O   0  0  0  0  0  0  0  0  0  0  0  0
   -4.7230   17.3720  -33.3470 C   0  0  0  0  0  0  0  0  0  0  0  0
   -3.9950   16.2560  -32.9880 C   0  0  0  0  0  0  0  0  0  0  0  0
   -2.6040   16.2850  -33.0520 C   0  0  0  0  0  0  0  0  0  0  0  0
   -1.9660   17.4380  -33.4730 C   0  0  0  0  0  0  0  0  0  0  0  0
   -0.5570   17.4400  -33.5270 O   0  0  0  0  0  0  0  0  0  0  0  0
   -2.6760   18.5820  -33.8410 C   0  0  0  0  0  0  0  0  0  0  0  0
   -1.9850   19.7380  -34.2810 N   0  0  0  0  0  0  0  0  0  0  0  0
   -1.2310   20.8680  -33.2210 S   0  0  0  0  0  0  0  0  0  0  0  0
   -0.3060   20.1440  -32.2960 O   0  0  0  0  0  0  0  0  0  0  0  0
   -0.4440   21.8940  -33.9880 O   0  0  0  0  0  0  0  0  0  0  0  0
   -2.4870   21.7260  -32.3640 C   0  0  0  0  0  0  0  0  0  0  0  0
   -3.7300   21.9860  -32.8890 C   0  0  0  0  0  0  0  0  0  0  0  0
   -4.6300   22.6690  -32.0980 C   0  0  0  0  0  0  0  0  0  0  0  0
   -4.3460   23.1000  -30.8200 C   0  0  0  0  0  0  0  0  0  0  0  0
   -3.0950   22.8390  -30.2940 C   0  0  0  0  0  0  0  0  0  0  0  0
   -2.1900   22.1540  -31.0810 C   0  0  0  0  0  0  0  0  0  0  0  0
   -3.0000   23.3650  -28.9740 N   0  0  0  0  0  0  0  0  0  0  0  0
   -1.8280   23.2680  -28.1320 C   0  0  0  0  0  0  0  0  0  0  0  0
   -4.2520   23.9750  -28.6860 C   0  0  0  0  0  0  0  0  0  0  0  0
   -4.5370   24.5530  -27.6120 O   0  0  0  0  0  0  0  0  0  0  0  0
   -5.1830   23.8330  -29.8370 C   0  0  0  0  0  0  0  0  0  0  0  0
   -5.5080   25.2040  -30.3650 C   0  0  0  0  0  0  0  0  0  0  0  0
   -6.4220   23.0560  -29.4620 C   0  0  0  0  0  0  0  0  0  0  0  0
   -4.0480   18.4880  -33.7570 C   0  0  0  0  0  0  0  0  0  0  0  0
   -6.1820   19.5250  -32.1310 C   0  0  0  0  0  0  0  0  0  0  0  0
   -6.9130   20.7560  -32.6780 C   0  0  0  0  0  0  0  0  0  0  0  0
   -7.9461   23.7647  -31.0489 H   0  0  0  0  0  0  0  0  0  0  0  0
   -7.2932   23.0583  -32.5659 H   0  0  0  0  0  0  0  0  0  0  0  0
   -8.9041   23.8530  -32.5659 H   0  0  0  0  0  0  0  0  0  0  0  0
   -8.6013   19.2079  -30.6263 H   0  0  0  0  0  0  0  0  0  0  0  0
   -9.9032   19.5553  -31.8609 H   0  0  0  0  0  0  0  0  0  0  0  0
   -8.6414   17.3614  -32.0889 H   0  0  0  0  0  0  0  0  0  0  0  0
   -8.7747   18.4227  -33.5432 H   0  0  0  0  0  0  0  0  0  0  0  0
   -4.5123   15.3453  -32.6519 H   0  0  0  0  0  0  0  0  0  0  0  0
   -2.0174   15.3982  -32.7700 H   0  0  0  0  0  0  0  0  0  0  0  0
   -0.0440   18.2660  -33.1850 H   0  0  0  0  0  0  0  0  0  0  0  0
   -1.9410   19.8980  -35.3330 H   0  0  0  0  0  0  0  0  0  0  0  0
   -3.9980   21.6606  -33.9050 H   0  0  0  0  0  0  0  0  0  0  0  0
   -5.6280   22.8811  -32.5091 H   0  0  0  0  0  0  0  0  0  0  0  0
   -1.1918   21.9395  -30.6716 H   0  0  0  0  0  0  0  0  0  0  0  0
   -2.1326   23.2932  -27.0753 H   0  0  0  0  0  0  0  0  0  0  0  0
   -1.3041   22.3234  -28.3402 H   0  0  0  0  0  0  0  0  0  0  0  0
   -1.1560   24.1136  -28.3402 H   0  0  0  0  0  0  0  0  0  0  0  0
   -5.6711   25.8922  -29.5225 H   0  0  0  0  0  0  0  0  0  0  0  0
   -4.6713   25.5682  -30.9792 H   0  0  0  0  0  0  0  0  0  0  0  0
   -6.4192   25.1539  -30.9792 H   0  0  0  0  0  0  0  0  0  0  0  0
   -6.5047   23.0042  -28.3663 H   0  0  0  0  0  0  0  0  0  0  0  0
   -7.3092   23.5598  -29.8732 H   0  0  0  0  0  0  0  0  0  0  0  0
   -6.3548   22.0380  -29.8732 H   0  0  0  0  0  0  0  0  0  0  0  0
   -4.6405   19.3708  -34.0390 H   0  0  0  0  0  0  0  0  0  0  0  0
   -6.2090   19.5248  -31.0313 H   0  0  0  0  0  0  0  0  0  0  0  0
   -5.1256   19.5215  -32.4374 H   0  0  0  0  0  0  0  0  0  0  0  0
   -6.3637   21.6778  -32.4359 H   0  0  0  0  0  0  0  0  0  0  0  0
   -7.0098   20.7416  -33.7736 H   0  0  0  0  0  0  0  0  0  0  0  0
  1  2  1  0
  2  3  2  0
  2  4  1  0
  4  5  1  0
  5  6  1  0
  6  7  1  0
  7  8  1  0
  8  9  2  0
  8 10  1  0
 10 11  2  0
 11 12  1  0
 12 13  2  0
 13 14  1  0
 13 15  1  0
 15 16  1  0
 16 17  1  0
 17 18  2  0
 17 19  2  0
 17 20  1  0
 20 21  2  0
 21 22  1  0
 22 23  2  0
 23 24  1  0
 24 25  2  0
 24 26  1  0
 26 27  1  0
 26 28  1  0
 28 29  2  0
 28 30  1  0
 30 31  1  0
 30 32  1  0
 15 33  2  0
  7 34  1  0
 34 35  1  0
 35  4  1  0
 33 10  1  0
 25 20  1  0
 30 23  1  0
  1 36  1  0
  1 37  1  0
  1 38  1  0
  5 39  1  0
  5 40  1  0
  6 41  1  0
  6 42  1  0
 11 43  1  0
 12 44  1  0
 14 45  1  0
 16 46  1  0
 21 47  1  0
 22 48  1  0
 25 49  1  0
 27 50  1  0
 27 51  1  0
 27 52  1  0
 31 53  1  0
 31 54  1  0
 31 55  1  0
 32 56  1  0
 32 57  1  0
 32 58  1  0
 33 59  1  0
 34 60  1  0
 34 61  1  0
 35 62  1  0
 35 63  1  0
M  END
>  <smiles>  (46) 
CC(=O)N1CCN(C(=O)c2ccc(O)c(NS(=O)(=O)c3ccc4c(c3)N(C)C(=O)C4(C)C)c2)CC1

>  <score_type>  (46) 
oracle

>  <origin>  (46) 
adgpu

>  <m_score__min__energy>  (46) 
-12.69

>  <m_primary>  (46) 
energy

$$$$
48:0
     RDKit          3D

 40 42  0  0  0  0  0  0  0  0999 V2000
   -4.2890   25.1800  -30.9240 O   0  0  0  0  0  0  0  0  0  0  0  0
   -5.0630   23.8780  -30.7910 S   0  0  0  0  0  0  0  0  0  0  0  0
   -6.4080   24.1890  -30.1570 O   0  0  0  0  0  0  0  0  0  0  0  0
   -5.3490   23.2980  -32.3870 N   0  0  0  0  0  0  0  0  0  0  0  0
   -5.5850   21.9340  -32.7030 C   0  0  0  0  0  0  0  0  0  0  0  0
   -6.8180   21.3280  -32.5970 C   0  0  0  0  0  0  0  0  0  0  0  0
   -7.0490   20.0060  -32.9110 C   0  0  0  0  0  0  0  0  0  0  0  0
   -6.0160   19.2100  -33.3590 C   0  0  0  0  0  0  0  0  0  0  0  0
   -4.7670   19.7810  -33.4780 C   0  0  0  0  0  0  0  0  0  0  0  0
   -4.5520   21.1050  -33.1610 C   0  0  0  0  0  0  0  0  0  0  0  0
   -3.2570   21.6070  -33.3080 O   0  0  0  0  0  0  0  0  0  0  0  0
   -6.0740   17.7770  -33.7420 C   0  0  0  0  0  0  0  0  0  0  0  0
   -6.9550   17.0690  -32.7150 C   0  0  0  0  0  0  0  0  0  0  0  0
   -7.1450   17.9400  -31.5820 N   0  0  0  0  0  0  0  0  0  0  0  0
   -8.4180   18.6020  -31.5530 C   0  0  0  0  0  0  0  0  0  0  0  0
   -8.4600   19.5990  -32.7100 C   0  0  0  0  0  0  0  0  0  0  0  0
   -4.1670   22.7720  -29.8060 C   0  0  0  0  0  0  0  0  0  0  0  0
   -4.2140   22.9700  -28.4240 C   0  0  0  0  0  0  0  0  0  0  0  0
   -3.5460   22.1490  -27.5470 C   0  0  0  0  0  0  0  0  0  0  0  0
   -2.8010   21.0910  -28.0340 C   0  0  0  0  0  0  0  0  0  0  0  0
   -1.9430   20.0370  -26.9290 Cl  0  0  0  0  0  0  0  0  0  0  0  0
   -2.7500   20.8900  -29.3970 C   0  0  0  0  0  0  0  0  0  0  0  0
   -3.4280   21.7250  -30.2520 C   0  0  0  0  0  0  0  0  0  0  0  0
   -5.3610   23.9600  -33.2220 H   0  0  0  0  0  0  0  0  0  0  0  0
   -7.6652   21.9331  -32.2420 H   0  0  0  0  0  0  0  0  0  0  0  0
   -3.9254   19.1680  -33.8329 H   0  0  0  0  0  0  0  0  0  0  0  0
   -2.9770   21.8950  -34.2500 H   0  0  0  0  0  0  0  0  0  0  0  0
   -6.5091   17.6730  -34.7469 H   0  0  0  0  0  0  0  0  0  0  0  0
   -5.0659   17.3372  -33.7603 H   0  0  0  0  0  0  0  0  0  0  0  0
   -7.9299   16.8319  -33.1659 H   0  0  0  0  0  0  0  0  0  0  0  0
   -6.4718   16.1357  -32.3903 H   0  0  0  0  0  0  0  0  0  0  0  0
   -6.8760   17.4960  -30.6760 H   0  0  0  0  0  0  0  0  0  0  0  0
   -9.2252   17.8635  -31.6675 H   0  0  0  0  0  0  0  0  0  0  0  0
   -8.5547   19.1240  -30.5945 H   0  0  0  0  0  0  0  0  0  0  0  0
   -8.8589   19.1226  -33.6177 H   0  0  0  0  0  0  0  0  0  0  0  0
   -9.1130   20.4576  -32.4945 H   0  0  0  0  0  0  0  0  0  0  0  0
   -4.8037   23.8087  -28.0253 H   0  0  0  0  0  0  0  0  0  0  0  0
   -3.6038   22.3327  -26.4640 H   0  0  0  0  0  0  0  0  0  0  0  0
   -2.1616   20.0542  -29.8034 H   0  0  0  0  0  0  0  0  0  0  0  0
   -3.3697   21.5384  -31.3345 H   0  0  0  0  0  0  0  0  0  0  0  0
  1  2  2  0
  2  3  2  0
  2  4  1  0
  4  5  1  0
  5  6  2  0
  6  7  1  0
  7  8  2  0
  8  9  1  0
  9 10  2  0
 10 11  1  0
  8 12  1  0
 12 13  1  0
 13 14  1  0
 14 15  1  0
 15 16  1  0
  2 17  1  0
 17 18  2  0
 18 19  1  0
 19 20  2  0
 20 21  1  0
 20 22  1  0
 22 23  2  0
 10  5  1  0
 23 17  1  0
 16  7  1  0
  4 24  1  0
  6 25  1  0
  9 26  1  0
 11 27  1  0
 12 28  1  0
 12 29  1  0
 13 30  1  0
 13 31  1  0
 14 32  1  0
 15 33  1  0
 15 34  1  0
 16 35  1  0
 16 36  1  0
 18 37  1  0
 19 38  1  0
 22 39  1  0
 23 40  1  0
M  END
>  <smiles>  (47) 
O=S(=O)(Nc1cc2c(cc1O)CCNCC2)c1ccc(Cl)cc1

>  <score_type>  (47) 
oracle

>  <origin>  (47) 
adgpu

>  <m_score__min__energy>  (47) 
-8.5700000000000003

>  <m_primary>  (47) 
energy

$$$$
49:0
     RDKit          3D

 31 32  0  0  0  0  0  0  0  0999 V2000
   -9.0270   18.5640  -31.6010 C   0  0  0  0  0  0  0  0  0  0  0  0
   -7.8850   18.9790  -32.5380 C   0  0  0  0  0  0  0  0  0  0  0  0
   -7.7940   20.4690  -32.7190 C   0  0  0  0  0  0  0  0  0  0  0  0
   -6.4710   21.0570  -32.5330 C   0  0  0  0  0  0  0  0  0  0  0  0
   -5.3020   20.5130  -33.0850 C   0  0  0  0  0  0  0  0  0  0  0  0
   -4.0770   21.1260  -32.9390 C   0  0  0  0  0  0  0  0  0  0  0  0
   -2.9170   20.5790  -33.4920 O   0  0  0  0  0  0  0  0  0  0  0  0
   -1.6540   21.1600  -33.3350 C   0  0  0  0  0  0  0  0  0  0  0  0
   -3.9310   22.3020  -32.2420 C   0  0  0  0  0  0  0  0  0  0  0  0
   -5.0740   22.8580  -31.6840 C   0  0  0  0  0  0  0  0  0  0  0  0
   -6.3170   22.2480  -31.8270 C   0  0  0  0  0  0  0  0  0  0  0  0
   -7.4320   22.9200  -31.1720 C   0  0  0  0  0  0  0  0  0  0  0  0
   -8.5750   22.4670  -31.2260 O   0  0  0  0  0  0  0  0  0  0  0  0
   -7.2340   24.1660  -30.4130 C   0  0  0  0  0  0  0  0  0  0  0  0
   -6.0390   24.7220  -30.2980 C   0  0  0  0  0  0  0  0  0  0  0  0
   -4.8920   24.0890  -30.9330 C   0  0  0  0  0  0  0  0  0  0  0  0
   -3.7750   24.6300  -30.8120 O   0  0  0  0  0  0  0  0  0  0  0  0
   -8.7047   18.6811  -30.5558 H   0  0  0  0  0  0  0  0  0  0  0  0
   -9.9043   19.2008  -31.7877 H   0  0  0  0  0  0  0  0  0  0  0  0
   -9.2908   17.5125  -31.7877 H   0  0  0  0  0  0  0  0  0  0  0  0
   -6.9354   18.6172  -32.1169 H   0  0  0  0  0  0  0  0  0  0  0  0
   -8.0878   18.5367  -33.5245 H   0  0  0  0  0  0  0  0  0  0  0  0
   -8.1263   20.7047  -33.7408 H   0  0  0  0  0  0  0  0  0  0  0  0
   -8.4247   20.9026  -31.9289 H   0  0  0  0  0  0  0  0  0  0  0  0
   -5.3651   19.5712  -33.6499 H   0  0  0  0  0  0  0  0  0  0  0  0
   -1.4287   21.2636  -32.2633 H   0  0  0  0  0  0  0  0  0  0  0  0
   -0.8948   20.5206  -33.8091 H   0  0  0  0  0  0  0  0  0  0  0  0
   -1.6455   22.1525  -33.8091 H   0  0  0  0  0  0  0  0  0  0  0  0
   -2.9480   22.7830  -32.1310 H   0  0  0  0  0  0  0  0  0  0  0  0
   -8.0988   24.6452  -29.9309 H   0  0  0  0  0  0  0  0  0  0  0  0
   -5.9132   25.6542  -29.7277 H   0  0  0  0  0  0  0  0  0  0  0  0
  1  2  1  0
  2  3  1  0
  3  4  1  0
  4  5  2  0
  5  6  1  0
  6  7  1  0
  7  8  1  0
  6  9  2  0
  9 10  1  0
 10 11  2  0
 11 12  1  0
 12 13  2  0
 12 14  1  0
 14 15  2  0
 15 16  1  0
 16 17  2  0
 11  4  1  0
 16 10  1  0
  1 18  1  0
  1 19  1  0
  1 20  1  0
  2 21  1  0
  2 22  1  0
  3 23  1  0
  3 24  1  0
  5 25  1  0
  8 26  1  0
  8 27  1  0
  8 28  1  0
  9 29  1  0
 14 30  1  0
 15 31  1  0
M  END
>  <smiles>  (48) 
CCCc1cc(OC)cc2c1C(=O)C=CC2=O

>  <score_type>  (48) 
oracle

>  <origin>  (48) 
adgpu

>  <m_score__min__energy>  (48) 
-7.29

>  <m_primary>  (48) 
energy

$$$$
