0:0
     RDKit          3D

 28 29  0  0  0  0  0  0  0  0999 V2000
   -4.7080   16.4020  -33.6750 C   0  0  0  0  0  0  0  0  0  0  0  0
   -5.0740   17.2180  -34.9100 C   0  0  0  0  0  0  0  0  0  0  0  0
   -6.0160   18.2790  -34.5630 N   0  0  0  0  0  0  0  0  0  0  0  0
   -6.6620   18.4200  -33.2910 C   0  0  0  0  0  0  0  0  0  0  0  0
   -7.4380   17.5110  -32.8960 O   0  0  0  0  0  0  0  0  0  0  0  0
   -6.4270   19.5810  -32.4220 C   0  0  0  0  0  0  0  0  0  0  0  0
   -7.4140   20.2450  -31.7900 N   0  0  0  0  0  0  0  0  0  0  0  0
   -6.8640   21.2570  -31.1850 O   0  0  0  0  0  0  0  0  0  0  0  0
   -5.5670   21.2990  -31.3960 C   0  0  0  0  0  0  0  0  0  0  0  0
   -4.6880   22.3560  -30.8570 C   0  0  0  0  0  0  0  0  0  0  0  0
   -3.4780   21.9980  -30.2390 C   0  0  0  0  0  0  0  0  0  0  0  0
   -2.6250   22.9820  -29.7320 C   0  0  0  0  0  0  0  0  0  0  0  0
   -2.9640   24.3330  -29.8480 C   0  0  0  0  0  0  0  0  0  0  0  0
   -2.1100   25.3050  -29.3400 O   0  0  0  0  0  0  0  0  0  0  0  0
   -4.1550   24.7040  -30.4810 C   0  0  0  0  0  0  0  0  0  0  0  0
   -4.4800   26.0540  -30.6070 O   0  0  0  0  0  0  0  0  0  0  0  0
   -5.0130   23.7160  -30.9890 C   0  0  0  0  0  0  0  0  0  0  0  0
   -5.2250   20.2290  -32.2090 C   0  0  0  0  0  0  0  0  0  0  0  0
   -3.5740   19.9200  -33.1360 Br  0  0  0  0  0  0  0  0  0  0  0  0
   -4.9638   16.9722  -32.7698 H   0  0  0  0  0  0  0  0  0  0  0  0
   -5.2676   15.4550  -33.6822 H   0  0  0  0  0  0  0  0  0  0  0  0
   -3.6286   16.1901  -33.6822 H   0  0  0  0  0  0  0  0  0  0  0  0
   -4.1620   17.6671  -35.3302 H   0  0  0  0  0  0  0  0  0  0  0  0
   -5.5448   16.5526  -35.6486 H   0  0  0  0  0  0  0  0  0  0  0  0
   -3.2005   20.9370  -30.1538 H   0  0  0  0  0  0  0  0  0  0  0  0
   -1.6845   22.6926  -29.2404 H   0  0  0  0  0  0  0  0  0  0  0  0
   -3.8670   26.7820  -30.2600 H   0  0  0  0  0  0  0  0  0  0  0  0
   -5.9456   24.0087  -31.4936 H   0  0  0  0  0  0  0  0  0  0  0  0
  1  2  1  0
  2  3  1  0
  3  4  1  0
  4  5  2  0
  4  6  1  0
  6  7  2  0
  7  8  1  0
  8  9  1  0
  9 10  1  0
 10 11  2  0
 11 12  1  0
 12 13  2  0
 13 14  1  0
 13 15  1  0
 15 16  1  0
 15 17  2  0
  9 18  2  0
 18 19  1  0
 18  6  1  0
 17 10  1  0
  1 20  1  0
  1 21  1  0
  1 22  1  0
  2 23  1  0
  2 24  1  0
 11 25  1  0
 12 26  1  0
 16 27  1  0
 17 28  1  0
M  CHG  2   3  -1  14  -1
M  END
>  <UniqueID>  (1) 
1

>  <SMILES>  (1) 
CC[N-]C(=O)c1noc(-c2ccc([O-])c(O)c2)c1Br

>  <Energy>  (1) 
64.6456145932503

>  <Genealogy>  (1) 
CC[N-]C(=O)c1noc(-c2ccc([O-])c(O)c2)c1Br (protonated)
CC[N-]C(=O)c1noc(-c2ccc([O-])c(O)c2)c1Br (3D coordinates assigned)
CC[N-]C(=O)c1noc(-c2ccc([O-])c(O)c2)c1Br (optimized conformer: 64.6456145932503 kcal/mol)

>  <smiles>  (1) 
CCNC(=O)c1noc(-c2ccc(O)c(O)c2)c1Br

>  <score_type>  (1) 
oracle

>  <origin>  (1) 
adgpu

>  <m_score__min__energy>  (1) 
-9.6999999999999993

>  <m_primary>  (1) 
energy

$$$$
1:0
     RDKit          3D

 43 45  0  0  0  0  0  0  0  0999 V2000
   -1.0800   25.1830  -28.4360 C   0  0  0  0  0  0  0  0  0  0  0  0
   -2.4650   24.7420  -28.2510 N   0  0  0  0  0  0  0  0  0  0  0  0
   -2.8060   23.6230  -29.1440 C   0  0  0  0  0  0  0  0  0  0  0  0
   -3.8680   24.0020  -30.1420 C   0  0  0  0  0  0  0  0  0  0  0  0
   -4.2430   25.2770  -30.3620 N   0  0  0  0  0  0  0  0  0  0  0  0
   -5.2520   25.2450  -31.2190 N   0  0  0  0  0  0  0  0  0  0  0  0
   -5.4840   23.9490  -31.5010 C   0  0  0  0  0  0  0  0  0  0  0  0
   -6.8040   23.4030  -32.5890 S   0  0  0  0  0  0  0  0  0  0  0  0
   -7.6260   22.3540  -31.3360 C   0  0  0  0  0  0  0  0  0  0  0  0
   -7.7270   20.9250  -31.7940 C   0  0  0  0  0  0  0  0  0  0  0  0
   -8.6740   20.0640  -31.2170 C   0  0  0  0  0  0  0  0  0  0  0  0
   -8.7470   18.7260  -31.6190 C   0  0  0  0  0  0  0  0  0  0  0  0
   -7.8700   18.2380  -32.5930 C   0  0  0  0  0  0  0  0  0  0  0  0
   -6.9210   19.0880  -33.1680 C   0  0  0  0  0  0  0  0  0  0  0  0
   -6.0650   18.6120  -34.1070 F   0  0  0  0  0  0  0  0  0  0  0  0
   -6.8470   20.4270  -32.7710 C   0  0  0  0  0  0  0  0  0  0  0  0
   -4.6320   23.1350  -30.8440 N   0  0  0  0  0  0  0  0  0  0  0  0
   -4.5420   21.6750  -30.9210 C   0  0  0  0  0  0  0  0  0  0  0  0
   -3.4130   21.2660  -31.8310 C   0  0  0  0  0  0  0  0  0  0  0  0
   -2.0860   21.5740  -31.4910 C   0  0  0  0  0  0  0  0  0  0  0  0
   -1.0370   21.2070  -32.3400 C   0  0  0  0  0  0  0  0  0  0  0  0
   -1.3060   20.5310  -33.5340 C   0  0  0  0  0  0  0  0  0  0  0  0
   -0.2870   20.1770  -34.3570 F   0  0  0  0  0  0  0  0  0  0  0  0
   -2.6240   20.2210  -33.8800 C   0  0  0  0  0  0  0  0  0  0  0  0
   -3.6750   20.5860  -33.0330 C   0  0  0  0  0  0  0  0  0  0  0  0
   -0.6086   25.3331  -27.4535 H   0  0  0  0  0  0  0  0  0  0  0  0
   -0.5233   24.4177  -28.9967 H   0  0  0  0  0  0  0  0  0  0  0  0
   -1.0683   26.1293  -28.9967 H   0  0  0  0  0  0  0  0  0  0  0  0
   -3.0980   25.5530  -28.4480 H   0  0  0  0  0  0  0  0  0  0  0  0
   -1.9012   23.3142  -29.6881 H   0  0  0  0  0  0  0  0  0  0  0  0
   -3.1978   22.8018  -28.5258 H   0  0  0  0  0  0  0  0  0  0  0  0
   -7.0448   22.3900  -30.4028 H   0  0  0  0  0  0  0  0  0  0  0  0
   -8.6444   22.7387  -31.1782 H   0  0  0  0  0  0  0  0  0  0  0  0
   -9.3611   20.4428  -30.4460 H   0  0  0  0  0  0  0  0  0  0  0  0
   -9.4950   18.0570  -31.1685 H   0  0  0  0  0  0  0  0  0  0  0  0
   -7.9271   17.1852  -32.9066 H   0  0  0  0  0  0  0  0  0  0  0  0
   -6.0979   21.0927  -33.2246 H   0  0  0  0  0  0  0  0  0  0  0  0
   -4.3615   21.2693  -29.9146 H   0  0  0  0  0  0  0  0  0  0  0  0
   -5.4862   21.2799  -31.3239 H   0  0  0  0  0  0  0  0  0  0  0  0
   -1.8705   22.1063  -30.5528 H   0  0  0  0  0  0  0  0  0  0  0  0
    0.0007   21.4504  -32.0682 H   0  0  0  0  0  0  0  0  0  0  0  0
   -2.8349   19.6893  -34.8196 H   0  0  0  0  0  0  0  0  0  0  0  0
   -4.7111   20.3400  -33.3085 H   0  0  0  0  0  0  0  0  0  0  0  0
  1  2  1  0
  2  3  1  0
  3  4  1  0
  4  5  2  0
  5  6  1  0
  6  7  2  0
  7  8  1  0
  8  9  1  0
  9 10  1  0
 10 11  2  0
 11 12  1  0
 12 13  2  0
 13 14  1  0
 14 15  1  0
 14 16  2  0
  7 17  1  0
 17 18  1  0
 18 19  1  0
 19 20  2  0
 20 21  1  0
 21 22  2  0
 22 23  1  0
 22 24  1  0
 24 25  2  0
 17  4  1  0
 25 19  1  0
 16 10  1  0
  1 26  1  0
  1 27  1  0
  1 28  1  0
  2 29  1  0
  3 30  1  0
  3 31  1  0
  9 32  1  0
  9 33  1  0
 11 34  1  0
 12 35  1  0
 13 36  1  0
 16 37  1  0
 18 38  1  0
 18 39  1  0
 20 40  1  0
 21 41  1  0
 24 42  1  0
 25 43  1  0
M  END
>  <UniqueID>  (2) 
2

>  <SMILES>  (2) 
CNCc1nnc(SCc2cccc(F)c2)n1Cc1ccc(F)cc1

>  <Energy>  (2) 
72.02626156994138

>  <Genealogy>  (2) 
CNCc1nnc(SCc2cccc(F)c2)n1Cc1ccc(F)cc1 (3D coordinates assigned)
CNCc1nnc(SCc2cccc(F)c2)n1Cc1ccc(F)cc1 (optimized conformer: 72.02626156994138 kcal/mol)

>  <smiles>  (2) 
CNCc1nnc(SCc2cccc(F)c2)n1Cc1ccc(F)cc1

>  <score_type>  (2) 
oracle

>  <origin>  (2) 
adgpu

>  <m_score__min__energy>  (2) 
-8.7799999999999994

>  <m_primary>  (2) 
energy

$$$$
2:0
     RDKit          3D

 34 36  0  0  0  0  0  0  0  0999 V2000
   -8.3996   23.9853  -30.8258 H   0  0  0  0  0  0  0  0  0  0  0  0
   -7.6470   23.3180  -31.2710 C   0  0  0  0  0  0  0  0  0  0  0  0
   -6.2810   23.6210  -31.1650 C   0  0  0  0  0  0  0  0  0  0  0  0
   -5.8150   24.8320  -30.4670 C   0  0  0  0  0  0  0  0  0  0  0  0
   -6.6440   25.7110  -30.1080 O   0  0  0  0  0  0  0  0  0  0  0  0
   -4.4020   25.0350  -30.2890 N   0  0  0  0  0  0  0  0  0  0  0  0
   -3.5930   24.5000  -29.4140 C   0  0  0  0  0  0  0  0  0  0  0  0
   -3.9930   23.4740  -28.5280 C   0  0  0  0  0  0  0  0  0  0  0  0
   -5.0251   23.0940  -28.5501 H   0  0  0  0  0  0  0  0  0  0  0  0
   -3.0680   22.9460  -27.6240 C   0  0  0  0  0  0  0  0  0  0  0  0
   -3.3733   22.1527  -26.9258 H   0  0  0  0  0  0  0  0  0  0  0  0
   -1.7600   23.4230  -27.6060 C   0  0  0  0  0  0  0  0  0  0  0  0
   -0.4870   22.7080  -26.3750 Br  0  0  0  0  0  0  0  0  0  0  0  0
   -1.3870   24.4230  -28.5050 C   0  0  0  0  0  0  0  0  0  0  0  0
   -0.3552   24.8042  -28.5040 H   0  0  0  0  0  0  0  0  0  0  0  0
   -2.2960   24.9280  -29.3830 N   0  0  0  0  0  0  0  0  0  0  0  0
   -1.9850   25.6760  -30.0440 H   0  0  0  0  0  0  0  0  0  0  0  0
   -5.3670   22.7750  -31.7150 N   0  0  0  0  0  0  0  0  0  0  0  0
   -5.7190   21.6330  -32.3710 C   0  0  0  0  0  0  0  0  0  0  0  0
   -4.6550   20.7700  -32.9460 C   0  0  0  0  0  0  0  0  0  0  0  0
   -4.9800   19.4870  -33.4290 C   0  0  0  0  0  0  0  0  0  0  0  0
   -6.0188   19.1298  -33.3722 H   0  0  0  0  0  0  0  0  0  0  0  0
   -3.9930   18.6640  -33.9800 C   0  0  0  0  0  0  0  0  0  0  0  0
   -4.2568   17.6618  -34.3488 H   0  0  0  0  0  0  0  0  0  0  0  0
   -2.6730   19.1120  -34.0630 C   0  0  0  0  0  0  0  0  0  0  0  0
   -1.8970   18.4616  -34.4929 H   0  0  0  0  0  0  0  0  0  0  0  0
   -2.3390   20.3860  -33.6000 C   0  0  0  0  0  0  0  0  0  0  0  0
   -1.2998   20.7398  -33.6704 H   0  0  0  0  0  0  0  0  0  0  0  0
   -3.3210   21.2140  -33.0470 C   0  0  0  0  0  0  0  0  0  0  0  0
   -3.0507   22.2182  -32.6886 H   0  0  0  0  0  0  0  0  0  0  0  0
   -7.0830   21.3160  -32.5030 C   0  0  0  0  0  0  0  0  0  0  0  0
   -7.3914   20.4075  -33.0411 H   0  0  0  0  0  0  0  0  0  0  0  0
   -8.0420   22.1630  -31.9460 C   0  0  0  0  0  0  0  0  0  0  0  0
   -9.1107   21.9195  -32.0393 H   0  0  0  0  0  0  0  0  0  0  0  0
  1  2  1  0
  2  3  2  0
  3  4  1  0
  4  5  2  0
  4  6  1  0
  6  7  2  0
  7  8  1  0
  8  9  1  0
  8 10  2  0
 10 11  1  0
 10 12  1  0
 12 13  1  0
 12 14  2  0
 14 15  1  0
 14 16  1  0
 16 17  1  0
  3 18  1  0
 18 19  2  0
 19 20  1  0
 20 21  2  0
 21 22  1  0
 21 23  1  0
 23 24  1  0
 23 25  2  0
 25 26  1  0
 25 27  1  0
 27 28  1  0
 27 29  2  0
 29 30  1  0
 19 31  1  0
 31 32  1  0
 31 33  2  0
 33 34  1  0
 33  2  1  0
 16  7  1  0
 29 20  1  0
M  END
>  <UniqueID>  (3) 
3

>  <SMILES>  (3) 
O=C(/N=c1\ccc(Br)c[nH]1)c1cccc(-c2ccccc2)n1

>  <Energy>  (3) 
49.0591050037112

>  <Genealogy>  (3) 
O=C(/N=c1\ccc(Br)c[nH]1)c1cccc(-c2ccccc2)n1 (cis-trans isomerization)
O=C(/N=c1\ccc(Br)c[nH]1)c1cccc(-c2ccccc2)n1 (3D coordinates assigned)
O=C(/N=c1\ccc(Br)c[nH]1)c1cccc(-c2ccccc2)n1 (optimized conformer: 49.0591050037112 kcal/mol)

>  <smiles>  (3) 
O=C(N=c1ccc(Br)c[nH]1)c1cccc(-c2ccccc2)n1

>  <score_type>  (3) 
oracle

>  <origin>  (3) 
adgpu

>  <m_score__min__energy>  (3) 
-8.9100000000000001

>  <m_primary>  (3) 
energy

$$$$
3:0
     RDKit          3D

 53 56  0  0  0  0  0  0  0  0999 V2000
   -4.2770   22.5990  -32.7990 O   0  0  0  0  0  0  0  0  0  0  0  0
   -5.0810   23.0570  -31.9440 C   0  0  0  0  0  0  0  0  0  0  0  0
   -4.6060   24.0390  -31.0120 N   0  0  0  0  0  0  0  0  0  0  0  0
   -4.0220   23.7710  -29.7290 C   0  0  0  0  0  0  0  0  0  0  0  0
   -4.4000   24.5090  -28.5930 C   0  0  0  0  0  0  0  0  0  0  0  0
   -3.8220   24.2380  -27.3520 C   0  0  0  0  0  0  0  0  0  0  0  0
   -2.8740   23.2220  -27.2290 C   0  0  0  0  0  0  0  0  0  0  0  0
   -2.5050   22.4690  -28.3450 C   0  0  0  0  0  0  0  0  0  0  0  0
   -3.0710   22.7390  -29.6030 C   0  0  0  0  0  0  0  0  0  0  0  0
   -2.7190   21.9470  -30.7490 N   0  0  0  0  0  0  0  0  0  0  0  0
   -1.3590   21.7330  -31.1720 C   0  0  0  0  0  0  0  0  0  0  0  0
   -0.4060   22.1450  -30.4550 O   0  0  0  0  0  0  0  0  0  0  0  0
   -1.0500   21.0460  -32.4520 C   0  0  0  0  0  0  0  0  0  0  0  0
    0.2450   21.0600  -33.0010 C   0  0  0  0  0  0  0  0  0  0  0  0
    0.5050   20.3960  -34.1990 C   0  0  0  0  0  0  0  0  0  0  0  0
   -0.5290   19.7150  -34.8470 C   0  0  0  0  0  0  0  0  0  0  0  0
   -1.7730   19.6970  -34.3020 N   0  0  0  0  0  0  0  0  0  0  0  0
   -2.0530   20.3330  -33.1310 C   0  0  0  0  0  0  0  0  0  0  0  0
   -6.4930   22.6100  -31.9630 C   0  0  0  0  0  0  0  0  0  0  0  0
   -7.5420   23.5450  -31.9180 C   0  0  0  0  0  0  0  0  0  0  0  0
   -8.8730   23.1130  -31.9560 C   0  0  0  0  0  0  0  0  0  0  0  0
   -9.1690   21.7530  -32.0500 C   0  0  0  0  0  0  0  0  0  0  0  0
   -8.1350   20.8080  -32.0970 C   0  0  0  0  0  0  0  0  0  0  0  0
   -8.5100   19.0840  -32.2280 S   0  0  0  0  0  0  0  0  0  0  0  0
   -9.7690   18.9190  -33.0330 O   0  0  0  0  0  0  0  0  0  0  0  0
   -8.7660   18.5320  -30.8520 O   0  0  0  0  0  0  0  0  0  0  0  0
   -7.2290   18.1620  -32.9780 N   0  0  0  0  0  0  0  0  0  0  0  0
   -6.4770   18.9580  -33.9450 C   0  0  0  0  0  0  0  0  0  0  0  0
   -5.1130   18.2990  -34.0620 C   0  0  0  0  0  0  0  0  0  0  0  0
   -4.9280   17.5360  -32.7590 C   0  0  0  0  0  0  0  0  0  0  0  0
   -6.2430   17.6940  -32.0050 C   0  0  0  0  0  0  0  0  0  0  0  0
   -6.8010   21.2400  -32.0670 C   0  0  0  0  0  0  0  0  0  0  0  0
   -5.1551   25.3038  -28.6831 H   0  0  0  0  0  0  0  0  0  0  0  0
   -4.1143   24.8263  -26.4697 H   0  0  0  0  0  0  0  0  0  0  0  0
   -2.4163   23.0138  -26.2506 H   0  0  0  0  0  0  0  0  0  0  0  0
   -1.7673   21.6599  -28.2394 H   0  0  0  0  0  0  0  0  0  0  0  0
   -3.5000   21.5880  -31.3390 H   0  0  0  0  0  0  0  0  0  0  0  0
    1.0544   21.5961  -32.4839 H   0  0  0  0  0  0  0  0  0  0  0  0
    1.5166   20.4081  -34.6310 H   0  0  0  0  0  0  0  0  0  0  0  0
   -0.3358   19.1945  -35.7966 H   0  0  0  0  0  0  0  0  0  0  0  0
   -3.0700   20.2885  -32.7141 H   0  0  0  0  0  0  0  0  0  0  0  0
   -7.3161   24.6196  -31.8527 H   0  0  0  0  0  0  0  0  0  0  0  0
   -9.6891   23.8492  -31.9115 H   0  0  0  0  0  0  0  0  0  0  0  0
  -10.2171   21.4213  -32.0873 H   0  0  0  0  0  0  0  0  0  0  0  0
   -6.9868   18.9564  -34.9197 H   0  0  0  0  0  0  0  0  0  0  0  0
   -6.3909   20.0062  -33.6228 H   0  0  0  0  0  0  0  0  0  0  0  0
   -5.0892   17.6103  -34.9194 H   0  0  0  0  0  0  0  0  0  0  0  0
   -4.3123   19.0354  -34.2255 H   0  0  0  0  0  0  0  0  0  0  0  0
   -4.7257   16.4738  -32.9608 H   0  0  0  0  0  0  0  0  0  0  0  0
   -4.0759   17.9196  -32.1786 H   0  0  0  0  0  0  0  0  0  0  0  0
   -6.5562   16.7282  -31.5818 H   0  0  0  0  0  0  0  0  0  0  0  0
   -6.1396   18.4048  -31.1719 H   0  0  0  0  0  0  0  0  0  0  0  0
   -5.9877   20.5016  -32.1253 H   0  0  0  0  0  0  0  0  0  0  0  0
  1  2  2  0
  2  3  1  0
  3  4  1  0
  4  5  2  0
  5  6  1  0
  6  7  2  0
  7  8  1  0
  8  9  2  0
  9 10  1  0
 10 11  1  0
 11 12  2  0
 11 13  1  0
 13 14  2  0
 14 15  1  0
 15 16  2  0
 16 17  1  0
 17 18  2  0
  2 19  1  0
 19 20  2  0
 20 21  1  0
 21 22  2  0
 22 23  1  0
 23 24  1  0
 24 25  2  0
 24 26  2  0
 24 27  1  0
 27 28  1  0
 28 29  1  0
 29 30  1  0
 30 31  1  0
 23 32  2  0
  9  4  1  0
 18 13  1  0
 32 19  1  0
 31 27  1  0
  5 33  1  0
  6 34  1  0
  7 35  1  0
  8 36  1  0
 10 37  1  0
 14 38  1  0
 15 39  1  0
 16 40  1  0
 18 41  1  0
 20 42  1  0
 21 43  1  0
 22 44  1  0
 28 45  1  0
 28 46  1  0
 29 47  1  0
 29 48  1  0
 30 49  1  0
 30 50  1  0
 31 51  1  0
 31 52  1  0
 32 53  1  0
M  CHG  1   3  -1
M  END
>  <UniqueID>  (4) 
4

>  <SMILES>  (4) 
O=C([N-]c1ccccc1NC(=O)c1cccnc1)c1cccc(S(=O)(=O)N2CCCC2)c1

>  <Energy>  (4) 
72.530289189769

>  <Genealogy>  (4) 
O=C([N-]c1ccccc1NC(=O)c1cccnc1)c1cccc(S(=O)(=O)N2CCCC2)c1 (protonated)
O=C([N-]c1ccccc1NC(=O)c1cccnc1)c1cccc(S(=O)(=O)N2CCCC2)c1 (3D coordinates assigned)
O=C([N-]c1ccccc1NC(=O)c1cccnc1)c1cccc(S(=O)(=O)N2CCCC2)c1 (nonaromatic ring conformer: 72.530289189769 kcal/mol)

>  <smiles>  (4) 
O=C(Nc1ccccc1NC(=O)c1cccc(S(=O)(=O)N2CCCC2)c1)c1cccnc1

>  <score_type>  (4) 
oracle

>  <origin>  (4) 
adgpu

>  <m_score__min__energy>  (4) 
-11.59

>  <m_primary>  (4) 
energy

$$$$
4:0
     RDKit          3D

 47 50  0  0  0  0  0  0  0  0999 V2000
   -5.7320   24.1720  -30.1050 C   0  0  0  0  0  0  0  0  0  0  0  0
   -4.4890   24.1230  -30.7990 O   0  0  0  0  0  0  0  0  0  0  0  0
   -3.9950   22.9870  -31.4560 C   0  0  0  0  0  0  0  0  0  0  0  0
   -4.5130   22.6700  -32.7190 C   0  0  0  0  0  0  0  0  0  0  0  0
   -4.0530   21.5480  -33.4140 C   0  0  0  0  0  0  0  0  0  0  0  0
   -3.0670   20.7280  -32.8510 C   0  0  0  0  0  0  0  0  0  0  0  0
   -2.5940   19.5770  -33.5610 N   0  0  0  0  0  0  0  0  0  0  0  0
   -3.1330   18.3430  -33.5520 C   0  0  0  0  0  0  0  0  0  0  0  0
   -4.6560   17.8920  -32.7150 S   0  0  0  0  0  0  0  0  0  0  0  0
   -5.7490   18.8200  -33.8470 C   0  0  0  0  0  0  0  0  0  0  0  0
   -6.9530   19.3490  -33.1170 C   0  0  0  0  0  0  0  0  0  0  0  0
   -7.9330   18.4690  -32.6290 C   0  0  0  0  0  0  0  0  0  0  0  0
   -9.0310   18.9620  -31.9190 C   0  0  0  0  0  0  0  0  0  0  0  0
   -9.1610   20.3350  -31.6940 C   0  0  0  0  0  0  0  0  0  0  0  0
   -8.1980   21.2280  -32.1890 C   0  0  0  0  0  0  0  0  0  0  0  0
   -8.3140   22.6980  -31.9090 C   0  0  0  0  0  0  0  0  0  0  0  0
   -7.0870   20.7280  -32.8860 C   0  0  0  0  0  0  0  0  0  0  0  0
   -2.3450   17.4570  -34.1870 N   0  0  0  0  0  0  0  0  0  0  0  0
   -1.2830   18.1240  -34.6140 N   0  0  0  0  0  0  0  0  0  0  0  0
   -1.4300   19.4070  -34.2260 C   0  0  0  0  0  0  0  0  0  0  0  0
   -0.4360   20.4660  -34.5170 C   0  0  0  0  0  0  0  0  0  0  0  0
   -0.1180   21.1760  -35.9960 S   0  0  0  0  0  0  0  0  0  0  0  0
    1.1110   22.1830  -35.5240 N   0  0  0  0  0  0  0  0  0  0  0  0
    1.3060   21.9940  -34.2220 N   0  0  0  0  0  0  0  0  0  0  0  0
    0.4830   21.0640  -33.6430 C   0  0  0  0  0  0  0  0  0  0  0  0
    0.5920   20.7430  -32.1860 C   0  0  0  0  0  0  0  0  0  0  0  0
   -2.5400   21.0390  -31.5900 C   0  0  0  0  0  0  0  0  0  0  0  0
   -2.9990   22.1610  -30.8950 C   0  0  0  0  0  0  0  0  0  0  0  0
   -5.5471   24.1647  -29.0207 H   0  0  0  0  0  0  0  0  0  0  0  0
   -6.2690   25.0920  -30.3792 H   0  0  0  0  0  0  0  0  0  0  0  0
   -6.3398   23.2971  -30.3792 H   0  0  0  0  0  0  0  0  0  0  0  0
   -5.2879   23.3094  -33.1670 H   0  0  0  0  0  0  0  0  0  0  0  0
   -4.4661   21.3086  -34.4050 H   0  0  0  0  0  0  0  0  0  0  0  0
   -5.1892   19.6636  -34.2771 H   0  0  0  0  0  0  0  0  0  0  0  0
   -6.0904   18.1404  -34.6417 H   0  0  0  0  0  0  0  0  0  0  0  0
   -7.8358   17.3878  -32.8064 H   0  0  0  0  0  0  0  0  0  0  0  0
   -9.7942   18.2682  -31.5366 H   0  0  0  0  0  0  0  0  0  0  0  0
  -10.0220   20.7177  -31.1263 H   0  0  0  0  0  0  0  0  0  0  0  0
   -8.3271   22.8642  -30.8217 H   0  0  0  0  0  0  0  0  0  0  0  0
   -7.4546   23.2242  -32.3500 H   0  0  0  0  0  0  0  0  0  0  0  0
   -9.2453   23.0829  -32.3500 H   0  0  0  0  0  0  0  0  0  0  0  0
   -6.3159   21.4209  -33.2539 H   0  0  0  0  0  0  0  0  0  0  0  0
    0.2939   21.6208  -31.5939 H   0  0  0  0  0  0  0  0  0  0  0  0
   -0.0693   19.8973  -31.9464 H   0  0  0  0  0  0  0  0  0  0  0  0
    1.6316   20.4749  -31.9464 H   0  0  0  0  0  0  0  0  0  0  0  0
   -1.7634   20.3985  -31.1465 H   0  0  0  0  0  0  0  0  0  0  0  0
   -2.5816   22.4011  -29.9060 H   0  0  0  0  0  0  0  0  0  0  0  0
  1  2  1  0
  2  3  1  0
  3  4  2  0
  4  5  1  0
  5  6  2  0
  6  7  1  0
  7  8  1  0
  8  9  1  0
  9 10  1  0
 10 11  1  0
 11 12  2  0
 12 13  1  0
 13 14  2  0
 14 15  1  0
 15 16  1  0
 15 17  2  0
  8 18  2  0
 18 19  1  0
 19 20  2  0
 20 21  1  0
 21 22  1  0
 22 23  1  0
 23 24  2  0
 24 25  1  0
 25 26  1  0
  6 27  1  0
 27 28  2  0
 28  3  1  0
 20  7  1  0
 25 21  2  0
 17 11  1  0
  1 29  1  0
  1 30  1  0
  1 31  1  0
  4 32  1  0
  5 33  1  0
 10 34  1  0
 10 35  1  0
 12 36  1  0
 13 37  1  0
 14 38  1  0
 16 39  1  0
 16 40  1  0
 16 41  1  0
 17 42  1  0
 26 43  1  0
 26 44  1  0
 26 45  1  0
 27 46  1  0
 28 47  1  0
M  END
>  <UniqueID>  (5) 
5

>  <SMILES>  (5) 
COc1ccc(-n2c(SCc3cccc(C)c3)nnc2-c2snnc2C)cc1

>  <Energy>  (5) 
124.63459634057402

>  <Genealogy>  (5) 
COc1ccc(-n2c(SCc3cccc(C)c3)nnc2-c2snnc2C)cc1 (3D coordinates assigned)
COc1ccc(-n2c(SCc3cccc(C)c3)nnc2-c2snnc2C)cc1 (optimized conformer: 124.63459634057402 kcal/mol)

>  <smiles>  (5) 
COc1ccc(-n2c(SCc3cccc(C)c3)nnc2-c2snnc2C)cc1

>  <score_type>  (5) 
oracle

>  <origin>  (5) 
adgpu

>  <m_score__min__energy>  (5) 
-9.4199999999999999

>  <m_primary>  (5) 
energy

$$$$
5:0
     RDKit          3D

 49 52  0  0  0  0  0  0  0  0999 V2000
    0.2760   23.8010  -24.7960 C   0  0  0  0  0  0  0  0  0  0  0  0
    0.3220   23.8620  -26.2170 O   0  0  0  0  0  0  0  0  0  0  0  0
   -0.8030   24.0220  -27.0400 C   0  0  0  0  0  0  0  0  0  0  0  0
   -2.0550   24.4240  -26.5370 C   0  0  0  0  0  0  0  0  0  0  0  0
   -3.1470   24.5660  -27.3990 C   0  0  0  0  0  0  0  0  0  0  0  0
   -3.0140   24.3030  -28.7720 C   0  0  0  0  0  0  0  0  0  0  0  0
   -4.1480   24.4650  -29.6450 N   0  0  0  0  0  0  0  0  0  0  0  0
   -4.3030   25.4930  -30.4700 N   0  0  0  0  0  0  0  0  0  0  0  0
   -5.4770   25.3000  -31.1110 C   0  0  0  0  0  0  0  0  0  0  0  0
   -6.0830   24.1690  -30.6960 N   0  0  0  0  0  0  0  0  0  0  0  0
   -7.3240   23.5840  -31.1960 C   0  0  0  0  0  0  0  0  0  0  0  0
   -7.0520   22.2190  -31.7650 C   0  0  0  0  0  0  0  0  0  0  0  0
   -5.8090   21.9320  -32.3460 C   0  0  0  0  0  0  0  0  0  0  0  0
   -5.5370   20.6510  -32.8360 C   0  0  0  0  0  0  0  0  0  0  0  0
   -6.5020   19.6330  -32.7450 C   0  0  0  0  0  0  0  0  0  0  0  0
   -6.2150   18.2700  -33.2640 C   0  0  0  0  0  0  0  0  0  0  0  0
   -7.1300   17.2230  -33.0600 C   0  0  0  0  0  0  0  0  0  0  0  0
   -6.8630   15.9440  -33.5550 C   0  0  0  0  0  0  0  0  0  0  0  0
   -5.6800   15.6920  -34.2540 C   0  0  0  0  0  0  0  0  0  0  0  0
   -5.4450   14.4440  -34.7360 F   0  0  0  0  0  0  0  0  0  0  0  0
   -4.7470   16.7210  -34.4550 C   0  0  0  0  0  0  0  0  0  0  0  0
   -3.4850   16.4560  -35.2240 C   0  0  0  0  0  0  0  0  0  0  0  0
   -5.0240   18.0100  -33.9680 C   0  0  0  0  0  0  0  0  0  0  0  0
   -7.7420   19.9220  -32.1490 C   0  0  0  0  0  0  0  0  0  0  0  0
   -8.0120   21.2030  -31.6590 C   0  0  0  0  0  0  0  0  0  0  0  0
   -5.2280   23.6700  -29.7870 C   0  0  0  0  0  0  0  0  0  0  0  0
   -5.4330   22.6120  -29.1330 O   0  0  0  0  0  0  0  0  0  0  0  0
   -1.7570   23.9150  -29.2710 C   0  0  0  0  0  0  0  0  0  0  0  0
   -0.6660   23.7730  -28.4090 C   0  0  0  0  0  0  0  0  0  0  0  0
    0.8877   24.6121  -24.3742 H   0  0  0  0  0  0  0  0  0  0  0  0
   -0.7647   23.9126  -24.4577 H   0  0  0  0  0  0  0  0  0  0  0  0
    0.6695   22.8311  -24.4577 H   0  0  0  0  0  0  0  0  0  0  0  0
   -2.1746   24.6270  -25.4625 H   0  0  0  0  0  0  0  0  0  0  0  0
   -4.1196   24.8868  -26.9976 H   0  0  0  0  0  0  0  0  0  0  0  0
   -5.8860   25.9788  -31.8739 H   0  0  0  0  0  0  0  0  0  0  0  0
   -8.0456   23.4980  -30.3702 H   0  0  0  0  0  0  0  0  0  0  0  0
   -7.7375   24.2299  -31.9846 H   0  0  0  0  0  0  0  0  0  0  0  0
   -5.0435   22.7188  -32.4168 H   0  0  0  0  0  0  0  0  0  0  0  0
   -4.5607   20.4383  -33.2961 H   0  0  0  0  0  0  0  0  0  0  0  0
   -8.0621   17.4116  -32.5072 H   0  0  0  0  0  0  0  0  0  0  0  0
   -7.5874   15.1320  -33.3936 H   0  0  0  0  0  0  0  0  0  0  0  0
   -2.6570   16.2821  -34.5211 H   0  0  0  0  0  0  0  0  0  0  0  0
   -3.6213   15.5669  -35.8572 H   0  0  0  0  0  0  0  0  0  0  0  0
   -3.2521   17.3248  -35.8572 H   0  0  0  0  0  0  0  0  0  0  0  0
   -4.3033   18.8234  -34.1386 H   0  0  0  0  0  0  0  0  0  0  0  0
   -8.5054   19.1342  -32.0676 H   0  0  0  0  0  0  0  0  0  0  0  0
   -8.9830   21.4150  -31.1877 H   0  0  0  0  0  0  0  0  0  0  0  0
   -1.6321   23.7221  -30.3467 H   0  0  0  0  0  0  0  0  0  0  0  0
    0.3095   23.4625  -28.8114 H   0  0  0  0  0  0  0  0  0  0  0  0
  1  2  1  0
  2  3  1  0
  3  4  2  0
  4  5  1  0
  5  6  2  0
  6  7  1  0
  7  8  1  0
  8  9  2  0
  9 10  1  0
 10 11  1  0
 11 12  1  0
 12 13  2  0
 13 14  1  0
 14 15  2  0
 15 16  1  0
 16 17  2  0
 17 18  1  0
 18 19  2  0
 19 20  1  0
 19 21  1  0
 21 22  1  0
 21 23  2  0
 15 24  1  0
 24 25  2  0
 10 26  1  0
 26 27  2  0
  6 28  1  0
 28 29  2  0
 29  3  1  0
 26  7  1  0
 25 12  1  0
 23 16  1  0
  1 30  1  0
  1 31  1  0
  1 32  1  0
  4 33  1  0
  5 34  1  0
  9 35  1  0
 11 36  1  0
 11 37  1  0
 13 38  1  0
 14 39  1  0
 17 40  1  0
 18 41  1  0
 22 42  1  0
 22 43  1  0
 22 44  1  0
 23 45  1  0
 24 46  1  0
 25 47  1  0
 28 48  1  0
 29 49  1  0
M  END
>  <UniqueID>  (6) 
6

>  <SMILES>  (6) 
COc1ccc(-n2ncn(Cc3ccc(-c4ccc(F)c(C)c4)cc3)c2=O)cc1

>  <Energy>  (6) 
97.74196989468406

>  <Genealogy>  (6) 
COc1ccc(-n2ncn(Cc3ccc(-c4ccc(F)c(C)c4)cc3)c2=O)cc1 (3D coordinates assigned)
COc1ccc(-n2ncn(Cc3ccc(-c4ccc(F)c(C)c4)cc3)c2=O)cc1 (optimized conformer: 97.74196989468406 kcal/mol)

>  <smiles>  (6) 
COc1ccc(-n2ncn(Cc3ccc(-c4ccc(F)c(C)c4)cc3)c2=O)cc1

>  <score_type>  (6) 
oracle

>  <origin>  (6) 
adgpu

>  <m_score__min__energy>  (6) 
-8.7400000000000002

>  <m_primary>  (6) 
energy

$$$$
6:0
     RDKit          3D

 54 56  0  0  0  0  0  0  0  0999 V2000
    0.9506   22.8649  -28.8570 H   0  0  0  0  0  0  0  0  0  0  0  0
    0.1160   22.2460  -28.4960 C   0  0  0  0  0  0  0  0  0  0  0  0
    0.0090   21.9420  -27.1370 C   0  0  0  0  0  0  0  0  0  0  0  0
    0.7536   22.3310  -26.4269 H   0  0  0  0  0  0  0  0  0  0  0  0
   -1.0430   21.1440  -26.6780 C   0  0  0  0  0  0  0  0  0  0  0  0
   -1.1099   20.8889  -25.6101 H   0  0  0  0  0  0  0  0  0  0  0  0
   -2.0150   20.6660  -27.5720 C   0  0  0  0  0  0  0  0  0  0  0  0
   -3.1080   19.7630  -27.0680 C   0  0  0  0  0  0  0  0  0  0  0  0
   -3.1065   19.7642  -25.9680 H   0  0  0  0  0  0  0  0  0  0  0  0
   -4.0803   20.1247  -27.4338 H   0  0  0  0  0  0  0  0  0  0  0  0
   -2.9362   18.7399  -27.4338 H   0  0  0  0  0  0  0  0  0  0  0  0
   -1.9220   21.0010  -28.9400 C   0  0  0  0  0  0  0  0  0  0  0  0
   -2.8630   20.4760  -29.8850 N   0  0  0  0  0  0  0  0  0  0  0  0
   -3.7700   21.0910  -30.6020 C   0  0  0  0  0  0  0  0  0  0  0  0
   -4.4390   20.3340  -31.5110 N   0  0  0  0  0  0  0  0  0  0  0  0
   -5.3820   20.8440  -32.3410 C   0  0  0  0  0  0  0  0  0  0  0  0
   -6.1050   19.9530  -33.2880 C   0  0  0  0  0  0  0  0  0  0  0  0
   -5.5590   19.6700  -34.3880 O   0  0  0  0  0  0  0  0  0  0  0  0
   -7.4490   19.4760  -33.0010 N   0  0  0  0  0  0  0  0  0  0  0  0
   -8.0530   19.6390  -33.8380 H   0  0  0  0  0  0  0  0  0  0  0  0
   -7.4570   18.0150  -32.7520 C   0  0  0  0  0  0  0  0  0  0  0  0
   -7.1342   17.4960  -33.6666 H   0  0  0  0  0  0  0  0  0  0  0  0
   -8.4791   17.7212  -32.4711 H   0  0  0  0  0  0  0  0  0  0  0  0
   -6.5170   17.6290  -31.6040 C   0  0  0  0  0  0  0  0  0  0  0  0
   -7.0105   17.8317  -30.6421 H   0  0  0  0  0  0  0  0  0  0  0  0
   -6.2742   16.5584  -31.6731 H   0  0  0  0  0  0  0  0  0  0  0  0
   -5.5918   18.2200  -31.6731 H   0  0  0  0  0  0  0  0  0  0  0  0
   -8.1020   20.2590  -31.9210 C   0  0  0  0  0  0  0  0  0  0  0  0
   -8.2589   19.5886  -31.0631 H   0  0  0  0  0  0  0  0  0  0  0  0
   -7.4272   21.1009  -31.7066 H   0  0  0  0  0  0  0  0  0  0  0  0
   -9.4590   20.8860  -32.2880 C   0  0  0  0  0  0  0  0  0  0  0  0
  -10.0067   21.1391  -31.3682 H   0  0  0  0  0  0  0  0  0  0  0  0
   -9.2933   21.7988  -32.8790 H   0  0  0  0  0  0  0  0  0  0  0  0
  -10.0467   20.1682  -32.8790 H   0  0  0  0  0  0  0  0  0  0  0  0
   -5.6790   22.2050  -32.2640 C   0  0  0  0  0  0  0  0  0  0  0  0
   -6.4200   22.6532  -32.9423 H   0  0  0  0  0  0  0  0  0  0  0  0
   -5.0240   22.9890  -31.3160 C   0  0  0  0  0  0  0  0  0  0  0  0
   -5.3310   24.2140  -31.2270 O   0  0  0  0  0  0  0  0  0  0  0  0
   -4.0830   22.4370  -30.4790 N   0  0  0  0  0  0  0  0  0  0  0  0
   -3.5520   23.2820  -29.4390 C   0  0  0  0  0  0  0  0  0  0  0  0
   -4.0750   23.2100  -28.1400 C   0  0  0  0  0  0  0  0  0  0  0  0
   -4.8761   22.4921  -27.9100 H   0  0  0  0  0  0  0  0  0  0  0  0
   -3.5810   24.0480  -27.1370 C   0  0  0  0  0  0  0  0  0  0  0  0
   -3.9856   23.9797  -26.1164 H   0  0  0  0  0  0  0  0  0  0  0  0
   -2.5750   24.9720  -27.4270 C   0  0  0  0  0  0  0  0  0  0  0  0
   -2.1787   25.6194  -26.6308 H   0  0  0  0  0  0  0  0  0  0  0  0
   -2.0680   25.0770  -28.7320 C   0  0  0  0  0  0  0  0  0  0  0  0
   -1.0330   26.0170  -29.0290 N   0  0  0  0  0  0  0  0  0  0  0  0
   -0.0800   25.9120  -28.6150 H   0  0  0  0  0  0  0  0  0  0  0  0
   -1.2000   26.8000  -29.7000 H   0  0  0  0  0  0  0  0  0  0  0  0
   -2.5740   24.2430  -29.7410 C   0  0  0  0  0  0  0  0  0  0  0  0
   -2.2031   24.3426  -30.7718 H   0  0  0  0  0  0  0  0  0  0  0  0
   -0.8370   21.7640  -29.3970 C   0  0  0  0  0  0  0  0  0  0  0  0
   -0.7360   21.9839  -30.4701 H   0  0  0  0  0  0  0  0  0  0  0  0
  1  2  1  0
  2  3  2  0
  3  4  1  0
  3  5  1  0
  5  6  1  0
  5  7  2  0
  7  8  1  0
  8  9  1  0
  8 10  1  0
  8 11  1  0
  7 12  1  0
 12 13  1  0
 13 14  2  0
 14 15  1  0
 15 16  1  0
 16 17  1  0
 17 18  2  0
 17 19  1  0
 19 20  1  0
 19 21  1  0
 21 22  1  0
 21 23  1  0
 21 24  1  0
 24 25  1  0
 24 26  1  0
 24 27  1  0
 19 28  1  0
 28 29  1  0
 28 30  1  0
 28 31  1  0
 31 32  1  0
 31 33  1  0
 31 34  1  0
 16 35  2  0
 35 36  1  0
 35 37  1  0
 37 38  2  0
 37 39  1  0
 39 40  1  0
 40 41  2  0
 41 42  1  0
 41 43  1  0
 43 44  1  0
 43 45  2  0
 45 46  1  0
 45 47  1  0
 47 48  1  0
 48 49  1  0
 48 50  1  0
 47 51  2  0
 51 52  1  0
 12 53  2  0
 53 54  1  0
 53  2  1  0
 39 14  1  0
 51 40  1  0
M  CHG  2  15  -1  19   1
M  END
>  <UniqueID>  (7) 
7

>  <SMILES>  (7) 
CC[NH+](CC)C(=O)c1cc(=O)n(-c2cccc(N)c2)/c(=N\c2ccccc2C)[n-]1

>  <Energy>  (7) 
83.496073319419

>  <Genealogy>  (7) 
CC[NH+](CC)C(=O)c1cc(=O)n(-c2cccc(N)c2)c(=Nc2ccccc2C)[n-]1 (protonated)
CC[NH+](CC)C(=O)c1cc(=O)n(-c2cccc(N)c2)/c(=N\c2ccccc2C)[n-]1 (cis-trans isomerization)
CC[NH+](CC)C(=O)c1cc(=O)n(-c2cccc(N)c2)/c(=N\c2ccccc2C)[n-]1 (3D coordinates assigned)
CC[NH+](CC)C(=O)c1cc(=O)n(-c2cccc(N)c2)/c(=N\c2ccccc2C)[n-]1 (optimized conformer: 83.496073319419 kcal/mol)

>  <smiles>  (7) 
CCN(CC)C(=O)c1cc(=O)n(-c2cccc(N)c2)c(=Nc2ccccc2C)[nH]1

>  <score_type>  (7) 
oracle

>  <origin>  (7) 
adgpu

>  <m_score__min__energy>  (7) 
-8.8699999999999992

>  <m_primary>  (7) 
energy

$$$$
7:0
     RDKit          3D

 36 38  0  0  0  0  0  0  0  0999 V2000
   -7.8376   23.0570  -29.6508 H   0  0  0  0  0  0  0  0  0  0  0  0
   -7.5810   22.4420  -30.5260 C   0  0  0  0  0  0  0  0  0  0  0  0
   -8.5260   21.5570  -31.0520 C   0  0  0  0  0  0  0  0  0  0  0  0
   -9.5173   21.4720  -30.5829 H   0  0  0  0  0  0  0  0  0  0  0  0
   -8.2160   20.7770  -32.1750 C   0  0  0  0  0  0  0  0  0  0  0  0
   -9.2100   19.7920  -32.7150 C   0  0  0  0  0  0  0  0  0  0  0  0
   -9.7182   19.2884  -31.8795 H   0  0  0  0  0  0  0  0  0  0  0  0
   -9.9526   20.3206  -33.3308 H   0  0  0  0  0  0  0  0  0  0  0  0
   -8.6882   19.0447  -33.3308 H   0  0  0  0  0  0  0  0  0  0  0  0
   -6.9390   20.8690  -32.7450 C   0  0  0  0  0  0  0  0  0  0  0  0
   -6.6789   20.2398  -33.6090 H   0  0  0  0  0  0  0  0  0  0  0  0
   -5.9930   21.7570  -32.2210 C   0  0  0  0  0  0  0  0  0  0  0  0
   -4.9985   21.8324  -32.6851 H   0  0  0  0  0  0  0  0  0  0  0  0
   -6.3050   22.5530  -31.1060 C   0  0  0  0  0  0  0  0  0  0  0  0
   -5.2910   23.4520  -30.5190 C   0  0  0  0  0  0  0  0  0  0  0  0
   -4.6070   24.3760  -31.2200 N   0  0  0  0  0  0  0  0  0  0  0  0
   -3.7370   24.9200  -30.3880 N   0  0  0  0  0  0  0  0  0  0  0  0
   -3.9070   24.3060  -29.2060 C   0  0  0  0  0  0  0  0  0  0  0  0
   -2.8680   24.5890  -27.7750 S   0  0  0  0  0  0  0  0  0  0  0  0
   -1.8360   23.1000  -28.0260 C   0  0  0  0  0  0  0  0  0  0  0  0
   -1.3978   22.8014  -27.0623 H   0  0  0  0  0  0  0  0  0  0  0  0
   -2.4742   22.2997  -28.4286 H   0  0  0  0  0  0  0  0  0  0  0  0
   -0.7330   23.3600  -29.0030 C   0  0  0  0  0  0  0  0  0  0  0  0
   -0.1030   24.4510  -28.9600 O   0  0  0  0  0  0  0  0  0  0  0  0
   -0.4340   22.3670  -29.9970 N   0  0  0  0  0  0  0  0  0  0  0  0
   -1.2510   21.8520  -30.8710 C   0  0  0  0  0  0  0  0  0  0  0  0
   -0.7810   20.6860  -31.9890 S   0  0  0  0  0  0  0  0  0  0  0  0
   -2.3090   20.7170  -32.7000 C   0  0  0  0  0  0  0  0  0  0  0  0
   -2.7240   19.8840  -33.8650 C   0  0  0  0  0  0  0  0  0  0  0  0
   -3.1874   18.9539  -33.5042 H   0  0  0  0  0  0  0  0  0  0  0  0
   -3.4493   20.4423  -34.4751 H   0  0  0  0  0  0  0  0  0  0  0  0
   -1.8415   19.6413  -34.4751 H   0  0  0  0  0  0  0  0  0  0  0  0
   -3.1260   21.5970  -32.0800 N   0  0  0  0  0  0  0  0  0  0  0  0
   -2.5370   22.2340  -31.0680 N   0  0  0  0  0  0  0  0  0  0  0  0
   -3.0390   22.9730  -30.5310 H   0  0  0  0  0  0  0  0  0  0  0  0
   -4.8750   23.3710  -29.2380 N   0  0  0  0  0  0  0  0  0  0  0  0
  1  2  1  0
  2  3  2  0
  3  4  1  0
  3  5  1  0
  5  6  1  0
  6  7  1  0
  6  8  1  0
  6  9  1  0
  5 10  2  0
 10 11  1  0
 10 12  1  0
 12 13  1  0
 12 14  2  0
 14 15  1  0
 15 16  2  0
 16 17  1  0
 17 18  1  0
 18 19  1  0
 19 20  1  0
 20 21  1  0
 20 22  1  0
 20 23  1  0
 23 24  2  0
 23 25  1  0
 25 26  2  0
 26 27  1  0
 27 28  1  0
 28 29  1  0
 29 30  1  0
 29 31  1  0
 29 32  1  0
 28 33  2  0
 33 34  1  0
 34 35  1  0
 18 36  2  0
 14  2  1  0
 36 15  1  0
 34 26  1  0
M  CHG  1  17  -1
M  END
>  <UniqueID>  (8) 
8

>  <SMILES>  (8) 
Cc1ccc(-c2n[n-]c(SCC(=O)/N=c3\[nH]nc(C)s3)n2)cc1

>  <Energy>  (8) 
97.53500781921775

>  <Genealogy>  (8) 
Cc1ccc(-c2n[n-]c(SCC(=O)N=c3[nH]nc(C)s3)n2)cc1 (protonated)
Cc1ccc(-c2n[n-]c(SCC(=O)/N=c3\[nH]nc(C)s3)n2)cc1 (cis-trans isomerization)
Cc1ccc(-c2n[n-]c(SCC(=O)/N=c3\[nH]nc(C)s3)n2)cc1 (3D coordinates assigned)
Cc1ccc(-c2n[n-]c(SCC(=O)/N=c3\[nH]nc(C)s3)n2)cc1 (optimized conformer: 97.53500781921775 kcal/mol)

>  <smiles>  (8) 
Cc1ccc(-c2n[nH]c(SCC(=O)N=c3[nH]nc(C)s3)n2)cc1

>  <score_type>  (8) 
oracle

>  <origin>  (8) 
adgpu

>  <m_score__min__energy>  (8) 
-9.1500000000000004

>  <m_primary>  (8) 
energy

$$$$
8:0
     RDKit          3D

 40 42  0  0  0  0  0  0  0  0999 V2000
   -3.0710   19.2970  -26.7370 C   0  0  0  0  0  0  0  0  0  0  0  0
   -1.6780   19.7530  -27.0110 C   0  0  0  0  0  0  0  0  0  0  0  0
   -0.7820   18.8990  -27.2450 O   0  0  0  0  0  0  0  0  0  0  0  0
   -1.4040   21.1570  -27.1070 N   0  0  0  0  0  0  0  0  0  0  0  0
   -2.0030   22.0980  -28.0110 C   0  0  0  0  0  0  0  0  0  0  0  0
   -2.6890   23.1940  -27.4750 C   0  0  0  0  0  0  0  0  0  0  0  0
   -3.2750   24.1450  -28.3160 C   0  0  0  0  0  0  0  0  0  0  0  0
   -3.1870   24.0090  -29.7050 C   0  0  0  0  0  0  0  0  0  0  0  0
   -3.7500   25.0260  -30.5430 N   0  0  0  0  0  0  0  0  0  0  0  0
   -5.1430   25.1920  -30.8410 C   0  0  0  0  0  0  0  0  0  0  0  0
   -5.7280   26.2360  -30.4530 O   0  0  0  0  0  0  0  0  0  0  0  0
   -5.9520   24.0880  -31.4550 C   0  0  0  0  0  0  0  0  0  0  0  0
   -6.0620   22.7080  -30.2730 S   0  0  0  0  0  0  0  0  0  0  0  0
   -7.4550   21.9490  -31.1140 C   0  0  0  0  0  0  0  0  0  0  0  0
   -8.7340   22.2990  -30.8910 N   0  0  0  0  0  0  0  0  0  0  0  0
   -9.4400   21.5980  -31.7700 N   0  0  0  0  0  0  0  0  0  0  0  0
   -8.6330   20.8540  -32.5100 N   0  0  0  0  0  0  0  0  0  0  0  0
   -7.3870   21.0500  -32.1140 N   0  0  0  0  0  0  0  0  0  0  0  0
   -6.2380   20.4300  -32.7200 C   0  0  0  0  0  0  0  0  0  0  0  0
   -6.3640   19.1700  -33.3260 C   0  0  0  0  0  0  0  0  0  0  0  0
   -5.2490   18.5390  -33.8850 C   0  0  0  0  0  0  0  0  0  0  0  0
   -3.9990   19.1580  -33.8430 C   0  0  0  0  0  0  0  0  0  0  0  0
   -3.8590   20.4080  -33.2320 C   0  0  0  0  0  0  0  0  0  0  0  0
   -2.2850   21.1790  -33.1660 Cl  0  0  0  0  0  0  0  0  0  0  0  0
   -4.9710   21.0390  -32.6660 C   0  0  0  0  0  0  0  0  0  0  0  0
   -2.4560   22.9410  -30.2460 C   0  0  0  0  0  0  0  0  0  0  0  0
   -1.8700   21.9880  -29.4070 C   0  0  0  0  0  0  0  0  0  0  0  0
   -3.2324   19.2442  -25.6502 H   0  0  0  0  0  0  0  0  0  0  0  0
   -3.7835   20.0088  -27.1793 H   0  0  0  0  0  0  0  0  0  0  0  0
   -3.2247   18.3017  -27.1793 H   0  0  0  0  0  0  0  0  0  0  0  0
   -2.7677   23.3081  -26.3838 H   0  0  0  0  0  0  0  0  0  0  0  0
   -3.8078   25.0044  -27.8829 H   0  0  0  0  0  0  0  0  0  0  0  0
   -6.9622   24.4561  -31.6875 H   0  0  0  0  0  0  0  0  0  0  0  0
   -5.4707   23.7457  -32.3830 H   0  0  0  0  0  0  0  0  0  0  0  0
   -7.3463   18.6762  -33.3612 H   0  0  0  0  0  0  0  0  0  0  0  0
   -5.3571   17.5523  -34.3591 H   0  0  0  0  0  0  0  0  0  0  0  0
   -3.1244   18.6630  -34.2902 H   0  0  0  0  0  0  0  0  0  0  0  0
   -4.8545   22.0169  -32.1759 H   0  0  0  0  0  0  0  0  0  0  0  0
   -2.3431   22.8526  -31.3366 H   0  0  0  0  0  0  0  0  0  0  0  0
   -1.3036   21.1502  -29.8398 H   0  0  0  0  0  0  0  0  0  0  0  0
  1  2  1  0
  2  3  2  0
  2  4  1  0
  4  5  1  0
  5  6  2  0
  6  7  1  0
  7  8  2  0
  8  9  1  0
  9 10  1  0
 10 11  2  0
 10 12  1  0
 12 13  1  0
 13 14  1  0
 14 15  2  0
 15 16  1  0
 16 17  2  0
 17 18  1  0
 18 19  1  0
 19 20  2  0
 20 21  1  0
 21 22  2  0
 22 23  1  0
 23 24  1  0
 23 25  2  0
  8 26  1  0
 26 27  2  0
 27  5  1  0
 18 14  1  0
 25 19  1  0
  1 28  1  0
  1 29  1  0
  1 30  1  0
  6 31  1  0
  7 32  1  0
 12 33  1  0
 12 34  1  0
 20 35  1  0
 21 36  1  0
 22 37  1  0
 25 38  1  0
 26 39  1  0
 27 40  1  0
M  CHG  2   4  -1   9  -1
M  END
>  <UniqueID>  (9) 
9

>  <SMILES>  (9) 
CC(=O)[N-]c1ccc([N-]C(=O)CSc2nnnn2-c2cccc(Cl)c2)cc1

>  <Energy>  (9) 
84.0101531190987

>  <Genealogy>  (9) 
CC(=O)[N-]c1ccc([N-]C(=O)CSc2nnnn2-c2cccc(Cl)c2)cc1 (protonated)
CC(=O)[N-]c1ccc([N-]C(=O)CSc2nnnn2-c2cccc(Cl)c2)cc1 (3D coordinates assigned)
CC(=O)[N-]c1ccc([N-]C(=O)CSc2nnnn2-c2cccc(Cl)c2)cc1 (optimized conformer: 84.0101531190987 kcal/mol)

>  <smiles>  (9) 
CC(=O)Nc1ccc(NC(=O)CSc2nnnn2-c2cccc(Cl)c2)cc1

>  <score_type>  (9) 
oracle

>  <origin>  (9) 
adgpu

>  <m_score__min__energy>  (9) 
-11.42

>  <m_primary>  (9) 
energy

$$$$
9:0
     RDKit          3D

 56 60  0  0  0  0  0  0  0  0999 V2000
   -0.9180   19.7530  -33.6330 C   0  0  0  0  0  0  0  0  0  0  0  0
   -0.3320   18.4290  -33.8990 N   0  0  0  0  0  0  0  0  0  0  0  0
   -0.2520   17.6130  -32.6610 C   0  0  0  0  0  0  0  0  0  0  0  0
   -1.3810   16.5740  -32.5760 C   0  0  0  0  0  0  0  0  0  0  0  0
   -1.3290   15.6250  -33.7120 N   0  0  0  0  0  0  0  0  0  0  0  0
   -2.6350   14.9570  -33.8860 C   0  0  0  0  0  0  0  0  0  0  0  0
   -3.7580   15.8960  -33.5320 C   0  0  0  0  0  0  0  0  0  0  0  0
   -4.5000   15.7140  -32.3560 C   0  0  0  0  0  0  0  0  0  0  0  0
   -5.5460   16.5860  -32.0380 C   0  0  0  0  0  0  0  0  0  0  0  0
   -5.8690   17.6570  -32.8920 C   0  0  0  0  0  0  0  0  0  0  0  0
   -6.9900   18.5730  -32.5660 C   0  0  0  0  0  0  0  0  0  0  0  0
   -8.3350   18.1680  -32.7470 C   0  0  0  0  0  0  0  0  0  0  0  0
   -9.3920   19.0350  -32.4370 C   0  0  0  0  0  0  0  0  0  0  0  0
   -9.0750   20.3040  -31.9630 C   0  0  0  0  0  0  0  0  0  0  0  0
   -9.9650   21.2470  -31.5920 N   0  0  0  0  0  0  0  0  0  0  0  0
   -9.1870   22.2790  -31.1910 C   0  0  0  0  0  0  0  0  0  0  0  0
   -7.8500   21.9470  -31.3350 C   0  0  0  0  0  0  0  0  0  0  0  0
   -6.7010   22.8300  -31.0360 C   0  0  0  0  0  0  0  0  0  0  0  0
   -6.8780   24.0190  -30.3100 C   0  0  0  0  0  0  0  0  0  0  0  0
   -5.7810   24.8340  -30.0110 C   0  0  0  0  0  0  0  0  0  0  0  0
   -4.4960   24.4630  -30.4190 C   0  0  0  0  0  0  0  0  0  0  0  0
   -3.4120   25.2830  -30.1130 O   0  0  0  0  0  0  0  0  0  0  0  0
   -4.3090   23.2680  -31.1270 C   0  0  0  0  0  0  0  0  0  0  0  0
   -5.4040   22.4540  -31.4290 C   0  0  0  0  0  0  0  0  0  0  0  0
   -7.7950   20.6890  -31.8170 N   0  0  0  0  0  0  0  0  0  0  0  0
   -6.7390   19.8710  -32.0720 C   0  0  0  0  0  0  0  0  0  0  0  0
   -5.1170   17.8380  -34.0670 C   0  0  0  0  0  0  0  0  0  0  0  0
   -4.0730   16.9660  -34.3840 C   0  0  0  0  0  0  0  0  0  0  0  0
   -0.8420   16.2400  -34.9730 C   0  0  0  0  0  0  0  0  0  0  0  0
   -1.0610   17.7590  -35.0020 C   0  0  0  0  0  0  0  0  0  0  0  0
   -0.9881   19.9114  -32.5467 H   0  0  0  0  0  0  0  0  0  0  0  0
   -0.2806   20.5320  -34.0768 H   0  0  0  0  0  0  0  0  0  0  0  0
   -1.9232   19.8050  -34.0768 H   0  0  0  0  0  0  0  0  0  0  0  0
    0.7145   17.0879  -32.6448 H   0  0  0  0  0  0  0  0  0  0  0  0
   -0.3533   18.2924  -31.8019 H   0  0  0  0  0  0  0  0  0  0  0  0
   -1.2804   16.0123  -31.6356 H   0  0  0  0  0  0  0  0  0  0  0  0
   -2.3436   17.1051  -32.6125 H   0  0  0  0  0  0  0  0  0  0  0  0
   -2.7436   14.6414  -34.9342 H   0  0  0  0  0  0  0  0  0  0  0  0
   -2.6791   14.0822  -33.2206 H   0  0  0  0  0  0  0  0  0  0  0  0
   -4.2579   14.8807  -31.6800 H   0  0  0  0  0  0  0  0  0  0  0  0
   -6.1211   16.4336  -31.1128 H   0  0  0  0  0  0  0  0  0  0  0  0
   -8.5526   17.1620  -33.1351 H   0  0  0  0  0  0  0  0  0  0  0  0
  -10.4388   18.7219  -32.5645 H   0  0  0  0  0  0  0  0  0  0  0  0
   -9.5611   23.2397  -30.8073 H   0  0  0  0  0  0  0  0  0  0  0  0
   -7.8842   24.3109  -29.9748 H   0  0  0  0  0  0  0  0  0  0  0  0
   -5.9298   25.7701  -29.4529 H   0  0  0  0  0  0  0  0  0  0  0  0
   -2.8270   25.6790  -30.8390 H   0  0  0  0  0  0  0  0  0  0  0  0
   -3.2990   22.9705  -31.4454 H   0  0  0  0  0  0  0  0  0  0  0  0
   -5.2505   21.5130  -31.9777 H   0  0  0  0  0  0  0  0  0  0  0  0
   -5.7088   20.2145  -31.8966 H   0  0  0  0  0  0  0  0  0  0  0  0
   -5.3533   18.6737  -34.7421 H   0  0  0  0  0  0  0  0  0  0  0  0
   -3.4942   17.1187  -35.3069 H   0  0  0  0  0  0  0  0  0  0  0  0
    0.2341   16.0356  -35.0738 H   0  0  0  0  0  0  0  0  0  0  0  0
   -1.4135   15.8014  -35.8043 H   0  0  0  0  0  0  0  0  0  0  0  0
   -0.7000   18.1549  -35.9627 H   0  0  0  0  0  0  0  0  0  0  0  0
   -2.1359   17.9574  -34.8788 H   0  0  0  0  0  0  0  0  0  0  0  0
  1  2  1  0
  2  3  1  0
  3  4  1  0
  4  5  1  0
  5  6  1  0
  6  7  1  0
  7  8  2  0
  8  9  1  0
  9 10  2  0
 10 11  1  0
 11 12  1  0
 12 13  2  0
 13 14  1  0
 14 15  2  0
 15 16  1  0
 16 17  2  0
 17 18  1  0
 18 19  2  0
 19 20  1  0
 20 21  2  0
 21 22  1  0
 21 23  1  0
 23 24  2  0
 17 25  1  0
 25 26  1  0
 10 27  1  0
 27 28  2  0
  5 29  1  0
 29 30  1  0
 30  2  1  0
 28  7  1  0
 26 11  2  0
 25 14  1  0
 24 18  1  0
  1 31  1  0
  1 32  1  0
  1 33  1  0
  3 34  1  0
  3 35  1  0
  4 36  1  0
  4 37  1  0
  6 38  1  0
  6 39  1  0
  8 40  1  0
  9 41  1  0
 12 42  1  0
 13 43  1  0
 16 44  1  0
 19 45  1  0
 20 46  1  0
 22 47  1  0
 23 48  1  0
 24 49  1  0
 26 50  1  0
 27 51  1  0
 28 52  1  0
 29 53  1  0
 29 54  1  0
 30 55  1  0
 30 56  1  0
M  END
>  <UniqueID>  (10) 
10

>  <SMILES>  (10) 
CN1CCN(Cc2ccc(-c3ccc4ncc(-c5ccc(O)cc5)n4c3)cc2)CC1

>  <Energy>  (10) 
117.73981763351405

>  <Genealogy>  (10) 
CN1CCN(Cc2ccc(-c3ccc4ncc(-c5ccc(O)cc5)n4c3)cc2)CC1 (3D coordinates assigned)
CN1CCN(Cc2ccc(-c3ccc4ncc(-c5ccc(O)cc5)n4c3)cc2)CC1 (nonaromatic ring conformer: 117.73981763351405 kcal/mol)

>  <smiles>  (10) 
CN1CCN(Cc2ccc(-c3ccc4ncc(-c5ccc(O)cc5)n4c3)cc2)CC1

>  <score_type>  (10) 
oracle

>  <origin>  (10) 
adgpu

>  <m_score__min__energy>  (10) 
-10.109999999999999

>  <m_primary>  (10) 
energy

$$$$
10:0
     RDKit          3D

 42 44  0  0  0  0  0  0  0  0999 V2000
   -2.1690   22.6780  -27.3600 C   0  0  0  0  0  0  0  0  0  0  0  0
   -2.1240   24.0020  -27.2190 C   0  0  0  0  0  0  0  0  0  0  0  0
   -1.6850   24.8990  -28.2990 C   0  0  0  0  0  0  0  0  0  0  0  0
   -0.4860   25.2860  -28.3190 O   0  0  0  0  0  0  0  0  0  0  0  0
   -2.5930   25.2840  -29.3420 N   0  0  0  0  0  0  0  0  0  0  0  0
   -3.7350   24.5430  -29.8010 C   0  0  0  0  0  0  0  0  0  0  0  0
   -5.0510   24.9330  -29.4950 C   0  0  0  0  0  0  0  0  0  0  0  0
   -6.1330   24.1700  -29.9450 C   0  0  0  0  0  0  0  0  0  0  0  0
   -5.9210   22.9930  -30.6720 C   0  0  0  0  0  0  0  0  0  0  0  0
   -7.0630   22.2560  -31.1430 N   0  0  0  0  0  0  0  0  0  0  0  0
   -7.0710   21.0470  -31.6220 C   0  0  0  0  0  0  0  0  0  0  0  0
   -8.2410   20.5200  -32.0670 N   0  0  0  0  0  0  0  0  0  0  0  0
   -8.3030   19.2540  -32.5550 C   0  0  0  0  0  0  0  0  0  0  0  0
   -7.1490   18.4650  -32.6130 C   0  0  0  0  0  0  0  0  0  0  0  0
   -7.2230   17.1160  -33.1070 N   0  0  0  0  0  0  0  0  0  0  0  0
   -6.3030   16.5650  -34.0640 C   0  0  0  0  0  0  0  0  0  0  0  0
   -5.6530   17.3370  -34.8230 O   0  0  0  0  0  0  0  0  0  0  0  0
   -6.1440   15.0970  -34.2080 C   0  0  0  0  0  0  0  0  0  0  0  0
   -4.9060   14.4880  -33.9280 C   0  0  0  0  0  0  0  0  0  0  0  0
   -4.7520   13.1040  -34.0560 C   0  0  0  0  0  0  0  0  0  0  0  0
   -5.8300   12.3130  -34.4580 C   0  0  0  0  0  0  0  0  0  0  0  0
   -7.0660   12.9040  -34.7290 C   0  0  0  0  0  0  0  0  0  0  0  0
   -7.2260   14.2880  -34.6030 C   0  0  0  0  0  0  0  0  0  0  0  0
   -5.9580   19.0150  -32.1200 C   0  0  0  0  0  0  0  0  0  0  0  0
   -5.9430   20.2830  -31.6370 N   0  0  0  0  0  0  0  0  0  0  0  0
   -4.6040   22.6080  -30.9850 C   0  0  0  0  0  0  0  0  0  0  0  0
   -3.5230   23.3710  -30.5350 C   0  0  0  0  0  0  0  0  0  0  0  0
   -2.5044   22.0469  -26.5238 H   0  0  0  0  0  0  0  0  0  0  0  0
   -1.8708   22.2159  -28.3126 H   0  0  0  0  0  0  0  0  0  0  0  0
   -2.4270   24.4416  -26.2573 H   0  0  0  0  0  0  0  0  0  0  0  0
   -5.2297   25.8408  -28.9000 H   0  0  0  0  0  0  0  0  0  0  0  0
   -7.1599   24.4978  -29.7257 H   0  0  0  0  0  0  0  0  0  0  0  0
   -9.2632   18.8478  -32.9056 H   0  0  0  0  0  0  0  0  0  0  0  0
   -8.0540   16.5430  -32.8380 H   0  0  0  0  0  0  0  0  0  0  0  0
   -4.0540   15.1050  -33.6064 H   0  0  0  0  0  0  0  0  0  0  0  0
   -3.7796   12.6376  -33.8395 H   0  0  0  0  0  0  0  0  0  0  0  0
   -5.7058   11.2249  -34.5612 H   0  0  0  0  0  0  0  0  0  0  0  0
   -7.9158   12.2797  -35.0423 H   0  0  0  0  0  0  0  0  0  0  0  0
   -8.2033   14.7468  -34.8139 H   0  0  0  0  0  0  0  0  0  0  0  0
   -5.0341   18.4180  -32.1246 H   0  0  0  0  0  0  0  0  0  0  0  0
   -4.4249   21.7040  -31.5855 H   0  0  0  0  0  0  0  0  0  0  0  0
   -2.4961   23.0471  -30.7600 H   0  0  0  0  0  0  0  0  0  0  0  0
  1  2  2  0
  2  3  1  0
  3  4  2  0
  3  5  1  0
  5  6  1  0
  6  7  2  0
  7  8  1  0
  8  9  2  0
  9 10  1  0
 10 11  2  3
 11 12  1  0
 12 13  2  0
 13 14  1  0
 14 15  1  0
 15 16  1  0
 16 17  2  0
 16 18  1  0
 18 19  2  0
 19 20  1  0
 20 21  2  0
 21 22  1  0
 22 23  2  0
 14 24  2  0
 24 25  1  0
  9 26  1  0
 26 27  2  0
 27  6  1  0
 25 11  1  0
 23 18  1  0
  1 28  1  0
  1 29  1  0
  2 30  1  0
  7 31  1  0
  8 32  1  0
 13 33  1  0
 15 34  1  0
 19 35  1  0
 20 36  1  0
 21 37  1  0
 22 38  1  0
 23 39  1  0
 24 40  1  0
 26 41  1  0
 27 42  1  0
M  CHG  2   5  -1  25  -1
M  END
>  <UniqueID>  (11) 
11

>  <SMILES>  (11) 
C=CC(=O)[N-]c1ccc(N=c2ncc(NC(=O)c3ccccc3)c[n-]2)cc1

>  <Energy>  (11) 
59.186483472104776

>  <Genealogy>  (11) 
C=CC(=O)[N-]c1ccc(N=c2ncc(NC(=O)c3ccccc3)c[n-]2)cc1 (protonated)
C=CC(=O)[N-]c1ccc(N=c2ncc(NC(=O)c3ccccc3)c[n-]2)cc1 (3D coordinates assigned)
C=CC(=O)[N-]c1ccc(N=c2ncc(NC(=O)c3ccccc3)c[n-]2)cc1 (optimized conformer: 59.186483472104776 kcal/mol)

>  <smiles>  (11) 
C=CC(=O)Nc1ccc(N=c2ncc(NC(=O)c3ccccc3)c[nH]2)cc1

>  <score_type>  (11) 
oracle

>  <origin>  (11) 
adgpu

>  <m_score__min__energy>  (11) 
-9.7400000000000002

>  <m_primary>  (11) 
energy

$$$$
11:0
     RDKit          3D

 38 39  0  0  0  0  0  0  0  0999 V2000
   -4.3880   16.9420  -33.1470 C   0  0  0  0  0  0  0  0  0  0  0  0
   -5.5880   17.8300  -32.9900 C   0  0  0  0  0  0  0  0  0  0  0  0
   -5.6750   19.0250  -33.7180 C   0  0  0  0  0  0  0  0  0  0  0  0
   -6.8070   19.8370  -33.6040 C   0  0  0  0  0  0  0  0  0  0  0  0
   -7.8760   19.4530  -32.7800 C   0  0  0  0  0  0  0  0  0  0  0  0
   -9.1150   20.3060  -32.6860 C   0  0  0  0  0  0  0  0  0  0  0  0
   -8.7800   21.6810  -32.3200 N   0  0  0  0  0  0  0  0  0  0  0  0
   -8.3480   22.1220  -31.0240 C   0  0  0  0  0  0  0  0  0  0  0  0
   -9.0980   21.9200  -30.0340 O   0  0  0  0  0  0  0  0  0  0  0  0
   -7.0800   22.8450  -30.8280 C   0  0  0  0  0  0  0  0  0  0  0  0
   -7.0770   24.0800  -30.1660 C   0  0  0  0  0  0  0  0  0  0  0  0
   -5.8860   24.7920  -30.0080 C   0  0  0  0  0  0  0  0  0  0  0  0
   -4.6790   24.2760  -30.4940 C   0  0  0  0  0  0  0  0  0  0  0  0
   -3.4840   25.0480  -30.3160 N   0  0  0  0  0  0  0  0  0  0  0  0
   -2.2480   24.7490  -29.1360 S   0  0  0  0  0  0  0  0  0  0  0  0
   -2.9860   24.3230  -27.5730 C   0  0  0  0  0  0  0  0  0  0  0  0
   -1.4360   25.9990  -28.9610 O   0  0  0  0  0  0  0  0  0  0  0  0
   -1.3440   23.6450  -29.6060 O   0  0  0  0  0  0  0  0  0  0  0  0
   -4.6780   23.0230  -31.1340 C   0  0  0  0  0  0  0  0  0  0  0  0
   -5.8700   22.3130  -31.2930 C   0  0  0  0  0  0  0  0  0  0  0  0
   -7.7900   18.2530  -32.0560 C   0  0  0  0  0  0  0  0  0  0  0  0
   -6.6560   17.4420  -32.1680 C   0  0  0  0  0  0  0  0  0  0  0  0
   -4.0077   16.6606  -32.1539 H   0  0  0  0  0  0  0  0  0  0  0  0
   -4.6727   16.0354  -33.7011 H   0  0  0  0  0  0  0  0  0  0  0  0
   -3.6042   17.4793  -33.7011 H   0  0  0  0  0  0  0  0  0  0  0  0
   -4.8499   19.3245  -34.3809 H   0  0  0  0  0  0  0  0  0  0  0  0
   -6.8602   20.7826  -34.1635 H   0  0  0  0  0  0  0  0  0  0  0  0
   -9.6250   20.3076  -33.6606 H   0  0  0  0  0  0  0  0  0  0  0  0
   -9.7699   19.8868  -31.9080 H   0  0  0  0  0  0  0  0  0  0  0  0
   -8.0171   24.4906  -29.7689 H   0  0  0  0  0  0  0  0  0  0  0  0
   -5.8965   25.7663  -29.4974 H   0  0  0  0  0  0  0  0  0  0  0  0
   -2.3494   24.6905  -26.7546 H   0  0  0  0  0  0  0  0  0  0  0  0
   -3.9813   24.7855  -27.4993 H   0  0  0  0  0  0  0  0  0  0  0  0
   -3.0833   23.2298  -27.4993 H   0  0  0  0  0  0  0  0  0  0  0  0
   -3.7346   22.6010  -31.5106 H   0  0  0  0  0  0  0  0  0  0  0  0
   -5.8589   21.3299  -31.7864 H   0  0  0  0  0  0  0  0  0  0  0  0
   -8.6177   17.9496  -31.3981 H   0  0  0  0  0  0  0  0  0  0  0  0
   -6.6016   16.4961  -31.6091 H   0  0  0  0  0  0  0  0  0  0  0  0
  1  2  1  0
  2  3  2  0
  3  4  1  0
  4  5  2  0
  5  6  1  0
  6  7  1  0
  7  8  1  0
  8  9  2  0
  8 10  1  0
 10 11  2  0
 11 12  1  0
 12 13  2  0
 13 14  1  0
 14 15  1  0
 15 16  1  0
 15 17  2  0
 15 18  2  0
 13 19  1  0
 19 20  2  0
  5 21  1  0
 21 22  2  0
 22  2  1  0
 20 10  1  0
  1 23  1  0
  1 24  1  0
  1 25  1  0
  3 26  1  0
  4 27  1  0
  6 28  1  0
  6 29  1  0
 11 30  1  0
 12 31  1  0
 16 32  1  0
 16 33  1  0
 16 34  1  0
 19 35  1  0
 20 36  1  0
 21 37  1  0
 22 38  1  0
M  CHG  2   7  -1  14  -1
M  END
>  <UniqueID>  (12) 
12

>  <SMILES>  (12) 
Cc1ccc(C[N-]C(=O)c2ccc([N-]S(C)(=O)=O)cc2)cc1

>  <Energy>  (12) 
38.2593898093877

>  <Genealogy>  (12) 
Cc1ccc(C[N-]C(=O)c2ccc([N-]S(C)(=O)=O)cc2)cc1 (protonated)
Cc1ccc(C[N-]C(=O)c2ccc([N-]S(C)(=O)=O)cc2)cc1 (3D coordinates assigned)
Cc1ccc(C[N-]C(=O)c2ccc([N-]S(C)(=O)=O)cc2)cc1 (optimized conformer: 38.2593898093877 kcal/mol)

>  <smiles>  (12) 
Cc1ccc(CNC(=O)c2ccc(NS(C)(=O)=O)cc2)cc1

>  <score_type>  (12) 
oracle

>  <origin>  (12) 
adgpu

>  <m_score__min__energy>  (12) 
-10.68

>  <m_primary>  (12) 
energy

$$$$
12:0
     RDKit          3D

 40 42  0  0  0  0  0  0  0  0999 V2000
   -4.0920   25.6120  -30.6330 O   0  0  0  0  0  0  0  0  0  0  0  0
   -4.5850   24.2270  -30.3200 S   0  0  0  0  0  0  0  0  0  0  0  0
   -5.9240   24.3170  -29.6430 O   0  0  0  0  0  0  0  0  0  0  0  0
   -4.7290   23.3020  -31.7770 N   0  0  0  0  0  0  0  0  0  0  0  0
   -4.1070   22.0340  -32.0310 C   0  0  0  0  0  0  0  0  0  0  0  0
   -2.7090   21.9070  -32.1220 C   0  0  0  0  0  0  0  0  0  0  0  0
   -2.1260   20.6560  -32.3370 C   0  0  0  0  0  0  0  0  0  0  0  0
   -2.9290   19.5210  -32.4580 C   0  0  0  0  0  0  0  0  0  0  0  0
   -4.3170   19.6350  -32.3680 C   0  0  0  0  0  0  0  0  0  0  0  0
   -4.9160   20.8860  -32.1610 C   0  0  0  0  0  0  0  0  0  0  0  0
   -6.3490   20.9780  -32.0730 N   0  0  0  0  0  0  0  0  0  0  0  0
   -7.1960   20.4300  -33.1390 C   0  0  0  0  0  0  0  0  0  0  0  0
   -8.4570   19.7530  -32.5580 C   0  0  0  0  0  0  0  0  0  0  0  0
   -8.9050   20.3070  -31.2630 N   0  0  0  0  0  0  0  0  0  0  0  0
   -8.4790   21.6950  -31.0590 C   0  0  0  0  0  0  0  0  0  0  0  0
   -6.9510   21.7760  -31.0000 C   0  0  0  0  0  0  0  0  0  0  0  0
   -3.4300   23.4200  -29.2640 C   0  0  0  0  0  0  0  0  0  0  0  0
   -3.6780   22.1170  -28.8050 C   0  0  0  0  0  0  0  0  0  0  0  0
   -2.7470   21.4670  -27.9870 C   0  0  0  0  0  0  0  0  0  0  0  0
   -3.0610   19.8380  -27.4190 Cl  0  0  0  0  0  0  0  0  0  0  0  0
   -1.5610   22.1170  -27.6260 C   0  0  0  0  0  0  0  0  0  0  0  0
   -1.3060   23.4120  -28.0850 C   0  0  0  0  0  0  0  0  0  0  0  0
   -2.2330   24.0640  -28.9040 C   0  0  0  0  0  0  0  0  0  0  0  0
   -1.9620   25.3170  -29.3490 F   0  0  0  0  0  0  0  0  0  0  0  0
   -2.0713   22.7979  -32.0233 H   0  0  0  0  0  0  0  0  0  0  0  0
   -1.0323   20.5653  -32.4111 H   0  0  0  0  0  0  0  0  0  0  0  0
   -2.4678   18.5363  -32.6243 H   0  0  0  0  0  0  0  0  0  0  0  0
   -4.9457   18.7371  -32.4601 H   0  0  0  0  0  0  0  0  0  0  0  0
   -7.5035   21.2468  -33.8086 H   0  0  0  0  0  0  0  0  0  0  0  0
   -6.6172   19.6740  -33.6899 H   0  0  0  0  0  0  0  0  0  0  0  0
   -9.2754   19.8694  -33.2837 H   0  0  0  0  0  0  0  0  0  0  0  0
   -8.1928   18.7010  -32.3751 H   0  0  0  0  0  0  0  0  0  0  0  0
   -8.5090   19.7220  -30.4890 H   0  0  0  0  0  0  0  0  0  0  0  0
   -8.8437   22.3132  -31.8925 H   0  0  0  0  0  0  0  0  0  0  0  0
   -8.8948   22.0621  -30.1091 H   0  0  0  0  0  0  0  0  0  0  0  0
   -6.6402   22.8252  -31.1121 H   0  0  0  0  0  0  0  0  0  0  0  0
   -6.6125   21.3797  -30.0313 H   0  0  0  0  0  0  0  0  0  0  0  0
   -4.6086   21.6043  -29.0896 H   0  0  0  0  0  0  0  0  0  0  0  0
   -0.8296   21.6083  -26.9809 H   0  0  0  0  0  0  0  0  0  0  0  0
   -0.3727   23.9203  -27.8010 H   0  0  0  0  0  0  0  0  0  0  0  0
  1  2  2  0
  2  3  2  0
  2  4  1  0
  4  5  1  0
  5  6  2  0
  6  7  1  0
  7  8  2  0
  8  9  1  0
  9 10  2  0
 10 11  1  0
 11 12  1  0
 12 13  1  0
 13 14  1  0
 14 15  1  0
 15 16  1  0
  2 17  1  0
 17 18  2  0
 18 19  1  0
 19 20  1  0
 19 21  2  0
 21 22  1  0
 22 23  2  0
 23 24  1  0
 10  5  1  0
 16 11  1  0
 23 17  1  0
  6 25  1  0
  7 26  1  0
  8 27  1  0
  9 28  1  0
 12 29  1  0
 12 30  1  0
 13 31  1  0
 13 32  1  0
 14 33  1  0
 15 34  1  0
 15 35  1  0
 16 36  1  0
 16 37  1  0
 18 38  1  0
 21 39  1  0
 22 40  1  0
M  CHG  1   4  -1
M  END
>  <UniqueID>  (13) 
13

>  <SMILES>  (13) 
O=S(=O)([N-]c1ccccc1N1CCNCC1)c1cc(Cl)ccc1F

>  <Energy>  (13) 
54.943932464353466

>  <Genealogy>  (13) 
O=S(=O)([N-]c1ccccc1N1CCNCC1)c1cc(Cl)ccc1F (protonated)
O=S(=O)([N-]c1ccccc1N1CCNCC1)c1cc(Cl)ccc1F (3D coordinates assigned)
O=S(=O)([N-]c1ccccc1N1CCNCC1)c1cc(Cl)ccc1F (nonaromatic ring conformer: 54.943932464353466 kcal/mol)

>  <smiles>  (13) 
O=S(=O)(Nc1ccccc1N1CCNCC1)c1cc(Cl)ccc1F

>  <score_type>  (13) 
oracle

>  <origin>  (13) 
adgpu

>  <m_score__min__energy>  (13) 
-9.3200000000000003

>  <m_primary>  (13) 
energy

$$$$
13:0
     RDKit          3D

 56 58  0  0  0  0  0  0  0  0999 V2000
   -4.2680   17.0470  -35.3830 C   0  0  0  0  0  0  0  0  0  0  0  0
   -3.1180   16.0500  -35.3060 C   0  0  0  0  0  0  0  0  0  0  0  0
   -2.8960   15.6330  -33.9170 N   0  0  0  0  0  0  0  0  0  0  0  0
   -2.2900   16.5610  -32.9540 C   0  0  0  0  0  0  0  0  0  0  0  0
   -1.6120   17.7160  -33.6810 C   0  0  0  0  0  0  0  0  0  0  0  0
   -3.4420   14.3830  -33.4590 C   0  0  0  0  0  0  0  0  0  0  0  0
   -2.9080   13.1770  -33.9410 C   0  0  0  0  0  0  0  0  0  0  0  0
   -3.4090   11.9530  -33.4920 C   0  0  0  0  0  0  0  0  0  0  0  0
   -4.4480   11.9220  -32.5620 C   0  0  0  0  0  0  0  0  0  0  0  0
   -4.9890   13.1150  -32.0750 C   0  0  0  0  0  0  0  0  0  0  0  0
   -4.4860   14.3560  -32.5070 C   0  0  0  0  0  0  0  0  0  0  0  0
   -5.0750   15.5830  -32.0420 N   0  0  0  0  0  0  0  0  0  0  0  0
   -6.0130   16.3520  -32.8140 C   0  0  0  0  0  0  0  0  0  0  0  0
   -6.6270   15.8080  -33.7730 O   0  0  0  0  0  0  0  0  0  0  0  0
   -6.3040   17.7630  -32.4680 C   0  0  0  0  0  0  0  0  0  0  0  0
   -7.5440   18.1110  -31.9000 C   0  0  0  0  0  0  0  0  0  0  0  0
   -7.8280   19.4410  -31.5760 C   0  0  0  0  0  0  0  0  0  0  0  0
   -6.8810   20.4450  -31.8190 C   0  0  0  0  0  0  0  0  0  0  0  0
   -7.2330   22.1280  -31.4390 S   0  0  0  0  0  0  0  0  0  0  0  0
   -7.6020   22.2260  -29.9850 O   0  0  0  0  0  0  0  0  0  0  0  0
   -8.3940   22.6140  -32.2640 O   0  0  0  0  0  0  0  0  0  0  0  0
   -5.8220   23.1050  -31.7640 N   0  0  0  0  0  0  0  0  0  0  0  0
   -6.1220   24.5460  -31.6130 C   0  0  0  0  0  0  0  0  0  0  0  0
   -5.5300   25.1320  -30.3190 C   0  0  0  0  0  0  0  0  0  0  0  0
   -4.1200   24.9790  -30.2330 O   0  0  0  0  0  0  0  0  0  0  0  0
   -3.6380   23.7660  -30.8000 C   0  0  0  0  0  0  0  0  0  0  0  0
   -4.6980   22.6590  -30.9180 C   0  0  0  0  0  0  0  0  0  0  0  0
   -5.6520   20.1080  -32.3980 C   0  0  0  0  0  0  0  0  0  0  0  0
   -5.3640   18.7790  -32.7210 C   0  0  0  0  0  0  0  0  0  0  0  0
   -4.5843   17.3212  -34.3658 H   0  0  0  0  0  0  0  0  0  0  0  0
   -3.9366   17.9483  -35.9194 H   0  0  0  0  0  0  0  0  0  0  0  0
   -5.1132   16.5911  -35.9194 H   0  0  0  0  0  0  0  0  0  0  0  0
   -3.3621   15.1671  -35.9151 H   0  0  0  0  0  0  0  0  0  0  0  0
   -2.2036   16.5294  -35.6855 H   0  0  0  0  0  0  0  0  0  0  0  0
   -3.0736   16.9594  -32.2927 H   0  0  0  0  0  0  0  0  0  0  0  0
   -1.5356   16.0197  -32.3642 H   0  0  0  0  0  0  0  0  0  0  0  0
   -1.1984   18.4206  -32.9445 H   0  0  0  0  0  0  0  0  0  0  0  0
   -0.7995   17.3259  -34.3117 H   0  0  0  0  0  0  0  0  0  0  0  0
   -2.3487   18.2352  -34.3117 H   0  0  0  0  0  0  0  0  0  0  0  0
   -2.0903   13.1964  -34.6765 H   0  0  0  0  0  0  0  0  0  0  0  0
   -2.9837   11.0125  -33.8722 H   0  0  0  0  0  0  0  0  0  0  0  0
   -4.8423   10.9569  -32.2112 H   0  0  0  0  0  0  0  0  0  0  0  0
   -5.8143   13.0836  -31.3485 H   0  0  0  0  0  0  0  0  0  0  0  0
   -4.9020   15.8720  -31.0530 H   0  0  0  0  0  0  0  0  0  0  0  0
   -8.2954   17.3305  -31.7096 H   0  0  0  0  0  0  0  0  0  0  0  0
   -8.7988   19.7004  -31.1285 H   0  0  0  0  0  0  0  0  0  0  0  0
   -5.6997   25.0874  -32.4724 H   0  0  0  0  0  0  0  0  0  0  0  0
   -7.2151   24.6595  -31.5652 H   0  0  0  0  0  0  0  0  0  0  0  0
   -5.7690   26.2050  -30.2790 H   0  0  0  0  0  0  0  0  0  0  0  0
   -5.9722   24.5804  -29.4763 H   0  0  0  0  0  0  0  0  0  0  0  0
   -3.2546   23.9849  -31.8075 H   0  0  0  0  0  0  0  0  0  0  0  0
   -2.8605   23.3871  -30.1203 H   0  0  0  0  0  0  0  0  0  0  0  0
   -4.2395   21.7657  -31.3672 H   0  0  0  0  0  0  0  0  0  0  0  0
   -5.0807   22.4256  -29.9135 H   0  0  0  0  0  0  0  0  0  0  0  0
   -4.9088   20.8934  -32.5999 H   0  0  0  0  0  0  0  0  0  0  0  0
   -4.3953   18.5254  -33.1764 H   0  0  0  0  0  0  0  0  0  0  0  0
  1  2  1  0
  2  3  1  0
  3  4  1  0
  4  5  1  0
  3  6  1  0
  6  7  2  0
  7  8  1  0
  8  9  2  0
  9 10  1  0
 10 11  2  0
 11 12  1  0
 12 13  1  0
 13 14  2  0
 13 15  1  0
 15 16  2  0
 16 17  1  0
 17 18  2  0
 18 19  1  0
 19 20  2  0
 19 21  2  0
 19 22  1  0
 22 23  1  0
 23 24  1  0
 24 25  1  0
 25 26  1  0
 26 27  1  0
 18 28  1  0
 28 29  2  0
 11  6  1  0
 29 15  1  0
 27 22  1  0
  1 30  1  0
  1 31  1  0
  1 32  1  0
  2 33  1  0
  2 34  1  0
  4 35  1  0
  4 36  1  0
  5 37  1  0
  5 38  1  0
  5 39  1  0
  7 40  1  0
  8 41  1  0
  9 42  1  0
 10 43  1  0
 12 44  1  0
 16 45  1  0
 17 46  1  0
 23 47  1  0
 23 48  1  0
 24 49  1  0
 24 50  1  0
 26 51  1  0
 26 52  1  0
 27 53  1  0
 27 54  1  0
 28 55  1  0
 29 56  1  0
M  END
>  <UniqueID>  (14) 
14

>  <SMILES>  (14) 
CCN(CC)c1ccccc1NC(=O)c1ccc(S(=O)(=O)N2CCOCC2)cc1

>  <Energy>  (14) 
72.38471973759935

>  <Genealogy>  (14) 
CCN(CC)c1ccccc1NC(=O)c1ccc(S(=O)(=O)N2CCOCC2)cc1 (3D coordinates assigned)
CCN(CC)c1ccccc1NC(=O)c1ccc(S(=O)(=O)N2CCOCC2)cc1 (nonaromatic ring conformer: 72.38471973759935 kcal/mol)

>  <smiles>  (14) 
CCN(CC)c1ccccc1NC(=O)c1ccc(S(=O)(=O)N2CCOCC2)cc1

>  <score_type>  (14) 
oracle

>  <origin>  (14) 
adgpu

>  <m_score__min__energy>  (14) 
-8.5099999999999998

>  <m_primary>  (14) 
energy

$$$$
14:0
     RDKit          3D

 36 38  0  0  0  0  0  0  0  0999 V2000
   -9.5060   21.9970  -31.2500 O   0  0  0  0  0  0  0  0  0  0  0  0
   -8.3160   21.7060  -31.5450 C   0  0  0  0  0  0  0  0  0  0  0  0
   -7.3180   22.7870  -31.5930 C   0  0  0  0  0  0  0  0  0  0  0  0
   -6.9280   23.5960  -30.5430 C   0  0  0  0  0  0  0  0  0  0  0  0
   -6.0080   24.4450  -31.1190 C   0  0  0  0  0  0  0  0  0  0  0  0
   -5.2550   25.5420  -30.4310 C   0  0  0  0  0  0  0  0  0  0  0  0
   -3.8490   25.2940  -30.4550 O   0  0  0  0  0  0  0  0  0  0  0  0
   -3.1980   24.2490  -29.7780 C   0  0  0  0  0  0  0  0  0  0  0  0
   -3.6530   22.9150  -29.8240 C   0  0  0  0  0  0  0  0  0  0  0  0
   -2.9750   21.9160  -29.1190 C   0  0  0  0  0  0  0  0  0  0  0  0
   -1.8430   22.2320  -28.3670 C   0  0  0  0  0  0  0  0  0  0  0  0
   -1.3810   23.5500  -28.3190 C   0  0  0  0  0  0  0  0  0  0  0  0
   -0.2800   23.8550  -27.5880 F   0  0  0  0  0  0  0  0  0  0  0  0
   -2.0560   24.5550  -29.0230 C   0  0  0  0  0  0  0  0  0  0  0  0
   -1.6050   25.8330  -28.9670 F   0  0  0  0  0  0  0  0  0  0  0  0
   -5.9070   24.1630  -32.3960 O   0  0  0  0  0  0  0  0  0  0  0  0
   -6.6870   23.1720  -32.7190 N   0  0  0  0  0  0  0  0  0  0  0  0
   -7.9690   20.3410  -31.8410 N   0  0  0  0  0  0  0  0  0  0  0  0
   -6.9990   19.9590  -32.8560 C   0  0  0  0  0  0  0  0  0  0  0  0
   -7.0500   18.4390  -32.9220 C   0  0  0  0  0  0  0  0  0  0  0  0
   -8.3530   18.0310  -32.2430 C   0  0  0  0  0  0  0  0  0  0  0  0
   -8.7690   19.2180  -31.3830 C   0  0  0  0  0  0  0  0  0  0  0  0
   -7.2699   23.5689  -29.4978 H   0  0  0  0  0  0  0  0  0  0  0  0
   -5.4606   26.4942  -30.9420 H   0  0  0  0  0  0  0  0  0  0  0  0
   -5.5839   25.5871  -29.3823 H   0  0  0  0  0  0  0  0  0  0  0  0
   -4.5440   22.6597  -30.4163 H   0  0  0  0  0  0  0  0  0  0  0  0
   -3.3352   20.8774  -29.1573 H   0  0  0  0  0  0  0  0  0  0  0  0
   -1.3140   21.4434  -27.8117 H   0  0  0  0  0  0  0  0  0  0  0  0
   -7.2701   20.3946  -33.8290 H   0  0  0  0  0  0  0  0  0  0  0  0
   -5.9899   20.3214  -32.6105 H   0  0  0  0  0  0  0  0  0  0  0  0
   -7.0429   18.1017  -33.9690 H   0  0  0  0  0  0  0  0  0  0  0  0
   -6.1789   17.9853  -32.4267 H   0  0  0  0  0  0  0  0  0  0  0  0
   -9.1252   17.8157  -32.9962 H   0  0  0  0  0  0  0  0  0  0  0  0
   -8.2241   17.1213  -31.6382 H   0  0  0  0  0  0  0  0  0  0  0  0
   -9.8398   19.4311  -31.5171 H   0  0  0  0  0  0  0  0  0  0  0  0
   -8.6090   19.0176  -30.3133 H   0  0  0  0  0  0  0  0  0  0  0  0
  1  2  2  0
  2  3  1  0
  3  4  1  0
  4  5  2  0
  5  6  1  0
  6  7  1  0
  7  8  1  0
  8  9  2  0
  9 10  1  0
 10 11  2  0
 11 12  1  0
 12 13  1  0
 12 14  2  0
 14 15  1  0
  5 16  1  0
 16 17  1  0
  2 18  1  0
 18 19  1  0
 19 20  1  0
 20 21  1  0
 21 22  1  0
 17  3  2  0
 22 18  1  0
 14  8  1  0
  4 23  1  0
  6 24  1  0
  6 25  1  0
  9 26  1  0
 10 27  1  0
 11 28  1  0
 19 29  1  0
 19 30  1  0
 20 31  1  0
 20 32  1  0
 21 33  1  0
 21 34  1  0
 22 35  1  0
 22 36  1  0
M  END
>  <UniqueID>  (15) 
15

>  <SMILES>  (15) 
O=C(c1cc(COc2cccc(F)c2F)on1)N1CCCC1

>  <Energy>  (15) 
69.44625259799626

>  <Genealogy>  (15) 
O=C(c1cc(COc2cccc(F)c2F)on1)N1CCCC1 (3D coordinates assigned)
O=C(c1cc(COc2cccc(F)c2F)on1)N1CCCC1 (nonaromatic ring conformer: 69.44625259799626 kcal/mol)

>  <smiles>  (15) 
O=C(c1cc(COc2cccc(F)c2F)on1)N1CCCC1

>  <score_type>  (15) 
oracle

>  <origin>  (15) 
adgpu

>  <m_score__min__energy>  (15) 
-8.3800000000000008

>  <m_primary>  (15) 
energy

$$$$
15:0
     RDKit          3D

 39 41  0  0  0  0  0  0  0  0999 V2000
   -6.8990   22.3110  -32.1430 C   0  0  0  0  0  0  0  0  0  0  0  0
   -7.2890   20.8730  -32.2230 C   0  0  0  0  0  0  0  0  0  0  0  0
   -8.4020   20.3540  -31.5620 C   0  0  0  0  0  0  0  0  0  0  0  0
   -8.5230   18.7210  -31.9530 S   0  0  0  0  0  0  0  0  0  0  0  0
   -7.1690   18.7560  -32.9450 C   0  0  0  0  0  0  0  0  0  0  0  0
   -6.7240   17.7180  -33.5870 N   0  0  0  0  0  0  0  0  0  0  0  0
   -5.5760   17.6800  -34.4530 C   0  0  0  0  0  0  0  0  0  0  0  0
   -5.7090   17.8420  -35.6970 O   0  0  0  0  0  0  0  0  0  0  0  0
   -4.2290   17.4440  -33.8810 C   0  0  0  0  0  0  0  0  0  0  0  0
   -3.6960   16.1430  -33.8210 C   0  0  0  0  0  0  0  0  0  0  0  0
   -2.4230   15.9240  -33.2890 C   0  0  0  0  0  0  0  0  0  0  0  0
   -1.6700   16.9940  -32.8050 C   0  0  0  0  0  0  0  0  0  0  0  0
   -2.1870   18.2930  -32.8370 C   0  0  0  0  0  0  0  0  0  0  0  0
   -1.3950   19.3450  -32.3520 O   0  0  0  0  0  0  0  0  0  0  0  0
   -1.8800   20.5330  -31.7860 C   0  0  0  0  0  0  0  0  0  0  0  0
   -2.6860   21.4290  -32.5120 C   0  0  0  0  0  0  0  0  0  0  0  0
   -3.1590   22.5980  -31.9100 C   0  0  0  0  0  0  0  0  0  0  0  0
   -2.8410   22.8820  -30.5760 C   0  0  0  0  0  0  0  0  0  0  0  0
   -3.4450   24.3530  -29.8200 S   0  0  0  0  0  0  0  0  0  0  0  0
   -2.1230   25.3020  -29.2380 N   0  0  0  0  0  0  0  0  0  0  0  0
   -4.3370   24.0050  -28.6610 O   0  0  0  0  0  0  0  0  0  0  0  0
   -4.2260   25.1470  -30.8280 O   0  0  0  0  0  0  0  0  0  0  0  0
   -2.0630   21.9770  -29.8420 C   0  0  0  0  0  0  0  0  0  0  0  0
   -1.5900   20.8070  -30.4440 C   0  0  0  0  0  0  0  0  0  0  0  0
   -3.4600   18.5180  -33.3940 C   0  0  0  0  0  0  0  0  0  0  0  0
   -6.6120   19.9860  -33.0000 N   0  0  0  0  0  0  0  0  0  0  0  0
   -6.8177   22.6107  -31.0877 H   0  0  0  0  0  0  0  0  0  0  0  0
   -5.9291   22.4561  -32.6411 H   0  0  0  0  0  0  0  0  0  0  0  0
   -7.6627   22.9263  -32.6411 H   0  0  0  0  0  0  0  0  0  0  0  0
   -9.0811   20.9131  -30.9016 H   0  0  0  0  0  0  0  0  0  0  0  0
   -4.2855   15.2931  -34.1954 H   0  0  0  0  0  0  0  0  0  0  0  0
   -2.0128   14.9040  -33.2516 H   0  0  0  0  0  0  0  0  0  0  0  0
   -0.6646   16.8150  -32.3962 H   0  0  0  0  0  0  0  0  0  0  0  0
   -2.9449   21.2083  -33.5581 H   0  0  0  0  0  0  0  0  0  0  0  0
   -3.7831   23.2973  -32.4857 H   0  0  0  0  0  0  0  0  0  0  0  0
   -1.5960   25.6360  -30.0770 H   0  0  0  0  0  0  0  0  0  0  0  0
   -1.8236   22.1875  -28.7892 H   0  0  0  0  0  0  0  0  0  0  0  0
   -0.9862   20.0973  -29.8595 H   0  0  0  0  0  0  0  0  0  0  0  0
   -3.8575   19.5422  -33.4493 H   0  0  0  0  0  0  0  0  0  0  0  0
  1  2  1  0
  2  3  2  0
  3  4  1  0
  4  5  1  0
  5  6  2  3
  6  7  1  0
  7  8  2  0
  7  9  1  0
  9 10  2  0
 10 11  1  0
 11 12  2  0
 12 13  1  0
 13 14  1  0
 14 15  1  0
 15 16  2  0
 16 17  1  0
 17 18  2  0
 18 19  1  0
 19 20  1  0
 19 21  2  0
 19 22  2  0
 18 23  1  0
 23 24  2  0
 13 25  2  0
  5 26  1  0
 26  2  1  0
 25  9  1  0
 24 15  1  0
  1 27  1  0
  1 28  1  0
  1 29  1  0
  3 30  1  0
 10 31  1  0
 11 32  1  0
 12 33  1  0
 16 34  1  0
 17 35  1  0
 20 36  1  0
 23 37  1  0
 24 38  1  0
 25 39  1  0
M  CHG  2  20  -1  26  -1
M  END
>  <UniqueID>  (16) 
16

>  <SMILES>  (16) 
Cc1csc(=NC(=O)c2cccc(Oc3ccc(S([NH-])(=O)=O)cc3)c2)[n-]1

>  <Energy>  (16) 
78.69801829737494

>  <Genealogy>  (16) 
Cc1csc(=NC(=O)c2cccc(Oc3ccc(S([NH-])(=O)=O)cc3)c2)[n-]1 (protonated)
Cc1csc(=NC(=O)c2cccc(Oc3ccc(S([NH-])(=O)=O)cc3)c2)[n-]1 (3D coordinates assigned)
Cc1csc(=NC(=O)c2cccc(Oc3ccc(S([NH-])(=O)=O)cc3)c2)[n-]1 (optimized conformer: 78.69801829737494 kcal/mol)

>  <smiles>  (16) 
Cc1csc(=NC(=O)c2cccc(Oc3ccc(S(N)(=O)=O)cc3)c2)[nH]1

>  <score_type>  (16) 
oracle

>  <origin>  (16) 
adgpu

>  <m_score__min__energy>  (16) 
-11.08

>  <m_primary>  (16) 
energy

$$$$
16:0
     RDKit          3D

 36 38  0  0  0  0  0  0  0  0999 V2000
   -9.0350   19.2310  -31.9900 C   0  0  0  0  0  0  0  0  0  0  0  0
   -7.6350   19.0630  -32.4880 C   0  0  0  0  0  0  0  0  0  0  0  0
   -7.2390   17.8690  -33.1010 C   0  0  0  0  0  0  0  0  0  0  0  0
   -5.9220   17.7550  -33.5570 C   0  0  0  0  0  0  0  0  0  0  0  0
   -5.4570   16.5000  -34.2210 C   0  0  0  0  0  0  0  0  0  0  0  0
   -5.0650   18.8010  -33.4050 N   0  0  0  0  0  0  0  0  0  0  0  0
   -5.4680   19.9550  -32.8130 C   0  0  0  0  0  0  0  0  0  0  0  0
   -4.3200   21.3170  -32.6320 S   0  0  0  0  0  0  0  0  0  0  0  0
   -5.1370   22.0240  -31.1600 C   0  0  0  0  0  0  0  0  0  0  0  0
   -4.3940   23.2240  -30.6490 C   0  0  0  0  0  0  0  0  0  0  0  0
   -4.7420   24.4920  -30.9510 N   0  0  0  0  0  0  0  0  0  0  0  0
   -3.8600   25.2900  -30.3660 N   0  0  0  0  0  0  0  0  0  0  0  0
   -2.9850   24.4960  -29.7230 C   0  0  0  0  0  0  0  0  0  0  0  0
   -1.7340   25.0720  -28.8360 S   0  0  0  0  0  0  0  0  0  0  0  0
   -3.2920   23.1920  -29.8700 N   0  0  0  0  0  0  0  0  0  0  0  0
   -2.5810   22.0470  -29.3740 C   0  0  0  0  0  0  0  0  0  0  0  0
   -1.3600   21.6720  -29.9540 C   0  0  0  0  0  0  0  0  0  0  0  0
   -0.6690   20.5540  -29.4780 C   0  0  0  0  0  0  0  0  0  0  0  0
   -1.1880   19.8030  -28.4170 C   0  0  0  0  0  0  0  0  0  0  0  0
   -0.2920   18.4030  -27.8440 Cl  0  0  0  0  0  0  0  0  0  0  0  0
   -2.4080   20.1790  -27.8290 C   0  0  0  0  0  0  0  0  0  0  0  0
   -3.0930   19.2690  -26.4880 Cl  0  0  0  0  0  0  0  0  0  0  0  0
   -3.0970   21.2990  -28.3080 C   0  0  0  0  0  0  0  0  0  0  0  0
   -6.7410   20.0780  -32.3560 N   0  0  0  0  0  0  0  0  0  0  0  0
   -9.0354   19.2310  -30.8900 H   0  0  0  0  0  0  0  0  0  0  0  0
   -9.4427   20.1845  -32.3568 H   0  0  0  0  0  0  0  0  0  0  0  0
   -9.6567   18.4010  -32.3568 H   0  0  0  0  0  0  0  0  0  0  0  0
   -7.9489   17.0374  -33.2216 H   0  0  0  0  0  0  0  0  0  0  0  0
   -5.1827   15.7598  -33.4549 H   0  0  0  0  0  0  0  0  0  0  0  0
   -6.2651   16.0961  -34.8485 H   0  0  0  0  0  0  0  0  0  0  0  0
   -4.5808   16.7201  -34.8485 H   0  0  0  0  0  0  0  0  0  0  0  0
   -6.1611   22.3235  -31.4275 H   0  0  0  0  0  0  0  0  0  0  0  0
   -5.1497   21.2600  -30.3687 H   0  0  0  0  0  0  0  0  0  0  0  0
   -0.9450   22.2597  -30.7861 H   0  0  0  0  0  0  0  0  0  0  0  0
    0.2864   20.2633  -29.9391 H   0  0  0  0  0  0  0  0  0  0  0  0
   -4.0500   21.5938  -27.8444 H   0  0  0  0  0  0  0  0  0  0  0  0
  1  2  1  0
  2  3  2  0
  3  4  1  0
  4  5  1  0
  4  6  2  0
  6  7  1  0
  7  8  1  0
  8  9  1  0
  9 10  1  0
 10 11  2  0
 11 12  1  0
 12 13  1  0
 13 14  2  0
 13 15  1  0
 15 16  1  0
 16 17  2  0
 17 18  1  0
 18 19  2  0
 19 20  1  0
 19 21  1  0
 21 22  1  0
 21 23  2  0
  7 24  2  0
 24  2  1  0
 15 10  1  0
 23 16  1  0
  1 25  1  0
  1 26  1  0
  1 27  1  0
  3 28  1  0
  5 29  1  0
  5 30  1  0
  5 31  1  0
  9 32  1  0
  9 33  1  0
 17 34  1  0
 18 35  1  0
 23 36  1  0
M  CHG  1  12  -1
M  END
>  <UniqueID>  (17) 
17

>  <SMILES>  (17) 
Cc1cc(C)nc(SCc2n[n-]c(=S)n2-c2ccc(Cl)c(Cl)c2)n1

>  <Energy>  (17) 
74.88669363432936

>  <Genealogy>  (17) 
Cc1cc(C)nc(SCc2n[n-]c(=S)n2-c2ccc(Cl)c(Cl)c2)n1 (protonated)
Cc1cc(C)nc(SCc2n[n-]c(=S)n2-c2ccc(Cl)c(Cl)c2)n1 (3D coordinates assigned)
Cc1cc(C)nc(SCc2n[n-]c(=S)n2-c2ccc(Cl)c(Cl)c2)n1 (optimized conformer: 74.88669363432936 kcal/mol)

>  <smiles>  (17) 
Cc1cc(C)nc(SCc2n[nH]c(=S)n2-c2ccc(Cl)c(Cl)c2)n1

>  <score_type>  (17) 
oracle

>  <origin>  (17) 
adgpu

>  <m_score__min__energy>  (17) 
-10.31

>  <m_primary>  (17) 
energy

$$$$
17:0
     RDKit          3D

 30 31  0  0  0  0  0  0  0  0999 V2000
   -9.1400   22.3340  -31.9220 C   0  0  0  0  0  0  0  0  0  0  0  0
   -7.6440   22.2770  -31.8210 C   0  0  0  0  0  0  0  0  0  0  0  0
   -6.9230   21.3130  -32.5400 C   0  0  0  0  0  0  0  0  0  0  0  0
   -5.5210   21.2860  -32.4830 C   0  0  0  0  0  0  0  0  0  0  0  0
   -4.7560   20.2230  -33.2160 C   0  0  0  0  0  0  0  0  0  0  0  0
   -4.8420   22.2190  -31.6850 C   0  0  0  0  0  0  0  0  0  0  0  0
   -5.5560   23.1940  -30.9760 C   0  0  0  0  0  0  0  0  0  0  0  0
   -4.7110   24.3760  -29.9800 S   0  0  0  0  0  0  0  0  0  0  0  0
   -5.7220   25.1560  -29.1870 O   0  0  0  0  0  0  0  0  0  0  0  0
   -3.9270   25.3310  -30.8370 O   0  0  0  0  0  0  0  0  0  0  0  0
   -3.5990   23.5470  -28.8970 C   0  0  0  0  0  0  0  0  0  0  0  0
   -3.8830   22.3040  -28.3160 C   0  0  0  0  0  0  0  0  0  0  0  0
   -2.8600   21.8180  -27.5090 C   0  0  0  0  0  0  0  0  0  0  0  0
   -1.5970   22.9320  -27.5160 S   0  0  0  0  0  0  0  0  0  0  0  0
   -2.3450   24.0320  -28.5400 C   0  0  0  0  0  0  0  0  0  0  0  0
   -1.7590   25.2620  -28.9710 N   0  0  0  0  0  0  0  0  0  0  0  0
   -6.9540   23.2290  -31.0560 C   0  0  0  0  0  0  0  0  0  0  0  0
   -9.5753   22.3506  -30.9119 H   0  0  0  0  0  0  0  0  0  0  0  0
   -9.4365   23.2441  -32.4641 H   0  0  0  0  0  0  0  0  0  0  0  0
   -9.5049   21.4491  -32.4641 H   0  0  0  0  0  0  0  0  0  0  0  0
   -7.4595   20.5734  -33.1525 H   0  0  0  0  0  0  0  0  0  0  0  0
   -4.2732   19.5522  -32.4901 H   0  0  0  0  0  0  0  0  0  0  0  0
   -5.4460   19.6442  -33.8476 H   0  0  0  0  0  0  0  0  0  0  0  0
   -3.9880   20.6935  -33.8476 H   0  0  0  0  0  0  0  0  0  0  0  0
   -3.7447   22.1849  -31.6157 H   0  0  0  0  0  0  0  0  0  0  0  0
   -4.8264   21.7634  -28.4825 H   0  0  0  0  0  0  0  0  0  0  0  0
   -2.8735   20.8658  -26.9585 H   0  0  0  0  0  0  0  0  0  0  0  0
   -1.9870   25.6750  -29.9000 H   0  0  0  0  0  0  0  0  0  0  0  0
   -1.0910   25.7660  -28.3490 H   0  0  0  0  0  0  0  0  0  0  0  0
   -7.5136   24.0070  -30.5161 H   0  0  0  0  0  0  0  0  0  0  0  0
  1  2  1  0
  2  3  2  0
  3  4  1  0
  4  5  1  0
  4  6  2  0
  6  7  1  0
  7  8  1  0
  8  9  2  0
  8 10  2  0
  8 11  1  0
 11 12  1  0
 12 13  2  0
 13 14  1  0
 14 15  1  0
 15 16  1  0
  7 17  2  0
 17  2  1  0
 15 11  2  0
  1 18  1  0
  1 19  1  0
  1 20  1  0
  3 21  1  0
  5 22  1  0
  5 23  1  0
  5 24  1  0
  6 25  1  0
 12 26  1  0
 13 27  1  0
 16 28  1  0
 16 29  1  0
 17 30  1  0
M  END
>  <UniqueID>  (18) 
18

>  <SMILES>  (18) 
Cc1cc(C)cc(S(=O)(=O)c2ccsc2N)c1

>  <Energy>  (18) 
55.6891954182929

>  <Genealogy>  (18) 
Cc1cc(C)cc(S(=O)(=O)c2ccsc2N)c1 (3D coordinates assigned)
Cc1cc(C)cc(S(=O)(=O)c2ccsc2N)c1 (optimized conformer: 55.6891954182929 kcal/mol)

>  <smiles>  (18) 
Cc1cc(C)cc(S(=O)(=O)c2ccsc2N)c1

>  <score_type>  (18) 
oracle

>  <origin>  (18) 
adgpu

>  <m_score__min__energy>  (18) 
-7.8799999999999999

>  <m_primary>  (18) 
energy

$$$$
18:0
     RDKit          3D

 66 68  0  0  0  0  0  0  0  0999 V2000
   -4.5920   14.4780  -32.2900 C   0  0  0  0  0  0  0  0  0  0  0  0
   -5.4710   14.4350  -33.5400 C   0  0  0  0  0  0  0  0  0  0  0  0
   -5.6050   15.8070  -34.2170 C   0  0  0  0  0  0  0  0  0  0  0  0
   -6.8720   16.5560  -33.7850 C   0  0  0  0  0  0  0  0  0  0  0  0
   -6.5470   17.6320  -32.8370 N   0  0  0  0  0  0  0  0  0  0  0  0
   -5.1380   17.8520  -32.4590 C   0  0  0  0  0  0  0  0  0  0  0  0
   -4.4190   18.8390  -33.3940 C   0  0  0  0  0  0  0  0  0  0  0  0
   -3.2650   19.5690  -32.6970 C   0  0  0  0  0  0  0  0  0  0  0  0
   -2.7160   20.6920  -33.5720 C   0  0  0  0  0  0  0  0  0  0  0  0
   -7.6220   18.4410  -32.3080 C   0  0  0  0  0  0  0  0  0  0  0  0
   -8.7390   17.9060  -32.0710 O   0  0  0  0  0  0  0  0  0  0  0  0
   -7.4640   19.8860  -32.0580 C   0  0  0  0  0  0  0  0  0  0  0  0
   -8.4140   20.8590  -32.3180 C   0  0  0  0  0  0  0  0  0  0  0  0
   -7.8120   22.0380  -31.9230 C   0  0  0  0  0  0  0  0  0  0  0  0
   -8.4650   23.3850  -31.9530 C   0  0  0  0  0  0  0  0  0  0  0  0
   -6.5610   21.7630  -31.4860 N   0  0  0  0  0  0  0  0  0  0  0  0
   -5.5770   22.6780  -30.9760 C   0  0  0  0  0  0  0  0  0  0  0  0
   -4.2290   22.5830  -31.3580 C   0  0  0  0  0  0  0  0  0  0  0  0
   -3.2790   23.4570  -30.8210 C   0  0  0  0  0  0  0  0  0  0  0  0
   -3.6530   24.4150  -29.8730 C   0  0  0  0  0  0  0  0  0  0  0  0
   -2.6540   25.2970  -29.3430 N   0  0  0  0  0  0  0  0  0  0  0  0
   -1.4690   24.9050  -28.6370 C   0  0  0  0  0  0  0  0  0  0  0  0
   -0.5040   25.7120  -28.5830 O   0  0  0  0  0  0  0  0  0  0  0  0
   -1.3250   23.5570  -28.0450 C   0  0  0  0  0  0  0  0  0  0  0  0
   -1.6490   23.1780  -26.7530 C   0  0  0  0  0  0  0  0  0  0  0  0
   -1.4410   21.8550  -26.6080 N   0  0  0  0  0  0  0  0  0  0  0  0
   -1.0020   21.3840  -27.7650 N   0  0  0  0  0  0  0  0  0  0  0  0
   -0.6690   19.9810  -27.9850 C   0  0  0  0  0  0  0  0  0  0  0  0
   -0.9080   22.3890  -28.6630 C   0  0  0  0  0  0  0  0  0  0  0  0
   -0.4860   22.2350  -30.0940 C   0  0  0  0  0  0  0  0  0  0  0  0
   -5.0030   24.5190  -29.4960 C   0  0  0  0  0  0  0  0  0  0  0  0
   -5.9530   23.6460  -30.0320 C   0  0  0  0  0  0  0  0  0  0  0  0
   -6.3520   20.4580  -31.5580 N   0  0  0  0  0  0  0  0  0  0  0  0
   -5.2282   14.4469  -31.3932 H   0  0  0  0  0  0  0  0  0  0  0  0
   -3.9138   13.6120  -32.2887 H   0  0  0  0  0  0  0  0  0  0  0  0
   -4.0016   15.4061  -32.2887 H   0  0  0  0  0  0  0  0  0  0  0  0
   -5.0273   13.7298  -34.2583 H   0  0  0  0  0  0  0  0  0  0  0  0
   -6.4772   14.1183  -33.2282 H   0  0  0  0  0  0  0  0  0  0  0  0
   -4.7281   16.4169  -33.9540 H   0  0  0  0  0  0  0  0  0  0  0  0
   -5.6709   15.6384  -35.3020 H   0  0  0  0  0  0  0  0  0  0  0  0
   -7.3535   16.9914  -34.6730 H   0  0  0  0  0  0  0  0  0  0  0  0
   -7.5499   15.8446  -33.2908 H   0  0  0  0  0  0  0  0  0  0  0  0
   -5.1069   18.2516  -31.4346 H   0  0  0  0  0  0  0  0  0  0  0  0
   -4.6191   16.8850  -32.5348 H   0  0  0  0  0  0  0  0  0  0  0  0
   -4.0172   18.2825  -34.2536 H   0  0  0  0  0  0  0  0  0  0  0  0
   -5.1520   19.5956  -33.7108 H   0  0  0  0  0  0  0  0  0  0  0  0
   -3.6295   19.9962  -31.7511 H   0  0  0  0  0  0  0  0  0  0  0  0
   -2.4574   18.8461  -32.5094 H   0  0  0  0  0  0  0  0  0  0  0  0
   -2.3229   21.4962  -32.9326 H   0  0  0  0  0  0  0  0  0  0  0  0
   -1.9078   20.3003  -34.2071 H   0  0  0  0  0  0  0  0  0  0  0  0
   -3.5216   21.0892  -34.2071 H   0  0  0  0  0  0  0  0  0  0  0  0
   -9.4197   20.7240  -32.7426 H   0  0  0  0  0  0  0  0  0  0  0  0
   -8.6340   23.7336  -30.9235 H   0  0  0  0  0  0  0  0  0  0  0  0
   -7.8122   24.0973  -32.4788 H   0  0  0  0  0  0  0  0  0  0  0  0
   -9.4286   23.3137  -32.4788 H   0  0  0  0  0  0  0  0  0  0  0  0
   -3.9188   21.8167  -32.0837 H   0  0  0  0  0  0  0  0  0  0  0  0
   -2.2303   23.3908  -31.1463 H   0  0  0  0  0  0  0  0  0  0  0  0
   -2.0189   23.8528  -25.9670 H   0  0  0  0  0  0  0  0  0  0  0  0
   -0.5492   19.4761  -27.0151 H   0  0  0  0  0  0  0  0  0  0  0  0
   -1.4772   19.4970  -28.5529 H   0  0  0  0  0  0  0  0  0  0  0  0
    0.2705   19.9118  -28.5529 H   0  0  0  0  0  0  0  0  0  0  0  0
    0.5467   21.8581  -30.1332 H   0  0  0  0  0  0  0  0  0  0  0  0
   -1.1555   21.5232  -30.5991 H   0  0  0  0  0  0  0  0  0  0  0  0
   -0.5397   23.2107  -30.5991 H   0  0  0  0  0  0  0  0  0  0  0  0
   -5.3128   25.2908  -28.7761 H   0  0  0  0  0  0  0  0  0  0  0  0
   -7.0029   23.7179  -29.7119 H   0  0  0  0  0  0  0  0  0  0  0  0
  1  2  1  0
  2  3  1  0
  3  4  1  0
  4  5  1  0
  5  6  1  0
  6  7  1  0
  7  8  1  0
  8  9  1  0
  5 10  1  0
 10 11  2  0
 10 12  1  0
 12 13  1  0
 13 14  2  0
 14 15  1  0
 14 16  1  0
 16 17  1  0
 17 18  2  0
 18 19  1  0
 19 20  2  0
 20 21  1  0
 21 22  1  0
 22 23  2  0
 22 24  1  0
 24 25  1  0
 25 26  2  0
 26 27  1  0
 27 28  1  0
 27 29  1  0
 29 30  1  0
 20 31  1  0
 31 32  2  0
 16 33  1  0
 33 12  2  0
 32 17  1  0
 29 24  2  0
  1 34  1  0
  1 35  1  0
  1 36  1  0
  2 37  1  0
  2 38  1  0
  3 39  1  0
  3 40  1  0
  4 41  1  0
  4 42  1  0
  6 43  1  0
  6 44  1  0
  7 45  1  0
  7 46  1  0
  8 47  1  0
  8 48  1  0
  9 49  1  0
  9 50  1  0
  9 51  1  0
 13 52  1  0
 15 53  1  0
 15 54  1  0
 15 55  1  0
 18 56  1  0
 19 57  1  0
 25 58  1  0
 28 59  1  0
 28 60  1  0
 28 61  1  0
 30 62  1  0
 30 63  1  0
 30 64  1  0
 31 65  1  0
 32 66  1  0
M  CHG  1  21  -1
M  END
>  <UniqueID>  (19) 
19

>  <SMILES>  (19) 
CCCCN(CCCC)C(=O)c1cc(C)n(-c2ccc([N-]C(=O)c3cnn(C)c3C)cc2)n1

>  <Energy>  (19) 
123.90372196940255

>  <Genealogy>  (19) 
CCCCN(CCCC)C(=O)c1cc(C)n(-c2ccc([N-]C(=O)c3cnn(C)c3C)cc2)n1 (protonated)
CCCCN(CCCC)C(=O)c1cc(C)n(-c2ccc([N-]C(=O)c3cnn(C)c3C)cc2)n1 (3D coordinates assigned)
CCCCN(CCCC)C(=O)c1cc(C)n(-c2ccc([N-]C(=O)c3cnn(C)c3C)cc2)n1 (optimized conformer: 123.90372196940255 kcal/mol)

>  <smiles>  (19) 
CCCCN(CCCC)C(=O)c1cc(C)n(-c2ccc(NC(=O)c3cnn(C)c3C)cc2)n1

>  <score_type>  (19) 
oracle

>  <origin>  (19) 
adgpu

>  <m_score__min__energy>  (19) 
-10.67

>  <m_primary>  (19) 
energy

$$$$
19:0
     RDKit          3D

 38 39  0  0  0  0  0  0  0  0999 V2000
   -2.3560   20.5280  -27.3090 C   0  0  0  0  0  0  0  0  0  0  0  0
   -2.9330   21.0020  -28.5970 C   0  0  0  0  0  0  0  0  0  0  0  0
   -2.5850   22.4070  -28.9080 C   0  0  0  0  0  0  0  0  0  0  0  0
   -1.4230   22.9750  -28.4760 N   0  0  0  0  0  0  0  0  0  0  0  0
   -1.1160   24.2530  -28.7580 C   0  0  0  0  0  0  0  0  0  0  0  0
    0.0210   24.7210  -28.3040 N   0  0  0  0  0  0  0  0  0  0  0  0
   -1.9440   25.0320  -29.4810 N   0  0  0  0  0  0  0  0  0  0  0  0
   -3.1000   24.4960  -29.9210 C   0  0  0  0  0  0  0  0  0  0  0  0
   -3.8700   25.2560  -30.6070 N   0  0  0  0  0  0  0  0  0  0  0  0
   -3.4470   23.1880  -29.6500 C   0  0  0  0  0  0  0  0  0  0  0  0
   -4.7190   22.6960  -30.1730 C   0  0  0  0  0  0  0  0  0  0  0  0
   -4.7200   21.7710  -31.1970 C   0  0  0  0  0  0  0  0  0  0  0  0
   -5.9390   21.3010  -31.6900 C   0  0  0  0  0  0  0  0  0  0  0  0
   -7.1480   21.7230  -31.1950 C   0  0  0  0  0  0  0  0  0  0  0  0
   -8.3780   21.2350  -31.7030 N   0  0  0  0  0  0  0  0  0  0  0  0
   -8.5480   19.8140  -31.9720 C   0  0  0  0  0  0  0  0  0  0  0  0
   -9.4960   22.0960  -31.9730 C   0  0  0  0  0  0  0  0  0  0  0  0
   -7.1290   22.6540  -30.1630 C   0  0  0  0  0  0  0  0  0  0  0  0
   -5.9290   23.1320  -29.6620 C   0  0  0  0  0  0  0  0  0  0  0  0
   -2.9072   20.9808  -26.4716 H   0  0  0  0  0  0  0  0  0  0  0  0
   -2.4374   19.4325  -27.2519 H   0  0  0  0  0  0  0  0  0  0  0  0
   -1.2971   20.8205  -27.2519 H   0  0  0  0  0  0  0  0  0  0  0  0
   -2.5553   20.3605  -29.4068 H   0  0  0  0  0  0  0  0  0  0  0  0
   -4.0278   20.9483  -28.5051 H   0  0  0  0  0  0  0  0  0  0  0  0
   -0.7690   22.3890  -27.9150 H   0  0  0  0  0  0  0  0  0  0  0  0
    0.2460   25.7030  -28.5280 H   0  0  0  0  0  0  0  0  0  0  0  0
   -1.7030   26.0340  -29.7030 H   0  0  0  0  0  0  0  0  0  0  0  0
   -4.7860   24.9780  -31.0070 H   0  0  0  0  0  0  0  0  0  0  0  0
   -3.7716   21.4081  -31.6200 H   0  0  0  0  0  0  0  0  0  0  0  0
   -5.9302   20.5641  -32.5066 H   0  0  0  0  0  0  0  0  0  0  0  0
   -8.6136   19.2660  -31.0205 H   0  0  0  0  0  0  0  0  0  0  0  0
   -9.4712   19.6580  -32.5494 H   0  0  0  0  0  0  0  0  0  0  0  0
   -7.6876   19.4446  -32.5494 H   0  0  0  0  0  0  0  0  0  0  0  0
   -9.9357   22.4347  -31.0233 H   0  0  0  0  0  0  0  0  0  0  0  0
   -9.1561   22.9679  -32.5512 H   0  0  0  0  0  0  0  0  0  0  0  0
  -10.2521   21.5447  -32.5512 H   0  0  0  0  0  0  0  0  0  0  0  0
   -8.0776   23.0154  -29.7392 H   0  0  0  0  0  0  0  0  0  0  0  0
   -5.9381   23.8692  -28.8457 H   0  0  0  0  0  0  0  0  0  0  0  0
  1  2  1  0
  2  3  1  0
  3  4  1  0
  4  5  1  0
  5  6  2  3
  5  7  1  0
  7  8  1  0
  8  9  2  3
  8 10  1  0
 10 11  1  0
 11 12  2  0
 12 13  1  0
 13 14  2  0
 14 15  1  0
 15 16  1  0
 15 17  1  0
 14 18  1  0
 18 19  2  0
 10  3  2  0
 19 11  1  0
  1 20  1  0
  1 21  1  0
  1 22  1  0
  2 23  1  0
  2 24  1  0
  4 25  1  0
  6 26  1  0
  7 27  1  0
  9 28  1  0
 12 29  1  0
 13 30  1  0
 16 31  1  0
 16 32  1  0
 16 33  1  0
 17 34  1  0
 17 35  1  0
 17 36  1  0
 18 37  1  0
 19 38  1  0
M  END
>  <smiles>  (20) 
CCc1[nH]c(=N)[nH]c(=N)c1-c1ccc(N(C)C)cc1

>  <score_type>  (20) 
oracle

>  <origin>  (20) 
adgpu

>  <m_score__min__energy>  (20) 
-6.8799999999999999

>  <m_primary>  (20) 
energy

$$$$
20:0
     RDKit          3D

 56 59  0  0  0  0  0  0  0  0999 V2000
   -8.8640   20.8900  -31.1210 C   0  0  0  0  0  0  0  0  0  0  0  0
   -8.3650   21.9950  -31.8680 O   0  0  0  0  0  0  0  0  0  0  0  0
   -7.2520   22.7660  -31.4960 C   0  0  0  0  0  0  0  0  0  0  0  0
   -7.2650   23.6200  -30.3760 C   0  0  0  0  0  0  0  0  0  0  0  0
   -6.1240   24.3560  -30.0380 C   0  0  0  0  0  0  0  0  0  0  0  0
   -4.9510   24.2350  -30.8030 C   0  0  0  0  0  0  0  0  0  0  0  0
   -3.7510   24.9420  -30.4690 N   0  0  0  0  0  0  0  0  0  0  0  0
   -2.6970   24.5610  -29.1410 S   0  0  0  0  0  0  0  0  0  0  0  0
   -3.4430   24.5560  -27.8370 O   0  0  0  0  0  0  0  0  0  0  0  0
   -1.6170   25.6040  -29.0540 O   0  0  0  0  0  0  0  0  0  0  0  0
   -1.9770   22.9700  -29.4300 C   0  0  0  0  0  0  0  0  0  0  0  0
   -2.4980   22.1730  -30.4620 C   0  0  0  0  0  0  0  0  0  0  0  0
   -1.9760   20.8920  -30.7150 C   0  0  0  0  0  0  0  0  0  0  0  0
   -2.5080   20.0570  -31.7600 N   0  0  0  0  0  0  0  0  0  0  0  0
   -3.9160   19.8520  -31.9700 C   0  0  0  0  0  0  0  0  0  0  0  0
   -4.7510   20.2560  -31.1150 O   0  0  0  0  0  0  0  0  0  0  0  0
   -4.4040   19.1220  -33.1530 C   0  0  0  0  0  0  0  0  0  0  0  0
   -3.6970   18.1920  -33.9120 C   0  0  0  0  0  0  0  0  0  0  0  0
   -4.4420   17.6640  -34.9730 C   0  0  0  0  0  0  0  0  0  0  0  0
   -5.7310   18.1760  -35.0630 C   0  0  0  0  0  0  0  0  0  0  0  0
   -5.9430   19.2850  -33.8180 S   0  0  0  0  0  0  0  0  0  0  0  0
   -0.8950   20.4310  -29.9550 C   0  0  0  0  0  0  0  0  0  0  0  0
   -0.3760   21.2110  -28.9220 C   0  0  0  0  0  0  0  0  0  0  0  0
   -0.9150   22.4740  -28.6410 C   0  0  0  0  0  0  0  0  0  0  0  0
   -0.3900   23.2180  -27.5340 N   0  0  0  0  0  0  0  0  0  0  0  0
    0.8430   23.9950  -27.6980 C   0  0  0  0  0  0  0  0  0  0  0  0
    0.5890   25.4750  -27.3770 C   0  0  0  0  0  0  0  0  0  0  0  0
   -0.3060   25.6920  -26.1310 C   0  0  0  0  0  0  0  0  0  0  0  0
   -0.5960   24.3970  -25.3620 C   0  0  0  0  0  0  0  0  0  0  0  0
   -1.1910   23.3460  -26.3090 C   0  0  0  0  0  0  0  0  0  0  0  0
   -4.9530   23.4170  -31.9380 C   0  0  0  0  0  0  0  0  0  0  0  0
   -6.0930   22.6800  -32.2770 C   0  0  0  0  0  0  0  0  0  0  0  0
   -8.7686   21.1013  -30.0457 H   0  0  0  0  0  0  0  0  0  0  0  0
   -9.9230   20.7272  -31.3701 H   0  0  0  0  0  0  0  0  0  0  0  0
   -8.2859   19.9879  -31.3701 H   0  0  0  0  0  0  0  0  0  0  0  0
   -8.1753   23.7087  -29.7649 H   0  0  0  0  0  0  0  0  0  0  0  0
   -6.1450   25.0318  -29.1704 H   0  0  0  0  0  0  0  0  0  0  0  0
   -3.3241   22.5551  -31.0797 H   0  0  0  0  0  0  0  0  0  0  0  0
   -1.8430   19.4160  -32.2480 H   0  0  0  0  0  0  0  0  0  0  0  0
   -2.6576   17.9017  -33.6989 H   0  0  0  0  0  0  0  0  0  0  0  0
   -4.0439   16.9130  -35.6712 H   0  0  0  0  0  0  0  0  0  0  0  0
   -6.4824   17.9027  -35.8184 H   0  0  0  0  0  0  0  0  0  0  0  0
   -0.4523   19.4480  -30.1737 H   0  0  0  0  0  0  0  0  0  0  0  0
    0.4643   20.8315  -28.3221 H   0  0  0  0  0  0  0  0  0  0  0  0
    1.6120   23.6029  -27.0162 H   0  0  0  0  0  0  0  0  0  0  0  0
    1.1833   23.9090  -28.7405 H   0  0  0  0  0  0  0  0  0  0  0  0
    1.5581   25.9641  -27.1991 H   0  0  0  0  0  0  0  0  0  0  0  0
    0.0561   25.9060  -28.2374 H   0  0  0  0  0  0  0  0  0  0  0  0
    0.2020   26.3944  -25.4538 H   0  0  0  0  0  0  0  0  0  0  0  0
   -1.2705   26.0843  -26.4858 H   0  0  0  0  0  0  0  0  0  0  0  0
    0.3401   24.0114  -24.9319 H   0  0  0  0  0  0  0  0  0  0  0  0
   -1.3168   24.6081  -24.5583 H   0  0  0  0  0  0  0  0  0  0  0  0
   -1.2173   22.3740  -25.7947 H   0  0  0  0  0  0  0  0  0  0  0  0
   -2.2057   23.6652  -26.5890 H   0  0  0  0  0  0  0  0  0  0  0  0
   -4.0532   23.3529  -32.5675 H   0  0  0  0  0  0  0  0  0  0  0  0
   -6.0786   22.0285  -33.1632 H   0  0  0  0  0  0  0  0  0  0  0  0
  1  2  1  0
  2  3  1  0
  3  4  2  0
  4  5  1  0
  5  6  2  0
  6  7  1  0
  7  8  1  0
  8  9  2  0
  8 10  2  0
  8 11  1  0
 11 12  2  0
 12 13  1  0
 13 14  1  0
 14 15  1  0
 15 16  2  0
 15 17  1  0
 17 18  2  0
 18 19  1  0
 19 20  2  0
 20 21  1  0
 13 22  2  0
 22 23  1  0
 23 24  2  0
 24 25  1  0
 25 26  1  0
 26 27  1  0
 27 28  1  0
 28 29  1  0
 29 30  1  0
  6 31  1  0
 31 32  2  0
 32  3  1  0
 24 11  1  0
 30 25  1  0
 21 17  1  0
  1 33  1  0
  1 34  1  0
  1 35  1  0
  4 36  1  0
  5 37  1  0
 12 38  1  0
 14 39  1  0
 18 40  1  0
 19 41  1  0
 20 42  1  0
 22 43  1  0
 23 44  1  0
 26 45  1  0
 26 46  1  0
 27 47  1  0
 27 48  1  0
 28 49  1  0
 28 50  1  0
 29 51  1  0
 29 52  1  0
 30 53  1  0
 30 54  1  0
 31 55  1  0
 32 56  1  0
M  CHG  1   7  -1
M  END
>  <UniqueID>  (21) 
20

>  <SMILES>  (21) 
COc1ccc([N-]S(=O)(=O)c2cc(NC(=O)c3cccs3)ccc2N2CCCCC2)cc1

>  <Energy>  (21) 
100.95459680486549

>  <Genealogy>  (21) 
COc1ccc([N-]S(=O)(=O)c2cc(NC(=O)c3cccs3)ccc2N2CCCCC2)cc1 (protonated)
COc1ccc([N-]S(=O)(=O)c2cc(NC(=O)c3cccs3)ccc2N2CCCCC2)cc1 (3D coordinates assigned)
COc1ccc([N-]S(=O)(=O)c2cc(NC(=O)c3cccs3)ccc2N2CCCCC2)cc1 (nonaromatic ring conformer: 100.95459680486549 kcal/mol)

>  <smiles>  (21) 
COc1ccc(NS(=O)(=O)c2cc(NC(=O)c3cccs3)ccc2N2CCCCC2)cc1

>  <score_type>  (21) 
oracle

>  <origin>  (21) 
adgpu

>  <m_score__min__energy>  (21) 
-10.34

>  <m_primary>  (21) 
energy

$$$$
21:0
     RDKit          3D

 34 35  0  0  0  0  0  0  0  0999 V2000
   -1.2160   26.4260  -28.2260 C   0  0  0  0  0  0  0  0  0  0  0  0
   -1.9820   25.4440  -28.9150 O   0  0  0  0  0  0  0  0  0  0  0  0
   -2.1330   24.1120  -28.4970 C   0  0  0  0  0  0  0  0  0  0  0  0
   -1.2060   23.4980  -27.6280 C   0  0  0  0  0  0  0  0  0  0  0  0
   -1.3890   22.1760  -27.2200 C   0  0  0  0  0  0  0  0  0  0  0  0
   -2.4970   21.4510  -27.6630 C   0  0  0  0  0  0  0  0  0  0  0  0
   -2.7470   19.6450  -27.0980 Br  0  0  0  0  0  0  0  0  0  0  0  0
   -3.4230   22.0490  -28.5220 C   0  0  0  0  0  0  0  0  0  0  0  0
   -3.2410   23.3720  -28.9530 C   0  0  0  0  0  0  0  0  0  0  0  0
   -4.4190   24.0970  -30.0520 S   0  0  0  0  0  0  0  0  0  0  0  0
   -5.6180   24.5310  -29.2590 O   0  0  0  0  0  0  0  0  0  0  0  0
   -3.8300   25.2930  -30.7470 O   0  0  0  0  0  0  0  0  0  0  0  0
   -4.9260   22.9510  -31.2510 N   0  0  0  0  0  0  0  0  0  0  0  0
   -6.2800   22.5390  -31.4810 C   0  0  0  0  0  0  0  0  0  0  0  0
   -7.3280   23.4650  -31.6390 C   0  0  0  0  0  0  0  0  0  0  0  0
   -8.6320   23.0180  -31.8750 C   0  0  0  0  0  0  0  0  0  0  0  0
   -8.9020   21.6510  -31.9570 C   0  0  0  0  0  0  0  0  0  0  0  0
   -7.8640   20.7220  -31.8050 C   0  0  0  0  0  0  0  0  0  0  0  0
   -8.2090   18.9660  -31.9110 S   0  0  0  0  0  0  0  0  0  0  0  0
   -6.8250   18.6400  -33.0470 C   0  0  0  0  0  0  0  0  0  0  0  0
   -6.5590   21.1690  -31.5640 C   0  0  0  0  0  0  0  0  0  0  0  0
   -1.3274   26.2831  -27.1410 H   0  0  0  0  0  0  0  0  0  0  0  0
   -0.1561   26.3245  -28.5022 H   0  0  0  0  0  0  0  0  0  0  0  0
   -1.5725   27.4293  -28.5022 H   0  0  0  0  0  0  0  0  0  0  0  0
   -0.3339   24.0648  -27.2701 H   0  0  0  0  0  0  0  0  0  0  0  0
   -0.6580   21.7037  -26.5473 H   0  0  0  0  0  0  0  0  0  0  0  0
   -4.3001   21.4790  -28.8624 H   0  0  0  0  0  0  0  0  0  0  0  0
   -7.1209   24.5435  -31.5767 H   0  0  0  0  0  0  0  0  0  0  0  0
   -9.4475   23.7461  -31.9964 H   0  0  0  0  0  0  0  0  0  0  0  0
   -9.9292   21.3031  -32.1409 H   0  0  0  0  0  0  0  0  0  0  0  0
   -5.9161   18.4259  -32.4656 H   0  0  0  0  0  0  0  0  0  0  0  0
   -7.0671   17.7743  -33.6810 H   0  0  0  0  0  0  0  0  0  0  0  0
   -6.6553   19.5227  -33.6810 H   0  0  0  0  0  0  0  0  0  0  0  0
   -5.7464   20.4382  -31.4389 H   0  0  0  0  0  0  0  0  0  0  0  0
  1  2  1  0
  2  3  1  0
  3  4  2  0
  4  5  1  0
  5  6  2  0
  6  7  1  0
  6  8  1  0
  8  9  2  0
  9 10  1  0
 10 11  2  0
 10 12  2  0
 10 13  1  0
 13 14  1  0
 14 15  2  0
 15 16  1  0
 16 17  2  0
 17 18  1  0
 18 19  1  0
 19 20  1  0
 18 21  2  0
  9  3  1  0
 21 14  1  0
  1 22  1  0
  1 23  1  0
  1 24  1  0
  4 25  1  0
  5 26  1  0
  8 27  1  0
 15 28  1  0
 16 29  1  0
 17 30  1  0
 20 31  1  0
 20 32  1  0
 20 33  1  0
 21 34  1  0
M  CHG  1  13  -1
M  END
>  <UniqueID>  (22) 
21

>  <SMILES>  (22) 
COc1ccc(Br)cc1S(=O)(=O)[N-]c1cccc(SC)c1

>  <Energy>  (22) 
32.95743851345373

>  <Genealogy>  (22) 
COc1ccc(Br)cc1S(=O)(=O)[N-]c1cccc(SC)c1 (protonated)
COc1ccc(Br)cc1S(=O)(=O)[N-]c1cccc(SC)c1 (3D coordinates assigned)
COc1ccc(Br)cc1S(=O)(=O)[N-]c1cccc(SC)c1 (optimized conformer: 32.95743851345373 kcal/mol)

>  <smiles>  (22) 
COc1ccc(Br)cc1S(=O)(=O)Nc1cccc(SC)c1

>  <score_type>  (22) 
oracle

>  <origin>  (22) 
adgpu

>  <m_score__min__energy>  (22) 
-9.3200000000000003

>  <m_primary>  (22) 
energy

$$$$
22:0
     RDKit          3D

 42 44  0  0  0  0  0  0  0  0999 V2000
   -2.5860   20.0470  -27.1390 C   0  0  0  0  0  0  0  0  0  0  0  0
   -1.8360   20.6680  -28.1790 O   0  0  0  0  0  0  0  0  0  0  0  0
   -1.6510   22.0530  -28.3040 C   0  0  0  0  0  0  0  0  0  0  0  0
   -0.6040   22.7340  -27.6600 C   0  0  0  0  0  0  0  0  0  0  0  0
   -0.4620   24.1150  -27.8130 C   0  0  0  0  0  0  0  0  0  0  0  0
   -1.3630   24.8390  -28.6150 C   0  0  0  0  0  0  0  0  0  0  0  0
   -1.2490   26.2280  -28.7940 O   0  0  0  0  0  0  0  0  0  0  0  0
   -0.7980   27.1360  -27.7930 C   0  0  0  0  0  0  0  0  0  0  0  0
   -2.4090   24.1640  -29.2620 C   0  0  0  0  0  0  0  0  0  0  0  0
   -3.3170   24.9220  -30.0750 N   0  0  0  0  0  0  0  0  0  0  0  0
   -4.9450   24.4660  -30.4600 S   0  0  0  0  0  0  0  0  0  0  0  0
   -5.7210   24.1910  -29.2020 O   0  0  0  0  0  0  0  0  0  0  0  0
   -5.6040   25.5870  -31.2160 O   0  0  0  0  0  0  0  0  0  0  0  0
   -4.9090   22.9970  -31.4500 C   0  0  0  0  0  0  0  0  0  0  0  0
   -3.6830   22.5800  -31.9940 C   0  0  0  0  0  0  0  0  0  0  0  0
   -3.6020   21.4250  -32.7720 C   0  0  0  0  0  0  0  0  0  0  0  0
   -4.7420   20.6650  -33.0230 C   0  0  0  0  0  0  0  0  0  0  0  0
   -5.9750   21.0550  -32.4960 C   0  0  0  0  0  0  0  0  0  0  0  0
   -7.0790   20.3020  -32.7480 N   0  0  0  0  0  0  0  0  0  0  0  0
   -8.3060   20.6310  -32.2630 C   0  0  0  0  0  0  0  0  0  0  0  0
   -9.4860   19.7680  -32.5740 C   0  0  0  0  0  0  0  0  0  0  0  0
   -8.4570   21.7800  -31.4810 C   0  0  0  0  0  0  0  0  0  0  0  0
   -7.3450   22.5760  -31.2010 C   0  0  0  0  0  0  0  0  0  0  0  0
   -6.0750   22.2280  -31.7040 C   0  0  0  0  0  0  0  0  0  0  0  0
   -2.5470   22.7730  -29.1010 C   0  0  0  0  0  0  0  0  0  0  0  0
   -2.1959   20.3700  -26.1625 H   0  0  0  0  0  0  0  0  0  0  0  0
   -3.6434   20.3376  -27.2257 H   0  0  0  0  0  0  0  0  0  0  0  0
   -2.4978   18.9540  -27.2257 H   0  0  0  0  0  0  0  0  0  0  0  0
    0.1071   22.1768  -27.0324 H   0  0  0  0  0  0  0  0  0  0  0  0
    0.3594   24.6398  -27.3033 H   0  0  0  0  0  0  0  0  0  0  0  0
   -1.0061   26.7171  -26.7974 H   0  0  0  0  0  0  0  0  0  0  0  0
    0.2845   27.2964  -27.9044 H   0  0  0  0  0  0  0  0  0  0  0  0
   -1.3242   28.0955  -27.9044 H   0  0  0  0  0  0  0  0  0  0  0  0
   -2.7753   23.1717  -31.8041 H   0  0  0  0  0  0  0  0  0  0  0  0
   -2.6332   21.1129  -33.1893 H   0  0  0  0  0  0  0  0  0  0  0  0
   -4.6709   19.7556  -33.6377 H   0  0  0  0  0  0  0  0  0  0  0  0
   -9.9497   19.4289  -31.6359 H   0  0  0  0  0  0  0  0  0  0  0  0
  -10.2186   20.3449  -33.1575 H   0  0  0  0  0  0  0  0  0  0  0  0
   -9.1582   18.8950  -33.1575 H   0  0  0  0  0  0  0  0  0  0  0  0
   -9.4470   22.0554  -31.0884 H   0  0  0  0  0  0  0  0  0  0  0  0
   -7.4604   23.4797  -30.5845 H   0  0  0  0  0  0  0  0  0  0  0  0
   -3.3688   22.2458  -29.6077 H   0  0  0  0  0  0  0  0  0  0  0  0
  1  2  1  0
  2  3  1  0
  3  4  2  0
  4  5  1  0
  5  6  2  0
  6  7  1  0
  7  8  1  0
  6  9  1  0
  9 10  1  0
 10 11  1  0
 11 12  2  0
 11 13  2  0
 11 14  1  0
 14 15  2  0
 15 16  1  0
 16 17  2  0
 17 18  1  0
 18 19  2  0
 19 20  1  0
 20 21  1  0
 20 22  2  0
 22 23  1  0
 23 24  2  0
  9 25  2  0
 25  3  1  0
 24 14  1  0
 24 18  1  0
  1 26  1  0
  1 27  1  0
  1 28  1  0
  4 29  1  0
  5 30  1  0
  8 31  1  0
  8 32  1  0
  8 33  1  0
 15 34  1  0
 16 35  1  0
 17 36  1  0
 21 37  1  0
 21 38  1  0
 21 39  1  0
 22 40  1  0
 23 41  1  0
 25 42  1  0
M  CHG  1  10  -1
M  END
>  <UniqueID>  (23) 
22

>  <SMILES>  (23) 
COc1ccc(OC)c([N-]S(=O)(=O)c2cccc3nc(C)ccc23)c1

>  <Energy>  (23) 
51.81539858934302

>  <Genealogy>  (23) 
COc1ccc(OC)c([N-]S(=O)(=O)c2cccc3nc(C)ccc23)c1 (protonated)
COc1ccc(OC)c([N-]S(=O)(=O)c2cccc3nc(C)ccc23)c1 (3D coordinates assigned)
COc1ccc(OC)c([N-]S(=O)(=O)c2cccc3nc(C)ccc23)c1 (optimized conformer: 51.81539858934302 kcal/mol)

>  <smiles>  (23) 
COc1ccc(OC)c(NS(=O)(=O)c2cccc3nc(C)ccc23)c1

>  <score_type>  (23) 
oracle

>  <origin>  (23) 
adgpu

>  <m_score__min__energy>  (23) 
-10.4

>  <m_primary>  (23) 
energy

$$$$
23:0
     RDKit          3D

 29 29  0  0  0  0  0  0  0  0999 V2000
   -1.5930   21.1740  -32.8330 C   0  0  0  0  0  0  0  0  0  0  0  0
   -2.7450   21.8470  -32.3380 O   0  0  0  0  0  0  0  0  0  0  0  0
   -4.0560   21.3540  -32.4270 C   0  0  0  0  0  0  0  0  0  0  0  0
   -4.4370   20.4120  -33.4030 C   0  0  0  0  0  0  0  0  0  0  0  0
   -5.7480   19.9190  -33.4520 C   0  0  0  0  0  0  0  0  0  0  0  0
   -6.1010   18.9600  -34.4600 N   0  0  0  0  0  0  0  0  0  0  0  0
   -6.6940   20.3710  -32.5120 C   0  0  0  0  0  0  0  0  0  0  0  0
   -8.3550   19.7900  -32.5120 Cl  0  0  0  0  0  0  0  0  0  0  0  0
   -6.3200   21.3070  -31.5440 C   0  0  0  0  0  0  0  0  0  0  0  0
   -5.0110   21.8040  -31.5010 C   0  0  0  0  0  0  0  0  0  0  0  0
   -4.6540   22.7670  -30.5000 N   0  0  0  0  0  0  0  0  0  0  0  0
   -3.8660   22.3540  -29.3430 C   0  0  0  0  0  0  0  0  0  0  0  0
   -5.0930   24.4330  -30.7090 S   0  0  0  0  0  0  0  0  0  0  0  0
   -6.1130   24.9500  -29.3470 C   0  0  0  0  0  0  0  0  0  0  0  0
   -5.8660   24.6050  -31.9870 O   0  0  0  0  0  0  0  0  0  0  0  0
   -3.8510   25.2770  -30.7700 O   0  0  0  0  0  0  0  0  0  0  0  0
   -0.9847   20.8186  -31.9882 H   0  0  0  0  0  0  0  0  0  0  0  0
   -1.9050   20.3161  -33.4467 H   0  0  0  0  0  0  0  0  0  0  0  0
   -0.9989   21.8671  -33.4467 H   0  0  0  0  0  0  0  0  0  0  0  0
   -3.6963   20.0591  -34.1357 H   0  0  0  0  0  0  0  0  0  0  0  0
   -6.8030   19.1710  -35.2020 H   0  0  0  0  0  0  0  0  0  0  0  0
   -5.6540   18.0160  -34.4720 H   0  0  0  0  0  0  0  0  0  0  0  0
   -7.0602   21.6566  -30.8092 H   0  0  0  0  0  0  0  0  0  0  0  0
   -4.3962   22.6319  -28.4202 H   0  0  0  0  0  0  0  0  0  0  0  0
   -3.7209   21.2639  -29.3684 H   0  0  0  0  0  0  0  0  0  0  0  0
   -2.8870   22.8549  -29.3684 H   0  0  0  0  0  0  0  0  0  0  0  0
   -5.6148   24.6975  -28.3993 H   0  0  0  0  0  0  0  0  0  0  0  0
   -6.2715   26.0373  -29.3996 H   0  0  0  0  0  0  0  0  0  0  0  0
   -7.0836   24.4350  -29.3996 H   0  0  0  0  0  0  0  0  0  0  0  0
  1  2  1  0
  2  3  1  0
  3  4  2  0
  4  5  1  0
  5  6  1  0
  5  7  2  0
  7  8  1  0
  7  9  1  0
  9 10  2  0
 10 11  1  0
 11 12  1  0
 11 13  1  0
 13 14  1  0
 13 15  2  0
 13 16  2  0
 10  3  1  0
  1 17  1  0
  1 18  1  0
  1 19  1  0
  4 20  1  0
  6 21  1  0
  6 22  1  0
  9 23  1  0
 12 24  1  0
 12 25  1  0
 12 26  1  0
 14 27  1  0
 14 28  1  0
 14 29  1  0
M  END
>  <UniqueID>  (24) 
23

>  <SMILES>  (24) 
COc1cc(N)c(Cl)cc1N(C)S(C)(=O)=O

>  <Energy>  (24) 
28.00110613650415

>  <Genealogy>  (24) 
COc1cc(N)c(Cl)cc1N(C)S(C)(=O)=O (3D coordinates assigned)
COc1cc(N)c(Cl)cc1N(C)S(C)(=O)=O (optimized conformer: 28.00110613650415 kcal/mol)

>  <smiles>  (24) 
COc1cc(N)c(Cl)cc1N(C)S(C)(=O)=O

>  <score_type>  (24) 
oracle

>  <origin>  (24) 
adgpu

>  <m_score__min__energy>  (24) 
-6.3600000000000003

>  <m_primary>  (24) 
energy

$$$$
24:0
     RDKit          3D

 40 42  0  0  0  0  0  0  0  0999 V2000
   -6.4930   16.8590  -33.8380 C   0  0  0  0  0  0  0  0  0  0  0  0
   -6.8610   18.1270  -33.1250 C   0  0  0  0  0  0  0  0  0  0  0  0
   -6.1340   19.3030  -33.3530 C   0  0  0  0  0  0  0  0  0  0  0  0
   -6.5010   20.4930  -32.7170 C   0  0  0  0  0  0  0  0  0  0  0  0
   -7.5960   20.5250  -31.8450 C   0  0  0  0  0  0  0  0  0  0  0  0
   -7.9510   21.7720  -31.2310 N   0  0  0  0  0  0  0  0  0  0  0  0
   -8.0280   23.0490  -31.8790 C   0  0  0  0  0  0  0  0  0  0  0  0
   -9.1230   23.4830  -32.3270 O   0  0  0  0  0  0  0  0  0  0  0  0
   -6.7950   23.8790  -32.0130 C   0  0  0  0  0  0  0  0  0  0  0  0
   -6.6200   24.9370  -30.5430 S   0  0  0  0  0  0  0  0  0  0  0  0
   -4.9460   24.3980  -30.2160 C   0  0  0  0  0  0  0  0  0  0  0  0
   -4.6400   23.1970  -29.6930 N   0  0  0  0  0  0  0  0  0  0  0  0
   -3.2930   23.2560  -29.6390 C   0  0  0  0  0  0  0  0  0  0  0  0
   -2.4390   22.1610  -29.1320 C   0  0  0  0  0  0  0  0  0  0  0  0
   -1.2160   21.8620  -29.7570 C   0  0  0  0  0  0  0  0  0  0  0  0
   -0.4100   20.8260  -29.2770 C   0  0  0  0  0  0  0  0  0  0  0  0
   -0.8190   20.0650  -28.1710 C   0  0  0  0  0  0  0  0  0  0  0  0
    0.0660   18.9800  -27.6330 C   0  0  0  0  0  0  0  0  0  0  0  0
   -2.0290   20.3720  -27.5330 C   0  0  0  0  0  0  0  0  0  0  0  0
   -2.8370   21.4080  -28.0130 C   0  0  0  0  0  0  0  0  0  0  0  0
   -2.8150   24.4290  -30.1020 N   0  0  0  0  0  0  0  0  0  0  0  0
   -3.8610   25.1500  -30.4660 N   0  0  0  0  0  0  0  0  0  0  0  0
   -8.3510   19.3540  -31.6490 C   0  0  0  0  0  0  0  0  0  0  0  0
   -7.9850   18.1640  -32.2850 C   0  0  0  0  0  0  0  0  0  0  0  0
   -6.2657   16.0759  -33.0997 H   0  0  0  0  0  0  0  0  0  0  0  0
   -7.3343   16.5355  -34.4685 H   0  0  0  0  0  0  0  0  0  0  0  0
   -5.6092   17.0361  -34.4685 H   0  0  0  0  0  0  0  0  0  0  0  0
   -5.2711   19.2900  -34.0351 H   0  0  0  0  0  0  0  0  0  0  0  0
   -5.9248   21.4113  -32.9032 H   0  0  0  0  0  0  0  0  0  0  0  0
   -5.9172   23.2218  -32.0994 H   0  0  0  0  0  0  0  0  0  0  0  0
   -6.8697   24.5075  -32.9127 H   0  0  0  0  0  0  0  0  0  0  0  0
   -0.8911   22.4474  -30.6298 H   0  0  0  0  0  0  0  0  0  0  0  0
    0.5493   20.6061  -29.7683 H   0  0  0  0  0  0  0  0  0  0  0  0
    0.0472   19.0030  -26.5334 H   0  0  0  0  0  0  0  0  0  0  0  0
   -0.2961   18.0030  -27.9855 H   0  0  0  0  0  0  0  0  0  0  0  0
    1.0959   19.1383  -27.9855 H   0  0  0  0  0  0  0  0  0  0  0  0
   -2.3444   19.7955  -26.6509 H   0  0  0  0  0  0  0  0  0  0  0  0
   -3.7896   21.6351  -27.5121 H   0  0  0  0  0  0  0  0  0  0  0  0
   -9.2333   19.3749  -30.9924 H   0  0  0  0  0  0  0  0  0  0  0  0
   -8.5804   17.2528  -32.1265 H   0  0  0  0  0  0  0  0  0  0  0  0
  1  2  1  0
  2  3  2  0
  3  4  1  0
  4  5  2  0
  5  6  1  0
  6  7  1  0
  7  8  2  0
  7  9  1  0
  9 10  1  0
 10 11  1  0
 11 12  2  0
 12 13  1  0
 13 14  1  0
 14 15  2  0
 15 16  1  0
 16 17  2  0
 17 18  1  0
 17 19  1  0
 19 20  2  0
 13 21  2  0
 21 22  1  0
  5 23  1  0
 23 24  2  0
 24  2  1  0
 22 11  1  0
 20 14  1  0
  1 25  1  0
  1 26  1  0
  1 27  1  0
  3 28  1  0
  4 29  1  0
  9 30  1  0
  9 31  1  0
 15 32  1  0
 16 33  1  0
 18 34  1  0
 18 35  1  0
 18 36  1  0
 19 37  1  0
 20 38  1  0
 23 39  1  0
 24 40  1  0
M  CHG  2   6  -1  22  -1
M  END
>  <UniqueID>  (25) 
24

>  <SMILES>  (25) 
Cc1ccc([N-]C(=O)CSc2nc(-c3ccc(C)cc3)n[n-]2)cc1

>  <Energy>  (25) 
71.42332427019502

>  <Genealogy>  (25) 
Cc1ccc([N-]C(=O)CSc2nc(-c3ccc(C)cc3)n[n-]2)cc1 (protonated)
Cc1ccc([N-]C(=O)CSc2nc(-c3ccc(C)cc3)n[n-]2)cc1 (3D coordinates assigned)
Cc1ccc([N-]C(=O)CSc2nc(-c3ccc(C)cc3)n[n-]2)cc1 (optimized conformer: 71.42332427019502 kcal/mol)

>  <smiles>  (25) 
Cc1ccc(NC(=O)CSc2nc(-c3ccc(C)cc3)n[nH]2)cc1

>  <score_type>  (25) 
oracle

>  <origin>  (25) 
adgpu

>  <m_score__min__energy>  (25) 
-10.81

>  <m_primary>  (25) 
energy

$$$$
25:0
     RDKit          3D

 30 30  0  0  0  0  0  0  0  0999 V2000
   -3.0970   24.5310  -27.0600 C   0  0  0  0  0  0  0  0  0  0  0  0
   -4.1380   23.6780  -27.8040 C   0  0  0  0  0  0  0  0  0  0  0  0
   -3.4630   22.5230  -28.5620 C   0  0  0  0  0  0  0  0  0  0  0  0
   -5.0080   24.4930  -28.6820 N   0  0  0  0  0  0  0  0  0  0  0  0
   -4.6300   24.4290  -30.0690 C   0  0  0  0  0  0  0  0  0  0  0  0
   -3.8570   25.3010  -30.5530 O   0  0  0  0  0  0  0  0  0  0  0  0
   -5.1360   23.3790  -30.8970 N   0  0  0  0  0  0  0  0  0  0  0  0
   -6.7850   22.8530  -30.8230 S   0  0  0  0  0  0  0  0  0  0  0  0
   -7.6590   23.9040  -31.4480 O   0  0  0  0  0  0  0  0  0  0  0  0
   -7.1820   22.6740  -29.3850 O   0  0  0  0  0  0  0  0  0  0  0  0
   -6.9640   21.3180  -31.6660 C   0  0  0  0  0  0  0  0  0  0  0  0
   -5.9550   20.8570  -32.5240 C   0  0  0  0  0  0  0  0  0  0  0  0
   -6.1040   19.6370  -33.1920 C   0  0  0  0  0  0  0  0  0  0  0  0
   -7.2610   18.8750  -33.0070 C   0  0  0  0  0  0  0  0  0  0  0  0
   -8.2720   19.3330  -32.1560 C   0  0  0  0  0  0  0  0  0  0  0  0
   -9.3950   18.5940  -31.9800 F   0  0  0  0  0  0  0  0  0  0  0  0
   -8.1250   20.5530  -31.4890 C   0  0  0  0  0  0  0  0  0  0  0  0
   -3.2369   24.4164  -25.9750 H   0  0  0  0  0  0  0  0  0  0  0  0
   -2.0855   24.1987  -27.3364 H   0  0  0  0  0  0  0  0  0  0  0  0
   -3.2240   25.5881  -27.3364 H   0  0  0  0  0  0  0  0  0  0  0  0
   -4.8015   23.2334  -27.0477 H   0  0  0  0  0  0  0  0  0  0  0  0
   -3.0441   21.8062  -27.8404 H   0  0  0  0  0  0  0  0  0  0  0  0
   -4.2065   22.0151  -29.1939 H   0  0  0  0  0  0  0  0  0  0  0  0
   -2.6556   22.9214  -29.1939 H   0  0  0  0  0  0  0  0  0  0  0  0
   -4.9770   25.4910  -28.3690 H   0  0  0  0  0  0  0  0  0  0  0  0
   -5.9990   24.1700  -28.5830 H   0  0  0  0  0  0  0  0  0  0  0  0
   -5.0444   21.4561  -32.6720 H   0  0  0  0  0  0  0  0  0  0  0  0
   -5.3102   19.2772  -33.8632 H   0  0  0  0  0  0  0  0  0  0  0  0
   -7.3765   17.9147  -33.5309 H   0  0  0  0  0  0  0  0  0  0  0  0
   -8.9230   20.9136  -30.8233 H   0  0  0  0  0  0  0  0  0  0  0  0
  1  2  1  0
  2  3  1  0
  2  4  1  0
  4  5  1  0
  5  6  2  0
  5  7  1  0
  7  8  1  0
  8  9  2  0
  8 10  2  0
  8 11  1  0
 11 12  2  0
 12 13  1  0
 13 14  2  0
 14 15  1  0
 15 16  1  0
 15 17  2  0
 17 11  1  0
  1 18  1  0
  1 19  1  0
  1 20  1  0
  2 21  1  0
  3 22  1  0
  3 23  1  0
  3 24  1  0
  4 25  1  0
  4 26  1  0
 12 27  1  0
 13 28  1  0
 14 29  1  0
 17 30  1  0
M  CHG  2   4   1   7  -1
M  END
>  <UniqueID>  (26) 
25

>  <SMILES>  (26) 
CC(C)[NH2+]C(=O)[N-]S(=O)(=O)c1cccc(F)c1

>  <Energy>  (26) 
28.349214472808896

>  <Genealogy>  (26) 
CC(C)[NH2+]C(=O)[N-]S(=O)(=O)c1cccc(F)c1 (protonated)
CC(C)[NH2+]C(=O)[N-]S(=O)(=O)c1cccc(F)c1 (3D coordinates assigned)
CC(C)[NH2+]C(=O)[N-]S(=O)(=O)c1cccc(F)c1 (optimized conformer: 28.349214472808896 kcal/mol)

>  <smiles>  (26) 
CC(C)NC(=O)NS(=O)(=O)c1cccc(F)c1

>  <score_type>  (26) 
oracle

>  <origin>  (26) 
adgpu

>  <m_score__min__energy>  (26) 
-7.0899999999999999

>  <m_primary>  (26) 
energy

$$$$
26:0
     RDKit          3D

 46 49  0  0  0  0  0  0  0  0999 V2000
   -9.3887   20.9909  -30.9543 H   0  0  0  0  0  0  0  0  0  0  0  0
   -8.4170   21.1290  -31.4510 C   0  0  0  0  0  0  0  0  0  0  0  0
   -8.0370   20.2750  -32.4840 C   0  0  0  0  0  0  0  0  0  0  0  0
   -8.7111   19.4678  -32.8065 H   0  0  0  0  0  0  0  0  0  0  0  0
   -6.8000   20.4440  -33.1100 C   0  0  0  0  0  0  0  0  0  0  0  0
   -6.5003   19.7601  -33.9177 H   0  0  0  0  0  0  0  0  0  0  0  0
   -5.9350   21.4790  -32.7180 C   0  0  0  0  0  0  0  0  0  0  0  0
   -4.6350   21.5750  -33.3240 N   0  0  0  0  0  0  0  0  0  0  0  0
   -4.5770   21.9970  -34.2800 H   0  0  0  0  0  0  0  0  0  0  0  0
   -3.4130   21.2150  -32.6560 C   0  0  0  0  0  0  0  0  0  0  0  0
   -2.1880   21.3880  -33.3190 C   0  0  0  0  0  0  0  0  0  0  0  0
   -2.1716   21.8074  -34.3358 H   0  0  0  0  0  0  0  0  0  0  0  0
   -0.9890   21.0310  -32.6960 C   0  0  0  0  0  0  0  0  0  0  0  0
   -0.0331   21.1790  -33.2197 H   0  0  0  0  0  0  0  0  0  0  0  0
   -1.0020   20.4860  -31.4080 C   0  0  0  0  0  0  0  0  0  0  0  0
    0.5030   20.0350  -30.6280 Cl  0  0  0  0  0  0  0  0  0  0  0  0
   -2.2190   20.2940  -30.7470 C   0  0  0  0  0  0  0  0  0  0  0  0
   -2.2315   19.8607  -29.7360 H   0  0  0  0  0  0  0  0  0  0  0  0
   -3.4200   20.6510  -31.3670 C   0  0  0  0  0  0  0  0  0  0  0  0
   -4.3747   20.4903  -30.8448 H   0  0  0  0  0  0  0  0  0  0  0  0
   -6.3230   22.3540  -31.6710 C   0  0  0  0  0  0  0  0  0  0  0  0
   -5.4850   23.4950  -31.2320 C   0  0  0  0  0  0  0  0  0  0  0  0
   -5.7620   24.7970  -31.4590 N   0  0  0  0  0  0  0  0  0  0  0  0
   -4.7900   25.4970  -30.8970 N   0  0  0  0  0  0  0  0  0  0  0  0
   -3.9630   24.5950  -30.3420 C   0  0  0  0  0  0  0  0  0  0  0  0
   -2.8760   24.9230  -29.7090 N   0  0  0  0  0  0  0  0  0  0  0  0
   -1.9680   24.0210  -29.0550 C   0  0  0  0  0  0  0  0  0  0  0  0
   -0.5840   24.2590  -29.0010 C   0  0  0  0  0  0  0  0  0  0  0  0
   -0.1675   25.1729  -29.4497 H   0  0  0  0  0  0  0  0  0  0  0  0
    0.2650   23.3400  -28.3800 C   0  0  0  0  0  0  0  0  0  0  0  0
    1.3450   23.5431  -28.3324 H   0  0  0  0  0  0  0  0  0  0  0  0
   -0.2450   22.1600  -27.8160 C   0  0  0  0  0  0  0  0  0  0  0  0
    0.6970   21.1910  -27.1510 C   0  0  0  0  0  0  0  0  0  0  0  0
    0.6071   21.2834  -26.0586 H   0  0  0  0  0  0  0  0  0  0  0  0
    0.4419   20.1649  -27.4544 H   0  0  0  0  0  0  0  0  0  0  0  0
    1.7299   21.4170  -27.4544 H   0  0  0  0  0  0  0  0  0  0  0  0
   -1.6350   21.9040  -27.8840 C   0  0  0  0  0  0  0  0  0  0  0  0
   -2.2270   20.6440  -27.3090 C   0  0  0  0  0  0  0  0  0  0  0  0
   -2.2028   20.6956  -26.2105 H   0  0  0  0  0  0  0  0  0  0  0  0
   -3.2682   20.5400  -27.6483 H   0  0  0  0  0  0  0  0  0  0  0  0
   -1.6424   19.7762  -27.6483 H   0  0  0  0  0  0  0  0  0  0  0  0
   -2.4780   22.8340  -28.5180 C   0  0  0  0  0  0  0  0  0  0  0  0
   -3.5553   22.6249  -28.5929 H   0  0  0  0  0  0  0  0  0  0  0  0
   -4.3760   23.3670  -30.5410 O   0  0  0  0  0  0  0  0  0  0  0  0
   -7.5680   22.1590  -31.0450 C   0  0  0  0  0  0  0  0  0  0  0  0
   -7.8754   22.8262  -30.2262 H   0  0  0  0  0  0  0  0  0  0  0  0
  1  2  1  0
  2  3  2  0
  3  4  1  0
  3  5  1  0
  5  6  1  0
  5  7  2  0
  7  8  1  0
  8  9  1  0
  8 10  1  0
 10 11  2  0
 11 12  1  0
 11 13  1  0
 13 14  1  0
 13 15  2  0
 15 16  1  0
 15 17  1  0
 17 18  1  0
 17 19  2  0
 19 20  1  0
  7 21  1  0
 21 22  1  0
 22 23  2  0
 23 24  1  0
 24 25  1  0
 25 26  2  0
 26 27  1  0
 27 28  2  0
 28 29  1  0
 28 30  1  0
 30 31  1  0
 30 32  2  0
 32 33  1  0
 33 34  1  0
 33 35  1  0
 33 36  1  0
 32 37  1  0
 37 38  1  0
 38 39  1  0
 38 40  1  0
 38 41  1  0
 37 42  2  0
 42 43  1  0
 25 44  1  0
 21 45  2  0
 45 46  1  0
 45  2  1  0
 19 10  1  0
 44 22  1  0
 42 27  1  0
M  CHG  1  24  -1
M  END
>  <UniqueID>  (27) 
26

>  <SMILES>  (27) 
Cc1ccc(/N=c2/[n-]nc(-c3ccccc3Nc3ccc(Cl)cc3)o2)cc1C

>  <Energy>  (27) 
99.15641864908528

>  <Genealogy>  (27) 
Cc1ccc(N=c2[n-]nc(-c3ccccc3Nc3ccc(Cl)cc3)o2)cc1C (protonated)
Cc1ccc(/N=c2/[n-]nc(-c3ccccc3Nc3ccc(Cl)cc3)o2)cc1C (cis-trans isomerization)
Cc1ccc(/N=c2/[n-]nc(-c3ccccc3Nc3ccc(Cl)cc3)o2)cc1C (3D coordinates assigned)
Cc1ccc(/N=c2/[n-]nc(-c3ccccc3Nc3ccc(Cl)cc3)o2)cc1C (optimized conformer: 99.15641864908528 kcal/mol)

>  <smiles>  (27) 
Cc1ccc(N=c2[nH]nc(-c3ccccc3Nc3ccc(Cl)cc3)o2)cc1C

>  <score_type>  (27) 
oracle

>  <origin>  (27) 
adgpu

>  <m_score__min__energy>  (27) 
-11.84

>  <m_primary>  (27) 
energy

$$$$
27:0
     RDKit          3D

 58 61  0  0  0  0  0  0  0  0999 V2000
   -6.1180   25.6120  -29.7190 C   0  0  0  0  0  0  0  0  0  0  0  0
   -5.7260   24.9410  -30.9120 O   0  0  0  0  0  0  0  0  0  0  0  0
   -6.2940   23.7440  -31.3780 C   0  0  0  0  0  0  0  0  0  0  0  0
   -7.6810   23.5040  -31.3000 C   0  0  0  0  0  0  0  0  0  0  0  0
   -8.2130   22.2800  -31.7110 C   0  0  0  0  0  0  0  0  0  0  0  0
   -7.3710   21.2780  -32.1960 C   0  0  0  0  0  0  0  0  0  0  0  0
   -8.0410   19.7350  -32.6950 Cl  0  0  0  0  0  0  0  0  0  0  0  0
   -5.9960   21.5050  -32.2860 C   0  0  0  0  0  0  0  0  0  0  0  0
   -5.4530   22.7420  -31.9100 C   0  0  0  0  0  0  0  0  0  0  0  0
   -4.0360   22.9250  -32.0240 N   0  0  0  0  0  0  0  0  0  0  0  0
   -3.0430   22.0220  -31.5250 C   0  0  0  0  0  0  0  0  0  0  0  0
   -2.9740   20.8460  -31.9740 O   0  0  0  0  0  0  0  0  0  0  0  0
   -2.1520   22.4410  -30.4250 C   0  0  0  0  0  0  0  0  0  0  0  0
   -1.1200   21.6370  -29.9330 C   0  0  0  0  0  0  0  0  0  0  0  0
   -0.8610   20.2790  -30.3220 N   0  0  0  0  0  0  0  0  0  0  0  0
   -0.4080   19.2750  -29.4020 C   0  0  0  0  0  0  0  0  0  0  0  0
    0.6740   18.4550  -29.7570 C   0  0  0  0  0  0  0  0  0  0  0  0
    1.1410   17.4790  -28.8710 C   0  0  0  0  0  0  0  0  0  0  0  0
    0.5410   17.3260  -27.6190 C   0  0  0  0  0  0  0  0  0  0  0  0
   -0.5190   18.1560  -27.2450 C   0  0  0  0  0  0  0  0  0  0  0  0
   -0.9910   19.1330  -28.1280 C   0  0  0  0  0  0  0  0  0  0  0  0
   -1.9820   19.9660  -27.7210 F   0  0  0  0  0  0  0  0  0  0  0  0
   -0.3630   22.4330  -28.6610 S   0  0  0  0  0  0  0  0  0  0  0  0
   -1.2970   23.8310  -28.7230 C   0  0  0  0  0  0  0  0  0  0  0  0
   -1.1320   24.9750  -27.8020 C   0  0  0  0  0  0  0  0  0  0  0  0
   -1.5110   26.1240  -28.1530 O   0  0  0  0  0  0  0  0  0  0  0  0
   -0.6000   24.7730  -26.4810 N   0  0  0  0  0  0  0  0  0  0  0  0
   -0.2390   25.8560  -25.6100 C   0  0  0  0  0  0  0  0  0  0  0  0
   -0.9050   25.9910  -24.3840 C   0  0  0  0  0  0  0  0  0  0  0  0
   -0.5820   27.0330  -23.5120 C   0  0  0  0  0  0  0  0  0  0  0  0
    0.4230   27.9400  -23.8510 C   0  0  0  0  0  0  0  0  0  0  0  0
    1.1160   27.8000  -25.0560 C   0  0  0  0  0  0  0  0  0  0  0  0
    0.8030   26.7490  -25.9420 C   0  0  0  0  0  0  0  0  0  0  0  0
    1.5180   26.5510  -27.1350 O   0  0  0  0  0  0  0  0  0  0  0  0
    2.4910   25.5330  -27.3360 C   0  0  0  0  0  0  0  0  0  0  0  0
   -2.2310   23.6900  -29.7620 C   0  0  0  0  0  0  0  0  0  0  0  0
   -3.0930   24.7520  -30.1980 N   0  0  0  0  0  0  0  0  0  0  0  0
   -5.7806   25.0345  -28.8457 H   0  0  0  0  0  0  0  0  0  0  0  0
   -5.6626   26.6130  -29.6948 H   0  0  0  0  0  0  0  0  0  0  0  0
   -7.2136   25.7069  -29.6948 H   0  0  0  0  0  0  0  0  0  0  0  0
   -8.3494   24.2870  -30.9124 H   0  0  0  0  0  0  0  0  0  0  0  0
   -9.2974   22.1052  -31.6524 H   0  0  0  0  0  0  0  0  0  0  0  0
   -5.3340   20.7076  -32.6546 H   0  0  0  0  0  0  0  0  0  0  0  0
   -1.1650   19.9720  -31.2730 H   0  0  0  0  0  0  0  0  0  0  0  0
    1.1573   18.5806  -30.7371 H   0  0  0  0  0  0  0  0  0  0  0  0
    1.9816   16.8312  -29.1603 H   0  0  0  0  0  0  0  0  0  0  0  0
    0.9032   16.5515  -26.9269 H   0  0  0  0  0  0  0  0  0  0  0  0
   -0.9832   18.0410  -26.2544 H   0  0  0  0  0  0  0  0  0  0  0  0
   -0.5820   23.8070  -26.0850 H   0  0  0  0  0  0  0  0  0  0  0  0
   -1.6884   25.2704  -24.1065 H   0  0  0  0  0  0  0  0  0  0  0  0
   -1.1196   27.1388  -22.5582 H   0  0  0  0  0  0  0  0  0  0  0  0
    0.6699   28.7665  -23.1684 H   0  0  0  0  0  0  0  0  0  0  0  0
    1.9111   28.5146  -25.3152 H   0  0  0  0  0  0  0  0  0  0  0  0
    2.8431   25.1647  -26.3611 H   0  0  0  0  0  0  0  0  0  0  0  0
    2.0419   24.7030  -27.9012 H   0  0  0  0  0  0  0  0  0  0  0  0
    3.3405   25.9441  -27.9012 H   0  0  0  0  0  0  0  0  0  0  0  0
   -3.6200   24.6900  -31.0950 H   0  0  0  0  0  0  0  0  0  0  0  0
   -3.1140   25.6750  -29.7160 H   0  0  0  0  0  0  0  0  0  0  0  0
  1  2  1  0
  2  3  1  0
  3  4  2  0
  4  5  1  0
  5  6  2  0
  6  7  1  0
  6  8  1  0
  8  9  2  0
  9 10  1  0
 10 11  1  0
 11 12  2  0
 11 13  1  0
 13 14  2  0
 14 15  1  0
 15 16  1  0
 16 17  2  0
 17 18  1  0
 18 19  2  0
 19 20  1  0
 20 21  2  0
 21 22  1  0
 14 23  1  0
 23 24  1  0
 24 25  1  0
 25 26  2  0
 25 27  1  0
 27 28  1  0
 28 29  2  0
 29 30  1  0
 30 31  2  0
 31 32  1  0
 32 33  2  0
 33 34  1  0
 34 35  1  0
 24 36  2  0
 36 37  1  0
  9  3  1  0
 36 13  1  0
 21 16  1  0
 33 28  1  0
  1 38  1  0
  1 39  1  0
  1 40  1  0
  4 41  1  0
  5 42  1  0
  8 43  1  0
 15 44  1  0
 17 45  1  0
 18 46  1  0
 19 47  1  0
 20 48  1  0
 27 49  1  0
 29 50  1  0
 30 51  1  0
 31 52  1  0
 32 53  1  0
 35 54  1  0
 35 55  1  0
 35 56  1  0
 37 57  1  0
 37 58  1  0
M  CHG  1  10  -1
M  END
>  <UniqueID>  (28) 
27

>  <SMILES>  (28) 
COc1ccc(Cl)cc1[N-]C(=O)c1c(Nc2ccccc2F)sc(C(=O)Nc2ccccc2OC)c1N

>  <Energy>  (28) 
110.27972290099156

>  <Genealogy>  (28) 
COc1ccc(Cl)cc1[N-]C(=O)c1c(Nc2ccccc2F)sc(C(=O)Nc2ccccc2OC)c1N (protonated)
COc1ccc(Cl)cc1[N-]C(=O)c1c(Nc2ccccc2F)sc(C(=O)Nc2ccccc2OC)c1N (3D coordinates assigned)
COc1ccc(Cl)cc1[N-]C(=O)c1c(Nc2ccccc2F)sc(C(=O)Nc2ccccc2OC)c1N (optimized conformer: 110.27972290099156 kcal/mol)

>  <smiles>  (28) 
COc1ccccc1NC(=O)c1sc(Nc2ccccc2F)c(C(=O)Nc2cc(Cl)ccc2OC)c1N

>  <score_type>  (28) 
oracle

>  <origin>  (28) 
adgpu

>  <m_score__min__energy>  (28) 
-10.619999999999999

>  <m_primary>  (28) 
energy

$$$$
28:0
     RDKit          3D

 31 33  0  0  0  0  0  0  0  0999 V2000
   -4.5580   26.3920  -30.9070 H   0  0  0  0  0  0  0  0  0  0  0  0
   -3.9620   25.6140  -30.5450 N   0  0  0  0  0  0  0  0  0  0  0  0
   -4.2450   24.3740  -30.7850 C   0  0  0  0  0  0  0  0  0  0  0  0
   -5.3560   24.0700  -31.5120 N   0  0  0  0  0  0  0  0  0  0  0  0
   -5.7200   22.7840  -31.7510 C   0  0  0  0  0  0  0  0  0  0  0  0
   -6.8650   22.4920  -32.4990 C   0  0  0  0  0  0  0  0  0  0  0  0
   -7.4790   23.3079  -32.9081 H   0  0  0  0  0  0  0  0  0  0  0  0
   -7.2280   21.1600  -32.7260 C   0  0  0  0  0  0  0  0  0  0  0  0
   -8.1274   20.9295  -33.3159 H   0  0  0  0  0  0  0  0  0  0  0  0
   -6.4490   20.1190  -32.2040 C   0  0  0  0  0  0  0  0  0  0  0  0
   -6.9110   18.4510  -32.4900 Cl  0  0  0  0  0  0  0  0  0  0  0  0
   -5.3030   20.4070  -31.4520 C   0  0  0  0  0  0  0  0  0  0  0  0
   -4.6929   19.5894  -31.0406 H   0  0  0  0  0  0  0  0  0  0  0  0
   -4.9370   21.7380  -31.2260 C   0  0  0  0  0  0  0  0  0  0  0  0
   -3.8270   22.0390  -30.5030 N   0  0  0  0  0  0  0  0  0  0  0  0
   -3.4430   23.3260  -30.2750 C   0  0  0  0  0  0  0  0  0  0  0  0
   -2.2170   23.5610  -29.4790 C   0  0  0  0  0  0  0  0  0  0  0  0
   -1.4890   22.5760  -29.1810 O   0  0  0  0  0  0  0  0  0  0  0  0
   -1.8060   24.8900  -29.1200 N   0  0  0  0  0  0  0  0  0  0  0  0
   -2.0900   25.6750  -29.7490 H   0  0  0  0  0  0  0  0  0  0  0  0
   -0.9010   25.1820  -28.0400 C   0  0  0  0  0  0  0  0  0  0  0  0
   -1.2400   26.1720  -27.1050 C   0  0  0  0  0  0  0  0  0  0  0  0
   -2.1833   26.7272  -27.2144 H   0  0  0  0  0  0  0  0  0  0  0  0
   -0.3860   26.4570  -26.0350 C   0  0  0  0  0  0  0  0  0  0  0  0
   -0.6547   27.2415  -25.3123 H   0  0  0  0  0  0  0  0  0  0  0  0
    0.8070   25.7480  -25.8820 C   0  0  0  0  0  0  0  0  0  0  0  0
    1.4802   25.9773  -25.0428 H   0  0  0  0  0  0  0  0  0  0  0  0
    1.1450   24.7460  -26.7970 C   0  0  0  0  0  0  0  0  0  0  0  0
    2.0823   24.1837  -26.6735 H   0  0  0  0  0  0  0  0  0  0  0  0
    0.2940   24.4570  -27.8690 C   0  0  0  0  0  0  0  0  0  0  0  0
    0.5591   23.6611  -28.5805 H   0  0  0  0  0  0  0  0  0  0  0  0
  1  2  1  0
  2  3  2  0
  3  4  1  0
  4  5  1  0
  5  6  2  0
  6  7  1  0
  6  8  1  0
  8  9  1  0
  8 10  2  0
 10 11  1  0
 10 12  1  0
 12 13  1  0
 12 14  2  0
 14 15  1  0
 15 16  2  0
 16 17  1  0
 17 18  2  0
 17 19  1  0
 19 20  1  0
 19 21  1  0
 21 22  2  0
 22 23  1  0
 22 24  1  0
 24 25  1  0
 24 26  2  0
 26 27  1  0
 26 28  1  0
 28 29  1  0
 28 30  2  0
 30 31  1  0
 16  3  1  0
 30 21  1  0
 14  5  1  0
M  CHG  1   4  -1
M  END
>  <UniqueID>  (29) 
28

>  <SMILES>  (29) 
[H]/N=c1\[n-]c2ccc(Cl)cc2nc1C(=O)Nc1ccccc1

>  <Energy>  (29) 
44.75484207289308

>  <Genealogy>  (29) 
N=c1[n-]c2ccc(Cl)cc2nc1C(=O)Nc1ccccc1 (protonated)
[H]/N=c1\[n-]c2ccc(Cl)cc2nc1C(=O)Nc1ccccc1 (cis-trans isomerization)
[H]/N=c1\[n-]c2ccc(Cl)cc2nc1C(=O)Nc1ccccc1 (3D coordinates assigned)
[H]/N=c1\[n-]c2ccc(Cl)cc2nc1C(=O)Nc1ccccc1 (optimized conformer: 44.75484207289308 kcal/mol)

>  <smiles>  (29) 
N=c1[nH]c2ccc(Cl)cc2nc1C(=O)Nc1ccccc1

>  <score_type>  (29) 
oracle

>  <origin>  (29) 
adgpu

>  <m_score__min__energy>  (29) 
-9.7699999999999996

>  <m_primary>  (29) 
energy

$$$$
29:0
     RDKit          3D

 60 63  0  0  0  0  0  0  0  0999 V2000
    0.1940   18.4440  -28.1790 C   0  0  0  0  0  0  0  0  0  0  0  0
   -0.1900   19.0310  -29.5050 C   0  0  0  0  0  0  0  0  0  0  0  0
    0.2170   18.4610  -30.5540 O   0  0  0  0  0  0  0  0  0  0  0  0
   -1.0240   20.2070  -29.6060 N   0  0  0  0  0  0  0  0  0  0  0  0
   -1.1080   20.9020  -30.9020 C   0  0  0  0  0  0  0  0  0  0  0  0
   -1.7470   22.2850  -30.7620 C   0  0  0  0  0  0  0  0  0  0  0  0
   -3.0010   22.1910  -30.0040 N   0  0  0  0  0  0  0  0  0  0  0  0
   -4.1580   22.9390  -30.4230 C   0  0  0  0  0  0  0  0  0  0  0  0
   -4.3560   24.2400  -29.9260 C   0  0  0  0  0  0  0  0  0  0  0  0
   -5.5110   24.9560  -30.2450 C   0  0  0  0  0  0  0  0  0  0  0  0
   -6.4890   24.3800  -31.0550 C   0  0  0  0  0  0  0  0  0  0  0  0
   -6.3080   23.0920  -31.5620 C   0  0  0  0  0  0  0  0  0  0  0  0
   -5.1390   22.3700  -31.2740 C   0  0  0  0  0  0  0  0  0  0  0  0
   -4.9770   21.0660  -31.8490 N   0  0  0  0  0  0  0  0  0  0  0  0
   -4.2440   20.8390  -33.0640 C   0  0  0  0  0  0  0  0  0  0  0  0
   -3.8750   21.8230  -33.7620 O   0  0  0  0  0  0  0  0  0  0  0  0
   -3.9090   19.4580  -33.4950 C   0  0  0  0  0  0  0  0  0  0  0  0
   -2.6150   18.9600  -33.2540 C   0  0  0  0  0  0  0  0  0  0  0  0
   -2.2380   17.6780  -33.6830 C   0  0  0  0  0  0  0  0  0  0  0  0
   -0.8280   17.1900  -33.4630 C   0  0  0  0  0  0  0  0  0  0  0  0
   -0.4050   16.4040  -34.5230 F   0  0  0  0  0  0  0  0  0  0  0  0
    0.0170   18.2780  -33.3450 F   0  0  0  0  0  0  0  0  0  0  0  0
   -0.7530   16.4320  -32.3070 F   0  0  0  0  0  0  0  0  0  0  0  0
   -3.1590   16.9010  -34.3990 C   0  0  0  0  0  0  0  0  0  0  0  0
   -4.4480   17.3760  -34.6400 C   0  0  0  0  0  0  0  0  0  0  0  0
   -4.8370   18.6520  -34.1980 C   0  0  0  0  0  0  0  0  0  0  0  0
   -6.1960   19.0840  -34.3920 N   0  0  0  0  0  0  0  0  0  0  0  0
   -7.1620   19.1960  -33.3330 C   0  0  0  0  0  0  0  0  0  0  0  0
   -7.7390   20.4450  -33.0540 C   0  0  0  0  0  0  0  0  0  0  0  0
   -8.6960   20.5730  -32.0430 C   0  0  0  0  0  0  0  0  0  0  0  0
   -9.0940   19.4530  -31.3080 C   0  0  0  0  0  0  0  0  0  0  0  0
   -8.5390   18.2010  -31.5880 C   0  0  0  0  0  0  0  0  0  0  0  0
   -7.5830   18.0690  -32.6000 C   0  0  0  0  0  0  0  0  0  0  0  0
   -3.0970   21.3010  -28.8390 C   0  0  0  0  0  0  0  0  0  0  0  0
   -1.7230   20.7540  -28.4330 C   0  0  0  0  0  0  0  0  0  0  0  0
   -0.2140   19.0677  -27.3699 H   0  0  0  0  0  0  0  0  0  0  0  0
   -0.2128   17.4253  -28.0974 H   0  0  0  0  0  0  0  0  0  0  0  0
    1.2904   18.4086  -28.0974 H   0  0  0  0  0  0  0  0  0  0  0  0
   -0.0934   21.0178  -31.3108 H   0  0  0  0  0  0  0  0  0  0  0  0
   -1.7373   20.2999  -31.5739 H   0  0  0  0  0  0  0  0  0  0  0  0
   -1.0523   22.9542  -30.2332 H   0  0  0  0  0  0  0  0  0  0  0  0
   -1.9631   22.6832  -31.7644 H   0  0  0  0  0  0  0  0  0  0  0  0
   -3.5929   24.6978  -29.2794 H   0  0  0  0  0  0  0  0  0  0  0  0
   -5.6498   25.9759  -29.8569 H   0  0  0  0  0  0  0  0  0  0  0  0
   -7.4042   24.9412  -31.2948 H   0  0  0  0  0  0  0  0  0  0  0  0
   -7.0876   22.6392  -32.1922 H   0  0  0  0  0  0  0  0  0  0  0  0
   -5.5840   20.2950  -31.4890 H   0  0  0  0  0  0  0  0  0  0  0  0
   -1.8859   19.5869  -32.7197 H   0  0  0  0  0  0  0  0  0  0  0  0
   -2.8632   15.9099  -34.7734 H   0  0  0  0  0  0  0  0  0  0  0  0
   -5.1679   16.7450  -35.1819 H   0  0  0  0  0  0  0  0  0  0  0  0
   -6.4830   19.3670  -35.3570 H   0  0  0  0  0  0  0  0  0  0  0  0
   -7.4361   21.3288  -33.6347 H   0  0  0  0  0  0  0  0  0  0  0  0
   -9.1366   21.5572  -31.8256 H   0  0  0  0  0  0  0  0  0  0  0  0
   -9.8436   19.5566  -30.5096 H   0  0  0  0  0  0  0  0  0  0  0  0
   -8.8546   17.3188  -31.0117 H   0  0  0  0  0  0  0  0  0  0  0  0
   -7.1574   17.0799  -32.8249 H   0  0  0  0  0  0  0  0  0  0  0  0
   -3.5215   21.8631  -27.9941 H   0  0  0  0  0  0  0  0  0  0  0  0
   -3.7408   20.4504  -29.1074 H   0  0  0  0  0  0  0  0  0  0  0  0
   -1.1224   21.5672  -27.9994 H   0  0  0  0  0  0  0  0  0  0  0  0
   -1.8617   19.9519  -27.6931 H   0  0  0  0  0  0  0  0  0  0  0  0
  1  2  1  0
  2  3  2  0
  2  4  1  0
  4  5  1  0
  5  6  1  0
  6  7  1  0
  7  8  1  0
  8  9  2  0
  9 10  1  0
 10 11  2  0
 11 12  1  0
 12 13  2  0
 13 14  1  0
 14 15  1  0
 15 16  2  0
 15 17  1  0
 17 18  2  0
 18 19  1  0
 19 20  1  0
 20 21  1  0
 20 22  1  0
 20 23  1  0
 19 24  2  0
 24 25  1  0
 25 26  2  0
 26 27  1  0
 27 28  1  0
 28 29  2  0
 29 30  1  0
 30 31  2  0
 31 32  1  0
 32 33  2  0
  7 34  1  0
 34 35  1  0
 35  4  1  0
 13  8  1  0
 26 17  1  0
 33 28  1  0
  1 36  1  0
  1 37  1  0
  1 38  1  0
  5 39  1  0
  5 40  1  0
  6 41  1  0
  6 42  1  0
  9 43  1  0
 10 44  1  0
 11 45  1  0
 12 46  1  0
 14 47  1  0
 18 48  1  0
 24 49  1  0
 25 50  1  0
 27 51  1  0
 29 52  1  0
 30 53  1  0
 31 54  1  0
 32 55  1  0
 33 56  1  0
 34 57  1  0
 34 58  1  0
 35 59  1  0
 35 60  1  0
M  END
>  <UniqueID>  (30) 
29

>  <SMILES>  (30) 
CC(=O)N1CCN(c2ccccc2NC(=O)c2cc(C(F)(F)F)ccc2Nc2ccccc2)CC1

>  <Energy>  (30) 
81.17831500957752

>  <Genealogy>  (30) 
CC(=O)N1CCN(c2ccccc2NC(=O)c2cc(C(F)(F)F)ccc2Nc2ccccc2)CC1 (3D coordinates assigned)
CC(=O)N1CCN(c2ccccc2NC(=O)c2cc(C(F)(F)F)ccc2Nc2ccccc2)CC1 (nonaromatic ring conformer: 81.17831500957752 kcal/mol)

>  <smiles>  (30) 
CC(=O)N1CCN(c2ccccc2NC(=O)c2cc(C(F)(F)F)ccc2Nc2ccccc2)CC1

>  <score_type>  (30) 
oracle

>  <origin>  (30) 
adgpu

>  <m_score__min__energy>  (30) 
-9.7100000000000009

>  <m_primary>  (30) 
energy

$$$$
30:0
     RDKit          3D

 26 27  0  0  0  0  0  0  0  0999 V2000
   -2.8260   23.6670  -28.7010 O   0  0  0  0  0  0  0  0  0  0  0  0
   -2.6510   24.7350  -29.3440 C   0  0  0  0  0  0  0  0  0  0  0  0
   -1.6150   25.6520  -28.9660 N   0  0  0  0  0  0  0  0  0  0  0  0
   -1.2700   26.0610  -27.6350 C   0  0  0  0  0  0  0  0  0  0  0  0
   -0.4810   27.2070  -27.4680 C   0  0  0  0  0  0  0  0  0  0  0  0
   -0.1380   27.6520  -26.1880 C   0  0  0  0  0  0  0  0  0  0  0  0
   -0.5970   26.9620  -25.0620 C   0  0  0  0  0  0  0  0  0  0  0  0
   -1.4050   25.8340  -25.2160 C   0  0  0  0  0  0  0  0  0  0  0  0
   -1.7490   25.3850  -26.4960 C   0  0  0  0  0  0  0  0  0  0  0  0
   -3.5070   25.0230  -30.4550 N   0  0  0  0  0  0  0  0  0  0  0  0
   -4.7240   24.3410  -30.7870 C   0  0  0  0  0  0  0  0  0  0  0  0
   -5.9330   24.8320  -30.2760 C   0  0  0  0  0  0  0  0  0  0  0  0
   -7.1380   24.1820  -30.5610 C   0  0  0  0  0  0  0  0  0  0  0  0
   -7.1410   23.0240  -31.3460 C   0  0  0  0  0  0  0  0  0  0  0  0
   -8.6520   22.2070  -31.7000 Cl  0  0  0  0  0  0  0  0  0  0  0  0
   -5.9360   22.5120  -31.8360 C   0  0  0  0  0  0  0  0  0  0  0  0
   -4.7300   23.1610  -31.5530 C   0  0  0  0  0  0  0  0  0  0  0  0
   -0.1289   27.7606  -28.3509 H   0  0  0  0  0  0  0  0  0  0  0  0
    0.4929   28.5449  -26.0667 H   0  0  0  0  0  0  0  0  0  0  0  0
   -0.3215   27.3079  -24.0548 H   0  0  0  0  0  0  0  0  0  0  0  0
   -1.7721   25.2968  -24.3291 H   0  0  0  0  0  0  0  0  0  0  0  0
   -2.3949   24.5023  -26.6128 H   0  0  0  0  0  0  0  0  0  0  0  0
   -5.9342   25.7343  -29.6468 H   0  0  0  0  0  0  0  0  0  0  0  0
   -8.0843   24.5816  -30.1676 H   0  0  0  0  0  0  0  0  0  0  0  0
   -5.9364   21.5964  -32.4457 H   0  0  0  0  0  0  0  0  0  0  0  0
   -3.7831   22.7476  -31.9305 H   0  0  0  0  0  0  0  0  0  0  0  0
  1  2  2  0
  2  3  1  0
  3  4  1  0
  4  5  2  0
  5  6  1  0
  6  7  2  0
  7  8  1  0
  8  9  2  0
  2 10  1  0
 10 11  1  0
 11 12  2  0
 12 13  1  0
 13 14  2  0
 14 15  1  0
 14 16  1  0
 16 17  2  0
  9  4  1  0
 17 11  1  0
  5 18  1  0
  6 19  1  0
  7 20  1  0
  8 21  1  0
  9 22  1  0
 12 23  1  0
 13 24  1  0
 16 25  1  0
 17 26  1  0
M  CHG  2   3  -1  10  -1
M  END
>  <UniqueID>  (31) 
30

>  <SMILES>  (31) 
O=C([N-]c1ccccc1)[N-]c1ccc(Cl)cc1

>  <Energy>  (31) 
33.614099908000625

>  <Genealogy>  (31) 
O=C([N-]c1ccccc1)[N-]c1ccc(Cl)cc1 (protonated)
O=C([N-]c1ccccc1)[N-]c1ccc(Cl)cc1 (3D coordinates assigned)
O=C([N-]c1ccccc1)[N-]c1ccc(Cl)cc1 (optimized conformer: 33.614099908000625 kcal/mol)

>  <smiles>  (31) 
O=C(Nc1ccccc1)Nc1ccc(Cl)cc1

>  <score_type>  (31) 
oracle

>  <origin>  (31) 
adgpu

>  <m_score__min__energy>  (31) 
-9.8800000000000008

>  <m_primary>  (31) 
energy

$$$$
31:0
     RDKit          3D

 49 52  0  0  0  0  0  0  0  0999 V2000
    1.4270   15.0330  -26.6990 C   0  0  0  0  0  0  0  0  0  0  0  0
    1.3170   15.6540  -27.9740 O   0  0  0  0  0  0  0  0  0  0  0  0
    0.7080   16.8980  -28.1590 C   0  0  0  0  0  0  0  0  0  0  0  0
    0.9480   17.6140  -29.3330 C   0  0  0  0  0  0  0  0  0  0  0  0
    0.3400   18.8560  -29.5190 C   0  0  0  0  0  0  0  0  0  0  0  0
   -0.5090   19.3830  -28.5320 C   0  0  0  0  0  0  0  0  0  0  0  0
   -1.1630   20.7050  -28.7150 C   0  0  0  0  0  0  0  0  0  0  0  0
   -2.2220   21.1010  -27.8780 C   0  0  0  0  0  0  0  0  0  0  0  0
   -2.8350   22.3450  -28.0480 C   0  0  0  0  0  0  0  0  0  0  0  0
   -2.4090   23.2120  -29.0660 C   0  0  0  0  0  0  0  0  0  0  0  0
   -3.0560   24.5610  -29.2420 C   0  0  0  0  0  0  0  0  0  0  0  0
   -3.7940   24.6180  -30.4630 O   0  0  0  0  0  0  0  0  0  0  0  0
   -4.8430   23.7540  -30.8210 C   0  0  0  0  0  0  0  0  0  0  0  0
   -4.6330   22.5850  -31.5790 C   0  0  0  0  0  0  0  0  0  0  0  0
   -5.7070   21.7560  -31.9140 C   0  0  0  0  0  0  0  0  0  0  0  0
   -7.0040   22.0780  -31.4930 C   0  0  0  0  0  0  0  0  0  0  0  0
   -8.3630   21.0260  -31.8800 S   0  0  0  0  0  0  0  0  0  0  0  0
   -8.7720   20.2870  -30.6380 O   0  0  0  0  0  0  0  0  0  0  0  0
   -9.5370   21.8260  -32.3730 O   0  0  0  0  0  0  0  0  0  0  0  0
   -7.8940   19.8820  -33.0970 N   0  0  0  0  0  0  0  0  0  0  0  0
   -7.1610   18.8330  -32.8730 C   0  0  0  0  0  0  0  0  0  0  0  0
   -6.8260   17.9680  -33.8520 N   0  0  0  0  0  0  0  0  0  0  0  0
   -6.0590   16.9490  -33.3800 C   0  0  0  0  0  0  0  0  0  0  0  0
   -5.7800   16.9990  -32.0180 C   0  0  0  0  0  0  0  0  0  0  0  0
   -6.5210   18.3700  -31.3830 S   0  0  0  0  0  0  0  0  0  0  0  0
   -7.2170   23.2360  -30.7380 C   0  0  0  0  0  0  0  0  0  0  0  0
   -6.1450   24.0710  -30.4040 C   0  0  0  0  0  0  0  0  0  0  0  0
   -6.4800   25.6480  -29.3740 Br  0  0  0  0  0  0  0  0  0  0  0  0
   -1.3460   22.8270  -29.8950 C   0  0  0  0  0  0  0  0  0  0  0  0
   -0.7320   21.5830  -29.7260 C   0  0  0  0  0  0  0  0  0  0  0  0
   -0.7220   18.6280  -27.3660 C   0  0  0  0  0  0  0  0  0  0  0  0
   -0.1170   17.4210  -27.2080 N   0  0  0  0  0  0  0  0  0  0  0  0
    1.2932   15.7883  -25.9105 H   0  0  0  0  0  0  0  0  0  0  0  0
    0.6520   14.2586  -26.6002 H   0  0  0  0  0  0  0  0  0  0  0  0
    2.4208   14.5719  -26.6002 H   0  0  0  0  0  0  0  0  0  0  0  0
    1.6123   17.2016  -30.1067 H   0  0  0  0  0  0  0  0  0  0  0  0
    0.5263   19.4245  -30.4421 H   0  0  0  0  0  0  0  0  0  0  0  0
   -2.5705   20.4255  -27.0829 H   0  0  0  0  0  0  0  0  0  0  0  0
   -3.6557   22.6464  -27.3805 H   0  0  0  0  0  0  0  0  0  0  0  0
   -3.7390   24.7452  -28.3997 H   0  0  0  0  0  0  0  0  0  0  0  0
   -2.2673   25.3272  -29.2726 H   0  0  0  0  0  0  0  0  0  0  0  0
   -3.6169   22.3232  -31.9093 H   0  0  0  0  0  0  0  0  0  0  0  0
   -5.5336   20.8479  -32.5100 H   0  0  0  0  0  0  0  0  0  0  0  0
   -5.6859   16.1429  -34.0288 H   0  0  0  0  0  0  0  0  0  0  0  0
   -5.1797   16.2696  -31.4544 H   0  0  0  0  0  0  0  0  0  0  0  0
   -8.2336   23.4919  -30.4047 H   0  0  0  0  0  0  0  0  0  0  0  0
   -0.9931   23.5082  -30.6833 H   0  0  0  0  0  0  0  0  0  0  0  0
    0.0949   21.2881  -30.3888 H   0  0  0  0  0  0  0  0  0  0  0  0
   -1.3823   19.0161  -26.5764 H   0  0  0  0  0  0  0  0  0  0  0  0
  1  2  1  0
  2  3  1  0
  3  4  2  0
  4  5  1  0
  5  6  2  0
  6  7  1  0
  7  8  2  0
  8  9  1  0
  9 10  2  0
 10 11  1  0
 11 12  1  0
 12 13  1  0
 13 14  2  0
 14 15  1  0
 15 16  2  0
 16 17  1  0
 17 18  2  0
 17 19  2  0
 17 20  1  0
 20 21  2  3
 21 22  1  0
 22 23  1  0
 23 24  2  0
 24 25  1  0
 16 26  1  0
 26 27  2  0
 27 28  1  0
 10 29  1  0
 29 30  2  0
  6 31  1  0
 31 32  2  0
 32  3  1  0
 30  7  1  0
 27 13  1  0
 25 21  1  0
  1 33  1  0
  1 34  1  0
  1 35  1  0
  4 36  1  0
  5 37  1  0
  8 38  1  0
  9 39  1  0
 11 40  1  0
 11 41  1  0
 14 42  1  0
 15 43  1  0
 23 44  1  0
 24 45  1  0
 26 46  1  0
 29 47  1  0
 30 48  1  0
 31 49  1  0
M  CHG  1  22  -1
M  END
>  <UniqueID>  (32) 
31

>  <SMILES>  (32) 
COc1ccc(-c2ccc(COc3ccc(S(=O)(=O)N=c4[n-]ccs4)cc3Br)cc2)cn1

>  <Energy>  (32) 
90.67868636546889

>  <Genealogy>  (32) 
COc1ccc(-c2ccc(COc3ccc(S(=O)(=O)N=c4[n-]ccs4)cc3Br)cc2)cn1 (protonated)
COc1ccc(-c2ccc(COc3ccc(S(=O)(=O)N=c4[n-]ccs4)cc3Br)cc2)cn1 (3D coordinates assigned)
COc1ccc(-c2ccc(COc3ccc(S(=O)(=O)N=c4[n-]ccs4)cc3Br)cc2)cn1 (optimized conformer: 90.67868636546889 kcal/mol)

>  <smiles>  (32) 
COc1ccc(-c2ccc(COc3ccc(S(=O)(=O)N=c4[nH]ccs4)cc3Br)cc2)cn1

>  <score_type>  (32) 
oracle

>  <origin>  (32) 
adgpu

>  <m_score__min__energy>  (32) 
-10.42

>  <m_primary>  (32) 
energy

$$$$
32:0
     RDKit          3D

 28 29  0  0  0  0  0  0  0  0999 V2000
   -9.1000   19.2180  -32.3740 C   0  0  0  0  0  0  0  0  0  0  0  0
   -8.1220   20.3000  -32.0000 C   0  0  0  0  0  0  0  0  0  0  0  0
   -8.4470   21.1960  -30.9690 C   0  0  0  0  0  0  0  0  0  0  0  0
   -7.5620   22.2110  -30.6040 C   0  0  0  0  0  0  0  0  0  0  0  0
   -6.3350   22.3520  -31.2630 C   0  0  0  0  0  0  0  0  0  0  0  0
   -5.4270   23.4020  -30.8860 N   0  0  0  0  0  0  0  0  0  0  0  0
   -4.0750   23.4040  -30.9480 C   0  0  0  0  0  0  0  0  0  0  0  0
   -3.2320   22.2730  -31.4470 C   0  0  0  0  0  0  0  0  0  0  0  0
   -3.5570   24.5600  -30.4830 N   0  0  0  0  0  0  0  0  0  0  0  0
   -4.5870   25.3130  -30.1300 N   0  0  0  0  0  0  0  0  0  0  0  0
   -5.7120   24.6180  -30.3760 C   0  0  0  0  0  0  0  0  0  0  0  0
   -7.2130   25.1600  -30.0000 S   0  0  0  0  0  0  0  0  0  0  0  0
   -6.0040   21.4650  -32.2960 C   0  0  0  0  0  0  0  0  0  0  0  0
   -6.8880   20.4430  -32.6800 C   0  0  0  0  0  0  0  0  0  0  0  0
   -6.4930   19.5040  -33.7900 C   0  0  0  0  0  0  0  0  0  0  0  0
   -9.5109   18.7634  -31.4605 H   0  0  0  0  0  0  0  0  0  0  0  0
   -9.9181   19.6523  -32.9674 H   0  0  0  0  0  0  0  0  0  0  0  0
   -8.5855   18.4478  -32.9674 H   0  0  0  0  0  0  0  0  0  0  0  0
   -9.4085   21.0968  -30.4440 H   0  0  0  0  0  0  0  0  0  0  0  0
   -7.8301   22.9047  -29.7935 H   0  0  0  0  0  0  0  0  0  0  0  0
   -2.8187   21.7185  -30.5916 H   0  0  0  0  0  0  0  0  0  0  0  0
   -3.8489   21.5978  -32.0581 H   0  0  0  0  0  0  0  0  0  0  0  0
   -2.4086   22.6712  -32.0581 H   0  0  0  0  0  0  0  0  0  0  0  0
   -4.5120   26.2690  -29.7190 H   0  0  0  0  0  0  0  0  0  0  0  0
   -5.0389   21.5704  -32.8132 H   0  0  0  0  0  0  0  0  0  0  0  0
   -6.1006   18.5712  -33.3589 H   0  0  0  0  0  0  0  0  0  0  0  0
   -7.3729   19.2794  -34.4108 H   0  0  0  0  0  0  0  0  0  0  0  0
   -5.7171   19.9759  -34.4108 H   0  0  0  0  0  0  0  0  0  0  0  0
  1  2  1  0
  2  3  2  0
  3  4  1  0
  4  5  2  0
  5  6  1  0
  6  7  1  0
  7  8  1  0
  7  9  2  0
  9 10  1  0
 10 11  1  0
 11 12  2  0
  5 13  1  0
 13 14  2  0
 14 15  1  0
 14  2  1  0
 11  6  1  0
  1 16  1  0
  1 17  1  0
  1 18  1  0
  3 19  1  0
  4 20  1  0
  8 21  1  0
  8 22  1  0
  8 23  1  0
 10 24  1  0
 13 25  1  0
 15 26  1  0
 15 27  1  0
 15 28  1  0
M  END
>  <UniqueID>  (33) 
32

>  <SMILES>  (33) 
Cc1ccc(-n2c(C)n[nH]c2=S)cc1C

>  <Energy>  (33) 
69.71369746174817

>  <Genealogy>  (33) 
Cc1ccc(-n2c(C)n[nH]c2=S)cc1C (3D coordinates assigned)
Cc1ccc(-n2c(C)n[nH]c2=S)cc1C (optimized conformer: 69.71369746174817 kcal/mol)

>  <smiles>  (33) 
Cc1ccc(-n2c(C)n[nH]c2=S)cc1C

>  <score_type>  (33) 
oracle

>  <origin>  (33) 
adgpu

>  <m_score__min__energy>  (33) 
-7.1600000000000001

>  <m_primary>  (33) 
energy

$$$$
33:0
     RDKit          3D

 46 48  0  0  0  0  0  0  0  0999 V2000
   -8.4320   19.8610  -32.0920 C   0  0  0  0  0  0  0  0  0  0  0  0
   -8.7280   21.0990  -31.4540 O   0  0  0  0  0  0  0  0  0  0  0  0
   -7.8030   22.1390  -31.2750 C   0  0  0  0  0  0  0  0  0  0  0  0
   -7.5600   22.5970  -29.9760 C   0  0  0  0  0  0  0  0  0  0  0  0
   -6.6470   23.6290  -29.7430 C   0  0  0  0  0  0  0  0  0  0  0  0
   -5.9540   24.2230  -30.8130 C   0  0  0  0  0  0  0  0  0  0  0  0
   -4.9850   25.3170  -30.5660 C   0  0  0  0  0  0  0  0  0  0  0  0
   -5.3980   26.4950  -30.3960 O   0  0  0  0  0  0  0  0  0  0  0  0
   -3.5830   25.0270  -30.4680 N   0  0  0  0  0  0  0  0  0  0  0  0
   -2.9960   23.7710  -30.0940 C   0  0  0  0  0  0  0  0  0  0  0  0
   -3.1060   22.6380  -30.9230 C   0  0  0  0  0  0  0  0  0  0  0  0
   -2.5190   21.4280  -30.5490 C   0  0  0  0  0  0  0  0  0  0  0  0
   -1.8270   21.3290  -29.3410 C   0  0  0  0  0  0  0  0  0  0  0  0
   -1.7320   22.4380  -28.4990 C   0  0  0  0  0  0  0  0  0  0  0  0
   -2.3230   23.6600  -28.8590 C   0  0  0  0  0  0  0  0  0  0  0  0
   -2.2260   24.7840  -27.9660 N   0  0  0  0  0  0  0  0  0  0  0  0
   -3.0490   24.8320  -26.7530 C   0  0  0  0  0  0  0  0  0  0  0  0
   -2.3940   25.7280  -25.6880 C   0  0  0  0  0  0  0  0  0  0  0  0
   -0.9250   25.5550  -25.6530 N   0  0  0  0  0  0  0  0  0  0  0  0
   -0.5430   24.2230  -25.1510 C   0  0  0  0  0  0  0  0  0  0  0  0
   -0.2600   25.8710  -26.9450 C   0  0  0  0  0  0  0  0  0  0  0  0
   -1.1950   25.8040  -28.1660 C   0  0  0  0  0  0  0  0  0  0  0  0
   -6.1990   23.7640  -32.1190 C   0  0  0  0  0  0  0  0  0  0  0  0
   -7.1140   22.7310  -32.3490 C   0  0  0  0  0  0  0  0  0  0  0  0
   -8.2477   19.0902  -31.3291 H   0  0  0  0  0  0  0  0  0  0  0  0
   -9.2833   19.5593  -32.7199 H   0  0  0  0  0  0  0  0  0  0  0  0
   -7.5363   19.9770  -32.7199 H   0  0  0  0  0  0  0  0  0  0  0  0
   -8.0930   22.1402  -29.1291 H   0  0  0  0  0  0  0  0  0  0  0  0
   -6.4691   23.9792  -28.7155 H   0  0  0  0  0  0  0  0  0  0  0  0
   -3.6583   22.7069  -31.8718 H   0  0  0  0  0  0  0  0  0  0  0  0
   -2.6020   20.5509  -31.2076 H   0  0  0  0  0  0  0  0  0  0  0  0
   -1.3567   20.3773  -29.0527 H   0  0  0  0  0  0  0  0  0  0  0  0
   -1.1898   22.3542  -27.5456 H   0  0  0  0  0  0  0  0  0  0  0  0
   -4.0406   25.2361  -27.0049 H   0  0  0  0  0  0  0  0  0  0  0  0
   -3.1440   23.8133  -26.3490 H   0  0  0  0  0  0  0  0  0  0  0  0
   -2.6235   26.7792  -25.9169 H   0  0  0  0  0  0  0  0  0  0  0  0
   -2.7958   25.4408  -24.7051 H   0  0  0  0  0  0  0  0  0  0  0  0
   -0.5453   24.2312  -24.0510 H   0  0  0  0  0  0  0  0  0  0  0  0
   -1.2626   23.4742  -25.5136 H   0  0  0  0  0  0  0  0  0  0  0  0
    0.4641   23.9694  -25.5136 H   0  0  0  0  0  0  0  0  0  0  0  0
    0.1526   26.8887  -26.8813 H   0  0  0  0  0  0  0  0  0  0  0  0
    0.5162   25.1066  -27.0975 H   0  0  0  0  0  0  0  0  0  0  0  0
   -1.6766   26.7828  -28.3075 H   0  0  0  0  0  0  0  0  0  0  0  0
   -0.6021   25.5416  -29.0546 H   0  0  0  0  0  0  0  0  0  0  0  0
   -5.6671   24.2206  -32.9667 H   0  0  0  0  0  0  0  0  0  0  0  0
   -7.2957   22.3798  -33.3755 H   0  0  0  0  0  0  0  0  0  0  0  0
  1  2  1  0
  2  3  1  0
  3  4  2  0
  4  5  1  0
  5  6  2  0
  6  7  1  0
  7  8  2  0
  7  9  1  0
  9 10  1  0
 10 11  2  0
 11 12  1  0
 12 13  2  0
 13 14  1  0
 14 15  2  0
 15 16  1  0
 16 17  1  0
 17 18  1  0
 18 19  1  0
 19 20  1  0
 19 21  1  0
 21 22  1  0
  6 23  1  0
 23 24  2  0
 24  3  1  0
 15 10  1  0
 22 16  1  0
  1 25  1  0
  1 26  1  0
  1 27  1  0
  4 28  1  0
  5 29  1  0
 11 30  1  0
 12 31  1  0
 13 32  1  0
 14 33  1  0
 17 34  1  0
 17 35  1  0
 18 36  1  0
 18 37  1  0
 20 38  1  0
 20 39  1  0
 20 40  1  0
 21 41  1  0
 21 42  1  0
 22 43  1  0
 22 44  1  0
 23 45  1  0
 24 46  1  0
M  CHG  1   9  -1
M  END
>  <UniqueID>  (34) 
33

>  <SMILES>  (34) 
COc1ccc(C(=O)[N-]c2ccccc2N2CCN(C)CC2)cc1

>  <Energy>  (34) 
63.3508797586967

>  <Genealogy>  (34) 
COc1ccc(C(=O)[N-]c2ccccc2N2CCN(C)CC2)cc1 (protonated)
COc1ccc(C(=O)[N-]c2ccccc2N2CCN(C)CC2)cc1 (3D coordinates assigned)
COc1ccc(C(=O)[N-]c2ccccc2N2CCN(C)CC2)cc1 (nonaromatic ring conformer: 63.3508797586967 kcal/mol)

>  <smiles>  (34) 
COc1ccc(C(=O)Nc2ccccc2N2CCN(C)CC2)cc1

>  <score_type>  (34) 
oracle

>  <origin>  (34) 
adgpu

>  <m_score__min__energy>  (34) 
-9.1899999999999995

>  <m_primary>  (34) 
energy

$$$$
34:0
     RDKit          3D

 30 31  0  0  0  0  0  0  0  0999 V2000
   -8.6980   19.0400  -31.9690 C   0  0  0  0  0  0  0  0  0  0  0  0
   -8.6810   20.3600  -32.5040 O   0  0  0  0  0  0  0  0  0  0  0  0
   -7.7150   21.3280  -32.1910 C   0  0  0  0  0  0  0  0  0  0  0  0
   -6.3780   21.0600  -32.5030 C   0  0  0  0  0  0  0  0  0  0  0  0
   -5.3790   21.9910  -32.2090 C   0  0  0  0  0  0  0  0  0  0  0  0
   -5.7000   23.1990  -31.5790 C   0  0  0  0  0  0  0  0  0  0  0  0
   -4.6580   24.1480  -31.3200 N   0  0  0  0  0  0  0  0  0  0  0  0
   -3.5420   23.9520  -30.4430 C   0  0  0  0  0  0  0  0  0  0  0  0
   -2.8680   22.8950  -30.5520 O   0  0  0  0  0  0  0  0  0  0  0  0
   -3.2180   24.9260  -29.4350 N   0  0  0  0  0  0  0  0  0  0  0  0
   -2.1040   24.8150  -28.5330 C   0  0  0  0  0  0  0  0  0  0  0  0
   -2.2560   24.9600  -27.1450 C   0  0  0  0  0  0  0  0  0  0  0  0
   -1.1420   24.8710  -26.3070 C   0  0  0  0  0  0  0  0  0  0  0  0
    0.1170   24.6520  -26.8650 C   0  0  0  0  0  0  0  0  0  0  0  0
    0.2550   24.5370  -28.2120 N   0  0  0  0  0  0  0  0  0  0  0  0
   -0.8140   24.6200  -29.0490 C   0  0  0  0  0  0  0  0  0  0  0  0
   -7.0440   23.4850  -31.2880 C   0  0  0  0  0  0  0  0  0  0  0  0
   -8.0450   22.5540  -31.5820 C   0  0  0  0  0  0  0  0  0  0  0  0
   -8.6974   19.0897  -30.8701 H   0  0  0  0  0  0  0  0  0  0  0  0
   -9.6030   18.5170  -32.3119 H   0  0  0  0  0  0  0  0  0  0  0  0
   -7.8068   18.4939  -32.3119 H   0  0  0  0  0  0  0  0  0  0  0  0
   -6.1109   20.1076  -32.9842 H   0  0  0  0  0  0  0  0  0  0  0  0
   -4.3338   21.7735  -32.4742 H   0  0  0  0  0  0  0  0  0  0  0  0
   -3.7810   25.8050  -29.3900 H   0  0  0  0  0  0  0  0  0  0  0  0
   -3.2526   25.1437  -26.7172 H   0  0  0  0  0  0  0  0  0  0  0  0
   -1.2568   24.9727  -25.2177 H   0  0  0  0  0  0  0  0  0  0  0  0
    0.9999   24.5722  -26.2138 H   0  0  0  0  0  0  0  0  0  0  0  0
   -0.6664   24.5338  -30.1356 H   0  0  0  0  0  0  0  0  0  0  0  0
   -7.3107   24.4470  -30.8261 H   0  0  0  0  0  0  0  0  0  0  0  0
   -9.0933   22.7800  -31.3368 H   0  0  0  0  0  0  0  0  0  0  0  0
  1  2  1  0
  2  3  1  0
  3  4  2  0
  4  5  1  0
  5  6  2  0
  6  7  1  0
  7  8  1  0
  8  9  2  0
  8 10  1  0
 10 11  1  0
 11 12  2  0
 12 13  1  0
 13 14  2  0
 14 15  1  0
 15 16  2  0
  6 17  1  0
 17 18  2  0
 18  3  1  0
 16 11  1  0
  1 19  1  0
  1 20  1  0
  1 21  1  0
  4 22  1  0
  5 23  1  0
 10 24  1  0
 12 25  1  0
 13 26  1  0
 14 27  1  0
 16 28  1  0
 17 29  1  0
 18 30  1  0
M  CHG  1   7  -1
M  END
>  <UniqueID>  (35) 
34

>  <SMILES>  (35) 
COc1ccc([N-]C(=O)Nc2cccnc2)cc1

>  <Energy>  (35) 
39.04716179139965

>  <Genealogy>  (35) 
COc1ccc([N-]C(=O)Nc2cccnc2)cc1 (protonated)
COc1ccc([N-]C(=O)Nc2cccnc2)cc1 (3D coordinates assigned)
COc1ccc([N-]C(=O)Nc2cccnc2)cc1 (optimized conformer: 39.04716179139965 kcal/mol)

>  <smiles>  (35) 
COc1ccc(NC(=O)Nc2cccnc2)cc1

>  <score_type>  (35) 
oracle

>  <origin>  (35) 
adgpu

>  <m_score__min__energy>  (35) 
-7.7699999999999996

>  <m_primary>  (35) 
energy

$$$$
35:0
     RDKit          3D

 28 29  0  0  0  0  0  0  0  0999 V2000
   -7.2730   21.1700  -31.2570 C   0  0  0  0  0  0  0  0  0  0  0  0
   -6.3650   22.3530  -31.0910 C   0  0  0  0  0  0  0  0  0  0  0  0
   -6.8900   23.6520  -31.0990 C   0  0  0  0  0  0  0  0  0  0  0  0
   -6.0500   24.7510  -30.9030 C   0  0  0  0  0  0  0  0  0  0  0  0
   -4.6830   24.5630  -30.6830 C   0  0  0  0  0  0  0  0  0  0  0  0
   -3.8680   25.6740  -30.4900 O   0  0  0  0  0  0  0  0  0  0  0  0
   -4.1440   23.2630  -30.6560 C   0  0  0  0  0  0  0  0  0  0  0  0
   -2.6780   23.0390  -30.3800 C   0  0  0  0  0  0  0  0  0  0  0  0
   -2.3640   23.2940  -28.9340 C   0  0  0  0  0  0  0  0  0  0  0  0
   -2.5340   22.4470  -27.8450 C   0  0  0  0  0  0  0  0  0  0  0  0
   -3.0660   21.0530  -27.8630 C   0  0  0  0  0  0  0  0  0  0  0  0
   -2.1770   23.0870  -26.7500 O   0  0  0  0  0  0  0  0  0  0  0  0
   -1.7800   24.2930  -27.0330 N   0  0  0  0  0  0  0  0  0  0  0  0
   -1.8840   24.4530  -28.3610 C   0  0  0  0  0  0  0  0  0  0  0  0
   -1.5850   25.5140  -28.9700 O   0  0  0  0  0  0  0  0  0  0  0  0
   -4.9960   22.1630  -30.8550 C   0  0  0  0  0  0  0  0  0  0  0  0
   -7.5647   20.7899  -30.2668 H   0  0  0  0  0  0  0  0  0  0  0  0
   -8.1724   21.4733  -31.8129 H   0  0  0  0  0  0  0  0  0  0  0  0
   -6.7475   20.3796  -31.8129 H   0  0  0  0  0  0  0  0  0  0  0  0
   -7.9670   23.8070  -31.2601 H   0  0  0  0  0  0  0  0  0  0  0  0
   -6.4666   25.7689  -30.9220 H   0  0  0  0  0  0  0  0  0  0  0  0
   -2.4190   21.9990  -30.6276 H   0  0  0  0  0  0  0  0  0  0  0  0
   -2.0919   23.7361  -30.9969 H   0  0  0  0  0  0  0  0  0  0  0  0
   -3.2012   20.6988  -26.8304 H   0  0  0  0  0  0  0  0  0  0  0  0
   -4.0336   21.0365  -28.3859 H   0  0  0  0  0  0  0  0  0  0  0  0
   -2.3554   20.3961  -28.3859 H   0  0  0  0  0  0  0  0  0  0  0  0
   -1.4470   24.9960  -26.3360 H   0  0  0  0  0  0  0  0  0  0  0  0
   -4.5848   21.1432  -30.8253 H   0  0  0  0  0  0  0  0  0  0  0  0
  1  2  1  0
  2  3  2  0
  3  4  1  0
  4  5  2  0
  5  6  1  0
  5  7  1  0
  7  8  1  0
  8  9  1  0
  9 10  2  0
 10 11  1  0
 10 12  1  0
 12 13  1  0
 13 14  1  0
 14 15  2  0
  7 16  2  0
 16  2  1  0
 14  9  1  0
  1 17  1  0
  1 18  1  0
  1 19  1  0
  3 20  1  0
  4 21  1  0
  8 22  1  0
  8 23  1  0
 11 24  1  0
 11 25  1  0
 11 26  1  0
 13 27  1  0
 16 28  1  0
M  CHG  1   6  -1
M  END
>  <UniqueID>  (36) 
35

>  <SMILES>  (36) 
Cc1ccc([O-])c(Cc2c(C)o[nH]c2=O)c1

>  <Energy>  (36) 
58.191221049735596

>  <Genealogy>  (36) 
Cc1ccc([O-])c(Cc2c(C)o[nH]c2=O)c1 (protonated)
Cc1ccc([O-])c(Cc2c(C)o[nH]c2=O)c1 (3D coordinates assigned)
Cc1ccc([O-])c(Cc2c(C)o[nH]c2=O)c1 (optimized conformer: 58.191221049735596 kcal/mol)

>  <smiles>  (36) 
Cc1ccc(O)c(Cc2c(C)o[nH]c2=O)c1

>  <score_type>  (36) 
oracle

>  <origin>  (36) 
adgpu

>  <m_score__min__energy>  (36) 
-9.1899999999999995

>  <m_primary>  (36) 
energy

$$$$
36:0
     RDKit          3D

 46 48  0  0  0  0  0  0  0  0999 V2000
   -8.7150   23.0280  -31.7260 C   0  0  0  0  0  0  0  0  0  0  0  0
   -7.2790   22.5210  -31.4970 C   0  0  2  0  0  0  0  0  0  0  0  0
   -6.3240   23.7210  -31.4600 C   0  0  0  0  0  0  0  0  0  0  0  0
   -4.9530   23.2730  -31.2090 N   0  0  0  0  0  0  0  0  0  0  0  0
   -4.0570   24.1490  -30.4990 C   0  0  0  0  0  0  0  0  0  0  0  0
   -3.9680   25.3600  -30.8420 O   0  0  0  0  0  0  0  0  0  0  0  0
   -3.2660   23.6630  -29.3450 C   0  0  0  0  0  0  0  0  0  0  0  0
   -3.5890   22.4300  -28.7510 C   0  0  0  0  0  0  0  0  0  0  0  0
   -2.8470   21.9460  -27.6700 C   0  0  0  0  0  0  0  0  0  0  0  0
   -1.7790   22.6870  -27.1630 C   0  0  0  0  0  0  0  0  0  0  0  0
   -1.0450   22.1890  -26.0870 O   0  0  0  0  0  0  0  0  0  0  0  0
   -1.4560   23.9230  -27.7350 C   0  0  0  0  0  0  0  0  0  0  0  0
   -2.1980   24.4180  -28.8140 C   0  0  0  0  0  0  0  0  0  0  0  0
   -1.8810   25.6690  -29.3310 O   0  0  0  0  0  0  0  0  0  0  0  0
   -4.4490   22.1520  -31.9570 C   0  0  0  0  0  0  0  0  0  0  0  0
   -3.1080   21.9220  -32.0170 N   0  0  0  0  0  0  0  0  0  0  0  0
   -2.5840   20.9210  -32.7720 C   0  0  0  0  0  0  0  0  0  0  0  0
   -1.1600   20.7100  -32.8100 N   0  0  0  0  0  0  0  0  0  0  0  0
   -0.3810   20.7840  -31.5700 C   0  0  0  0  0  0  0  0  0  0  0  0
   -0.5000   20.4210  -34.0870 C   0  0  0  0  0  0  0  0  0  0  0  0
   -3.4150   20.1420  -33.5110 N   0  0  0  0  0  0  0  0  0  0  0  0
   -4.7600   20.3180  -33.4770 C   0  0  0  0  0  0  0  0  0  0  0  0
   -5.3310   21.3010  -32.6520 C   0  0  0  0  0  0  0  0  0  0  0  0
   -6.8480   21.4810  -32.5780 C   0  0  1  0  0  0  0  0  0  0  0  0
   -7.5350   20.1260  -32.3040 C   0  0  0  0  0  0  0  0  0  0  0  0
   -9.2023   23.2001  -30.7550 H   0  0  0  0  0  0  0  0  0  0  0  0
   -8.6852   23.9700  -32.2933 H   0  0  0  0  0  0  0  0  0  0  0  0
   -9.2832   22.2761  -32.2933 H   0  0  0  0  0  0  0  0  0  0  0  0
   -7.2391   21.9952  -30.5316 H   0  0  0  0  0  0  0  0  0  0  0  0
   -6.3630   24.2455  -32.4261 H   0  0  0  0  0  0  0  0  0  0  0  0
   -6.6325   24.3984  -30.6501 H   0  0  0  0  0  0  0  0  0  0  0  0
   -4.4328   21.8415  -29.1404 H   0  0  0  0  0  0  0  0  0  0  0  0
   -3.1059   20.9775  -27.2173 H   0  0  0  0  0  0  0  0  0  0  0  0
   -0.9030   22.7360  -25.2450 H   0  0  0  0  0  0  0  0  0  0  0  0
   -0.6150   24.5083  -27.3347 H   0  0  0  0  0  0  0  0  0  0  0  0
   -1.0593   20.7196  -30.7064 H   0  0  0  0  0  0  0  0  0  0  0  0
    0.3353   19.9499  -31.5366 H   0  0  0  0  0  0  0  0  0  0  0  0
    0.1654   21.7381  -31.5366 H   0  0  0  0  0  0  0  0  0  0  0  0
    0.4924   19.9864  -33.8967 H   0  0  0  0  0  0  0  0  0  0  0  0
   -1.1089   19.7071  -34.6612 H   0  0  0  0  0  0  0  0  0  0  0  0
   -0.3884   21.3526  -34.6612 H   0  0  0  0  0  0  0  0  0  0  0  0
   -5.4087   19.6855  -34.1008 H   0  0  0  0  0  0  0  0  0  0  0  0
   -7.1697   21.8721  -33.5545 H   0  0  0  0  0  0  0  0  0  0  0  0
   -7.6149   19.9683  -31.2183 H   0  0  0  0  0  0  0  0  0  0  0  0
   -8.5409   20.1282  -32.7492 H   0  0  0  0  0  0  0  0  0  0  0  0
   -6.9387   19.3159  -32.7492 H   0  0  0  0  0  0  0  0  0  0  0  0
  1  2  1  0
  2  3  1  0
  3  4  1  0
  4  5  1  0
  5  6  2  0
  5  7  1  0
  7  8  2  0
  8  9  1  0
  9 10  2  0
 10 11  1  0
 10 12  1  0
 12 13  2  0
 13 14  1  0
  4 15  1  0
 15 16  2  0
 16 17  1  0
 17 18  1  0
 18 19  1  0
 18 20  1  0
 17 21  2  0
 21 22  1  0
 22 23  2  0
 23 24  1  0
 24 25  1  0
 24  2  1  0
 13  7  1  0
 23 15  1  0
  1 26  1  0
  1 27  1  0
  1 28  1  0
  2 29  1  1
  3 30  1  0
  3 31  1  0
  8 32  1  0
  9 33  1  0
 11 34  1  0
 12 35  1  0
 19 36  1  0
 19 37  1  0
 19 38  1  0
 20 39  1  0
 20 40  1  0
 20 41  1  0
 22 42  1  0
 24 43  1  6
 25 44  1  0
 25 45  1  0
 25 46  1  0
M  CHG  1  14  -1
M  END
>  <UniqueID>  (37) 
36

>  <SMILES>  (37) 
C[C@@H]1CN(C(=O)c2ccc(O)cc2[O-])c2nc(N(C)C)ncc2[C@H]1C

>  <Energy>  (37) 
54.40021431636305

>  <Genealogy>  (37) 
CC1CN(C(=O)c2ccc(O)cc2[O-])c2nc(N(C)C)ncc2C1C (protonated)
C[C@@H]1CN(C(=O)c2ccc(O)cc2[O-])c2nc(N(C)C)ncc2[C@H]1C (chirality)
C[C@@H]1CN(C(=O)c2ccc(O)cc2[O-])c2nc(N(C)C)ncc2[C@H]1C (3D coordinates assigned)
C[C@@H]1CN(C(=O)c2ccc(O)cc2[O-])c2nc(N(C)C)ncc2[C@H]1C (nonaromatic ring conformer: 54.40021431636305 kcal/mol)

>  <smiles>  (37) 
CC1CN(C(=O)c2ccc(O)cc2O)c2nc(N(C)C)ncc2C1C

>  <score_type>  (37) 
oracle

>  <origin>  (37) 
adgpu

>  <m_score__min__energy>  (37) 
-11.529999999999999

>  <m_primary>  (37) 
energy

$$$$
37:0
     RDKit          3D

 41 43  0  0  0  0  0  0  0  0999 V2000
   -9.1510   21.8600  -31.7110 C   0  0  0  0  0  0  0  0  0  0  0  0
   -8.0090   20.9240  -31.9850 C   0  0  0  0  0  0  0  0  0  0  0  0
   -6.7030   21.4220  -32.1310 C   0  0  0  0  0  0  0  0  0  0  0  0
   -5.6340   20.5480  -32.3670 C   0  0  0  0  0  0  0  0  0  0  0  0
   -4.0000   21.1810  -32.5340 S   0  0  0  0  0  0  0  0  0  0  0  0
   -3.8640   21.9060  -33.8430 O   0  0  0  0  0  0  0  0  0  0  0  0
   -3.0070   20.0520  -32.5200 O   0  0  0  0  0  0  0  0  0  0  0  0
   -3.6740   22.2840  -31.2030 C   0  0  0  0  0  0  0  0  0  0  0  0
   -4.4880   23.4070  -31.0060 C   0  0  0  0  0  0  0  0  0  0  0  0
   -4.2440   24.2750  -29.9370 C   0  0  0  0  0  0  0  0  0  0  0  0
   -3.1910   24.0200  -29.0400 C   0  0  0  0  0  0  0  0  0  0  0  0
   -2.9040   24.9100  -27.9470 N   0  0  0  0  0  0  0  0  0  0  0  0
   -1.5900   25.4140  -27.6540 C   0  0  0  0  0  0  0  0  0  0  0  0
   -0.7130   25.4400  -28.5610 O   0  0  0  0  0  0  0  0  0  0  0  0
   -1.2650   25.9540  -26.3110 C   0  0  0  0  0  0  0  0  0  0  0  0
   -1.0180   25.0950  -25.2250 C   0  0  0  0  0  0  0  0  0  0  0  0
   -0.7040   25.6340  -23.9750 C   0  0  0  0  0  0  0  0  0  0  0  0
   -0.6330   26.9800  -23.8090 N   0  0  0  0  0  0  0  0  0  0  0  0
   -0.8590   27.8370  -24.8390 C   0  0  0  0  0  0  0  0  0  0  0  0
   -1.1750   27.3410  -26.1060 C   0  0  0  0  0  0  0  0  0  0  0  0
   -2.3710   22.9000  -29.2510 C   0  0  0  0  0  0  0  0  0  0  0  0
   -2.6180   22.0320  -30.3190 C   0  0  0  0  0  0  0  0  0  0  0  0
   -5.8660   19.1690  -32.4330 C   0  0  0  0  0  0  0  0  0  0  0  0
   -7.1600   18.6660  -32.2740 C   0  0  0  0  0  0  0  0  0  0  0  0
   -8.2300   19.5380  -32.0500 C   0  0  0  0  0  0  0  0  0  0  0  0
   -9.4780   19.0310  -31.8880 F   0  0  0  0  0  0  0  0  0  0  0  0
   -9.2835   21.9686  -30.6244 H   0  0  0  0  0  0  0  0  0  0  0  0
   -8.9337   22.8431  -32.1539 H   0  0  0  0  0  0  0  0  0  0  0  0
  -10.0723   21.4539  -32.1539 H   0  0  0  0  0  0  0  0  0  0  0  0
   -6.5191   22.5042  -32.0596 H   0  0  0  0  0  0  0  0  0  0  0  0
   -5.3221   23.6068  -31.6947 H   0  0  0  0  0  0  0  0  0  0  0  0
   -4.8791   25.1621  -29.7969 H   0  0  0  0  0  0  0  0  0  0  0  0
   -3.7110   25.2990  -27.4100 H   0  0  0  0  0  0  0  0  0  0  0  0
   -1.0718   24.0045  -25.3592 H   0  0  0  0  0  0  0  0  0  0  0  0
   -0.5136   24.9658  -23.1222 H   0  0  0  0  0  0  0  0  0  0  0  0
   -0.7930   28.9227  -24.6749 H   0  0  0  0  0  0  0  0  0  0  0  0
   -1.3529   28.0345  -26.9411 H   0  0  0  0  0  0  0  0  0  0  0  0
   -1.5285   22.7041  -28.5715 H   0  0  0  0  0  0  0  0  0  0  0  0
   -1.9802   21.1478  -30.4652 H   0  0  0  0  0  0  0  0  0  0  0  0
   -5.0274   18.4796  -32.6105 H   0  0  0  0  0  0  0  0  0  0  0  0
   -7.3373   17.5816  -32.3252 H   0  0  0  0  0  0  0  0  0  0  0  0
  1  2  1  0
  2  3  2  0
  3  4  1  0
  4  5  1  0
  5  6  2  0
  5  7  2  0
  5  8  1  0
  8  9  2  0
  9 10  1  0
 10 11  2  0
 11 12  1  0
 12 13  1  0
 13 14  2  0
 13 15  1  0
 15 16  2  0
 16 17  1  0
 17 18  2  0
 18 19  1  0
 19 20  2  0
 11 21  1  0
 21 22  2  0
  4 23  2  0
 23 24  1  0
 24 25  2  0
 25 26  1  0
 25  2  1  0
 22  8  1  0
 20 15  1  0
  1 27  1  0
  1 28  1  0
  1 29  1  0
  3 30  1  0
  9 31  1  0
 10 32  1  0
 12 33  1  0
 16 34  1  0
 17 35  1  0
 19 36  1  0
 20 37  1  0
 21 38  1  0
 22 39  1  0
 23 40  1  0
 24 41  1  0
M  END
>  <UniqueID>  (38) 
37

>  <SMILES>  (38) 
Cc1cc(S(=O)(=O)c2ccc(NC(=O)c3ccncc3)cc2)ccc1F

>  <Energy>  (38) 
51.65176747056991

>  <Genealogy>  (38) 
Cc1cc(S(=O)(=O)c2ccc(NC(=O)c3ccncc3)cc2)ccc1F (3D coordinates assigned)
Cc1cc(S(=O)(=O)c2ccc(NC(=O)c3ccncc3)cc2)ccc1F (optimized conformer: 51.65176747056991 kcal/mol)

>  <smiles>  (38) 
Cc1cc(S(=O)(=O)c2ccc(NC(=O)c3ccncc3)cc2)ccc1F

>  <score_type>  (38) 
oracle

>  <origin>  (38) 
adgpu

>  <m_score__min__energy>  (38) 
-9.1699999999999999

>  <m_primary>  (38) 
energy

$$$$
38:0
     RDKit          3D

 66 69  0  0  0  0  0  0  0  0999 V2000
   -5.1910   13.0310  -34.9650 C   0  0  0  0  0  0  0  0  0  0  0  0
   -3.9950   12.7280  -34.0520 C   0  0  2  0  0  0  0  0  0  0  0  0
   -3.8910   13.7710  -32.9220 C   0  0  0  0  0  0  0  0  0  0  0  0
   -2.4770   13.8680  -32.3370 C   0  0  1  0  0  0  0  0  0  0  0  0
   -2.1110   12.6170  -31.5190 C   0  0  0  0  0  0  0  0  0  0  0  0
   -1.4220   14.1830  -33.4310 C   0  0  0  0  0  0  0  0  0  0  0  0
   -1.7790   13.7250  -34.7930 N   0  0  0  0  0  0  0  0  0  0  0  0
   -2.2270   15.0310  -35.8690 S   0  0  0  0  0  0  0  0  0  0  0  0
   -3.0620   14.5170  -37.0070 O   0  0  0  0  0  0  0  0  0  0  0  0
   -1.0050   15.7050  -36.4270 O   0  0  0  0  0  0  0  0  0  0  0  0
   -3.1460   16.2220  -34.9540 C   0  0  0  0  0  0  0  0  0  0  0  0
   -2.4680   17.1830  -34.1940 C   0  0  0  0  0  0  0  0  0  0  0  0
   -3.1830   18.1420  -33.4690 C   0  0  0  0  0  0  0  0  0  0  0  0
   -4.5890   18.1520  -33.4960 C   0  0  0  0  0  0  0  0  0  0  0  0
   -5.3600   19.1730  -32.7520 C   0  0  0  0  0  0  0  0  0  0  0  0
   -6.1750   18.8040  -31.8630 O   0  0  0  0  0  0  0  0  0  0  0  0
   -5.1670   20.5770  -33.0040 N   0  0  0  0  0  0  0  0  0  0  0  0
   -5.9830   21.5820  -32.3780 C   0  0  0  0  0  0  0  0  0  0  0  0
   -5.3740   22.6960  -31.7760 C   0  0  0  0  0  0  0  0  0  0  0  0
   -6.1470   23.6900  -31.1630 C   0  0  0  0  0  0  0  0  0  0  0  0
   -5.3630   25.0850  -30.4200 S   0  0  0  0  0  0  0  0  0  0  0  0
   -5.7270   26.3200  -31.1960 O   0  0  0  0  0  0  0  0  0  0  0  0
   -5.8400   25.2750  -29.0070 O   0  0  0  0  0  0  0  0  0  0  0  0
   -3.6370   24.8930  -30.4690 N   0  0  0  0  0  0  0  0  0  0  0  0
   -2.8080   24.2890  -29.4640 C   0  0  0  0  0  0  0  0  0  0  0  0
   -3.1600   23.0180  -28.9900 C   0  0  0  0  0  0  0  0  0  0  0  0
   -2.3790   22.3790  -28.0220 C   0  0  0  0  0  0  0  0  0  0  0  0
   -1.2220   22.9980  -27.5390 C   0  0  0  0  0  0  0  0  0  0  0  0
   -0.8600   24.2630  -28.0060 C   0  0  0  0  0  0  0  0  0  0  0  0
   -1.6480   24.9120  -28.9620 C   0  0  0  0  0  0  0  0  0  0  0  0
   -7.5400   23.5640  -31.1410 C   0  0  0  0  0  0  0  0  0  0  0  0
   -8.1550   22.4500  -31.7170 C   0  0  0  0  0  0  0  0  0  0  0  0
   -7.3890   21.4530  -32.3400 C   0  0  0  0  0  0  0  0  0  0  0  0
   -8.0530   20.3510  -32.9670 N   0  0  0  0  0  0  0  0  0  0  0  0
   -5.2640   17.1860  -34.2650 C   0  0  0  0  0  0  0  0  0  0  0  0
   -4.5480   16.2240  -34.9830 C   0  0  0  0  0  0  0  0  0  0  0  0
   -2.6810   12.5610  -34.8580 C   0  0  0  0  0  0  0  0  0  0  0  0
   -6.0747   13.2549  -34.3494 H   0  0  0  0  0  0  0  0  0  0  0  0
   -4.9571   13.8983  -35.5999 H   0  0  0  0  0  0  0  0  0  0  0  0
   -5.3983   12.1570  -35.5999 H   0  0  0  0  0  0  0  0  0  0  0  0
   -4.1672   11.7554  -33.5678 H   0  0  0  0  0  0  0  0  0  0  0  0
   -4.1742   14.7550  -33.3238 H   0  0  0  0  0  0  0  0  0  0  0  0
   -4.5651   13.4536  -32.1128 H   0  0  0  0  0  0  0  0  0  0  0  0
   -2.4712   14.7169  -31.6375 H   0  0  0  0  0  0  0  0  0  0  0  0
   -2.1786   12.8480  -30.4457 H   0  0  0  0  0  0  0  0  0  0  0  0
   -2.8084   11.8022  -31.7633 H   0  0  0  0  0  0  0  0  0  0  0  0
   -1.0844   12.3066  -31.7633 H   0  0  0  0  0  0  0  0  0  0  0  0
   -1.2791   15.2732  -33.4638 H   0  0  0  0  0  0  0  0  0  0  0  0
   -0.5124   13.6323  -33.1494 H   0  0  0  0  0  0  0  0  0  0  0  0
   -1.3683   17.1838  -34.1670 H   0  0  0  0  0  0  0  0  0  0  0  0
   -2.6423   18.8929  -32.8742 H   0  0  0  0  0  0  0  0  0  0  0  0
   -4.3270   20.8820  -33.5430 H   0  0  0  0  0  0  0  0  0  0  0  0
   -4.2779   22.7884  -31.7863 H   0  0  0  0  0  0  0  0  0  0  0  0
   -4.0582   22.5189  -29.3827 H   0  0  0  0  0  0  0  0  0  0  0  0
   -2.6745   21.3904  -27.6409 H   0  0  0  0  0  0  0  0  0  0  0  0
   -0.5969   22.4883  -26.7910 H   0  0  0  0  0  0  0  0  0  0  0  0
    0.0477   24.7507  -27.6209 H   0  0  0  0  0  0  0  0  0  0  0  0
   -1.3616   25.9109  -29.3228 H   0  0  0  0  0  0  0  0  0  0  0  0
   -8.1534   24.3452  -30.6683 H   0  0  0  0  0  0  0  0  0  0  0  0
   -9.2502   22.3534  -31.6819 H   0  0  0  0  0  0  0  0  0  0  0  0
   -8.1600   19.4270  -32.4950 H   0  0  0  0  0  0  0  0  0  0  0  0
   -8.3940   20.4300  -33.9520 H   0  0  0  0  0  0  0  0  0  0  0  0
   -6.3634   17.1880  -34.3013 H   0  0  0  0  0  0  0  0  0  0  0  0
   -5.0856   15.4666  -35.5723 H   0  0  0  0  0  0  0  0  0  0  0  0
   -2.9429   12.3862  -35.9120 H   0  0  0  0  0  0  0  0  0  0  0  0
   -2.1393   11.7164  -34.4071 H   0  0  0  0  0  0  0  0  0  0  0  0
  1  2  1  0
  2  3  1  0
  3  4  1  0
  4  5  1  0
  4  6  1  0
  6  7  1  0
  7  8  1  0
  8  9  2  0
  8 10  2  0
  8 11  1  0
 11 12  2  0
 12 13  1  0
 13 14  2  0
 14 15  1  0
 15 16  2  0
 15 17  1  0
 17 18  1  0
 18 19  2  0
 19 20  1  0
 20 21  1  0
 21 22  2  0
 21 23  2  0
 21 24  1  0
 24 25  1  0
 25 26  2  0
 26 27  1  0
 27 28  2  0
 28 29  1  0
 29 30  2  0
 20 31  2  0
 31 32  1  0
 32 33  2  0
 33 34  1  0
 14 35  1  0
 35 36  2  0
  7 37  1  0
 37  2  1  0
 36 11  1  0
 33 18  1  0
 30 25  1  0
  1 38  1  0
  1 39  1  0
  1 40  1  0
  2 41  1  1
  3 42  1  0
  3 43  1  0
  4 44  1  1
  5 45  1  0
  5 46  1  0
  5 47  1  0
  6 48  1  0
  6 49  1  0
 12 50  1  0
 13 51  1  0
 17 52  1  0
 19 53  1  0
 26 54  1  0
 27 55  1  0
 28 56  1  0
 29 57  1  0
 30 58  1  0
 31 59  1  0
 32 60  1  0
 34 61  1  0
 34 62  1  0
 35 63  1  0
 36 64  1  0
 37 65  1  0
 37 66  1  0
M  CHG  1  24  -1
M  END
>  <UniqueID>  (39) 
38

>  <SMILES>  (39) 
C[C@@H]1C[C@@H](C)CN(S(=O)(=O)c2ccc(C(=O)Nc3cc(S(=O)(=O)[N-]c4ccccc4)ccc3N)cc2)C1

>  <Energy>  (39) 
90.16733086808432

>  <Genealogy>  (39) 
CC1CC(C)CN(S(=O)(=O)c2ccc(C(=O)Nc3cc(S(=O)(=O)[N-]c4ccccc4)ccc3N)cc2)C1 (protonated)
C[C@@H]1C[C@@H](C)CN(S(=O)(=O)c2ccc(C(=O)Nc3cc(S(=O)(=O)[N-]c4ccccc4)ccc3N)cc2)C1 (chirality)
C[C@@H]1C[C@@H](C)CN(S(=O)(=O)c2ccc(C(=O)Nc3cc(S(=O)(=O)[N-]c4ccccc4)ccc3N)cc2)C1 (3D coordinates assigned)
C[C@@H]1C[C@@H](C)CN(S(=O)(=O)c2ccc(C(=O)Nc3cc(S(=O)(=O)[N-]c4ccccc4)ccc3N)cc2)C1 (nonaromatic ring conformer: 90.16733086808432 kcal/mol)

>  <smiles>  (39) 
CC1CC(C)CN(S(=O)(=O)c2ccc(C(=O)Nc3cc(S(=O)(=O)Nc4ccccc4)ccc3N)cc2)C1

>  <score_type>  (39) 
oracle

>  <origin>  (39) 
adgpu

>  <m_score__min__energy>  (39) 
-10.76

>  <m_primary>  (39) 
energy

$$$$
39:0
     RDKit          3D

 43 46  0  0  1  0  0  0  0  0999 V2000
   -5.5060   25.6200  -30.7280 C   0  0  0  0  0  0  0  0  0  0  0  0
   -4.5660   24.5530  -30.3390 C   0  0  0  0  0  0  0  0  0  0  0  0
   -4.2320   23.6010  -31.2310 N   0  0  0  0  0  0  0  0  0  0  0  0
   -3.3720   22.6370  -30.8500 C   0  0  0  0  0  0  0  0  0  0  0  0
   -3.0600   21.7310  -31.7140 N   0  0  0  0  0  0  0  0  0  0  0  0
   -3.6520   21.7980  -33.0400 C   0  0  0  0  0  0  0  0  0  0  0  0
   -5.0390   21.2370  -32.8600 C   0  0  0  0  0  0  0  0  0  0  0  0
   -5.9870   22.1330  -32.5080 N   0  0  0  0  0  0  0  0  0  0  0  0
   -7.2680   21.7700  -32.3140 C   0  0  0  0  0  0  0  0  0  0  0  0
   -8.1850   22.7280  -31.9570 C   0  0  0  0  0  0  0  0  0  0  0  0
   -9.4980   22.3410  -31.7600 C   0  0  0  0  0  0  0  0  0  0  0  0
   -9.8410   21.0150  -31.9290 C   0  0  0  0  0  0  0  0  0  0  0  0
   -8.8900   20.0670  -32.2910 C   0  0  0  0  0  0  0  0  0  0  0  0
   -7.5790   20.4380  -32.4900 C   0  0  0  0  0  0  0  0  0  0  0  0
   -6.5900   19.5280  -32.8520 C   0  0  0  0  0  0  0  0  0  0  0  0
   -6.8800   18.3210  -33.0100 O   0  0  0  0  0  0  0  0  0  0  0  0
   -5.3010   19.9290  -33.0410 N   0  0  0  0  0  0  0  0  0  0  0  0
   -4.2630   19.0600  -33.4070 C   0  0  0  0  0  0  0  0  0  0  0  0
   -3.0820   18.9130  -32.7020 C   0  0  0  0  0  0  0  0  0  0  0  0
   -2.0920   18.0290  -33.1230 C   0  0  0  0  0  0  0  0  0  0  0  0
   -2.2540   17.2640  -34.2650 C   0  0  0  0  0  0  0  0  0  0  0  0
   -1.2890   16.4050  -34.6720 F   0  0  0  0  0  0  0  0  0  0  0  0
   -3.4310   17.4040  -34.9750 C   0  0  0  0  0  0  0  0  0  0  0  0
   -4.4120   18.2810  -34.5570 C   0  0  0  0  0  0  0  0  0  0  0  0
   -2.8190   22.5890  -29.5850 C   0  0  0  0  0  0  0  0  0  0  0  0
   -3.1830   23.5770  -28.7050 C   0  0  0  0  0  0  0  0  0  0  0  0
   -4.0500   24.5430  -29.0940 N   0  0  0  0  0  0  0  0  0  0  0  0
   -5.9207   26.0907  -29.8244 H   0  0  0  0  0  0  0  0  0  0  0  0
   -4.9754   26.3764  -31.3249 H   0  0  0  0  0  0  0  0  0  0  0  0
   -6.3233   25.1890  -31.3249 H   0  0  0  0  0  0  0  0  0  0  0  0
   -3.6959   22.8384  -33.3946 H   0  0  0  0  0  0  0  0  0  0  0  0
   -3.0685   21.2416  -33.7883 H   0  0  0  0  0  0  0  0  0  0  0  0
   -7.8824   23.7780  -31.8308 H   0  0  0  0  0  0  0  0  0  0  0  0
  -10.2594   23.0809  -31.4722 H   0  0  0  0  0  0  0  0  0  0  0  0
  -10.8844   20.7026  -31.7748 H   0  0  0  0  0  0  0  0  0  0  0  0
   -9.1866   19.0155  -32.4190 H   0  0  0  0  0  0  0  0  0  0  0  0
   -2.9216   19.5067  -31.7900 H   0  0  0  0  0  0  0  0  0  0  0  0
   -1.1651   17.9370  -32.5378 H   0  0  0  0  0  0  0  0  0  0  0  0
   -3.5887   16.8083  -35.8862 H   0  0  0  0  0  0  0  0  0  0  0  0
   -5.3369   18.3688  -35.1460 H   0  0  0  0  0  0  0  0  0  0  0  0
   -2.1171   21.7930  -29.2956 H   0  0  0  0  0  0  0  0  0  0  0  0
   -2.7714   23.5848  -27.6849 H   0  0  0  0  0  0  0  0  0  0  0  0
   -4.3500   25.3190  -28.4390 H   0  0  0  0  0  0  0  0  0  0  0  0
  1  2  1  0
  2  3  2  0
  3  4  1  0
  4  5  2  0
  5  6  1  0
  6  7  1  0
  7  8  2  0
  8  9  1  0
  9 10  2  0
 10 11  1  0
 11 12  2  0
 12 13  1  0
 13 14  2  0
 14 15  1  0
 15 16  2  0
 15 17  1  0
 17 18  1  0
 18 19  2  0
 19 20  1  0
 20 21  2  0
 21 22  1  0
 21 23  1  0
 23 24  2  0
  4 25  1  0
 25 26  2  0
 26 27  1  0
 27  2  1  0
 17  7  1  0
 24 18  1  0
 14  9  1  0
  1 28  1  0
  1 29  1  0
  1 30  1  0
  6 31  1  0
  6 32  1  0
 10 33  1  0
 11 34  1  0
 12 35  1  0
 13 36  1  0
 19 37  1  0
 20 38  1  0
 23 39  1  0
 24 40  1  0
 25 41  1  0
 26 42  1  0
 27 43  1  0
M  END
>  <smiles>  (40) 
Cc1nc(=NCc2nc3ccccc3c(=O)n2-c2ccc(F)cc2)cc[nH]1

>  <score_type>  (40) 
oracle

>  <origin>  (40) 
adgpu

>  <m_score__min__energy>  (40) 
-8.8499999999999996

>  <m_primary>  (40) 
energy

$$$$
40:0
     RDKit          3D

 25 27  0  0  0  0  0  0  0  0999 V2000
   -0.2730   25.9350  -28.4140 H   0  0  0  0  0  0  0  0  0  0  0  0
   -1.1600   25.9570  -28.9640 N   0  0  0  0  0  0  0  0  0  0  0  0
   -1.9490   24.9330  -29.0280 C   0  0  0  0  0  0  0  0  0  0  0  0
   -3.1110   24.9230  -29.7220 N   0  0  0  0  0  0  0  0  0  0  0  0
   -3.6680   23.7240  -29.5650 N   0  0  0  0  0  0  0  0  0  0  0  0
   -4.9320   23.3500  -30.1450 C   0  0  0  0  0  0  0  0  0  0  0  0
   -5.0850   22.0770  -30.7220 C   0  0  0  0  0  0  0  0  0  0  0  0
   -4.2368   21.3767  -30.7332 H   0  0  0  0  0  0  0  0  0  0  0  0
   -6.3090   21.6950  -31.2820 C   0  0  0  0  0  0  0  0  0  0  0  0
   -6.4172   20.7005  -31.7394 H   0  0  0  0  0  0  0  0  0  0  0  0
   -7.3940   22.5750  -31.2610 C   0  0  0  0  0  0  0  0  0  0  0  0
   -8.9290   22.0930  -31.9610 Cl  0  0  0  0  0  0  0  0  0  0  0  0
   -7.2580   23.8360  -30.6750 C   0  0  0  0  0  0  0  0  0  0  0  0
   -8.1142   24.5263  -30.6539 H   0  0  0  0  0  0  0  0  0  0  0  0
   -6.0360   24.2230  -30.1150 C   0  0  0  0  0  0  0  0  0  0  0  0
   -5.9372   25.2144  -29.6488 H   0  0  0  0  0  0  0  0  0  0  0  0
   -2.8630   22.9880  -28.7680 C   0  0  0  0  0  0  0  0  0  0  0  0
   -3.0840   21.7350  -28.2970 N   0  0  0  0  0  0  0  0  0  0  0  0
   -2.1610   21.1710  -27.4590 C   0  0  0  0  0  0  0  0  0  0  0  0
   -2.3212   20.1513  -27.0788 H   0  0  0  0  0  0  0  0  0  0  0  0
   -1.0020   21.8880  -27.0770 C   0  0  0  0  0  0  0  0  0  0  0  0
   -0.2630   21.4244  -26.4070 H   0  0  0  0  0  0  0  0  0  0  0  0
   -0.7970   23.1950  -27.5560 C   0  0  0  0  0  0  0  0  0  0  0  0
    0.0902   23.7793  -27.2705 H   0  0  0  0  0  0  0  0  0  0  0  0
   -1.7670   23.7150  -28.4070 C   0  0  0  0  0  0  0  0  0  0  0  0
  1  2  1  0
  2  3  2  0
  3  4  1  0
  4  5  1  0
  5  6  1  0
  6  7  2  0
  7  8  1  0
  7  9  1  0
  9 10  1  0
  9 11  2  0
 11 12  1  0
 11 13  1  0
 13 14  1  0
 13 15  2  0
 15 16  1  0
  5 17  1  0
 17 18  2  0
 18 19  1  0
 19 20  1  0
 19 21  2  0
 21 22  1  0
 21 23  1  0
 23 24  1  0
 23 25  2  0
 25  3  1  0
 15  6  1  0
 25 17  1  0
M  CHG  1   4  -1
M  END
>  <UniqueID>  (41) 
39

>  <SMILES>  (41) 
[H]/N=c1/[n-]n(-c2ccc(Cl)cc2)c2ncccc12

>  <Energy>  (41) 
75.11097753092244

>  <Genealogy>  (41) 
N=c1[n-]n(-c2ccc(Cl)cc2)c2ncccc12 (protonated)
[H]/N=c1/[n-]n(-c2ccc(Cl)cc2)c2ncccc12 (cis-trans isomerization)
[H]/N=c1/[n-]n(-c2ccc(Cl)cc2)c2ncccc12 (3D coordinates assigned)
[H]/N=c1/[n-]n(-c2ccc(Cl)cc2)c2ncccc12 (optimized conformer: 75.11097753092244 kcal/mol)

>  <smiles>  (41) 
N=c1[nH]n(-c2ccc(Cl)cc2)c2ncccc12

>  <score_type>  (41) 
oracle

>  <origin>  (41) 
adgpu

>  <m_score__min__energy>  (41) 
-8.1099999999999994

>  <m_primary>  (41) 
energy

$$$$
41:0
     RDKit          3D

 36 39  0  0  0  0  0  0  0  0999 V2000
   -7.5770   11.7660  -35.3310 C   0  0  0  0  0  0  0  0  0  0  0  0
   -6.5510   12.2230  -34.4540 O   0  0  0  0  0  0  0  0  0  0  0  0
   -6.1890   13.5680  -34.2900 C   0  0  0  0  0  0  0  0  0  0  0  0
   -7.1800   14.5450  -34.4260 C   0  0  0  0  0  0  0  0  0  0  0  0
   -6.8710   15.8990  -34.2710 C   0  0  0  0  0  0  0  0  0  0  0  0
   -5.5580   16.3010  -33.9730 C   0  0  0  0  0  0  0  0  0  0  0  0
   -5.2270   17.7360  -33.8130 C   0  0  0  0  0  0  0  0  0  0  0  0
   -4.0630   18.4140  -34.2050 C   0  0  0  0  0  0  0  0  0  0  0  0
   -4.0700   19.6970  -33.7340 N   0  0  0  0  0  0  0  0  0  0  0  0
   -5.2660   19.7610  -33.1200 C   0  0  0  0  0  0  0  0  0  0  0  0
   -5.8000   20.6090  -32.1760 C   0  0  0  0  0  0  0  0  0  0  0  0
   -5.3040   21.9270  -31.7150 C   0  0  0  0  0  0  0  0  0  0  0  0
   -6.1520   23.0510  -31.7160 C   0  0  0  0  0  0  0  0  0  0  0  0
   -5.6810   24.2940  -31.2840 C   0  0  0  0  0  0  0  0  0  0  0  0
   -4.3600   24.4320  -30.8480 C   0  0  0  0  0  0  0  0  0  0  0  0
   -3.8940   25.6690  -30.4190 O   0  0  0  0  0  0  0  0  0  0  0  0
   -3.5080   23.3250  -30.8460 C   0  0  0  0  0  0  0  0  0  0  0  0
   -3.9750   22.0800  -31.2780 C   0  0  0  0  0  0  0  0  0  0  0  0
   -6.8670   19.8400  -31.6620 C   0  0  0  0  0  0  0  0  0  0  0  0
   -6.9080   18.6130  -32.2550 N   0  0  0  0  0  0  0  0  0  0  0  0
   -5.9470   18.6500  -33.1560 N   0  0  0  0  0  0  0  0  0  0  0  0
   -4.5610   15.3190  -33.8430 C   0  0  0  0  0  0  0  0  0  0  0  0
   -4.8720   13.9650  -33.9970 C   0  0  0  0  0  0  0  0  0  0  0  0
   -8.4240   11.3887  -34.7392 H   0  0  0  0  0  0  0  0  0  0  0  0
   -7.9149   12.5987  -35.9654 H   0  0  0  0  0  0  0  0  0  0  0  0
   -7.1840   10.9578  -35.9654 H   0  0  0  0  0  0  0  0  0  0  0  0
   -8.2127   14.2449  -34.6572 H   0  0  0  0  0  0  0  0  0  0  0  0
   -7.6615   16.6557  -34.3831 H   0  0  0  0  0  0  0  0  0  0  0  0
   -3.2557   17.9735  -34.8085 H   0  0  0  0  0  0  0  0  0  0  0  0
   -7.1922   22.9502  -32.0591 H   0  0  0  0  0  0  0  0  0  0  0  0
   -6.3516   25.1660  -31.2871 H   0  0  0  0  0  0  0  0  0  0  0  0
   -2.4681   23.4330  -30.5040 H   0  0  0  0  0  0  0  0  0  0  0  0
   -3.2981   21.2129  -31.2763 H   0  0  0  0  0  0  0  0  0  0  0  0
   -7.5694   20.1841  -30.8885 H   0  0  0  0  0  0  0  0  0  0  0  0
   -3.5268   15.6186  -33.6181 H   0  0  0  0  0  0  0  0  0  0  0  0
   -4.0829   13.2063  -33.8885 H   0  0  0  0  0  0  0  0  0  0  0  0
  1  2  1  0
  2  3  1  0
  3  4  2  0
  4  5  1  0
  5  6  2  0
  6  7  1  0
  7  8  2  0
  8  9  1  0
  9 10  1  0
 10 11  2  0
 11 12  1  0
 12 13  2  0
 13 14  1  0
 14 15  2  0
 15 16  1  0
 15 17  1  0
 17 18  2  0
 11 19  1  0
 19 20  2  0
 20 21  1  0
  6 22  1  0
 22 23  2  0
 23  3  1  0
 21  7  1  0
 21 10  1  0
 18 12  1  0
  1 24  1  0
  1 25  1  0
  1 26  1  0
  4 27  1  0
  5 28  1  0
  8 29  1  0
 13 30  1  0
 14 31  1  0
 17 32  1  0
 18 33  1  0
 19 34  1  0
 22 35  1  0
 23 36  1  0
M  CHG  2   9  -1  16  -1
M  END
>  <UniqueID>  (42) 
40

>  <SMILES>  (42) 
COc1ccc(-c2c[n-]c3c(-c4ccc([O-])cc4)cnn23)cc1

>  <Energy>  (42) 
134.19582110367483

>  <Genealogy>  (42) 
COc1ccc(-c2c[n-]c3c(-c4ccc([O-])cc4)cnn23)cc1 (protonated)
COc1ccc(-c2c[n-]c3c(-c4ccc([O-])cc4)cnn23)cc1 (3D coordinates assigned)
COc1ccc(-c2c[n-]c3c(-c4ccc([O-])cc4)cnn23)cc1 (optimized conformer: 134.19582110367483 kcal/mol)

>  <smiles>  (42) 
COc1ccc(-c2c[nH]c3c(-c4ccc(O)cc4)cnn23)cc1

>  <score_type>  (42) 
oracle

>  <origin>  (42) 
adgpu

>  <m_score__min__energy>  (42) 
-9.7100000000000009

>  <m_primary>  (42) 
energy

$$$$
42:0
     RDKit          3D

 51 54  0  0  1  0  0  0  0  0999 V2000
   -0.4780   21.4430  -34.5060 C   0  0  0  0  0  0  0  0  0  0  0  0
   -1.4000   20.9950  -33.4040 C   0  0  0  0  0  0  0  0  0  0  0  0
   -0.9020   20.9120  -32.1190 C   0  0  0  0  0  0  0  0  0  0  0  0
   -1.7260   20.5040  -31.0960 C   0  0  0  0  0  0  0  0  0  0  0  0
   -1.2390   20.3950  -29.6790 C   0  0  0  0  0  0  0  0  0  0  0  0
   -3.0330   20.1830  -31.3380 C   0  0  0  0  0  0  0  0  0  0  0  0
   -3.5670   20.2610  -32.6500 C   0  0  0  0  0  0  0  0  0  0  0  0
   -4.8370   19.8260  -32.8590 N   0  0  0  0  0  0  0  0  0  0  0  0
   -5.9570   20.2630  -32.6060 C   0  0  0  0  0  0  0  0  0  0  0  0
   -7.0360   19.5130  -32.9870 N   0  0  0  0  0  0  0  0  0  0  0  0
   -8.2710   19.9500  -32.7320 C   0  0  0  0  0  0  0  0  0  0  0  0
   -8.5040   21.1140  -32.1070 N   0  0  0  0  0  0  0  0  0  0  0  0
   -7.4280   21.8500  -31.7320 C   0  0  0  0  0  0  0  0  0  0  0  0
   -7.6630   23.0210  -31.1020 C   0  0  0  0  0  0  0  0  0  0  0  0
   -6.5870   23.7900  -30.7120 C   0  0  0  0  0  0  0  0  0  0  0  0
   -5.2790   23.4680  -30.9070 C   0  0  0  0  0  0  0  0  0  0  0  0
   -4.1530   24.2330  -30.5190 N   0  0  0  0  0  0  0  0  0  0  0  0
   -3.5050   24.2130  -29.2880 C   0  0  0  0  0  0  0  0  0  0  0  0
   -3.9030   23.4680  -28.3830 O   0  0  0  0  0  0  0  0  0  0  0  0
   -2.3650   25.0400  -29.0090 N   0  0  0  0  0  0  0  0  0  0  0  0
   -1.7220   24.9980  -27.7390 C   0  0  0  0  0  0  0  0  0  0  0  0
   -2.5180   25.2580  -26.6300 C   0  0  0  0  0  0  0  0  0  0  0  0
   -1.9740   25.2390  -25.3610 C   0  0  0  0  0  0  0  0  0  0  0  0
   -0.6150   24.9500  -25.2420 C   0  0  0  0  0  0  0  0  0  0  0  0
    0.1700   24.6940  -26.3440 C   0  0  0  0  0  0  0  0  0  0  0  0
    1.5730   24.4010  -26.1750 C   0  0  0  0  0  0  0  0  0  0  0  0
    2.7080   24.1750  -26.0270 N   0  0  0  0  0  0  0  0  0  0  0  0
   -0.3820   24.7150  -27.6100 C   0  0  0  0  0  0  0  0  0  0  0  0
   -5.0730   22.2320  -31.5700 C   0  0  0  0  0  0  0  0  0  0  0  0
   -6.1310   21.4590  -31.9650 C   0  0  0  0  0  0  0  0  0  0  0  0
   -2.7110   20.6810  -33.6990 C   0  0  0  0  0  0  0  0  0  0  0  0
    0.4296   21.8840  -34.0681 H   0  0  0  0  0  0  0  0  0  0  0  0
   -0.2024   20.5784  -35.1277 H   0  0  0  0  0  0  0  0  0  0  0  0
   -0.9874   22.1940  -35.1277 H   0  0  0  0  0  0  0  0  0  0  0  0
    0.1474   21.1706  -31.9145 H   0  0  0  0  0  0  0  0  0  0  0  0
   -2.0747   20.5820  -28.9887 H   0  0  0  0  0  0  0  0  0  0  0  0
   -0.8390   19.3851  -29.5054 H   0  0  0  0  0  0  0  0  0  0  0  0
   -0.4467   21.1380  -29.5054 H   0  0  0  0  0  0  0  0  0  0  0  0
   -3.6772   19.8609  -30.5066 H   0  0  0  0  0  0  0  0  0  0  0  0
   -9.1273   19.3346  -33.0451 H   0  0  0  0  0  0  0  0  0  0  0  0
   -9.4740   21.4180  -31.9260 H   0  0  0  0  0  0  0  0  0  0  0  0
   -8.6922   23.3548  -30.9039 H   0  0  0  0  0  0  0  0  0  0  0  0
   -6.8031   24.7404  -30.2021 H   0  0  0  0  0  0  0  0  0  0  0  0
   -3.7300   24.9130  -31.2360 H   0  0  0  0  0  0  0  0  0  0  0  0
   -1.9790   25.6920  -29.7310 H   0  0  0  0  0  0  0  0  0  0  0  0
   -3.5870   25.4801  -26.7638 H   0  0  0  0  0  0  0  0  0  0  0  0
   -2.5915   25.4448  -24.4743 H   0  0  0  0  0  0  0  0  0  0  0  0
   -0.1581   24.9259  -24.2417 H   0  0  0  0  0  0  0  0  0  0  0  0
    0.2367   24.5098  -28.4961 H   0  0  0  0  0  0  0  0  0  0  0  0
   -4.0471   21.8890  -31.7700 H   0  0  0  0  0  0  0  0  0  0  0  0
   -3.0854   20.7554  -34.7306 H   0  0  0  0  0  0  0  0  0  0  0  0
  1  2  1  0
  2  3  2  0
  3  4  1  0
  4  5  1  0
  4  6  2  0
  6  7  1  0
  7  8  1  0
  8  9  2  0
  9 10  1  0
 10 11  2  0
 11 12  1  0
 12 13  1  0
 13 14  2  0
 14 15  1  0
 15 16  2  0
 16 17  1  0
 17 18  1  0
 18 19  2  0
 18 20  1  0
 20 21  1  0
 21 22  2  0
 22 23  1  0
 23 24  2  0
 24 25  1  0
 25 26  1  0
 26 27  3  0
 25 28  2  0
 16 29  1  0
 29 30  2  0
  7 31  2  0
 31  2  1  0
 30  9  1  0
 30 13  1  0
 28 21  1  0
  1 32  1  0
  1 33  1  0
  1 34  1  0
  3 35  1  0
  5 36  1  0
  5 37  1  0
  5 38  1  0
  6 39  1  0
 11 40  1  0
 12 41  1  0
 14 42  1  0
 15 43  1  0
 17 44  1  0
 20 45  1  0
 22 46  1  0
 23 47  1  0
 24 48  1  0
 28 49  1  0
 29 50  1  0
 31 51  1  0
M  END
>  <smiles>  (43) 
Cc1cc(C)cc(N=c2nc[nH]c3ccc(NC(=O)Nc4cccc(C#N)c4)cc23)c1

>  <score_type>  (43) 
oracle

>  <origin>  (43) 
adgpu

>  <m_score__min__energy>  (43) 
-9.9000000000000004

>  <m_primary>  (43) 
energy

$$$$
43:0
     RDKit          3D

 42 44  0  0  0  0  0  0  0  0999 V2000
   -0.9300   22.8630  -30.2860 N   0  0  0  0  0  0  0  0  0  0  0  0
   -1.4020   21.7970  -31.1150 C   0  0  0  0  0  0  0  0  0  0  0  0
   -2.4810   21.0050  -30.7000 C   0  0  0  0  0  0  0  0  0  0  0  0
   -2.9410   19.9610  -31.5090 C   0  0  0  0  0  0  0  0  0  0  0  0
   -2.3220   19.6980  -32.7400 C   0  0  0  0  0  0  0  0  0  0  0  0
   -2.8890   18.3760  -33.7570 S   0  0  0  0  0  0  0  0  0  0  0  0
   -2.9250   17.1170  -32.9390 O   0  0  0  0  0  0  0  0  0  0  0  0
   -1.9670   18.1750  -34.9280 O   0  0  0  0  0  0  0  0  0  0  0  0
   -4.4830   18.7160  -34.3450 N   0  0  0  0  0  0  0  0  0  0  0  0
   -5.4540   19.5360  -33.6790 C   0  0  0  0  0  0  0  0  0  0  0  0
   -5.1050   20.8500  -33.3450 C   0  0  0  0  0  0  0  0  0  0  0  0
   -6.0190   21.6830  -32.6960 C   0  0  0  0  0  0  0  0  0  0  0  0
   -7.2980   21.2120  -32.3750 C   0  0  0  0  0  0  0  0  0  0  0  0
   -8.4300   22.2690  -31.5390 S   0  0  0  0  0  0  0  0  0  0  0  0
   -8.7440   23.4410  -32.4230 O   0  0  0  0  0  0  0  0  0  0  0  0
   -9.7100   21.5470  -31.2210 O   0  0  0  0  0  0  0  0  0  0  0  0
   -7.7150   22.8420  -30.0660 N   0  0  0  0  0  0  0  0  0  0  0  0
   -6.4170   23.4400  -29.9550 C   0  0  0  0  0  0  0  0  0  0  0  0
   -6.1940   24.6780  -30.5720 C   0  0  0  0  0  0  0  0  0  0  0  0
   -4.9410   25.2940  -30.4900 C   0  0  0  0  0  0  0  0  0  0  0  0
   -3.9010   24.6780  -29.7900 C   0  0  0  0  0  0  0  0  0  0  0  0
   -2.6560   25.2910  -29.7120 O   0  0  0  0  0  0  0  0  0  0  0  0
   -4.1130   23.4440  -29.1710 C   0  0  0  0  0  0  0  0  0  0  0  0
   -5.3650   22.8250  -29.2490 C   0  0  0  0  0  0  0  0  0  0  0  0
   -7.6550   19.8990  -32.7100 C   0  0  0  0  0  0  0  0  0  0  0  0
   -6.7390   19.0630  -33.3550 C   0  0  0  0  0  0  0  0  0  0  0  0
   -1.2470   20.4940  -33.1580 C   0  0  0  0  0  0  0  0  0  0  0  0
   -0.7870   21.5370  -32.3480 C   0  0  0  0  0  0  0  0  0  0  0  0
   -0.2500   22.6790  -29.5160 H   0  0  0  0  0  0  0  0  0  0  0  0
   -1.2540   23.8440  -30.4410 H   0  0  0  0  0  0  0  0  0  0  0  0
   -2.9681   21.2052  -29.7342 H   0  0  0  0  0  0  0  0  0  0  0  0
   -3.7903   19.3446  -31.1792 H   0  0  0  0  0  0  0  0  0  0  0  0
   -4.1033   21.2292  -33.5956 H   0  0  0  0  0  0  0  0  0  0  0  0
   -5.7331   22.7129  -32.4360 H   0  0  0  0  0  0  0  0  0  0  0  0
   -7.0092   25.1684  -31.1242 H   0  0  0  0  0  0  0  0  0  0  0  0
   -4.7742   26.2657  -30.9778 H   0  0  0  0  0  0  0  0  0  0  0  0
   -3.2937   22.9579  -28.6210 H   0  0  0  0  0  0  0  0  0  0  0  0
   -5.5284   21.8547  -28.7573 H   0  0  0  0  0  0  0  0  0  0  0  0
   -8.6598   19.5248  -32.4645 H   0  0  0  0  0  0  0  0  0  0  0  0
   -7.0238   18.0316  -33.6102 H   0  0  0  0  0  0  0  0  0  0  0  0
   -0.7635   20.2977  -34.1264 H   0  0  0  0  0  0  0  0  0  0  0  0
    0.0602   22.1555  -32.6792 H   0  0  0  0  0  0  0  0  0  0  0  0
  1  2  1  0
  2  3  2  0
  3  4  1  0
  4  5  2  0
  5  6  1  0
  6  7  2  0
  6  8  2  0
  6  9  1  0
  9 10  1  0
 10 11  2  0
 11 12  1  0
 12 13  2  0
 13 14  1  0
 14 15  2  0
 14 16  2  0
 14 17  1  0
 17 18  1  0
 18 19  2  0
 19 20  1  0
 20 21  2  0
 21 22  1  0
 21 23  1  0
 23 24  2  0
 13 25  1  0
 25 26  2  0
  5 27  1  0
 27 28  2  0
 28  2  1  0
 26 10  1  0
 24 18  1  0
  1 29  1  0
  1 30  1  0
  3 31  1  0
  4 32  1  0
 11 33  1  0
 12 34  1  0
 19 35  1  0
 20 36  1  0
 23 37  1  0
 24 38  1  0
 25 39  1  0
 26 40  1  0
 27 41  1  0
 28 42  1  0
M  CHG  3   9  -1  17  -1  22  -1
M  END
>  <UniqueID>  (44) 
41

>  <SMILES>  (44) 
Nc1ccc(S(=O)(=O)[N-]c2ccc(S(=O)(=O)[N-]c3ccc([O-])cc3)cc2)cc1

>  <Energy>  (44) 
50.03438188589408

>  <Genealogy>  (44) 
Nc1ccc(S(=O)(=O)[N-]c2ccc(S(=O)(=O)[N-]c3ccc([O-])cc3)cc2)cc1 (protonated)
Nc1ccc(S(=O)(=O)[N-]c2ccc(S(=O)(=O)[N-]c3ccc([O-])cc3)cc2)cc1 (3D coordinates assigned)
Nc1ccc(S(=O)(=O)[N-]c2ccc(S(=O)(=O)[N-]c3ccc([O-])cc3)cc2)cc1 (optimized conformer: 50.03438188589408 kcal/mol)

>  <smiles>  (44) 
Nc1ccc(S(=O)(=O)Nc2ccc(S(=O)(=O)Nc3ccc(O)cc3)cc2)cc1

>  <score_type>  (44) 
oracle

>  <origin>  (44) 
adgpu

>  <m_score__min__energy>  (44) 
-11.640000000000001

>  <m_primary>  (44) 
energy

$$$$
44:0
     RDKit          3D

 46 49  0  0  0  0  0  0  0  0999 V2000
   -0.5080   26.3410  -27.7840 C   0  0  0  0  0  0  0  0  0  0  0  0
   -1.2710   25.1840  -28.3320 C   0  0  0  0  0  0  0  0  0  0  0  0
   -0.9440   23.8520  -28.1630 C   0  0  0  0  0  0  0  0  0  0  0  0
   -1.9270   23.1400  -28.8180 C   0  0  0  0  0  0  0  0  0  0  0  0
   -2.7890   24.0850  -29.3390 C   0  0  0  0  0  0  0  0  0  0  0  0
   -3.9930   23.8060  -30.1240 C   0  0  0  0  0  0  0  0  0  0  0  0
   -4.6160   22.6080  -30.1430 N   0  0  0  0  0  0  0  0  0  0  0  0
   -5.6570   22.7670  -30.9430 N   0  0  0  0  0  0  0  0  0  0  0  0
   -6.6230   21.7150  -31.2850 C   0  0  0  0  0  0  0  0  0  0  0  0
   -6.2120   20.9260  -32.4730 N   0  0  0  0  0  0  0  0  0  0  0  0
   -4.9740   20.1430  -32.2140 C   0  0  0  0  0  0  0  0  0  0  0  0
   -4.8170   18.9620  -33.1780 C   0  0  0  0  0  0  0  0  0  0  0  0
   -5.9820   18.0750  -33.0700 N   0  0  0  0  0  0  0  0  0  0  0  0
   -5.8540   16.6590  -33.3300 C   0  0  0  0  0  0  0  0  0  0  0  0
   -6.8520   15.9680  -34.0450 C   0  0  0  0  0  0  0  0  0  0  0  0
   -6.7250   14.5980  -34.2950 C   0  0  0  0  0  0  0  0  0  0  0  0
   -5.6040   13.9020  -33.8360 C   0  0  0  0  0  0  0  0  0  0  0  0
   -4.6080   14.5740  -33.1260 C   0  0  0  0  0  0  0  0  0  0  0  0
   -4.7290   15.9440  -32.8720 C   0  0  0  0  0  0  0  0  0  0  0  0
   -7.2810   18.6480  -32.6960 C   0  0  0  0  0  0  0  0  0  0  0  0
   -7.3330   20.1390  -33.0610 C   0  0  0  0  0  0  0  0  0  0  0  0
   -5.6200   24.0350  -31.3920 C   0  0  0  0  0  0  0  0  0  0  0  0
   -6.4480   24.5340  -32.2000 O   0  0  0  0  0  0  0  0  0  0  0  0
   -4.6020   24.6880  -30.8900 O   0  0  0  0  0  0  0  0  0  0  0  0
   -2.3760   25.2940  -29.0330 O   0  0  0  0  0  0  0  0  0  0  0  0
   -0.5302   26.3073  -26.6847 H   0  0  0  0  0  0  0  0  0  0  0  0
    0.5345   26.2904  -28.1314 H   0  0  0  0  0  0  0  0  0  0  0  0
   -0.9651   27.2793  -28.1314 H   0  0  0  0  0  0  0  0  0  0  0  0
   -0.0792   23.4442  -27.6190 H   0  0  0  0  0  0  0  0  0  0  0  0
   -2.0077   22.0466  -28.9070 H   0  0  0  0  0  0  0  0  0  0  0  0
   -6.7207   21.0341  -30.4266 H   0  0  0  0  0  0  0  0  0  0  0  0
   -7.5779   22.2053  -31.5252 H   0  0  0  0  0  0  0  0  0  0  0  0
   -5.9510   21.6380  -33.1990 H   0  0  0  0  0  0  0  0  0  0  0  0
   -4.1053   20.8084  -32.3262 H   0  0  0  0  0  0  0  0  0  0  0  0
   -5.0416   19.7366  -31.1941 H   0  0  0  0  0  0  0  0  0  0  0  0
   -4.7393   19.3392  -34.2084 H   0  0  0  0  0  0  0  0  0  0  0  0
   -3.9071   18.4003  -32.9199 H   0  0  0  0  0  0  0  0  0  0  0  0
   -7.7373   16.5099  -34.4092 H   0  0  0  0  0  0  0  0  0  0  0  0
   -7.5095   14.0672  -34.8543 H   0  0  0  0  0  0  0  0  0  0  0  0
   -5.5064   12.8244  -34.0342 H   0  0  0  0  0  0  0  0  0  0  0  0
   -3.7257   14.0249  -32.7653 H   0  0  0  0  0  0  0  0  0  0  0  0
   -3.9407   16.4672  -32.3109 H   0  0  0  0  0  0  0  0  0  0  0  0
   -8.0801   18.1154  -33.2324 H   0  0  0  0  0  0  0  0  0  0  0  0
   -7.4189   18.5413  -31.6099 H   0  0  0  0  0  0  0  0  0  0  0  0
   -7.2895   20.2327  -34.1561 H   0  0  0  0  0  0  0  0  0  0  0  0
   -8.2689   20.5444  -32.6490 H   0  0  0  0  0  0  0  0  0  0  0  0
  1  2  1  0
  2  3  2  0
  3  4  1  0
  4  5  2  0
  5  6  1  0
  6  7  2  0
  7  8  1  0
  8  9  1  0
  9 10  1  0
 10 11  1  0
 11 12  1  0
 12 13  1  0
 13 14  1  0
 14 15  2  0
 15 16  1  0
 16 17  2  0
 17 18  1  0
 18 19  2  0
 13 20  1  0
 20 21  1  0
  8 22  1  0
 22 23  2  0
 22 24  1  0
  5 25  1  0
 25  2  1  0
 24  6  1  0
 21 10  1  0
 19 14  1  0
  1 26  1  0
  1 27  1  0
  1 28  1  0
  3 29  1  0
  4 30  1  0
  9 31  1  0
  9 32  1  0
 10 33  1  0
 11 34  1  0
 11 35  1  0
 12 36  1  0
 12 37  1  0
 15 38  1  0
 16 39  1  0
 17 40  1  0
 18 41  1  0
 19 42  1  0
 20 43  1  0
 20 44  1  0
 21 45  1  0
 21 46  1  0
M  CHG  1  10   1
M  END
>  <UniqueID>  (45) 
42

>  <SMILES>  (45) 
Cc1ccc(-c2nn(C[NH+]3CCN(c4ccccc4)CC3)c(=O)o2)o1

>  <Energy>  (45) 
122.08042395045335

>  <Genealogy>  (45) 
Cc1ccc(-c2nn(C[NH+]3CCN(c4ccccc4)CC3)c(=O)o2)o1 (protonated)
Cc1ccc(-c2nn(C[NH+]3CCN(c4ccccc4)CC3)c(=O)o2)o1 (3D coordinates assigned)
Cc1ccc(-c2nn(C[NH+]3CCN(c4ccccc4)CC3)c(=O)o2)o1 (nonaromatic ring conformer: 122.08042395045335 kcal/mol)

>  <smiles>  (45) 
Cc1ccc(-c2nn(CN3CCN(c4ccccc4)CC3)c(=O)o2)o1

>  <score_type>  (45) 
oracle

>  <origin>  (45) 
adgpu

>  <m_score__min__energy>  (45) 
-7.7999999999999998

>  <m_primary>  (45) 
energy

$$$$
45:0
     RDKit          3D

 29 31  0  0  0  0  0  0  0  0999 V2000
   -3.4860   25.2930  -30.4760 O   0  0  0  0  0  0  0  0  0  0  0  0
   -4.7810   24.7900  -30.5130 C   0  0  0  0  0  0  0  0  0  0  0  0
   -5.8210   25.4950  -29.9030 C   0  0  0  0  0  0  0  0  0  0  0  0
   -7.1220   24.9900  -29.9400 C   0  0  0  0  0  0  0  0  0  0  0  0
   -7.3870   23.7790  -30.5850 C   0  0  0  0  0  0  0  0  0  0  0  0
   -6.3490   23.0560  -31.2040 C   0  0  0  0  0  0  0  0  0  0  0  0
   -6.6470   21.7730  -31.8860 C   0  0  0  0  0  0  0  0  0  0  0  0
   -5.7580   20.7490  -32.1680 C   0  0  0  0  0  0  0  0  0  0  0  0
   -6.5380   19.7980  -32.8020 C   0  0  0  0  0  0  0  0  0  0  0  0
   -6.1080   18.4830  -33.3300 C   0  0  0  0  0  0  0  0  0  0  0  0
   -6.8700   17.3370  -33.0420 C   0  0  0  0  0  0  0  0  0  0  0  0
   -6.4810   16.0870  -33.5300 C   0  0  0  0  0  0  0  0  0  0  0  0
   -5.3310   15.9650  -34.3120 C   0  0  0  0  0  0  0  0  0  0  0  0
   -4.5630   17.0930  -34.6090 C   0  0  0  0  0  0  0  0  0  0  0  0
   -3.4170   16.9580  -35.3900 O   0  0  0  0  0  0  0  0  0  0  0  0
   -4.9490   18.3510  -34.1200 C   0  0  0  0  0  0  0  0  0  0  0  0
   -7.7690   20.2500  -32.8720 O   0  0  0  0  0  0  0  0  0  0  0  0
   -7.8710   21.4300  -32.3340 N   0  0  0  0  0  0  0  0  0  0  0  0
   -5.0410   23.5760  -31.1610 C   0  0  0  0  0  0  0  0  0  0  0  0
   -5.6150   26.4479  -29.3935 H   0  0  0  0  0  0  0  0  0  0  0  0
   -7.9405   25.5467  -29.4603 H   0  0  0  0  0  0  0  0  0  0  0  0
   -8.4146   23.3873  -30.6094 H   0  0  0  0  0  0  0  0  0  0  0  0
   -4.6827   20.7026  -31.9409 H   0  0  0  0  0  0  0  0  0  0  0  0
   -7.7786   17.4252  -32.4283 H   0  0  0  0  0  0  0  0  0  0  0  0
   -7.0828   15.1961  -33.2973 H   0  0  0  0  0  0  0  0  0  0  0  0
   -5.0293   14.9789  -34.6948 H   0  0  0  0  0  0  0  0  0  0  0  0
   -3.4730   16.7790  -36.3860 H   0  0  0  0  0  0  0  0  0  0  0  0
   -4.3432   19.2386  -34.3549 H   0  0  0  0  0  0  0  0  0  0  0  0
   -4.2180   23.0250  -31.6396 H   0  0  0  0  0  0  0  0  0  0  0  0
  1  2  1  0
  2  3  2  0
  3  4  1  0
  4  5  2  0
  5  6  1  0
  6  7  1  0
  7  8  1  0
  8  9  2  0
  9 10  1  0
 10 11  2  0
 11 12  1  0
 12 13  2  0
 13 14  1  0
 14 15  1  0
 14 16  2  0
  9 17  1  0
 17 18  1  0
  6 19  2  0
 19  2  1  0
 18  7  2  0
 16 10  1  0
  3 20  1  0
  4 21  1  0
  5 22  1  0
  8 23  1  0
 11 24  1  0
 12 25  1  0
 13 26  1  0
 15 27  1  0
 16 28  1  0
 19 29  1  0
M  CHG  1   1  -1
M  END
>  <UniqueID>  (46) 
43

>  <SMILES>  (46) 
[O-]c1cccc(-c2cc(-c3cccc(O)c3)on2)c1

>  <Energy>  (46) 
64.38604344565788

>  <Genealogy>  (46) 
[O-]c1cccc(-c2cc(-c3cccc(O)c3)on2)c1 (protonated)
[O-]c1cccc(-c2cc(-c3cccc(O)c3)on2)c1 (3D coordinates assigned)
[O-]c1cccc(-c2cc(-c3cccc(O)c3)on2)c1 (optimized conformer: 64.38604344565788 kcal/mol)

>  <smiles>  (46) 
Oc1cccc(-c2cc(-c3cccc(O)c3)on2)c1

>  <score_type>  (46) 
oracle

>  <origin>  (46) 
adgpu

>  <m_score__min__energy>  (46) 
-10.34

>  <m_primary>  (46) 
energy

$$$$
46:0
     RDKit          3D

 36 37  0  0  0  0  0  0  0  0999 V2000
   -1.7480   20.8790  -27.8820 C   0  0  0  0  0  0  0  0  0  0  0  0
   -1.0790   21.8250  -28.8750 C   0  0  0  0  0  0  0  0  0  0  0  0
   -2.0910   22.7680  -29.4870 C   0  0  0  0  0  0  0  0  0  0  0  0
   -2.9360   22.2900  -30.5000 C   0  0  0  0  0  0  0  0  0  0  0  0
   -3.8790   23.1330  -31.1120 C   0  0  0  0  0  0  0  0  0  0  0  0
   -4.7680   22.6540  -32.1430 N   0  0  0  0  0  0  0  0  0  0  0  0
   -5.1980   21.2590  -32.2800 C   0  0  0  0  0  0  0  0  0  0  0  0
   -6.7040   21.1080  -32.1660 C   0  0  0  0  0  0  0  0  0  0  0  0
   -7.2890   19.8240  -32.1590 C   0  0  0  0  0  0  0  0  0  0  0  0
   -8.6750   19.6710  -32.0750 C   0  0  0  0  0  0  0  0  0  0  0  0
   -9.4970   20.7920  -31.9750 C   0  0  0  0  0  0  0  0  0  0  0  0
   -8.9350   22.0670  -31.9340 C   0  0  0  0  0  0  0  0  0  0  0  0
   -7.5470   22.2380  -32.0040 C   0  0  0  0  0  0  0  0  0  0  0  0
   -7.0450   23.5380  -31.8940 O   0  0  0  0  0  0  0  0  0  0  0  0
   -3.9410   24.4730  -30.6910 C   0  0  0  0  0  0  0  0  0  0  0  0
   -4.7700   25.2690  -31.2050 O   0  0  0  0  0  0  0  0  0  0  0  0
   -3.1050   24.9230  -29.7220 N   0  0  0  0  0  0  0  0  0  0  0  0
   -2.1840   24.1280  -29.1160 C   0  0  0  0  0  0  0  0  0  0  0  0
   -1.3150   24.7270  -28.0490 C   0  0  0  0  0  0  0  0  0  0  0  0
   -1.5191   21.2027  -26.8559 H   0  0  0  0  0  0  0  0  0  0  0  0
   -2.8369   20.8948  -28.0371 H   0  0  0  0  0  0  0  0  0  0  0  0
   -1.3703   19.8576  -28.0371 H   0  0  0  0  0  0  0  0  0  0  0  0
   -0.3102   22.4121  -28.3513 H   0  0  0  0  0  0  0  0  0  0  0  0
   -0.6244   21.2272  -29.6787 H   0  0  0  0  0  0  0  0  0  0  0  0
   -2.8591   21.2403  -30.8197 H   0  0  0  0  0  0  0  0  0  0  0  0
   -5.1330   23.3290  -32.8540 H   0  0  0  0  0  0  0  0  0  0  0  0
   -4.8782   20.8850  -33.2638 H   0  0  0  0  0  0  0  0  0  0  0  0
   -4.7387   20.6829  -31.4632 H   0  0  0  0  0  0  0  0  0  0  0  0
   -6.6464   18.9334  -32.2204 H   0  0  0  0  0  0  0  0  0  0  0  0
   -9.1182   18.6643  -32.0878 H   0  0  0  0  0  0  0  0  0  0  0  0
  -10.5893   20.6707  -31.9284 H   0  0  0  0  0  0  0  0  0  0  0  0
   -9.5884   22.9475  -31.8458 H   0  0  0  0  0  0  0  0  0  0  0  0
   -6.3440   23.8130  -31.2210 H   0  0  0  0  0  0  0  0  0  0  0  0
   -1.7098   24.4549  -27.0590 H   0  0  0  0  0  0  0  0  0  0  0  0
   -0.2894   24.3431  -28.1530 H   0  0  0  0  0  0  0  0  0  0  0  0
   -1.3089   25.8221  -28.1530 H   0  0  0  0  0  0  0  0  0  0  0  0
  1  2  1  0
  2  3  1  0
  3  4  1  0
  4  5  2  0
  5  6  1  0
  6  7  1  0
  7  8  1  0
  8  9  2  0
  9 10  1  0
 10 11  2  0
 11 12  1  0
 12 13  2  0
 13 14  1  0
  5 15  1  0
 15 16  2  0
 15 17  1  0
 17 18  1  0
 18 19  1  0
 18  3  2  0
 13  8  1  0
  1 20  1  0
  1 21  1  0
  1 22  1  0
  2 23  1  0
  2 24  1  0
  4 25  1  0
  6 26  1  0
  7 27  1  0
  7 28  1  0
  9 29  1  0
 10 30  1  0
 11 31  1  0
 12 32  1  0
 14 33  1  0
 19 34  1  0
 19 35  1  0
 19 36  1  0
M  CHG  1  17  -1
M  END
>  <UniqueID>  (47) 
44

>  <SMILES>  (47) 
CCc1cc(NCc2ccccc2O)c(=O)[n-]c1C

>  <Energy>  (47) 
37.27304986434078

>  <Genealogy>  (47) 
CCc1cc(NCc2ccccc2O)c(=O)[n-]c1C (protonated)
CCc1cc(NCc2ccccc2O)c(=O)[n-]c1C (3D coordinates assigned)
CCc1cc(NCc2ccccc2O)c(=O)[n-]c1C (optimized conformer: 37.27304986434078 kcal/mol)

>  <smiles>  (47) 
CCc1cc(NCc2ccccc2O)c(=O)[nH]c1C

>  <score_type>  (47) 
oracle

>  <origin>  (47) 
adgpu

>  <m_score__min__energy>  (47) 
-9.3200000000000003

>  <m_primary>  (47) 
energy

$$$$
47:0
     RDKit          3D

 46 48  0  0  0  0  0  0  0  0999 V2000
   -9.0247   18.7401  -33.2024 H   0  0  0  0  0  0  0  0  0  0  0  0
   -8.2650   19.3750  -32.7230 C   0  0  0  0  0  0  0  0  0  0  0  0
   -8.5890   20.6270  -32.3180 N   0  0  0  0  0  0  0  0  0  0  0  0
   -7.6790   21.4340  -31.7160 C   0  0  0  0  0  0  0  0  0  0  0  0
   -8.0550   22.6260  -31.3450 N   0  0  0  0  0  0  0  0  0  0  0  0
   -7.2430   23.6390  -30.6700 C   0  0  0  0  0  0  0  0  0  0  0  0
   -7.6837   24.6314  -30.8457 H   0  0  0  0  0  0  0  0  0  0  0  0
   -7.2225   23.4168  -29.5929 H   0  0  0  0  0  0  0  0  0  0  0  0
   -5.8060   23.6240  -31.2050 C   0  0  0  0  0  0  0  0  0  0  0  0
   -5.6168   22.6639  -31.7073 H   0  0  0  0  0  0  0  0  0  0  0  0
   -5.6823   24.4547  -31.9154 H   0  0  0  0  0  0  0  0  0  0  0  0
   -4.8230   23.7960  -30.0800 C   0  0  0  0  0  0  0  0  0  0  0  0
   -5.0340   23.1550  -28.8470 C   0  0  0  0  0  0  0  0  0  0  0  0
   -5.9091   22.5026  -28.7109 H   0  0  0  0  0  0  0  0  0  0  0  0
   -4.1350   23.3440  -27.7930 C   0  0  0  0  0  0  0  0  0  0  0  0
   -4.3001   22.8337  -26.8326 H   0  0  0  0  0  0  0  0  0  0  0  0
   -3.0270   24.1800  -27.9570 C   0  0  0  0  0  0  0  0  0  0  0  0
   -2.3197   24.3245  -27.1270 H   0  0  0  0  0  0  0  0  0  0  0  0
   -2.8170   24.8330  -29.1760 C   0  0  0  0  0  0  0  0  0  0  0  0
   -1.7200   25.6700  -29.3360 O   0  0  0  0  0  0  0  0  0  0  0  0
   -3.7150   24.6460  -30.2340 C   0  0  0  0  0  0  0  0  0  0  0  0
   -3.5523   25.1666  -31.1893 H   0  0  0  0  0  0  0  0  0  0  0  0
   -6.4030   20.9800  -31.5210 N   0  0  0  0  0  0  0  0  0  0  0  0
   -5.6750   21.5780  -31.0720 H   0  0  0  0  0  0  0  0  0  0  0  0
   -6.0230   19.7390  -31.9340 C   0  0  0  0  0  0  0  0  0  0  0  0
   -4.6950   19.3450  -31.7190 O   0  0  0  0  0  0  0  0  0  0  0  0
   -3.5710   19.8910  -32.3590 C   0  0  0  0  0  0  0  0  0  0  0  0
   -3.2370   19.5660  -33.7000 C   0  0  0  0  0  0  0  0  0  0  0  0
   -4.1110   18.6770  -34.5430 C   0  0  0  0  0  0  0  0  0  0  0  0
   -4.7312   18.0461  -33.8893 H   0  0  0  0  0  0  0  0  0  0  0  0
   -4.7608   19.2972  -35.1779 H   0  0  0  0  0  0  0  0  0  0  0  0
   -3.4798   18.0379  -35.1779 H   0  0  0  0  0  0  0  0  0  0  0  0
   -2.0640   20.0910  -34.2640 C   0  0  0  0  0  0  0  0  0  0  0  0
   -1.7801   19.8110  -35.2892 H   0  0  0  0  0  0  0  0  0  0  0  0
   -1.2530   20.9660  -33.5360 C   0  0  0  0  0  0  0  0  0  0  0  0
   -0.0550   21.4990  -34.1280 C   0  0  0  0  0  0  0  0  0  0  0  0
    0.9090   21.9280  -34.6040 N   0  0  0  0  0  0  0  0  0  0  0  0
   -1.6110   21.3300  -32.2350 C   0  0  0  0  0  0  0  0  0  0  0  0
   -0.9767   22.0273  -31.6680 H   0  0  0  0  0  0  0  0  0  0  0  0
   -2.7750   20.8110  -31.6480 C   0  0  0  0  0  0  0  0  0  0  0  0
   -3.1270   21.1790  -30.2330 C   0  0  0  0  0  0  0  0  0  0  0  0
   -2.5383   20.5636  -29.5368 H   0  0  0  0  0  0  0  0  0  0  0  0
   -2.9010   22.2421  -30.0636 H   0  0  0  0  0  0  0  0  0  0  0  0
   -4.1991   21.0005  -30.0636 H   0  0  0  0  0  0  0  0  0  0  0  0
   -6.9720   18.8890  -32.5340 C   0  0  0  0  0  0  0  0  0  0  0  0
   -6.6030   17.0730  -33.0230 Br  0  0  0  0  0  0  0  0  0  0  0  0
  1  2  1  0
  2  3  2  0
  3  4  1  0
  4  5  2  0
  5  6  1  0
  6  7  1  0
  6  8  1  0
  6  9  1  0
  9 10  1  0
  9 11  1  0
  9 12  1  0
 12 13  2  0
 13 14  1  0
 13 15  1  0
 15 16  1  0
 15 17  2  0
 17 18  1  0
 17 19  1  0
 19 20  1  0
 19 21  2  0
 21 22  1  0
  4 23  1  0
 23 24  1  0
 23 25  1  0
 25 26  1  0
 26 27  1  0
 27 28  2  0
 28 29  1  0
 29 30  1  0
 29 31  1  0
 29 32  1  0
 28 33  1  0
 33 34  1  0
 33 35  2  0
 35 36  1  0
 36 37  3  0
 35 38  1  0
 38 39  1  0
 38 40  2  0
 40 41  1  0
 41 42  1  0
 41 43  1  0
 41 44  1  0
 25 45  2  0
 45 46  1  0
 45  2  1  0
 21 12  1  0
 40 27  1  0
M  CHG  1  20  -1
M  END
>  <UniqueID>  (48) 
45

>  <SMILES>  (48) 
Cc1cc(C#N)cc(C)c1Oc1[nH]/c(=N\CCc2cccc([O-])c2)ncc1Br

>  <Energy>  (48) 
57.95211969570028

>  <Genealogy>  (48) 
Cc1cc(C#N)cc(C)c1Oc1[nH]c(=NCCc2cccc([O-])c2)ncc1Br (protonated)
Cc1cc(C#N)cc(C)c1Oc1[nH]/c(=N\CCc2cccc([O-])c2)ncc1Br (cis-trans isomerization)
Cc1cc(C#N)cc(C)c1Oc1[nH]/c(=N\CCc2cccc([O-])c2)ncc1Br (3D coordinates assigned)
Cc1cc(C#N)cc(C)c1Oc1[nH]/c(=N\CCc2cccc([O-])c2)ncc1Br (optimized conformer: 57.95211969570028 kcal/mol)

>  <smiles>  (48) 
Cc1cc(C#N)cc(C)c1Oc1[nH]c(=NCCc2cccc(O)c2)ncc1Br

>  <score_type>  (48) 
oracle

>  <origin>  (48) 
adgpu

>  <m_score__min__energy>  (48) 
-12.050000000000001

>  <m_primary>  (48) 
energy

$$$$
48:0
     RDKit          3D

 38 40  0  0  0  0  0  0  0  0999 V2000
   -5.0090   25.9840  -31.2970 H   0  0  0  0  0  0  0  0  0  0  0  0
   -4.1950   25.6700  -30.7280 N   0  0  0  0  0  0  0  0  0  0  0  0
   -3.9240   24.4380  -30.4240 C   0  0  0  0  0  0  0  0  0  0  0  0
   -2.7820   24.1850  -29.7300 N   0  0  0  0  0  0  0  0  0  0  0  0
   -2.3850   22.9210  -29.4370 C   0  0  0  0  0  0  0  0  0  0  0  0
   -1.4623   22.7481  -28.8637 H   0  0  0  0  0  0  0  0  0  0  0  0
   -3.1550   21.8460  -29.8680 C   0  0  0  0  0  0  0  0  0  0  0  0
   -2.8338   20.8146  -29.6606 H   0  0  0  0  0  0  0  0  0  0  0  0
   -4.3050   22.0810  -30.5460 N   0  0  0  0  0  0  0  0  0  0  0  0
   -4.7340   23.3430  -30.8300 C   0  0  0  0  0  0  0  0  0  0  0  0
   -6.0350   23.4750  -31.5190 C   0  0  0  0  0  0  0  0  0  0  0  0
   -6.3460   24.5480  -32.1020 O   0  0  0  0  0  0  0  0  0  0  0  0
   -6.9310   22.3520  -31.5260 N   0  0  0  0  0  0  0  0  0  0  0  0
   -6.6910   21.1130  -31.8590 C   0  0  0  0  0  0  0  0  0  0  0  0
   -7.7070   20.1700  -31.6710 C   0  0  0  0  0  0  0  0  0  0  0  0
   -8.6764   20.4810  -31.2544 H   0  0  0  0  0  0  0  0  0  0  0  0
   -7.4900   18.8360  -32.0120 C   0  0  0  0  0  0  0  0  0  0  0  0
   -8.2853   18.0930  -31.8520 H   0  0  0  0  0  0  0  0  0  0  0  0
   -6.2620   18.4380  -32.5580 C   0  0  0  0  0  0  0  0  0  0  0  0
   -6.0180   17.0210  -32.9290 C   0  0  0  0  0  0  0  0  0  0  0  0
   -6.8330   16.3770  -33.8770 C   0  0  0  0  0  0  0  0  0  0  0  0
   -7.6593   16.9275  -34.3504 H   0  0  0  0  0  0  0  0  0  0  0  0
   -6.6010   15.0430  -34.2220 C   0  0  0  0  0  0  0  0  0  0  0  0
   -7.2485   14.5521  -34.9634 H   0  0  0  0  0  0  0  0  0  0  0  0
   -5.5550   14.3260  -33.6350 C   0  0  0  0  0  0  0  0  0  0  0  0
   -5.3640   12.9900  -34.0160 O   0  0  0  0  0  0  0  0  0  0  0  0
   -5.1260   11.9190  -33.1080 C   0  0  0  0  0  0  0  0  0  0  0  0
   -5.2082   12.2887  -32.0753 H   0  0  0  0  0  0  0  0  0  0  0  0
   -5.8698   11.1257  -33.2737 H   0  0  0  0  0  0  0  0  0  0  0  0
   -4.1162   11.5153  -33.2737 H   0  0  0  0  0  0  0  0  0  0  0  0
   -4.7350   14.9650  -32.6850 C   0  0  0  0  0  0  0  0  0  0  0  0
   -3.9084   14.4118  -32.2153 H   0  0  0  0  0  0  0  0  0  0  0  0
   -4.9660   16.2980  -32.3360 C   0  0  0  0  0  0  0  0  0  0  0  0
   -4.3202   16.7866  -31.5915 H   0  0  0  0  0  0  0  0  0  0  0  0
   -5.2750   19.4170  -32.7560 C   0  0  0  0  0  0  0  0  0  0  0  0
   -4.3059   19.1318  -33.1914 H   0  0  0  0  0  0  0  0  0  0  0  0
   -5.5040   20.7160  -32.4150 N   0  0  0  0  0  0  0  0  0  0  0  0
   -4.7460   21.3940  -32.6350 H   0  0  0  0  0  0  0  0  0  0  0  0
  1  2  1  0
  2  3  2  0
  3  4  1  0
  4  5  1  0
  5  6  1  0
  5  7  2  0
  7  8  1  0
  7  9  1  0
  9 10  2  0
 10 11  1  0
 11 12  2  0
 11 13  1  0
 13 14  2  3
 14 15  1  0
 15 16  1  0
 15 17  2  0
 17 18  1  0
 17 19  1  0
 19 20  1  0
 20 21  2  0
 21 22  1  0
 21 23  1  0
 23 24  1  0
 23 25  2  0
 25 26  1  0
 26 27  1  0
 27 28  1  0
 27 29  1  0
 27 30  1  0
 25 31  1  0
 31 32  1  0
 31 33  2  0
 33 34  1  0
 19 35  2  0
 35 36  1  0
 35 37  1  0
 37 38  1  0
 10  3  1  0
 37 14  1  0
 33 20  1  0
M  CHG  1   4  -1
M  END
>  <UniqueID>  (49) 
46

>  <SMILES>  (49) 
[H]/N=c1/[n-]ccnc1C(=O)N=c1ccc(-c2ccc(OC)cc2)c[nH]1

>  <Energy>  (49) 
61.480210887996336

>  <Genealogy>  (49) 
COc1ccc(-c2ccc(=NC(=O)c3ncc[n-]c3=N)[nH]c2)cc1 (protonated)
[H]/N=c1/[n-]ccnc1C(=O)N=c1ccc(-c2ccc(OC)cc2)c[nH]1 (cis-trans isomerization)
[H]/N=c1/[n-]ccnc1C(=O)N=c1ccc(-c2ccc(OC)cc2)c[nH]1 (3D coordinates assigned)
[H]/N=c1/[n-]ccnc1C(=O)N=c1ccc(-c2ccc(OC)cc2)c[nH]1 (optimized conformer: 61.480210887996336 kcal/mol)

>  <smiles>  (49) 
COc1ccc(-c2ccc(=NC(=O)c3ncc[nH]c3=N)[nH]c2)cc1

>  <score_type>  (49) 
oracle

>  <origin>  (49) 
adgpu

>  <m_score__min__energy>  (49) 
-9.5500000000000007

>  <m_primary>  (49) 
energy

$$$$
49:0
     RDKit          3D

 32 34  0  0  0  0  0  0  0  0999 V2000
   -6.3540   23.3090  -32.6060 O   0  0  0  0  0  0  0  0  0  0  0  0
   -6.0940   23.0150  -31.4080 C   0  0  0  0  0  0  0  0  0  0  0  0
   -6.8840   22.0330  -30.7170 N   0  0  0  0  0  0  0  0  0  0  0  0
   -7.7370   21.0820  -31.3770 C   0  0  0  0  0  0  0  0  0  0  0  0
   -9.0660   21.3990  -31.7170 C   0  0  0  0  0  0  0  0  0  0  0  0
   -9.8680   20.4640  -32.3790 C   0  0  0  0  0  0  0  0  0  0  0  0
   -9.3490   19.2120  -32.7190 C   0  0  0  0  0  0  0  0  0  0  0  0
   -8.0250   18.8960  -32.4040 C   0  0  0  0  0  0  0  0  0  0  0  0
   -7.2200   19.8290  -31.7430 C   0  0  0  0  0  0  0  0  0  0  0  0
   -5.0000   23.7220  -30.7220 C   0  0  0  0  0  0  0  0  0  0  0  0
   -4.2160   23.2360  -29.6960 C   0  0  0  0  0  0  0  0  0  0  0  0
   -3.3360   24.2700  -29.4230 C   0  0  0  0  0  0  0  0  0  0  0  0
   -2.2620   24.2770  -28.3940 C   0  0  0  0  0  0  0  0  0  0  0  0
   -2.2290   23.2810  -27.3970 C   0  0  0  0  0  0  0  0  0  0  0  0
   -1.2270   23.2810  -26.4210 C   0  0  0  0  0  0  0  0  0  0  0  0
   -0.2480   24.2730  -26.4240 C   0  0  0  0  0  0  0  0  0  0  0  0
   -0.2650   25.2680  -27.4010 C   0  0  0  0  0  0  0  0  0  0  0  0
   -1.2610   25.2780  -28.3840 C   0  0  0  0  0  0  0  0  0  0  0  0
   -1.2370   26.2810  -29.3470 O   0  0  0  0  0  0  0  0  0  0  0  0
   -3.5960   25.3020  -30.2520 N   0  0  0  0  0  0  0  0  0  0  0  0
   -4.6050   24.9690  -31.0420 N   0  0  0  0  0  0  0  0  0  0  0  0
   -6.9190   22.0740  -29.6740 H   0  0  0  0  0  0  0  0  0  0  0  0
   -9.4756   22.3872  -31.4606 H   0  0  0  0  0  0  0  0  0  0  0  0
  -10.9087   20.7145  -32.6324 H   0  0  0  0  0  0  0  0  0  0  0  0
   -9.9827   18.4753  -33.2345 H   0  0  0  0  0  0  0  0  0  0  0  0
   -7.6153   17.9121  -32.6763 H   0  0  0  0  0  0  0  0  0  0  0  0
   -6.1747   19.5796  -31.5082 H   0  0  0  0  0  0  0  0  0  0  0  0
   -4.2761   22.2526  -29.2069 H   0  0  0  0  0  0  0  0  0  0  0  0
   -2.9992   22.4957  -27.3864 H   0  0  0  0  0  0  0  0  0  0  0  0
   -1.2117   22.4968  -25.6498 H   0  0  0  0  0  0  0  0  0  0  0  0
    0.5387   24.2711  -25.6551 H   0  0  0  0  0  0  0  0  0  0  0  0
    0.5090   26.0496  -27.3989 H   0  0  0  0  0  0  0  0  0  0  0  0
  1  2  2  0
  2  3  1  0
  3  4  1  0
  4  5  2  0
  5  6  1  0
  6  7  2  0
  7  8  1  0
  8  9  2  0
  2 10  1  0
 10 11  2  0
 11 12  1  0
 12 13  1  0
 13 14  2  0
 14 15  1  0
 15 16  2  0
 16 17  1  0
 17 18  2  0
 18 19  1  0
 12 20  2  0
 20 21  1  0
  9  4  1  0
 21 10  1  0
 18 13  1  0
  3 22  1  0
  5 23  1  0
  6 24  1  0
  7 25  1  0
  8 26  1  0
  9 27  1  0
 11 28  1  0
 14 29  1  0
 15 30  1  0
 16 31  1  0
 17 32  1  0
M  CHG  2  19  -1  21  -1
M  END
>  <UniqueID>  (50) 
47

>  <SMILES>  (50) 
O=C(Nc1ccccc1)c1cc(-c2ccccc2[O-])n[n-]1

>  <Energy>  (50) 
70.57174567401823

>  <Genealogy>  (50) 
O=C(Nc1ccccc1)c1cc(-c2ccccc2[O-])n[n-]1 (protonated)
O=C(Nc1ccccc1)c1cc(-c2ccccc2[O-])n[n-]1 (3D coordinates assigned)
O=C(Nc1ccccc1)c1cc(-c2ccccc2[O-])n[n-]1 (optimized conformer: 70.57174567401823 kcal/mol)

>  <smiles>  (50) 
O=C(Nc1ccccc1)c1cc(-c2ccccc2O)n[nH]1

>  <score_type>  (50) 
oracle

>  <origin>  (50) 
adgpu

>  <m_score__min__energy>  (50) 
-12.83

>  <m_primary>  (50) 
energy

$$$$
