0:0
     RDKit          3D

 45 47  0  0  0  0  0  0  0  0999 V2000
   -0.9140   20.4800  -34.4560 C   0  0  0  0  0  0  0  0  0  0  0  0
   -0.9200   20.3800  -32.9530 C   0  0  0  0  0  0  0  0  0  0  0  0
    0.3110   20.3240  -32.2770 C   0  0  0  0  0  0  0  0  0  0  0  0
    0.3550   20.2190  -30.8860 C   0  0  0  0  0  0  0  0  0  0  0  0
   -0.8310   20.1900  -30.1490 C   0  0  0  0  0  0  0  0  0  0  0  0
   -0.7990   20.0240  -28.7330 N   0  0  0  0  0  0  0  0  0  0  0  0
   -2.0420   20.7130  -27.7500 S   0  0  0  0  0  0  0  0  0  0  0  0
   -3.1850   19.7460  -27.6080 O   0  0  0  0  0  0  0  0  0  0  0  0
   -1.4870   21.0080  -26.3860 O   0  0  0  0  0  0  0  0  0  0  0  0
   -2.5980   22.2040  -28.5060 C   0  0  0  0  0  0  0  0  0  0  0  0
   -1.7170   23.2780  -28.6950 C   0  0  0  0  0  0  0  0  0  0  0  0
   -2.1520   24.4370  -29.3450 C   0  0  0  0  0  0  0  0  0  0  0  0
   -3.4640   24.5270  -29.8210 C   0  0  0  0  0  0  0  0  0  0  0  0
   -3.8830   25.6810  -30.4730 O   0  0  0  0  0  0  0  0  0  0  0  0
   -4.3460   23.4510  -29.6420 C   0  0  0  0  0  0  0  0  0  0  0  0
   -5.9870   23.5300  -30.2640 Cl  0  0  0  0  0  0  0  0  0  0  0  0
   -3.9130   22.2950  -28.9850 C   0  0  0  0  0  0  0  0  0  0  0  0
   -2.0610   20.2460  -30.8080 C   0  0  0  0  0  0  0  0  0  0  0  0
   -2.1230   20.2950  -32.2090 C   0  0  0  0  0  0  0  0  0  0  0  0
   -3.7170   20.2270  -32.9840 S   0  0  0  0  0  0  0  0  0  0  0  0
   -3.6590   19.3440  -34.2000 O   0  0  0  0  0  0  0  0  0  0  0  0
   -4.1050   21.6190  -33.3960 O   0  0  0  0  0  0  0  0  0  0  0  0
   -4.8950   19.5860  -31.8550 N   0  0  0  0  0  0  0  0  0  0  0  0
   -5.3790   18.2480  -32.2630 C   0  0  0  0  0  0  0  0  0  0  0  0
   -6.7590   18.2920  -32.9410 C   0  0  0  0  0  0  0  0  0  0  0  0
   -6.8990   19.4820  -33.6820 O   0  0  0  0  0  0  0  0  0  0  0  0
   -6.9860   20.5960  -32.8090 C   0  0  0  0  0  0  0  0  0  0  0  0
   -5.9980   20.5350  -31.6200 C   0  0  0  0  0  0  0  0  0  0  0  0
   -0.8506   21.5373  -34.7529 H   0  0  0  0  0  0  0  0  0  0  0  0
   -0.0470   19.9341  -34.8563 H   0  0  0  0  0  0  0  0  0  0  0  0
   -1.8401   20.0417  -34.8563 H   0  0  0  0  0  0  0  0  0  0  0  0
    1.2491   20.3633  -32.8500 H   0  0  0  0  0  0  0  0  0  0  0  0
    1.3245   20.1590  -30.3698 H   0  0  0  0  0  0  0  0  0  0  0  0
   -0.6812   23.2087  -28.3311 H   0  0  0  0  0  0  0  0  0  0  0  0
   -1.4600   25.2809  -29.4825 H   0  0  0  0  0  0  0  0  0  0  0  0
   -4.6069   21.4533  -28.8433 H   0  0  0  0  0  0  0  0  0  0  0  0
   -2.9919   20.2518  -30.2221 H   0  0  0  0  0  0  0  0  0  0  0  0
   -4.6553   17.8128  -32.9679 H   0  0  0  0  0  0  0  0  0  0  0  0
   -5.4783   17.6406  -31.3513 H   0  0  0  0  0  0  0  0  0  0  0  0
   -6.8598   17.4295  -33.6162 H   0  0  0  0  0  0  0  0  0  0  0  0
   -7.5403   18.2566  -32.1675 H   0  0  0  0  0  0  0  0  0  0  0  0
   -6.7765   21.5076  -33.3878 H   0  0  0  0  0  0  0  0  0  0  0  0
   -8.0004   20.5918  -32.3837 H   0  0  0  0  0  0  0  0  0  0  0  0
   -5.5739   21.5374  -31.4612 H   0  0  0  0  0  0  0  0  0  0  0  0
   -6.5560   20.1893  -30.7373 H   0  0  0  0  0  0  0  0  0  0  0  0
  1  2  1  0
  2  3  2  0
  3  4  1  0
  4  5  2  0
  5  6  1  0
  6  7  1  0
  7  8  2  0
  7  9  2  0
  7 10  1  0
 10 11  2  0
 11 12  1  0
 12 13  2  0
 13 14  1  0
 13 15  1  0
 15 16  1  0
 15 17  2  0
  5 18  1  0
 18 19  2  0
 19 20  1  0
 20 21  2  0
 20 22  2  0
 20 23  1  0
 23 24  1  0
 24 25  1  0
 25 26  1  0
 26 27  1  0
 27 28  1  0
 19  2  1  0
 28 23  1  0
 17 10  1  0
  1 29  1  0
  1 30  1  0
  1 31  1  0
  3 32  1  0
  4 33  1  0
 11 34  1  0
 12 35  1  0
 17 36  1  0
 18 37  1  0
 24 38  1  0
 24 39  1  0
 25 40  1  0
 25 41  1  0
 27 42  1  0
 27 43  1  0
 28 44  1  0
 28 45  1  0
M  CHG  2   6  -1  14  -1
M  END
>  <UniqueID>  (1) 
1

>  <SMILES>  (1) 
Cc1ccc([N-]S(=O)(=O)c2ccc([O-])c(Cl)c2)cc1S(=O)(=O)N1CCOCC1

>  <Energy>  (1) 
64.65198341468172

>  <Genealogy>  (1) 
Cc1ccc([N-]S(=O)(=O)c2ccc([O-])c(Cl)c2)cc1S(=O)(=O)N1CCOCC1 (protonated)
Cc1ccc([N-]S(=O)(=O)c2ccc([O-])c(Cl)c2)cc1S(=O)(=O)N1CCOCC1 (3D coordinates assigned)
Cc1ccc([N-]S(=O)(=O)c2ccc([O-])c(Cl)c2)cc1S(=O)(=O)N1CCOCC1 (nonaromatic ring conformer: 64.65198341468172 kcal/mol)

>  <smiles>  (1) 
Cc1ccc(NS(=O)(=O)c2ccc(O)c(Cl)c2)cc1S(=O)(=O)N1CCOCC1

>  <score_type>  (1) 
oracle

>  <origin>  (1) 
adgpu

>  <m_score__min__energy>  (1) 
-11.630000000000001

>  <m_primary>  (1) 
energy

$$$$
1:0
     RDKit          3D

 55 58  0  0  1  0  0  0  0  0999 V2000
   -5.4750   24.4980  -31.0600 C   0  0  0  0  0  0  0  0  0  0  0  0
   -6.1130   23.2320  -31.5180 C   0  0  0  0  0  0  0  0  0  0  0  0
   -5.9310   22.5610  -32.6730 N   0  0  0  0  0  0  0  0  0  0  0  0
   -6.6690   21.4920  -32.7100 O   0  0  0  0  0  0  0  0  0  0  0  0
   -7.3660   21.4010  -31.6000 C   0  0  0  0  0  0  0  0  0  0  0  0
   -8.2020   20.4880  -31.2710 N   0  0  0  0  0  0  0  0  0  0  0  0
   -8.5420   19.1610  -32.3290 S   0  0  0  0  0  0  0  0  0  0  0  0
   -9.2310   18.0420  -31.5750 O   0  0  0  0  0  0  0  0  0  0  0  0
   -9.3750   19.6810  -33.4520 O   0  0  0  0  0  0  0  0  0  0  0  0
   -6.9960   18.5670  -32.9120 C   0  0  0  0  0  0  0  0  0  0  0  0
   -6.4870   19.1360  -34.0640 C   0  0  0  0  0  0  0  0  0  0  0  0
   -5.2740   18.6600  -34.5100 C   0  0  0  0  0  0  0  0  0  0  0  0
   -4.5660   17.6620  -33.8660 C   0  0  0  0  0  0  0  0  0  0  0  0
   -3.3190   17.2330  -34.4000 N   0  0  0  0  0  0  0  0  0  0  0  0
   -2.2640   17.8660  -34.0130 C   0  0  0  0  0  0  0  0  0  0  0  0
   -2.3350   18.9310  -33.1030 C   0  0  0  0  0  0  0  0  0  0  0  0
   -1.1850   19.6000  -32.6970 C   0  0  0  0  0  0  0  0  0  0  0  0
   -1.2640   20.7060  -31.7520 C   0  0  0  0  0  0  0  0  0  0  0  0
   -2.3130   21.6080  -31.7330 C   0  0  0  0  0  0  0  0  0  0  0  0
   -2.3700   22.6590  -30.8230 C   0  0  0  0  0  0  0  0  0  0  0  0
   -1.3760   22.8530  -29.8880 C   0  0  0  0  0  0  0  0  0  0  0  0
   -1.4660   24.1660  -28.7640 S   0  0  0  0  0  0  0  0  0  0  0  0
   -2.2020   23.5710  -27.2460 C   0  0  0  0  0  0  0  0  0  0  0  0
   -0.1140   24.6970  -28.3910 O   0  0  0  0  0  0  0  0  0  0  0  0
   -2.3200   25.2430  -29.3310 O   0  0  0  0  0  0  0  0  0  0  0  0
   -0.3270   21.9630  -29.8970 C   0  0  0  0  0  0  0  0  0  0  0  0
   -0.2720   20.9050  -30.8140 C   0  0  0  0  0  0  0  0  0  0  0  0
   -0.0320   19.1590  -33.2300 N   0  0  0  0  0  0  0  0  0  0  0  0
    0.0330   18.1330  -34.1060 C   0  0  0  0  0  0  0  0  0  0  0  0
   -1.0820   17.4810  -34.5010 N   0  0  0  0  0  0  0  0  0  0  0  0
   -5.1120   17.1190  -32.7130 C   0  0  0  0  0  0  0  0  0  0  0  0
   -6.3400   17.5650  -32.2170 C   0  0  0  0  0  0  0  0  0  0  0  0
   -7.0480   22.4790  -30.8140 C   0  0  0  0  0  0  0  0  0  0  0  0
   -7.5490   22.8490  -29.4710 C   0  0  0  0  0  0  0  0  0  0  0  0
   -5.4615   24.5249  -29.9604 H   0  0  0  0  0  0  0  0  0  0  0  0
   -4.4442   24.5477  -31.4407 H   0  0  0  0  0  0  0  0  0  0  0  0
   -6.0483   25.3561  -31.4407 H   0  0  0  0  0  0  0  0  0  0  0  0
   -5.2650   22.9100  -33.4080 H   0  0  0  0  0  0  0  0  0  0  0  0
   -7.0254   19.9318  -34.5996 H   0  0  0  0  0  0  0  0  0  0  0  0
   -4.8467   19.0959  -35.4251 H   0  0  0  0  0  0  0  0  0  0  0  0
   -3.3126   19.2411  -32.7053 H   0  0  0  0  0  0  0  0  0  0  0  0
   -3.1289   21.4903  -32.4614 H   0  0  0  0  0  0  0  0  0  0  0  0
   -3.2260   23.3493  -30.8503 H   0  0  0  0  0  0  0  0  0  0  0  0
   -1.6685   24.0023  -26.3862 H   0  0  0  0  0  0  0  0  0  0  0  0
   -3.2597   23.8709  -27.2092 H   0  0  0  0  0  0  0  0  0  0  0  0
   -2.1304   22.4739  -27.2092 H   0  0  0  0  0  0  0  0  0  0  0  0
    0.4873   22.0848  -29.1675 H   0  0  0  0  0  0  0  0  0  0  0  0
    0.5843   20.2152  -30.7853 H   0  0  0  0  0  0  0  0  0  0  0  0
    0.8750   19.6020  -32.9810 H   0  0  0  0  0  0  0  0  0  0  0  0
    1.0104   17.8232  -34.5044 H   0  0  0  0  0  0  0  0  0  0  0  0
   -4.5697   16.3241  -32.1800 H   0  0  0  0  0  0  0  0  0  0  0  0
   -6.7723   17.1332  -31.3023 H   0  0  0  0  0  0  0  0  0  0  0  0
   -6.9163   22.3817  -28.7020 H   0  0  0  0  0  0  0  0  0  0  0  0
   -7.5179   23.9426  -29.3565 H   0  0  0  0  0  0  0  0  0  0  0  0
   -8.5851   22.4976  -29.3565 H   0  0  0  0  0  0  0  0  0  0  0  0
  1  2  1  0
  2  3  1  0
  3  4  1  0
  4  5  1  0
  5  6  2  0
  6  7  1  0
  7  8  2  0
  7  9  2  0
  7 10  1  0
 10 11  2  0
 11 12  1  0
 12 13  2  0
 13 14  1  0
 14 15  2  0
 15 16  1  0
 16 17  2  0
 17 18  1  0
 18 19  2  0
 19 20  1  0
 20 21  2  0
 21 22  1  0
 22 23  1  0
 22 24  2  0
 22 25  2  0
 21 26  1  0
 26 27  2  0
 17 28  1  0
 28 29  1  0
 29 30  2  0
 13 31  1  0
 31 32  2  0
  5 33  1  0
 33 34  1  0
 33  2  2  0
 32 10  1  0
 30 15  1  0
 27 18  1  0
  1 35  1  0
  1 36  1  0
  1 37  1  0
  3 38  1  0
 11 39  1  0
 12 40  1  0
 16 41  1  0
 19 42  1  0
 20 43  1  0
 23 44  1  0
 23 45  1  0
 23 46  1  0
 26 47  1  0
 27 48  1  0
 28 49  1  0
 29 50  1  0
 31 51  1  0
 32 52  1  0
 34 53  1  0
 34 54  1  0
 34 55  1  0
M  END
>  <smiles>  (2) 
Cc1[nH]oc(=NS(=O)(=O)c2ccc(N=c3cc(-c4ccc(S(C)(=O)=O)cc4)[nH]cn3)cc2)c1C

>  <score_type>  (2) 
oracle

>  <origin>  (2) 
adgpu

>  <m_score__min__energy>  (2) 
-10.77

>  <m_primary>  (2) 
energy

$$$$
2:0
     RDKit          3D

 63 66  0  0  0  0  0  0  0  0999 V2000
    0.6390   25.4030  -24.0310 N   0  0  0  0  0  0  0  0  0  0  0  0
   -0.5470   26.4510  -24.7260 S   0  0  0  0  0  0  0  0  0  0  0  0
   -1.5870   26.7860  -23.6960 O   0  0  0  0  0  0  0  0  0  0  0  0
    0.1140   27.7240  -25.1750 O   0  0  0  0  0  0  0  0  0  0  0  0
   -1.3050   25.6540  -26.1010 C   0  0  0  0  0  0  0  0  0  0  0  0
   -0.6280   25.5530  -27.3220 C   0  0  0  0  0  0  0  0  0  0  0  0
   -1.2280   24.9090  -28.4080 C   0  0  0  0  0  0  0  0  0  0  0  0
   -2.5090   24.3530  -28.2830 C   0  0  0  0  0  0  0  0  0  0  0  0
   -3.1380   23.7090  -29.4050 N   0  0  0  0  0  0  0  0  0  0  0  0
   -2.5050   22.5580  -30.0580 C   0  0  0  0  0  0  0  0  0  0  0  0
   -2.1240   21.5260  -29.0340 C   0  0  0  0  0  0  0  0  0  0  0  0
   -0.7760   21.1690  -28.8630 C   0  0  0  0  0  0  0  0  0  0  0  0
   -0.4130   20.2450  -27.8780 C   0  0  0  0  0  0  0  0  0  0  0  0
   -1.3900   19.6800  -27.0540 C   0  0  0  0  0  0  0  0  0  0  0  0
   -2.7310   20.0380  -27.2120 C   0  0  0  0  0  0  0  0  0  0  0  0
   -3.1000   20.9590  -28.1960 C   0  0  0  0  0  0  0  0  0  0  0  0
   -4.6470   24.3170  -30.0210 S   0  0  0  0  0  0  0  0  0  0  0  0
   -4.3720   25.2950  -31.1280 O   0  0  0  0  0  0  0  0  0  0  0  0
   -5.4120   25.0150  -28.9300 O   0  0  0  0  0  0  0  0  0  0  0  0
   -5.6160   22.9690  -30.6030 C   0  0  0  0  0  0  0  0  0  0  0  0
   -5.0870   22.1090  -31.5730 C   0  0  0  0  0  0  0  0  0  0  0  0
   -5.8600   21.0600  -32.0780 C   0  0  0  0  0  0  0  0  0  0  0  0
   -7.1690   20.8650  -31.6210 C   0  0  0  0  0  0  0  0  0  0  0  0
   -8.1460   19.5700  -32.3100 S   0  0  0  0  0  0  0  0  0  0  0  0
   -8.9740   20.0980  -33.4500 O   0  0  0  0  0  0  0  0  0  0  0  0
   -9.0670   19.0450  -31.2440 O   0  0  0  0  0  0  0  0  0  0  0  0
   -7.1070   18.2860  -32.8780 N   0  0  0  0  0  0  0  0  0  0  0  0
   -6.1810   17.8730  -31.7990 C   0  0  0  0  0  0  0  0  0  0  0  0
   -4.9720   17.1130  -32.3540 C   0  0  0  0  0  0  0  0  0  0  0  0
   -4.1440   18.0060  -33.2930 C   0  0  0  0  0  0  0  0  0  0  0  0
   -4.9860   19.1090  -33.9620 C   0  0  0  0  0  0  0  0  0  0  0  0
   -6.4420   18.6610  -34.1520 C   0  0  0  0  0  0  0  0  0  0  0  0
   -7.6980   21.7240  -30.6460 C   0  0  0  0  0  0  0  0  0  0  0  0
   -6.9240   22.7720  -30.1390 C   0  0  0  0  0  0  0  0  0  0  0  0
   -3.1810   24.4490  -27.0560 C   0  0  0  0  0  0  0  0  0  0  0  0
   -2.5820   25.0930  -25.9690 C   0  0  0  0  0  0  0  0  0  0  0  0
    0.9950   25.8760  -23.1700 H   0  0  0  0  0  0  0  0  0  0  0  0
    0.1390   24.5410  -23.7160 H   0  0  0  0  0  0  0  0  0  0  0  0
    0.3795   25.9818  -27.4273 H   0  0  0  0  0  0  0  0  0  0  0  0
   -0.6921   24.8381  -29.3660 H   0  0  0  0  0  0  0  0  0  0  0  0
   -3.2102   22.1144  -30.7762 H   0  0  0  0  0  0  0  0  0  0  0  0
   -1.5987   22.8958  -30.5820 H   0  0  0  0  0  0  0  0  0  0  0  0
   -0.0040   21.6175  -29.5056 H   0  0  0  0  0  0  0  0  0  0  0  0
    0.6426   19.9627  -27.7517 H   0  0  0  0  0  0  0  0  0  0  0  0
   -1.1029   18.9527  -26.2803 H   0  0  0  0  0  0  0  0  0  0  0  0
   -3.4981   19.5940  -26.5605 H   0  0  0  0  0  0  0  0  0  0  0  0
   -4.1565   21.2410  -28.3152 H   0  0  0  0  0  0  0  0  0  0  0  0
   -4.0604   22.2594  -31.9385 H   0  0  0  0  0  0  0  0  0  0  0  0
   -5.4385   20.3850  -32.8374 H   0  0  0  0  0  0  0  0  0  0  0  0
   -5.8267   18.7699  -31.2698 H   0  0  0  0  0  0  0  0  0  0  0  0
   -6.7247   17.2034  -31.1164 H   0  0  0  0  0  0  0  0  0  0  0  0
   -4.3378   16.7854  -31.5171 H   0  0  0  0  0  0  0  0  0  0  0  0
   -5.3349   16.2455  -32.9247 H   0  0  0  0  0  0  0  0  0  0  0  0
   -3.3416   18.4812  -32.7095 H   0  0  0  0  0  0  0  0  0  0  0  0
   -3.7422   17.3650  -34.0916 H   0  0  0  0  0  0  0  0  0  0  0  0
   -4.9674   20.0080  -33.3284 H   0  0  0  0  0  0  0  0  0  0  0  0
   -4.5561   19.3218  -34.9519 H   0  0  0  0  0  0  0  0  0  0  0  0
   -7.0053   19.4868  -34.6111 H   0  0  0  0  0  0  0  0  0  0  0  0
   -6.4291   17.7659  -34.7912 H   0  0  0  0  0  0  0  0  0  0  0  0
   -8.7241   21.5726  -30.2797 H   0  0  0  0  0  0  0  0  0  0  0  0
   -7.3422   23.4433  -29.3745 H   0  0  0  0  0  0  0  0  0  0  0  0
   -4.1859   24.0149  -26.9479 H   0  0  0  0  0  0  0  0  0  0  0  0
   -3.1143   25.1593  -25.0086 H   0  0  0  0  0  0  0  0  0  0  0  0
  1  2  1  0
  2  3  2  0
  2  4  2  0
  2  5  1  0
  5  6  2  0
  6  7  1  0
  7  8  2  0
  8  9  1  0
  9 10  1  0
 10 11  1  0
 11 12  2  0
 12 13  1  0
 13 14  2  0
 14 15  1  0
 15 16  2  0
  9 17  1  0
 17 18  2  0
 17 19  2  0
 17 20  1  0
 20 21  2  0
 21 22  1  0
 22 23  2  0
 23 24  1  0
 24 25  2  0
 24 26  2  0
 24 27  1  0
 27 28  1  0
 28 29  1  0
 29 30  1  0
 30 31  1  0
 31 32  1  0
 23 33  1  0
 33 34  2  0
  8 35  1  0
 35 36  2  0
 36  5  1  0
 16 11  1  0
 34 20  1  0
 32 27  1  0
  1 37  1  0
  1 38  1  0
  6 39  1  0
  7 40  1  0
 10 41  1  0
 10 42  1  0
 12 43  1  0
 13 44  1  0
 14 45  1  0
 15 46  1  0
 16 47  1  0
 21 48  1  0
 22 49  1  0
 28 50  1  0
 28 51  1  0
 29 52  1  0
 29 53  1  0
 30 54  1  0
 30 55  1  0
 31 56  1  0
 31 57  1  0
 32 58  1  0
 32 59  1  0
 33 60  1  0
 34 61  1  0
 35 62  1  0
 36 63  1  0
M  END
>  <UniqueID>  (3) 
2

>  <SMILES>  (3) 
NS(=O)(=O)c1ccc(N(Cc2ccccc2)S(=O)(=O)c2ccc(S(=O)(=O)N3CCCCC3)cc2)cc1

>  <Energy>  (3) 
72.89139939849558

>  <Genealogy>  (3) 
NS(=O)(=O)c1ccc(N(Cc2ccccc2)S(=O)(=O)c2ccc(S(=O)(=O)N3CCCCC3)cc2)cc1 (3D coordinates assigned)
NS(=O)(=O)c1ccc(N(Cc2ccccc2)S(=O)(=O)c2ccc(S(=O)(=O)N3CCCCC3)cc2)cc1 (nonaromatic ring conformer: 72.89139939849558 kcal/mol)

>  <smiles>  (3) 
NS(=O)(=O)c1ccc(N(Cc2ccccc2)S(=O)(=O)c2ccc(S(=O)(=O)N3CCCCC3)cc2)cc1

>  <score_type>  (3) 
oracle

>  <origin>  (3) 
adgpu

>  <m_score__min__energy>  (3) 
-12.380000000000001

>  <m_primary>  (3) 
energy

$$$$
3:0
     RDKit          3D

 56 59  0  0  0  0  0  0  0  0999 V2000
   -6.6710   25.6760  -29.4180 C   0  0  0  0  0  0  0  0  0  0  0  0
   -5.6280   24.6710  -29.2570 N   0  0  0  0  0  0  0  0  0  0  0  0
   -4.4250   24.7030  -30.0390 C   0  0  0  0  0  0  0  0  0  0  0  0
   -4.2280   25.6540  -30.8440 O   0  0  0  0  0  0  0  0  0  0  0  0
   -3.4230   23.6210  -29.9220 C   0  0  0  0  0  0  0  0  0  0  0  0
   -2.6180   23.5010  -28.7770 C   0  0  0  0  0  0  0  0  0  0  0  0
   -1.6510   22.4960  -28.7140 C   0  0  0  0  0  0  0  0  0  0  0  0
   -1.4900   21.6120  -29.7870 C   0  0  0  0  0  0  0  0  0  0  0  0
   -0.5190   20.6040  -29.7580 C   0  0  0  0  0  0  0  0  0  0  0  0
   -0.3750   19.7430  -30.8490 C   0  0  0  0  0  0  0  0  0  0  0  0
   -1.2070   19.8710  -31.9630 C   0  0  0  0  0  0  0  0  0  0  0  0
   -2.2040   20.8660  -31.9990 C   0  0  0  0  0  0  0  0  0  0  0  0
   -3.0940   21.0010  -33.0770 O   0  0  0  0  0  0  0  0  0  0  0  0
   -4.0390   20.0170  -33.5030 C   0  0  0  0  0  0  0  0  0  0  0  0
   -5.4250   20.2890  -32.9490 C   0  0  0  0  0  0  0  0  0  0  0  0
   -5.7730   21.6140  -32.6410 C   0  0  0  0  0  0  0  0  0  0  0  0
   -7.0530   21.9420  -32.1730 C   0  0  0  0  0  0  0  0  0  0  0  0
   -7.3850   23.3820  -31.8810 C   0  0  0  0  0  0  0  0  0  0  0  0
   -8.0160   20.9220  -32.0150 C   0  0  0  0  0  0  0  0  0  0  0  0
   -9.4070   21.2300  -31.5220 C   0  0  0  0  0  0  0  0  0  0  0  0
   -7.6630   19.5940  -32.2920 C   0  0  0  0  0  0  0  0  0  0  0  0
   -6.3770   19.2600  -32.7460 C   0  0  0  0  0  0  0  0  0  0  0  0
   -6.0640   17.8350  -32.9960 C   0  0  0  0  0  0  0  0  0  0  0  0
   -6.7950   17.0960  -33.9360 C   0  0  0  0  0  0  0  0  0  0  0  0
   -6.4950   15.7480  -34.1360 C   0  0  0  0  0  0  0  0  0  0  0  0
   -5.4700   15.1430  -33.4000 C   0  0  0  0  0  0  0  0  0  0  0  0
   -5.1940   13.6770  -33.5570 C   0  0  0  0  0  0  0  0  0  0  0  0
   -4.7600   15.9150  -32.4690 C   0  0  0  0  0  0  0  0  0  0  0  0
   -5.0680   17.2270  -32.2930 N   0  0  0  0  0  0  0  0  0  0  0  0
   -2.3280   21.7490  -30.9150 C   0  0  0  0  0  0  0  0  0  0  0  0
   -3.2590   22.7420  -30.9480 N   0  0  0  0  0  0  0  0  0  0  0  0
   -7.0159   26.0084  -28.4278 H   0  0  0  0  0  0  0  0  0  0  0  0
   -6.2690   26.5359  -29.9739 H   0  0  0  0  0  0  0  0  0  0  0  0
   -7.5154   25.2424  -29.9739 H   0  0  0  0  0  0  0  0  0  0  0  0
   -5.7790   23.9070  -28.5610 H   0  0  0  0  0  0  0  0  0  0  0  0
   -2.7489   24.1955  -27.9341 H   0  0  0  0  0  0  0  0  0  0  0  0
   -1.0158   22.3990  -27.8212 H   0  0  0  0  0  0  0  0  0  0  0  0
    0.1300   20.4899  -28.8772 H   0  0  0  0  0  0  0  0  0  0  0  0
    0.3977   18.9604  -30.8302 H   0  0  0  0  0  0  0  0  0  0  0  0
   -1.0833   19.1904  -32.8183 H   0  0  0  0  0  0  0  0  0  0  0  0
   -4.0876   20.0224  -34.6019 H   0  0  0  0  0  0  0  0  0  0  0  0
   -3.7065   19.0384  -33.1264 H   0  0  0  0  0  0  0  0  0  0  0  0
   -5.0258   22.4110  -32.7696 H   0  0  0  0  0  0  0  0  0  0  0  0
   -7.4206   23.5366  -30.7925 H   0  0  0  0  0  0  0  0  0  0  0  0
   -6.6132   24.0322  -32.3186 H   0  0  0  0  0  0  0  0  0  0  0  0
   -8.3636   23.6287  -32.3186 H   0  0  0  0  0  0  0  0  0  0  0  0
   -9.4142   21.2316  -30.4220 H   0  0  0  0  0  0  0  0  0  0  0  0
   -9.7167   22.2185  -31.8921 H   0  0  0  0  0  0  0  0  0  0  0  0
  -10.1050   20.4647  -31.8921 H   0  0  0  0  0  0  0  0  0  0  0  0
   -8.4085   18.7975  -32.1509 H   0  0  0  0  0  0  0  0  0  0  0  0
   -7.6000   17.5755  -34.5123 H   0  0  0  0  0  0  0  0  0  0  0  0
   -7.0641   15.1611  -34.8720 H   0  0  0  0  0  0  0  0  0  0  0  0
   -5.1065   13.2120  -32.5640 H   0  0  0  0  0  0  0  0  0  0  0  0
   -6.0192   13.2058  -34.1111 H   0  0  0  0  0  0  0  0  0  0  0  0
   -4.2539   13.5382  -34.1111 H   0  0  0  0  0  0  0  0  0  0  0  0
   -3.9517   15.4574  -31.8797 H   0  0  0  0  0  0  0  0  0  0  0  0
  1  2  1  0
  2  3  1  0
  3  4  2  0
  3  5  1  0
  5  6  2  0
  6  7  1  0
  7  8  2  0
  8  9  1  0
  9 10  2  0
 10 11  1  0
 11 12  2  0
 12 13  1  0
 13 14  1  0
 14 15  1  0
 15 16  2  0
 16 17  1  0
 17 18  1  0
 17 19  2  0
 19 20  1  0
 19 21  1  0
 21 22  2  0
 22 23  1  0
 23 24  2  0
 24 25  1  0
 25 26  2  0
 26 27  1  0
 26 28  1  0
 28 29  2  0
 12 30  1  0
 30 31  2  0
 31  5  1  0
 30  8  1  0
 22 15  1  0
 29 23  1  0
  1 32  1  0
  1 33  1  0
  1 34  1  0
  2 35  1  0
  6 36  1  0
  7 37  1  0
  9 38  1  0
 10 39  1  0
 11 40  1  0
 14 41  1  0
 14 42  1  0
 16 43  1  0
 18 44  1  0
 18 45  1  0
 18 46  1  0
 20 47  1  0
 20 48  1  0
 20 49  1  0
 21 50  1  0
 24 51  1  0
 25 52  1  0
 27 53  1  0
 27 54  1  0
 27 55  1  0
 28 56  1  0
M  END
>  <UniqueID>  (4) 
3

>  <SMILES>  (4) 
CNC(=O)c1ccc2cccc(OCc3cc(C)c(C)cc3-c3ccc(C)cn3)c2n1

>  <Energy>  (4) 
62.89786739165588

>  <Genealogy>  (4) 
CNC(=O)c1ccc2cccc(OCc3cc(C)c(C)cc3-c3ccc(C)cn3)c2n1 (3D coordinates assigned)
CNC(=O)c1ccc2cccc(OCc3cc(C)c(C)cc3-c3ccc(C)cn3)c2n1 (optimized conformer: 62.89786739165588 kcal/mol)

>  <smiles>  (4) 
CNC(=O)c1ccc2cccc(OCc3cc(C)c(C)cc3-c3ccc(C)cn3)c2n1

>  <score_type>  (4) 
oracle

>  <origin>  (4) 
adgpu

>  <m_score__min__energy>  (4) 
-10.25

>  <m_primary>  (4) 
energy

$$$$
4:0
     RDKit          3D

 60 63  0  0  0  0  0  0  0  0999 V2000
   -3.8900   25.1320  -30.6040 O   0  0  0  0  0  0  0  0  0  0  0  0
   -3.5050   23.9560  -30.8460 C   0  0  0  0  0  0  0  0  0  0  0  0
   -4.1670   23.1650  -31.8430 N   0  0  0  0  0  0  0  0  0  0  0  0
   -5.5530   22.7960  -31.8630 C   0  0  0  0  0  0  0  0  0  0  0  0
   -6.5830   23.7490  -31.7690 C   0  0  0  0  0  0  0  0  0  0  0  0
   -7.9200   23.3440  -31.8070 C   0  0  0  0  0  0  0  0  0  0  0  0
   -8.2410   21.9930  -31.9530 C   0  0  0  0  0  0  0  0  0  0  0  0
   -7.2240   21.0390  -32.0800 C   0  0  0  0  0  0  0  0  0  0  0  0
   -7.6320   19.3330  -32.2540 S   0  0  0  0  0  0  0  0  0  0  0  0
   -8.8230   19.1870  -33.1610 O   0  0  0  0  0  0  0  0  0  0  0  0
   -7.9910   18.7790  -30.9030 O   0  0  0  0  0  0  0  0  0  0  0  0
   -6.2660   18.4580  -32.9000 N   0  0  0  0  0  0  0  0  0  0  0  0
   -6.1040   18.7610  -34.3330 C   0  0  0  0  0  0  0  0  0  0  0  0
   -5.1250   17.7740  -35.0000 C   0  0  0  0  0  0  0  0  0  0  0  0
   -4.3860   17.0620  -34.0280 O   0  0  0  0  0  0  0  0  0  0  0  0
   -5.2560   16.2350  -33.2750 C   0  0  0  0  0  0  0  0  0  0  0  0
   -6.4600   17.0140  -32.7020 C   0  0  0  0  0  0  0  0  0  0  0  0
   -5.8820   21.4450  -32.0380 C   0  0  0  0  0  0  0  0  0  0  0  0
   -2.3540   23.4010  -30.1050 C   0  0  0  0  0  0  0  0  0  0  0  0
   -1.8810   22.1250  -30.4590 C   0  0  0  0  0  0  0  0  0  0  0  0
   -0.8500   21.5140  -29.7350 C   0  0  0  0  0  0  0  0  0  0  0  0
   -0.2980   19.8940  -30.1670 S   0  0  0  0  0  0  0  0  0  0  0  0
    1.1940   19.8160  -29.9940 O   0  0  0  0  0  0  0  0  0  0  0  0
   -0.9260   18.8930  -29.2380 O   0  0  0  0  0  0  0  0  0  0  0  0
   -0.7170   19.4920  -31.8170 N   0  0  0  0  0  0  0  0  0  0  0  0
   -2.1730   19.2480  -31.9680 C   0  0  0  0  0  0  0  0  0  0  0  0
   -2.9120   20.4240  -32.6240 C   0  0  0  0  0  0  0  0  0  0  0  0
   -2.3360   20.7370  -34.0150 C   0  0  0  0  0  0  0  0  0  0  0  0
   -0.8330   20.4210  -34.1220 C   0  0  0  0  0  0  0  0  0  0  0  0
   -0.1550   20.4940  -32.7500 C   0  0  0  0  0  0  0  0  0  0  0  0
   -0.2720   22.1900  -28.6540 C   0  0  0  0  0  0  0  0  0  0  0  0
   -0.7160   23.4660  -28.3060 C   0  0  0  0  0  0  0  0  0  0  0  0
   -1.7380   24.0890  -29.0300 C   0  0  0  0  0  0  0  0  0  0  0  0
   -2.0840   25.3960  -28.6790 O   0  0  0  0  0  0  0  0  0  0  0  0
   -6.3356   24.8158  -31.6653 H   0  0  0  0  0  0  0  0  0  0  0  0
   -8.7220   24.0920  -31.7216 H   0  0  0  0  0  0  0  0  0  0  0  0
   -9.2947   21.6776  -31.9683 H   0  0  0  0  0  0  0  0  0  0  0  0
   -7.0830   18.6870  -34.8291 H   0  0  0  0  0  0  0  0  0  0  0  0
   -5.6973   19.7783  -34.4320 H   0  0  0  0  0  0  0  0  0  0  0  0
   -5.6950   17.0604  -35.6131 H   0  0  0  0  0  0  0  0  0  0  0  0
   -4.4235   18.3443  -35.6266 H   0  0  0  0  0  0  0  0  0  0  0  0
   -5.6323   15.4325  -33.9265 H   0  0  0  0  0  0  0  0  0  0  0  0
   -4.6838   15.8310  -32.4269 H   0  0  0  0  0  0  0  0  0  0  0  0
   -7.3782   16.6959  -33.2175 H   0  0  0  0  0  0  0  0  0  0  0  0
   -6.5450   16.8058  -31.6252 H   0  0  0  0  0  0  0  0  0  0  0  0
   -5.0819   20.6975  -32.1432 H   0  0  0  0  0  0  0  0  0  0  0  0
   -2.3270   21.5997  -31.3164 H   0  0  0  0  0  0  0  0  0  0  0  0
   -2.3160   18.3525  -32.5907 H   0  0  0  0  0  0  0  0  0  0  0  0
   -2.5917   19.1168  -30.9593 H   0  0  0  0  0  0  0  0  0  0  0  0
   -3.9766   20.1666  -32.7262 H   0  0  0  0  0  0  0  0  0  0  0  0
   -2.7869   21.3124  -31.9875 H   0  0  0  0  0  0  0  0  0  0  0  0
   -2.8756   20.1367  -34.7623 H   0  0  0  0  0  0  0  0  0  0  0  0
   -2.4615   21.8156  -34.1910 H   0  0  0  0  0  0  0  0  0  0  0  0
   -0.7072   19.4078  -34.5315 H   0  0  0  0  0  0  0  0  0  0  0  0
   -0.3655   21.1659  -34.7828 H   0  0  0  0  0  0  0  0  0  0  0  0
    0.9218   20.3052  -32.8722 H   0  0  0  0  0  0  0  0  0  0  0  0
   -0.3300   21.4954  -32.3298 H   0  0  0  0  0  0  0  0  0  0  0  0
    0.5346   21.7138  -28.0773 H   0  0  0  0  0  0  0  0  0  0  0  0
   -0.2575   23.9878  -27.4531 H   0  0  0  0  0  0  0  0  0  0  0  0
   -2.5060   26.0510  -29.3230 H   0  0  0  0  0  0  0  0  0  0  0  0
  1  2  2  0
  2  3  1  0
  3  4  1  0
  4  5  2  0
  5  6  1  0
  6  7  2  0
  7  8  1  0
  8  9  1  0
  9 10  2  0
  9 11  2  0
  9 12  1  0
 12 13  1  0
 13 14  1  0
 14 15  1  0
 15 16  1  0
 16 17  1  0
  8 18  2  0
  2 19  1  0
 19 20  2  0
 20 21  1  0
 21 22  1  0
 22 23  2  0
 22 24  2  0
 22 25  1  0
 25 26  1  0
 26 27  1  0
 27 28  1  0
 28 29  1  0
 29 30  1  0
 21 31  2  0
 31 32  1  0
 32 33  2  0
 33 34  1  0
 18  4  1  0
 33 19  1  0
 17 12  1  0
 30 25  1  0
  5 35  1  0
  6 36  1  0
  7 37  1  0
 13 38  1  0
 13 39  1  0
 14 40  1  0
 14 41  1  0
 16 42  1  0
 16 43  1  0
 17 44  1  0
 17 45  1  0
 18 46  1  0
 20 47  1  0
 26 48  1  0
 26 49  1  0
 27 50  1  0
 27 51  1  0
 28 52  1  0
 28 53  1  0
 29 54  1  0
 29 55  1  0
 30 56  1  0
 30 57  1  0
 31 58  1  0
 32 59  1  0
 34 60  1  0
M  CHG  1   3  -1
M  END
>  <UniqueID>  (5) 
4

>  <SMILES>  (5) 
O=C([N-]c1cccc(S(=O)(=O)N2CCOCC2)c1)c1cc(S(=O)(=O)N2CCCCC2)ccc1O

>  <Energy>  (5) 
82.88005779460224

>  <Genealogy>  (5) 
O=C([N-]c1cccc(S(=O)(=O)N2CCOCC2)c1)c1cc(S(=O)(=O)N2CCCCC2)ccc1O (protonated)
O=C([N-]c1cccc(S(=O)(=O)N2CCOCC2)c1)c1cc(S(=O)(=O)N2CCCCC2)ccc1O (3D coordinates assigned)
O=C([N-]c1cccc(S(=O)(=O)N2CCOCC2)c1)c1cc(S(=O)(=O)N2CCCCC2)ccc1O (nonaromatic ring conformer: 82.88005779460224 kcal/mol)

>  <smiles>  (5) 
O=C(Nc1cccc(S(=O)(=O)N2CCOCC2)c1)c1cc(S(=O)(=O)N2CCCCC2)ccc1O

>  <score_type>  (5) 
oracle

>  <origin>  (5) 
adgpu

>  <m_score__min__energy>  (5) 
-11.92

>  <m_primary>  (5) 
energy

$$$$
5:0
     RDKit          3D

 60 63  0  0  0  0  0  0  0  0999 V2000
   -1.2280   24.2760  -25.0840 C   0  0  0  0  0  0  0  0  0  0  0  0
   -0.7800   25.5770  -24.4980 C   0  0  0  0  0  0  0  0  0  0  0  0
   -1.6210   26.5230  -24.0370 N   0  0  0  0  0  0  0  0  0  0  0  0
   -0.8850   27.5130  -23.6110 O   0  0  0  0  0  0  0  0  0  0  0  0
    0.3960   27.2650  -23.7780 C   0  0  0  0  0  0  0  0  0  0  0  0
    1.4830   28.2170  -23.3930 C   0  0  0  0  0  0  0  0  0  0  0  0
    0.5240   26.0100  -24.3470 C   0  0  0  0  0  0  0  0  0  0  0  0
    1.9810   25.1600  -24.8630 S   0  0  0  0  0  0  0  0  0  0  0  0
    3.1750   25.9690  -24.4470 O   0  0  0  0  0  0  0  0  0  0  0  0
    2.0890   23.8020  -24.2280 O   0  0  0  0  0  0  0  0  0  0  0  0
    1.9860   25.0090  -26.5920 N   0  0  0  0  0  0  0  0  0  0  0  0
    0.8440   24.7370  -27.4140 C   0  0  0  0  0  0  0  0  0  0  0  0
   -0.1250   25.7120  -27.7020 C   0  0  0  0  0  0  0  0  0  0  0  0
   -1.2250   25.4010  -28.5040 C   0  0  0  0  0  0  0  0  0  0  0  0
   -1.3770   24.1100  -29.0390 C   0  0  0  0  0  0  0  0  0  0  0  0
   -2.5220   23.8040  -29.9330 C   0  0  0  0  0  0  0  0  0  0  0  0
   -2.3580   23.0050  -30.8940 O   0  0  0  0  0  0  0  0  0  0  0  0
   -3.8110   24.4100  -29.7130 N   0  0  0  0  0  0  0  0  0  0  0  0
   -5.0600   23.8450  -30.1520 C   0  0  0  0  0  0  0  0  0  0  0  0
   -5.7850   22.9410  -29.3510 C   0  0  0  0  0  0  0  0  0  0  0  0
   -6.9930   22.4100  -29.8080 C   0  0  0  0  0  0  0  0  0  0  0  0
   -7.5120   22.7940  -31.0530 C   0  0  0  0  0  0  0  0  0  0  0  0
   -9.0000   22.0640  -31.6580 S   0  0  0  0  0  0  0  0  0  0  0  0
   -9.8160   21.5660  -30.4980 O   0  0  0  0  0  0  0  0  0  0  0  0
   -9.8050   23.1120  -32.3750 O   0  0  0  0  0  0  0  0  0  0  0  0
   -8.6730   20.7210  -32.7330 N   0  0  0  0  0  0  0  0  0  0  0  0
   -7.2210   20.5140  -32.9410 C   0  0  0  0  0  0  0  0  0  0  0  0
   -6.8290   19.0360  -33.0230 C   0  0  0  0  0  0  0  0  0  0  0  0
   -7.2580   18.3270  -31.7410 C   0  0  0  0  0  0  0  0  0  0  0  0
   -8.7430   18.5590  -31.4100 C   0  0  0  0  0  0  0  0  0  0  0  0
   -9.4600   19.5180  -32.3820 C   0  0  0  0  0  0  0  0  0  0  0  0
   -6.8190   23.7330  -31.8290 C   0  0  0  0  0  0  0  0  0  0  0  0
   -5.6000   24.2500  -31.3840 C   0  0  0  0  0  0  0  0  0  0  0  0
   -0.4070   23.1350  -28.7430 C   0  0  0  0  0  0  0  0  0  0  0  0
    0.6880   23.4460  -27.9340 C   0  0  0  0  0  0  0  0  0  0  0  0
   -1.4701   23.5728  -24.2735 H   0  0  0  0  0  0  0  0  0  0  0  0
   -2.1209   24.4416  -25.7048 H   0  0  0  0  0  0  0  0  0  0  0  0
   -0.4225   23.8567  -25.7048 H   0  0  0  0  0  0  0  0  0  0  0  0
    1.5487   28.2745  -22.2965 H   0  0  0  0  0  0  0  0  0  0  0  0
    2.4417   27.8627  -23.7997 H   0  0  0  0  0  0  0  0  0  0  0  0
    1.2582   29.2140  -23.7997 H   0  0  0  0  0  0  0  0  0  0  0  0
   -0.0167   26.7274  -27.2931 H   0  0  0  0  0  0  0  0  0  0  0  0
   -1.9789   26.1727  -28.7189 H   0  0  0  0  0  0  0  0  0  0  0  0
   -3.8300   25.3760  -29.3100 H   0  0  0  0  0  0  0  0  0  0  0  0
   -5.3984   22.6525  -28.3624 H   0  0  0  0  0  0  0  0  0  0  0  0
   -7.5411   21.6858  -29.1874 H   0  0  0  0  0  0  0  0  0  0  0  0
   -6.9286   21.0061  -33.8803 H   0  0  0  0  0  0  0  0  0  0  0  0
   -6.7014   20.9427  -32.0714 H   0  0  0  0  0  0  0  0  0  0  0  0
   -7.3294   18.5707  -33.8850 H   0  0  0  0  0  0  0  0  0  0  0  0
   -5.7390   18.9506  -33.1436 H   0  0  0  0  0  0  0  0  0  0  0  0
   -7.0875   17.2469  -31.8608 H   0  0  0  0  0  0  0  0  0  0  0  0
   -6.6619   18.7403  -30.9140 H   0  0  0  0  0  0  0  0  0  0  0  0
   -9.2594   17.5882  -31.4381 H   0  0  0  0  0  0  0  0  0  0  0  0
   -8.7778   19.0287  -30.4159 H   0  0  0  0  0  0  0  0  0  0  0  0
   -9.6827   18.9683  -33.3084 H   0  0  0  0  0  0  0  0  0  0  0  0
  -10.3670   19.8704  -31.8691 H   0  0  0  0  0  0  0  0  0  0  0  0
   -7.2363   24.0639  -32.7915 H   0  0  0  0  0  0  0  0  0  0  0  0
   -5.0585   24.9802  -32.0033 H   0  0  0  0  0  0  0  0  0  0  0  0
   -0.5119   22.1193  -29.1522 H   0  0  0  0  0  0  0  0  0  0  0  0
    1.4338   22.6710  -27.7034 H   0  0  0  0  0  0  0  0  0  0  0  0
  1  2  1  0
  2  3  2  0
  3  4  1  0
  4  5  1  0
  5  6  1  0
  5  7  2  0
  7  8  1  0
  8  9  2  0
  8 10  2  0
  8 11  1  0
 11 12  1  0
 12 13  2  0
 13 14  1  0
 14 15  2  0
 15 16  1  0
 16 17  2  0
 16 18  1  0
 18 19  1  0
 19 20  2  0
 20 21  1  0
 21 22  2  0
 22 23  1  0
 23 24  2  0
 23 25  2  0
 23 26  1  0
 26 27  1  0
 27 28  1  0
 28 29  1  0
 29 30  1  0
 30 31  1  0
 22 32  1  0
 32 33  2  0
 15 34  1  0
 34 35  2  0
  7  2  1  0
 35 12  1  0
 33 19  1  0
 31 26  1  0
  1 36  1  0
  1 37  1  0
  1 38  1  0
  6 39  1  0
  6 40  1  0
  6 41  1  0
 13 42  1  0
 14 43  1  0
 18 44  1  0
 20 45  1  0
 21 46  1  0
 27 47  1  0
 27 48  1  0
 28 49  1  0
 28 50  1  0
 29 51  1  0
 29 52  1  0
 30 53  1  0
 30 54  1  0
 31 55  1  0
 31 56  1  0
 32 57  1  0
 33 58  1  0
 34 59  1  0
 35 60  1  0
M  CHG  1  11  -1
M  END
>  <UniqueID>  (6) 
5

>  <SMILES>  (6) 
Cc1noc(C)c1S(=O)(=O)[N-]c1ccc(C(=O)Nc2ccc(S(=O)(=O)N3CCCCC3)cc2)cc1

>  <Energy>  (6) 
108.8135901805248

>  <Genealogy>  (6) 
Cc1noc(C)c1S(=O)(=O)[N-]c1ccc(C(=O)Nc2ccc(S(=O)(=O)N3CCCCC3)cc2)cc1 (protonated)
Cc1noc(C)c1S(=O)(=O)[N-]c1ccc(C(=O)Nc2ccc(S(=O)(=O)N3CCCCC3)cc2)cc1 (3D coordinates assigned)
Cc1noc(C)c1S(=O)(=O)[N-]c1ccc(C(=O)Nc2ccc(S(=O)(=O)N3CCCCC3)cc2)cc1 (nonaromatic ring conformer: 108.8135901805248 kcal/mol)

>  <smiles>  (6) 
Cc1noc(C)c1S(=O)(=O)Nc1ccc(C(=O)Nc2ccc(S(=O)(=O)N3CCCCC3)cc2)cc1

>  <score_type>  (6) 
oracle

>  <origin>  (6) 
adgpu

>  <m_score__min__energy>  (6) 
-9.9900000000000002

>  <m_primary>  (6) 
energy

$$$$
6:0
     RDKit          3D

 52 55  0  0  0  0  0  0  0  0999 V2000
   -8.7580   18.9390  -31.2860 C   0  0  0  0  0  0  0  0  0  0  0  0
   -7.3760   18.8360  -31.8710 C   0  0  0  0  0  0  0  0  0  0  0  0
   -6.8470   17.5850  -32.1960 C   0  0  0  0  0  0  0  0  0  0  0  0
   -5.6000   17.4940  -32.7200 N   0  0  0  0  0  0  0  0  0  0  0  0
   -4.8440   18.5710  -32.9570 N   0  0  0  0  0  0  0  0  0  0  0  0
   -3.5300   18.3650  -33.5110 C   0  0  0  0  0  0  0  0  0  0  0  0
   -2.4460   19.1340  -33.0530 C   0  0  0  0  0  0  0  0  0  0  0  0
   -1.1730   18.9550  -33.6010 C   0  0  0  0  0  0  0  0  0  0  0  0
   -0.9720   18.0170  -34.6170 C   0  0  0  0  0  0  0  0  0  0  0  0
   -2.0460   17.2600  -35.0910 C   0  0  0  0  0  0  0  0  0  0  0  0
   -3.3220   17.4340  -34.5460 C   0  0  0  0  0  0  0  0  0  0  0  0
   -5.3290   19.8270  -32.6980 C   0  0  0  0  0  0  0  0  0  0  0  0
   -4.6560   20.8490  -33.0090 O   0  0  0  0  0  0  0  0  0  0  0  0
   -6.6020   19.9800  -32.1200 C   0  0  0  0  0  0  0  0  0  0  0  0
   -7.1300   21.2900  -31.8420 N   0  0  0  0  0  0  0  0  0  0  0  0
   -6.3180   22.4210  -31.4830 C   0  0  0  0  0  0  0  0  0  0  0  0
   -6.6120   23.7140  -31.9520 C   0  0  0  0  0  0  0  0  0  0  0  0
   -5.7940   24.7920  -31.6070 C   0  0  0  0  0  0  0  0  0  0  0  0
   -4.6690   24.5970  -30.8010 C   0  0  0  0  0  0  0  0  0  0  0  0
   -3.8670   25.6860  -30.4870 O   0  0  0  0  0  0  0  0  0  0  0  0
   -4.3600   23.3070  -30.3280 C   0  0  0  0  0  0  0  0  0  0  0  0
   -2.9320   23.0010  -29.3290 S   0  0  0  0  0  0  0  0  0  0  0  0
   -3.2840   23.2840  -27.8940 O   0  0  0  0  0  0  0  0  0  0  0  0
   -1.8030   23.9120  -29.7260 O   0  0  0  0  0  0  0  0  0  0  0  0
   -2.4410   21.3320  -29.4870 N   0  0  0  0  0  0  0  0  0  0  0  0
   -0.9760   21.2490  -29.6330 C   0  0  0  0  0  0  0  0  0  0  0  0
   -0.4790   19.8350  -29.2910 C   0  0  0  0  0  0  0  0  0  0  0  0
   -0.7840   19.4110  -27.9660 O   0  0  0  0  0  0  0  0  0  0  0  0
   -1.8520   20.1320  -27.3670 C   0  0  0  0  0  0  0  0  0  0  0  0
   -2.9570   20.5150  -28.3660 C   0  0  0  0  0  0  0  0  0  0  0  0
   -5.1800   22.2280  -30.6850 C   0  0  0  0  0  0  0  0  0  0  0  0
   -8.6927   18.9341  -30.1880 H   0  0  0  0  0  0  0  0  0  0  0  0
   -9.2292   19.8748  -31.6211 H   0  0  0  0  0  0  0  0  0  0  0  0
   -9.3627   18.0834  -31.6211 H   0  0  0  0  0  0  0  0  0  0  0  0
   -7.4413   16.6749  -32.0271 H   0  0  0  0  0  0  0  0  0  0  0  0
   -2.6005   19.8801  -32.2596 H   0  0  0  0  0  0  0  0  0  0  0  0
   -0.3274   19.5538  -33.2317 H   0  0  0  0  0  0  0  0  0  0  0  0
    0.0319   17.8747  -35.0435 H   0  0  0  0  0  0  0  0  0  0  0  0
   -1.8877   16.5256  -35.8945 H   0  0  0  0  0  0  0  0  0  0  0  0
   -4.1663   16.8411  -34.9276 H   0  0  0  0  0  0  0  0  0  0  0  0
   -8.1680   21.4120  -31.8650 H   0  0  0  0  0  0  0  0  0  0  0  0
   -7.4905   23.8769  -32.5936 H   0  0  0  0  0  0  0  0  0  0  0  0
   -6.0367   25.8009  -31.9719 H   0  0  0  0  0  0  0  0  0  0  0  0
   -0.7018   21.4876  -30.6712 H   0  0  0  0  0  0  0  0  0  0  0  0
   -0.5089   21.9665  -28.9424 H   0  0  0  0  0  0  0  0  0  0  0  0
   -0.9424   19.1275  -29.9944 H   0  0  0  0  0  0  0  0  0  0  0  0
    0.6179   19.8592  -29.3693 H   0  0  0  0  0  0  0  0  0  0  0  0
   -2.2954   19.5085  -26.5767 H   0  0  0  0  0  0  0  0  0  0  0  0
   -1.4328   21.0672  -26.9674 H   0  0  0  0  0  0  0  0  0  0  0  0
   -3.4001   19.5944  -28.7737 H   0  0  0  0  0  0  0  0  0  0  0  0
   -3.7046   21.1159  -27.8274 H   0  0  0  0  0  0  0  0  0  0  0  0
   -4.9281   21.2161  -30.3349 H   0  0  0  0  0  0  0  0  0  0  0  0
  1  2  1  0
  2  3  1  0
  3  4  2  0
  4  5  1  0
  5  6  1  0
  6  7  2  0
  7  8  1  0
  8  9  2  0
  9 10  1  0
 10 11  2  0
  5 12  1  0
 12 13  2  0
 12 14  1  0
 14 15  1  0
 15 16  1  0
 16 17  2  0
 17 18  1  0
 18 19  2  0
 19 20  1  0
 19 21  1  0
 21 22  1  0
 22 23  2  0
 22 24  2  0
 22 25  1  0
 25 26  1  0
 26 27  1  0
 27 28  1  0
 28 29  1  0
 29 30  1  0
 21 31  2  0
 14  2  2  0
 31 16  1  0
 11  6  1  0
 30 25  1  0
  1 32  1  0
  1 33  1  0
  1 34  1  0
  3 35  1  0
  7 36  1  0
  8 37  1  0
  9 38  1  0
 10 39  1  0
 11 40  1  0
 15 41  1  0
 17 42  1  0
 18 43  1  0
 26 44  1  0
 26 45  1  0
 27 46  1  0
 27 47  1  0
 29 48  1  0
 29 49  1  0
 30 50  1  0
 30 51  1  0
 31 52  1  0
M  CHG  1  20  -1
M  END
>  <UniqueID>  (7) 
6

>  <SMILES>  (7) 
Cc1cnn(-c2ccccc2)c(=O)c1Nc1ccc([O-])c(S(=O)(=O)N2CCOCC2)c1

>  <Energy>  (7) 
83.76963402026675

>  <Genealogy>  (7) 
Cc1cnn(-c2ccccc2)c(=O)c1Nc1ccc([O-])c(S(=O)(=O)N2CCOCC2)c1 (protonated)
Cc1cnn(-c2ccccc2)c(=O)c1Nc1ccc([O-])c(S(=O)(=O)N2CCOCC2)c1 (3D coordinates assigned)
Cc1cnn(-c2ccccc2)c(=O)c1Nc1ccc([O-])c(S(=O)(=O)N2CCOCC2)c1 (nonaromatic ring conformer: 83.76963402026675 kcal/mol)

>  <smiles>  (7) 
Cc1cnn(-c2ccccc2)c(=O)c1Nc1ccc(O)c(S(=O)(=O)N2CCOCC2)c1

>  <score_type>  (7) 
oracle

>  <origin>  (7) 
adgpu

>  <m_score__min__energy>  (7) 
-13.279999999999999

>  <m_primary>  (7) 
energy

$$$$
7:0
     RDKit          3D

 50 53  0  0  0  0  0  0  0  0999 V2000
   -3.2030   17.0430  -35.4000 H   0  0  0  0  0  0  0  0  0  0  0  0
   -4.1220   16.8160  -35.0410 O   0  0  0  0  0  0  0  0  0  0  0  0
   -4.8130   17.6950  -34.2070 C   0  0  0  0  0  0  0  0  0  0  0  0
   -6.0910   17.3650  -33.7370 C   0  0  0  0  0  0  0  0  0  0  0  0
   -6.5443   16.4028  -34.0175 H   0  0  0  0  0  0  0  0  0  0  0  0
   -6.7960   18.2520  -32.9120 C   0  0  0  0  0  0  0  0  0  0  0  0
   -6.2060   19.4690  -32.5370 C   0  0  0  0  0  0  0  0  0  0  0  0
   -4.9180   19.7900  -32.9830 C   0  0  0  0  0  0  0  0  0  0  0  0
   -4.4523   20.7372  -32.6733 H   0  0  0  0  0  0  0  0  0  0  0  0
   -4.2160   18.9080  -33.8250 C   0  0  0  0  0  0  0  0  0  0  0  0
   -2.8950   19.2090  -34.2970 N   0  0  0  0  0  0  0  0  0  0  0  0
   -1.9440   20.5850  -33.8340 S   0  0  0  0  0  0  0  0  0  0  0  0
   -2.8250   21.8010  -33.8000 O   0  0  0  0  0  0  0  0  0  0  0  0
   -0.8770   20.8040  -34.8680 O   0  0  0  0  0  0  0  0  0  0  0  0
   -1.1540   20.3250  -32.2700 C   0  0  0  0  0  0  0  0  0  0  0  0
   -0.0600   19.5180  -31.9900 C   0  0  0  0  0  0  0  0  0  0  0  0
    0.7810   18.7540  -32.9620 C   0  0  0  0  0  0  0  0  0  0  0  0
    1.4862   18.1133  -32.4123 H   0  0  0  0  0  0  0  0  0  0  0  0
    0.1338   18.1285  -33.5944 H   0  0  0  0  0  0  0  0  0  0  0  0
    1.3416   19.4581  -33.5944 H   0  0  0  0  0  0  0  0  0  0  0  0
    0.0970   19.4230  -30.6540 N   0  0  0  0  0  0  0  0  0  0  0  0
   -0.8560   20.1170  -30.1060 O   0  0  0  0  0  0  0  0  0  0  0  0
   -1.6300   20.6680  -31.0120 C   0  0  0  0  0  0  0  0  0  0  0  0
   -2.8280   21.4500  -30.6690 C   0  0  0  0  0  0  0  0  0  0  0  0
   -3.5974   20.9936  -30.0289 H   0  0  0  0  0  0  0  0  0  0  0  0
   -3.0100   22.6970  -31.1110 C   0  0  0  0  0  0  0  0  0  0  0  0
   -2.2145   23.1599  -31.7134 H   0  0  0  0  0  0  0  0  0  0  0  0
   -4.2290   23.4860  -30.8300 C   0  0  0  0  0  0  0  0  0  0  0  0
   -5.4620   22.9910  -31.2940 C   0  0  0  0  0  0  0  0  0  0  0  0
   -5.4966   22.0355  -31.8380 H   0  0  0  0  0  0  0  0  0  0  0  0
   -6.6430   23.7040  -31.0690 C   0  0  0  0  0  0  0  0  0  0  0  0
   -7.6025   23.3047  -31.4295 H   0  0  0  0  0  0  0  0  0  0  0  0
   -6.6070   24.9230  -30.3870 C   0  0  0  0  0  0  0  0  0  0  0  0
   -7.5382   25.4802  -30.2069 H   0  0  0  0  0  0  0  0  0  0  0  0
   -5.3860   25.4350  -29.9330 C   0  0  0  0  0  0  0  0  0  0  0  0
   -5.3610   26.3934  -29.3937 H   0  0  0  0  0  0  0  0  0  0  0  0
   -4.1960   24.7330  -30.1620 C   0  0  0  0  0  0  0  0  0  0  0  0
   -2.9950   25.2980  -29.7550 O   0  0  0  0  0  0  0  0  0  0  0  0
   -6.9860   20.4160  -31.6630 C   0  0  0  0  0  0  0  0  0  0  0  0
   -6.5398   21.4199  -31.7189 H   0  0  0  0  0  0  0  0  0  0  0  0
   -6.9595   20.0634  -30.6214 H   0  0  0  0  0  0  0  0  0  0  0  0
   -8.4390   20.4730  -32.1500 C   0  0  0  0  0  0  0  0  0  0  0  0
   -8.4546   20.9287  -33.1511 H   0  0  0  0  0  0  0  0  0  0  0  0
   -9.0063   21.0658  -31.4173 H   0  0  0  0  0  0  0  0  0  0  0  0
   -9.1100   19.0790  -32.2330 C   0  0  0  0  0  0  0  0  0  0  0  0
   -9.7624   19.0691  -33.1186 H   0  0  0  0  0  0  0  0  0  0  0  0
   -9.6492   18.9464  -31.2834 H   0  0  0  0  0  0  0  0  0  0  0  0
   -8.1400   17.8780  -32.3420 C   0  0  0  0  0  0  0  0  0  0  0  0
   -8.5965   17.1175  -32.9925 H   0  0  0  0  0  0  0  0  0  0  0  0
   -7.9700   17.5008  -31.3228 H   0  0  0  0  0  0  0  0  0  0  0  0
  1  2  1  0
  2  3  1  0
  3  4  2  0
  4  5  1  0
  4  6  1  0
  6  7  2  0
  7  8  1  0
  8  9  1  0
  8 10  2  0
 10 11  1  0
 11 12  1  0
 12 13  2  0
 12 14  2  0
 12 15  1  0
 15 16  1  0
 16 17  1  0
 17 18  1  0
 17 19  1  0
 17 20  1  0
 16 21  2  0
 21 22  1  0
 22 23  1  0
 23 24  1  0
 24 25  1  0
 24 26  2  0
 26 27  1  0
 26 28  1  0
 28 29  2  0
 29 30  1  0
 29 31  1  0
 31 32  1  0
 31 33  2  0
 33 34  1  0
 33 35  1  0
 35 36  1  0
 35 37  2  0
 37 38  1  0
  7 39  1  0
 39 40  1  0
 39 41  1  0
 39 42  1  0
 42 43  1  0
 42 44  1  0
 42 45  1  0
 45 46  1  0
 45 47  1  0
 45 48  1  0
 48 49  1  0
 48 50  1  0
 10  3  1  0
 23 15  2  0
 37 28  1  0
 48  6  1  0
M  CHG  2  11  -1  38  -1
M  END
>  <UniqueID>  (8) 
7

>  <SMILES>  (8) 
Cc1noc(/C=C/c2ccccc2[O-])c1S(=O)(=O)[N-]c1cc2c(cc1O)CCCC2

>  <Energy>  (8) 
100.32356266985933

>  <Genealogy>  (8) 
Cc1noc(C=Cc2ccccc2[O-])c1S(=O)(=O)[N-]c1cc2c(cc1O)CCCC2 (protonated)
Cc1noc(/C=C/c2ccccc2[O-])c1S(=O)(=O)[N-]c1cc2c(cc1O)CCCC2 (cis-trans isomerization)
Cc1noc(/C=C/c2ccccc2[O-])c1S(=O)(=O)[N-]c1cc2c(cc1O)CCCC2 (3D coordinates assigned)
Cc1noc(/C=C/c2ccccc2[O-])c1S(=O)(=O)[N-]c1cc2c(cc1O)CCCC2 (nonaromatic ring conformer: 100.32356266985933 kcal/mol)

>  <smiles>  (8) 
Cc1noc(C=Cc2ccccc2O)c1S(=O)(=O)Nc1cc2c(cc1O)CCCC2

>  <score_type>  (8) 
oracle

>  <origin>  (8) 
adgpu

>  <m_score__min__energy>  (8) 
-12.5

>  <m_primary>  (8) 
energy

$$$$
8:0
     RDKit          3D

 65 68  0  0  0  0  0  0  0  0999 V2000
   -6.1160   25.6930  -29.1610 C   0  0  0  0  0  0  0  0  0  0  0  0
   -5.9800   24.5560  -30.1380 C   0  0  0  0  0  0  0  0  0  0  0  0
   -7.1240   23.8200  -30.4910 C   0  0  0  0  0  0  0  0  0  0  0  0
   -7.0310   22.7370  -31.3740 C   0  0  0  0  0  0  0  0  0  0  0  0
   -8.4750   21.8180  -31.7920 S   0  0  0  0  0  0  0  0  0  0  0  0
   -9.0140   21.1880  -30.5370 O   0  0  0  0  0  0  0  0  0  0  0  0
   -9.5220   22.7500  -32.3340 O   0  0  0  0  0  0  0  0  0  0  0  0
   -8.0740   20.5650  -32.9490 N   0  0  0  0  0  0  0  0  0  0  0  0
   -9.1180   19.5280  -33.0720 C   0  0  0  0  0  0  0  0  0  0  0  0
   -9.1010   18.5190  -31.9150 C   0  0  0  0  0  0  0  0  0  0  0  0
   -7.7110   17.9070  -31.7530 C   0  0  0  0  0  0  0  0  0  0  0  0
   -6.6540   18.9980  -31.5900 C   0  0  0  0  0  0  0  0  0  0  0  0
   -6.7230   20.0080  -32.7470 C   0  0  0  0  0  0  0  0  0  0  0  0
   -5.7840   22.3770  -31.8990 C   0  0  0  0  0  0  0  0  0  0  0  0
   -4.6440   23.1100  -31.5670 C   0  0  0  0  0  0  0  0  0  0  0  0
   -4.7350   24.2190  -30.7180 C   0  0  0  0  0  0  0  0  0  0  0  0
   -3.5440   24.9620  -30.4340 N   0  0  0  0  0  0  0  0  0  0  0  0
   -2.6390   24.6300  -29.3780 C   0  0  0  0  0  0  0  0  0  0  0  0
   -2.9560   24.8500  -28.1770 O   0  0  0  0  0  0  0  0  0  0  0  0
   -1.3810   24.0260  -29.7020 N   0  0  0  0  0  0  0  0  0  0  0  0
   -1.1740   22.6510  -30.0570 C   0  0  0  0  0  0  0  0  0  0  0  0
   -0.3620   21.7990  -29.2850 C   0  0  0  0  0  0  0  0  0  0  0  0
   -0.1630   20.4740  -29.6760 C   0  0  0  0  0  0  0  0  0  0  0  0
   -0.7560   19.9900  -30.8430 C   0  0  0  0  0  0  0  0  0  0  0  0
   -1.5500   20.8330  -31.6320 C   0  0  0  0  0  0  0  0  0  0  0  0
   -2.2850   20.2260  -33.1180 S   0  0  0  0  0  0  0  0  0  0  0  0
   -3.5020   21.0470  -33.4430 O   0  0  0  0  0  0  0  0  0  0  0  0
   -2.7280   18.8040  -32.9050 O   0  0  0  0  0  0  0  0  0  0  0  0
   -1.1720   20.2900  -34.4620 N   0  0  0  0  0  0  0  0  0  0  0  0
   -0.2840   19.1160  -34.4540 C   0  0  0  0  0  0  0  0  0  0  0  0
    0.5120   19.0420  -35.7720 C   0  0  0  0  0  0  0  0  0  0  0  0
    0.6530   20.4140  -36.4530 C   0  0  0  0  0  0  0  0  0  0  0  0
    0.7940   21.5320  -35.4160 C   0  0  0  0  0  0  0  0  0  0  0  0
   -0.3900   21.5440  -34.4210 C   0  0  0  0  0  0  0  0  0  0  0  0
   -1.7460   22.1650  -31.2400 C   0  0  0  0  0  0  0  0  0  0  0  0
   -6.0692   25.3016  -28.1341 H   0  0  0  0  0  0  0  0  0  0  0  0
   -5.2973   26.4108  -29.3175 H   0  0  0  0  0  0  0  0  0  0  0  0
   -7.0809   26.1975  -29.3175 H   0  0  0  0  0  0  0  0  0  0  0  0
   -8.1016   24.0972  -30.0698 H   0  0  0  0  0  0  0  0  0  0  0  0
  -10.1011   20.0211  -33.0926 H   0  0  0  0  0  0  0  0  0  0  0  0
   -8.9191   18.9694  -33.9985 H   0  0  0  0  0  0  0  0  0  0  0  0
   -9.3801   19.0331  -30.9834 H   0  0  0  0  0  0  0  0  0  0  0  0
   -9.8180   17.7147  -32.1365 H   0  0  0  0  0  0  0  0  0  0  0  0
   -7.7028   17.2610  -30.8627 H   0  0  0  0  0  0  0  0  0  0  0  0
   -7.4766   17.3205  -32.6536 H   0  0  0  0  0  0  0  0  0  0  0  0
   -6.8255   19.5262  -30.6405 H   0  0  0  0  0  0  0  0  0  0  0  0
   -5.6600   18.5269  -31.5944 H   0  0  0  0  0  0  0  0  0  0  0  0
   -6.0317   20.8359  -32.5307 H   0  0  0  0  0  0  0  0  0  0  0  0
   -6.4483   19.4718  -33.6673 H   0  0  0  0  0  0  0  0  0  0  0  0
   -5.7027   21.5134  -32.5755 H   0  0  0  0  0  0  0  0  0  0  0  0
   -3.6665   22.8140  -31.9756 H   0  0  0  0  0  0  0  0  0  0  0  0
    0.1173   22.1786  -28.3706 H   0  0  0  0  0  0  0  0  0  0  0  0
    0.4630   19.8093  -29.0626 H   0  0  0  0  0  0  0  0  0  0  0  0
   -0.5996   18.9437  -31.1443 H   0  0  0  0  0  0  0  0  0  0  0  0
    0.4170   19.1963  -33.6101 H   0  0  0  0  0  0  0  0  0  0  0  0
   -0.8930   18.2058  -34.3508 H   0  0  0  0  0  0  0  0  0  0  0  0
    1.5170   18.6507  -35.5556 H   0  0  0  0  0  0  0  0  0  0  0  0
   -0.0394   18.3831  -36.4589 H   0  0  0  0  0  0  0  0  0  0  0  0
    1.5453   20.4059  -37.0962 H   0  0  0  0  0  0  0  0  0  0  0  0
   -0.2517   20.6027  -37.0496 H   0  0  0  0  0  0  0  0  0  0  0  0
    1.7287   21.3823  -34.8557 H   0  0  0  0  0  0  0  0  0  0  0  0
    0.8029   22.4942  -35.9491 H   0  0  0  0  0  0  0  0  0  0  0  0
    0.0048   21.6813  -33.4035 H   0  0  0  0  0  0  0  0  0  0  0  0
   -1.0607   22.3676  -34.7070 H   0  0  0  0  0  0  0  0  0  0  0  0
   -2.3540   22.8340  -31.8667 H   0  0  0  0  0  0  0  0  0  0  0  0
  1  2  1  0
  2  3  2  0
  3  4  1  0
  4  5  1  0
  5  6  2  0
  5  7  2  0
  5  8  1  0
  8  9  1  0
  9 10  1  0
 10 11  1  0
 11 12  1  0
 12 13  1  0
  4 14  2  0
 14 15  1  0
 15 16  2  0
 16 17  1  0
 17 18  1  0
 18 19  2  0
 18 20  1  0
 20 21  1  0
 21 22  2  0
 22 23  1  0
 23 24  2  0
 24 25  1  0
 25 26  1  0
 26 27  2  0
 26 28  2  0
 26 29  1  0
 29 30  1  0
 30 31  1  0
 31 32  1  0
 32 33  1  0
 33 34  1  0
 25 35  2  0
 16  2  1  0
 35 21  1  0
 13  8  1  0
 34 29  1  0
  1 36  1  0
  1 37  1  0
  1 38  1  0
  3 39  1  0
  9 40  1  0
  9 41  1  0
 10 42  1  0
 10 43  1  0
 11 44  1  0
 11 45  1  0
 12 46  1  0
 12 47  1  0
 13 48  1  0
 13 49  1  0
 14 50  1  0
 15 51  1  0
 22 52  1  0
 23 53  1  0
 24 54  1  0
 30 55  1  0
 30 56  1  0
 31 57  1  0
 31 58  1  0
 32 59  1  0
 32 60  1  0
 33 61  1  0
 33 62  1  0
 34 63  1  0
 34 64  1  0
 35 65  1  0
M  CHG  2  17  -1  20  -1
M  END
>  <UniqueID>  (9) 
8

>  <SMILES>  (9) 
Cc1cc(S(=O)(=O)N2CCCCC2)ccc1[N-]C(=O)[N-]c1cccc(S(=O)(=O)N2CCCCC2)c1

>  <Energy>  (9) 
78.76230645613964

>  <Genealogy>  (9) 
Cc1cc(S(=O)(=O)N2CCCCC2)ccc1[N-]C(=O)[N-]c1cccc(S(=O)(=O)N2CCCCC2)c1 (protonated)
Cc1cc(S(=O)(=O)N2CCCCC2)ccc1[N-]C(=O)[N-]c1cccc(S(=O)(=O)N2CCCCC2)c1 (3D coordinates assigned)
Cc1cc(S(=O)(=O)N2CCCCC2)ccc1[N-]C(=O)[N-]c1cccc(S(=O)(=O)N2CCCCC2)c1 (nonaromatic ring conformer: 78.76230645613964 kcal/mol)

>  <smiles>  (9) 
Cc1cc(S(=O)(=O)N2CCCCC2)ccc1NC(=O)Nc1cccc(S(=O)(=O)N2CCCCC2)c1

>  <score_type>  (9) 
oracle

>  <origin>  (9) 
adgpu

>  <m_score__min__energy>  (9) 
-13.24

>  <m_primary>  (9) 
energy

$$$$
9:0
     RDKit          3D

 46 48  0  0  0  0  0  0  0  0999 V2000
    0.8040   17.2130  -27.7770 C   0  0  0  0  0  0  0  0  0  0  0  0
   -0.4150   17.8760  -27.4540 O   0  0  0  0  0  0  0  0  0  0  0  0
   -0.8350   19.0900  -28.0190 C   0  0  0  0  0  0  0  0  0  0  0  0
   -0.3400   19.5480  -29.2560 C   0  0  0  0  0  0  0  0  0  0  0  0
   -0.7810   20.7610  -29.7870 C   0  0  0  0  0  0  0  0  0  0  0  0
   -1.7110   21.5430  -29.0900 C   0  0  0  0  0  0  0  0  0  0  0  0
   -2.2170   22.8310  -29.6810 C   0  0  0  0  0  0  0  0  0  0  0  0
   -2.8310   22.5890  -30.9870 N   0  0  0  0  0  0  0  0  0  0  0  0
   -4.2560   22.5990  -31.1920 C   0  0  0  0  0  0  0  0  0  0  0  0
   -4.9410   21.4000  -31.4660 C   0  0  0  0  0  0  0  0  0  0  0  0
   -6.3360   21.3790  -31.6090 C   0  0  0  0  0  0  0  0  0  0  0  0
   -7.0630   22.5860  -31.5150 C   0  0  0  0  0  0  0  0  0  0  0  0
   -6.3830   23.7780  -31.2360 C   0  0  0  0  0  0  0  0  0  0  0  0
   -4.9930   23.8000  -31.0900 C   0  0  0  0  0  0  0  0  0  0  0  0
   -4.3770   25.0330  -30.8700 O   0  0  0  0  0  0  0  0  0  0  0  0
   -8.5710   22.6110  -31.6020 C   0  0  0  0  0  0  0  0  0  0  0  0
   -9.1420   21.3660  -32.2890 C   0  0  0  0  0  0  0  0  0  0  0  0
   -8.5210   20.1010  -31.7000 C   0  0  0  0  0  0  0  0  0  0  0  0
   -7.0130   20.0750  -31.9640 C   0  0  0  0  0  0  0  0  0  0  0  0
   -2.2190   21.0830  -27.8670 C   0  0  0  0  0  0  0  0  0  0  0  0
   -1.7810   19.8600  -27.3230 C   0  0  0  0  0  0  0  0  0  0  0  0
   -2.2620   19.3730  -26.0970 O   0  0  0  0  0  0  0  0  0  0  0  0
   -3.4100   18.5440  -25.9530 C   0  0  0  0  0  0  0  0  0  0  0  0
    1.3243   16.9300  -26.8500 H   0  0  0  0  0  0  0  0  0  0  0  0
    0.5853   16.3095  -28.3652 H   0  0  0  0  0  0  0  0  0  0  0  0
    1.4436   17.8875  -28.3652 H   0  0  0  0  0  0  0  0  0  0  0  0
    0.3982   18.9462  -29.8064 H   0  0  0  0  0  0  0  0  0  0  0  0
   -0.3961   21.1049  -30.7584 H   0  0  0  0  0  0  0  0  0  0  0  0
   -2.9654   23.2702  -29.0049 H   0  0  0  0  0  0  0  0  0  0  0  0
   -1.3699   23.5211  -29.8084 H   0  0  0  0  0  0  0  0  0  0  0  0
   -2.2020   22.4690  -31.8130 H   0  0  0  0  0  0  0  0  0  0  0  0
   -4.3726   20.4640  -31.5697 H   0  0  0  0  0  0  0  0  0  0  0  0
   -6.9525   24.7131  -31.1299 H   0  0  0  0  0  0  0  0  0  0  0  0
   -4.1310   25.6750  -31.6110 H   0  0  0  0  0  0  0  0  0  0  0  0
   -8.9818   22.6710  -30.5833 H   0  0  0  0  0  0  0  0  0  0  0  0
   -8.8556   23.4851  -32.2061 H   0  0  0  0  0  0  0  0  0  0  0  0
  -10.2316   21.3378  -32.1407 H   0  0  0  0  0  0  0  0  0  0  0  0
   -8.9078   21.4119  -33.3628 H   0  0  0  0  0  0  0  0  0  0  0  0
   -8.6995   20.0808  -30.6148 H   0  0  0  0  0  0  0  0  0  0  0  0
   -8.9820   19.2223  -32.1748 H   0  0  0  0  0  0  0  0  0  0  0  0
   -6.5643   19.2705  -31.3628 H   0  0  0  0  0  0  0  0  0  0  0  0
   -6.8672   19.9075  -33.0413 H   0  0  0  0  0  0  0  0  0  0  0  0
   -2.9666   21.6828  -27.3273 H   0  0  0  0  0  0  0  0  0  0  0  0
   -3.6207   18.3919  -24.8841 H   0  0  0  0  0  0  0  0  0  0  0  0
   -4.2741   19.0279  -26.4318 H   0  0  0  0  0  0  0  0  0  0  0  0
   -3.2225   17.5716  -26.4318 H   0  0  0  0  0  0  0  0  0  0  0  0
  1  2  1  0
  2  3  1  0
  3  4  2  0
  4  5  1  0
  5  6  2  0
  6  7  1  0
  7  8  1  0
  8  9  1  0
  9 10  2  0
 10 11  1  0
 11 12  2  0
 12 13  1  0
 13 14  2  0
 14 15  1  0
 12 16  1  0
 16 17  1  0
 17 18  1  0
 18 19  1  0
  6 20  1  0
 20 21  2  0
 21 22  1  0
 22 23  1  0
 21  3  1  0
 14  9  1  0
 19 11  1  0
  1 24  1  0
  1 25  1  0
  1 26  1  0
  4 27  1  0
  5 28  1  0
  7 29  1  0
  7 30  1  0
  8 31  1  0
 10 32  1  0
 13 33  1  0
 15 34  1  0
 16 35  1  0
 16 36  1  0
 17 37  1  0
 17 38  1  0
 18 39  1  0
 18 40  1  0
 19 41  1  0
 19 42  1  0
 20 43  1  0
 23 44  1  0
 23 45  1  0
 23 46  1  0
M  END
>  <UniqueID>  (10) 
9

>  <SMILES>  (10) 
COc1ccc(CNc2cc3c(cc2O)CCCC3)cc1OC

>  <Energy>  (10) 
47.73396674101439

>  <Genealogy>  (10) 
COc1ccc(CNc2cc3c(cc2O)CCCC3)cc1OC (3D coordinates assigned)
COc1ccc(CNc2cc3c(cc2O)CCCC3)cc1OC (nonaromatic ring conformer: 47.73396674101439 kcal/mol)

>  <smiles>  (10) 
COc1ccc(CNc2cc3c(cc2O)CCCC3)cc1OC

>  <score_type>  (10) 
oracle

>  <origin>  (10) 
adgpu

>  <m_score__min__energy>  (10) 
-8.7599999999999998

>  <m_primary>  (10) 
energy

$$$$
10:0
     RDKit          3D

 51 54  0  0  0  0  0  0  0  0999 V2000
   -4.9240   21.1660  -30.7790 O   0  0  0  0  0  0  0  0  0  0  0  0
   -4.8780   22.1850  -31.5210 C   0  0  0  0  0  0  0  0  0  0  0  0
   -3.7300   23.0400  -31.5040 N   0  0  0  0  0  0  0  0  0  0  0  0
   -2.6870   23.0070  -30.5200 C   0  0  0  0  0  0  0  0  0  0  0  0
   -2.0250   21.7980  -30.2960 C   0  0  0  0  0  0  0  0  0  0  0  0
   -1.0160   21.7120  -29.3380 C   0  0  0  0  0  0  0  0  0  0  0  0
   -0.6550   22.8340  -28.5860 C   0  0  0  0  0  0  0  0  0  0  0  0
    0.5950   22.6270  -27.3630 Cl  0  0  0  0  0  0  0  0  0  0  0  0
   -1.3220   24.0650  -28.7860 C   0  0  0  0  0  0  0  0  0  0  0  0
   -0.8860   25.4950  -27.8200 S   0  0  0  0  0  0  0  0  0  0  0  0
   -1.2410   26.7540  -28.5630 O   0  0  0  0  0  0  0  0  0  0  0  0
    0.6000   25.5070  -27.6030 O   0  0  0  0  0  0  0  0  0  0  0  0
   -1.6990   25.5360  -26.2190 C   0  0  0  0  0  0  0  0  0  0  0  0
   -0.7560   25.2910  -25.0530 C   0  0  0  0  0  0  0  0  0  0  0  0
   -1.3330   26.6770  -25.2810 C   0  0  0  0  0  0  0  0  0  0  0  0
   -2.3660   24.1330  -29.7360 C   0  0  0  0  0  0  0  0  0  0  0  0
   -3.1130   25.2980  -29.8710 O   0  0  0  0  0  0  0  0  0  0  0  0
   -5.9850   22.5140  -32.3680 N   0  0  0  0  0  0  0  0  0  0  0  0
   -7.1950   21.7440  -32.3950 C   0  0  0  0  0  0  0  0  0  0  0  0
   -8.3320   22.2410  -31.7420 C   0  0  0  0  0  0  0  0  0  0  0  0
   -9.5230   21.5120  -31.7430 C   0  0  0  0  0  0  0  0  0  0  0  0
   -9.5870   20.2760  -32.3880 C   0  0  0  0  0  0  0  0  0  0  0  0
   -8.4540   19.7590  -33.0210 C   0  0  0  0  0  0  0  0  0  0  0  0
   -7.2500   20.4760  -33.0130 C   0  0  0  0  0  0  0  0  0  0  0  0
   -5.7900   19.7140  -33.7460 S   0  0  0  0  0  0  0  0  0  0  0  0
   -5.5550   18.4870  -32.4110 C   0  0  0  0  0  0  0  0  0  0  0  0
   -5.6470   17.0840  -32.9420 C   0  0  0  0  0  0  0  0  0  0  0  0
   -4.6820   16.1240  -32.5930 C   0  0  0  0  0  0  0  0  0  0  0  0
   -4.7940   14.8110  -33.0580 C   0  0  0  0  0  0  0  0  0  0  0  0
   -5.8680   14.4470  -33.8750 C   0  0  0  0  0  0  0  0  0  0  0  0
   -6.8320   15.3950  -34.2270 C   0  0  0  0  0  0  0  0  0  0  0  0
   -6.7260   16.7100  -33.7610 C   0  0  0  0  0  0  0  0  0  0  0  0
   -2.3016   20.9075  -30.8795 H   0  0  0  0  0  0  0  0  0  0  0  0
   -0.5002   20.7546  -29.1725 H   0  0  0  0  0  0  0  0  0  0  0  0
   -2.6543   25.1246  -26.5770 H   0  0  0  0  0  0  0  0  0  0  0  0
   -1.0893   24.6915  -24.1931 H   0  0  0  0  0  0  0  0  0  0  0  0
    0.2586   24.8793  -24.9473 H   0  0  0  0  0  0  0  0  0  0  0  0
   -2.0846   27.0810  -24.5868 H   0  0  0  0  0  0  0  0  0  0  0  0
   -0.9101   27.6843  -25.4092 H   0  0  0  0  0  0  0  0  0  0  0  0
   -5.8310   23.2210  -33.1220 H   0  0  0  0  0  0  0  0  0  0  0  0
   -8.2855   23.2112  -31.2257 H   0  0  0  0  0  0  0  0  0  0  0  0
  -10.4123   21.9126  -31.2345 H   0  0  0  0  0  0  0  0  0  0  0  0
  -10.5295   19.7089  -32.3980 H   0  0  0  0  0  0  0  0  0  0  0  0
   -8.5072   18.7844  -33.5282 H   0  0  0  0  0  0  0  0  0  0  0  0
   -4.5638   18.6351  -31.9576 H   0  0  0  0  0  0  0  0  0  0  0  0
   -6.3483   18.6295  -31.6624 H   0  0  0  0  0  0  0  0  0  0  0  0
   -3.8349   16.4073  -31.9510 H   0  0  0  0  0  0  0  0  0  0  0  0
   -4.0363   14.0633  -32.7808 H   0  0  0  0  0  0  0  0  0  0  0  0
   -5.9543   13.4133  -34.2411 H   0  0  0  0  0  0  0  0  0  0  0  0
   -7.6756   15.1071  -34.8715 H   0  0  0  0  0  0  0  0  0  0  0  0
   -7.4891   17.4529  -34.0364 H   0  0  0  0  0  0  0  0  0  0  0  0
  1  2  2  0
  2  3  1  0
  3  4  1  0
  4  5  2  0
  5  6  1  0
  6  7  2  0
  7  8  1  0
  7  9  1  0
  9 10  1  0
 10 11  2  0
 10 12  2  0
 10 13  1  0
 13 14  1  0
 14 15  1  0
  9 16  2  0
 16 17  1  0
  2 18  1  0
 18 19  1  0
 19 20  2  0
 20 21  1  0
 21 22  2  0
 22 23  1  0
 23 24  2  0
 24 25  1  0
 25 26  1  0
 26 27  1  0
 27 28  2  0
 28 29  1  0
 29 30  2  0
 30 31  1  0
 31 32  2  0
 16  4  1  0
 24 19  1  0
 32 27  1  0
 15 13  1  0
  5 33  1  0
  6 34  1  0
 13 35  1  0
 14 36  1  0
 14 37  1  0
 15 38  1  0
 15 39  1  0
 18 40  1  0
 20 41  1  0
 21 42  1  0
 22 43  1  0
 23 44  1  0
 26 45  1  0
 26 46  1  0
 28 47  1  0
 29 48  1  0
 30 49  1  0
 31 50  1  0
 32 51  1  0
M  CHG  2   3  -1  17  -1
M  END
>  <UniqueID>  (11) 
10

>  <SMILES>  (11) 
O=C([N-]c1ccc(Cl)c(S(=O)(=O)C2CC2)c1[O-])Nc1ccccc1SCc1ccccc1

>  <Energy>  (11) 
327.1655375769

>  <Genealogy>  (11) 
O=C([N-]c1ccc(Cl)c(S(=O)(=O)C2CC2)c1[O-])Nc1ccccc1SCc1ccccc1 (protonated)
O=C([N-]c1ccc(Cl)c(S(=O)(=O)C2CC2)c1[O-])Nc1ccccc1SCc1ccccc1 (3D coordinates assigned)
O=C([N-]c1ccc(Cl)c(S(=O)(=O)C2CC2)c1[O-])Nc1ccccc1SCc1ccccc1 (nonaromatic ring conformer: 327.1655375769 kcal/mol)

>  <smiles>  (11) 
O=C(Nc1ccccc1SCc1ccccc1)Nc1ccc(Cl)c(S(=O)(=O)C2CC2)c1O

>  <score_type>  (11) 
oracle

>  <origin>  (11) 
adgpu

>  <m_score__min__energy>  (11) 
-14.5

>  <m_primary>  (11) 
energy

$$$$
11:0
     RDKit          3D

 44 46  0  0  0  0  0  0  0  0999 V2000
   -9.0630   19.5470  -31.5790 C   0  0  0  0  0  0  0  0  0  0  0  0
   -7.6830   19.2130  -31.4860 O   0  0  0  0  0  0  0  0  0  0  0  0
   -6.9190   18.6780  -32.5360 C   0  0  0  0  0  0  0  0  0  0  0  0
   -7.2030   17.4150  -33.0910 C   0  0  0  0  0  0  0  0  0  0  0  0
   -6.4070   16.8970  -34.1160 C   0  0  0  0  0  0  0  0  0  0  0  0
   -5.3220   17.6300  -34.5960 C   0  0  0  0  0  0  0  0  0  0  0  0
   -5.0310   18.8840  -34.0590 C   0  0  0  0  0  0  0  0  0  0  0  0
   -5.8280   19.4220  -33.0340 C   0  0  0  0  0  0  0  0  0  0  0  0
   -5.5150   20.7220  -32.4980 N   0  0  0  0  0  0  0  0  0  0  0  0
   -6.5660   21.7420  -32.4180 C   0  0  0  0  0  0  0  0  0  0  0  0
   -5.9750   23.0980  -32.0180 C   0  0  0  0  0  0  0  0  0  0  0  0
   -5.1530   22.9730  -30.7920 N   0  0  0  0  0  0  0  0  0  0  0  0
   -4.5740   24.2550  -30.4370 C   0  0  0  0  0  0  0  0  0  0  0  0
   -4.7750   25.2440  -31.1970 O   0  0  0  0  0  0  0  0  0  0  0  0
   -3.7400   24.4470  -29.2180 C   0  0  0  0  0  0  0  0  0  0  0  0
   -4.2400   24.1370  -27.9420 C   0  0  0  0  0  0  0  0  0  0  0  0
   -3.4530   24.3180  -26.8490 N   0  0  0  0  0  0  0  0  0  0  0  0
   -2.1840   24.7890  -26.9590 C   0  0  0  0  0  0  0  0  0  0  0  0
   -1.3490   24.9930  -25.7350 C   0  0  0  0  0  0  0  0  0  0  0  0
   -1.6820   25.1040  -28.2260 C   0  0  0  0  0  0  0  0  0  0  0  0
   -2.4680   24.9230  -29.3180 N   0  0  0  0  0  0  0  0  0  0  0  0
   -4.1290   21.8860  -30.8280 C   0  0  0  0  0  0  0  0  0  0  0  0
   -4.1380   21.0650  -32.1280 C   0  0  0  0  0  0  0  0  0  0  0  0
   -9.4845   19.6490  -30.5681 H   0  0  0  0  0  0  0  0  0  0  0  0
   -9.1744   20.4980  -32.1204 H   0  0  0  0  0  0  0  0  0  0  0  0
   -9.5970   18.7522  -32.1204 H   0  0  0  0  0  0  0  0  0  0  0  0
   -8.0571   16.8325  -32.7151 H   0  0  0  0  0  0  0  0  0  0  0  0
   -6.6364   15.9103  -34.5446 H   0  0  0  0  0  0  0  0  0  0  0  0
   -4.6942   17.2183  -35.4000 H   0  0  0  0  0  0  0  0  0  0  0  0
   -4.1720   19.4557  -34.4403 H   0  0  0  0  0  0  0  0  0  0  0  0
   -7.0536   21.8359  -33.3996 H   0  0  0  0  0  0  0  0  0  0  0  0
   -7.2982   21.4366  -31.6560 H   0  0  0  0  0  0  0  0  0  0  0  0
   -5.3447   23.4726  -32.8380 H   0  0  0  0  0  0  0  0  0  0  0  0
   -6.8005   23.7973  -31.8190 H   0  0  0  0  0  0  0  0  0  0  0  0
   -5.8260   22.7210  -30.0270 H   0  0  0  0  0  0  0  0  0  0  0  0
   -5.2633   23.7498  -27.8284 H   0  0  0  0  0  0  0  0  0  0  0  0
   -1.9688   24.8416  -24.8389 H   0  0  0  0  0  0  0  0  0  0  0  0
   -0.5189   24.2712  -25.7329 H   0  0  0  0  0  0  0  0  0  0  0  0
   -0.9452   26.0162  -25.7329 H   0  0  0  0  0  0  0  0  0  0  0  0
   -0.6597   25.4948  -28.3366 H   0  0  0  0  0  0  0  0  0  0  0  0
   -3.1348   22.3427  -30.7136 H   0  0  0  0  0  0  0  0  0  0  0  0
   -4.3712   21.1917  -30.0100 H   0  0  0  0  0  0  0  0  0  0  0  0
   -3.6810   21.6565  -32.9350 H   0  0  0  0  0  0  0  0  0  0  0  0
   -3.5656   20.1386  -31.9727 H   0  0  0  0  0  0  0  0  0  0  0  0
  1  2  1  0
  2  3  1  0
  3  4  2  0
  4  5  1  0
  5  6  2  0
  6  7  1  0
  7  8  2  0
  8  9  1  0
  9 10  1  0
 10 11  1  0
 11 12  1  0
 12 13  1  0
 13 14  2  0
 13 15  1  0
 15 16  2  0
 16 17  1  0
 17 18  2  0
 18 19  1  0
 18 20  1  0
 20 21  2  0
 12 22  1  0
 22 23  1  0
  8  3  1  0
 23  9  1  0
 21 15  1  0
  1 24  1  0
  1 25  1  0
  1 26  1  0
  4 27  1  0
  5 28  1  0
  6 29  1  0
  7 30  1  0
 10 31  1  0
 10 32  1  0
 11 33  1  0
 11 34  1  0
 12 35  1  0
 16 36  1  0
 19 37  1  0
 19 38  1  0
 19 39  1  0
 20 40  1  0
 22 41  1  0
 22 42  1  0
 23 43  1  0
 23 44  1  0
M  CHG  1  12   1
M  END
>  <UniqueID>  (12) 
11

>  <SMILES>  (12) 
COc1ccccc1N1CC[NH+](C(=O)c2cnc(C)cn2)CC1

>  <Energy>  (12) 
60.04271382633396

>  <Genealogy>  (12) 
COc1ccccc1N1CC[NH+](C(=O)c2cnc(C)cn2)CC1 (protonated)
COc1ccccc1N1CC[NH+](C(=O)c2cnc(C)cn2)CC1 (3D coordinates assigned)
COc1ccccc1N1CC[NH+](C(=O)c2cnc(C)cn2)CC1 (nonaromatic ring conformer: 60.04271382633396 kcal/mol)

>  <smiles>  (12) 
COc1ccccc1N1CCN(C(=O)c2cnc(C)cn2)CC1

>  <score_type>  (12) 
oracle

>  <origin>  (12) 
adgpu

>  <m_score__min__energy>  (12) 
-6.8700000000000001

>  <m_primary>  (12) 
energy

$$$$
12:0
     RDKit          3D

 50 53  0  0  0  0  0  0  0  0999 V2000
   -4.6900   24.5330  -28.2560 C   0  0  0  0  0  0  0  0  0  0  0  0
   -3.6450   23.8630  -29.0880 C   0  0  0  0  0  0  0  0  0  0  0  0
   -2.3700   23.7290  -28.6330 N   0  0  0  0  0  0  0  0  0  0  0  0
   -1.5820   23.0910  -29.5290 C   0  0  0  0  0  0  0  0  0  0  0  0
   -0.3130   22.8700  -29.3600 N   0  0  0  0  0  0  0  0  0  0  0  0
    0.4680   23.2730  -28.2250 C   0  0  0  0  0  0  0  0  0  0  0  0
    1.1680   24.3220  -28.2520 O   0  0  0  0  0  0  0  0  0  0  0  0
    0.5160   22.3870  -27.0210 C   0  0  0  0  0  0  0  0  0  0  0  0
   -0.4770   22.7410  -25.9220 C   0  0  0  0  0  0  0  0  0  0  0  0
   -0.7300   21.5360  -26.8130 C   0  0  0  0  0  0  0  0  0  0  0  0
   -2.4240   22.6580  -30.9140 S   0  0  0  0  0  0  0  0  0  0  0  0
   -3.8670   23.3200  -30.3590 C   0  0  0  0  0  0  0  0  0  0  0  0
   -5.3070   23.4940  -31.3620 S   0  0  0  0  0  0  0  0  0  0  0  0
   -5.1140   22.8410  -32.7010 O   0  0  0  0  0  0  0  0  0  0  0  0
   -5.5700   24.9580  -31.5780 O   0  0  0  0  0  0  0  0  0  0  0  0
   -6.6650   22.7840  -30.5500 N   0  0  0  0  0  0  0  0  0  0  0  0
   -7.0990   21.4760  -30.9220 C   0  0  0  0  0  0  0  0  0  0  0  0
   -8.3730   21.1250  -31.3420 C   0  0  0  0  0  0  0  0  0  0  0  0
   -9.6240   21.9260  -31.1350 C   0  0  0  0  0  0  0  0  0  0  0  0
   -8.2980   19.9600  -32.0310 N   0  0  0  0  0  0  0  0  0  0  0  0
   -9.4060   19.2980  -32.7210 C   0  0  0  0  0  0  0  0  0  0  0  0
   -7.0240   19.5800  -32.0890 N   0  0  0  0  0  0  0  0  0  0  0  0
   -6.4920   18.5450  -32.9300 C   0  0  0  0  0  0  0  0  0  0  0  0
   -6.4370   17.2220  -32.4700 C   0  0  0  0  0  0  0  0  0  0  0  0
   -5.8640   16.2250  -33.2670 C   0  0  0  0  0  0  0  0  0  0  0  0
   -5.3320   16.5480  -34.5180 C   0  0  0  0  0  0  0  0  0  0  0  0
   -5.3710   17.8690  -34.9760 C   0  0  0  0  0  0  0  0  0  0  0  0
   -5.9470   18.8660  -34.1840 C   0  0  0  0  0  0  0  0  0  0  0  0
   -6.2840   20.4850  -31.4200 C   0  0  0  0  0  0  0  0  0  0  0  0
   -5.0240   20.4660  -31.3520 O   0  0  0  0  0  0  0  0  0  0  0  0
   -4.4603   24.3857  -27.1904 H   0  0  0  0  0  0  0  0  0  0  0  0
   -4.7047   25.6093  -28.4826 H   0  0  0  0  0  0  0  0  0  0  0  0
   -5.6742   24.0971  -28.4826 H   0  0  0  0  0  0  0  0  0  0  0  0
    1.5985   22.1952  -27.0593 H   0  0  0  0  0  0  0  0  0  0  0  0
   -0.2034   22.5965  -24.8664 H   0  0  0  0  0  0  0  0  0  0  0  0
   -1.0484   23.6410  -25.6510 H   0  0  0  0  0  0  0  0  0  0  0  0
   -0.6394   20.5197  -26.4021 H   0  0  0  0  0  0  0  0  0  0  0  0
   -1.5601   21.2033  -27.4535 H   0  0  0  0  0  0  0  0  0  0  0  0
   -6.9030   23.1320  -29.5960 H   0  0  0  0  0  0  0  0  0  0  0  0
   -9.8093   22.0446  -30.0572 H   0  0  0  0  0  0  0  0  0  0  0  0
   -9.5058   22.9168  -31.5980 H   0  0  0  0  0  0  0  0  0  0  0  0
  -10.4744   21.4040  -31.5980 H   0  0  0  0  0  0  0  0  0  0  0  0
  -10.1033   18.8814  -31.9793 H   0  0  0  0  0  0  0  0  0  0  0  0
   -9.9344   20.0285  -33.3512 H   0  0  0  0  0  0  0  0  0  0  0  0
   -9.0131   18.4865  -33.3512 H   0  0  0  0  0  0  0  0  0  0  0  0
   -6.8450   16.9672  -31.4808 H   0  0  0  0  0  0  0  0  0  0  0  0
   -5.8323   15.1856  -32.9083 H   0  0  0  0  0  0  0  0  0  0  0  0
   -4.8821   15.7627  -35.1432 H   0  0  0  0  0  0  0  0  0  0  0  0
   -4.9484   18.1231  -35.9593 H   0  0  0  0  0  0  0  0  0  0  0  0
   -5.9736   19.9052  -34.5438 H   0  0  0  0  0  0  0  0  0  0  0  0
  1  2  1  0
  2  3  1  0
  3  4  1  0
  4  5  2  3
  5  6  1  0
  6  7  2  0
  6  8  1  0
  8  9  1  0
  9 10  1  0
  4 11  1  0
 11 12  1  0
 12 13  1  0
 13 14  2  0
 13 15  2  0
 13 16  1  0
 16 17  1  0
 17 18  2  0
 18 19  1  0
 18 20  1  0
 20 21  1  0
 20 22  1  0
 22 23  1  0
 23 24  2  0
 24 25  1  0
 25 26  2  0
 26 27  1  0
 27 28  2  0
 22 29  1  0
 29 30  2  0
 12  2  2  0
 29 17  1  0
 10  8  1  0
 28 23  1  0
  1 31  1  0
  1 32  1  0
  1 33  1  0
  8 34  1  0
  9 35  1  0
  9 36  1  0
 10 37  1  0
 10 38  1  0
 16 39  1  0
 19 40  1  0
 19 41  1  0
 19 42  1  0
 21 43  1  0
 21 44  1  0
 21 45  1  0
 24 46  1  0
 25 47  1  0
 26 48  1  0
 27 49  1  0
 28 50  1  0
M  CHG  1   3  -1
M  END
>  <UniqueID>  (13) 
12

>  <SMILES>  (13) 
Cc1[n-]c(=NC(=O)C2CC2)sc1S(=O)(=O)Nc1c(C)n(C)n(-c2ccccc2)c1=O

>  <Energy>  (13) 
393.7005217933234

>  <Genealogy>  (13) 
Cc1[n-]c(=NC(=O)C2CC2)sc1S(=O)(=O)Nc1c(C)n(C)n(-c2ccccc2)c1=O (protonated)
Cc1[n-]c(=NC(=O)C2CC2)sc1S(=O)(=O)Nc1c(C)n(C)n(-c2ccccc2)c1=O (3D coordinates assigned)
Cc1[n-]c(=NC(=O)C2CC2)sc1S(=O)(=O)Nc1c(C)n(C)n(-c2ccccc2)c1=O (nonaromatic ring conformer: 393.7005217933234 kcal/mol)

>  <smiles>  (13) 
Cc1[nH]c(=NC(=O)C2CC2)sc1S(=O)(=O)Nc1c(C)n(C)n(-c2ccccc2)c1=O

>  <score_type>  (13) 
oracle

>  <origin>  (13) 
adgpu

>  <m_score__min__energy>  (13) 
-10.69

>  <m_primary>  (13) 
energy

$$$$
13:0
     RDKit          3D

 52 54  0  0  0  0  0  0  0  0999 V2000
   -8.2780   19.9730  -33.0950 C   0  0  0  0  0  0  0  0  0  0  0  0
   -7.9080   20.8560  -31.9860 N   0  0  0  0  0  0  0  0  0  0  0  0
   -8.7800   20.9680  -30.8120 C   0  0  0  0  0  0  0  0  0  0  0  0
   -6.6110   21.4860  -31.9960 C   0  0  0  0  0  0  0  0  0  0  0  0
   -5.6650   20.9500  -32.6350 O   0  0  0  0  0  0  0  0  0  0  0  0
   -6.3520   22.7430  -31.2630 C   0  0  0  0  0  0  0  0  0  0  0  0
   -7.4150   23.5200  -30.7760 C   0  0  0  0  0  0  0  0  0  0  0  0
   -7.1630   24.7190  -30.1070 C   0  0  0  0  0  0  0  0  0  0  0  0
   -5.8500   25.1590  -29.9230 C   0  0  0  0  0  0  0  0  0  0  0  0
   -4.7720   24.3950  -30.4060 C   0  0  0  0  0  0  0  0  0  0  0  0
   -3.4120   24.8400  -30.2580 N   0  0  0  0  0  0  0  0  0  0  0  0
   -2.4900   24.3000  -29.2980 C   0  0  0  0  0  0  0  0  0  0  0  0
   -2.6930   23.0010  -28.8100 C   0  0  0  0  0  0  0  0  0  0  0  0
   -1.8150   22.4500  -27.8680 C   0  0  0  0  0  0  0  0  0  0  0  0
   -2.0610   20.7960  -27.3090 S   0  0  0  0  0  0  0  0  0  0  0  0
   -1.4050   20.6060  -25.9700 O   0  0  0  0  0  0  0  0  0  0  0  0
   -3.5380   20.5650  -27.1500 O   0  0  0  0  0  0  0  0  0  0  0  0
   -1.4200   19.6520  -28.4700 N   0  0  0  0  0  0  0  0  0  0  0  0
   -0.4660   20.2810  -29.4060 C   0  0  0  0  0  0  0  0  0  0  0  0
    0.8910   20.5990  -28.7530 C   0  0  0  0  0  0  0  0  0  0  0  0
    1.3690   19.5000  -27.7870 C   0  0  0  0  0  0  0  0  0  0  0  0
    0.6020   18.1940  -27.9830 C   0  0  0  0  0  0  0  0  0  0  0  0
   -0.9120   18.4210  -27.8110 C   0  0  0  0  0  0  0  0  0  0  0  0
   -0.7320   23.2070  -27.4030 C   0  0  0  0  0  0  0  0  0  0  0  0
   -0.5400   24.5120  -27.8620 C   0  0  0  0  0  0  0  0  0  0  0  0
   -1.4200   25.0660  -28.7970 C   0  0  0  0  0  0  0  0  0  0  0  0
   -1.2360   26.3830  -29.2060 O   0  0  0  0  0  0  0  0  0  0  0  0
   -5.0350   23.2000  -31.0960 C   0  0  0  0  0  0  0  0  0  0  0  0
   -8.6740   19.0280  -32.6948 H   0  0  0  0  0  0  0  0  0  0  0  0
   -9.0473   20.4611  -33.7114 H   0  0  0  0  0  0  0  0  0  0  0  0
   -7.3905   19.7669  -33.7114 H   0  0  0  0  0  0  0  0  0  0  0  0
   -8.1746   20.8902  -29.8969 H   0  0  0  0  0  0  0  0  0  0  0  0
   -9.2953   21.9397  -30.8293 H   0  0  0  0  0  0  0  0  0  0  0  0
   -9.5241   20.1580  -30.8293 H   0  0  0  0  0  0  0  0  0  0  0  0
   -8.4516   23.1823  -30.9223 H   0  0  0  0  0  0  0  0  0  0  0  0
   -8.0011   25.3193  -29.7234 H   0  0  0  0  0  0  0  0  0  0  0  0
   -5.6582   26.1066  -29.3984 H   0  0  0  0  0  0  0  0  0  0  0  0
   -3.0950   25.6550  -30.8310 H   0  0  0  0  0  0  0  0  0  0  0  0
   -3.5483   22.4103  -29.1698 H   0  0  0  0  0  0  0  0  0  0  0  0
   -0.2977   19.5952  -30.2495 H   0  0  0  0  0  0  0  0  0  0  0  0
   -0.9057   21.2340  -29.7353 H   0  0  0  0  0  0  0  0  0  0  0  0
    1.6425   20.7178  -29.5475 H   0  0  0  0  0  0  0  0  0  0  0  0
    0.7640   21.5199  -28.1649 H   0  0  0  0  0  0  0  0  0  0  0  0
    2.4388   19.3135  -27.9624 H   0  0  0  0  0  0  0  0  0  0  0  0
    1.1896   19.8489  -26.7593 H   0  0  0  0  0  0  0  0  0  0  0  0
    0.7968   17.8091  -28.9949 H   0  0  0  0  0  0  0  0  0  0  0  0
    0.9391   17.4689  -27.2276 H   0  0  0  0  0  0  0  0  0  0  0  0
   -1.4416   17.5568  -28.2384 H   0  0  0  0  0  0  0  0  0  0  0  0
   -1.0942   18.5404  -26.7328 H   0  0  0  0  0  0  0  0  0  0  0  0
   -0.0313   22.7727  -26.6748 H   0  0  0  0  0  0  0  0  0  0  0  0
    0.3063   25.1061  -27.4868 H   0  0  0  0  0  0  0  0  0  0  0  0
   -4.1999   22.6159  -31.5100 H   0  0  0  0  0  0  0  0  0  0  0  0
  1  2  1  0
  2  3  1  0
  2  4  1  0
  4  5  2  0
  4  6  1  0
  6  7  2  0
  7  8  1  0
  8  9  2  0
  9 10  1  0
 10 11  1  0
 11 12  1  0
 12 13  2  0
 13 14  1  0
 14 15  1  0
 15 16  2  0
 15 17  2  0
 15 18  1  0
 18 19  1  0
 19 20  1  0
 20 21  1  0
 21 22  1  0
 22 23  1  0
 14 24  2  0
 24 25  1  0
 25 26  2  0
 26 27  1  0
 10 28  2  0
 28  6  1  0
 26 12  1  0
 23 18  1  0
  1 29  1  0
  1 30  1  0
  1 31  1  0
  3 32  1  0
  3 33  1  0
  3 34  1  0
  7 35  1  0
  8 36  1  0
  9 37  1  0
 11 38  1  0
 13 39  1  0
 19 40  1  0
 19 41  1  0
 20 42  1  0
 20 43  1  0
 21 44  1  0
 21 45  1  0
 22 46  1  0
 22 47  1  0
 23 48  1  0
 23 49  1  0
 24 50  1  0
 25 51  1  0
 28 52  1  0
M  CHG  1  27  -1
M  END
>  <UniqueID>  (14) 
13

>  <SMILES>  (14) 
CN(C)C(=O)c1cccc(Nc2cc(S(=O)(=O)N3CCCCC3)ccc2[O-])c1

>  <Energy>  (14) 
69.63659801728576

>  <Genealogy>  (14) 
CN(C)C(=O)c1cccc(Nc2cc(S(=O)(=O)N3CCCCC3)ccc2[O-])c1 (protonated)
CN(C)C(=O)c1cccc(Nc2cc(S(=O)(=O)N3CCCCC3)ccc2[O-])c1 (3D coordinates assigned)
CN(C)C(=O)c1cccc(Nc2cc(S(=O)(=O)N3CCCCC3)ccc2[O-])c1 (nonaromatic ring conformer: 69.63659801728576 kcal/mol)

>  <smiles>  (14) 
CN(C)C(=O)c1cccc(Nc2cc(S(=O)(=O)N3CCCCC3)ccc2O)c1

>  <score_type>  (14) 
oracle

>  <origin>  (14) 
adgpu

>  <m_score__min__energy>  (14) 
-12.710000000000001

>  <m_primary>  (14) 
energy

$$$$
14:0
     RDKit          3D

 67 70  0  0  0  0  0  0  0  0999 V2000
    0.2450   21.1240  -32.0070 C   0  0  0  0  0  0  0  0  0  0  0  0
   -0.9830   21.8080  -32.2380 O   0  0  0  0  0  0  0  0  0  0  0  0
   -2.2370   21.1820  -32.3440 C   0  0  0  0  0  0  0  0  0  0  0  0
   -2.5050   20.2220  -33.3360 C   0  0  0  0  0  0  0  0  0  0  0  0
   -3.7610   19.6190  -33.4150 C   0  0  0  0  0  0  0  0  0  0  0  0
   -4.7680   19.9600  -32.5080 C   0  0  0  0  0  0  0  0  0  0  0  0
   -6.3720   19.2330  -32.6490 S   0  0  0  0  0  0  0  0  0  0  0  0
   -6.3880   18.2940  -33.8230 O   0  0  0  0  0  0  0  0  0  0  0  0
   -6.6580   18.4300  -31.4110 O   0  0  0  0  0  0  0  0  0  0  0  0
   -7.6170   20.4440  -32.8720 N   0  0  0  0  0  0  0  0  0  0  0  0
   -7.2060   21.7650  -32.3380 C   0  0  0  0  0  0  0  0  0  0  0  0
   -7.7650   22.0570  -30.9330 C   0  0  0  0  0  0  0  0  0  0  0  0
   -9.2980   21.9040  -30.8540 C   0  0  0  0  0  0  0  0  0  0  0  0
   -9.8700   21.0970  -32.0260 C   0  0  0  0  0  0  0  0  0  0  0  0
   -8.9230   19.9510  -32.3770 C   0  0  0  0  0  0  0  0  0  0  0  0
   -4.5090   20.9080  -31.5150 C   0  0  0  0  0  0  0  0  0  0  0  0
   -3.2480   21.5260  -31.4250 C   0  0  0  0  0  0  0  0  0  0  0  0
   -3.0070   22.5830  -30.4720 N   0  0  0  0  0  0  0  0  0  0  0  0
   -3.6100   23.8820  -30.5240 C   0  0  0  0  0  0  0  0  0  0  0  0
   -4.6180   24.0910  -31.2520 O   0  0  0  0  0  0  0  0  0  0  0  0
   -3.0960   24.9160  -29.6740 N   0  0  0  0  0  0  0  0  0  0  0  0
   -1.9180   24.8430  -28.8610 C   0  0  0  0  0  0  0  0  0  0  0  0
   -0.8810   23.9350  -29.1370 C   0  0  0  0  0  0  0  0  0  0  0  0
    0.2410   23.8770  -28.3080 C   0  0  0  0  0  0  0  0  0  0  0  0
    0.3290   24.7080  -27.1870 C   0  0  0  0  0  0  0  0  0  0  0  0
   -0.7070   25.6020  -26.8920 C   0  0  0  0  0  0  0  0  0  0  0  0
   -0.5650   26.6680  -25.4980 S   0  0  0  0  0  0  0  0  0  0  0  0
    0.8230   26.5860  -24.9240 O   0  0  0  0  0  0  0  0  0  0  0  0
   -1.5470   26.2140  -24.4530 O   0  0  0  0  0  0  0  0  0  0  0  0
   -0.9190   28.3110  -25.9700 N   0  0  0  0  0  0  0  0  0  0  0  0
   -0.0500   28.7100  -27.0880 C   0  0  0  0  0  0  0  0  0  0  0  0
   -0.4620   30.0910  -27.6370 C   0  0  0  0  0  0  0  0  0  0  0  0
   -1.3040   30.8940  -26.6350 C   0  0  0  0  0  0  0  0  0  0  0  0
   -0.8010   30.7010  -25.2020 C   0  0  0  0  0  0  0  0  0  0  0  0
   -0.7180   29.2090  -24.8140 C   0  0  0  0  0  0  0  0  0  0  0  0
   -1.8330   25.6570  -27.7260 C   0  0  0  0  0  0  0  0  0  0  0  0
    0.4142   21.0298  -30.9242 H   0  0  0  0  0  0  0  0  0  0  0  0
    0.1975   20.1224  -32.4592 H   0  0  0  0  0  0  0  0  0  0  0  0
    1.0716   21.6917  -32.4592 H   0  0  0  0  0  0  0  0  0  0  0  0
   -1.7195   19.9446  -34.0544 H   0  0  0  0  0  0  0  0  0  0  0  0
   -3.9597   18.8705  -34.1962 H   0  0  0  0  0  0  0  0  0  0  0  0
   -6.1075   21.7951  -32.2895 H   0  0  0  0  0  0  0  0  0  0  0  0
   -7.6132   22.5302  -33.0152 H   0  0  0  0  0  0  0  0  0  0  0  0
   -7.3051   21.3573  -30.2197 H   0  0  0  0  0  0  0  0  0  0  0  0
   -7.5245   23.1031  -30.6925 H   0  0  0  0  0  0  0  0  0  0  0  0
   -9.5532   21.3911  -29.9150 H   0  0  0  0  0  0  0  0  0  0  0  0
   -9.7366   22.9118  -30.8972 H   0  0  0  0  0  0  0  0  0  0  0  0
  -10.8504   20.6866  -31.7426 H   0  0  0  0  0  0  0  0  0  0  0  0
   -9.9821   21.7557  -32.8998 H   0  0  0  0  0  0  0  0  0  0  0  0
   -8.7547   19.3408  -31.4774 H   0  0  0  0  0  0  0  0  0  0  0  0
   -9.3886   19.3579  -33.1779 H   0  0  0  0  0  0  0  0  0  0  0  0
   -5.2984   21.1739  -30.7966 H   0  0  0  0  0  0  0  0  0  0  0  0
   -2.3600   22.3910  -29.6750 H   0  0  0  0  0  0  0  0  0  0  0  0
   -0.9537   23.2681  -30.0088 H   0  0  0  0  0  0  0  0  0  0  0  0
    1.0573   23.1762  -28.5373 H   0  0  0  0  0  0  0  0  0  0  0  0
    1.2141   24.6592  -26.5356 H   0  0  0  0  0  0  0  0  0  0  0  0
    0.9911   28.7579  -26.7360 H   0  0  0  0  0  0  0  0  0  0  0  0
   -0.1485   27.9671  -27.8932 H   0  0  0  0  0  0  0  0  0  0  0  0
    0.4477   30.6631  -27.8718 H   0  0  0  0  0  0  0  0  0  0  0  0
   -1.0774   29.9246  -28.5334 H   0  0  0  0  0  0  0  0  0  0  0  0
   -1.2466   31.9616  -26.8938 H   0  0  0  0  0  0  0  0  0  0  0  0
   -2.3423   30.5347  -26.6889 H   0  0  0  0  0  0  0  0  0  0  0  0
    0.2007   31.1470  -25.1142 H   0  0  0  0  0  0  0  0  0  0  0  0
   -1.5151   31.1894  -24.5227 H   0  0  0  0  0  0  0  0  0  0  0  0
    0.2744   29.0115  -24.3824 H   0  0  0  0  0  0  0  0  0  0  0  0
   -1.5216   29.0069  -24.0905 H   0  0  0  0  0  0  0  0  0  0  0  0
   -2.6564   26.3458  -27.4860 H   0  0  0  0  0  0  0  0  0  0  0  0
  1  2  1  0
  2  3  1  0
  3  4  2  0
  4  5  1  0
  5  6  2  0
  6  7  1  0
  7  8  2  0
  7  9  2  0
  7 10  1  0
 10 11  1  0
 11 12  1  0
 12 13  1  0
 13 14  1  0
 14 15  1  0
  6 16  1  0
 16 17  2  0
 17 18  1  0
 18 19  1  0
 19 20  2  0
 19 21  1  0
 21 22  1  0
 22 23  2  0
 23 24  1  0
 24 25  2  0
 25 26  1  0
 26 27  1  0
 27 28  2  0
 27 29  2  0
 27 30  1  0
 30 31  1  0
 31 32  1  0
 32 33  1  0
 33 34  1  0
 34 35  1  0
 26 36  2  0
 17  3  1  0
 36 22  1  0
 15 10  1  0
 35 30  1  0
  1 37  1  0
  1 38  1  0
  1 39  1  0
  4 40  1  0
  5 41  1  0
 11 42  1  0
 11 43  1  0
 12 44  1  0
 12 45  1  0
 13 46  1  0
 13 47  1  0
 14 48  1  0
 14 49  1  0
 15 50  1  0
 15 51  1  0
 16 52  1  0
 18 53  1  0
 23 54  1  0
 24 55  1  0
 25 56  1  0
 31 57  1  0
 31 58  1  0
 32 59  1  0
 32 60  1  0
 33 61  1  0
 33 62  1  0
 34 63  1  0
 34 64  1  0
 35 65  1  0
 35 66  1  0
 36 67  1  0
M  CHG  1  21  -1
M  END
>  <UniqueID>  (15) 
14

>  <SMILES>  (15) 
COc1ccc(S(=O)(=O)N2CCCCC2)cc1NC(=O)[N-]c1cccc(S(=O)(=O)N2CCCCC2)c1

>  <Energy>  (15) 
83.25723567621789

>  <Genealogy>  (15) 
COc1ccc(S(=O)(=O)N2CCCCC2)cc1NC(=O)[N-]c1cccc(S(=O)(=O)N2CCCCC2)c1 (protonated)
COc1ccc(S(=O)(=O)N2CCCCC2)cc1NC(=O)[N-]c1cccc(S(=O)(=O)N2CCCCC2)c1 (3D coordinates assigned)
COc1ccc(S(=O)(=O)N2CCCCC2)cc1NC(=O)[N-]c1cccc(S(=O)(=O)N2CCCCC2)c1 (nonaromatic ring conformer: 83.25723567621789 kcal/mol)

>  <smiles>  (15) 
COc1ccc(S(=O)(=O)N2CCCCC2)cc1NC(=O)Nc1cccc(S(=O)(=O)N2CCCCC2)c1

>  <score_type>  (15) 
oracle

>  <origin>  (15) 
adgpu

>  <m_score__min__energy>  (15) 
-11.890000000000001

>  <m_primary>  (15) 
energy

$$$$
15:0
     RDKit          3D

 58 61  0  0  0  0  0  0  0  0999 V2000
   -2.1390   25.2980  -29.3450 O   0  0  0  0  0  0  0  0  0  0  0  0
   -2.7070   24.1950  -29.1270 C   0  0  0  0  0  0  0  0  0  0  0  0
   -2.3700   23.4700  -27.9370 N   0  0  0  0  0  0  0  0  0  0  0  0
   -2.1220   22.0600  -27.8670 C   0  0  0  0  0  0  0  0  0  0  0  0
   -3.1250   21.1570  -27.4800 C   0  0  0  0  0  0  0  0  0  0  0  0
   -2.8600   19.7860  -27.4490 C   0  0  0  0  0  0  0  0  0  0  0  0
   -1.5970   19.3060  -27.8030 C   0  0  0  0  0  0  0  0  0  0  0  0
   -0.5830   20.2020  -28.1730 C   0  0  0  0  0  0  0  0  0  0  0  0
    0.9950   19.5950  -28.6810 S   0  0  0  0  0  0  0  0  0  0  0  0
    1.1560   18.1720  -28.2170 O   0  0  0  0  0  0  0  0  0  0  0  0
    2.0750   20.4210  -28.0360 O   0  0  0  0  0  0  0  0  0  0  0  0
    1.1660   19.6540  -30.4220 N   0  0  0  0  0  0  0  0  0  0  0  0
    0.1170   20.5060  -31.0220 C   0  0  0  0  0  0  0  0  0  0  0  0
   -0.0370   20.2300  -32.5220 C   0  0  0  0  0  0  0  0  0  0  0  0
   -0.4960   18.7860  -32.7660 C   0  0  0  0  0  0  0  0  0  0  0  0
   -0.0320   17.8200  -31.6600 C   0  0  0  0  0  0  0  0  0  0  0  0
    1.2740   18.2960  -31.0070 C   0  0  0  0  0  0  0  0  0  0  0  0
   -0.8440   21.5790  -28.1750 C   0  0  0  0  0  0  0  0  0  0  0  0
   -3.6960   23.6820  -30.1050 C   0  0  0  0  0  0  0  0  0  0  0  0
   -3.3510   22.5650  -30.8870 C   0  0  0  0  0  0  0  0  0  0  0  0
   -4.2350   22.0710  -31.8590 C   0  0  0  0  0  0  0  0  0  0  0  0
   -3.7900   20.6720  -32.8420 S   0  0  0  0  0  0  0  0  0  0  0  0
   -3.2240   19.5740  -31.9790 O   0  0  0  0  0  0  0  0  0  0  0  0
   -2.7380   21.0880  -33.8360 O   0  0  0  0  0  0  0  0  0  0  0  0
   -5.1730   20.0550  -33.6900 N   0  0  0  0  0  0  0  0  0  0  0  0
   -6.3540   19.5640  -33.0450 C   0  0  0  0  0  0  0  0  0  0  0  0
   -6.4130   18.2620  -32.4760 C   0  0  0  0  0  0  0  0  0  0  0  0
   -7.6020   17.8040  -31.9020 C   0  0  0  0  0  0  0  0  0  0  0  0
   -8.7500   18.6360  -31.9040 C   0  0  0  0  0  0  0  0  0  0  0  0
   -8.6900   19.9290  -32.4540 C   0  0  0  0  0  0  0  0  0  0  0  0
   -7.4880   20.3900  -33.0140 C   0  0  0  0  0  0  0  0  0  0  0  0
   -5.4690   22.7000  -32.0570 C   0  0  0  0  0  0  0  0  0  0  0  0
   -5.8300   23.8030  -31.2760 C   0  0  0  0  0  0  0  0  0  0  0  0
   -4.9650   24.2880  -30.2870 C   0  0  0  0  0  0  0  0  0  0  0  0
   -5.4080   25.3490  -29.4880 O   0  0  0  0  0  0  0  0  0  0  0  0
   -4.1214   21.5300  -27.2007 H   0  0  0  0  0  0  0  0  0  0  0  0
   -3.6485   19.0820  -27.1448 H   0  0  0  0  0  0  0  0  0  0  0  0
   -1.3972   18.2243  -27.7917 H   0  0  0  0  0  0  0  0  0  0  0  0
   -0.8404   20.3018  -30.5203 H   0  0  0  0  0  0  0  0  0  0  0  0
    0.4091   21.5585  -30.8917 H   0  0  0  0  0  0  0  0  0  0  0  0
   -0.7830   20.9213  -32.9412 H   0  0  0  0  0  0  0  0  0  0  0  0
    0.9380   20.3773  -33.0096 H   0  0  0  0  0  0  0  0  0  0  0  0
   -1.5950   18.7687  -32.8100 H   0  0  0  0  0  0  0  0  0  0  0  0
   -0.0457   18.4495  -33.7115 H   0  0  0  0  0  0  0  0  0  0  0  0
   -0.8144   17.7569  -30.8894 H   0  0  0  0  0  0  0  0  0  0  0  0
    0.1495   16.8356  -32.1160 H   0  0  0  0  0  0  0  0  0  0  0  0
    1.5442   17.5902  -30.2077 H   0  0  0  0  0  0  0  0  0  0  0  0
    2.0408   18.3363  -31.7946 H   0  0  0  0  0  0  0  0  0  0  0  0
   -0.0387   22.2870  -28.4204 H   0  0  0  0  0  0  0  0  0  0  0  0
   -2.3786   22.0736  -30.7353 H   0  0  0  0  0  0  0  0  0  0  0  0
   -5.5230   17.6156  -32.4877 H   0  0  0  0  0  0  0  0  0  0  0  0
   -7.6470   16.8020  -31.4504 H   0  0  0  0  0  0  0  0  0  0  0  0
   -9.6928   18.2682  -31.4730 H   0  0  0  0  0  0  0  0  0  0  0  0
   -9.5799   20.5755  -32.4454 H   0  0  0  0  0  0  0  0  0  0  0  0
   -7.4347   21.4063  -33.4316 H   0  0  0  0  0  0  0  0  0  0  0  0
   -6.1574   22.3260  -32.8292 H   0  0  0  0  0  0  0  0  0  0  0  0
   -6.8009   24.2933  -31.4399 H   0  0  0  0  0  0  0  0  0  0  0  0
   -4.9130   25.6560  -28.6600 H   0  0  0  0  0  0  0  0  0  0  0  0
  1  2  2  0
  2  3  1  0
  3  4  1  0
  4  5  2  0
  5  6  1  0
  6  7  2  0
  7  8  1  0
  8  9  1  0
  9 10  2  0
  9 11  2  0
  9 12  1  0
 12 13  1  0
 13 14  1  0
 14 15  1  0
 15 16  1  0
 16 17  1  0
  8 18  2  0
  2 19  1  0
 19 20  2  0
 20 21  1  0
 21 22  1  0
 22 23  2  0
 22 24  2  0
 22 25  1  0
 25 26  1  0
 26 27  2  0
 27 28  1  0
 28 29  2  0
 29 30  1  0
 30 31  2  0
 21 32  2  0
 32 33  1  0
 33 34  2  0
 34 35  1  0
 18  4  1  0
 34 19  1  0
 17 12  1  0
 31 26  1  0
  5 36  1  0
  6 37  1  0
  7 38  1  0
 13 39  1  0
 13 40  1  0
 14 41  1  0
 14 42  1  0
 15 43  1  0
 15 44  1  0
 16 45  1  0
 16 46  1  0
 17 47  1  0
 17 48  1  0
 18 49  1  0
 20 50  1  0
 27 51  1  0
 28 52  1  0
 29 53  1  0
 30 54  1  0
 31 55  1  0
 32 56  1  0
 33 57  1  0
 35 58  1  0
M  CHG  2   3  -1  25  -1
M  END
>  <UniqueID>  (16) 
15

>  <SMILES>  (16) 
O=C([N-]c1cccc(S(=O)(=O)N2CCCCC2)c1)c1cc(S(=O)(=O)[N-]c2ccccc2)ccc1O

>  <Energy>  (16) 
79.0794631556763

>  <Genealogy>  (16) 
O=C([N-]c1cccc(S(=O)(=O)N2CCCCC2)c1)c1cc(S(=O)(=O)[N-]c2ccccc2)ccc1O (protonated)
O=C([N-]c1cccc(S(=O)(=O)N2CCCCC2)c1)c1cc(S(=O)(=O)[N-]c2ccccc2)ccc1O (3D coordinates assigned)
O=C([N-]c1cccc(S(=O)(=O)N2CCCCC2)c1)c1cc(S(=O)(=O)[N-]c2ccccc2)ccc1O (nonaromatic ring conformer: 79.0794631556763 kcal/mol)

>  <smiles>  (16) 
O=C(Nc1cccc(S(=O)(=O)N2CCCCC2)c1)c1cc(S(=O)(=O)Nc2ccccc2)ccc1O

>  <score_type>  (16) 
oracle

>  <origin>  (16) 
adgpu

>  <m_score__min__energy>  (16) 
-11.92

>  <m_primary>  (16) 
energy

$$$$
16:0
     RDKit          3D

 50 52  0  0  0  0  0  0  0  0999 V2000
   -1.4373   28.3490  -24.7804 H   0  0  0  0  0  0  0  0  0  0  0  0
   -1.0670   27.3140  -24.8210 C   0  0  0  0  0  0  0  0  0  0  0  0
   -0.9970   26.3420  -26.1960 S   0  0  0  0  0  0  0  0  0  0  0  0
   -0.3440   25.0300  -25.3610 C   0  0  0  0  0  0  0  0  0  0  0  0
   -0.0320   23.8770  -25.8700 N   0  0  0  0  0  0  0  0  0  0  0  0
   -0.2360   23.4600  -27.5410 S   0  0  0  0  0  0  0  0  0  0  0  0
    0.0230   21.9910  -27.7180 O   0  0  0  0  0  0  0  0  0  0  0  0
    0.7570   24.2340  -28.3650 O   0  0  0  0  0  0  0  0  0  0  0  0
   -1.8810   23.8160  -28.0570 C   0  0  0  0  0  0  0  0  0  0  0  0
   -2.9240   23.7970  -27.1240 C   0  0  0  0  0  0  0  0  0  0  0  0
   -2.7135   23.5513  -26.0727 H   0  0  0  0  0  0  0  0  0  0  0  0
   -4.2330   24.0890  -27.5220 C   0  0  0  0  0  0  0  0  0  0  0  0
   -5.0458   24.0756  -26.7809 H   0  0  0  0  0  0  0  0  0  0  0  0
   -4.5160   24.4000  -28.8660 C   0  0  0  0  0  0  0  0  0  0  0  0
   -5.8510   24.7060  -29.3090 N   0  0  0  0  0  0  0  0  0  0  0  0
   -6.5700   24.9350  -28.5820 H   0  0  0  0  0  0  0  0  0  0  0  0
   -6.2480   24.7110  -30.7170 C   0  0  0  0  0  0  0  0  0  0  0  0
   -5.4489   25.1718  -31.3162 H   0  0  0  0  0  0  0  0  0  0  0  0
   -7.1806   25.2851  -30.8202 H   0  0  0  0  0  0  0  0  0  0  0  0
   -6.4860   23.3070  -31.2060 C   0  0  0  0  0  0  0  0  0  0  0  0
   -5.5060   22.6420  -31.9500 C   0  0  0  0  0  0  0  0  0  0  0  0
   -4.5689   23.1592  -32.2036 H   0  0  0  0  0  0  0  0  0  0  0  0
   -5.7080   21.3250  -32.3740 C   0  0  0  0  0  0  0  0  0  0  0  0
   -4.9302   20.8215  -32.9668 H   0  0  0  0  0  0  0  0  0  0  0  0
   -6.8980   20.6300  -32.0520 C   0  0  0  0  0  0  0  0  0  0  0  0
   -7.1620   19.1770  -32.4960 C   0  0  0  0  0  0  0  0  0  0  0  0
   -8.6820   18.9600  -32.6680 C   0  0  0  0  0  0  0  0  0  0  0  0
   -9.1570   18.8922  -31.6782 H   0  0  0  0  0  0  0  0  0  0  0  0
   -9.1125   19.8058  -33.2241 H   0  0  0  0  0  0  0  0  0  0  0  0
   -8.8586   18.0275  -33.2241 H   0  0  0  0  0  0  0  0  0  0  0  0
   -6.6240   18.2060  -31.4240 C   0  0  0  0  0  0  0  0  0  0  0  0
   -6.8453   18.6055  -30.4233 H   0  0  0  0  0  0  0  0  0  0  0  0
   -7.1072   17.2249  -31.5423 H   0  0  0  0  0  0  0  0  0  0  0  0
   -5.5360   18.0955  -31.5423 H   0  0  0  0  0  0  0  0  0  0  0  0
   -6.4830   18.8190  -33.8390 C   0  0  0  0  0  0  0  0  0  0  0  0
   -5.5256   18.3142  -33.6427 H   0  0  0  0  0  0  0  0  0  0  0  0
   -7.1392   18.1496  -34.4147 H   0  0  0  0  0  0  0  0  0  0  0  0
   -6.3014   19.7386  -34.4147 H   0  0  0  0  0  0  0  0  0  0  0  0
   -7.8680   21.3130  -31.2840 C   0  0  0  0  0  0  0  0  0  0  0  0
   -8.8020   20.7991  -31.0128 H   0  0  0  0  0  0  0  0  0  0  0  0
   -7.6620   22.6290  -30.8630 C   0  0  0  0  0  0  0  0  0  0  0  0
   -8.4285   23.1357  -30.2583 H   0  0  0  0  0  0  0  0  0  0  0  0
   -3.4640   24.4110  -29.7970 C   0  0  0  0  0  0  0  0  0  0  0  0
   -3.6706   24.6513  -30.8504 H   0  0  0  0  0  0  0  0  0  0  0  0
   -2.1560   24.1190  -29.3960 C   0  0  0  0  0  0  0  0  0  0  0  0
   -1.3411   24.1275  -30.1348 H   0  0  0  0  0  0  0  0  0  0  0  0
   -0.1780   25.3170  -24.0530 N   0  0  0  0  0  0  0  0  0  0  0  0
    0.2120   24.6480  -23.3510 H   0  0  0  0  0  0  0  0  0  0  0  0
   -0.5750   26.5800  -23.7460 C   0  0  0  0  0  0  0  0  0  0  0  0
   -0.5123   26.9901  -22.7272 H   0  0  0  0  0  0  0  0  0  0  0  0
  1  2  1  0
  2  3  1  0
  3  4  1  0
  4  5  2  0
  5  6  1  0
  6  7  2  0
  6  8  2  0
  6  9  1  0
  9 10  2  0
 10 11  1  0
 10 12  1  0
 12 13  1  0
 12 14  2  0
 14 15  1  0
 15 16  1  0
 15 17  1  0
 17 18  1  0
 17 19  1  0
 17 20  1  0
 20 21  2  0
 21 22  1  0
 21 23  1  0
 23 24  1  0
 23 25  2  0
 25 26  1  0
 26 27  1  0
 27 28  1  0
 27 29  1  0
 27 30  1  0
 26 31  1  0
 31 32  1  0
 31 33  1  0
 31 34  1  0
 26 35  1  0
 35 36  1  0
 35 37  1  0
 35 38  1  0
 25 39  1  0
 39 40  1  0
 39 41  2  0
 41 42  1  0
 14 43  1  0
 43 44  1  0
 43 45  2  0
 45 46  1  0
  4 47  1  0
 47 48  1  0
 47 49  1  0
 49 50  1  0
 49  2  2  0
 45  9  1  0
 41 20  1  0
M  END
>  <UniqueID>  (17) 
16

>  <SMILES>  (17) 
CC(C)(C)c1ccc(CNc2ccc(S(=O)(=O)/N=c3/[nH]ccs3)cc2)cc1

>  <Energy>  (17) 
85.62015803864828

>  <Genealogy>  (17) 
CC(C)(C)c1ccc(CNc2ccc(S(=O)(=O)/N=c3/[nH]ccs3)cc2)cc1 (cis-trans isomerization)
CC(C)(C)c1ccc(CNc2ccc(S(=O)(=O)/N=c3/[nH]ccs3)cc2)cc1 (3D coordinates assigned)
CC(C)(C)c1ccc(CNc2ccc(S(=O)(=O)/N=c3/[nH]ccs3)cc2)cc1 (optimized conformer: 85.62015803864828 kcal/mol)

>  <smiles>  (17) 
CC(C)(C)c1ccc(CNc2ccc(S(=O)(=O)N=c3[nH]ccs3)cc2)cc1

>  <score_type>  (17) 
oracle

>  <origin>  (17) 
adgpu

>  <m_score__min__energy>  (17) 
-10.109999999999999

>  <m_primary>  (17) 
energy

$$$$
17:0
     RDKit          3D

 47 50  0  0  0  0  0  0  0  0999 V2000
   -0.3230   22.4670  -28.8070 C   0  0  0  0  0  0  0  0  0  0  0  0
    0.0940   23.5300  -27.8270 C   0  0  0  0  0  0  0  0  0  0  0  0
    1.0050   23.2160  -26.8050 C   0  0  0  0  0  0  0  0  0  0  0  0
    1.4060   24.1900  -25.8920 C   0  0  0  0  0  0  0  0  0  0  0  0
    0.9150   25.4910  -25.9950 C   0  0  0  0  0  0  0  0  0  0  0  0
    0.0150   25.8280  -27.0110 C   0  0  0  0  0  0  0  0  0  0  0  0
   -0.5050   27.5030  -27.1490 Cl  0  0  0  0  0  0  0  0  0  0  0  0
   -0.4120   24.8460  -27.9290 C   0  0  0  0  0  0  0  0  0  0  0  0
   -1.3270   25.1830  -28.9840 N   0  0  0  0  0  0  0  0  0  0  0  0
   -2.6450   24.6300  -29.0640 C   0  0  0  0  0  0  0  0  0  0  0  0
   -3.0180   23.7570  -28.2330 O   0  0  0  0  0  0  0  0  0  0  0  0
   -3.5060   25.0280  -30.1370 N   0  0  0  0  0  0  0  0  0  0  0  0
   -4.7850   24.4600  -30.4570 C   0  0  0  0  0  0  0  0  0  0  0  0
   -5.9890   25.0860  -30.0910 C   0  0  0  0  0  0  0  0  0  0  0  0
   -7.2130   24.5140  -30.4470 C   0  0  0  0  0  0  0  0  0  0  0  0
   -7.2480   23.3250  -31.1790 C   0  0  0  0  0  0  0  0  0  0  0  0
   -6.0540   22.6970  -31.5740 C   0  0  0  0  0  0  0  0  0  0  0  0
   -6.0890   21.4400  -32.3620 C   0  0  0  0  0  0  0  0  0  0  0  0
   -7.3270   20.8170  -32.6820 C   0  0  0  0  0  0  0  0  0  0  0  0
   -7.3630   19.6610  -33.4100 N   0  0  0  0  0  0  0  0  0  0  0  0
   -6.1990   19.1040  -33.8240 C   0  0  0  0  0  0  0  0  0  0  0  0
   -6.0740   17.9860  -34.5560 N   0  0  0  0  0  0  0  0  0  0  0  0
   -4.7440   17.8240  -34.7460 C   0  0  0  0  0  0  0  0  0  0  0  0
   -4.0330   18.8440  -34.1150 C   0  0  0  0  0  0  0  0  0  0  0  0
   -2.5540   19.0580  -34.1480 C   0  0  0  0  0  0  0  0  0  0  0  0
   -2.2820   20.4260  -34.0410 O   0  0  0  0  0  0  0  0  0  0  0  0
   -4.9870   19.6600  -33.5410 C   0  0  0  0  0  0  0  0  0  0  0  0
   -4.8890   20.8400  -32.8100 C   0  0  0  0  0  0  0  0  0  0  0  0
   -4.8260   23.2820  -31.2120 C   0  0  0  0  0  0  0  0  0  0  0  0
   -0.6713   21.5792  -28.2588 H   0  0  0  0  0  0  0  0  0  0  0  0
   -1.1374   22.8504  -29.4393 H   0  0  0  0  0  0  0  0  0  0  0  0
    0.5348   22.1944  -29.4393 H   0  0  0  0  0  0  0  0  0  0  0  0
    1.4048   22.1944  -26.7246 H   0  0  0  0  0  0  0  0  0  0  0  0
    2.1114   23.9317  -25.0884 H   0  0  0  0  0  0  0  0  0  0  0  0
    1.2372   26.2562  -25.2734 H   0  0  0  0  0  0  0  0  0  0  0  0
   -0.9720   25.7350  -29.7970 H   0  0  0  0  0  0  0  0  0  0  0  0
   -5.9676   26.0279  -29.5233 H   0  0  0  0  0  0  0  0  0  0  0  0
   -8.1529   25.0020  -30.1496 H   0  0  0  0  0  0  0  0  0  0  0  0
   -8.2160   22.8772  -31.4481 H   0  0  0  0  0  0  0  0  0  0  0  0
   -8.2680   21.2718  -32.3389 H   0  0  0  0  0  0  0  0  0  0  0  0
   -6.8410   17.3760  -34.9160 H   0  0  0  0  0  0  0  0  0  0  0  0
   -4.2877   17.0027  -35.3181 H   0  0  0  0  0  0  0  0  0  0  0  0
   -2.0866   18.5237  -33.3077 H   0  0  0  0  0  0  0  0  0  0  0  0
   -2.1474   18.6746  -35.0955 H   0  0  0  0  0  0  0  0  0  0  0  0
   -2.3940   20.8010  -34.9520 H   0  0  0  0  0  0  0  0  0  0  0  0
   -3.9107   21.2912  -32.5879 H   0  0  0  0  0  0  0  0  0  0  0  0
   -3.8853   22.8067  -31.5269 H   0  0  0  0  0  0  0  0  0  0  0  0
  1  2  1  0
  2  3  2  0
  3  4  1  0
  4  5  2  0
  5  6  1  0
  6  7  1  0
  6  8  2  0
  8  9  1  0
  9 10  1  0
 10 11  2  0
 10 12  1  0
 12 13  1  0
 13 14  2  0
 14 15  1  0
 15 16  2  0
 16 17  1  0
 17 18  1  0
 18 19  2  0
 19 20  1  0
 20 21  2  0
 21 22  1  0
 22 23  1  0
 23 24  2  0
 24 25  1  0
 25 26  1  0
 24 27  1  0
 27 28  2  0
 17 29  2  0
  8  2  1  0
 29 13  1  0
 28 18  1  0
 27 21  1  0
  1 30  1  0
  1 31  1  0
  1 32  1  0
  3 33  1  0
  4 34  1  0
  5 35  1  0
  9 36  1  0
 14 37  1  0
 15 38  1  0
 16 39  1  0
 19 40  1  0
 22 41  1  0
 23 42  1  0
 25 43  1  0
 25 44  1  0
 26 45  1  0
 28 46  1  0
 29 47  1  0
M  CHG  1  12  -1
M  END
>  <UniqueID>  (18) 
17

>  <SMILES>  (18) 
Cc1cccc(Cl)c1NC(=O)[N-]c1cccc(-c2cnc3[nH]cc(CO)c3c2)c1

>  <Energy>  (18) 
99.51639773614556

>  <Genealogy>  (18) 
Cc1cccc(Cl)c1NC(=O)[N-]c1cccc(-c2cnc3[nH]cc(CO)c3c2)c1 (protonated)
Cc1cccc(Cl)c1NC(=O)[N-]c1cccc(-c2cnc3[nH]cc(CO)c3c2)c1 (3D coordinates assigned)
Cc1cccc(Cl)c1NC(=O)[N-]c1cccc(-c2cnc3[nH]cc(CO)c3c2)c1 (optimized conformer: 99.51639773614556 kcal/mol)

>  <smiles>  (18) 
Cc1cccc(Cl)c1NC(=O)Nc1cccc(-c2cnc3[nH]cc(CO)c3c2)c1

>  <score_type>  (18) 
oracle

>  <origin>  (18) 
adgpu

>  <m_score__min__energy>  (18) 
-11

>  <m_primary>  (18) 
energy

$$$$
18:0
     RDKit          3D

 48 51  0  0  0  0  0  0  0  0999 V2000
   -5.6470   26.3480  -30.8370 O   0  0  0  0  0  0  0  0  0  0  0  0
   -4.9990   25.2680  -30.8510 C   0  0  0  0  0  0  0  0  0  0  0  0
   -3.6330   25.2800  -30.4130 N   0  0  0  0  0  0  0  0  0  0  0  0
   -3.0770   24.4840  -29.3570 C   0  0  0  0  0  0  0  0  0  0  0  0
   -3.8340   23.5000  -28.6980 C   0  0  0  0  0  0  0  0  0  0  0  0
   -3.2640   22.7500  -27.6660 C   0  0  0  0  0  0  0  0  0  0  0  0
   -1.9450   22.9890  -27.2710 C   0  0  0  0  0  0  0  0  0  0  0  0
   -1.1900   23.9880  -27.9000 C   0  0  0  0  0  0  0  0  0  0  0  0
    0.4650   24.3130  -27.3790 S   0  0  0  0  0  0  0  0  0  0  0  0
    0.9980   23.1130  -26.6470 O   0  0  0  0  0  0  0  0  0  0  0  0
    1.3290   24.5420  -28.5880 O   0  0  0  0  0  0  0  0  0  0  0  0
    0.5440   25.7110  -26.3310 N   0  0  0  0  0  0  0  0  0  0  0  0
    0.7550   25.3220  -24.9150 C   0  0  0  0  0  0  0  0  0  0  0  0
   -0.5240   25.4190  -24.0690 C   0  0  0  0  0  0  0  0  0  0  0  0
   -1.0960   26.8480  -24.0900 C   0  0  0  0  0  0  0  0  0  0  0  0
   -0.8080   27.5850  -25.4110 C   0  0  0  0  0  0  0  0  0  0  0  0
   -0.6190   26.5960  -26.5650 C   0  0  0  0  0  0  0  0  0  0  0  0
   -1.7620   24.7330  -28.9420 C   0  0  0  0  0  0  0  0  0  0  0  0
   -5.6560   24.0440  -31.3550 C   0  0  0  0  0  0  0  0  0  0  0  0
   -7.0410   23.8530  -31.2340 C   0  0  0  0  0  0  0  0  0  0  0  0
   -7.6280   22.6790  -31.7170 C   0  0  0  0  0  0  0  0  0  0  0  0
   -8.8750   22.5210  -31.6110 O   0  0  0  0  0  0  0  0  0  0  0  0
   -6.8220   21.6900  -32.3100 C   0  0  0  0  0  0  0  0  0  0  0  0
   -7.3600   20.4910  -32.8130 C   0  0  0  0  0  0  0  0  0  0  0  0
   -6.5200   19.5320  -33.3890 C   0  0  0  0  0  0  0  0  0  0  0  0
   -5.1440   19.7580  -33.4670 C   0  0  0  0  0  0  0  0  0  0  0  0
   -4.5970   20.9450  -32.9700 C   0  0  0  0  0  0  0  0  0  0  0  0
   -5.4280   21.9130  -32.3940 C   0  0  0  0  0  0  0  0  0  0  0  0
   -4.8920   23.0670  -31.9170 N   0  0  0  0  0  0  0  0  0  0  0  0
   -4.8776   23.3199  -28.9954 H   0  0  0  0  0  0  0  0  0  0  0  0
   -3.8547   21.9699  -27.1635 H   0  0  0  0  0  0  0  0  0  0  0  0
   -1.4978   22.3908  -26.4634 H   0  0  0  0  0  0  0  0  0  0  0  0
    1.1160   24.2833  -24.8868 H   0  0  0  0  0  0  0  0  0  0  0  0
    1.4868   26.0227  -24.4867 H   0  0  0  0  0  0  0  0  0  0  0  0
   -1.2757   24.7253  -24.4736 H   0  0  0  0  0  0  0  0  0  0  0  0
   -0.2758   25.1575  -23.0297 H   0  0  0  0  0  0  0  0  0  0  0  0
   -2.1854   26.7929  -23.9482 H   0  0  0  0  0  0  0  0  0  0  0  0
   -0.6082   27.4126  -23.2818 H   0  0  0  0  0  0  0  0  0  0  0  0
   -1.6529   28.2501  -25.6428 H   0  0  0  0  0  0  0  0  0  0  0  0
    0.1194   28.1645  -25.2924 H   0  0  0  0  0  0  0  0  0  0  0  0
   -1.5249   25.9793  -26.6602 H   0  0  0  0  0  0  0  0  0  0  0  0
   -0.4390   27.1688  -27.4867 H   0  0  0  0  0  0  0  0  0  0  0  0
   -1.1733   25.5192  -29.4374 H   0  0  0  0  0  0  0  0  0  0  0  0
   -7.6641   24.6256  -30.7599 H   0  0  0  0  0  0  0  0  0  0  0  0
   -8.4429   20.3075  -32.7532 H   0  0  0  0  0  0  0  0  0  0  0  0
   -6.9448   18.5965  -33.7819 H   0  0  0  0  0  0  0  0  0  0  0  0
   -4.4886   19.0000  -33.9207 H   0  0  0  0  0  0  0  0  0  0  0  0
   -3.5125   21.1183  -33.0317 H   0  0  0  0  0  0  0  0  0  0  0  0
  1  2  2  0
  2  3  1  0
  3  4  1  0
  4  5  2  0
  5  6  1  0
  6  7  2  0
  7  8  1  0
  8  9  1  0
  9 10  2  0
  9 11  2  0
  9 12  1  0
 12 13  1  0
 13 14  1  0
 14 15  1  0
 15 16  1  0
 16 17  1  0
  8 18  2  0
  2 19  1  0
 19 20  2  0
 20 21  1  0
 21 22  2  0
 21 23  1  0
 23 24  2  0
 24 25  1  0
 25 26  2  0
 26 27  1  0
 27 28  2  0
 28 29  1  0
 18  4  1  0
 29 19  1  0
 17 12  1  0
 28 23  1  0
  5 30  1  0
  6 31  1  0
  7 32  1  0
 13 33  1  0
 13 34  1  0
 14 35  1  0
 14 36  1  0
 15 37  1  0
 15 38  1  0
 16 39  1  0
 16 40  1  0
 17 41  1  0
 17 42  1  0
 18 43  1  0
 20 44  1  0
 24 45  1  0
 25 46  1  0
 26 47  1  0
 27 48  1  0
M  CHG  2   3  -1  29  -1
M  END
>  <UniqueID>  (19) 
18

>  <SMILES>  (19) 
O=C([N-]c1cccc(S(=O)(=O)N2CCCCC2)c1)c1cc(=O)c2ccccc2[n-]1

>  <Energy>  (19) 
66.6468873788159

>  <Genealogy>  (19) 
O=C([N-]c1cccc(S(=O)(=O)N2CCCCC2)c1)c1cc(=O)c2ccccc2[n-]1 (protonated)
O=C([N-]c1cccc(S(=O)(=O)N2CCCCC2)c1)c1cc(=O)c2ccccc2[n-]1 (3D coordinates assigned)
O=C([N-]c1cccc(S(=O)(=O)N2CCCCC2)c1)c1cc(=O)c2ccccc2[n-]1 (nonaromatic ring conformer: 66.6468873788159 kcal/mol)

>  <smiles>  (19) 
O=C(Nc1cccc(S(=O)(=O)N2CCCCC2)c1)c1cc(=O)c2ccccc2[nH]1

>  <score_type>  (19) 
oracle

>  <origin>  (19) 
adgpu

>  <m_score__min__energy>  (19) 
-12.84

>  <m_primary>  (19) 
energy

$$$$
19:0
     RDKit          3D

 48 50  0  0  0  0  0  0  0  0999 V2000
    0.1730   20.1490  -29.2060 C   0  0  0  0  0  0  0  0  0  0  0  0
   -0.7090   20.1420  -30.4120 C   0  0  0  0  0  0  0  0  0  0  0  0
   -0.8520   19.0550  -31.2000 N   0  0  0  0  0  0  0  0  0  0  0  0
   -1.6190   19.3910  -32.2260 N   0  0  0  0  0  0  0  0  0  0  0  0
   -1.9700   18.4740  -33.3030 C   0  0  0  0  0  0  0  0  0  0  0  0
   -1.9540   20.6960  -32.1380 C   0  0  0  0  0  0  0  0  0  0  0  0
   -2.8330   21.4280  -33.1060 C   0  0  0  0  0  0  0  0  0  0  0  0
   -1.4140   21.2020  -30.9750 C   0  0  0  0  0  0  0  0  0  0  0  0
   -1.5450   22.5590  -30.5350 N   0  0  0  0  0  0  0  0  0  0  0  0
   -2.7380   23.1760  -29.4400 S   0  0  0  0  0  0  0  0  0  0  0  0
   -2.9070   22.2240  -28.2880 O   0  0  0  0  0  0  0  0  0  0  0  0
   -2.3180   24.5310  -28.9450 O   0  0  0  0  0  0  0  0  0  0  0  0
   -4.2890   23.3210  -30.2690 C   0  0  0  0  0  0  0  0  0  0  0  0
   -5.1440   22.2140  -30.3690 C   0  0  0  0  0  0  0  0  0  0  0  0
   -6.3870   22.3240  -31.0080 C   0  0  0  0  0  0  0  0  0  0  0  0
   -7.2320   21.1660  -31.1180 N   0  0  0  0  0  0  0  0  0  0  0  0
   -6.9060   19.9920  -31.8830 C   0  0  0  0  0  0  0  0  0  0  0  0
   -7.6590   18.8270  -31.7070 C   0  0  0  0  0  0  0  0  0  0  0  0
   -7.3790   17.6810  -32.4540 C   0  0  0  0  0  0  0  0  0  0  0  0
   -6.3430   17.6770  -33.4090 C   0  0  0  0  0  0  0  0  0  0  0  0
   -6.0720   16.4330  -34.1820 C   0  0  0  0  0  0  0  0  0  0  0  0
   -4.8480   16.2540  -34.8900 N   0  0  0  0  0  0  0  0  0  0  0  0
   -6.9310   15.5110  -34.2140 O   0  0  0  0  0  0  0  0  0  0  0  0
   -5.5990   18.8650  -33.6070 C   0  0  0  0  0  0  0  0  0  0  0  0
   -4.5780   18.9210  -34.5570 O   0  0  0  0  0  0  0  0  0  0  0  0
   -5.8900   20.0090  -32.8500 C   0  0  0  0  0  0  0  0  0  0  0  0
   -6.7540   23.5520  -31.5860 C   0  0  0  0  0  0  0  0  0  0  0  0
   -5.9100   24.6590  -31.4860 C   0  0  0  0  0  0  0  0  0  0  0  0
   -4.6820   24.5510  -30.8260 C   0  0  0  0  0  0  0  0  0  0  0  0
   -3.8600   25.6680  -30.7310 O   0  0  0  0  0  0  0  0  0  0  0  0
   -0.4476   20.1441  -28.2978 H   0  0  0  0  0  0  0  0  0  0  0  0
    0.8151   19.2559  -29.2162 H   0  0  0  0  0  0  0  0  0  0  0  0
    0.8009   21.0522  -29.2162 H   0  0  0  0  0  0  0  0  0  0  0  0
   -2.3323   17.5275  -32.8753 H   0  0  0  0  0  0  0  0  0  0  0  0
   -2.7601   18.9222  -33.9233 H   0  0  0  0  0  0  0  0  0  0  0  0
   -1.0825   18.2801  -33.9233 H   0  0  0  0  0  0  0  0  0  0  0  0
   -3.5629   22.0358  -32.5512 H   0  0  0  0  0  0  0  0  0  0  0  0
   -2.2159   22.0829  -33.7387 H   0  0  0  0  0  0  0  0  0  0  0  0
   -3.3654   20.7026  -33.7387 H   0  0  0  0  0  0  0  0  0  0  0  0
   -4.8359   21.2485  -29.9413 H   0  0  0  0  0  0  0  0  0  0  0  0
   -8.1470   21.1800  -30.6130 H   0  0  0  0  0  0  0  0  0  0  0  0
   -8.4789   18.8132  -30.9738 H   0  0  0  0  0  0  0  0  0  0  0  0
   -7.9746   16.7700  -32.2949 H   0  0  0  0  0  0  0  0  0  0  0  0
   -4.4940   16.9860  -35.5470 H   0  0  0  0  0  0  0  0  0  0  0  0
   -4.2050   18.0840  -34.9890 H   0  0  0  0  0  0  0  0  0  0  0  0
   -5.3143   20.9314  -33.0166 H   0  0  0  0  0  0  0  0  0  0  0  0
   -7.7116   23.6407  -32.1200 H   0  0  0  0  0  0  0  0  0  0  0  0
   -6.2119   25.6200  -31.9280 H   0  0  0  0  0  0  0  0  0  0  0  0
  1  2  1  0
  2  3  2  0
  3  4  1  0
  4  5  1  0
  4  6  1  0
  6  7  1  0
  6  8  2  0
  8  9  1  0
  9 10  1  0
 10 11  2  0
 10 12  2  0
 10 13  1  0
 13 14  2  0
 14 15  1  0
 15 16  1  0
 16 17  1  0
 17 18  2  0
 18 19  1  0
 19 20  2  0
 20 21  1  0
 21 22  1  0
 21 23  2  0
 20 24  1  0
 24 25  1  0
 24 26  2  0
 15 27  2  0
 27 28  1  0
 28 29  2  0
 29 30  1  0
  8  2  1  0
 29 13  1  0
 26 17  1  0
  1 31  1  0
  1 32  1  0
  1 33  1  0
  5 34  1  0
  5 35  1  0
  5 36  1  0
  7 37  1  0
  7 38  1  0
  7 39  1  0
 14 40  1  0
 16 41  1  0
 18 42  1  0
 19 43  1  0
 22 44  1  0
 25 45  1  0
 26 46  1  0
 27 47  1  0
 28 48  1  0
M  CHG  3   9  -1  22  -1  30  -1
M  END
>  <UniqueID>  (20) 
19

>  <SMILES>  (20) 
Cc1nn(C)c(C)c1[N-]S(=O)(=O)c1cc(Nc2ccc(C([NH-])=O)c(O)c2)ccc1[O-]

>  <Energy>  (20) 
93.92352924418562

>  <Genealogy>  (20) 
Cc1nn(C)c(C)c1[N-]S(=O)(=O)c1cc(Nc2ccc(C([NH-])=O)c(O)c2)ccc1[O-] (protonated)
Cc1nn(C)c(C)c1[N-]S(=O)(=O)c1cc(Nc2ccc(C([NH-])=O)c(O)c2)ccc1[O-] (3D coordinates assigned)
Cc1nn(C)c(C)c1[N-]S(=O)(=O)c1cc(Nc2ccc(C([NH-])=O)c(O)c2)ccc1[O-] (optimized conformer: 93.92352924418562 kcal/mol)

>  <smiles>  (20) 
Cc1nn(C)c(C)c1NS(=O)(=O)c1cc(Nc2ccc(C(N)=O)c(O)c2)ccc1O

>  <score_type>  (20) 
oracle

>  <origin>  (20) 
adgpu

>  <m_score__min__energy>  (20) 
-11.58

>  <m_primary>  (20) 
energy

$$$$
20:0
     RDKit          3D

 55 58  0  0  0  0  0  0  0  0999 V2000
    0.1060   19.6750  -33.9480 O   0  0  0  0  0  0  0  0  0  0  0  0
   -0.8010   20.6760  -33.2920 S   0  0  0  0  0  0  0  0  0  0  0  0
   -0.9160   21.8800  -34.1860 O   0  0  0  0  0  0  0  0  0  0  0  0
   -0.1090   21.1670  -31.7740 N   0  0  0  0  0  0  0  0  0  0  0  0
   -0.2110   20.0800  -30.7950 C   0  0  0  0  0  0  0  0  0  0  0  0
   -0.1340   20.6320  -29.3700 C   0  0  0  0  0  0  0  0  0  0  0  0
   -1.7670   21.2060  -28.7770 S   0  0  0  0  0  0  0  0  0  0  0  0
   -1.3160   22.9440  -28.7260 C   0  0  0  0  0  0  0  0  0  0  0  0
   -0.1040   23.3910  -28.3530 N   0  0  0  0  0  0  0  0  0  0  0  0
   -0.1360   24.6980  -28.5710 N   0  0  0  0  0  0  0  0  0  0  0  0
   -1.3160   25.0480  -29.0630 N   0  0  0  0  0  0  0  0  0  0  0  0
   -2.0730   23.9710  -29.1590 N   0  0  0  0  0  0  0  0  0  0  0  0
   -3.4050   23.9590  -29.6960 C   0  0  0  0  0  0  0  0  0  0  0  0
   -4.4610   24.5330  -28.9690 C   0  0  0  0  0  0  0  0  0  0  0  0
   -5.7600   24.5250  -29.4860 C   0  0  0  0  0  0  0  0  0  0  0  0
   -6.0170   23.9340  -30.7270 C   0  0  0  0  0  0  0  0  0  0  0  0
   -4.9760   23.3400  -31.4430 C   0  0  0  0  0  0  0  0  0  0  0  0
   -3.6760   23.3460  -30.9300 C   0  0  0  0  0  0  0  0  0  0  0  0
   -2.3870   19.9400  -33.0630 C   0  0  0  0  0  0  0  0  0  0  0  0
   -2.7900   18.8520  -33.8530 C   0  0  0  0  0  0  0  0  0  0  0  0
   -4.0450   18.2700  -33.6620 C   0  0  0  0  0  0  0  0  0  0  0  0
   -4.9110   18.7700  -32.6820 C   0  0  0  0  0  0  0  0  0  0  0  0
   -6.4830   18.0130  -32.4360 S   0  0  0  0  0  0  0  0  0  0  0  0
   -6.4940   16.6490  -33.0670 O   0  0  0  0  0  0  0  0  0  0  0  0
   -6.7020   17.8480  -30.9570 O   0  0  0  0  0  0  0  0  0  0  0  0
   -7.7530   19.0170  -33.1050 N   0  0  0  0  0  0  0  0  0  0  0  0
   -7.2730   20.3810  -33.4150 C   0  0  0  0  0  0  0  0  0  0  0  0
   -7.6390   21.4070  -32.3280 C   0  0  0  0  0  0  0  0  0  0  0  0
   -7.6580   20.7880  -31.0610 O   0  0  0  0  0  0  0  0  0  0  0  0
   -8.7470   19.8880  -30.9720 C   0  0  0  0  0  0  0  0  0  0  0  0
   -8.9490   19.0340  -32.2450 C   0  0  0  0  0  0  0  0  0  0  0  0
   -4.5080   19.8540  -31.8880 C   0  0  0  0  0  0  0  0  0  0  0  0
   -3.2510   20.4350  -32.0760 C   0  0  0  0  0  0  0  0  0  0  0  0
    0.9030   21.3550  -31.9520 H   0  0  0  0  0  0  0  0  0  0  0  0
   -1.1709   19.5601  -30.9303 H   0  0  0  0  0  0  0  0  0  0  0  0
    0.6243   19.3816  -30.9512 H   0  0  0  0  0  0  0  0  0  0  0  0
    0.2300   19.8393  -28.6999 H   0  0  0  0  0  0  0  0  0  0  0  0
    0.5516   21.4922  -29.3722 H   0  0  0  0  0  0  0  0  0  0  0  0
   -4.2650   24.9910  -27.9883 H   0  0  0  0  0  0  0  0  0  0  0  0
   -6.5810   24.9842  -28.9158 H   0  0  0  0  0  0  0  0  0  0  0  0
   -7.0372   23.9371  -31.1382 H   0  0  0  0  0  0  0  0  0  0  0  0
   -5.1797   22.8656  -32.4143 H   0  0  0  0  0  0  0  0  0  0  0  0
   -2.8619   22.8687  -31.4951 H   0  0  0  0  0  0  0  0  0  0  0  0
   -2.1145   18.4562  -34.6257 H   0  0  0  0  0  0  0  0  0  0  0  0
   -4.3540   17.4164  -34.2832 H   0  0  0  0  0  0  0  0  0  0  0  0
   -6.1781   20.3530  -33.5166 H   0  0  0  0  0  0  0  0  0  0  0  0
   -7.7630   20.6991  -34.3471 H   0  0  0  0  0  0  0  0  0  0  0  0
   -6.8936   22.2159  -32.3261 H   0  0  0  0  0  0  0  0  0  0  0  0
   -8.6371   21.8167  -32.5424 H   0  0  0  0  0  0  0  0  0  0  0  0
   -8.5703   19.2109  -30.1233 H   0  0  0  0  0  0  0  0  0  0  0  0
   -9.6562   20.4932  -30.8416 H   0  0  0  0  0  0  0  0  0  0  0  0
   -9.1830   18.0020  -31.9447 H   0  0  0  0  0  0  0  0  0  0  0  0
   -9.7712   19.4817  -32.8225 H   0  0  0  0  0  0  0  0  0  0  0  0
   -5.1838   20.2481  -31.1147 H   0  0  0  0  0  0  0  0  0  0  0  0
   -2.9388   21.2826  -31.4482 H   0  0  0  0  0  0  0  0  0  0  0  0
  1  2  2  0
  2  3  2  0
  2  4  1  0
  4  5  1  0
  5  6  1  0
  6  7  1  0
  7  8  1  0
  8  9  2  0
  9 10  1  0
 10 11  2  0
 11 12  1  0
 12 13  1  0
 13 14  2  0
 14 15  1  0
 15 16  2  0
 16 17  1  0
 17 18  2  0
  2 19  1  0
 19 20  2  0
 20 21  1  0
 21 22  2  0
 22 23  1  0
 23 24  2  0
 23 25  2  0
 23 26  1  0
 26 27  1  0
 27 28  1  0
 28 29  1  0
 29 30  1  0
 30 31  1  0
 22 32  1  0
 32 33  2  0
 12  8  1  0
 18 13  1  0
 33 19  1  0
 31 26  1  0
  4 34  1  0
  5 35  1  0
  5 36  1  0
  6 37  1  0
  6 38  1  0
 14 39  1  0
 15 40  1  0
 16 41  1  0
 17 42  1  0
 18 43  1  0
 20 44  1  0
 21 45  1  0
 27 46  1  0
 27 47  1  0
 28 48  1  0
 28 49  1  0
 30 50  1  0
 30 51  1  0
 31 52  1  0
 31 53  1  0
 32 54  1  0
 33 55  1  0
M  END
>  <UniqueID>  (21) 
20

>  <SMILES>  (21) 
O=S(=O)(NCCSc1nnnn1-c1ccccc1)c1ccc(S(=O)(=O)N2CCOCC2)cc1

>  <Energy>  (21) 
107.54800957021929

>  <Genealogy>  (21) 
O=S(=O)(NCCSc1nnnn1-c1ccccc1)c1ccc(S(=O)(=O)N2CCOCC2)cc1 (3D coordinates assigned)
O=S(=O)(NCCSc1nnnn1-c1ccccc1)c1ccc(S(=O)(=O)N2CCOCC2)cc1 (nonaromatic ring conformer: 107.54800957021929 kcal/mol)

>  <smiles>  (21) 
O=S(=O)(NCCSc1nnnn1-c1ccccc1)c1ccc(S(=O)(=O)N2CCOCC2)cc1

>  <score_type>  (21) 
oracle

>  <origin>  (21) 
adgpu

>  <m_score__min__energy>  (21) 
-11.27

>  <m_primary>  (21) 
energy

$$$$
21:0
     RDKit          3D

 57 60  0  0  0  0  0  0  0  0999 V2000
   -5.2410   23.2820  -32.3770 O   0  0  0  0  0  0  0  0  0  0  0  0
   -4.7850   22.2670  -31.7830 C   0  0  0  0  0  0  0  0  0  0  0  0
   -5.6390   21.1280  -31.5540 N   0  0  0  0  0  0  0  0  0  0  0  0
   -7.0580   21.1430  -31.7970 C   0  0  0  0  0  0  0  0  0  0  0  0
   -7.8640   22.1660  -31.2650 C   0  0  0  0  0  0  0  0  0  0  0  0
   -9.2470   22.1530  -31.4600 C   0  0  0  0  0  0  0  0  0  0  0  0
   -9.8430   21.1150  -32.1770 C   0  0  0  0  0  0  0  0  0  0  0  0
   -9.0580   20.0820  -32.6960 C   0  0  0  0  0  0  0  0  0  0  0  0
   -7.6670   20.0870  -32.5120 C   0  0  0  0  0  0  0  0  0  0  0  0
   -6.8800   19.0040  -33.0350 N   0  0  0  0  0  0  0  0  0  0  0  0
   -7.0190   17.6690  -32.4280 C   0  0  0  0  0  0  0  0  0  0  0  0
   -6.4010   16.5410  -33.2830 C   0  0  0  0  0  0  0  0  0  0  0  0
   -6.2350   16.9140  -34.6370 O   0  0  0  0  0  0  0  0  0  0  0  0
   -5.3480   18.0090  -34.7040 C   0  0  0  0  0  0  0  0  0  0  0  0
   -6.0560   19.2710  -34.2230 C   0  0  0  0  0  0  0  0  0  0  0  0
   -3.3560   22.2410  -31.3880 C   0  0  0  0  0  0  0  0  0  0  0  0
   -2.4810   21.3040  -31.9660 C   0  0  0  0  0  0  0  0  0  0  0  0
   -1.1360   21.2530  -31.5810 C   0  0  0  0  0  0  0  0  0  0  0  0
   -0.6520   22.1270  -30.6060 C   0  0  0  0  0  0  0  0  0  0  0  0
   -1.5120   23.0660  -30.0200 C   0  0  0  0  0  0  0  0  0  0  0  0
   -0.9380   24.1440  -28.7510 S   0  0  0  0  0  0  0  0  0  0  0  0
   -1.4440   25.5230  -29.0430 O   0  0  0  0  0  0  0  0  0  0  0  0
    0.5600   24.1620  -28.7420 O   0  0  0  0  0  0  0  0  0  0  0  0
   -1.5600   23.5900  -27.2080 N   0  0  0  0  0  0  0  0  0  0  0  0
   -1.5190   24.6310  -26.1550 C   0  0  0  0  0  0  0  0  0  0  0  0
   -2.6760   25.6430  -26.2460 C   0  0  0  0  0  0  0  0  0  0  0  0
   -4.0270   24.9340  -26.3360 C   0  0  0  0  0  0  0  0  0  0  0  0
   -4.0290   23.9220  -27.4820 C   0  0  0  0  0  0  0  0  0  0  0  0
   -2.8730   22.9260  -27.3190 C   0  0  0  0  0  0  0  0  0  0  0  0
   -2.8500   23.1380  -30.4290 C   0  0  0  0  0  0  0  0  0  0  0  0
   -5.1880   20.2020  -31.3940 H   0  0  0  0  0  0  0  0  0  0  0  0
   -7.4014   22.9824  -30.6910 H   0  0  0  0  0  0  0  0  0  0  0  0
   -9.8673   22.9624  -31.0476 H   0  0  0  0  0  0  0  0  0  0  0  0
  -10.9317   21.1098  -32.3339 H   0  0  0  0  0  0  0  0  0  0  0  0
   -9.5332   19.2603  -33.2519 H   0  0  0  0  0  0  0  0  0  0  0  0
   -6.5197   17.6775  -31.4479 H   0  0  0  0  0  0  0  0  0  0  0  0
   -8.0957   17.4605  -32.3432 H   0  0  0  0  0  0  0  0  0  0  0  0
   -5.4168   16.2815  -32.8658 H   0  0  0  0  0  0  0  0  0  0  0  0
   -7.0916   15.6853  -33.2553 H   0  0  0  0  0  0  0  0  0  0  0  0
   -4.4750   17.8126  -34.0643 H   0  0  0  0  0  0  0  0  0  0  0  0
   -5.0183   18.1490  -35.7441 H   0  0  0  0  0  0  0  0  0  0  0  0
   -5.3015   20.0310  -33.9718 H   0  0  0  0  0  0  0  0  0  0  0  0
   -6.7151   19.6267  -35.0287 H   0  0  0  0  0  0  0  0  0  0  0  0
   -2.8568   20.6048  -32.7275 H   0  0  0  0  0  0  0  0  0  0  0  0
   -0.4589   20.5225  -32.0479 H   0  0  0  0  0  0  0  0  0  0  0  0
    0.4029   22.0789  -30.2980 H   0  0  0  0  0  0  0  0  0  0  0  0
   -1.5660   24.1358  -25.1739 H   0  0  0  0  0  0  0  0  0  0  0  0
   -0.5846   25.1947  -26.2936 H   0  0  0  0  0  0  0  0  0  0  0  0
   -2.6652   26.2814  -25.3503 H   0  0  0  0  0  0  0  0  0  0  0  0
   -2.5390   26.2467  -27.1553 H   0  0  0  0  0  0  0  0  0  0  0  0
   -4.2232   24.4087  -25.3897 H   0  0  0  0  0  0  0  0  0  0  0  0
   -4.8091   25.6842  -26.5244 H   0  0  0  0  0  0  0  0  0  0  0  0
   -4.9827   23.3738  -27.4796 H   0  0  0  0  0  0  0  0  0  0  0  0
   -3.9044   24.4602  -28.4332 H   0  0  0  0  0  0  0  0  0  0  0  0
   -3.0454   22.3329  -26.4088 H   0  0  0  0  0  0  0  0  0  0  0  0
   -2.8502   22.2936  -28.2187 H   0  0  0  0  0  0  0  0  0  0  0  0
   -3.5114   23.9031  -29.9963 H   0  0  0  0  0  0  0  0  0  0  0  0
  1  2  2  0
  2  3  1  0
  3  4  1  0
  4  5  2  0
  5  6  1  0
  6  7  2  0
  7  8  1  0
  8  9  2  0
  9 10  1  0
 10 11  1  0
 11 12  1  0
 12 13  1  0
 13 14  1  0
 14 15  1  0
  2 16  1  0
 16 17  2  0
 17 18  1  0
 18 19  2  0
 19 20  1  0
 20 21  1  0
 21 22  2  0
 21 23  2  0
 21 24  1  0
 24 25  1  0
 25 26  1  0
 26 27  1  0
 27 28  1  0
 28 29  1  0
 20 30  2  0
  9  4  1  0
 15 10  1  0
 30 16  1  0
 29 24  1  0
  3 31  1  0
  5 32  1  0
  6 33  1  0
  7 34  1  0
  8 35  1  0
 11 36  1  0
 11 37  1  0
 12 38  1  0
 12 39  1  0
 14 40  1  0
 14 41  1  0
 15 42  1  0
 15 43  1  0
 17 44  1  0
 18 45  1  0
 19 46  1  0
 25 47  1  0
 25 48  1  0
 26 49  1  0
 26 50  1  0
 27 51  1  0
 27 52  1  0
 28 53  1  0
 28 54  1  0
 29 55  1  0
 29 56  1  0
 30 57  1  0
M  END
>  <UniqueID>  (22) 
21

>  <SMILES>  (22) 
O=C(Nc1ccccc1N1CCOCC1)c1cccc(S(=O)(=O)N2CCCCC2)c1

>  <Energy>  (22) 
73.25695835971318

>  <Genealogy>  (22) 
O=C(Nc1ccccc1N1CCOCC1)c1cccc(S(=O)(=O)N2CCCCC2)c1 (3D coordinates assigned)
O=C(Nc1ccccc1N1CCOCC1)c1cccc(S(=O)(=O)N2CCCCC2)c1 (nonaromatic ring conformer: 73.25695835971318 kcal/mol)

>  <smiles>  (22) 
O=C(Nc1ccccc1N1CCOCC1)c1cccc(S(=O)(=O)N2CCCCC2)c1

>  <score_type>  (22) 
oracle

>  <origin>  (22) 
adgpu

>  <m_score__min__energy>  (22) 
-10.66

>  <m_primary>  (22) 
energy

$$$$
22:0
     RDKit          3D

 52 55  0  0  0  0  0  0  0  0999 V2000
   -5.6660   26.1760  -30.6930 O   0  0  0  0  0  0  0  0  0  0  0  0
   -5.0800   25.0740  -30.8670 C   0  0  0  0  0  0  0  0  0  0  0  0
   -3.6490   25.0390  -30.7820 N   0  0  0  0  0  0  0  0  0  0  0  0
   -2.8810   24.4560  -29.7210 C   0  0  0  0  0  0  0  0  0  0  0  0
   -3.0500   23.1700  -29.2490 C   0  0  0  0  0  0  0  0  0  0  0  0
   -2.2330   23.0750  -28.1360 C   0  0  0  0  0  0  0  0  0  0  0  0
   -2.1430   21.9540  -27.3150 O   0  0  0  0  0  0  0  0  0  0  0  0
   -1.5720   24.2330  -27.9110 N   0  0  0  0  0  0  0  0  0  0  0  0
   -0.6960   24.5360  -26.8070 C   0  0  0  0  0  0  0  0  0  0  0  0
   -0.7830   25.7850  -26.1670 C   0  0  0  0  0  0  0  0  0  0  0  0
    0.0630   26.0970  -25.1000 C   0  0  0  0  0  0  0  0  0  0  0  0
    1.0050   25.1660  -24.6590 C   0  0  0  0  0  0  0  0  0  0  0  0
    1.1010   23.9210  -25.2830 C   0  0  0  0  0  0  0  0  0  0  0  0
    0.2580   23.6010  -26.3530 C   0  0  0  0  0  0  0  0  0  0  0  0
    0.3920   22.3610  -26.9650 O   0  0  0  0  0  0  0  0  0  0  0  0
   -1.9880   25.0870  -28.8720 C   0  0  0  0  0  0  0  0  0  0  0  0
   -1.5900   26.4160  -28.9550 O   0  0  0  0  0  0  0  0  0  0  0  0
   -5.8820   23.8510  -31.0920 C   0  0  0  0  0  0  0  0  0  0  0  0
   -7.2310   23.8090  -30.7000 C   0  0  0  0  0  0  0  0  0  0  0  0
   -7.9950   22.6600  -30.9220 C   0  0  0  0  0  0  0  0  0  0  0  0
   -7.4200   21.5420  -31.5300 C   0  0  0  0  0  0  0  0  0  0  0  0
   -6.0730   21.5650  -31.9130 C   0  0  0  0  0  0  0  0  0  0  0  0
   -5.3350   20.1530  -32.6650 S   0  0  0  0  0  0  0  0  0  0  0  0
   -4.1470   20.6140  -33.4620 O   0  0  0  0  0  0  0  0  0  0  0  0
   -4.8690   19.1910  -31.6070 O   0  0  0  0  0  0  0  0  0  0  0  0
   -6.4770   19.3590  -33.7280 N   0  0  0  0  0  0  0  0  0  0  0  0
   -7.6210   18.7860  -32.9890 C   0  0  0  0  0  0  0  0  0  0  0  0
   -7.2820   17.4660  -32.2690 C   0  0  0  0  0  0  0  0  0  0  0  0
   -6.3510   16.5510  -33.0820 C   0  0  0  0  0  0  0  0  0  0  0  0
   -6.2860   16.9670  -34.5490 C   0  0  0  0  0  0  0  0  0  0  0  0
   -5.8060   18.4230  -34.6660 C   0  0  0  0  0  0  0  0  0  0  0  0
   -5.3040   22.7130  -31.6800 C   0  0  0  0  0  0  0  0  0  0  0  0
   -3.6974   22.3861  -29.6689 H   0  0  0  0  0  0  0  0  0  0  0  0
   -1.2620   21.6880  -26.8920 H   0  0  0  0  0  0  0  0  0  0  0  0
   -1.5236   26.5228  -26.5094 H   0  0  0  0  0  0  0  0  0  0  0  0
   -0.0132   27.0773  -24.6068 H   0  0  0  0  0  0  0  0  0  0  0  0
    1.6717   25.4134  -23.8198 H   0  0  0  0  0  0  0  0  0  0  0  0
    1.8426   23.1883  -24.9320 H   0  0  0  0  0  0  0  0  0  0  0  0
   -7.6878   24.6849  -30.2160 H   0  0  0  0  0  0  0  0  0  0  0  0
   -9.0516   22.6362  -30.6171 H   0  0  0  0  0  0  0  0  0  0  0  0
   -8.0262   20.6416  -31.7084 H   0  0  0  0  0  0  0  0  0  0  0  0
   -7.9535   19.5179  -32.2381 H   0  0  0  0  0  0  0  0  0  0  0  0
   -8.4063   18.5627  -33.7262 H   0  0  0  0  0  0  0  0  0  0  0  0
   -6.7901   17.7053  -31.3147 H   0  0  0  0  0  0  0  0  0  0  0  0
   -8.2271   16.9224  -32.1235 H   0  0  0  0  0  0  0  0  0  0  0  0
   -5.3394   16.6007  -32.6528 H   0  0  0  0  0  0  0  0  0  0  0  0
   -6.7511   15.5275  -33.0345 H   0  0  0  0  0  0  0  0  0  0  0  0
   -5.5846   16.3089  -35.0828 H   0  0  0  0  0  0  0  0  0  0  0  0
   -7.2896   16.8828  -34.9913 H   0  0  0  0  0  0  0  0  0  0  0  0
   -4.7249   18.4477  -34.4646 H   0  0  0  0  0  0  0  0  0  0  0  0
   -6.0560   18.7591  -35.6831 H   0  0  0  0  0  0  0  0  0  0  0  0
   -4.2401   22.7235  -31.9594 H   0  0  0  0  0  0  0  0  0  0  0  0
  1  2  2  0
  2  3  1  0
  3  4  1  0
  4  5  1  0
  5  6  2  0
  6  7  1  0
  6  8  1  0
  8  9  1  0
  9 10  2  0
 10 11  1  0
 11 12  2  0
 12 13  1  0
 13 14  2  0
 14 15  1  0
  8 16  1  0
 16 17  1  0
  2 18  1  0
 18 19  2  0
 19 20  1  0
 20 21  2  0
 21 22  1  0
 22 23  1  0
 23 24  2  0
 23 25  2  0
 23 26  1  0
 26 27  1  0
 27 28  1  0
 28 29  1  0
 29 30  1  0
 30 31  1  0
 22 32  2  0
 16  4  2  0
 32 18  1  0
 14  9  1  0
 31 26  1  0
  5 33  1  0
  7 34  1  0
 10 35  1  0
 11 36  1  0
 12 37  1  0
 13 38  1  0
 19 39  1  0
 20 40  1  0
 21 41  1  0
 27 42  1  0
 27 43  1  0
 28 44  1  0
 28 45  1  0
 29 46  1  0
 29 47  1  0
 30 48  1  0
 30 49  1  0
 31 50  1  0
 31 51  1  0
 32 52  1  0
M  CHG  3   3  -1  15  -1  17  -1
M  END
>  <UniqueID>  (23) 
22

>  <SMILES>  (23) 
O=C([N-]c1cc(O)n(-c2ccccc2[O-])c1[O-])c1cccc(S(=O)(=O)N2CCCCC2)c1

>  <Energy>  (23) 
101.39287712638317

>  <Genealogy>  (23) 
O=C([N-]c1cc(O)n(-c2ccccc2[O-])c1[O-])c1cccc(S(=O)(=O)N2CCCCC2)c1 (protonated)
O=C([N-]c1cc(O)n(-c2ccccc2[O-])c1[O-])c1cccc(S(=O)(=O)N2CCCCC2)c1 (3D coordinates assigned)
O=C([N-]c1cc(O)n(-c2ccccc2[O-])c1[O-])c1cccc(S(=O)(=O)N2CCCCC2)c1 (nonaromatic ring conformer: 101.39287712638317 kcal/mol)

>  <smiles>  (23) 
O=C(Nc1cc(O)n(-c2ccccc2O)c1O)c1cccc(S(=O)(=O)N2CCCCC2)c1

>  <score_type>  (23) 
oracle

>  <origin>  (23) 
adgpu

>  <m_score__min__energy>  (23) 
-17.149999999999999

>  <m_primary>  (23) 
energy

$$$$
23:0
     RDKit          3D

 50 54  0  0  0  0  0  0  0  0999 V2000
   -4.6640   24.1850  -30.8310 O   0  0  0  0  0  0  0  0  0  0  0  0
   -3.4860   23.9970  -30.4310 C   0  0  0  0  0  0  0  0  0  0  0  0
   -2.8890   24.8860  -29.5870 N   0  0  0  0  0  0  0  0  0  0  0  0
   -1.6050   24.6990  -29.1440 C   0  0  0  0  0  0  0  0  0  0  0  0
   -0.8760   25.8720  -28.0060 S   0  0  0  0  0  0  0  0  0  0  0  0
   -1.4780   25.0200  -26.5050 C   0  0  0  0  0  0  0  0  0  0  0  0
   -1.5210   23.5310  -26.7090 C   0  0  0  0  0  0  0  0  0  0  0  0
   -2.7020   22.8970  -27.1250 C   0  0  0  0  0  0  0  0  0  0  0  0
   -2.7130   21.5190  -27.3480 C   0  0  0  0  0  0  0  0  0  0  0  0
   -1.5420   20.7850  -27.1530 C   0  0  0  0  0  0  0  0  0  0  0  0
   -0.4040   21.4120  -26.7520 N   0  0  0  0  0  0  0  0  0  0  0  0
   -0.3670   22.7540  -26.5300 C   0  0  0  0  0  0  0  0  0  0  0  0
   -0.8820   23.6120  -29.5510 N   0  0  0  0  0  0  0  0  0  0  0  0
   -1.4700   22.7220  -30.3840 C   0  0  0  0  0  0  0  0  0  0  0  0
   -0.9020   21.6080  -30.8840 N   0  0  0  0  0  0  0  0  0  0  0  0
   -1.8550   21.0630  -31.6750 C   0  0  0  0  0  0  0  0  0  0  0  0
   -3.0210   21.8050  -31.6430 C   0  0  0  0  0  0  0  0  0  0  0  0
   -2.7530   22.8840  -30.8280 C   0  0  0  0  0  0  0  0  0  0  0  0
   -4.2160   21.4910  -32.4880 C   0  0  0  0  0  0  0  0  0  0  0  0
   -4.1840   20.0610  -32.8980 N   0  0  1  0  0  0  0  0  0  0  0  0
   -5.3220   19.7090  -33.7820 C   0  0  0  0  0  0  0  0  0  0  0  0
   -6.6510   19.5800  -33.0650 C   0  0  0  0  0  0  0  0  0  0  0  0
   -7.4000   20.7250  -32.7420 C   0  0  0  0  0  0  0  0  0  0  0  0
   -8.6270   20.6030  -32.0820 C   0  0  0  0  0  0  0  0  0  0  0  0
   -9.1200   19.3400  -31.7470 C   0  0  0  0  0  0  0  0  0  0  0  0
   -8.3880   18.1950  -32.0740 C   0  0  0  0  0  0  0  0  0  0  0  0
   -7.1620   18.3130  -32.7340 C   0  0  0  0  0  0  0  0  0  0  0  0
   -2.8700   19.6840  -33.4860 C   0  0  0  0  0  0  0  0  0  0  0  0
   -1.7330   19.7850  -32.4430 C   0  0  0  0  0  0  0  0  0  0  0  0
   -0.8031   25.2486  -25.6670 H   0  0  0  0  0  0  0  0  0  0  0  0
   -2.4970   25.3727  -26.2877 H   0  0  0  0  0  0  0  0  0  0  0  0
   -3.6189   23.4859  -27.2753 H   0  0  0  0  0  0  0  0  0  0  0  0
   -3.6356   21.0165  -27.6742 H   0  0  0  0  0  0  0  0  0  0  0  0
   -1.5397   19.6984  -27.3239 H   0  0  0  0  0  0  0  0  0  0  0  0
    0.5708   23.2310  -26.2092 H   0  0  0  0  0  0  0  0  0  0  0  0
    0.0630   21.2500  -30.7080 H   0  0  0  0  0  0  0  0  0  0  0  0
   -5.1321   21.6846  -31.9107 H   0  0  0  0  0  0  0  0  0  0  0  0
   -4.2017   22.1259  -33.3862 H   0  0  0  0  0  0  0  0  0  0  0  0
   -4.3130   19.4880  -32.0280 H   0  0  0  0  0  0  0  0  0  0  0  0
   -5.4184   20.4924  -34.5482 H   0  0  0  0  0  0  0  0  0  0  0  0
   -5.0963   18.7203  -34.2081 H   0  0  0  0  0  0  0  0  0  0  0  0
   -7.0192   21.7217  -33.0097 H   0  0  0  0  0  0  0  0  0  0  0  0
   -9.2048   21.5034  -31.8263 H   0  0  0  0  0  0  0  0  0  0  0  0
  -10.0842   19.2463  -31.2259 H   0  0  0  0  0  0  0  0  0  0  0  0
   -8.7774   17.2002  -31.8116 H   0  0  0  0  0  0  0  0  0  0  0  0
   -6.5932   17.4087  -32.9962 H   0  0  0  0  0  0  0  0  0  0  0  0
   -2.9267   18.6489  -33.8539 H   0  0  0  0  0  0  0  0  0  0  0  0
   -2.6472   20.3800  -34.3082 H   0  0  0  0  0  0  0  0  0  0  0  0
   -1.7995   18.9348  -31.7482 H   0  0  0  0  0  0  0  0  0  0  0  0
   -0.7637   19.7673  -32.9628 H   0  0  0  0  0  0  0  0  0  0  0  0
  1  2  2  0
  2  3  1  0
  3  4  2  0
  4  5  1  0
  5  6  1  0
  6  7  1  0
  7  8  2  0
  8  9  1  0
  9 10  2  0
 10 11  1  0
 11 12  2  0
  4 13  1  0
 13 14  1  0
 14 15  1  0
 15 16  1  0
 16 17  2  0
 17 18  1  0
 17 19  1  0
 19 20  1  0
 20 21  1  0
 21 22  1  0
 22 23  2  0
 23 24  1  0
 24 25  2  0
 25 26  1  0
 26 27  2  0
 20 28  1  0
 28 29  1  0
 18  2  1  0
 27 22  1  0
 12  7  1  0
 18 14  2  0
 29 16  1  0
  6 30  1  0
  6 31  1  0
  8 32  1  0
  9 33  1  0
 10 34  1  0
 12 35  1  0
 15 36  1  0
 19 37  1  0
 19 38  1  0
 20 39  1  1
 21 40  1  0
 21 41  1  0
 23 42  1  0
 24 43  1  0
 25 44  1  0
 26 45  1  0
 27 46  1  0
 28 47  1  0
 28 48  1  0
 29 49  1  0
 29 50  1  0
M  CHG  2  13  -1  20   1
M  END
>  <UniqueID>  (24) 
23

>  <SMILES>  (24) 
O=c1nc(SCc2cccnc2)[n-]c2[nH]c3c(c12)C[N@@H+](Cc1ccccc1)CC3

>  <Energy>  (24) 
95.53643296197546

>  <Genealogy>  (24) 
O=c1nc(SCc2cccnc2)[n-]c2[nH]c3c(c12)C[NH+](Cc1ccccc1)CC3 (protonated)
O=c1nc(SCc2cccnc2)[n-]c2[nH]c3c(c12)C[N@@H+](Cc1ccccc1)CC3 (chirality)
O=c1nc(SCc2cccnc2)[n-]c2[nH]c3c(c12)C[N@@H+](Cc1ccccc1)CC3 (3D coordinates assigned)
O=c1nc(SCc2cccnc2)[n-]c2[nH]c3c(c12)C[N@@H+](Cc1ccccc1)CC3 (nonaromatic ring conformer: 95.53643296197546 kcal/mol)

>  <smiles>  (24) 
O=c1nc(SCc2cccnc2)[nH]c2[nH]c3c(c12)CN(Cc1ccccc1)CC3

>  <score_type>  (24) 
oracle

>  <origin>  (24) 
adgpu

>  <m_score__min__energy>  (24) 
-10.279999999999999

>  <m_primary>  (24) 
energy

$$$$
24:0
     RDKit          3D

 45 47  0  0  0  0  0  0  0  0999 V2000
   -6.7530   16.0860  -34.1820 C   0  0  0  0  0  0  0  0  0  0  0  0
   -6.3760   17.4780  -33.7680 C   0  0  0  0  0  0  0  0  0  0  0  0
   -5.0780   17.9520  -33.9930 C   0  0  0  0  0  0  0  0  0  0  0  0
   -4.6960   19.2320  -33.5630 C   0  0  0  0  0  0  0  0  0  0  0  0
   -3.2780   19.6820  -33.7950 C   0  0  0  0  0  0  0  0  0  0  0  0
   -5.6480   20.0690  -32.9320 C   0  0  0  0  0  0  0  0  0  0  0  0
   -5.2920   21.3960  -32.5100 N   0  0  0  0  0  0  0  0  0  0  0  0
   -4.5680   21.6480  -31.2970 C   0  0  0  0  0  0  0  0  0  0  0  0
   -4.1910   20.6890  -30.5700 O   0  0  0  0  0  0  0  0  0  0  0  0
   -4.2840   23.0570  -30.8730 C   0  0  0  0  0  0  0  0  0  0  0  0
   -4.2890   23.2310  -29.0540 S   0  0  0  0  0  0  0  0  0  0  0  0
   -2.6590   23.9810  -28.9600 C   0  0  0  0  0  0  0  0  0  0  0  0
   -2.4420   25.2960  -29.1720 N   0  0  0  0  0  0  0  0  0  0  0  0
   -1.1490   25.5140  -28.9780 N   0  0  0  0  0  0  0  0  0  0  0  0
   -0.6090   24.3290  -28.6430 C   0  0  0  0  0  0  0  0  0  0  0  0
    0.6140   24.1700  -28.3890 O   0  0  0  0  0  0  0  0  0  0  0  0
   -1.5210   23.3380  -28.6280 N   0  0  0  0  0  0  0  0  0  0  0  0
   -1.3280   21.9560  -28.2810 C   0  0  0  0  0  0  0  0  0  0  0  0
   -1.8750   21.4360  -27.0960 C   0  0  0  0  0  0  0  0  0  0  0  0
   -1.6820   20.0920  -26.7590 C   0  0  0  0  0  0  0  0  0  0  0  0
   -0.9440   19.2590  -27.6050 C   0  0  0  0  0  0  0  0  0  0  0  0
   -0.4020   19.7660  -28.7880 C   0  0  0  0  0  0  0  0  0  0  0  0
   -0.5950   21.1100  -29.1280 C   0  0  0  0  0  0  0  0  0  0  0  0
   -6.9460   19.5780  -32.6740 C   0  0  0  0  0  0  0  0  0  0  0  0
   -7.9540   20.4160  -31.9350 C   0  0  0  0  0  0  0  0  0  0  0  0
   -7.2940   18.2810  -33.0820 C   0  0  0  0  0  0  0  0  0  0  0  0
   -6.9199   15.4696  -33.2863 H   0  0  0  0  0  0  0  0  0  0  0  0
   -7.6746   16.1187  -34.7816 H   0  0  0  0  0  0  0  0  0  0  0  0
   -5.9408   15.6491  -34.7816 H   0  0  0  0  0  0  0  0  0  0  0  0
   -4.3488   17.3134  -34.5131 H   0  0  0  0  0  0  0  0  0  0  0  0
   -2.7804   19.8399  -32.8268 H   0  0  0  0  0  0  0  0  0  0  0  0
   -2.7372   18.9113  -34.3638 H   0  0  0  0  0  0  0  0  0  0  0  0
   -3.2805   20.6235  -34.3638 H   0  0  0  0  0  0  0  0  0  0  0  0
   -5.4360   22.1810  -33.1840 H   0  0  0  0  0  0  0  0  0  0  0  0
   -3.2961   23.3522  -31.2564 H   0  0  0  0  0  0  0  0  0  0  0  0
   -5.0751   23.7033  -31.2809 H   0  0  0  0  0  0  0  0  0  0  0  0
   -2.4580   22.0889  -26.4298 H   0  0  0  0  0  0  0  0  0  0  0  0
   -2.1107   19.6909  -25.8288 H   0  0  0  0  0  0  0  0  0  0  0  0
   -0.7900   18.2029  -27.3386 H   0  0  0  0  0  0  0  0  0  0  0  0
    0.1771   19.1086  -29.4532 H   0  0  0  0  0  0  0  0  0  0  0  0
   -0.1705   21.5049  -30.0628 H   0  0  0  0  0  0  0  0  0  0  0  0
   -7.8080   20.2946  -30.8515 H   0  0  0  0  0  0  0  0  0  0  0  0
   -7.8213   21.4736  -32.2066 H   0  0  0  0  0  0  0  0  0  0  0  0
   -8.9696   20.0923  -32.2066 H   0  0  0  0  0  0  0  0  0  0  0  0
   -8.2986   17.8917  -32.8603 H   0  0  0  0  0  0  0  0  0  0  0  0
  1  2  1  0
  2  3  2  0
  3  4  1  0
  4  5  1  0
  4  6  2  0
  6  7  1  0
  7  8  1  0
  8  9  2  0
  8 10  1  0
 10 11  1  0
 11 12  1  0
 12 13  2  0
 13 14  1  0
 14 15  1  0
 15 16  2  0
 15 17  1  0
 17 18  1  0
 18 19  2  0
 19 20  1  0
 20 21  2  0
 21 22  1  0
 22 23  2  0
  6 24  1  0
 24 25  1  0
 24 26  2  0
 26  2  1  0
 17 12  1  0
 23 18  1  0
  1 27  1  0
  1 28  1  0
  1 29  1  0
  3 30  1  0
  5 31  1  0
  5 32  1  0
  5 33  1  0
  7 34  1  0
 10 35  1  0
 10 36  1  0
 19 37  1  0
 20 38  1  0
 21 39  1  0
 22 40  1  0
 23 41  1  0
 25 42  1  0
 25 43  1  0
 25 44  1  0
 26 45  1  0
M  CHG  1  14  -1
M  END
>  <UniqueID>  (25) 
24

>  <SMILES>  (25) 
Cc1cc(C)c(NC(=O)CSc2n[n-]c(=O)n2-c2ccccc2)c(C)c1

>  <Energy>  (25) 
88.30279632169913

>  <Genealogy>  (25) 
Cc1cc(C)c(NC(=O)CSc2n[n-]c(=O)n2-c2ccccc2)c(C)c1 (protonated)
Cc1cc(C)c(NC(=O)CSc2n[n-]c(=O)n2-c2ccccc2)c(C)c1 (3D coordinates assigned)
Cc1cc(C)c(NC(=O)CSc2n[n-]c(=O)n2-c2ccccc2)c(C)c1 (optimized conformer: 88.30279632169913 kcal/mol)

>  <smiles>  (25) 
Cc1cc(C)c(NC(=O)CSc2n[nH]c(=O)n2-c2ccccc2)c(C)c1

>  <score_type>  (25) 
oracle

>  <origin>  (25) 
adgpu

>  <m_score__min__energy>  (25) 
-9.5500000000000007

>  <m_primary>  (25) 
energy

$$$$
25:0
     RDKit          3D

 47 49  0  0  0  0  0  0  0  0999 V2000
   -3.5228   13.1324  -31.7305 H   0  0  0  0  0  0  0  0  0  0  0  0
   -3.6750   14.0440  -32.3270 C   0  0  0  0  0  0  0  0  0  0  0  0
   -4.6560   14.9610  -31.9590 C   0  0  0  0  0  0  0  0  0  0  0  0
   -5.2769   14.7722  -31.0708 H   0  0  0  0  0  0  0  0  0  0  0  0
   -4.8550   16.1210  -32.7140 C   0  0  0  0  0  0  0  0  0  0  0  0
   -5.8180   16.9940  -32.3230 F   0  0  0  0  0  0  0  0  0  0  0  0
   -4.0700   16.3800  -33.8600 C   0  0  0  0  0  0  0  0  0  0  0  0
   -4.3500   17.6660  -34.6410 C   0  0  2  0  0  0  0  0  0  0  0  0
   -3.6758   17.5499  -35.5024 H   0  0  0  0  0  0  0  0  0  0  0  0
   -3.9700   18.9240  -33.8730 C   0  0  0  0  0  0  0  0  0  0  0  0
   -4.9910   19.7380  -33.4870 N   0  0  0  0  0  0  0  0  0  0  0  0
   -4.7900   20.8780  -32.7810 C   0  0  0  0  0  0  0  0  0  0  0  0
   -5.8260   21.6000  -32.4580 N   0  0  0  0  0  0  0  0  0  0  0  0
   -5.8440   22.7710  -31.6280 C   0  0  0  0  0  0  0  0  0  0  0  0
   -7.0470   23.1660  -31.0290 C   0  0  0  0  0  0  0  0  0  0  0  0
   -7.9729   22.6119  -31.2426 H   0  0  0  0  0  0  0  0  0  0  0  0
   -7.0760   24.2600  -30.1620 C   0  0  0  0  0  0  0  0  0  0  0  0
   -8.0253   24.5702  -29.7008 H   0  0  0  0  0  0  0  0  0  0  0  0
   -5.9000   24.9620  -29.8790 C   0  0  0  0  0  0  0  0  0  0  0  0
   -5.9270   25.8203  -29.1916 H   0  0  0  0  0  0  0  0  0  0  0  0
   -4.6890   24.5780  -30.4660 C   0  0  0  0  0  0  0  0  0  0  0  0
   -3.4940   25.2950  -30.1260 N   0  0  0  0  0  0  0  0  0  0  0  0
   -2.4750   24.8680  -29.2110 C   0  0  0  0  0  0  0  0  0  0  0  0
   -1.5020   25.6350  -28.9850 O   0  0  0  0  0  0  0  0  0  0  0  0
   -2.5110   23.5250  -28.5480 C   0  0  0  0  0  0  0  0  0  0  0  0
   -2.5075   23.6551  -27.4557 H   0  0  0  0  0  0  0  0  0  0  0  0
   -3.4238   22.9910  -28.8507 H   0  0  0  0  0  0  0  0  0  0  0  0
   -1.6281   22.9428  -28.8507 H   0  0  0  0  0  0  0  0  0  0  0  0
   -4.6570   23.4540  -31.3080 C   0  0  0  0  0  0  0  0  0  0  0  0
   -3.6980   23.1061  -31.7194 H   0  0  0  0  0  0  0  0  0  0  0  0
   -3.5160   21.2550  -32.4670 N   0  0  0  0  0  0  0  0  0  0  0  0
   -3.3120   22.1610  -31.9930 H   0  0  0  0  0  0  0  0  0  0  0  0
   -2.4580   20.4770  -32.8120 C   0  0  0  0  0  0  0  0  0  0  0  0
   -1.4399   20.7951  -32.5432 H   0  0  0  0  0  0  0  0  0  0  0  0
   -2.6460   19.2740  -33.5060 C   0  0  0  0  0  0  0  0  0  0  0  0
   -1.4340   18.4690  -33.8900 C   0  0  0  0  0  0  0  0  0  0  0  0
   -0.9182   18.1264  -32.9808 H   0  0  0  0  0  0  0  0  0  0  0  0
   -1.7458   17.5979  -34.4849 H   0  0  0  0  0  0  0  0  0  0  0  0
   -0.7520   19.0942  -34.4849 H   0  0  0  0  0  0  0  0  0  0  0  0
   -5.7450   17.8130  -35.2660 C   0  0  0  0  0  0  0  0  0  0  0  0
   -6.4978   17.8923  -34.4679 H   0  0  0  0  0  0  0  0  0  0  0  0
   -5.7741   18.7192  -35.8889 H   0  0  0  0  0  0  0  0  0  0  0  0
   -5.9623   16.9328  -35.8889 H   0  0  0  0  0  0  0  0  0  0  0  0
   -3.0720   15.4370  -34.2170 C   0  0  0  0  0  0  0  0  0  0  0  0
   -2.2790   15.5990  -35.3060 F   0  0  0  0  0  0  0  0  0  0  0  0
   -2.8860   14.2810  -33.4510 C   0  0  0  0  0  0  0  0  0  0  0  0
   -2.1117   13.5543  -33.7380 H   0  0  0  0  0  0  0  0  0  0  0  0
  1  2  1  0
  2  3  2  0
  3  4  1  0
  3  5  1  0
  5  6  1  0
  5  7  2  0
  7  8  1  0
  8  9  1  6
  8 10  1  0
 10 11  2  0
 11 12  1  0
 12 13  2  0
 13 14  1  0
 14 15  2  0
 15 16  1  0
 15 17  1  0
 17 18  1  0
 17 19  2  0
 19 20  1  0
 19 21  1  0
 21 22  1  0
 22 23  1  0
 23 24  2  0
 23 25  1  0
 25 26  1  0
 25 27  1  0
 25 28  1  0
 21 29  2  0
 29 30  1  0
 12 31  1  0
 31 32  1  0
 31 33  1  0
 33 34  1  0
 33 35  2  0
 35 36  1  0
 36 37  1  0
 36 38  1  0
 36 39  1  0
  8 40  1  0
 40 41  1  0
 40 42  1  0
 40 43  1  0
  7 44  1  0
 44 45  1  0
 44 46  2  0
 46 47  1  0
 46  2  1  0
 35 10  1  0
 29 14  1  0
M  CHG  1  22  -1
M  END
>  <UniqueID>  (26) 
25

>  <SMILES>  (26) 
CC(=O)[N-]c1cccc(/N=c2/nc([C@H](C)c3c(F)cccc3F)c(C)c[nH]2)c1

>  <Energy>  (26) 
68.37743475751216

>  <Genealogy>  (26) 
CC(=O)[N-]c1cccc(N=c2nc(C(C)c3c(F)cccc3F)c(C)c[nH]2)c1 (protonated)
CC(=O)[N-]c1cccc(N=c2nc([C@H](C)c3c(F)cccc3F)c(C)c[nH]2)c1 (chirality)
CC(=O)[N-]c1cccc(/N=c2/nc([C@H](C)c3c(F)cccc3F)c(C)c[nH]2)c1 (cis-trans isomerization)
CC(=O)[N-]c1cccc(/N=c2/nc([C@H](C)c3c(F)cccc3F)c(C)c[nH]2)c1 (3D coordinates assigned)
CC(=O)[N-]c1cccc(/N=c2/nc([C@H](C)c3c(F)cccc3F)c(C)c[nH]2)c1 (optimized conformer: 68.37743475751216 kcal/mol)

>  <smiles>  (26) 
CC(=O)Nc1cccc(N=c2nc(C(C)c3c(F)cccc3F)c(C)c[nH]2)c1

>  <score_type>  (26) 
oracle

>  <origin>  (26) 
adgpu

>  <m_score__min__energy>  (26) 
-9.9199999999999999

>  <m_primary>  (26) 
energy

$$$$
26:0
     RDKit          3D

 43 45  0  0  0  0  0  0  0  0999 V2000
   -9.2640   21.9230  -30.2710 O   0  0  0  0  0  0  0  0  0  0  0  0
   -8.7370   22.0710  -31.4060 C   0  0  0  0  0  0  0  0  0  0  0  0
   -8.0460   23.3550  -31.7370 C   0  0  0  0  0  0  0  0  0  0  0  0
   -6.6310   23.3210  -31.2290 C   0  0  0  0  0  0  0  0  0  0  0  0
   -6.0040   22.0930  -30.9590 C   0  0  0  0  0  0  0  0  0  0  0  0
   -4.6780   22.0620  -30.5170 C   0  0  0  0  0  0  0  0  0  0  0  0
   -3.9650   23.2530  -30.3510 C   0  0  0  0  0  0  0  0  0  0  0  0
   -4.5770   24.4790  -30.6300 C   0  0  0  0  0  0  0  0  0  0  0  0
   -3.8660   25.6620  -30.4700 O   0  0  0  0  0  0  0  0  0  0  0  0
   -5.9040   24.5150  -31.0720 C   0  0  0  0  0  0  0  0  0  0  0  0
   -8.8040   21.0340  -32.3910 N   0  0  0  0  0  0  0  0  0  0  0  0
   -7.8000   20.0450  -32.6660 C   0  0  0  0  0  0  0  0  0  0  0  0
   -7.7940   18.7880  -32.0330 C   0  0  0  0  0  0  0  0  0  0  0  0
   -6.7860   17.8610  -32.3160 C   0  0  0  0  0  0  0  0  0  0  0  0
   -5.7610   18.1860  -33.2150 C   0  0  0  0  0  0  0  0  0  0  0  0
   -4.4950   17.0220  -33.5890 S   0  0  0  0  0  0  0  0  0  0  0  0
   -4.9040   15.6690  -33.0770 O   0  0  0  0  0  0  0  0  0  0  0  0
   -4.2900   16.9510  -35.0760 O   0  0  0  0  0  0  0  0  0  0  0  0
   -3.0280   17.5290  -32.8180 N   0  0  0  0  0  0  0  0  0  0  0  0
   -2.3510   18.7710  -33.0570 C   0  0  0  0  0  0  0  0  0  0  0  0
   -2.4510   19.8560  -32.1650 C   0  0  0  0  0  0  0  0  0  0  0  0
   -1.7790   21.0520  -32.4320 C   0  0  0  0  0  0  0  0  0  0  0  0
   -1.0030   21.1780  -33.5870 C   0  0  0  0  0  0  0  0  0  0  0  0
   -0.8970   20.1070  -34.4760 C   0  0  0  0  0  0  0  0  0  0  0  0
   -1.5680   18.9020  -34.2150 C   0  0  0  0  0  0  0  0  0  0  0  0
   -1.4610   17.8340  -35.1050 O   0  0  0  0  0  0  0  0  0  0  0  0
   -5.7550   19.4440  -33.8310 C   0  0  0  0  0  0  0  0  0  0  0  0
   -6.7640   20.3700  -33.5500 C   0  0  0  0  0  0  0  0  0  0  0  0
   -8.0385   23.4943  -32.8281 H   0  0  0  0  0  0  0  0  0  0  0  0
   -8.5822   24.1882  -31.2592 H   0  0  0  0  0  0  0  0  0  0  0  0
   -6.5583   21.1528  -31.0958 H   0  0  0  0  0  0  0  0  0  0  0  0
   -4.1946   21.0982  -30.2993 H   0  0  0  0  0  0  0  0  0  0  0  0
   -2.9226   23.2257  -30.0009 H   0  0  0  0  0  0  0  0  0  0  0  0
   -6.3805   25.4804  -31.2975 H   0  0  0  0  0  0  0  0  0  0  0  0
   -8.5855   18.5337  -31.3127 H   0  0  0  0  0  0  0  0  0  0  0  0
   -6.7976   16.8735  -31.8315 H   0  0  0  0  0  0  0  0  0  0  0  0
   -3.0606   19.7618  -31.2542 H   0  0  0  0  0  0  0  0  0  0  0  0
   -1.8612   21.8959  -31.7313 H   0  0  0  0  0  0  0  0  0  0  0  0
   -0.4759   22.1206  -33.7957 H   0  0  0  0  0  0  0  0  0  0  0  0
   -0.2852   20.2077  -35.3846 H   0  0  0  0  0  0  0  0  0  0  0  0
   -2.1180   17.0630  -35.0910 H   0  0  0  0  0  0  0  0  0  0  0  0
   -4.9537   19.7042  -34.5382 H   0  0  0  0  0  0  0  0  0  0  0  0
   -6.7438   21.3611  -34.0268 H   0  0  0  0  0  0  0  0  0  0  0  0
  1  2  2  0
  2  3  1  0
  3  4  1  0
  4  5  2  0
  5  6  1  0
  6  7  2  0
  7  8  1  0
  8  9  1  0
  8 10  2  0
  2 11  1  0
 11 12  1  0
 12 13  2  0
 13 14  1  0
 14 15  2  0
 15 16  1  0
 16 17  2  0
 16 18  2  0
 16 19  1  0
 19 20  1  0
 20 21  2  0
 21 22  1  0
 22 23  2  0
 23 24  1  0
 24 25  2  0
 25 26  1  0
 15 27  1  0
 27 28  2  0
 10  4  1  0
 28 12  1  0
 25 20  1  0
  3 29  1  0
  3 30  1  0
  5 31  1  0
  6 32  1  0
  7 33  1  0
 10 34  1  0
 13 35  1  0
 14 36  1  0
 21 37  1  0
 22 38  1  0
 23 39  1  0
 24 40  1  0
 26 41  1  0
 27 42  1  0
 28 43  1  0
M  CHG  3   9  -1  11  -1  19  -1
M  END
>  <UniqueID>  (27) 
26

>  <SMILES>  (27) 
O=C(Cc1cccc([O-])c1)[N-]c1ccc(S(=O)(=O)[N-]c2ccccc2O)cc1

>  <Energy>  (27) 
51.36574537914718

>  <Genealogy>  (27) 
O=C(Cc1cccc([O-])c1)[N-]c1ccc(S(=O)(=O)[N-]c2ccccc2O)cc1 (protonated)
O=C(Cc1cccc([O-])c1)[N-]c1ccc(S(=O)(=O)[N-]c2ccccc2O)cc1 (3D coordinates assigned)
O=C(Cc1cccc([O-])c1)[N-]c1ccc(S(=O)(=O)[N-]c2ccccc2O)cc1 (optimized conformer: 51.36574537914718 kcal/mol)

>  <smiles>  (27) 
O=C(Cc1cccc(O)c1)Nc1ccc(S(=O)(=O)Nc2ccccc2O)cc1

>  <score_type>  (27) 
oracle

>  <origin>  (27) 
adgpu

>  <m_score__min__energy>  (27) 
-11.93

>  <m_primary>  (27) 
energy

$$$$
27:0
     RDKit          3D

 42 43  0  0  0  0  0  0  0  0999 V2000
   -7.3340   17.4770  -32.8960 C   0  0  0  0  0  0  0  0  0  0  0  0
   -7.4230   18.9390  -32.5760 C   0  0  0  0  0  0  0  0  0  0  0  0
   -8.5660   19.4430  -31.9390 C   0  0  0  0  0  0  0  0  0  0  0  0
   -8.6640   20.8040  -31.6380 C   0  0  0  0  0  0  0  0  0  0  0  0
   -7.6230   21.6830  -31.9800 C   0  0  0  0  0  0  0  0  0  0  0  0
   -7.7170   23.1450  -31.6320 C   0  0  0  0  0  0  0  0  0  0  0  0
   -6.0850   23.9700  -31.7050 S   0  0  0  0  0  0  0  0  0  0  0  0
   -5.8080   24.0980  -29.9020 C   0  0  0  0  0  0  0  0  0  0  0  0
   -4.4210   24.5860  -29.6430 C   0  0  0  0  0  0  0  0  0  0  0  0
   -3.8330   25.2940  -30.5040 O   0  0  0  0  0  0  0  0  0  0  0  0
   -3.7950   24.2810  -28.3910 N   0  0  0  0  0  0  0  0  0  0  0  0
   -2.4330   24.5490  -28.0220 C   0  0  0  0  0  0  0  0  0  0  0  0
   -2.1000   25.1720  -26.8080 C   0  0  0  0  0  0  0  0  0  0  0  0
   -0.7630   25.4560  -26.4970 C   0  0  0  0  0  0  0  0  0  0  0  0
   -0.3820   26.2570  -24.9640 S   0  0  0  0  0  0  0  0  0  0  0  0
    0.7460   25.2920  -24.0790 N   0  0  0  0  0  0  0  0  0  0  0  0
    0.2230   27.6070  -25.2220 O   0  0  0  0  0  0  0  0  0  0  0  0
   -1.6340   26.4450  -24.1560 O   0  0  0  0  0  0  0  0  0  0  0  0
    0.2360   25.1350  -27.4430 C   0  0  0  0  0  0  0  0  0  0  0  0
    1.6900   25.4120  -27.1980 C   0  0  0  0  0  0  0  0  0  0  0  0
   -0.1190   24.5440  -28.6150 N   0  0  0  0  0  0  0  0  0  0  0  0
   -1.4080   24.2530  -28.9260 C   0  0  0  0  0  0  0  0  0  0  0  0
   -1.6720   23.7160  -30.0340 O   0  0  0  0  0  0  0  0  0  0  0  0
   -6.4860   21.1810  -32.6330 C   0  0  0  0  0  0  0  0  0  0  0  0
   -6.3900   19.8190  -32.9360 C   0  0  0  0  0  0  0  0  0  0  0  0
   -7.2988   16.8985  -31.9611 H   0  0  0  0  0  0  0  0  0  0  0  0
   -8.2154   17.1753  -33.4809 H   0  0  0  0  0  0  0  0  0  0  0  0
   -6.4225   17.2845  -33.4809 H   0  0  0  0  0  0  0  0  0  0  0  0
   -9.3897   18.7635  -31.6749 H   0  0  0  0  0  0  0  0  0  0  0  0
   -9.5609   21.1890  -31.1307 H   0  0  0  0  0  0  0  0  0  0  0  0
   -8.3964   23.6370  -32.3436 H   0  0  0  0  0  0  0  0  0  0  0  0
   -8.0946   23.2268  -30.6021 H   0  0  0  0  0  0  0  0  0  0  0  0
   -6.5317   24.8046  -29.4695 H   0  0  0  0  0  0  0  0  0  0  0  0
   -5.9397   23.1082  -29.4405 H   0  0  0  0  0  0  0  0  0  0  0  0
   -2.8946   25.4391  -26.0958 H   0  0  0  0  0  0  0  0  0  0  0  0
    0.9950   25.8280  -23.2180 H   0  0  0  0  0  0  0  0  0  0  0  0
    0.2360   24.4370  -23.7630 H   0  0  0  0  0  0  0  0  0  0  0  0
    1.8790   25.4480  -26.1150 H   0  0  0  0  0  0  0  0  0  0  0  0
    2.2966   24.6133  -27.6497 H   0  0  0  0  0  0  0  0  0  0  0  0
    1.9605   26.3778  -27.6497 H   0  0  0  0  0  0  0  0  0  0  0  0
   -5.6670   21.8620  -32.9076 H   0  0  0  0  0  0  0  0  0  0  0  0
   -5.5013   19.4356  -33.4586 H   0  0  0  0  0  0  0  0  0  0  0  0
  1  2  1  0
  2  3  2  0
  3  4  1  0
  4  5  2  0
  5  6  1  0
  6  7  1  0
  7  8  1  0
  8  9  1  0
  9 10  2  0
  9 11  1  0
 11 12  1  0
 12 13  2  0
 13 14  1  0
 14 15  1  0
 15 16  1  0
 15 17  2  0
 15 18  2  0
 14 19  2  0
 19 20  1  0
 19 21  1  0
 21 22  1  0
 22 23  2  0
  5 24  1  0
 24 25  2  0
 25  2  1  0
 22 12  1  0
  1 26  1  0
  1 27  1  0
  1 28  1  0
  3 29  1  0
  4 30  1  0
  6 31  1  0
  6 32  1  0
  8 33  1  0
  8 34  1  0
 13 35  1  0
 16 36  1  0
 16 37  1  0
 20 38  1  0
 20 39  1  0
 20 40  1  0
 24 41  1  0
 25 42  1  0
M  CHG  2  11  -1  21  -1
M  END
>  <UniqueID>  (28) 
27

>  <SMILES>  (28) 
Cc1ccc(CSCC(=O)[N-]c2cc(S(N)(=O)=O)c(C)[n-]c2=O)cc1

>  <Energy>  (28) 
38.27354916012581

>  <Genealogy>  (28) 
Cc1ccc(CSCC(=O)[N-]c2cc(S(N)(=O)=O)c(C)[n-]c2=O)cc1 (protonated)
Cc1ccc(CSCC(=O)[N-]c2cc(S(N)(=O)=O)c(C)[n-]c2=O)cc1 (3D coordinates assigned)
Cc1ccc(CSCC(=O)[N-]c2cc(S(N)(=O)=O)c(C)[n-]c2=O)cc1 (optimized conformer: 38.27354916012581 kcal/mol)

>  <smiles>  (28) 
Cc1ccc(CSCC(=O)Nc2cc(S(N)(=O)=O)c(C)[nH]c2=O)cc1

>  <score_type>  (28) 
oracle

>  <origin>  (28) 
adgpu

>  <m_score__min__energy>  (28) 
-11.16

>  <m_primary>  (28) 
energy

$$$$
28:0
     RDKit          3D

 35 37  0  0  0  0  0  0  0  0999 V2000
   -4.7300   13.7350  -35.3630 N   0  0  0  0  0  0  0  0  0  0  0  0
   -5.8380   14.3360  -34.1810 S   0  0  0  0  0  0  0  0  0  0  0  0
   -7.2430   14.1990  -34.6950 O   0  0  0  0  0  0  0  0  0  0  0  0
   -5.7070   13.5310  -32.9180 O   0  0  0  0  0  0  0  0  0  0  0  0
   -5.4860   16.0290  -33.8480 C   0  0  0  0  0  0  0  0  0  0  0  0
   -6.1990   16.7140  -32.8560 C   0  0  0  0  0  0  0  0  0  0  0  0
   -5.9310   18.0610  -32.6000 C   0  0  0  0  0  0  0  0  0  0  0  0
   -4.9510   18.7470  -33.3390 C   0  0  0  0  0  0  0  0  0  0  0  0
   -4.6920   20.1770  -33.0540 C   0  0  0  0  0  0  0  0  0  0  0  0
   -3.4600   20.8090  -32.9710 C   0  0  0  0  0  0  0  0  0  0  0  0
   -3.7310   22.1320  -32.6990 C   0  0  0  0  0  0  0  0  0  0  0  0
   -5.1070   22.2320  -32.6390 C   0  0  0  0  0  0  0  0  0  0  0  0
   -5.8550   23.4720  -32.3550 C   0  0  0  0  0  0  0  0  0  0  0  0
   -5.5440   24.3120  -31.4080 N   0  0  0  0  0  0  0  0  0  0  0  0
   -4.5590   24.1270  -30.3810 C   0  0  0  0  0  0  0  0  0  0  0  0
   -4.7310   23.1620  -29.3770 C   0  0  0  0  0  0  0  0  0  0  0  0
   -3.7550   23.0520  -28.3860 C   0  0  0  0  0  0  0  0  0  0  0  0
   -3.8640   22.1810  -27.4840 O   0  0  0  0  0  0  0  0  0  0  0  0
   -2.6860   23.8900  -28.3920 N   0  0  0  0  0  0  0  0  0  0  0  0
   -2.5520   24.8420  -29.3510 C   0  0  0  0  0  0  0  0  0  0  0  0
   -1.5610   25.6160  -29.3340 O   0  0  0  0  0  0  0  0  0  0  0  0
   -3.4880   24.9600  -30.3290 N   0  0  0  0  0  0  0  0  0  0  0  0
   -5.6460   21.0540  -32.8440 O   0  0  0  0  0  0  0  0  0  0  0  0
   -4.2450   18.0560  -34.3400 C   0  0  0  0  0  0  0  0  0  0  0  0
   -4.5150   16.7070  -34.5930 C   0  0  0  0  0  0  0  0  0  0  0  0
   -4.8670   12.7000  -35.4130 H   0  0  0  0  0  0  0  0  0  0  0  0
   -3.7670   13.8920  -34.9880 H   0  0  0  0  0  0  0  0  0  0  0  0
   -6.9728   16.1895  -32.2763 H   0  0  0  0  0  0  0  0  0  0  0  0
   -6.4910   18.5891  -31.8142 H   0  0  0  0  0  0  0  0  0  0  0  0
   -2.4692   20.3480  -33.0967 H   0  0  0  0  0  0  0  0  0  0  0  0
   -3.0009   22.9427  -32.5584 H   0  0  0  0  0  0  0  0  0  0  0  0
   -6.7295   23.7017  -32.9815 H   0  0  0  0  0  0  0  0  0  0  0  0
   -5.6149   22.5073  -29.3713 H   0  0  0  0  0  0  0  0  0  0  0  0
   -3.4761   18.5793  -34.9273 H   0  0  0  0  0  0  0  0  0  0  0  0
   -3.9612   16.1766  -35.3816 H   0  0  0  0  0  0  0  0  0  0  0  0
  1  2  1  0
  2  3  2  0
  2  4  2  0
  2  5  1  0
  5  6  2  0
  6  7  1  0
  7  8  2  0
  8  9  1  0
  9 10  2  0
 10 11  1  0
 11 12  2  0
 12 13  1  0
 13 14  2  3
 14 15  1  0
 15 16  2  0
 16 17  1  0
 17 18  2  0
 17 19  1  0
 19 20  1  0
 20 21  2  0
 20 22  1  0
 12 23  1  0
  8 24  1  0
 24 25  2  0
 25  5  1  0
 23  9  1  0
 22 15  1  0
  1 26  1  0
  1 27  1  0
  6 28  1  0
  7 29  1  0
 10 30  1  0
 11 31  1  0
 13 32  1  0
 16 33  1  0
 24 34  1  0
 25 35  1  0
M  CHG  2  19  -1  22  -1
M  END
>  <UniqueID>  (29) 
28

>  <SMILES>  (29) 
NS(=O)(=O)c1ccc(-c2ccc(C=Nc3cc(=O)[n-]c(=O)[n-]3)o2)cc1

>  <Energy>  (29) 
71.70604604977511

>  <Genealogy>  (29) 
NS(=O)(=O)c1ccc(-c2ccc(C=Nc3cc(=O)[n-]c(=O)[n-]3)o2)cc1 (protonated)
NS(=O)(=O)c1ccc(-c2ccc(C=Nc3cc(=O)[n-]c(=O)[n-]3)o2)cc1 (3D coordinates assigned)
NS(=O)(=O)c1ccc(-c2ccc(C=Nc3cc(=O)[n-]c(=O)[n-]3)o2)cc1 (optimized conformer: 71.70604604977511 kcal/mol)

>  <smiles>  (29) 
NS(=O)(=O)c1ccc(-c2ccc(C=Nc3cc(=O)[nH]c(=O)[nH]3)o2)cc1

>  <score_type>  (29) 
oracle

>  <origin>  (29) 
adgpu

>  <m_score__min__energy>  (29) 
-10.449999999999999

>  <m_primary>  (29) 
energy

$$$$
29:0
     RDKit          3D

 38 40  0  0  0  0  0  0  0  0999 V2000
   -0.3381   25.2108  -29.7692 H   0  0  0  0  0  0  0  0  0  0  0  0
   -1.0310   24.9340  -28.9610 C   0  0  0  0  0  0  0  0  0  0  0  0
   -2.3680   24.8930  -29.1960 N   0  0  0  0  0  0  0  0  0  0  0  0
   -3.2450   24.5530  -28.2080 C   0  0  0  0  0  0  0  0  0  0  0  0
   -4.5210   24.5150  -28.4330 N   0  0  0  0  0  0  0  0  0  0  0  0
   -5.2420   24.8800  -29.9690 S   0  0  0  0  0  0  0  0  0  0  0  0
   -6.4420   25.7620  -29.7730 O   0  0  0  0  0  0  0  0  0  0  0  0
   -4.2460   25.5870  -30.8450 O   0  0  0  0  0  0  0  0  0  0  0  0
   -5.7370   23.3750  -30.7370 C   0  0  0  0  0  0  0  0  0  0  0  0
   -4.8400   22.3030  -30.8310 C   0  0  0  0  0  0  0  0  0  0  0  0
   -3.8259   22.3983  -30.4156 H   0  0  0  0  0  0  0  0  0  0  0  0
   -5.2300   21.1130  -31.4510 C   0  0  0  0  0  0  0  0  0  0  0  0
   -4.5296   20.2663  -31.5015 H   0  0  0  0  0  0  0  0  0  0  0  0
   -6.5130   20.9940  -32.0100 C   0  0  0  0  0  0  0  0  0  0  0  0
   -6.9540   19.7630  -32.6020 N   0  0  0  0  0  0  0  0  0  0  0  0
   -6.2150   18.8430  -33.1590 C   0  0  0  0  0  0  0  0  0  0  0  0
   -6.8300   17.6590  -33.5810 C   0  0  0  0  0  0  0  0  0  0  0  0
   -7.9109   17.5164  -33.4349 H   0  0  0  0  0  0  0  0  0  0  0  0
   -6.0690   16.6610  -34.1870 C   0  0  0  0  0  0  0  0  0  0  0  0
   -6.5465   15.7260  -34.5152 H   0  0  0  0  0  0  0  0  0  0  0  0
   -4.7010   16.8510  -34.3760 C   0  0  0  0  0  0  0  0  0  0  0  0
   -4.0931   16.0679  -34.8527 H   0  0  0  0  0  0  0  0  0  0  0  0
   -4.1070   18.0470  -33.9540 C   0  0  0  0  0  0  0  0  0  0  0  0
   -2.6480   18.2880  -34.2070 C   0  0  0  0  0  0  0  0  0  0  0  0
   -2.1189   18.3754  -33.2466 H   0  0  0  0  0  0  0  0  0  0  0  0
   -2.2313   17.4465  -34.7800 H   0  0  0  0  0  0  0  0  0  0  0  0
   -2.5241   19.2188  -34.7800 H   0  0  0  0  0  0  0  0  0  0  0  0
   -4.8730   19.0210  -33.3800 N   0  0  0  0  0  0  0  0  0  0  0  0
   -4.4120   19.9270  -33.1430 H   0  0  0  0  0  0  0  0  0  0  0  0
   -7.4160   22.0560  -31.8900 C   0  0  0  0  0  0  0  0  0  0  0  0
   -8.4371   21.9533  -32.2859 H   0  0  0  0  0  0  0  0  0  0  0  0
   -7.0270   23.2480  -31.2690 C   0  0  0  0  0  0  0  0  0  0  0  0
   -7.7351   24.0868  -31.1983 H   0  0  0  0  0  0  0  0  0  0  0  0
   -2.7760   24.2500  -26.9690 N   0  0  0  0  0  0  0  0  0  0  0  0
   -1.4460   24.2790  -26.6950 C   0  0  0  0  0  0  0  0  0  0  0  0
   -1.0858   24.0300  -25.6859 H   0  0  0  0  0  0  0  0  0  0  0  0
   -0.5380   24.6250  -27.6950 C   0  0  0  0  0  0  0  0  0  0  0  0
    0.5422   24.6533  -27.4892 H   0  0  0  0  0  0  0  0  0  0  0  0
  1  2  1  0
  2  3  2  0
  3  4  1  0
  4  5  2  3
  5  6  1  0
  6  7  2  0
  6  8  2  0
  6  9  1  0
  9 10  2  0
 10 11  1  0
 10 12  1  0
 12 13  1  0
 12 14  2  0
 14 15  1  0
 15 16  2  0
 16 17  1  0
 17 18  1  0
 17 19  2  0
 19 20  1  0
 19 21  1  0
 21 22  1  0
 21 23  2  0
 23 24  1  0
 24 25  1  0
 24 26  1  0
 24 27  1  0
 23 28  1  0
 28 29  1  0
 14 30  1  0
 30 31  1  0
 30 32  2  0
 32 33  1  0
  4 34  1  0
 34 35  1  0
 35 36  1  0
 35 37  2  0
 37 38  1  0
 37  2  1  0
 32  9  1  0
 28 16  1  0
M  CHG  1  34  -1
M  END
>  <UniqueID>  (30) 
29

>  <SMILES>  (30) 
Cc1ccc/c(=N/c2ccc(S(=O)(=O)N=c3nccc[n-]3)cc2)[nH]1

>  <Energy>  (30) 
53.97869811597517

>  <Genealogy>  (30) 
Cc1cccc(=Nc2ccc(S(=O)(=O)N=c3nccc[n-]3)cc2)[nH]1 (protonated)
Cc1ccc/c(=N/c2ccc(S(=O)(=O)N=c3nccc[n-]3)cc2)[nH]1 (cis-trans isomerization)
Cc1ccc/c(=N/c2ccc(S(=O)(=O)N=c3nccc[n-]3)cc2)[nH]1 (3D coordinates assigned)
Cc1ccc/c(=N/c2ccc(S(=O)(=O)N=c3nccc[n-]3)cc2)[nH]1 (optimized conformer: 53.97869811597517 kcal/mol)

>  <smiles>  (30) 
Cc1cccc(=Nc2ccc(S(=O)(=O)N=c3nccc[nH]3)cc2)[nH]1

>  <score_type>  (30) 
oracle

>  <origin>  (30) 
adgpu

>  <m_score__min__energy>  (30) 
-9.4700000000000006

>  <m_primary>  (30) 
energy

$$$$
30:0
     RDKit          3D

 50 52  0  0  1  0  0  0  0  0999 V2000
   -2.8560   14.5780  -32.8130 C   0  0  0  0  0  0  0  0  0  0  0  0
   -3.5270   14.7150  -34.0320 O   0  0  0  0  0  0  0  0  0  0  0  0
   -4.8170   14.3210  -34.2480 C   0  0  0  0  0  0  0  0  0  0  0  0
   -5.0110   13.0270  -34.7370 C   0  0  0  0  0  0  0  0  0  0  0  0
   -6.2690   12.5600  -34.9770 C   0  0  0  0  0  0  0  0  0  0  0  0
   -7.3310   13.4010  -34.7240 C   0  0  0  0  0  0  0  0  0  0  0  0
   -7.1310   14.6770  -34.2410 C   0  0  0  0  0  0  0  0  0  0  0  0
   -5.8380   15.1710  -33.9890 C   0  0  0  0  0  0  0  0  0  0  0  0
   -5.7050   16.7940  -33.3860 S   0  0  0  0  0  0  0  0  0  0  0  0
   -5.7030   16.7790  -31.8700 O   0  0  0  0  0  0  0  0  0  0  0  0
   -6.8740   17.6450  -33.8310 O   0  0  0  0  0  0  0  0  0  0  0  0
   -4.2200   17.4740  -33.8690 N   0  0  0  0  0  0  0  0  0  0  0  0
   -3.7870   18.7980  -33.6500 C   0  0  0  0  0  0  0  0  0  0  0  0
   -2.6000   19.3450  -34.0280 C   0  0  0  0  0  0  0  0  0  0  0  0
   -2.2490   20.6690  -33.7920 C   0  0  0  0  0  0  0  0  0  0  0  0
   -3.1820   21.4390  -33.1360 C   0  0  0  0  0  0  0  0  0  0  0  0
   -4.4100   20.9600  -32.7190 C   0  0  0  0  0  0  0  0  0  0  0  0
   -5.3430   21.8550  -32.0250 C   0  0  0  0  0  0  0  0  0  0  0  0
   -6.6250   21.4630  -31.9220 N   0  0  0  0  0  0  0  0  0  0  0  0
   -7.4880   22.2710  -31.2910 C   0  0  0  0  0  0  0  0  0  0  0  0
   -8.7290   21.9170  -31.1790 N   0  0  0  0  0  0  0  0  0  0  0  0
   -9.2070   20.6860  -31.7110 C   0  0  0  0  0  0  0  0  0  0  0  0
   -8.6250   19.3700  -31.3510 C   0  0  0  0  0  0  0  0  0  0  0  0
  -10.1820   20.7280  -32.5320 O   0  0  0  0  0  0  0  0  0  0  0  0
   -7.1410   23.4850  -30.7360 C   0  0  0  0  0  0  0  0  0  0  0  0
   -5.8190   23.8630  -30.8560 C   0  0  0  0  0  0  0  0  0  0  0  0
   -5.3440   25.1290  -30.3050 C   0  0  0  0  0  0  0  0  0  0  0  0
   -6.1060   25.7600  -29.2820 N   0  0  0  0  0  0  0  0  0  0  0  0
   -4.2620   25.6560  -30.7390 O   0  0  0  0  0  0  0  0  0  0  0  0
   -4.9660   23.0330  -31.4970 N   0  0  0  0  0  0  0  0  0  0  0  0
   -4.6860   19.6410  -32.9870 C   0  0  0  0  0  0  0  0  0  0  0  0
   -3.5659   14.7229  -31.9854 H   0  0  0  0  0  0  0  0  0  0  0  0
   -2.4168   13.5716  -32.7473 H   0  0  0  0  0  0  0  0  0  0  0  0
   -2.0574   15.3316  -32.7473 H   0  0  0  0  0  0  0  0  0  0  0  0
   -4.1424   12.3802  -34.9298 H   0  0  0  0  0  0  0  0  0  0  0  0
   -6.4316   11.5422  -35.3612 H   0  0  0  0  0  0  0  0  0  0  0  0
   -8.3561   13.0483  -34.9106 H   0  0  0  0  0  0  0  0  0  0  0  0
   -8.0008   15.3223  -34.0487 H   0  0  0  0  0  0  0  0  0  0  0  0
   -3.5480   16.8420  -34.3890 H   0  0  0  0  0  0  0  0  0  0  0  0
   -1.8763   18.7023  -34.5506 H   0  0  0  0  0  0  0  0  0  0  0  0
   -1.2794   21.0785  -34.1118 H   0  0  0  0  0  0  0  0  0  0  0  0
   -2.9376   22.4920  -32.9325 H   0  0  0  0  0  0  0  0  0  0  0  0
   -8.5829   19.2749  -30.2559 H   0  0  0  0  0  0  0  0  0  0  0  0
   -9.2516   18.5663  -31.7651 H   0  0  0  0  0  0  0  0  0  0  0  0
   -7.6088   19.2929  -31.7651 H   0  0  0  0  0  0  0  0  0  0  0  0
   -7.8797   24.1192  -30.2241 H   0  0  0  0  0  0  0  0  0  0  0  0
   -6.5030   25.2550  -28.4600 H   0  0  0  0  0  0  0  0  0  0  0  0
   -6.2750   26.8040  -29.3660 H   0  0  0  0  0  0  0  0  0  0  0  0
   -3.9800   23.3640  -31.5600 H   0  0  0  0  0  0  0  0  0  0  0  0
   -5.6548   19.2301  -32.6668 H   0  0  0  0  0  0  0  0  0  0  0  0
  1  2  1  0
  2  3  1  0
  3  4  2  0
  4  5  1  0
  5  6  2  0
  6  7  1  0
  7  8  2  0
  8  9  1  0
  9 10  2  0
  9 11  2  0
  9 12  1  0
 12 13  1  0
 13 14  2  0
 14 15  1  0
 15 16  2  0
 16 17  1  0
 17 18  1  0
 18 19  2  0
 19 20  1  0
 20 21  2  0
 21 22  1  0
 22 23  1  0
 22 24  2  0
 20 25  1  0
 25 26  2  0
 26 27  1  0
 27 28  1  0
 27 29  2  0
 26 30  1  0
 17 31  2  0
  8  3  1  0
 31 13  1  0
 30 18  1  0
  1 32  1  0
  1 33  1  0
  1 34  1  0
  4 35  1  0
  5 36  1  0
  6 37  1  0
  7 38  1  0
 12 39  1  0
 14 40  1  0
 15 41  1  0
 16 42  1  0
 23 43  1  0
 23 44  1  0
 23 45  1  0
 25 46  1  0
 28 47  1  0
 28 48  1  0
 30 49  1  0
 31 50  1  0
M  END
>  <smiles>  (31) 
COc1ccccc1S(=O)(=O)Nc1cccc(-c2nc(=NC(C)=O)cc(C(N)=O)[nH]2)c1

>  <score_type>  (31) 
oracle

>  <origin>  (31) 
adgpu

>  <m_score__min__energy>  (31) 
-10.02

>  <m_primary>  (31) 
energy

$$$$
31:0
     RDKit          3D

 50 53  0  0  0  0  0  0  0  0999 V2000
   -5.7780   15.9770  -33.7840 C   0  0  0  0  0  0  0  0  0  0  0  0
   -6.4780   17.1330  -34.2340 O   0  0  0  0  0  0  0  0  0  0  0  0
   -6.4630   18.3730  -33.5780 C   0  0  0  0  0  0  0  0  0  0  0  0
   -7.5180   18.6800  -32.7120 C   0  0  0  0  0  0  0  0  0  0  0  0
   -7.5570   19.9080  -32.0440 C   0  0  0  0  0  0  0  0  0  0  0  0
   -6.5320   20.8510  -32.2310 C   0  0  0  0  0  0  0  0  0  0  0  0
   -6.5620   22.1750  -31.5700 C   0  0  0  0  0  0  0  0  0  0  0  0
   -7.6700   22.8460  -31.0770 C   0  0  0  0  0  0  0  0  0  0  0  0
   -7.2010   24.0570  -30.6070 C   0  0  0  0  0  0  0  0  0  0  0  0
   -5.8400   24.0500  -30.8410 C   0  0  0  0  0  0  0  0  0  0  0  0
   -4.8980   25.1420  -30.5330 C   0  0  0  0  0  0  0  0  0  0  0  0
   -5.3470   26.2870  -30.2620 O   0  0  0  0  0  0  0  0  0  0  0  0
   -3.4830   24.9200  -30.4670 N   0  0  0  0  0  0  0  0  0  0  0  0
   -2.8110   24.1040  -29.4990 C   0  0  0  0  0  0  0  0  0  0  0  0
   -1.9600   24.5430  -28.5010 C   0  0  0  0  0  0  0  0  0  0  0  0
   -1.5540   25.9620  -28.2440 C   0  0  0  0  0  0  0  0  0  0  0  0
   -1.5470   23.4680  -27.7840 N   0  0  0  0  0  0  0  0  0  0  0  0
   -0.6440   23.5040  -26.6300 C   0  0  0  0  0  0  0  0  0  0  0  0
   -2.1130   22.3710  -28.2860 N   0  0  0  0  0  0  0  0  0  0  0  0
   -2.0180   21.0440  -27.7410 C   0  0  0  0  0  0  0  0  0  0  0  0
   -0.8220   20.3160  -27.8520 C   0  0  0  0  0  0  0  0  0  0  0  0
   -0.7420   19.0120  -27.3560 C   0  0  0  0  0  0  0  0  0  0  0  0
   -1.8570   18.4210  -26.7540 C   0  0  0  0  0  0  0  0  0  0  0  0
   -3.0540   19.1360  -26.6490 C   0  0  0  0  0  0  0  0  0  0  0  0
   -3.1360   20.4420  -27.1400 C   0  0  0  0  0  0  0  0  0  0  0  0
   -2.8650   22.7320  -29.3470 C   0  0  0  0  0  0  0  0  0  0  0  0
   -3.5110   21.9290  -30.0720 O   0  0  0  0  0  0  0  0  0  0  0  0
   -5.4910   22.9140  -31.3980 O   0  0  0  0  0  0  0  0  0  0  0  0
   -5.4670   20.5370  -33.0930 C   0  0  0  0  0  0  0  0  0  0  0  0
   -5.4320   19.3110  -33.7620 C   0  0  0  0  0  0  0  0  0  0  0  0
   -5.7675   15.9597  -32.6842 H   0  0  0  0  0  0  0  0  0  0  0  0
   -6.2812   15.0741  -34.1601 H   0  0  0  0  0  0  0  0  0  0  0  0
   -4.7447   16.0045  -34.1601 H   0  0  0  0  0  0  0  0  0  0  0  0
   -8.3245   17.9486  -32.5550 H   0  0  0  0  0  0  0  0  0  0  0  0
   -8.3945   20.1370  -31.3686 H   0  0  0  0  0  0  0  0  0  0  0  0
   -8.7098   22.4875  -31.0629 H   0  0  0  0  0  0  0  0  0  0  0  0
   -7.7901   24.8613  -30.1421 H   0  0  0  0  0  0  0  0  0  0  0  0
   -1.5036   26.1382  -27.1594 H   0  0  0  0  0  0  0  0  0  0  0  0
   -0.5667   26.1478  -28.6920 H   0  0  0  0  0  0  0  0  0  0  0  0
   -2.2937   26.6419  -28.6920 H   0  0  0  0  0  0  0  0  0  0  0  0
   -1.2340   23.4805  -25.7019 H   0  0  0  0  0  0  0  0  0  0  0  0
    0.0256   22.6318  -26.6610 H   0  0  0  0  0  0  0  0  0  0  0  0
   -0.0460   24.4267  -26.6610 H   0  0  0  0  0  0  0  0  0  0  0  0
    0.0555   20.7743  -28.3315 H   0  0  0  0  0  0  0  0  0  0  0  0
    0.1997   18.4496  -27.4393 H   0  0  0  0  0  0  0  0  0  0  0  0
   -1.7926   17.3947  -26.3634 H   0  0  0  0  0  0  0  0  0  0  0  0
   -3.9326   18.6699  -26.1792 H   0  0  0  0  0  0  0  0  0  0  0  0
   -4.0798   21.0007  -27.0555 H   0  0  0  0  0  0  0  0  0  0  0  0
   -4.6541   21.2629  -33.2421 H   0  0  0  0  0  0  0  0  0  0  0  0
   -4.5941   19.0786  -34.4357 H   0  0  0  0  0  0  0  0  0  0  0  0
  1  2  1  0
  2  3  1  0
  3  4  2  0
  4  5  1  0
  5  6  2  0
  6  7  1  0
  7  8  2  0
  8  9  1  0
  9 10  2  0
 10 11  1  0
 11 12  2  0
 11 13  1  0
 13 14  1  0
 14 15  2  0
 15 16  1  0
 15 17  1  0
 17 18  1  0
 17 19  1  0
 19 20  1  0
 20 21  2  0
 21 22  1  0
 22 23  2  0
 23 24  1  0
 24 25  2  0
 19 26  1  0
 26 27  2  0
 10 28  1  0
  6 29  1  0
 29 30  2  0
 30  3  1  0
 28  7  1  0
 26 14  1  0
 25 20  1  0
  1 31  1  0
  1 32  1  0
  1 33  1  0
  4 34  1  0
  5 35  1  0
  8 36  1  0
  9 37  1  0
 16 38  1  0
 16 39  1  0
 16 40  1  0
 18 41  1  0
 18 42  1  0
 18 43  1  0
 21 44  1  0
 22 45  1  0
 23 46  1  0
 24 47  1  0
 25 48  1  0
 29 49  1  0
 30 50  1  0
M  CHG  1  13  -1
M  END
>  <UniqueID>  (32) 
30

>  <SMILES>  (32) 
COc1ccc(-c2ccc(C(=O)[N-]c3c(C)n(C)n(-c4ccccc4)c3=O)o2)cc1

>  <Energy>  (32) 
122.99346957454296

>  <Genealogy>  (32) 
COc1ccc(-c2ccc(C(=O)[N-]c3c(C)n(C)n(-c4ccccc4)c3=O)o2)cc1 (protonated)
COc1ccc(-c2ccc(C(=O)[N-]c3c(C)n(C)n(-c4ccccc4)c3=O)o2)cc1 (3D coordinates assigned)
COc1ccc(-c2ccc(C(=O)[N-]c3c(C)n(C)n(-c4ccccc4)c3=O)o2)cc1 (optimized conformer: 122.99346957454296 kcal/mol)

>  <smiles>  (32) 
COc1ccc(-c2ccc(C(=O)Nc3c(C)n(C)n(-c4ccccc4)c3=O)o2)cc1

>  <score_type>  (32) 
oracle

>  <origin>  (32) 
adgpu

>  <m_score__min__energy>  (32) 
-10.67

>  <m_primary>  (32) 
energy

$$$$
32:0
     RDKit          3D

 58 61  0  0  0  0  0  0  0  0999 V2000
   -6.1189   17.9894  -35.0644 H   0  0  0  0  0  0  0  0  0  0  0  0
   -5.4160   18.3040  -34.2790 C   0  0  0  0  0  0  0  0  0  0  0  0
   -4.0610   18.4600  -34.5840 C   0  0  0  0  0  0  0  0  0  0  0  0
   -3.7007   18.2582  -35.6036 H   0  0  0  0  0  0  0  0  0  0  0  0
   -3.1610   18.8730  -33.5930 C   0  0  0  0  0  0  0  0  0  0  0  0
   -1.4640   19.1110  -33.9930 S   0  0  0  0  0  0  0  0  0  0  0  0
   -0.6480   18.7860  -32.7770 O   0  0  0  0  0  0  0  0  0  0  0  0
   -1.1120   18.1970  -35.1310 O   0  0  0  0  0  0  0  0  0  0  0  0
   -1.2150   20.7610  -34.4700 N   0  0  0  0  0  0  0  0  0  0  0  0
   -0.1130   21.3780  -34.7890 C   0  0  0  0  0  0  0  0  0  0  0  0
   -0.1080   22.6460  -35.1170 O   0  0  0  0  0  0  0  0  0  0  0  0
    1.0960   23.0690  -35.3750 N   0  0  0  0  0  0  0  0  0  0  0  0
    1.9250   22.0240  -35.2050 C   0  0  0  0  0  0  0  0  0  0  0  0
    3.4020   22.1080  -35.4060 C   0  0  0  0  0  0  0  0  0  0  0  0
    3.9041   22.1366  -34.4277 H   0  0  0  0  0  0  0  0  0  0  0  0
    3.7460   21.2280  -35.9692 H   0  0  0  0  0  0  0  0  0  0  0  0
    3.6440   23.0214  -35.9692 H   0  0  0  0  0  0  0  0  0  0  0  0
    1.1980   20.8980  -34.8440 C   0  0  0  0  0  0  0  0  0  0  0  0
    1.7650   19.5490  -34.5350 C   0  0  0  0  0  0  0  0  0  0  0  0
    1.8210   19.4158  -33.4445 H   0  0  0  0  0  0  0  0  0  0  0  0
    1.1175   18.7715  -34.9666 H   0  0  0  0  0  0  0  0  0  0  0  0
    2.7735   19.4675  -34.9666 H   0  0  0  0  0  0  0  0  0  0  0  0
   -3.6230   19.0910  -32.2860 C   0  0  0  0  0  0  0  0  0  0  0  0
   -2.9179   19.3995  -31.5001 H   0  0  0  0  0  0  0  0  0  0  0  0
   -4.9740   18.9180  -31.9790 C   0  0  0  0  0  0  0  0  0  0  0  0
   -5.3257   19.0742  -30.9485 H   0  0  0  0  0  0  0  0  0  0  0  0
   -5.8870   18.5450  -32.9810 C   0  0  0  0  0  0  0  0  0  0  0  0
   -7.2850   18.3800  -32.7080 N   0  0  0  0  0  0  0  0  0  0  0  0
   -8.3670   19.6590  -32.2500 S   0  0  0  0  0  0  0  0  0  0  0  0
   -9.3660   19.1460  -31.2500 O   0  0  0  0  0  0  0  0  0  0  0  0
   -9.1040   20.1390  -33.4660 O   0  0  0  0  0  0  0  0  0  0  0  0
   -7.4300   20.9970  -31.5890 C   0  0  0  0  0  0  0  0  0  0  0  0
   -6.3230   21.5190  -32.2830 C   0  0  0  0  0  0  0  0  0  0  0  0
   -5.9682   21.0272  -33.2007 H   0  0  0  0  0  0  0  0  0  0  0  0
   -5.6740   22.6610  -31.8080 C   0  0  0  0  0  0  0  0  0  0  0  0
   -4.8245   23.0811  -32.3665 H   0  0  0  0  0  0  0  0  0  0  0  0
   -6.1020   23.2740  -30.6210 C   0  0  0  0  0  0  0  0  0  0  0  0
   -5.3460   24.7660  -30.0610 S   0  0  0  0  0  0  0  0  0  0  0  0
   -5.0740   25.6600  -31.2400 O   0  0  0  0  0  0  0  0  0  0  0  0
   -6.2920   25.4860  -29.1430 O   0  0  0  0  0  0  0  0  0  0  0  0
   -3.8510   24.4470  -29.2130 N   0  0  0  0  0  0  0  0  0  0  0  0
   -3.0370   23.4110  -29.8930 C   0  0  0  0  0  0  0  0  0  0  0  0
   -3.4521   23.2353  -30.8964 H   0  0  0  0  0  0  0  0  0  0  0  0
   -2.0008   23.7760  -29.9492 H   0  0  0  0  0  0  0  0  0  0  0  0
   -3.0310   22.0780  -29.1160 C   0  0  0  0  0  0  0  0  0  0  0  0
   -4.0620   21.6981  -29.0633 H   0  0  0  0  0  0  0  0  0  0  0  0
   -2.3661   21.3861  -29.6537 H   0  0  0  0  0  0  0  0  0  0  0  0
   -2.5280   22.2100  -27.7920 O   0  0  0  0  0  0  0  0  0  0  0  0
   -2.9080   23.4270  -27.1590 C   0  0  0  0  0  0  0  0  0  0  0  0
   -3.1521   23.2059  -26.1095 H   0  0  0  0  0  0  0  0  0  0  0  0
   -2.0562   24.1142  -27.2690 H   0  0  0  0  0  0  0  0  0  0  0  0
   -4.1210   24.1310  -27.7960 C   0  0  0  0  0  0  0  0  0  0  0  0
   -4.9975   23.4693  -27.7335 H   0  0  0  0  0  0  0  0  0  0  0  0
   -4.3135   25.0682  -27.2532 H   0  0  0  0  0  0  0  0  0  0  0  0
   -7.1680   22.7130  -29.8980 C   0  0  0  0  0  0  0  0  0  0  0  0
   -7.4724   23.1578  -28.9391 H   0  0  0  0  0  0  0  0  0  0  0  0
   -7.8440   21.5930  -30.3900 C   0  0  0  0  0  0  0  0  0  0  0  0
   -8.7002   21.1797  -29.8367 H   0  0  0  0  0  0  0  0  0  0  0  0
  1  2  1  0
  2  3  2  0
  3  4  1  0
  3  5  1  0
  5  6  1  0
  6  7  2  0
  6  8  2  0
  6  9  1  0
  9 10  2  0
 10 11  1  0
 11 12  1  0
 12 13  1  0
 13 14  1  0
 14 15  1  0
 14 16  1  0
 14 17  1  0
 13 18  2  0
 18 19  1  0
 19 20  1  0
 19 21  1  0
 19 22  1  0
  5 23  2  0
 23 24  1  0
 23 25  1  0
 25 26  1  0
 25 27  2  0
 27 28  1  0
 28 29  1  0
 29 30  2  0
 29 31  2  0
 29 32  1  0
 32 33  2  0
 33 34  1  0
 33 35  1  0
 35 36  1  0
 35 37  2  0
 37 38  1  0
 38 39  2  0
 38 40  2  0
 38 41  1  0
 41 42  1  0
 42 43  1  0
 42 44  1  0
 42 45  1  0
 45 46  1  0
 45 47  1  0
 45 48  1  0
 48 49  1  0
 49 50  1  0
 49 51  1  0
 49 52  1  0
 52 53  1  0
 52 54  1  0
 37 55  1  0
 55 56  1  0
 55 57  2  0
 57 58  1  0
 27  2  1  0
 57 32  1  0
 18 10  1  0
 52 41  1  0
M  CHG  2  12  -1  28  -1
M  END
>  <UniqueID>  (33) 
31

>  <SMILES>  (33) 
Cc1[n-]o/c(=N/S(=O)(=O)c2ccc([N-]S(=O)(=O)c3ccc(S(=O)(=O)N4CCOCC4)cc3)cc2)c1C

>  <Energy>  (33) 
115.59785808579645

>  <Genealogy>  (33) 
Cc1[n-]oc(=NS(=O)(=O)c2ccc([N-]S(=O)(=O)c3ccc(S(=O)(=O)N4CCOCC4)cc3)cc2)c1C (protonated)
Cc1[n-]o/c(=N/S(=O)(=O)c2ccc([N-]S(=O)(=O)c3ccc(S(=O)(=O)N4CCOCC4)cc3)cc2)c1C (cis-trans isomerization)
Cc1[n-]o/c(=N/S(=O)(=O)c2ccc([N-]S(=O)(=O)c3ccc(S(=O)(=O)N4CCOCC4)cc3)cc2)c1C (3D coordinates assigned)
Cc1[n-]o/c(=N/S(=O)(=O)c2ccc([N-]S(=O)(=O)c3ccc(S(=O)(=O)N4CCOCC4)cc3)cc2)c1C (nonaromatic ring conformer: 115.59785808579645 kcal/mol)

>  <smiles>  (33) 
Cc1[nH]oc(=NS(=O)(=O)c2ccc(NS(=O)(=O)c3ccc(S(=O)(=O)N4CCOCC4)cc3)cc2)c1C

>  <score_type>  (33) 
oracle

>  <origin>  (33) 
adgpu

>  <m_score__min__energy>  (33) 
-12.24

>  <m_primary>  (33) 
energy

$$$$
33:0
     RDKit          3D

 39 42  0  0  0  0  0  0  0  0999 V2000
   -4.1740   25.5130  -30.8470 O   0  0  0  0  0  0  0  0  0  0  0  0
   -3.6000   24.5920  -30.2050 C   0  0  0  0  0  0  0  0  0  0  0  0
   -2.7350   24.9310  -29.1250 N   0  0  0  0  0  0  0  0  0  0  0  0
   -2.1140   23.9070  -28.3510 C   0  0  0  0  0  0  0  0  0  0  0  0
   -1.3960   24.2500  -27.1990 C   0  0  0  0  0  0  0  0  0  0  0  0
   -0.8010   23.2550  -26.4210 C   0  0  0  0  0  0  0  0  0  0  0  0
   -0.9140   21.9130  -26.7950 C   0  0  0  0  0  0  0  0  0  0  0  0
   -1.6230   21.5640  -27.9490 C   0  0  0  0  0  0  0  0  0  0  0  0
   -2.2380   22.5570  -28.7290 C   0  0  0  0  0  0  0  0  0  0  0  0
   -2.9210   22.1710  -30.0210 C   0  0  0  0  0  0  0  0  0  0  0  0
   -3.8310   23.2090  -30.5290 N   0  0  0  0  0  0  0  0  0  0  0  0
   -4.8230   22.8480  -31.5490 C   0  0  0  0  0  0  0  0  0  0  0  0
   -4.3020   21.7400  -32.4200 C   0  0  0  0  0  0  0  0  0  0  0  0
   -3.3650   21.9200  -33.3690 N   0  0  0  0  0  0  0  0  0  0  0  0
   -3.1190   20.7080  -33.8500 N   0  0  0  0  0  0  0  0  0  0  0  0
   -3.8630   19.8110  -33.2210 N   0  0  0  0  0  0  0  0  0  0  0  0
   -4.6150   20.4310  -32.3270 N   0  0  0  0  0  0  0  0  0  0  0  0
   -5.5170   19.7480  -31.3980 C   0  0  0  0  0  0  0  0  0  0  0  0
   -6.9530   20.0440  -31.7500 C   0  0  0  0  0  0  0  0  0  0  0  0
   -7.5170   21.2750  -31.3720 C   0  0  0  0  0  0  0  0  0  0  0  0
   -8.8530   21.5610  -31.6630 C   0  0  0  0  0  0  0  0  0  0  0  0
   -9.6430   20.6200  -32.3260 C   0  0  0  0  0  0  0  0  0  0  0  0
   -9.0990   19.3880  -32.6960 C   0  0  0  0  0  0  0  0  0  0  0  0
   -7.7610   19.0900  -32.4080 C   0  0  0  0  0  0  0  0  0  0  0  0
   -7.1350   17.5140  -32.8810 Cl  0  0  0  0  0  0  0  0  0  0  0  0
   -1.3004   25.3060  -26.9062 H   0  0  0  0  0  0  0  0  0  0  0  0
   -0.2429   23.5274  -25.5131 H   0  0  0  0  0  0  0  0  0  0  0  0
   -0.4447   21.1303  -26.1809 H   0  0  0  0  0  0  0  0  0  0  0  0
   -1.6992   20.5078  -28.2468 H   0  0  0  0  0  0  0  0  0  0  0  0
   -2.1490   21.9807  -30.7811 H   0  0  0  0  0  0  0  0  0  0  0  0
   -3.5280   21.2770  -29.8150 H   0  0  0  0  0  0  0  0  0  0  0  0
   -5.7470   22.5152  -31.0536 H   0  0  0  0  0  0  0  0  0  0  0  0
   -5.0254   23.7287  -32.1762 H   0  0  0  0  0  0  0  0  0  0  0  0
   -5.3452   18.6631  -31.4569 H   0  0  0  0  0  0  0  0  0  0  0  0
   -5.3177   20.1062  -30.3772 H   0  0  0  0  0  0  0  0  0  0  0  0
   -6.9020   22.0182  -30.8434 H   0  0  0  0  0  0  0  0  0  0  0  0
   -9.2835   22.5297  -31.3692 H   0  0  0  0  0  0  0  0  0  0  0  0
  -10.6938   20.8489  -32.5570 H   0  0  0  0  0  0  0  0  0  0  0  0
   -9.7246   18.6478  -33.2163 H   0  0  0  0  0  0  0  0  0  0  0  0
  1  2  2  0
  2  3  1  0
  3  4  1  0
  4  5  2  0
  5  6  1  0
  6  7  2  0
  7  8  1  0
  8  9  2  0
  9 10  1  0
 10 11  1  0
 11 12  1  0
 12 13  1  0
 13 14  2  0
 14 15  1  0
 15 16  2  0
 16 17  1  0
 17 18  1  0
 18 19  1  0
 19 20  2  0
 20 21  1  0
 21 22  2  0
 22 23  1  0
 23 24  2  0
 24 25  1  0
 11  2  1  0
 17 13  1  0
 24 19  1  0
  9  4  1  0
  5 26  1  0
  6 27  1  0
  7 28  1  0
  8 29  1  0
 10 30  1  0
 10 31  1  0
 12 32  1  0
 12 33  1  0
 18 34  1  0
 18 35  1  0
 20 36  1  0
 21 37  1  0
 22 38  1  0
 23 39  1  0
M  CHG  1   3  -1
M  END
>  <UniqueID>  (34) 
32

>  <SMILES>  (34) 
O=C1[N-]c2ccccc2CN1Cc1nnnn1Cc1ccccc1Cl

>  <Energy>  (34) 
83.38122980956697

>  <Genealogy>  (34) 
O=C1[N-]c2ccccc2CN1Cc1nnnn1Cc1ccccc1Cl (protonated)
O=C1[N-]c2ccccc2CN1Cc1nnnn1Cc1ccccc1Cl (3D coordinates assigned)
O=C1[N-]c2ccccc2CN1Cc1nnnn1Cc1ccccc1Cl (nonaromatic ring conformer: 83.38122980956697 kcal/mol)

>  <smiles>  (34) 
O=C1Nc2ccccc2CN1Cc1nnnn1Cc1ccccc1Cl

>  <score_type>  (34) 
oracle

>  <origin>  (34) 
adgpu

>  <m_score__min__energy>  (34) 
-10.779999999999999

>  <m_primary>  (34) 
energy

$$$$
34:0
     RDKit          3D

 35 37  0  0  0  0  0  0  0  0999 V2000
   -9.4340   19.5620  -33.1060 N   0  0  0  0  0  0  0  0  0  0  0  0
   -8.4100   19.8350  -32.0980 C   0  0  2  0  0  0  0  0  0  0  0  0
   -8.2640   21.3570  -31.8040 C   0  0  0  0  0  0  0  0  0  0  0  0
   -6.9300   21.6960  -32.1780 O   0  0  0  0  0  0  0  0  0  0  0  0
   -6.2610   20.5820  -32.6390 C   0  0  0  0  0  0  0  0  0  0  0  0
   -4.9400   20.5240  -33.0890 C   0  0  0  0  0  0  0  0  0  0  0  0
   -3.9140   21.9940  -33.1470 S   0  0  0  0  0  0  0  0  0  0  0  0
   -3.4080   21.8300  -31.4270 C   0  0  0  0  0  0  0  0  0  0  0  0
   -2.7370   20.6600  -31.0500 C   0  0  0  0  0  0  0  0  0  0  0  0
   -2.2510   20.5070  -29.7520 C   0  0  0  0  0  0  0  0  0  0  0  0
   -2.4410   21.5180  -28.7970 C   0  0  0  0  0  0  0  0  0  0  0  0
   -1.8650   21.3790  -27.4100 C   0  0  0  0  0  0  0  0  0  0  0  0
   -0.5100   21.1020  -27.4660 F   0  0  0  0  0  0  0  0  0  0  0  0
   -2.4880   20.3510  -26.7240 F   0  0  0  0  0  0  0  0  0  0  0  0
   -2.0550   22.5610  -26.7190 F   0  0  0  0  0  0  0  0  0  0  0  0
   -3.1020   22.6980  -29.1780 C   0  0  0  0  0  0  0  0  0  0  0  0
   -3.6110   22.8580  -30.4780 C   0  0  0  0  0  0  0  0  0  0  0  0
   -4.3280   24.0600  -30.8130 N   0  0  0  0  0  0  0  0  0  0  0  0
   -5.3320   24.0060  -31.5520 O   0  0  0  0  0  0  0  0  0  0  0  0
   -3.8250   25.2930  -30.4690 O   0  0  0  0  0  0  0  0  0  0  0  0
   -4.4330   19.2770  -33.4970 C   0  0  0  0  0  0  0  0  0  0  0  0
   -5.2530   18.1310  -33.4610 C   0  0  0  0  0  0  0  0  0  0  0  0
   -6.5810   18.2260  -33.0140 C   0  0  0  0  0  0  0  0  0  0  0  0
   -7.0590   19.4740  -32.6090 C   0  0  0  0  0  0  0  0  0  0  0  0
   -9.1970   20.1050  -33.9680 H   0  0  0  0  0  0  0  0  0  0  0  0
   -9.4110   18.5460  -33.3600 H   0  0  0  0  0  0  0  0  0  0  0  0
   -8.7253   19.2606  -31.2145 H   0  0  0  0  0  0  0  0  0  0  0  0
   -8.9875   21.9337  -32.3990 H   0  0  0  0  0  0  0  0  0  0  0  0
   -8.4600   21.5869  -30.7463 H   0  0  0  0  0  0  0  0  0  0  0  0
   -2.5920   19.8542  -31.7846 H   0  0  0  0  0  0  0  0  0  0  0  0
   -1.7149   19.5875  -29.4745 H   0  0  0  0  0  0  0  0  0  0  0  0
   -3.2231   23.5103  -28.4462 H   0  0  0  0  0  0  0  0  0  0  0  0
   -3.3928   19.1958  -33.8454 H   0  0  0  0  0  0  0  0  0  0  0  0
   -4.8515   17.1592  -33.7840 H   0  0  0  0  0  0  0  0  0  0  0  0
   -7.2295   17.3380  -32.9836 H   0  0  0  0  0  0  0  0  0  0  0  0
  1  2  1  0
  2  3  1  0
  3  4  1  0
  4  5  1  0
  5  6  2  0
  6  7  1  0
  7  8  1  0
  8  9  2  0
  9 10  1  0
 10 11  2  0
 11 12  1  0
 12 13  1  0
 12 14  1  0
 12 15  1  0
 11 16  1  0
 16 17  2  0
 17 18  1  0
 18 19  2  0
 18 20  1  0
  6 21  1  0
 21 22  2  0
 22 23  1  0
 23 24  2  0
 24  2  1  0
 24  5  1  0
 17  8  1  0
  1 25  1  0
  1 26  1  0
  2 27  1  1
  3 28  1  0
  3 29  1  0
  9 30  1  0
 10 31  1  0
 16 32  1  0
 21 33  1  0
 22 34  1  0
 23 35  1  0
M  CHG  2  18   1  20  -1
M  END
>  <UniqueID>  (35) 
33

>  <SMILES>  (35) 
N[C@@H]1COc2c(Sc3ccc(C(F)(F)F)cc3[N+](=O)[O-])cccc21

>  <Energy>  (35) 
53.31378468018354

>  <Genealogy>  (35) 
N[C@@H]1COc2c(Sc3ccc(C(F)(F)F)cc3[N+](=O)[O-])cccc21 (chirality)
N[C@@H]1COc2c(Sc3ccc(C(F)(F)F)cc3[N+](=O)[O-])cccc21 (3D coordinates assigned)
N[C@@H]1COc2c(Sc3ccc(C(F)(F)F)cc3[N+](=O)[O-])cccc21 (nonaromatic ring conformer: 53.31378468018354 kcal/mol)

>  <smiles>  (35) 
NC1COc2c(Sc3ccc(C(F)(F)F)cc3[N+](=O)[O-])cccc21

>  <score_type>  (35) 
oracle

>  <origin>  (35) 
adgpu

>  <m_score__min__energy>  (35) 
-8.0399999999999991

>  <m_primary>  (35) 
energy

$$$$
35:0
     RDKit          3D

 57 61  0  0  0  0  0  0  0  0999 V2000
   -3.8820   25.4310  -30.4850 O   0  0  0  0  0  0  0  0  0  0  0  0
   -3.9500   24.1730  -30.4690 C   0  0  0  0  0  0  0  0  0  0  0  0
   -4.7330   23.5170  -31.4750 N   0  0  0  0  0  0  0  0  0  0  0  0
   -4.4370   22.2550  -32.0940 C   0  0  0  0  0  0  0  0  0  0  0  0
   -3.1220   21.9250  -32.4740 C   0  0  0  0  0  0  0  0  0  0  0  0
   -2.8580   20.7160  -33.1210 C   0  0  0  0  0  0  0  0  0  0  0  0
   -3.8990   19.8340  -33.4110 C   0  0  0  0  0  0  0  0  0  0  0  0
   -5.2100   20.1600  -33.0570 C   0  0  0  0  0  0  0  0  0  0  0  0
   -5.4880   21.3690  -32.3980 C   0  0  0  0  0  0  0  0  0  0  0  0
   -6.8400   21.6930  -32.0330 N   0  0  0  0  0  0  0  0  0  0  0  0
   -7.6270   20.7560  -31.2290 C   0  0  0  0  0  0  0  0  0  0  0  0
   -9.1170   20.9670  -31.5120 C   0  0  0  0  0  0  0  0  0  0  0  0
   -9.4740   22.3260  -31.3460 O   0  0  0  0  0  0  0  0  0  0  0  0
   -8.8090   23.1200  -32.3130 C   0  0  0  0  0  0  0  0  0  0  0  0
   -7.2940   23.0850  -32.0960 C   0  0  0  0  0  0  0  0  0  0  0  0
   -3.2680   23.4220  -29.3900 C   0  0  0  0  0  0  0  0  0  0  0  0
   -3.8310   22.2470  -28.8610 C   0  0  0  0  0  0  0  0  0  0  0  0
   -3.1850   21.5560  -27.8320 C   0  0  0  0  0  0  0  0  0  0  0  0
   -1.9770   22.0290  -27.3180 C   0  0  0  0  0  0  0  0  0  0  0  0
   -1.4050   23.1980  -27.8330 C   0  0  0  0  0  0  0  0  0  0  0  0
    0.1010   23.8100  -27.1580 S   0  0  0  0  0  0  0  0  0  0  0  0
    0.8930   22.6550  -26.6180 O   0  0  0  0  0  0  0  0  0  0  0  0
    0.9140   24.4760  -28.2340 O   0  0  0  0  0  0  0  0  0  0  0  0
   -0.2720   24.9730  -25.9210 N   0  0  0  0  0  0  0  0  0  0  0  0
   -0.4640   24.5910  -24.5240 C   0  0  0  0  0  0  0  0  0  0  0  0
   -0.7320   25.9040  -23.7530 C   0  0  0  0  0  0  0  0  0  0  0  0
   -0.6450   26.9490  -24.8090 C   0  0  0  0  0  0  0  0  0  0  0  0
   -0.8020   28.3270  -24.6570 C   0  0  0  0  0  0  0  0  0  0  0  0
   -0.6880   29.1440  -25.7920 C   0  0  0  0  0  0  0  0  0  0  0  0
   -0.4250   28.5730  -27.0510 C   0  0  0  0  0  0  0  0  0  0  0  0
   -0.2730   27.1830  -27.1800 C   0  0  0  0  0  0  0  0  0  0  0  0
   -0.3850   26.3870  -26.0320 C   0  0  0  0  0  0  0  0  0  0  0  0
   -2.0560   23.8990  -28.8580 C   0  0  0  0  0  0  0  0  0  0  0  0
   -2.2989   22.6227  -32.2602 H   0  0  0  0  0  0  0  0  0  0  0  0
   -1.8263   20.4585  -33.4027 H   0  0  0  0  0  0  0  0  0  0  0  0
   -3.6872   18.8814  -33.9187 H   0  0  0  0  0  0  0  0  0  0  0  0
   -6.0295   19.4661  -33.2956 H   0  0  0  0  0  0  0  0  0  0  0  0
   -7.3468   19.7246  -31.4891 H   0  0  0  0  0  0  0  0  0  0  0  0
   -7.4280   20.9319  -30.1615 H   0  0  0  0  0  0  0  0  0  0  0  0
   -9.3342   20.6611  -32.5460 H   0  0  0  0  0  0  0  0  0  0  0  0
   -9.6992   20.3610  -30.8022 H   0  0  0  0  0  0  0  0  0  0  0  0
   -9.0386   22.7334  -33.3169 H   0  0  0  0  0  0  0  0  0  0  0  0
   -9.1555   24.1594  -32.2147 H   0  0  0  0  0  0  0  0  0  0  0  0
   -6.7924   23.5965  -32.9307 H   0  0  0  0  0  0  0  0  0  0  0  0
   -7.0476   23.5934  -31.1522 H   0  0  0  0  0  0  0  0  0  0  0  0
   -4.7846   21.8698  -29.2590 H   0  0  0  0  0  0  0  0  0  0  0  0
   -3.6305   20.6359  -27.4259 H   0  0  0  0  0  0  0  0  0  0  0  0
   -1.4736   21.4824  -26.5070 H   0  0  0  0  0  0  0  0  0  0  0  0
   -1.3230   23.9104  -24.4290 H   0  0  0  0  0  0  0  0  0  0  0  0
    0.4164   24.0645  -24.1269 H   0  0  0  0  0  0  0  0  0  0  0  0
   -1.7306   25.8927  -23.2919 H   0  0  0  0  0  0  0  0  0  0  0  0
   -0.0244   26.0687  -22.9271 H   0  0  0  0  0  0  0  0  0  0  0  0
   -1.0106   28.7633  -23.6690 H   0  0  0  0  0  0  0  0  0  0  0  0
   -0.8045   30.2337  -25.6974 H   0  0  0  0  0  0  0  0  0  0  0  0
   -0.3381   29.2182  -27.9377 H   0  0  0  0  0  0  0  0  0  0  0  0
   -0.0704   26.7287  -28.1611 H   0  0  0  0  0  0  0  0  0  0  0  0
   -1.6161   24.8283  -29.2489 H   0  0  0  0  0  0  0  0  0  0  0  0
  1  2  2  0
  2  3  1  0
  3  4  1  0
  4  5  2  0
  5  6  1  0
  6  7  2  0
  7  8  1  0
  8  9  2  0
  9 10  1  0
 10 11  1  0
 11 12  1  0
 12 13  1  0
 13 14  1  0
 14 15  1  0
  2 16  1  0
 16 17  2  0
 17 18  1  0
 18 19  2  0
 19 20  1  0
 20 21  1  0
 21 22  2  0
 21 23  2  0
 21 24  1  0
 24 25  1  0
 25 26  1  0
 26 27  1  0
 27 28  2  0
 28 29  1  0
 29 30  2  0
 30 31  1  0
 31 32  2  0
 20 33  2  0
  9  4  1  0
 15 10  1  0
 33 16  1  0
 32 24  1  0
 32 27  1  0
  5 34  1  0
  6 35  1  0
  7 36  1  0
  8 37  1  0
 11 38  1  0
 11 39  1  0
 12 40  1  0
 12 41  1  0
 14 42  1  0
 14 43  1  0
 15 44  1  0
 15 45  1  0
 17 46  1  0
 18 47  1  0
 19 48  1  0
 25 49  1  0
 25 50  1  0
 26 51  1  0
 26 52  1  0
 28 53  1  0
 29 54  1  0
 30 55  1  0
 31 56  1  0
 33 57  1  0
M  CHG  1   3  -1
M  END
>  <UniqueID>  (36) 
34

>  <SMILES>  (36) 
O=C([N-]c1ccccc1N1CCOCC1)c1cccc(S(=O)(=O)N2CCc3ccccc32)c1

>  <Energy>  (36) 
92.64340168311104

>  <Genealogy>  (36) 
O=C([N-]c1ccccc1N1CCOCC1)c1cccc(S(=O)(=O)N2CCc3ccccc32)c1 (protonated)
O=C([N-]c1ccccc1N1CCOCC1)c1cccc(S(=O)(=O)N2CCc3ccccc32)c1 (3D coordinates assigned)
O=C([N-]c1ccccc1N1CCOCC1)c1cccc(S(=O)(=O)N2CCc3ccccc32)c1 (nonaromatic ring conformer: 92.64340168311104 kcal/mol)

>  <smiles>  (36) 
O=C(Nc1ccccc1N1CCOCC1)c1cccc(S(=O)(=O)N2CCc3ccccc32)c1

>  <score_type>  (36) 
oracle

>  <origin>  (36) 
adgpu

>  <m_score__min__energy>  (36) 
-11.300000000000001

>  <m_primary>  (36) 
energy

$$$$
36:0
     RDKit          3D

 51 54  0  0  0  0  0  0  0  0999 V2000
   -5.3240   15.7160  -32.2140 C   0  0  0  0  0  0  0  0  0  0  0  0
   -4.6090   16.8810  -32.7610 N   0  0  0  0  0  0  0  0  0  0  0  0
   -5.5580   17.8220  -33.3780 C   0  0  0  0  0  0  0  0  0  0  0  0
   -4.8330   19.1210  -33.7620 C   0  0  0  0  0  0  0  0  0  0  0  0
   -3.5300   18.8880  -34.4240 N   0  0  0  0  0  0  0  0  0  0  0  0
   -2.1860   19.6430  -33.5950 S   0  0  0  0  0  0  0  0  0  0  0  0
   -1.2460   18.5790  -33.0990 O   0  0  0  0  0  0  0  0  0  0  0  0
   -1.4290   20.5070  -34.5650 O   0  0  0  0  0  0  0  0  0  0  0  0
   -2.7010   20.6350  -32.2310 C   0  0  0  0  0  0  0  0  0  0  0  0
   -2.9110   20.0510  -30.9750 C   0  0  0  0  0  0  0  0  0  0  0  0
   -3.2820   20.8420  -29.8850 C   0  0  0  0  0  0  0  0  0  0  0  0
   -3.4270   22.2290  -30.0340 C   0  0  0  0  0  0  0  0  0  0  0  0
   -3.7090   23.0840  -28.8690 C   0  0  0  0  0  0  0  0  0  0  0  0
   -3.1820   22.8950  -27.6470 N   0  0  0  0  0  0  0  0  0  0  0  0
   -3.7260   23.8020  -26.8840 O   0  0  0  0  0  0  0  0  0  0  0  0
   -4.5860   24.5630  -27.5030 N   0  0  0  0  0  0  0  0  0  0  0  0
   -4.6000   24.1330  -28.7750 C   0  0  0  0  0  0  0  0  0  0  0  0
   -5.7210   24.7260  -29.9980 S   0  0  0  0  0  0  0  0  0  0  0  0
   -4.9420   25.4630  -31.0500 O   0  0  0  0  0  0  0  0  0  0  0  0
   -6.7030   25.6690  -29.3630 O   0  0  0  0  0  0  0  0  0  0  0  0
   -6.6150   23.3850  -30.7150 C   0  0  0  0  0  0  0  0  0  0  0  0
   -7.5910   22.7170  -29.9630 C   0  0  0  0  0  0  0  0  0  0  0  0
   -8.2240   21.5830  -30.4800 C   0  0  0  0  0  0  0  0  0  0  0  0
   -7.8940   21.1170  -31.7570 C   0  0  0  0  0  0  0  0  0  0  0  0
   -8.7310   19.5460  -32.4470 Br  0  0  0  0  0  0  0  0  0  0  0  0
   -6.9420   21.7970  -32.5230 C   0  0  0  0  0  0  0  0  0  0  0  0
   -6.3060   22.9310  -32.0060 C   0  0  0  0  0  0  0  0  0  0  0  0
   -3.2470   22.8080  -31.2980 C   0  0  0  0  0  0  0  0  0  0  0  0
   -2.8720   22.0170  -32.3870 C   0  0  0  0  0  0  0  0  0  0  0  0
   -3.2560   17.4950  -34.8230 C   0  0  0  0  0  0  0  0  0  0  0  0
   -3.5660   16.4500  -33.7240 C   0  0  0  0  0  0  0  0  0  0  0  0
   -5.3005   15.7543  -31.1149 H   0  0  0  0  0  0  0  0  0  0  0  0
   -6.3683   15.7315  -32.5592 H   0  0  0  0  0  0  0  0  0  0  0  0
   -4.8374   14.7919  -32.5592 H   0  0  0  0  0  0  0  0  0  0  0  0
   -4.1460   17.3580  -31.9530 H   0  0  0  0  0  0  0  0  0  0  0  0
   -5.9898   17.3650  -34.2806 H   0  0  0  0  0  0  0  0  0  0  0  0
   -6.3576   18.0531  -32.6588 H   0  0  0  0  0  0  0  0  0  0  0  0
   -5.4767   19.6909  -34.4482 H   0  0  0  0  0  0  0  0  0  0  0  0
   -4.6326   19.6709  -32.8306 H   0  0  0  0  0  0  0  0  0  0  0  0
   -2.7833   18.9660  -30.8467 H   0  0  0  0  0  0  0  0  0  0  0  0
   -3.4612   20.3749  -28.9054 H   0  0  0  0  0  0  0  0  0  0  0  0
   -7.8598   23.0864  -28.9624 H   0  0  0  0  0  0  0  0  0  0  0  0
   -8.9824   21.0565  -29.8820 H   0  0  0  0  0  0  0  0  0  0  0  0
   -6.6928   21.4400  -33.5332 H   0  0  0  0  0  0  0  0  0  0  0  0
   -5.5621   23.4677  -32.6131 H   0  0  0  0  0  0  0  0  0  0  0  0
   -3.4015   23.8887  -31.4329 H   0  0  0  0  0  0  0  0  0  0  0  0
   -2.7103   22.4812  -33.3711 H   0  0  0  0  0  0  0  0  0  0  0  0
   -3.8702   17.2612  -35.7051 H   0  0  0  0  0  0  0  0  0  0  0  0
   -2.1771   17.4300  -35.0271 H   0  0  0  0  0  0  0  0  0  0  0  0
   -3.9064   15.5248  -34.2121 H   0  0  0  0  0  0  0  0  0  0  0  0
   -2.6395   16.3079  -33.1484 H   0  0  0  0  0  0  0  0  0  0  0  0
  1  2  1  0
  2  3  1  0
  3  4  1  0
  4  5  1  0
  5  6  1  0
  6  7  2  0
  6  8  2  0
  6  9  1  0
  9 10  2  0
 10 11  1  0
 11 12  2  0
 12 13  1  0
 13 14  2  0
 14 15  1  0
 15 16  1  0
 16 17  2  0
 17 18  1  0
 18 19  2  0
 18 20  2  0
 18 21  1  0
 21 22  2  0
 22 23  1  0
 23 24  2  0
 24 25  1  0
 24 26  1  0
 26 27  2  0
 12 28  1  0
 28 29  2  0
  5 30  1  0
 30 31  1  0
 31  2  1  0
 29  9  1  0
 17 13  1  0
 27 21  1  0
  1 32  1  0
  1 33  1  0
  1 34  1  0
  2 35  1  0
  3 36  1  0
  3 37  1  0
  4 38  1  0
  4 39  1  0
 10 40  1  0
 11 41  1  0
 22 42  1  0
 23 43  1  0
 26 44  1  0
 27 45  1  0
 28 46  1  0
 29 47  1  0
 30 48  1  0
 30 49  1  0
 31 50  1  0
 31 51  1  0
M  CHG  1   2   1
M  END
>  <UniqueID>  (37) 
35

>  <SMILES>  (37) 
C[NH+]1CCN(S(=O)(=O)c2ccc(-c3nonc3S(=O)(=O)c3ccc(Br)cc3)cc2)CC1

>  <Energy>  (37) 
103.10154105694163

>  <Genealogy>  (37) 
C[NH+]1CCN(S(=O)(=O)c2ccc(-c3nonc3S(=O)(=O)c3ccc(Br)cc3)cc2)CC1 (protonated)
C[NH+]1CCN(S(=O)(=O)c2ccc(-c3nonc3S(=O)(=O)c3ccc(Br)cc3)cc2)CC1 (3D coordinates assigned)
C[NH+]1CCN(S(=O)(=O)c2ccc(-c3nonc3S(=O)(=O)c3ccc(Br)cc3)cc2)CC1 (nonaromatic ring conformer: 103.10154105694163 kcal/mol)

>  <smiles>  (37) 
CN1CCN(S(=O)(=O)c2ccc(-c3nonc3S(=O)(=O)c3ccc(Br)cc3)cc2)CC1

>  <score_type>  (37) 
oracle

>  <origin>  (37) 
adgpu

>  <m_score__min__energy>  (37) 
-10.57

>  <m_primary>  (37) 
energy

$$$$
37:0
     RDKit          3D

 46 48  0  0  0  0  0  0  0  0999 V2000
   -7.1670   24.5510  -30.6770 N   0  0  0  0  0  0  0  0  0  0  0  0
   -7.1700   23.1660  -31.0520 C   0  0  0  0  0  0  0  0  0  0  0  0
   -8.3890   22.5660  -31.4020 C   0  0  0  0  0  0  0  0  0  0  0  0
   -8.4400   21.2240  -31.7790 C   0  0  0  0  0  0  0  0  0  0  0  0
   -7.2710   20.4600  -31.8190 C   0  0  0  0  0  0  0  0  0  0  0  0
   -7.3240   18.7580  -32.2720 S   0  0  0  0  0  0  0  0  0  0  0  0
   -8.7650   18.3360  -32.3490 O   0  0  0  0  0  0  0  0  0  0  0  0
   -6.6460   17.9280  -31.2170 O   0  0  0  0  0  0  0  0  0  0  0  0
   -6.5640   18.5080  -33.8320 N   0  0  0  0  0  0  0  0  0  0  0  0
   -5.2670   19.2150  -33.9280 C   0  0  0  0  0  0  0  0  0  0  0  0
   -4.1580   18.5570  -33.0850 C   0  0  0  0  0  0  0  0  0  0  0  0
   -4.1910   17.0200  -33.1360 C   0  0  0  0  0  0  0  0  0  0  0  0
   -5.0580   16.5050  -34.2840 C   0  0  0  0  0  0  0  0  0  0  0  0
   -6.4910   17.0580  -34.1760 C   0  0  0  0  0  0  0  0  0  0  0  0
   -6.0500   21.0450  -31.4660 C   0  0  0  0  0  0  0  0  0  0  0  0
   -5.9830   22.3940  -31.0810 C   0  0  0  0  0  0  0  0  0  0  0  0
   -4.4060   23.0830  -30.6610 S   0  0  0  0  0  0  0  0  0  0  0  0
   -4.1720   23.0010  -29.1790 O   0  0  0  0  0  0  0  0  0  0  0  0
   -4.3860   24.5310  -31.0670 O   0  0  0  0  0  0  0  0  0  0  0  0
   -3.1270   22.1890  -31.4770 C   0  0  0  0  0  0  0  0  0  0  0  0
   -1.9780   21.8100  -30.7670 C   0  0  0  0  0  0  0  0  0  0  0  0
   -0.9600   21.0980  -31.4080 C   0  0  0  0  0  0  0  0  0  0  0  0
   -1.0820   20.7630  -32.7600 C   0  0  0  0  0  0  0  0  0  0  0  0
   -2.2220   21.1440  -33.4730 C   0  0  0  0  0  0  0  0  0  0  0  0
   -3.2430   21.8560  -32.8350 C   0  0  0  0  0  0  0  0  0  0  0  0
   -6.3110   24.9850  -30.2650 H   0  0  0  0  0  0  0  0  0  0  0  0
   -7.9990   25.1680  -30.7940 H   0  0  0  0  0  0  0  0  0  0  0  0
   -9.3144   23.1602  -31.3789 H   0  0  0  0  0  0  0  0  0  0  0  0
   -9.4038   20.7657  -32.0457 H   0  0  0  0  0  0  0  0  0  0  0  0
   -7.2020   18.9660  -34.5260 H   0  0  0  0  0  0  0  0  0  0  0  0
   -4.9490   19.2223  -34.9810 H   0  0  0  0  0  0  0  0  0  0  0  0
   -5.4173   20.2321  -33.5370 H   0  0  0  0  0  0  0  0  0  0  0  0
   -3.1827   18.8987  -33.4620 H   0  0  0  0  0  0  0  0  0  0  0  0
   -4.3227   18.8535  -32.0386 H   0  0  0  0  0  0  0  0  0  0  0  0
   -3.1650   16.6468  -33.2705 H   0  0  0  0  0  0  0  0  0  0  0  0
   -4.6252   16.6575  -32.1926 H   0  0  0  0  0  0  0  0  0  0  0  0
   -4.6186   16.8257  -35.2401 H   0  0  0  0  0  0  0  0  0  0  0  0
   -5.0983   15.4070  -34.2310 H   0  0  0  0  0  0  0  0  0  0  0  0
   -6.9924   16.9076  -35.1435 H   0  0  0  0  0  0  0  0  0  0  0  0
   -6.9781   16.5137  -33.3536 H   0  0  0  0  0  0  0  0  0  0  0  0
   -5.1311   20.4408  -31.4903 H   0  0  0  0  0  0  0  0  0  0  0  0
   -1.8779   22.0736  -29.7038 H   0  0  0  0  0  0  0  0  0  0  0  0
   -0.0613   20.8007  -30.8477 H   0  0  0  0  0  0  0  0  0  0  0  0
   -0.2814   20.2000  -33.2620 H   0  0  0  0  0  0  0  0  0  0  0  0
   -2.3165   20.8836  -34.5375 H   0  0  0  0  0  0  0  0  0  0  0  0
   -4.1386   22.1555  -33.3991 H   0  0  0  0  0  0  0  0  0  0  0  0
  1  2  1  0
  2  3  2  0
  3  4  1  0
  4  5  2  0
  5  6  1  0
  6  7  2  0
  6  8  2  0
  6  9  1  0
  9 10  1  0
 10 11  1  0
 11 12  1  0
 12 13  1  0
 13 14  1  0
  5 15  1  0
 15 16  2  0
 16 17  1  0
 17 18  2  0
 17 19  2  0
 17 20  1  0
 20 21  2  0
 21 22  1  0
 22 23  2  0
 23 24  1  0
 24 25  2  0
 16  2  1  0
 25 20  1  0
 14  9  1  0
  1 26  1  0
  1 27  1  0
  3 28  1  0
  4 29  1  0
  9 30  1  0
 10 31  1  0
 10 32  1  0
 11 33  1  0
 11 34  1  0
 12 35  1  0
 12 36  1  0
 13 37  1  0
 13 38  1  0
 14 39  1  0
 14 40  1  0
 15 41  1  0
 21 42  1  0
 22 43  1  0
 23 44  1  0
 24 45  1  0
 25 46  1  0
M  CHG  1   9   1
M  END
>  <UniqueID>  (38) 
36

>  <SMILES>  (38) 
Nc1ccc(S(=O)(=O)[NH+]2CCCCC2)cc1S(=O)(=O)c1ccccc1

>  <Energy>  (38) 
57.13438230587602

>  <Genealogy>  (38) 
Nc1ccc(S(=O)(=O)[NH+]2CCCCC2)cc1S(=O)(=O)c1ccccc1 (protonated)
Nc1ccc(S(=O)(=O)[NH+]2CCCCC2)cc1S(=O)(=O)c1ccccc1 (3D coordinates assigned)
Nc1ccc(S(=O)(=O)[NH+]2CCCCC2)cc1S(=O)(=O)c1ccccc1 (nonaromatic ring conformer: 57.13438230587602 kcal/mol)

>  <smiles>  (38) 
Nc1ccc(S(=O)(=O)N2CCCCC2)cc1S(=O)(=O)c1ccccc1

>  <score_type>  (38) 
oracle

>  <origin>  (38) 
adgpu

>  <m_score__min__energy>  (38) 
-8.9000000000000004

>  <m_primary>  (38) 
energy

$$$$
38:0
     RDKit          3D

 54 58  0  0  0  0  0  0  0  0999 V2000
    2.0480   20.4370  -27.8460 O   0  0  0  0  0  0  0  0  0  0  0  0
    0.8450   19.6920  -28.3650 S   0  0  0  0  0  0  0  0  0  0  0  0
    0.7600   18.3590  -27.6590 O   0  0  0  0  0  0  0  0  0  0  0  0
    1.0300   19.4370  -30.0680 N   0  0  0  0  0  0  0  0  0  0  0  0
   -0.2520   19.6970  -30.7190 C   0  0  0  0  0  0  0  0  0  0  0  0
   -0.1300   19.7760  -32.2310 C   0  0  0  0  0  0  0  0  0  0  0  0
   -0.3290   21.0460  -31.4210 C   0  0  0  0  0  0  0  0  0  0  0  0
   -0.6030   20.6540  -28.0560 C   0  0  0  0  0  0  0  0  0  0  0  0
   -1.8080   20.0430  -27.6900 C   0  0  0  0  0  0  0  0  0  0  0  0
   -2.9450   20.8200  -27.4560 C   0  0  0  0  0  0  0  0  0  0  0  0
   -2.8950   22.2140  -27.5850 C   0  0  0  0  0  0  0  0  0  0  0  0
   -4.0620   22.9380  -27.3320 O   0  0  0  0  0  0  0  0  0  0  0  0
   -1.6830   22.8380  -27.9610 C   0  0  0  0  0  0  0  0  0  0  0  0
   -1.5530   24.5910  -28.1410 S   0  0  0  0  0  0  0  0  0  0  0  0
   -1.8330   25.2800  -26.8350 O   0  0  0  0  0  0  0  0  0  0  0  0
   -0.1470   24.9280  -28.5550 O   0  0  0  0  0  0  0  0  0  0  0  0
   -2.6580   25.2020  -29.3300 N   0  0  0  0  0  0  0  0  0  0  0  0
   -3.5000   24.3860  -30.1520 C   0  0  0  0  0  0  0  0  0  0  0  0
   -3.0040   23.2300  -30.8170 C   0  0  0  0  0  0  0  0  0  0  0  0
   -3.8530   22.4430  -31.6160 C   0  0  0  0  0  0  0  0  0  0  0  0
   -5.1880   22.8330  -31.7200 C   0  0  0  0  0  0  0  0  0  0  0  0
   -5.6670   23.9450  -31.0940 C   0  0  0  0  0  0  0  0  0  0  0  0
   -4.8510   24.7590  -30.3130 C   0  0  0  0  0  0  0  0  0  0  0  0
   -6.9880   24.0770  -31.3150 N   0  0  0  0  0  0  0  0  0  0  0  0
   -7.2770   23.0060  -32.1010 C   0  0  0  0  0  0  0  0  0  0  0  0
   -6.1980   22.2330  -32.3700 N   0  0  0  0  0  0  0  0  0  0  0  0
   -6.1670   20.9970  -33.1530 C   0  0  0  0  0  0  0  0  0  0  0  0
   -7.1700   20.0050  -32.6220 C   0  0  0  0  0  0  0  0  0  0  0  0
   -8.5480   20.2750  -32.6950 C   0  0  0  0  0  0  0  0  0  0  0  0
   -9.4750   19.3640  -32.1810 C   0  0  0  0  0  0  0  0  0  0  0  0
   -9.0330   18.1760  -31.5890 C   0  0  0  0  0  0  0  0  0  0  0  0
   -7.6650   17.9000  -31.5100 C   0  0  0  0  0  0  0  0  0  0  0  0
   -6.7360   18.8140  -32.0160 C   0  0  0  0  0  0  0  0  0  0  0  0
   -0.5460   22.0460  -28.1930 C   0  0  0  0  0  0  0  0  0  0  0  0
   -0.8931   19.1599  -30.0045 H   0  0  0  0  0  0  0  0  0  0  0  0
    0.8378   19.5790  -32.7153 H   0  0  0  0  0  0  0  0  0  0  0  0
   -0.6504   19.3052  -33.0781 H   0  0  0  0  0  0  0  0  0  0  0  0
    0.4947   21.7677  -31.3180 H   0  0  0  0  0  0  0  0  0  0  0  0
   -1.0523   21.8745  -31.4378 H   0  0  0  0  0  0  0  0  0  0  0  0
   -1.8597   18.9491  -27.5865 H   0  0  0  0  0  0  0  0  0  0  0  0
   -3.8882   20.3328  -27.1678 H   0  0  0  0  0  0  0  0  0  0  0  0
   -4.1520   23.9280  -27.5240 H   0  0  0  0  0  0  0  0  0  0  0  0
   -1.9464   22.9490  -30.7052 H   0  0  0  0  0  0  0  0  0  0  0  0
   -3.4774   21.5518  -32.1401 H   0  0  0  0  0  0  0  0  0  0  0  0
   -5.2482   25.6667  -29.8353 H   0  0  0  0  0  0  0  0  0  0  0  0
   -8.2864   22.7890  -32.4805 H   0  0  0  0  0  0  0  0  0  0  0  0
   -6.4073   21.2275  -34.2014 H   0  0  0  0  0  0  0  0  0  0  0  0
   -5.1615   20.5570  -33.0799 H   0  0  0  0  0  0  0  0  0  0  0  0
   -8.8985   21.2086  -33.1593 H   0  0  0  0  0  0  0  0  0  0  0  0
  -10.5517   19.5810  -32.2419 H   0  0  0  0  0  0  0  0  0  0  0  0
   -9.7626   17.4585  -31.1854 H   0  0  0  0  0  0  0  0  0  0  0  0
   -7.3191   16.9629  -31.0493 H   0  0  0  0  0  0  0  0  0  0  0  0
   -5.6598   18.5996  -31.9393 H   0  0  0  0  0  0  0  0  0  0  0  0
    0.3999   22.5252  -28.4857 H   0  0  0  0  0  0  0  0  0  0  0  0
  1  2  2  0
  2  3  2  0
  2  4  1  0
  4  5  1  0
  5  6  1  0
  6  7  1  0
  2  8  1  0
  8  9  2  0
  9 10  1  0
 10 11  2  0
 11 12  1  0
 11 13  1  0
 13 14  1  0
 14 15  2  0
 14 16  2  0
 14 17  1  0
 17 18  1  0
 18 19  2  0
 19 20  1  0
 20 21  2  0
 21 22  1  0
 22 23  2  0
 22 24  1  0
 24 25  2  0
 25 26  1  0
 26 27  1  0
 27 28  1  0
 28 29  2  0
 29 30  1  0
 30 31  2  0
 31 32  1  0
 32 33  2  0
 13 34  2  0
  7  5  1  0
 34  8  1  0
 23 18  1  0
 33 28  1  0
 26 21  1  0
  5 35  1  0
  6 36  1  0
  6 37  1  0
  7 38  1  0
  7 39  1  0
  9 40  1  0
 10 41  1  0
 12 42  1  0
 19 43  1  0
 20 44  1  0
 23 45  1  0
 25 46  1  0
 27 47  1  0
 27 48  1  0
 29 49  1  0
 30 50  1  0
 31 51  1  0
 32 52  1  0
 33 53  1  0
 34 54  1  0
M  CHG  2   4  -1  17  -1
M  END
>  <UniqueID>  (39) 
37

>  <SMILES>  (39) 
O=S(=O)([N-]C1CC1)c1ccc(O)c(S(=O)(=O)[N-]c2ccc3c(c2)ncn3Cc2ccccc2)c1

>  <Energy>  (39) 
364.43417295115194

>  <Genealogy>  (39) 
O=S(=O)([N-]C1CC1)c1ccc(O)c(S(=O)(=O)[N-]c2ccc3c(c2)ncn3Cc2ccccc2)c1 (protonated)
O=S(=O)([N-]C1CC1)c1ccc(O)c(S(=O)(=O)[N-]c2ccc3c(c2)ncn3Cc2ccccc2)c1 (3D coordinates assigned)
O=S(=O)([N-]C1CC1)c1ccc(O)c(S(=O)(=O)[N-]c2ccc3c(c2)ncn3Cc2ccccc2)c1 (nonaromatic ring conformer: 364.43417295115194 kcal/mol)

>  <smiles>  (39) 
O=S(=O)(NC1CC1)c1ccc(O)c(S(=O)(=O)Nc2ccc3c(c2)ncn3Cc2ccccc2)c1

>  <score_type>  (39) 
oracle

>  <origin>  (39) 
adgpu

>  <m_score__min__energy>  (39) 
-11.44

>  <m_primary>  (39) 
energy

$$$$
39:0
     RDKit          3D

 48 51  0  0  0  0  0  0  0  0999 V2000
   -2.9180   20.4350  -31.4540 C   0  0  0  0  0  0  0  0  0  0  0  0
   -1.7150   20.2790  -32.3460 C   0  0  0  0  0  0  0  0  0  0  0  0
   -1.9180   20.1530  -33.7330 C   0  0  0  0  0  0  0  0  0  0  0  0
   -0.8390   19.9710  -34.5980 C   0  0  0  0  0  0  0  0  0  0  0  0
    0.4590   19.9150  -34.0930 C   0  0  0  0  0  0  0  0  0  0  0  0
    0.6840   20.0490  -32.7230 C   0  0  0  0  0  0  0  0  0  0  0  0
   -0.3880   20.2480  -31.8320 C   0  0  0  0  0  0  0  0  0  0  0  0
   -0.0860   20.4190  -30.3870 C   0  0  0  0  0  0  0  0  0  0  0  0
    0.1430   19.4130  -29.6640 O   0  0  0  0  0  0  0  0  0  0  0  0
   -0.1380   21.7280  -29.8030 N   0  0  0  0  0  0  0  0  0  0  0  0
   -1.3100   22.4080  -29.3290 C   0  0  0  0  0  0  0  0  0  0  0  0
   -1.9320   23.4240  -30.0800 C   0  0  0  0  0  0  0  0  0  0  0  0
   -3.0950   24.0470  -29.6120 C   0  0  0  0  0  0  0  0  0  0  0  0
   -3.6830   25.0950  -30.3970 N   0  0  0  0  0  0  0  0  0  0  0  0
   -5.0610   25.1900  -30.7860 C   0  0  0  0  0  0  0  0  0  0  0  0
   -5.5980   26.3290  -30.8220 O   0  0  0  0  0  0  0  0  0  0  0  0
   -5.8470   24.0020  -31.1960 C   0  0  0  0  0  0  0  0  0  0  0  0
   -7.2020   23.8730  -30.8330 C   0  0  0  0  0  0  0  0  0  0  0  0
   -7.9340   22.7450  -31.2140 C   0  0  0  0  0  0  0  0  0  0  0  0
   -7.3170   21.7290  -31.9480 C   0  0  0  0  0  0  0  0  0  0  0  0
   -5.9740   21.8550  -32.3270 C   0  0  0  0  0  0  0  0  0  0  0  0
   -5.2350   22.9740  -31.9360 C   0  0  0  0  0  0  0  0  0  0  0  0
   -5.3900   20.8440  -33.0980 O   0  0  0  0  0  0  0  0  0  0  0  0
   -6.1890   19.8420  -33.7320 C   0  0  0  0  0  0  0  0  0  0  0  0
   -7.3440   19.4240  -32.8130 C   0  0  0  0  0  0  0  0  0  0  0  0
   -8.0230   20.5790  -32.3130 O   0  0  0  0  0  0  0  0  0  0  0  0
   -3.6300   23.6670  -28.3700 C   0  0  0  0  0  0  0  0  0  0  0  0
   -3.0350   22.6410  -27.6340 C   0  0  0  0  0  0  0  0  0  0  0  0
   -1.8830   22.0030  -28.1140 C   0  0  0  0  0  0  0  0  0  0  0  0
   -1.2950   20.9720  -27.3810 O   0  0  0  0  0  0  0  0  0  0  0  0
   -2.6017   20.3940  -30.4013 H   0  0  0  0  0  0  0  0  0  0  0  0
   -3.4001   21.4032  -31.6545 H   0  0  0  0  0  0  0  0  0  0  0  0
   -3.6311   19.6218  -31.6545 H   0  0  0  0  0  0  0  0  0  0  0  0
   -2.9391   20.1986  -34.1395 H   0  0  0  0  0  0  0  0  0  0  0  0
   -1.0126   19.8716  -35.6797 H   0  0  0  0  0  0  0  0  0  0  0  0
    1.3077   19.7648  -34.7764 H   0  0  0  0  0  0  0  0  0  0  0  0
    1.7116   19.9986  -32.3338 H   0  0  0  0  0  0  0  0  0  0  0  0
   -1.4998   23.7311  -31.0438 H   0  0  0  0  0  0  0  0  0  0  0  0
   -7.6876   24.6660  -30.2453 H   0  0  0  0  0  0  0  0  0  0  0  0
   -8.9947   22.6573  -30.9362 H   0  0  0  0  0  0  0  0  0  0  0  0
   -4.1718   23.0516  -32.2074 H   0  0  0  0  0  0  0  0  0  0  0  0
   -6.5988   20.2442  -34.6703 H   0  0  0  0  0  0  0  0  0  0  0  0
   -5.5617   18.9631  -33.9418 H   0  0  0  0  0  0  0  0  0  0  0  0
   -8.0531   18.8035  -33.3806 H   0  0  0  0  0  0  0  0  0  0  0  0
   -6.9381   18.8525  -31.9653 H   0  0  0  0  0  0  0  0  0  0  0  0
   -4.5202   24.1794  -27.9764 H   0  0  0  0  0  0  0  0  0  0  0  0
   -3.4721   22.3318  -26.6731 H   0  0  0  0  0  0  0  0  0  0  0  0
   -0.6100   20.3500  -27.7960 H   0  0  0  0  0  0  0  0  0  0  0  0
  1  2  1  0
  2  3  2  0
  3  4  1  0
  4  5  2  0
  5  6  1  0
  6  7  2  0
  7  8  1  0
  8  9  2  0
  8 10  1  0
 10 11  1  0
 11 12  2  0
 12 13  1  0
 13 14  1  0
 14 15  1  0
 15 16  2  0
 15 17  1  0
 17 18  2  0
 18 19  1  0
 19 20  2  0
 20 21  1  0
 21 22  2  0
 21 23  1  0
 23 24  1  0
 24 25  1  0
 25 26  1  0
 13 27  2  0
 27 28  1  0
 28 29  2  0
 29 30  1  0
  7  2  1  0
 29 11  1  0
 22 17  1  0
 26 20  1  0
  1 31  1  0
  1 32  1  0
  1 33  1  0
  3 34  1  0
  4 35  1  0
  5 36  1  0
  6 37  1  0
 12 38  1  0
 18 39  1  0
 19 40  1  0
 22 41  1  0
 24 42  1  0
 24 43  1  0
 25 44  1  0
 25 45  1  0
 27 46  1  0
 28 47  1  0
 30 48  1  0
M  CHG  2  10  -1  14  -1
M  END
>  <UniqueID>  (40) 
38

>  <SMILES>  (40) 
Cc1ccccc1C(=O)[N-]c1cc([N-]C(=O)c2ccc3c(c2)OCCO3)ccc1O

>  <Energy>  (40) 
67.76024480347215

>  <Genealogy>  (40) 
Cc1ccccc1C(=O)[N-]c1cc([N-]C(=O)c2ccc3c(c2)OCCO3)ccc1O (protonated)
Cc1ccccc1C(=O)[N-]c1cc([N-]C(=O)c2ccc3c(c2)OCCO3)ccc1O (3D coordinates assigned)
Cc1ccccc1C(=O)[N-]c1cc([N-]C(=O)c2ccc3c(c2)OCCO3)ccc1O (nonaromatic ring conformer: 67.76024480347215 kcal/mol)

>  <smiles>  (40) 
Cc1ccccc1C(=O)Nc1cc(NC(=O)c2ccc3c(c2)OCCO3)ccc1O

>  <score_type>  (40) 
oracle

>  <origin>  (40) 
adgpu

>  <m_score__min__energy>  (40) 
-10.5

>  <m_primary>  (40) 
energy

$$$$
40:0
     RDKit          3D

 47 49  0  0  0  0  0  0  0  0999 V2000
   -8.9360   18.6980  -31.9450 C   0  0  0  0  0  0  0  0  0  0  0  0
   -7.9000   19.7800  -32.0270 C   0  0  0  0  0  0  0  0  0  0  0  0
   -6.7850   19.6300  -32.8650 C   0  0  0  0  0  0  0  0  0  0  0  0
   -5.8010   20.6210  -32.9120 C   0  0  0  0  0  0  0  0  0  0  0  0
   -5.9130   21.7620  -32.1080 C   0  0  0  0  0  0  0  0  0  0  0  0
   -4.6420   23.0270  -32.1630 S   0  0  0  0  0  0  0  0  0  0  0  0
   -3.7780   22.3620  -30.7300 C   0  0  0  0  0  0  0  0  0  0  0  0
   -3.7540   20.9700  -30.5790 C   0  0  0  0  0  0  0  0  0  0  0  0
   -3.1630   20.3850  -29.4600 C   0  0  0  0  0  0  0  0  0  0  0  0
   -2.5820   21.1860  -28.4720 C   0  0  0  0  0  0  0  0  0  0  0  0
   -1.8180   20.4440  -27.0640 S   0  0  0  0  0  0  0  0  0  0  0  0
   -2.7640   19.4440  -26.4590 O   0  0  0  0  0  0  0  0  0  0  0  0
   -1.5470   21.5060  -26.0340 O   0  0  0  0  0  0  0  0  0  0  0  0
   -0.3180   19.6470  -27.4840 N   0  0  0  0  0  0  0  0  0  0  0  0
   -0.4990   18.1750  -27.4550 C   0  0  0  0  0  0  0  0  0  0  0  0
    0.6140   17.4570  -28.2270 C   0  0  0  0  0  0  0  0  0  0  0  0
    0.5990   17.8520  -29.7150 C   0  0  0  0  0  0  0  0  0  0  0  0
   -0.0210   19.2380  -29.9560 C   0  0  0  0  0  0  0  0  0  0  0  0
    0.2340   20.1730  -28.7640 C   0  0  0  0  0  0  0  0  0  0  0  0
   -2.5980   22.5800  -28.6150 C   0  0  0  0  0  0  0  0  0  0  0  0
   -3.1750   23.1860  -29.7470 C   0  0  0  0  0  0  0  0  0  0  0  0
   -3.1200   24.6640  -29.8660 C   0  0  0  0  0  0  0  0  0  0  0  0
   -2.1700   25.3060  -29.3430 O   0  0  0  0  0  0  0  0  0  0  0  0
   -4.0810   25.3640  -30.5850 O   0  0  0  0  0  0  0  0  0  0  0  0
   -7.0190   21.9110  -31.2640 C   0  0  0  0  0  0  0  0  0  0  0  0
   -8.0040   20.9210  -31.2150 C   0  0  0  0  0  0  0  0  0  0  0  0
   -9.1500   18.4745  -30.8894 H   0  0  0  0  0  0  0  0  0  0  0  0
   -9.8575   19.0342  -32.4427 H   0  0  0  0  0  0  0  0  0  0  0  0
   -8.5601   17.7919  -32.4427 H   0  0  0  0  0  0  0  0  0  0  0  0
   -6.6849   18.7287  -33.4876 H   0  0  0  0  0  0  0  0  0  0  0  0
   -4.9365   20.5046  -33.5821 H   0  0  0  0  0  0  0  0  0  0  0  0
   -4.2064   20.3311  -31.3518 H   0  0  0  0  0  0  0  0  0  0  0  0
   -3.1537   19.2902  -29.3540 H   0  0  0  0  0  0  0  0  0  0  0  0
    0.3620   19.8950  -26.7250 H   0  0  0  0  0  0  0  0  0  0  0  0
   -0.4862   17.8338  -26.4093 H   0  0  0  0  0  0  0  0  0  0  0  0
   -1.4604   17.9359  -27.9331 H   0  0  0  0  0  0  0  0  0  0  0  0
    1.5868   17.7303  -27.7924 H   0  0  0  0  0  0  0  0  0  0  0  0
    0.4483   16.3722  -28.1514 H   0  0  0  0  0  0  0  0  0  0  0  0
    1.6341   17.8603  -30.0871 H   0  0  0  0  0  0  0  0  0  0  0  0
   -0.0196   17.1147  -30.2477 H   0  0  0  0  0  0  0  0  0  0  0  0
    0.4247   19.6787  -30.8600 H   0  0  0  0  0  0  0  0  0  0  0  0
   -1.1074   19.1180  -30.0796 H   0  0  0  0  0  0  0  0  0  0  0  0
    1.3198   20.3065  -28.6491 H   0  0  0  0  0  0  0  0  0  0  0  0
   -0.2761   21.1242  -28.9765 H   0  0  0  0  0  0  0  0  0  0  0  0
   -2.1530   23.2101  -27.8309 H   0  0  0  0  0  0  0  0  0  0  0  0
   -7.1134   22.8100  -30.6372 H   0  0  0  0  0  0  0  0  0  0  0  0
   -8.8635   21.0358  -30.5382 H   0  0  0  0  0  0  0  0  0  0  0  0
  1  2  1  0
  2  3  2  0
  3  4  1  0
  4  5  2  0
  5  6  1  0
  6  7  1  0
  7  8  2  0
  8  9  1  0
  9 10  2  0
 10 11  1  0
 11 12  2  0
 11 13  2  0
 11 14  1  0
 14 15  1  0
 15 16  1  0
 16 17  1  0
 17 18  1  0
 18 19  1  0
 10 20  1  0
 20 21  2  0
 21 22  1  0
 22 23  2  0
 22 24  1  0
  5 25  1  0
 25 26  2  0
 26  2  1  0
 21  7  1  0
 19 14  1  0
  1 27  1  0
  1 28  1  0
  1 29  1  0
  3 30  1  0
  4 31  1  0
  8 32  1  0
  9 33  1  0
 14 34  1  0
 15 35  1  0
 15 36  1  0
 16 37  1  0
 16 38  1  0
 17 39  1  0
 17 40  1  0
 18 41  1  0
 18 42  1  0
 19 43  1  0
 19 44  1  0
 20 45  1  0
 25 46  1  0
 26 47  1  0
M  CHG  2  14   1  24  -1
M  END
>  <UniqueID>  (41) 
39

>  <SMILES>  (41) 
Cc1ccc(Sc2ccc(S(=O)(=O)[NH+]3CCCCC3)cc2C(=O)[O-])cc1

>  <Energy>  (41) 
51.6121093082437

>  <Genealogy>  (41) 
Cc1ccc(Sc2ccc(S(=O)(=O)[NH+]3CCCCC3)cc2C(=O)[O-])cc1 (protonated)
Cc1ccc(Sc2ccc(S(=O)(=O)[NH+]3CCCCC3)cc2C(=O)[O-])cc1 (3D coordinates assigned)
Cc1ccc(Sc2ccc(S(=O)(=O)[NH+]3CCCCC3)cc2C(=O)[O-])cc1 (nonaromatic ring conformer: 51.6121093082437 kcal/mol)

>  <smiles>  (41) 
Cc1ccc(Sc2ccc(S(=O)(=O)N3CCCCC3)cc2C(=O)O)cc1

>  <score_type>  (41) 
oracle

>  <origin>  (41) 
adgpu

>  <m_score__min__energy>  (41) 
-10.84

>  <m_primary>  (41) 
energy

$$$$
41:0
     RDKit          3D

 42 44  0  0  0  0  0  0  0  0999 V2000
   -4.1109   18.7550  -34.7684 H   0  0  0  0  0  0  0  0  0  0  0  0
   -4.9950   18.2690  -34.3300 C   0  0  0  0  0  0  0  0  0  0  0  0
   -5.8630   18.9930  -33.5730 N   0  0  0  0  0  0  0  0  0  0  0  0
   -6.9770   18.4350  -33.0200 C   0  0  0  0  0  0  0  0  0  0  0  0
   -7.7890   19.1380  -32.2840 N   0  0  0  0  0  0  0  0  0  0  0  0
   -7.7150   20.5500  -32.0190 C   0  0  0  0  0  0  0  0  0  0  0  0
   -8.8020   21.4100  -32.2580 C   0  0  0  0  0  0  0  0  0  0  0  0
   -9.7350   21.0100  -32.6816 H   0  0  0  0  0  0  0  0  0  0  0  0
   -8.7000   22.7700  -31.9590 C   0  0  0  0  0  0  0  0  0  0  0  0
   -9.5479   23.4409  -32.1616 H   0  0  0  0  0  0  0  0  0  0  0  0
   -7.5260   23.2810  -31.4040 C   0  0  0  0  0  0  0  0  0  0  0  0
   -7.4500   24.3556  -31.1815 H   0  0  0  0  0  0  0  0  0  0  0  0
   -6.4390   22.4320  -31.1270 C   0  0  0  0  0  0  0  0  0  0  0  0
   -5.1950   22.9720  -30.5220 C   0  0  0  0  0  0  0  0  0  0  0  0
   -5.0510   24.3520  -30.2950 C   0  0  0  0  0  0  0  0  0  0  0  0
   -5.8669   25.0377  -30.5672 H   0  0  0  0  0  0  0  0  0  0  0  0
   -3.8790   24.8600  -29.7260 C   0  0  0  0  0  0  0  0  0  0  0  0
   -3.7766   25.9419  -29.5558 H   0  0  0  0  0  0  0  0  0  0  0  0
   -2.8350   23.9960  -29.3720 C   0  0  0  0  0  0  0  0  0  0  0  0
   -1.3470   24.6280  -28.6740 S   0  0  0  0  0  0  0  0  0  0  0  0
   -1.2990   24.3330  -27.1990 O   0  0  0  0  0  0  0  0  0  0  0  0
   -0.1740   23.9560  -29.3290 O   0  0  0  0  0  0  0  0  0  0  0  0
   -1.2390   26.3410  -28.9340 N   0  0  0  0  0  0  0  0  0  0  0  0
   -0.6280   26.9780  -27.7720 C   0  0  0  0  0  0  0  0  0  0  0  0
   -1.0461   26.5421  -26.8527 H   0  0  0  0  0  0  0  0  0  0  0  0
    0.4595   26.8143  -27.7937 H   0  0  0  0  0  0  0  0  0  0  0  0
   -0.8368   28.0578  -27.7937 H   0  0  0  0  0  0  0  0  0  0  0  0
   -2.9690   22.6220  -29.5990 C   0  0  0  0  0  0  0  0  0  0  0  0
   -2.1492   21.9402  -29.3286 H   0  0  0  0  0  0  0  0  0  0  0  0
   -4.1400   22.1110  -30.1680 C   0  0  0  0  0  0  0  0  0  0  0  0
   -4.2368   21.0288  -30.3399 H   0  0  0  0  0  0  0  0  0  0  0  0
   -6.5510   21.0620  -31.4320 C   0  0  0  0  0  0  0  0  0  0  0  0
   -5.7137   20.3852  -31.2064 H   0  0  0  0  0  0  0  0  0  0  0  0
   -7.2340   17.0720  -33.2110 C   0  0  0  0  0  0  0  0  0  0  0  0
   -8.1272   16.6098  -32.7653 H   0  0  0  0  0  0  0  0  0  0  0  0
   -6.3460   16.2990  -33.9740 C   0  0  0  0  0  0  0  0  0  0  0  0
   -6.6310   14.8480  -34.2260 C   0  0  0  0  0  0  0  0  0  0  0  0
   -6.7342   14.3224  -33.2652 H   0  0  0  0  0  0  0  0  0  0  0  0
   -7.5652   14.7519  -34.7988 H   0  0  0  0  0  0  0  0  0  0  0  0
   -5.8026   14.4057  -34.7988 H   0  0  0  0  0  0  0  0  0  0  0  0
   -5.2250   16.9100  -34.5510 C   0  0  0  0  0  0  0  0  0  0  0  0
   -4.5322   16.3240  -35.1727 H   0  0  0  0  0  0  0  0  0  0  0  0
  1  2  1  0
  2  3  1  0
  3  4  1  0
  4  5  2  0
  5  6  1  0
  6  7  2  0
  7  8  1  0
  7  9  1  0
  9 10  1  0
  9 11  2  0
 11 12  1  0
 11 13  1  0
 13 14  1  0
 14 15  2  0
 15 16  1  0
 15 17  1  0
 17 18  1  0
 17 19  2  0
 19 20  1  0
 20 21  2  0
 20 22  2  0
 20 23  1  0
 23 24  1  0
 24 25  1  0
 24 26  1  0
 24 27  1  0
 19 28  1  0
 28 29  1  0
 28 30  2  0
 30 31  1  0
 13 32  2  0
 32 33  1  0
  4 34  1  0
 34 35  1  0
 34 36  2  0
 36 37  1  0
 37 38  1  0
 37 39  1  0
 37 40  1  0
 36 41  1  0
 41 42  1  0
 41  2  2  0
 32  6  1  0
 30 14  1  0
M  CHG  2   3  -1  23  -1
M  END
>  <UniqueID>  (42) 
40

>  <SMILES>  (42) 
C[N-]S(=O)(=O)c1ccc(-c2cccc(/N=c3/cc(C)cc[n-]3)c2)cc1

>  <Energy>  (42) 
54.167627124362454

>  <Genealogy>  (42) 
C[N-]S(=O)(=O)c1ccc(-c2cccc(N=c3cc(C)cc[n-]3)c2)cc1 (protonated)
C[N-]S(=O)(=O)c1ccc(-c2cccc(/N=c3/cc(C)cc[n-]3)c2)cc1 (cis-trans isomerization)
C[N-]S(=O)(=O)c1ccc(-c2cccc(/N=c3/cc(C)cc[n-]3)c2)cc1 (3D coordinates assigned)
C[N-]S(=O)(=O)c1ccc(-c2cccc(/N=c3/cc(C)cc[n-]3)c2)cc1 (optimized conformer: 54.167627124362454 kcal/mol)

>  <smiles>  (42) 
CNS(=O)(=O)c1ccc(-c2cccc(N=c3cc(C)cc[nH]3)c2)cc1

>  <score_type>  (42) 
oracle

>  <origin>  (42) 
adgpu

>  <m_score__min__energy>  (42) 
-9.9800000000000004

>  <m_primary>  (42) 
energy

$$$$
42:0
     RDKit          3D

 60 63  0  0  0  0  0  0  0  0999 V2000
   -1.5880   20.8920  -26.6580 C   0  0  0  0  0  0  0  0  0  0  0  0
   -0.9580   20.1170  -27.7770 C   0  0  0  0  0  0  0  0  0  0  0  0
   -0.1370   19.0140  -27.4980 C   0  0  0  0  0  0  0  0  0  0  0  0
    0.4270   18.2760  -28.5420 C   0  0  0  0  0  0  0  0  0  0  0  0
    0.1640   18.6220  -29.8690 C   0  0  0  0  0  0  0  0  0  0  0  0
   -0.6780   19.7080  -30.1660 C   0  0  0  0  0  0  0  0  0  0  0  0
   -0.9560   20.0730  -31.5750 C   0  0  0  0  0  0  0  0  0  0  0  0
   -2.2820   20.2900  -31.9850 C   0  0  0  0  0  0  0  0  0  0  0  0
   -2.5770   20.6090  -33.3200 C   0  0  0  0  0  0  0  0  0  0  0  0
   -3.9200   20.8460  -33.7670 N   0  0  0  0  0  0  0  0  0  0  0  0
   -5.1260   20.5510  -33.0480 C   0  0  0  0  0  0  0  0  0  0  0  0
   -5.6550   19.4100  -33.1460 O   0  0  0  0  0  0  0  0  0  0  0  0
   -5.7810   21.6010  -32.2330 C   0  0  0  0  0  0  0  0  0  0  0  0
   -7.1800   21.6310  -32.1020 C   0  0  0  0  0  0  0  0  0  0  0  0
   -7.7980   22.6200  -31.3340 C   0  0  0  0  0  0  0  0  0  0  0  0
   -7.0320   23.5880  -30.6860 C   0  0  0  0  0  0  0  0  0  0  0  0
   -5.6310   23.5810  -30.7990 C   0  0  0  0  0  0  0  0  0  0  0  0
   -4.8190   24.6120  -30.1080 C   0  0  0  0  0  0  0  0  0  0  0  0
   -3.8060   25.3300  -30.8110 N   0  0  0  0  0  0  0  0  0  0  0  0
   -5.0140   24.8650  -28.8890 O   0  0  0  0  0  0  0  0  0  0  0  0
   -5.0140   22.5820  -31.5760 C   0  0  0  0  0  0  0  0  0  0  0  0
   -1.5320   20.7640  -34.2350 C   0  0  0  0  0  0  0  0  0  0  0  0
   -0.1990   20.5720  -33.8420 C   0  0  0  0  0  0  0  0  0  0  0  0
    0.8830   20.7400  -34.8380 C   0  0  0  0  0  0  0  0  0  0  0  0
    1.7380   19.6620  -35.1210 C   0  0  0  0  0  0  0  0  0  0  0  0
    2.7780   19.7850  -36.0620 C   0  0  0  0  0  0  0  0  0  0  0  0
    3.6800   18.5880  -36.3240 C   0  0  0  0  0  0  0  0  0  0  0  0
    5.1330   18.8720  -35.9240 C   0  0  0  0  0  0  0  0  0  0  0  0
    3.5810   18.1060  -37.7780 C   0  0  0  0  0  0  0  0  0  0  0  0
    2.9450   21.0210  -36.7300 C   0  0  0  0  0  0  0  0  0  0  0  0
    3.9550   21.2030  -37.6660 O   0  0  0  0  0  0  0  0  0  0  0  0
    2.0860   22.0890  -36.4560 C   0  0  0  0  0  0  0  0  0  0  0  0
    1.0570   21.9540  -35.5230 C   0  0  0  0  0  0  0  0  0  0  0  0
    0.2000   23.0260  -35.2970 O   0  0  0  0  0  0  0  0  0  0  0  0
    0.0880   20.2140  -32.5110 C   0  0  0  0  0  0  0  0  0  0  0  0
    1.4090   20.0070  -32.1200 O   0  0  0  0  0  0  0  0  0  0  0  0
   -1.2360   20.4530  -29.1110 C   0  0  0  0  0  0  0  0  0  0  0  0
   -1.2540   20.4811  -25.6939 H   0  0  0  0  0  0  0  0  0  0  0  0
   -1.2891   21.9482  -26.7297 H   0  0  0  0  0  0  0  0  0  0  0  0
   -2.6830   20.8151  -26.7297 H   0  0  0  0  0  0  0  0  0  0  0  0
    0.0633   18.7294  -26.4545 H   0  0  0  0  0  0  0  0  0  0  0  0
    1.0802   17.4198  -28.3178 H   0  0  0  0  0  0  0  0  0  0  0  0
    0.6179   18.0420  -30.6861 H   0  0  0  0  0  0  0  0  0  0  0  0
   -3.0982   20.2091  -31.2520 H   0  0  0  0  0  0  0  0  0  0  0  0
   -7.7924   20.8701  -32.6080 H   0  0  0  0  0  0  0  0  0  0  0  0
   -8.8939   22.6354  -31.2399 H   0  0  0  0  0  0  0  0  0  0  0  0
   -7.5274   24.3625  -30.0822 H   0  0  0  0  0  0  0  0  0  0  0  0
   -2.8050   25.2720  -30.5210 H   0  0  0  0  0  0  0  0  0  0  0  0
   -3.9182   22.5678  -31.6710 H   0  0  0  0  0  0  0  0  0  0  0  0
   -1.7574   21.0398  -35.2757 H   0  0  0  0  0  0  0  0  0  0  0  0
    1.5925   18.7051  -34.5983 H   0  0  0  0  0  0  0  0  0  0  0  0
    3.3190   17.7693  -35.6841 H   0  0  0  0  0  0  0  0  0  0  0  0
    5.2149   18.8880  -34.8272 H   0  0  0  0  0  0  0  0  0  0  0  0
    5.7854   18.0844  -36.3290 H   0  0  0  0  0  0  0  0  0  0  0  0
    5.4409   19.8473  -36.3290 H   0  0  0  0  0  0  0  0  0  0  0  0
    3.3597   17.0286  -37.7929 H   0  0  0  0  0  0  0  0  0  0  0  0
    2.7764   18.6527  -38.2915 H   0  0  0  0  0  0  0  0  0  0  0  0
    4.5360   18.2913  -38.2915 H   0  0  0  0  0  0  0  0  0  0  0  0
    2.2225   23.0458  -36.9812 H   0  0  0  0  0  0  0  0  0  0  0  0
   -1.8951   21.3052  -29.3334 H   0  0  0  0  0  0  0  0  0  0  0  0
  1  2  1  0
  2  3  2  0
  3  4  1  0
  4  5  2  0
  5  6  1  0
  6  7  1  0
  7  8  2  0
  8  9  1  0
  9 10  1  0
 10 11  1  0
 11 12  2  0
 11 13  1  0
 13 14  2  0
 14 15  1  0
 15 16  2  0
 16 17  1  0
 17 18  1  0
 18 19  1  0
 18 20  2  0
 17 21  2  0
  9 22  2  0
 22 23  1  0
 23 24  1  0
 24 25  2  0
 25 26  1  0
 26 27  1  0
 27 28  1  0
 27 29  1  0
 26 30  2  0
 30 31  1  0
 30 32  1  0
 32 33  2  0
 33 34  1  0
 23 35  2  0
 35 36  1  0
  6 37  2  0
 37  2  1  0
 35  7  1  0
 21 13  1  0
 33 24  1  0
  1 38  1  0
  1 39  1  0
  1 40  1  0
  3 41  1  0
  4 42  1  0
  5 43  1  0
  8 44  1  0
 14 45  1  0
 15 46  1  0
 16 47  1  0
 19 48  1  0
 21 49  1  0
 22 50  1  0
 25 51  1  0
 27 52  1  0
 28 53  1  0
 28 54  1  0
 28 55  1  0
 29 56  1  0
 29 57  1  0
 29 58  1  0
 32 59  1  0
 37 60  1  0
M  CHG  5  10  -1  19  -1  31  -1  34  -1  36  -1
M  END
>  <UniqueID>  (43) 
41

>  <SMILES>  (43) 
Cc1cccc(-c2cc([N-]C(=O)c3cccc(C([NH-])=O)c3)cc(-c3cc(C(C)C)c([O-])cc3[O-])c2[O-])c1

>  <Energy>  (43) 
81.49119452700162

>  <Genealogy>  (43) 
Cc1cccc(-c2cc([N-]C(=O)c3cccc(C([NH-])=O)c3)cc(-c3cc(C(C)C)c([O-])cc3[O-])c2[O-])c1 (protonated)
Cc1cccc(-c2cc([N-]C(=O)c3cccc(C([NH-])=O)c3)cc(-c3cc(C(C)C)c([O-])cc3[O-])c2[O-])c1 (3D coordinates assigned)
Cc1cccc(-c2cc([N-]C(=O)c3cccc(C([NH-])=O)c3)cc(-c3cc(C(C)C)c([O-])cc3[O-])c2[O-])c1 (optimized conformer: 81.49119452700162 kcal/mol)

>  <smiles>  (43) 
Cc1cccc(-c2cc(NC(=O)c3cccc(C(N)=O)c3)cc(-c3cc(C(C)C)c(O)cc3O)c2O)c1

>  <score_type>  (43) 
oracle

>  <origin>  (43) 
adgpu

>  <m_score__min__energy>  (43) 
-13.48

>  <m_primary>  (43) 
energy

$$$$
43:0
     RDKit          3D

 70 74  0  0  0  0  0  0  0  0999 V2000
   -5.2570   20.0810  -30.8570 O   0  0  0  0  0  0  0  0  0  0  0  0
   -5.0700   21.1600  -31.4850 C   0  0  0  0  0  0  0  0  0  0  0  0
   -4.7040   21.1190  -32.8730 N   0  0  0  0  0  0  0  0  0  0  0  0
   -4.1750   19.9390  -33.4940 C   0  0  0  0  0  0  0  0  0  0  0  0
   -2.7920   19.8470  -33.7090 C   0  0  0  0  0  0  0  0  0  0  0  0
   -2.2420   18.7240  -34.3370 C   0  0  0  0  0  0  0  0  0  0  0  0
   -0.5020   18.6120  -34.5900 S   0  0  0  0  0  0  0  0  0  0  0  0
   -0.1720   17.3110  -35.2690 O   0  0  0  0  0  0  0  0  0  0  0  0
    0.1950   18.6460  -33.2570 O   0  0  0  0  0  0  0  0  0  0  0  0
    0.0280   19.9650  -35.5580 N   0  0  0  0  0  0  0  0  0  0  0  0
    1.4520   19.8660  -35.8760 C   0  0  0  0  0  0  0  0  0  0  0  0
    1.9590   21.2910  -36.0570 C   0  0  0  0  0  0  0  0  0  0  0  0
    0.9010   22.1800  -35.4230 C   0  0  0  0  0  0  0  0  0  0  0  0
   -0.1230   21.2260  -34.8340 C   0  0  0  0  0  0  0  0  0  0  0  0
   -3.0770   17.6740  -34.7330 C   0  0  0  0  0  0  0  0  0  0  0  0
   -4.4520   17.7450  -34.5030 C   0  0  0  0  0  0  0  0  0  0  0  0
   -5.0140   18.8680  -33.8770 C   0  0  0  0  0  0  0  0  0  0  0  0
   -6.4170   18.8730  -33.5600 N   0  0  0  0  0  0  0  0  0  0  0  0
   -7.2310   20.0730  -33.7680 C   0  0  0  0  0  0  0  0  0  0  0  0
   -7.9180   20.4380  -32.4490 C   0  0  0  0  0  0  0  0  0  0  0  0
   -8.6360   19.3310  -31.9310 O   0  0  0  0  0  0  0  0  0  0  0  0
   -7.7440   18.2800  -31.6050 C   0  0  0  0  0  0  0  0  0  0  0  0
   -7.0440   17.7510  -32.8600 C   0  0  0  0  0  0  0  0  0  0  0  0
   -5.2500   22.4540  -30.7880 C   0  0  0  0  0  0  0  0  0  0  0  0
   -6.1820   23.3990  -31.2570 C   0  0  0  0  0  0  0  0  0  0  0  0
   -6.3280   24.6270  -30.6080 C   0  0  0  0  0  0  0  0  0  0  0  0
   -5.5500   24.9280  -29.4900 C   0  0  0  0  0  0  0  0  0  0  0  0
   -4.6080   24.0040  -29.0160 C   0  0  0  0  0  0  0  0  0  0  0  0
   -3.6030   24.3970  -27.6180 S   0  0  0  0  0  0  0  0  0  0  0  0
   -3.1910   23.1250  -26.9310 O   0  0  0  0  0  0  0  0  0  0  0  0
   -4.4080   25.2120  -26.6430 O   0  0  0  0  0  0  0  0  0  0  0  0
   -2.1780   25.3000  -28.0810 N   0  0  0  0  0  0  0  0  0  0  0  0
   -1.4110   25.7020  -26.8870 C   0  0  0  0  0  0  0  0  0  0  0  0
    0.0460   26.0200  -27.2600 C   0  0  0  0  0  0  0  0  0  0  0  0
    0.7490   24.9280  -27.8430 O   0  0  0  0  0  0  0  0  0  0  0  0
   -0.0970   23.9560  -28.4420 C   0  0  0  0  0  0  0  0  0  0  0  0
   -1.3630   24.5620  -29.0720 C   0  0  0  0  0  0  0  0  0  0  0  0
   -4.4640   22.7690  -29.6640 C   0  0  0  0  0  0  0  0  0  0  0  0
   -5.0040   21.9070  -33.4900 H   0  0  0  0  0  0  0  0  0  0  0  0
   -2.1338   20.6650  -33.3810 H   0  0  0  0  0  0  0  0  0  0  0  0
    1.9910   19.3733  -35.0534 H   0  0  0  0  0  0  0  0  0  0  0  0
    1.6142   19.2693  -36.7857 H   0  0  0  0  0  0  0  0  0  0  0  0
    2.9263   21.4226  -35.5500 H   0  0  0  0  0  0  0  0  0  0  0  0
    2.1179   21.5369  -37.1173 H   0  0  0  0  0  0  0  0  0  0  0  0
    1.3449   22.8043  -34.6336 H   0  0  0  0  0  0  0  0  0  0  0  0
    0.4493   22.8659  -36.1548 H   0  0  0  0  0  0  0  0  0  0  0  0
    0.0696   21.0750  -33.7616 H   0  0  0  0  0  0  0  0  0  0  0  0
   -1.1437   21.6241  -34.9323 H   0  0  0  0  0  0  0  0  0  0  0  0
   -2.6488   16.7895  -35.2272 H   0  0  0  0  0  0  0  0  0  0  0  0
   -5.1006   16.9133  -34.8152 H   0  0  0  0  0  0  0  0  0  0  0  0
   -6.5878   20.9044  -34.0923 H   0  0  0  0  0  0  0  0  0  0  0  0
   -7.9877   19.8816  -34.5431 H   0  0  0  0  0  0  0  0  0  0  0  0
   -7.1554   20.7466  -31.7188 H   0  0  0  0  0  0  0  0  0  0  0  0
   -8.6248   21.2599  -32.6358 H   0  0  0  0  0  0  0  0  0  0  0  0
   -6.9867   18.6552  -30.9009 H   0  0  0  0  0  0  0  0  0  0  0  0
   -8.3178   17.4595  -31.1494 H   0  0  0  0  0  0  0  0  0  0  0  0
   -6.2753   17.0183  -32.5732 H   0  0  0  0  0  0  0  0  0  0  0  0
   -7.7773   17.2629  -33.5188 H   0  0  0  0  0  0  0  0  0  0  0  0
   -6.7982   23.1692  -32.1388 H   0  0  0  0  0  0  0  0  0  0  0  0
   -7.0593   25.3597  -30.9799 H   0  0  0  0  0  0  0  0  0  0  0  0
   -5.6760   25.8936  -28.9785 H   0  0  0  0  0  0  0  0  0  0  0  0
   -1.8740   26.5963  -26.4444 H   0  0  0  0  0  0  0  0  0  0  0  0
   -1.4186   24.8719  -26.1652 H   0  0  0  0  0  0  0  0  0  0  0  0
    0.0446   26.8529  -27.9786 H   0  0  0  0  0  0  0  0  0  0  0  0
    0.5662   26.2677  -26.3229 H   0  0  0  0  0  0  0  0  0  0  0  0
    0.4699   23.4353  -29.2278 H   0  0  0  0  0  0  0  0  0  0  0  0
   -0.4233   23.2707  -27.6459 H   0  0  0  0  0  0  0  0  0  0  0  0
   -1.0643   25.2548  -29.8725 H   0  0  0  0  0  0  0  0  0  0  0  0
   -1.9739   23.7368  -29.4667 H   0  0  0  0  0  0  0  0  0  0  0  0
   -3.7301   22.0398  -29.2904 H   0  0  0  0  0  0  0  0  0  0  0  0
  1  2  2  0
  2  3  1  0
  3  4  1  0
  4  5  2  0
  5  6  1  0
  6  7  1  0
  7  8  2  0
  7  9  2  0
  7 10  1  0
 10 11  1  0
 11 12  1  0
 12 13  1  0
 13 14  1  0
  6 15  2  0
 15 16  1  0
 16 17  2  0
 17 18  1  0
 18 19  1  0
 19 20  1  0
 20 21  1  0
 21 22  1  0
 22 23  1  0
  2 24  1  0
 24 25  2  0
 25 26  1  0
 26 27  2  0
 27 28  1  0
 28 29  1  0
 29 30  2  0
 29 31  2  0
 29 32  1  0
 32 33  1  0
 33 34  1  0
 34 35  1  0
 35 36  1  0
 36 37  1  0
 28 38  2  0
 17  4  1  0
 23 18  1  0
 38 24  1  0
 14 10  1  0
 37 32  1  0
  3 39  1  0
  5 40  1  0
 11 41  1  0
 11 42  1  0
 12 43  1  0
 12 44  1  0
 13 45  1  0
 13 46  1  0
 14 47  1  0
 14 48  1  0
 15 49  1  0
 16 50  1  0
 19 51  1  0
 19 52  1  0
 20 53  1  0
 20 54  1  0
 22 55  1  0
 22 56  1  0
 23 57  1  0
 23 58  1  0
 25 59  1  0
 26 60  1  0
 27 61  1  0
 33 62  1  0
 33 63  1  0
 34 64  1  0
 34 65  1  0
 36 66  1  0
 36 67  1  0
 37 68  1  0
 37 69  1  0
 38 70  1  0
M  END
>  <UniqueID>  (44) 
42

>  <SMILES>  (44) 
O=C(Nc1cc(S(=O)(=O)N2CCCC2)ccc1N1CCOCC1)c1cccc(S(=O)(=O)N2CCOCC2)c1

>  <Energy>  (44) 
97.00073061330323

>  <Genealogy>  (44) 
O=C(Nc1cc(S(=O)(=O)N2CCCC2)ccc1N1CCOCC1)c1cccc(S(=O)(=O)N2CCOCC2)c1 (3D coordinates assigned)
O=C(Nc1cc(S(=O)(=O)N2CCCC2)ccc1N1CCOCC1)c1cccc(S(=O)(=O)N2CCOCC2)c1 (nonaromatic ring conformer: 97.00073061330323 kcal/mol)

>  <smiles>  (44) 
O=C(Nc1cc(S(=O)(=O)N2CCCC2)ccc1N1CCOCC1)c1cccc(S(=O)(=O)N2CCOCC2)c1

>  <score_type>  (44) 
oracle

>  <origin>  (44) 
adgpu

>  <m_score__min__energy>  (44) 
-10.960000000000001

>  <m_primary>  (44) 
energy

$$$$
44:0
     RDKit          3D

 45 47  0  0  0  0  0  0  0  0999 V2000
   -0.4890   26.4780  -23.3990 C   0  0  0  0  0  0  0  0  0  0  0  0
   -0.4710   25.6570  -24.6210 N   0  0  0  0  0  0  0  0  0  0  0  0
   -0.6970   24.2380  -24.2890 C   0  0  0  0  0  0  0  0  0  0  0  0
   -0.5150   23.3880  -25.5450 C   0  0  0  0  0  0  0  0  0  0  0  0
   -1.3010   23.9270  -26.6610 N   0  0  0  0  0  0  0  0  0  0  0  0
   -1.2710   23.2440  -27.9310 C   0  0  0  0  0  0  0  0  0  0  0  0
   -0.2620   22.5580  -28.2450 O   0  0  0  0  0  0  0  0  0  0  0  0
   -2.4020   23.3180  -28.8790 C   0  0  0  0  0  0  0  0  0  0  0  0
   -3.2090   22.1910  -29.0850 C   0  0  0  0  0  0  0  0  0  0  0  0
   -4.2790   22.2380  -29.9820 C   0  0  0  0  0  0  0  0  0  0  0  0
   -4.5650   23.4210  -30.6810 C   0  0  0  0  0  0  0  0  0  0  0  0
   -5.6500   23.5170  -31.6130 N   0  0  0  0  0  0  0  0  0  0  0  0
   -7.2650   22.9530  -31.3340 S   0  0  0  0  0  0  0  0  0  0  0  0
   -7.6050   23.1080  -29.8760 O   0  0  0  0  0  0  0  0  0  0  0  0
   -8.2210   23.7890  -32.1380 O   0  0  0  0  0  0  0  0  0  0  0  0
   -7.4180   21.2740  -31.8430 C   0  0  0  0  0  0  0  0  0  0  0  0
   -8.4710   20.4920  -31.3450 C   0  0  0  0  0  0  0  0  0  0  0  0
   -8.5980   19.1560  -31.7300 C   0  0  0  0  0  0  0  0  0  0  0  0
   -7.6730   18.5890  -32.6130 C   0  0  0  0  0  0  0  0  0  0  0  0
   -6.6220   19.3660  -33.1140 C   0  0  0  0  0  0  0  0  0  0  0  0
   -5.4610   18.6540  -34.2200 Cl  0  0  0  0  0  0  0  0  0  0  0  0
   -6.4950   20.7050  -32.7310 C   0  0  0  0  0  0  0  0  0  0  0  0
   -3.7720   24.5520  -30.4610 C   0  0  0  0  0  0  0  0  0  0  0  0
   -2.7060   24.5120  -29.5570 C   0  0  0  0  0  0  0  0  0  0  0  0
   -1.9750   25.6700  -29.3180 O   0  0  0  0  0  0  0  0  0  0  0  0
   -2.1600   25.0970  -26.4440 C   0  0  0  0  0  0  0  0  0  0  0  0
   -1.4270   26.1850  -25.6310 C   0  0  0  0  0  0  0  0  0  0  0  0
   -0.4746   25.8219  -22.5162 H   0  0  0  0  0  0  0  0  0  0  0  0
    0.3950   27.1324  -23.3839 H   0  0  0  0  0  0  0  0  0  0  0  0
   -1.4008   27.0931  -23.3839 H   0  0  0  0  0  0  0  0  0  0  0  0
    0.0260   23.9206  -23.5231 H   0  0  0  0  0  0  0  0  0  0  0  0
   -1.7190   24.1092  -23.9030 H   0  0  0  0  0  0  0  0  0  0  0  0
    0.5490   23.3812  -25.8241 H   0  0  0  0  0  0  0  0  0  0  0  0
   -0.8629   22.3666  -25.3314 H   0  0  0  0  0  0  0  0  0  0  0  0
   -2.9982   21.2615  -28.5358 H   0  0  0  0  0  0  0  0  0  0  0  0
   -4.9000   21.3441  -30.1411 H   0  0  0  0  0  0  0  0  0  0  0  0
   -9.1993   20.9331  -30.6486 H   0  0  0  0  0  0  0  0  0  0  0  0
   -9.4269   18.5482  -31.3383 H   0  0  0  0  0  0  0  0  0  0  0  0
   -7.7713   17.5352  -32.9129 H   0  0  0  0  0  0  0  0  0  0  0  0
   -5.6687   21.3131  -33.1277 H   0  0  0  0  0  0  0  0  0  0  0  0
   -3.9893   25.4830  -31.0050 H   0  0  0  0  0  0  0  0  0  0  0  0
   -2.4519   25.5136  -27.4193 H   0  0  0  0  0  0  0  0  0  0  0  0
   -3.0470   24.7774  -25.8774 H   0  0  0  0  0  0  0  0  0  0  0  0
   -0.8690   26.8219  -26.3331 H   0  0  0  0  0  0  0  0  0  0  0  0
   -2.1998   26.7355  -25.0745 H   0  0  0  0  0  0  0  0  0  0  0  0
  1  2  1  0
  2  3  1  0
  3  4  1  0
  4  5  1  0
  5  6  1  0
  6  7  2  0
  6  8  1  0
  8  9  2  0
  9 10  1  0
 10 11  2  0
 11 12  1  0
 12 13  1  0
 13 14  2  0
 13 15  2  0
 13 16  1  0
 16 17  2  0
 17 18  1  0
 18 19  2  0
 19 20  1  0
 20 21  1  0
 20 22  2  0
 11 23  1  0
 23 24  2  0
 24 25  1  0
  5 26  1  0
 26 27  1  0
 27  2  1  0
 24  8  1  0
 22 16  1  0
  1 28  1  0
  1 29  1  0
  1 30  1  0
  3 31  1  0
  3 32  1  0
  4 33  1  0
  4 34  1  0
  9 35  1  0
 10 36  1  0
 17 37  1  0
 18 38  1  0
 19 39  1  0
 22 40  1  0
 23 41  1  0
 26 42  1  0
 26 43  1  0
 27 44  1  0
 27 45  1  0
M  CHG  2  12  -1  25  -1
M  END
>  <UniqueID>  (45) 
43

>  <SMILES>  (45) 
CN1CCN(C(=O)c2ccc([N-]S(=O)(=O)c3cccc(Cl)c3)cc2[O-])CC1

>  <Energy>  (45) 
61.347109208016796

>  <Genealogy>  (45) 
CN1CCN(C(=O)c2ccc([N-]S(=O)(=O)c3cccc(Cl)c3)cc2[O-])CC1 (protonated)
CN1CCN(C(=O)c2ccc([N-]S(=O)(=O)c3cccc(Cl)c3)cc2[O-])CC1 (3D coordinates assigned)
CN1CCN(C(=O)c2ccc([N-]S(=O)(=O)c3cccc(Cl)c3)cc2[O-])CC1 (nonaromatic ring conformer: 61.347109208016796 kcal/mol)

>  <smiles>  (45) 
CN1CCN(C(=O)c2ccc(NS(=O)(=O)c3cccc(Cl)c3)cc2O)CC1

>  <score_type>  (45) 
oracle

>  <origin>  (45) 
adgpu

>  <m_score__min__energy>  (45) 
-12.81

>  <m_primary>  (45) 
energy

$$$$
45:0
     RDKit          3D

 51 53  0  0  0  0  0  0  0  0999 V2000
    0.6020   24.5550  -26.2460 C   0  0  0  0  0  0  0  0  0  0  0  0
   -0.7620   24.5110  -26.8700 C   0  0  0  0  0  0  0  0  0  0  0  0
   -1.8900   24.8990  -26.1320 C   0  0  0  0  0  0  0  0  0  0  0  0
   -3.1570   24.8890  -26.7240 C   0  0  0  0  0  0  0  0  0  0  0  0
   -3.3140   24.5190  -28.0670 C   0  0  0  0  0  0  0  0  0  0  0  0
   -4.6360   24.4810  -28.6360 N   0  0  0  0  0  0  0  0  0  0  0  0
   -4.9280   24.6590  -30.0310 C   0  0  0  0  0  0  0  0  0  0  0  0
   -4.0670   25.1500  -30.8100 O   0  0  0  0  0  0  0  0  0  0  0  0
   -6.2900   24.3280  -30.5630 C   0  0  0  0  0  0  0  0  0  0  0  0
   -6.2290   23.8000  -32.3130 S   0  0  0  0  0  0  0  0  0  0  0  0
   -7.1180   22.2600  -32.0490 C   0  0  0  0  0  0  0  0  0  0  0  0
   -8.2560   22.1850  -31.3390 N   0  0  0  0  0  0  0  0  0  0  0  0
   -8.6240   20.9150  -31.3380 N   0  0  0  0  0  0  0  0  0  0  0  0
   -7.7110   20.2240  -32.0500 C   0  0  0  0  0  0  0  0  0  0  0  0
   -7.8040   18.7160  -32.1790 C   0  0  0  0  0  0  0  0  0  0  0  0
   -6.5910   17.9550  -31.6350 C   0  0  0  0  0  0  0  0  0  0  0  0
   -9.1160   18.1840  -31.5950 C   0  0  0  0  0  0  0  0  0  0  0  0
   -6.7310   21.0490  -32.5090 N   0  0  0  0  0  0  0  0  0  0  0  0
   -5.4900   20.7510  -33.2410 C   0  0  0  0  0  0  0  0  0  0  0  0
   -4.2660   21.0600  -32.4190 C   0  0  0  0  0  0  0  0  0  0  0  0
   -4.3320   21.0220  -31.0160 C   0  0  0  0  0  0  0  0  0  0  0  0
   -3.1940   21.2850  -30.2480 C   0  0  0  0  0  0  0  0  0  0  0  0
   -1.9780   21.5680  -30.8730 C   0  0  0  0  0  0  0  0  0  0  0  0
   -1.8940   21.5790  -32.2670 C   0  0  0  0  0  0  0  0  0  0  0  0
   -3.0300   21.3180  -33.0400 C   0  0  0  0  0  0  0  0  0  0  0  0
   -2.1800   24.1310  -28.8050 C   0  0  0  0  0  0  0  0  0  0  0  0
   -0.9150   24.1360  -28.2130 C   0  0  0  0  0  0  0  0  0  0  0  0
    0.5043   24.5518  -25.1504 H   0  0  0  0  0  0  0  0  0  0  0  0
    1.1798   23.6750  -26.5651 H   0  0  0  0  0  0  0  0  0  0  0  0
    1.1218   25.4704  -26.5651 H   0  0  0  0  0  0  0  0  0  0  0  0
   -1.7776   25.2123  -25.0836 H   0  0  0  0  0  0  0  0  0  0  0  0
   -4.0382   25.1740  -26.1305 H   0  0  0  0  0  0  0  0  0  0  0  0
   -5.4450   24.3560  -27.9860 H   0  0  0  0  0  0  0  0  0  0  0  0
   -6.7188   23.5136  -29.9606 H   0  0  0  0  0  0  0  0  0  0  0  0
   -6.9094   25.2350  -30.5020 H   0  0  0  0  0  0  0  0  0  0  0  0
   -7.7994   18.5180  -33.2610 H   0  0  0  0  0  0  0  0  0  0  0  0
   -6.6126   17.9686  -30.5353 H   0  0  0  0  0  0  0  0  0  0  0  0
   -6.6220   16.9142  -31.9895 H   0  0  0  0  0  0  0  0  0  0  0  0
   -5.6673   18.4358  -31.9895 H   0  0  0  0  0  0  0  0  0  0  0  0
   -9.0636   18.2052  -30.4965 H   0  0  0  0  0  0  0  0  0  0  0  0
   -9.9509   18.8146  -31.9345 H   0  0  0  0  0  0  0  0  0  0  0  0
   -9.2759   17.1500  -31.9345 H   0  0  0  0  0  0  0  0  0  0  0  0
   -5.4806   19.6833  -33.5056 H   0  0  0  0  0  0  0  0  0  0  0  0
   -5.4648   21.3825  -34.1413 H   0  0  0  0  0  0  0  0  0  0  0  0
   -5.2842   20.7840  -30.5193 H   0  0  0  0  0  0  0  0  0  0  0  0
   -3.2566   21.2690  -29.1499 H   0  0  0  0  0  0  0  0  0  0  0  0
   -1.0854   21.7825  -30.2669 H   0  0  0  0  0  0  0  0  0  0  0  0
   -0.9331   21.7932  -32.7577 H   0  0  0  0  0  0  0  0  0  0  0  0
   -2.9569   21.3144  -34.1376 H   0  0  0  0  0  0  0  0  0  0  0  0
   -2.2908   23.8218  -29.8548 H   0  0  0  0  0  0  0  0  0  0  0  0
   -0.0338   23.8442  -28.8032 H   0  0  0  0  0  0  0  0  0  0  0  0
  1  2  1  0
  2  3  2  0
  3  4  1  0
  4  5  2  0
  5  6  1  0
  6  7  1  0
  7  8  2  0
  7  9  1  0
  9 10  1  0
 10 11  1  0
 11 12  2  0
 12 13  1  0
 13 14  2  0
 14 15  1  0
 15 16  1  0
 15 17  1  0
 14 18  1  0
 18 19  1  0
 19 20  1  0
 20 21  2  0
 21 22  1  0
 22 23  2  0
 23 24  1  0
 24 25  2  0
  5 26  1  0
 26 27  2  0
 27  2  1  0
 18 11  1  0
 25 20  1  0
  1 28  1  0
  1 29  1  0
  1 30  1  0
  3 31  1  0
  4 32  1  0
  6 33  1  0
  9 34  1  0
  9 35  1  0
 15 36  1  0
 16 37  1  0
 16 38  1  0
 16 39  1  0
 17 40  1  0
 17 41  1  0
 17 42  1  0
 19 43  1  0
 19 44  1  0
 21 45  1  0
 22 46  1  0
 23 47  1  0
 24 48  1  0
 25 49  1  0
 26 50  1  0
 27 51  1  0
M  END
>  <UniqueID>  (46) 
44

>  <SMILES>  (46) 
Cc1ccc(NC(=O)CSc2nnc(C(C)C)n2Cc2ccccc2)cc1

>  <Energy>  (46) 
81.19272902905931

>  <Genealogy>  (46) 
Cc1ccc(NC(=O)CSc2nnc(C(C)C)n2Cc2ccccc2)cc1 (3D coordinates assigned)
Cc1ccc(NC(=O)CSc2nnc(C(C)C)n2Cc2ccccc2)cc1 (optimized conformer: 81.19272902905931 kcal/mol)

>  <smiles>  (46) 
Cc1ccc(NC(=O)CSc2nnc(C(C)C)n2Cc2ccccc2)cc1

>  <score_type>  (46) 
oracle

>  <origin>  (46) 
adgpu

>  <m_score__min__energy>  (46) 
-9.6999999999999993

>  <m_primary>  (46) 
energy

$$$$
46:0
     RDKit          3D

 74 78  0  0  0  0  0  0  0  0999 V2000
   -9.3950   23.4960  -32.3050 C   0  0  0  0  0  0  0  0  0  0  0  0
   -8.5810   22.2580  -32.0670 C   0  0  0  0  0  0  0  0  0  0  0  0
   -9.2110   21.0070  -31.9710 C   0  0  0  0  0  0  0  0  0  0  0  0
   -8.4500   19.8380  -31.8070 C   0  0  0  0  0  0  0  0  0  0  0  0
   -9.1140   18.4950  -31.7410 C   0  0  0  0  0  0  0  0  0  0  0  0
   -7.0520   19.9250  -31.7770 C   0  0  0  0  0  0  0  0  0  0  0  0
   -6.4130   21.1660  -31.8970 C   0  0  0  0  0  0  0  0  0  0  0  0
   -4.6530   21.2670  -31.8250 S   0  0  0  0  0  0  0  0  0  0  0  0
   -4.1180   21.8790  -33.0880 O   0  0  0  0  0  0  0  0  0  0  0  0
   -4.1400   19.8560  -31.7280 O   0  0  0  0  0  0  0  0  0  0  0  0
   -4.0520   22.2150  -30.4480 C   0  0  0  0  0  0  0  0  0  0  0  0
   -5.0060   22.7270  -29.5510 C   0  0  0  0  0  0  0  0  0  0  0  0
   -4.6190   23.5000  -28.4560 C   0  0  0  0  0  0  0  0  0  0  0  0
   -3.2710   23.7730  -28.2350 C   0  0  0  0  0  0  0  0  0  0  0  0
   -2.3060   23.2770  -29.1100 C   0  0  0  0  0  0  0  0  0  0  0  0
   -2.6730   22.4870  -30.2160 C   0  0  0  0  0  0  0  0  0  0  0  0
   -1.5820   22.0130  -31.0930 C   0  0  0  0  0  0  0  0  0  0  0  0
   -0.4030   22.3740  -30.8360 O   0  0  0  0  0  0  0  0  0  0  0  0
   -1.8310   21.0590  -32.1360 N   0  0  0  0  0  0  0  0  0  0  0  0
   -0.8140   20.5840  -33.0350 C   0  0  0  0  0  0  0  0  0  0  0  0
   -0.3150   21.4200  -34.0520 C   0  0  0  0  0  0  0  0  0  0  0  0
    0.6190   20.9390  -34.9740 C   0  0  0  0  0  0  0  0  0  0  0  0
    1.0590   19.6180  -34.8970 C   0  0  0  0  0  0  0  0  0  0  0  0
    0.5740   18.7780  -33.8950 C   0  0  0  0  0  0  0  0  0  0  0  0
   -0.3340   19.2590  -32.9410 C   0  0  0  0  0  0  0  0  0  0  0  0
   -0.8470   18.1500  -31.6150 S   0  0  0  0  0  0  0  0  0  0  0  0
    0.7810   18.0420  -30.8400 C   0  0  0  0  0  0  0  0  0  0  0  0
    1.6020   16.9460  -31.1520 C   0  0  0  0  0  0  0  0  0  0  0  0
    2.8920   16.8550  -30.6220 C   0  0  0  0  0  0  0  0  0  0  0  0
    3.3830   17.8710  -29.7990 C   0  0  0  0  0  0  0  0  0  0  0  0
    2.5830   18.9760  -29.5000 C   0  0  0  0  0  0  0  0  0  0  0  0
    1.2790   19.0670  -30.0100 C   0  0  0  0  0  0  0  0  0  0  0  0
    0.4600   20.1830  -29.6470 N   0  0  0  0  0  0  0  0  0  0  0  0
   -0.3600   20.2040  -28.4640 C   0  0  0  0  0  0  0  0  0  0  0  0
   -1.2370   19.1360  -28.2090 C   0  0  0  0  0  0  0  0  0  0  0  0
   -1.9810   19.0940  -27.0330 C   0  0  0  0  0  0  0  0  0  0  0  0
   -1.8430   20.0990  -26.0810 C   0  0  0  0  0  0  0  0  0  0  0  0
   -0.9650   21.1730  -26.2950 C   0  0  0  0  0  0  0  0  0  0  0  0
   -0.8470   22.2320  -25.2290 C   0  0  0  0  0  0  0  0  0  0  0  0
   -0.2500   21.2580  -27.5210 C   0  0  0  0  0  0  0  0  0  0  0  0
    0.6360   22.4470  -27.8290 C   0  0  0  0  0  0  0  0  0  0  0  0
   -7.1800   22.3300  -32.0350 C   0  0  0  0  0  0  0  0  0  0  0  0
   -9.6843   23.9359  -31.3392 H   0  0  0  0  0  0  0  0  0  0  0  0
   -8.7983   24.2232  -32.8751 H   0  0  0  0  0  0  0  0  0  0  0  0
  -10.2992   23.2363  -32.8751 H   0  0  0  0  0  0  0  0  0  0  0  0
  -10.3078   20.9420  -32.0246 H   0  0  0  0  0  0  0  0  0  0  0  0
   -9.2561   18.2076  -30.6888 H   0  0  0  0  0  0  0  0  0  0  0  0
  -10.0916   18.5442  -32.2429 H   0  0  0  0  0  0  0  0  0  0  0  0
   -8.4814   17.7481  -32.2429 H   0  0  0  0  0  0  0  0  0  0  0  0
   -6.4511   19.0113  -31.6582 H   0  0  0  0  0  0  0  0  0  0  0  0
   -6.0729   22.5150  -29.7150 H   0  0  0  0  0  0  0  0  0  0  0  0
   -5.3795   23.8945  -27.7661 H   0  0  0  0  0  0  0  0  0  0  0  0
   -2.9679   24.3804  -27.3694 H   0  0  0  0  0  0  0  0  0  0  0  0
   -1.2445   23.5057  -28.9342 H   0  0  0  0  0  0  0  0  0  0  0  0
   -2.7610   20.5890  -32.1500 H   0  0  0  0  0  0  0  0  0  0  0  0
   -0.6633   22.4611  -34.1216 H   0  0  0  0  0  0  0  0  0  0  0  0
    1.0071   21.6028  -35.7606 H   0  0  0  0  0  0  0  0  0  0  0  0
    1.7890   19.2383  -35.6270 H   0  0  0  0  0  0  0  0  0  0  0  0
    0.9063   17.7302  -33.8528 H   0  0  0  0  0  0  0  0  0  0  0  0
    1.2274   16.1544  -31.8176 H   0  0  0  0  0  0  0  0  0  0  0  0
    3.5210   15.9827  -30.8532 H   0  0  0  0  0  0  0  0  0  0  0  0
    4.4002   17.8008  -29.3862 H   0  0  0  0  0  0  0  0  0  0  0  0
    2.9775   19.7797  -28.8609 H   0  0  0  0  0  0  0  0  0  0  0  0
    0.4170   20.9740  -30.3240 H   0  0  0  0  0  0  0  0  0  0  0  0
   -1.3366   18.3253  -28.9457 H   0  0  0  0  0  0  0  0  0  0  0  0
   -2.6802   18.2635  -26.8560 H   0  0  0  0  0  0  0  0  0  0  0  0
   -2.4281   20.0515  -25.1507 H   0  0  0  0  0  0  0  0  0  0  0  0
   -0.8995   21.7606  -24.2365 H   0  0  0  0  0  0  0  0  0  0  0  0
    0.1149   22.7547  -25.3363 H   0  0  0  0  0  0  0  0  0  0  0  0
   -1.6703   22.9536  -25.3363 H   0  0  0  0  0  0  0  0  0  0  0  0
    0.9765   22.9040  -26.8882 H   0  0  0  0  0  0  0  0  0  0  0  0
    1.5077   22.1137  -28.4113 H   0  0  0  0  0  0  0  0  0  0  0  0
    0.0673   23.1870  -28.4113 H   0  0  0  0  0  0  0  0  0  0  0  0
   -6.6809   23.3067  -32.1188 H   0  0  0  0  0  0  0  0  0  0  0  0
  1  2  1  0
  2  3  2  0
  3  4  1  0
  4  5  1  0
  4  6  2  0
  6  7  1  0
  7  8  1  0
  8  9  2  0
  8 10  2  0
  8 11  1  0
 11 12  2  0
 12 13  1  0
 13 14  2  0
 14 15  1  0
 15 16  2  0
 16 17  1  0
 17 18  2  0
 17 19  1  0
 19 20  1  0
 20 21  2  0
 21 22  1  0
 22 23  2  0
 23 24  1  0
 24 25  2  0
 25 26  1  0
 26 27  1  0
 27 28  2  0
 28 29  1  0
 29 30  2  0
 30 31  1  0
 31 32  2  0
 32 33  1  0
 33 34  1  0
 34 35  2  0
 35 36  1  0
 36 37  2  0
 37 38  1  0
 38 39  1  0
 38 40  2  0
 40 41  1  0
  7 42  2  0
 42  2  1  0
 16 11  1  0
 25 20  1  0
 32 27  1  0
 40 34  1  0
  1 43  1  0
  1 44  1  0
  1 45  1  0
  3 46  1  0
  5 47  1  0
  5 48  1  0
  5 49  1  0
  6 50  1  0
 12 51  1  0
 13 52  1  0
 14 53  1  0
 15 54  1  0
 19 55  1  0
 21 56  1  0
 22 57  1  0
 23 58  1  0
 24 59  1  0
 28 60  1  0
 29 61  1  0
 30 62  1  0
 31 63  1  0
 33 64  1  0
 35 65  1  0
 36 66  1  0
 37 67  1  0
 39 68  1  0
 39 69  1  0
 39 70  1  0
 41 71  1  0
 41 72  1  0
 41 73  1  0
 42 74  1  0
M  END
>  <UniqueID>  (47) 
45

>  <SMILES>  (47) 
Cc1cc(C)cc(S(=O)(=O)c2ccccc2C(=O)Nc2ccccc2Sc2ccccc2Nc2cccc(C)c2C)c1

>  <Energy>  (47) 
94.89771655370416

>  <Genealogy>  (47) 
Cc1cc(C)cc(S(=O)(=O)c2ccccc2C(=O)Nc2ccccc2Sc2ccccc2Nc2cccc(C)c2C)c1 (3D coordinates assigned)
Cc1cc(C)cc(S(=O)(=O)c2ccccc2C(=O)Nc2ccccc2Sc2ccccc2Nc2cccc(C)c2C)c1 (optimized conformer: 94.89771655370416 kcal/mol)

>  <smiles>  (47) 
Cc1cc(C)cc(S(=O)(=O)c2ccccc2C(=O)Nc2ccccc2Sc2ccccc2Nc2cccc(C)c2C)c1

>  <score_type>  (47) 
oracle

>  <origin>  (47) 
adgpu

>  <m_score__min__energy>  (47) 
-11.43

>  <m_primary>  (47) 
energy

$$$$
47:0
     RDKit          3D

 41 42  0  0  0  0  0  0  0  0999 V2000
   -8.8050   19.2180  -32.1000 C   0  0  0  0  0  0  0  0  0  0  0  0
   -8.3410   20.4110  -32.7250 O   0  0  0  0  0  0  0  0  0  0  0  0
   -7.4500   21.3290  -32.1420 C   0  0  0  0  0  0  0  0  0  0  0  0
   -7.8960   22.3030  -31.2360 C   0  0  0  0  0  0  0  0  0  0  0  0
   -7.0020   23.1990  -30.6620 C   0  0  0  0  0  0  0  0  0  0  0  0
   -5.6440   23.1710  -30.9940 C   0  0  0  0  0  0  0  0  0  0  0  0
   -4.5630   24.3080  -30.1640 S   0  0  0  0  0  0  0  0  0  0  0  0
   -5.0590   24.5990  -28.7750 O   0  0  0  0  0  0  0  0  0  0  0  0
   -4.5160   25.5970  -30.9360 O   0  0  0  0  0  0  0  0  0  0  0  0
   -2.9630   23.6450  -30.0510 N   0  0  0  0  0  0  0  0  0  0  0  0
   -2.0100   24.1770  -29.3470 C   0  0  0  0  0  0  0  0  0  0  0  0
   -2.2170   25.3230  -28.6420 N   0  0  0  0  0  0  0  0  0  0  0  0
   -1.2340   25.8850  -27.8920 C   0  0  0  0  0  0  0  0  0  0  0  0
    0.0250   25.2760  -27.8430 C   0  0  0  0  0  0  0  0  0  0  0  0
    1.1260   25.8640  -27.0200 C   0  0  0  0  0  0  0  0  0  0  0  0
    0.2330   24.1300  -28.5430 N   0  0  0  0  0  0  0  0  0  0  0  0
   -0.7500   23.5630  -29.2960 C   0  0  0  0  0  0  0  0  0  0  0  0
   -0.5150   22.3820  -30.0090 O   0  0  0  0  0  0  0  0  0  0  0  0
   -1.0940   21.1350  -29.6450 C   0  0  0  0  0  0  0  0  0  0  0  0
   -5.1740   22.2320  -31.9500 C   0  0  0  0  0  0  0  0  0  0  0  0
   -3.7160   22.2100  -32.3600 C   0  0  0  0  0  0  0  0  0  0  0  0
   -6.0790   21.2670  -32.4770 C   0  0  0  0  0  0  0  0  0  0  0  0
   -5.5980   20.1950  -33.4300 C   0  0  0  0  0  0  0  0  0  0  0  0
   -8.7595   19.3350  -31.0072 H   0  0  0  0  0  0  0  0  0  0  0  0
   -9.8440   19.0244  -32.4051 H   0  0  0  0  0  0  0  0  0  0  0  0
   -8.1698   18.3733  -32.4051 H   0  0  0  0  0  0  0  0  0  0  0  0
   -8.9638   22.3580  -30.9774 H   0  0  0  0  0  0  0  0  0  0  0  0
   -7.3678   23.9405  -29.9365 H   0  0  0  0  0  0  0  0  0  0  0  0
   -1.4257   26.8100  -27.3285 H   0  0  0  0  0  0  0  0  0  0  0  0
    0.8924   25.7393  -25.9523 H   0  0  0  0  0  0  0  0  0  0  0  0
    2.0709   25.3504  -27.2511 H   0  0  0  0  0  0  0  0  0  0  0  0
    1.2247   26.9349  -27.2511 H   0  0  0  0  0  0  0  0  0  0  0  0
   -1.1315   21.0543  -28.5486 H   0  0  0  0  0  0  0  0  0  0  0  0
   -2.1138   21.0714  -30.0524 H   0  0  0  0  0  0  0  0  0  0  0  0
   -0.4845   20.3149  -30.0524 H   0  0  0  0  0  0  0  0  0  0  0  0
   -3.0824   22.2004  -31.4609 H   0  0  0  0  0  0  0  0  0  0  0  0
   -3.5170   21.3087  -32.9584 H   0  0  0  0  0  0  0  0  0  0  0  0
   -3.4899   23.1048  -32.9584 H   0  0  0  0  0  0  0  0  0  0  0  0
   -5.2140   19.3391  -32.8555 H   0  0  0  0  0  0  0  0  0  0  0  0
   -6.4346   19.8655  -34.0637 H   0  0  0  0  0  0  0  0  0  0  0  0
   -4.7957   20.6009  -34.0637 H   0  0  0  0  0  0  0  0  0  0  0  0
  1  2  1  0
  2  3  1  0
  3  4  2  0
  4  5  1  0
  5  6  2  0
  6  7  1  0
  7  8  2  0
  7  9  2  0
  7 10  1  0
 10 11  2  3
 11 12  1  0
 12 13  1  0
 13 14  2  0
 14 15  1  0
 14 16  1  0
 16 17  2  0
 17 18  1  0
 18 19  1  0
  6 20  1  0
 20 21  1  0
 20 22  2  0
 22 23  1  0
 22  3  1  0
 17 11  1  0
  1 24  1  0
  1 25  1  0
  1 26  1  0
  4 27  1  0
  5 28  1  0
 13 29  1  0
 15 30  1  0
 15 31  1  0
 15 32  1  0
 19 33  1  0
 19 34  1  0
 19 35  1  0
 21 36  1  0
 21 37  1  0
 21 38  1  0
 23 39  1  0
 23 40  1  0
 23 41  1  0
M  CHG  1  12  -1
M  END
>  <UniqueID>  (48) 
46

>  <SMILES>  (48) 
COc1ccc(S(=O)(=O)N=c2[n-]cc(C)nc2OC)c(C)c1C

>  <Energy>  (48) 
46.42331655471583

>  <Genealogy>  (48) 
COc1ccc(S(=O)(=O)N=c2[n-]cc(C)nc2OC)c(C)c1C (protonated)
COc1ccc(S(=O)(=O)N=c2[n-]cc(C)nc2OC)c(C)c1C (3D coordinates assigned)
COc1ccc(S(=O)(=O)N=c2[n-]cc(C)nc2OC)c(C)c1C (optimized conformer: 46.42331655471583 kcal/mol)

>  <smiles>  (48) 
COc1ccc(S(=O)(=O)N=c2[nH]cc(C)nc2OC)c(C)c1C

>  <score_type>  (48) 
oracle

>  <origin>  (48) 
adgpu

>  <m_score__min__energy>  (48) 
-9.1199999999999992

>  <m_primary>  (48) 
energy

$$$$
48:0
     RDKit          3D

 46 49  0  0  0  0  0  0  0  0999 V2000
   -2.6950   21.5710  -32.4560 C   0  0  0  0  0  0  0  0  0  0  0  0
   -2.5580   21.5160  -30.9740 C   0  0  0  0  0  0  0  0  0  0  0  0
   -1.9360   20.4470  -30.3650 C   0  0  0  0  0  0  0  0  0  0  0  0
   -1.8080   20.3940  -29.0020 C   0  0  0  0  0  0  0  0  0  0  0  0
   -2.3050   21.4140  -28.2490 C   0  0  0  0  0  0  0  0  0  0  0  0
   -2.9250   22.4790  -28.8650 C   0  0  0  0  0  0  0  0  0  0  0  0
   -3.0810   22.5840  -30.2310 C   0  0  0  0  0  0  0  0  0  0  0  0
   -3.7100   23.6830  -30.8730 N   0  0  0  0  0  0  0  0  0  0  0  0
   -5.2840   24.2470  -30.5220 S   0  0  0  0  0  0  0  0  0  0  0  0
   -5.4890   25.5830  -31.1970 O   0  0  0  0  0  0  0  0  0  0  0  0
   -5.4880   24.3860  -29.0360 O   0  0  0  0  0  0  0  0  0  0  0  0
   -6.4410   23.1410  -31.2190 C   0  0  0  0  0  0  0  0  0  0  0  0
   -7.7680   23.4400  -31.4130 C   0  0  0  0  0  0  0  0  0  0  0  0
   -8.6740   22.5430  -31.9660 C   0  0  0  0  0  0  0  0  0  0  0  0
   -8.1990   21.2800  -32.3380 C   0  0  0  0  0  0  0  0  0  0  0  0
   -9.0840   20.3500  -32.8980 O   0  0  0  0  0  0  0  0  0  0  0  0
   -6.8650   20.9430  -32.1570 C   0  0  0  0  0  0  0  0  0  0  0  0
   -6.3550   19.6270  -32.5420 C   0  0  0  0  0  0  0  0  0  0  0  0
   -6.5090   18.5890  -31.6370 C   0  0  0  0  0  0  0  0  0  0  0  0
   -6.0540   17.3290  -31.9330 C   0  0  0  0  0  0  0  0  0  0  0  0
   -5.4350   17.1090  -33.1550 C   0  0  0  0  0  0  0  0  0  0  0  0
   -4.8810   15.9950  -33.7440 C   0  0  0  0  0  0  0  0  0  0  0  0
   -4.8530   14.8320  -33.1700 N   0  0  0  0  0  0  0  0  0  0  0  0
   -4.4190   16.3510  -34.9430 N   0  0  0  0  0  0  0  0  0  0  0  0
   -4.6480   17.6340  -35.1490 N   0  0  0  0  0  0  0  0  0  0  0  0
   -5.2760   18.1490  -34.0710 C   0  0  0  0  0  0  0  0  0  0  0  0
   -5.7340   19.4130  -33.7700 C   0  0  0  0  0  0  0  0  0  0  0  0
   -6.0140   21.8860  -31.6000 C   0  0  0  0  0  0  0  0  0  0  0  0
   -3.6864   21.9690  -32.7181 H   0  0  0  0  0  0  0  0  0  0  0  0
   -1.9153   22.2258  -32.8723 H   0  0  0  0  0  0  0  0  0  0  0  0
   -2.5845   20.5588  -32.8723 H   0  0  0  0  0  0  0  0  0  0  0  0
   -1.5378   19.6270  -30.9806 H   0  0  0  0  0  0  0  0  0  0  0  0
   -1.3102   19.5385  -28.5221 H   0  0  0  0  0  0  0  0  0  0  0  0
   -2.2118   21.3877  -27.1533 H   0  0  0  0  0  0  0  0  0  0  0  0
   -3.3168   23.2895  -28.2329 H   0  0  0  0  0  0  0  0  0  0  0  0
   -3.1420   24.1650  -31.6120 H   0  0  0  0  0  0  0  0  0  0  0  0
   -8.1300   24.4356  -31.1168 H   0  0  0  0  0  0  0  0  0  0  0  0
   -9.7301   22.8167  -32.1068 H   0  0  0  0  0  0  0  0  0  0  0  0
   -8.9030   20.0390  -33.8400 H   0  0  0  0  0  0  0  0  0  0  0  0
   -7.0011   18.7772  -30.6714 H   0  0  0  0  0  0  0  0  0  0  0  0
   -6.1780   16.5065  -31.2131 H   0  0  0  0  0  0  0  0  0  0  0  0
   -4.4240   14.0040  -33.6450 H   0  0  0  0  0  0  0  0  0  0  0  0
   -3.9390   15.7100  -35.6330 H   0  0  0  0  0  0  0  0  0  0  0  0
   -4.3840   18.1610  -36.0130 H   0  0  0  0  0  0  0  0  0  0  0  0
   -5.6114   20.2384  -34.4868 H   0  0  0  0  0  0  0  0  0  0  0  0
   -4.9558   21.6224  -31.4563 H   0  0  0  0  0  0  0  0  0  0  0  0
  1  2  1  0
  2  3  2  0
  3  4  1  0
  4  5  2  0
  5  6  1  0
  6  7  2  0
  7  8  1  0
  8  9  1  0
  9 10  2  0
  9 11  2  0
  9 12  1  0
 12 13  2  0
 13 14  1  0
 14 15  2  0
 15 16  1  0
 15 17  1  0
 17 18  1  0
 18 19  2  0
 19 20  1  0
 20 21  2  0
 21 22  1  0
 22 23  2  3
 22 24  1  0
 24 25  1  0
 25 26  1  0
 26 27  2  0
 17 28  2  0
  7  2  1  0
 28 12  1  0
 27 18  1  0
 26 21  1  0
  1 29  1  0
  1 30  1  0
  1 31  1  0
  3 32  1  0
  4 33  1  0
  5 34  1  0
  6 35  1  0
  8 36  1  0
 13 37  1  0
 14 38  1  0
 16 39  1  0
 19 40  1  0
 20 41  1  0
 23 42  1  0
 24 43  1  0
 25 44  1  0
 27 45  1  0
 28 46  1  0
M  END
>  <smiles>  (49) 
Cc1ccccc1NS(=O)(=O)c1ccc(O)c(-c2ccc3c(=N)[nH][nH]c3c2)c1

>  <score_type>  (49) 
oracle

>  <origin>  (49) 
adgpu

>  <m_score__min__energy>  (49) 
-11.050000000000001

>  <m_primary>  (49) 
energy

$$$$
