0:0
     RDKit          3D

 47 49  0  0  0  0  0  0  0  0999 V2000
   -2.1030   18.4780  -33.4670 C   0  0  0  0  0  0  0  0  0  0  0  0
   -3.3410   19.2510  -33.5590 N   0  0  0  0  0  0  0  0  0  0  0  0
   -4.5110   18.6650  -34.2230 C   0  0  0  0  0  0  0  0  0  0  0  0
   -5.7030   18.6810  -33.3060 C   0  0  0  0  0  0  0  0  0  0  0  0
   -5.7500   17.8190  -32.1980 C   0  0  0  0  0  0  0  0  0  0  0  0
   -6.8690   17.8110  -31.3600 C   0  0  0  0  0  0  0  0  0  0  0  0
   -7.9500   18.6560  -31.6250 C   0  0  0  0  0  0  0  0  0  0  0  0
   -7.9130   19.5130  -32.7290 C   0  0  0  0  0  0  0  0  0  0  0  0
   -6.7950   19.5270  -33.5690 C   0  0  0  0  0  0  0  0  0  0  0  0
   -3.5080   20.4070  -32.7230 C   0  0  0  0  0  0  0  0  0  0  0  0
   -4.2430   21.5100  -33.1830 C   0  0  0  0  0  0  0  0  0  0  0  0
   -4.4090   22.6350  -32.3710 C   0  0  0  0  0  0  0  0  0  0  0  0
   -3.8420   22.6680  -31.0890 C   0  0  0  0  0  0  0  0  0  0  0  0
   -4.0750   24.0680  -30.0440 S   0  0  0  0  0  0  0  0  0  0  0  0
   -3.8750   25.3360  -30.8270 O   0  0  0  0  0  0  0  0  0  0  0  0
   -3.0580   24.0300  -28.9380 O   0  0  0  0  0  0  0  0  0  0  0  0
   -5.6690   24.0510  -29.3540 N   0  0  0  0  0  0  0  0  0  0  0  0
   -6.2440   22.7080  -29.4650 C   0  0  0  0  0  0  0  0  0  0  0  0
   -7.3770   22.7230  -30.4530 C   0  0  0  0  0  0  0  0  0  0  0  0
   -8.4750   21.8660  -30.2910 C   0  0  0  0  0  0  0  0  0  0  0  0
   -9.5050   21.8680  -31.2330 C   0  0  0  0  0  0  0  0  0  0  0  0
   -9.4210   22.7200  -32.3370 C   0  0  0  0  0  0  0  0  0  0  0  0
   -8.3420   23.5330  -32.4900 N   0  0  0  0  0  0  0  0  0  0  0  0
   -7.3270   23.5510  -31.5850 C   0  0  0  0  0  0  0  0  0  0  0  0
   -3.1200   21.5610  -30.6220 C   0  0  0  0  0  0  0  0  0  0  0  0
   -2.9530   20.4370  -31.4360 C   0  0  0  0  0  0  0  0  0  0  0  0
   -1.8479   18.3187  -32.4089 H   0  0  0  0  0  0  0  0  0  0  0  0
   -2.2406   17.5051  -33.9615 H   0  0  0  0  0  0  0  0  0  0  0  0
   -1.2892   19.0287  -33.9615 H   0  0  0  0  0  0  0  0  0  0  0  0
   -4.7427   19.2469  -35.1273 H   0  0  0  0  0  0  0  0  0  0  0  0
   -4.2825   17.6225  -34.4896 H   0  0  0  0  0  0  0  0  0  0  0  0
   -4.9037   17.1481  -31.9890 H   0  0  0  0  0  0  0  0  0  0  0  0
   -6.8986   17.1382  -30.4903 H   0  0  0  0  0  0  0  0  0  0  0  0
   -8.8300   18.6469  -30.9650 H   0  0  0  0  0  0  0  0  0  0  0  0
   -8.7646   20.1773  -32.9372 H   0  0  0  0  0  0  0  0  0  0  0  0
   -6.7698   20.2015  -34.4376 H   0  0  0  0  0  0  0  0  0  0  0  0
   -4.6907   21.4891  -34.1876 H   0  0  0  0  0  0  0  0  0  0  0  0
   -4.9858   23.4966  -32.7383 H   0  0  0  0  0  0  0  0  0  0  0  0
   -5.5600   24.2750  -28.3370 H   0  0  0  0  0  0  0  0  0  0  0  0
   -5.4696   22.0056  -29.8071 H   0  0  0  0  0  0  0  0  0  0  0  0
   -6.6217   22.3906  -28.4818 H   0  0  0  0  0  0  0  0  0  0  0  0
   -8.5246   21.1928  -29.4224 H   0  0  0  0  0  0  0  0  0  0  0  0
  -10.3741   21.2055  -31.1074 H   0  0  0  0  0  0  0  0  0  0  0  0
  -10.2289   22.7331  -33.0834 H   0  0  0  0  0  0  0  0  0  0  0  0
   -6.4648   24.2161  -31.7407 H   0  0  0  0  0  0  0  0  0  0  0  0
   -2.6837   21.5769  -29.6123 H   0  0  0  0  0  0  0  0  0  0  0  0
   -2.3835   19.5721  -31.0650 H   0  0  0  0  0  0  0  0  0  0  0  0
  1  2  1  0
  2  3  1  0
  3  4  1  0
  4  5  2  0
  5  6  1  0
  6  7  2  0
  7  8  1  0
  8  9  2  0
  2 10  1  0
 10 11  2  0
 11 12  1  0
 12 13  2  0
 13 14  1  0
 14 15  2  0
 14 16  2  0
 14 17  1  0
 17 18  1  0
 18 19  1  0
 19 20  2  0
 20 21  1  0
 21 22  2  0
 22 23  1  0
 23 24  2  0
 13 25  1  0
 25 26  2  0
  9  4  1  0
 26 10  1  0
 24 19  1  0
  1 27  1  0
  1 28  1  0
  1 29  1  0
  3 30  1  0
  3 31  1  0
  5 32  1  0
  6 33  1  0
  7 34  1  0
  8 35  1  0
  9 36  1  0
 11 37  1  0
 12 38  1  0
 17 39  1  0
 18 40  1  0
 18 41  1  0
 20 42  1  0
 21 43  1  0
 22 44  1  0
 24 45  1  0
 25 46  1  0
 26 47  1  0
M  END
>  <UniqueID>  (1) 
1

>  <SMILES>  (1) 
CN(Cc1ccccc1)c1ccc(S(=O)(=O)NCc2cccnc2)cc1

>  <Energy>  (1) 
49.92658897240918

>  <Genealogy>  (1) 
CN(Cc1ccccc1)c1ccc(S(=O)(=O)NCc2cccnc2)cc1 (3D coordinates assigned)
CN(Cc1ccccc1)c1ccc(S(=O)(=O)NCc2cccnc2)cc1 (optimized conformer: 49.92658897240918 kcal/mol)

>  <smiles>  (1) 
CN(Cc1ccccc1)c1ccc(S(=O)(=O)NCc2cccnc2)cc1

>  <score_type>  (1) 
oracle

>  <origin>  (1) 
adgpu

>  <m_score__min__energy>  (1) 
-10.31

>  <m_primary>  (1) 
energy

$$$$
1:0
     RDKit          3D

 44 47  0  0  0  0  0  0  0  0999 V2000
   -2.7710   24.1740  -29.4410 C   0  0  0  0  0  0  0  0  0  0  0  0
   -3.6320   24.7010  -30.4460 O   0  0  0  0  0  0  0  0  0  0  0  0
   -4.8950   24.1790  -30.7600 C   0  0  0  0  0  0  0  0  0  0  0  0
   -5.1350   23.4330  -31.9290 C   0  0  0  0  0  0  0  0  0  0  0  0
   -6.4120   22.9320  -32.1970 C   0  0  0  0  0  0  0  0  0  0  0  0
   -7.4710   23.1780  -31.3090 C   0  0  0  0  0  0  0  0  0  0  0  0
   -8.8340   22.6080  -31.5780 C   0  0  0  0  0  0  0  0  0  0  0  0
   -8.7160   21.1710  -31.9720 C   0  0  0  0  0  0  0  0  0  0  0  0
   -9.7570   20.3960  -32.3310 N   0  0  0  0  0  0  0  0  0  0  0  0
   -9.2470   19.2130  -32.6370 N   0  0  0  0  0  0  0  0  0  0  0  0
   -7.9140   19.3150  -32.4590 C   0  0  0  0  0  0  0  0  0  0  0  0
   -6.9530   18.2200  -32.6930 C   0  0  0  0  0  0  0  0  0  0  0  0
   -6.4840   17.4510  -31.6160 C   0  0  0  0  0  0  0  0  0  0  0  0
   -5.5710   16.4140  -31.8310 C   0  0  0  0  0  0  0  0  0  0  0  0
   -5.1050   16.1380  -33.1260 C   0  0  0  0  0  0  0  0  0  0  0  0
   -4.1540   15.0280  -33.3510 C   0  0  0  0  0  0  0  0  0  0  0  0
   -2.7890   15.2340  -33.0840 C   0  0  0  0  0  0  0  0  0  0  0  0
   -1.8670   14.2010  -33.2710 C   0  0  0  0  0  0  0  0  0  0  0  0
   -2.2970   12.9550  -33.7320 C   0  0  0  0  0  0  0  0  0  0  0  0
   -3.6470   12.7400  -34.0120 C   0  0  0  0  0  0  0  0  0  0  0  0
   -4.5810   13.7680  -33.8280 C   0  0  0  0  0  0  0  0  0  0  0  0
   -6.4050   13.4220  -34.3140 Br  0  0  0  0  0  0  0  0  0  0  0  0
   -5.5840   16.8970  -34.2050 C   0  0  0  0  0  0  0  0  0  0  0  0
   -6.4960   17.9330  -33.9910 C   0  0  0  0  0  0  0  0  0  0  0  0
   -7.5830   20.5180  -32.0530 O   0  0  0  0  0  0  0  0  0  0  0  0
   -7.2280   23.9100  -30.1370 C   0  0  0  0  0  0  0  0  0  0  0  0
   -5.9510   24.4100  -29.8690 C   0  0  0  0  0  0  0  0  0  0  0  0
   -3.1735   24.4203  -28.4473 H   0  0  0  0  0  0  0  0  0  0  0  0
   -2.7062   23.0813  -29.5498 H   0  0  0  0  0  0  0  0  0  0  0  0
   -1.7685   24.6134  -29.5498 H   0  0  0  0  0  0  0  0  0  0  0  0
   -4.3134   23.2433  -32.6354 H   0  0  0  0  0  0  0  0  0  0  0  0
   -6.5881   22.3419  -33.1085 H   0  0  0  0  0  0  0  0  0  0  0  0
   -9.4485   22.6877  -30.6691 H   0  0  0  0  0  0  0  0  0  0  0  0
   -9.3065   23.1703  -32.3969 H   0  0  0  0  0  0  0  0  0  0  0  0
   -6.8371   17.6657  -30.5966 H   0  0  0  0  0  0  0  0  0  0  0  0
   -5.2164   15.8118  -30.9815 H   0  0  0  0  0  0  0  0  0  0  0  0
   -2.4446   16.2152  -32.7254 H   0  0  0  0  0  0  0  0  0  0  0  0
   -0.8017   14.3694  -33.0549 H   0  0  0  0  0  0  0  0  0  0  0  0
   -1.5703   12.1416  -33.8747 H   0  0  0  0  0  0  0  0  0  0  0  0
   -3.9798   11.7580  -34.3792 H   0  0  0  0  0  0  0  0  0  0  0  0
   -5.2390   16.6746  -35.2256 H   0  0  0  0  0  0  0  0  0  0  0  0
   -6.8585   18.5274  -34.8426 H   0  0  0  0  0  0  0  0  0  0  0  0
   -8.0470   24.0912  -29.4254 H   0  0  0  0  0  0  0  0  0  0  0  0
   -5.7735   24.9896  -28.9511 H   0  0  0  0  0  0  0  0  0  0  0  0
  1  2  1  0
  2  3  1  0
  3  4  2  0
  4  5  1  0
  5  6  2  0
  6  7  1  0
  7  8  1  0
  8  9  2  0
  9 10  1  0
 10 11  2  0
 11 12  1  0
 12 13  2  0
 13 14  1  0
 14 15  2  0
 15 16  1  0
 16 17  2  0
 17 18  1  0
 18 19  2  0
 19 20  1  0
 20 21  2  0
 21 22  1  0
 15 23  1  0
 23 24  2  0
 11 25  1  0
  6 26  1  0
 26 27  2  0
 27  3  1  0
 25  8  1  0
 24 12  1  0
 21 16  1  0
  1 28  1  0
  1 29  1  0
  1 30  1  0
  4 31  1  0
  5 32  1  0
  7 33  1  0
  7 34  1  0
 13 35  1  0
 14 36  1  0
 17 37  1  0
 18 38  1  0
 19 39  1  0
 20 40  1  0
 23 41  1  0
 24 42  1  0
 26 43  1  0
 27 44  1  0
M  END
>  <UniqueID>  (2) 
2

>  <SMILES>  (2) 
COc1ccc(Cc2nnc(-c3ccc(-c4ccccc4Br)cc3)o2)cc1

>  <Energy>  (2) 
88.4605912888891

>  <Genealogy>  (2) 
COc1ccc(Cc2nnc(-c3ccc(-c4ccccc4Br)cc3)o2)cc1 (3D coordinates assigned)
COc1ccc(Cc2nnc(-c3ccc(-c4ccccc4Br)cc3)o2)cc1 (optimized conformer: 88.4605912888891 kcal/mol)

>  <smiles>  (2) 
COc1ccc(Cc2nnc(-c3ccc(-c4ccccc4Br)cc3)o2)cc1

>  <score_type>  (2) 
oracle

>  <origin>  (2) 
adgpu

>  <m_score__min__energy>  (2) 
-9.5199999999999996

>  <m_primary>  (2) 
energy

$$$$
2:0
     RDKit          3D

 41 44  0  0  0  0  0  0  0  0999 V2000
    0.0530   21.3330  -28.7730 H   0  0  0  0  0  0  0  0  0  0  0  0
    0.2260   22.3100  -28.4460 N   0  0  0  0  0  0  0  0  0  0  0  0
   -0.6170   23.2610  -28.6830 C   0  0  0  0  0  0  0  0  0  0  0  0
   -1.7600   23.0090  -29.3700 N   0  0  0  0  0  0  0  0  0  0  0  0
   -2.6460   24.0080  -29.6180 C   0  0  0  0  0  0  0  0  0  0  0  0
   -3.8820   23.7200  -30.3640 C   0  0  0  0  0  0  0  0  0  0  0  0
   -4.5770   24.6130  -31.0290 O   0  0  0  0  0  0  0  0  0  0  0  0
   -5.6190   24.0730  -31.5900 N   0  0  0  0  0  0  0  0  0  0  0  0
   -5.6070   22.7600  -31.2760 C   0  0  0  0  0  0  0  0  0  0  0  0
   -6.6370   21.7950  -31.7300 C   0  0  0  0  0  0  0  0  0  0  0  0
   -6.2730   20.7230  -32.5660 C   0  0  0  0  0  0  0  0  0  0  0  0
   -5.2250   20.6059  -32.8789 H   0  0  0  0  0  0  0  0  0  0  0  0
   -7.2350   19.8050  -33.0020 C   0  0  0  0  0  0  0  0  0  0  0  0
   -6.9410   18.9713  -33.6566 H   0  0  0  0  0  0  0  0  0  0  0  0
   -8.5670   19.9450  -32.6080 C   0  0  0  0  0  0  0  0  0  0  0  0
   -9.3214   19.2217  -32.9511 H   0  0  0  0  0  0  0  0  0  0  0  0
   -8.9410   21.0040  -31.7780 C   0  0  0  0  0  0  0  0  0  0  0  0
   -9.9907   21.1137  -31.4681 H   0  0  0  0  0  0  0  0  0  0  0  0
   -7.9850   21.9250  -31.3400 C   0  0  0  0  0  0  0  0  0  0  0  0
   -8.2869   22.7568  -30.6866 H   0  0  0  0  0  0  0  0  0  0  0  0
   -4.5010   22.4940  -30.4870 C   0  0  0  0  0  0  0  0  0  0  0  0
   -4.1890   21.5301  -30.0585 H   0  0  0  0  0  0  0  0  0  0  0  0
   -2.3820   25.2690  -29.1740 N   0  0  0  0  0  0  0  0  0  0  0  0
   -3.0590   26.0440  -29.3600 H   0  0  0  0  0  0  0  0  0  0  0  0
   -1.2390   25.5250  -28.4840 C   0  0  0  0  0  0  0  0  0  0  0  0
   -0.9990   26.7330  -28.0620 N   0  0  0  0  0  0  0  0  0  0  0  0
    0.1840   27.1340  -27.3000 C   0  0  0  0  0  0  0  0  0  0  0  0
    1.0488   26.5446  -27.6387 H   0  0  0  0  0  0  0  0  0  0  0  0
    0.3653   28.2063  -27.4656 H   0  0  0  0  0  0  0  0  0  0  0  0
   -0.0280   26.9000  -25.8290 C   0  0  0  0  0  0  0  0  0  0  0  0
    0.4470   27.8220  -24.8810 C   0  0  0  0  0  0  0  0  0  0  0  0
    0.9647   28.7335  -25.2146 H   0  0  0  0  0  0  0  0  0  0  0  0
    0.2640   27.5850  -23.5150 C   0  0  0  0  0  0  0  0  0  0  0  0
    0.6380   28.3099  -22.7770 H   0  0  0  0  0  0  0  0  0  0  0  0
   -0.3930   26.4290  -23.0860 C   0  0  0  0  0  0  0  0  0  0  0  0
   -0.5380   26.2453  -22.0112 H   0  0  0  0  0  0  0  0  0  0  0  0
   -0.8660   25.5060  -24.0230 C   0  0  0  0  0  0  0  0  0  0  0  0
   -1.3823   24.5956  -23.6846 H   0  0  0  0  0  0  0  0  0  0  0  0
   -0.6840   25.7380  -25.3900 C   0  0  0  0  0  0  0  0  0  0  0  0
   -1.0558   25.0080  -26.1241 H   0  0  0  0  0  0  0  0  0  0  0  0
   -0.3580   24.5160  -28.2430 N   0  0  0  0  0  0  0  0  0  0  0  0
  1  2  1  0
  2  3  2  0
  3  4  1  0
  4  5  2  0
  5  6  1  0
  6  7  1  0
  7  8  1  0
  8  9  2  0
  9 10  1  0
 10 11  2  0
 11 12  1  0
 11 13  1  0
 13 14  1  0
 13 15  2  0
 15 16  1  0
 15 17  1  0
 17 18  1  0
 17 19  2  0
 19 20  1  0
  9 21  1  0
 21 22  1  0
  5 23  1  0
 23 24  1  0
 23 25  1  0
 25 26  2  0
 26 27  1  0
 27 28  1  0
 27 29  1  0
 27 30  1  0
 30 31  2  0
 31 32  1  0
 31 33  1  0
 33 34  1  0
 33 35  2  0
 35 36  1  0
 35 37  1  0
 37 38  1  0
 37 39  2  0
 39 40  1  0
 25 41  1  0
 41  3  1  0
 21  6  2  0
 39 30  1  0
 19 10  1  0
M  CHG  1  41  -1
M  END
>  <UniqueID>  (3) 
3

>  <SMILES>  (3) 
[H]/N=c1\nc(-c2cc(-c3ccccc3)no2)[nH]/c(=N/Cc2ccccc2)[n-]1

>  <Energy>  (3) 
76.30177217296202

>  <Genealogy>  (3) 
N=c1nc(-c2cc(-c3ccccc3)no2)[nH]c(=NCc2ccccc2)[n-]1 (protonated)
[H]/N=c1\nc(-c2cc(-c3ccccc3)no2)[nH]/c(=N/Cc2ccccc2)[n-]1 (cis-trans isomerization)
[H]/N=c1\nc(-c2cc(-c3ccccc3)no2)[nH]/c(=N/Cc2ccccc2)[n-]1 (3D coordinates assigned)
[H]/N=c1\nc(-c2cc(-c3ccccc3)no2)[nH]/c(=N/Cc2ccccc2)[n-]1 (optimized conformer: 76.30177217296202 kcal/mol)

>  <smiles>  (3) 
N=c1nc(-c2cc(-c3ccccc3)no2)[nH]c(=NCc2ccccc2)[nH]1

>  <score_type>  (3) 
oracle

>  <origin>  (3) 
adgpu

>  <m_score__min__energy>  (3) 
-10.66

>  <m_primary>  (3) 
energy

$$$$
3:0
     RDKit          3D

 47 50  0  0  0  0  0  0  0  0999 V2000
   -2.2710   25.2380  -29.0020 O   0  0  0  0  0  0  0  0  0  0  0  0
   -3.0780   24.5900  -29.7210 C   0  0  0  0  0  0  0  0  0  0  0  0
   -3.9060   25.3090  -30.6460 N   0  0  0  0  0  0  0  0  0  0  0  0
   -5.3380   25.5610  -30.4950 C   0  0  0  0  0  0  0  0  0  0  0  0
   -6.1360   24.3200  -30.8060 C   0  0  0  0  0  0  0  0  0  0  0  0
   -6.1790   23.8040  -32.1140 C   0  0  0  0  0  0  0  0  0  0  0  0
   -6.9380   22.6650  -32.3960 C   0  0  0  0  0  0  0  0  0  0  0  0
   -7.6460   22.0240  -31.3750 C   0  0  0  0  0  0  0  0  0  0  0  0
   -7.6030   22.5260  -30.0730 C   0  0  0  0  0  0  0  0  0  0  0  0
   -6.8490   23.6680  -29.7860 C   0  0  0  0  0  0  0  0  0  0  0  0
   -3.1240   23.1200  -29.6060 C   0  0  0  0  0  0  0  0  0  0  0  0
   -2.6470   22.4800  -28.4580 C   0  0  0  0  0  0  0  0  0  0  0  0
   -2.6760   21.0870  -28.4120 C   0  0  0  0  0  0  0  0  0  0  0  0
   -1.9980   20.2140  -27.0050 S   0  0  0  0  0  0  0  0  0  0  0  0
   -0.7960   21.5060  -26.6890 C   0  0  0  0  0  0  0  0  0  0  0  0
   -0.8670   22.2590  -25.5110 C   0  0  0  0  0  0  0  0  0  0  0  0
    0.0710   23.2680  -25.2670 C   0  0  0  0  0  0  0  0  0  0  0  0
    1.0790   23.5280  -26.2020 C   0  0  0  0  0  0  0  0  0  0  0  0
    2.2570   24.7910  -25.8960 Cl  0  0  0  0  0  0  0  0  0  0  0  0
    1.1470   22.7800  -27.3830 C   0  0  0  0  0  0  0  0  0  0  0  0
    0.2130   21.7680  -27.6250 C   0  0  0  0  0  0  0  0  0  0  0  0
   -3.1830   20.3840  -29.4570 N   0  0  0  0  0  0  0  0  0  0  0  0
   -3.6630   21.0130  -30.5630 C   0  0  0  0  0  0  0  0  0  0  0  0
   -4.1910   20.2270  -31.7040 C   0  0  0  0  0  0  0  0  0  0  0  0
   -5.4880   19.6790  -31.6580 C   0  0  0  0  0  0  0  0  0  0  0  0
   -5.9810   18.9310  -32.7310 C   0  0  0  0  0  0  0  0  0  0  0  0
   -5.1870   18.7190  -33.8600 C   0  0  0  0  0  0  0  0  0  0  0  0
   -3.8990   19.2550  -33.9190 C   0  0  0  0  0  0  0  0  0  0  0  0
   -3.4010   20.0050  -32.8490 C   0  0  0  0  0  0  0  0  0  0  0  0
   -3.6280   22.3730  -30.6240 N   0  0  0  0  0  0  0  0  0  0  0  0
   -5.5424   25.8711  -29.4596 H   0  0  0  0  0  0  0  0  0  0  0  0
   -5.6323   26.3546  -31.1976 H   0  0  0  0  0  0  0  0  0  0  0  0
   -5.6134   24.2986  -32.9174 H   0  0  0  0  0  0  0  0  0  0  0  0
   -6.9784   22.2723  -33.4227 H   0  0  0  0  0  0  0  0  0  0  0  0
   -8.2373   21.1236  -31.5977 H   0  0  0  0  0  0  0  0  0  0  0  0
   -8.1633   22.0222  -29.2715 H   0  0  0  0  0  0  0  0  0  0  0  0
   -6.8139   24.0574  -28.7578 H   0  0  0  0  0  0  0  0  0  0  0  0
   -2.2576   23.0626  -27.6101 H   0  0  0  0  0  0  0  0  0  0  0  0
   -1.6608   22.0572  -24.7767 H   0  0  0  0  0  0  0  0  0  0  0  0
    0.0160   23.8572  -24.3397 H   0  0  0  0  0  0  0  0  0  0  0  0
    1.9355   22.9883  -28.1211 H   0  0  0  0  0  0  0  0  0  0  0  0
    0.2705   21.1771  -28.5510 H   0  0  0  0  0  0  0  0  0  0  0  0
   -6.1177   19.8410  -30.7707 H   0  0  0  0  0  0  0  0  0  0  0  0
   -6.9958   18.5088  -32.6860 H   0  0  0  0  0  0  0  0  0  0  0  0
   -5.5764   18.1295  -34.7032 H   0  0  0  0  0  0  0  0  0  0  0  0
   -3.2748   19.0869  -34.8090 H   0  0  0  0  0  0  0  0  0  0  0  0
   -2.3855   20.4245  -32.9017 H   0  0  0  0  0  0  0  0  0  0  0  0
  1  2  2  0
  2  3  1  0
  3  4  1  0
  4  5  1  0
  5  6  2  0
  6  7  1  0
  7  8  2  0
  8  9  1  0
  9 10  2  0
  2 11  1  0
 11 12  2  0
 12 13  1  0
 13 14  1  0
 14 15  1  0
 15 16  2  0
 16 17  1  0
 17 18  2  0
 18 19  1  0
 18 20  1  0
 20 21  2  0
 13 22  2  0
 22 23  1  0
 23 24  1  0
 24 25  2  0
 25 26  1  0
 26 27  2  0
 27 28  1  0
 28 29  2  0
 23 30  2  0
 10  5  1  0
 30 11  1  0
 21 15  1  0
 29 24  1  0
  4 31  1  0
  4 32  1  0
  6 33  1  0
  7 34  1  0
  8 35  1  0
  9 36  1  0
 10 37  1  0
 12 38  1  0
 16 39  1  0
 17 40  1  0
 20 41  1  0
 21 42  1  0
 25 43  1  0
 26 44  1  0
 27 45  1  0
 28 46  1  0
 29 47  1  0
M  CHG  1   3  -1
M  END
>  <UniqueID>  (4) 
4

>  <SMILES>  (4) 
O=C([N-]Cc1ccccc1)c1cc(Sc2ccc(Cl)cc2)nc(-c2ccccc2)n1

>  <Energy>  (4) 
45.746480367650726

>  <Genealogy>  (4) 
O=C([N-]Cc1ccccc1)c1cc(Sc2ccc(Cl)cc2)nc(-c2ccccc2)n1 (protonated)
O=C([N-]Cc1ccccc1)c1cc(Sc2ccc(Cl)cc2)nc(-c2ccccc2)n1 (3D coordinates assigned)
O=C([N-]Cc1ccccc1)c1cc(Sc2ccc(Cl)cc2)nc(-c2ccccc2)n1 (optimized conformer: 45.746480367650726 kcal/mol)

>  <smiles>  (4) 
O=C(NCc1ccccc1)c1cc(Sc2ccc(Cl)cc2)nc(-c2ccccc2)n1

>  <score_type>  (4) 
oracle

>  <origin>  (4) 
adgpu

>  <m_score__min__energy>  (4) 
-11.32

>  <m_primary>  (4) 
energy

$$$$
4:0
     RDKit          3D

 46 48  0  0  0  0  0  0  0  0999 V2000
   -6.6280   21.2900  -32.7320 C   0  0  0  0  0  0  0  0  0  0  0  0
   -6.6310   22.5220  -31.9390 N   0  0  0  0  0  0  0  0  0  0  0  0
   -7.8060   23.3980  -31.9290 C   0  0  0  0  0  0  0  0  0  0  0  0
   -5.4690   22.8760  -31.1640 C   0  0  0  0  0  0  0  0  0  0  0  0
   -4.8420   21.9410  -30.4000 N   0  0  0  0  0  0  0  0  0  0  0  0
   -3.7470   22.2510  -29.6610 C   0  0  0  0  0  0  0  0  0  0  0  0
   -3.2340   23.5560  -29.6730 C   0  0  0  0  0  0  0  0  0  0  0  0
   -2.0340   23.9210  -28.8750 C   0  0  0  0  0  0  0  0  0  0  0  0
   -0.8410   23.1880  -29.0050 C   0  0  0  0  0  0  0  0  0  0  0  0
    0.2880   23.5360  -28.2590 C   0  0  0  0  0  0  0  0  0  0  0  0
    0.2410   24.6160  -27.3770 C   0  0  0  0  0  0  0  0  0  0  0  0
   -0.9410   25.3540  -27.2270 C   0  0  0  0  0  0  0  0  0  0  0  0
   -0.9750   26.5420  -26.2980 C   0  0  0  0  0  0  0  0  0  0  0  0
    0.1840   26.5290  -25.3800 N   0  0  0  0  0  0  0  0  0  0  0  0
   -0.1230   25.7970  -24.1250 C   0  0  0  0  0  0  0  0  0  0  0  0
   -0.4540   26.7460  -22.9620 C   0  0  0  0  0  0  0  0  0  0  0  0
    0.6660   27.6620  -22.6650 N   0  0  0  0  0  0  0  0  0  0  0  0
    1.5030   27.9840  -23.8390 C   0  0  0  0  0  0  0  0  0  0  0  0
    0.7040   27.9010  -25.1460 C   0  0  0  0  0  0  0  0  0  0  0  0
   -2.0740   25.0060  -27.9810 C   0  0  0  0  0  0  0  0  0  0  0  0
   -3.8940   24.5050  -30.4680 C   0  0  0  0  0  0  0  0  0  0  0  0
   -4.9890   24.1490  -31.1880 N   0  0  0  0  0  0  0  0  0  0  0  0
   -6.6259   20.4204  -32.0584 H   0  0  0  0  0  0  0  0  0  0  0  0
   -7.5261   21.2602  -33.3665 H   0  0  0  0  0  0  0  0  0  0  0  0
   -5.7298   21.2645  -33.3665 H   0  0  0  0  0  0  0  0  0  0  0  0
   -8.0943   23.6129  -30.8894 H   0  0  0  0  0  0  0  0  0  0  0  0
   -7.5660   24.3393  -32.4450 H   0  0  0  0  0  0  0  0  0  0  0  0
   -8.6396   22.8992  -32.4450 H   0  0  0  0  0  0  0  0  0  0  0  0
   -3.2602   21.4761  -29.0506 H   0  0  0  0  0  0  0  0  0  0  0  0
   -0.7963   22.3352  -29.6984 H   0  0  0  0  0  0  0  0  0  0  0  0
    1.2168   22.9567  -28.3674 H   0  0  0  0  0  0  0  0  0  0  0  0
    1.1349   24.8893  -26.7972 H   0  0  0  0  0  0  0  0  0  0  0  0
   -0.9514   27.4660  -26.8944 H   0  0  0  0  0  0  0  0  0  0  0  0
   -1.8969   26.4934  -25.6999 H   0  0  0  0  0  0  0  0  0  0  0  0
   -0.9867   25.1391  -24.3015 H   0  0  0  0  0  0  0  0  0  0  0  0
    0.7707   25.2203  -23.8447 H   0  0  0  0  0  0  0  0  0  0  0  0
   -1.3395   27.3414  -23.2294 H   0  0  0  0  0  0  0  0  0  0  0  0
   -0.6431   26.1359  -22.0664 H   0  0  0  0  0  0  0  0  0  0  0  0
    0.2750   28.5490  -22.2700 H   0  0  0  0  0  0  0  0  0  0  0  0
    1.2750   27.2300  -21.9300 H   0  0  0  0  0  0  0  0  0  0  0  0
    1.8972   29.0048  -23.7265 H   0  0  0  0  0  0  0  0  0  0  0  0
    2.3199   27.2490  -23.8894 H   0  0  0  0  0  0  0  0  0  0  0  0
   -0.1435   28.6001  -25.0918 H   0  0  0  0  0  0  0  0  0  0  0  0
    1.3747   28.1625  -25.9778 H   0  0  0  0  0  0  0  0  0  0  0  0
   -3.0012   25.5876  -27.8712 H   0  0  0  0  0  0  0  0  0  0  0  0
   -3.5236   25.5400  -30.5082 H   0  0  0  0  0  0  0  0  0  0  0  0
  1  2  1  0
  2  3  1  0
  2  4  1  0
  4  5  2  0
  5  6  1  0
  6  7  2  0
  7  8  1  0
  8  9  2  0
  9 10  1  0
 10 11  2  0
 11 12  1  0
 12 13  1  0
 13 14  1  0
 14 15  1  0
 15 16  1  0
 16 17  1  0
 17 18  1  0
 18 19  1  0
 12 20  2  0
  7 21  1  0
 21 22  2  0
 22  4  1  0
 20  8  1  0
 19 14  1  0
  1 23  1  0
  1 24  1  0
  1 25  1  0
  3 26  1  0
  3 27  1  0
  3 28  1  0
  6 29  1  0
  9 30  1  0
 10 31  1  0
 11 32  1  0
 13 33  1  0
 13 34  1  0
 15 35  1  0
 15 36  1  0
 16 37  1  0
 16 38  1  0
 17 39  1  0
 17 40  1  0
 18 41  1  0
 18 42  1  0
 19 43  1  0
 19 44  1  0
 20 45  1  0
 21 46  1  0
M  CHG  1  17   1
M  END
>  <UniqueID>  (5) 
5

>  <SMILES>  (5) 
CN(C)c1ncc(-c2cccc(CN3CC[NH2+]CC3)c2)cn1

>  <Energy>  (5) 
60.504012762915025

>  <Genealogy>  (5) 
CN(C)c1ncc(-c2cccc(CN3CC[NH2+]CC3)c2)cn1 (protonated)
CN(C)c1ncc(-c2cccc(CN3CC[NH2+]CC3)c2)cn1 (3D coordinates assigned)
CN(C)c1ncc(-c2cccc(CN3CC[NH2+]CC3)c2)cn1 (nonaromatic ring conformer: 60.504012762915025 kcal/mol)

>  <smiles>  (5) 
CN(C)c1ncc(-c2cccc(CN3CCNCC3)c2)cn1

>  <score_type>  (5) 
oracle

>  <origin>  (5) 
adgpu

>  <m_score__min__energy>  (5) 
-7.3600000000000003

>  <m_primary>  (5) 
energy

$$$$
5:0
     RDKit          3D

 42 45  0  0  0  0  0  0  0  0999 V2000
   -0.9614   15.4907  -35.3207 H   0  0  0  0  0  0  0  0  0  0  0  0
   -1.7690   16.1840  -35.0430 C   0  0  0  0  0  0  0  0  0  0  0  0
   -1.4800   17.3300  -34.3740 N   0  0  0  0  0  0  0  0  0  0  0  0
   -2.4490   18.2130  -34.0120 C   0  0  0  0  0  0  0  0  0  0  0  0
   -2.1778   19.1314  -33.4708 H   0  0  0  0  0  0  0  0  0  0  0  0
   -3.7960   17.9580  -34.3260 C   0  0  0  0  0  0  0  0  0  0  0  0
   -4.8490   18.9210  -33.9320 C   0  0  0  0  0  0  0  0  0  0  0  0
   -6.0340   19.0570  -34.5650 N   0  0  0  0  0  0  0  0  0  0  0  0
   -6.7050   20.0080  -33.9310 N   0  0  0  0  0  0  0  0  0  0  0  0
   -5.9910   20.4870  -32.9260 N   0  0  0  0  0  0  0  0  0  0  0  0
   -6.4340   21.5030  -32.0050 C   0  0  0  0  0  0  0  0  0  0  0  0
   -5.6570   22.6630  -31.8410 C   0  0  0  0  0  0  0  0  0  0  0  0
   -4.7173   22.7680  -32.4032 H   0  0  0  0  0  0  0  0  0  0  0  0
   -6.0590   23.6890  -30.9730 C   0  0  0  0  0  0  0  0  0  0  0  0
   -5.2390   24.9170  -30.8210 C   0  0  0  0  0  0  0  0  0  0  0  0
   -5.8040   26.0430  -30.8270 O   0  0  0  0  0  0  0  0  0  0  0  0
   -3.8230   24.8630  -30.5930 N   0  0  0  0  0  0  0  0  0  0  0  0
   -3.2440   24.6030  -29.4570 C   0  0  0  0  0  0  0  0  0  0  0  0
   -1.9030   24.6240  -29.3150 N   0  0  0  0  0  0  0  0  0  0  0  0
   -1.5270   24.3020  -28.0470 C   0  0  0  0  0  0  0  0  0  0  0  0
   -0.0910   24.2240  -27.6470 C   0  0  0  0  0  0  0  0  0  0  0  0
   -0.0158   24.2199  -26.5496 H   0  0  0  0  0  0  0  0  0  0  0  0
    0.3518   23.3005  -28.0483 H   0  0  0  0  0  0  0  0  0  0  0  0
    0.4492   25.0941  -28.0483 H   0  0  0  0  0  0  0  0  0  0  0  0
   -2.5710   23.9950  -27.1770 C   0  0  0  0  0  0  0  0  0  0  0  0
   -2.4685   23.7026  -26.1215 H   0  0  0  0  0  0  0  0  0  0  0  0
   -4.0150   24.1500  -28.0240 S   0  0  0  0  0  0  0  0  0  0  0  0
   -7.2320   23.5260  -30.2230 C   0  0  0  0  0  0  0  0  0  0  0  0
   -7.5407   24.3089  -29.5146 H   0  0  0  0  0  0  0  0  0  0  0  0
   -8.0110   22.3770  -30.3690 C   0  0  0  0  0  0  0  0  0  0  0  0
   -8.9277   22.2618  -29.7721 H   0  0  0  0  0  0  0  0  0  0  0  0
   -7.6370   21.3660  -31.2700 C   0  0  0  0  0  0  0  0  0  0  0  0
   -8.5320   20.1670  -31.4290 C   0  0  0  0  0  0  0  0  0  0  0  0
   -8.8157   19.7870  -30.4365 H   0  0  0  0  0  0  0  0  0  0  0  0
   -9.4371   20.4560  -31.9834 H   0  0  0  0  0  0  0  0  0  0  0  0
   -7.9976   19.3815  -31.9834 H   0  0  0  0  0  0  0  0  0  0  0  0
   -4.8200   19.8250  -32.8870 C   0  0  0  0  0  0  0  0  0  0  0  0
   -4.0022   19.9738  -32.1665 H   0  0  0  0  0  0  0  0  0  0  0  0
   -4.1050   16.7740  -35.0200 C   0  0  0  0  0  0  0  0  0  0  0  0
   -5.1493   16.5477  -35.2811 H   0  0  0  0  0  0  0  0  0  0  0  0
   -3.0900   15.8860  -35.3780 C   0  0  0  0  0  0  0  0  0  0  0  0
   -3.3294   14.9590  -35.9197 H   0  0  0  0  0  0  0  0  0  0  0  0
  1  2  1  0
  2  3  2  0
  3  4  1  0
  4  5  1  0
  4  6  2  0
  6  7  1  0
  7  8  1  0
  8  9  2  0
  9 10  1  0
 10 11  1  0
 11 12  2  0
 12 13  1  0
 12 14  1  0
 14 15  1  0
 15 16  2  0
 15 17  1  0
 17 18  2  0
 18 19  1  0
 19 20  1  0
 20 21  1  0
 21 22  1  0
 21 23  1  0
 21 24  1  0
 20 25  2  0
 25 26  1  0
 25 27  1  0
 14 28  2  0
 28 29  1  0
 28 30  1  0
 30 31  1  0
 30 32  2  0
 32 33  1  0
 33 34  1  0
 33 35  1  0
 33 36  1  0
 10 37  1  0
 37 38  1  0
  6 39  1  0
 39 40  1  0
 39 41  2  0
 41 42  1  0
 41  2  1  0
 37  7  2  0
 32 11  1  0
 27 18  1  0
M  CHG  1  19  -1
M  END
>  <UniqueID>  (6) 
6

>  <SMILES>  (6) 
Cc1cs/c(=N\C(=O)c2ccc(C)c(-n3cc(-c4cccnc4)nn3)c2)[n-]1

>  <Energy>  (6) 
124.89938826624686

>  <Genealogy>  (6) 
Cc1csc(=NC(=O)c2ccc(C)c(-n3cc(-c4cccnc4)nn3)c2)[n-]1 (protonated)
Cc1cs/c(=N\C(=O)c2ccc(C)c(-n3cc(-c4cccnc4)nn3)c2)[n-]1 (cis-trans isomerization)
Cc1cs/c(=N\C(=O)c2ccc(C)c(-n3cc(-c4cccnc4)nn3)c2)[n-]1 (3D coordinates assigned)
Cc1cs/c(=N\C(=O)c2ccc(C)c(-n3cc(-c4cccnc4)nn3)c2)[n-]1 (optimized conformer: 124.89938826624686 kcal/mol)

>  <smiles>  (6) 
Cc1csc(=NC(=O)c2ccc(C)c(-n3cc(-c4cccnc4)nn3)c2)[nH]1

>  <score_type>  (6) 
oracle

>  <origin>  (6) 
adgpu

>  <m_score__min__energy>  (6) 
-10.84

>  <m_primary>  (6) 
energy

$$$$
6:0
     RDKit          3D

 54 56  0  0  0  0  0  0  0  0999 V2000
   -6.8350   24.7010  -30.3920 C   0  0  0  0  0  0  0  0  0  0  0  0
   -6.9210   23.3430  -31.0340 C   0  0  0  0  0  0  0  0  0  0  0  0
   -8.1480   22.6650  -31.0560 C   0  0  0  0  0  0  0  0  0  0  0  0
   -8.2550   21.4200  -31.6730 C   0  0  0  0  0  0  0  0  0  0  0  0
   -7.1400   20.8360  -32.2690 C   0  0  0  0  0  0  0  0  0  0  0  0
   -5.8930   21.4820  -32.2450 C   0  0  0  0  0  0  0  0  0  0  0  0
   -4.7060   20.7580  -32.8190 C   0  0  0  0  0  0  0  0  0  0  0  0
   -5.7920   22.7700  -31.6600 C   0  0  0  0  0  0  0  0  0  0  0  0
   -4.5340   23.4660  -31.5810 N   0  0  0  0  0  0  0  0  0  0  0  0
   -3.9960   24.0840  -30.4100 C   0  0  0  0  0  0  0  0  0  0  0  0
   -3.5290   25.2520  -30.4800 O   0  0  0  0  0  0  0  0  0  0  0  0
   -4.0420   23.3960  -29.1440 N   0  0  0  0  0  0  0  0  0  0  0  0
   -4.4210   24.1390  -27.9380 C   0  0  0  0  0  0  0  0  0  0  0  0
   -3.6810   21.9730  -29.0430 C   0  0  0  0  0  0  0  0  0  0  0  0
   -2.3200   21.8090  -28.4050 C   0  0  0  0  0  0  0  0  0  0  0  0
   -2.0370   22.5000  -27.2170 C   0  0  0  0  0  0  0  0  0  0  0  0
   -0.7880   22.3750  -26.6030 C   0  0  0  0  0  0  0  0  0  0  0  0
    0.1940   21.5650  -27.1710 C   0  0  0  0  0  0  0  0  0  0  0  0
   -0.0720   20.8710  -28.3540 C   0  0  0  0  0  0  0  0  0  0  0  0
   -1.3230   20.9910  -28.9840 C   0  0  0  0  0  0  0  0  0  0  0  0
   -1.6020   20.2680  -30.1530 O   0  0  0  0  0  0  0  0  0  0  0  0
   -0.9960   20.4680  -31.4040 C   0  0  0  0  0  0  0  0  0  0  0  0
   -1.6860   21.2130  -32.3660 C   0  0  0  0  0  0  0  0  0  0  0  0
   -1.0760   21.5440  -33.5800 C   0  0  0  0  0  0  0  0  0  0  0  0
    0.2350   21.1300  -33.8450 C   0  0  0  0  0  0  0  0  0  0  0  0
    1.0250   21.6020  -35.3450 S   0  0  0  0  0  0  0  0  0  0  0  0
    0.0170   21.1870  -36.6880 N   0  0  0  0  0  0  0  0  0  0  0  0
    1.2790   23.0830  -35.3380 O   0  0  0  0  0  0  0  0  0  0  0  0
    2.3440   20.8910  -35.4710 O   0  0  0  0  0  0  0  0  0  0  0  0
    0.9140   20.3460  -32.9060 C   0  0  0  0  0  0  0  0  0  0  0  0
    0.3060   20.0170  -31.6900 C   0  0  0  0  0  0  0  0  0  0  0  0
   -6.8420   24.5903  -29.2976 H   0  0  0  0  0  0  0  0  0  0  0  0
   -5.9037   25.1960  -30.7045 H   0  0  0  0  0  0  0  0  0  0  0  0
   -7.6964   25.3095  -30.7045 H   0  0  0  0  0  0  0  0  0  0  0  0
   -9.0317   23.1186  -30.5833 H   0  0  0  0  0  0  0  0  0  0  0  0
   -9.2227   20.8972  -31.6893 H   0  0  0  0  0  0  0  0  0  0  0  0
   -7.2369   19.8584  -32.7638 H   0  0  0  0  0  0  0  0  0  0  0  0
   -4.0788   20.3754  -32.0003 H   0  0  0  0  0  0  0  0  0  0  0  0
   -5.0533   19.9178  -33.4382 H   0  0  0  0  0  0  0  0  0  0  0  0
   -4.1179   21.4513  -33.4382 H   0  0  0  0  0  0  0  0  0  0  0  0
   -4.1282   23.5650  -27.0465 H   0  0  0  0  0  0  0  0  0  0  0  0
   -3.9095   25.1128  -27.9314 H   0  0  0  0  0  0  0  0  0  0  0  0
   -5.5096   24.2966  -27.9314 H   0  0  0  0  0  0  0  0  0  0  0  0
   -4.4318   21.4530  -28.4300 H   0  0  0  0  0  0  0  0  0  0  0  0
   -3.6501   21.5441  -30.0555 H   0  0  0  0  0  0  0  0  0  0  0  0
   -2.8047   23.1454  -26.7653 H   0  0  0  0  0  0  0  0  0  0  0  0
   -0.5792   22.9172  -25.6690 H   0  0  0  0  0  0  0  0  0  0  0  0
    1.1779   21.4723  -26.6880 H   0  0  0  0  0  0  0  0  0  0  0  0
    0.7025   20.2265  -28.7954 H   0  0  0  0  0  0  0  0  0  0  0  0
   -2.7167   21.5411  -32.1660 H   0  0  0  0  0  0  0  0  0  0  0  0
   -1.6277   22.1313  -34.3289 H   0  0  0  0  0  0  0  0  0  0  0  0
   -0.7150   21.9290  -36.7610 H   0  0  0  0  0  0  0  0  0  0  0  0
    1.9304   19.9868  -33.1249 H   0  0  0  0  0  0  0  0  0  0  0  0
    0.8475   19.4036  -30.9547 H   0  0  0  0  0  0  0  0  0  0  0  0
  1  2  1  0
  2  3  2  0
  3  4  1  0
  4  5  2  0
  5  6  1  0
  6  7  1  0
  6  8  2  0
  8  9  1  0
  9 10  1  0
 10 11  2  0
 10 12  1  0
 12 13  1  0
 12 14  1  0
 14 15  1  0
 15 16  2  0
 16 17  1  0
 17 18  2  0
 18 19  1  0
 19 20  2  0
 20 21  1  0
 21 22  1  0
 22 23  2  0
 23 24  1  0
 24 25  2  0
 25 26  1  0
 26 27  1  0
 26 28  2  0
 26 29  2  0
 25 30  1  0
 30 31  2  0
  8  2  1  0
 20 15  1  0
 31 22  1  0
  1 32  1  0
  1 33  1  0
  1 34  1  0
  3 35  1  0
  4 36  1  0
  5 37  1  0
  7 38  1  0
  7 39  1  0
  7 40  1  0
 13 41  1  0
 13 42  1  0
 13 43  1  0
 14 44  1  0
 14 45  1  0
 16 46  1  0
 17 47  1  0
 18 48  1  0
 19 49  1  0
 23 50  1  0
 24 51  1  0
 27 52  1  0
 30 53  1  0
 31 54  1  0
M  CHG  2   9  -1  27  -1
M  END
>  <UniqueID>  (7) 
7

>  <SMILES>  (7) 
Cc1cccc(C)c1[N-]C(=O)N(C)Cc1ccccc1Oc1ccc(S([NH-])(=O)=O)cc1

>  <Energy>  (7) 
59.546253221571114

>  <Genealogy>  (7) 
Cc1cccc(C)c1[N-]C(=O)N(C)Cc1ccccc1Oc1ccc(S([NH-])(=O)=O)cc1 (protonated)
Cc1cccc(C)c1[N-]C(=O)N(C)Cc1ccccc1Oc1ccc(S([NH-])(=O)=O)cc1 (3D coordinates assigned)
Cc1cccc(C)c1[N-]C(=O)N(C)Cc1ccccc1Oc1ccc(S([NH-])(=O)=O)cc1 (optimized conformer: 59.546253221571114 kcal/mol)

>  <smiles>  (7) 
Cc1cccc(C)c1NC(=O)N(C)Cc1ccccc1Oc1ccc(S(N)(=O)=O)cc1

>  <score_type>  (7) 
oracle

>  <origin>  (7) 
adgpu

>  <m_score__min__energy>  (7) 
-11.35

>  <m_primary>  (7) 
energy

$$$$
7:0
     RDKit          3D

 25 26  0  0  0  0  0  0  0  0999 V2000
   -4.3270   14.8030  -33.2190 H   0  0  0  0  0  0  0  0  0  0  0  0
   -5.2640   14.4090  -33.4590 N   0  0  0  0  0  0  0  0  0  0  0  0
   -6.3190   15.2520  -33.9150 C   0  0  0  0  0  0  0  0  0  0  0  0
   -7.2860   14.7540  -34.5480 O   0  0  0  0  0  0  0  0  0  0  0  0
   -6.2800   16.6960  -33.6480 C   0  0  0  0  0  0  0  0  0  0  0  0
   -6.4210   17.4140  -32.1340 S   0  0  0  0  0  0  0  0  0  0  0  0
   -6.2750   18.9790  -32.7470 C   0  0  0  0  0  0  0  0  0  0  0  0
   -6.3090   20.2300  -31.9690 C   0  0  0  0  0  0  0  0  0  0  0  0
   -6.8291   20.2354  -30.9997 H   0  0  0  0  0  0  0  0  0  0  0  0
   -5.7310   21.3620  -32.3960 C   0  0  0  0  0  0  0  0  0  0  0  0
   -5.2055   21.3482  -33.3623 H   0  0  0  0  0  0  0  0  0  0  0  0
   -5.7650   22.6340  -31.6290 C   0  0  0  0  0  0  0  0  0  0  0  0
   -4.5930   23.3750  -31.3730 C   0  0  0  0  0  0  0  0  0  0  0  0
   -3.6226   23.0037  -31.7342 H   0  0  0  0  0  0  0  0  0  0  0  0
   -4.6550   24.5790  -30.6630 C   0  0  0  0  0  0  0  0  0  0  0  0
   -3.4940   25.2990  -30.4140 O   0  0  0  0  0  0  0  0  0  0  0  0
   -5.8850   25.0610  -30.2090 C   0  0  0  0  0  0  0  0  0  0  0  0
   -5.9312   26.0044  -29.6452 H   0  0  0  0  0  0  0  0  0  0  0  0
   -7.0550   24.3470  -30.4700 C   0  0  0  0  0  0  0  0  0  0  0  0
   -8.0227   24.7332  -30.1173 H   0  0  0  0  0  0  0  0  0  0  0  0
   -7.0020   23.1410  -31.1790 C   0  0  0  0  0  0  0  0  0  0  0  0
   -8.1850   22.4490  -31.4220 O   0  0  0  0  0  0  0  0  0  0  0  0
   -6.1230   18.9660  -34.0900 N   0  0  0  0  0  0  0  0  0  0  0  0
   -6.1240   17.7030  -34.5960 C   0  0  0  0  0  0  0  0  0  0  0  0
   -6.0104   17.4942  -35.6700 H   0  0  0  0  0  0  0  0  0  0  0  0
  1  2  1  0
  2  3  1  0
  3  4  2  0
  3  5  1  0
  5  6  1  0
  6  7  1  0
  7  8  1  0
  8  9  1  0
  8 10  2  0
 10 11  1  0
 10 12  1  0
 12 13  2  0
 13 14  1  0
 13 15  1  0
 15 16  1  0
 15 17  2  0
 17 18  1  0
 17 19  1  0
 19 20  1  0
 19 21  2  0
 21 22  1  0
  7 23  2  0
 23 24  1  0
 24 25  1  0
 24  5  2  0
 21 12  1  0
M  CHG  3   2  -1  16  -1  22  -1
M  END
>  <UniqueID>  (8) 
8

>  <SMILES>  (8) 
[NH-]C(=O)c1cnc(/C=C/c2cc([O-])ccc2[O-])s1

>  <Energy>  (8) 
57.08245955851866

>  <Genealogy>  (8) 
[NH-]C(=O)c1cnc(C=Cc2cc([O-])ccc2[O-])s1 (protonated)
[NH-]C(=O)c1cnc(/C=C/c2cc([O-])ccc2[O-])s1 (cis-trans isomerization)
[NH-]C(=O)c1cnc(/C=C/c2cc([O-])ccc2[O-])s1 (3D coordinates assigned)
[NH-]C(=O)c1cnc(/C=C/c2cc([O-])ccc2[O-])s1 (optimized conformer: 57.08245955851866 kcal/mol)

>  <smiles>  (8) 
NC(=O)c1cnc(C=Cc2cc(O)ccc2O)s1

>  <score_type>  (8) 
oracle

>  <origin>  (8) 
adgpu

>  <m_score__min__energy>  (8) 
-9.0199999999999996

>  <m_primary>  (8) 
energy

$$$$
8:0
     RDKit          3D

 36 38  0  0  0  0  0  0  0  0999 V2000
   -1.2560   20.2230  -26.1130 C   0  0  0  0  0  0  0  0  0  0  0  0
   -1.0260   21.6170  -25.6410 C   0  0  0  0  0  0  0  0  0  0  0  0
   -1.2680   22.7130  -26.3840 N   0  0  0  0  0  0  0  0  0  0  0  0
   -0.8770   23.6950  -25.5440 C   0  0  0  0  0  0  0  0  0  0  0  0
   -0.9860   25.1280  -25.8750 C   0  0  0  0  0  0  0  0  0  0  0  0
   -1.1140   26.1470  -24.9530 C   0  0  0  0  0  0  0  0  0  0  0  0
   -1.0990   27.3210  -25.6040 N   0  0  0  0  0  0  0  0  0  0  0  0
   -0.9750   27.1100  -26.9050 N   0  0  0  0  0  0  0  0  0  0  0  0
   -0.9090   25.7790  -27.1070 C   0  0  0  0  0  0  0  0  0  0  0  0
   -0.8210   25.1930  -28.4550 C   0  0  0  0  0  0  0  0  0  0  0  0
    0.1990   24.5450  -28.8080 O   0  0  0  0  0  0  0  0  0  0  0  0
   -1.9530   25.2850  -29.3300 N   0  0  0  0  0  0  0  0  0  0  0  0
   -3.1290   24.4670  -29.2600 C   0  0  0  0  0  0  0  0  0  0  0  0
   -3.1770   23.4460  -28.3090 C   0  0  0  0  0  0  0  0  0  0  0  0
   -4.3050   22.6400  -28.2060 C   0  0  0  0  0  0  0  0  0  0  0  0
   -5.3920   22.8690  -29.0460 C   0  0  0  0  0  0  0  0  0  0  0  0
   -5.3660   23.8850  -29.9640 N   0  0  0  0  0  0  0  0  0  0  0  0
   -6.5580   24.1110  -30.8000 C   0  0  0  0  0  0  0  0  0  0  0  0
   -6.5760   23.1690  -32.0050 C   0  0  0  0  0  0  0  0  0  0  0  0
   -6.7470   21.8610  -31.5860 F   0  0  0  0  0  0  0  0  0  0  0  0
   -5.3750   23.2690  -32.6840 F   0  0  0  0  0  0  0  0  0  0  0  0
   -7.6060   23.5090  -32.8650 F   0  0  0  0  0  0  0  0  0  0  0  0
   -4.2640   24.7000  -30.0670 C   0  0  0  0  0  0  0  0  0  0  0  0
   -4.2720   25.6780  -30.8650 O   0  0  0  0  0  0  0  0  0  0  0  0
   -0.4370   23.2160  -24.3640 N   0  0  0  0  0  0  0  0  0  0  0  0
   -0.5370   21.9260  -24.4660 O   0  0  0  0  0  0  0  0  0  0  0  0
   -1.3661   19.5556  -25.2455 H   0  0  0  0  0  0  0  0  0  0  0  0
   -2.1720   20.1882  -26.7210 H   0  0  0  0  0  0  0  0  0  0  0  0
   -0.3997   19.8958  -26.7210 H   0  0  0  0  0  0  0  0  0  0  0  0
   -1.2121   26.0185  -23.8649 H   0  0  0  0  0  0  0  0  0  0  0  0
   -1.1680   28.2670  -25.1680 H   0  0  0  0  0  0  0  0  0  0  0  0
   -2.3203   23.2789  -27.6396 H   0  0  0  0  0  0  0  0  0  0  0  0
   -4.3388   21.8268  -27.4660 H   0  0  0  0  0  0  0  0  0  0  0  0
   -6.2817   22.2264  -28.9713 H   0  0  0  0  0  0  0  0  0  0  0  0
   -7.4594   23.9358  -30.1943 H   0  0  0  0  0  0  0  0  0  0  0  0
   -6.5333   25.1471  -31.1686 H   0  0  0  0  0  0  0  0  0  0  0  0
  1  2  1  0
  2  3  2  0
  3  4  1  0
  4  5  1  0
  5  6  2  0
  6  7  1  0
  7  8  1  0
  8  9  2  0
  9 10  1  0
 10 11  2  0
 10 12  1  0
 12 13  1  0
 13 14  2  0
 14 15  1  0
 15 16  2  0
 16 17  1  0
 17 18  1  0
 18 19  1  0
 19 20  1  0
 19 21  1  0
 19 22  1  0
 17 23  1  0
 23 24  2  0
  4 25  2  0
 25 26  1  0
 26  2  1  0
  9  5  1  0
 23 13  1  0
  1 27  1  0
  1 28  1  0
  1 29  1  0
  6 30  1  0
  7 31  1  0
 14 32  1  0
 15 33  1  0
 16 34  1  0
 18 35  1  0
 18 36  1  0
M  CHG  1  12  -1
M  END
>  <UniqueID>  (9) 
9

>  <SMILES>  (9) 
Cc1nc(-c2c[nH]nc2C(=O)[N-]c2cccn(CC(F)(F)F)c2=O)no1

>  <Energy>  (9) 
107.92281193434232

>  <Genealogy>  (9) 
Cc1nc(-c2c[nH]nc2C(=O)[N-]c2cccn(CC(F)(F)F)c2=O)no1 (protonated)
Cc1nc(-c2c[nH]nc2C(=O)[N-]c2cccn(CC(F)(F)F)c2=O)no1 (3D coordinates assigned)
Cc1nc(-c2c[nH]nc2C(=O)[N-]c2cccn(CC(F)(F)F)c2=O)no1 (optimized conformer: 107.92281193434232 kcal/mol)

>  <smiles>  (9) 
Cc1nc(-c2c[nH]nc2C(=O)Nc2cccn(CC(F)(F)F)c2=O)no1

>  <score_type>  (9) 
oracle

>  <origin>  (9) 
adgpu

>  <m_score__min__energy>  (9) 
-8.5

>  <m_primary>  (9) 
energy

$$$$
9:0
     RDKit          3D

 54 57  0  0  0  0  0  0  0  0999 V2000
    0.0830   24.1860  -28.9090 O   0  0  0  0  0  0  0  0  0  0  0  0
   -1.1710   24.3110  -28.9060 C   0  0  0  0  0  0  0  0  0  0  0  0
   -2.0020   23.2900  -29.6220 C   0  0  0  0  0  0  0  0  0  0  0  0
   -3.4140   22.7620  -28.5860 S   0  0  0  0  0  0  0  0  0  0  0  0
   -4.6710   23.2240  -29.7870 C   0  0  0  0  0  0  0  0  0  0  0  0
   -5.7580   22.3680  -30.0100 C   0  0  0  0  0  0  0  0  0  0  0  0
   -6.7690   22.7220  -30.9080 C   0  0  0  0  0  0  0  0  0  0  0  0
   -7.8940   21.8440  -31.0520 N   0  0  0  0  0  0  0  0  0  0  0  0
   -7.8930   20.3480  -31.9270 S   0  0  0  0  0  0  0  0  0  0  0  0
   -8.8450   20.4570  -33.0850 O   0  0  0  0  0  0  0  0  0  0  0  0
   -8.3120   19.2170  -31.0330 O   0  0  0  0  0  0  0  0  0  0  0  0
   -6.2620   20.0780  -32.5320 C   0  0  0  0  0  0  0  0  0  0  0  0
   -5.6960   18.7980  -32.4520 C   0  0  0  0  0  0  0  0  0  0  0  0
   -4.3750   18.5850  -32.8560 C   0  0  0  0  0  0  0  0  0  0  0  0
   -3.5930   19.6520  -33.3400 C   0  0  0  0  0  0  0  0  0  0  0  0
   -2.1730   19.4410  -33.7220 C   0  0  0  0  0  0  0  0  0  0  0  0
   -1.7140   18.1640  -34.0990 C   0  0  0  0  0  0  0  0  0  0  0  0
   -0.3720   17.9650  -34.4370 C   0  0  0  0  0  0  0  0  0  0  0  0
    0.5260   19.0340  -34.4030 C   0  0  0  0  0  0  0  0  0  0  0  0
    0.0860   20.3050  -34.0250 C   0  0  0  0  0  0  0  0  0  0  0  0
   -1.2550   20.5100  -33.6880 C   0  0  0  0  0  0  0  0  0  0  0  0
   -4.1750   20.9300  -33.4360 C   0  0  0  0  0  0  0  0  0  0  0  0
   -5.4970   21.1400  -33.0330 C   0  0  0  0  0  0  0  0  0  0  0  0
   -6.6880   23.9420  -31.5960 C   0  0  0  0  0  0  0  0  0  0  0  0
   -5.5930   24.7900  -31.3890 C   0  0  0  0  0  0  0  0  0  0  0  0
   -4.5840   24.4360  -30.4850 C   0  0  0  0  0  0  0  0  0  0  0  0
   -3.5110   25.2940  -30.2810 O   0  0  0  0  0  0  0  0  0  0  0  0
   -1.8110   25.3650  -28.1590 N   0  0  0  0  0  0  0  0  0  0  0  0
   -1.1780   26.1490  -27.1300 C   0  0  0  0  0  0  0  0  0  0  0  0
   -0.2880   27.2010  -27.4320 C   0  0  0  0  0  0  0  0  0  0  0  0
    0.3190   27.9270  -26.4000 C   0  0  0  0  0  0  0  0  0  0  0  0
    0.0420   27.6190  -25.0660 C   0  0  0  0  0  0  0  0  0  0  0  0
   -0.8610   26.6000  -24.7580 C   0  0  0  0  0  0  0  0  0  0  0  0
   -1.4680   25.8690  -25.7850 C   0  0  0  0  0  0  0  0  0  0  0  0
   -2.3836   23.7264  -30.5568 H   0  0  0  0  0  0  0  0  0  0  0  0
   -1.3748   22.4125  -29.8380 H   0  0  0  0  0  0  0  0  0  0  0  0
   -5.8161   21.4093  -29.4738 H   0  0  0  0  0  0  0  0  0  0  0  0
   -6.2940   17.9577  -32.0697 H   0  0  0  0  0  0  0  0  0  0  0  0
   -3.9423   17.5755  -32.7955 H   0  0  0  0  0  0  0  0  0  0  0  0
   -2.4160   17.3176  -34.1277 H   0  0  0  0  0  0  0  0  0  0  0  0
   -0.0227   16.9641  -34.7304 H   0  0  0  0  0  0  0  0  0  0  0  0
    1.5802   18.8752  -34.6740 H   0  0  0  0  0  0  0  0  0  0  0  0
    0.7954   21.1450  -33.9926 H   0  0  0  0  0  0  0  0  0  0  0  0
   -1.5965   21.5134  -33.3940 H   0  0  0  0  0  0  0  0  0  0  0  0
   -3.5850   21.7700  -33.8312 H   0  0  0  0  0  0  0  0  0  0  0  0
   -5.9392   22.1443  -33.1095 H   0  0  0  0  0  0  0  0  0  0  0  0
   -7.4840   24.2322  -32.2975 H   0  0  0  0  0  0  0  0  0  0  0  0
   -5.5251   25.7398  -31.9398 H   0  0  0  0  0  0  0  0  0  0  0  0
   -2.8540   25.4090  -28.2090 H   0  0  0  0  0  0  0  0  0  0  0  0
   -0.0703   27.4516  -28.4807 H   0  0  0  0  0  0  0  0  0  0  0  0
    1.0165   28.7428  -26.6406 H   0  0  0  0  0  0  0  0  0  0  0  0
    0.5354   28.1794  -24.2582 H   0  0  0  0  0  0  0  0  0  0  0  0
   -1.0954   26.3717  -23.7078 H   0  0  0  0  0  0  0  0  0  0  0  0
   -2.1791   25.0674  -25.5364 H   0  0  0  0  0  0  0  0  0  0  0  0
  1  2  2  0
  2  3  1  0
  3  4  1  0
  4  5  1  0
  5  6  2  0
  6  7  1  0
  7  8  1  0
  8  9  1  0
  9 10  2  0
  9 11  2  0
  9 12  1  0
 12 13  2  0
 13 14  1  0
 14 15  2  0
 15 16  1  0
 16 17  2  0
 17 18  1  0
 18 19  2  0
 19 20  1  0
 20 21  2  0
 15 22  1  0
 22 23  2  0
  7 24  2  0
 24 25  1  0
 25 26  2  0
 26 27  1  0
  2 28  1  0
 28 29  1  0
 29 30  2  0
 30 31  1  0
 31 32  2  0
 32 33  1  0
 33 34  2  0
 26  5  1  0
 34 29  1  0
 23 12  1  0
 21 16  1  0
  3 35  1  0
  3 36  1  0
  6 37  1  0
 13 38  1  0
 14 39  1  0
 17 40  1  0
 18 41  1  0
 19 42  1  0
 20 43  1  0
 21 44  1  0
 22 45  1  0
 23 46  1  0
 24 47  1  0
 25 48  1  0
 28 49  1  0
 30 50  1  0
 31 51  1  0
 32 52  1  0
 33 53  1  0
 34 54  1  0
M  CHG  2   8  -1  27  -1
M  END
>  <UniqueID>  (10) 
10

>  <SMILES>  (10) 
O=C(CSc1cc([N-]S(=O)(=O)c2ccc(-c3ccccc3)cc2)ccc1[O-])Nc1ccccc1

>  <Energy>  (10) 
65.57648258899523

>  <Genealogy>  (10) 
O=C(CSc1cc([N-]S(=O)(=O)c2ccc(-c3ccccc3)cc2)ccc1[O-])Nc1ccccc1 (protonated)
O=C(CSc1cc([N-]S(=O)(=O)c2ccc(-c3ccccc3)cc2)ccc1[O-])Nc1ccccc1 (3D coordinates assigned)
O=C(CSc1cc([N-]S(=O)(=O)c2ccc(-c3ccccc3)cc2)ccc1[O-])Nc1ccccc1 (optimized conformer: 65.57648258899523 kcal/mol)

>  <smiles>  (10) 
O=C(CSc1cc(NS(=O)(=O)c2ccc(-c3ccccc3)cc2)ccc1O)Nc1ccccc1

>  <score_type>  (10) 
oracle

>  <origin>  (10) 
adgpu

>  <m_score__min__energy>  (10) 
-13.81

>  <m_primary>  (10) 
energy

$$$$
10:0
     RDKit          3D

 71 74  0  0  0  0  0  0  0  0999 V2000
    2.7000   20.5820  -34.2240 C   0  0  0  0  0  0  0  0  0  0  0  0
    1.3070   20.1410  -33.8960 C   0  0  0  0  0  0  0  0  0  0  0  0
    0.4520   20.9740  -33.4850 O   0  0  0  0  0  0  0  0  0  0  0  0
    1.0110   18.7670  -34.0720 N   0  0  0  0  0  0  0  0  0  0  0  0
   -0.2640   18.1950  -33.8040 C   0  0  0  0  0  0  0  0  0  0  0  0
   -0.4310   17.0110  -33.1110 C   0  0  0  0  0  0  0  0  0  0  0  0
   -1.7210   16.5110  -32.8860 C   0  0  0  0  0  0  0  0  0  0  0  0
   -2.8010   17.2240  -33.3700 C   0  0  0  0  0  0  0  0  0  0  0  0
   -4.1520   16.7930  -33.1880 N   0  0  0  0  0  0  0  0  0  0  0  0
   -4.9480   16.2910  -34.2440 C   0  0  0  0  0  0  0  0  0  0  0  0
   -4.3760   16.2300  -35.3870 O   0  0  0  0  0  0  0  0  0  0  0  0
   -6.3270   15.8390  -34.1610 C   0  0  0  0  0  0  0  0  0  0  0  0
   -7.1610   16.8740  -33.6970 O   0  0  0  0  0  0  0  0  0  0  0  0
   -6.6900   18.0860  -33.2090 C   0  0  0  0  0  0  0  0  0  0  0  0
   -6.4830   18.2380  -31.8330 C   0  0  0  0  0  0  0  0  0  0  0  0
   -6.0140   19.4460  -31.3110 C   0  0  0  0  0  0  0  0  0  0  0  0
   -5.7530   20.4990  -32.1580 C   0  0  0  0  0  0  0  0  0  0  0  0
   -5.2600   21.7950  -31.7060 C   0  0  0  0  0  0  0  0  0  0  0  0
   -3.9300   22.1340  -31.7640 C   0  0  0  0  0  0  0  0  0  0  0  0
   -2.9290   21.2010  -32.2930 C   0  0  0  0  0  0  0  0  0  0  0  0
   -1.7040   21.2660  -31.4870 N   0  0  0  0  0  0  0  0  0  0  0  0
   -1.5010   20.0490  -30.7460 C   0  0  0  0  0  0  0  0  0  0  0  0
   -1.1550   20.4400  -29.3070 C   0  0  0  0  0  0  0  0  0  0  0  0
   -1.4450   21.8790  -29.0820 C   0  0  0  0  0  0  0  0  0  0  0  0
   -0.4350   22.7700  -29.4500 C   0  0  0  0  0  0  0  0  0  0  0  0
   -0.5870   24.1260  -29.2900 C   0  0  0  0  0  0  0  0  0  0  0  0
   -1.7750   24.5690  -28.7530 C   0  0  0  0  0  0  0  0  0  0  0  0
   -1.9560   25.9380  -28.5800 O   0  0  0  0  0  0  0  0  0  0  0  0
   -2.7930   23.7090  -28.3800 C   0  0  0  0  0  0  0  0  0  0  0  0
   -2.6350   22.3300  -28.5440 C   0  0  0  0  0  0  0  0  0  0  0  0
   -3.5760   23.3590  -31.3160 N   0  0  0  0  0  0  0  0  0  0  0  0
   -4.4970   24.2120  -30.8320 C   0  0  0  0  0  0  0  0  0  0  0  0
   -4.1050   25.3740  -30.4150 N   0  0  0  0  0  0  0  0  0  0  0  0
   -5.8110   23.9010  -30.7650 N   0  0  0  0  0  0  0  0  0  0  0  0
   -6.2030   22.6880  -31.2030 C   0  0  0  0  0  0  0  0  0  0  0  0
   -7.4620   22.3980  -31.1360 N   0  0  0  0  0  0  0  0  0  0  0  0
   -5.9500   20.3770  -33.5370 C   0  0  0  0  0  0  0  0  0  0  0  0
   -6.4140   19.1760  -34.0260 C   0  0  0  0  0  0  0  0  0  0  0  0
   -2.6310   18.4080  -34.0650 C   0  0  0  0  0  0  0  0  0  0  0  0
   -1.3630   18.9030  -34.2860 C   0  0  0  0  0  0  0  0  0  0  0  0
    3.2576   20.7585  -33.2924 H   0  0  0  0  0  0  0  0  0  0  0  0
    3.2039   19.7994  -34.8103 H   0  0  0  0  0  0  0  0  0  0  0  0
    2.6617   21.5120  -34.8103 H   0  0  0  0  0  0  0  0  0  0  0  0
    1.7540   18.0940  -34.4210 H   0  0  0  0  0  0  0  0  0  0  0  0
    0.4461   16.4625  -32.7370 H   0  0  0  0  0  0  0  0  0  0  0  0
   -1.8704   15.5705  -32.3355 H   0  0  0  0  0  0  0  0  0  0  0  0
   -4.5160   16.8520  -32.2140 H   0  0  0  0  0  0  0  0  0  0  0  0
   -6.6644   15.5229  -35.1591 H   0  0  0  0  0  0  0  0  0  0  0  0
   -6.3820   14.9964  -33.4560 H   0  0  0  0  0  0  0  0  0  0  0  0
   -6.6919   17.3971  -31.1553 H   0  0  0  0  0  0  0  0  0  0  0  0
   -5.8541   19.5551  -30.2282 H   0  0  0  0  0  0  0  0  0  0  0  0
   -3.3320   20.1780  -32.2607 H   0  0  0  0  0  0  0  0  0  0  0  0
   -2.6923   21.4771  -33.3311 H   0  0  0  0  0  0  0  0  0  0  0  0
   -0.9290   21.3170  -32.1840 H   0  0  0  0  0  0  0  0  0  0  0  0
   -2.4188   19.4428  -30.7603 H   0  0  0  0  0  0  0  0  0  0  0  0
   -0.6903   19.4541  -31.1919 H   0  0  0  0  0  0  0  0  0  0  0  0
   -1.7559   19.8353  -28.6118 H   0  0  0  0  0  0  0  0  0  0  0  0
   -0.0840   20.2586  -29.1337 H   0  0  0  0  0  0  0  0  0  0  0  0
    0.5005   22.3787  -29.8763 H   0  0  0  0  0  0  0  0  0  0  0  0
    0.2080   24.8292  -29.5791 H   0  0  0  0  0  0  0  0  0  0  0  0
   -2.7430   26.4280  -28.9570 H   0  0  0  0  0  0  0  0  0  0  0  0
   -3.7250   24.1100  -27.9551 H   0  0  0  0  0  0  0  0  0  0  0  0
   -3.4308   21.6278  -28.2547 H   0  0  0  0  0  0  0  0  0  0  0  0
   -2.5490   23.5910  -31.3720 H   0  0  0  0  0  0  0  0  0  0  0  0
   -3.1130   25.6470  -30.4500 H   0  0  0  0  0  0  0  0  0  0  0  0
   -6.4830   24.6090  -30.3780 H   0  0  0  0  0  0  0  0  0  0  0  0
   -8.1970   23.0430  -30.7650 H   0  0  0  0  0  0  0  0  0  0  0  0
   -5.7398   21.2184  -34.2137 H   0  0  0  0  0  0  0  0  0  0  0  0
   -6.5730   19.0751  -35.1098 H   0  0  0  0  0  0  0  0  0  0  0  0
   -3.5079   18.9550  -34.4416 H   0  0  0  0  0  0  0  0  0  0  0  0
   -1.2210   19.8450  -34.8359 H   0  0  0  0  0  0  0  0  0  0  0  0
  1  2  1  0
  2  3  2  0
  2  4  1  0
  4  5  1  0
  5  6  2  0
  6  7  1  0
  7  8  2  0
  8  9  1  0
  9 10  1  0
 10 11  2  0
 10 12  1  0
 12 13  1  0
 13 14  1  0
 14 15  2  0
 15 16  1  0
 16 17  2  0
 17 18  1  0
 18 19  2  0
 19 20  1  0
 20 21  1  0
 21 22  1  0
 22 23  1  0
 23 24  1  0
 24 25  2  0
 25 26  1  0
 26 27  2  0
 27 28  1  0
 27 29  1  0
 29 30  2  0
 19 31  1  0
 31 32  1  0
 32 33  2  3
 32 34  1  0
 34 35  1  0
 35 36  2  3
 17 37  1  0
 37 38  2  0
  8 39  1  0
 39 40  2  0
 40  5  1  0
 38 14  1  0
 35 18  1  0
 30 24  1  0
  1 41  1  0
  1 42  1  0
  1 43  1  0
  4 44  1  0
  6 45  1  0
  7 46  1  0
  9 47  1  0
 12 48  1  0
 12 49  1  0
 15 50  1  0
 16 51  1  0
 20 52  1  0
 20 53  1  0
 21 54  1  0
 22 55  1  0
 22 56  1  0
 23 57  1  0
 23 58  1  0
 25 59  1  0
 26 60  1  0
 28 61  1  0
 29 62  1  0
 30 63  1  0
 31 64  1  0
 33 65  1  0
 34 66  1  0
 36 67  1  0
 37 68  1  0
 38 69  1  0
 39 70  1  0
 40 71  1  0
M  END
>  <smiles>  (11) 
CC(=O)Nc1ccc(NC(=O)COc2ccc(-c3c(CNCCc4ccc(O)cc4)[nH]c(=N)[nH]c3=N)cc2)cc1

>  <score_type>  (11) 
oracle

>  <origin>  (11) 
adgpu

>  <m_score__min__energy>  (11) 
-10.220000000000001

>  <m_primary>  (11) 
energy

$$$$
11:0
     RDKit          3D

 32 33  0  0  0  0  0  0  0  0999 V2000
   -5.2680   25.6860  -30.4190 C   0  0  0  0  0  0  0  0  0  0  0  0
   -3.9000   25.3000  -30.4660 O   0  0  0  0  0  0  0  0  0  0  0  0
   -3.4890   23.9620  -30.4670 C   0  0  0  0  0  0  0  0  0  0  0  0
   -3.7840   23.1550  -31.5220 N   0  0  0  0  0  0  0  0  0  0  0  0
   -3.3840   21.8560  -31.5610 C   0  0  0  0  0  0  0  0  0  0  0  0
   -3.7120   21.0280  -32.6930 N   0  0  0  0  0  0  0  0  0  0  0  0
   -2.6380   20.4360  -33.4970 C   0  0  0  0  0  0  0  0  0  0  0  0
   -5.1170   20.7830  -33.0340 C   0  0  0  0  0  0  0  0  0  0  0  0
   -2.6690   21.3460  -30.5220 N   0  0  0  0  0  0  0  0  0  0  0  0
   -2.3490   22.1100  -29.4470 C   0  0  0  0  0  0  0  0  0  0  0  0
   -2.7540   23.4490  -29.3860 C   0  0  0  0  0  0  0  0  0  0  0  0
   -2.4240   24.2830  -28.2040 C   0  0  0  0  0  0  0  0  0  0  0  0
   -3.3940   24.5150  -27.2170 C   0  0  0  0  0  0  0  0  0  0  0  0
   -3.0870   25.2870  -26.0980 C   0  0  0  0  0  0  0  0  0  0  0  0
   -1.8050   25.8240  -25.9680 C   0  0  0  0  0  0  0  0  0  0  0  0
   -0.8680   25.5960  -26.9270 N   0  0  0  0  0  0  0  0  0  0  0  0
   -1.1420   24.8470  -28.0330 C   0  0  0  0  0  0  0  0  0  0  0  0
   -0.2470   24.6790  -28.9040 O   0  0  0  0  0  0  0  0  0  0  0  0
   -5.5877   25.7762  -29.3704 H   0  0  0  0  0  0  0  0  0  0  0  0
   -5.3933   26.6546  -30.9251 H   0  0  0  0  0  0  0  0  0  0  0  0
   -5.8811   24.9258  -30.9251 H   0  0  0  0  0  0  0  0  0  0  0  0
   -1.8715   20.0135  -32.8307 H   0  0  0  0  0  0  0  0  0  0  0  0
   -3.0520   19.6387  -34.1317 H   0  0  0  0  0  0  0  0  0  0  0  0
   -2.1849   21.2118  -34.1317 H   0  0  0  0  0  0  0  0  0  0  0  0
   -5.7059   20.6803  -32.1106 H   0  0  0  0  0  0  0  0  0  0  0  0
   -5.5038   21.6272  -33.6236 H   0  0  0  0  0  0  0  0  0  0  0  0
   -5.1952   19.8577  -33.6236 H   0  0  0  0  0  0  0  0  0  0  0  0
   -1.7688   21.6753  -28.6197 H   0  0  0  0  0  0  0  0  0  0  0  0
   -4.4008   24.0858  -27.3269 H   0  0  0  0  0  0  0  0  0  0  0  0
   -3.8474   25.4714  -25.3248 H   0  0  0  0  0  0  0  0  0  0  0  0
   -1.5520   26.4331  -25.0877 H   0  0  0  0  0  0  0  0  0  0  0  0
    0.0830   26.0120  -26.8080 H   0  0  0  0  0  0  0  0  0  0  0  0
  1  2  1  0
  2  3  1  0
  3  4  2  0
  4  5  1  0
  5  6  1  0
  6  7  1  0
  6  8  1  0
  5  9  2  0
  9 10  1  0
 10 11  2  0
 11 12  1  0
 12 13  2  0
 13 14  1  0
 14 15  2  0
 15 16  1  0
 16 17  1  0
 17 18  2  0
 11  3  1  0
 17 12  1  0
  1 19  1  0
  1 20  1  0
  1 21  1  0
  7 22  1  0
  7 23  1  0
  7 24  1  0
  8 25  1  0
  8 26  1  0
  8 27  1  0
 10 28  1  0
 13 29  1  0
 14 30  1  0
 15 31  1  0
 16 32  1  0
M  END
>  <UniqueID>  (12) 
11

>  <SMILES>  (12) 
COc1nc(N(C)C)ncc1-c1ccc[nH]c1=O

>  <Energy>  (12) 
35.874814942771316

>  <Genealogy>  (12) 
COc1nc(N(C)C)ncc1-c1ccc[nH]c1=O (3D coordinates assigned)
COc1nc(N(C)C)ncc1-c1ccc[nH]c1=O (optimized conformer: 35.874814942771316 kcal/mol)

>  <smiles>  (12) 
COc1nc(N(C)C)ncc1-c1ccc[nH]c1=O

>  <score_type>  (12) 
oracle

>  <origin>  (12) 
adgpu

>  <m_score__min__energy>  (12) 
-6.1500000000000004

>  <m_primary>  (12) 
energy

$$$$
12:0
     RDKit          3D

 39 41  0  0  0  0  0  0  0  0999 V2000
   -2.3008   20.5221  -33.0453 H   0  0  0  0  0  0  0  0  0  0  0  0
   -2.0920   21.1290  -32.1520 C   0  0  0  0  0  0  0  0  0  0  0  0
   -2.8990   22.1490  -31.7590 N   0  0  0  0  0  0  0  0  0  0  0  0
   -2.4370   22.7400  -30.6340 C   0  0  0  0  0  0  0  0  0  0  0  0
   -3.0100   23.7480  -30.0460 N   0  0  0  0  0  0  0  0  0  0  0  0
   -4.2110   24.4180  -30.4740 C   0  0  0  0  0  0  0  0  0  0  0  0
   -4.2460   25.6770  -30.5550 O   0  0  0  0  0  0  0  0  0  0  0  0
   -5.4120   23.6240  -30.8180 C   0  0  0  0  0  0  0  0  0  0  0  0
   -5.7700   23.4160  -32.1610 C   0  0  0  0  0  0  0  0  0  0  0  0
   -5.1550   23.8502  -32.9630 H   0  0  0  0  0  0  0  0  0  0  0  0
   -6.9010   22.6620  -32.4860 C   0  0  0  0  0  0  0  0  0  0  0  0
   -7.1702   22.5086  -33.5415 H   0  0  0  0  0  0  0  0  0  0  0  0
   -7.6960   22.0990  -31.4750 C   0  0  0  0  0  0  0  0  0  0  0  0
   -8.8640   21.3150  -31.7780 N   0  0  0  0  0  0  0  0  0  0  0  0
   -9.7740   21.8010  -31.9410 H   0  0  0  0  0  0  0  0  0  0  0  0
   -8.8240   19.6000  -32.0470 S   0  0  0  0  0  0  0  0  0  0  0  0
   -9.8420   19.2330  -33.0890 O   0  0  0  0  0  0  0  0  0  0  0  0
   -9.1630   18.8920  -30.7640 O   0  0  0  0  0  0  0  0  0  0  0  0
   -7.2260   19.1270  -32.6220 C   0  0  0  0  0  0  0  0  0  0  0  0
   -6.6680   19.7340  -33.7550 C   0  0  0  0  0  0  0  0  0  0  0  0
   -7.2143   20.5366  -34.2722 H   0  0  0  0  0  0  0  0  0  0  0  0
   -5.4170   19.3220  -34.2310 C   0  0  0  0  0  0  0  0  0  0  0  0
   -4.9890   19.7949  -35.1272 H   0  0  0  0  0  0  0  0  0  0  0  0
   -4.7070   18.3080  -33.5690 C   0  0  0  0  0  0  0  0  0  0  0  0
   -3.3900   17.8380  -34.1130 C   0  0  0  0  0  0  0  0  0  0  0  0
   -2.7140   17.5968  -33.2794 H   0  0  0  0  0  0  0  0  0  0  0  0
   -3.5471   16.9404  -34.7292 H   0  0  0  0  0  0  0  0  0  0  0  0
   -2.9433   18.6322  -34.7292 H   0  0  0  0  0  0  0  0  0  0  0  0
   -5.2720   17.6960  -32.4370 C   0  0  0  0  0  0  0  0  0  0  0  0
   -4.7298   16.8896  -31.9216 H   0  0  0  0  0  0  0  0  0  0  0  0
   -6.5210   18.1090  -31.9640 C   0  0  0  0  0  0  0  0  0  0  0  0
   -6.9529   17.6331  -31.0713 H   0  0  0  0  0  0  0  0  0  0  0  0
   -7.3330   22.2990  -30.1360 C   0  0  0  0  0  0  0  0  0  0  0  0
   -7.9385   21.8504  -29.3347 H   0  0  0  0  0  0  0  0  0  0  0  0
   -6.2090   23.0630  -29.8090 C   0  0  0  0  0  0  0  0  0  0  0  0
   -5.9476   23.2255  -28.7529 H   0  0  0  0  0  0  0  0  0  0  0  0
   -1.0180   22.0290  -30.0850 S   0  0  0  0  0  0  0  0  0  0  0  0
   -0.9820   20.9080  -31.3420 C   0  0  0  0  0  0  0  0  0  0  0  0
   -0.2143   20.1354  -31.4959 H   0  0  0  0  0  0  0  0  0  0  0  0
  1  2  1  0
  2  3  1  0
  3  4  1  0
  4  5  2  0
  5  6  1  0
  6  7  2  0
  6  8  1  0
  8  9  2  0
  9 10  1  0
  9 11  1  0
 11 12  1  0
 11 13  2  0
 13 14  1  0
 14 15  1  0
 14 16  1  0
 16 17  2  0
 16 18  2  0
 16 19  1  0
 19 20  2  0
 20 21  1  0
 20 22  1  0
 22 23  1  0
 22 24  2  0
 24 25  1  0
 25 26  1  0
 25 27  1  0
 25 28  1  0
 24 29  1  0
 29 30  1  0
 29 31  2  0
 31 32  1  0
 13 33  1  0
 33 34  1  0
 33 35  2  0
 35 36  1  0
  4 37  1  0
 37 38  1  0
 38 39  1  0
 38  2  2  0
 35  8  1  0
 31 19  1  0
M  CHG  1   3  -1
M  END
>  <UniqueID>  (13) 
12

>  <SMILES>  (13) 
Cc1ccc(S(=O)(=O)Nc2ccc(C(=O)/N=c3\[n-]ccs3)cc2)cc1

>  <Energy>  (13) 
76.53454253570266

>  <Genealogy>  (13) 
Cc1ccc(S(=O)(=O)Nc2ccc(C(=O)N=c3[n-]ccs3)cc2)cc1 (protonated)
Cc1ccc(S(=O)(=O)Nc2ccc(C(=O)/N=c3\[n-]ccs3)cc2)cc1 (cis-trans isomerization)
Cc1ccc(S(=O)(=O)Nc2ccc(C(=O)/N=c3\[n-]ccs3)cc2)cc1 (3D coordinates assigned)
Cc1ccc(S(=O)(=O)Nc2ccc(C(=O)/N=c3\[n-]ccs3)cc2)cc1 (optimized conformer: 76.53454253570266 kcal/mol)

>  <smiles>  (13) 
Cc1ccc(S(=O)(=O)Nc2ccc(C(=O)N=c3[nH]ccs3)cc2)cc1

>  <score_type>  (13) 
oracle

>  <origin>  (13) 
adgpu

>  <m_score__min__energy>  (13) 
-11.15

>  <m_primary>  (13) 
energy

$$$$
13:0
     RDKit          3D

 48 50  0  0  0  0  0  0  0  0999 V2000
   -8.1900   20.4340  -31.6510 C   0  0  0  0  0  0  0  0  0  0  0  0
   -8.1050   21.8480  -31.7890 O   0  0  0  0  0  0  0  0  0  0  0  0
   -6.9840   22.6130  -31.4330 C   0  0  0  0  0  0  0  0  0  0  0  0
   -5.7790   22.3730  -32.1010 C   0  0  0  0  0  0  0  0  0  0  0  0
   -4.6340   23.1070  -31.7840 C   0  0  0  0  0  0  0  0  0  0  0  0
   -4.6790   24.1020  -30.8020 C   0  0  0  0  0  0  0  0  0  0  0  0
   -3.4990   24.8680  -30.5560 N   0  0  0  0  0  0  0  0  0  0  0  0
   -2.4930   24.6340  -29.1610 S   0  0  0  0  0  0  0  0  0  0  0  0
   -1.6070   25.8270  -28.9360 O   0  0  0  0  0  0  0  0  0  0  0  0
   -3.3670   24.4500  -27.9540 O   0  0  0  0  0  0  0  0  0  0  0  0
   -1.5170   23.2170  -29.3760 N   0  0  0  0  0  0  0  0  0  0  0  0
   -1.6870   21.9760  -28.6760 C   0  0  0  0  0  0  0  0  0  0  0  0
   -2.9070   21.6100  -28.0830 C   0  0  0  0  0  0  0  0  0  0  0  0
   -3.0290   20.3830  -27.4270 C   0  0  0  0  0  0  0  0  0  0  0  0
   -1.9410   19.5070  -27.3620 C   0  0  0  0  0  0  0  0  0  0  0  0
   -0.7140   19.8550  -27.9520 C   0  0  0  0  0  0  0  0  0  0  0  0
    0.4350   18.9150  -27.9200 C   0  0  0  0  0  0  0  0  0  0  0  0
    1.7320   19.3680  -28.2000 C   0  0  0  0  0  0  0  0  0  0  0  0
    2.8210   18.4980  -28.1120 C   0  0  0  0  0  0  0  0  0  0  0  0
    2.6390   17.1580  -27.7460 C   0  0  0  0  0  0  0  0  0  0  0  0
    3.7890   16.3060  -27.6280 N   0  0  0  0  0  0  0  0  0  0  0  0
    1.3330   16.6790  -27.4890 C   0  0  0  0  0  0  0  0  0  0  0  0
    1.0880   15.2460  -27.0990 C   0  0  0  0  0  0  0  0  0  0  0  0
    0.2430   17.5660  -27.5750 C   0  0  0  0  0  0  0  0  0  0  0  0
   -0.5970   21.0990  -28.6000 C   0  0  0  0  0  0  0  0  0  0  0  0
   -5.8770   24.3230  -30.0870 C   0  0  0  0  0  0  0  0  0  0  0  0
   -5.9260   25.2280  -28.9800 N   0  0  0  0  0  0  0  0  0  0  0  0
   -7.0270   23.5960  -30.4260 C   0  0  0  0  0  0  0  0  0  0  0  0
   -8.2059   20.1701  -30.5832 H   0  0  0  0  0  0  0  0  0  0  0  0
   -9.1114   20.0734  -32.1315 H   0  0  0  0  0  0  0  0  0  0  0  0
   -7.3184   19.9656  -32.1315 H   0  0  0  0  0  0  0  0  0  0  0  0
   -5.7327   21.6000  -32.8822 H   0  0  0  0  0  0  0  0  0  0  0  0
   -3.6902   22.9012  -32.3102 H   0  0  0  0  0  0  0  0  0  0  0  0
   -3.7686   22.2918  -28.1355 H   0  0  0  0  0  0  0  0  0  0  0  0
   -3.9850   20.1046  -26.9595 H   0  0  0  0  0  0  0  0  0  0  0  0
   -2.0461   18.5409  -26.8466 H   0  0  0  0  0  0  0  0  0  0  0  0
    1.8931   20.4165  -28.4912 H   0  0  0  0  0  0  0  0  0  0  0  0
    3.8328   18.8690  -28.3325 H   0  0  0  0  0  0  0  0  0  0  0  0
    3.8000   15.5240  -26.9370 H   0  0  0  0  0  0  0  0  0  0  0  0
    4.6260   16.4140  -28.2410 H   0  0  0  0  0  0  0  0  0  0  0  0
    1.0736   15.1618  -26.0023 H   0  0  0  0  0  0  0  0  0  0  0  0
    0.1204   14.9158  -27.5048 H   0  0  0  0  0  0  0  0  0  0  0  0
    1.8910   14.6131  -27.5048 H   0  0  0  0  0  0  0  0  0  0  0  0
   -0.7731   17.1982  -27.3693 H   0  0  0  0  0  0  0  0  0  0  0  0
    0.3633   21.3866  -29.0529 H   0  0  0  0  0  0  0  0  0  0  0  0
   -5.0610   25.6660  -28.5920 H   0  0  0  0  0  0  0  0  0  0  0  0
   -6.8330   25.4370  -28.5060 H   0  0  0  0  0  0  0  0  0  0  0  0
   -7.9722   23.7957  -29.8999 H   0  0  0  0  0  0  0  0  0  0  0  0
  1  2  1  0
  2  3  1  0
  3  4  2  0
  4  5  1  0
  5  6  2  0
  6  7  1  0
  7  8  1  0
  8  9  2  0
  8 10  2  0
  8 11  1  0
 11 12  1  0
 12 13  2  0
 13 14  1  0
 14 15  2  0
 15 16  1  0
 16 17  1  0
 17 18  2  0
 18 19  1  0
 19 20  2  0
 20 21  1  0
 20 22  1  0
 22 23  1  0
 22 24  2  0
 16 25  2  0
  6 26  1  0
 26 27  1  0
 26 28  2  0
 28  3  1  0
 25 12  1  0
 24 17  1  0
  1 29  1  0
  1 30  1  0
  1 31  1  0
  4 32  1  0
  5 33  1  0
 13 34  1  0
 14 35  1  0
 15 36  1  0
 18 37  1  0
 19 38  1  0
 21 39  1  0
 21 40  1  0
 23 41  1  0
 23 42  1  0
 23 43  1  0
 24 44  1  0
 25 45  1  0
 27 46  1  0
 27 47  1  0
 28 48  1  0
M  CHG  2   7  -1  11  -1
M  END
>  <UniqueID>  (14) 
13

>  <SMILES>  (14) 
COc1ccc([N-]S(=O)(=O)[N-]c2cccc(-c3ccc(N)c(C)c3)c2)c(N)c1

>  <Energy>  (14) 
66.16370954560128

>  <Genealogy>  (14) 
COc1ccc([N-]S(=O)(=O)[N-]c2cccc(-c3ccc(N)c(C)c3)c2)c(N)c1 (protonated)
COc1ccc([N-]S(=O)(=O)[N-]c2cccc(-c3ccc(N)c(C)c3)c2)c(N)c1 (3D coordinates assigned)
COc1ccc([N-]S(=O)(=O)[N-]c2cccc(-c3ccc(N)c(C)c3)c2)c(N)c1 (optimized conformer: 66.16370954560128 kcal/mol)

>  <smiles>  (14) 
COc1ccc(NS(=O)(=O)Nc2cccc(-c3ccc(N)c(C)c3)c2)c(N)c1

>  <score_type>  (14) 
oracle

>  <origin>  (14) 
adgpu

>  <m_score__min__energy>  (14) 
-10.98

>  <m_primary>  (14) 
energy

$$$$
14:0
     RDKit          3D

 39 41  0  0  0  0  0  0  0  0999 V2000
   -2.5540   24.5460  -29.3210 C   0  0  0  0  0  0  0  0  0  0  0  0
   -3.4790   24.9270  -30.3200 O   0  0  0  0  0  0  0  0  0  0  0  0
   -4.5680   24.1620  -30.6660 C   0  0  0  0  0  0  0  0  0  0  0  0
   -5.8630   24.5740  -30.4410 C   0  0  0  0  0  0  0  0  0  0  0  0
   -6.9550   23.7760  -30.8020 C   0  0  0  0  0  0  0  0  0  0  0  0
   -6.7610   22.5480  -31.3980 C   0  0  0  0  0  0  0  0  0  0  0  0
   -7.9320   21.7660  -31.7430 C   0  0  0  0  0  0  0  0  0  0  0  0
   -9.1830   22.1190  -31.3980 N   0  0  0  0  0  0  0  0  0  0  0  0
  -10.0460   21.2050  -31.8530 N   0  0  0  0  0  0  0  0  0  0  0  0
   -9.3890   20.2310  -32.5050 C   0  0  0  0  0  0  0  0  0  0  0  0
   -9.8670   19.2010  -33.0700 O   0  0  0  0  0  0  0  0  0  0  0  0
   -8.0570   20.5860  -32.4350 C   0  0  0  0  0  0  0  0  0  0  0  0
   -7.0130   19.8140  -33.0090 N   0  0  0  0  0  0  0  0  0  0  0  0
   -6.9290   18.4470  -32.5910 C   0  0  0  0  0  0  0  0  0  0  0  0
   -7.7610   18.0060  -31.7570 O   0  0  0  0  0  0  0  0  0  0  0  0
   -5.9120   17.5310  -33.0920 C   0  0  0  0  0  0  0  0  0  0  0  0
   -5.3990   16.4870  -32.3520 C   0  0  0  0  0  0  0  0  0  0  0  0
   -4.4310   15.6230  -32.8420 C   0  0  0  0  0  0  0  0  0  0  0  0
   -3.9480   15.7990  -34.1220 C   0  0  0  0  0  0  0  0  0  0  0  0
   -4.4380   16.8240  -34.8750 C   0  0  0  0  0  0  0  0  0  0  0  0
   -5.3880   17.6660  -34.3840 C   0  0  0  0  0  0  0  0  0  0  0  0
   -5.8670   18.7100  -35.1930 O   0  0  0  0  0  0  0  0  0  0  0  0
   -5.4650   22.1550  -31.6140 C   0  0  0  0  0  0  0  0  0  0  0  0
   -4.3750   22.9430  -31.2570 C   0  0  0  0  0  0  0  0  0  0  0  0
   -2.9917   24.7263  -28.3281 H   0  0  0  0  0  0  0  0  0  0  0  0
   -2.3174   23.4772  -29.4288 H   0  0  0  0  0  0  0  0  0  0  0  0
   -1.6332   25.1381  -29.4288 H   0  0  0  0  0  0  0  0  0  0  0  0
   -6.0428   25.5506  -29.9677 H   0  0  0  0  0  0  0  0  0  0  0  0
   -7.9776   24.1321  -30.6083 H   0  0  0  0  0  0  0  0  0  0  0  0
   -9.5260   22.9490  -30.8650 H   0  0  0  0  0  0  0  0  0  0  0  0
  -11.0960   21.2180  -31.7340 H   0  0  0  0  0  0  0  0  0  0  0  0
   -6.3300   20.1920  -33.7000 H   0  0  0  0  0  0  0  0  0  0  0  0
   -5.7734   16.3327  -31.3293 H   0  0  0  0  0  0  0  0  0  0  0  0
   -4.0512   14.8033  -32.2144 H   0  0  0  0  0  0  0  0  0  0  0  0
   -3.1805   15.1237  -34.5281 H   0  0  0  0  0  0  0  0  0  0  0  0
   -4.0592   16.9733  -35.8969 H   0  0  0  0  0  0  0  0  0  0  0  0
   -6.8670   18.7850  -35.3510 H   0  0  0  0  0  0  0  0  0  0  0  0
   -5.2800   21.1796  -32.0876 H   0  0  0  0  0  0  0  0  0  0  0  0
   -3.3534   22.5843  -31.4508 H   0  0  0  0  0  0  0  0  0  0  0  0
  1  2  1  0
  2  3  1  0
  3  4  2  0
  4  5  1  0
  5  6  2  0
  6  7  1  0
  7  8  1  0
  8  9  1  0
  9 10  1  0
 10 11  2  0
 10 12  1  0
 12 13  1  0
 13 14  1  0
 14 15  2  0
 14 16  1  0
 16 17  2  0
 17 18  1  0
 18 19  2  0
 19 20  1  0
 20 21  2  0
 21 22  1  0
  6 23  1  0
 23 24  2  0
 24  3  1  0
 12  7  2  0
 21 16  1  0
  1 25  1  0
  1 26  1  0
  1 27  1  0
  4 28  1  0
  5 29  1  0
  8 30  1  0
  9 31  1  0
 13 32  1  0
 17 33  1  0
 18 34  1  0
 19 35  1  0
 20 36  1  0
 22 37  1  0
 23 38  1  0
 24 39  1  0
M  END
>  <smiles>  (15) 
COc1ccc(-c2[nH][nH]c(=O)c2NC(=O)c2ccccc2O)cc1

>  <score_type>  (15) 
oracle

>  <origin>  (15) 
adgpu

>  <m_score__min__energy>  (15) 
-8.3699999999999992

>  <m_primary>  (15) 
energy

$$$$
15:0
     RDKit          3D

 53 55  0  0  1  0  0  0  0  0999 V2000
   -4.2200   16.1250  -34.6770 C   0  0  0  0  0  0  0  0  0  0  0  0
   -4.4150   17.3980  -34.9800 C   0  0  0  0  0  0  0  0  0  0  0  0
   -5.0110   18.3590  -34.0580 C   0  0  0  0  0  0  0  0  0  0  0  0
   -4.5170   18.5950  -32.9150 O   0  0  0  0  0  0  0  0  0  0  0  0
   -6.1830   19.0820  -34.4060 N   0  0  0  0  0  0  0  0  0  0  0  0
   -6.7880   20.0340  -33.5130 C   0  0  0  0  0  0  0  0  0  0  0  0
   -8.0950   19.8800  -33.0920 C   0  0  0  0  0  0  0  0  0  0  0  0
   -8.7240   20.7570  -32.2410 C   0  0  0  0  0  0  0  0  0  0  0  0
   -7.9940   21.8560  -31.7860 C   0  0  0  0  0  0  0  0  0  0  0  0
   -6.6690   22.0390  -32.1950 C   0  0  0  0  0  0  0  0  0  0  0  0
   -5.9760   23.1780  -31.6980 N   0  0  0  0  0  0  0  0  0  0  0  0
   -5.0270   22.9880  -30.8480 C   0  0  0  0  0  0  0  0  0  0  0  0
   -4.7120   21.7640  -30.4540 N   0  0  0  0  0  0  0  0  0  0  0  0
   -3.7240   21.5710  -29.5710 C   0  0  0  0  0  0  0  0  0  0  0  0
   -2.9620   22.5920  -29.0040 C   0  0  0  0  0  0  0  0  0  0  0  0
   -1.8490   22.3660  -28.0970 C   0  0  0  0  0  0  0  0  0  0  0  0
   -1.7850   20.9160  -28.1390 F   0  0  0  0  0  0  0  0  0  0  0  0
   -0.5700   22.4910  -28.6250 F   0  0  0  0  0  0  0  0  0  0  0  0
   -1.9960   22.4220  -26.7650 F   0  0  0  0  0  0  0  0  0  0  0  0
   -3.3260   23.8680  -29.4420 C   0  0  0  0  0  0  0  0  0  0  0  0
   -2.8200   24.9150  -29.0170 N   0  0  0  0  0  0  0  0  0  0  0  0
   -1.8470   25.1020  -28.0720 C   0  0  0  0  0  0  0  0  0  0  0  0
   -0.4980   25.3110  -28.2300 C   0  0  0  0  0  0  0  0  0  0  0  0
    0.3790   25.5920  -27.2170 C   0  0  0  0  0  0  0  0  0  0  0  0
    1.7710   25.7950  -27.4690 N   0  0  0  0  0  0  0  0  0  0  0  0
    2.5710   24.6280  -27.5890 C   0  0  0  0  0  0  0  0  0  0  0  0
    1.9820   23.5230  -27.4610 O   0  0  0  0  0  0  0  0  0  0  0  0
    4.0040   24.6730  -27.8450 C   0  0  0  0  0  0  0  0  0  0  0  0
    4.5100   25.3130  -28.8860 C   0  0  0  0  0  0  0  0  0  0  0  0
   -0.0670   25.6840  -25.9150 C   0  0  0  0  0  0  0  0  0  0  0  0
   -1.4150   25.4820  -25.7070 C   0  0  0  0  0  0  0  0  0  0  0  0
   -2.2930   25.2010  -26.7190 C   0  0  0  0  0  0  0  0  0  0  0  0
   -3.9880   24.9630  -26.3420 Cl  0  0  0  0  0  0  0  0  0  0  0  0
   -4.3490   24.0160  -30.3530 N   0  0  0  0  0  0  0  0  0  0  0  0
   -6.0660   21.1250  -33.0600 C   0  0  0  0  0  0  0  0  0  0  0  0
   -3.7656   15.4474  -35.4148 H   0  0  0  0  0  0  0  0  0  0  0  0
   -4.5123   15.7442  -33.6873 H   0  0  0  0  0  0  0  0  0  0  0  0
   -4.1125   17.7497  -35.9774 H   0  0  0  0  0  0  0  0  0  0  0  0
   -6.6620   18.9570  -35.3250 H   0  0  0  0  0  0  0  0  0  0  0  0
   -8.6614   19.0105  -33.4568 H   0  0  0  0  0  0  0  0  0  0  0  0
   -9.7669   20.5982  -31.9293 H   0  0  0  0  0  0  0  0  0  0  0  0
   -8.4622   22.5806  -31.1035 H   0  0  0  0  0  0  0  0  0  0  0  0
   -5.2360   20.9500  -30.8340 H   0  0  0  0  0  0  0  0  0  0  0  0
   -3.4981   20.5366  -29.2726 H   0  0  0  0  0  0  0  0  0  0  0  0
   -0.0911   25.2476  -29.2500 H   0  0  0  0  0  0  0  0  0  0  0  0
    2.1900   26.7440  -27.5630 H   0  0  0  0  0  0  0  0  0  0  0  0
    4.6861   24.1592  -27.1516 H   0  0  0  0  0  0  0  0  0  0  0  0
    5.5979   25.3259  -29.0480 H   0  0  0  0  0  0  0  0  0  0  0  0
    3.8429   25.8323  -29.5898 H   0  0  0  0  0  0  0  0  0  0  0  0
    0.6184   25.9073  -25.0842 H   0  0  0  0  0  0  0  0  0  0  0  0
   -1.8030   25.5498  -24.6799 H   0  0  0  0  0  0  0  0  0  0  0  0
   -4.6290   24.9750  -30.6920 H   0  0  0  0  0  0  0  0  0  0  0  0
   -5.0236   21.2704  -33.3799 H   0  0  0  0  0  0  0  0  0  0  0  0
  1  2  2  0
  2  3  1  0
  3  4  2  0
  3  5  1  0
  5  6  1  0
  6  7  2  0
  7  8  1  0
  8  9  2  0
  9 10  1  0
 10 11  1  0
 11 12  2  0
 12 13  1  0
 13 14  1  0
 14 15  2  0
 15 16  1  0
 16 17  1  0
 16 18  1  0
 16 19  1  0
 15 20  1  0
 20 21  2  0
 21 22  1  0
 22 23  2  0
 23 24  1  0
 24 25  1  0
 25 26  1  0
 26 27  2  0
 26 28  1  0
 28 29  2  0
 24 30  2  0
 30 31  1  0
 31 32  2  0
 32 33  1  0
 20 34  1  0
 10 35  2  0
 35  6  1  0
 34 12  1  0
 32 22  1  0
  1 36  1  0
  1 37  1  0
  2 38  1  0
  5 39  1  0
  7 40  1  0
  8 41  1  0
  9 42  1  0
 13 43  1  0
 14 44  1  0
 23 45  1  0
 25 46  1  0
 28 47  1  0
 29 48  1  0
 29 49  1  0
 30 50  1  0
 31 51  1  0
 34 52  1  0
 35 53  1  0
M  END
>  <smiles>  (16) 
C=CC(=O)Nc1cccc(N=c2[nH]cc(C(F)(F)F)c(=Nc3cc(NC(=O)C=C)ccc3Cl)[nH]2)c1

>  <score_type>  (16) 
oracle

>  <origin>  (16) 
adgpu

>  <m_score__min__energy>  (16) 
-8.8800000000000008

>  <m_primary>  (16) 
energy

$$$$
16:0
     RDKit          3D

 59 62  0  0  0  0  0  0  0  0999 V2000
   -1.6745   21.5978  -30.3691 H   0  0  0  0  0  0  0  0  0  0  0  0
   -2.2180   21.3260  -31.2860 C   0  0  0  0  0  0  0  0  0  0  0  0
   -2.9600   22.2620  -31.9370 N   0  0  0  0  0  0  0  0  0  0  0  0
   -3.6400   21.9640  -33.0770 C   0  0  0  0  0  0  0  0  0  0  0  0
   -4.2273   22.7429  -33.5853 H   0  0  0  0  0  0  0  0  0  0  0  0
   -3.5940   20.6720  -33.6030 C   0  0  0  0  0  0  0  0  0  0  0  0
   -4.1368   20.4319  -34.5292 H   0  0  0  0  0  0  0  0  0  0  0  0
   -2.8510   19.6810  -32.9430 C   0  0  0  0  0  0  0  0  0  0  0  0
   -2.7630   18.2920  -33.5090 C   0  0  0  0  0  0  0  0  0  0  0  0
   -2.4083   17.6028  -32.7285 H   0  0  0  0  0  0  0  0  0  0  0  0
   -2.0606   18.2918  -34.3556 H   0  0  0  0  0  0  0  0  0  0  0  0
   -4.1070   17.8470  -33.9880 C   0  0  0  0  0  0  0  0  0  0  0  0
   -4.3800   17.9170  -35.2180 O   0  0  0  0  0  0  0  0  0  0  0  0
   -5.0770   17.3990  -33.0280 N   0  0  0  0  0  0  0  0  0  0  0  0
   -6.0760   18.0750  -32.5370 C   0  0  0  0  0  0  0  0  0  0  0  0
   -6.5170   19.6580  -32.9280 S   0  0  0  0  0  0  0  0  0  0  0  0
   -7.8630   19.5640  -31.9150 C   0  0  0  0  0  0  0  0  0  0  0  0
   -8.7870   20.7090  -31.6310 C   0  0  0  0  0  0  0  0  0  0  0  0
   -9.4936   20.4004  -30.8465 H   0  0  0  0  0  0  0  0  0  0  0  0
   -9.2952   20.9575  -32.5744 H   0  0  0  0  0  0  0  0  0  0  0  0
   -8.0590   21.9800  -31.1590 C   0  0  0  0  0  0  0  0  0  0  0  0
   -7.3222   21.6916  -30.3948 H   0  0  0  0  0  0  0  0  0  0  0  0
   -8.8314   22.6607  -30.7717 H   0  0  0  0  0  0  0  0  0  0  0  0
   -7.3200   22.7410  -32.2810 C   0  0  0  0  0  0  0  0  0  0  0  0
   -8.0076   22.8525  -33.1324 H   0  0  0  0  0  0  0  0  0  0  0  0
   -6.4265   22.1487  -32.5278 H   0  0  0  0  0  0  0  0  0  0  0  0
   -6.8230   24.1410  -31.8760 C   0  0  0  0  0  0  0  0  0  0  0  0
   -7.6576   24.6817  -31.4057 H   0  0  0  0  0  0  0  0  0  0  0  0
   -6.4656   24.6299  -32.7943 H   0  0  0  0  0  0  0  0  0  0  0  0
   -5.6670   24.1250  -30.9130 C   0  0  0  0  0  0  0  0  0  0  0  0
   -4.6290   24.9900  -31.0680 N   0  0  0  0  0  0  0  0  0  0  0  0
   -3.5660   24.9610  -30.2630 N   0  0  0  0  0  0  0  0  0  0  0  0
   -3.4550   24.0540  -29.2550 C   0  0  0  0  0  0  0  0  0  0  0  0
   -2.4200   24.0330  -28.4660 N   0  0  0  0  0  0  0  0  0  0  0  0
   -1.3250   24.9620  -28.4250 C   0  0  0  0  0  0  0  0  0  0  0  0
   -1.2450   25.8310  -29.3330 O   0  0  0  0  0  0  0  0  0  0  0  0
   -0.2110   24.8730  -27.4110 C   0  0  0  0  0  0  0  0  0  0  0  0
   -0.1350   23.8333  -27.0600 H   0  0  0  0  0  0  0  0  0  0  0  0
    0.7168   25.2013  -27.9023 H   0  0  0  0  0  0  0  0  0  0  0  0
   -0.4440   25.7710  -26.2200 C   0  0  0  0  0  0  0  0  0  0  0  0
   -0.4910   25.2300  -24.9230 C   0  0  0  0  0  0  0  0  0  0  0  0
   -0.3881   24.1443  -24.7792 H   0  0  0  0  0  0  0  0  0  0  0  0
   -0.6680   26.0650  -23.8140 C   0  0  0  0  0  0  0  0  0  0  0  0
   -0.7182   25.6329  -22.8037 H   0  0  0  0  0  0  0  0  0  0  0  0
   -0.7810   27.4460  -23.9880 C   0  0  0  0  0  0  0  0  0  0  0  0
   -0.9250   28.1006  -23.1158 H   0  0  0  0  0  0  0  0  0  0  0  0
   -0.7110   27.9960  -25.2710 C   0  0  0  0  0  0  0  0  0  0  0  0
   -0.7945   29.0843  -25.4071 H   0  0  0  0  0  0  0  0  0  0  0  0
   -0.5350   27.1650  -26.3820 C   0  0  0  0  0  0  0  0  0  0  0  0
   -0.4674   27.6042  -27.3882 H   0  0  0  0  0  0  0  0  0  0  0  0
   -4.4670   23.1080  -29.0840 C   0  0  0  0  0  0  0  0  0  0  0  0
   -4.3852   22.3427  -28.2981 H   0  0  0  0  0  0  0  0  0  0  0  0
   -5.5820   23.1430  -29.9190 C   0  0  0  0  0  0  0  0  0  0  0  0
   -6.3887   22.4051  -29.7981 H   0  0  0  0  0  0  0  0  0  0  0  0
   -7.9170   18.3700  -31.2820 N   0  0  0  0  0  0  0  0  0  0  0  0
   -6.9350   17.5450  -31.6410 N   0  0  0  0  0  0  0  0  0  0  0  0
   -6.8510   16.5790  -31.2550 H   0  0  0  0  0  0  0  0  0  0  0  0
   -2.1440   20.0210  -31.7780 C   0  0  0  0  0  0  0  0  0  0  0  0
   -1.5370   19.2657  -31.2574 H   0  0  0  0  0  0  0  0  0  0  0  0
  1  2  1  0
  2  3  2  0
  3  4  1  0
  4  5  1  0
  4  6  2  0
  6  7  1  0
  6  8  1  0
  8  9  1  0
  9 10  1  0
  9 11  1  0
  9 12  1  0
 12 13  2  0
 12 14  1  0
 14 15  2  0
 15 16  1  0
 16 17  1  0
 17 18  1  0
 18 19  1  0
 18 20  1  0
 18 21  1  0
 21 22  1  0
 21 23  1  0
 21 24  1  0
 24 25  1  0
 24 26  1  0
 24 27  1  0
 27 28  1  0
 27 29  1  0
 27 30  1  0
 30 31  2  0
 31 32  1  0
 32 33  1  0
 33 34  2  0
 34 35  1  0
 35 36  2  0
 35 37  1  0
 37 38  1  0
 37 39  1  0
 37 40  1  0
 40 41  2  0
 41 42  1  0
 41 43  1  0
 43 44  1  0
 43 45  2  0
 45 46  1  0
 45 47  1  0
 47 48  1  0
 47 49  2  0
 49 50  1  0
 33 51  1  0
 51 52  1  0
 51 53  2  0
 53 54  1  0
 17 55  2  0
 55 56  1  0
 56 57  1  0
  8 58  2  0
 58 59  1  0
 58  2  1  0
 56 15  1  0
 53 30  1  0
 49 40  1  0
M  CHG  1  32  -1
M  END
>  <UniqueID>  (17) 
14

>  <SMILES>  (17) 
O=C(Cc1ccccc1)/N=c1/ccc(CCCCc2n[nH]/c(=N/C(=O)Cc3ccncc3)s2)n[n-]1

>  <Energy>  (17) 
97.12772309330383

>  <Genealogy>  (17) 
O=C(Cc1ccccc1)N=c1ccc(CCCCc2n[nH]c(=NC(=O)Cc3ccncc3)s2)n[n-]1 (protonated)
O=C(Cc1ccccc1)/N=c1/ccc(CCCCc2n[nH]/c(=N/C(=O)Cc3ccncc3)s2)n[n-]1 (cis-trans isomerization)
O=C(Cc1ccccc1)/N=c1/ccc(CCCCc2n[nH]/c(=N/C(=O)Cc3ccncc3)s2)n[n-]1 (3D coordinates assigned)
O=C(Cc1ccccc1)/N=c1/ccc(CCCCc2n[nH]/c(=N/C(=O)Cc3ccncc3)s2)n[n-]1 (optimized conformer: 97.12772309330383 kcal/mol)

>  <smiles>  (17) 
O=C(Cc1ccccc1)N=c1ccc(CCCCc2n[nH]c(=NC(=O)Cc3ccncc3)s2)n[nH]1

>  <score_type>  (17) 
oracle

>  <origin>  (17) 
adgpu

>  <m_score__min__energy>  (17) 
-12.27

>  <m_primary>  (17) 
energy

$$$$
17:0
     RDKit          3D

 57 60  0  0  1  0  0  0  0  0999 V2000
    4.1170   18.8340  -34.7420 C   0  0  0  0  0  0  0  0  0  0  0  0
    3.1280   18.2920  -35.7420 C   0  0  0  0  0  0  0  0  0  0  0  0
    1.7780   18.1820  -35.2000 N   0  0  0  0  0  0  0  0  0  0  0  0
    1.0520   19.2420  -35.0710 C   0  0  0  0  0  0  0  0  0  0  0  0
   -0.2260   19.1640  -34.5610 C   0  0  0  0  0  0  0  0  0  0  0  0
   -1.0100   20.2860  -34.4200 C   0  0  0  0  0  0  0  0  0  0  0  0
   -2.3660   20.2620  -33.8870 C   0  0  0  0  0  0  0  0  0  0  0  0
   -2.7940   21.2200  -33.1660 O   0  0  0  0  0  0  0  0  0  0  0  0
   -3.2610   19.1880  -34.1420 N   0  0  0  0  0  0  0  0  0  0  0  0
   -4.5760   19.1890  -33.6120 C   0  0  0  0  0  0  0  0  0  0  0  0
   -5.3740   20.3000  -33.7900 C   0  0  0  0  0  0  0  0  0  0  0  0
   -6.6670   20.3480  -33.2900 C   0  0  0  0  0  0  0  0  0  0  0  0
   -7.2150   19.2710  -32.5860 C   0  0  0  0  0  0  0  0  0  0  0  0
   -8.8430   19.3310  -31.9590 S   0  0  0  0  0  0  0  0  0  0  0  0
   -9.0840   18.1920  -31.0120 O   0  0  0  0  0  0  0  0  0  0  0  0
   -9.8460   19.1990  -33.0790 O   0  0  0  0  0  0  0  0  0  0  0  0
   -9.1570   20.7900  -31.1000 N   0  0  0  0  0  0  0  0  0  0  0  0
   -9.7470   21.7810  -31.9440 C   0  0  0  0  0  0  0  0  0  0  0  0
   -8.7730   22.9420  -32.0380 C   0  0  0  0  0  0  0  0  0  0  0  0
   -7.9930   22.8200  -30.7470 C   0  0  0  0  0  0  0  0  0  0  0  0
   -7.9220   21.3100  -30.5990 C   0  0  0  0  0  0  0  0  0  0  0  0
   -6.3870   18.1810  -32.4310 C   0  0  0  0  0  0  0  0  0  0  0  0
   -5.1010   18.1240  -32.9230 C   0  0  0  0  0  0  0  0  0  0  0  0
   -0.4750   21.4570  -34.8000 N   0  0  0  0  0  0  0  0  0  0  0  0
    0.7460   21.5850  -35.2940 C   0  0  0  0  0  0  0  0  0  0  0  0
    1.3540   22.8410  -35.7140 C   0  0  0  0  0  0  0  0  0  0  0  0
    2.7430   23.0010  -35.7750 C   0  0  0  0  0  0  0  0  0  0  0  0
    3.3270   24.1860  -36.1710 C   0  0  0  0  0  0  0  0  0  0  0  0
    2.5550   25.2720  -36.5290 C   0  0  0  0  0  0  0  0  0  0  0  0
    1.1840   25.1410  -36.4780 C   0  0  0  0  0  0  0  0  0  0  0  0
    0.6090   23.9430  -36.0770 C   0  0  0  0  0  0  0  0  0  0  0  0
    1.4910   20.4630  -35.4210 N   0  0  0  0  0  0  0  0  0  0  0  0
    3.7542   18.6352  -33.7228 H   0  0  0  0  0  0  0  0  0  0  0  0
    5.0909   18.3436  -34.8867 H   0  0  0  0  0  0  0  0  0  0  0  0
    4.2276   19.9188  -34.8867 H   0  0  0  0  0  0  0  0  0  0  0  0
    3.1036   18.9646  -36.6120 H   0  0  0  0  0  0  0  0  0  0  0  0
    3.4574   17.2794  -36.0179 H   0  0  0  0  0  0  0  0  0  0  0  0
   -0.6274   18.1849  -34.2606 H   0  0  0  0  0  0  0  0  0  0  0  0
   -2.9770   18.3730  -34.7240 H   0  0  0  0  0  0  0  0  0  0  0  0
   -4.9767   21.1659  -34.3399 H   0  0  0  0  0  0  0  0  0  0  0  0
   -7.2736   21.2515  -33.4505 H   0  0  0  0  0  0  0  0  0  0  0  0
   -9.9287   21.3617  -32.9446 H   0  0  0  0  0  0  0  0  0  0  0  0
  -10.7099   22.1166  -31.5314 H   0  0  0  0  0  0  0  0  0  0  0  0
   -8.1136   22.8380  -32.9123 H   0  0  0  0  0  0  0  0  0  0  0  0
   -9.2647   23.9180  -32.1629 H   0  0  0  0  0  0  0  0  0  0  0  0
   -6.9912   23.2656  -30.8356 H   0  0  0  0  0  0  0  0  0  0  0  0
   -8.4458   23.3408  -29.8904 H   0  0  0  0  0  0  0  0  0  0  0  0
   -7.0785   20.9111  -31.1815 H   0  0  0  0  0  0  0  0  0  0  0  0
   -7.7681   21.0219  -29.5486 H   0  0  0  0  0  0  0  0  0  0  0  0
   -6.7736   17.3082  -31.8845 H   0  0  0  0  0  0  0  0  0  0  0  0
   -4.4928   17.2215  -32.7630 H   0  0  0  0  0  0  0  0  0  0  0  0
   -1.0660   22.3080  -34.6930 H   0  0  0  0  0  0  0  0  0  0  0  0
    3.3893   22.1550  -35.4984 H   0  0  0  0  0  0  0  0  0  0  0  0
    4.4236   24.2664  -36.2019 H   0  0  0  0  0  0  0  0  0  0  0  0
    3.0210   26.2165  -36.8464 H   0  0  0  0  0  0  0  0  0  0  0  0
    0.5423   25.9900  -36.7564 H   0  0  0  0  0  0  0  0  0  0  0  0
   -0.4882   23.8696  -36.0475 H   0  0  0  0  0  0  0  0  0  0  0  0
  1  2  1  0
  2  3  1  0
  3  4  2  0
  4  5  1  0
  5  6  2  0
  6  7  1  0
  7  8  2  0
  7  9  1  0
  9 10  1  0
 10 11  2  0
 11 12  1  0
 12 13  2  0
 13 14  1  0
 14 15  2  0
 14 16  2  0
 14 17  1  0
 17 18  1  0
 18 19  1  0
 19 20  1  0
 20 21  1  0
 13 22  1  0
 22 23  2  0
  6 24  1  0
 24 25  1  0
 25 26  1  0
 26 27  2  0
 27 28  1  0
 28 29  2  0
 29 30  1  0
 30 31  2  0
 25 32  2  0
 32  4  1  0
 23 10  1  0
 31 26  1  0
 21 17  1  0
  1 33  1  0
  1 34  1  0
  1 35  1  0
  2 36  1  0
  2 37  1  0
  5 38  1  0
  9 39  1  0
 11 40  1  0
 12 41  1  0
 18 42  1  0
 18 43  1  0
 19 44  1  0
 19 45  1  0
 20 46  1  0
 20 47  1  0
 21 48  1  0
 21 49  1  0
 22 50  1  0
 23 51  1  0
 24 52  1  0
 27 53  1  0
 28 54  1  0
 29 55  1  0
 30 56  1  0
 31 57  1  0
M  END
>  <smiles>  (18) 
CCN=c1cc(C(=O)Nc2ccc(S(=O)(=O)N3CCCC3)cc2)[nH]c(-c2ccccc2)n1

>  <score_type>  (18) 
oracle

>  <origin>  (18) 
adgpu

>  <m_score__min__energy>  (18) 
-9.9399999999999995

>  <m_primary>  (18) 
energy

$$$$
18:0
     RDKit          3D

 56 59  0  0  0  0  0  0  0  0999 V2000
   -3.8630   25.3450  -30.8300 N   0  0  0  0  0  0  0  0  0  0  0  0
   -4.9510   24.7120  -30.1590 C   0  0  0  0  0  0  0  0  0  0  0  0
   -5.1060   24.9040  -28.9230 O   0  0  0  0  0  0  0  0  0  0  0  0
   -5.8890   23.8390  -30.9030 C   0  0  0  0  0  0  0  0  0  0  0  0
   -7.2750   24.0640  -30.8380 C   0  0  0  0  0  0  0  0  0  0  0  0
   -8.1610   23.2340  -31.5270 C   0  0  0  0  0  0  0  0  0  0  0  0
   -7.6760   22.1750  -32.2980 C   0  0  0  0  0  0  0  0  0  0  0  0
   -6.2940   21.9440  -32.3960 C   0  0  0  0  0  0  0  0  0  0  0  0
   -5.7700   20.8480  -33.1670 N   0  0  0  0  0  0  0  0  0  0  0  0
   -6.3070   19.5140  -33.1250 C   0  0  0  0  0  0  0  0  0  0  0  0
   -7.4930   19.3310  -32.7390 O   0  0  0  0  0  0  0  0  0  0  0  0
   -5.5000   18.3560  -33.5780 C   0  0  0  0  0  0  0  0  0  0  0  0
   -5.1100   18.2260  -34.9240 C   0  0  0  0  0  0  0  0  0  0  0  0
   -4.3500   17.1300  -35.3410 C   0  0  0  0  0  0  0  0  0  0  0  0
   -3.9640   16.1460  -34.4210 C   0  0  0  0  0  0  0  0  0  0  0  0
   -3.0340   14.7430  -34.9570 S   0  0  0  0  0  0  0  0  0  0  0  0
   -2.7870   14.8470  -36.4360 O   0  0  0  0  0  0  0  0  0  0  0  0
   -3.8310   13.4930  -34.7050 O   0  0  0  0  0  0  0  0  0  0  0  0
   -1.5020   14.6370  -34.1200 N   0  0  0  0  0  0  0  0  0  0  0  0
   -1.7040   14.1380  -32.7420 C   0  0  0  0  0  0  0  0  0  0  0  0
   -0.5230   14.4780  -31.8290 C   0  0  0  0  0  0  0  0  0  0  0  0
   -0.3140   15.9320  -31.7950 N   0  0  0  0  0  0  0  0  0  0  0  0
    0.2970   16.5590  -30.6460 C   0  0  0  0  0  0  0  0  0  0  0  0
    0.2400   17.9570  -30.4780 C   0  0  0  0  0  0  0  0  0  0  0  0
    0.8340   18.5620  -29.3660 C   0  0  0  0  0  0  0  0  0  0  0  0
    1.4870   17.7830  -28.4090 C   0  0  0  0  0  0  0  0  0  0  0  0
    1.5520   16.3960  -28.5630 C   0  0  0  0  0  0  0  0  0  0  0  0
    0.9610   15.7860  -29.6740 C   0  0  0  0  0  0  0  0  0  0  0  0
   -0.7710   16.7390  -32.9340 C   0  0  0  0  0  0  0  0  0  0  0  0
   -0.7390   15.9030  -34.2220 C   0  0  0  0  0  0  0  0  0  0  0  0
   -4.3280   16.2800  -33.0760 C   0  0  0  0  0  0  0  0  0  0  0  0
   -5.0890   17.3750  -32.6570 C   0  0  0  0  0  0  0  0  0  0  0  0
   -5.4100   22.7690  -31.6820 C   0  0  0  0  0  0  0  0  0  0  0  0
   -2.8930   25.2980  -30.4440 H   0  0  0  0  0  0  0  0  0  0  0  0
   -7.6645   24.9007  -30.2395 H   0  0  0  0  0  0  0  0  0  0  0  0
   -9.2442   23.4144  -31.4626 H   0  0  0  0  0  0  0  0  0  0  0  0
   -8.3798   21.5188  -32.8310 H   0  0  0  0  0  0  0  0  0  0  0  0
   -5.0330   21.0590  -33.8760 H   0  0  0  0  0  0  0  0  0  0  0  0
   -5.4060   18.9937  -35.6540 H   0  0  0  0  0  0  0  0  0  0  0  0
   -4.0534   17.0393  -36.3964 H   0  0  0  0  0  0  0  0  0  0  0  0
   -2.6152   14.5953  -32.3289 H   0  0  0  0  0  0  0  0  0  0  0  0
   -1.7934   13.0426  -32.7874 H   0  0  0  0  0  0  0  0  0  0  0  0
   -0.7337   14.1167  -30.8116 H   0  0  0  0  0  0  0  0  0  0  0  0
    0.3843   13.9926  -32.2178 H   0  0  0  0  0  0  0  0  0  0  0  0
   -0.2753   18.5766  -31.2267 H   0  0  0  0  0  0  0  0  0  0  0  0
    0.7866   19.6543  -29.2450 H   0  0  0  0  0  0  0  0  0  0  0  0
    1.9504   18.2614  -27.5336 H   0  0  0  0  0  0  0  0  0  0  0  0
    2.0685   15.7831  -27.8096 H   0  0  0  0  0  0  0  0  0  0  0  0
    1.0152   14.6934  -29.7896 H   0  0  0  0  0  0  0  0  0  0  0  0
   -1.7999   17.0807  -32.7479 H   0  0  0  0  0  0  0  0  0  0  0  0
   -0.1035   17.6054  -33.0513 H   0  0  0  0  0  0  0  0  0  0  0  0
   -1.1670   16.5034  -35.0383 H   0  0  0  0  0  0  0  0  0  0  0  0
    0.3113   15.6353  -34.4098 H   0  0  0  0  0  0  0  0  0  0  0  0
   -4.0137   15.5201  -32.3455 H   0  0  0  0  0  0  0  0  0  0  0  0
   -5.3691   17.4706  -31.5976 H   0  0  0  0  0  0  0  0  0  0  0  0
   -4.3282   22.5764  -31.7322 H   0  0  0  0  0  0  0  0  0  0  0  0
  1  2  1  0
  2  3  2  0
  2  4  1  0
  4  5  2  0
  5  6  1  0
  6  7  2  0
  7  8  1  0
  8  9  1  0
  9 10  1  0
 10 11  2  0
 10 12  1  0
 12 13  2  0
 13 14  1  0
 14 15  2  0
 15 16  1  0
 16 17  2  0
 16 18  2  0
 16 19  1  0
 19 20  1  0
 20 21  1  0
 21 22  1  0
 22 23  1  0
 23 24  2  0
 24 25  1  0
 25 26  2  0
 26 27  1  0
 27 28  2  0
 22 29  1  0
 29 30  1  0
 15 31  1  0
 31 32  2  0
  8 33  2  0
 33  4  1  0
 32 12  1  0
 30 19  1  0
 28 23  1  0
  1 34  1  0
  5 35  1  0
  6 36  1  0
  7 37  1  0
  9 38  1  0
 13 39  1  0
 14 40  1  0
 20 41  1  0
 20 42  1  0
 21 43  1  0
 21 44  1  0
 24 45  1  0
 25 46  1  0
 26 47  1  0
 27 48  1  0
 28 49  1  0
 29 50  1  0
 29 51  1  0
 30 52  1  0
 30 53  1  0
 31 54  1  0
 32 55  1  0
 33 56  1  0
M  CHG  1   1  -1
M  END
>  <UniqueID>  (19) 
15

>  <SMILES>  (19) 
[NH-]C(=O)c1cccc(NC(=O)c2ccc(S(=O)(=O)N3CCN(c4ccccc4)CC3)cc2)c1

>  <Energy>  (19) 
73.17739531196466

>  <Genealogy>  (19) 
[NH-]C(=O)c1cccc(NC(=O)c2ccc(S(=O)(=O)N3CCN(c4ccccc4)CC3)cc2)c1 (protonated)
[NH-]C(=O)c1cccc(NC(=O)c2ccc(S(=O)(=O)N3CCN(c4ccccc4)CC3)cc2)c1 (3D coordinates assigned)
[NH-]C(=O)c1cccc(NC(=O)c2ccc(S(=O)(=O)N3CCN(c4ccccc4)CC3)cc2)c1 (nonaromatic ring conformer: 73.17739531196466 kcal/mol)

>  <smiles>  (19) 
NC(=O)c1cccc(NC(=O)c2ccc(S(=O)(=O)N3CCN(c4ccccc4)CC3)cc2)c1

>  <score_type>  (19) 
oracle

>  <origin>  (19) 
adgpu

>  <m_score__min__energy>  (19) 
-11

>  <m_primary>  (19) 
energy

$$$$
19:0
     RDKit          3D

 51 53  0  0  0  0  0  0  0  0999 V2000
   -4.1770   13.2330  -31.2200 C   0  0  0  0  0  0  0  0  0  0  0  0
   -4.9940   14.2750  -31.7420 O   0  0  0  0  0  0  0  0  0  0  0  0
   -4.6660   15.0510  -32.8650 C   0  0  0  0  0  0  0  0  0  0  0  0
   -3.4680   14.7780  -33.5340 C   0  0  0  0  0  0  0  0  0  0  0  0
   -3.0940   15.5250  -34.6540 C   0  0  0  0  0  0  0  0  0  0  0  0
   -3.9160   16.5560  -35.1120 C   0  0  0  0  0  0  0  0  0  0  0  0
   -5.1240   16.8420  -34.4580 C   0  0  0  0  0  0  0  0  0  0  0  0
   -5.9830   17.9800  -34.9330 C   0  0  0  0  0  0  0  0  0  0  0  0
   -5.6390   19.2060  -34.2140 N   0  0  0  0  0  0  0  0  0  0  0  0
   -6.4170   19.6850  -33.1030 C   0  0  0  0  0  0  0  0  0  0  0  0
   -7.4170   19.0240  -32.7100 O   0  0  0  0  0  0  0  0  0  0  0  0
   -6.0520   20.9320  -32.3900 C   0  0  0  0  0  0  0  0  0  0  0  0
   -6.9560   22.0100  -32.3660 C   0  0  0  0  0  0  0  0  0  0  0  0
   -6.6270   23.2000  -31.7140 C   0  0  0  0  0  0  0  0  0  0  0  0
   -5.3860   23.3380  -31.0840 C   0  0  0  0  0  0  0  0  0  0  0  0
   -4.9780   24.8600  -30.2990 S   0  0  0  0  0  0  0  0  0  0  0  0
   -5.3700   25.9910  -31.1980 O   0  0  0  0  0  0  0  0  0  0  0  0
   -5.6960   25.0020  -28.9890 O   0  0  0  0  0  0  0  0  0  0  0  0
   -3.2680   24.9200  -30.0230 N   0  0  0  0  0  0  0  0  0  0  0  0
   -2.5860   24.2420  -28.9620 C   0  0  0  0  0  0  0  0  0  0  0  0
   -2.9110   22.9210  -28.6070 C   0  0  0  0  0  0  0  0  0  0  0  0
   -2.2190   22.2740  -27.5800 C   0  0  0  0  0  0  0  0  0  0  0  0
   -1.1970   22.9330  -26.9000 C   0  0  0  0  0  0  0  0  0  0  0  0
   -0.8650   24.2460  -27.2430 C   0  0  0  0  0  0  0  0  0  0  0  0
   -1.5600   24.9130  -28.2760 C   0  0  0  0  0  0  0  0  0  0  0  0
   -1.2440   26.2300  -28.6570 O   0  0  0  0  0  0  0  0  0  0  0  0
   -0.6280   27.1820  -27.8010 C   0  0  0  0  0  0  0  0  0  0  0  0
   -4.4760   22.2720  -31.1040 C   0  0  0  0  0  0  0  0  0  0  0  0
   -4.8050   21.0770  -31.7540 C   0  0  0  0  0  0  0  0  0  0  0  0
   -5.4950   16.0880  -33.3330 C   0  0  0  0  0  0  0  0  0  0  0  0
   -4.2012   13.2639  -30.1207 H   0  0  0  0  0  0  0  0  0  0  0  0
   -4.5560   12.2607  -31.5679 H   0  0  0  0  0  0  0  0  0  0  0  0
   -3.1424   13.3691  -31.5679 H   0  0  0  0  0  0  0  0  0  0  0  0
   -2.8151   13.9686  -33.1753 H   0  0  0  0  0  0  0  0  0  0  0  0
   -2.1515   15.3006  -35.1749 H   0  0  0  0  0  0  0  0  0  0  0  0
   -3.6154   17.1470  -35.9897 H   0  0  0  0  0  0  0  0  0  0  0  0
   -5.8209   18.1327  -36.0102 H   0  0  0  0  0  0  0  0  0  0  0  0
   -7.0388   17.7366  -34.7432 H   0  0  0  0  0  0  0  0  0  0  0  0
   -4.7690   19.7040  -34.4980 H   0  0  0  0  0  0  0  0  0  0  0  0
   -7.9313   21.9143  -32.8657 H   0  0  0  0  0  0  0  0  0  0  0  0
   -7.3464   24.0319  -31.6958 H   0  0  0  0  0  0  0  0  0  0  0  0
   -3.7151   22.3936  -29.1411 H   0  0  0  0  0  0  0  0  0  0  0  0
   -2.4819   21.2412  -27.3075 H   0  0  0  0  0  0  0  0  0  0  0  0
   -0.6521   22.4200  -26.0939 H   0  0  0  0  0  0  0  0  0  0  0  0
   -0.0571   24.7637  -26.7051 H   0  0  0  0  0  0  0  0  0  0  0  0
   -0.8085   26.9031  -26.7524 H   0  0  0  0  0  0  0  0  0  0  0  0
    0.4548   27.2021  -27.9939 H   0  0  0  0  0  0  0  0  0  0  0  0
   -1.0534   28.1779  -27.9939 H   0  0  0  0  0  0  0  0  0  0  0  0
   -3.5000   22.3750  -30.6072 H   0  0  0  0  0  0  0  0  0  0  0  0
   -4.0844   20.2460  -31.7678 H   0  0  0  0  0  0  0  0  0  0  0  0
   -6.4394   16.3091  -32.8141 H   0  0  0  0  0  0  0  0  0  0  0  0
  1  2  1  0
  2  3  1  0
  3  4  2  0
  4  5  1  0
  5  6  2  0
  6  7  1  0
  7  8  1  0
  8  9  1  0
  9 10  1  0
 10 11  2  0
 10 12  1  0
 12 13  2  0
 13 14  1  0
 14 15  2  0
 15 16  1  0
 16 17  2  0
 16 18  2  0
 16 19  1  0
 19 20  1  0
 20 21  2  0
 21 22  1  0
 22 23  2  0
 23 24  1  0
 24 25  2  0
 25 26  1  0
 26 27  1  0
 15 28  1  0
 28 29  2  0
  7 30  2  0
 30  3  1  0
 29 12  1  0
 25 20  1  0
  1 31  1  0
  1 32  1  0
  1 33  1  0
  4 34  1  0
  5 35  1  0
  6 36  1  0
  8 37  1  0
  8 38  1  0
  9 39  1  0
 13 40  1  0
 14 41  1  0
 21 42  1  0
 22 43  1  0
 23 44  1  0
 24 45  1  0
 27 46  1  0
 27 47  1  0
 27 48  1  0
 28 49  1  0
 29 50  1  0
 30 51  1  0
M  CHG  1  19  -1
M  END
>  <UniqueID>  (20) 
16

>  <SMILES>  (20) 
COc1cccc(CNC(=O)c2ccc(S(=O)(=O)[N-]c3ccccc3OC)cc2)c1

>  <Energy>  (20) 
56.18247496221544

>  <Genealogy>  (20) 
COc1cccc(CNC(=O)c2ccc(S(=O)(=O)[N-]c3ccccc3OC)cc2)c1 (protonated)
COc1cccc(CNC(=O)c2ccc(S(=O)(=O)[N-]c3ccccc3OC)cc2)c1 (3D coordinates assigned)
COc1cccc(CNC(=O)c2ccc(S(=O)(=O)[N-]c3ccccc3OC)cc2)c1 (optimized conformer: 56.18247496221544 kcal/mol)

>  <smiles>  (20) 
COc1cccc(CNC(=O)c2ccc(S(=O)(=O)Nc3ccccc3OC)cc2)c1

>  <score_type>  (20) 
oracle

>  <origin>  (20) 
adgpu

>  <m_score__min__energy>  (20) 
-10.76

>  <m_primary>  (20) 
energy

$$$$
20:0
     RDKit          3D

 49 52  0  0  0  0  0  0  0  0999 V2000
   -3.5110   15.0900  -35.5780 N   0  0  0  0  0  0  0  0  0  0  0  0
   -4.1650   15.6480  -34.6210 C   0  0  0  0  0  0  0  0  0  0  0  0
   -4.2230   15.1480  -33.3660 N   0  0  0  0  0  0  0  0  0  0  0  0
   -4.9350   15.8020  -32.4290 C   0  0  0  0  0  0  0  0  0  0  0  0
   -4.9930   15.3250  -31.2310 N   0  0  0  0  0  0  0  0  0  0  0  0
   -5.6050   16.9760  -32.7290 C   0  0  0  0  0  0  0  0  0  0  0  0
   -6.3970   17.8660  -32.0320 C   0  0  0  0  0  0  0  0  0  0  0  0
   -6.7990   18.8890  -32.8940 C   0  0  0  0  0  0  0  0  0  0  0  0
   -7.6480   20.0390  -32.5740 C   0  0  0  0  0  0  0  0  0  0  0  0
   -8.9630   19.7940  -32.2420 C   0  0  0  0  0  0  0  0  0  0  0  0
   -9.8070   20.8610  -31.9350 C   0  0  0  0  0  0  0  0  0  0  0  0
   -9.3110   22.1610  -31.9680 C   0  0  0  0  0  0  0  0  0  0  0  0
   -8.0060   22.4250  -32.2960 C   0  0  0  0  0  0  0  0  0  0  0  0
   -7.4120   23.7830  -32.3550 C   0  0  0  0  0  0  0  0  0  0  0  0
   -5.9840   23.7660  -32.3270 N   0  0  0  0  0  0  0  0  0  0  0  0
   -5.1930   23.7660  -31.1420 C   0  0  0  0  0  0  0  0  0  0  0  0
   -5.6940   23.7830  -29.9970 O   0  0  0  0  0  0  0  0  0  0  0  0
   -3.7870   23.7470  -31.2030 O   0  0  0  0  0  0  0  0  0  0  0  0
   -3.1870   22.5730  -30.6810 C   0  0  0  0  0  0  0  0  0  0  0  0
   -2.8290   21.6060  -31.7500 C   0  0  0  0  0  0  0  0  0  0  0  0
   -1.5150   21.2390  -32.0010 C   0  0  0  0  0  0  0  0  0  0  0  0
   -1.2770   20.3410  -33.0010 C   0  0  0  0  0  0  0  0  0  0  0  0
   -2.3070   19.8160  -33.7400 C   0  0  0  0  0  0  0  0  0  0  0  0
   -3.6300   20.1670  -33.5090 C   0  0  0  0  0  0  0  0  0  0  0  0
   -3.8880   21.0780  -32.4940 C   0  0  0  0  0  0  0  0  0  0  0  0
   -7.1900   21.3370  -32.5970 C   0  0  0  0  0  0  0  0  0  0  0  0
   -6.2630   18.6190  -34.0710 N   0  0  0  0  0  0  0  0  0  0  0  0
   -5.5300   17.4680  -34.0210 C   0  0  0  0  0  0  0  0  0  0  0  0
   -4.8170   16.8040  -34.9450 N   0  0  0  0  0  0  0  0  0  0  0  0
   -2.9620   14.2070  -35.5050 H   0  0  0  0  0  0  0  0  0  0  0  0
   -3.7040   14.2480  -33.1550 H   0  0  0  0  0  0  0  0  0  0  0  0
   -5.5350   15.8090  -30.4860 H   0  0  0  0  0  0  0  0  0  0  0  0
   -6.6679   17.7831  -30.9691 H   0  0  0  0  0  0  0  0  0  0  0  0
   -9.3447   18.7626  -32.2193 H   0  0  0  0  0  0  0  0  0  0  0  0
  -10.8581   20.6763  -31.6684 H   0  0  0  0  0  0  0  0  0  0  0  0
   -9.9826   22.9976  -31.7249 H   0  0  0  0  0  0  0  0  0  0  0  0
   -7.7392   24.2692  -33.2859 H   0  0  0  0  0  0  0  0  0  0  0  0
   -7.7534   24.3319  -31.4650 H   0  0  0  0  0  0  0  0  0  0  0  0
   -5.4270   23.7520  -33.2300 H   0  0  0  0  0  0  0  0  0  0  0  0
   -2.2736   22.8536  -30.1361 H   0  0  0  0  0  0  0  0  0  0  0  0
   -3.9156   22.0875  -30.0151 H   0  0  0  0  0  0  0  0  0  0  0  0
   -0.6879   21.6600  -31.4106 H   0  0  0  0  0  0  0  0  0  0  0  0
   -0.2434   20.0334  -33.2178 H   0  0  0  0  0  0  0  0  0  0  0  0
   -2.0776   19.0957  -34.5391 H   0  0  0  0  0  0  0  0  0  0  0  0
   -4.4457   19.7380  -34.1095 H   0  0  0  0  0  0  0  0  0  0  0  0
   -4.9220   21.3833  -32.2759 H   0  0  0  0  0  0  0  0  0  0  0  0
   -6.1389   21.5221  -32.8634 H   0  0  0  0  0  0  0  0  0  0  0  0
   -6.3420   19.1590  -34.9630 H   0  0  0  0  0  0  0  0  0  0  0  0
   -4.7650   17.1850  -35.9250 H   0  0  0  0  0  0  0  0  0  0  0  0
  1  2  2  3
  2  3  1  0
  3  4  1  0
  4  5  2  3
  4  6  1  0
  6  7  1  0
  7  8  2  0
  8  9  1  0
  9 10  2  0
 10 11  1  0
 11 12  2  0
 12 13  1  0
 13 14  1  0
 14 15  1  0
 15 16  1  0
 16 17  2  0
 16 18  1  0
 18 19  1  0
 19 20  1  0
 20 21  2  0
 21 22  1  0
 22 23  2  0
 23 24  1  0
 24 25  2  0
 13 26  2  0
  8 27  1  0
 27 28  1  0
 28 29  1  0
 29  2  1  0
 28  6  2  0
 26  9  1  0
 25 20  1  0
  1 30  1  0
  3 31  1  0
  5 32  1  0
  7 33  1  0
 10 34  1  0
 11 35  1  0
 12 36  1  0
 14 37  1  0
 14 38  1  0
 15 39  1  0
 19 40  1  0
 19 41  1  0
 21 42  1  0
 22 43  1  0
 23 44  1  0
 24 45  1  0
 25 46  1  0
 26 47  1  0
 27 48  1  0
 29 49  1  0
M  END
>  <smiles>  (21) 
N=c1[nH]c(=N)c2cc(-c3cccc(CNC(=O)OCc4ccccc4)c3)[nH]c2[nH]1

>  <score_type>  (21) 
oracle

>  <origin>  (21) 
adgpu

>  <m_score__min__energy>  (21) 
-9.5099999999999998

>  <m_primary>  (21) 
energy

$$$$
21:0
     RDKit          3D

 51 55  0  0  0  0  0  0  0  0999 V2000
   -5.0300   24.5450  -31.2300 O   0  0  0  0  0  0  0  0  0  0  0  0
   -5.3340   23.3570  -30.9320 C   0  0  0  0  0  0  0  0  0  0  0  0
   -4.3970   22.5330  -30.2140 N   0  0  0  0  0  0  0  0  0  0  0  0
   -3.1450   23.0090  -29.6910 C   0  0  0  0  0  0  0  0  0  0  0  0
   -1.9670   22.2170  -29.7560 C   0  0  0  0  0  0  0  0  0  0  0  0
   -0.7450   22.7130  -29.2660 C   0  0  0  0  0  0  0  0  0  0  0  0
   -0.7300   23.9990  -28.7380 C   0  0  0  0  0  0  0  0  0  0  0  0
   -1.8450   24.7680  -28.6900 C   0  0  0  0  0  0  0  0  0  0  0  0
   -3.0730   24.3170  -29.1630 C   0  0  0  0  0  0  0  0  0  0  0  0
   -1.5360   25.9920  -28.1270 O   0  0  0  0  0  0  0  0  0  0  0  0
   -0.1400   25.9900  -27.8000 C   0  0  0  0  0  0  0  0  0  0  0  0
    0.3360   24.6990  -28.2070 O   0  0  0  0  0  0  0  0  0  0  0  0
   -6.6610   22.8350  -31.3400 C   0  0  0  0  0  0  0  0  0  0  0  0
   -7.7120   23.7320  -31.6000 C   0  0  0  0  0  0  0  0  0  0  0  0
   -8.9690   23.2570  -31.9860 C   0  0  0  0  0  0  0  0  0  0  0  0
   -9.1870   21.8860  -32.1300 C   0  0  0  0  0  0  0  0  0  0  0  0
   -8.1440   20.9800  -31.8950 C   0  0  0  0  0  0  0  0  0  0  0  0
   -8.3870   19.2490  -32.1150 S   0  0  0  0  0  0  0  0  0  0  0  0
   -9.5000   19.0010  -33.0970 O   0  0  0  0  0  0  0  0  0  0  0  0
   -8.7600   18.6460  -30.7890 O   0  0  0  0  0  0  0  0  0  0  0  0
   -6.9090   18.5260  -32.7040 N   0  0  0  0  0  0  0  0  0  0  0  0
   -6.3940   19.3110  -33.8380 C   0  0  0  0  0  0  0  0  0  0  0  0
   -4.9970   18.8140  -34.2140 C   0  0  0  0  0  0  0  0  0  0  0  0
   -4.9560   17.3130  -34.3420 C   0  0  0  0  0  0  0  0  0  0  0  0
   -3.8620   16.7030  -34.9760 C   0  0  0  0  0  0  0  0  0  0  0  0
   -3.7800   15.3110  -35.0580 C   0  0  0  0  0  0  0  0  0  0  0  0
   -4.7850   14.5160  -34.5020 C   0  0  0  0  0  0  0  0  0  0  0  0
   -5.8740   15.1120  -33.8580 C   0  0  0  0  0  0  0  0  0  0  0  0
   -5.9600   16.5090  -33.7560 C   0  0  0  0  0  0  0  0  0  0  0  0
   -7.1760   17.1390  -33.1220 C   0  0  0  0  0  0  0  0  0  0  0  0
   -6.8850   21.4560  -31.5030 C   0  0  0  0  0  0  0  0  0  0  0  0
   -4.5990   21.5160  -30.0950 H   0  0  0  0  0  0  0  0  0  0  0  0
   -2.0109   21.2084  -30.1928 H   0  0  0  0  0  0  0  0  0  0  0  0
    0.1695   22.1027  -29.2996 H   0  0  0  0  0  0  0  0  0  0  0  0
   -3.9637   24.9615  -29.1268 H   0  0  0  0  0  0  0  0  0  0  0  0
    0.3862   26.7860  -28.3472 H   0  0  0  0  0  0  0  0  0  0  0  0
    0.0334   26.1752  -26.7297 H   0  0  0  0  0  0  0  0  0  0  0  0
   -7.5442   24.8144  -31.4991 H   0  0  0  0  0  0  0  0  0  0  0  0
   -9.7884   23.9657  -32.1767 H   0  0  0  0  0  0  0  0  0  0  0  0
  -10.1790   21.5160  -32.4284 H   0  0  0  0  0  0  0  0  0  0  0  0
   -7.0680   19.1950  -34.6996 H   0  0  0  0  0  0  0  0  0  0  0  0
   -6.3397   20.3721  -33.5530 H   0  0  0  0  0  0  0  0  0  0  0  0
   -4.7059   19.2620  -35.1755 H   0  0  0  0  0  0  0  0  0  0  0  0
   -4.3010   19.1095  -33.4151 H   0  0  0  0  0  0  0  0  0  0  0  0
   -3.0652   17.3245  -35.4105 H   0  0  0  0  0  0  0  0  0  0  0  0
   -2.9227   14.8401  -35.5612 H   0  0  0  0  0  0  0  0  0  0  0  0
   -4.7198   13.4201  -34.5708 H   0  0  0  0  0  0  0  0  0  0  0  0
   -6.6674   14.4823  -33.4291 H   0  0  0  0  0  0  0  0  0  0  0  0
   -8.0002   17.1375  -33.8504 H   0  0  0  0  0  0  0  0  0  0  0  0
   -7.4418   16.5543  -32.2290 H   0  0  0  0  0  0  0  0  0  0  0  0
   -6.0655   20.7451  -31.3214 H   0  0  0  0  0  0  0  0  0  0  0  0
  1  2  2  0
  2  3  1  0
  3  4  1  0
  4  5  2  0
  5  6  1  0
  6  7  2  0
  7  8  1  0
  8  9  2  0
  8 10  1  0
 10 11  1  0
 11 12  1  0
  2 13  1  0
 13 14  2  0
 14 15  1  0
 15 16  2  0
 16 17  1  0
 17 18  1  0
 18 19  2  0
 18 20  2  0
 18 21  1  0
 21 22  1  0
 22 23  1  0
 23 24  1  0
 24 25  2  0
 25 26  1  0
 26 27  2  0
 27 28  1  0
 28 29  2  0
 29 30  1  0
 17 31  2  0
  9  4  1  0
 31 13  1  0
 12  7  1  0
 30 21  1  0
 29 24  1  0
  3 32  1  0
  5 33  1  0
  6 34  1  0
  9 35  1  0
 11 36  1  0
 11 37  1  0
 14 38  1  0
 15 39  1  0
 16 40  1  0
 22 41  1  0
 22 42  1  0
 23 43  1  0
 23 44  1  0
 25 45  1  0
 26 46  1  0
 27 47  1  0
 28 48  1  0
 30 49  1  0
 30 50  1  0
 31 51  1  0
M  END
>  <UniqueID>  (22) 
17

>  <SMILES>  (22) 
O=C(Nc1ccc2c(c1)OCO2)c1cccc(S(=O)(=O)N2CCc3ccccc3C2)c1

>  <Energy>  (22) 
92.0649630168818

>  <Genealogy>  (22) 
O=C(Nc1ccc2c(c1)OCO2)c1cccc(S(=O)(=O)N2CCc3ccccc3C2)c1 (3D coordinates assigned)
O=C(Nc1ccc2c(c1)OCO2)c1cccc(S(=O)(=O)N2CCc3ccccc3C2)c1 (nonaromatic ring conformer: 92.0649630168818 kcal/mol)

>  <smiles>  (22) 
O=C(Nc1ccc2c(c1)OCO2)c1cccc(S(=O)(=O)N2CCc3ccccc3C2)c1

>  <score_type>  (22) 
oracle

>  <origin>  (22) 
adgpu

>  <m_score__min__energy>  (22) 
-10.800000000000001

>  <m_primary>  (22) 
energy

$$$$
22:0
     RDKit          3D

 43 46  0  0  0  0  0  0  0  0999 V2000
   -6.0340   19.3000  -34.6550 C   0  0  0  0  0  0  0  0  0  0  0  0
   -5.5680   18.0150  -34.1140 N   0  0  0  0  0  0  0  0  0  0  0  0
   -4.8600   17.1260  -34.9010 C   0  0  0  0  0  0  0  0  0  0  0  0
   -4.6180   17.3880  -36.1100 O   0  0  0  0  0  0  0  0  0  0  0  0
   -4.3970   15.9010  -34.3710 C   0  0  0  0  0  0  0  0  0  0  0  0
   -4.6480   15.5720  -33.0340 C   0  0  0  0  0  0  0  0  0  0  0  0
   -5.3610   16.4860  -32.2730 C   0  0  0  0  0  0  0  0  0  0  0  0
   -5.7500   16.3490  -30.9930 N   0  0  0  0  0  0  0  0  0  0  0  0
   -6.4640   17.4580  -30.6990 C   0  0  0  0  0  0  0  0  0  0  0  0
   -6.5140   18.3100  -31.7970 C   0  0  0  0  0  0  0  0  0  0  0  0
   -7.3270   19.5310  -31.8750 C   0  0  0  0  0  0  0  0  0  0  0  0
   -8.7230   19.4470  -31.7930 C   0  0  0  0  0  0  0  0  0  0  0  0
   -9.4980   20.6090  -31.7960 C   0  0  0  0  0  0  0  0  0  0  0  0
   -8.8820   21.8590  -31.8890 C   0  0  0  0  0  0  0  0  0  0  0  0
   -7.4900   21.9520  -31.9920 C   0  0  0  0  0  0  0  0  0  0  0  0
   -6.7010   20.7860  -31.9910 C   0  0  0  0  0  0  0  0  0  0  0  0
   -5.3030   20.8370  -32.1160 O   0  0  0  0  0  0  0  0  0  0  0  0
   -4.5190   22.0240  -32.0120 C   0  0  0  0  0  0  0  0  0  0  0  0
   -4.2660   22.3430  -30.5590 C   0  0  0  0  0  0  0  0  0  0  0  0
   -3.5180   21.4270  -29.7970 C   0  0  0  0  0  0  0  0  0  0  0  0
   -3.2930   21.6490  -28.4370 C   0  0  0  0  0  0  0  0  0  0  0  0
   -3.8140   22.7880  -27.8210 C   0  0  0  0  0  0  0  0  0  0  0  0
   -4.5580   23.7060  -28.5630 C   0  0  0  0  0  0  0  0  0  0  0  0
   -4.7930   23.4940  -29.9270 C   0  0  0  0  0  0  0  0  0  0  0  0
   -5.7460   24.6910  -30.7930 Cl  0  0  0  0  0  0  0  0  0  0  0  0
   -5.8040   17.6680  -32.8080 C   0  0  0  0  0  0  0  0  0  0  0  0
   -6.2803   19.9793  -33.8256 H   0  0  0  0  0  0  0  0  0  0  0  0
   -5.2408   19.7473  -35.2721 H   0  0  0  0  0  0  0  0  0  0  0  0
   -6.9295   19.1349  -35.2721 H   0  0  0  0  0  0  0  0  0  0  0  0
   -3.8373   15.2034  -35.0114 H   0  0  0  0  0  0  0  0  0  0  0  0
   -4.2931   14.6242  -32.6031 H   0  0  0  0  0  0  0  0  0  0  0  0
   -5.5710   15.5360  -30.3600 H   0  0  0  0  0  0  0  0  0  0  0  0
   -6.9391   17.6587  -29.7274 H   0  0  0  0  0  0  0  0  0  0  0  0
   -9.2102   18.4631  -31.7261 H   0  0  0  0  0  0  0  0  0  0  0  0
  -10.5935   20.5396  -31.7251 H   0  0  0  0  0  0  0  0  0  0  0  0
   -9.4934   22.7734  -31.8812 H   0  0  0  0  0  0  0  0  0  0  0  0
   -7.0107   22.9387  -32.0740 H   0  0  0  0  0  0  0  0  0  0  0  0
   -3.5580   21.8732  -32.5256 H   0  0  0  0  0  0  0  0  0  0  0  0
   -5.0611   22.8597  -32.4786 H   0  0  0  0  0  0  0  0  0  0  0  0
   -3.1064   20.5271  -30.2773 H   0  0  0  0  0  0  0  0  0  0  0  0
   -2.7055   20.9267  -27.8513 H   0  0  0  0  0  0  0  0  0  0  0  0
   -3.6378   22.9621  -26.7493 H   0  0  0  0  0  0  0  0  0  0  0  0
   -4.9632   24.6034  -28.0725 H   0  0  0  0  0  0  0  0  0  0  0  0
  1  2  1  0
  2  3  1  0
  3  4  2  0
  3  5  1  0
  5  6  2  0
  6  7  1  0
  7  8  1  0
  8  9  1  0
  9 10  2  0
 10 11  1  0
 11 12  2  0
 12 13  1  0
 13 14  2  0
 14 15  1  0
 15 16  2  0
 16 17  1  0
 17 18  1  0
 18 19  1  0
 19 20  2  0
 20 21  1  0
 21 22  2  0
 22 23  1  0
 23 24  2  0
 24 25  1  0
 10 26  1  0
 26  2  1  0
 26  7  2  0
 16 11  1  0
 24 19  1  0
  1 27  1  0
  1 28  1  0
  1 29  1  0
  5 30  1  0
  6 31  1  0
  8 32  1  0
  9 33  1  0
 12 34  1  0
 13 35  1  0
 14 36  1  0
 15 37  1  0
 18 38  1  0
 18 39  1  0
 20 40  1  0
 21 41  1  0
 22 42  1  0
 23 43  1  0
M  END
>  <UniqueID>  (23) 
18

>  <SMILES>  (23) 
Cn1c(=O)ccc2[nH]cc(-c3ccccc3OCc3ccccc3Cl)c21

>  <Energy>  (23) 
93.71442503861583

>  <Genealogy>  (23) 
Cn1c(=O)ccc2[nH]cc(-c3ccccc3OCc3ccccc3Cl)c21 (3D coordinates assigned)
Cn1c(=O)ccc2[nH]cc(-c3ccccc3OCc3ccccc3Cl)c21 (optimized conformer: 93.71442503861583 kcal/mol)

>  <smiles>  (23) 
Cn1c(=O)ccc2[nH]cc(-c3ccccc3OCc3ccccc3Cl)c21

>  <score_type>  (23) 
oracle

>  <origin>  (23) 
adgpu

>  <m_score__min__energy>  (23) 
-8.6600000000000001

>  <m_primary>  (23) 
energy

$$$$
23:0
     RDKit          3D

 50 52  0  0  0  0  0  0  0  0999 V2000
   -0.6800   22.8250  -26.6250 C   0  0  0  0  0  0  0  0  0  0  0  0
   -0.8800   24.1580  -25.9510 C   0  0  0  0  0  0  0  0  0  0  0  0
   -0.1710   24.4360  -24.7690 C   0  0  0  0  0  0  0  0  0  0  0  0
   -0.3440   25.6520  -24.1070 C   0  0  0  0  0  0  0  0  0  0  0  0
   -1.2180   26.6090  -24.6180 C   0  0  0  0  0  0  0  0  0  0  0  0
   -1.9210   26.3550  -25.7970 C   0  0  0  0  0  0  0  0  0  0  0  0
   -1.7610   25.1370  -26.4800 C   0  0  0  0  0  0  0  0  0  0  0  0
   -2.5070   24.9170  -27.7420 C   0  0  0  0  0  0  0  0  0  0  0  0
   -1.9270   25.1100  -28.8440 O   0  0  0  0  0  0  0  0  0  0  0  0
   -3.8900   24.5250  -27.7100 N   0  0  0  0  0  0  0  0  0  0  0  0
   -4.6340   24.1060  -28.8670 C   0  0  0  0  0  0  0  0  0  0  0  0
   -5.3980   25.0180  -29.6180 C   0  0  0  0  0  0  0  0  0  0  0  0
   -6.0880   24.5920  -30.7560 C   0  0  0  0  0  0  0  0  0  0  0  0
   -6.0120   23.2540  -31.1720 C   0  0  0  0  0  0  0  0  0  0  0  0
   -6.7720   22.7820  -32.3810 C   0  0  0  0  0  0  0  0  0  0  0  0
   -6.9660   21.3340  -32.3200 N   0  0  0  0  0  0  0  0  0  0  0  0
   -8.1300   20.7780  -32.0220 N   0  0  0  0  0  0  0  0  0  0  0  0
   -7.9890   19.4430  -32.1300 C   0  0  0  0  0  0  0  0  0  0  0  0
   -9.1020   18.4710  -31.9050 C   0  0  0  0  0  0  0  0  0  0  0  0
   -6.7000   19.1410  -32.5430 C   0  0  0  0  0  0  0  0  0  0  0  0
   -6.1150   17.7800  -32.7860 C   0  0  0  0  0  0  0  0  0  0  0  0
   -6.2260   17.4240  -34.2340 C   0  0  0  0  0  0  0  0  0  0  0  0
   -6.7930   16.3560  -34.5840 O   0  0  0  0  0  0  0  0  0  0  0  0
   -5.7380   18.2920  -35.2030 O   0  0  0  0  0  0  0  0  0  0  0  0
   -6.0680   20.3710  -32.6340 C   0  0  0  0  0  0  0  0  0  0  0  0
   -4.6680   20.6190  -33.1160 C   0  0  0  0  0  0  0  0  0  0  0  0
   -5.2370   22.3480  -30.4340 C   0  0  0  0  0  0  0  0  0  0  0  0
   -4.5450   22.7740  -29.2970 C   0  0  0  0  0  0  0  0  0  0  0  0
   -0.5625   22.0420  -25.8614 H   0  0  0  0  0  0  0  0  0  0  0  0
   -1.5540   22.5968  -27.2528 H   0  0  0  0  0  0  0  0  0  0  0  0
    0.2225   22.8633  -27.2528 H   0  0  0  0  0  0  0  0  0  0  0  0
    0.5261   23.6884  -24.3627 H   0  0  0  0  0  0  0  0  0  0  0  0
    0.2111   25.8555  -23.1794 H   0  0  0  0  0  0  0  0  0  0  0  0
   -1.3542   27.5655  -24.0921 H   0  0  0  0  0  0  0  0  0  0  0  0
   -2.6076   27.1163  -26.1958 H   0  0  0  0  0  0  0  0  0  0  0  0
   -4.4050   24.5810  -26.8020 H   0  0  0  0  0  0  0  0  0  0  0  0
   -5.4525   26.0719  -29.3077 H   0  0  0  0  0  0  0  0  0  0  0  0
   -6.6940   25.3094  -31.3288 H   0  0  0  0  0  0  0  0  0  0  0  0
   -7.7527   23.2793  -32.4111 H   0  0  0  0  0  0  0  0  0  0  0  0
   -6.1981   23.0301  -33.2860 H   0  0  0  0  0  0  0  0  0  0  0  0
   -9.2574   18.3353  -30.8245 H   0  0  0  0  0  0  0  0  0  0  0  0
  -10.0246   18.8577  -32.3624 H   0  0  0  0  0  0  0  0  0  0  0  0
   -8.8430   17.5047  -32.3624 H   0  0  0  0  0  0  0  0  0  0  0  0
   -5.0550   17.7818  -32.4920 H   0  0  0  0  0  0  0  0  0  0  0  0
   -6.6675   17.0390  -32.1897 H   0  0  0  0  0  0  0  0  0  0  0  0
   -3.9982   20.7376  -32.2515 H   0  0  0  0  0  0  0  0  0  0  0  0
   -4.3333   19.7662  -33.7248 H   0  0  0  0  0  0  0  0  0  0  0  0
   -4.6467   21.5349  -33.7248 H   0  0  0  0  0  0  0  0  0  0  0  0
   -5.1734   21.2968  -30.7515 H   0  0  0  0  0  0  0  0  0  0  0  0
   -3.9259   22.0592  -28.7351 H   0  0  0  0  0  0  0  0  0  0  0  0
  1  2  1  0
  2  3  2  0
  3  4  1  0
  4  5  2  0
  5  6  1  0
  6  7  2  0
  7  8  1  0
  8  9  2  0
  8 10  1  0
 10 11  1  0
 11 12  2  0
 12 13  1  0
 13 14  2  0
 14 15  1  0
 15 16  1  0
 16 17  1  0
 17 18  2  0
 18 19  1  0
 18 20  1  0
 20 21  1  0
 21 22  1  0
 22 23  2  0
 22 24  1  0
 20 25  2  0
 25 26  1  0
 14 27  1  0
 27 28  2  0
  7  2  1  0
 28 11  1  0
 25 16  1  0
  1 29  1  0
  1 30  1  0
  1 31  1  0
  3 32  1  0
  4 33  1  0
  5 34  1  0
  6 35  1  0
 10 36  1  0
 12 37  1  0
 13 38  1  0
 15 39  1  0
 15 40  1  0
 19 41  1  0
 19 42  1  0
 19 43  1  0
 21 44  1  0
 21 45  1  0
 26 46  1  0
 26 47  1  0
 26 48  1  0
 27 49  1  0
 28 50  1  0
M  CHG  1  24  -1
M  END
>  <UniqueID>  (24) 
19

>  <SMILES>  (24) 
Cc1ccccc1C(=O)Nc1ccc(Cn2nc(C)c(CC(=O)[O-])c2C)cc1

>  <Energy>  (24) 
85.60552947164899

>  <Genealogy>  (24) 
Cc1ccccc1C(=O)Nc1ccc(Cn2nc(C)c(CC(=O)[O-])c2C)cc1 (protonated)
Cc1ccccc1C(=O)Nc1ccc(Cn2nc(C)c(CC(=O)[O-])c2C)cc1 (3D coordinates assigned)
Cc1ccccc1C(=O)Nc1ccc(Cn2nc(C)c(CC(=O)[O-])c2C)cc1 (optimized conformer: 85.60552947164899 kcal/mol)

>  <smiles>  (24) 
Cc1ccccc1C(=O)Nc1ccc(Cn2nc(C)c(CC(=O)O)c2C)cc1

>  <score_type>  (24) 
oracle

>  <origin>  (24) 
adgpu

>  <m_score__min__energy>  (24) 
-11.02

>  <m_primary>  (24) 
energy

$$$$
24:0
     RDKit          3D

 61 65  0  0  0  0  0  0  0  0999 V2000
   -0.2589   26.0590  -29.2334 H   0  0  0  0  0  0  0  0  0  0  0  0
   -0.9860   25.6370  -28.5240 C   0  0  0  0  0  0  0  0  0  0  0  0
   -2.2020   25.2170  -28.9650 N   0  0  0  0  0  0  0  0  0  0  0  0
   -3.1330   24.6880  -28.1200 C   0  0  0  0  0  0  0  0  0  0  0  0
   -4.2880   24.2940  -28.5630 N   0  0  0  0  0  0  0  0  0  0  0  0
   -4.7660   24.3920  -30.2280 S   0  0  0  0  0  0  0  0  0  0  0  0
   -6.2650   24.3710  -30.3350 O   0  0  0  0  0  0  0  0  0  0  0  0
   -4.2420   25.6690  -30.8250 O   0  0  0  0  0  0  0  0  0  0  0  0
   -4.1090   23.0070  -31.0920 C   0  0  0  0  0  0  0  0  0  0  0  0
   -2.8470   22.4890  -30.7650 C   0  0  0  0  0  0  0  0  0  0  0  0
   -2.2574   22.9488  -29.9582 H   0  0  0  0  0  0  0  0  0  0  0  0
   -2.3370   21.3900  -31.4620 C   0  0  0  0  0  0  0  0  0  0  0  0
   -1.3412   20.9975  -31.2083 H   0  0  0  0  0  0  0  0  0  0  0  0
   -3.0850   20.7830  -32.4830 C   0  0  0  0  0  0  0  0  0  0  0  0
   -2.5300   19.6650  -33.1980 N   0  0  0  0  0  0  0  0  0  0  0  0
   -2.8810   19.4830  -34.1660 H   0  0  0  0  0  0  0  0  0  0  0  0
   -1.4120   18.8940  -32.7280 C   0  0  0  0  0  0  0  0  0  0  0  0
   -0.6360   19.3820  -31.8610 O   0  0  0  0  0  0  0  0  0  0  0  0
   -1.1250   17.5520  -33.2890 C   0  0  0  0  0  0  0  0  0  0  0  0
    0.0470   17.3320  -34.0340 C   0  0  0  0  0  0  0  0  0  0  0  0
    0.7499   18.1609  -34.2038 H   0  0  0  0  0  0  0  0  0  0  0  0
    0.3250   16.0680  -34.5600 C   0  0  0  0  0  0  0  0  0  0  0  0
    1.2428   15.9071  -35.1446 H   0  0  0  0  0  0  0  0  0  0  0  0
   -0.5580   15.0090  -34.3460 C   0  0  0  0  0  0  0  0  0  0  0  0
   -0.3350   14.0156  -34.7625 H   0  0  0  0  0  0  0  0  0  0  0  0
   -1.7260   15.2080  -33.6030 C   0  0  0  0  0  0  0  0  0  0  0  0
   -2.8070   13.8500  -33.3000 S   0  0  0  0  0  0  0  0  0  0  0  0
   -2.0070   12.5790  -33.2020 O   0  0  0  0  0  0  0  0  0  0  0  0
   -3.5100   14.0770  -31.9910 O   0  0  0  0  0  0  0  0  0  0  0  0
   -3.9740   13.7500  -34.6020 N   0  0  0  0  0  0  0  0  0  0  0  0
   -5.3070   14.2170  -34.1830 C   0  0  0  0  0  0  0  0  0  0  0  0
   -5.5116   13.8309  -33.1735 H   0  0  0  0  0  0  0  0  0  0  0  0
   -6.0317   13.8444  -34.9219 H   0  0  0  0  0  0  0  0  0  0  0  0
   -5.4270   15.7220  -34.1550 C   0  0  0  0  0  0  0  0  0  0  0  0
   -6.4710   16.3150  -33.4270 C   0  0  0  0  0  0  0  0  0  0  0  0
   -7.1618   15.6835  -32.8491 H   0  0  0  0  0  0  0  0  0  0  0  0
   -6.6380   17.7020  -33.4320 C   0  0  0  0  0  0  0  0  0  0  0  0
   -7.4539   18.1597  -32.8533 H   0  0  0  0  0  0  0  0  0  0  0  0
   -5.7700   18.5070  -34.1710 C   0  0  0  0  0  0  0  0  0  0  0  0
   -5.9014   19.5991  -34.1721 H   0  0  0  0  0  0  0  0  0  0  0  0
   -4.7350   17.9290  -34.9090 C   0  0  0  0  0  0  0  0  0  0  0  0
   -4.0495   18.5693  -35.4836 H   0  0  0  0  0  0  0  0  0  0  0  0
   -4.5640   16.5350  -34.9220 C   0  0  0  0  0  0  0  0  0  0  0  0
   -3.4010   15.9440  -35.6720 C   0  0  0  0  0  0  0  0  0  0  0  0
   -2.4753   16.1720  -35.1232 H   0  0  0  0  0  0  0  0  0  0  0  0
   -3.3947   16.3861  -36.6792 H   0  0  0  0  0  0  0  0  0  0  0  0
   -3.5150   14.4210  -35.8330 C   0  0  0  0  0  0  0  0  0  0  0  0
   -2.5268   14.0210  -36.1040 H   0  0  0  0  0  0  0  0  0  0  0  0
   -4.2624   14.2252  -36.6160 H   0  0  0  0  0  0  0  0  0  0  0  0
   -2.0040   16.4750  -33.0690 C   0  0  0  0  0  0  0  0  0  0  0  0
   -2.9162   16.6280  -32.4736 H   0  0  0  0  0  0  0  0  0  0  0  0
   -4.3420   21.3160  -32.8190 C   0  0  0  0  0  0  0  0  0  0  0  0
   -4.9276   20.8655  -33.6339 H   0  0  0  0  0  0  0  0  0  0  0  0
   -4.8510   22.4160  -32.1220 C   0  0  0  0  0  0  0  0  0  0  0  0
   -5.8401   22.8195  -32.3843 H   0  0  0  0  0  0  0  0  0  0  0  0
   -2.8390   24.5690  -26.7560 C   0  0  0  0  0  0  0  0  0  0  0  0
   -3.5804   24.1439  -26.0635 H   0  0  0  0  0  0  0  0  0  0  0  0
   -1.5960   24.9950  -26.2830 C   0  0  0  0  0  0  0  0  0  0  0  0
   -1.3542   24.9074  -25.2135 H   0  0  0  0  0  0  0  0  0  0  0  0
   -0.6610   25.5320  -27.1690 C   0  0  0  0  0  0  0  0  0  0  0  0
    0.3208   25.8688  -26.8048 H   0  0  0  0  0  0  0  0  0  0  0  0
  1  2  1  0
  2  3  1  0
  3  4  1  0
  4  5  2  0
  5  6  1  0
  6  7  2  0
  6  8  2  0
  6  9  1  0
  9 10  2  0
 10 11  1  0
 10 12  1  0
 12 13  1  0
 12 14  2  0
 14 15  1  0
 15 16  1  0
 15 17  1  0
 17 18  2  0
 17 19  1  0
 19 20  2  0
 20 21  1  0
 20 22  1  0
 22 23  1  0
 22 24  2  0
 24 25  1  0
 24 26  1  0
 26 27  1  0
 27 28  2  0
 27 29  2  0
 27 30  1  0
 30 31  1  0
 31 32  1  0
 31 33  1  0
 31 34  1  0
 34 35  2  0
 35 36  1  0
 35 37  1  0
 37 38  1  0
 37 39  2  0
 39 40  1  0
 39 41  1  0
 41 42  1  0
 41 43  2  0
 43 44  1  0
 44 45  1  0
 44 46  1  0
 44 47  1  0
 47 48  1  0
 47 49  1  0
 26 50  2  0
 50 51  1  0
 14 52  1  0
 52 53  1  0
 52 54  2  0
 54 55  1  0
  4 56  1  0
 56 57  1  0
 56 58  2  0
 58 59  1  0
 58 60  1  0
 60 61  1  0
 60  2  2  0
 54  9  1  0
 50 19  1  0
 47 30  1  0
 43 34  1  0
M  CHG  1   3  -1
M  END
>  <UniqueID>  (25) 
20

>  <SMILES>  (25) 
O=C(Nc1ccc(S(=O)(=O)/N=c2/cccc[n-]2)cc1)c1cccc(S(=O)(=O)N2CCc3ccccc3C2)c1

>  <Energy>  (25) 
81.68940038755983

>  <Genealogy>  (25) 
O=C(Nc1ccc(S(=O)(=O)N=c2cccc[n-]2)cc1)c1cccc(S(=O)(=O)N2CCc3ccccc3C2)c1 (protonated)
O=C(Nc1ccc(S(=O)(=O)/N=c2/cccc[n-]2)cc1)c1cccc(S(=O)(=O)N2CCc3ccccc3C2)c1 (cis-trans isomerization)
O=C(Nc1ccc(S(=O)(=O)/N=c2/cccc[n-]2)cc1)c1cccc(S(=O)(=O)N2CCc3ccccc3C2)c1 (3D coordinates assigned)
O=C(Nc1ccc(S(=O)(=O)/N=c2/cccc[n-]2)cc1)c1cccc(S(=O)(=O)N2CCc3ccccc3C2)c1 (nonaromatic ring conformer: 81.68940038755983 kcal/mol)

>  <smiles>  (25) 
O=C(Nc1ccc(S(=O)(=O)N=c2cccc[nH]2)cc1)c1cccc(S(=O)(=O)N2CCc3ccccc3C2)c1

>  <score_type>  (25) 
oracle

>  <origin>  (25) 
adgpu

>  <m_score__min__energy>  (25) 
-12.220000000000001

>  <m_primary>  (25) 
energy

$$$$
25:0
     RDKit          3D

 42 44  0  0  0  0  0  0  0  0999 V2000
   -8.5520   22.8430  -31.9660 C   0  0  0  0  0  0  0  0  0  0  0  0
   -7.3170   23.3900  -31.3320 C   0  0  0  0  0  0  0  0  0  0  0  0
   -7.2370   24.5410  -30.5720 C   0  0  0  0  0  0  0  0  0  0  0  0
   -5.9320   24.5660  -30.1260 C   0  0  0  0  0  0  0  0  0  0  0  0
   -5.2990   23.4690  -30.5910 N   0  0  0  0  0  0  0  0  0  0  0  0
   -3.9310   23.1030  -30.3340 C   0  0  0  0  0  0  0  0  0  0  0  0
   -3.1270   23.9360  -29.5370 C   0  0  0  0  0  0  0  0  0  0  0  0
   -1.7690   23.6530  -29.3500 C   0  0  0  0  0  0  0  0  0  0  0  0
   -0.7750   24.7050  -28.3470 S   0  0  0  0  0  0  0  0  0  0  0  0
   -1.1290   26.3560  -28.7140 N   0  0  0  0  0  0  0  0  0  0  0  0
   -1.0580   24.4420  -26.8940 O   0  0  0  0  0  0  0  0  0  0  0  0
    0.6790   24.4360  -28.6100 O   0  0  0  0  0  0  0  0  0  0  0  0
   -1.2060   22.5250  -29.9580 C   0  0  0  0  0  0  0  0  0  0  0  0
   -1.9960   21.6830  -30.7410 C   0  0  0  0  0  0  0  0  0  0  0  0
   -3.3610   21.9450  -30.9180 C   0  0  0  0  0  0  0  0  0  0  0  0
   -4.1510   21.0190  -31.6780 N   0  0  0  0  0  0  0  0  0  0  0  0
   -3.6180   20.2890  -32.7940 C   0  0  0  0  0  0  0  0  0  0  0  0
   -2.5420   20.6690  -33.3350 O   0  0  0  0  0  0  0  0  0  0  0  0
   -4.3110   19.0870  -33.2970 C   0  0  0  0  0  0  0  0  0  0  0  0
   -3.6880   18.2050  -34.1860 C   0  0  0  0  0  0  0  0  0  0  0  0
   -4.3710   17.0680  -34.6070 C   0  0  0  0  0  0  0  0  0  0  0  0
   -5.6610   16.8290  -34.1340 C   0  0  0  0  0  0  0  0  0  0  0  0
   -6.2830   15.7980  -34.5110 O   0  0  0  0  0  0  0  0  0  0  0  0
   -6.2360   17.7150  -33.2630 N   0  0  0  0  0  0  0  0  0  0  0  0
   -7.5840   17.4870  -32.7440 C   0  0  0  0  0  0  0  0  0  0  0  0
   -5.5700   18.8030  -32.8640 N   0  0  0  0  0  0  0  0  0  0  0  0
   -6.1330   22.7510  -31.3250 N   0  0  0  0  0  0  0  0  0  0  0  0
   -9.2584   22.5301  -31.1830 H   0  0  0  0  0  0  0  0  0  0  0  0
   -9.0178   23.6190  -32.5912 H   0  0  0  0  0  0  0  0  0  0  0  0
   -8.2903   21.9766  -32.5912 H   0  0  0  0  0  0  0  0  0  0  0  0
   -8.0335   25.2719  -30.3687 H   0  0  0  0  0  0  0  0  0  0  0  0
   -5.4829   25.3487  -29.4970 H   0  0  0  0  0  0  0  0  0  0  0  0
   -3.5698   24.8200  -29.0549 H   0  0  0  0  0  0  0  0  0  0  0  0
   -1.2010   26.4280  -29.7530 H   0  0  0  0  0  0  0  0  0  0  0  0
   -0.1380   22.3019  -29.8181 H   0  0  0  0  0  0  0  0  0  0  0  0
   -1.5429   20.8048  -31.2242 H   0  0  0  0  0  0  0  0  0  0  0  0
   -5.1780   20.9800  -31.4950 H   0  0  0  0  0  0  0  0  0  0  0  0
   -2.6694   18.4079  -34.5484 H   0  0  0  0  0  0  0  0  0  0  0  0
   -3.8975   16.3638  -35.3069 H   0  0  0  0  0  0  0  0  0  0  0  0
   -7.5591   17.4912  -31.6443 H   0  0  0  0  0  0  0  0  0  0  0  0
   -8.2532   18.2847  -33.0987 H   0  0  0  0  0  0  0  0  0  0  0  0
   -7.9537   16.5136  -33.0987 H   0  0  0  0  0  0  0  0  0  0  0  0
  1  2  1  0
  2  3  1  0
  3  4  2  0
  4  5  1  0
  5  6  1  0
  6  7  2  0
  7  8  1  0
  8  9  1  0
  9 10  1  0
  9 11  2  0
  9 12  2  0
  8 13  2  0
 13 14  1  0
 14 15  2  0
 15 16  1  0
 16 17  1  0
 17 18  2  0
 17 19  1  0
 19 20  1  0
 20 21  2  0
 21 22  1  0
 22 23  2  0
 22 24  1  0
 24 25  1  0
 24 26  1  0
  5 27  1  0
 27  2  2  0
 15  6  1  0
 26 19  2  0
  1 28  1  0
  1 29  1  0
  1 30  1  0
  3 31  1  0
  4 32  1  0
  7 33  1  0
 10 34  1  0
 13 35  1  0
 14 36  1  0
 16 37  1  0
 20 38  1  0
 21 39  1  0
 25 40  1  0
 25 41  1  0
 25 42  1  0
M  CHG  1  10  -1
M  END
>  <UniqueID>  (26) 
21

>  <SMILES>  (26) 
Cc1ccn(-c2cc(S([NH-])(=O)=O)ccc2NC(=O)c2ccc(=O)n(C)n2)n1

>  <Energy>  (26) 
81.62580019876123

>  <Genealogy>  (26) 
Cc1ccn(-c2cc(S([NH-])(=O)=O)ccc2NC(=O)c2ccc(=O)n(C)n2)n1 (protonated)
Cc1ccn(-c2cc(S([NH-])(=O)=O)ccc2NC(=O)c2ccc(=O)n(C)n2)n1 (3D coordinates assigned)
Cc1ccn(-c2cc(S([NH-])(=O)=O)ccc2NC(=O)c2ccc(=O)n(C)n2)n1 (optimized conformer: 81.62580019876123 kcal/mol)

>  <smiles>  (26) 
Cc1ccn(-c2cc(S(N)(=O)=O)ccc2NC(=O)c2ccc(=O)n(C)n2)n1

>  <score_type>  (26) 
oracle

>  <origin>  (26) 
adgpu

>  <m_score__min__energy>  (26) 
-10.119999999999999

>  <m_primary>  (26) 
energy

$$$$
26:0
     RDKit          3D

 45 47  0  0  0  0  0  0  0  0999 V2000
   -0.3790   29.3530  -27.3400 C   0  0  0  0  0  0  0  0  0  0  0  0
   -0.4530   27.9410  -27.5100 O   0  0  0  0  0  0  0  0  0  0  0  0
   -0.5830   27.0190  -26.4580 C   0  0  0  0  0  0  0  0  0  0  0  0
   -0.7020   27.4330  -25.1160 C   0  0  0  0  0  0  0  0  0  0  0  0
   -0.8460   26.4900  -24.0960 C   0  0  0  0  0  0  0  0  0  0  0  0
   -0.8740   25.1290  -24.3980 C   0  0  0  0  0  0  0  0  0  0  0  0
   -0.7550   24.7030  -25.7230 C   0  0  0  0  0  0  0  0  0  0  0  0
   -0.5980   25.6400  -26.7600 C   0  0  0  0  0  0  0  0  0  0  0  0
   -0.4930   25.1670  -28.1830 C   0  0  0  0  0  0  0  0  0  0  0  0
   -1.6550   25.6250  -28.9360 N   0  0  0  0  0  0  0  0  0  0  0  0
   -2.7180   24.7520  -29.3230 C   0  0  0  0  0  0  0  0  0  0  0  0
   -2.6720   23.5290  -29.0230 O   0  0  0  0  0  0  0  0  0  0  0  0
   -3.8530   25.2940  -30.0150 N   0  0  0  0  0  0  0  0  0  0  0  0
   -4.8930   24.4980  -30.6080 C   0  0  0  0  0  0  0  0  0  0  0  0
   -6.2510   24.8300  -30.4540 C   0  0  0  0  0  0  0  0  0  0  0  0
   -7.2440   24.0280  -31.0240 C   0  0  0  0  0  0  0  0  0  0  0  0
   -6.8940   22.8810  -31.7590 C   0  0  0  0  0  0  0  0  0  0  0  0
   -7.8640   22.0480  -32.3380 O   0  0  0  0  0  0  0  0  0  0  0  0
   -7.8470   20.6460  -32.3200 C   0  0  0  0  0  0  0  0  0  0  0  0
   -6.8950   19.9750  -33.0990 C   0  0  0  0  0  0  0  0  0  0  0  0
   -6.8550   18.5770  -33.1190 C   0  0  0  0  0  0  0  0  0  0  0  0
   -7.7760   17.8390  -32.3700 C   0  0  0  0  0  0  0  0  0  0  0  0
   -8.7410   18.4990  -31.6060 C   0  0  0  0  0  0  0  0  0  0  0  0
   -8.7840   19.8970  -31.5820 C   0  0  0  0  0  0  0  0  0  0  0  0
   -5.5460   22.5270  -31.8750 C   0  0  0  0  0  0  0  0  0  0  0  0
   -4.5530   23.3270  -31.3020 C   0  0  0  0  0  0  0  0  0  0  0  0
   -0.3664   29.5929  -26.2666 H   0  0  0  0  0  0  0  0  0  0  0  0
    0.5402   29.7314  -27.8111 H   0  0  0  0  0  0  0  0  0  0  0  0
   -1.2536   29.8254  -27.8111 H   0  0  0  0  0  0  0  0  0  0  0  0
   -0.6813   28.5051  -24.8706 H   0  0  0  0  0  0  0  0  0  0  0  0
   -0.9376   26.8219  -23.0513 H   0  0  0  0  0  0  0  0  0  0  0  0
   -0.9900   24.3898  -23.5917 H   0  0  0  0  0  0  0  0  0  0  0  0
   -0.7843   23.6285  -25.9567 H   0  0  0  0  0  0  0  0  0  0  0  0
    0.4221   25.5741  -28.6379 H   0  0  0  0  0  0  0  0  0  0  0  0
   -0.4548   24.0678  -28.2015 H   0  0  0  0  0  0  0  0  0  0  0  0
   -3.9670   26.3320  -30.0110 H   0  0  0  0  0  0  0  0  0  0  0  0
   -6.5334   25.7260  -29.8817 H   0  0  0  0  0  0  0  0  0  0  0  0
   -8.3035   24.2951  -30.8972 H   0  0  0  0  0  0  0  0  0  0  0  0
   -6.1748   20.5511  -33.6984 H   0  0  0  0  0  0  0  0  0  0  0  0
   -6.0979   18.0577  -33.7249 H   0  0  0  0  0  0  0  0  0  0  0  0
   -7.7408   16.7396  -32.3823 H   0  0  0  0  0  0  0  0  0  0  0  0
   -9.4694   17.9178  -31.0214 H   0  0  0  0  0  0  0  0  0  0  0  0
   -9.5512   20.4124  -30.9855 H   0  0  0  0  0  0  0  0  0  0  0  0
   -5.2654   21.6138  -32.4203 H   0  0  0  0  0  0  0  0  0  0  0  0
   -3.4964   23.0360  -31.3960 H   0  0  0  0  0  0  0  0  0  0  0  0
  1  2  1  0
  2  3  1  0
  3  4  2  0
  4  5  1  0
  5  6  2  0
  6  7  1  0
  7  8  2  0
  8  9  1  0
  9 10  1  0
 10 11  1  0
 11 12  2  0
 11 13  1  0
 13 14  1  0
 14 15  2  0
 15 16  1  0
 16 17  2  0
 17 18  1  0
 18 19  1  0
 19 20  2  0
 20 21  1  0
 21 22  2  0
 22 23  1  0
 23 24  2  0
 17 25  1  0
 25 26  2  0
  8  3  1  0
 26 14  1  0
 24 19  1  0
  1 27  1  0
  1 28  1  0
  1 29  1  0
  4 30  1  0
  5 31  1  0
  6 32  1  0
  7 33  1  0
  9 34  1  0
  9 35  1  0
 13 36  1  0
 15 37  1  0
 16 38  1  0
 20 39  1  0
 21 40  1  0
 22 41  1  0
 23 42  1  0
 24 43  1  0
 25 44  1  0
 26 45  1  0
M  CHG  1  10  -1
M  END
>  <UniqueID>  (27) 
22

>  <SMILES>  (27) 
COc1ccccc1C[N-]C(=O)Nc1ccc(Oc2ccccc2)cc1

>  <Energy>  (27) 
54.37544651932534

>  <Genealogy>  (27) 
COc1ccccc1C[N-]C(=O)Nc1ccc(Oc2ccccc2)cc1 (protonated)
COc1ccccc1C[N-]C(=O)Nc1ccc(Oc2ccccc2)cc1 (3D coordinates assigned)
COc1ccccc1C[N-]C(=O)Nc1ccc(Oc2ccccc2)cc1 (optimized conformer: 54.37544651932534 kcal/mol)

>  <smiles>  (27) 
COc1ccccc1CNC(=O)Nc1ccc(Oc2ccccc2)cc1

>  <score_type>  (27) 
oracle

>  <origin>  (27) 
adgpu

>  <m_score__min__energy>  (27) 
-10.4

>  <m_primary>  (27) 
energy

$$$$
27:0
     RDKit          3D

 34 36  0  0  0  0  0  0  0  0999 V2000
   -6.8810   16.3840  -33.8130 C   0  0  0  0  0  0  0  0  0  0  0  0
   -7.2090   17.6260  -33.0570 C   0  0  0  0  0  0  0  0  0  0  0  0
   -6.3780   18.6780  -32.9360 N   0  0  0  0  0  0  0  0  0  0  0  0
   -7.1060   19.5050  -32.1560 C   0  0  0  0  0  0  0  0  0  0  0  0
   -6.6440   20.8380  -31.7130 C   0  0  0  0  0  0  0  0  0  0  0  0
   -5.3650   21.3030  -32.0660 C   0  0  0  0  0  0  0  0  0  0  0  0
   -4.9290   22.5630  -31.6450 C   0  0  0  0  0  0  0  0  0  0  0  0
   -5.7630   23.3740  -30.8660 C   0  0  0  0  0  0  0  0  0  0  0  0
   -5.2140   24.9570  -30.3250 S   0  0  0  0  0  0  0  0  0  0  0  0
   -5.7350   26.0390  -31.2280 O   0  0  0  0  0  0  0  0  0  0  0  0
   -5.7200   25.1960  -28.9300 O   0  0  0  0  0  0  0  0  0  0  0  0
   -3.4810   25.0130  -30.3160 N   0  0  0  0  0  0  0  0  0  0  0  0
   -2.6400   24.3940  -29.3320 C   0  0  0  0  0  0  0  0  0  0  0  0
   -2.7800   23.0410  -28.9700 C   0  0  0  0  0  0  0  0  0  0  0  0
   -1.9410   22.4820  -28.0000 C   0  0  0  0  0  0  0  0  0  0  0  0
   -0.9570   23.2630  -27.3890 C   0  0  0  0  0  0  0  0  0  0  0  0
   -0.8120   24.6060  -27.7460 C   0  0  0  0  0  0  0  0  0  0  0  0
   -1.6490   25.1690  -28.7140 C   0  0  0  0  0  0  0  0  0  0  0  0
   -7.0400   22.9190  -30.5170 C   0  0  0  0  0  0  0  0  0  0  0  0
   -7.4780   21.6600  -30.9350 C   0  0  0  0  0  0  0  0  0  0  0  0
   -8.3020   18.9760  -31.8250 N   0  0  0  0  0  0  0  0  0  0  0  0
   -8.3250   17.8130  -32.3990 O   0  0  0  0  0  0  0  0  0  0  0  0
   -6.6660   15.5699  -33.1052 H   0  0  0  0  0  0  0  0  0  0  0  0
   -7.7358   16.1034  -34.4459 H   0  0  0  0  0  0  0  0  0  0  0  0
   -5.9991   16.5621  -34.4459 H   0  0  0  0  0  0  0  0  0  0  0  0
   -4.7033   20.6717  -32.6772 H   0  0  0  0  0  0  0  0  0  0  0  0
   -3.9269   22.9184  -31.9269 H   0  0  0  0  0  0  0  0  0  0  0  0
   -3.5512   22.4215  -29.4511 H   0  0  0  0  0  0  0  0  0  0  0  0
   -2.0564   21.4251  -27.7178 H   0  0  0  0  0  0  0  0  0  0  0  0
   -0.2972   22.8212  -26.6278 H   0  0  0  0  0  0  0  0  0  0  0  0
   -0.0378   25.2215  -27.2645 H   0  0  0  0  0  0  0  0  0  0  0  0
   -1.5291   26.2264  -28.9923 H   0  0  0  0  0  0  0  0  0  0  0  0
   -7.7015   23.5556  -29.9110 H   0  0  0  0  0  0  0  0  0  0  0  0
   -8.4820   21.3095  -30.6536 H   0  0  0  0  0  0  0  0  0  0  0  0
  1  2  1  0
  2  3  2  0
  3  4  1  0
  4  5  1  0
  5  6  2  0
  6  7  1  0
  7  8  2  0
  8  9  1  0
  9 10  2  0
  9 11  2  0
  9 12  1  0
 12 13  1  0
 13 14  2  0
 14 15  1  0
 15 16  2  0
 16 17  1  0
 17 18  2  0
  8 19  1  0
 19 20  2  0
  4 21  2  0
 21 22  1  0
 22  2  1  0
 20  5  1  0
 18 13  1  0
  1 23  1  0
  1 24  1  0
  1 25  1  0
  6 26  1  0
  7 27  1  0
 14 28  1  0
 15 29  1  0
 16 30  1  0
 17 31  1  0
 18 32  1  0
 19 33  1  0
 20 34  1  0
M  CHG  1  12  -1
M  END
>  <UniqueID>  (28) 
23

>  <SMILES>  (28) 
Cc1nc(-c2ccc(S(=O)(=O)[N-]c3ccccc3)cc2)no1

>  <Energy>  (28) 
71.49683348066631

>  <Genealogy>  (28) 
Cc1nc(-c2ccc(S(=O)(=O)[N-]c3ccccc3)cc2)no1 (protonated)
Cc1nc(-c2ccc(S(=O)(=O)[N-]c3ccccc3)cc2)no1 (3D coordinates assigned)
Cc1nc(-c2ccc(S(=O)(=O)[N-]c3ccccc3)cc2)no1 (optimized conformer: 71.49683348066631 kcal/mol)

>  <smiles>  (28) 
Cc1nc(-c2ccc(S(=O)(=O)Nc3ccccc3)cc2)no1

>  <score_type>  (28) 
oracle

>  <origin>  (28) 
adgpu

>  <m_score__min__energy>  (28) 
-9.4399999999999995

>  <m_primary>  (28) 
energy

$$$$
28:0
     RDKit          3D

 50 54  0  0  0  0  0  0  0  0999 V2000
   -3.8830   25.4450  -30.4920 N   0  0  0  0  0  0  0  0  0  0  0  0
   -5.2650   25.0920  -30.4710 C   0  0  0  0  0  0  0  0  0  0  0  0
   -6.1070   25.9350  -30.0590 O   0  0  0  0  0  0  0  0  0  0  0  0
   -5.7080   23.7540  -30.9280 C   0  0  0  0  0  0  0  0  0  0  0  0
   -5.0050   23.0730  -31.9380 C   0  0  0  0  0  0  0  0  0  0  0  0
   -5.4240   21.8090  -32.3650 C   0  0  0  0  0  0  0  0  0  0  0  0
   -6.5450   21.1980  -31.7860 C   0  0  0  0  0  0  0  0  0  0  0  0
   -7.0050   19.8680  -32.2420 C   0  0  0  0  0  0  0  0  0  0  0  0
   -8.3070   19.3970  -32.1970 C   0  0  0  0  0  0  0  0  0  0  0  0
   -8.3650   18.1500  -32.7190 N   0  0  0  0  0  0  0  0  0  0  0  0
   -7.0870   17.8910  -33.0630 C   0  0  0  0  0  0  0  0  0  0  0  0
   -6.6260   16.7050  -33.6240 C   0  0  0  0  0  0  0  0  0  0  0  0
   -5.2520   16.5910  -33.8800 C   0  0  0  0  0  0  0  0  0  0  0  0
   -4.3690   17.6490  -33.5580 C   0  0  0  0  0  0  0  0  0  0  0  0
   -2.9540   17.5290  -33.8020 N   0  0  0  0  0  0  0  0  0  0  0  0
   -2.4710   17.1930  -35.1470 C   0  0  0  0  0  0  0  0  0  0  0  0
   -0.9570   16.9410  -35.1420 C   0  0  0  0  0  0  0  0  0  0  0  0
   -0.2120   18.0230  -34.4520 N   0  0  1  0  0  0  0  0  0  0  0  0
   -0.1770   19.2690  -35.2460 C   0  0  0  0  0  0  0  0  0  0  0  0
   -1.0510   20.2900  -34.5450 C   0  0  0  0  0  0  0  0  0  0  0  0
   -1.0100   19.8850  -33.0920 C   0  0  0  0  0  0  0  0  0  0  0  0
   -0.7380   18.3760  -33.1020 C   0  0  1  0  0  0  0  0  0  0  0  0
   -1.9960   17.5730  -32.6930 C   0  0  0  0  0  0  0  0  0  0  0  0
   -4.9000   18.8230  -32.9880 C   0  0  0  0  0  0  0  0  0  0  0  0
   -6.2430   18.9000  -32.7860 N   0  0  0  0  0  0  0  0  0  0  0  0
   -7.2610   21.8840  -30.7930 C   0  0  0  0  0  0  0  0  0  0  0  0
   -6.8440   23.1460  -30.3630 C   0  0  0  0  0  0  0  0  0  0  0  0
   -3.4900   26.0340  -31.2600 H   0  0  0  0  0  0  0  0  0  0  0  0
   -4.1192   23.5380  -32.3953 H   0  0  0  0  0  0  0  0  0  0  0  0
   -4.8698   21.2903  -33.1611 H   0  0  0  0  0  0  0  0  0  0  0  0
   -9.1665   19.9543  -31.7962 H   0  0  0  0  0  0  0  0  0  0  0  0
   -7.3172   15.8824  -33.8595 H   0  0  0  0  0  0  0  0  0  0  0  0
   -4.8569   15.6708  -34.3352 H   0  0  0  0  0  0  0  0  0  0  0  0
   -2.9853   16.2860  -35.4975 H   0  0  0  0  0  0  0  0  0  0  0  0
   -2.6826   18.0398  -35.8165 H   0  0  0  0  0  0  0  0  0  0  0  0
   -0.7578   15.9895  -34.6273 H   0  0  0  0  0  0  0  0  0  0  0  0
   -0.6160   16.9091  -36.1873 H   0  0  0  0  0  0  0  0  0  0  0  0
    0.7750   17.6860  -34.3420 H   0  0  0  0  0  0  0  0  0  0  0  0
    0.8557   19.6423  -35.3112 H   0  0  0  0  0  0  0  0  0  0  0  0
   -0.5443   19.0848  -36.2664 H   0  0  0  0  0  0  0  0  0  0  0  0
   -0.6473   21.3046  -34.6778 H   0  0  0  0  0  0  0  0  0  0  0  0
   -2.0752   20.3107  -34.9457 H   0  0  0  0  0  0  0  0  0  0  0  0
   -0.2048   20.4185  -32.5656 H   0  0  0  0  0  0  0  0  0  0  0  0
   -1.9471   20.1301  -32.5706 H   0  0  0  0  0  0  0  0  0  0  0  0
    0.0177   18.1052  -32.3500 H   0  0  0  0  0  0  0  0  0  0  0  0
   -1.7012   16.5471  -32.4272 H   0  0  0  0  0  0  0  0  0  0  0  0
   -2.4695   18.0644  -31.8302 H   0  0  0  0  0  0  0  0  0  0  0  0
   -4.2420   19.6602  -32.7120 H   0  0  0  0  0  0  0  0  0  0  0  0
   -8.1570   21.4247  -30.3501 H   0  0  0  0  0  0  0  0  0  0  0  0
   -7.4083   23.6685  -29.5765 H   0  0  0  0  0  0  0  0  0  0  0  0
  1  2  1  0
  2  3  2  0
  2  4  1  0
  4  5  2  0
  5  6  1  0
  6  7  2  0
  7  8  1  0
  8  9  2  0
  9 10  1  0
 10 11  2  0
 11 12  1  0
 12 13  2  0
 13 14  1  0
 14 15  1  0
 15 16  1  0
 16 17  1  0
 17 18  1  0
 18 19  1  0
 19 20  1  0
 20 21  1  0
 21 22  1  0
 22 23  1  0
 14 24  2  0
 24 25  1  0
  7 26  1  0
 26 27  2  0
 27  4  1  0
 25  8  1  0
 25 11  1  0
 23 15  1  0
 22 18  1  0
  1 28  1  0
  5 29  1  0
  6 30  1  0
  9 31  1  0
 12 32  1  0
 13 33  1  0
 16 34  1  0
 16 35  1  0
 17 36  1  0
 17 37  1  0
 18 38  1  1
 19 39  1  0
 19 40  1  0
 20 41  1  0
 20 42  1  0
 21 43  1  0
 21 44  1  0
 22 45  1  1
 23 46  1  0
 23 47  1  0
 24 48  1  0
 26 49  1  0
 27 50  1  0
M  CHG  2   1  -1  18   1
M  END
>  <UniqueID>  (29) 
24

>  <SMILES>  (29) 
[NH-]C(=O)c1ccc(-c2cnc3ccc(N4CC[N@H+]5CCC[C@H]5C4)cn23)cc1

>  <Energy>  (29) 
106.12275077730172

>  <Genealogy>  (29) 
[NH-]C(=O)c1ccc(-c2cnc3ccc(N4CC[NH+]5CCCC5C4)cn23)cc1 (protonated)
[NH-]C(=O)c1ccc(-c2cnc3ccc(N4CC[N@H+]5CCC[C@H]5C4)cn23)cc1 (chirality)
[NH-]C(=O)c1ccc(-c2cnc3ccc(N4CC[N@H+]5CCC[C@H]5C4)cn23)cc1 (3D coordinates assigned)
[NH-]C(=O)c1ccc(-c2cnc3ccc(N4CC[N@H+]5CCC[C@H]5C4)cn23)cc1 (nonaromatic ring conformer: 106.12275077730172 kcal/mol)

>  <smiles>  (29) 
NC(=O)c1ccc(-c2cnc3ccc(N4CCN5CCCC5C4)cn23)cc1

>  <score_type>  (29) 
oracle

>  <origin>  (29) 
adgpu

>  <m_score__min__energy>  (29) 
-11.1

>  <m_primary>  (29) 
energy

$$$$
29:0
     RDKit          3D

 35 37  0  0  0  0  0  0  0  0999 V2000
   -2.1890   17.3890  -25.6290 H   0  0  0  0  0  0  0  0  0  0  0  0
   -2.5670   18.2500  -26.0820 N   0  0  0  0  0  0  0  0  0  0  0  0
   -1.8410   18.9720  -26.8720 C   0  0  0  0  0  0  0  0  0  0  0  0
   -2.3660   20.0840  -27.4430 N   0  0  0  0  0  0  0  0  0  0  0  0
   -1.6330   20.8690  -28.2790 C   0  0  0  0  0  0  0  0  0  0  0  0
   -2.2630   22.0700  -28.8870 C   0  0  0  0  0  0  0  0  0  0  0  0
   -3.5200   21.9630  -29.5080 C   0  0  0  0  0  0  0  0  0  0  0  0
   -4.0280   20.9880  -29.5444 H   0  0  0  0  0  0  0  0  0  0  0  0
   -4.1300   23.0820  -30.0790 C   0  0  0  0  0  0  0  0  0  0  0  0
   -5.1103   22.9807  -30.5676 H   0  0  0  0  0  0  0  0  0  0  0  0
   -3.4980   24.3380  -30.0330 C   0  0  0  0  0  0  0  0  0  0  0  0
   -4.0740   25.4890  -30.5950 O   0  0  0  0  0  0  0  0  0  0  0  0
   -5.4470   25.8440  -30.4690 C   0  0  0  0  0  0  0  0  0  0  0  0
   -5.7117   25.9124  -29.4035 H   0  0  0  0  0  0  0  0  0  0  0  0
   -5.6202   26.8165  -30.9531 H   0  0  0  0  0  0  0  0  0  0  0  0
   -6.0699   25.0774  -30.9531 H   0  0  0  0  0  0  0  0  0  0  0  0
   -2.2520   24.4520  -29.4040 C   0  0  0  0  0  0  0  0  0  0  0  0
   -1.6170   25.6870  -29.3390 O   0  0  0  0  0  0  0  0  0  0  0  0
   -1.6400   23.3310  -28.8330 C   0  0  0  0  0  0  0  0  0  0  0  0
   -0.6635   23.4360  -28.3376 H   0  0  0  0  0  0  0  0  0  0  0  0
   -0.3070   20.5060  -28.5650 C   0  0  0  0  0  0  0  0  0  0  0  0
    0.3006   21.1116  -29.2535 H   0  0  0  0  0  0  0  0  0  0  0  0
    0.2330   19.3590  -27.9600 C   0  0  0  0  0  0  0  0  0  0  0  0
    1.6280   18.9220  -28.2200 C   0  0  0  0  0  0  0  0  0  0  0  0
    1.8760   17.8820  -29.1360 C   0  0  0  0  0  0  0  0  0  0  0  0
    1.0348   17.4030  -29.6585 H   0  0  0  0  0  0  0  0  0  0  0  0
    3.1830   17.4530  -29.3870 C   0  0  0  0  0  0  0  0  0  0  0  0
    3.3659   16.6428  -30.1082 H   0  0  0  0  0  0  0  0  0  0  0  0
    4.2560   18.0510  -28.7240 C   0  0  0  0  0  0  0  0  0  0  0  0
    5.2837   17.7156  -28.9270 H   0  0  0  0  0  0  0  0  0  0  0  0
    4.0250   19.0750  -27.8030 C   0  0  0  0  0  0  0  0  0  0  0  0
    5.0930   19.6620  -27.1350 O   0  0  0  0  0  0  0  0  0  0  0  0
    2.7190   19.5090  -27.5490 C   0  0  0  0  0  0  0  0  0  0  0  0
    2.5430   20.3141  -26.8204 H   0  0  0  0  0  0  0  0  0  0  0  0
   -0.5550   18.6190  -27.1330 N   0  0  0  0  0  0  0  0  0  0  0  0
  1  2  1  0
  2  3  2  0
  3  4  1  0
  4  5  2  0
  5  6  1  0
  6  7  2  0
  7  8  1  0
  7  9  1  0
  9 10  1  0
  9 11  2  0
 11 12  1  0
 12 13  1  0
 13 14  1  0
 13 15  1  0
 13 16  1  0
 11 17  1  0
 17 18  1  0
 17 19  2  0
 19 20  1  0
  5 21  1  0
 21 22  1  0
 21 23  2  0
 23 24  1  0
 24 25  2  0
 25 26  1  0
 25 27  1  0
 27 28  1  0
 27 29  2  0
 29 30  1  0
 29 31  1  0
 31 32  1  0
 31 33  2  0
 33 34  1  0
 23 35  1  0
 35  3  1  0
 19  6  1  0
 33 24  1  0
M  CHG  3  18  -1  32  -1  35  -1
M  END
>  <UniqueID>  (30) 
25

>  <SMILES>  (30) 
[H]/N=c1/nc(-c2ccc(OC)c([O-])c2)cc(-c2cccc([O-])c2)[n-]1

>  <Energy>  (30) 
46.02879015574764

>  <Genealogy>  (30) 
COc1ccc(-c2cc(-c3cccc([O-])c3)[n-]c(=N)n2)cc1[O-] (protonated)
[H]/N=c1/nc(-c2ccc(OC)c([O-])c2)cc(-c2cccc([O-])c2)[n-]1 (cis-trans isomerization)
[H]/N=c1/nc(-c2ccc(OC)c([O-])c2)cc(-c2cccc([O-])c2)[n-]1 (3D coordinates assigned)
[H]/N=c1/nc(-c2ccc(OC)c([O-])c2)cc(-c2cccc([O-])c2)[n-]1 (optimized conformer: 46.02879015574764 kcal/mol)

>  <smiles>  (30) 
COc1ccc(-c2cc(-c3cccc(O)c3)[nH]c(=N)n2)cc1O

>  <score_type>  (30) 
oracle

>  <origin>  (30) 
adgpu

>  <m_score__min__energy>  (30) 
-11.130000000000001

>  <m_primary>  (30) 
energy

$$$$
30:0
     RDKit          3D

 30 31  0  0  0  0  0  0  0  0999 V2000
   -5.9840   23.3060  -32.0230 S   0  0  0  0  0  0  0  0  0  0  0  0
   -6.7520   23.0710  -30.5860 C   0  0  0  0  0  0  0  0  0  0  0  0
   -8.0450   22.4420  -30.5380 N   0  0  0  0  0  0  0  0  0  0  0  0
   -8.7600   21.9330  -31.7090 C   0  0  0  0  0  0  0  0  0  0  0  0
   -8.1980   20.6030  -32.1350 C   0  0  0  0  0  0  0  0  0  0  0  0
   -7.1600   20.5470  -33.0800 C   0  0  0  0  0  0  0  0  0  0  0  0
   -6.6350   19.3160  -33.4790 C   0  0  0  0  0  0  0  0  0  0  0  0
   -7.1420   18.1290  -32.9410 C   0  0  0  0  0  0  0  0  0  0  0  0
   -6.4810   16.5830  -33.4410 Cl  0  0  0  0  0  0  0  0  0  0  0  0
   -8.1800   18.1750  -32.0030 C   0  0  0  0  0  0  0  0  0  0  0  0
   -8.7080   19.4070  -31.6030 C   0  0  0  0  0  0  0  0  0  0  0  0
   -6.2190   23.6430  -29.3800 N   0  0  0  0  0  0  0  0  0  0  0  0
   -4.8220   23.8750  -29.1330 C   0  0  0  0  0  0  0  0  0  0  0  0
   -4.1710   23.1740  -28.1090 C   0  0  0  0  0  0  0  0  0  0  0  0
   -2.8070   23.3730  -27.8820 C   0  0  0  0  0  0  0  0  0  0  0  0
   -2.1010   24.2610  -28.6940 C   0  0  0  0  0  0  0  0  0  0  0  0
   -2.7370   24.9140  -29.7020 N   0  0  0  0  0  0  0  0  0  0  0  0
   -4.0650   24.7420  -29.9420 C   0  0  0  0  0  0  0  0  0  0  0  0
   -8.4990   22.3220  -29.6050 H   0  0  0  0  0  0  0  0  0  0  0  0
   -9.8243   21.8125  -31.4587 H   0  0  0  0  0  0  0  0  0  0  0  0
   -8.6427   22.6492  -32.5356 H   0  0  0  0  0  0  0  0  0  0  0  0
   -6.7587   21.4776  -33.5078 H   0  0  0  0  0  0  0  0  0  0  0  0
   -5.8210   19.2800  -34.2180 H   0  0  0  0  0  0  0  0  0  0  0  0
   -8.5807   17.2419  -31.5802 H   0  0  0  0  0  0  0  0  0  0  0  0
   -9.5263   19.4395  -30.8686 H   0  0  0  0  0  0  0  0  0  0  0  0
   -6.8990   23.9290  -28.6410 H   0  0  0  0  0  0  0  0  0  0  0  0
   -4.7346   22.4663  -27.4833 H   0  0  0  0  0  0  0  0  0  0  0  0
   -2.2946   22.8348  -27.0709 H   0  0  0  0  0  0  0  0  0  0  0  0
   -1.0288   24.4327  -28.5182 H   0  0  0  0  0  0  0  0  0  0  0  0
   -4.5477   25.2818  -30.7700 H   0  0  0  0  0  0  0  0  0  0  0  0
  1  2  2  0
  2  3  1  0
  3  4  1  0
  4  5  1  0
  5  6  2  0
  6  7  1  0
  7  8  2  0
  8  9  1  0
  8 10  1  0
 10 11  2  0
  2 12  1  0
 12 13  1  0
 13 14  2  0
 14 15  1  0
 15 16  2  0
 16 17  1  0
 17 18  2  0
 11  5  1  0
 18 13  1  0
  3 19  1  0
  4 20  1  0
  4 21  1  0
  6 22  1  0
  7 23  1  0
 10 24  1  0
 11 25  1  0
 12 26  1  0
 14 27  1  0
 15 28  1  0
 16 29  1  0
 18 30  1  0
M  END
>  <UniqueID>  (31) 
26

>  <SMILES>  (31) 
S=C(NCc1ccc(Cl)cc1)Nc1cccnc1

>  <Energy>  (31) 
35.01304293146361

>  <Genealogy>  (31) 
S=C(NCc1ccc(Cl)cc1)Nc1cccnc1 (3D coordinates assigned)
S=C(NCc1ccc(Cl)cc1)Nc1cccnc1 (optimized conformer: 35.01304293146361 kcal/mol)

>  <smiles>  (31) 
S=C(NCc1ccc(Cl)cc1)Nc1cccnc1

>  <score_type>  (31) 
oracle

>  <origin>  (31) 
adgpu

>  <m_score__min__energy>  (31) 
-7.5199999999999996

>  <m_primary>  (31) 
energy

$$$$
31:0
     RDKit          3D

 50 52  0  0  0  0  0  0  0  0999 V2000
   -6.5480   14.9170  -34.1950 C   0  0  0  0  0  0  0  0  0  0  0  0
   -6.0040   16.2740  -33.8360 C   0  0  0  0  0  0  0  0  0  0  0  0
   -6.8770   17.3750  -33.8610 C   0  0  0  0  0  0  0  0  0  0  0  0
   -6.4260   18.6510  -33.5280 C   0  0  0  0  0  0  0  0  0  0  0  0
   -5.0990   18.8570  -33.1420 C   0  0  0  0  0  0  0  0  0  0  0  0
   -4.6510   20.1880  -32.8360 N   0  0  0  0  0  0  0  0  0  0  0  0
   -5.2740   21.0350  -31.8540 C   0  0  0  0  0  0  0  0  0  0  0  0
   -6.4850   20.8520  -31.5540 O   0  0  0  0  0  0  0  0  0  0  0  0
   -4.5240   22.1470  -31.2220 C   0  0  0  0  0  0  0  0  0  0  0  0
   -5.1660   23.3670  -30.9440 C   0  0  0  0  0  0  0  0  0  0  0  0
   -4.4700   24.4120  -30.3300 C   0  0  0  0  0  0  0  0  0  0  0  0
   -3.1220   24.2510  -29.9660 C   0  0  0  0  0  0  0  0  0  0  0  0
   -2.3670   25.2990  -29.3410 N   0  0  0  0  0  0  0  0  0  0  0  0
   -1.2230   25.1440  -28.4910 C   0  0  0  0  0  0  0  0  0  0  0  0
   -0.2090   24.5060  -28.8820 O   0  0  0  0  0  0  0  0  0  0  0  0
   -1.2040   25.7830  -27.1690 C   0  0  0  0  0  0  0  0  0  0  0  0
   -1.8890   25.3540  -26.0490 C   0  0  0  0  0  0  0  0  0  0  0  0
   -1.5790   26.2580  -25.0580 C   0  0  0  0  0  0  0  0  0  0  0  0
   -0.7250   27.1790  -25.6310 C   0  0  0  0  0  0  0  0  0  0  0  0
   -0.5210   26.8690  -26.8910 O   0  0  0  0  0  0  0  0  0  0  0  0
   -2.4760   23.0460  -30.2620 C   0  0  0  0  0  0  0  0  0  0  0  0
   -3.1700   21.9980  -30.8730 C   0  0  0  0  0  0  0  0  0  0  0  0
   -4.2170   17.7650  -33.1180 C   0  0  0  0  0  0  0  0  0  0  0  0
   -4.6540   16.4710  -33.4450 C   0  0  0  0  0  0  0  0  0  0  0  0
   -3.4620   15.1500  -33.3870 S   0  0  0  0  0  0  0  0  0  0  0  0
   -3.9900   14.0280  -32.5370 O   0  0  0  0  0  0  0  0  0  0  0  0
   -2.2200   15.6690  -32.7160 O   0  0  0  0  0  0  0  0  0  0  0  0
   -3.0050   14.5710  -34.9800 N   0  0  0  0  0  0  0  0  0  0  0  0
   -3.8030   13.3980  -35.3550 C   0  0  0  0  0  0  0  0  0  0  0  0
   -3.1370   15.6270  -35.9920 C   0  0  0  0  0  0  0  0  0  0  0  0
   -6.7725   14.3569  -33.2753 H   0  0  0  0  0  0  0  0  0  0  0  0
   -7.4681   15.0355  -34.7860 H   0  0  0  0  0  0  0  0  0  0  0  0
   -5.8008   14.3671  -34.7860 H   0  0  0  0  0  0  0  0  0  0  0  0
   -7.9290   17.2279  -34.1468 H   0  0  0  0  0  0  0  0  0  0  0  0
   -7.1205   19.5030  -33.5694 H   0  0  0  0  0  0  0  0  0  0  0  0
   -3.8850   20.5940  -33.4210 H   0  0  0  0  0  0  0  0  0  0  0  0
   -6.2246   23.4999  -31.2120 H   0  0  0  0  0  0  0  0  0  0  0  0
   -4.9801   25.3659  -30.1305 H   0  0  0  0  0  0  0  0  0  0  0  0
   -2.5446   24.4746  -25.9662 H   0  0  0  0  0  0  0  0  0  0  0  0
   -1.9393   26.2484  -24.0187 H   0  0  0  0  0  0  0  0  0  0  0  0
   -0.2825   28.0416  -25.1112 H   0  0  0  0  0  0  0  0  0  0  0  0
   -1.4121   22.9222  -30.0116 H   0  0  0  0  0  0  0  0  0  0  0  0
   -2.6533   21.0497  -31.0824 H   0  0  0  0  0  0  0  0  0  0  0  0
   -3.1654   17.9257  -32.8382 H   0  0  0  0  0  0  0  0  0  0  0  0
   -4.1515   12.8858  -34.4460 H   0  0  0  0  0  0  0  0  0  0  0  0
   -4.6705   13.7197  -35.9500 H   0  0  0  0  0  0  0  0  0  0  0  0
   -3.1853   12.7093  -35.9500 H   0  0  0  0  0  0  0  0  0  0  0  0
   -3.2586   16.5998  -35.4931 H   0  0  0  0  0  0  0  0  0  0  0  0
   -2.2344   15.6475  -36.6204 H   0  0  0  0  0  0  0  0  0  0  0  0
   -4.0168   15.4247  -36.6204 H   0  0  0  0  0  0  0  0  0  0  0  0
  1  2  1  0
  2  3  2  0
  3  4  1  0
  4  5  2  0
  5  6  1  0
  6  7  1  0
  7  8  2  0
  7  9  1  0
  9 10  2  0
 10 11  1  0
 11 12  2  0
 12 13  1  0
 13 14  1  0
 14 15  2  0
 14 16  1  0
 16 17  2  0
 17 18  1  0
 18 19  2  0
 19 20  1  0
 12 21  1  0
 21 22  2  0
  5 23  1  0
 23 24  2  0
 24 25  1  0
 25 26  2  0
 25 27  2  0
 25 28  1  0
 28 29  1  0
 28 30  1  0
 24  2  1  0
 22  9  1  0
 20 16  1  0
  1 31  1  0
  1 32  1  0
  1 33  1  0
  3 34  1  0
  4 35  1  0
  6 36  1  0
 10 37  1  0
 11 38  1  0
 17 39  1  0
 18 40  1  0
 19 41  1  0
 21 42  1  0
 22 43  1  0
 23 44  1  0
 29 45  1  0
 29 46  1  0
 29 47  1  0
 30 48  1  0
 30 49  1  0
 30 50  1  0
M  CHG  1  13  -1
M  END
>  <UniqueID>  (32) 
27

>  <SMILES>  (32) 
Cc1ccc(NC(=O)c2ccc([N-]C(=O)c3ccco3)cc2)cc1S(=O)(=O)N(C)C

>  <Energy>  (32) 
88.7010116583755

>  <Genealogy>  (32) 
Cc1ccc(NC(=O)c2ccc([N-]C(=O)c3ccco3)cc2)cc1S(=O)(=O)N(C)C (protonated)
Cc1ccc(NC(=O)c2ccc([N-]C(=O)c3ccco3)cc2)cc1S(=O)(=O)N(C)C (3D coordinates assigned)
Cc1ccc(NC(=O)c2ccc([N-]C(=O)c3ccco3)cc2)cc1S(=O)(=O)N(C)C (optimized conformer: 88.7010116583755 kcal/mol)

>  <smiles>  (32) 
Cc1ccc(NC(=O)c2ccc(NC(=O)c3ccco3)cc2)cc1S(=O)(=O)N(C)C

>  <score_type>  (32) 
oracle

>  <origin>  (32) 
adgpu

>  <m_score__min__energy>  (32) 
-9.5899999999999999

>  <m_primary>  (32) 
energy

$$$$
32:0
     RDKit          3D

 47 50  0  0  0  0  0  0  0  0999 V2000
  -10.1876   22.8506  -31.6930 H   0  0  0  0  0  0  0  0  0  0  0  0
   -9.2650   22.2570  -31.7730 C   0  0  0  0  0  0  0  0  0  0  0  0
   -8.0820   22.7730  -31.3590 N   0  0  0  0  0  0  0  0  0  0  0  0
   -6.9190   22.0740  -31.4550 C   0  0  0  0  0  0  0  0  0  0  0  0
   -5.6670   22.7160  -30.9850 C   0  0  0  0  0  0  0  0  0  0  0  0
   -4.6100   21.9210  -30.5170 C   0  0  0  0  0  0  0  0  0  0  0  0
   -4.7110   20.8257  -30.5145 H   0  0  0  0  0  0  0  0  0  0  0  0
   -3.4300   22.5090  -30.0540 C   0  0  0  0  0  0  0  0  0  0  0  0
   -2.6043   21.8738  -29.7009 H   0  0  0  0  0  0  0  0  0  0  0  0
   -3.2920   23.9110  -30.0370 C   0  0  0  0  0  0  0  0  0  0  0  0
   -2.1260   24.5430  -29.5830 O   0  0  0  0  0  0  0  0  0  0  0  0
   -1.4580   24.2250  -28.3660 C   0  0  0  0  0  0  0  0  0  0  0  0
   -2.0862   24.5240  -27.5140 H   0  0  0  0  0  0  0  0  0  0  0  0
   -1.2720   23.1417  -28.3220 H   0  0  0  0  0  0  0  0  0  0  0  0
   -0.4999   24.7636  -28.3220 H   0  0  0  0  0  0  0  0  0  0  0  0
   -4.3560   24.7050  -30.4850 C   0  0  0  0  0  0  0  0  0  0  0  0
   -4.2450   26.0910  -30.4650 O   0  0  0  0  0  0  0  0  0  0  0  0
   -5.5360   24.1150  -30.9500 C   0  0  0  0  0  0  0  0  0  0  0  0
   -6.3670   24.7502  -31.2906 H   0  0  0  0  0  0  0  0  0  0  0  0
   -6.9530   20.7640  -31.9880 C   0  0  0  0  0  0  0  0  0  0  0  0
   -5.8570   20.0530  -32.0210 N   0  0  0  0  0  0  0  0  0  0  0  0
   -5.6770   18.7540  -32.6040 C   0  0  0  0  0  0  0  0  0  0  0  0
   -5.0830   18.5990  -33.8660 C   0  0  0  0  0  0  0  0  0  0  0  0
   -4.7908   19.4866  -34.4463 H   0  0  0  0  0  0  0  0  0  0  0  0
   -4.8610   17.3220  -34.3890 C   0  0  0  0  0  0  0  0  0  0  0  0
   -4.4048   17.2087  -35.3835 H   0  0  0  0  0  0  0  0  0  0  0  0
   -5.2190   16.1810  -33.6480 C   0  0  0  0  0  0  0  0  0  0  0  0
   -5.0010   14.8830  -34.1330 O   0  0  0  0  0  0  0  0  0  0  0  0
   -4.1370   13.9360  -33.5640 C   0  0  0  0  0  0  0  0  0  0  0  0
   -3.0930   13.3450  -34.3000 C   0  0  0  0  0  0  0  0  0  0  0  0
   -2.9295   13.6334  -35.3489 H   0  0  0  0  0  0  0  0  0  0  0  0
   -2.2630   12.3920  -33.7010 C   0  0  0  0  0  0  0  0  0  0  0  0
   -1.4424   11.9387  -34.2765 H   0  0  0  0  0  0  0  0  0  0  0  0
   -2.4750   12.0150  -32.3720 C   0  0  0  0  0  0  0  0  0  0  0  0
   -1.8178   11.2696  -31.9004 H   0  0  0  0  0  0  0  0  0  0  0  0
   -3.5220   12.5850  -31.6420 C   0  0  0  0  0  0  0  0  0  0  0  0
   -3.6917   12.2840  -30.5977 H   0  0  0  0  0  0  0  0  0  0  0  0
   -4.3540   13.5380  -32.2390 C   0  0  0  0  0  0  0  0  0  0  0  0
   -5.1831   13.9771  -31.6646 H   0  0  0  0  0  0  0  0  0  0  0  0
   -5.7600   16.3400  -32.3670 C   0  0  0  0  0  0  0  0  0  0  0  0
   -6.0130   15.4535  -31.7669 H   0  0  0  0  0  0  0  0  0  0  0  0
   -5.9810   17.6180  -31.8450 C   0  0  0  0  0  0  0  0  0  0  0  0
   -6.3959   17.7313  -30.8326 H   0  0  0  0  0  0  0  0  0  0  0  0
   -8.1560   20.2460  -32.3900 N   0  0  0  0  0  0  0  0  0  0  0  0
   -8.2410   19.2650  -32.7350 H   0  0  0  0  0  0  0  0  0  0  0  0
   -9.3020   20.9700  -32.3000 C   0  0  0  0  0  0  0  0  0  0  0  0
  -10.2551   20.5405  -32.6423 H   0  0  0  0  0  0  0  0  0  0  0  0
  1  2  1  0
  2  3  1  0
  3  4  2  0
  4  5  1  0
  5  6  2  0
  6  7  1  0
  6  8  1  0
  8  9  1  0
  8 10  2  0
 10 11  1  0
 11 12  1  0
 12 13  1  0
 12 14  1  0
 12 15  1  0
 10 16  1  0
 16 17  1  0
 16 18  2  0
 18 19  1  0
  4 20  1  0
 20 21  2  0
 21 22  1  0
 22 23  2  0
 23 24  1  0
 23 25  1  0
 25 26  1  0
 25 27  2  0
 27 28  1  0
 28 29  1  0
 29 30  2  0
 30 31  1  0
 30 32  1  0
 32 33  1  0
 32 34  2  0
 34 35  1  0
 34 36  1  0
 36 37  1  0
 36 38  2  0
 38 39  1  0
 27 40  1  0
 40 41  1  0
 40 42  2  0
 42 43  1  0
 20 44  1  0
 44 45  1  0
 44 46  1  0
 46 47  1  0
 46  2  2  0
 18  5  1  0
 42 22  1  0
 38 29  1  0
M  CHG  1  17  -1
M  END
>  <UniqueID>  (33) 
28

>  <SMILES>  (33) 
COc1ccc(-c2ncc[nH]/c2=N\c2ccc(Oc3ccccc3)cc2)cc1[O-]

>  <Energy>  (33) 
74.61730267829157

>  <Genealogy>  (33) 
COc1ccc(-c2ncc[nH]c2=Nc2ccc(Oc3ccccc3)cc2)cc1[O-] (protonated)
COc1ccc(-c2ncc[nH]/c2=N\c2ccc(Oc3ccccc3)cc2)cc1[O-] (cis-trans isomerization)
COc1ccc(-c2ncc[nH]/c2=N\c2ccc(Oc3ccccc3)cc2)cc1[O-] (3D coordinates assigned)
COc1ccc(-c2ncc[nH]/c2=N\c2ccc(Oc3ccccc3)cc2)cc1[O-] (optimized conformer: 74.61730267829157 kcal/mol)

>  <smiles>  (33) 
COc1ccc(-c2ncc[nH]c2=Nc2ccc(Oc3ccccc3)cc2)cc1O

>  <score_type>  (33) 
oracle

>  <origin>  (33) 
adgpu

>  <m_score__min__energy>  (33) 
-10.93

>  <m_primary>  (33) 
energy

$$$$
33:0
     RDKit          3D

 40 42  0  0  0  0  0  0  0  0999 V2000
   -6.0870   15.9740  -33.8330 C   0  0  0  0  0  0  0  0  0  0  0  0
   -7.1680   16.7300  -33.2960 O   0  0  0  0  0  0  0  0  0  0  0  0
   -7.1210   18.1090  -33.0460 C   0  0  0  0  0  0  0  0  0  0  0  0
   -8.0530   18.7600  -32.2140 C   0  0  0  0  0  0  0  0  0  0  0  0
   -7.9620   20.1370  -31.9960 C   0  0  0  0  0  0  0  0  0  0  0  0
   -6.9340   20.8850  -32.5860 C   0  0  0  0  0  0  0  0  0  0  0  0
   -6.8750   22.3040  -32.3660 N   0  0  0  0  0  0  0  0  0  0  0  0
   -5.8330   22.9560  -31.6250 C   0  0  0  0  0  0  0  0  0  0  0  0
   -5.6210   24.3210  -31.5230 C   0  0  0  0  0  0  0  0  0  0  0  0
   -4.4570   24.4570  -30.7910 C   0  0  0  0  0  0  0  0  0  0  0  0
   -3.8620   25.6730  -30.4790 O   0  0  0  0  0  0  0  0  0  0  0  0
   -3.9450   23.2520  -30.4510 N   0  0  0  0  0  0  0  0  0  0  0  0
   -2.7440   23.0020  -29.6990 C   0  0  0  0  0  0  0  0  0  0  0  0
   -2.6170   23.4720  -28.3820 C   0  0  0  0  0  0  0  0  0  0  0  0
   -1.4500   23.2290  -27.6520 C   0  0  0  0  0  0  0  0  0  0  0  0
   -0.3860   22.5230  -28.2340 C   0  0  0  0  0  0  0  0  0  0  0  0
    0.8500   22.2280  -27.4380 C   0  0  0  0  0  0  0  0  0  0  0  0
   -0.5170   22.0360  -29.5430 C   0  0  0  0  0  0  0  0  0  0  0  0
   -1.6840   22.2790  -30.2720 C   0  0  0  0  0  0  0  0  0  0  0  0
   -4.7860   22.3320  -30.9700 C   0  0  0  0  0  0  0  0  0  0  0  0
   -4.6170   20.9560  -30.8230 O   0  0  0  0  0  0  0  0  0  0  0  0
   -6.0180   20.2390  -33.4330 C   0  0  0  0  0  0  0  0  0  0  0  0
   -6.1100   18.8620  -33.6530 C   0  0  0  0  0  0  0  0  0  0  0  0
   -5.4883   15.5553  -33.0107 H   0  0  0  0  0  0  0  0  0  0  0  0
   -6.4836   15.1554  -34.4515 H   0  0  0  0  0  0  0  0  0  0  0  0
   -5.4542   16.6274  -34.4515 H   0  0  0  0  0  0  0  0  0  0  0  0
   -8.8560   18.1815  -31.7338 H   0  0  0  0  0  0  0  0  0  0  0  0
   -8.7032   20.6382  -31.3561 H   0  0  0  0  0  0  0  0  0  0  0  0
   -7.6770   22.8850  -32.7000 H   0  0  0  0  0  0  0  0  0  0  0  0
   -6.2464   25.1258  -31.9368 H   0  0  0  0  0  0  0  0  0  0  0  0
   -3.4418   24.0355  -27.9214 H   0  0  0  0  0  0  0  0  0  0  0  0
   -1.3653   23.5926  -26.6173 H   0  0  0  0  0  0  0  0  0  0  0  0
    0.6167   22.2837  -26.3645 H   0  0  0  0  0  0  0  0  0  0  0  0
    1.2115   21.2183  -27.6828 H   0  0  0  0  0  0  0  0  0  0  0  0
    1.6285   22.9656  -27.6828 H   0  0  0  0  0  0  0  0  0  0  0  0
    0.3027   21.4602  -29.9976 H   0  0  0  0  0  0  0  0  0  0  0  0
   -1.7736   21.9018  -31.3014 H   0  0  0  0  0  0  0  0  0  0  0  0
   -5.4070   20.3220  -30.8100 H   0  0  0  0  0  0  0  0  0  0  0  0
   -5.2244   20.8200  -33.9255 H   0  0  0  0  0  0  0  0  0  0  0  0
   -5.3806   18.3654  -34.3097 H   0  0  0  0  0  0  0  0  0  0  0  0
  1  2  1  0
  2  3  1  0
  3  4  2  0
  4  5  1  0
  5  6  2  0
  6  7  1  0
  7  8  1  0
  8  9  1  0
  9 10  2  0
 10 11  1  0
 10 12  1  0
 12 13  1  0
 13 14  2  0
 14 15  1  0
 15 16  2  0
 16 17  1  0
 16 18  1  0
 18 19  2  0
 12 20  1  0
 20 21  1  0
  6 22  1  0
 22 23  2  0
 23  3  1  0
 20  8  2  0
 19 13  1  0
  1 24  1  0
  1 25  1  0
  1 26  1  0
  4 27  1  0
  5 28  1  0
  7 29  1  0
  9 30  1  0
 14 31  1  0
 15 32  1  0
 17 33  1  0
 17 34  1  0
 17 35  1  0
 18 36  1  0
 19 37  1  0
 21 38  1  0
 22 39  1  0
 23 40  1  0
M  CHG  1  11  -1
M  END
>  <UniqueID>  (34) 
29

>  <SMILES>  (34) 
COc1ccc(Nc2cc([O-])n(-c3ccc(C)cc3)c2O)cc1

>  <Energy>  (34) 
79.31429071263761

>  <Genealogy>  (34) 
COc1ccc(Nc2cc([O-])n(-c3ccc(C)cc3)c2O)cc1 (protonated)
COc1ccc(Nc2cc([O-])n(-c3ccc(C)cc3)c2O)cc1 (3D coordinates assigned)
COc1ccc(Nc2cc([O-])n(-c3ccc(C)cc3)c2O)cc1 (optimized conformer: 79.31429071263761 kcal/mol)

>  <smiles>  (34) 
COc1ccc(Nc2cc(O)n(-c3ccc(C)cc3)c2O)cc1

>  <score_type>  (34) 
oracle

>  <origin>  (34) 
adgpu

>  <m_score__min__energy>  (34) 
-9.3599999999999994

>  <m_primary>  (34) 
energy

$$$$
34:0
     RDKit          3D

 42 44  0  0  0  0  0  0  0  0999 V2000
   -0.8650   20.5610  -28.7160 C   0  0  0  0  0  0  0  0  0  0  0  0
   -1.5910   21.8040  -29.1370 C   0  0  0  0  0  0  0  0  0  0  0  0
   -1.0180   23.0640  -28.9170 C   0  0  0  0  0  0  0  0  0  0  0  0
   -1.6740   24.2180  -29.3460 C   0  0  0  0  0  0  0  0  0  0  0  0
   -2.9020   24.1310  -30.0090 C   0  0  0  0  0  0  0  0  0  0  0  0
   -3.5010   25.3050  -30.4510 O   0  0  0  0  0  0  0  0  0  0  0  0
   -3.4960   22.8700  -30.2400 C   0  0  0  0  0  0  0  0  0  0  0  0
   -4.7990   22.7260  -30.9400 C   0  0  0  0  0  0  0  0  0  0  0  0
   -5.1990   23.6550  -31.6940 O   0  0  0  0  0  0  0  0  0  0  0  0
   -5.5760   21.5230  -30.8270 N   0  0  0  0  0  0  0  0  0  0  0  0
   -6.9020   21.4050  -31.3680 C   0  0  0  0  0  0  0  0  0  0  0  0
   -7.8380   22.4120  -31.0850 C   0  0  0  0  0  0  0  0  0  0  0  0
   -9.1500   22.3160  -31.5530 C   0  0  0  0  0  0  0  0  0  0  0  0
   -9.5390   21.2160  -32.3190 C   0  0  0  0  0  0  0  0  0  0  0  0
   -8.6130   20.2190  -32.6310 C   0  0  0  0  0  0  0  0  0  0  0  0
   -7.2890   20.3040  -32.1700 C   0  0  0  0  0  0  0  0  0  0  0  0
   -6.3370   19.3120  -32.5970 N   0  0  0  0  0  0  0  0  0  0  0  0
   -6.5930   17.8860  -32.3640 C   0  0  0  0  0  0  0  0  0  0  0  0
   -6.4320   17.0760  -33.6720 C   0  0  0  0  0  0  0  0  0  0  0  0
   -5.7950   17.7890  -34.7230 O   0  0  0  0  0  0  0  0  0  0  0  0
   -4.6880   18.5140  -34.2310 C   0  0  0  0  0  0  0  0  0  0  0  0
   -5.1890   19.7090  -33.4180 C   0  0  0  0  0  0  0  0  0  0  0  0
   -2.8170   21.7130  -29.8130 C   0  0  0  0  0  0  0  0  0  0  0  0
   -0.8343   20.5085  -27.6177 H   0  0  0  0  0  0  0  0  0  0  0  0
   -1.3896   19.6784  -29.1108 H   0  0  0  0  0  0  0  0  0  0  0  0
    0.1615   20.5844  -29.1108 H   0  0  0  0  0  0  0  0  0  0  0  0
   -0.0479   23.1432  -28.4044 H   0  0  0  0  0  0  0  0  0  0  0  0
   -1.2219   25.2036  -29.1613 H   0  0  0  0  0  0  0  0  0  0  0  0
   -5.0740   20.6380  -30.5890 H   0  0  0  0  0  0  0  0  0  0  0  0
   -7.5350   23.2853  -30.4887 H   0  0  0  0  0  0  0  0  0  0  0  0
   -9.8770   23.1073  -31.3180 H   0  0  0  0  0  0  0  0  0  0  0  0
  -10.5759   21.1346  -32.6771 H   0  0  0  0  0  0  0  0  0  0  0  0
   -8.9230   19.3593  -33.2432 H   0  0  0  0  0  0  0  0  0  0  0  0
   -5.8791   17.5092  -31.6167 H   0  0  0  0  0  0  0  0  0  0  0  0
   -7.6252   17.7685  -32.0023 H   0  0  0  0  0  0  0  0  0  0  0  0
   -5.8342   16.1794  -33.4513 H   0  0  0  0  0  0  0  0  0  0  0  0
   -7.4466   16.8356  -34.0223 H   0  0  0  0  0  0  0  0  0  0  0  0
   -4.0777   17.8622  -33.5886 H   0  0  0  0  0  0  0  0  0  0  0  0
   -4.0767   18.8707  -35.0731 H   0  0  0  0  0  0  0  0  0  0  0  0
   -4.3810   20.0691  -32.7642 H   0  0  0  0  0  0  0  0  0  0  0  0
   -5.4974   20.5097  -34.1063 H   0  0  0  0  0  0  0  0  0  0  0  0
   -3.2540   20.7234  -30.0123 H   0  0  0  0  0  0  0  0  0  0  0  0
  1  2  1  0
  2  3  2  0
  3  4  1  0
  4  5  2  0
  5  6  1  0
  5  7  1  0
  7  8  1  0
  8  9  2  0
  8 10  1  0
 10 11  1  0
 11 12  2  0
 12 13  1  0
 13 14  2  0
 14 15  1  0
 15 16  2  0
 16 17  1  0
 17 18  1  0
 18 19  1  0
 19 20  1  0
 20 21  1  0
 21 22  1  0
  7 23  2  0
 23  2  1  0
 16 11  1  0
 22 17  1  0
  1 24  1  0
  1 25  1  0
  1 26  1  0
  3 27  1  0
  4 28  1  0
 10 29  1  0
 12 30  1  0
 13 31  1  0
 14 32  1  0
 15 33  1  0
 18 34  1  0
 18 35  1  0
 19 36  1  0
 19 37  1  0
 21 38  1  0
 21 39  1  0
 22 40  1  0
 22 41  1  0
 23 42  1  0
M  CHG  1   6  -1
M  END
>  <UniqueID>  (35) 
30

>  <SMILES>  (35) 
Cc1ccc([O-])c(C(=O)Nc2ccccc2N2CCOCC2)c1

>  <Energy>  (35) 
63.05550147358902

>  <Genealogy>  (35) 
Cc1ccc([O-])c(C(=O)Nc2ccccc2N2CCOCC2)c1 (protonated)
Cc1ccc([O-])c(C(=O)Nc2ccccc2N2CCOCC2)c1 (3D coordinates assigned)
Cc1ccc([O-])c(C(=O)Nc2ccccc2N2CCOCC2)c1 (nonaromatic ring conformer: 63.05550147358902 kcal/mol)

>  <smiles>  (35) 
Cc1ccc(O)c(C(=O)Nc2ccccc2N2CCOCC2)c1

>  <score_type>  (35) 
oracle

>  <origin>  (35) 
adgpu

>  <m_score__min__energy>  (35) 
-11.16

>  <m_primary>  (35) 
energy

$$$$
35:0
     RDKit          3D

 46 48  0  0  0  0  0  0  0  0999 V2000
   -3.7160   16.6690  -35.6040 C   0  0  0  0  0  0  0  0  0  0  0  0
   -4.9280   17.4170  -35.6330 O   0  0  0  0  0  0  0  0  0  0  0  0
   -5.7040   17.7100  -34.5020 C   0  0  0  0  0  0  0  0  0  0  0  0
   -6.5090   16.7450  -33.8670 C   0  0  0  0  0  0  0  0  0  0  0  0
   -7.2650   17.0900  -32.7440 C   0  0  0  0  0  0  0  0  0  0  0  0
   -7.2250   18.3920  -32.2410 C   0  0  0  0  0  0  0  0  0  0  0  0
   -6.4220   19.3650  -32.8590 C   0  0  0  0  0  0  0  0  0  0  0  0
   -6.3820   20.7120  -32.3470 N   0  0  0  0  0  0  0  0  0  0  0  0
   -7.5320   21.2780  -31.8790 C   0  0  0  0  0  0  0  0  0  0  0  0
   -7.5210   22.5760  -31.3740 C   0  0  0  0  0  0  0  0  0  0  0  0
   -6.3580   23.2920  -31.3390 N   0  0  0  0  0  0  0  0  0  0  0  0
   -6.3940   24.6720  -30.8310 C   0  0  0  0  0  0  0  0  0  0  0  0
   -5.1360   24.9730  -30.0710 C   0  0  0  0  0  0  0  0  0  0  0  0
   -4.2360   25.6670  -30.6170 O   0  0  0  0  0  0  0  0  0  0  0  0
   -4.9690   24.4760  -28.7340 N   0  0  0  0  0  0  0  0  0  0  0  0
   -3.7150   24.4490  -28.0310 C   0  0  0  0  0  0  0  0  0  0  0  0
   -3.5980   24.9330  -26.7150 C   0  0  0  0  0  0  0  0  0  0  0  0
   -2.3620   24.9130  -26.0610 C   0  0  0  0  0  0  0  0  0  0  0  0
   -1.2200   24.4370  -26.7220 C   0  0  0  0  0  0  0  0  0  0  0  0
    0.1000   24.3810  -26.0120 C   0  0  0  0  0  0  0  0  0  0  0  0
   -1.3320   23.9620  -28.0370 C   0  0  0  0  0  0  0  0  0  0  0  0
   -2.5690   23.9800  -28.6890 C   0  0  0  0  0  0  0  0  0  0  0  0
   -5.2010   22.7360  -31.8220 C   0  0  0  0  0  0  0  0  0  0  0  0
   -4.1210   23.3900  -31.8170 O   0  0  0  0  0  0  0  0  0  0  0  0
   -5.2130   21.4290  -32.3320 C   0  0  0  0  0  0  0  0  0  0  0  0
   -4.1470   20.9290  -32.7890 O   0  0  0  0  0  0  0  0  0  0  0  0
   -5.6690   19.0140  -33.9920 C   0  0  0  0  0  0  0  0  0  0  0  0
   -3.4220   16.4876  -34.5597 H   0  0  0  0  0  0  0  0  0  0  0  0
   -3.8668   15.7066  -36.1150 H   0  0  0  0  0  0  0  0  0  0  0  0
   -2.9234   17.2352  -36.1150 H   0  0  0  0  0  0  0  0  0  0  0  0
   -6.5427   15.7167  -34.2562 H   0  0  0  0  0  0  0  0  0  0  0  0
   -7.8945   16.3327  -32.2539 H   0  0  0  0  0  0  0  0  0  0  0  0
   -7.8245   18.6568  -31.3575 H   0  0  0  0  0  0  0  0  0  0  0  0
   -8.4718   20.7067  -31.9006 H   0  0  0  0  0  0  0  0  0  0  0  0
   -8.4528   23.0266  -31.0017 H   0  0  0  0  0  0  0  0  0  0  0  0
   -6.4839   25.3692  -31.6771 H   0  0  0  0  0  0  0  0  0  0  0  0
   -7.2574   24.7866  -30.1592 H   0  0  0  0  0  0  0  0  0  0  0  0
   -5.8270   24.1750  -28.2170 H   0  0  0  0  0  0  0  0  0  0  0  0
   -4.4840   25.3295  -26.1975 H   0  0  0  0  0  0  0  0  0  0  0  0
   -2.2850   25.2720  -25.0241 H   0  0  0  0  0  0  0  0  0  0  0  0
   -0.0678   24.3881  -24.9249 H   0  0  0  0  0  0  0  0  0  0  0  0
    0.6299   23.4596  -26.2952 H   0  0  0  0  0  0  0  0  0  0  0  0
    0.7060   25.2542  -26.2952 H   0  0  0  0  0  0  0  0  0  0  0  0
   -0.4438   23.5740  -28.5572 H   0  0  0  0  0  0  0  0  0  0  0  0
   -2.6437   23.6232  -29.7268 H   0  0  0  0  0  0  0  0  0  0  0  0
   -5.0439   19.7731  -34.4849 H   0  0  0  0  0  0  0  0  0  0  0  0
  1  2  1  0
  2  3  1  0
  3  4  2  0
  4  5  1  0
  5  6  2  0
  6  7  1  0
  7  8  1  0
  8  9  1  0
  9 10  2  0
 10 11  1  0
 11 12  1  0
 12 13  1  0
 13 14  2  0
 13 15  1  0
 15 16  1  0
 16 17  2  0
 17 18  1  0
 18 19  2  0
 19 20  1  0
 19 21  1  0
 21 22  2  0
 11 23  1  0
 23 24  2  0
 23 25  1  0
 25 26  2  0
  7 27  2  0
 27  3  1  0
 25  8  1  0
 22 16  1  0
  1 28  1  0
  1 29  1  0
  1 30  1  0
  4 31  1  0
  5 32  1  0
  6 33  1  0
  9 34  1  0
 10 35  1  0
 12 36  1  0
 12 37  1  0
 15 38  1  0
 17 39  1  0
 18 40  1  0
 20 41  1  0
 20 42  1  0
 20 43  1  0
 21 44  1  0
 22 45  1  0
 27 46  1  0
M  END
>  <UniqueID>  (36) 
31

>  <SMILES>  (36) 
COc1cccc(-n2ccn(CC(=O)Nc3ccc(C)cc3)c(=O)c2=O)c1

>  <Energy>  (36) 
60.85601025868896

>  <Genealogy>  (36) 
COc1cccc(-n2ccn(CC(=O)Nc3ccc(C)cc3)c(=O)c2=O)c1 (3D coordinates assigned)
COc1cccc(-n2ccn(CC(=O)Nc3ccc(C)cc3)c(=O)c2=O)c1 (optimized conformer: 60.85601025868896 kcal/mol)

>  <smiles>  (36) 
COc1cccc(-n2ccn(CC(=O)Nc3ccc(C)cc3)c(=O)c2=O)c1

>  <score_type>  (36) 
oracle

>  <origin>  (36) 
adgpu

>  <m_score__min__energy>  (36) 
-9.3100000000000005

>  <m_primary>  (36) 
energy

$$$$
36:0
     RDKit          3D

 40 42  0  0  0  0  0  0  0  0999 V2000
   -5.3390   19.3670  -33.6680 C   0  0  0  0  0  0  0  0  0  0  0  0
   -5.6940   20.5880  -33.1030 O   0  0  0  0  0  0  0  0  0  0  0  0
   -6.9210   20.9220  -32.5590 C   0  0  0  0  0  0  0  0  0  0  0  0
   -7.8530   19.8960  -32.4830 C   0  0  0  0  0  0  0  0  0  0  0  0
   -9.1200   20.0940  -31.9640 C   0  0  0  0  0  0  0  0  0  0  0  0
   -9.4180   21.3600  -31.5240 C   0  0  0  0  0  0  0  0  0  0  0  0
   -8.4820   22.3910  -31.6000 C   0  0  0  0  0  0  0  0  0  0  0  0
   -7.2180   22.2130  -32.1110 C   0  0  0  0  0  0  0  0  0  0  0  0
   -6.1900   23.2780  -32.1920 C   0  0  0  0  0  0  0  0  0  0  0  0
   -5.4880   23.5410  -30.9170 C   0  0  0  0  0  0  0  0  0  0  0  0
   -5.7990   24.6560  -30.1280 C   0  0  0  0  0  0  0  0  0  0  0  0
   -5.1280   24.9210  -28.9840 N   0  0  0  0  0  0  0  0  0  0  0  0
   -4.4580   22.7530  -30.4280 C   0  0  0  0  0  0  0  0  0  0  0  0
   -3.4860   24.3460  -27.4900 O   0  0  0  0  0  0  0  0  0  0  0  0
   -3.8090   23.0650  -29.2660 N   0  0  0  0  0  0  0  0  0  0  0  0
   -2.7600   22.1880  -28.8470 C   0  0  0  0  0  0  0  0  0  0  0  0
   -1.4810   22.2540  -29.3520 C   0  0  0  0  0  0  0  0  0  0  0  0
   -0.5450   21.3320  -28.8650 C   0  0  0  0  0  0  0  0  0  0  0  0
   -0.9150   20.3870  -27.9010 C   0  0  0  0  0  0  0  0  0  0  0  0
   -2.1960   20.3260  -27.3980 C   0  0  0  0  0  0  0  0  0  0  0  0
   -3.1120   21.2350  -27.8820 C   0  0  0  0  0  0  0  0  0  0  0  0
   -4.1410   24.1480  -28.5390 C   0  0  0  0  0  0  0  0  0  0  0  0
   -4.0960   21.6840  -31.0050 N   0  0  0  0  0  0  0  0  0  0  0  0
   -5.1279   18.6409  -32.8691 H   0  0  0  0  0  0  0  0  0  0  0  0
   -6.1667   18.9967  -34.2908 H   0  0  0  0  0  0  0  0  0  0  0  0
   -4.4418   19.4982  -34.2908 H   0  0  0  0  0  0  0  0  0  0  0  0
   -7.5757   18.8955  -32.8464 H   0  0  0  0  0  0  0  0  0  0  0  0
   -9.8536   19.2763  -31.9066 H   0  0  0  0  0  0  0  0  0  0  0  0
  -10.4137   21.5649  -31.1037 H   0  0  0  0  0  0  0  0  0  0  0  0
   -8.7670   23.3890  -31.2357 H   0  0  0  0  0  0  0  0  0  0  0  0
   -5.4427   22.9799  -32.9422 H   0  0  0  0  0  0  0  0  0  0  0  0
   -6.7164   24.2058  -32.4603 H   0  0  0  0  0  0  0  0  0  0  0  0
   -6.6071   25.3312  -30.4460 H   0  0  0  0  0  0  0  0  0  0  0  0
   -5.3840   25.7580  -28.4200 H   0  0  0  0  0  0  0  0  0  0  0  0
   -1.2043   23.0023  -30.1093 H   0  0  0  0  0  0  0  0  0  0  0  0
    0.4879   21.3510  -29.2429 H   0  0  0  0  0  0  0  0  0  0  0  0
   -0.1621   19.6734  -27.5350 H   0  0  0  0  0  0  0  0  0  0  0  0
   -2.4770   19.5806  -26.6394 H   0  0  0  0  0  0  0  0  0  0  0  0
   -4.1439   21.2118  -27.5017 H   0  0  0  0  0  0  0  0  0  0  0  0
   -4.5580   21.3610  -31.8620 H   0  0  0  0  0  0  0  0  0  0  0  0
  1  2  1  0
  2  3  1  0
  3  4  2  0
  4  5  1  0
  5  6  2  0
  6  7  1  0
  7  8  2  0
  8  9  1  0
  9 10  1  0
 10 11  2  0
 11 12  1  0
 12 13  1  0
 13 14  2  0
 13 15  1  0
 15 16  1  0
 16 17  2  0
 17 18  1  0
 18 19  2  0
 19 20  1  0
 20 21  2  0
 15 22  1  0
 22 23  2  3
  8  3  1  0
 22 10  1  0
 21 16  1  0
  1 24  1  0
  1 25  1  0
  1 26  1  0
  4 27  1  0
  5 28  1  0
  6 29  1  0
  7 30  1  0
  9 31  1  0
  9 32  1  0
 11 33  1  0
 12 34  1  0
 17 35  1  0
 18 36  1  0
 19 37  1  0
 20 38  1  0
 21 39  1  0
 23 40  1  0
M  END
>  <smiles>  (37) 
COc1ccccc1Cc1c[nH]c(=O)n(-c2ccccc2)c1=N

>  <score_type>  (37) 
oracle

>  <origin>  (37) 
adgpu

>  <m_score__min__energy>  (37) 
-7.8399999999999999

>  <m_primary>  (37) 
energy

$$$$
37:0
     RDKit          3D

 50 53  0  0  0  0  0  0  0  0999 V2000
   -1.4310   15.8590  -35.4150 C   0  0  0  0  0  0  0  0  0  0  0  0
   -2.0570   15.1440  -34.3550 O   0  0  0  0  0  0  0  0  0  0  0  0
   -3.4300   14.8590  -34.2860 C   0  0  0  0  0  0  0  0  0  0  0  0
   -3.9360   13.5760  -34.5750 C   0  0  0  0  0  0  0  0  0  0  0  0
   -5.3120   13.3380  -34.5520 C   0  0  0  0  0  0  0  0  0  0  0  0
   -6.1980   14.3710  -34.2450 C   0  0  0  0  0  0  0  0  0  0  0  0
   -5.7090   15.6440  -33.9480 C   0  0  0  0  0  0  0  0  0  0  0  0
   -4.3280   15.8930  -33.9410 C   0  0  0  0  0  0  0  0  0  0  0  0
   -3.8610   17.2160  -33.6330 N   0  0  0  0  0  0  0  0  0  0  0  0
   -4.5250   18.4040  -34.0850 C   0  0  0  0  0  0  0  0  0  0  0  0
   -5.3520   18.3410  -35.0340 O   0  0  0  0  0  0  0  0  0  0  0  0
   -4.2240   19.7120  -33.4660 C   0  0  0  0  0  0  0  0  0  0  0  0
   -3.0070   20.3800  -33.4510 C   0  0  0  0  0  0  0  0  0  0  0  0
   -1.7360   19.9600  -34.1170 C   0  0  0  0  0  0  0  0  0  0  0  0
   -3.1090   21.4920  -32.6980 N   0  0  0  0  0  0  0  0  0  0  0  0
   -4.3450   21.5550  -32.2260 N   0  0  0  0  0  0  0  0  0  0  0  0
   -4.8070   22.6460  -31.4100 C   0  0  0  0  0  0  0  0  0  0  0  0
   -4.4480   22.7360  -30.0530 C   0  0  0  0  0  0  0  0  0  0  0  0
   -4.9140   23.7960  -29.2700 C   0  0  0  0  0  0  0  0  0  0  0  0
   -5.7510   24.7650  -29.8290 C   0  0  0  0  0  0  0  0  0  0  0  0
   -6.1300   24.6710  -31.1710 C   0  0  0  0  0  0  0  0  0  0  0  0
   -5.6650   23.6130  -31.9580 C   0  0  0  0  0  0  0  0  0  0  0  0
   -5.0510   20.4830  -32.6610 C   0  0  0  0  0  0  0  0  0  0  0  0
   -6.4440   20.1650  -32.2790 C   0  0  0  0  0  0  0  0  0  0  0  0
   -6.7710   18.8910  -31.7840 C   0  0  0  0  0  0  0  0  0  0  0  0
   -8.0900   18.5880  -31.4350 C   0  0  0  0  0  0  0  0  0  0  0  0
   -9.0910   19.5530  -31.5770 C   0  0  0  0  0  0  0  0  0  0  0  0
   -8.7740   20.8230  -32.0690 C   0  0  0  0  0  0  0  0  0  0  0  0
   -7.4550   21.1290  -32.4180 C   0  0  0  0  0  0  0  0  0  0  0  0
   -0.7611   16.6241  -34.9957 H   0  0  0  0  0  0  0  0  0  0  0  0
   -0.8484   15.1610  -36.0342 H   0  0  0  0  0  0  0  0  0  0  0  0
   -2.1998   16.3443  -36.0342 H   0  0  0  0  0  0  0  0  0  0  0  0
   -3.2434   12.7573  -34.8201 H   0  0  0  0  0  0  0  0  0  0  0  0
   -5.6984   12.3329  -34.7766 H   0  0  0  0  0  0  0  0  0  0  0  0
   -7.2817   14.1822  -34.2370 H   0  0  0  0  0  0  0  0  0  0  0  0
   -6.4116   16.4585  -33.7176 H   0  0  0  0  0  0  0  0  0  0  0  0
   -2.9100   17.3170  -33.2120 H   0  0  0  0  0  0  0  0  0  0  0  0
   -0.9857   19.7121  -33.3518 H   0  0  0  0  0  0  0  0  0  0  0  0
   -1.9254   19.0767  -34.7446 H   0  0  0  0  0  0  0  0  0  0  0  0
   -1.3618   20.7823  -34.7446 H   0  0  0  0  0  0  0  0  0  0  0  0
   -3.7980   21.9693  -29.6062 H   0  0  0  0  0  0  0  0  0  0  0  0
   -4.6213   23.8674  -28.2121 H   0  0  0  0  0  0  0  0  0  0  0  0
   -6.1117   25.6019  -29.2129 H   0  0  0  0  0  0  0  0  0  0  0  0
   -6.7949   25.4303  -31.6086 H   0  0  0  0  0  0  0  0  0  0  0  0
   -5.9728   23.5378  -33.0114 H   0  0  0  0  0  0  0  0  0  0  0  0
   -5.9856   18.1292  -31.6708 H   0  0  0  0  0  0  0  0  0  0  0  0
   -8.3405   17.5892  -31.0482 H   0  0  0  0  0  0  0  0  0  0  0  0
  -10.1287   19.3134  -31.3016 H   0  0  0  0  0  0  0  0  0  0  0  0
   -9.5626   21.5816  -32.1815 H   0  0  0  0  0  0  0  0  0  0  0  0
   -7.2085   22.1294  -32.8031 H   0  0  0  0  0  0  0  0  0  0  0  0
  1  2  1  0
  2  3  1  0
  3  4  2  0
  4  5  1  0
  5  6  2  0
  6  7  1  0
  7  8  2  0
  8  9  1  0
  9 10  1  0
 10 11  2  0
 10 12  1  0
 12 13  1  0
 13 14  1  0
 13 15  2  0
 15 16  1  0
 16 17  1  0
 17 18  2  0
 18 19  1  0
 19 20  2  0
 20 21  1  0
 21 22  2  0
 16 23  1  0
 23 24  1  0
 24 25  2  0
 25 26  1  0
 26 27  2  0
 27 28  1  0
 28 29  2  0
  8  3  1  0
 23 12  2  0
 29 24  1  0
 22 17  1  0
  1 30  1  0
  1 31  1  0
  1 32  1  0
  4 33  1  0
  5 34  1  0
  6 35  1  0
  7 36  1  0
  9 37  1  0
 14 38  1  0
 14 39  1  0
 14 40  1  0
 18 41  1  0
 19 42  1  0
 20 43  1  0
 21 44  1  0
 22 45  1  0
 25 46  1  0
 26 47  1  0
 27 48  1  0
 28 49  1  0
 29 50  1  0
M  END
>  <UniqueID>  (38) 
32

>  <SMILES>  (38) 
COc1ccccc1NC(=O)c1c(C)nn(-c2ccccc2)c1-c1ccccc1

>  <Energy>  (38) 
100.08864073664692

>  <Genealogy>  (38) 
COc1ccccc1NC(=O)c1c(C)nn(-c2ccccc2)c1-c1ccccc1 (3D coordinates assigned)
COc1ccccc1NC(=O)c1c(C)nn(-c2ccccc2)c1-c1ccccc1 (optimized conformer: 100.08864073664692 kcal/mol)

>  <smiles>  (38) 
COc1ccccc1NC(=O)c1c(C)nn(-c2ccccc2)c1-c1ccccc1

>  <score_type>  (38) 
oracle

>  <origin>  (38) 
adgpu

>  <m_score__min__energy>  (38) 
-9.0399999999999991

>  <m_primary>  (38) 
energy

$$$$
38:0
     RDKit          3D

 32 33  0  0  0  0  0  0  0  0999 V2000
   -1.2030   25.7140  -28.4280 C   0  0  0  0  0  0  0  0  0  0  0  0
   -2.2580   25.2950  -29.3410 N   0  0  0  0  0  0  0  0  0  0  0  0
   -3.3870   24.4840  -28.9820 C   0  0  0  0  0  0  0  0  0  0  0  0
   -3.4580   24.0360  -27.8090 O   0  0  0  0  0  0  0  0  0  0  0  0
   -4.4420   24.1230  -29.9530 C   0  0  0  0  0  0  0  0  0  0  0  0
   -5.7300   24.6640  -29.8150 C   0  0  0  0  0  0  0  0  0  0  0  0
   -6.7280   24.3490  -30.7390 C   0  0  0  0  0  0  0  0  0  0  0  0
   -6.4510   23.4940  -31.8090 C   0  0  0  0  0  0  0  0  0  0  0  0
   -5.1720   22.9440  -31.9610 C   0  0  0  0  0  0  0  0  0  0  0  0
   -4.8970   22.0910  -33.0860 N   0  0  0  0  0  0  0  0  0  0  0  0
   -5.3760   20.7400  -33.2120 C   0  0  0  0  0  0  0  0  0  0  0  0
   -4.5510   19.7200  -33.7090 C   0  0  0  0  0  0  0  0  0  0  0  0
   -5.0270   18.4130  -33.8030 C   0  0  0  0  0  0  0  0  0  0  0  0
   -6.3280   18.0980  -33.3940 C   0  0  0  0  0  0  0  0  0  0  0  0
   -6.8200   16.4100  -33.4790 Cl  0  0  0  0  0  0  0  0  0  0  0  0
   -7.1690   19.1110  -32.8780 C   0  0  0  0  0  0  0  0  0  0  0  0
   -8.5150   18.8380  -32.4460 N   0  0  0  0  0  0  0  0  0  0  0  0
   -9.4940   19.2930  -33.0720 O   0  0  0  0  0  0  0  0  0  0  0  0
   -8.7390   18.1980  -31.2480 O   0  0  0  0  0  0  0  0  0  0  0  0
   -6.6700   20.4240  -32.7790 C   0  0  0  0  0  0  0  0  0  0  0  0
   -4.1610   23.2880  -31.0460 C   0  0  0  0  0  0  0  0  0  0  0  0
   -1.5415   25.5795  -27.3901 H   0  0  0  0  0  0  0  0  0  0  0  0
   -0.3039   25.1047  -28.6023 H   0  0  0  0  0  0  0  0  0  0  0  0
   -0.9669   26.7741  -28.6023 H   0  0  0  0  0  0  0  0  0  0  0  0
   -5.9538   25.3387  -28.9756 H   0  0  0  0  0  0  0  0  0  0  0  0
   -7.7356   24.7752  -30.6244 H   0  0  0  0  0  0  0  0  0  0  0  0
   -7.2410   23.2519  -32.5351 H   0  0  0  0  0  0  0  0  0  0  0  0
   -4.3150   22.4780  -33.8640 H   0  0  0  0  0  0  0  0  0  0  0  0
   -3.5237   19.9525  -34.0260 H   0  0  0  0  0  0  0  0  0  0  0  0
   -4.3745   17.6225  -34.2021 H   0  0  0  0  0  0  0  0  0  0  0  0
   -7.3067   21.2143  -32.3547 H   0  0  0  0  0  0  0  0  0  0  0  0
   -3.1417   22.8996  -31.1879 H   0  0  0  0  0  0  0  0  0  0  0  0
  1  2  1  0
  2  3  1  0
  3  4  2  0
  3  5  1  0
  5  6  2  0
  6  7  1  0
  7  8  2  0
  8  9  1  0
  9 10  1  0
 10 11  1  0
 11 12  2  0
 12 13  1  0
 13 14  2  0
 14 15  1  0
 14 16  1  0
 16 17  1  0
 17 18  2  0
 17 19  1  0
 16 20  2  0
  9 21  2  0
 21  5  1  0
 20 11  1  0
  1 22  1  0
  1 23  1  0
  1 24  1  0
  6 25  1  0
  7 26  1  0
  8 27  1  0
 10 28  1  0
 12 29  1  0
 13 30  1  0
 20 31  1  0
 21 32  1  0
M  CHG  3   2  -1  17   1  19  -1
M  END
>  <UniqueID>  (39) 
33

>  <SMILES>  (39) 
C[N-]C(=O)c1cccc(Nc2ccc(Cl)c([N+](=O)[O-])c2)c1

>  <Energy>  (39) 
45.38687646628691

>  <Genealogy>  (39) 
C[N-]C(=O)c1cccc(Nc2ccc(Cl)c([N+](=O)[O-])c2)c1 (protonated)
C[N-]C(=O)c1cccc(Nc2ccc(Cl)c([N+](=O)[O-])c2)c1 (3D coordinates assigned)
C[N-]C(=O)c1cccc(Nc2ccc(Cl)c([N+](=O)[O-])c2)c1 (optimized conformer: 45.38687646628691 kcal/mol)

>  <smiles>  (39) 
CNC(=O)c1cccc(Nc2ccc(Cl)c([N+](=O)[O-])c2)c1

>  <score_type>  (39) 
oracle

>  <origin>  (39) 
adgpu

>  <m_score__min__energy>  (39) 
-9.6799999999999997

>  <m_primary>  (39) 
energy

$$$$
39:0
     RDKit          3D

 36 37  0  0  0  0  0  0  0  0999 V2000
   -0.3090   20.5810  -32.5000 C   0  0  0  0  0  0  0  0  0  0  0  0
   -0.5590   19.7870  -31.2530 C   0  0  0  0  0  0  0  0  0  0  0  0
   -0.3130   18.5500  -31.2630 O   0  0  0  0  0  0  0  0  0  0  0  0
   -1.1080   20.3850  -30.0650 N   0  0  0  0  0  0  0  0  0  0  0  0
   -1.2910   21.7970  -29.8250 C   0  0  0  0  0  0  0  0  0  0  0  0
   -0.3120   22.5680  -29.1730 C   0  0  0  0  0  0  0  0  0  0  0  0
   -0.5480   23.9150  -28.8990 C   0  0  0  0  0  0  0  0  0  0  0  0
   -1.7660   24.5070  -29.2500 C   0  0  0  0  0  0  0  0  0  0  0  0
   -1.9670   25.8520  -28.9570 O   0  0  0  0  0  0  0  0  0  0  0  0
   -2.7650   23.7390  -29.8810 C   0  0  0  0  0  0  0  0  0  0  0  0
   -4.3380   24.4230  -30.3150 S   0  0  0  0  0  0  0  0  0  0  0  0
   -4.2730   25.9160  -30.4680 O   0  0  0  0  0  0  0  0  0  0  0  0
   -5.3230   24.1010  -29.2240 O   0  0  0  0  0  0  0  0  0  0  0  0
   -4.9080   23.7420  -31.8000 N   0  0  0  0  0  0  0  0  0  0  0  0
   -5.7920   22.6180  -31.9010 C   0  0  0  0  0  0  0  0  0  0  0  0
   -7.1040   22.6680  -31.3950 C   0  0  0  0  0  0  0  0  0  0  0  0
   -7.9520   21.5620  -31.5110 C   0  0  0  0  0  0  0  0  0  0  0  0
   -7.4870   20.3790  -32.1100 C   0  0  0  0  0  0  0  0  0  0  0  0
   -8.5300   18.9700  -32.2460 S   0  0  0  0  0  0  0  0  0  0  0  0
   -7.6590   17.6770  -32.9970 N   0  0  0  0  0  0  0  0  0  0  0  0
   -9.7390   19.2990  -33.0790 O   0  0  0  0  0  0  0  0  0  0  0  0
   -8.9870   18.5450  -30.8730 O   0  0  0  0  0  0  0  0  0  0  0  0
   -6.1860   20.3280  -32.6240 C   0  0  0  0  0  0  0  0  0  0  0  0
   -5.3450   21.4430  -32.5290 C   0  0  0  0  0  0  0  0  0  0  0  0
   -3.7030   21.3270  -33.1670 Cl  0  0  0  0  0  0  0  0  0  0  0  0
   -2.5200   22.3860  -30.1520 C   0  0  0  0  0  0  0  0  0  0  0  0
    0.0112   21.5979  -32.2292 H   0  0  0  0  0  0  0  0  0  0  0  0
    0.4793   20.0941  -33.0929 H   0  0  0  0  0  0  0  0  0  0  0  0
   -1.2341   20.6335  -33.0929 H   0  0  0  0  0  0  0  0  0  0  0  0
    0.6425   22.1074  -28.8783 H   0  0  0  0  0  0  0  0  0  0  0  0
    0.2288   24.5160  -28.4036 H   0  0  0  0  0  0  0  0  0  0  0  0
   -7.4654   23.5839  -30.9045 H   0  0  0  0  0  0  0  0  0  0  0  0
   -8.9835   21.6182  -31.1331 H   0  0  0  0  0  0  0  0  0  0  0  0
   -7.3970   18.0010  -33.9550 H   0  0  0  0  0  0  0  0  0  0  0  0
   -5.8229   19.4076  -33.1047 H   0  0  0  0  0  0  0  0  0  0  0  0
   -3.3033   21.7778  -30.6280 H   0  0  0  0  0  0  0  0  0  0  0  0
  1  2  1  0
  2  3  2  0
  2  4  1  0
  4  5  1  0
  5  6  2  0
  6  7  1  0
  7  8  2  0
  8  9  1  0
  8 10  1  0
 10 11  1  0
 11 12  2  0
 11 13  2  0
 11 14  1  0
 14 15  1  0
 15 16  2  0
 16 17  1  0
 17 18  2  0
 18 19  1  0
 19 20  1  0
 19 21  2  0
 19 22  2  0
 18 23  1  0
 23 24  2  0
 24 25  1  0
 10 26  2  0
 26  5  1  0
 24 15  1  0
  1 27  1  0
  1 28  1  0
  1 29  1  0
  6 30  1  0
  7 31  1  0
 16 32  1  0
 17 33  1  0
 20 34  1  0
 23 35  1  0
 26 36  1  0
M  CHG  4   4  -1   9  -1  14  -1  20  -1
M  END
>  <UniqueID>  (40) 
34

>  <SMILES>  (40) 
CC(=O)[N-]c1ccc([O-])c(S(=O)(=O)[N-]c2ccc(S([NH-])(=O)=O)cc2Cl)c1

>  <Energy>  (40) 
46.08624145679937

>  <Genealogy>  (40) 
CC(=O)[N-]c1ccc([O-])c(S(=O)(=O)[N-]c2ccc(S([NH-])(=O)=O)cc2Cl)c1 (protonated)
CC(=O)[N-]c1ccc([O-])c(S(=O)(=O)[N-]c2ccc(S([NH-])(=O)=O)cc2Cl)c1 (3D coordinates assigned)
CC(=O)[N-]c1ccc([O-])c(S(=O)(=O)[N-]c2ccc(S([NH-])(=O)=O)cc2Cl)c1 (optimized conformer: 46.08624145679937 kcal/mol)

>  <smiles>  (40) 
CC(=O)Nc1ccc(O)c(S(=O)(=O)Nc2ccc(S(N)(=O)=O)cc2Cl)c1

>  <score_type>  (40) 
oracle

>  <origin>  (40) 
adgpu

>  <m_score__min__energy>  (40) 
-12.92

>  <m_primary>  (40) 
energy

$$$$
40:0
     RDKit          3D

 48 51  0  0  0  0  0  0  0  0999 V2000
    0.2070   28.5760  -24.0840 C   0  0  0  0  0  0  0  0  0  0  0  0
   -0.2690   27.6240  -25.1400 C   0  0  0  0  0  0  0  0  0  0  0  0
   -0.0350   27.8970  -26.4960 C   0  0  0  0  0  0  0  0  0  0  0  0
   -0.5100   27.0300  -27.4840 C   0  0  0  0  0  0  0  0  0  0  0  0
   -1.2510   25.8880  -27.1300 C   0  0  0  0  0  0  0  0  0  0  0  0
   -1.7320   24.9690  -28.1260 N   0  0  0  0  0  0  0  0  0  0  0  0
   -0.8900   24.0600  -28.8530 C   0  0  0  0  0  0  0  0  0  0  0  0
    0.3650   24.1930  -28.8160 O   0  0  0  0  0  0  0  0  0  0  0  0
   -1.4890   22.9880  -29.6830 C   0  0  0  0  0  0  0  0  0  0  0  0
   -0.9080   21.7080  -29.6790 C   0  0  0  0  0  0  0  0  0  0  0  0
   -1.4480   20.6790  -30.4550 C   0  0  0  0  0  0  0  0  0  0  0  0
   -2.5710   20.9170  -31.2440 C   0  0  0  0  0  0  0  0  0  0  0  0
   -3.1670   22.1790  -31.2550 C   0  0  0  0  0  0  0  0  0  0  0  0
   -2.6450   23.2200  -30.4660 C   0  0  0  0  0  0  0  0  0  0  0  0
   -3.2680   24.5130  -30.4510 N   0  0  0  0  0  0  0  0  0  0  0  0
   -4.4760   24.8590  -29.7610 C   0  0  0  0  0  0  0  0  0  0  0  0
   -4.6310   24.5550  -28.5480 O   0  0  0  0  0  0  0  0  0  0  0  0
   -5.5680   25.5960  -30.4760 C   0  0  0  0  0  0  0  0  0  0  0  0
   -7.2390   25.0660  -29.9500 S   0  0  0  0  0  0  0  0  0  0  0  0
   -7.1990   23.5100  -30.8380 C   0  0  0  0  0  0  0  0  0  0  0  0
   -8.2120   22.6050  -30.7830 N   0  0  0  0  0  0  0  0  0  0  0  0
   -7.7500   21.6270  -31.5790 C   0  0  0  0  0  0  0  0  0  0  0  0
   -8.3680   20.4220  -31.8970 C   0  0  0  0  0  0  0  0  0  0  0  0
   -7.6800   19.5430  -32.7560 C   0  0  0  0  0  0  0  0  0  0  0  0
   -6.4050   19.8890  -33.2630 C   0  0  0  0  0  0  0  0  0  0  0  0
   -5.8110   21.1190  -32.9190 C   0  0  0  0  0  0  0  0  0  0  0  0
   -6.5240   21.9600  -32.0690 C   0  0  0  0  0  0  0  0  0  0  0  0
   -6.1900   23.1340  -31.6050 O   0  0  0  0  0  0  0  0  0  0  0  0
   -1.4750   25.6130  -25.7730 C   0  0  0  0  0  0  0  0  0  0  0  0
   -1.0020   26.4820  -24.7860 C   0  0  0  0  0  0  0  0  0  0  0  0
   -0.0033   28.1555  -23.0895 H   0  0  0  0  0  0  0  0  0  0  0  0
    1.2901   28.7338  -24.1939 H   0  0  0  0  0  0  0  0  0  0  0  0
   -0.3166   29.5371  -24.1939 H   0  0  0  0  0  0  0  0  0  0  0  0
    0.5256   28.7987  -26.7834 H   0  0  0  0  0  0  0  0  0  0  0  0
   -0.3034   27.2417  -28.5435 H   0  0  0  0  0  0  0  0  0  0  0  0
   -2.7290   25.0550  -28.4280 H   0  0  0  0  0  0  0  0  0  0  0  0
   -0.0200   21.5146  -29.0593 H   0  0  0  0  0  0  0  0  0  0  0  0
   -0.9861   19.6807  -30.4428 H   0  0  0  0  0  0  0  0  0  0  0  0
   -2.9895   20.1077  -31.8604 H   0  0  0  0  0  0  0  0  0  0  0  0
   -4.0505   22.3607  -31.8846 H   0  0  0  0  0  0  0  0  0  0  0  0
   -5.4592   26.6714  -30.2716 H   0  0  0  0  0  0  0  0  0  0  0  0
   -5.4713   25.3743  -31.5491 H   0  0  0  0  0  0  0  0  0  0  0  0
   -9.3580   20.1650  -31.4923 H   0  0  0  0  0  0  0  0  0  0  0  0
   -8.1366   18.5817  -33.0344 H   0  0  0  0  0  0  0  0  0  0  0  0
   -5.8746   19.1932  -33.9298 H   0  0  0  0  0  0  0  0  0  0  0  0
   -4.8220   21.4040  -33.3070 H   0  0  0  0  0  0  0  0  0  0  0  0
   -2.0270   24.7067  -25.4835 H   0  0  0  0  0  0  0  0  0  0  0  0
   -1.2057   26.2692  -23.7262 H   0  0  0  0  0  0  0  0  0  0  0  0
  1  2  1  0
  2  3  2  0
  3  4  1  0
  4  5  2  0
  5  6  1  0
  6  7  1  0
  7  8  2  0
  7  9  1  0
  9 10  2  0
 10 11  1  0
 11 12  2  0
 12 13  1  0
 13 14  2  0
 14 15  1  0
 15 16  1  0
 16 17  2  0
 16 18  1  0
 18 19  1  0
 19 20  1  0
 20 21  2  0
 21 22  1  0
 22 23  2  0
 23 24  1  0
 24 25  2  0
 25 26  1  0
 26 27  2  0
 27 28  1  0
  5 29  1  0
 29 30  2  0
 30  2  1  0
 14  9  1  0
 28 20  1  0
 27 22  1  0
  1 31  1  0
  1 32  1  0
  1 33  1  0
  3 34  1  0
  4 35  1  0
  6 36  1  0
 10 37  1  0
 11 38  1  0
 12 39  1  0
 13 40  1  0
 18 41  1  0
 18 42  1  0
 23 43  1  0
 24 44  1  0
 25 45  1  0
 26 46  1  0
 29 47  1  0
 30 48  1  0
M  CHG  1  15  -1
M  END
>  <UniqueID>  (41) 
35

>  <SMILES>  (41) 
Cc1ccc(NC(=O)c2ccccc2[N-]C(=O)CSc2nc3ccccc3o2)cc1

>  <Energy>  (41) 
94.18604849420163

>  <Genealogy>  (41) 
Cc1ccc(NC(=O)c2ccccc2[N-]C(=O)CSc2nc3ccccc3o2)cc1 (protonated)
Cc1ccc(NC(=O)c2ccccc2[N-]C(=O)CSc2nc3ccccc3o2)cc1 (3D coordinates assigned)
Cc1ccc(NC(=O)c2ccccc2[N-]C(=O)CSc2nc3ccccc3o2)cc1 (optimized conformer: 94.18604849420163 kcal/mol)

>  <smiles>  (41) 
Cc1ccc(NC(=O)c2ccccc2NC(=O)CSc2nc3ccccc3o2)cc1

>  <score_type>  (41) 
oracle

>  <origin>  (41) 
adgpu

>  <m_score__min__energy>  (41) 
-11.31

>  <m_primary>  (41) 
energy

$$$$
41:0
     RDKit          3D

 45 47  0  0  0  0  0  0  0  0999 V2000
   -4.2360   25.6930  -30.5080 N   0  0  0  0  0  0  0  0  0  0  0  0
   -4.1750   23.9710  -30.3760 S   0  0  0  0  0  0  0  0  0  0  0  0
   -4.0930   23.5800  -28.9270 O   0  0  0  0  0  0  0  0  0  0  0  0
   -2.9550   23.4550  -31.0870 O   0  0  0  0  0  0  0  0  0  0  0  0
   -5.6240   23.2790  -31.0980 C   0  0  0  0  0  0  0  0  0  0  0  0
   -6.8540   23.9400  -30.9800 C   0  0  0  0  0  0  0  0  0  0  0  0
   -8.0080   23.3760  -31.5300 C   0  0  0  0  0  0  0  0  0  0  0  0
   -7.9400   22.1540  -32.2020 C   0  0  0  0  0  0  0  0  0  0  0  0
   -6.7140   21.4860  -32.3420 C   0  0  0  0  0  0  0  0  0  0  0  0
   -6.6730   20.2160  -33.0150 N   0  0  0  0  0  0  0  0  0  0  0  0
   -5.4560   19.5650  -33.4180 C   0  0  0  0  0  0  0  0  0  0  0  0
   -4.4060   20.2470  -33.5770 O   0  0  0  0  0  0  0  0  0  0  0  0
   -5.4300   18.1090  -33.6980 C   0  0  0  0  0  0  0  0  0  0  0  0
   -4.2420   17.4930  -34.1340 C   0  0  0  0  0  0  0  0  0  0  0  0
   -4.2070   16.1200  -34.3930 C   0  0  0  0  0  0  0  0  0  0  0  0
   -5.3580   15.3410  -34.2200 C   0  0  0  0  0  0  0  0  0  0  0  0
   -5.3120   13.6050  -34.5200 S   0  0  0  0  0  0  0  0  0  0  0  0
   -4.6340   13.3350  -35.8360 O   0  0  0  0  0  0  0  0  0  0  0  0
   -6.7190   13.0800  -34.5900 O   0  0  0  0  0  0  0  0  0  0  0  0
   -4.4600   12.8180  -33.2160 N   0  0  0  0  0  0  0  0  0  0  0  0
   -4.9380   13.2780  -31.9130 C   0  0  0  0  0  0  0  0  0  0  0  0
   -3.7810   13.1110  -30.9420 C   0  0  0  0  0  0  0  0  0  0  0  0
   -2.5350   13.0220  -31.8110 C   0  0  0  0  0  0  0  0  0  0  0  0
   -3.0340   13.1400  -33.2430 C   0  0  0  0  0  0  0  0  0  0  0  0
   -6.5380   15.9420  -33.7690 C   0  0  0  0  0  0  0  0  0  0  0  0
   -6.5760   17.3150  -33.5100 C   0  0  0  0  0  0  0  0  0  0  0  0
   -5.5580   22.0480  -31.7670 C   0  0  0  0  0  0  0  0  0  0  0  0
   -3.5160   25.9700  -31.2130 H   0  0  0  0  0  0  0  0  0  0  0  0
   -6.9111   24.9042  -30.4537 H   0  0  0  0  0  0  0  0  0  0  0  0
   -8.9725   23.8960  -31.4333 H   0  0  0  0  0  0  0  0  0  0  0  0
   -8.8542   21.7117  -32.6247 H   0  0  0  0  0  0  0  0  0  0  0  0
   -7.5790   19.8010  -33.3290 H   0  0  0  0  0  0  0  0  0  0  0  0
   -3.3333   18.0973  -34.2721 H   0  0  0  0  0  0  0  0  0  0  0  0
   -3.2727   15.6499  -34.7337 H   0  0  0  0  0  0  0  0  0  0  0  0
   -5.2361   14.3353  -31.9698 H   0  0  0  0  0  0  0  0  0  0  0  0
   -5.8160   12.7014  -31.5866 H   0  0  0  0  0  0  0  0  0  0  0  0
   -3.7178   13.9764  -30.2659 H   0  0  0  0  0  0  0  0  0  0  0  0
   -3.9032   12.2198  -30.3089 H   0  0  0  0  0  0  0  0  0  0  0  0
   -1.8419   13.8432  -31.5758 H   0  0  0  0  0  0  0  0  0  0  0  0
   -1.9856   12.0837  -31.6446 H   0  0  0  0  0  0  0  0  0  0  0  0
   -2.8831   14.1644  -33.6144 H   0  0  0  0  0  0  0  0  0  0  0  0
   -2.4861   12.4596  -33.9115 H   0  0  0  0  0  0  0  0  0  0  0  0
   -7.4402   15.3312  -33.6175 H   0  0  0  0  0  0  0  0  0  0  0  0
   -7.5090   17.7782  -33.1565 H   0  0  0  0  0  0  0  0  0  0  0  0
   -4.5970   21.5182  -31.8430 H   0  0  0  0  0  0  0  0  0  0  0  0
  1  2  1  0
  2  3  2  0
  2  4  2  0
  2  5  1  0
  5  6  2  0
  6  7  1  0
  7  8  2  0
  8  9  1  0
  9 10  1  0
 10 11  1  0
 11 12  2  0
 11 13  1  0
 13 14  2  0
 14 15  1  0
 15 16  2  0
 16 17  1  0
 17 18  2  0
 17 19  2  0
 17 20  1  0
 20 21  1  0
 21 22  1  0
 22 23  1  0
 23 24  1  0
 16 25  1  0
 25 26  2  0
  9 27  2  0
 27  5  1  0
 26 13  1  0
 24 20  1  0
  1 28  1  0
  6 29  1  0
  7 30  1  0
  8 31  1  0
 10 32  1  0
 14 33  1  0
 15 34  1  0
 21 35  1  0
 21 36  1  0
 22 37  1  0
 22 38  1  0
 23 39  1  0
 23 40  1  0
 24 41  1  0
 24 42  1  0
 25 43  1  0
 26 44  1  0
 27 45  1  0
M  CHG  1   1  -1
M  END
>  <UniqueID>  (42) 
36

>  <SMILES>  (42) 
[NH-]S(=O)(=O)c1cccc(NC(=O)c2ccc(S(=O)(=O)N3CCCC3)cc2)c1

>  <Energy>  (42) 
52.097063268785334

>  <Genealogy>  (42) 
[NH-]S(=O)(=O)c1cccc(NC(=O)c2ccc(S(=O)(=O)N3CCCC3)cc2)c1 (protonated)
[NH-]S(=O)(=O)c1cccc(NC(=O)c2ccc(S(=O)(=O)N3CCCC3)cc2)c1 (3D coordinates assigned)
[NH-]S(=O)(=O)c1cccc(NC(=O)c2ccc(S(=O)(=O)N3CCCC3)cc2)c1 (nonaromatic ring conformer: 52.097063268785334 kcal/mol)

>  <smiles>  (42) 
NS(=O)(=O)c1cccc(NC(=O)c2ccc(S(=O)(=O)N3CCCC3)cc2)c1

>  <score_type>  (42) 
oracle

>  <origin>  (42) 
adgpu

>  <m_score__min__energy>  (42) 
-10.57

>  <m_primary>  (42) 
energy

$$$$
42:0
     RDKit          3D

 75 79  0  0  0  0  0  0  0  0999 V2000
   -1.5710   25.3410  -25.7020 C   0  0  0  0  0  0  0  0  0  0  0  0
   -0.8360   24.3000  -24.8590 C   0  0  0  0  0  0  0  0  0  0  0  0
   -0.0410   23.2990  -25.7100 C   0  0  0  0  0  0  0  0  0  0  0  0
   -0.8780   22.1040  -26.1960 C   0  0  0  0  0  0  0  0  0  0  0  0
   -0.9340   22.0300  -27.6720 N   0  0  0  0  0  0  0  0  0  0  0  0
    0.0210   21.2570  -28.4350 C   0  0  0  0  0  0  0  0  0  0  0  0
    1.1650   21.0210  -27.9610 O   0  0  0  0  0  0  0  0  0  0  0  0
   -0.2900   20.7540  -29.7810 C   0  0  0  0  0  0  0  0  0  0  0  0
   -0.4190   21.6500  -30.8520 C   0  0  0  0  0  0  0  0  0  0  0  0
   -0.7000   21.1720  -32.1350 C   0  0  0  0  0  0  0  0  0  0  0  0
   -0.8500   19.7960  -32.3600 C   0  0  0  0  0  0  0  0  0  0  0  0
   -1.2280   19.1980  -33.9750 S   0  0  0  0  0  0  0  0  0  0  0  0
   -0.3980   17.9740  -34.2520 O   0  0  0  0  0  0  0  0  0  0  0  0
   -0.8560   20.2520  -34.9840 O   0  0  0  0  0  0  0  0  0  0  0  0
   -2.9410   18.8300  -34.0540 N   0  0  1  0  0  0  0  0  0  0  0  0
   -3.1830   17.6130  -34.8520 C   0  0  0  0  0  0  0  0  0  0  0  0
   -4.6860   17.4100  -35.0860 C   0  0  0  0  0  0  0  0  0  0  0  0
   -5.4940   17.6160  -33.8300 C   0  0  0  0  0  0  0  0  0  0  0  0
   -6.8400   17.2140  -33.8060 C   0  0  0  0  0  0  0  0  0  0  0  0
   -7.6210   17.4340  -32.6680 C   0  0  0  0  0  0  0  0  0  0  0  0
   -7.0680   18.0600  -31.5470 C   0  0  0  0  0  0  0  0  0  0  0  0
   -5.7330   18.4780  -31.5660 C   0  0  0  0  0  0  0  0  0  0  0  0
   -4.9440   18.2800  -32.7110 C   0  0  0  0  0  0  0  0  0  0  0  0
   -3.4890   18.6750  -32.6910 C   0  0  0  0  0  0  0  0  0  0  0  0
   -0.7350   18.9020  -31.2860 C   0  0  0  0  0  0  0  0  0  0  0  0
   -0.4610   19.3800  -30.0000 C   0  0  0  0  0  0  0  0  0  0  0  0
   -1.8210   22.9250  -28.3790 C   0  0  0  0  0  0  0  0  0  0  0  0
   -3.2020   22.6510  -28.4980 C   0  0  0  0  0  0  0  0  0  0  0  0
   -3.7250   21.4250  -27.9530 N   0  0  0  0  0  0  0  0  0  0  0  0
   -4.0280   23.5520  -29.1400 N   0  0  0  0  0  0  0  0  0  0  0  0
   -5.4700   23.2690  -29.3220 C   0  0  0  0  0  0  0  0  0  0  0  0
   -5.7210   22.5340  -30.6160 C   0  0  0  0  0  0  0  0  0  0  0  0
   -7.0230   22.1400  -30.9690 C   0  0  0  0  0  0  0  0  0  0  0  0
   -7.2570   21.4850  -32.1830 C   0  0  0  0  0  0  0  0  0  0  0  0
   -6.1970   21.2280  -33.0550 C   0  0  0  0  0  0  0  0  0  0  0  0
   -4.9020   21.6320  -32.7200 C   0  0  0  0  0  0  0  0  0  0  0  0
   -4.6650   22.2880  -31.5090 C   0  0  0  0  0  0  0  0  0  0  0  0
   -3.4910   24.7040  -29.6700 C   0  0  0  0  0  0  0  0  0  0  0  0
   -4.2180   25.5450  -30.2630 O   0  0  0  0  0  0  0  0  0  0  0  0
   -2.1640   24.9530  -29.5750 N   0  0  0  0  0  0  0  0  0  0  0  0
   -1.3220   24.0940  -28.9590 C   0  0  0  0  0  0  0  0  0  0  0  0
   -0.0900   24.3540  -28.9290 O   0  0  0  0  0  0  0  0  0  0  0  0
   -2.0774   26.0582  -25.0393 H   0  0  0  0  0  0  0  0  0  0  0  0
   -0.8487   25.8751  -26.3368 H   0  0  0  0  0  0  0  0  0  0  0  0
   -2.3161   24.8391  -26.3368 H   0  0  0  0  0  0  0  0  0  0  0  0
   -0.1388   24.8211  -24.1863 H   0  0  0  0  0  0  0  0  0  0  0  0
   -1.5938   23.7313  -24.3002 H   0  0  0  0  0  0  0  0  0  0  0  0
    0.3545   23.8275  -26.5899 H   0  0  0  0  0  0  0  0  0  0  0  0
    0.7580   22.8950  -25.0710 H   0  0  0  0  0  0  0  0  0  0  0  0
   -0.4296   21.1764  -25.8108 H   0  0  0  0  0  0  0  0  0  0  0  0
   -1.9047   22.2346  -25.8234 H   0  0  0  0  0  0  0  0  0  0  0  0
   -0.2989   22.7302  -30.6822 H   0  0  0  0  0  0  0  0  0  0  0  0
   -0.8039   21.8783  -32.9719 H   0  0  0  0  0  0  0  0  0  0  0  0
   -3.4130   19.6430  -34.5190 H   0  0  0  0  0  0  0  0  0  0  0  0
   -2.6760   17.7109  -35.8233 H   0  0  0  0  0  0  0  0  0  0  0  0
   -2.7894   16.7450  -34.3028 H   0  0  0  0  0  0  0  0  0  0  0  0
   -5.0256   18.1282  -35.8468 H   0  0  0  0  0  0  0  0  0  0  0  0
   -4.8377   16.3720  -35.4170 H   0  0  0  0  0  0  0  0  0  0  0  0
   -7.2810   16.7240  -34.6866 H   0  0  0  0  0  0  0  0  0  0  0  0
   -8.6733   17.1138  -32.6544 H   0  0  0  0  0  0  0  0  0  0  0  0
   -7.6827   18.2240  -30.6497 H   0  0  0  0  0  0  0  0  0  0  0  0
   -5.2991   18.9642  -30.6798 H   0  0  0  0  0  0  0  0  0  0  0  0
   -3.3874   19.6308  -32.1561 H   0  0  0  0  0  0  0  0  0  0  0  0
   -2.9260   17.8761  -32.1863 H   0  0  0  0  0  0  0  0  0  0  0  0
   -0.8605   17.8223  -31.4549 H   0  0  0  0  0  0  0  0  0  0  0  0
   -0.3796   18.6760  -29.1587 H   0  0  0  0  0  0  0  0  0  0  0  0
   -3.5150   20.4880  -28.3590 H   0  0  0  0  0  0  0  0  0  0  0  0
   -4.3660   21.4220  -27.1290 H   0  0  0  0  0  0  0  0  0  0  0  0
   -5.8233   22.6509  -28.4835 H   0  0  0  0  0  0  0  0  0  0  0  0
   -6.0123   24.2255  -29.3530 H   0  0  0  0  0  0  0  0  0  0  0  0
   -7.8616   22.3474  -30.2880 H   0  0  0  0  0  0  0  0  0  0  0  0
   -8.2770   21.1722  -32.4508 H   0  0  0  0  0  0  0  0  0  0  0  0
   -6.3816   20.7072  -34.0062 H   0  0  0  0  0  0  0  0  0  0  0  0
   -4.0686   21.4336  -33.4099 H   0  0  0  0  0  0  0  0  0  0  0  0
   -3.6458   22.6135  -31.2537 H   0  0  0  0  0  0  0  0  0  0  0  0
  1  2  1  0
  2  3  1  0
  3  4  1  0
  4  5  1  0
  5  6  1  0
  6  7  2  0
  6  8  1  0
  8  9  2  0
  9 10  1  0
 10 11  2  0
 11 12  1  0
 12 13  2  0
 12 14  2  0
 12 15  1  0
 15 16  1  0
 16 17  1  0
 17 18  1  0
 18 19  2  0
 19 20  1  0
 20 21  2  0
 21 22  1  0
 22 23  2  0
 23 24  1  0
 11 25  1  0
 25 26  2  0
  5 27  1  0
 27 28  2  0
 28 29  1  0
 28 30  1  0
 30 31  1  0
 31 32  1  0
 32 33  2  0
 33 34  1  0
 34 35  2  0
 35 36  1  0
 36 37  2  0
 30 38  1  0
 38 39  2  0
 38 40  1  0
 40 41  1  0
 41 42  2  0
 26  8  1  0
 41 27  1  0
 24 15  1  0
 37 32  1  0
 23 18  1  0
  1 43  1  0
  1 44  1  0
  1 45  1  0
  2 46  1  0
  2 47  1  0
  3 48  1  0
  3 49  1  0
  4 50  1  0
  4 51  1  0
  9 52  1  0
 10 53  1  0
 15 54  1  6
 16 55  1  0
 16 56  1  0
 17 57  1  0
 17 58  1  0
 19 59  1  0
 20 60  1  0
 21 61  1  0
 22 62  1  0
 24 63  1  0
 24 64  1  0
 25 65  1  0
 26 66  1  0
 29 67  1  0
 29 68  1  0
 31 69  1  0
 31 70  1  0
 33 71  1  0
 34 72  1  0
 35 73  1  0
 36 74  1  0
 37 75  1  0
M  CHG  2  15   1  40  -1
M  END
>  <UniqueID>  (43) 
37

>  <SMILES>  (43) 
CCCCN(C(=O)c1ccc(S(=O)(=O)[N@H+]2CCc3ccccc3C2)cc1)c1c(N)n(Cc2ccccc2)c(=O)[n-]c1=O

>  <Energy>  (43) 
99.7425616318425

>  <Genealogy>  (43) 
CCCCN(C(=O)c1ccc(S(=O)(=O)[NH+]2CCc3ccccc3C2)cc1)c1c(N)n(Cc2ccccc2)c(=O)[n-]c1=O (protonated)
CCCCN(C(=O)c1ccc(S(=O)(=O)[N@H+]2CCc3ccccc3C2)cc1)c1c(N)n(Cc2ccccc2)c(=O)[n-]c1=O (chirality)
CCCCN(C(=O)c1ccc(S(=O)(=O)[N@H+]2CCc3ccccc3C2)cc1)c1c(N)n(Cc2ccccc2)c(=O)[n-]c1=O (3D coordinates assigned)
CCCCN(C(=O)c1ccc(S(=O)(=O)[N@H+]2CCc3ccccc3C2)cc1)c1c(N)n(Cc2ccccc2)c(=O)[n-]c1=O (nonaromatic ring conformer: 99.7425616318425 kcal/mol)

>  <smiles>  (43) 
CCCCN(C(=O)c1ccc(S(=O)(=O)N2CCc3ccccc3C2)cc1)c1c(N)n(Cc2ccccc2)c(=O)[nH]c1=O

>  <score_type>  (43) 
oracle

>  <origin>  (43) 
adgpu

>  <m_score__min__energy>  (43) 
-10.59

>  <m_primary>  (43) 
energy

$$$$
43:0
     RDKit          3D

 41 43  0  0  0  0  0  0  0  0999 V2000
   -1.1860   26.2840  -28.9330 N   0  0  0  0  0  0  0  0  0  0  0  0
   -0.7100   24.8380  -28.1150 S   0  0  0  0  0  0  0  0  0  0  0  0
   -1.4820   24.7130  -26.8320 O   0  0  0  0  0  0  0  0  0  0  0  0
    0.7560   24.9030  -27.7900 O   0  0  0  0  0  0  0  0  0  0  0  0
   -1.0340   23.4470  -29.1430 C   0  0  0  0  0  0  0  0  0  0  0  0
   -2.1260   23.4570  -30.0180 C   0  0  0  0  0  0  0  0  0  0  0  0
   -2.3780   22.3590  -30.8460 C   0  0  0  0  0  0  0  0  0  0  0  0
   -1.5350   21.2320  -30.8120 C   0  0  0  0  0  0  0  0  0  0  0  0
   -1.8010   20.0640  -31.6910 C   0  0  0  0  0  0  0  0  0  0  0  0
   -2.7950   20.1290  -32.6850 C   0  0  0  0  0  0  0  0  0  0  0  0
   -3.0470   19.0270  -33.5080 C   0  0  0  0  0  0  0  0  0  0  0  0
   -2.3130   17.8450  -33.3490 C   0  0  0  0  0  0  0  0  0  0  0  0
   -2.6400   16.4470  -34.3690 S   0  0  0  0  0  0  0  0  0  0  0  0
   -2.0800   16.6510  -35.7480 O   0  0  0  0  0  0  0  0  0  0  0  0
   -1.9950   15.2390  -33.7520 O   0  0  0  0  0  0  0  0  0  0  0  0
   -4.3520   16.1850  -34.4840 N   0  0  0  0  0  0  0  0  0  0  0  0
   -5.3370   17.0120  -33.8370 C   0  0  0  0  0  0  0  0  0  0  0  0
   -5.8490   18.1760  -34.4440 C   0  0  0  0  0  0  0  0  0  0  0  0
   -6.7980   18.9600  -33.7820 C   0  0  0  0  0  0  0  0  0  0  0  0
   -7.2530   18.5910  -32.5130 C   0  0  0  0  0  0  0  0  0  0  0  0
   -8.4440   19.5770  -31.6840 Cl  0  0  0  0  0  0  0  0  0  0  0  0
   -6.7570   17.4330  -31.9060 C   0  0  0  0  0  0  0  0  0  0  0  0
   -5.8070   16.6480  -32.5640 C   0  0  0  0  0  0  0  0  0  0  0  0
   -1.3170   17.7760  -32.3680 C   0  0  0  0  0  0  0  0  0  0  0  0
   -1.0640   18.8750  -31.5430 C   0  0  0  0  0  0  0  0  0  0  0  0
   -0.4350   21.2330  -29.9360 C   0  0  0  0  0  0  0  0  0  0  0  0
   -0.1860   22.3330  -29.1110 C   0  0  0  0  0  0  0  0  0  0  0  0
   -1.2370   26.0550  -29.9510 H   0  0  0  0  0  0  0  0  0  0  0  0
   -2.7897   24.3335  -30.0546 H   0  0  0  0  0  0  0  0  0  0  0  0
   -3.2405   22.3758  -31.5284 H   0  0  0  0  0  0  0  0  0  0  0  0
   -3.3776   21.0529  -32.8154 H   0  0  0  0  0  0  0  0  0  0  0  0
   -3.8248   19.0888  -34.2834 H   0  0  0  0  0  0  0  0  0  0  0  0
   -4.6650   15.3290  -34.9950 H   0  0  0  0  0  0  0  0  0  0  0  0
   -5.4997   18.4694  -35.4449 H   0  0  0  0  0  0  0  0  0  0  0  0
   -7.1880   19.8701  -34.2611 H   0  0  0  0  0  0  0  0  0  0  0  0
   -7.1156   17.1396  -30.9083 H   0  0  0  0  0  0  0  0  0  0  0  0
   -5.4236   15.7370  -32.0812 H   0  0  0  0  0  0  0  0  0  0  0  0
   -0.7311   16.8530  -32.2460 H   0  0  0  0  0  0  0  0  0  0  0  0
   -0.2824   18.8099  -30.7717 H   0  0  0  0  0  0  0  0  0  0  0  0
    0.2347   20.3611  -29.8999 H   0  0  0  0  0  0  0  0  0  0  0  0
    0.6803   22.3238  -28.4332 H   0  0  0  0  0  0  0  0  0  0  0  0
  1  2  1  0
  2  3  2  0
  2  4  2  0
  2  5  1  0
  5  6  2  0
  6  7  1  0
  7  8  2  0
  8  9  1  0
  9 10  2  0
 10 11  1  0
 11 12  2  0
 12 13  1  0
 13 14  2  0
 13 15  2  0
 13 16  1  0
 16 17  1  0
 17 18  2  0
 18 19  1  0
 19 20  2  0
 20 21  1  0
 20 22  1  0
 22 23  2  0
 12 24  1  0
 24 25  2  0
  8 26  1  0
 26 27  2  0
 27  5  1  0
 25  9  1  0
 23 17  1  0
  1 28  1  0
  6 29  1  0
  7 30  1  0
 10 31  1  0
 11 32  1  0
 16 33  1  0
 18 34  1  0
 19 35  1  0
 22 36  1  0
 23 37  1  0
 24 38  1  0
 25 39  1  0
 26 40  1  0
 27 41  1  0
M  CHG  1   1  -1
M  END
>  <UniqueID>  (44) 
38

>  <SMILES>  (44) 
[NH-]S(=O)(=O)c1ccc(-c2ccc(S(=O)(=O)Nc3ccc(Cl)cc3)cc2)cc1

>  <Energy>  (44) 
51.26651552246269

>  <Genealogy>  (44) 
[NH-]S(=O)(=O)c1ccc(-c2ccc(S(=O)(=O)Nc3ccc(Cl)cc3)cc2)cc1 (protonated)
[NH-]S(=O)(=O)c1ccc(-c2ccc(S(=O)(=O)Nc3ccc(Cl)cc3)cc2)cc1 (3D coordinates assigned)
[NH-]S(=O)(=O)c1ccc(-c2ccc(S(=O)(=O)Nc3ccc(Cl)cc3)cc2)cc1 (optimized conformer: 51.26651552246269 kcal/mol)

>  <smiles>  (44) 
NS(=O)(=O)c1ccc(-c2ccc(S(=O)(=O)Nc3ccc(Cl)cc3)cc2)cc1

>  <score_type>  (44) 
oracle

>  <origin>  (44) 
adgpu

>  <m_score__min__energy>  (44) 
-10.4

>  <m_primary>  (44) 
energy

$$$$
44:0
     RDKit          3D

 44 46  0  0  0  0  0  0  0  0999 V2000
   -8.0270   24.7682  -30.1753 H   0  0  0  0  0  0  0  0  0  0  0  0
   -7.0590   24.3720  -30.5160 C   0  0  0  0  0  0  0  0  0  0  0  0
   -5.8870   25.0890  -30.2670 C   0  0  0  0  0  0  0  0  0  0  0  0
   -5.9331   26.0503  -29.7342 H   0  0  0  0  0  0  0  0  0  0  0  0
   -4.6540   24.5850  -30.6950 C   0  0  0  0  0  0  0  0  0  0  0  0
   -3.4880   25.2960  -30.4430 O   0  0  0  0  0  0  0  0  0  0  0  0
   -4.5960   23.3630  -31.3760 C   0  0  0  0  0  0  0  0  0  0  0  0
   -3.6249   22.9651  -31.7056 H   0  0  0  0  0  0  0  0  0  0  0  0
   -5.7730   22.6430  -31.6400 C   0  0  0  0  0  0  0  0  0  0  0  0
   -5.7170   21.3250  -32.3690 C   0  0  0  0  0  0  0  0  0  0  0  0
   -6.6328   21.2033  -32.9660 H   0  0  0  0  0  0  0  0  0  0  0  0
   -5.6332   20.5150  -31.6295 H   0  0  0  0  0  0  0  0  0  0  0  0
   -4.5540   21.2740  -33.2570 N   0  0  0  0  0  0  0  0  0  0  0  0
   -4.6450   21.7410  -34.1870 H   0  0  0  0  0  0  0  0  0  0  0  0
   -3.2870   20.6820  -32.9070 C   0  0  0  0  0  0  0  0  0  0  0  0
   -2.1620   21.5080  -32.7620 C   0  0  0  0  0  0  0  0  0  0  0  0
   -2.2587   22.5923  -32.9199 H   0  0  0  0  0  0  0  0  0  0  0  0
   -0.9200   20.9670  -32.4190 C   0  0  0  0  0  0  0  0  0  0  0  0
   -0.0475   21.6268  -32.3034 H   0  0  0  0  0  0  0  0  0  0  0  0
   -0.7830   19.5870  -32.2220 C   0  0  0  0  0  0  0  0  0  0  0  0
    0.7750   18.9050  -31.7690 S   0  0  0  0  0  0  0  0  0  0  0  0
    1.3090   18.1120  -32.9290 O   0  0  0  0  0  0  0  0  0  0  0  0
    1.7210   20.0250  -31.4380 O   0  0  0  0  0  0  0  0  0  0  0  0
    0.5320   17.8860  -30.3860 N   0  0  0  0  0  0  0  0  0  0  0  0
    0.0470   18.1830  -29.2140 C   0  0  0  0  0  0  0  0  0  0  0  0
   -0.0770   17.2730  -28.2750 O   0  0  0  0  0  0  0  0  0  0  0  0
   -0.5710   17.7930  -27.1930 N   0  0  0  0  0  0  0  0  0  0  0  0
   -0.7570   17.2680  -26.3100 H   0  0  0  0  0  0  0  0  0  0  0  0
   -0.7850   19.1020  -27.4140 C   0  0  0  0  0  0  0  0  0  0  0  0
   -1.3330   20.0450  -26.3900 C   0  0  0  0  0  0  0  0  0  0  0  0
   -1.1106   19.6624  -25.3830 H   0  0  0  0  0  0  0  0  0  0  0  0
   -0.8691   21.0343  -26.5171 H   0  0  0  0  0  0  0  0  0  0  0  0
   -2.4222   20.1317  -26.5171 H   0  0  0  0  0  0  0  0  0  0  0  0
   -0.4080   19.4090  -28.7150 C   0  0  0  0  0  0  0  0  0  0  0  0
   -0.4380   20.7750  -29.3350 C   0  0  0  0  0  0  0  0  0  0  0  0
   -0.4547   21.5373  -28.5421 H   0  0  0  0  0  0  0  0  0  0  0  0
    0.4573   20.9143  -29.9587 H   0  0  0  0  0  0  0  0  0  0  0  0
   -1.3386   20.8749  -29.9587 H   0  0  0  0  0  0  0  0  0  0  0  0
   -1.9000   18.7560  -32.3630 C   0  0  0  0  0  0  0  0  0  0  0  0
   -1.7995   17.6726  -32.2015 H   0  0  0  0  0  0  0  0  0  0  0  0
   -3.1430   19.2950  -32.7080 C   0  0  0  0  0  0  0  0  0  0  0  0
   -4.0132   18.6324  -32.8247 H   0  0  0  0  0  0  0  0  0  0  0  0
   -7.0060   23.1520  -31.1970 C   0  0  0  0  0  0  0  0  0  0  0  0
   -7.9318   22.5890  -31.3866 H   0  0  0  0  0  0  0  0  0  0  0  0
  1  2  1  0
  2  3  2  0
  3  4  1  0
  3  5  1  0
  5  6  1  0
  5  7  2  0
  7  8  1  0
  7  9  1  0
  9 10  1  0
 10 11  1  0
 10 12  1  0
 10 13  1  0
 13 14  1  0
 13 15  1  0
 15 16  2  0
 16 17  1  0
 16 18  1  0
 18 19  1  0
 18 20  2  0
 20 21  1  0
 21 22  2  0
 21 23  2  0
 21 24  1  0
 24 25  2  0
 25 26  1  0
 26 27  1  0
 27 28  1  0
 27 29  1  0
 29 30  1  0
 30 31  1  0
 30 32  1  0
 30 33  1  0
 29 34  2  0
 34 35  1  0
 35 36  1  0
 35 37  1  0
 35 38  1  0
 20 39  1  0
 39 40  1  0
 39 41  2  0
 41 42  1  0
  9 43  2  0
 43 44  1  0
 43  2  1  0
 41 15  1  0
 34 25  1  0
M  CHG  1   6  -1
M  END
>  <UniqueID>  (45) 
39

>  <SMILES>  (45) 
Cc1[nH]o/c(=N/S(=O)(=O)c2ccc(NCc3cccc([O-])c3)cc2)c1C

>  <Energy>  (45) 
86.19953902643655

>  <Genealogy>  (45) 
Cc1[nH]oc(=NS(=O)(=O)c2ccc(NCc3cccc([O-])c3)cc2)c1C (protonated)
Cc1[nH]o/c(=N/S(=O)(=O)c2ccc(NCc3cccc([O-])c3)cc2)c1C (cis-trans isomerization)
Cc1[nH]o/c(=N/S(=O)(=O)c2ccc(NCc3cccc([O-])c3)cc2)c1C (3D coordinates assigned)
Cc1[nH]o/c(=N/S(=O)(=O)c2ccc(NCc3cccc([O-])c3)cc2)c1C (optimized conformer: 86.19953902643655 kcal/mol)

>  <smiles>  (45) 
Cc1[nH]oc(=NS(=O)(=O)c2ccc(NCc3cccc(O)c3)cc2)c1C

>  <score_type>  (45) 
oracle

>  <origin>  (45) 
adgpu

>  <m_score__min__energy>  (45) 
-11.35

>  <m_primary>  (45) 
energy

$$$$
45:0
     RDKit          3D

 48 51  0  0  0  0  0  0  0  0999 V2000
   -1.3830   25.4300  -29.3160 O   0  0  0  0  0  0  0  0  0  0  0  0
   -2.5830   24.5470  -29.1140 S   0  0  0  0  0  0  0  0  0  0  0  0
   -3.1670   24.8410  -27.7610 O   0  0  0  0  0  0  0  0  0  0  0  0
   -3.7680   24.8840  -30.3330 N   0  0  0  0  0  0  0  0  0  0  0  0
   -4.8780   24.2210  -30.4430 C   0  0  0  0  0  0  0  0  0  0  0  0
   -5.2280   23.1960  -29.6350 N   0  0  0  0  0  0  0  0  0  0  0  0
   -6.4400   22.6860  -29.9810 C   0  0  0  0  0  0  0  0  0  0  0  0
   -7.0540   23.3070  -31.0640 C   0  0  0  0  0  0  0  0  0  0  0  0
   -6.0420   24.5380  -31.6070 S   0  0  0  0  0  0  0  0  0  0  0  0
   -2.1300   22.8470  -29.1890 C   0  0  0  0  0  0  0  0  0  0  0  0
   -2.7030   21.9160  -28.3130 C   0  0  0  0  0  0  0  0  0  0  0  0
   -2.3100   20.5770  -28.3590 C   0  0  0  0  0  0  0  0  0  0  0  0
   -1.3370   20.1620  -29.2720 C   0  0  0  0  0  0  0  0  0  0  0  0
   -0.7430   21.0890  -30.1490 C   0  0  0  0  0  0  0  0  0  0  0  0
    0.2720   20.7000  -31.0890 N   0  0  0  0  0  0  0  0  0  0  0  0
   -0.0640   20.2910  -32.7420 S   0  0  0  0  0  0  0  0  0  0  0  0
    0.6860   21.2320  -33.6420 O   0  0  0  0  0  0  0  0  0  0  0  0
    0.3940   18.8860  -33.0100 O   0  0  0  0  0  0  0  0  0  0  0  0
   -1.7970   20.3900  -33.0420 C   0  0  0  0  0  0  0  0  0  0  0  0
   -2.4960   21.5760  -32.7840 C   0  0  0  0  0  0  0  0  0  0  0  0
   -3.8760   21.6380  -33.0020 C   0  0  0  0  0  0  0  0  0  0  0  0
   -4.5720   20.5090  -33.4690 C   0  0  0  0  0  0  0  0  0  0  0  0
   -5.9550   20.5340  -33.7070 O   0  0  0  0  0  0  0  0  0  0  0  0
   -6.9240   19.8750  -32.9370 C   0  0  0  0  0  0  0  0  0  0  0  0
   -8.0120   20.5610  -32.3640 C   0  0  0  0  0  0  0  0  0  0  0  0
   -8.9530   19.8710  -31.5940 C   0  0  0  0  0  0  0  0  0  0  0  0
   -8.8110   18.4970  -31.3810 C   0  0  0  0  0  0  0  0  0  0  0  0
   -7.7180   17.8150  -31.9260 C   0  0  0  0  0  0  0  0  0  0  0  0
   -6.7760   18.5040  -32.6960 C   0  0  0  0  0  0  0  0  0  0  0  0
   -3.8620   19.3380  -33.7580 C   0  0  0  0  0  0  0  0  0  0  0  0
   -2.4830   19.2750  -33.5440 C   0  0  0  0  0  0  0  0  0  0  0  0
   -1.1550   22.4300  -30.1030 C   0  0  0  0  0  0  0  0  0  0  0  0
   -6.9013   21.8441  -29.4440 H   0  0  0  0  0  0  0  0  0  0  0  0
   -8.0317   23.0399  -31.4916 H   0  0  0  0  0  0  0  0  0  0  0  0
   -3.4638   22.2404  -27.5877 H   0  0  0  0  0  0  0  0  0  0  0  0
   -2.7674   19.8471  -27.6749 H   0  0  0  0  0  0  0  0  0  0  0  0
   -1.0336   19.1052  -29.3056 H   0  0  0  0  0  0  0  0  0  0  0  0
    1.2400   20.5120  -30.7430 H   0  0  0  0  0  0  0  0  0  0  0  0
   -1.9588   22.4598  -32.4094 H   0  0  0  0  0  0  0  0  0  0  0  0
   -4.4195   22.5743  -32.8072 H   0  0  0  0  0  0  0  0  0  0  0  0
   -8.1220   21.6439  -32.5228 H   0  0  0  0  0  0  0  0  0  0  0  0
   -9.8058   20.4099  -31.1555 H   0  0  0  0  0  0  0  0  0  0  0  0
   -9.5582   17.9523  -30.7852 H   0  0  0  0  0  0  0  0  0  0  0  0
   -7.5995   16.7359  -31.7487 H   0  0  0  0  0  0  0  0  0  0  0  0
   -5.9133   17.9654  -33.1150 H   0  0  0  0  0  0  0  0  0  0  0  0
   -4.3935   18.4612  -34.1564 H   0  0  0  0  0  0  0  0  0  0  0  0
   -1.9342   18.3488  -33.7698 H   0  0  0  0  0  0  0  0  0  0  0  0
   -0.7071   23.1609  -30.7923 H   0  0  0  0  0  0  0  0  0  0  0  0
  1  2  2  0
  2  3  2  0
  2  4  1  0
  4  5  2  3
  5  6  1  0
  6  7  1  0
  7  8  2  0
  8  9  1  0
  2 10  1  0
 10 11  2  0
 11 12  1  0
 12 13  2  0
 13 14  1  0
 14 15  1  0
 15 16  1  0
 16 17  2  0
 16 18  2  0
 16 19  1  0
 19 20  2  0
 20 21  1  0
 21 22  2  0
 22 23  1  0
 23 24  1  0
 24 25  2  0
 25 26  1  0
 26 27  2  0
 27 28  1  0
 28 29  2  0
 22 30  1  0
 30 31  2  0
 14 32  2  0
  9  5  1  0
 32 10  1  0
 31 19  1  0
 29 24  1  0
  7 33  1  0
  8 34  1  0
 11 35  1  0
 12 36  1  0
 13 37  1  0
 15 38  1  0
 20 39  1  0
 21 40  1  0
 25 41  1  0
 26 42  1  0
 27 43  1  0
 28 44  1  0
 29 45  1  0
 30 46  1  0
 31 47  1  0
 32 48  1  0
M  CHG  1   6  -1
M  END
>  <UniqueID>  (46) 
40

>  <SMILES>  (46) 
O=S(=O)(N=c1[n-]ccs1)c1cccc(NS(=O)(=O)c2ccc(Oc3ccccc3)cc2)c1

>  <Energy>  (46) 
94.19042489564589

>  <Genealogy>  (46) 
O=S(=O)(N=c1[n-]ccs1)c1cccc(NS(=O)(=O)c2ccc(Oc3ccccc3)cc2)c1 (protonated)
O=S(=O)(N=c1[n-]ccs1)c1cccc(NS(=O)(=O)c2ccc(Oc3ccccc3)cc2)c1 (3D coordinates assigned)
O=S(=O)(N=c1[n-]ccs1)c1cccc(NS(=O)(=O)c2ccc(Oc3ccccc3)cc2)c1 (optimized conformer: 94.19042489564589 kcal/mol)

>  <smiles>  (46) 
O=S(=O)(N=c1[nH]ccs1)c1cccc(NS(=O)(=O)c2ccc(Oc3ccccc3)cc2)c1

>  <score_type>  (46) 
oracle

>  <origin>  (46) 
adgpu

>  <m_score__min__energy>  (46) 
-11.369999999999999

>  <m_primary>  (46) 
energy

$$$$
46:0
     RDKit          3D

 43 45  0  0  0  0  0  0  0  0999 V2000
   -3.7750   17.3700  -34.1390 C   0  0  0  0  0  0  0  0  0  0  0  0
   -3.2780   18.6200  -34.6040 O   0  0  0  0  0  0  0  0  0  0  0  0
   -2.6770   19.5970  -33.7970 C   0  0  0  0  0  0  0  0  0  0  0  0
   -1.4540   20.1950  -34.1730 C   0  0  0  0  0  0  0  0  0  0  0  0
   -0.8550   21.1620  -33.3670 C   0  0  0  0  0  0  0  0  0  0  0  0
   -1.4610   21.5490  -32.1750 C   0  0  0  0  0  0  0  0  0  0  0  0
   -2.6700   20.9700  -31.7870 C   0  0  0  0  0  0  0  0  0  0  0  0
   -3.2930   19.9980  -32.5830 C   0  0  0  0  0  0  0  0  0  0  0  0
   -4.5360   19.4610  -32.0980 N   0  0  0  0  0  0  0  0  0  0  0  0
   -6.1420   19.7500  -32.6860 S   0  0  0  0  0  0  0  0  0  0  0  0
   -6.1350   19.8340  -34.1880 O   0  0  0  0  0  0  0  0  0  0  0  0
   -7.0660   18.6490  -32.2460 O   0  0  0  0  0  0  0  0  0  0  0  0
   -6.7150   21.2750  -32.0170 C   0  0  0  0  0  0  0  0  0  0  0  0
   -8.0040   21.7410  -32.3060 C   0  0  0  0  0  0  0  0  0  0  0  0
   -8.4430   22.9590  -31.7790 C   0  0  0  0  0  0  0  0  0  0  0  0
   -7.6020   23.7110  -30.9550 C   0  0  0  0  0  0  0  0  0  0  0  0
   -6.3180   23.2470  -30.6430 C   0  0  0  0  0  0  0  0  0  0  0  0
   -5.4780   24.0450  -29.7970 N   0  0  0  0  0  0  0  0  0  0  0  0
   -4.0940   24.3520  -30.0200 C   0  0  0  0  0  0  0  0  0  0  0  0
   -3.8040   25.2640  -30.8390 O   0  0  0  0  0  0  0  0  0  0  0  0
   -3.0090   23.6760  -29.2680 C   0  0  0  0  0  0  0  0  0  0  0  0
   -3.1650   22.3400  -28.8550 C   0  0  0  0  0  0  0  0  0  0  0  0
   -2.1460   21.6920  -28.1510 C   0  0  0  0  0  0  0  0  0  0  0  0
   -0.9660   22.3710  -27.8430 C   0  0  0  0  0  0  0  0  0  0  0  0
   -0.8030   23.7010  -28.2370 C   0  0  0  0  0  0  0  0  0  0  0  0
   -1.8150   24.3570  -28.9460 C   0  0  0  0  0  0  0  0  0  0  0  0
   -1.6190   25.6760  -29.3400 O   0  0  0  0  0  0  0  0  0  0  0  0
   -5.8670   22.0380  -31.2040 C   0  0  0  0  0  0  0  0  0  0  0  0
   -3.7779   17.3628  -33.0390 H   0  0  0  0  0  0  0  0  0  0  0  0
   -4.8002   17.2224  -34.5093 H   0  0  0  0  0  0  0  0  0  0  0  0
   -3.1310   16.5587  -34.5093 H   0  0  0  0  0  0  0  0  0  0  0  0
   -0.9683   19.8942  -35.1130 H   0  0  0  0  0  0  0  0  0  0  0  0
    0.0973   21.6196  -33.6732 H   0  0  0  0  0  0  0  0  0  0  0  0
   -0.9869   22.3111  -31.5390 H   0  0  0  0  0  0  0  0  0  0  0  0
   -3.1412   21.2806  -30.8428 H   0  0  0  0  0  0  0  0  0  0  0  0
   -8.6715   21.1478  -32.9483 H   0  0  0  0  0  0  0  0  0  0  0  0
   -9.4530   23.3262  -32.0136 H   0  0  0  0  0  0  0  0  0  0  0  0
   -7.9501   24.6724  -30.5492 H   0  0  0  0  0  0  0  0  0  0  0  0
   -4.0956   21.8016  -29.0878 H   0  0  0  0  0  0  0  0  0  0  0  0
   -2.2743   20.6450  -27.8391 H   0  0  0  0  0  0  0  0  0  0  0  0
   -0.1647   21.8588  -27.2902 H   0  0  0  0  0  0  0  0  0  0  0  0
    0.1258   24.2354  -27.9886 H   0  0  0  0  0  0  0  0  0  0  0  0
   -4.8430   21.6901  -31.0031 H   0  0  0  0  0  0  0  0  0  0  0  0
  1  2  1  0
  2  3  1  0
  3  4  2  0
  4  5  1  0
  5  6  2  0
  6  7  1  0
  7  8  2  0
  8  9  1  0
  9 10  1  0
 10 11  2  0
 10 12  2  0
 10 13  1  0
 13 14  2  0
 14 15  1  0
 15 16  2  0
 16 17  1  0
 17 18  1  0
 18 19  1  0
 19 20  2  0
 19 21  1  0
 21 22  2  0
 22 23  1  0
 23 24  2  0
 24 25  1  0
 25 26  2  0
 26 27  1  0
 17 28  2  0
  8  3  1  0
 28 13  1  0
 26 21  1  0
  1 29  1  0
  1 30  1  0
  1 31  1  0
  4 32  1  0
  5 33  1  0
  6 34  1  0
  7 35  1  0
 14 36  1  0
 15 37  1  0
 16 38  1  0
 22 39  1  0
 23 40  1  0
 24 41  1  0
 25 42  1  0
 28 43  1  0
M  CHG  3   9  -1  18  -1  27  -1
M  END
>  <UniqueID>  (47) 
41

>  <SMILES>  (47) 
COc1ccccc1[N-]S(=O)(=O)c1cccc([N-]C(=O)c2ccccc2[O-])c1

>  <Energy>  (47) 
60.36797169619703

>  <Genealogy>  (47) 
COc1ccccc1[N-]S(=O)(=O)c1cccc([N-]C(=O)c2ccccc2[O-])c1 (protonated)
COc1ccccc1[N-]S(=O)(=O)c1cccc([N-]C(=O)c2ccccc2[O-])c1 (3D coordinates assigned)
COc1ccccc1[N-]S(=O)(=O)c1cccc([N-]C(=O)c2ccccc2[O-])c1 (optimized conformer: 60.36797169619703 kcal/mol)

>  <smiles>  (47) 
COc1ccccc1NS(=O)(=O)c1cccc(NC(=O)c2ccccc2O)c1

>  <score_type>  (47) 
oracle

>  <origin>  (47) 
adgpu

>  <m_score__min__energy>  (47) 
-13.039999999999999

>  <m_primary>  (47) 
energy

$$$$
47:0
     RDKit          3D

 31 32  0  0  0  0  0  0  0  0999 V2000
   -7.6150   17.8440  -31.9870 C   0  0  0  0  0  0  0  0  0  0  0  0
   -8.4260   19.4110  -32.2310 S   0  0  0  0  0  0  0  0  0  0  0  0
   -8.7750   19.9810  -30.8850 O   0  0  0  0  0  0  0  0  0  0  0  0
   -9.6910   19.2320  -33.0220 O   0  0  0  0  0  0  0  0  0  0  0  0
   -7.3630   20.5140  -33.0470 N   0  0  0  0  0  0  0  0  0  0  0  0
   -6.8080   21.7030  -32.4540 C   0  0  0  0  0  0  0  0  0  0  0  0
   -7.6130   22.6880  -31.8550 C   0  0  0  0  0  0  0  0  0  0  0  0
   -7.0360   23.8290  -31.2880 C   0  0  0  0  0  0  0  0  0  0  0  0
   -5.6430   24.0090  -31.3020 C   0  0  0  0  0  0  0  0  0  0  0  0
   -5.0340   25.2180  -30.7000 C   0  0  0  0  0  0  0  0  0  0  0  0
   -5.7480   26.2290  -30.4620 O   0  0  0  0  0  0  0  0  0  0  0  0
   -3.6230   25.2550  -30.4350 N   0  0  0  0  0  0  0  0  0  0  0  0
   -2.9130   24.4710  -29.4640 C   0  0  0  0  0  0  0  0  0  0  0  0
   -3.3630   23.2120  -29.0380 C   0  0  0  0  0  0  0  0  0  0  0  0
   -2.6370   22.4990  -28.1380 N   0  0  0  0  0  0  0  0  0  0  0  0
   -1.4680   22.9810  -27.6450 C   0  0  0  0  0  0  0  0  0  0  0  0
   -0.8140   22.3060  -26.8080 O   0  0  0  0  0  0  0  0  0  0  0  0
   -1.0000   24.1870  -28.0580 N   0  0  0  0  0  0  0  0  0  0  0  0
   -1.6910   24.9340  -28.9590 C   0  0  0  0  0  0  0  0  0  0  0  0
   -1.2270   26.0460  -29.3280 O   0  0  0  0  0  0  0  0  0  0  0  0
   -4.8380   23.0200  -31.8940 C   0  0  0  0  0  0  0  0  0  0  0  0
   -5.4150   21.8810  -32.4610 C   0  0  0  0  0  0  0  0  0  0  0  0
   -7.5134   17.6476  -30.9095 H   0  0  0  0  0  0  0  0  0  0  0  0
   -8.2131   17.0455  -32.4504 H   0  0  0  0  0  0  0  0  0  0  0  0
   -6.6178   17.8712  -32.4504 H   0  0  0  0  0  0  0  0  0  0  0  0
   -7.1710   20.3190  -34.0550 H   0  0  0  0  0  0  0  0  0  0  0  0
   -8.7053   22.5602  -31.8321 H   0  0  0  0  0  0  0  0  0  0  0  0
   -7.6793   24.5928  -30.8267 H   0  0  0  0  0  0  0  0  0  0  0  0
   -4.3042   22.8021  -29.4331 H   0  0  0  0  0  0  0  0  0  0  0  0
   -3.7451   23.1440  -31.9109 H   0  0  0  0  0  0  0  0  0  0  0  0
   -4.7711   21.1151  -32.9180 H   0  0  0  0  0  0  0  0  0  0  0  0
  1  2  1  0
  2  3  2  0
  2  4  2  0
  2  5  1  0
  5  6  1  0
  6  7  2  0
  7  8  1  0
  8  9  2  0
  9 10  1  0
 10 11  2  0
 10 12  1  0
 12 13  1  0
 13 14  2  0
 14 15  1  0
 15 16  1  0
 16 17  2  0
 16 18  1  0
 18 19  1  0
 19 20  2  0
  9 21  1  0
 21 22  2  0
 22  6  1  0
 19 13  1  0
  1 23  1  0
  1 24  1  0
  1 25  1  0
  5 26  1  0
  7 27  1  0
  8 28  1  0
 14 29  1  0
 21 30  1  0
 22 31  1  0
M  CHG  3  12  -1  15  -1  18  -1
M  END
>  <UniqueID>  (48) 
42

>  <SMILES>  (48) 
CS(=O)(=O)Nc1ccc(C(=O)[N-]c2c[n-]c(=O)[n-]c2=O)cc1

>  <Energy>  (48) 
36.5847264857625

>  <Genealogy>  (48) 
CS(=O)(=O)Nc1ccc(C(=O)[N-]c2c[n-]c(=O)[n-]c2=O)cc1 (protonated)
CS(=O)(=O)Nc1ccc(C(=O)[N-]c2c[n-]c(=O)[n-]c2=O)cc1 (3D coordinates assigned)
CS(=O)(=O)Nc1ccc(C(=O)[N-]c2c[n-]c(=O)[n-]c2=O)cc1 (optimized conformer: 36.5847264857625 kcal/mol)

>  <smiles>  (48) 
CS(=O)(=O)Nc1ccc(C(=O)Nc2c[nH]c(=O)[nH]c2=O)cc1

>  <score_type>  (48) 
oracle

>  <origin>  (48) 
adgpu

>  <m_score__min__energy>  (48) 
-10.65

>  <m_primary>  (48) 
energy

$$$$
48:0
     RDKit          3D

 41 43  0  0  0  0  0  0  0  0999 V2000
   -5.6860   16.3580  -33.2510 C   0  0  0  0  0  0  0  0  0  0  0  0
   -6.3910   17.6660  -33.0390 C   0  0  0  0  0  0  0  0  0  0  0  0
   -6.0290   18.7930  -33.7910 C   0  0  0  0  0  0  0  0  0  0  0  0
   -6.6590   20.0210  -33.5680 C   0  0  0  0  0  0  0  0  0  0  0  0
   -7.6440   20.1430  -32.5750 C   0  0  0  0  0  0  0  0  0  0  0  0
   -8.3210   21.4690  -32.3420 C   0  0  0  0  0  0  0  0  0  0  0  0
   -7.3670   22.5700  -32.4780 N   0  0  0  0  0  0  0  0  0  0  0  0
   -6.5120   23.0450  -31.4200 C   0  0  0  0  0  0  0  0  0  0  0  0
   -6.5120   22.4550  -30.1420 C   0  0  0  0  0  0  0  0  0  0  0  0
   -5.6670   22.9390  -29.1400 C   0  0  0  0  0  0  0  0  0  0  0  0
   -4.8280   24.0370  -29.3860 C   0  0  0  0  0  0  0  0  0  0  0  0
   -3.9130   24.5070  -28.3820 N   0  0  0  0  0  0  0  0  0  0  0  0
   -2.6090   24.4650  -28.4130 C   0  0  0  0  0  0  0  0  0  0  0  0
   -1.8970   25.0680  -27.3680 C   0  0  0  0  0  0  0  0  0  0  0  0
   -0.5000   25.0320  -27.3670 C   0  0  0  0  0  0  0  0  0  0  0  0
    0.1660   24.4000  -28.3690 N   0  0  0  0  0  0  0  0  0  0  0  0
   -0.4930   23.7900  -29.3880 C   0  0  0  0  0  0  0  0  0  0  0  0
   -1.8900   23.8020  -29.4300 C   0  0  0  0  0  0  0  0  0  0  0  0
   -4.8020   24.6120  -30.6640 C   0  0  0  0  0  0  0  0  0  0  0  0
   -3.9370   25.6720  -30.9280 O   0  0  0  0  0  0  0  0  0  0  0  0
   -5.6510   24.1250  -31.6690 C   0  0  0  0  0  0  0  0  0  0  0  0
   -8.0020   19.0150  -31.8200 C   0  0  0  0  0  0  0  0  0  0  0  0
   -7.3720   17.7880  -32.0430 C   0  0  0  0  0  0  0  0  0  0  0  0
   -5.4443   15.9095  -32.2761 H   0  0  0  0  0  0  0  0  0  0  0  0
   -6.3391   15.6768  -33.8161 H   0  0  0  0  0  0  0  0  0  0  0  0
   -4.7579   16.5291  -33.8161 H   0  0  0  0  0  0  0  0  0  0  0  0
   -5.2462   18.7105  -34.5594 H   0  0  0  0  0  0  0  0  0  0  0  0
   -6.3815   20.8962  -34.1738 H   0  0  0  0  0  0  0  0  0  0  0  0
   -9.1271   21.5970  -33.0795 H   0  0  0  0  0  0  0  0  0  0  0  0
   -8.7307   21.4813  -31.3212 H   0  0  0  0  0  0  0  0  0  0  0  0
   -7.2760   23.0060  -33.4250 H   0  0  0  0  0  0  0  0  0  0  0  0
   -7.1812   21.6079  -29.9309 H   0  0  0  0  0  0  0  0  0  0  0  0
   -5.6592   22.4562  -28.1516 H   0  0  0  0  0  0  0  0  0  0  0  0
   -2.4362   25.5686  -26.5503 H   0  0  0  0  0  0  0  0  0  0  0  0
    0.0613   25.5159  -26.5541 H   0  0  0  0  0  0  0  0  0  0  0  0
    0.0748   23.2847  -30.1831 H   0  0  0  0  0  0  0  0  0  0  0  0
   -2.4245   23.2987  -30.2492 H   0  0  0  0  0  0  0  0  0  0  0  0
   -2.9820   25.6740  -30.5930 H   0  0  0  0  0  0  0  0  0  0  0  0
   -5.6418   24.5950  -32.6635 H   0  0  0  0  0  0  0  0  0  0  0  0
   -8.7823   19.0975  -31.0491 H   0  0  0  0  0  0  0  0  0  0  0  0
   -7.6463   16.9134  -31.4349 H   0  0  0  0  0  0  0  0  0  0  0  0
  1  2  1  0
  2  3  2  0
  3  4  1  0
  4  5  2  0
  5  6  1  0
  6  7  1  0
  7  8  1  0
  8  9  2  0
  9 10  1  0
 10 11  2  0
 11 12  1  0
 12 13  2  3
 13 14  1  0
 14 15  2  0
 15 16  1  0
 16 17  1  0
 17 18  2  0
 11 19  1  0
 19 20  1  0
 19 21  2  0
  5 22  1  0
 22 23  2  0
 23  2  1  0
 21  8  1  0
 18 13  1  0
  1 24  1  0
  1 25  1  0
  1 26  1  0
  3 27  1  0
  4 28  1  0
  6 29  1  0
  6 30  1  0
  7 31  1  0
  9 32  1  0
 10 33  1  0
 14 34  1  0
 15 35  1  0
 17 36  1  0
 18 37  1  0
 20 38  1  0
 21 39  1  0
 22 40  1  0
 23 41  1  0
M  CHG  1  16  -1
M  END
>  <UniqueID>  (49) 
43

>  <SMILES>  (49) 
Cc1ccc(CNc2ccc(N=c3cc[n-]cc3)c(O)c2)cc1

>  <Energy>  (49) 
52.297085925149666

>  <Genealogy>  (49) 
Cc1ccc(CNc2ccc(N=c3cc[n-]cc3)c(O)c2)cc1 (protonated)
Cc1ccc(CNc2ccc(N=c3cc[n-]cc3)c(O)c2)cc1 (3D coordinates assigned)
Cc1ccc(CNc2ccc(N=c3cc[n-]cc3)c(O)c2)cc1 (optimized conformer: 52.297085925149666 kcal/mol)

>  <smiles>  (49) 
Cc1ccc(CNc2ccc(N=c3cc[nH]cc3)c(O)c2)cc1

>  <score_type>  (49) 
oracle

>  <origin>  (49) 
adgpu

>  <m_score__min__energy>  (49) 
-10.119999999999999

>  <m_primary>  (49) 
energy

$$$$
49:0
     RDKit          3D

 36 38  0  0  0  0  0  0  0  0999 V2000
   -1.8800   20.4560  -27.1840 C   0  0  0  0  0  0  0  0  0  0  0  0
   -2.6720   21.4450  -27.9860 C   0  0  0  0  0  0  0  0  0  0  0  0
   -2.9830   22.7030  -27.4480 C   0  0  0  0  0  0  0  0  0  0  0  0
   -3.6780   23.6440  -28.2130 C   0  0  0  0  0  0  0  0  0  0  0  0
   -4.0600   23.3420  -29.5270 C   0  0  0  0  0  0  0  0  0  0  0  0
   -4.8380   24.5720  -30.5180 S   0  0  0  0  0  0  0  0  0  0  0  0
   -3.8660   25.6730  -30.8360 O   0  0  0  0  0  0  0  0  0  0  0  0
   -6.0060   25.1560  -29.7750 O   0  0  0  0  0  0  0  0  0  0  0  0
   -5.4000   23.8440  -31.9820 N   0  0  0  0  0  0  0  0  0  0  0  0
   -6.4970   22.9290  -31.9520 C   0  0  0  0  0  0  0  0  0  0  0  0
   -7.7570   23.3990  -31.5750 C   0  0  0  0  0  0  0  0  0  0  0  0
   -8.8590   22.5490  -31.5930 C   0  0  0  0  0  0  0  0  0  0  0  0
   -8.7210   21.2200  -31.9960 C   0  0  0  0  0  0  0  0  0  0  0  0
   -7.4630   20.7140  -32.3880 C   0  0  0  0  0  0  0  0  0  0  0  0
   -7.2890   19.3710  -32.8220 C   0  0  0  0  0  0  0  0  0  0  0  0
   -8.3330   18.4440  -32.8910 O   0  0  0  0  0  0  0  0  0  0  0  0
   -6.0200   18.9280  -33.2090 C   0  0  0  0  0  0  0  0  0  0  0  0
   -4.9220   19.7830  -33.1690 C   0  0  0  0  0  0  0  0  0  0  0  0
   -5.0730   21.0990  -32.7420 C   0  0  0  0  0  0  0  0  0  0  0  0
   -6.3360   21.5840  -32.3540 C   0  0  0  0  0  0  0  0  0  0  0  0
   -3.7340   22.0930  -30.0730 C   0  0  0  0  0  0  0  0  0  0  0  0
   -3.0400   21.1500  -29.3070 C   0  0  0  0  0  0  0  0  0  0  0  0
   -2.0331   20.6471  -26.1116 H   0  0  0  0  0  0  0  0  0  0  0  0
   -2.2140   19.4363  -27.4260 H   0  0  0  0  0  0  0  0  0  0  0  0
   -0.8119   20.5591  -27.4260 H   0  0  0  0  0  0  0  0  0  0  0  0
   -2.6787   22.9497  -26.4201 H   0  0  0  0  0  0  0  0  0  0  0  0
   -3.9260   24.6252  -27.7820 H   0  0  0  0  0  0  0  0  0  0  0  0
   -7.8791   24.4465  -31.2622 H   0  0  0  0  0  0  0  0  0  0  0  0
   -9.8456   22.9274  -31.2874 H   0  0  0  0  0  0  0  0  0  0  0  0
   -9.6012   20.5604  -32.0083 H   0  0  0  0  0  0  0  0  0  0  0  0
   -9.1480   18.5360  -33.4800 H   0  0  0  0  0  0  0  0  0  0  0  0
   -5.8878   17.8904  -33.5494 H   0  0  0  0  0  0  0  0  0  0  0  0
   -3.9312   19.4170  -33.4761 H   0  0  0  0  0  0  0  0  0  0  0  0
   -4.1984   21.7653  -32.7075 H   0  0  0  0  0  0  0  0  0  0  0  0
   -4.0245   21.8535  -31.1065 H   0  0  0  0  0  0  0  0  0  0  0  0
   -2.7819   20.1734  -29.7425 H   0  0  0  0  0  0  0  0  0  0  0  0
  1  2  1  0
  2  3  2  0
  3  4  1  0
  4  5  2  0
  5  6  1  0
  6  7  2  0
  6  8  2  0
  6  9  1  0
  9 10  1  0
 10 11  2  0
 11 12  1  0
 12 13  2  0
 13 14  1  0
 14 15  2  0
 15 16  1  0
 15 17  1  0
 17 18  2  0
 18 19  1  0
 19 20  2  0
  5 21  1  0
 21 22  2  0
 22  2  1  0
 20 10  1  0
 20 14  1  0
  1 23  1  0
  1 24  1  0
  1 25  1  0
  3 26  1  0
  4 27  1  0
 11 28  1  0
 12 29  1  0
 13 30  1  0
 16 31  1  0
 17 32  1  0
 18 33  1  0
 19 34  1  0
 21 35  1  0
 22 36  1  0
M  CHG  1   9  -1
M  END
>  <UniqueID>  (50) 
44

>  <SMILES>  (50) 
Cc1ccc(S(=O)(=O)[N-]c2cccc3c(O)cccc23)cc1

>  <Energy>  (50) 
52.73364746099858

>  <Genealogy>  (50) 
Cc1ccc(S(=O)(=O)[N-]c2cccc3c(O)cccc23)cc1 (protonated)
Cc1ccc(S(=O)(=O)[N-]c2cccc3c(O)cccc23)cc1 (3D coordinates assigned)
Cc1ccc(S(=O)(=O)[N-]c2cccc3c(O)cccc23)cc1 (optimized conformer: 52.73364746099858 kcal/mol)

>  <smiles>  (50) 
Cc1ccc(S(=O)(=O)Nc2cccc3c(O)cccc23)cc1

>  <score_type>  (50) 
oracle

>  <origin>  (50) 
adgpu

>  <m_score__min__energy>  (50) 
-9.2200000000000006

>  <m_primary>  (50) 
energy

$$$$
