0:0
     RDKit          3D

 63 67  0  0  0  0  0  0  0  0999 V2000
   -4.6010   19.4450  -33.5090 N   0  0  0  0  0  0  0  0  0  0  0  0
   -5.4120   20.0590  -32.9550 C   0  0  0  0  0  0  0  0  0  0  0  0
   -6.4180   20.8230  -32.2540 C   0  0  0  0  0  0  0  0  0  0  0  0
   -7.7660   20.6430  -32.6000 C   0  0  0  0  0  0  0  0  0  0  0  0
   -8.7660   21.3560  -31.9350 C   0  0  0  0  0  0  0  0  0  0  0  0
   -8.4280   22.2520  -30.9180 C   0  0  0  0  0  0  0  0  0  0  0  0
   -7.0890   22.4400  -30.5660 C   0  0  0  0  0  0  0  0  0  0  0  0
   -6.0700   21.7300  -31.2260 C   0  0  0  0  0  0  0  0  0  0  0  0
   -4.6290   21.9840  -30.8470 C   0  0  0  0  0  0  0  0  0  0  0  0
   -4.2910   23.7810  -30.8220 S   0  0  0  0  0  0  0  0  0  0  0  0
   -3.0060   23.6590  -29.5740 C   0  0  0  0  0  0  0  0  0  0  0  0
   -3.1300   24.2100  -28.3390 N   0  0  0  0  0  0  0  0  0  0  0  0
   -1.9780   23.8600  -27.7380 C   0  0  0  0  0  0  0  0  0  0  0  0
   -1.5920   24.1280  -26.4270 C   0  0  0  0  0  0  0  0  0  0  0  0
   -0.3460   23.6290  -25.9920 C   0  0  0  0  0  0  0  0  0  0  0  0
    0.1870   23.8690  -24.3300 S   0  0  0  0  0  0  0  0  0  0  0  0
   -0.8560   23.3100  -23.4050 O   0  0  0  0  0  0  0  0  0  0  0  0
    1.4840   23.1460  -24.0940 O   0  0  0  0  0  0  0  0  0  0  0  0
    0.3980   25.5770  -24.0270 N   0  0  0  0  0  0  0  0  0  0  0  0
   -0.8790   26.2960  -24.2130 C   0  0  0  0  0  0  0  0  0  0  0  0
   -0.6530   27.8150  -24.3660 C   0  0  0  0  0  0  0  0  0  0  0  0
    0.6020   28.1900  -23.8360 O   0  0  0  0  0  0  0  0  0  0  0  0
    1.6440   27.6350  -24.6200 C   0  0  0  0  0  0  0  0  0  0  0  0
    1.4430   26.1300  -24.9050 C   0  0  0  0  0  0  0  0  0  0  0  0
    0.4760   22.9000  -26.8870 C   0  0  0  0  0  0  0  0  0  0  0  0
    0.0540   22.6450  -28.2020 C   0  0  0  0  0  0  0  0  0  0  0  0
   -1.1930   23.1340  -28.5870 C   0  0  0  0  0  0  0  0  0  0  0  0
   -1.8370   22.9890  -29.7560 N   0  0  0  0  0  0  0  0  0  0  0  0
   -1.3780   22.3000  -30.9630 C   0  0  0  0  0  0  0  0  0  0  0  0
   -1.7840   20.8260  -30.9150 C   0  0  0  0  0  0  0  0  0  0  0  0
   -1.6660   20.2900  -29.5150 C   0  0  0  0  0  0  0  0  0  0  0  0
   -0.5000   19.6140  -29.1140 C   0  0  0  0  0  0  0  0  0  0  0  0
   -0.4070   19.0740  -27.8280 C   0  0  0  0  0  0  0  0  0  0  0  0
   -1.4720   19.2070  -26.9330 C   0  0  0  0  0  0  0  0  0  0  0  0
   -2.6360   19.8750  -27.3250 C   0  0  0  0  0  0  0  0  0  0  0  0
   -2.7370   20.4090  -28.6130 C   0  0  0  0  0  0  0  0  0  0  0  0
   -8.0364   19.9369  -33.3989 H   0  0  0  0  0  0  0  0  0  0  0  0
   -9.8207   21.2119  -32.2123 H   0  0  0  0  0  0  0  0  0  0  0  0
   -9.2173   22.8104  -30.3934 H   0  0  0  0  0  0  0  0  0  0  0  0
   -6.8297   23.1492  -29.7661 H   0  0  0  0  0  0  0  0  0  0  0  0
   -4.4362   21.5639  -29.8488 H   0  0  0  0  0  0  0  0  0  0  0  0
   -3.9727   21.5052  -31.5886 H   0  0  0  0  0  0  0  0  0  0  0  0
   -2.2375   24.7098  -25.7526 H   0  0  0  0  0  0  0  0  0  0  0  0
    0.7080   25.6830  -23.0320 H   0  0  0  0  0  0  0  0  0  0  0  0
   -1.3757   25.9152  -25.1176 H   0  0  0  0  0  0  0  0  0  0  0  0
   -1.5042   26.1269  -23.3239 H   0  0  0  0  0  0  0  0  0  0  0  0
   -0.6877   28.0794  -25.4332 H   0  0  0  0  0  0  0  0  0  0  0  0
   -1.4424   28.3469  -23.8147 H   0  0  0  0  0  0  0  0  0  0  0  0
    1.6860   28.1717  -25.5793 H   0  0  0  0  0  0  0  0  0  0  0  0
    2.5793   27.7420  -24.0509 H   0  0  0  0  0  0  0  0  0  0  0  0
    1.1425   25.9967  -25.9547 H   0  0  0  0  0  0  0  0  0  0  0  0
    2.3879   25.6008  -24.7126 H   0  0  0  0  0  0  0  0  0  0  0  0
    1.4549   22.5300  -26.5482 H   0  0  0  0  0  0  0  0  0  0  0  0
    0.6852   22.0794  -28.9032 H   0  0  0  0  0  0  0  0  0  0  0  0
   -1.8312   22.7734  -31.8465 H   0  0  0  0  0  0  0  0  0  0  0  0
   -0.2817   22.3692  -31.0215 H   0  0  0  0  0  0  0  0  0  0  0  0
   -2.8259   20.7268  -31.2535 H   0  0  0  0  0  0  0  0  0  0  0  0
   -1.1142   20.2520  -31.5722 H   0  0  0  0  0  0  0  0  0  0  0  0
    0.3417   19.5098  -29.8145 H   0  0  0  0  0  0  0  0  0  0  0  0
    0.5061   18.5435  -27.5200 H   0  0  0  0  0  0  0  0  0  0  0  0
   -1.3945   18.7860  -25.9197 H   0  0  0  0  0  0  0  0  0  0  0  0
   -3.4731   19.9805  -26.6193 H   0  0  0  0  0  0  0  0  0  0  0  0
   -3.6585   20.9244  -28.9217 H   0  0  0  0  0  0  0  0  0  0  0  0
  1  2  3  0
  2  3  1  0
  3  4  2  0
  4  5  1  0
  5  6  2  0
  6  7  1  0
  7  8  2  0
  8  9  1  0
  9 10  1  0
 10 11  1  0
 11 12  2  0
 12 13  1  0
 13 14  2  0
 14 15  1  0
 15 16  1  0
 16 17  2  0
 16 18  2  0
 16 19  1  0
 19 20  1  0
 20 21  1  0
 21 22  1  0
 22 23  1  0
 23 24  1  0
 15 25  2  0
 25 26  1  0
 26 27  2  0
 27 28  1  0
 28 29  1  0
 29 30  1  0
 30 31  1  0
 31 32  2  0
 32 33  1  0
 33 34  2  0
 34 35  1  0
 35 36  2  0
  8  3  1  0
 28 11  1  0
 36 31  1  0
 27 13  1  0
 24 19  1  0
  4 37  1  0
  5 38  1  0
  6 39  1  0
  7 40  1  0
  9 41  1  0
  9 42  1  0
 14 43  1  0
 19 44  1  0
 20 45  1  0
 20 46  1  0
 21 47  1  0
 21 48  1  0
 23 49  1  0
 23 50  1  0
 24 51  1  0
 24 52  1  0
 25 53  1  0
 26 54  1  0
 29 55  1  0
 29 56  1  0
 30 57  1  0
 30 58  1  0
 32 59  1  0
 33 60  1  0
 34 61  1  0
 35 62  1  0
 36 63  1  0
M  CHG  1  19   1
M  END
>  <UniqueID>  (1) 
1

>  <SMILES>  (1) 
N#Cc1ccccc1CSc1nc2cc(S(=O)(=O)[NH+]3CCOCC3)ccc2n1CCc1ccccc1

>  <Energy>  (1) 
105.07217442264681

>  <Genealogy>  (1) 
N#Cc1ccccc1CSc1nc2cc(S(=O)(=O)[NH+]3CCOCC3)ccc2n1CCc1ccccc1 (protonated)
N#Cc1ccccc1CSc1nc2cc(S(=O)(=O)[NH+]3CCOCC3)ccc2n1CCc1ccccc1 (3D coordinates assigned)
N#Cc1ccccc1CSc1nc2cc(S(=O)(=O)[NH+]3CCOCC3)ccc2n1CCc1ccccc1 (nonaromatic ring conformer: 105.07217442264681 kcal/mol)

>  <smiles>  (1) 
N#Cc1ccccc1CSc1nc2cc(S(=O)(=O)N3CCOCC3)ccc2n1CCc1ccccc1

>  <score_type>  (1) 
oracle

>  <origin>  (1) 
adgpu

>  <m_score__min__energy>  (1) 
-10.19

>  <m_primary>  (1) 
energy

$$$$
1:0
     RDKit          3D

 58 61  0  0  0  0  0  0  0  0999 V2000
   -1.2940   20.4380  -27.8190 C   0  0  0  0  0  0  0  0  0  0  0  0
   -1.8200   21.6830  -28.4780 C   0  0  0  0  0  0  0  0  0  0  0  0
   -2.4040   22.6740  -27.6650 C   0  0  0  0  0  0  0  0  0  0  0  0
   -2.9530   23.8250  -28.2280 C   0  0  0  0  0  0  0  0  0  0  0  0
   -2.9390   24.0100  -29.6110 C   0  0  0  0  0  0  0  0  0  0  0  0
   -3.5610   25.1780  -30.1670 N   0  0  0  0  0  0  0  0  0  0  0  0
   -4.9510   25.3080  -30.4990 C   0  0  0  0  0  0  0  0  0  0  0  0
   -5.4700   26.4570  -30.4810 O   0  0  0  0  0  0  0  0  0  0  0  0
   -5.8000   24.1340  -30.8200 C   0  0  0  0  0  0  0  0  0  0  0  0
   -6.6990   23.6340  -29.8630 C   0  0  0  0  0  0  0  0  0  0  0  0
   -7.5050   22.5390  -30.1800 C   0  0  0  0  0  0  0  0  0  0  0  0
   -7.4090   21.9520  -31.4030 N   0  0  0  0  0  0  0  0  0  0  0  0
   -6.5360   22.4010  -32.3420 C   0  0  0  0  0  0  0  0  0  0  0  0
   -5.7170   23.4990  -32.0700 C   0  0  0  0  0  0  0  0  0  0  0  0
   -2.3000   23.0630  -30.4250 C   0  0  0  0  0  0  0  0  0  0  0  0
   -1.7500   21.8930  -29.8810 C   0  0  0  0  0  0  0  0  0  0  0  0
   -1.0470   20.7360  -31.0330 S   0  0  0  0  0  0  0  0  0  0  0  0
   -1.2050   19.3080  -30.5900 O   0  0  0  0  0  0  0  0  0  0  0  0
    0.4250   21.0300  -31.1300 O   0  0  0  0  0  0  0  0  0  0  0  0
   -1.7800   20.9510  -32.6130 N   0  0  0  0  0  0  0  0  0  0  0  0
   -3.2390   21.2120  -32.5000 C   0  0  0  0  0  0  0  0  0  0  0  0
   -4.0720   19.9250  -32.3770 C   0  0  0  0  0  0  0  0  0  0  0  0
   -3.6820   18.9490  -33.3990 N   0  0  0  0  0  0  0  0  0  0  0  0
   -4.1460   17.5940  -33.2880 C   0  0  0  0  0  0  0  0  0  0  0  0
   -3.1960   16.5630  -33.2230 C   0  0  0  0  0  0  0  0  0  0  0  0
   -3.6000   15.2340  -33.0960 C   0  0  0  0  0  0  0  0  0  0  0  0
   -4.9590   14.9210  -33.0210 C   0  0  0  0  0  0  0  0  0  0  0  0
   -5.9170   15.9360  -33.0830 C   0  0  0  0  0  0  0  0  0  0  0  0
   -5.5290   17.2840  -33.2390 C   0  0  0  0  0  0  0  0  0  0  0  0
   -6.5870   18.3690  -33.2500 C   0  0  0  0  0  0  0  0  0  0  0  0
   -6.3440   19.2900  -34.2550 F   0  0  0  0  0  0  0  0  0  0  0  0
   -7.8250   17.7930  -33.4650 F   0  0  0  0  0  0  0  0  0  0  0  0
   -6.6080   19.0530  -32.0470 F   0  0  0  0  0  0  0  0  0  0  0  0
   -2.5890   19.2700  -34.3200 C   0  0  0  0  0  0  0  0  0  0  0  0
   -1.4070   19.8220  -33.5160 C   0  0  0  0  0  0  0  0  0  0  0  0
   -1.3426   20.5531  -26.7261 H   0  0  0  0  0  0  0  0  0  0  0  0
   -1.9046   19.5755  -28.1244 H   0  0  0  0  0  0  0  0  0  0  0  0
   -0.2500   20.2746  -28.1244 H   0  0  0  0  0  0  0  0  0  0  0  0
   -2.4271   22.5381  -26.5737 H   0  0  0  0  0  0  0  0  0  0  0  0
   -3.3999   24.5919  -27.5782 H   0  0  0  0  0  0  0  0  0  0  0  0
   -6.7674   24.1024  -28.8701 H   0  0  0  0  0  0  0  0  0  0  0  0
   -8.2191   22.1503  -29.4391 H   0  0  0  0  0  0  0  0  0  0  0  0
   -6.4741   21.8987  -33.3186 H   0  0  0  0  0  0  0  0  0  0  0  0
   -5.0110   23.8644  -32.8303 H   0  0  0  0  0  0  0  0  0  0  0  0
   -2.2291   23.2410  -31.5082 H   0  0  0  0  0  0  0  0  0  0  0  0
   -1.3520   21.8230  -33.0080 H   0  0  0  0  0  0  0  0  0  0  0  0
   -3.4163   21.8309  -31.6081 H   0  0  0  0  0  0  0  0  0  0  0  0
   -3.5546   21.7212  -33.4225 H   0  0  0  0  0  0  0  0  0  0  0  0
   -3.9122   19.4866  -31.3809 H   0  0  0  0  0  0  0  0  0  0  0  0
   -5.1328   20.1783  -32.5200 H   0  0  0  0  0  0  0  0  0  0  0  0
   -2.1241   16.8050  -33.2726 H   0  0  0  0  0  0  0  0  0  0  0  0
   -2.8480   14.4322  -33.0549 H   0  0  0  0  0  0  0  0  0  0  0  0
   -5.2758   13.8732  -32.9129 H   0  0  0  0  0  0  0  0  0  0  0  0
   -6.9847   15.6819  -33.0095 H   0  0  0  0  0  0  0  0  0  0  0  0
   -2.2786   18.3607  -34.8555 H   0  0  0  0  0  0  0  0  0  0  0  0
   -2.9257   20.0208  -35.0500 H   0  0  0  0  0  0  0  0  0  0  0  0
   -0.9915   19.0082  -32.9035 H   0  0  0  0  0  0  0  0  0  0  0  0
   -0.6762   20.2125  -34.2395 H   0  0  0  0  0  0  0  0  0  0  0  0
  1  2  1  0
  2  3  2  0
  3  4  1  0
  4  5  2  0
  5  6  1  0
  6  7  1  0
  7  8  2  0
  7  9  1  0
  9 10  2  0
 10 11  1  0
 11 12  2  0
 12 13  1  0
 13 14  2  0
  5 15  1  0
 15 16  2  0
 16 17  1  0
 17 18  2  0
 17 19  2  0
 17 20  1  0
 20 21  1  0
 21 22  1  0
 22 23  1  0
 23 24  1  0
 24 25  2  0
 25 26  1  0
 26 27  2  0
 27 28  1  0
 28 29  2  0
 29 30  1  0
 30 31  1  0
 30 32  1  0
 30 33  1  0
 23 34  1  0
 34 35  1  0
 16  2  1  0
 35 20  1  0
 14  9  1  0
 29 24  1  0
  1 36  1  0
  1 37  1  0
  1 38  1  0
  3 39  1  0
  4 40  1  0
 10 41  1  0
 11 42  1  0
 13 43  1  0
 14 44  1  0
 15 45  1  0
 20 46  1  0
 21 47  1  0
 21 48  1  0
 22 49  1  0
 22 50  1  0
 25 51  1  0
 26 52  1  0
 27 53  1  0
 28 54  1  0
 34 55  1  0
 34 56  1  0
 35 57  1  0
 35 58  1  0
M  CHG  2   6  -1  20   1
M  END
>  <UniqueID>  (2) 
2

>  <SMILES>  (2) 
Cc1ccc([N-]C(=O)c2ccncc2)cc1S(=O)(=O)[NH+]1CCN(c2ccccc2C(F)(F)F)CC1

>  <Energy>  (2) 
83.97338183008233

>  <Genealogy>  (2) 
Cc1ccc([N-]C(=O)c2ccncc2)cc1S(=O)(=O)[NH+]1CCN(c2ccccc2C(F)(F)F)CC1 (protonated)
Cc1ccc([N-]C(=O)c2ccncc2)cc1S(=O)(=O)[NH+]1CCN(c2ccccc2C(F)(F)F)CC1 (3D coordinates assigned)
Cc1ccc([N-]C(=O)c2ccncc2)cc1S(=O)(=O)[NH+]1CCN(c2ccccc2C(F)(F)F)CC1 (nonaromatic ring conformer: 83.97338183008233 kcal/mol)

>  <smiles>  (2) 
Cc1ccc(NC(=O)c2ccncc2)cc1S(=O)(=O)N1CCN(c2ccccc2C(F)(F)F)CC1

>  <score_type>  (2) 
oracle

>  <origin>  (2) 
adgpu

>  <m_score__min__energy>  (2) 
-10.1

>  <m_primary>  (2) 
energy

$$$$
2:0
     RDKit          3D

 49 51  0  0  0  0  0  0  0  0999 V2000
   -6.8550   18.3490  -33.3030 C   0  0  0  0  0  0  0  0  0  0  0  0
   -6.0290   18.6470  -34.5500 C   0  0  0  0  0  0  0  0  0  0  0  0
   -4.7480   17.8600  -34.5450 C   0  0  0  0  0  0  0  0  0  0  0  0
   -4.7900   16.6090  -34.6930 O   0  0  0  0  0  0  0  0  0  0  0  0
   -3.4720   18.5120  -34.4900 N   0  0  0  0  0  0  0  0  0  0  0  0
   -3.1450   19.5390  -33.7550 C   0  0  0  0  0  0  0  0  0  0  0  0
   -4.0110   20.0810  -32.7810 C   0  0  0  0  0  0  0  0  0  0  0  0
   -3.6030   21.1840  -32.0250 C   0  0  0  0  0  0  0  0  0  0  0  0
   -4.4810   21.7030  -31.0620 O   0  0  0  0  0  0  0  0  0  0  0  0
   -5.8230   22.0360  -31.2970 C   0  0  0  0  0  0  0  0  0  0  0  0
   -6.7840   21.0200  -31.2190 C   0  0  0  0  0  0  0  0  0  0  0  0
   -8.1340   21.3040  -31.4360 C   0  0  0  0  0  0  0  0  0  0  0  0
   -8.5330   22.6070  -31.7370 C   0  0  0  0  0  0  0  0  0  0  0  0
   -7.5820   23.6250  -31.8440 C   0  0  0  0  0  0  0  0  0  0  0  0
   -6.2150   23.3450  -31.6570 C   0  0  0  0  0  0  0  0  0  0  0  0
   -5.2180   24.3670  -31.8040 N   0  0  0  0  0  0  0  0  0  0  0  0
   -4.7960   25.2950  -30.7990 C   0  0  0  0  0  0  0  0  0  0  0  0
   -5.5860   26.2110  -30.4470 O   0  0  0  0  0  0  0  0  0  0  0  0
   -3.5010   25.1770  -30.1960 N   0  0  0  0  0  0  0  0  0  0  0  0
   -3.0400   24.1140  -29.3500 C   0  0  0  0  0  0  0  0  0  0  0  0
   -1.6740   23.8130  -29.3360 C   0  0  0  0  0  0  0  0  0  0  0  0
   -1.1850   22.7700  -28.5430 C   0  0  0  0  0  0  0  0  0  0  0  0
   -2.0570   22.0000  -27.7660 C   0  0  0  0  0  0  0  0  0  0  0  0
   -1.5190   20.9650  -26.9870 O   0  0  0  0  0  0  0  0  0  0  0  0
   -2.1740   19.7260  -26.7340 C   0  0  0  0  0  0  0  0  0  0  0  0
   -3.4360   22.2840  -27.7970 C   0  0  0  0  0  0  0  0  0  0  0  0
   -3.9240   23.3280  -28.5890 C   0  0  0  0  0  0  0  0  0  0  0  0
   -2.3170   21.7140  -32.2240 C   0  0  0  0  0  0  0  0  0  0  0  0
   -1.4800   21.1410  -33.1790 C   0  0  0  0  0  0  0  0  0  0  0  0
   -1.9070   20.0780  -33.9110 N   0  0  0  0  0  0  0  0  0  0  0  0
   -6.2560   18.5651  -32.4061 H   0  0  0  0  0  0  0  0  0  0  0  0
   -7.7572   18.9783  -33.3018 H   0  0  0  0  0  0  0  0  0  0  0  0
   -7.1476   17.2886  -33.3018 H   0  0  0  0  0  0  0  0  0  0  0  0
   -6.6136   18.3780  -35.4421 H   0  0  0  0  0  0  0  0  0  0  0  0
   -5.7831   19.7191  -34.5610 H   0  0  0  0  0  0  0  0  0  0  0  0
   -5.0039   19.6369  -32.6173 H   0  0  0  0  0  0  0  0  0  0  0  0
   -6.4731   19.9911  -30.9852 H   0  0  0  0  0  0  0  0  0  0  0  0
   -8.8827   20.5008  -31.3697 H   0  0  0  0  0  0  0  0  0  0  0  0
   -9.5985   22.8331  -31.8903 H   0  0  0  0  0  0  0  0  0  0  0  0
   -7.9032   24.6512  -32.0757 H   0  0  0  0  0  0  0  0  0  0  0  0
   -0.9791   24.4012  -29.9534 H   0  0  0  0  0  0  0  0  0  0  0  0
   -0.1066   22.5535  -28.5301 H   0  0  0  0  0  0  0  0  0  0  0  0
   -2.2565   19.5699  -25.6483 H   0  0  0  0  0  0  0  0  0  0  0  0
   -3.1797   19.7453  -27.1792 H   0  0  0  0  0  0  0  0  0  0  0  0
   -1.5917   18.9058  -27.1792 H   0  0  0  0  0  0  0  0  0  0  0  0
   -4.1326   21.6817  -27.1953 H   0  0  0  0  0  0  0  0  0  0  0  0
   -5.0039   23.5355  -28.6170 H   0  0  0  0  0  0  0  0  0  0  0  0
   -1.9739   22.5743  -31.6306 H   0  0  0  0  0  0  0  0  0  0  0  0
   -0.4716   21.5495  -33.3411 H   0  0  0  0  0  0  0  0  0  0  0  0
  1  2  1  0
  2  3  1  0
  3  4  2  0
  3  5  1  0
  5  6  2  3
  6  7  1  0
  7  8  2  0
  8  9  1  0
  9 10  1  0
 10 11  2  0
 11 12  1  0
 12 13  2  0
 13 14  1  0
 14 15  2  0
 15 16  1  0
 16 17  1  0
 17 18  2  0
 17 19  1  0
 19 20  1  0
 20 21  2  0
 21 22  1  0
 22 23  2  0
 23 24  1  0
 24 25  1  0
 23 26  1  0
 26 27  2  0
  8 28  1  0
 28 29  2  0
 29 30  1  0
 30  6  1  0
 15 10  1  0
 27 20  1  0
  1 31  1  0
  1 32  1  0
  1 33  1  0
  2 34  1  0
  2 35  1  0
  7 36  1  0
 11 37  1  0
 12 38  1  0
 13 39  1  0
 14 40  1  0
 21 41  1  0
 22 42  1  0
 25 43  1  0
 25 44  1  0
 25 45  1  0
 26 46  1  0
 27 47  1  0
 28 48  1  0
 29 49  1  0
M  CHG  3  16  -1  19  -1  30  -1
M  END
>  <UniqueID>  (3) 
3

>  <SMILES>  (3) 
CCC(=O)N=c1cc(Oc2ccccc2[N-]C(=O)[N-]c2ccc(OC)cc2)cc[n-]1

>  <Energy>  (3) 
72.04390196946883

>  <Genealogy>  (3) 
CCC(=O)N=c1cc(Oc2ccccc2[N-]C(=O)[N-]c2ccc(OC)cc2)cc[n-]1 (protonated)
CCC(=O)N=c1cc(Oc2ccccc2[N-]C(=O)[N-]c2ccc(OC)cc2)cc[n-]1 (3D coordinates assigned)
CCC(=O)N=c1cc(Oc2ccccc2[N-]C(=O)[N-]c2ccc(OC)cc2)cc[n-]1 (optimized conformer: 72.04390196946883 kcal/mol)

>  <smiles>  (3) 
CCC(=O)N=c1cc(Oc2ccccc2NC(=O)Nc2ccc(OC)cc2)cc[nH]1

>  <score_type>  (3) 
oracle

>  <origin>  (3) 
adgpu

>  <m_score__min__energy>  (3) 
-11.82

>  <m_primary>  (3) 
energy

$$$$
3:0
     RDKit          3D

 66 70  0  0  0  0  0  0  0  0999 V2000
   -5.7730   15.8300  -34.1110 C   0  0  0  0  0  0  0  0  0  0  0  0
   -5.9690   17.1770  -33.5520 N   0  0  0  0  0  0  0  0  0  0  0  0
   -5.9240   18.1890  -34.6320 C   0  0  0  0  0  0  0  0  0  0  0  0
   -6.4820   19.5580  -34.1850 C   0  0  0  0  0  0  0  0  0  0  0  0
   -6.5980   19.6270  -32.7250 N   0  0  0  0  0  0  0  0  0  0  0  0
   -6.2390   20.8360  -32.0350 C   0  0  0  0  0  0  0  0  0  0  0  0
   -7.2340   21.5810  -31.3870 C   0  0  0  0  0  0  0  0  0  0  0  0
   -6.9320   22.8170  -30.8140 C   0  0  0  0  0  0  0  0  0  0  0  0
   -5.6320   23.3280  -30.8820 C   0  0  0  0  0  0  0  0  0  0  0  0
   -5.3040   24.9570  -30.2960 S   0  0  0  0  0  0  0  0  0  0  0  0
   -5.9170   25.1410  -28.9360 O   0  0  0  0  0  0  0  0  0  0  0  0
   -5.9010   25.9660  -31.2360 O   0  0  0  0  0  0  0  0  0  0  0  0
   -3.5940   25.2020  -30.1870 N   0  0  0  0  0  0  0  0  0  0  0  0
   -2.8030   24.4120  -29.2980 C   0  0  0  0  0  0  0  0  0  0  0  0
   -3.2530   23.1440  -28.9180 C   0  0  0  0  0  0  0  0  0  0  0  0
   -2.5270   22.3780  -27.9940 C   0  0  0  0  0  0  0  0  0  0  0  0
   -1.3510   22.9080  -27.4210 C   0  0  0  0  0  0  0  0  0  0  0  0
   -0.8910   24.1700  -27.8270 C   0  0  0  0  0  0  0  0  0  0  0  0
   -1.6110   24.9220  -28.7630 C   0  0  0  0  0  0  0  0  0  0  0  0
   -1.1510   26.1780  -29.1590 O   0  0  0  0  0  0  0  0  0  0  0  0
   -0.5280   22.1030  -26.4500 C   0  0  0  0  0  0  0  0  0  0  0  0
   -1.2940   20.8940  -25.8900 C   0  0  0  0  0  0  0  0  0  0  0  0
   -2.0520   20.1740  -26.9320 N   0  0  0  0  0  0  0  0  0  0  0  0
   -1.1780   19.5510  -27.9410 C   0  0  0  0  0  0  0  0  0  0  0  0
   -3.0750   21.0420  -27.5490 C   0  0  0  0  0  0  0  0  0  0  0  0
   -4.6240   22.5790  -31.5030 C   0  0  0  0  0  0  0  0  0  0  0  0
   -4.9100   21.3260  -32.0700 C   0  0  0  0  0  0  0  0  0  0  0  0
   -3.8160   20.5440  -32.6930 C   0  0  0  0  0  0  0  0  0  0  0  0
   -3.7240   19.1590  -32.4790 C   0  0  0  0  0  0  0  0  0  0  0  0
   -2.6700   18.4280  -33.0380 C   0  0  0  0  0  0  0  0  0  0  0  0
   -1.7040   19.0740  -33.8140 C   0  0  0  0  0  0  0  0  0  0  0  0
   -0.6490   18.3500  -34.3570 O   0  0  0  0  0  0  0  0  0  0  0  0
   -1.8000   20.4490  -34.0460 C   0  0  0  0  0  0  0  0  0  0  0  0
   -2.8540   21.1800  -33.4950 C   0  0  0  0  0  0  0  0  0  0  0  0
   -7.2870   18.5510  -32.0070 C   0  0  0  0  0  0  0  0  0  0  0  0
   -7.2410   17.2480  -32.8130 C   0  0  0  0  0  0  0  0  0  0  0  0
   -5.6674   15.1045  -33.2909 H   0  0  0  0  0  0  0  0  0  0  0  0
   -6.6413   15.5600  -34.7300 H   0  0  0  0  0  0  0  0  0  0  0  0
   -4.8637   15.8186  -34.7300 H   0  0  0  0  0  0  0  0  0  0  0  0
   -4.8788   18.3206  -34.9484 H   0  0  0  0  0  0  0  0  0  0  0  0
   -6.5542   17.8250  -35.4569 H   0  0  0  0  0  0  0  0  0  0  0  0
   -5.8041   20.3527  -34.5299 H   0  0  0  0  0  0  0  0  0  0  0  0
   -7.4828   19.6882  -34.6225 H   0  0  0  0  0  0  0  0  0  0  0  0
   -8.2600   21.1886  -31.3298 H   0  0  0  0  0  0  0  0  0  0  0  0
   -7.7203   23.3922  -30.3063 H   0  0  0  0  0  0  0  0  0  0  0  0
   -4.1836   22.7440  -29.3469 H   0  0  0  0  0  0  0  0  0  0  0  0
    0.0427   24.5716  -27.4065 H   0  0  0  0  0  0  0  0  0  0  0  0
   -1.2420   26.5010  -30.1150 H   0  0  0  0  0  0  0  0  0  0  0  0
    0.3731   21.7411  -26.9667 H   0  0  0  0  0  0  0  0  0  0  0  0
   -0.2735   22.7584  -25.6040 H   0  0  0  0  0  0  0  0  0  0  0  0
   -0.5728   20.1993  -25.4347 H   0  0  0  0  0  0  0  0  0  0  0  0
   -2.0162   21.2691  -25.1499 H   0  0  0  0  0  0  0  0  0  0  0  0
   -0.3820   18.9836  -27.4365 H   0  0  0  0  0  0  0  0  0  0  0  0
   -1.7710   18.8707  -28.5700 H   0  0  0  0  0  0  0  0  0  0  0  0
   -0.7284   20.3335  -28.5700 H   0  0  0  0  0  0  0  0  0  0  0  0
   -3.4910   20.5243  -28.4259 H   0  0  0  0  0  0  0  0  0  0  0  0
   -3.8421   21.2393  -26.7857 H   0  0  0  0  0  0  0  0  0  0  0  0
   -3.5990   22.9758  -31.5470 H   0  0  0  0  0  0  0  0  0  0  0  0
   -4.4834   18.6470  -31.8697 H   0  0  0  0  0  0  0  0  0  0  0  0
   -2.6017   17.3436  -32.8664 H   0  0  0  0  0  0  0  0  0  0  0  0
   -1.0439   20.9559  -34.6636 H   0  0  0  0  0  0  0  0  0  0  0  0
   -2.9316   22.2598  -33.6899 H   0  0  0  0  0  0  0  0  0  0  0  0
   -6.7959   18.3926  -31.0355 H   0  0  0  0  0  0  0  0  0  0  0  0
   -8.3382   18.8397  -31.8598 H   0  0  0  0  0  0  0  0  0  0  0  0
   -7.3168   16.3900  -32.1289 H   0  0  0  0  0  0  0  0  0  0  0  0
   -8.0811   17.2240  -33.5227 H   0  0  0  0  0  0  0  0  0  0  0  0
  1  2  1  0
  2  3  1  0
  3  4  1  0
  4  5  1  0
  5  6  1  0
  6  7  2  0
  7  8  1  0
  8  9  2  0
  9 10  1  0
 10 11  2  0
 10 12  2  0
 10 13  1  0
 13 14  1  0
 14 15  2  0
 15 16  1  0
 16 17  2  0
 17 18  1  0
 18 19  2  0
 19 20  1  0
 17 21  1  0
 21 22  1  0
 22 23  1  0
 23 24  1  0
 23 25  1  0
  9 26  1  0
 26 27  2  0
 27 28  1  0
 28 29  2  0
 29 30  1  0
 30 31  2  0
 31 32  1  0
 31 33  1  0
 33 34  2  0
  5 35  1  0
 35 36  1  0
 36  2  1  0
 27  6  1  0
 34 28  1  0
 19 14  1  0
 25 16  1  0
  1 37  1  0
  1 38  1  0
  1 39  1  0
  3 40  1  0
  3 41  1  0
  4 42  1  0
  4 43  1  0
  7 44  1  0
  8 45  1  0
 15 46  1  0
 18 47  1  0
 20 48  1  0
 21 49  1  0
 21 50  1  0
 22 51  1  0
 22 52  1  0
 24 53  1  0
 24 54  1  0
 24 55  1  0
 25 56  1  0
 25 57  1  0
 26 58  1  0
 29 59  1  0
 30 60  1  0
 33 61  1  0
 34 62  1  0
 35 63  1  0
 35 64  1  0
 36 65  1  0
 36 66  1  0
M  CHG  2  13  -1  32  -1
M  END
>  <UniqueID>  (4) 
4

>  <SMILES>  (4) 
CN1CCN(c2ccc(S(=O)(=O)[N-]c3cc4c(cc3O)CCN(C)C4)cc2-c2ccc([O-])cc2)CC1

>  <Energy>  (4) 
97.15473001021316

>  <Genealogy>  (4) 
CN1CCN(c2ccc(S(=O)(=O)[N-]c3cc4c(cc3O)CCN(C)C4)cc2-c2ccc([O-])cc2)CC1 (protonated)
CN1CCN(c2ccc(S(=O)(=O)[N-]c3cc4c(cc3O)CCN(C)C4)cc2-c2ccc([O-])cc2)CC1 (3D coordinates assigned)
CN1CCN(c2ccc(S(=O)(=O)[N-]c3cc4c(cc3O)CCN(C)C4)cc2-c2ccc([O-])cc2)CC1 (nonaromatic ring conformer: 97.15473001021316 kcal/mol)

>  <smiles>  (4) 
CN1CCN(c2ccc(S(=O)(=O)Nc3cc4c(cc3O)CCN(C)C4)cc2-c2ccc(O)cc2)CC1

>  <score_type>  (4) 
oracle

>  <origin>  (4) 
adgpu

>  <m_score__min__energy>  (4) 
-14.029999999999999

>  <m_primary>  (4) 
energy

$$$$
4:0
     RDKit          3D

 36 37  0  0  1  0  0  0  0  0999 V2000
   -6.4210   25.6410  -29.6490 C   0  0  0  0  0  0  0  0  0  0  0  0
   -5.4450   24.5650  -29.2190 C   0  0  0  0  0  0  0  0  0  0  0  0
   -4.5320   24.3310  -30.3950 C   0  0  0  0  0  0  0  0  0  0  0  0
   -3.8930   25.3190  -30.8460 O   0  0  0  0  0  0  0  0  0  0  0  0
   -4.4310   23.0200  -30.9400 N   0  0  0  0  0  0  0  0  0  0  0  0
   -5.4480   22.3920  -31.4290 C   0  0  0  0  0  0  0  0  0  0  0  0
   -5.3040   21.1040  -31.9550 C   0  0  0  0  0  0  0  0  0  0  0  0
   -6.3760   20.4110  -32.4840 C   0  0  0  0  0  0  0  0  0  0  0  0
   -6.2130   19.0700  -33.0300 C   0  0  0  0  0  0  0  0  0  0  0  0
   -7.0770   18.0260  -32.7240 C   0  0  0  0  0  0  0  0  0  0  0  0
   -6.9150   16.7570  -33.2440 C   0  0  0  0  0  0  0  0  0  0  0  0
   -5.8780   16.4620  -34.1010 C   0  0  0  0  0  0  0  0  0  0  0  0
   -5.0140   17.4810  -34.4160 C   0  0  0  0  0  0  0  0  0  0  0  0
   -3.8900   17.1770  -35.3390 C   0  0  0  0  0  0  0  0  0  0  0  0
   -5.1800   18.7660  -33.8870 C   0  0  0  0  0  0  0  0  0  0  0  0
   -7.5640   21.0500  -32.4640 N   0  0  0  0  0  0  0  0  0  0  0  0
   -7.7180   22.2940  -31.9590 C   0  0  0  0  0  0  0  0  0  0  0  0
   -9.0560   22.9360  -31.9670 C   0  0  0  0  0  0  0  0  0  0  0  0
   -6.6610   22.9730  -31.4380 N   0  0  0  0  0  0  0  0  0  0  0  0
   -6.8550   26.1194  -28.7586 H   0  0  0  0  0  0  0  0  0  0  0  0
   -5.8931   26.3958  -30.2503 H   0  0  0  0  0  0  0  0  0  0  0  0
   -7.2236   25.1890  -30.2503 H   0  0  0  0  0  0  0  0  0  0  0  0
   -4.8651   24.9025  -28.3473 H   0  0  0  0  0  0  0  0  0  0  0  0
   -5.9683   23.6422  -28.9281 H   0  0  0  0  0  0  0  0  0  0  0  0
   -4.3113   20.6303  -31.9473 H   0  0  0  0  0  0  0  0  0  0  0  0
   -7.9199   18.2169  -32.0435 H   0  0  0  0  0  0  0  0  0  0  0  0
   -7.6282   15.9662  -32.9683 H   0  0  0  0  0  0  0  0  0  0  0  0
   -5.7476   15.4516  -34.5159 H   0  0  0  0  0  0  0  0  0  0  0  0
   -2.9907   16.9338  -34.7540 H   0  0  0  0  0  0  0  0  0  0  0  0
   -4.1581   16.3191  -35.9731 H   0  0  0  0  0  0  0  0  0  0  0  0
   -3.6891   18.0531  -35.9731 H   0  0  0  0  0  0  0  0  0  0  0  0
   -4.4651   19.5548  -34.1639 H   0  0  0  0  0  0  0  0  0  0  0  0
   -8.4240   20.6030  -32.8410 H   0  0  0  0  0  0  0  0  0  0  0  0
   -9.3916   23.0970  -30.9319 H   0  0  0  0  0  0  0  0  0  0  0  0
   -8.9955   23.9032  -32.4875 H   0  0  0  0  0  0  0  0  0  0  0  0
   -9.7726   22.2837  -32.4875 H   0  0  0  0  0  0  0  0  0  0  0  0
  1  2  1  0
  2  3  1  0
  3  4  2  0
  3  5  1  0
  5  6  2  0
  6  7  1  0
  7  8  2  0
  8  9  1  0
  9 10  2  0
 10 11  1  0
 11 12  2  0
 12 13  1  0
 13 14  1  0
 13 15  2  0
  8 16  1  0
 16 17  1  0
 17 18  1  0
 17 19  2  0
 19  6  1  0
 15  9  1  0
  1 20  1  0
  1 21  1  0
  1 22  1  0
  2 23  1  0
  2 24  1  0
  7 25  1  0
 10 26  1  0
 11 27  1  0
 12 28  1  0
 14 29  1  0
 14 30  1  0
 14 31  1  0
 15 32  1  0
 16 33  1  0
 18 34  1  0
 18 35  1  0
 18 36  1  0
M  END
>  <smiles>  (5) 
CCC(=O)N=c1cc(-c2cccc(C)c2)[nH]c(C)n1

>  <score_type>  (5) 
oracle

>  <origin>  (5) 
adgpu

>  <m_score__min__energy>  (5) 
-7.9900000000000002

>  <m_primary>  (5) 
energy

$$$$
5:0
     RDKit          3D

 50 53  0  0  0  0  0  0  0  0999 V2000
   -0.0790   22.1970  -29.9310 O   0  0  0  0  0  0  0  0  0  0  0  0
   -1.4760   21.8220  -30.3420 S   0  0  0  0  0  0  0  0  0  0  0  0
   -2.0690   20.9540  -29.2660 O   0  0  0  0  0  0  0  0  0  0  0  0
   -2.4260   23.2670  -30.4870 N   0  0  0  0  0  0  0  0  0  0  0  0
   -3.8270   23.2740  -30.7800 C   0  0  0  0  0  0  0  0  0  0  0  0
   -4.4990   22.0940  -31.1330 C   0  0  0  0  0  0  0  0  0  0  0  0
   -5.8580   22.1210  -31.4650 C   0  0  0  0  0  0  0  0  0  0  0  0
   -6.5640   23.3400  -31.4290 C   0  0  0  0  0  0  0  0  0  0  0  0
   -5.8840   24.5240  -31.1070 C   0  0  0  0  0  0  0  0  0  0  0  0
   -4.5220   24.4930  -30.7900 C   0  0  0  0  0  0  0  0  0  0  0  0
   -3.8630   25.6760  -30.4760 O   0  0  0  0  0  0  0  0  0  0  0  0
   -8.0210   23.3910  -31.8210 C   0  0  0  0  0  0  0  0  0  0  0  0
   -8.7090   22.0350  -31.6220 C   0  0  0  0  0  0  0  0  0  0  0  0
   -7.9150   20.9200  -32.3080 C   0  0  0  0  0  0  0  0  0  0  0  0
   -6.5370   20.9060  -31.8200 N   0  0  0  0  0  0  0  0  0  0  0  0
   -1.3920   20.9410  -31.8630 C   0  0  0  0  0  0  0  0  0  0  0  0
   -0.2810   21.0840  -32.7090 C   0  0  0  0  0  0  0  0  0  0  0  0
   -0.1970   20.3350  -33.8860 C   0  0  0  0  0  0  0  0  0  0  0  0
   -1.2080   19.4290  -34.2150 C   0  0  0  0  0  0  0  0  0  0  0  0
   -2.3170   19.2750  -33.3730 C   0  0  0  0  0  0  0  0  0  0  0  0
   -3.5370   18.0660  -33.7580 S   0  0  0  0  0  0  0  0  0  0  0  0
   -3.1890   16.7900  -33.0390 O   0  0  0  0  0  0  0  0  0  0  0  0
   -3.5540   17.7990  -35.2390 O   0  0  0  0  0  0  0  0  0  0  0  0
   -5.1060   18.6340  -33.2260 N   0  0  0  0  0  0  0  0  0  0  0  0
   -6.1280   18.3570  -34.2420 C   0  0  0  0  0  0  0  0  0  0  0  0
   -6.7860   17.0260  -33.9060 C   0  0  0  0  0  0  0  0  0  0  0  0
   -6.3790   16.7190  -32.4760 C   0  0  0  0  0  0  0  0  0  0  0  0
   -5.5350   17.9050  -32.0290 C   0  0  0  0  0  0  0  0  0  0  0  0
   -2.4130   20.0440  -32.2030 C   0  0  0  0  0  0  0  0  0  0  0  0
   -3.9527   21.1394  -31.1489 H   0  0  0  0  0  0  0  0  0  0  0  0
   -6.4248   25.4819  -31.1038 H   0  0  0  0  0  0  0  0  0  0  0  0
   -8.5307   24.1438  -31.2018 H   0  0  0  0  0  0  0  0  0  0  0  0
   -8.0804   23.6527  -32.8878 H   0  0  0  0  0  0  0  0  0  0  0  0
   -8.7780   21.8195  -30.5455 H   0  0  0  0  0  0  0  0  0  0  0  0
   -9.7139   22.0793  -32.0673 H   0  0  0  0  0  0  0  0  0  0  0  0
   -8.3873   19.9508  -32.0898 H   0  0  0  0  0  0  0  0  0  0  0  0
   -7.9090   21.0998  -33.3932 H   0  0  0  0  0  0  0  0  0  0  0  0
   -6.0290   19.9930  -31.7770 H   0  0  0  0  0  0  0  0  0  0  0  0
    0.5239   21.7859  -32.4455 H   0  0  0  0  0  0  0  0  0  0  0  0
    0.6674   20.4593  -34.5549 H   0  0  0  0  0  0  0  0  0  0  0  0
   -1.1332   18.8349  -35.1377 H   0  0  0  0  0  0  0  0  0  0  0  0
   -6.8831   19.1569  -34.2381 H   0  0  0  0  0  0  0  0  0  0  0  0
   -5.6682   18.3117  -35.2403 H   0  0  0  0  0  0  0  0  0  0  0  0
   -7.8801   17.1078  -33.9847 H   0  0  0  0  0  0  0  0  0  0  0  0
   -6.4724   16.2307  -34.5982 H   0  0  0  0  0  0  0  0  0  0  0  0
   -7.2683   16.6175  -31.8367 H   0  0  0  0  0  0  0  0  0  0  0  0
   -5.8228   15.7726  -32.4045 H   0  0  0  0  0  0  0  0  0  0  0  0
   -6.1324   18.5659  -31.3838 H   0  0  0  0  0  0  0  0  0  0  0  0
   -4.6602   17.5578  -31.4597 H   0  0  0  0  0  0  0  0  0  0  0  0
   -3.2929   19.9421  -31.5507 H   0  0  0  0  0  0  0  0  0  0  0  0
  1  2  2  0
  2  3  2  0
  2  4  1  0
  4  5  1  0
  5  6  2  0
  6  7  1  0
  7  8  2  0
  8  9  1  0
  9 10  2  0
 10 11  1  0
  8 12  1  0
 12 13  1  0
 13 14  1  0
 14 15  1  0
  2 16  1  0
 16 17  2  0
 17 18  1  0
 18 19  2  0
 19 20  1  0
 20 21  1  0
 21 22  2  0
 21 23  2  0
 21 24  1  0
 24 25  1  0
 25 26  1  0
 26 27  1  0
 27 28  1  0
 20 29  2  0
 10  5  1  0
 29 16  1  0
 15  7  1  0
 28 24  1  0
  6 30  1  0
  9 31  1  0
 12 32  1  0
 12 33  1  0
 13 34  1  0
 13 35  1  0
 14 36  1  0
 14 37  1  0
 15 38  1  0
 17 39  1  0
 18 40  1  0
 19 41  1  0
 25 42  1  0
 25 43  1  0
 26 44  1  0
 26 45  1  0
 27 46  1  0
 27 47  1  0
 28 48  1  0
 28 49  1  0
 29 50  1  0
M  CHG  2   4  -1  11  -1
M  END
>  <UniqueID>  (6) 
5

>  <SMILES>  (6) 
O=S(=O)([N-]c1cc2c(cc1[O-])CCCN2)c1cccc(S(=O)(=O)N2CCCC2)c1

>  <Energy>  (6) 
59.021510731140644

>  <Genealogy>  (6) 
O=S(=O)([N-]c1cc2c(cc1[O-])CCCN2)c1cccc(S(=O)(=O)N2CCCC2)c1 (protonated)
O=S(=O)([N-]c1cc2c(cc1[O-])CCCN2)c1cccc(S(=O)(=O)N2CCCC2)c1 (3D coordinates assigned)
O=S(=O)([N-]c1cc2c(cc1[O-])CCCN2)c1cccc(S(=O)(=O)N2CCCC2)c1 (nonaromatic ring conformer: 59.021510731140644 kcal/mol)

>  <smiles>  (6) 
O=S(=O)(Nc1cc2c(cc1O)CCCN2)c1cccc(S(=O)(=O)N2CCCC2)c1

>  <score_type>  (6) 
oracle

>  <origin>  (6) 
adgpu

>  <m_score__min__energy>  (6) 
-15.029999999999999

>  <m_primary>  (6) 
energy

$$$$
6:0
     RDKit          3D

 50 52  0  0  0  0  0  0  0  0999 V2000
    0.2040   21.5680  -35.3140 C   0  0  0  0  0  0  0  0  0  0  0  0
   -0.7290   20.5790  -34.6060 C   0  0  1  0  0  0  0  0  0  0  0  0
   -0.1040   19.1640  -34.5420 C   0  0  0  0  0  0  0  0  0  0  0  0
   -0.3260   18.4630  -33.1880 C   0  0  0  0  0  0  0  0  0  0  0  0
   -1.6830   18.6810  -32.6400 N   0  0  2  0  0  0  0  0  0  0  0  0
   -2.8850   17.7630  -33.5260 S   0  0  0  0  0  0  0  0  0  0  0  0
   -2.7900   16.3040  -33.1780 O   0  0  0  0  0  0  0  0  0  0  0  0
   -2.6770   17.9170  -35.0070 O   0  0  0  0  0  0  0  0  0  0  0  0
   -4.4920   18.3360  -33.0890 C   0  0  0  0  0  0  0  0  0  0  0  0
   -5.0790   19.4170  -33.7640 C   0  0  0  0  0  0  0  0  0  0  0  0
   -6.3560   19.8610  -33.4050 C   0  0  0  0  0  0  0  0  0  0  0  0
   -7.0560   19.2300  -32.3670 C   0  0  0  0  0  0  0  0  0  0  0  0
   -8.6620   19.7880  -31.9090 S   0  0  0  0  0  0  0  0  0  0  0  0
   -9.4610   20.1360  -33.1340 O   0  0  0  0  0  0  0  0  0  0  0  0
   -9.3840   18.6960  -31.1710 O   0  0  0  0  0  0  0  0  0  0  0  0
   -8.5270   21.1750  -30.8810 N   0  0  0  0  0  0  0  0  0  0  0  0
   -8.3430   22.5010  -31.3850 C   0  0  0  0  0  0  0  0  0  0  0  0
   -9.2680   23.0550  -32.0420 O   0  0  0  0  0  0  0  0  0  0  0  0
   -7.0750   23.2240  -31.1320 C   0  0  0  0  0  0  0  0  0  0  0  0
   -5.8470   22.6810  -31.5570 C   0  0  0  0  0  0  0  0  0  0  0  0
   -4.6530   23.3710  -31.3320 C   0  0  0  0  0  0  0  0  0  0  0  0
   -4.6690   24.6110  -30.6850 C   0  0  0  0  0  0  0  0  0  0  0  0
   -3.4830   25.3020  -30.4790 O   0  0  0  0  0  0  0  0  0  0  0  0
   -5.8810   25.1550  -30.2520 C   0  0  0  0  0  0  0  0  0  0  0  0
   -7.0780   24.4690  -30.4730 C   0  0  0  0  0  0  0  0  0  0  0  0
   -6.4630   18.1610  -31.6810 C   0  0  0  0  0  0  0  0  0  0  0  0
   -5.1880   17.7170  -32.0410 C   0  0  0  0  0  0  0  0  0  0  0  0
   -2.0700   20.1150  -32.5160 C   0  0  0  0  0  0  0  0  0  0  0  0
   -1.1040   21.0910  -33.2090 C   0  0  0  0  0  0  0  0  0  0  0  0
    0.7559   22.1530  -34.5635 H   0  0  0  0  0  0  0  0  0  0  0  0
    0.9161   21.0140  -35.9433 H   0  0  0  0  0  0  0  0  0  0  0  0
   -0.3905   22.2467  -35.9433 H   0  0  0  0  0  0  0  0  0  0  0  0
   -1.6540   20.5008  -35.1961 H   0  0  0  0  0  0  0  0  0  0  0  0
    0.9785   19.2517  -34.7169 H   0  0  0  0  0  0  0  0  0  0  0  0
   -0.5988   18.5530  -35.3114 H   0  0  0  0  0  0  0  0  0  0  0  0
    0.4094   18.8508  -32.4677 H   0  0  0  0  0  0  0  0  0  0  0  0
   -0.2077   17.3820  -33.3537 H   0  0  0  0  0  0  0  0  0  0  0  0
   -1.6780   18.2710  -31.6760 H   0  0  0  0  0  0  0  0  0  0  0  0
   -4.5334   19.9168  -34.5779 H   0  0  0  0  0  0  0  0  0  0  0  0
   -6.8123   20.7077  -33.9387 H   0  0  0  0  0  0  0  0  0  0  0  0
   -5.8277   21.7077  -32.0692 H   0  0  0  0  0  0  0  0  0  0  0  0
   -3.6981   22.9380  -31.6645 H   0  0  0  0  0  0  0  0  0  0  0  0
   -5.8928   26.1262  -29.7356 H   0  0  0  0  0  0  0  0  0  0  0  0
   -8.0285   24.9038  -30.1303 H   0  0  0  0  0  0  0  0  0  0  0  0
   -7.0026   17.6706  -30.8574 H   0  0  0  0  0  0  0  0  0  0  0  0
   -4.7279   16.8774  -31.4994 H   0  0  0  0  0  0  0  0  0  0  0  0
   -2.1101   20.3703  -31.4468 H   0  0  0  0  0  0  0  0  0  0  0  0
   -3.0431   20.2242  -33.0171 H   0  0  0  0  0  0  0  0  0  0  0  0
   -0.1914   21.1881  -32.6026 H   0  0  0  0  0  0  0  0  0  0  0  0
   -1.5992   22.0680  -33.3105 H   0  0  0  0  0  0  0  0  0  0  0  0
  1  2  1  0
  2  3  1  0
  3  4  1  0
  4  5  1  0
  5  6  1  0
  6  7  2  0
  6  8  2  0
  6  9  1  0
  9 10  2  0
 10 11  1  0
 11 12  2  0
 12 13  1  0
 13 14  2  0
 13 15  2  0
 13 16  1  0
 16 17  1  0
 17 18  2  0
 17 19  1  0
 19 20  2  0
 20 21  1  0
 21 22  2  0
 22 23  1  0
 22 24  1  0
 24 25  2  0
 12 26  1  0
 26 27  2  0
  5 28  1  0
 28 29  1  0
 29  2  1  0
 27  9  1  0
 25 19  1  0
  1 30  1  0
  1 31  1  0
  1 32  1  0
  2 33  1  6
  3 34  1  0
  3 35  1  0
  4 36  1  0
  4 37  1  0
  5 38  1  1
 10 39  1  0
 11 40  1  0
 20 41  1  0
 21 42  1  0
 24 43  1  0
 25 44  1  0
 26 45  1  0
 27 46  1  0
 28 47  1  0
 28 48  1  0
 29 49  1  0
 29 50  1  0
M  CHG  3   5   1  16  -1  23  -1
M  END
>  <UniqueID>  (7) 
6

>  <SMILES>  (7) 
CC1CC[NH+](S(=O)(=O)c2ccc(S(=O)(=O)[N-]C(=O)c3ccc([O-])cc3)cc2)CC1

>  <Energy>  (7) 
60.24495688460998

>  <Genealogy>  (7) 
CC1CC[NH+](S(=O)(=O)c2ccc(S(=O)(=O)[N-]C(=O)c3ccc([O-])cc3)cc2)CC1 (protonated)
CC1CC[NH+](S(=O)(=O)c2ccc(S(=O)(=O)[N-]C(=O)c3ccc([O-])cc3)cc2)CC1 (3D coordinates assigned)
CC1CC[NH+](S(=O)(=O)c2ccc(S(=O)(=O)[N-]C(=O)c3ccc([O-])cc3)cc2)CC1 (nonaromatic ring conformer: 60.24495688460998 kcal/mol)

>  <smiles>  (7) 
CC1CCN(S(=O)(=O)c2ccc(S(=O)(=O)NC(=O)c3ccc(O)cc3)cc2)CC1

>  <score_type>  (7) 
oracle

>  <origin>  (7) 
adgpu

>  <m_score__min__energy>  (7) 
-12.050000000000001

>  <m_primary>  (7) 
energy

$$$$
7:0
     RDKit          3D

 43 44  0  0  0  0  0  0  0  0999 V2000
   -6.8420   24.1590  -30.8220 C   0  0  0  0  0  0  0  0  0  0  0  0
   -5.9860   22.9590  -31.2060 C   0  0  0  0  0  0  0  0  0  0  0  0
   -6.5270   22.3060  -32.3520 O   0  0  0  0  0  0  0  0  0  0  0  0
   -7.1430   21.0530  -32.2930 C   0  0  0  0  0  0  0  0  0  0  0  0
   -8.3940   20.8100  -31.7710 C   0  0  0  0  0  0  0  0  0  0  0  0
   -9.3270   21.8330  -31.2140 C   0  0  0  0  0  0  0  0  0  0  0  0
   -8.6710   19.5300  -31.8640 O   0  0  0  0  0  0  0  0  0  0  0  0
   -7.6460   18.9150  -32.4130 C   0  0  0  0  0  0  0  0  0  0  0  0
   -7.6070   17.4400  -32.6440 C   0  0  0  0  0  0  0  0  0  0  0  0
   -6.6410   19.8300  -32.7020 C   0  0  0  0  0  0  0  0  0  0  0  0
   -5.0130   19.4770  -33.2980 S   0  0  0  0  0  0  0  0  0  0  0  0
   -5.1080   18.8740  -34.6700 O   0  0  0  0  0  0  0  0  0  0  0  0
   -4.3350   18.4880  -32.3890 O   0  0  0  0  0  0  0  0  0  0  0  0
   -4.0410   20.9180  -33.3620 N   0  0  0  0  0  0  0  0  0  0  0  0
   -2.7030   20.6390  -32.8350 C   0  0  0  0  0  0  0  0  0  0  0  0
   -2.5750   21.2160  -31.4520 C   0  0  0  0  0  0  0  0  0  0  0  0
   -2.2910   20.3780  -30.3640 C   0  0  0  0  0  0  0  0  0  0  0  0
   -2.2060   20.9060  -29.0750 C   0  0  0  0  0  0  0  0  0  0  0  0
   -2.4150   22.2700  -28.8590 C   0  0  0  0  0  0  0  0  0  0  0  0
   -2.7180   23.1240  -29.9350 C   0  0  0  0  0  0  0  0  0  0  0  0
   -2.9490   24.5700  -29.7030 C   0  0  0  0  0  0  0  0  0  0  0  0
   -3.8640   25.2990  -30.5190 N   0  0  0  0  0  0  0  0  0  0  0  0
   -2.3370   25.1730  -28.7800 O   0  0  0  0  0  0  0  0  0  0  0  0
   -2.8010   22.5840  -31.2310 C   0  0  0  0  0  0  0  0  0  0  0  0
   -6.8962   24.2350  -29.7260 H   0  0  0  0  0  0  0  0  0  0  0  0
   -6.3928   25.0759  -31.2314 H   0  0  0  0  0  0  0  0  0  0  0  0
   -7.8552   24.0327  -31.2314 H   0  0  0  0  0  0  0  0  0  0  0  0
   -4.9650   23.3002  -31.4321 H   0  0  0  0  0  0  0  0  0  0  0  0
   -5.9713   22.2491  -30.3659 H   0  0  0  0  0  0  0  0  0  0  0  0
   -9.2954   21.7983  -30.1150 H   0  0  0  0  0  0  0  0  0  0  0  0
   -9.0230   22.8326  -31.5582 H   0  0  0  0  0  0  0  0  0  0  0  0
  -10.3502   21.6221  -31.5582 H   0  0  0  0  0  0  0  0  0  0  0  0
   -7.5932   16.9175  -31.6761 H   0  0  0  0  0  0  0  0  0  0  0  0
   -8.4974   17.1343  -33.2130 H   0  0  0  0  0  0  0  0  0  0  0  0
   -6.7017   17.1818  -33.2130 H   0  0  0  0  0  0  0  0  0  0  0  0
   -4.4950   21.6320  -32.7490 H   0  0  0  0  0  0  0  0  0  0  0  0
   -2.5453   19.5511  -32.7938 H   0  0  0  0  0  0  0  0  0  0  0  0
   -1.9488   21.0958  -33.4926 H   0  0  0  0  0  0  0  0  0  0  0  0
   -2.1348   19.3014  -30.5271 H   0  0  0  0  0  0  0  0  0  0  0  0
   -1.9737   20.2458  -28.2264 H   0  0  0  0  0  0  0  0  0  0  0  0
   -2.3422   22.6792  -27.8406 H   0  0  0  0  0  0  0  0  0  0  0  0
   -3.5230   25.9830  -31.2300 H   0  0  0  0  0  0  0  0  0  0  0  0
   -3.0453   23.2398  -32.0797 H   0  0  0  0  0  0  0  0  0  0  0  0
  1  2  1  0
  2  3  1  0
  3  4  1  0
  4  5  2  0
  5  6  1  0
  5  7  1  0
  7  8  1  0
  8  9  1  0
  8 10  2  0
 10 11  1  0
 11 12  2  0
 11 13  2  0
 11 14  1  0
 14 15  1  0
 15 16  1  0
 16 17  2  0
 17 18  1  0
 18 19  2  0
 19 20  1  0
 20 21  1  0
 21 22  1  0
 21 23  2  0
 20 24  2  0
 10  4  1  0
 24 16  1  0
  1 25  1  0
  1 26  1  0
  1 27  1  0
  2 28  1  0
  2 29  1  0
  6 30  1  0
  6 31  1  0
  6 32  1  0
  9 33  1  0
  9 34  1  0
  9 35  1  0
 14 36  1  0
 15 37  1  0
 15 38  1  0
 17 39  1  0
 18 40  1  0
 19 41  1  0
 22 42  1  0
 24 43  1  0
M  CHG  1  22  -1
M  END
>  <UniqueID>  (8) 
7

>  <SMILES>  (8) 
CCOc1c(C)oc(C)c1S(=O)(=O)NCc1cccc(C([NH-])=O)c1

>  <Energy>  (8) 
68.11367791940145

>  <Genealogy>  (8) 
CCOc1c(C)oc(C)c1S(=O)(=O)NCc1cccc(C([NH-])=O)c1 (protonated)
CCOc1c(C)oc(C)c1S(=O)(=O)NCc1cccc(C([NH-])=O)c1 (3D coordinates assigned)
CCOc1c(C)oc(C)c1S(=O)(=O)NCc1cccc(C([NH-])=O)c1 (optimized conformer: 68.11367791940145 kcal/mol)

>  <smiles>  (8) 
CCOc1c(C)oc(C)c1S(=O)(=O)NCc1cccc(C(N)=O)c1

>  <score_type>  (8) 
oracle

>  <origin>  (8) 
adgpu

>  <m_score__min__energy>  (8) 
-9.7599999999999998

>  <m_primary>  (8) 
energy

$$$$
8:0
     RDKit          3D

 60 64  0  0  0  0  0  0  0  0999 V2000
   -0.7320   26.1220  -23.4760 C   0  0  0  0  0  0  0  0  0  0  0  0
   -0.7250   25.3390  -24.7500 C   0  0  0  0  0  0  0  0  0  0  0  0
   -0.8210   25.8610  -26.0240 C   0  0  0  0  0  0  0  0  0  0  0  0
   -0.7400   24.7540  -26.8510 C   0  0  0  0  0  0  0  0  0  0  0  0
   -0.7850   24.7760  -28.3250 C   0  0  0  0  0  0  0  0  0  0  0  0
    0.2610   24.5210  -28.9780 O   0  0  0  0  0  0  0  0  0  0  0  0
   -1.9810   25.1110  -29.0430 N   0  0  0  0  0  0  0  0  0  0  0  0
   -2.8810   24.1830  -29.6660 C   0  0  0  0  0  0  0  0  0  0  0  0
   -4.0690   24.6770  -30.2110 C   0  0  0  0  0  0  0  0  0  0  0  0
   -5.0450   23.8130  -30.7410 C   0  0  0  0  0  0  0  0  0  0  0  0
   -6.3090   24.4040  -31.2490 C   0  0  0  0  0  0  0  0  0  0  0  0
   -6.6890   24.1690  -32.4260 O   0  0  0  0  0  0  0  0  0  0  0  0
   -7.0770   25.2480  -30.4580 O   0  0  0  0  0  0  0  0  0  0  0  0
   -4.8020   22.4150  -30.7340 C   0  0  0  0  0  0  0  0  0  0  0  0
   -5.7380   21.4790  -31.2960 N   0  0  0  0  0  0  0  0  0  0  0  0
   -7.1630   21.5570  -31.0070 C   0  0  0  0  0  0  0  0  0  0  0  0
   -7.8230   20.5540  -31.9430 C   0  0  0  0  0  0  0  0  0  0  0  0
   -6.8500   20.4200  -33.1170 C   0  0  2  0  0  0  0  0  0  0  0  0
   -6.8760   19.0420  -33.7900 C   0  0  0  0  0  0  0  0  0  0  0  0
   -5.5050   18.1480  -33.1360 S   0  0  0  0  0  0  0  0  0  0  0  0
   -5.9580   17.0190  -32.2540 O   0  0  0  0  0  0  0  0  0  0  0  0
   -4.6100   17.6390  -34.2300 O   0  0  0  0  0  0  0  0  0  0  0  0
   -4.7180   19.4190  -32.1990 C   0  0  0  0  0  0  0  0  0  0  0  0
   -5.4670   20.7200  -32.5160 C   0  0  2  0  0  0  0  0  0  0  0  0
   -3.5790   21.9320  -30.2390 C   0  0  0  0  0  0  0  0  0  0  0  0
   -2.6080   22.7990  -29.7340 C   0  0  0  0  0  0  0  0  0  0  0  0
   -1.3970   22.2480  -29.2950 O   0  0  0  0  0  0  0  0  0  0  0  0
   -1.2710   21.0520  -28.5740 C   0  0  0  0  0  0  0  0  0  0  0  0
   -0.3520   20.0510  -28.9390 C   0  0  0  0  0  0  0  0  0  0  0  0
   -0.2560   18.8760  -28.1850 C   0  0  0  0  0  0  0  0  0  0  0  0
   -1.0800   18.6900  -27.0720 C   0  0  0  0  0  0  0  0  0  0  0  0
   -2.0050   19.6730  -26.7140 C   0  0  0  0  0  0  0  0  0  0  0  0
   -2.1040   20.8480  -27.4660 C   0  0  0  0  0  0  0  0  0  0  0  0
   -0.6090   23.6340  -26.1090 N   0  0  0  0  0  0  0  0  0  0  0  0
   -0.5950   24.0000  -24.8380 N   0  0  0  0  0  0  0  0  0  0  0  0
   -0.4510   23.0620  -23.7320 C   0  0  0  0  0  0  0  0  0  0  0  0
   -0.7258   25.4305  -22.6206 H   0  0  0  0  0  0  0  0  0  0  0  0
    0.1604   26.7638  -23.4351 H   0  0  0  0  0  0  0  0  0  0  0  0
   -1.6358   26.7477  -23.4351 H   0  0  0  0  0  0  0  0  0  0  0  0
   -0.9356   26.9155  -26.3155 H   0  0  0  0  0  0  0  0  0  0  0  0
   -4.2447   25.7628  -30.2260 H   0  0  0  0  0  0  0  0  0  0  0  0
   -7.3577   21.2897  -29.9579 H   0  0  0  0  0  0  0  0  0  0  0  0
   -7.5548   22.5739  -31.1565 H   0  0  0  0  0  0  0  0  0  0  0  0
   -7.9596   19.5854  -31.4398 H   0  0  0  0  0  0  0  0  0  0  0  0
   -8.8224   20.8810  -32.2658 H   0  0  0  0  0  0  0  0  0  0  0  0
   -7.1276   21.1123  -33.9255 H   0  0  0  0  0  0  0  0  0  0  0  0
   -7.8166   18.5216  -33.5567 H   0  0  0  0  0  0  0  0  0  0  0  0
   -6.8114   19.1297  -34.8846 H   0  0  0  0  0  0  0  0  0  0  0  0
   -4.7835   19.1948  -31.1241 H   0  0  0  0  0  0  0  0  0  0  0  0
   -3.6516   19.5008  -32.4560 H   0  0  0  0  0  0  0  0  0  0  0  0
   -4.8274   21.2816  -33.2128 H   0  0  0  0  0  0  0  0  0  0  0  0
   -3.3826   20.8497  -30.2495 H   0  0  0  0  0  0  0  0  0  0  0  0
    0.2925   20.1924  -29.8191 H   0  0  0  0  0  0  0  0  0  0  0  0
    0.4685   18.0984  -28.4687 H   0  0  0  0  0  0  0  0  0  0  0  0
   -1.0000   17.7682  -26.4771 H   0  0  0  0  0  0  0  0  0  0  0  0
   -2.6561   19.5231  -25.8401 H   0  0  0  0  0  0  0  0  0  0  0  0
   -2.8399   21.6162  -27.1861 H   0  0  0  0  0  0  0  0  0  0  0  0
   -0.5342   23.6040  -22.7784 H   0  0  0  0  0  0  0  0  0  0  0  0
   -1.2428   22.3007  -23.7914 H   0  0  0  0  0  0  0  0  0  0  0  0
    0.5327   22.5733  -23.7914 H   0  0  0  0  0  0  0  0  0  0  0  0
  1  2  1  0
  2  3  2  0
  3  4  1  0
  4  5  1  0
  5  6  2  0
  5  7  1  0
  7  8  1  0
  8  9  2  0
  9 10  1  0
 10 11  1  0
 11 12  2  0
 11 13  1  0
 10 14  2  0
 14 15  1  0
 15 16  1  0
 16 17  1  0
 17 18  1  0
 18 19  1  0
 19 20  1  0
 20 21  2  0
 20 22  2  0
 20 23  1  0
 23 24  1  0
 14 25  1  0
 25 26  2  0
 26 27  1  0
 27 28  1  0
 28 29  2  0
 29 30  1  0
 30 31  2  0
 31 32  1  0
 32 33  2  0
  4 34  2  0
 34 35  1  0
 35 36  1  0
 35  2  1  0
 26  8  1  0
 33 28  1  0
 24 15  1  0
 24 18  1  0
  1 37  1  0
  1 38  1  0
  1 39  1  0
  3 40  1  0
  9 41  1  0
 16 42  1  0
 16 43  1  0
 17 44  1  0
 17 45  1  0
 18 46  1  6
 19 47  1  0
 19 48  1  0
 23 49  1  0
 23 50  1  0
 24 51  1  6
 25 52  1  0
 29 53  1  0
 30 54  1  0
 31 55  1  0
 32 56  1  0
 33 57  1  0
 36 58  1  0
 36 59  1  0
 36 60  1  0
M  CHG  2   7  -1  13  -1
M  END
>  <UniqueID>  (9) 
8

>  <SMILES>  (9) 
Cc1cc(C(=O)[N-]c2cc(C(=O)[O-])c(N3CC[C@@H]4CS(=O)(=O)C[C@@H]43)cc2Oc2ccccc2)nn1C

>  <Energy>  (9) 
114.19771922504957

>  <Genealogy>  (9) 
Cc1cc(C(=O)[N-]c2cc(C(=O)[O-])c(N3CCC4CS(=O)(=O)CC43)cc2Oc2ccccc2)nn1C (protonated)
Cc1cc(C(=O)[N-]c2cc(C(=O)[O-])c(N3CC[C@@H]4CS(=O)(=O)C[C@@H]43)cc2Oc2ccccc2)nn1C (chirality)
Cc1cc(C(=O)[N-]c2cc(C(=O)[O-])c(N3CC[C@@H]4CS(=O)(=O)C[C@@H]43)cc2Oc2ccccc2)nn1C (3D coordinates assigned)
Cc1cc(C(=O)[N-]c2cc(C(=O)[O-])c(N3CC[C@@H]4CS(=O)(=O)C[C@@H]43)cc2Oc2ccccc2)nn1C (nonaromatic ring conformer: 114.19771922504957 kcal/mol)

>  <smiles>  (9) 
Cc1cc(C(=O)Nc2cc(C(=O)O)c(N3CCC4CS(=O)(=O)CC43)cc2Oc2ccccc2)nn1C

>  <score_type>  (9) 
oracle

>  <origin>  (9) 
adgpu

>  <m_score__min__energy>  (9) 
-12.199999999999999

>  <m_primary>  (9) 
energy

$$$$
9:0
     RDKit          3D

 34 36  0  0  0  0  0  0  0  0999 V2000
   -1.6550   18.0790  -26.3420 C   0  0  0  0  0  0  0  0  0  0  0  0
   -1.7680   19.1930  -27.3390 C   0  0  0  0  0  0  0  0  0  0  0  0
   -0.8260   19.3160  -28.3730 C   0  0  0  0  0  0  0  0  0  0  0  0
   -0.9090   20.3750  -29.2810 C   0  0  0  0  0  0  0  0  0  0  0  0
   -1.9240   21.3330  -29.1560 C   0  0  0  0  0  0  0  0  0  0  0  0
   -2.0410   22.6500  -30.3160 S   0  0  0  0  0  0  0  0  0  0  0  0
   -1.2320   22.3190  -31.5390 O   0  0  0  0  0  0  0  0  0  0  0  0
   -1.4710   23.9080  -29.7220 O   0  0  0  0  0  0  0  0  0  0  0  0
   -3.7450   22.8900  -30.7420 C   0  0  0  0  0  0  0  0  0  0  0  0
   -4.2930   24.1840  -30.7690 C   0  0  0  0  0  0  0  0  0  0  0  0
   -3.5070   25.2900  -30.4650 O   0  0  0  0  0  0  0  0  0  0  0  0
   -5.6030   24.3700  -31.0840 N   0  0  0  0  0  0  0  0  0  0  0  0
   -6.4300   23.3260  -31.3690 C   0  0  0  0  0  0  0  0  0  0  0  0
   -7.7770   23.5570  -31.6910 C   0  0  0  0  0  0  0  0  0  0  0  0
   -8.6280   22.4870  -31.9750 C   0  0  0  0  0  0  0  0  0  0  0  0
   -8.1430   21.1760  -31.9410 C   0  0  0  0  0  0  0  0  0  0  0  0
   -9.2180   19.8370  -32.2980 Cl  0  0  0  0  0  0  0  0  0  0  0  0
   -6.8040   20.9320  -31.6230 C   0  0  0  0  0  0  0  0  0  0  0  0
   -5.9350   22.0020  -31.3350 C   0  0  0  0  0  0  0  0  0  0  0  0
   -4.5820   21.7910  -31.0110 C   0  0  0  0  0  0  0  0  0  0  0  0
   -4.1220   20.6170  -30.9540 O   0  0  0  0  0  0  0  0  0  0  0  0
   -2.8600   21.2180  -28.1190 C   0  0  0  0  0  0  0  0  0  0  0  0
   -2.7770   20.1590  -27.2110 C   0  0  0  0  0  0  0  0  0  0  0  0
   -1.6970   18.4927  -25.3236 H   0  0  0  0  0  0  0  0  0  0  0  0
   -2.4861   17.3728  -26.4854 H   0  0  0  0  0  0  0  0  0  0  0  0
   -0.6990   17.5541  -26.4854 H   0  0  0  0  0  0  0  0  0  0  0  0
   -0.0187   18.5750  -28.4688 H   0  0  0  0  0  0  0  0  0  0  0  0
   -0.1753   20.4568  -30.0964 H   0  0  0  0  0  0  0  0  0  0  0  0
   -5.9760   25.3480  -31.1010 H   0  0  0  0  0  0  0  0  0  0  0  0
   -8.1639   24.5863  -31.7197 H   0  0  0  0  0  0  0  0  0  0  0  0
   -9.6822   22.6758  -32.2260 H   0  0  0  0  0  0  0  0  0  0  0  0
   -6.4271   19.8989  -31.5976 H   0  0  0  0  0  0  0  0  0  0  0  0
   -3.6625   21.9638  -28.0196 H   0  0  0  0  0  0  0  0  0  0  0  0
   -3.5068   20.0825  -26.3915 H   0  0  0  0  0  0  0  0  0  0  0  0
  1  2  1  0
  2  3  2  0
  3  4  1  0
  4  5  2  0
  5  6  1  0
  6  7  2  0
  6  8  2  0
  6  9  1  0
  9 10  2  0
 10 11  1  0
 10 12  1  0
 12 13  1  0
 13 14  2  0
 14 15  1  0
 15 16  2  0
 16 17  1  0
 16 18  1  0
 18 19  2  0
 19 20  1  0
 20 21  2  0
  5 22  1  0
 22 23  2  0
 23  2  1  0
 20  9  1  0
 19 13  1  0
  1 24  1  0
  1 25  1  0
  1 26  1  0
  3 27  1  0
  4 28  1  0
 12 29  1  0
 14 30  1  0
 15 31  1  0
 18 32  1  0
 22 33  1  0
 23 34  1  0
M  CHG  1  11  -1
M  END
>  <UniqueID>  (10) 
9

>  <SMILES>  (10) 
Cc1ccc(S(=O)(=O)c2c([O-])[nH]c3ccc(Cl)cc3c2=O)cc1

>  <Energy>  (10) 
44.848440173349324

>  <Genealogy>  (10) 
Cc1ccc(S(=O)(=O)c2c([O-])[nH]c3ccc(Cl)cc3c2=O)cc1 (protonated)
Cc1ccc(S(=O)(=O)c2c([O-])[nH]c3ccc(Cl)cc3c2=O)cc1 (3D coordinates assigned)
Cc1ccc(S(=O)(=O)c2c([O-])[nH]c3ccc(Cl)cc3c2=O)cc1 (optimized conformer: 44.848440173349324 kcal/mol)

>  <smiles>  (10) 
Cc1ccc(S(=O)(=O)c2c(O)[nH]c3ccc(Cl)cc3c2=O)cc1

>  <score_type>  (10) 
oracle

>  <origin>  (10) 
adgpu

>  <m_score__min__energy>  (10) 
-11.23

>  <m_primary>  (10) 
energy

$$$$
10:0
     RDKit          3D

 43 46  0  0  0  0  0  0  0  0999 V2000
   -7.9670   21.3620  -32.3820 O   0  0  0  0  0  0  0  0  0  0  0  0
   -6.7680   21.7160  -32.2170 C   0  0  0  0  0  0  0  0  0  0  0  0
   -5.7170   20.8870  -32.7380 N   0  0  0  0  0  0  0  0  0  0  0  0
   -6.0020   19.8060  -33.6740 C   0  0  0  0  0  0  0  0  0  0  0  0
   -6.9940   18.7830  -33.1470 C   0  0  0  0  0  0  0  0  0  0  0  0
   -5.5110   18.4540  -33.1880 C   0  0  0  0  0  0  0  0  0  0  0  0
   -6.4700   22.9690  -31.4750 C   0  0  0  0  0  0  0  0  0  0  0  0
   -7.4980   23.7280  -30.8850 C   0  0  0  0  0  0  0  0  0  0  0  0
   -7.2000   24.8980  -30.1800 C   0  0  0  0  0  0  0  0  0  0  0  0
   -5.8760   25.3220  -30.0460 C   0  0  0  0  0  0  0  0  0  0  0  0
   -4.8360   24.5810  -30.6130 C   0  0  0  0  0  0  0  0  0  0  0  0
   -3.4890   25.0420  -30.4320 N   0  0  0  0  0  0  0  0  0  0  0  0
   -2.3220   24.3400  -29.3640 S   0  0  0  0  0  0  0  0  0  0  0  0
   -1.1460   25.2660  -29.2420 O   0  0  0  0  0  0  0  0  0  0  0  0
   -2.9330   24.1630  -28.0040 O   0  0  0  0  0  0  0  0  0  0  0  0
   -1.7680   22.8000  -30.0150 C   0  0  0  0  0  0  0  0  0  0  0  0
   -0.7000   22.1090  -29.4200 C   0  0  0  0  0  0  0  0  0  0  0  0
   -0.2740   20.8830  -29.9440 C   0  0  0  0  0  0  0  0  0  0  0  0
   -0.9100   20.3480  -31.0680 C   0  0  0  0  0  0  0  0  0  0  0  0
   -1.9890   21.0250  -31.6500 C   0  0  0  0  0  0  0  0  0  0  0  0
   -2.4090   22.2530  -31.1350 C   0  0  0  0  0  0  0  0  0  0  0  0
   -2.6330   20.4530  -32.7530 O   0  0  0  0  0  0  0  0  0  0  0  0
   -2.4040   19.0900  -33.1210 C   0  0  0  0  0  0  0  0  0  0  0  0
   -0.9260   18.7270  -32.9220 C   0  0  0  0  0  0  0  0  0  0  0  0
   -0.4820   19.1380  -31.6260 O   0  0  0  0  0  0  0  0  0  0  0  0
   -5.1380   23.4030  -31.3270 C   0  0  0  0  0  0  0  0  0  0  0  0
   -4.7460   20.9730  -32.3590 H   0  0  0  0  0  0  0  0  0  0  0  0
   -5.9070   20.3890  -34.6019 H   0  0  0  0  0  0  0  0  0  0  0  0
   -7.4943   18.9485  -32.1814 H   0  0  0  0  0  0  0  0  0  0  0  0
   -7.9069   18.3108  -33.5389 H   0  0  0  0  0  0  0  0  0  0  0  0
   -4.9378   18.3810  -32.2520 H   0  0  0  0  0  0  0  0  0  0  0  0
   -4.9057   17.6445  -33.6219 H   0  0  0  0  0  0  0  0  0  0  0  0
   -8.5432   23.3984  -30.9792 H   0  0  0  0  0  0  0  0  0  0  0  0
   -8.0119   25.4872  -29.7288 H   0  0  0  0  0  0  0  0  0  0  0  0
   -5.6507   26.2446  -29.4909 H   0  0  0  0  0  0  0  0  0  0  0  0
   -0.1963   22.5329  -28.5387 H   0  0  0  0  0  0  0  0  0  0  0  0
    0.5594   20.3417  -29.4724 H   0  0  0  0  0  0  0  0  0  0  0  0
   -3.2433   22.7913  -31.6085 H   0  0  0  0  0  0  0  0  0  0  0  0
   -3.0264   18.4350  -32.4936 H   0  0  0  0  0  0  0  0  0  0  0  0
   -2.6664   18.9560  -34.1808 H   0  0  0  0  0  0  0  0  0  0  0  0
   -0.8040   17.6381  -33.0185 H   0  0  0  0  0  0  0  0  0  0  0  0
   -0.3257   19.2436  -33.6854 H   0  0  0  0  0  0  0  0  0  0  0  0
   -4.3228   22.8153  -31.7742 H   0  0  0  0  0  0  0  0  0  0  0  0
  1  2  2  0
  2  3  1  0
  3  4  1  0
  4  5  1  0
  5  6  1  0
  2  7  1  0
  7  8  2  0
  8  9  1  0
  9 10  2  0
 10 11  1  0
 11 12  1  0
 12 13  1  0
 13 14  2  0
 13 15  2  0
 13 16  1  0
 16 17  2  0
 17 18  1  0
 18 19  2  0
 19 20  1  0
 20 21  2  0
 20 22  1  0
 22 23  1  0
 23 24  1  0
 24 25  1  0
 11 26  2  0
  6  4  1  0
 26  7  1  0
 21 16  1  0
 25 19  1  0
  3 27  1  0
  4 28  1  0
  5 29  1  0
  5 30  1  0
  6 31  1  0
  6 32  1  0
  8 33  1  0
  9 34  1  0
 10 35  1  0
 17 36  1  0
 18 37  1  0
 21 38  1  0
 23 39  1  0
 23 40  1  0
 24 41  1  0
 24 42  1  0
 26 43  1  0
M  CHG  1  12  -1
M  END
>  <UniqueID>  (11) 
10

>  <SMILES>  (11) 
O=C(NC1CC1)c1cccc([N-]S(=O)(=O)c2ccc3c(c2)OCCO3)c1

>  <Energy>  (11) 
314.8833327594605

>  <Genealogy>  (11) 
O=C(NC1CC1)c1cccc([N-]S(=O)(=O)c2ccc3c(c2)OCCO3)c1 (protonated)
O=C(NC1CC1)c1cccc([N-]S(=O)(=O)c2ccc3c(c2)OCCO3)c1 (3D coordinates assigned)
O=C(NC1CC1)c1cccc([N-]S(=O)(=O)c2ccc3c(c2)OCCO3)c1 (nonaromatic ring conformer: 314.8833327594605 kcal/mol)

>  <smiles>  (11) 
O=C(NC1CC1)c1cccc(NS(=O)(=O)c2ccc3c(c2)OCCO3)c1

>  <score_type>  (11) 
oracle

>  <origin>  (11) 
adgpu

>  <m_score__min__energy>  (11) 
-9.7699999999999996

>  <m_primary>  (11) 
energy

$$$$
11:0
     RDKit          3D

 55 58  0  0  0  0  0  0  0  0999 V2000
    0.6600   23.8250  -28.6870 O   0  0  0  0  0  0  0  0  0  0  0  0
   -0.2370   23.1610  -28.1010 C   0  0  0  0  0  0  0  0  0  0  0  0
    0.1590   22.0420  -27.2950 N   0  0  0  0  0  0  0  0  0  0  0  0
   -0.5750   20.8230  -27.1310 C   0  0  0  0  0  0  0  0  0  0  0  0
   -1.5880   20.7920  -26.1630 C   0  0  0  0  0  0  0  0  0  0  0  0
   -2.3110   19.6210  -25.9290 C   0  0  0  0  0  0  0  0  0  0  0  0
   -2.0400   18.4730  -26.6730 C   0  0  0  0  0  0  0  0  0  0  0  0
   -1.0650   18.5020  -27.6720 C   0  0  0  0  0  0  0  0  0  0  0  0
   -0.3370   19.6750  -27.9290 C   0  0  0  0  0  0  0  0  0  0  0  0
    0.7660   19.6860  -29.3140 S   0  0  0  0  0  0  0  0  0  0  0  0
    2.1460   20.0480  -28.8450 O   0  0  0  0  0  0  0  0  0  0  0  0
    0.8160   18.3220  -29.9440 O   0  0  0  0  0  0  0  0  0  0  0  0
    0.2540   20.8240  -30.5170 N   0  0  0  0  0  0  0  0  0  0  0  0
   -1.1040   21.0530  -30.9160 C   0  0  0  0  0  0  0  0  0  0  0  0
   -1.3600   21.4290  -32.2390 C   0  0  0  0  0  0  0  0  0  0  0  0
   -2.6670   21.6780  -32.6660 C   0  0  0  0  0  0  0  0  0  0  0  0
   -3.7370   21.5460  -31.7710 C   0  0  0  0  0  0  0  0  0  0  0  0
   -5.3880   21.8590  -32.2990 S   0  0  0  0  0  0  0  0  0  0  0  0
   -5.7080   21.0060  -33.4960 O   0  0  0  0  0  0  0  0  0  0  0  0
   -5.4970   23.3080  -32.6830 O   0  0  0  0  0  0  0  0  0  0  0  0
   -6.5060   21.5040  -31.0010 N   0  0  0  0  0  0  0  0  0  0  0  0
   -7.3890   20.3910  -31.3700 C   0  0  0  0  0  0  0  0  0  0  0  0
   -8.6660   20.9720  -31.9580 C   0  0  0  0  0  0  0  0  0  0  0  0
   -8.6640   22.4390  -31.5740 C   0  0  0  0  0  0  0  0  0  0  0  0
   -7.3950   22.6460  -30.7590 C   0  0  0  0  0  0  0  0  0  0  0  0
   -3.4860   21.1740  -30.4450 C   0  0  0  0  0  0  0  0  0  0  0  0
   -2.1790   20.9240  -30.0180 C   0  0  0  0  0  0  0  0  0  0  0  0
   -1.6580   23.5450  -28.2890 C   0  0  0  0  0  0  0  0  0  0  0  0
   -2.5870   23.3080  -27.2610 C   0  0  0  0  0  0  0  0  0  0  0  0
   -3.9290   23.6640  -27.4230 C   0  0  0  0  0  0  0  0  0  0  0  0
   -4.3540   24.2740  -28.6040 C   0  0  0  0  0  0  0  0  0  0  0  0
   -3.4340   24.5430  -29.6250 C   0  0  0  0  0  0  0  0  0  0  0  0
   -3.8410   25.1680  -30.8010 O   0  0  0  0  0  0  0  0  0  0  0  0
   -2.0910   24.1870  -29.4640 C   0  0  0  0  0  0  0  0  0  0  0  0
   -1.8154   21.6983  -25.5826 H   0  0  0  0  0  0  0  0  0  0  0  0
   -3.0948   19.6038  -25.1574 H   0  0  0  0  0  0  0  0  0  0  0  0
   -2.5946   17.5444  -26.4727 H   0  0  0  0  0  0  0  0  0  0  0  0
   -0.8651   17.5966  -28.2639 H   0  0  0  0  0  0  0  0  0  0  0  0
   -0.5257   21.5294  -32.9488 H   0  0  0  0  0  0  0  0  0  0  0  0
   -2.8563   21.9783  -33.7071 H   0  0  0  0  0  0  0  0  0  0  0  0
   -6.8922   19.7531  -32.1159 H   0  0  0  0  0  0  0  0  0  0  0  0
   -7.6216   19.7810  -30.4847 H   0  0  0  0  0  0  0  0  0  0  0  0
   -8.6690   20.8620  -33.0525 H   0  0  0  0  0  0  0  0  0  0  0  0
   -9.5596   20.4543  -31.5792 H   0  0  0  0  0  0  0  0  0  0  0  0
   -8.6502   23.0716  -32.4738 H   0  0  0  0  0  0  0  0  0  0  0  0
   -9.5639   22.7120  -31.0033 H   0  0  0  0  0  0  0  0  0  0  0  0
   -6.8992   23.5770  -31.0711 H   0  0  0  0  0  0  0  0  0  0  0  0
   -7.6375   22.7198  -29.6886 H   0  0  0  0  0  0  0  0  0  0  0  0
   -4.3214   21.0780  -29.7358 H   0  0  0  0  0  0  0  0  0  0  0  0
   -1.9903   20.6254  -28.9763 H   0  0  0  0  0  0  0  0  0  0  0  0
   -2.2556   22.8392  -26.3227 H   0  0  0  0  0  0  0  0  0  0  0  0
   -4.6514   23.4630  -26.6181 H   0  0  0  0  0  0  0  0  0  0  0  0
   -5.4126   24.5438  -28.7331 H   0  0  0  0  0  0  0  0  0  0  0  0
   -4.2120   24.6370  -31.5820 H   0  0  0  0  0  0  0  0  0  0  0  0
   -1.3677   24.4106  -30.2620 H   0  0  0  0  0  0  0  0  0  0  0  0
  1  2  2  0
  2  3  1  0
  3  4  1  0
  4  5  2  0
  5  6  1  0
  6  7  2  0
  7  8  1  0
  8  9  2  0
  9 10  1  0
 10 11  2  0
 10 12  2  0
 10 13  1  0
 13 14  1  0
 14 15  2  0
 15 16  1  0
 16 17  2  0
 17 18  1  0
 18 19  2  0
 18 20  2  0
 18 21  1  0
 21 22  1  0
 22 23  1  0
 23 24  1  0
 24 25  1  0
 17 26  1  0
 26 27  2  0
  2 28  1  0
 28 29  2  0
 29 30  1  0
 30 31  2  0
 31 32  1  0
 32 33  1  0
 32 34  2  0
  9  4  1  0
 27 14  1  0
 34 28  1  0
 25 21  1  0
  5 35  1  0
  6 36  1  0
  7 37  1  0
  8 38  1  0
 15 39  1  0
 16 40  1  0
 22 41  1  0
 22 42  1  0
 23 43  1  0
 23 44  1  0
 24 45  1  0
 24 46  1  0
 25 47  1  0
 25 48  1  0
 26 49  1  0
 27 50  1  0
 29 51  1  0
 30 52  1  0
 31 53  1  0
 33 54  1  0
 34 55  1  0
M  CHG  2   3  -1  13  -1
M  END
>  <UniqueID>  (12) 
11

>  <SMILES>  (12) 
O=C([N-]c1ccccc1S(=O)(=O)[N-]c1ccc(S(=O)(=O)N2CCCC2)cc1)c1cccc(O)c1

>  <Energy>  (12) 
72.82996078489461

>  <Genealogy>  (12) 
O=C([N-]c1ccccc1S(=O)(=O)[N-]c1ccc(S(=O)(=O)N2CCCC2)cc1)c1cccc(O)c1 (protonated)
O=C([N-]c1ccccc1S(=O)(=O)[N-]c1ccc(S(=O)(=O)N2CCCC2)cc1)c1cccc(O)c1 (3D coordinates assigned)
O=C([N-]c1ccccc1S(=O)(=O)[N-]c1ccc(S(=O)(=O)N2CCCC2)cc1)c1cccc(O)c1 (nonaromatic ring conformer: 72.82996078489461 kcal/mol)

>  <smiles>  (12) 
O=C(Nc1ccccc1S(=O)(=O)Nc1ccc(S(=O)(=O)N2CCCC2)cc1)c1cccc(O)c1

>  <score_type>  (12) 
oracle

>  <origin>  (12) 
adgpu

>  <m_score__min__energy>  (12) 
-13.359999999999999

>  <m_primary>  (12) 
energy

$$$$
12:0
     RDKit          3D

 38 40  0  0  0  0  0  0  0  0999 V2000
   -2.9600   16.3280  -34.3600 C   0  0  0  0  0  0  0  0  0  0  0  0
   -4.2750   16.9610  -33.8910 C   0  0  0  0  0  0  0  0  0  0  0  0
   -5.3070   15.8810  -33.4980 C   0  0  0  0  0  0  0  0  0  0  0  0
   -6.7640   16.2550  -33.8420 C   0  0  0  0  0  0  0  0  0  0  0  0
   -7.0550   17.7000  -33.7540 N   0  0  0  0  0  0  0  0  0  0  0  0
   -7.4810   18.2200  -32.1380 S   0  0  0  0  0  0  0  0  0  0  0  0
   -6.8400   17.2980  -31.1370 O   0  0  0  0  0  0  0  0  0  0  0  0
   -8.9700   18.1200  -31.9630 O   0  0  0  0  0  0  0  0  0  0  0  0
   -6.9770   19.8770  -31.8040 C   0  0  0  0  0  0  0  0  0  0  0  0
   -7.9250   20.9060  -31.7510 C   0  0  0  0  0  0  0  0  0  0  0  0
   -7.5280   22.2180  -31.4780 C   0  0  0  0  0  0  0  0  0  0  0  0
   -6.1720   22.5270  -31.2650 C   0  0  0  0  0  0  0  0  0  0  0  0
   -5.7800   23.8850  -30.9780 N   0  0  0  0  0  0  0  0  0  0  0  0
   -6.5110   24.8850  -30.4480 C   0  0  0  0  0  0  0  0  0  0  0  0
   -5.7600   25.9970  -30.3530 N   0  0  0  0  0  0  0  0  0  0  0  0
   -4.5700   25.6580  -30.8300 N   0  0  0  0  0  0  0  0  0  0  0  0
   -4.5800   24.3900  -31.2080 N   0  0  0  0  0  0  0  0  0  0  0  0
   -5.2220   21.4920  -31.3420 C   0  0  0  0  0  0  0  0  0  0  0  0
   -5.6230   20.1800  -31.6150 C   0  0  0  0  0  0  0  0  0  0  0  0
   -6.0910   18.6060  -34.4250 C   0  0  0  0  0  0  0  0  0  0  0  0
   -4.8430   17.8940  -34.9640 C   0  0  0  0  0  0  0  0  0  0  0  0
   -2.3596   16.0390  -33.4848 H   0  0  0  0  0  0  0  0  0  0  0  0
   -3.1780   15.4361  -34.9659 H   0  0  0  0  0  0  0  0  0  0  0  0
   -2.3989   17.0547  -34.9659 H   0  0  0  0  0  0  0  0  0  0  0  0
   -4.0590   17.5603  -32.9943 H   0  0  0  0  0  0  0  0  0  0  0  0
   -5.0538   14.9507  -34.0276 H   0  0  0  0  0  0  0  0  0  0  0  0
   -5.2547   15.7717  -32.4047 H   0  0  0  0  0  0  0  0  0  0  0  0
   -6.9718   15.9233  -34.8700 H   0  0  0  0  0  0  0  0  0  0  0  0
   -7.4023   15.7581  -33.0965 H   0  0  0  0  0  0  0  0  0  0  0  0
   -8.9875   20.6807  -31.9251 H   0  0  0  0  0  0  0  0  0  0  0  0
   -8.2829   23.0166  -31.4292 H   0  0  0  0  0  0  0  0  0  0  0  0
   -7.5637   24.8043  -30.1394 H   0  0  0  0  0  0  0  0  0  0  0  0
   -4.1564   21.7162  -31.1864 H   0  0  0  0  0  0  0  0  0  0  0  0
   -4.8698   19.3811  -31.6816 H   0  0  0  0  0  0  0  0  0  0  0  0
   -6.6027   19.0941  -35.2676 H   0  0  0  0  0  0  0  0  0  0  0  0
   -5.7470   19.3253  -33.6672 H   0  0  0  0  0  0  0  0  0  0  0  0
   -5.1134   17.3060  -35.8534 H   0  0  0  0  0  0  0  0  0  0  0  0
   -4.0842   18.6438  -35.2324 H   0  0  0  0  0  0  0  0  0  0  0  0
  1  2  1  0
  2  3  1  0
  3  4  1  0
  4  5  1  0
  5  6  1  0
  6  7  2  0
  6  8  2  0
  6  9  1  0
  9 10  2  0
 10 11  1  0
 11 12  2  0
 12 13  1  0
 13 14  1  0
 14 15  2  0
 15 16  1  0
 16 17  2  0
 12 18  1  0
 18 19  2  0
  5 20  1  0
 20 21  1  0
 21  2  1  0
 19  9  1  0
 17 13  1  0
  1 22  1  0
  1 23  1  0
  1 24  1  0
  2 25  1  0
  3 26  1  0
  3 27  1  0
  4 28  1  0
  4 29  1  0
 10 30  1  0
 11 31  1  0
 14 32  1  0
 18 33  1  0
 19 34  1  0
 20 35  1  0
 20 36  1  0
 21 37  1  0
 21 38  1  0
M  END
>  <UniqueID>  (13) 
12

>  <SMILES>  (13) 
CC1CCN(S(=O)(=O)c2ccc(-n3cnnn3)cc2)CC1

>  <Energy>  (13) 
86.90565744229653

>  <Genealogy>  (13) 
CC1CCN(S(=O)(=O)c2ccc(-n3cnnn3)cc2)CC1 (3D coordinates assigned)
CC1CCN(S(=O)(=O)c2ccc(-n3cnnn3)cc2)CC1 (nonaromatic ring conformer: 86.90565744229653 kcal/mol)

>  <smiles>  (13) 
CC1CCN(S(=O)(=O)c2ccc(-n3cnnn3)cc2)CC1

>  <score_type>  (13) 
oracle

>  <origin>  (13) 
adgpu

>  <m_score__min__energy>  (13) 
-9.0999999999999996

>  <m_primary>  (13) 
energy

$$$$
13:0
     RDKit          3D

 43 46  0  0  0  0  0  0  0  0999 V2000
   -6.5240   19.1170  -33.8440 C   0  0  0  0  0  0  0  0  0  0  0  0
   -7.1240   19.9280  -32.7910 N   0  0  0  0  0  0  0  0  0  0  0  0
   -8.5250   20.0780  -32.5540 C   0  0  0  0  0  0  0  0  0  0  0  0
   -9.4100   19.3140  -33.0220 O   0  0  0  0  0  0  0  0  0  0  0  0
   -8.7700   21.2490  -31.7270 C   0  0  0  0  0  0  0  0  0  0  0  0
   -9.8830   21.6750  -31.3210 O   0  0  0  0  0  0  0  0  0  0  0  0
   -7.4640   21.8400  -31.4920 C   0  0  0  0  0  0  0  0  0  0  0  0
   -7.1080   22.9980  -30.8040 C   0  0  0  0  0  0  0  0  0  0  0  0
   -5.7480   23.3660  -30.7820 C   0  0  0  0  0  0  0  0  0  0  0  0
   -5.2310   24.8400  -29.9700 S   0  0  0  0  0  0  0  0  0  0  0  0
   -4.3250   25.6560  -30.8500 O   0  0  0  0  0  0  0  0  0  0  0  0
   -6.4470   25.6600  -29.6360 O   0  0  0  0  0  0  0  0  0  0  0  0
   -4.4030   24.4330  -28.5030 N   0  0  0  0  0  0  0  0  0  0  0  0
   -3.3440   23.4720  -28.3860 C   0  0  0  0  0  0  0  0  0  0  0  0
   -3.5710   22.1880  -27.8630 C   0  0  0  0  0  0  0  0  0  0  0  0
   -2.5210   21.2660  -27.7440 C   0  0  0  0  0  0  0  0  0  0  0  0
   -1.2180   21.6400  -28.1250 C   0  0  0  0  0  0  0  0  0  0  0  0
   -0.9980   22.9110  -28.6730 C   0  0  0  0  0  0  0  0  0  0  0  0
   -2.0460   23.8260  -28.8010 C   0  0  0  0  0  0  0  0  0  0  0  0
   -1.7740   25.0840  -29.3390 O   0  0  0  0  0  0  0  0  0  0  0  0
   -0.0760   20.6530  -28.0460 C   0  0  0  0  0  0  0  0  0  0  0  0
   -0.3400   19.5720  -27.0860 N   0  0  0  0  0  0  0  0  0  0  0  0
   -1.6350   18.9380  -27.3620 C   0  0  0  0  0  0  0  0  0  0  0  0
   -2.7890   19.9190  -27.1210 C   0  0  0  0  0  0  0  0  0  0  0  0
   -4.7890   22.5700  -31.4470 C   0  0  0  0  0  0  0  0  0  0  0  0
   -5.1740   21.4070  -32.1340 C   0  0  0  0  0  0  0  0  0  0  0  0
   -6.5250   21.0560  -32.1420 C   0  0  0  0  0  0  0  0  0  0  0  0
   -5.9277   18.3111  -33.3913 H   0  0  0  0  0  0  0  0  0  0  0  0
   -7.3179   18.6799  -34.4675 H   0  0  0  0  0  0  0  0  0  0  0  0
   -5.8738   19.7483  -34.4675 H   0  0  0  0  0  0  0  0  0  0  0  0
   -7.8672   23.6078  -30.2924 H   0  0  0  0  0  0  0  0  0  0  0  0
   -4.5840   21.9025  -27.5432 H   0  0  0  0  0  0  0  0  0  0  0  0
    0.0120   23.1916  -29.0064 H   0  0  0  0  0  0  0  0  0  0  0  0
   -2.4950   25.6710  -29.7400 H   0  0  0  0  0  0  0  0  0  0  0  0
    0.0802   20.2120  -29.0415 H   0  0  0  0  0  0  0  0  0  0  0  0
    0.8167   21.1971  -27.7038 H   0  0  0  0  0  0  0  0  0  0  0  0
   -0.3550   19.9730  -26.1180 H   0  0  0  0  0  0  0  0  0  0  0  0
   -1.6573   18.6069  -28.4107 H   0  0  0  0  0  0  0  0  0  0  0  0
   -1.7569   18.0799  -26.6846 H   0  0  0  0  0  0  0  0  0  0  0  0
   -3.7080   19.5014  -27.5582 H   0  0  0  0  0  0  0  0  0  0  0  0
   -2.8953   20.0605  -26.0353 H   0  0  0  0  0  0  0  0  0  0  0  0
   -3.7293   22.8642  -31.4266 H   0  0  0  0  0  0  0  0  0  0  0  0
   -4.4283   20.7873  -32.6536 H   0  0  0  0  0  0  0  0  0  0  0  0
  1  2  1  0
  2  3  1  0
  3  4  2  0
  3  5  1  0
  5  6  2  0
  5  7  1  0
  7  8  2  0
  8  9  1  0
  9 10  1  0
 10 11  2  0
 10 12  2  0
 10 13  1  0
 13 14  1  0
 14 15  2  0
 15 16  1  0
 16 17  2  0
 17 18  1  0
 18 19  2  0
 19 20  1  0
 17 21  1  0
 21 22  1  0
 22 23  1  0
 23 24  1  0
  9 25  2  0
 25 26  1  0
 26 27  2  0
 27  2  1  0
 27  7  1  0
 19 14  1  0
 24 16  1  0
  1 28  1  0
  1 29  1  0
  1 30  1  0
  8 31  1  0
 15 32  1  0
 18 33  1  0
 20 34  1  0
 21 35  1  0
 21 36  1  0
 22 37  1  0
 23 38  1  0
 23 39  1  0
 24 40  1  0
 24 41  1  0
 25 42  1  0
 26 43  1  0
M  CHG  1  13  -1
M  END
>  <UniqueID>  (14) 
13

>  <SMILES>  (14) 
CN1C(=O)C(=O)c2cc(S(=O)(=O)[N-]c3cc4c(cc3O)CNCC4)ccc21

>  <Energy>  (14) 
82.80974748701216

>  <Genealogy>  (14) 
CN1C(=O)C(=O)c2cc(S(=O)(=O)[N-]c3cc4c(cc3O)CNCC4)ccc21 (protonated)
CN1C(=O)C(=O)c2cc(S(=O)(=O)[N-]c3cc4c(cc3O)CNCC4)ccc21 (3D coordinates assigned)
CN1C(=O)C(=O)c2cc(S(=O)(=O)[N-]c3cc4c(cc3O)CNCC4)ccc21 (nonaromatic ring conformer: 82.80974748701216 kcal/mol)

>  <smiles>  (14) 
CN1C(=O)C(=O)c2cc(S(=O)(=O)Nc3cc4c(cc3O)CNCC4)ccc21

>  <score_type>  (14) 
oracle

>  <origin>  (14) 
adgpu

>  <m_score__min__energy>  (14) 
-12.630000000000001

>  <m_primary>  (14) 
energy

$$$$
14:0
     RDKit          3D

 63 67  0  0  0  0  0  0  0  0999 V2000
   -6.5640   16.8700  -33.8240 C   0  0  0  0  0  0  0  0  0  0  0  0
   -7.6000   17.6720  -33.2610 O   0  0  0  0  0  0  0  0  0  0  0  0
   -7.3920   18.9220  -32.6590 C   0  0  0  0  0  0  0  0  0  0  0  0
   -8.4340   19.6530  -32.0570 C   0  0  0  0  0  0  0  0  0  0  0  0
   -8.1820   20.8980  -31.4730 C   0  0  0  0  0  0  0  0  0  0  0  0
   -6.8850   21.4320  -31.4820 C   0  0  0  0  0  0  0  0  0  0  0  0
   -6.6230   22.6830  -30.9030 C   0  0  0  0  0  0  0  0  0  0  0  0
   -5.3260   23.2140  -30.9240 C   0  0  0  0  0  0  0  0  0  0  0  0
   -4.9840   24.7810  -30.1980 S   0  0  0  0  0  0  0  0  0  0  0  0
   -6.2640   25.5280  -29.9400 O   0  0  0  0  0  0  0  0  0  0  0  0
   -4.1370   25.5960  -31.1350 O   0  0  0  0  0  0  0  0  0  0  0  0
   -4.1650   24.5430  -28.6910 N   0  0  0  0  0  0  0  0  0  0  0  0
   -2.9640   23.7770  -28.6100 C   0  0  0  0  0  0  0  0  0  0  0  0
   -3.0260   22.4450  -28.1820 C   0  0  0  0  0  0  0  0  0  0  0  0
   -1.8640   21.6560  -28.1370 C   0  0  0  0  0  0  0  0  0  0  0  0
   -1.9410   20.2450  -27.7030 C   0  0  0  0  0  0  0  0  0  0  0  0
   -2.8790   19.8890  -26.9380 O   0  0  0  0  0  0  0  0  0  0  0  0
   -0.9760   19.2720  -28.1430 N   0  0  0  0  0  0  0  0  0  0  0  0
   -0.5270   19.2780  -29.5450 C   0  0  0  0  0  0  0  0  0  0  0  0
    0.0180   17.9070  -29.9620 C   0  0  0  0  0  0  0  0  0  0  0  0
    1.1280   17.4340  -29.0010 C   0  0  0  0  0  0  0  0  0  0  0  0
    1.4720   15.9750  -29.2820 C   0  0  0  0  0  0  0  0  0  0  0  0
    0.7310   15.2630  -30.2490 C   0  0  0  0  0  0  0  0  0  0  0  0
    1.0330   13.9310  -30.5430 C   0  0  0  0  0  0  0  0  0  0  0  0
    2.0870   13.2920  -29.8910 C   0  0  0  0  0  0  0  0  0  0  0  0
    2.8480   13.9850  -28.9500 C   0  0  0  0  0  0  0  0  0  0  0  0
    2.5560   15.3210  -28.6440 C   0  0  0  0  0  0  0  0  0  0  0  0
    3.5950   16.1290  -27.4710 Cl  0  0  0  0  0  0  0  0  0  0  0  0
    0.7910   17.6810  -27.5010 C   0  0  0  0  0  0  0  0  0  0  0  0
   -0.6570   18.1320  -27.2730 C   0  0  0  0  0  0  0  0  0  0  0  0
   -0.6300   22.2330  -28.4820 C   0  0  0  0  0  0  0  0  0  0  0  0
   -0.5630   23.5690  -28.8860 C   0  0  0  0  0  0  0  0  0  0  0  0
   -1.7250   24.3440  -28.9490 C   0  0  0  0  0  0  0  0  0  0  0  0
   -1.6400   25.6780  -29.3320 O   0  0  0  0  0  0  0  0  0  0  0  0
   -4.2870   22.4860  -31.5180 C   0  0  0  0  0  0  0  0  0  0  0  0
   -4.5350   21.2370  -32.0920 C   0  0  0  0  0  0  0  0  0  0  0  0
   -5.8320   20.7020  -32.0830 C   0  0  0  0  0  0  0  0  0  0  0  0
   -6.0960   19.4530  -32.6650 C   0  0  0  0  0  0  0  0  0  0  0  0
   -5.9738   16.4131  -33.0159 H   0  0  0  0  0  0  0  0  0  0  0  0
   -7.0093   16.0789  -34.4452 H   0  0  0  0  0  0  0  0  0  0  0  0
   -5.9097   17.4993  -34.4452 H   0  0  0  0  0  0  0  0  0  0  0  0
   -9.4540   19.2414  -32.0461 H   0  0  0  0  0  0  0  0  0  0  0  0
   -9.0033   21.4605  -31.0050 H   0  0  0  0  0  0  0  0  0  0  0  0
   -7.4390   23.2495  -30.4306 H   0  0  0  0  0  0  0  0  0  0  0  0
   -3.9912   22.0132  -27.8789 H   0  0  0  0  0  0  0  0  0  0  0  0
   -1.3776   19.5373  -30.1924 H   0  0  0  0  0  0  0  0  0  0  0  0
    0.2804   20.0180  -29.6475 H   0  0  0  0  0  0  0  0  0  0  0  0
   -0.8033   17.1753  -29.9500 H   0  0  0  0  0  0  0  0  0  0  0  0
    0.4445   17.9935  -30.9723 H   0  0  0  0  0  0  0  0  0  0  0  0
    2.0183   18.0497  -29.1966 H   0  0  0  0  0  0  0  0  0  0  0  0
   -0.0942   15.7626  -30.7776 H   0  0  0  0  0  0  0  0  0  0  0  0
    0.4382   13.3853  -31.2903 H   0  0  0  0  0  0  0  0  0  0  0  0
    2.3183   12.2410  -30.1189 H   0  0  0  0  0  0  0  0  0  0  0  0
    3.6837   13.4792  -28.4442 H   0  0  0  0  0  0  0  0  0  0  0  0
    0.9571   16.7454  -26.9468 H   0  0  0  0  0  0  0  0  0  0  0  0
    1.4452   18.4920  -27.1484 H   0  0  0  0  0  0  0  0  0  0  0  0
   -1.3375   17.2986  -27.5019 H   0  0  0  0  0  0  0  0  0  0  0  0
   -0.7769   18.4371  -26.2230 H   0  0  0  0  0  0  0  0  0  0  0  0
    0.2884   21.6295  -28.4338 H   0  0  0  0  0  0  0  0  0  0  0  0
    0.4070   24.0124  -29.1553 H   0  0  0  0  0  0  0  0  0  0  0  0
   -3.2684   22.9010  -31.5325 H   0  0  0  0  0  0  0  0  0  0  0  0
   -3.7114   20.6714  -32.5522 H   0  0  0  0  0  0  0  0  0  0  0  0
   -5.2770   18.8852  -33.1306 H   0  0  0  0  0  0  0  0  0  0  0  0
  1  2  1  0
  2  3  1  0
  3  4  2  0
  4  5  1  0
  5  6  2  0
  6  7  1  0
  7  8  2  0
  8  9  1  0
  9 10  2  0
  9 11  2  0
  9 12  1  0
 12 13  1  0
 13 14  2  0
 14 15  1  0
 15 16  1  0
 16 17  2  0
 16 18  1  0
 18 19  1  0
 19 20  1  0
 20 21  1  0
 21 22  1  0
 22 23  2  0
 23 24  1  0
 24 25  2  0
 25 26  1  0
 26 27  2  0
 27 28  1  0
 21 29  1  0
 29 30  1  0
 15 31  2  0
 31 32  1  0
 32 33  2  0
 33 34  1  0
  8 35  1  0
 35 36  2  0
 36 37  1  0
 37 38  2  0
 38  3  1  0
 37  6  1  0
 33 13  1  0
 30 18  1  0
 27 22  1  0
  1 39  1  0
  1 40  1  0
  1 41  1  0
  4 42  1  0
  5 43  1  0
  7 44  1  0
 14 45  1  0
 19 46  1  0
 19 47  1  0
 20 48  1  0
 20 49  1  0
 21 50  1  0
 23 51  1  0
 24 52  1  0
 25 53  1  0
 26 54  1  0
 29 55  1  0
 29 56  1  0
 30 57  1  0
 30 58  1  0
 31 59  1  0
 32 60  1  0
 35 61  1  0
 36 62  1  0
 38 63  1  0
M  CHG  2  12  -1  34  -1
M  END
>  <UniqueID>  (15) 
14

>  <SMILES>  (15) 
COc1ccc2cc(S(=O)(=O)[N-]c3cc(C(=O)N4CCC(c5ccccc5Cl)CC4)ccc3[O-])ccc2c1

>  <Energy>  (15) 
90.58449225223444

>  <Genealogy>  (15) 
COc1ccc2cc(S(=O)(=O)[N-]c3cc(C(=O)N4CCC(c5ccccc5Cl)CC4)ccc3[O-])ccc2c1 (protonated)
COc1ccc2cc(S(=O)(=O)[N-]c3cc(C(=O)N4CCC(c5ccccc5Cl)CC4)ccc3[O-])ccc2c1 (3D coordinates assigned)
COc1ccc2cc(S(=O)(=O)[N-]c3cc(C(=O)N4CCC(c5ccccc5Cl)CC4)ccc3[O-])ccc2c1 (nonaromatic ring conformer: 90.58449225223444 kcal/mol)

>  <smiles>  (15) 
COc1ccc2cc(S(=O)(=O)Nc3cc(C(=O)N4CCC(c5ccccc5Cl)CC4)ccc3O)ccc2c1

>  <score_type>  (15) 
oracle

>  <origin>  (15) 
adgpu

>  <m_score__min__energy>  (15) 
-14.710000000000001

>  <m_primary>  (15) 
energy

$$$$
15:0
     RDKit          3D

 55 58  0  0  0  0  0  0  0  0999 V2000
   -2.3740   22.9760  -28.1950 O   0  0  0  0  0  0  0  0  0  0  0  0
   -2.8890   22.4110  -29.1960 C   0  0  0  0  0  0  0  0  0  0  0  0
   -2.3330   21.1590  -29.6300 N   0  0  0  0  0  0  0  0  0  0  0  0
   -1.6470   20.9020  -30.8650 C   0  0  0  0  0  0  0  0  0  0  0  0
   -1.9270   21.7110  -31.9720 C   0  0  0  0  0  0  0  0  0  0  0  0
   -1.2660   21.5040  -33.1860 C   0  0  0  0  0  0  0  0  0  0  0  0
   -0.3080   20.4910  -33.3030 C   0  0  0  0  0  0  0  0  0  0  0  0
    0.5210   20.2510  -34.8390 S   0  0  0  0  0  0  0  0  0  0  0  0
    1.0630   18.8510  -34.9420 O   0  0  0  0  0  0  0  0  0  0  0  0
   -0.4510   20.4840  -35.9630 O   0  0  0  0  0  0  0  0  0  0  0  0
    1.8320   21.3810  -34.9710 N   0  0  0  0  0  0  0  0  0  0  0  0
    1.6870   22.6070  -35.3750 C   0  0  0  0  0  0  0  0  0  0  0  0
    2.7790   23.4110  -35.4670 N   0  0  0  0  0  0  0  0  0  0  0  0
    2.6690   24.6950  -35.9000 C   0  0  0  0  0  0  0  0  0  0  0  0
    1.4210   25.2030  -36.2580 C   0  0  0  0  0  0  0  0  0  0  0  0
    0.3090   24.3690  -36.1570 C   0  0  0  0  0  0  0  0  0  0  0  0
    0.4600   23.0920  -35.7200 N   0  0  0  0  0  0  0  0  0  0  0  0
   -0.0090   19.6860  -32.1920 C   0  0  0  0  0  0  0  0  0  0  0  0
   -0.6650   19.8980  -30.9750 C   0  0  0  0  0  0  0  0  0  0  0  0
   -3.9910   23.0860  -29.9290 C   0  0  0  0  0  0  0  0  0  0  0  0
   -5.0800   22.3380  -30.4130 C   0  0  0  0  0  0  0  0  0  0  0  0
   -6.1190   22.9590  -31.1200 C   0  0  0  0  0  0  0  0  0  0  0  0
   -7.4890   22.0090  -31.7050 S   0  0  0  0  0  0  0  0  0  0  0  0
   -8.1510   21.3280  -30.5380 O   0  0  0  0  0  0  0  0  0  0  0  0
   -8.4950   22.9320  -32.3360 O   0  0  0  0  0  0  0  0  0  0  0  0
   -6.9950   20.8200  -32.8890 N   0  0  0  0  0  0  0  0  0  0  0  0
   -5.5240   20.8310  -33.0930 C   0  0  0  0  0  0  0  0  0  0  0  0
   -4.8190   19.6440  -32.4240 C   0  0  0  0  0  0  0  0  0  0  0  0
   -5.3570   18.3100  -32.9680 C   0  0  0  0  0  0  0  0  0  0  0  0
   -6.8550   18.3730  -33.3260 C   0  0  0  0  0  0  0  0  0  0  0  0
   -7.5650   19.4940  -32.5600 C   0  0  0  0  0  0  0  0  0  0  0  0
   -6.0680   24.3380  -31.3510 C   0  0  0  0  0  0  0  0  0  0  0  0
   -4.9880   25.0900  -30.8840 C   0  0  0  0  0  0  0  0  0  0  0  0
   -3.9530   24.4750  -30.1760 C   0  0  0  0  0  0  0  0  0  0  0  0
   -2.9000   25.2550  -29.7100 O   0  0  0  0  0  0  0  0  0  0  0  0
   -2.6724   22.5153  -31.8861 H   0  0  0  0  0  0  0  0  0  0  0  0
   -1.4998   22.1398  -34.0526 H   0  0  0  0  0  0  0  0  0  0  0  0
    3.5632   25.3320  -35.9678 H   0  0  0  0  0  0  0  0  0  0  0  0
    1.3163   26.2391  -36.6123 H   0  0  0  0  0  0  0  0  0  0  0  0
   -0.6883   24.7440  -36.4305 H   0  0  0  0  0  0  0  0  0  0  0  0
    0.7424   18.8873  -32.2789 H   0  0  0  0  0  0  0  0  0  0  0  0
   -0.4134   19.2789  -30.1012 H   0  0  0  0  0  0  0  0  0  0  0  0
   -5.1165   21.2532  -30.2345 H   0  0  0  0  0  0  0  0  0  0  0  0
   -5.3193   20.7972  -34.1733 H   0  0  0  0  0  0  0  0  0  0  0  0
   -5.1338   21.7497  -32.6306 H   0  0  0  0  0  0  0  0  0  0  0  0
   -3.7394   19.7061  -32.6253 H   0  0  0  0  0  0  0  0  0  0  0  0
   -5.0105   19.6855  -31.3416 H   0  0  0  0  0  0  0  0  0  0  0  0
   -4.7901   18.0448  -33.8726 H   0  0  0  0  0  0  0  0  0  0  0  0
   -5.2366   17.5561  -32.1761 H   0  0  0  0  0  0  0  0  0  0  0  0
   -6.9577   18.5563  -34.4057 H   0  0  0  0  0  0  0  0  0  0  0  0
   -7.3186   17.4152  -33.0474 H   0  0  0  0  0  0  0  0  0  0  0  0
   -8.6325   19.4879  -32.8252 H   0  0  0  0  0  0  0  0  0  0  0  0
   -7.4285   19.3168  -31.4830 H   0  0  0  0  0  0  0  0  0  0  0  0
   -6.8817   24.8316  -31.9025 H   0  0  0  0  0  0  0  0  0  0  0  0
   -4.9522   26.1727  -31.0748 H   0  0  0  0  0  0  0  0  0  0  0  0
  1  2  2  0
  2  3  1  0
  3  4  1  0
  4  5  2  0
  5  6  1  0
  6  7  2  0
  7  8  1  0
  8  9  2  0
  8 10  2  0
  8 11  1  0
 11 12  2  3
 12 13  1  0
 13 14  2  0
 14 15  1  0
 15 16  2  0
 16 17  1  0
  7 18  1  0
 18 19  2  0
  2 20  1  0
 20 21  2  0
 21 22  1  0
 22 23  1  0
 23 24  2  0
 23 25  2  0
 23 26  1  0
 26 27  1  0
 27 28  1  0
 28 29  1  0
 29 30  1  0
 30 31  1  0
 22 32  2  0
 32 33  1  0
 33 34  2  0
 34 35  1  0
 19  4  1  0
 34 20  1  0
 17 12  1  0
 31 26  1  0
  5 36  1  0
  6 37  1  0
 14 38  1  0
 15 39  1  0
 16 40  1  0
 18 41  1  0
 19 42  1  0
 21 43  1  0
 27 44  1  0
 27 45  1  0
 28 46  1  0
 28 47  1  0
 29 48  1  0
 29 49  1  0
 30 50  1  0
 30 51  1  0
 31 52  1  0
 31 53  1  0
 32 54  1  0
 33 55  1  0
M  CHG  3   3  -1  17  -1  35  -1
M  END
>  <UniqueID>  (16) 
15

>  <SMILES>  (16) 
O=C([N-]c1ccc(S(=O)(=O)N=c2nccc[n-]2)cc1)c1cc(S(=O)(=O)N2CCCCC2)ccc1[O-]

>  <Energy>  (16) 
74.63562110947365

>  <Genealogy>  (16) 
O=C([N-]c1ccc(S(=O)(=O)N=c2nccc[n-]2)cc1)c1cc(S(=O)(=O)N2CCCCC2)ccc1[O-] (protonated)
O=C([N-]c1ccc(S(=O)(=O)N=c2nccc[n-]2)cc1)c1cc(S(=O)(=O)N2CCCCC2)ccc1[O-] (3D coordinates assigned)
O=C([N-]c1ccc(S(=O)(=O)N=c2nccc[n-]2)cc1)c1cc(S(=O)(=O)N2CCCCC2)ccc1[O-] (nonaromatic ring conformer: 74.63562110947365 kcal/mol)

>  <smiles>  (16) 
O=C(Nc1ccc(S(=O)(=O)N=c2nccc[nH]2)cc1)c1cc(S(=O)(=O)N2CCCCC2)ccc1O

>  <score_type>  (16) 
oracle

>  <origin>  (16) 
adgpu

>  <m_score__min__energy>  (16) 
-14.84

>  <m_primary>  (16) 
energy

$$$$
16:0
     RDKit          3D

 65 69  0  0  0  0  0  0  0  0999 V2000
    0.4290   20.1030  -28.3510 C   0  0  0  0  0  0  0  0  0  0  0  0
   -0.1090   20.6930  -27.1110 N   0  0  0  0  0  0  0  0  0  0  0  0
   -1.5290   20.3510  -26.8870 C   0  0  0  0  0  0  0  0  0  0  0  0
   -2.4560   20.9410  -27.9570 C   0  0  0  0  0  0  0  0  0  0  0  0
   -2.1330   22.3830  -28.2500 C   0  0  0  0  0  0  0  0  0  0  0  0
   -3.0500   23.1520  -28.9800 C   0  0  0  0  0  0  0  0  0  0  0  0
   -2.7210   24.4500  -29.3960 C   0  0  0  0  0  0  0  0  0  0  0  0
   -3.6040   25.2150  -30.2280 N   0  0  0  0  0  0  0  0  0  0  0  0
   -5.3120   24.9280  -30.4090 S   0  0  0  0  0  0  0  0  0  0  0  0
   -5.9050   26.0300  -31.2440 O   0  0  0  0  0  0  0  0  0  0  0  0
   -5.9600   24.9470  -29.0500 O   0  0  0  0  0  0  0  0  0  0  0  0
   -5.6470   23.3870  -31.2050 C   0  0  0  0  0  0  0  0  0  0  0  0
   -6.8050   22.6640  -30.8940 C   0  0  0  0  0  0  0  0  0  0  0  0
   -7.0020   21.3860  -31.4200 C   0  0  0  0  0  0  0  0  0  0  0  0
   -6.0440   20.8070  -32.2670 C   0  0  0  0  0  0  0  0  0  0  0  0
   -6.2330   19.4250  -32.7780 C   0  0  0  0  0  0  0  0  0  0  0  0
   -7.2540   18.6090  -32.2650 C   0  0  0  0  0  0  0  0  0  0  0  0
   -7.4280   17.3090  -32.7500 C   0  0  0  0  0  0  0  0  0  0  0  0
   -6.6000   16.8140  -33.7580 C   0  0  0  0  0  0  0  0  0  0  0  0
   -5.5710   17.6110  -34.2800 C   0  0  0  0  0  0  0  0  0  0  0  0
   -4.6840   17.0740  -35.3730 C   0  0  0  0  0  0  0  0  0  0  0  0
   -3.6770   16.1390  -34.8270 N   0  0  0  0  0  0  0  0  0  0  0  0
   -3.1770   16.5920  -33.5040 C   0  0  0  0  0  0  0  0  0  0  0  0
   -2.5730   15.4230  -32.7170 C   0  0  0  0  0  0  0  0  0  0  0  0
   -3.5830   14.4000  -32.4030 N   0  0  0  0  0  0  0  0  0  0  0  0
   -4.6590   14.3090  -33.4080 C   0  0  0  0  0  0  0  0  0  0  0  0
   -4.1820   14.7440  -34.8100 C   0  0  0  0  0  0  0  0  0  0  0  0
   -5.3980   18.9170  -33.7920 C   0  0  0  0  0  0  0  0  0  0  0  0
   -4.8980   21.5510  -32.6040 C   0  0  0  0  0  0  0  0  0  0  0  0
   -4.7000   22.8320  -32.0740 C   0  0  0  0  0  0  0  0  0  0  0  0
   -1.5130   25.0210  -28.9760 C   0  0  0  0  0  0  0  0  0  0  0  0
   -1.2010   26.3350  -29.3140 O   0  0  0  0  0  0  0  0  0  0  0  0
   -0.6050   24.2700  -28.2250 C   0  0  0  0  0  0  0  0  0  0  0  0
   -0.8840   22.9360  -27.8960 C   0  0  0  0  0  0  0  0  0  0  0  0
    0.1080   22.1550  -27.0570 C   0  0  0  0  0  0  0  0  0  0  0  0
    1.1503   19.3120  -28.0978 H   0  0  0  0  0  0  0  0  0  0  0  0
   -0.3947   19.6733  -28.9400 H   0  0  0  0  0  0  0  0  0  0  0  0
    0.9327   20.8836  -28.9400 H   0  0  0  0  0  0  0  0  0  0  0  0
   -1.6329   19.2560  -26.8964 H   0  0  0  0  0  0  0  0  0  0  0  0
   -1.8250   20.7795  -25.9181 H   0  0  0  0  0  0  0  0  0  0  0  0
   -2.3465   20.3572  -28.8829 H   0  0  0  0  0  0  0  0  0  0  0  0
   -3.4872   20.8940  -27.5768 H   0  0  0  0  0  0  0  0  0  0  0  0
   -4.0364   22.7334  -29.2287 H   0  0  0  0  0  0  0  0  0  0  0  0
   -7.5639   23.1056  -30.2314 H   0  0  0  0  0  0  0  0  0  0  0  0
   -7.9159   20.8278  -31.1685 H   0  0  0  0  0  0  0  0  0  0  0  0
   -7.9197   18.9939  -31.4784 H   0  0  0  0  0  0  0  0  0  0  0  0
   -8.2229   16.6725  -32.3341 H   0  0  0  0  0  0  0  0  0  0  0  0
   -6.7548   15.7958  -34.1443 H   0  0  0  0  0  0  0  0  0  0  0  0
   -5.3037   16.5442  -36.1114 H   0  0  0  0  0  0  0  0  0  0  0  0
   -4.1592   17.9179  -35.8447 H   0  0  0  0  0  0  0  0  0  0  0  0
   -2.4053   17.3613  -33.6549 H   0  0  0  0  0  0  0  0  0  0  0  0
   -4.0218   17.0019  -32.9309 H   0  0  0  0  0  0  0  0  0  0  0  0
   -1.7745   14.9633  -33.3179 H   0  0  0  0  0  0  0  0  0  0  0  0
   -2.1760   15.8158  -31.7693 H   0  0  0  0  0  0  0  0  0  0  0  0
   -4.0170   14.6410  -31.4840 H   0  0  0  0  0  0  0  0  0  0  0  0
   -5.0089   13.2674  -33.4597 H   0  0  0  0  0  0  0  0  0  0  0  0
   -5.4685   14.9871  -33.1000 H   0  0  0  0  0  0  0  0  0  0  0  0
   -3.3735   14.0715  -35.1327 H   0  0  0  0  0  0  0  0  0  0  0  0
   -5.0452   14.6910  -35.4898 H   0  0  0  0  0  0  0  0  0  0  0  0
   -4.6004   19.5507  -34.2071 H   0  0  0  0  0  0  0  0  0  0  0  0
   -4.1517   21.1228  -33.2893 H   0  0  0  0  0  0  0  0  0  0  0  0
   -3.7987   23.4033  -32.3410 H   0  0  0  0  0  0  0  0  0  0  0  0
    0.3365   24.7292  -27.8892 H   0  0  0  0  0  0  0  0  0  0  0  0
    1.1226   22.3718  -27.4226 H   0  0  0  0  0  0  0  0  0  0  0  0
   -0.0294   22.4681  -26.0115 H   0  0  0  0  0  0  0  0  0  0  0  0
  1  2  1  0
  2  3  1  0
  3  4  1  0
  4  5  1  0
  5  6  2  0
  6  7  1  0
  7  8  1  0
  8  9  1  0
  9 10  2  0
  9 11  2  0
  9 12  1  0
 12 13  2  0
 13 14  1  0
 14 15  2  0
 15 16  1  0
 16 17  2  0
 17 18  1  0
 18 19  2  0
 19 20  1  0
 20 21  1  0
 21 22  1  0
 22 23  1  0
 23 24  1  0
 24 25  1  0
 25 26  1  0
 26 27  1  0
 20 28  2  0
 15 29  1  0
 29 30  2  0
  7 31  2  0
 31 32  1  0
 31 33  1  0
 33 34  2  0
 34 35  1  0
 35  2  1  0
 34  5  1  0
 30 12  1  0
 28 16  1  0
 27 22  1  0
  1 36  1  0
  1 37  1  0
  1 38  1  0
  3 39  1  0
  3 40  1  0
  4 41  1  0
  4 42  1  0
  6 43  1  0
 13 44  1  0
 14 45  1  0
 17 46  1  0
 18 47  1  0
 19 48  1  0
 21 49  1  0
 21 50  1  0
 23 51  1  0
 23 52  1  0
 24 53  1  0
 24 54  1  0
 25 55  1  0
 26 56  1  0
 26 57  1  0
 27 58  1  0
 27 59  1  0
 28 60  1  0
 29 61  1  0
 30 62  1  0
 33 63  1  0
 35 64  1  0
 35 65  1  0
M  CHG  2   8  -1  32  -1
M  END
>  <UniqueID>  (17) 
16

>  <SMILES>  (17) 
CN1CCc2cc([N-]S(=O)(=O)c3ccc(-c4cccc(CN5CCNCC5)c4)cc3)c([O-])cc2C1

>  <Energy>  (17) 
94.54621494995033

>  <Genealogy>  (17) 
CN1CCc2cc([N-]S(=O)(=O)c3ccc(-c4cccc(CN5CCNCC5)c4)cc3)c([O-])cc2C1 (protonated)
CN1CCc2cc([N-]S(=O)(=O)c3ccc(-c4cccc(CN5CCNCC5)c4)cc3)c([O-])cc2C1 (3D coordinates assigned)
CN1CCc2cc([N-]S(=O)(=O)c3ccc(-c4cccc(CN5CCNCC5)c4)cc3)c([O-])cc2C1 (nonaromatic ring conformer: 94.54621494995033 kcal/mol)

>  <smiles>  (17) 
CN1CCc2cc(NS(=O)(=O)c3ccc(-c4cccc(CN5CCNCC5)c4)cc3)c(O)cc2C1

>  <score_type>  (17) 
oracle

>  <origin>  (17) 
adgpu

>  <m_score__min__energy>  (17) 
-15.460000000000001

>  <m_primary>  (17) 
energy

$$$$
17:0
     RDKit          3D

 39 41  0  0  0  0  0  0  0  0999 V2000
   -1.2130   25.0150  -27.0790 C   0  0  0  0  0  0  0  0  0  0  0  0
   -2.2470   24.7900  -28.1300 C   0  0  0  0  0  0  0  0  0  0  0  0
   -3.3740   24.0050  -28.0070 C   0  0  0  0  0  0  0  0  0  0  0  0
   -3.9640   24.1240  -29.2440 C   0  0  0  0  0  0  0  0  0  0  0  0
   -5.0620   23.5220  -29.5980 N   0  0  0  0  0  0  0  0  0  0  0  0
   -5.7170   23.6590  -30.8680 C   0  0  0  0  0  0  0  0  0  0  0  0
   -5.3350   24.5740  -31.6450 O   0  0  0  0  0  0  0  0  0  0  0  0
   -6.7820   22.7290  -31.3150 C   0  0  0  0  0  0  0  0  0  0  0  0
   -8.0990   23.1930  -31.4800 C   0  0  0  0  0  0  0  0  0  0  0  0
   -9.1050   22.3240  -31.9090 C   0  0  0  0  0  0  0  0  0  0  0  0
   -8.8050   20.9890  -32.1910 C   0  0  0  0  0  0  0  0  0  0  0  0
   -7.4930   20.5180  -32.0590 C   0  0  0  0  0  0  0  0  0  0  0  0
   -7.1120   18.8270  -32.4140 S   0  0  0  0  0  0  0  0  0  0  0  0
   -8.3890   18.0900  -32.7060 O   0  0  0  0  0  0  0  0  0  0  0  0
   -6.4830   18.2030  -31.1990 O   0  0  0  0  0  0  0  0  0  0  0  0
   -6.0290   18.6460  -33.7720 N   0  0  0  0  0  0  0  0  0  0  0  0
   -6.0580   17.2930  -34.3230 C   0  0  0  0  0  0  0  0  0  0  0  0
   -4.7190   17.0810  -35.0110 C   0  0  0  0  0  0  0  0  0  0  0  0
   -3.7860   18.1180  -34.4020 C   0  0  0  0  0  0  0  0  0  0  0  0
   -4.6360   18.8870  -33.4010 C   0  0  0  0  0  0  0  0  0  0  0  0
   -6.4860   21.3900  -31.6210 C   0  0  0  0  0  0  0  0  0  0  0  0
   -3.2260   24.9140  -30.0490 N   0  0  0  0  0  0  0  0  0  0  0  0
   -2.2020   25.2950  -29.3430 O   0  0  0  0  0  0  0  0  0  0  0  0
   -1.6729   24.9149  -26.0848 H   0  0  0  0  0  0  0  0  0  0  0  0
   -0.4108   24.2704  -27.1885 H   0  0  0  0  0  0  0  0  0  0  0  0
   -0.7927   26.0256  -27.1885 H   0  0  0  0  0  0  0  0  0  0  0  0
   -3.7163   23.4271  -27.1359 H   0  0  0  0  0  0  0  0  0  0  0  0
   -8.3384   24.2459  -31.2701 H   0  0  0  0  0  0  0  0  0  0  0  0
  -10.1353   22.6915  -32.0250 H   0  0  0  0  0  0  0  0  0  0  0  0
   -9.6024   20.3054  -32.5179 H   0  0  0  0  0  0  0  0  0  0  0  0
   -6.1923   16.5567  -33.5169 H   0  0  0  0  0  0  0  0  0  0  0  0
   -6.8929   17.1673  -35.0280 H   0  0  0  0  0  0  0  0  0  0  0  0
   -4.3437   16.0650  -34.8189 H   0  0  0  0  0  0  0  0  0  0  0  0
   -4.7970   17.1903  -36.1028 H   0  0  0  0  0  0  0  0  0  0  0  0
   -2.9432   17.6265  -33.8940 H   0  0  0  0  0  0  0  0  0  0  0  0
   -3.3549   18.7804  -35.1671 H   0  0  0  0  0  0  0  0  0  0  0  0
   -4.4454   18.5226  -32.3808 H   0  0  0  0  0  0  0  0  0  0  0  0
   -4.3987   19.9610  -33.4180 H   0  0  0  0  0  0  0  0  0  0  0  0
   -5.4546   21.0223  -31.5160 H   0  0  0  0  0  0  0  0  0  0  0  0
  1  2  1  0
  2  3  2  0
  3  4  1  0
  4  5  2  3
  5  6  1  0
  6  7  2  0
  6  8  1  0
  8  9  2  0
  9 10  1  0
 10 11  2  0
 11 12  1  0
 12 13  1  0
 13 14  2  0
 13 15  2  0
 13 16  1  0
 16 17  1  0
 17 18  1  0
 18 19  1  0
 19 20  1  0
 12 21  2  0
  4 22  1  0
 22 23  1  0
 23  2  1  0
 21  8  1  0
 20 16  1  0
  1 24  1  0
  1 25  1  0
  1 26  1  0
  3 27  1  0
  9 28  1  0
 10 29  1  0
 11 30  1  0
 17 31  1  0
 17 32  1  0
 18 33  1  0
 18 34  1  0
 19 35  1  0
 19 36  1  0
 20 37  1  0
 20 38  1  0
 21 39  1  0
M  CHG  1  22  -1
M  END
>  <UniqueID>  (18) 
17

>  <SMILES>  (18) 
Cc1cc(=NC(=O)c2cccc(S(=O)(=O)N3CCCC3)c2)[n-]o1

>  <Energy>  (18) 
77.96147749482056

>  <Genealogy>  (18) 
Cc1cc(=NC(=O)c2cccc(S(=O)(=O)N3CCCC3)c2)[n-]o1 (protonated)
Cc1cc(=NC(=O)c2cccc(S(=O)(=O)N3CCCC3)c2)[n-]o1 (3D coordinates assigned)
Cc1cc(=NC(=O)c2cccc(S(=O)(=O)N3CCCC3)c2)[n-]o1 (nonaromatic ring conformer: 77.96147749482056 kcal/mol)

>  <smiles>  (18) 
Cc1cc(=NC(=O)c2cccc(S(=O)(=O)N3CCCC3)c2)[nH]o1

>  <score_type>  (18) 
oracle

>  <origin>  (18) 
adgpu

>  <m_score__min__energy>  (18) 
-11.35

>  <m_primary>  (18) 
energy

$$$$
18:0
     RDKit          3D

 54 57  0  0  0  0  0  0  0  0999 V2000
   -7.1390   18.2130  -33.4090 O   0  0  0  0  0  0  0  0  0  0  0  0
   -6.2100   18.9530  -32.9920 C   0  0  0  0  0  0  0  0  0  0  0  0
   -6.4640   20.3330  -32.5220 C   0  0  0  0  0  0  0  0  0  0  0  0
   -5.3490   21.1280  -32.2110 C   0  0  0  0  0  0  0  0  0  0  0  0
   -5.5010   22.4270  -31.6930 C   0  0  0  0  0  0  0  0  0  0  0  0
   -4.3830   23.2340  -31.3690 C   0  0  0  0  0  0  0  0  0  0  0  0
   -3.0450   22.7980  -31.6470 N   0  0  0  0  0  0  0  0  0  0  0  0
   -2.2830   22.0580  -30.6440 C   0  0  0  0  0  0  0  0  0  0  0  0
   -2.0860   22.9140  -29.4240 C   0  0  0  0  0  0  0  0  0  0  0  0
   -3.0210   22.8840  -28.3800 C   0  0  0  0  0  0  0  0  0  0  0  0
   -2.8760   23.7340  -27.2790 C   0  0  0  0  0  0  0  0  0  0  0  0
   -1.8030   24.6310  -27.2160 C   0  0  0  0  0  0  0  0  0  0  0  0
   -1.6350   25.7160  -25.8340 S   0  0  0  0  0  0  0  0  0  0  0  0
   -2.9900   25.9770  -25.2380 O   0  0  0  0  0  0  0  0  0  0  0  0
   -0.7880   25.0500  -24.7850 O   0  0  0  0  0  0  0  0  0  0  0  0
   -0.8980   27.2320  -26.2910 N   0  0  0  0  0  0  0  0  0  0  0  0
    0.5350   27.0350  -26.5850 C   0  0  0  0  0  0  0  0  0  0  0  0
    1.2930   28.3740  -26.7400 C   0  0  0  0  0  0  0  0  0  0  0  0
    0.3310   29.5560  -26.8990 C   0  0  0  0  0  0  0  0  0  0  0  0
   -0.6570   29.6270  -25.7230 C   0  0  0  0  0  0  0  0  0  0  0  0
   -1.0820   28.2330  -25.2260 C   0  0  0  0  0  0  0  0  0  0  0  0
   -0.8720   24.6700  -28.2640 C   0  0  0  0  0  0  0  0  0  0  0  0
   -1.0140   23.8180  -29.3630 C   0  0  0  0  0  0  0  0  0  0  0  0
   -4.5820   24.4960  -30.7860 C   0  0  0  0  0  0  0  0  0  0  0  0
   -3.4940   25.2950  -30.4540 O   0  0  0  0  0  0  0  0  0  0  0  0
   -5.8770   24.9660  -30.5470 C   0  0  0  0  0  0  0  0  0  0  0  0
   -6.9830   24.1900  -30.8900 C   0  0  0  0  0  0  0  0  0  0  0  0
   -6.8060   22.9210  -31.4600 C   0  0  0  0  0  0  0  0  0  0  0  0
   -7.9200   22.1410  -31.7970 C   0  0  0  0  0  0  0  0  0  0  0  0
   -7.7640   20.8670  -32.3500 C   0  0  0  0  0  0  0  0  0  0  0  0
   -8.9180   20.1860  -32.7430 O   0  0  0  0  0  0  0  0  0  0  0  0
   -5.1815   18.5633  -32.9766 H   0  0  0  0  0  0  0  0  0  0  0  0
   -4.3378   20.7275  -32.3755 H   0  0  0  0  0  0  0  0  0  0  0  0
   -2.7800   22.6490  -32.6470 H   0  0  0  0  0  0  0  0  0  0  0  0
   -2.8327   21.1466  -30.3663 H   0  0  0  0  0  0  0  0  0  0  0  0
   -1.3019   21.7854  -31.0600 H   0  0  0  0  0  0  0  0  0  0  0  0
   -3.8723   22.1890  -28.4270 H   0  0  0  0  0  0  0  0  0  0  0  0
   -3.6082   23.6976  -26.4589 H   0  0  0  0  0  0  0  0  0  0  0  0
    0.9897   26.4646  -25.7616 H   0  0  0  0  0  0  0  0  0  0  0  0
    0.6108   26.4935  -27.5395 H   0  0  0  0  0  0  0  0  0  0  0  0
    1.9137   28.5375  -25.8467 H   0  0  0  0  0  0  0  0  0  0  0  0
    1.9136   28.3133  -27.6462 H   0  0  0  0  0  0  0  0  0  0  0  0
    0.9118   30.4894  -26.9372 H   0  0  0  0  0  0  0  0  0  0  0  0
   -0.2411   29.4186  -27.8284 H   0  0  0  0  0  0  0  0  0  0  0  0
   -0.1789   30.1671  -24.8925 H   0  0  0  0  0  0  0  0  0  0  0  0
   -1.5603   30.1462  -26.0758 H   0  0  0  0  0  0  0  0  0  0  0  0
   -0.4679   27.9550  -24.3568 H   0  0  0  0  0  0  0  0  0  0  0  0
   -2.1445   28.2628  -24.9430 H   0  0  0  0  0  0  0  0  0  0  0  0
   -0.0273   25.3733  -28.2211 H   0  0  0  0  0  0  0  0  0  0  0  0
   -0.2825   23.8561  -30.1836 H   0  0  0  0  0  0  0  0  0  0  0  0
   -6.0238   25.9537  -30.0857 H   0  0  0  0  0  0  0  0  0  0  0  0
   -7.9983   24.5744  -30.7129 H   0  0  0  0  0  0  0  0  0  0  0  0
   -8.9316   22.5369  -31.6239 H   0  0  0  0  0  0  0  0  0  0  0  0
   -8.9260   19.4500  -33.4360 H   0  0  0  0  0  0  0  0  0  0  0  0
  1  2  2  0
  2  3  1  0
  3  4  2  0
  4  5  1  0
  5  6  2  0
  6  7  1  0
  7  8  1  0
  8  9  1  0
  9 10  2  0
 10 11  1  0
 11 12  2  0
 12 13  1  0
 13 14  2  0
 13 15  2  0
 13 16  1  0
 16 17  1  0
 17 18  1  0
 18 19  1  0
 19 20  1  0
 20 21  1  0
 12 22  1  0
 22 23  2  0
  6 24  1  0
 24 25  1  0
 24 26  2  0
 26 27  1  0
 27 28  2  0
 28 29  1  0
 29 30  2  0
 30 31  1  0
 30  3  1  0
 28  5  1  0
 23  9  1  0
 21 16  1  0
  2 32  1  0
  4 33  1  0
  7 34  1  0
  8 35  1  0
  8 36  1  0
 10 37  1  0
 11 38  1  0
 17 39  1  0
 17 40  1  0
 18 41  1  0
 18 42  1  0
 19 43  1  0
 19 44  1  0
 20 45  1  0
 20 46  1  0
 21 47  1  0
 21 48  1  0
 22 49  1  0
 23 50  1  0
 26 51  1  0
 27 52  1  0
 29 53  1  0
 31 54  1  0
M  CHG  1  25  -1
M  END
>  <UniqueID>  (19) 
18

>  <SMILES>  (19) 
O=Cc1cc2c(NCc3ccc(S(=O)(=O)N4CCCCC4)cc3)c([O-])ccc2cc1O

>  <Energy>  (19) 
72.25927148056192

>  <Genealogy>  (19) 
O=Cc1cc2c(NCc3ccc(S(=O)(=O)N4CCCCC4)cc3)c([O-])ccc2cc1O (protonated)
O=Cc1cc2c(NCc3ccc(S(=O)(=O)N4CCCCC4)cc3)c([O-])ccc2cc1O (3D coordinates assigned)
O=Cc1cc2c(NCc3ccc(S(=O)(=O)N4CCCCC4)cc3)c([O-])ccc2cc1O (nonaromatic ring conformer: 72.25927148056192 kcal/mol)

>  <smiles>  (19) 
O=Cc1cc2c(NCc3ccc(S(=O)(=O)N4CCCCC4)cc3)c(O)ccc2cc1O

>  <score_type>  (19) 
oracle

>  <origin>  (19) 
adgpu

>  <m_score__min__energy>  (19) 
-12.140000000000001

>  <m_primary>  (19) 
energy

$$$$
19:0
     RDKit          3D

 44 45  0  0  0  0  0  0  0  0999 V2000
   -7.6910   18.8240  -32.5170 C   0  0  0  0  0  0  0  0  0  0  0  0
   -8.3020   20.1820  -32.3360 C   0  0  0  0  0  0  0  0  0  0  0  0
   -9.5100   20.3410  -32.6600 O   0  0  0  0  0  0  0  0  0  0  0  0
   -7.5260   21.3270  -31.7900 C   0  0  0  0  0  0  0  0  0  0  0  0
   -6.3290   21.7580  -32.3970 C   0  0  0  0  0  0  0  0  0  0  0  0
   -5.6130   22.8360  -31.8700 C   0  0  0  0  0  0  0  0  0  0  0  0
   -6.0750   23.5020  -30.7290 C   0  0  0  0  0  0  0  0  0  0  0  0
   -5.1710   24.8510  -30.0400 S   0  0  0  0  0  0  0  0  0  0  0  0
   -3.9200   25.0990  -30.8370 O   0  0  0  0  0  0  0  0  0  0  0  0
   -6.0280   26.0840  -30.1140 O   0  0  0  0  0  0  0  0  0  0  0  0
   -4.7550   24.5550  -28.3750 N   0  0  0  0  0  0  0  0  0  0  0  0
   -4.2270   23.2010  -28.1430 C   0  0  0  0  0  0  0  0  0  0  0  0
   -2.7160   23.1510  -27.8330 C   0  0  0  0  0  0  0  0  0  0  0  0
   -1.9130   24.2580  -28.5400 C   0  0  0  0  0  0  0  0  0  0  0  0
   -1.9450   25.5190  -27.7680 N   0  0  0  0  0  0  0  0  0  0  0  0
   -2.3870   25.2920  -26.3690 C   0  0  0  0  0  0  0  0  0  0  0  0
   -1.8450   26.3810  -25.4280 C   0  0  0  0  0  0  0  0  0  0  0  0
   -0.4250   26.4320  -25.3770 O   0  0  0  0  0  0  0  0  0  0  0  0
    0.2050   26.0010  -26.5770 C   0  0  0  0  0  0  0  0  0  0  0  0
   -0.6460   26.2310  -27.8400 C   0  0  0  0  0  0  0  0  0  0  0  0
   -7.2630   23.0820  -30.1190 C   0  0  0  0  0  0  0  0  0  0  0  0
   -7.9820   22.0050  -30.6430 C   0  0  0  0  0  0  0  0  0  0  0  0
   -7.4903   18.3779  -31.5317 H   0  0  0  0  0  0  0  0  0  0  0  0
   -8.3864   18.1806  -33.0760 H   0  0  0  0  0  0  0  0  0  0  0  0
   -6.7483   18.9176  -33.0760 H   0  0  0  0  0  0  0  0  0  0  0  0
   -5.9553   21.2412  -33.2933 H   0  0  0  0  0  0  0  0  0  0  0  0
   -4.6812   23.1630  -32.3545 H   0  0  0  0  0  0  0  0  0  0  0  0
   -4.0640   25.2740  -28.0660 H   0  0  0  0  0  0  0  0  0  0  0  0
   -4.7677   22.7620  -27.2916 H   0  0  0  0  0  0  0  0  0  0  0  0
   -4.3744   22.6417  -29.0787 H   0  0  0  0  0  0  0  0  0  0  0  0
   -2.5785   23.2591  -26.7470 H   0  0  0  0  0  0  0  0  0  0  0  0
   -2.3387   22.1867  -28.2043 H   0  0  0  0  0  0  0  0  0  0  0  0
   -0.8686   23.9301  -28.6482 H   0  0  0  0  0  0  0  0  0  0  0  0
   -2.3663   24.4416  -29.5253 H   0  0  0  0  0  0  0  0  0  0  0  0
   -3.4864   25.3032  -26.3343 H   0  0  0  0  0  0  0  0  0  0  0  0
   -1.9969   24.3192  -26.0352 H   0  0  0  0  0  0  0  0  0  0  0  0
   -2.2161   27.3568  -25.7747 H   0  0  0  0  0  0  0  0  0  0  0  0
   -2.1963   26.1367  -24.4146 H   0  0  0  0  0  0  0  0  0  0  0  0
    1.1504   26.5519  -26.6901 H   0  0  0  0  0  0  0  0  0  0  0  0
    0.3599   24.9157  -26.4869 H   0  0  0  0  0  0  0  0  0  0  0  0
   -0.8367   27.3088  -27.9491 H   0  0  0  0  0  0  0  0  0  0  0  0
   -0.0888   25.8379  -28.7031 H   0  0  0  0  0  0  0  0  0  0  0  0
   -7.6320   23.6025  -29.2229 H   0  0  0  0  0  0  0  0  0  0  0  0
   -8.9137   21.6833  -30.1548 H   0  0  0  0  0  0  0  0  0  0  0  0
  1  2  1  0
  2  3  2  0
  2  4  1  0
  4  5  2  0
  5  6  1  0
  6  7  2  0
  7  8  1  0
  8  9  2  0
  8 10  2  0
  8 11  1  0
 11 12  1  0
 12 13  1  0
 13 14  1  0
 14 15  1  0
 15 16  1  0
 16 17  1  0
 17 18  1  0
 18 19  1  0
 19 20  1  0
  7 21  1  0
 21 22  2  0
 22  4  1  0
 20 15  1  0
  1 23  1  0
  1 24  1  0
  1 25  1  0
  5 26  1  0
  6 27  1  0
 11 28  1  0
 12 29  1  0
 12 30  1  0
 13 31  1  0
 13 32  1  0
 14 33  1  0
 14 34  1  0
 16 35  1  0
 16 36  1  0
 17 37  1  0
 17 38  1  0
 19 39  1  0
 19 40  1  0
 20 41  1  0
 20 42  1  0
 21 43  1  0
 22 44  1  0
M  END
>  <UniqueID>  (20) 
19

>  <SMILES>  (20) 
CC(=O)c1ccc(S(=O)(=O)NCCCN2CCOCC2)cc1

>  <Energy>  (20) 
55.25160009300353

>  <Genealogy>  (20) 
CC(=O)c1ccc(S(=O)(=O)NCCCN2CCOCC2)cc1 (3D coordinates assigned)
CC(=O)c1ccc(S(=O)(=O)NCCCN2CCOCC2)cc1 (nonaromatic ring conformer: 55.25160009300353 kcal/mol)

>  <smiles>  (20) 
CC(=O)c1ccc(S(=O)(=O)NCCCN2CCOCC2)cc1

>  <score_type>  (20) 
oracle

>  <origin>  (20) 
adgpu

>  <m_score__min__energy>  (20) 
-8.6500000000000004

>  <m_primary>  (20) 
energy

$$$$
20:0
     RDKit          3D

 49 52  0  0  0  0  0  0  0  0999 V2000
    0.9460   24.1270  -25.1780 H   0  0  0  0  0  0  0  0  0  0  0  0
    0.3540   23.3500  -25.4330 O   0  0  0  0  0  0  0  0  0  0  0  0
   -0.5860   23.3950  -26.4660 C   0  0  0  0  0  0  0  0  0  0  0  0
   -1.1880   22.1930  -26.8450 C   0  0  0  0  0  0  0  0  0  0  0  0
   -0.9513   21.2691  -26.2969 H   0  0  0  0  0  0  0  0  0  0  0  0
   -2.0860   22.1520  -27.9110 C   0  0  0  0  0  0  0  0  0  0  0  0
   -2.5347   21.1942  -28.2130 H   0  0  0  0  0  0  0  0  0  0  0  0
   -2.4170   23.3200  -28.5950 C   0  0  0  0  0  0  0  0  0  0  0  0
   -3.2530   23.2310  -29.7560 N   0  0  0  0  0  0  0  0  0  0  0  0
   -2.9580   22.6050  -30.8570 C   0  0  0  0  0  0  0  0  0  0  0  0
   -1.7120   22.0840  -31.0470 N   0  0  0  0  0  0  0  0  0  0  0  0
   -1.3650   21.4470  -32.1950 C   0  0  0  0  0  0  0  0  0  0  0  0
   -0.3508   21.0371  -32.3109 H   0  0  0  0  0  0  0  0  0  0  0  0
   -2.2930   21.3120  -33.2270 C   0  0  0  0  0  0  0  0  0  0  0  0
   -2.0131   20.8055  -34.1625 H   0  0  0  0  0  0  0  0  0  0  0  0
   -3.5790   21.8250  -33.0620 C   0  0  0  0  0  0  0  0  0  0  0  0
   -4.3200   21.7193  -33.8681 H   0  0  0  0  0  0  0  0  0  0  0  0
   -3.9290   22.4750  -31.8710 C   0  0  0  0  0  0  0  0  0  0  0  0
   -5.5910   23.0240  -31.6150 S   0  0  0  0  0  0  0  0  0  0  0  0
   -6.0270   23.9370  -32.7270 O   0  0  0  0  0  0  0  0  0  0  0  0
   -5.6660   23.7700  -30.3120 O   0  0  0  0  0  0  0  0  0  0  0  0
   -6.6530   21.6170  -31.5930 C   0  0  0  0  0  0  0  0  0  0  0  0
   -8.0380   21.7990  -31.4820 C   0  0  0  0  0  0  0  0  0  0  0  0
   -8.4459   22.8066  -31.3137 H   0  0  0  0  0  0  0  0  0  0  0  0
   -8.9030   20.7070  -31.5840 C   0  0  0  0  0  0  0  0  0  0  0  0
   -9.9896   20.8597  -31.5072 H   0  0  0  0  0  0  0  0  0  0  0  0
   -8.3910   19.4160  -31.7840 C   0  0  0  0  0  0  0  0  0  0  0  0
   -9.3240   18.2540  -31.9600 C   0  0  0  0  0  0  0  0  0  0  0  0
   -9.6281   17.8752  -30.9731 H   0  0  0  0  0  0  0  0  0  0  0  0
  -10.2142   18.5798  -32.5180 H   0  0  0  0  0  0  0  0  0  0  0  0
   -8.8136   17.4552  -32.5180 H   0  0  0  0  0  0  0  0  0  0  0  0
   -7.0050   19.2340  -31.8990 C   0  0  0  0  0  0  0  0  0  0  0  0
   -6.5972   18.2267  -32.0693 H   0  0  0  0  0  0  0  0  0  0  0  0
   -6.1390   20.3280  -31.7980 C   0  0  0  0  0  0  0  0  0  0  0  0
   -5.0525   20.1771  -31.8795 H   0  0  0  0  0  0  0  0  0  0  0  0
   -1.8140   24.5390  -28.2330 C   0  0  0  0  0  0  0  0  0  0  0  0
   -2.0790   25.6740  -28.9910 O   0  0  0  0  0  0  0  0  0  0  0  0
   -0.9170   24.5950  -27.1440 C   0  0  0  0  0  0  0  0  0  0  0  0
   -0.1570   26.1370  -26.6890 S   0  0  0  0  0  0  0  0  0  0  0  0
   -0.2180   27.0750  -27.8620 O   0  0  0  0  0  0  0  0  0  0  0  0
    1.2940   25.9410  -26.3480 O   0  0  0  0  0  0  0  0  0  0  0  0
   -0.9940   26.8930  -25.2920 C   0  0  0  0  0  0  0  0  0  0  0  0
   -1.8446   27.2788  -25.8730 H   0  0  0  0  0  0  0  0  0  0  0  0
   -0.8530   26.1750  -23.9560 C   0  0  0  0  0  0  0  0  0  0  0  0
   -1.6832   26.1882  -23.2344 H   0  0  0  0  0  0  0  0  0  0  0  0
   -0.6005   25.1499  -23.6472 H   0  0  0  0  0  0  0  0  0  0  0  0
   -0.0590   27.4420  -24.2230 C   0  0  0  0  0  0  0  0  0  0  0  0
   -0.3143   28.3723  -23.6945 H   0  0  0  0  0  0  0  0  0  0  0  0
    1.0064   27.7136  -24.1873 H   0  0  0  0  0  0  0  0  0  0  0  0
  1  2  1  0
  2  3  1  0
  3  4  2  0
  4  5  1  0
  4  6  1  0
  6  7  1  0
  6  8  2  0
  8  9  1  0
  9 10  2  0
 10 11  1  0
 11 12  1  0
 12 13  1  0
 12 14  2  0
 14 15  1  0
 14 16  1  0
 16 17  1  0
 16 18  2  0
 18 19  1  0
 19 20  2  0
 19 21  2  0
 19 22  1  0
 22 23  2  0
 23 24  1  0
 23 25  1  0
 25 26  1  0
 25 27  2  0
 27 28  1  0
 28 29  1  0
 28 30  1  0
 28 31  1  0
 27 32  1  0
 32 33  1  0
 32 34  2  0
 34 35  1  0
  8 36  1  0
 36 37  1  0
 36 38  2  0
 38 39  1  0
 39 40  2  0
 39 41  2  0
 39 42  1  0
 42 43  1  0
 42 44  1  0
 44 45  1  0
 44 46  1  0
 44 47  1  0
 47 48  1  0
 47 49  1  0
 38  3  1  0
 47 42  1  0
 18 10  1  0
 34 22  1  0
M  CHG  2  11  -1  37  -1
M  END
>  <UniqueID>  (21) 
20

>  <SMILES>  (21) 
Cc1ccc(S(=O)(=O)c2ccc[n-]/c2=N\c2ccc(O)c(S(=O)(=O)C3CC3)c2[O-])cc1

>  <Energy>  (21) 
329.05219954790573

>  <Genealogy>  (21) 
Cc1ccc(S(=O)(=O)c2ccc[n-]c2=Nc2ccc(O)c(S(=O)(=O)C3CC3)c2[O-])cc1 (protonated)
Cc1ccc(S(=O)(=O)c2ccc[n-]/c2=N\c2ccc(O)c(S(=O)(=O)C3CC3)c2[O-])cc1 (cis-trans isomerization)
Cc1ccc(S(=O)(=O)c2ccc[n-]/c2=N\c2ccc(O)c(S(=O)(=O)C3CC3)c2[O-])cc1 (3D coordinates assigned)
Cc1ccc(S(=O)(=O)c2ccc[n-]/c2=N\c2ccc(O)c(S(=O)(=O)C3CC3)c2[O-])cc1 (nonaromatic ring conformer: 329.05219954790573 kcal/mol)

>  <smiles>  (21) 
Cc1ccc(S(=O)(=O)c2ccc[nH]c2=Nc2ccc(O)c(S(=O)(=O)C3CC3)c2O)cc1

>  <score_type>  (21) 
oracle

>  <origin>  (21) 
adgpu

>  <m_score__min__energy>  (21) 
-13.09

>  <m_primary>  (21) 
energy

$$$$
21:0
     RDKit          3D

 44 47  0  0  0  0  0  0  0  0999 V2000
   -2.0290   21.1610  -33.5940 C   0  0  0  0  0  0  0  0  0  0  0  0
   -3.3120   20.4040  -33.5140 C   0  0  0  0  0  0  0  0  0  0  0  0
   -3.3450   19.0840  -33.8390 N   0  0  0  0  0  0  0  0  0  0  0  0
   -4.4970   18.3710  -33.7480 C   0  0  0  0  0  0  0  0  0  0  0  0
   -5.6650   18.9900  -33.3040 C   0  0  0  0  0  0  0  0  0  0  0  0
   -5.6120   20.3420  -32.9390 C   0  0  0  0  0  0  0  0  0  0  0  0
   -6.8160   21.0630  -32.4810 C   0  0  0  0  0  0  0  0  0  0  0  0
   -8.0690   20.4360  -32.3840 C   0  0  0  0  0  0  0  0  0  0  0  0
   -9.0760   21.2580  -31.8950 C   0  0  0  0  0  0  0  0  0  0  0  0
   -8.4250   22.7780  -31.5980 S   0  0  0  0  0  0  0  0  0  0  0  0
   -6.8550   22.4020  -32.0790 C   0  0  0  0  0  0  0  0  0  0  0  0
   -5.7790   23.3440  -32.1780 N   0  0  0  0  0  0  0  0  0  0  0  0
   -5.1160   24.1270  -30.7820 S   0  0  0  0  0  0  0  0  0  0  0  0
   -4.2650   25.2860  -31.2180 O   0  0  0  0  0  0  0  0  0  0  0  0
   -6.2410   24.6360  -29.9260 O   0  0  0  0  0  0  0  0  0  0  0  0
   -4.1160   22.9900  -29.8840 C   0  0  0  0  0  0  0  0  0  0  0  0
   -4.3410   22.7710  -28.5220 C   0  0  0  0  0  0  0  0  0  0  0  0
   -3.5590   21.8550  -27.8130 C   0  0  0  0  0  0  0  0  0  0  0  0
   -2.5250   21.1330  -28.4550 C   0  0  0  0  0  0  0  0  0  0  0  0
   -2.3040   21.3710  -29.8380 C   0  0  0  0  0  0  0  0  0  0  0  0
   -1.2940   20.6760  -30.5010 C   0  0  0  0  0  0  0  0  0  0  0  0
   -0.5150   19.7610  -29.8080 C   0  0  0  0  0  0  0  0  0  0  0  0
   -0.7430   19.5370  -28.4500 C   0  0  0  0  0  0  0  0  0  0  0  0
   -0.0140   18.6980  -27.8540 O   0  0  0  0  0  0  0  0  0  0  0  0
   -1.7380   20.2160  -27.7800 N   0  0  0  0  0  0  0  0  0  0  0  0
   -1.9580   19.9580  -26.3430 C   0  0  0  0  0  0  0  0  0  0  0  0
   -3.0940   22.2960  -30.5360 C   0  0  0  0  0  0  0  0  0  0  0  0
   -4.4380   21.0180  -33.0640 N   0  0  0  0  0  0  0  0  0  0  0  0
   -1.6658   21.3753  -32.5781 H   0  0  0  0  0  0  0  0  0  0  0  0
   -1.2812   20.5594  -34.1315 H   0  0  0  0  0  0  0  0  0  0  0  0
   -2.1940   22.1065  -34.1315 H   0  0  0  0  0  0  0  0  0  0  0  0
   -4.5089   17.3063  -34.0242 H   0  0  0  0  0  0  0  0  0  0  0  0
   -6.6088   18.4285  -33.2415 H   0  0  0  0  0  0  0  0  0  0  0  0
   -8.2378   19.3873  -32.6699 H   0  0  0  0  0  0  0  0  0  0  0  0
  -10.1229   20.9636  -31.7300 H   0  0  0  0  0  0  0  0  0  0  0  0
   -5.3650   23.5710  -33.1080 H   0  0  0  0  0  0  0  0  0  0  0  0
   -5.1391   23.3235  -28.0045 H   0  0  0  0  0  0  0  0  0  0  0  0
   -3.7498   21.6931  -26.7418 H   0  0  0  0  0  0  0  0  0  0  0  0
   -1.1149   20.8527  -31.5718 H   0  0  0  0  0  0  0  0  0  0  0  0
    0.2828   19.2118  -30.3294 H   0  0  0  0  0  0  0  0  0  0  0  0
   -1.3577   20.6620  -25.7480 H   0  0  0  0  0  0  0  0  0  0  0  0
   -3.0235   20.0927  -26.1052 H   0  0  0  0  0  0  0  0  0  0  0  0
   -1.6567   18.9271  -26.1052 H   0  0  0  0  0  0  0  0  0  0  0  0
   -2.9074   22.4764  -31.6050 H   0  0  0  0  0  0  0  0  0  0  0  0
  1  2  1  0
  2  3  2  0
  3  4  1  0
  4  5  2  0
  5  6  1  0
  6  7  1  0
  7  8  1  0
  8  9  2  0
  9 10  1  0
 10 11  1  0
 11 12  1  0
 12 13  1  0
 13 14  2  0
 13 15  2  0
 13 16  1  0
 16 17  2  0
 17 18  1  0
 18 19  2  0
 19 20  1  0
 20 21  1  0
 21 22  2  0
 22 23  1  0
 23 24  2  0
 23 25  1  0
 25 26  1  0
 20 27  2  0
  6 28  2  0
 28  2  1  0
 11  7  2  0
 27 16  1  0
 25 19  1  0
  1 29  1  0
  1 30  1  0
  1 31  1  0
  4 32  1  0
  5 33  1  0
  8 34  1  0
  9 35  1  0
 12 36  1  0
 17 37  1  0
 18 38  1  0
 21 39  1  0
 22 40  1  0
 26 41  1  0
 26 42  1  0
 26 43  1  0
 27 44  1  0
M  END
>  <UniqueID>  (22) 
21

>  <SMILES>  (22) 
Cc1nccc(-c2ccsc2NS(=O)(=O)c2ccc3c(ccc(=O)n3C)c2)n1

>  <Energy>  (22) 
89.5232676211593

>  <Genealogy>  (22) 
Cc1nccc(-c2ccsc2NS(=O)(=O)c2ccc3c(ccc(=O)n3C)c2)n1 (3D coordinates assigned)
Cc1nccc(-c2ccsc2NS(=O)(=O)c2ccc3c(ccc(=O)n3C)c2)n1 (optimized conformer: 89.5232676211593 kcal/mol)

>  <smiles>  (22) 
Cc1nccc(-c2ccsc2NS(=O)(=O)c2ccc3c(ccc(=O)n3C)c2)n1

>  <score_type>  (22) 
oracle

>  <origin>  (22) 
adgpu

>  <m_score__min__energy>  (22) 
-10.210000000000001

>  <m_primary>  (22) 
energy

$$$$
22:0
     RDKit          3D

 42 44  0  0  0  0  0  0  0  0999 V2000
   -4.3800   25.4630  -30.0480 O   0  0  0  0  0  0  0  0  0  0  0  0
   -4.5230   24.3060  -29.5650 C   0  0  0  0  0  0  0  0  0  0  0  0
   -4.0420   24.0230  -28.2400 N   0  0  0  0  0  0  0  0  0  0  0  0
   -3.0310   24.8050  -27.5790 C   0  0  0  0  0  0  0  0  0  0  0  0
   -3.0600   24.9960  -26.1840 C   0  0  0  0  0  0  0  0  0  0  0  0
   -2.0870   25.7800  -25.5570 C   0  0  0  0  0  0  0  0  0  0  0  0
   -1.0830   26.3890  -26.3130 C   0  0  0  0  0  0  0  0  0  0  0  0
   -1.0540   26.2200  -27.6990 C   0  0  0  0  0  0  0  0  0  0  0  0
   -2.0240   25.4370  -28.3340 C   0  0  0  0  0  0  0  0  0  0  0  0
   -1.9770   25.2820  -29.7150 O   0  0  0  0  0  0  0  0  0  0  0  0
   -5.2310   23.2680  -30.3550 C   0  0  0  0  0  0  0  0  0  0  0  0
   -6.5920   22.9900  -30.1290 C   0  0  0  0  0  0  0  0  0  0  0  0
   -7.2470   22.0070  -30.8760 C   0  0  0  0  0  0  0  0  0  0  0  0
   -6.5530   21.2800  -31.8520 C   0  0  0  0  0  0  0  0  0  0  0  0
   -7.3770   20.0570  -32.8170 S   0  0  0  0  0  0  0  0  0  0  0  0
   -6.8750   20.1060  -34.2340 O   0  0  0  0  0  0  0  0  0  0  0  0
   -8.8470   20.3750  -32.8260 O   0  0  0  0  0  0  0  0  0  0  0  0
   -7.1360   18.4640  -32.1300 N   0  0  0  0  0  0  0  0  0  0  0  0
   -5.7600   18.2780  -31.6350 C   0  0  0  0  0  0  0  0  0  0  0  0
   -4.7420   18.1020  -32.7880 C   0  0  0  0  0  0  0  0  0  0  0  0
   -5.3380   17.7420  -34.0220 O   0  0  0  0  0  0  0  0  0  0  0  0
   -6.3420   16.7740  -33.8160 C   0  0  0  0  0  0  0  0  0  0  0  0
   -7.5390   17.3960  -33.0710 C   0  0  0  0  0  0  0  0  0  0  0  0
   -5.1980   21.5490  -32.0790 C   0  0  0  0  0  0  0  0  0  0  0  0
   -4.5400   22.5310  -31.3330 C   0  0  0  0  0  0  0  0  0  0  0  0
   -4.5250   23.2770  -27.6920 H   0  0  0  0  0  0  0  0  0  0  0  0
   -3.8530   24.5255  -25.5841 H   0  0  0  0  0  0  0  0  0  0  0  0
   -2.1123   25.9175  -24.4659 H   0  0  0  0  0  0  0  0  0  0  0  0
   -0.3155   27.0014  -25.8171 H   0  0  0  0  0  0  0  0  0  0  0  0
   -0.2655   26.7044  -28.2937 H   0  0  0  0  0  0  0  0  0  0  0  0
   -7.1437   23.5499  -29.3595 H   0  0  0  0  0  0  0  0  0  0  0  0
   -8.3130   21.8031  -30.6967 H   0  0  0  0  0  0  0  0  0  0  0  0
   -5.4747   19.1596  -31.0421 H   0  0  0  0  0  0  0  0  0  0  0  0
   -5.7414   17.3624  -31.0257 H   0  0  0  0  0  0  0  0  0  0  0  0
   -4.2049   19.0520  -32.9255 H   0  0  0  0  0  0  0  0  0  0  0  0
   -4.0706   17.2788  -32.5022 H   0  0  0  0  0  0  0  0  0  0  0  0
   -6.6804   16.3893  -34.7894 H   0  0  0  0  0  0  0  0  0  0  0  0
   -5.9298   15.9540  -33.2097 H   0  0  0  0  0  0  0  0  0  0  0  0
   -8.2308   17.8230  -33.8120 H   0  0  0  0  0  0  0  0  0  0  0  0
   -8.0140   16.5975  -32.4822 H   0  0  0  0  0  0  0  0  0  0  0  0
   -4.6489   20.9853  -32.8476 H   0  0  0  0  0  0  0  0  0  0  0  0
   -3.4729   22.7288  -31.5125 H   0  0  0  0  0  0  0  0  0  0  0  0
  1  2  2  0
  2  3  1  0
  3  4  1  0
  4  5  2  0
  5  6  1  0
  6  7  2  0
  7  8  1  0
  8  9  2  0
  9 10  1  0
  2 11  1  0
 11 12  2  0
 12 13  1  0
 13 14  2  0
 14 15  1  0
 15 16  2  0
 15 17  2  0
 15 18  1  0
 18 19  1  0
 19 20  1  0
 20 21  1  0
 21 22  1  0
 22 23  1  0
 14 24  1  0
 24 25  2  0
  9  4  1  0
 25 11  1  0
 23 18  1  0
  3 26  1  0
  5 27  1  0
  6 28  1  0
  7 29  1  0
  8 30  1  0
 12 31  1  0
 13 32  1  0
 19 33  1  0
 19 34  1  0
 20 35  1  0
 20 36  1  0
 22 37  1  0
 22 38  1  0
 23 39  1  0
 23 40  1  0
 24 41  1  0
 25 42  1  0
M  CHG  1  10  -1
M  END
>  <UniqueID>  (23) 
22

>  <SMILES>  (23) 
O=C(Nc1ccccc1[O-])c1ccc(S(=O)(=O)N2CCOCC2)cc1

>  <Energy>  (23) 
60.62707536729676

>  <Genealogy>  (23) 
O=C(Nc1ccccc1[O-])c1ccc(S(=O)(=O)N2CCOCC2)cc1 (protonated)
O=C(Nc1ccccc1[O-])c1ccc(S(=O)(=O)N2CCOCC2)cc1 (3D coordinates assigned)
O=C(Nc1ccccc1[O-])c1ccc(S(=O)(=O)N2CCOCC2)cc1 (nonaromatic ring conformer: 60.62707536729676 kcal/mol)

>  <smiles>  (23) 
O=C(Nc1ccccc1O)c1ccc(S(=O)(=O)N2CCOCC2)cc1

>  <score_type>  (23) 
oracle

>  <origin>  (23) 
adgpu

>  <m_score__min__energy>  (23) 
-11.869999999999999

>  <m_primary>  (23) 
energy

$$$$
23:0
     RDKit          3D

 54 57  0  0  0  0  0  0  0  0999 V2000
    0.9270   18.8580  -27.9160 C   0  0  0  0  0  0  0  0  0  0  0  0
   -0.2720   19.6610  -28.2110 N   0  0  0  0  0  0  0  0  0  0  0  0
   -1.3460   19.3620  -27.2460 C   0  0  0  0  0  0  0  0  0  0  0  0
   -2.6470   20.0060  -27.7310 C   0  0  0  0  0  0  0  0  0  0  0  0
   -2.4460   21.4600  -28.0790 C   0  0  0  0  0  0  0  0  0  0  0  0
   -3.5630   22.2970  -28.2130 C   0  0  0  0  0  0  0  0  0  0  0  0
   -3.4130   23.6340  -28.6190 C   0  0  0  0  0  0  0  0  0  0  0  0
   -4.5370   24.5190  -28.7280 N   0  0  0  0  0  0  0  0  0  0  0  0
   -5.3450   24.8990  -30.2150 S   0  0  0  0  0  0  0  0  0  0  0  0
   -6.3850   25.9520  -29.9610 O   0  0  0  0  0  0  0  0  0  0  0  0
   -4.3500   25.4300  -31.2060 O   0  0  0  0  0  0  0  0  0  0  0  0
   -6.1420   23.4490  -30.8160 C   0  0  0  0  0  0  0  0  0  0  0  0
   -5.4000   22.3160  -31.1850 C   0  0  0  0  0  0  0  0  0  0  0  0
   -6.0560   21.1430  -31.5730 C   0  0  0  0  0  0  0  0  0  0  0  0
   -7.4580   21.0990  -31.6190 C   0  0  0  0  0  0  0  0  0  0  0  0
   -8.2960   19.6240  -32.1160 S   0  0  0  0  0  0  0  0  0  0  0  0
   -8.7460   18.8740  -30.8930 O   0  0  0  0  0  0  0  0  0  0  0  0
   -9.5160   19.9950  -32.9110 O   0  0  0  0  0  0  0  0  0  0  0  0
   -7.2710   18.6000  -33.0950 N   0  0  0  0  0  0  0  0  0  0  0  0
   -6.4660   19.4190  -34.0200 C   0  0  0  0  0  0  0  0  0  0  0  0
   -5.3100   18.5910  -34.6070 C   0  0  0  0  0  0  0  0  0  0  0  0
   -4.4520   17.9860  -33.6440 O   0  0  0  0  0  0  0  0  0  0  0  0
   -4.9620   18.0190  -32.3220 C   0  0  0  0  0  0  0  0  0  0  0  0
   -6.4590   17.6810  -32.2700 C   0  0  0  0  0  0  0  0  0  0  0  0
   -8.1950   22.2360  -31.2630 C   0  0  0  0  0  0  0  0  0  0  0  0
   -7.5400   23.4010  -30.8590 C   0  0  0  0  0  0  0  0  0  0  0  0
   -2.1340   24.1180  -28.9220 C   0  0  0  0  0  0  0  0  0  0  0  0
   -1.9660   25.4330  -29.3420 O   0  0  0  0  0  0  0  0  0  0  0  0
   -1.0140   23.2910  -28.7910 C   0  0  0  0  0  0  0  0  0  0  0  0
   -1.1610   21.9580  -28.3820 C   0  0  0  0  0  0  0  0  0  0  0  0
    0.0630   21.0980  -28.1750 C   0  0  0  0  0  0  0  0  0  0  0  0
    1.0529   18.7737  -26.8265 H   0  0  0  0  0  0  0  0  0  0  0  0
    0.8120   17.8541  -28.3506 H   0  0  0  0  0  0  0  0  0  0  0  0
    1.8116   19.3466  -28.3506 H   0  0  0  0  0  0  0  0  0  0  0  0
   -1.4800   18.2729  -27.1695 H   0  0  0  0  0  0  0  0  0  0  0  0
   -1.0791   19.7638  -26.2574 H   0  0  0  0  0  0  0  0  0  0  0  0
   -3.0003   19.4699  -28.6242 H   0  0  0  0  0  0  0  0  0  0  0  0
   -3.3872   19.9437  -26.9197 H   0  0  0  0  0  0  0  0  0  0  0  0
   -4.5672   21.9029  -27.9981 H   0  0  0  0  0  0  0  0  0  0  0  0
   -4.3007   22.3506  -31.1690 H   0  0  0  0  0  0  0  0  0  0  0  0
   -5.4707   20.2517  -31.8431 H   0  0  0  0  0  0  0  0  0  0  0  0
   -7.1076   19.7762  -34.8390 H   0  0  0  0  0  0  0  0  0  0  0  0
   -6.0469   20.2722  -33.4665 H   0  0  0  0  0  0  0  0  0  0  0  0
   -5.7431   17.7925  -35.2273 H   0  0  0  0  0  0  0  0  0  0  0  0
   -4.6851   19.2958  -35.1751 H   0  0  0  0  0  0  0  0  0  0  0  0
   -4.4121   17.2875  -31.7117 H   0  0  0  0  0  0  0  0  0  0  0  0
   -4.8325   19.0405  -31.9351 H   0  0  0  0  0  0  0  0  0  0  0  0
   -6.6028   16.6545  -32.6383 H   0  0  0  0  0  0  0  0  0  0  0  0
   -6.7909   17.7838  -31.2263 H   0  0  0  0  0  0  0  0  0  0  0  0
   -9.2940   22.2108  -31.3019 H   0  0  0  0  0  0  0  0  0  0  0  0
   -8.1264   24.2865  -30.5728 H   0  0  0  0  0  0  0  0  0  0  0  0
   -0.0120   23.6885  -29.0101 H   0  0  0  0  0  0  0  0  0  0  0  0
    0.7909   21.3152  -28.9706 H   0  0  0  0  0  0  0  0  0  0  0  0
    0.4834   21.3293  -27.1851 H   0  0  0  0  0  0  0  0  0  0  0  0
  1  2  1  0
  2  3  1  0
  3  4  1  0
  4  5  1  0
  5  6  2  0
  6  7  1  0
  7  8  1  0
  8  9  1  0
  9 10  2  0
  9 11  2  0
  9 12  1  0
 12 13  2  0
 13 14  1  0
 14 15  2  0
 15 16  1  0
 16 17  2  0
 16 18  2  0
 16 19  1  0
 19 20  1  0
 20 21  1  0
 21 22  1  0
 22 23  1  0
 23 24  1  0
 15 25  1  0
 25 26  2  0
  7 27  2  0
 27 28  1  0
 27 29  1  0
 29 30  2  0
 30 31  1  0
 31  2  1  0
 30  5  1  0
 26 12  1  0
 24 19  1  0
  1 32  1  0
  1 33  1  0
  1 34  1  0
  3 35  1  0
  3 36  1  0
  4 37  1  0
  4 38  1  0
  6 39  1  0
 13 40  1  0
 14 41  1  0
 20 42  1  0
 20 43  1  0
 21 44  1  0
 21 45  1  0
 23 46  1  0
 23 47  1  0
 24 48  1  0
 24 49  1  0
 25 50  1  0
 26 51  1  0
 29 52  1  0
 31 53  1  0
 31 54  1  0
M  CHG  2   8  -1  28  -1
M  END
>  <UniqueID>  (24) 
23

>  <SMILES>  (24) 
CN1CCc2cc([N-]S(=O)(=O)c3ccc(S(=O)(=O)N4CCOCC4)cc3)c([O-])cc2C1

>  <Energy>  (24) 
74.24801348075434

>  <Genealogy>  (24) 
CN1CCc2cc([N-]S(=O)(=O)c3ccc(S(=O)(=O)N4CCOCC4)cc3)c([O-])cc2C1 (protonated)
CN1CCc2cc([N-]S(=O)(=O)c3ccc(S(=O)(=O)N4CCOCC4)cc3)c([O-])cc2C1 (3D coordinates assigned)
CN1CCc2cc([N-]S(=O)(=O)c3ccc(S(=O)(=O)N4CCOCC4)cc3)c([O-])cc2C1 (nonaromatic ring conformer: 74.24801348075434 kcal/mol)

>  <smiles>  (24) 
CN1CCc2cc(NS(=O)(=O)c3ccc(S(=O)(=O)N4CCOCC4)cc3)c(O)cc2C1

>  <score_type>  (24) 
oracle

>  <origin>  (24) 
adgpu

>  <m_score__min__energy>  (24) 
-14.710000000000001

>  <m_primary>  (24) 
energy

$$$$
24:0
     RDKit          3D

 72 75  0  0  0  0  0  0  0  0999 V2000
   -4.1930   18.9420  -32.3500 C   0  0  0  0  0  0  0  0  0  0  0  0
   -2.8310   18.9740  -33.0040 C   0  0  0  0  0  0  0  0  0  0  0  0
   -1.8740   19.9460  -32.6100 C   0  0  0  0  0  0  0  0  0  0  0  0
   -2.1310   20.8580  -31.5300 N   0  0  0  0  0  0  0  0  0  0  0  0
   -3.0510   21.8480  -31.5220 C   0  0  0  0  0  0  0  0  0  0  0  0
   -3.9920   22.1330  -32.6560 C   0  0  0  0  0  0  0  0  0  0  0  0
   -3.0860   22.4440  -30.2670 C   0  0  0  0  0  0  0  0  0  0  0  0
   -4.0560   23.5040  -29.8130 C   0  0  0  0  0  0  0  0  0  0  0  0
   -3.4830   24.8700  -30.0270 C   0  0  0  0  0  0  0  0  0  0  0  0
   -4.0210   25.6630  -30.8450 O   0  0  0  0  0  0  0  0  0  0  0  0
   -2.3550   25.2710  -29.3210 O   0  0  0  0  0  0  0  0  0  0  0  0
   -2.1230   21.7990  -29.4960 C   0  0  0  0  0  0  0  0  0  0  0  0
   -1.6790   22.1820  -27.8290 S   0  0  0  0  0  0  0  0  0  0  0  0
   -0.0280   22.8420  -27.7750 C   0  0  0  0  0  0  0  0  0  0  0  0
   -1.7550   20.9390  -26.9890 O   0  0  0  0  0  0  0  0  0  0  0  0
   -2.6300   23.1950  -27.2560 O   0  0  0  0  0  0  0  0  0  0  0  0
   -1.5570   20.8250  -30.3080 C   0  0  0  0  0  0  0  0  0  0  0  0
   -0.5620   19.8130  -29.9020 C   0  0  0  0  0  0  0  0  0  0  0  0
   -0.8500   18.9160  -28.8630 C   0  0  0  0  0  0  0  0  0  0  0  0
    0.0590   17.9080  -28.5320 C   0  0  0  0  0  0  0  0  0  0  0  0
    1.2640   17.7850  -29.2370 C   0  0  0  0  0  0  0  0  0  0  0  0
    2.3860   16.4840  -28.8550 S   0  0  0  0  0  0  0  0  0  0  0  0
    3.9250   16.7740  -29.6970 C   0  0  0  0  0  0  0  0  0  0  0  0
    1.8110   15.1670  -29.2970 O   0  0  0  0  0  0  0  0  0  0  0  0
    2.6220   16.4350  -27.3720 O   0  0  0  0  0  0  0  0  0  0  0  0
    1.5490   18.6760  -30.2810 C   0  0  0  0  0  0  0  0  0  0  0  0
    0.6400   19.6850  -30.6120 C   0  0  0  0  0  0  0  0  0  0  0  0
   -0.6230   19.9930  -33.2340 C   0  0  0  0  0  0  0  0  0  0  0  0
   -0.2940   19.0730  -34.2210 C   0  0  0  0  0  0  0  0  0  0  0  0
   -1.2140   18.1030  -34.6090 C   0  0  0  0  0  0  0  0  0  0  0  0
   -2.4980   18.0550  -34.0390 C   0  0  0  0  0  0  0  0  0  0  0  0
   -3.6100   16.7670  -34.5730 S   0  0  0  0  0  0  0  0  0  0  0  0
   -4.9290   17.4070  -34.9050 O   0  0  0  0  0  0  0  0  0  0  0  0
   -3.0790   16.0810  -35.8010 O   0  0  0  0  0  0  0  0  0  0  0  0
   -3.8500   15.5520  -33.3350 N   0  0  0  0  0  0  0  0  0  0  0  0
   -2.5410   15.1040  -32.7960 C   0  0  0  0  0  0  0  0  0  0  0  0
   -2.6040   13.7270  -32.0970 C   0  0  0  0  0  0  0  0  0  0  0  0
   -4.0190   13.3980  -31.6250 C   0  0  0  0  0  0  0  0  0  0  0  0
   -5.0140   13.4150  -32.7970 C   0  0  0  0  0  0  0  0  0  0  0  0
   -4.6170   14.4230  -33.8960 C   0  0  0  0  0  0  0  0  0  0  0  0
   -4.0748   18.9448  -31.2564 H   0  0  0  0  0  0  0  0  0  0  0  0
   -4.7689   19.8269  -32.6588 H   0  0  0  0  0  0  0  0  0  0  0  0
   -4.7267   18.0311  -32.6588 H   0  0  0  0  0  0  0  0  0  0  0  0
   -4.9718   22.4298  -32.2536 H   0  0  0  0  0  0  0  0  0  0  0  0
   -3.5866   22.9486  -33.2727 H   0  0  0  0  0  0  0  0  0  0  0  0
   -4.1073   21.2295  -33.2727 H   0  0  0  0  0  0  0  0  0  0  0  0
   -4.9894   23.4096  -30.3874 H   0  0  0  0  0  0  0  0  0  0  0  0
   -4.2538   23.3669  -28.7396 H   0  0  0  0  0  0  0  0  0  0  0  0
    0.2831   22.9664  -26.7273 H   0  0  0  0  0  0  0  0  0  0  0  0
    0.6603   22.1499  -28.2822 H   0  0  0  0  0  0  0  0  0  0  0  0
   -0.0065   23.8179  -28.2822 H   0  0  0  0  0  0  0  0  0  0  0  0
   -1.7947   19.0064  -28.3069 H   0  0  0  0  0  0  0  0  0  0  0  0
   -0.1719   17.2084  -27.7151 H   0  0  0  0  0  0  0  0  0  0  0  0
    4.7250   16.9247  -28.9572 H   0  0  0  0  0  0  0  0  0  0  0  0
    4.1674   15.9057  -30.3274 H   0  0  0  0  0  0  0  0  0  0  0  0
    3.8347   17.6709  -30.3274 H   0  0  0  0  0  0  0  0  0  0  0  0
    2.4907   18.5809  -30.8414 H   0  0  0  0  0  0  0  0  0  0  0  0
    0.8686   20.3811  -31.4325 H   0  0  0  0  0  0  0  0  0  0  0  0
    0.1051   20.7638  -32.9410 H   0  0  0  0  0  0  0  0  0  0  0  0
    0.6966   19.1109  -34.6976 H   0  0  0  0  0  0  0  0  0  0  0  0
   -0.9321   17.3633  -35.3728 H   0  0  0  0  0  0  0  0  0  0  0  0
   -4.4180   15.9840  -32.5700 H   0  0  0  0  0  0  0  0  0  0  0  0
   -1.8246   15.0401  -33.6283 H   0  0  0  0  0  0  0  0  0  0  0  0
   -2.2331   15.8392  -32.0380 H   0  0  0  0  0  0  0  0  0  0  0  0
   -2.2751   12.9522  -32.8052 H   0  0  0  0  0  0  0  0  0  0  0  0
   -1.9469   13.7593  -31.2154 H   0  0  0  0  0  0  0  0  0  0  0  0
   -4.0210   12.3979  -31.1670 H   0  0  0  0  0  0  0  0  0  0  0  0
   -4.3284   14.1598  -30.8943 H   0  0  0  0  0  0  0  0  0  0  0  0
   -5.0547   12.4088  -33.2395 H   0  0  0  0  0  0  0  0  0  0  0  0
   -5.9925   13.7226  -32.3997 H   0  0  0  0  0  0  0  0  0  0  0  0
   -4.0002   13.9091  -34.6480 H   0  0  0  0  0  0  0  0  0  0  0  0
   -5.5360   14.8197  -34.3522 H   0  0  0  0  0  0  0  0  0  0  0  0
  1  2  1  0
  2  3  2  0
  3  4  1  0
  4  5  1  0
  5  6  1  0
  5  7  2  0
  7  8  1  0
  8  9  1  0
  9 10  2  0
  9 11  1  0
  7 12  1  0
 12 13  1  0
 13 14  1  0
 13 15  2  0
 13 16  2  0
 12 17  2  0
 17 18  1  0
 18 19  2  0
 19 20  1  0
 20 21  2  0
 21 22  1  0
 22 23  1  0
 22 24  2  0
 22 25  2  0
 21 26  1  0
 26 27  2  0
  3 28  1  0
 28 29  2  0
 29 30  1  0
 30 31  2  0
 31 32  1  0
 32 33  2  0
 32 34  2  0
 32 35  1  0
 35 36  1  0
 36 37  1  0
 37 38  1  0
 38 39  1  0
 39 40  1  0
 31  2  1  0
 40 35  1  0
 17  4  1  0
 27 18  1  0
  1 41  1  0
  1 42  1  0
  1 43  1  0
  6 44  1  0
  6 45  1  0
  6 46  1  0
  8 47  1  0
  8 48  1  0
 14 49  1  0
 14 50  1  0
 14 51  1  0
 19 52  1  0
 20 53  1  0
 23 54  1  0
 23 55  1  0
 23 56  1  0
 26 57  1  0
 27 58  1  0
 28 59  1  0
 29 60  1  0
 30 61  1  0
 35 62  1  0
 36 63  1  0
 36 64  1  0
 37 65  1  0
 37 66  1  0
 38 67  1  0
 38 68  1  0
 39 69  1  0
 39 70  1  0
 40 71  1  0
 40 72  1  0
M  CHG  2  11  -1  35   1
M  END
>  <UniqueID>  (25) 
24

>  <SMILES>  (25) 
Cc1c(-n2c(C)c(CC(=O)[O-])c(S(C)(=O)=O)c2-c2ccc(S(C)(=O)=O)cc2)cccc1S(=O)(=O)[NH+]1CCCCC1

>  <Energy>  (25) 
112.53072812097805

>  <Genealogy>  (25) 
Cc1c(-n2c(C)c(CC(=O)[O-])c(S(C)(=O)=O)c2-c2ccc(S(C)(=O)=O)cc2)cccc1S(=O)(=O)[NH+]1CCCCC1 (protonated)
Cc1c(-n2c(C)c(CC(=O)[O-])c(S(C)(=O)=O)c2-c2ccc(S(C)(=O)=O)cc2)cccc1S(=O)(=O)[NH+]1CCCCC1 (3D coordinates assigned)
Cc1c(-n2c(C)c(CC(=O)[O-])c(S(C)(=O)=O)c2-c2ccc(S(C)(=O)=O)cc2)cccc1S(=O)(=O)[NH+]1CCCCC1 (nonaromatic ring conformer: 112.53072812097805 kcal/mol)

>  <smiles>  (25) 
Cc1c(-n2c(C)c(CC(=O)O)c(S(C)(=O)=O)c2-c2ccc(S(C)(=O)=O)cc2)cccc1S(=O)(=O)N1CCCCC1

>  <score_type>  (25) 
oracle

>  <origin>  (25) 
adgpu

>  <m_score__min__energy>  (25) 
-12.23

>  <m_primary>  (25) 
energy

$$$$
25:0
     RDKit          3D

 67 71  0  0  0  0  0  0  0  0999 V2000
   -4.0270   25.6680  -30.6880 O   0  0  0  0  0  0  0  0  0  0  0  0
   -4.0770   24.4180  -30.5250 C   0  0  0  0  0  0  0  0  0  0  0  0
   -5.0260   23.6450  -31.2710 N   0  0  0  0  0  0  0  0  0  0  0  0
   -4.6670   22.4900  -32.0410 C   0  0  0  0  0  0  0  0  0  0  0  0
   -3.3170   22.2710  -32.3350 C   0  0  0  0  0  0  0  0  0  0  0  0
   -2.9110   21.1080  -33.0030 C   0  0  0  0  0  0  0  0  0  0  0  0
   -1.1930   20.7930  -33.2800 S   0  0  0  0  0  0  0  0  0  0  0  0
   -0.6130   21.9140  -34.0990 O   0  0  0  0  0  0  0  0  0  0  0  0
   -1.0560   19.5200  -34.0700 O   0  0  0  0  0  0  0  0  0  0  0  0
   -0.2770   20.6330  -31.8000 N   0  0  0  0  0  0  0  0  0  0  0  0
    0.6550   19.5110  -31.8470 C   0  0  0  0  0  0  0  0  0  0  0  0
    0.8990   19.0980  -30.4010 C   0  0  0  0  0  0  0  0  0  0  0  0
   -0.2540   19.6980  -29.6100 C   0  0  0  0  0  0  0  0  0  0  0  0
   -1.1320   20.3820  -30.6440 C   0  0  0  0  0  0  0  0  0  0  0  0
   -3.8720   20.1660  -33.3920 C   0  0  0  0  0  0  0  0  0  0  0  0
   -5.2250   20.3990  -33.1450 C   0  0  0  0  0  0  0  0  0  0  0  0
   -5.6380   21.5600  -32.4760 C   0  0  0  0  0  0  0  0  0  0  0  0
   -7.0430   21.8200  -32.3090 N   0  0  0  0  0  0  0  0  0  0  0  0
   -7.9930   20.8020  -31.8900 C   0  0  0  0  0  0  0  0  0  0  0  0
   -9.3540   21.4810  -31.9240 C   0  0  0  0  0  0  0  0  0  0  0  0
   -9.0710   22.9840  -31.9010 C   0  0  0  0  0  0  0  0  0  0  0  0
   -7.6250   23.1510  -32.3580 C   0  0  0  0  0  0  0  0  0  0  0  0
   -3.1900   23.7660  -29.5340 C   0  0  0  0  0  0  0  0  0  0  0  0
   -1.7910   23.8110  -29.6750 C   0  0  0  0  0  0  0  0  0  0  0  0
   -0.9630   23.2040  -28.7260 C   0  0  0  0  0  0  0  0  0  0  0  0
   -1.5160   22.5480  -27.6170 C   0  0  0  0  0  0  0  0  0  0  0  0
   -0.4720   21.7810  -26.4160 S   0  0  0  0  0  0  0  0  0  0  0  0
   -1.3000   20.8620  -25.5610 O   0  0  0  0  0  0  0  0  0  0  0  0
    0.5670   20.9530  -27.1210 O   0  0  0  0  0  0  0  0  0  0  0  0
    0.3240   22.9570  -25.3910 N   0  0  0  0  0  0  0  0  0  0  0  0
   -0.4750   23.2580  -24.1920 C   0  0  0  0  0  0  0  0  0  0  0  0
   -0.7140   24.7600  -24.1420 C   0  0  0  0  0  0  0  0  0  0  0  0
   -0.4480   25.2350  -25.5490 C   0  0  0  0  0  0  0  0  0  0  0  0
    0.5410   24.2250  -26.0970 C   0  0  0  0  0  0  0  0  0  0  0  0
   -2.9090   22.4990  -27.4750 C   0  0  0  0  0  0  0  0  0  0  0  0
   -3.7380   23.1040  -28.4210 C   0  0  0  0  0  0  0  0  0  0  0  0
   -2.5668   23.0190  -32.0389 H   0  0  0  0  0  0  0  0  0  0  0  0
    0.2173   18.6756  -32.4132 H   0  0  0  0  0  0  0  0  0  0  0  0
    1.5939   19.7914  -32.3469 H   0  0  0  0  0  0  0  0  0  0  0  0
    0.9000   18.0019  -30.3086 H   0  0  0  0  0  0  0  0  0  0  0  0
    1.8743   19.4501  -30.0338 H   0  0  0  0  0  0  0  0  0  0  0  0
   -0.8156   18.9092  -29.0880 H   0  0  0  0  0  0  0  0  0  0  0  0
    0.0971   20.3999  -28.8393 H   0  0  0  0  0  0  0  0  0  0  0  0
   -1.9710   19.7283  -30.9247 H   0  0  0  0  0  0  0  0  0  0  0  0
   -1.5612   21.3158  -30.2517 H   0  0  0  0  0  0  0  0  0  0  0  0
   -3.5585   19.2389  -33.8942 H   0  0  0  0  0  0  0  0  0  0  0  0
   -5.9743   19.6657  -33.4779 H   0  0  0  0  0  0  0  0  0  0  0  0
   -7.9718   19.9475  -32.5824 H   0  0  0  0  0  0  0  0  0  0  0  0
   -7.7569   20.4088  -30.8902 H   0  0  0  0  0  0  0  0  0  0  0  0
   -9.8957   21.2073  -32.8414 H   0  0  0  0  0  0  0  0  0  0  0  0
   -9.9807   21.1741  -31.0737 H   0  0  0  0  0  0  0  0  0  0  0  0
   -9.7510   23.5108  -32.5866 H   0  0  0  0  0  0  0  0  0  0  0  0
   -9.2257   23.4061  -30.8970 H   0  0  0  0  0  0  0  0  0  0  0  0
   -7.5898   23.5479  -33.3833 H   0  0  0  0  0  0  0  0  0  0  0  0
   -7.0758   23.8590  -31.7199 H   0  0  0  0  0  0  0  0  0  0  0  0
   -1.3454   24.3274  -30.5380 H   0  0  0  0  0  0  0  0  0  0  0  0
    0.1293   23.2413  -28.8502 H   0  0  0  0  0  0  0  0  0  0  0  0
   -1.4383   22.7296  -24.2446 H   0  0  0  0  0  0  0  0  0  0  0  0
    0.0588   22.9288  -23.2883 H   0  0  0  0  0  0  0  0  0  0  0  0
   -1.7512   24.9785  -23.8480 H   0  0  0  0  0  0  0  0  0  0  0  0
   -0.0698   25.2605  -23.4041 H   0  0  0  0  0  0  0  0  0  0  0  0
   -1.3741   25.2369  -26.1426 H   0  0  0  0  0  0  0  0  0  0  0  0
   -0.0632   26.2650  -25.5822 H   0  0  0  0  0  0  0  0  0  0  0  0
    0.3753   24.0860  -27.1755 H   0  0  0  0  0  0  0  0  0  0  0  0
    1.5725   24.5767  -25.9474 H   0  0  0  0  0  0  0  0  0  0  0  0
   -3.3523   21.9803  -26.6122 H   0  0  0  0  0  0  0  0  0  0  0  0
   -4.8299   23.0626  -28.2947 H   0  0  0  0  0  0  0  0  0  0  0  0
  1  2  2  0
  2  3  1  0
  3  4  1  0
  4  5  2  0
  5  6  1  0
  6  7  1  0
  7  8  2  0
  7  9  2  0
  7 10  1  0
 10 11  1  0
 11 12  1  0
 12 13  1  0
 13 14  1  0
  6 15  2  0
 15 16  1  0
 16 17  2  0
 17 18  1  0
 18 19  1  0
 19 20  1  0
 20 21  1  0
 21 22  1  0
  2 23  1  0
 23 24  2  0
 24 25  1  0
 25 26  2  0
 26 27  1  0
 27 28  2  0
 27 29  2  0
 27 30  1  0
 30 31  1  0
 31 32  1  0
 32 33  1  0
 33 34  1  0
 26 35  1  0
 35 36  2  0
 17  4  1  0
 22 18  1  0
 36 23  1  0
 14 10  1  0
 34 30  1  0
  5 37  1  0
 11 38  1  0
 11 39  1  0
 12 40  1  0
 12 41  1  0
 13 42  1  0
 13 43  1  0
 14 44  1  0
 14 45  1  0
 15 46  1  0
 16 47  1  0
 19 48  1  0
 19 49  1  0
 20 50  1  0
 20 51  1  0
 21 52  1  0
 21 53  1  0
 22 54  1  0
 22 55  1  0
 24 56  1  0
 25 57  1  0
 31 58  1  0
 31 59  1  0
 32 60  1  0
 32 61  1  0
 33 62  1  0
 33 63  1  0
 34 64  1  0
 34 65  1  0
 35 66  1  0
 36 67  1  0
M  CHG  1   3  -1
M  END
>  <UniqueID>  (26) 
25

>  <SMILES>  (26) 
O=C([N-]c1cc(S(=O)(=O)N2CCCC2)ccc1N1CCCC1)c1ccc(S(=O)(=O)N2CCCC2)cc1

>  <Energy>  (26) 
81.72865745234074

>  <Genealogy>  (26) 
O=C([N-]c1cc(S(=O)(=O)N2CCCC2)ccc1N1CCCC1)c1ccc(S(=O)(=O)N2CCCC2)cc1 (protonated)
O=C([N-]c1cc(S(=O)(=O)N2CCCC2)ccc1N1CCCC1)c1ccc(S(=O)(=O)N2CCCC2)cc1 (3D coordinates assigned)
O=C([N-]c1cc(S(=O)(=O)N2CCCC2)ccc1N1CCCC1)c1ccc(S(=O)(=O)N2CCCC2)cc1 (nonaromatic ring conformer: 81.72865745234074 kcal/mol)

>  <smiles>  (26) 
O=C(Nc1cc(S(=O)(=O)N2CCCC2)ccc1N1CCCC1)c1ccc(S(=O)(=O)N2CCCC2)cc1

>  <score_type>  (26) 
oracle

>  <origin>  (26) 
adgpu

>  <m_score__min__energy>  (26) 
-13.16

>  <m_primary>  (26) 
energy

$$$$
26:0
     RDKit          3D

 42 44  0  0  0  0  0  0  0  0999 V2000
   -3.1260   26.0600  -29.3410 H   0  0  0  0  0  0  0  0  0  0  0  0
   -2.6450   25.1940  -29.1290 O   0  0  0  0  0  0  0  0  0  0  0  0
   -2.6970   24.0840  -29.9730 C   0  0  0  0  0  0  0  0  0  0  0  0
   -1.6190   23.2000  -30.0000 C   0  0  0  0  0  0  0  0  0  0  0  0
   -0.7414   23.3867  -29.3636 H   0  0  0  0  0  0  0  0  0  0  0  0
   -1.6490   22.0810  -30.8300 C   0  0  0  0  0  0  0  0  0  0  0  0
   -0.7983   21.3839  -30.8480 H   0  0  0  0  0  0  0  0  0  0  0  0
   -2.7690   21.8470  -31.6430 C   0  0  0  0  0  0  0  0  0  0  0  0
   -2.8370   20.6470  -32.5170 C   0  0  0  0  0  0  0  0  0  0  0  0
   -4.1010   19.5230  -32.5110 S   0  0  0  0  0  0  0  0  0  0  0  0
   -3.4190   18.5810  -33.7280 C   0  0  0  0  0  0  0  0  0  0  0  0
   -3.9280   17.4940  -34.2220 N   0  0  0  0  0  0  0  0  0  0  0  0
   -5.1950   16.9140  -33.7890 C   0  0  0  0  0  0  0  0  0  0  0  0
   -5.2336   16.8964  -32.6898 H   0  0  0  0  0  0  0  0  0  0  0  0
   -6.0271   17.5209  -34.1754 H   0  0  0  0  0  0  0  0  0  0  0  0
   -5.2795   15.8876  -34.1754 H   0  0  0  0  0  0  0  0  0  0  0  0
   -2.2460   19.0870  -34.1520 N   0  0  0  0  0  0  0  0  0  0  0  0
   -1.9110   20.2300  -33.4910 C   0  0  0  0  0  0  0  0  0  0  0  0
   -0.6330   20.9380  -33.8050 C   0  0  0  0  0  0  0  0  0  0  0  0
   -0.1288   21.2173  -32.8681 H   0  0  0  0  0  0  0  0  0  0  0  0
    0.0205   20.2733  -34.3890 H   0  0  0  0  0  0  0  0  0  0  0  0
   -0.8500   21.8446  -34.3890 H   0  0  0  0  0  0  0  0  0  0  0  0
   -3.8070   22.7300  -31.6040 N   0  0  0  0  0  0  0  0  0  0  0  0
   -3.8070   23.8310  -30.7980 C   0  0  0  0  0  0  0  0  0  0  0  0
   -4.8270   24.6400  -30.7730 N   0  0  0  0  0  0  0  0  0  0  0  0
   -6.0360   24.5130  -31.5870 C   0  0  0  0  0  0  0  0  0  0  0  0
   -6.3537   25.5114  -31.9220 H   0  0  0  0  0  0  0  0  0  0  0  0
   -5.8155   23.8747  -32.4553 H   0  0  0  0  0  0  0  0  0  0  0  0
   -7.1630   23.8720  -30.7740 C   0  0  0  0  0  0  0  0  0  0  0  0
   -6.7973   23.6533  -29.7599 H   0  0  0  0  0  0  0  0  0  0  0  0
   -8.0106   24.5719  -30.7315 H   0  0  0  0  0  0  0  0  0  0  0  0
   -7.6240   22.5920  -31.4200 C   0  0  0  0  0  0  0  0  0  0  0  0
   -8.9920   22.2770  -31.4820 C   0  0  0  0  0  0  0  0  0  0  0  0
   -9.7319   22.9568  -31.0343 H   0  0  0  0  0  0  0  0  0  0  0  0
   -9.4160   21.1020  -32.1110 C   0  0  0  0  0  0  0  0  0  0  0  0
  -10.4874   20.8560  -32.1500 H   0  0  0  0  0  0  0  0  0  0  0  0
   -8.4810   20.2400  -32.6900 C   0  0  0  0  0  0  0  0  0  0  0  0
   -8.8167   19.3153  -33.1822 H   0  0  0  0  0  0  0  0  0  0  0  0
   -7.1200   20.5520  -32.6440 C   0  0  0  0  0  0  0  0  0  0  0  0
   -6.3850   19.8742  -33.1026 H   0  0  0  0  0  0  0  0  0  0  0  0
   -6.6910   21.7260  -32.0150 C   0  0  0  0  0  0  0  0  0  0  0  0
   -5.6192   21.9719  -31.9862 H   0  0  0  0  0  0  0  0  0  0  0  0
  1  2  1  0
  2  3  1  0
  3  4  2  0
  4  5  1  0
  4  6  1  0
  6  7  1  0
  6  8  2  0
  8  9  1  0
  9 10  1  0
 10 11  1  0
 11 12  2  0
 12 13  1  0
 13 14  1  0
 13 15  1  0
 13 16  1  0
 11 17  1  0
 17 18  1  0
 18 19  1  0
 19 20  1  0
 19 21  1  0
 19 22  1  0
  8 23  1  0
 23 24  1  0
 24 25  2  0
 25 26  1  0
 26 27  1  0
 26 28  1  0
 26 29  1  0
 29 30  1  0
 29 31  1  0
 29 32  1  0
 32 33  2  0
 33 34  1  0
 33 35  1  0
 35 36  1  0
 35 37  2  0
 37 38  1  0
 37 39  1  0
 39 40  1  0
 39 41  2  0
 41 42  1  0
 24  3  1  0
 41 32  1  0
 18  9  2  0
M  CHG  2  17  -1  23  -1
M  END
>  <UniqueID>  (27) 
26

>  <SMILES>  (27) 
C/N=c1/[n-]c(C)c(-c2ccc(O)/c(=N/CCc3ccccc3)[n-]2)s1

>  <Energy>  (27) 
71.5358410701857

>  <Genealogy>  (27) 
CN=c1[n-]c(C)c(-c2ccc(O)c(=NCCc3ccccc3)[n-]2)s1 (protonated)
C/N=c1/[n-]c(C)c(-c2ccc(O)/c(=N/CCc3ccccc3)[n-]2)s1 (cis-trans isomerization)
C/N=c1/[n-]c(C)c(-c2ccc(O)/c(=N/CCc3ccccc3)[n-]2)s1 (3D coordinates assigned)
C/N=c1/[n-]c(C)c(-c2ccc(O)/c(=N/CCc3ccccc3)[n-]2)s1 (optimized conformer: 71.5358410701857 kcal/mol)

>  <smiles>  (27) 
CN=c1[nH]c(C)c(-c2ccc(O)c(=NCCc3ccccc3)[nH]2)s1

>  <score_type>  (27) 
oracle

>  <origin>  (27) 
adgpu

>  <m_score__min__energy>  (27) 
-9.8900000000000006

>  <m_primary>  (27) 
energy

$$$$
27:0
     RDKit          3D

 66 70  0  0  0  0  0  0  0  0999 V2000
   -7.2180   24.3380  -30.7850 C   0  0  0  0  0  0  0  0  0  0  0  0
   -6.4350   23.0810  -30.9790 C   0  0  0  0  0  0  0  0  0  0  0  0
   -6.8700   22.0300  -31.7080 N   0  0  0  0  0  0  0  0  0  0  0  0
   -5.9300   21.0960  -31.6730 N   0  0  0  0  0  0  0  0  0  0  0  0
   -6.0790   19.8100  -32.2980 C   0  0  0  0  0  0  0  0  0  0  0  0
   -6.6710   18.7360  -31.6080 C   0  0  0  0  0  0  0  0  0  0  0  0
   -6.8060   17.4890  -32.2260 C   0  0  0  0  0  0  0  0  0  0  0  0
   -6.3690   17.3080  -33.5400 C   0  0  0  0  0  0  0  0  0  0  0  0
   -5.8000   18.3750  -34.2410 C   0  0  0  0  0  0  0  0  0  0  0  0
   -5.6610   19.6230  -33.6250 C   0  0  0  0  0  0  0  0  0  0  0  0
   -4.8880   21.5470  -30.9370 C   0  0  0  0  0  0  0  0  0  0  0  0
   -3.6740   20.8800  -30.7340 O   0  0  0  0  0  0  0  0  0  0  0  0
   -2.5840   20.9380  -31.6130 C   0  0  0  0  0  0  0  0  0  0  0  0
   -1.2560   20.7930  -31.1670 C   0  0  0  0  0  0  0  0  0  0  0  0
   -0.1970   20.8580  -32.0770 C   0  0  0  0  0  0  0  0  0  0  0  0
   -0.4470   21.0450  -33.4460 C   0  0  0  0  0  0  0  0  0  0  0  0
    0.6780   21.1090  -34.4050 C   0  0  0  0  0  0  0  0  0  0  0  0
    1.1240   22.2370  -34.7490 O   0  0  0  0  0  0  0  0  0  0  0  0
    1.2810   19.9130  -34.9390 N   0  0  0  0  0  0  0  0  0  0  0  0
    1.9150   19.9240  -36.2590 C   0  0  0  0  0  0  0  0  0  0  0  0
    3.4320   19.6810  -36.1320 C   0  0  0  0  0  0  0  0  0  0  0  0
    3.8130   18.8300  -34.9680 N   0  0  0  0  0  0  0  0  0  0  0  0
    4.3350   19.6430  -33.8510 C   0  0  0  0  0  0  0  0  0  0  0  0
    2.7150   17.9390  -34.5230 C   0  0  0  0  0  0  0  0  0  0  0  0
    1.4720   18.7330  -34.0860 C   0  0  0  0  0  0  0  0  0  0  0  0
   -1.7730   21.1860  -33.8870 C   0  0  0  0  0  0  0  0  0  0  0  0
   -2.8310   21.1230  -32.9770 C   0  0  0  0  0  0  0  0  0  0  0  0
   -5.1910   22.7940  -30.4470 C   0  0  0  0  0  0  0  0  0  0  0  0
   -4.1280   23.8590  -29.5410 S   0  0  0  0  0  0  0  0  0  0  0  0
   -3.5150   24.8670  -30.4730 O   0  0  0  0  0  0  0  0  0  0  0  0
   -4.9160   24.5970  -28.4940 O   0  0  0  0  0  0  0  0  0  0  0  0
   -2.8840   22.8880  -28.7640 C   0  0  0  0  0  0  0  0  0  0  0  0
   -3.2540   21.7720  -28.0000 C   0  0  0  0  0  0  0  0  0  0  0  0
   -2.2730   20.9780  -27.3960 C   0  0  0  0  0  0  0  0  0  0  0  0
   -0.9210   21.2950  -27.5540 C   0  0  0  0  0  0  0  0  0  0  0  0
   -0.5470   22.4050  -28.3180 C   0  0  0  0  0  0  0  0  0  0  0  0
   -1.5260   23.2000  -28.9230 C   0  0  0  0  0  0  0  0  0  0  0  0
   -7.3390   24.5322  -29.7091 H   0  0  0  0  0  0  0  0  0  0  0  0
   -6.6835   25.1786  -31.2515 H   0  0  0  0  0  0  0  0  0  0  0  0
   -8.2082   24.2289  -31.2515 H   0  0  0  0  0  0  0  0  0  0  0  0
   -7.0292   18.8781  -30.5777 H   0  0  0  0  0  0  0  0  0  0  0  0
   -7.2570   16.6495  -31.6765 H   0  0  0  0  0  0  0  0  0  0  0  0
   -6.4726   16.3254  -34.0235 H   0  0  0  0  0  0  0  0  0  0  0  0
   -5.4613   18.2331  -35.2779 H   0  0  0  0  0  0  0  0  0  0  0  0
   -5.2217   20.4627  -34.1835 H   0  0  0  0  0  0  0  0  0  0  0  0
   -1.0515   20.6280  -30.0988 H   0  0  0  0  0  0  0  0  0  0  0  0
    0.8385   20.7621  -31.7185 H   0  0  0  0  0  0  0  0  0  0  0  0
    1.4722   19.1312  -36.8798 H   0  0  0  0  0  0  0  0  0  0  0  0
    1.7501   20.9070  -36.7244 H   0  0  0  0  0  0  0  0  0  0  0  0
    3.7817   19.1876  -37.0508 H   0  0  0  0  0  0  0  0  0  0  0  0
    3.9005   20.6639  -35.9755 H   0  0  0  0  0  0  0  0  0  0  0  0
    4.6000   18.2090  -35.2720 H   0  0  0  0  0  0  0  0  0  0  0  0
    4.0408   19.1848  -32.8952 H   0  0  0  0  0  0  0  0  0  0  0  0
    5.4323   19.6896  -33.9129 H   0  0  0  0  0  0  0  0  0  0  0  0
    3.9207   20.6601  -33.9129 H   0  0  0  0  0  0  0  0  0  0  0  0
    2.4379   17.2740  -35.3542 H   0  0  0  0  0  0  0  0  0  0  0  0
    3.0734   17.3636  -33.6567 H   0  0  0  0  0  0  0  0  0  0  0  0
    0.5857   18.0859  -34.1617 H   0  0  0  0  0  0  0  0  0  0  0  0
    1.6141   19.0675  -33.0478 H   0  0  0  0  0  0  0  0  0  0  0  0
   -1.9796   21.3470  -34.9554 H   0  0  0  0  0  0  0  0  0  0  0  0
   -3.8663   21.2196  -33.3360 H   0  0  0  0  0  0  0  0  0  0  0  0
   -4.3175   21.5203  -27.8753 H   0  0  0  0  0  0  0  0  0  0  0  0
   -2.5661   20.1036  -26.7963 H   0  0  0  0  0  0  0  0  0  0  0  0
   -0.1507   20.6711  -27.0772 H   0  0  0  0  0  0  0  0  0  0  0  0
    0.5173   22.6530  -28.4432 H   0  0  0  0  0  0  0  0  0  0  0  0
   -1.2301   24.0719  -29.5249 H   0  0  0  0  0  0  0  0  0  0  0  0
  1  2  1  0
  2  3  2  0
  3  4  1  0
  4  5  1  0
  5  6  2  0
  6  7  1  0
  7  8  2  0
  8  9  1  0
  9 10  2  0
  4 11  1  0
 11 12  1  0
 12 13  1  0
 13 14  2  0
 14 15  1  0
 15 16  2  0
 16 17  1  0
 17 18  2  0
 17 19  1  0
 19 20  1  0
 20 21  1  0
 21 22  1  0
 22 23  1  0
 22 24  1  0
 24 25  1  0
 16 26  1  0
 26 27  2  0
 11 28  2  0
 28 29  1  0
 29 30  2  0
 29 31  2  0
 29 32  1  0
 32 33  2  0
 33 34  1  0
 34 35  2  0
 35 36  1  0
 36 37  2  0
 28  2  1  0
 37 32  1  0
 10  5  1  0
 27 13  1  0
 25 19  1  0
  1 38  1  0
  1 39  1  0
  1 40  1  0
  6 41  1  0
  7 42  1  0
  8 43  1  0
  9 44  1  0
 10 45  1  0
 14 46  1  0
 15 47  1  0
 20 48  1  0
 20 49  1  0
 21 50  1  0
 21 51  1  0
 22 52  1  0
 23 53  1  0
 23 54  1  0
 23 55  1  0
 24 56  1  0
 24 57  1  0
 25 58  1  0
 25 59  1  0
 26 60  1  0
 27 61  1  0
 33 62  1  0
 34 63  1  0
 35 64  1  0
 36 65  1  0
 37 66  1  0
M  CHG  1  22   1
M  END
>  <UniqueID>  (28) 
27

>  <SMILES>  (28) 
Cc1nn(-c2ccccc2)c(Oc2ccc(C(=O)N3CC[NH+](C)CC3)cc2)c1S(=O)(=O)c1ccccc1

>  <Energy>  (28) 
124.49760065644864

>  <Genealogy>  (28) 
Cc1nn(-c2ccccc2)c(Oc2ccc(C(=O)N3CC[NH+](C)CC3)cc2)c1S(=O)(=O)c1ccccc1 (protonated)
Cc1nn(-c2ccccc2)c(Oc2ccc(C(=O)N3CC[NH+](C)CC3)cc2)c1S(=O)(=O)c1ccccc1 (3D coordinates assigned)
Cc1nn(-c2ccccc2)c(Oc2ccc(C(=O)N3CC[NH+](C)CC3)cc2)c1S(=O)(=O)c1ccccc1 (nonaromatic ring conformer: 124.49760065644864 kcal/mol)

>  <smiles>  (28) 
Cc1nn(-c2ccccc2)c(Oc2ccc(C(=O)N3CCN(C)CC3)cc2)c1S(=O)(=O)c1ccccc1

>  <score_type>  (28) 
oracle

>  <origin>  (28) 
adgpu

>  <m_score__min__energy>  (28) 
-10.09

>  <m_primary>  (28) 
energy

$$$$
28:0
     RDKit          3D

 69 72  0  0  0  0  0  0  0  0999 V2000
   -9.1350   18.5950  -32.0880 C   0  0  0  0  0  0  0  0  0  0  0  0
   -8.7350   19.4950  -31.0580 O   0  0  0  0  0  0  0  0  0  0  0  0
   -7.9730   20.6550  -31.2670 C   0  0  0  0  0  0  0  0  0  0  0  0
   -8.2800   21.8740  -30.6340 C   0  0  0  0  0  0  0  0  0  0  0  0
   -7.4960   23.0070  -30.8650 C   0  0  0  0  0  0  0  0  0  0  0  0
   -6.3870   22.9390  -31.7180 C   0  0  0  0  0  0  0  0  0  0  0  0
   -5.5710   24.1770  -31.9950 C   0  0  0  0  0  0  0  0  0  0  0  0
   -5.3000   24.9860  -30.7190 C   0  0  0  0  0  0  0  0  0  0  0  0
   -3.8670   25.1200  -30.4860 N   0  0  0  0  0  0  0  0  0  0  0  0
   -3.1350   24.3170  -29.5500 C   0  0  0  0  0  0  0  0  0  0  0  0
   -3.0850   24.6570  -28.3370 O   0  0  0  0  0  0  0  0  0  0  0  0
   -2.4150   23.1120  -30.0220 C   0  0  0  0  0  0  0  0  0  0  0  0
   -2.8360   22.4910  -31.2100 C   0  0  0  0  0  0  0  0  0  0  0  0
   -2.1450   21.3910  -31.7310 C   0  0  0  0  0  0  0  0  0  0  0  0
   -2.6740   20.6440  -33.2390 S   0  0  0  0  0  0  0  0  0  0  0  0
   -3.2500   19.2870  -32.9450 O   0  0  0  0  0  0  0  0  0  0  0  0
   -3.7680   21.4870  -33.8370 O   0  0  0  0  0  0  0  0  0  0  0  0
   -1.3760   20.4850  -34.4050 N   0  0  0  0  0  0  0  0  0  0  0  0
   -0.3370   21.5340  -34.2660 C   0  0  0  0  0  0  0  0  0  0  0  0
    1.0820   20.9820  -34.0670 C   0  0  0  0  0  0  0  0  0  0  0  0
    1.0680   19.8540  -33.0430 C   0  0  0  0  0  0  0  0  0  0  0  0
    0.1730   18.6940  -33.5010 C   0  0  0  0  0  0  0  0  0  0  0  0
   -0.8860   19.0970  -34.5480 C   0  0  0  0  0  0  0  0  0  0  0  0
   -1.0050   20.9170  -31.0710 C   0  0  0  0  0  0  0  0  0  0  0  0
   -0.5810   21.5130  -29.8840 C   0  0  0  0  0  0  0  0  0  0  0  0
   -1.2780   22.6040  -29.3470 C   0  0  0  0  0  0  0  0  0  0  0  0
   -0.8600   23.1460  -28.0870 N   0  0  0  0  0  0  0  0  0  0  0  0
    0.0520   24.2690  -27.9670 C   0  0  0  0  0  0  0  0  0  0  0  0
    0.5090   24.2670  -26.5130 C   0  0  0  0  0  0  0  0  0  0  0  0
   -0.4640   23.3530  -25.7680 C   0  0  0  0  0  0  0  0  0  0  0  0
   -1.0760   22.4530  -26.8320 C   0  0  0  0  0  0  0  0  0  0  0  0
   -6.0790   21.7250  -32.3530 C   0  0  0  0  0  0  0  0  0  0  0  0
   -6.8740   20.5830  -32.1370 C   0  0  0  0  0  0  0  0  0  0  0  0
   -6.6090   19.3590  -32.7730 O   0  0  0  0  0  0  0  0  0  0  0  0
   -6.0420   19.2290  -34.0740 C   0  0  0  0  0  0  0  0  0  0  0  0
   -9.5423   17.6785  -31.6363 H   0  0  0  0  0  0  0  0  0  0  0  0
   -9.9064   19.0707  -32.7114 H   0  0  0  0  0  0  0  0  0  0  0  0
   -8.2650   18.3411  -32.7114 H   0  0  0  0  0  0  0  0  0  0  0  0
   -9.1421   21.9350  -29.9535 H   0  0  0  0  0  0  0  0  0  0  0  0
   -7.7510   23.9579  -30.3743 H   0  0  0  0  0  0  0  0  0  0  0  0
   -4.6090   23.8767  -32.4358 H   0  0  0  0  0  0  0  0  0  0  0  0
   -6.1441   24.8137  -32.6850 H   0  0  0  0  0  0  0  0  0  0  0  0
   -5.7433   25.9871  -30.8256 H   0  0  0  0  0  0  0  0  0  0  0  0
   -5.7485   24.4579  -29.8646 H   0  0  0  0  0  0  0  0  0  0  0  0
   -3.7213   22.8748  -31.7381 H   0  0  0  0  0  0  0  0  0  0  0  0
   -0.3440   22.1512  -35.1765 H   0  0  0  0  0  0  0  0  0  0  0  0
   -0.5847   22.1109  -33.3628 H   0  0  0  0  0  0  0  0  0  0  0  0
    1.4604   20.5979  -35.0258 H   0  0  0  0  0  0  0  0  0  0  0  0
    1.7340   21.7897  -33.7029 H   0  0  0  0  0  0  0  0  0  0  0  0
    2.0941   19.4820  -32.9060 H   0  0  0  0  0  0  0  0  0  0  0  0
    0.6670   20.2489  -32.0979 H   0  0  0  0  0  0  0  0  0  0  0  0
    0.8136   17.9143  -33.9388 H   0  0  0  0  0  0  0  0  0  0  0  0
   -0.3733   18.3426  -32.6133 H   0  0  0  0  0  0  0  0  0  0  0  0
   -0.4420   18.9884  -35.5485 H   0  0  0  0  0  0  0  0  0  0  0  0
   -1.7522   18.4365  -34.3948 H   0  0  0  0  0  0  0  0  0  0  0  0
   -0.4414   20.0707  -31.4907 H   0  0  0  0  0  0  0  0  0  0  0  0
    0.3074   21.1240  -29.3650 H   0  0  0  0  0  0  0  0  0  0  0  0
    0.9119   24.1399  -28.6407 H   0  0  0  0  0  0  0  0  0  0  0  0
   -0.4304   25.2184  -28.2425 H   0  0  0  0  0  0  0  0  0  0  0  0
    1.5349   23.8779  -26.4351 H   0  0  0  0  0  0  0  0  0  0  0  0
    0.5129   25.2824  -26.0900 H   0  0  0  0  0  0  0  0  0  0  0  0
    0.0713   22.7520  -25.0182 H   0  0  0  0  0  0  0  0  0  0  0  0
   -1.2322   23.9281  -25.2303 H   0  0  0  0  0  0  0  0  0  0  0  0
   -0.5767   21.4729  -26.8418 H   0  0  0  0  0  0  0  0  0  0  0  0
   -2.1434   22.2636  -26.6456 H   0  0  0  0  0  0  0  0  0  0  0  0
   -5.2098   21.6657  -33.0245 H   0  0  0  0  0  0  0  0  0  0  0  0
   -4.9733   18.9840  -33.9854 H   0  0  0  0  0  0  0  0  0  0  0  0
   -6.5582   18.4259  -34.6204 H   0  0  0  0  0  0  0  0  0  0  0  0
   -6.1568   20.1768  -34.6204 H   0  0  0  0  0  0  0  0  0  0  0  0
  1  2  1  0
  2  3  1  0
  3  4  2  0
  4  5  1  0
  5  6  2  0
  6  7  1  0
  7  8  1  0
  8  9  1  0
  9 10  1  0
 10 11  2  0
 10 12  1  0
 12 13  2  0
 13 14  1  0
 14 15  1  0
 15 16  2  0
 15 17  2  0
 15 18  1  0
 18 19  1  0
 19 20  1  0
 20 21  1  0
 21 22  1  0
 22 23  1  0
 14 24  2  0
 24 25  1  0
 25 26  2  0
 26 27  1  0
 27 28  1  0
 28 29  1  0
 29 30  1  0
 30 31  1  0
  6 32  1  0
 32 33  2  0
 33 34  1  0
 34 35  1  0
 33  3  1  0
 26 12  1  0
 31 27  1  0
 23 18  1  0
  1 36  1  0
  1 37  1  0
  1 38  1  0
  4 39  1  0
  5 40  1  0
  7 41  1  0
  7 42  1  0
  8 43  1  0
  8 44  1  0
 13 45  1  0
 19 46  1  0
 19 47  1  0
 20 48  1  0
 20 49  1  0
 21 50  1  0
 21 51  1  0
 22 52  1  0
 22 53  1  0
 23 54  1  0
 23 55  1  0
 24 56  1  0
 25 57  1  0
 28 58  1  0
 28 59  1  0
 29 60  1  0
 29 61  1  0
 30 62  1  0
 30 63  1  0
 31 64  1  0
 31 65  1  0
 32 66  1  0
 35 67  1  0
 35 68  1  0
 35 69  1  0
M  CHG  1   9  -1
M  END
>  <UniqueID>  (29) 
28

>  <SMILES>  (29) 
COc1ccc(CC[N-]C(=O)c2cc(S(=O)(=O)N3CCCCC3)ccc2N2CCCC2)cc1OC

>  <Energy>  (29) 
77.72563350281052

>  <Genealogy>  (29) 
COc1ccc(CC[N-]C(=O)c2cc(S(=O)(=O)N3CCCCC3)ccc2N2CCCC2)cc1OC (protonated)
COc1ccc(CC[N-]C(=O)c2cc(S(=O)(=O)N3CCCCC3)ccc2N2CCCC2)cc1OC (3D coordinates assigned)
COc1ccc(CC[N-]C(=O)c2cc(S(=O)(=O)N3CCCCC3)ccc2N2CCCC2)cc1OC (nonaromatic ring conformer: 77.72563350281052 kcal/mol)

>  <smiles>  (29) 
COc1ccc(CCNC(=O)c2cc(S(=O)(=O)N3CCCCC3)ccc2N2CCCC2)cc1OC

>  <score_type>  (29) 
oracle

>  <origin>  (29) 
adgpu

>  <m_score__min__energy>  (29) 
-9.9100000000000001

>  <m_primary>  (29) 
energy

$$$$
29:0
     RDKit          3D

 62 66  0  0  0  0  0  0  0  0999 V2000
   -2.0813   26.2134  -27.4699 H   0  0  0  0  0  0  0  0  0  0  0  0
   -1.5210   25.6530  -26.7070 C   0  0  0  0  0  0  0  0  0  0  0  0
   -1.3590   24.3250  -26.8560 C   0  0  0  0  0  0  0  0  0  0  0  0
   -1.9280   23.6220  -28.0380 C   0  0  0  0  0  0  0  0  0  0  0  0
   -1.6030   22.2770  -28.2860 C   0  0  0  0  0  0  0  0  0  0  0  0
   -0.9202   21.7462  -27.6063 H   0  0  0  0  0  0  0  0  0  0  0  0
   -2.1400   21.6100  -29.3880 C   0  0  0  0  0  0  0  0  0  0  0  0
   -1.8887   20.5534  -29.5624 H   0  0  0  0  0  0  0  0  0  0  0  0
   -2.9950   22.2750  -30.2720 C   0  0  0  0  0  0  0  0  0  0  0  0
   -3.5500   21.5460  -31.3750 N   0  0  0  0  0  0  0  0  0  0  0  0
   -4.8160   21.3530  -31.6340 C   0  0  0  0  0  0  0  0  0  0  0  0
   -5.1760   20.5620  -32.7150 N   0  0  0  0  0  0  0  0  0  0  0  0
   -4.1310   19.9490  -33.5640 C   0  0  0  0  0  0  0  0  0  0  0  0
   -4.1660   20.4032  -34.5652 H   0  0  0  0  0  0  0  0  0  0  0  0
   -3.1489   20.1250  -33.1008 H   0  0  0  0  0  0  0  0  0  0  0  0
   -4.3520   18.4630  -33.6860 C   0  0  0  0  0  0  0  0  0  0  0  0
   -3.9530   17.7830  -34.8490 C   0  0  0  0  0  0  0  0  0  0  0  0
   -3.4956   18.3405  -35.6797 H   0  0  0  0  0  0  0  0  0  0  0  0
   -4.1350   16.4000  -34.9550 C   0  0  0  0  0  0  0  0  0  0  0  0
   -3.8255   15.8742  -35.8703 H   0  0  0  0  0  0  0  0  0  0  0  0
   -4.7100   15.6840  -33.8990 C   0  0  0  0  0  0  0  0  0  0  0  0
   -4.9330   13.9490  -34.0320 Cl  0  0  0  0  0  0  0  0  0  0  0  0
   -5.1040   16.3540  -32.7360 C   0  0  0  0  0  0  0  0  0  0  0  0
   -5.5508   15.7913  -31.9031 H   0  0  0  0  0  0  0  0  0  0  0  0
   -4.9310   17.7380  -32.6300 C   0  0  0  0  0  0  0  0  0  0  0  0
   -5.2494   18.2613  -31.7163 H   0  0  0  0  0  0  0  0  0  0  0  0
   -6.5060   20.3680  -33.0120 C   0  0  0  0  0  0  0  0  0  0  0  0
   -6.8640   19.6610  -33.9940 O   0  0  0  0  0  0  0  0  0  0  0  0
   -7.4650   20.9670  -32.2120 C   0  0  0  0  0  0  0  0  0  0  0  0
   -9.1410   20.9170  -32.3190 S   0  0  0  0  0  0  0  0  0  0  0  0
   -9.4050   21.9220  -30.9820 C   0  0  0  0  0  0  0  0  0  0  0  0
  -10.3892   22.2268  -30.5968 H   0  0  0  0  0  0  0  0  0  0  0  0
   -8.1740   22.3010  -30.4480 C   0  0  0  0  0  0  0  0  0  0  0  0
   -8.0628   22.9566  -29.5717 H   0  0  0  0  0  0  0  0  0  0  0  0
   -7.0950   21.7530  -31.1530 C   0  0  0  0  0  0  0  0  0  0  0  0
   -5.7870   21.9550  -30.8670 N   0  0  0  0  0  0  0  0  0  0  0  0
   -5.5450   22.5920  -30.0760 H   0  0  0  0  0  0  0  0  0  0  0  0
   -3.3690   23.6070  -30.0180 C   0  0  0  0  0  0  0  0  0  0  0  0
   -4.2900   24.2230  -30.8810 O   0  0  0  0  0  0  0  0  0  0  0  0
   -5.3710   25.0470  -30.4540 C   0  0  0  0  0  0  0  0  0  0  0  0
   -5.4020   25.0706  -29.3547 H   0  0  0  0  0  0  0  0  0  0  0  0
   -5.2283   26.0676  -30.8388 H   0  0  0  0  0  0  0  0  0  0  0  0
   -6.3173   24.6390  -30.8388 H   0  0  0  0  0  0  0  0  0  0  0  0
   -2.8240   24.2760  -28.9050 C   0  0  0  0  0  0  0  0  0  0  0  0
   -3.1018   25.3224  -28.7106 H   0  0  0  0  0  0  0  0  0  0  0  0
   -0.5130   23.5540  -25.8680 C   0  0  0  0  0  0  0  0  0  0  0  0
   -0.8983   22.5263  -25.7941 H   0  0  0  0  0  0  0  0  0  0  0  0
    0.5264   23.5598  -26.2280 H   0  0  0  0  0  0  0  0  0  0  0  0
   -0.5410   24.1950  -24.4800 C   0  0  0  0  0  0  0  0  0  0  0  0
   -1.5552   24.1141  -24.0618 H   0  0  0  0  0  0  0  0  0  0  0  0
    0.1745   23.6737  -23.8270 H   0  0  0  0  0  0  0  0  0  0  0  0
   -0.1500   25.6680  -24.5770 C   0  0  0  0  0  0  0  0  0  0  0  0
   -0.2911   26.1446  -23.5957 H   0  0  0  0  0  0  0  0  0  0  0  0
    0.9038   25.7350  -24.8854 H   0  0  0  0  0  0  0  0  0  0  0  0
   -0.9790   26.3600  -25.5730 N   0  0  0  0  0  0  0  0  0  0  0  0
   -1.1630   27.8120  -25.4810 C   0  0  0  0  0  0  0  0  0  0  0  0
   -0.7579   28.1675  -24.5221 H   0  0  0  0  0  0  0  0  0  0  0  0
   -2.2375   28.0377  -25.5480 H   0  0  0  0  0  0  0  0  0  0  0  0
   -0.4400   28.5200  -26.6240 C   0  0  0  0  0  0  0  0  0  0  0  0
    0.2885   29.2333  -26.2111 H   0  0  0  0  0  0  0  0  0  0  0  0
    0.0847   27.7767  -27.2423 H   0  0  0  0  0  0  0  0  0  0  0  0
   -1.1721   29.0601  -27.2423 H   0  0  0  0  0  0  0  0  0  0  0  0
  1  2  1  0
  2  3  2  0
  3  4  1  0
  4  5  2  0
  5  6  1  0
  5  7  1  0
  7  8  1  0
  7  9  2  0
  9 10  1  0
 10 11  2  0
 11 12  1  0
 12 13  1  0
 13 14  1  0
 13 15  1  0
 13 16  1  0
 16 17  2  0
 17 18  1  0
 17 19  1  0
 19 20  1  0
 19 21  2  0
 21 22  1  0
 21 23  1  0
 23 24  1  0
 23 25  2  0
 25 26  1  0
 12 27  1  0
 27 28  2  0
 27 29  1  0
 29 30  1  0
 30 31  1  0
 31 32  1  0
 31 33  2  0
 33 34  1  0
 33 35  1  0
 35 36  1  0
 36 37  1  0
  9 38  1  0
 38 39  1  0
 39 40  1  0
 40 41  1  0
 40 42  1  0
 40 43  1  0
 38 44  2  0
 44 45  1  0
  3 46  1  0
 46 47  1  0
 46 48  1  0
 46 49  1  0
 49 50  1  0
 49 51  1  0
 49 52  1  0
 52 53  1  0
 52 54  1  0
 52 55  1  0
 55 56  1  0
 56 57  1  0
 56 58  1  0
 56 59  1  0
 59 60  1  0
 59 61  1  0
 59 62  1  0
 55  2  1  0
 44  4  1  0
 36 11  1  0
 25 16  1  0
 35 29  2  0
M  END
>  <UniqueID>  (30) 
29

>  <SMILES>  (30) 
CCN1C=C(c2ccc(/N=c3\[nH]c4ccsc4c(=O)n3Cc3ccc(Cl)cc3)c(OC)c2)CCC1

>  <Energy>  (30) 
109.30190609974804

>  <Genealogy>  (30) 
CCN1C=C(c2ccc(/N=c3\[nH]c4ccsc4c(=O)n3Cc3ccc(Cl)cc3)c(OC)c2)CCC1 (cis-trans isomerization)
CCN1C=C(c2ccc(/N=c3\[nH]c4ccsc4c(=O)n3Cc3ccc(Cl)cc3)c(OC)c2)CCC1 (3D coordinates assigned)
CCN1C=C(c2ccc(/N=c3\[nH]c4ccsc4c(=O)n3Cc3ccc(Cl)cc3)c(OC)c2)CCC1 (nonaromatic ring conformer: 109.30190609974804 kcal/mol)

>  <smiles>  (30) 
CCN1C=C(c2ccc(N=c3[nH]c4ccsc4c(=O)n3Cc3ccc(Cl)cc3)c(OC)c2)CCC1

>  <score_type>  (30) 
oracle

>  <origin>  (30) 
adgpu

>  <m_score__min__energy>  (30) 
-9.8100000000000005

>  <m_primary>  (30) 
energy

$$$$
30:0
     RDKit          3D

 58 61  0  0  0  0  0  0  0  0999 V2000
   -1.0960   19.9110  -28.1150 C   0  0  0  0  0  0  0  0  0  0  0  0
   -0.8570   19.8510  -29.5950 C   0  0  0  0  0  0  0  0  0  0  0  0
    0.2070   19.0910  -30.1070 C   0  0  0  0  0  0  0  0  0  0  0  0
    0.4480   19.0550  -31.4840 C   0  0  0  0  0  0  0  0  0  0  0  0
   -0.3600   19.7930  -32.3610 C   0  0  0  0  0  0  0  0  0  0  0  0
   -0.1080   19.6870  -34.1000 S   0  0  0  0  0  0  0  0  0  0  0  0
    1.1900   20.3440  -34.4830 O   0  0  0  0  0  0  0  0  0  0  0  0
   -1.2320   20.3830  -34.8130 O   0  0  0  0  0  0  0  0  0  0  0  0
   -0.0820   18.0210  -34.5580 N   0  0  0  0  0  0  0  0  0  0  0  0
   -1.3020   17.2840  -34.6270 C   0  0  0  0  0  0  0  0  0  0  0  0
   -2.3790   17.6370  -33.8020 C   0  0  0  0  0  0  0  0  0  0  0  0
   -3.5980   16.9430  -33.8860 C   0  0  0  0  0  0  0  0  0  0  0  0
   -4.7300   17.3180  -33.0030 C   0  0  0  0  0  0  0  0  0  0  0  0
   -5.5360   16.4250  -32.6210 O   0  0  0  0  0  0  0  0  0  0  0  0
   -4.9280   18.6770  -32.5700 N   0  0  0  0  0  0  0  0  0  0  0  0
   -5.4300   18.9650  -31.2240 C   0  0  0  0  0  0  0  0  0  0  0  0
   -6.7960   19.6710  -31.3120 C   0  0  0  0  0  0  0  0  0  0  0  0
   -6.7690   20.9220  -32.2500 C   0  0  0  0  0  0  0  0  0  0  0  0
   -8.0850   21.3990  -32.4030 O   0  0  0  0  0  0  0  0  0  0  0  0
   -5.9390   22.1030  -31.7030 C   0  0  0  0  0  0  0  0  0  0  0  0
   -4.5430   21.9500  -31.5390 C   0  0  0  0  0  0  0  0  0  0  0  0
   -3.7500   23.0010  -31.0720 C   0  0  0  0  0  0  0  0  0  0  0  0
   -4.3240   24.2430  -30.7960 C   0  0  0  0  0  0  0  0  0  0  0  0
   -3.5350   25.2840  -30.3260 O   0  0  0  0  0  0  0  0  0  0  0  0
   -5.6870   24.4390  -31.0060 C   0  0  0  0  0  0  0  0  0  0  0  0
   -6.4860   23.3900  -31.4710 C   0  0  0  0  0  0  0  0  0  0  0  0
   -6.2300   20.4530  -33.6380 C   0  0  0  0  0  0  0  0  0  0  0  0
   -4.8520   19.7930  -33.5210 C   0  0  0  0  0  0  0  0  0  0  0  0
   -3.7330   15.9120  -34.8330 C   0  0  0  0  0  0  0  0  0  0  0  0
   -2.6580   15.5620  -35.6580 C   0  0  0  0  0  0  0  0  0  0  0  0
   -1.4390   16.2430  -35.5560 C   0  0  0  0  0  0  0  0  0  0  0  0
   -0.3680   15.9020  -36.3840 O   0  0  0  0  0  0  0  0  0  0  0  0
   -1.4160   20.5610  -31.8510 C   0  0  0  0  0  0  0  0  0  0  0  0
   -1.6570   20.5980  -30.4740 C   0  0  0  0  0  0  0  0  0  0  0  0
   -0.1622   19.6766  -27.5830 H   0  0  0  0  0  0  0  0  0  0  0  0
   -1.4318   20.9213  -27.8385 H   0  0  0  0  0  0  0  0  0  0  0  0
   -1.8692   19.1791  -27.8385 H   0  0  0  0  0  0  0  0  0  0  0  0
    0.8532   18.5219  -29.4225 H   0  0  0  0  0  0  0  0  0  0  0  0
    1.2738   18.4460  -31.8804 H   0  0  0  0  0  0  0  0  0  0  0  0
   -2.2691   18.4630  -33.0839 H   0  0  0  0  0  0  0  0  0  0  0  0
   -5.5419   18.0228  -30.6675 H   0  0  0  0  0  0  0  0  0  0  0  0
   -4.7164   19.6219  -30.7050 H   0  0  0  0  0  0  0  0  0  0  0  0
   -7.5372   18.9565  -31.6994 H   0  0  0  0  0  0  0  0  0  0  0  0
   -7.0562   20.0188  -30.3014 H   0  0  0  0  0  0  0  0  0  0  0  0
   -8.3820   21.2230  -33.3350 H   0  0  0  0  0  0  0  0  0  0  0  0
   -4.0729   20.9861  -31.7835 H   0  0  0  0  0  0  0  0  0  0  0  0
   -2.6709   22.8494  -30.9215 H   0  0  0  0  0  0  0  0  0  0  0  0
   -6.1365   25.4227  -30.8053 H   0  0  0  0  0  0  0  0  0  0  0  0
   -7.5553   23.5661  -31.6597 H   0  0  0  0  0  0  0  0  0  0  0  0
   -6.9367   19.7277  -34.0676 H   0  0  0  0  0  0  0  0  0  0  0  0
   -6.1308   21.3386  -34.2828 H   0  0  0  0  0  0  0  0  0  0  0  0
   -4.5404   19.4157  -34.5062 H   0  0  0  0  0  0  0  0  0  0  0  0
   -4.1186   20.5315  -33.1649 H   0  0  0  0  0  0  0  0  0  0  0  0
   -4.6898   15.3772  -34.9259 H   0  0  0  0  0  0  0  0  0  0  0  0
   -2.7713   14.7484  -36.3896 H   0  0  0  0  0  0  0  0  0  0  0  0
    0.5140   16.4030  -36.3450 H   0  0  0  0  0  0  0  0  0  0  0  0
   -2.0567   21.1360  -32.5357 H   0  0  0  0  0  0  0  0  0  0  0  0
   -2.4770   21.2151  -30.0779 H   0  0  0  0  0  0  0  0  0  0  0  0
  1  2  1  0
  2  3  2  0
  3  4  1  0
  4  5  2  0
  5  6  1  0
  6  7  2  0
  6  8  2  0
  6  9  1  0
  9 10  1  0
 10 11  2  0
 11 12  1  0
 12 13  1  0
 13 14  2  0
 13 15  1  0
 15 16  1  0
 16 17  1  0
 17 18  1  0
 18 19  1  0
 18 20  1  0
 20 21  2  0
 21 22  1  0
 22 23  2  0
 23 24  1  0
 23 25  1  0
 25 26  2  0
 18 27  1  0
 27 28  1  0
 12 29  2  0
 29 30  1  0
 30 31  2  0
 31 32  1  0
  5 33  1  0
 33 34  2  0
 34  2  1  0
 31 10  1  0
 28 15  1  0
 26 20  1  0
  1 35  1  0
  1 36  1  0
  1 37  1  0
  3 38  1  0
  4 39  1  0
 11 40  1  0
 16 41  1  0
 16 42  1  0
 17 43  1  0
 17 44  1  0
 19 45  1  0
 21 46  1  0
 22 47  1  0
 25 48  1  0
 26 49  1  0
 27 50  1  0
 27 51  1  0
 28 52  1  0
 28 53  1  0
 29 54  1  0
 30 55  1  0
 32 56  1  0
 33 57  1  0
 34 58  1  0
M  CHG  2   9  -1  24  -1
M  END
>  <UniqueID>  (31) 
30

>  <SMILES>  (31) 
Cc1ccc(S(=O)(=O)[N-]c2cc(C(=O)N3CCC(O)(c4ccc([O-])cc4)CC3)ccc2O)cc1

>  <Energy>  (31) 
81.80505579353921

>  <Genealogy>  (31) 
Cc1ccc(S(=O)(=O)[N-]c2cc(C(=O)N3CCC(O)(c4ccc([O-])cc4)CC3)ccc2O)cc1 (protonated)
Cc1ccc(S(=O)(=O)[N-]c2cc(C(=O)N3CCC(O)(c4ccc([O-])cc4)CC3)ccc2O)cc1 (3D coordinates assigned)
Cc1ccc(S(=O)(=O)[N-]c2cc(C(=O)N3CCC(O)(c4ccc([O-])cc4)CC3)ccc2O)cc1 (nonaromatic ring conformer: 81.80505579353921 kcal/mol)

>  <smiles>  (31) 
Cc1ccc(S(=O)(=O)Nc2cc(C(=O)N3CCC(O)(c4ccc(O)cc4)CC3)ccc2O)cc1

>  <score_type>  (31) 
oracle

>  <origin>  (31) 
adgpu

>  <m_score__min__energy>  (31) 
-11.470000000000001

>  <m_primary>  (31) 
energy

$$$$
31:0
     RDKit          3D

 56 59  0  0  0  0  0  0  0  0999 V2000
   -4.5200   23.5280  -31.6530 O   0  0  0  0  0  0  0  0  0  0  0  0
   -4.6770   23.4300  -30.4050 C   0  0  0  0  0  0  0  0  0  0  0  0
   -5.9110   22.9190  -29.8680 N   0  0  0  0  0  0  0  0  0  0  0  0
   -7.0140   22.4800  -30.6770 C   0  0  0  0  0  0  0  0  0  0  0  0
   -7.9350   23.3930  -31.2210 C   0  0  0  0  0  0  0  0  0  0  0  0
   -8.9810   22.9410  -32.0280 C   0  0  0  0  0  0  0  0  0  0  0  0
   -9.1150   21.5790  -32.3090 C   0  0  0  0  0  0  0  0  0  0  0  0
   -8.1930   20.6610  -31.7880 C   0  0  0  0  0  0  0  0  0  0  0  0
   -8.3310   18.9410  -32.1480 S   0  0  0  0  0  0  0  0  0  0  0  0
   -7.9720   18.1670  -30.9100 O   0  0  0  0  0  0  0  0  0  0  0  0
   -9.7460   18.6050  -32.5340 O   0  0  0  0  0  0  0  0  0  0  0  0
   -7.2340   18.5220  -33.4460 N   0  0  0  0  0  0  0  0  0  0  0  0
   -6.2660   17.5140  -32.9980 C   0  0  0  0  0  0  0  0  0  0  0  0
   -5.0040   18.2350  -32.5360 C   0  0  0  0  0  0  0  0  0  0  0  0
   -5.1400   19.6620  -33.0330 C   0  0  0  0  0  0  0  0  0  0  0  0
   -6.4330   19.6890  -33.8360 C   0  0  0  0  0  0  0  0  0  0  0  0
   -7.1390   21.1170  -30.9860 C   0  0  0  0  0  0  0  0  0  0  0  0
   -3.6040   23.8170  -29.5310 N   0  0  0  0  0  0  0  0  0  0  0  0
   -3.8570   24.5480  -28.2840 C   0  0  0  0  0  0  0  0  0  0  0  0
   -3.1970   23.8290  -27.0950 C   0  0  0  0  0  0  0  0  0  0  0  0
   -1.7970   23.2270  -27.4340 C   0  0  0  0  0  0  0  0  0  0  0  0
   -1.7570   21.6970  -27.3980 C   0  0  0  0  0  0  0  0  0  0  0  0
   -2.9510   20.9420  -27.4510 C   0  0  0  0  0  0  0  0  0  0  0  0
   -2.9160   19.5470  -27.4540 C   0  0  0  0  0  0  0  0  0  0  0  0
   -1.6940   18.8770  -27.4210 C   0  0  0  0  0  0  0  0  0  0  0  0
   -0.5030   19.6000  -27.4070 C   0  0  0  0  0  0  0  0  0  0  0  0
   -0.5220   21.0010  -27.4120 C   0  0  0  0  0  0  0  0  0  0  0  0
    1.0320   21.8330  -27.4420 Cl  0  0  0  0  0  0  0  0  0  0  0  0
   -1.2370   23.7540  -28.7730 C   0  0  0  0  0  0  0  0  0  0  0  0
   -2.2190   23.5280  -29.9320 C   0  0  0  0  0  0  0  0  0  0  0  0
   -6.0410   22.8980  -28.8330 H   0  0  0  0  0  0  0  0  0  0  0  0
   -7.8309   24.4675  -31.0099 H   0  0  0  0  0  0  0  0  0  0  0  0
   -9.7022   23.6599  -32.4440 H   0  0  0  0  0  0  0  0  0  0  0  0
   -9.9447   21.2269  -32.9396 H   0  0  0  0  0  0  0  0  0  0  0  0
   -6.6903   16.9354  -32.1642 H   0  0  0  0  0  0  0  0  0  0  0  0
   -6.0287   16.8239  -33.8211 H   0  0  0  0  0  0  0  0  0  0  0  0
   -4.9319   18.2165  -31.4385 H   0  0  0  0  0  0  0  0  0  0  0  0
   -4.0956   17.7539  -32.9277 H   0  0  0  0  0  0  0  0  0  0  0  0
   -5.1987   20.3608  -32.1855 H   0  0  0  0  0  0  0  0  0  0  0  0
   -4.2751   19.9679  -33.6399 H   0  0  0  0  0  0  0  0  0  0  0  0
   -6.9887   20.6129  -33.6178 H   0  0  0  0  0  0  0  0  0  0  0  0
   -6.2142   19.6593  -34.9136 H   0  0  0  0  0  0  0  0  0  0  0  0
   -6.4024   20.3999  -30.5948 H   0  0  0  0  0  0  0  0  0  0  0  0
   -3.4420   25.5632  -28.3689 H   0  0  0  0  0  0  0  0  0  0  0  0
   -4.9426   24.5953  -28.1132 H   0  0  0  0  0  0  0  0  0  0  0  0
   -3.0765   24.5512  -26.2741 H   0  0  0  0  0  0  0  0  0  0  0  0
   -3.8527   22.9903  -26.8181 H   0  0  0  0  0  0  0  0  0  0  0  0
   -1.1407   23.5791  -26.6245 H   0  0  0  0  0  0  0  0  0  0  0  0
   -3.9201   21.4609  -27.4904 H   0  0  0  0  0  0  0  0  0  0  0  0
   -3.8549   18.9747  -27.4825 H   0  0  0  0  0  0  0  0  0  0  0  0
   -1.6700   17.7774  -27.4060 H   0  0  0  0  0  0  0  0  0  0  0  0
    0.4591   19.0670  -27.3919 H   0  0  0  0  0  0  0  0  0  0  0  0
   -1.0417   24.8323  -28.6772 H   0  0  0  0  0  0  0  0  0  0  0  0
   -0.3120   23.2023  -28.9969 H   0  0  0  0  0  0  0  0  0  0  0  0
   -1.9438   24.1887  -30.7673 H   0  0  0  0  0  0  0  0  0  0  0  0
   -2.1606   22.4713  -30.2319 H   0  0  0  0  0  0  0  0  0  0  0  0
  1  2  2  0
  2  3  1  0
  3  4  1  0
  4  5  2  0
  5  6  1  0
  6  7  2  0
  7  8  1  0
  8  9  1  0
  9 10  2  0
  9 11  2  0
  9 12  1  0
 12 13  1  0
 13 14  1  0
 14 15  1  0
 15 16  1  0
  8 17  2  0
  2 18  1  0
 18 19  1  0
 19 20  1  0
 20 21  1  0
 21 22  1  0
 22 23  2  0
 23 24  1  0
 24 25  2  0
 25 26  1  0
 26 27  2  0
 27 28  1  0
 21 29  1  0
 29 30  1  0
 17  4  1  0
 30 18  1  0
 16 12  1  0
 27 22  1  0
  3 31  1  0
  5 32  1  0
  6 33  1  0
  7 34  1  0
 13 35  1  0
 13 36  1  0
 14 37  1  0
 14 38  1  0
 15 39  1  0
 15 40  1  0
 16 41  1  0
 16 42  1  0
 17 43  1  0
 19 44  1  0
 19 45  1  0
 20 46  1  0
 20 47  1  0
 21 48  1  0
 23 49  1  0
 24 50  1  0
 25 51  1  0
 26 52  1  0
 29 53  1  0
 29 54  1  0
 30 55  1  0
 30 56  1  0
M  END
>  <UniqueID>  (32) 
31

>  <SMILES>  (32) 
O=C(Nc1cccc(S(=O)(=O)N2CCCC2)c1)N1CCC(c2ccccc2Cl)CC1

>  <Energy>  (32) 
71.76080951616748

>  <Genealogy>  (32) 
O=C(Nc1cccc(S(=O)(=O)N2CCCC2)c1)N1CCC(c2ccccc2Cl)CC1 (3D coordinates assigned)
O=C(Nc1cccc(S(=O)(=O)N2CCCC2)c1)N1CCC(c2ccccc2Cl)CC1 (nonaromatic ring conformer: 71.76080951616748 kcal/mol)

>  <smiles>  (32) 
O=C(Nc1cccc(S(=O)(=O)N2CCCC2)c1)N1CCC(c2ccccc2Cl)CC1

>  <score_type>  (32) 
oracle

>  <origin>  (32) 
adgpu

>  <m_score__min__energy>  (32) 
-9.9499999999999993

>  <m_primary>  (32) 
energy

$$$$
32:0
     RDKit          3D

 62 65  0  0  0  0  0  0  0  0999 V2000
   -5.8960   19.1750  -31.2780 C   0  0  0  0  0  0  0  0  0  0  0  0
   -4.6630   18.9290  -31.9470 O   0  0  0  0  0  0  0  0  0  0  0  0
   -4.5430   18.3160  -33.2050 C   0  0  0  0  0  0  0  0  0  0  0  0
   -5.6330   18.2470  -34.0950 C   0  0  0  0  0  0  0  0  0  0  0  0
   -5.4990   17.6180  -35.3340 C   0  0  0  0  0  0  0  0  0  0  0  0
   -4.2830   17.0430  -35.6950 C   0  0  0  0  0  0  0  0  0  0  0  0
   -3.1950   17.1040  -34.8260 C   0  0  0  0  0  0  0  0  0  0  0  0
   -3.2990   17.7520  -33.5840 C   0  0  0  0  0  0  0  0  0  0  0  0
   -2.0880   17.8330  -32.6670 C   0  0  0  0  0  0  0  0  0  0  0  0
   -1.2130   19.1220  -32.8160 C   0  0  2  0  0  0  0  0  0  0  0  0
   -0.8650   19.3570  -34.3130 C   0  0  0  0  0  0  0  0  0  0  0  0
    0.1480   19.0170  -32.0540 C   0  0  0  0  0  0  0  0  0  0  0  0
    0.1070   19.0670  -30.4850 C   0  0  0  0  0  0  0  0  0  0  0  0
    1.2860   19.9280  -29.9820 C   0  0  0  0  0  0  0  0  0  0  0  0
    0.2690   17.6520  -29.8860 C   0  0  0  0  0  0  0  0  0  0  0  0
   -1.1690   19.7000  -29.9680 C   0  0  0  0  0  0  0  0  0  0  0  0
   -1.4670   19.5930  -28.7460 O   0  0  0  0  0  0  0  0  0  0  0  0
   -2.0110   20.5280  -30.8490 C   0  0  0  0  0  0  0  0  0  0  0  0
   -2.7870   21.5640  -30.3000 C   0  0  0  0  0  0  0  0  0  0  0  0
   -3.5290   22.4160  -31.1230 C   0  0  0  0  0  0  0  0  0  0  0  0
   -4.3320   23.8360  -30.4490 S   0  0  0  0  0  0  0  0  0  0  0  0
   -5.2880   23.4450  -29.3590 O   0  0  0  0  0  0  0  0  0  0  0  0
   -5.1080   24.5280  -31.5350 O   0  0  0  0  0  0  0  0  0  0  0  0
   -3.1310   24.9260  -29.8330 N   0  0  0  0  0  0  0  0  0  0  0  0
   -2.2420   24.6110  -28.7530 C   0  0  0  0  0  0  0  0  0  0  0  0
   -2.2940   23.3770  -28.0880 C   0  0  0  0  0  0  0  0  0  0  0  0
   -1.3510   23.0540  -27.1040 C   0  0  0  0  0  0  0  0  0  0  0  0
   -1.3760   21.7610  -26.4800 C   0  0  0  0  0  0  0  0  0  0  0  0
   -1.3970   20.7190  -25.9830 N   0  0  0  0  0  0  0  0  0  0  0  0
   -0.3740   23.9920  -26.7490 C   0  0  0  0  0  0  0  0  0  0  0  0
   -0.3550   25.2440  -27.3670 C   0  0  0  0  0  0  0  0  0  0  0  0
   -1.2820   25.5550  -28.3660 C   0  0  0  0  0  0  0  0  0  0  0  0
   -1.2390   26.7990  -28.9810 O   0  0  0  0  0  0  0  0  0  0  0  0
   -3.5600   22.1810  -32.4980 C   0  0  0  0  0  0  0  0  0  0  0  0
   -2.8360   21.1210  -33.0510 C   0  0  0  0  0  0  0  0  0  0  0  0
   -2.0080   20.3070  -32.2430 C   0  0  0  0  0  0  0  0  0  0  0  0
   -5.7357   19.1430  -30.1902 H   0  0  0  0  0  0  0  0  0  0  0  0
   -6.2766   20.1668  -31.5635 H   0  0  0  0  0  0  0  0  0  0  0  0
   -6.6280   18.4052  -31.5635 H   0  0  0  0  0  0  0  0  0  0  0  0
   -6.5978   18.6926  -33.8111 H   0  0  0  0  0  0  0  0  0  0  0  0
   -6.3538   17.5765  -36.0251 H   0  0  0  0  0  0  0  0  0  0  0  0
   -4.1810   16.5397  -36.6678 H   0  0  0  0  0  0  0  0  0  0  0  0
   -2.2418   16.6383  -35.1167 H   0  0  0  0  0  0  0  0  0  0  0  0
   -2.4462   17.7852  -31.6281 H   0  0  0  0  0  0  0  0  0  0  0  0
   -1.4377   16.9928  -32.9519 H   0  0  0  0  0  0  0  0  0  0  0  0
    0.0446   19.9712  -34.3859 H   0  0  0  0  0  0  0  0  0  0  0  0
   -0.6941   18.3887  -34.8061 H   0  0  0  0  0  0  0  0  0  0  0  0
   -1.6993   19.8773  -34.8061 H   0  0  0  0  0  0  0  0  0  0  0  0
    0.6134   18.0625  -32.3410 H   0  0  0  0  0  0  0  0  0  0  0  0
    0.7040   19.9194  -32.3484 H   0  0  0  0  0  0  0  0  0  0  0  0
    1.2931   19.9332  -28.8820 H   0  0  0  0  0  0  0  0  0  0  0  0
    2.2321   19.5067  -30.3528 H   0  0  0  0  0  0  0  0  0  0  0  0
    1.1727   20.9574  -30.3528 H   0  0  0  0  0  0  0  0  0  0  0  0
    0.2617   17.7157  -28.7879 H   0  0  0  0  0  0  0  0  0  0  0  0
   -0.5620   17.0143  -30.2218 H   0  0  0  0  0  0  0  0  0  0  0  0
    1.2226   17.2186  -30.2218 H   0  0  0  0  0  0  0  0  0  0  0  0
   -2.8105   21.7058  -29.2094 H   0  0  0  0  0  0  0  0  0  0  0  0
   -3.0841   22.6550  -28.3421 H   0  0  0  0  0  0  0  0  0  0  0  0
    0.3771   23.7431  -25.9848 H   0  0  0  0  0  0  0  0  0  0  0  0
    0.3945   25.9906  -27.0657 H   0  0  0  0  0  0  0  0  0  0  0  0
   -4.1579   22.8340  -33.1508 H   0  0  0  0  0  0  0  0  0  0  0  0
   -2.9111   20.9170  -34.1293 H   0  0  0  0  0  0  0  0  0  0  0  0
  1  2  1  0
  2  3  1  0
  3  4  2  0
  4  5  1  0
  5  6  2  0
  6  7  1  0
  7  8  2  0
  8  9  1  0
 10  9  1  6
 10 11  1  0
 10 12  1  0
 12 13  1  0
 13 14  1  0
 13 15  1  0
 13 16  1  0
 16 17  2  0
 16 18  1  0
 18 19  2  0
 19 20  1  0
 20 21  1  0
 21 22  2  0
 21 23  2  0
 21 24  1  0
 24 25  1  0
 25 26  2  0
 26 27  1  0
 27 28  1  0
 28 29  3  0
 27 30  2  0
 30 31  1  0
 31 32  2  0
 32 33  1  0
 20 34  2  0
 34 35  1  0
 35 36  2  0
  8  3  1  0
 36 10  1  0
 36 18  1  0
 32 25  1  0
  1 37  1  0
  1 38  1  0
  1 39  1  0
  4 40  1  0
  5 41  1  0
  6 42  1  0
  7 43  1  0
  9 44  1  0
  9 45  1  0
 11 46  1  0
 11 47  1  0
 11 48  1  0
 12 49  1  0
 12 50  1  0
 14 51  1  0
 14 52  1  0
 14 53  1  0
 15 54  1  0
 15 55  1  0
 15 56  1  0
 19 57  1  0
 26 58  1  0
 30 59  1  0
 31 60  1  0
 34 61  1  0
 35 62  1  0
M  CHG  2  24  -1  33  -1
M  END
>  <UniqueID>  (33) 
32

>  <SMILES>  (33) 
COc1ccccc1C[C@]1(C)CC(C)(C)C(=O)c2cc(S(=O)(=O)[N-]c3cc(C#N)ccc3[O-])ccc21

>  <Energy>  (33) 
81.45898702480001

>  <Genealogy>  (33) 
COc1ccccc1CC1(C)CC(C)(C)C(=O)c2cc(S(=O)(=O)[N-]c3cc(C#N)ccc3[O-])ccc21 (protonated)
COc1ccccc1C[C@]1(C)CC(C)(C)C(=O)c2cc(S(=O)(=O)[N-]c3cc(C#N)ccc3[O-])ccc21 (chirality)
COc1ccccc1C[C@]1(C)CC(C)(C)C(=O)c2cc(S(=O)(=O)[N-]c3cc(C#N)ccc3[O-])ccc21 (3D coordinates assigned)
COc1ccccc1C[C@]1(C)CC(C)(C)C(=O)c2cc(S(=O)(=O)[N-]c3cc(C#N)ccc3[O-])ccc21 (nonaromatic ring conformer: 81.45898702480001 kcal/mol)

>  <smiles>  (33) 
COc1ccccc1CC1(C)CC(C)(C)C(=O)c2cc(S(=O)(=O)Nc3cc(C#N)ccc3O)ccc21

>  <score_type>  (33) 
oracle

>  <origin>  (33) 
adgpu

>  <m_score__min__energy>  (33) 
-15.380000000000001

>  <m_primary>  (33) 
energy

$$$$
33:0
     RDKit          3D

 52 55  0  0  0  0  0  0  0  0999 V2000
   -4.5430   25.4210  -31.0970 O   0  0  0  0  0  0  0  0  0  0  0  0
   -5.4460   24.4110  -30.4480 S   0  0  0  0  0  0  0  0  0  0  0  0
   -6.8350   24.9830  -30.3850 O   0  0  0  0  0  0  0  0  0  0  0  0
   -4.8760   24.0910  -28.8420 N   0  0  0  0  0  0  0  0  0  0  0  0
   -3.6870   23.3590  -28.5050 C   0  0  0  0  0  0  0  0  0  0  0  0
   -3.7470   22.0880  -27.9050 C   0  0  0  0  0  0  0  0  0  0  0  0
   -2.5740   21.3940  -27.5810 C   0  0  0  0  0  0  0  0  0  0  0  0
   -1.3260   21.9780  -27.8410 C   0  0  0  0  0  0  0  0  0  0  0  0
   -1.2580   23.2500  -28.4250 C   0  0  0  0  0  0  0  0  0  0  0  0
   -2.4290   23.9400  -28.7600 C   0  0  0  0  0  0  0  0  0  0  0  0
   -2.3180   25.2030  -29.3440 O   0  0  0  0  0  0  0  0  0  0  0  0
   -0.0840   21.2190  -27.4690 C   0  0  0  0  0  0  0  0  0  0  0  0
   -0.2440   19.7500  -27.8780 C   0  0  0  0  0  0  0  0  0  0  0  0
   -1.5230   19.0910  -27.3060 C   0  0  0  0  0  0  0  0  0  0  0  0
   -2.6300   20.0720  -26.8560 C   0  0  0  0  0  0  0  0  0  0  0  0
   -5.4130   22.9300  -31.3990 C   0  0  0  0  0  0  0  0  0  0  0  0
   -4.2050   22.2420  -31.5640 C   0  0  0  0  0  0  0  0  0  0  0  0
   -4.1610   21.0680  -32.3220 C   0  0  0  0  0  0  0  0  0  0  0  0
   -5.3290   20.5610  -32.9080 C   0  0  0  0  0  0  0  0  0  0  0  0
   -5.2840   19.0610  -33.8340 S   0  0  0  0  0  0  0  0  0  0  0  0
   -6.1360   19.2320  -35.0620 O   0  0  0  0  0  0  0  0  0  0  0  0
   -3.8710   18.7850  -34.2730 O   0  0  0  0  0  0  0  0  0  0  0  0
   -5.9020   17.7320  -32.8760 N   0  0  0  0  0  0  0  0  0  0  0  0
   -7.2400   17.3400  -33.3300 C   0  0  0  0  0  0  0  0  0  0  0  0
   -8.2610   18.1420  -32.5360 C   0  0  0  0  0  0  0  0  0  0  0  0
   -7.5160   18.6320  -31.3090 C   0  0  0  0  0  0  0  0  0  0  0  0
   -6.0800   18.1480  -31.4800 C   0  0  0  0  0  0  0  0  0  0  0  0
   -6.5410   21.2460  -32.7370 C   0  0  0  0  0  0  0  0  0  0  0  0
   -6.5810   22.4290  -31.9920 C   0  0  0  0  0  0  0  0  0  0  0  0
   -4.7253   21.6343  -27.6880 H   0  0  0  0  0  0  0  0  0  0  0  0
   -0.2780   23.7093  -28.6215 H   0  0  0  0  0  0  0  0  0  0  0  0
   -3.1100   25.6860  -29.7510 H   0  0  0  0  0  0  0  0  0  0  0  0
    0.7816   21.6531  -27.9907 H   0  0  0  0  0  0  0  0  0  0  0  0
    0.0744   21.2830  -26.3823 H   0  0  0  0  0  0  0  0  0  0  0  0
   -0.2843   19.6956  -28.9759 H   0  0  0  0  0  0  0  0  0  0  0  0
    0.6167   19.2018  -27.4673 H   0  0  0  0  0  0  0  0  0  0  0  0
   -1.9446   18.4371  -28.0836 H   0  0  0  0  0  0  0  0  0  0  0  0
   -1.2076   18.5535  -26.3996 H   0  0  0  0  0  0  0  0  0  0  0  0
   -3.6089   19.6081  -27.0473 H   0  0  0  0  0  0  0  0  0  0  0  0
   -2.4752   20.2757  -25.7862 H   0  0  0  0  0  0  0  0  0  0  0  0
   -3.2870   22.6265  -31.0955 H   0  0  0  0  0  0  0  0  0  0  0  0
   -3.2058   20.5400  -32.4591 H   0  0  0  0  0  0  0  0  0  0  0  0
   -7.3482   17.5566  -34.4030 H   0  0  0  0  0  0  0  0  0  0  0  0
   -7.3957   16.2624  -33.1733 H   0  0  0  0  0  0  0  0  0  0  0  0
   -8.6288   18.9924  -33.1289 H   0  0  0  0  0  0  0  0  0  0  0  0
   -9.1402   17.5374  -32.2685 H   0  0  0  0  0  0  0  0  0  0  0  0
   -7.5470   19.7302  -31.2542 H   0  0  0  0  0  0  0  0  0  0  0  0
   -7.9660   18.2506  -30.3806 H   0  0  0  0  0  0  0  0  0  0  0  0
   -5.3810   18.9633  -31.2419 H   0  0  0  0  0  0  0  0  0  0  0  0
   -5.8789   17.3049  -30.8026 H   0  0  0  0  0  0  0  0  0  0  0  0
   -7.4625   20.8517  -33.1901 H   0  0  0  0  0  0  0  0  0  0  0  0
   -7.5320   22.9684  -31.8707 H   0  0  0  0  0  0  0  0  0  0  0  0
  1  2  2  0
  2  3  2  0
  2  4  1  0
  4  5  1  0
  5  6  2  0
  6  7  1  0
  7  8  2  0
  8  9  1  0
  9 10  2  0
 10 11  1  0
  8 12  1  0
 12 13  1  0
 13 14  1  0
 14 15  1  0
  2 16  1  0
 16 17  2  0
 17 18  1  0
 18 19  2  0
 19 20  1  0
 20 21  2  0
 20 22  2  0
 20 23  1  0
 23 24  1  0
 24 25  1  0
 25 26  1  0
 26 27  1  0
 19 28  1  0
 28 29  2  0
 10  5  1  0
 29 16  1  0
 15  7  1  0
 27 23  1  0
  6 30  1  0
  9 31  1  0
 11 32  1  0
 12 33  1  0
 12 34  1  0
 13 35  1  0
 13 36  1  0
 14 37  1  0
 14 38  1  0
 15 39  1  0
 15 40  1  0
 17 41  1  0
 18 42  1  0
 24 43  1  0
 24 44  1  0
 25 45  1  0
 25 46  1  0
 26 47  1  0
 26 48  1  0
 27 49  1  0
 27 50  1  0
 28 51  1  0
 29 52  1  0
M  CHG  1   4  -1
M  END
>  <UniqueID>  (34) 
33

>  <SMILES>  (34) 
O=S(=O)([N-]c1cc2c(cc1O)CCCC2)c1ccc(S(=O)(=O)N2CCCC2)cc1

>  <Energy>  (34) 
63.0979844232207

>  <Genealogy>  (34) 
O=S(=O)([N-]c1cc2c(cc1O)CCCC2)c1ccc(S(=O)(=O)N2CCCC2)cc1 (protonated)
O=S(=O)([N-]c1cc2c(cc1O)CCCC2)c1ccc(S(=O)(=O)N2CCCC2)cc1 (3D coordinates assigned)
O=S(=O)([N-]c1cc2c(cc1O)CCCC2)c1ccc(S(=O)(=O)N2CCCC2)cc1 (nonaromatic ring conformer: 63.0979844232207 kcal/mol)

>  <smiles>  (34) 
O=S(=O)(Nc1cc2c(cc1O)CCCC2)c1ccc(S(=O)(=O)N2CCCC2)cc1

>  <score_type>  (34) 
oracle

>  <origin>  (34) 
adgpu

>  <m_score__min__energy>  (34) 
-13.24

>  <m_primary>  (34) 
energy

$$$$
34:0
     RDKit          3D

 56 60  0  0  0  0  0  0  0  0999 V2000
   -7.3430   21.5680  -31.2060 C   0  0  0  0  0  0  0  0  0  0  0  0
   -6.2570   20.8890  -31.9970 C   0  0  0  0  0  0  0  0  0  0  0  0
   -5.0020   21.5390  -32.2290 C   0  0  0  0  0  0  0  0  0  0  0  0
   -4.7460   22.8410  -31.6740 N   0  0  0  0  0  0  0  0  0  0  0  0
   -3.5120   23.2030  -31.0400 C   0  0  0  0  0  0  0  0  0  0  0  0
   -2.5330   22.4060  -31.0420 O   0  0  0  0  0  0  0  0  0  0  0  0
   -3.4050   24.4750  -30.3910 N   0  0  0  0  0  0  0  0  0  0  0  0
   -3.2150   24.6740  -28.9840 C   0  0  0  0  0  0  0  0  0  0  0  0
   -4.1780   24.1690  -28.1030 C   0  0  0  0  0  0  0  0  0  0  0  0
   -4.0380   24.3430  -26.7260 C   0  0  0  0  0  0  0  0  0  0  0  0
   -2.9440   25.0430  -26.2170 C   0  0  0  0  0  0  0  0  0  0  0  0
   -1.9890   25.5950  -27.0830 C   0  0  0  0  0  0  0  0  0  0  0  0
   -0.6420   26.5170  -26.4000 S   0  0  0  0  0  0  0  0  0  0  0  0
   -0.1390   27.4750  -27.4440 O   0  0  0  0  0  0  0  0  0  0  0  0
   -1.1230   27.3360  -25.2340 O   0  0  0  0  0  0  0  0  0  0  0  0
    0.6810   25.4920  -25.8800 N   0  0  0  0  0  0  0  0  0  0  0  0
    0.3480   24.0560  -25.9470 C   0  0  0  0  0  0  0  0  0  0  0  0
    0.5570   23.4480  -27.3540 C   0  0  0  0  0  0  0  0  0  0  0  0
    1.1740   24.3390  -28.2610 O   0  0  0  0  0  0  0  0  0  0  0  0
    2.3350   24.8800  -27.6730 C   0  0  0  0  0  0  0  0  0  0  0  0
    1.9640   25.8360  -26.5280 C   0  0  0  0  0  0  0  0  0  0  0  0
   -2.1310   25.4200  -28.4750 C   0  0  0  0  0  0  0  0  0  0  0  0
   -1.2270   26.0180  -29.3460 O   0  0  0  0  0  0  0  0  0  0  0  0
   -3.9920   20.8740  -32.9720 C   0  0  0  0  0  0  0  0  0  0  0  0
   -4.2530   19.5980  -33.4670 C   0  0  0  0  0  0  0  0  0  0  0  0
   -5.4410   19.0020  -33.2220 C   0  0  0  0  0  0  0  0  0  0  0  0
   -6.4610   19.5860  -32.5070 C   0  0  0  0  0  0  0  0  0  0  0  0
   -7.6580   18.8660  -32.3460 O   0  0  0  0  0  0  0  0  0  0  0  0
   -7.8110   17.4720  -32.6970 C   0  0  0  0  0  0  0  0  0  0  0  0
   -6.7310   16.9670  -33.6370 C   0  0  0  0  0  0  0  0  0  0  0  0
   -6.8570   15.8560  -34.2180 O   0  0  0  0  0  0  0  0  0  0  0  0
   -5.5460   17.7430  -33.8050 N   0  0  0  0  0  0  0  0  0  0  0  0
   -4.3100   17.4410  -34.5210 C   0  0  0  0  0  0  0  0  0  0  0  0
   -3.3980   18.6880  -34.2940 C   0  0  0  0  0  0  0  0  0  0  0  0
   -7.1455   21.4445  -30.1310 H   0  0  0  0  0  0  0  0  0  0  0  0
   -7.3624   22.6394  -31.4545 H   0  0  0  0  0  0  0  0  0  0  0  0
   -8.3147   21.1163  -31.4545 H   0  0  0  0  0  0  0  0  0  0  0  0
   -5.4620   23.5910  -31.7960 H   0  0  0  0  0  0  0  0  0  0  0  0
   -5.0517   23.6309  -28.4993 H   0  0  0  0  0  0  0  0  0  0  0  0
   -4.7914   23.9276  -26.0405 H   0  0  0  0  0  0  0  0  0  0  0  0
   -2.8297   25.1628  -25.1295 H   0  0  0  0  0  0  0  0  0  0  0  0
    0.9872   23.5150  -25.2337 H   0  0  0  0  0  0  0  0  0  0  0  0
   -0.7198   23.9559  -25.7025 H   0  0  0  0  0  0  0  0  0  0  0  0
    1.1902   22.5537  -27.2576 H   0  0  0  0  0  0  0  0  0  0  0  0
   -0.4382   23.2092  -27.7573 H   0  0  0  0  0  0  0  0  0  0  0  0
    2.9540   24.0622  -27.2754 H   0  0  0  0  0  0  0  0  0  0  0  0
    2.8925   25.4407  -28.4377 H   0  0  0  0  0  0  0  0  0  0  0  0
    2.7601   25.8001  -25.7698 H   0  0  0  0  0  0  0  0  0  0  0  0
    1.8541   26.8410  -26.9616 H   0  0  0  0  0  0  0  0  0  0  0  0
   -3.0207   21.3573  -33.1538 H   0  0  0  0  0  0  0  0  0  0  0  0
   -7.7782   16.8741  -31.7743 H   0  0  0  0  0  0  0  0  0  0  0  0
   -8.7725   17.3720  -33.2220 H   0  0  0  0  0  0  0  0  0  0  0  0
   -3.8370   16.5362  -34.1117 H   0  0  0  0  0  0  0  0  0  0  0  0
   -4.4875   17.2472  -35.5892 H   0  0  0  0  0  0  0  0  0  0  0  0
   -2.4805   18.4115  -33.7538 H   0  0  0  0  0  0  0  0  0  0  0  0
   -3.0622   19.1510  -35.2336 H   0  0  0  0  0  0  0  0  0  0  0  0
  1  2  1  0
  2  3  2  0
  3  4  1  0
  4  5  1  0
  5  6  2  0
  5  7  1  0
  7  8  1  0
  8  9  2  0
  9 10  1  0
 10 11  2  0
 11 12  1  0
 12 13  1  0
 13 14  2  0
 13 15  2  0
 13 16  1  0
 16 17  1  0
 17 18  1  0
 18 19  1  0
 19 20  1  0
 20 21  1  0
 12 22  2  0
 22 23  1  0
  3 24  1  0
 24 25  2  0
 25 26  1  0
 26 27  2  0
 27 28  1  0
 28 29  1  0
 29 30  1  0
 30 31  2  0
 30 32  1  0
 32 33  1  0
 33 34  1  0
 27  2  1  0
 22  8  1  0
 34 25  1  0
 21 16  1  0
 32 26  1  0
  1 35  1  0
  1 36  1  0
  1 37  1  0
  4 38  1  0
  9 39  1  0
 10 40  1  0
 11 41  1  0
 17 42  1  0
 17 43  1  0
 18 44  1  0
 18 45  1  0
 20 46  1  0
 20 47  1  0
 21 48  1  0
 21 49  1  0
 24 50  1  0
 29 51  1  0
 29 52  1  0
 33 53  1  0
 33 54  1  0
 34 55  1  0
 34 56  1  0
M  CHG  2   7  -1  23  -1
M  END
>  <UniqueID>  (35) 
34

>  <SMILES>  (35) 
Cc1c(NC(=O)[N-]c2cccc(S(=O)(=O)N3CCOCC3)c2[O-])cc2c3c1OCC(=O)N3CC2

>  <Energy>  (35) 
103.55027453938526

>  <Genealogy>  (35) 
Cc1c(NC(=O)[N-]c2cccc(S(=O)(=O)N3CCOCC3)c2[O-])cc2c3c1OCC(=O)N3CC2 (protonated)
Cc1c(NC(=O)[N-]c2cccc(S(=O)(=O)N3CCOCC3)c2[O-])cc2c3c1OCC(=O)N3CC2 (3D coordinates assigned)
Cc1c(NC(=O)[N-]c2cccc(S(=O)(=O)N3CCOCC3)c2[O-])cc2c3c1OCC(=O)N3CC2 (nonaromatic ring conformer: 103.55027453938526 kcal/mol)

>  <smiles>  (35) 
Cc1c(NC(=O)Nc2cccc(S(=O)(=O)N3CCOCC3)c2O)cc2c3c1OCC(=O)N3CC2

>  <score_type>  (35) 
oracle

>  <origin>  (35) 
adgpu

>  <m_score__min__energy>  (35) 
-13.42

>  <m_primary>  (35) 
energy

$$$$
35:0
     RDKit          3D

 55 58  0  0  0  0  0  0  0  0999 V2000
   -1.2310   21.9340  -31.9350 O   0  0  0  0  0  0  0  0  0  0  0  0
   -2.2550   22.3210  -31.3130 C   0  0  0  0  0  0  0  0  0  0  0  0
   -3.3790   22.7950  -32.0660 N   0  0  0  0  0  0  0  0  0  0  0  0
   -4.6030   23.3070  -31.5180 C   0  0  0  0  0  0  0  0  0  0  0  0
   -5.7800   22.5720  -31.7060 C   0  0  0  0  0  0  0  0  0  0  0  0
   -6.9990   23.0370  -31.1940 C   0  0  0  0  0  0  0  0  0  0  0  0
   -8.4740   22.1100  -31.4620 S   0  0  0  0  0  0  0  0  0  0  0  0
   -9.5270   23.0370  -32.0000 O   0  0  0  0  0  0  0  0  0  0  0  0
   -8.9490   21.5240  -30.1610 O   0  0  0  0  0  0  0  0  0  0  0  0
   -8.1680   20.8280  -32.6150 N   0  0  0  0  0  0  0  0  0  0  0  0
   -7.0830   19.9590  -32.1450 C   0  0  0  0  0  0  0  0  0  0  0  0
   -7.7020   18.7820  -31.4050 C   0  0  0  0  0  0  0  0  0  0  0  0
   -9.1740   18.7950  -31.7730 C   0  0  0  0  0  0  0  0  0  0  0  0
   -9.3420   19.9570  -32.7400 C   0  0  0  0  0  0  0  0  0  0  0  0
   -7.0390   24.2420  -30.4840 C   0  0  0  0  0  0  0  0  0  0  0  0
   -5.8640   24.9680  -30.2690 C   0  0  0  0  0  0  0  0  0  0  0  0
   -4.6450   24.5010  -30.7680 C   0  0  0  0  0  0  0  0  0  0  0  0
   -3.4840   25.2140  -30.4940 O   0  0  0  0  0  0  0  0  0  0  0  0
   -2.2520   22.3150  -29.8310 C   0  0  0  0  0  0  0  0  0  0  0  0
   -3.1560   21.5140  -29.1130 C   0  0  0  0  0  0  0  0  0  0  0  0
   -3.1330   21.5030  -27.7160 C   0  0  0  0  0  0  0  0  0  0  0  0
   -2.2130   22.2920  -27.0230 C   0  0  0  0  0  0  0  0  0  0  0  0
   -1.3220   23.1120  -27.7250 C   0  0  0  0  0  0  0  0  0  0  0  0
   -0.1370   24.0760  -26.8480 S   0  0  0  0  0  0  0  0  0  0  0  0
    0.8620   23.1690  -26.1820 O   0  0  0  0  0  0  0  0  0  0  0  0
    0.5930   24.9630  -27.8180 O   0  0  0  0  0  0  0  0  0  0  0  0
   -0.9610   25.0590  -25.6650 N   0  0  0  0  0  0  0  0  0  0  0  0
   -0.1680   25.1970  -24.4440 C   0  0  0  0  0  0  0  0  0  0  0  0
   -0.5830   26.5120  -23.8060 C   0  0  0  0  0  0  0  0  0  0  0  0
   -1.2180   27.3200  -24.9270 C   0  0  0  0  0  0  0  0  0  0  0  0
   -1.1640   26.4230  -26.1540 C   0  0  0  0  0  0  0  0  0  0  0  0
   -1.3450   23.1240  -29.1270 C   0  0  0  0  0  0  0  0  0  0  0  0
   -5.7476   21.6222  -32.2599 H   0  0  0  0  0  0  0  0  0  0  0  0
   -6.5001   19.5940  -33.0035 H   0  0  0  0  0  0  0  0  0  0  0  0
   -6.4120   20.5176  -31.4759 H   0  0  0  0  0  0  0  0  0  0  0  0
   -7.2348   17.8390  -31.7251 H   0  0  0  0  0  0  0  0  0  0  0  0
   -7.5542   18.8623  -30.3179 H   0  0  0  0  0  0  0  0  0  0  0  0
   -9.4575   17.8486  -32.2566 H   0  0  0  0  0  0  0  0  0  0  0  0
   -9.8150   18.9068  -30.8861 H   0  0  0  0  0  0  0  0  0  0  0  0
   -9.4165   19.5773  -33.7697 H   0  0  0  0  0  0  0  0  0  0  0  0
  -10.2589   20.5178  -32.5060 H   0  0  0  0  0  0  0  0  0  0  0  0
   -7.9964   24.6185  -30.0945 H   0  0  0  0  0  0  0  0  0  0  0  0
   -5.8990   25.9114  -29.7044 H   0  0  0  0  0  0  0  0  0  0  0  0
   -3.8853   20.8926  -29.6533 H   0  0  0  0  0  0  0  0  0  0  0  0
   -3.8417   20.8710  -27.1607 H   0  0  0  0  0  0  0  0  0  0  0  0
   -2.1883   22.2692  -25.9235 H   0  0  0  0  0  0  0  0  0  0  0  0
   -0.3750   24.3608  -23.7600 H   0  0  0  0  0  0  0  0  0  0  0  0
    0.9093   25.1853  -24.6661 H   0  0  0  0  0  0  0  0  0  0  0  0
   -1.3093   26.3362  -22.9988 H   0  0  0  0  0  0  0  0  0  0  0  0
    0.2724   27.0372  -23.3561 H   0  0  0  0  0  0  0  0  0  0  0  0
   -2.2601   27.5695  -24.6786 H   0  0  0  0  0  0  0  0  0  0  0  0
   -0.6919   28.2716  -25.0932 H   0  0  0  0  0  0  0  0  0  0  0  0
   -2.1083   26.4889  -26.7143 H   0  0  0  0  0  0  0  0  0  0  0  0
   -0.3529   26.7265  -26.8323 H   0  0  0  0  0  0  0  0  0  0  0  0
   -0.6479   23.7714  -29.6792 H   0  0  0  0  0  0  0  0  0  0  0  0
  1  2  2  0
  2  3  1  0
  3  4  1  0
  4  5  2  0
  5  6  1  0
  6  7  1  0
  7  8  2  0
  7  9  2  0
  7 10  1  0
 10 11  1  0
 11 12  1  0
 12 13  1  0
 13 14  1  0
  6 15  2  0
 15 16  1  0
 16 17  2  0
 17 18  1  0
  2 19  1  0
 19 20  2  0
 20 21  1  0
 21 22  2  0
 22 23  1  0
 23 24  1  0
 24 25  2  0
 24 26  2  0
 24 27  1  0
 27 28  1  0
 28 29  1  0
 29 30  1  0
 30 31  1  0
 23 32  2  0
 17  4  1  0
 32 19  1  0
 14 10  1  0
 31 27  1  0
  5 33  1  0
 11 34  1  0
 11 35  1  0
 12 36  1  0
 12 37  1  0
 13 38  1  0
 13 39  1  0
 14 40  1  0
 14 41  1  0
 15 42  1  0
 16 43  1  0
 20 44  1  0
 21 45  1  0
 22 46  1  0
 28 47  1  0
 28 48  1  0
 29 49  1  0
 29 50  1  0
 30 51  1  0
 30 52  1  0
 31 53  1  0
 31 54  1  0
 32 55  1  0
M  CHG  2   3  -1  18  -1
M  END
>  <UniqueID>  (36) 
35

>  <SMILES>  (36) 
O=C([N-]c1cc(S(=O)(=O)N2CCCC2)ccc1[O-])c1cccc(S(=O)(=O)N2CCCC2)c1

>  <Energy>  (36) 
66.7276972557274

>  <Genealogy>  (36) 
O=C([N-]c1cc(S(=O)(=O)N2CCCC2)ccc1[O-])c1cccc(S(=O)(=O)N2CCCC2)c1 (protonated)
O=C([N-]c1cc(S(=O)(=O)N2CCCC2)ccc1[O-])c1cccc(S(=O)(=O)N2CCCC2)c1 (3D coordinates assigned)
O=C([N-]c1cc(S(=O)(=O)N2CCCC2)ccc1[O-])c1cccc(S(=O)(=O)N2CCCC2)c1 (nonaromatic ring conformer: 66.7276972557274 kcal/mol)

>  <smiles>  (36) 
O=C(Nc1cc(S(=O)(=O)N2CCCC2)ccc1O)c1cccc(S(=O)(=O)N2CCCC2)c1

>  <score_type>  (36) 
oracle

>  <origin>  (36) 
adgpu

>  <m_score__min__energy>  (36) 
-14.99

>  <m_primary>  (36) 
energy

$$$$
36:0
     RDKit          3D

 55 58  0  0  0  0  0  0  0  0999 V2000
    0.6530   16.3380  -28.6810 C   0  0  0  0  0  0  0  0  0  0  0  0
    0.7200   17.7740  -28.1570 C   0  0  2  0  0  0  0  0  0  0  0  0
   -0.6810   18.2980  -27.7900 C   0  0  0  0  0  0  0  0  0  0  0  0
   -0.6630   19.7580  -27.6500 N   0  0  0  0  0  0  0  0  0  0  0  0
   -1.8960   20.4530  -27.3990 C   0  0  0  0  0  0  0  0  0  0  0  0
   -2.7270   19.9660  -26.5850 O   0  0  0  0  0  0  0  0  0  0  0  0
   -2.2160   21.7140  -28.1020 C   0  0  0  0  0  0  0  0  0  0  0  0
   -2.3270   22.9190  -27.3880 C   0  0  0  0  0  0  0  0  0  0  0  0
   -2.6320   24.1090  -28.0550 C   0  0  0  0  0  0  0  0  0  0  0  0
   -2.8310   24.1100  -29.4380 C   0  0  0  0  0  0  0  0  0  0  0  0
   -3.1520   25.2990  -30.0820 O   0  0  0  0  0  0  0  0  0  0  0  0
   -2.7250   22.9120  -30.1610 C   0  0  0  0  0  0  0  0  0  0  0  0
   -2.9030   22.8880  -31.5770 N   0  0  0  0  0  0  0  0  0  0  0  0
   -3.4030   21.4490  -32.3980 S   0  0  0  0  0  0  0  0  0  0  0  0
   -2.7510   20.2430  -31.7810 O   0  0  0  0  0  0  0  0  0  0  0  0
   -2.9780   21.5390  -33.8360 O   0  0  0  0  0  0  0  0  0  0  0  0
   -5.1560   21.2970  -32.3080 C   0  0  0  0  0  0  0  0  0  0  0  0
   -5.9420   22.4300  -32.0120 C   0  0  0  0  0  0  0  0  0  0  0  0
   -7.3380   22.3220  -31.9320 C   0  0  0  0  0  0  0  0  0  0  0  0
   -7.9300   21.0750  -32.1420 C   0  0  0  0  0  0  0  0  0  0  0  0
   -7.1700   19.9720  -32.4360 C   0  0  0  0  0  0  0  0  0  0  0  0
   -5.7790   20.0560  -32.5310 C   0  0  0  0  0  0  0  0  0  0  0  0
   -7.9970   18.7550  -32.6030 C   0  0  0  0  0  0  0  0  0  0  0  0
   -9.4390   19.2450  -32.3670 C   0  0  0  0  0  0  0  0  0  0  0  0
   -9.3730   20.7570  -32.0680 C   0  0  0  0  0  0  0  0  0  0  0  0
   -2.4360   21.7180  -29.4900 C   0  0  0  0  0  0  0  0  0  0  0  0
    0.6230   20.4550  -27.5330 C   0  0  0  0  0  0  0  0  0  0  0  0
    1.5920   20.0180  -28.6620 C   0  0  1  0  0  0  0  0  0  0  0  0
    3.0470   20.1250  -28.2050 C   0  0  0  0  0  0  0  0  0  0  0  0
    1.3360   18.6510  -29.1680 N   0  0  0  0  0  0  0  0  0  0  0  0
    0.6204   15.6391  -27.8322 H   0  0  0  0  0  0  0  0  0  0  0  0
   -0.2519   16.2131  -29.2938 H   0  0  0  0  0  0  0  0  0  0  0  0
    1.5424   16.1294  -29.2938 H   0  0  0  0  0  0  0  0  0  0  0  0
    1.3369   17.7775  -27.2463 H   0  0  0  0  0  0  0  0  0  0  0  0
   -1.3909   18.0191  -28.5826 H   0  0  0  0  0  0  0  0  0  0  0  0
   -0.9878   17.8525  -26.8322 H   0  0  0  0  0  0  0  0  0  0  0  0
   -2.1731   22.9260  -26.2988 H   0  0  0  0  0  0  0  0  0  0  0  0
   -2.7157   25.0484  -27.4888 H   0  0  0  0  0  0  0  0  0  0  0  0
   -5.4577   23.4031  -31.8431 H   0  0  0  0  0  0  0  0  0  0  0  0
   -7.9557   23.2042  -31.7078 H   0  0  0  0  0  0  0  0  0  0  0  0
   -5.1807   19.1661  -32.7762 H   0  0  0  0  0  0  0  0  0  0  0  0
   -7.8855   18.3433  -33.6169 H   0  0  0  0  0  0  0  0  0  0  0  0
   -7.7066   17.9493  -31.9127 H   0  0  0  0  0  0  0  0  0  0  0  0
  -10.0480   19.0662  -33.2654 H   0  0  0  0  0  0  0  0  0  0  0  0
   -9.8989   18.7041  -31.5268 H   0  0  0  0  0  0  0  0  0  0  0  0
   -9.9382   21.3289  -32.8187 H   0  0  0  0  0  0  0  0  0  0  0  0
   -9.8135   21.0150  -31.0936 H   0  0  0  0  0  0  0  0  0  0  0  0
   -2.3806   20.7751  -30.0538 H   0  0  0  0  0  0  0  0  0  0  0  0
    0.4530   21.5395  -27.6036 H   0  0  0  0  0  0  0  0  0  0  0  0
    1.0747   20.2002  -26.5629 H   0  0  0  0  0  0  0  0  0  0  0  0
    1.4051   20.7127  -29.4942 H   0  0  0  0  0  0  0  0  0  0  0  0
    3.0868   20.1279  -27.1057 H   0  0  0  0  0  0  0  0  0  0  0  0
    3.6164   19.2663  -28.5902 H   0  0  0  0  0  0  0  0  0  0  0  0
    3.4847   21.0578  -28.5902 H   0  0  0  0  0  0  0  0  0  0  0  0
    0.6940   18.7150  -29.9940 H   0  0  0  0  0  0  0  0  0  0  0  0
  1  2  1  0
  2  3  1  0
  3  4  1  0
  4  5  1  0
  5  6  2  0
  5  7  1  0
  7  8  2  0
  8  9  1  0
  9 10  2  0
 10 11  1  0
 10 12  1  0
 12 13  1  0
 13 14  1  0
 14 15  2  0
 14 16  2  0
 14 17  1  0
 17 18  2  0
 18 19  1  0
 19 20  2  0
 20 21  1  0
 21 22  2  0
 21 23  1  0
 23 24  1  0
 24 25  1  0
 12 26  2  0
  4 27  1  0
 27 28  1  0
 28 29  1  0
 28 30  1  0
 30  2  1  0
 26  7  1  0
 22 17  1  0
 25 20  1  0
  1 31  1  0
  1 32  1  0
  1 33  1  0
  2 34  1  1
  3 35  1  0
  3 36  1  0
  8 37  1  0
  9 38  1  0
 18 39  1  0
 19 40  1  0
 22 41  1  0
 23 42  1  0
 23 43  1  0
 24 44  1  0
 24 45  1  0
 25 46  1  0
 25 47  1  0
 26 48  1  0
 27 49  1  0
 27 50  1  0
 28 51  1  6
 29 52  1  0
 29 53  1  0
 29 54  1  0
 30 55  1  0
M  CHG  2  11  -1  13  -1
M  END
>  <UniqueID>  (37) 
36

>  <SMILES>  (37) 
C[C@@H]1CN(C(=O)c2ccc([O-])c([N-]S(=O)(=O)c3ccc4c(c3)CCC4)c2)C[C@@H](C)N1

>  <Energy>  (37) 
74.34148640789813

>  <Genealogy>  (37) 
CC1CN(C(=O)c2ccc([O-])c([N-]S(=O)(=O)c3ccc4c(c3)CCC4)c2)CC(C)N1 (protonated)
C[C@@H]1CN(C(=O)c2ccc([O-])c([N-]S(=O)(=O)c3ccc4c(c3)CCC4)c2)C[C@@H](C)N1 (chirality)
C[C@@H]1CN(C(=O)c2ccc([O-])c([N-]S(=O)(=O)c3ccc4c(c3)CCC4)c2)C[C@@H](C)N1 (3D coordinates assigned)
C[C@@H]1CN(C(=O)c2ccc([O-])c([N-]S(=O)(=O)c3ccc4c(c3)CCC4)c2)C[C@@H](C)N1 (nonaromatic ring conformer: 74.34148640789813 kcal/mol)

>  <smiles>  (37) 
CC1CN(C(=O)c2ccc(O)c(NS(=O)(=O)c3ccc4c(c3)CCC4)c2)CC(C)N1

>  <score_type>  (37) 
oracle

>  <origin>  (37) 
adgpu

>  <m_score__min__energy>  (37) 
-14.300000000000001

>  <m_primary>  (37) 
energy

$$$$
37:0
     RDKit          3D

 41 44  0  0  0  0  0  0  0  0999 V2000
   -1.2670   21.7610  -26.3190 C   0  0  0  0  0  0  0  0  0  0  0  0
   -0.7370   21.4240  -27.6530 N   0  0  0  0  0  0  0  0  0  0  0  0
   -1.4120   20.2550  -28.2530 C   0  0  0  0  0  0  0  0  0  0  0  0
   -2.8940   20.5240  -28.5520 C   0  0  0  0  0  0  0  0  0  0  0  0
   -3.1180   21.8760  -29.1790 C   0  0  0  0  0  0  0  0  0  0  0  0
   -4.3670   22.1640  -29.7480 C   0  0  0  0  0  0  0  0  0  0  0  0
   -4.6280   23.4260  -30.3120 C   0  0  0  0  0  0  0  0  0  0  0  0
   -5.8960   23.7200  -30.9290 N   0  0  0  0  0  0  0  0  0  0  0  0
   -7.1970   22.5750  -31.0340 S   0  0  0  0  0  0  0  0  0  0  0  0
   -7.6330   22.1990  -29.6460 O   0  0  0  0  0  0  0  0  0  0  0  0
   -8.3540   23.2020  -31.7600 O   0  0  0  0  0  0  0  0  0  0  0  0
   -6.6720   21.1520  -31.9290 C   0  0  0  0  0  0  0  0  0  0  0  0
   -5.4980   21.1970  -32.7240 C   0  0  0  0  0  0  0  0  0  0  0  0
   -5.0940   20.0710  -33.4650 C   0  0  0  0  0  0  0  0  0  0  0  0
   -5.8840   18.9270  -33.3860 C   0  0  0  0  0  0  0  0  0  0  0  0
   -5.6910   17.7550  -34.0070 N   0  0  0  0  0  0  0  0  0  0  0  0
   -6.7500   17.0250  -33.5690 C   0  0  0  0  0  0  0  0  0  0  0  0
   -6.9430   15.8350  -33.9280 O   0  0  0  0  0  0  0  0  0  0  0  0
   -7.5870   17.6720  -32.7170 N   0  0  0  0  0  0  0  0  0  0  0  0
   -7.0080   18.8790  -32.6200 C   0  0  0  0  0  0  0  0  0  0  0  0
   -7.4390   19.9700  -31.8710 C   0  0  0  0  0  0  0  0  0  0  0  0
   -3.6280   24.4130  -30.2660 C   0  0  0  0  0  0  0  0  0  0  0  0
   -3.8520   25.6720  -30.8120 O   0  0  0  0  0  0  0  0  0  0  0  0
   -2.3900   24.1350  -29.6800 C   0  0  0  0  0  0  0  0  0  0  0  0
   -2.1300   22.8770  -29.1220 C   0  0  0  0  0  0  0  0  0  0  0  0
   -0.7550   22.5830  -28.5650 C   0  0  0  0  0  0  0  0  0  0  0  0
   -0.6070   21.3413  -25.5455 H   0  0  0  0  0  0  0  0  0  0  0  0
   -1.3128   22.8544  -26.2081 H   0  0  0  0  0  0  0  0  0  0  0  0
   -2.2766   21.3386  -26.2081 H   0  0  0  0  0  0  0  0  0  0  0  0
   -0.9030   19.9975  -29.1936 H   0  0  0  0  0  0  0  0  0  0  0  0
   -1.3608   19.4296  -27.5277 H   0  0  0  0  0  0  0  0  0  0  0  0
   -3.2613   19.7497  -29.2416 H   0  0  0  0  0  0  0  0  0  0  0  0
   -3.4378   20.5037  -27.5960 H   0  0  0  0  0  0  0  0  0  0  0  0
   -5.1522   21.3936  -29.7533 H   0  0  0  0  0  0  0  0  0  0  0  0
   -6.0220   24.6190  -31.4450 H   0  0  0  0  0  0  0  0  0  0  0  0
   -4.8990   22.1189  -32.7615 H   0  0  0  0  0  0  0  0  0  0  0  0
   -4.1857   20.0937  -34.0851 H   0  0  0  0  0  0  0  0  0  0  0  0
   -8.3479   19.9122  -31.2541 H   0  0  0  0  0  0  0  0  0  0  0  0
   -1.6119   24.9122  -29.6568 H   0  0  0  0  0  0  0  0  0  0  0  0
   -0.0734   22.3791  -29.4040 H   0  0  0  0  0  0  0  0  0  0  0  0
   -0.4408   23.4628  -27.9843 H   0  0  0  0  0  0  0  0  0  0  0  0
  1  2  1  0
  2  3  1  0
  3  4  1  0
  4  5  1  0
  5  6  2  0
  6  7  1  0
  7  8  1  0
  8  9  1  0
  9 10  2  0
  9 11  2  0
  9 12  1  0
 12 13  2  0
 13 14  1  0
 14 15  2  0
 15 16  1  0
 16 17  1  0
 17 18  2  0
 17 19  1  0
 19 20  1  0
 20 21  2  0
  7 22  2  0
 22 23  1  0
 22 24  1  0
 24 25  2  0
 25 26  1  0
 26  2  1  0
 25  5  1  0
 21 12  1  0
 20 15  1  0
  1 27  1  0
  1 28  1  0
  1 29  1  0
  3 30  1  0
  3 31  1  0
  4 32  1  0
  4 33  1  0
  6 34  1  0
  8 35  1  0
 13 36  1  0
 14 37  1  0
 21 38  1  0
 24 39  1  0
 26 40  1  0
 26 41  1  0
M  CHG  3  16  -1  19  -1  23  -1
M  END
>  <UniqueID>  (38) 
37

>  <SMILES>  (38) 
CN1CCc2cc(NS(=O)(=O)c3ccc4[n-]c(=O)[n-]c4c3)c([O-])cc2C1

>  <Energy>  (38) 
88.07324483956066

>  <Genealogy>  (38) 
CN1CCc2cc(NS(=O)(=O)c3ccc4[n-]c(=O)[n-]c4c3)c([O-])cc2C1 (protonated)
CN1CCc2cc(NS(=O)(=O)c3ccc4[n-]c(=O)[n-]c4c3)c([O-])cc2C1 (3D coordinates assigned)
CN1CCc2cc(NS(=O)(=O)c3ccc4[n-]c(=O)[n-]c4c3)c([O-])cc2C1 (nonaromatic ring conformer: 88.07324483956066 kcal/mol)

>  <smiles>  (38) 
CN1CCc2cc(NS(=O)(=O)c3ccc4[nH]c(=O)[nH]c4c3)c(O)cc2C1

>  <score_type>  (38) 
oracle

>  <origin>  (38) 
adgpu

>  <m_score__min__energy>  (38) 
-11.66

>  <m_primary>  (38) 
energy

$$$$
38:0
     RDKit          3D

 41 43  0  0  0  0  0  0  0  0999 V2000
   -2.2100   23.6660  -30.0800 O   0  0  0  0  0  0  0  0  0  0  0  0
   -3.1530   22.8670  -30.3330 C   0  0  0  0  0  0  0  0  0  0  0  0
   -2.8830   21.4730  -30.5570 N   0  0  0  0  0  0  0  0  0  0  0  0
   -2.9100   20.7510  -31.8000 C   0  0  0  0  0  0  0  0  0  0  0  0
   -2.0160   21.0110  -32.8550 C   0  0  0  0  0  0  0  0  0  0  0  0
   -2.1070   20.2790  -34.0370 C   0  0  0  0  0  0  0  0  0  0  0  0
   -3.0730   19.2840  -34.1860 C   0  0  0  0  0  0  0  0  0  0  0  0
   -3.9820   19.0360  -33.1570 C   0  0  0  0  0  0  0  0  0  0  0  0
   -5.2500   17.8390  -33.3630 S   0  0  0  0  0  0  0  0  0  0  0  0
   -5.1330   17.2660  -34.7600 O   0  0  0  0  0  0  0  0  0  0  0  0
   -5.0820   16.7390  -32.3550 O   0  0  0  0  0  0  0  0  0  0  0  0
   -6.8140   18.6050  -33.1500 N   0  0  0  0  0  0  0  0  0  0  0  0
   -6.7420   20.0570  -33.4530 C   0  0  0  0  0  0  0  0  0  0  0  0
   -7.5790   20.9040  -32.4790 C   0  0  0  0  0  0  0  0  0  0  0  0
   -8.8220   20.2880  -32.2480 O   0  0  0  0  0  0  0  0  0  0  0  0
   -8.6740   19.0330  -31.5890 C   0  0  0  0  0  0  0  0  0  0  0  0
   -7.3100   18.3430  -31.7940 C   0  0  0  0  0  0  0  0  0  0  0  0
   -3.9050   19.7800  -31.9770 C   0  0  0  0  0  0  0  0  0  0  0  0
   -4.5510   23.3720  -30.3510 C   0  0  0  0  0  0  0  0  0  0  0  0
   -5.6120   22.4710  -30.1250 C   0  0  0  0  0  0  0  0  0  0  0  0
   -6.9370   22.9080  -30.1570 C   0  0  0  0  0  0  0  0  0  0  0  0
   -7.2230   24.2470  -30.4170 C   0  0  0  0  0  0  0  0  0  0  0  0
   -6.1890   25.1570  -30.6360 C   0  0  0  0  0  0  0  0  0  0  0  0
   -4.8570   24.7320  -30.6030 C   0  0  0  0  0  0  0  0  0  0  0  0
   -3.8580   25.6680  -30.8280 O   0  0  0  0  0  0  0  0  0  0  0  0
   -1.2472   21.7902  -32.7468 H   0  0  0  0  0  0  0  0  0  0  0  0
   -1.4095   20.4880  -34.8615 H   0  0  0  0  0  0  0  0  0  0  0  0
   -3.1181   18.6953  -35.1141 H   0  0  0  0  0  0  0  0  0  0  0  0
   -5.6923   20.3793  -33.3884 H   0  0  0  0  0  0  0  0  0  0  0  0
   -7.1499   20.2084  -34.4633 H   0  0  0  0  0  0  0  0  0  0  0  0
   -7.0389   21.0023  -31.5258 H   0  0  0  0  0  0  0  0  0  0  0  0
   -7.7462   21.8983  -32.9188 H   0  0  0  0  0  0  0  0  0  0  0  0
   -8.8147   19.1959  -30.5103 H   0  0  0  0  0  0  0  0  0  0  0  0
   -9.4256   18.3636  -32.0328 H   0  0  0  0  0  0  0  0  0  0  0  0
   -6.5897   18.7346  -31.0606 H   0  0  0  0  0  0  0  0  0  0  0  0
   -7.4297   17.2582  -31.6565 H   0  0  0  0  0  0  0  0  0  0  0  0
   -4.6362   19.6010  -31.1749 H   0  0  0  0  0  0  0  0  0  0  0  0
   -5.3929   21.4125  -29.9213 H   0  0  0  0  0  0  0  0  0  0  0  0
   -7.7556   22.1956  -29.9770 H   0  0  0  0  0  0  0  0  0  0  0  0
   -8.2685   24.5875  -30.4496 H   0  0  0  0  0  0  0  0  0  0  0  0
   -6.4221   26.2133  -30.8355 H   0  0  0  0  0  0  0  0  0  0  0  0
  1  2  2  0
  2  3  1  0
  3  4  1  0
  4  5  2  0
  5  6  1  0
  6  7  2  0
  7  8  1  0
  8  9  1  0
  9 10  2  0
  9 11  2  0
  9 12  1  0
 12 13  1  0
 13 14  1  0
 14 15  1  0
 15 16  1  0
 16 17  1  0
  8 18  2  0
  2 19  1  0
 19 20  2  0
 20 21  1  0
 21 22  2  0
 22 23  1  0
 23 24  2  0
 24 25  1  0
 18  4  1  0
 24 19  1  0
 17 12  1  0
  5 26  1  0
  6 27  1  0
  7 28  1  0
 13 29  1  0
 13 30  1  0
 14 31  1  0
 14 32  1  0
 16 33  1  0
 16 34  1  0
 17 35  1  0
 17 36  1  0
 18 37  1  0
 20 38  1  0
 21 39  1  0
 22 40  1  0
 23 41  1  0
M  CHG  2   3  -1  25  -1
M  END
>  <UniqueID>  (39) 
38

>  <SMILES>  (39) 
O=C([N-]c1cccc(S(=O)(=O)N2CCOCC2)c1)c1ccccc1[O-]

>  <Energy>  (39) 
60.46124320136955

>  <Genealogy>  (39) 
O=C([N-]c1cccc(S(=O)(=O)N2CCOCC2)c1)c1ccccc1[O-] (protonated)
O=C([N-]c1cccc(S(=O)(=O)N2CCOCC2)c1)c1ccccc1[O-] (3D coordinates assigned)
O=C([N-]c1cccc(S(=O)(=O)N2CCOCC2)c1)c1ccccc1[O-] (nonaromatic ring conformer: 60.46124320136955 kcal/mol)

>  <smiles>  (39) 
O=C(Nc1cccc(S(=O)(=O)N2CCOCC2)c1)c1ccccc1O

>  <score_type>  (39) 
oracle

>  <origin>  (39) 
adgpu

>  <m_score__min__energy>  (39) 
-13.369999999999999

>  <m_primary>  (39) 
energy

$$$$
39:0
     RDKit          3D

 56 59  0  0  0  0  0  0  0  0999 V2000
   -5.9710   26.0210  -29.9150 O   0  0  0  0  0  0  0  0  0  0  0  0
   -5.2570   25.1020  -30.3960 C   0  0  0  0  0  0  0  0  0  0  0  0
   -3.8390   25.3000  -30.4750 N   0  0  0  0  0  0  0  0  0  0  0  0
   -2.8400   24.4550  -29.8860 C   0  0  0  0  0  0  0  0  0  0  0  0
   -2.9820   23.0670  -30.0000 C   0  0  0  0  0  0  0  0  0  0  0  0
   -2.0160   22.2040  -29.4650 C   0  0  0  0  0  0  0  0  0  0  0  0
   -2.2100   20.4620  -29.6360 S   0  0  0  0  0  0  0  0  0  0  0  0
   -3.6510   20.1320  -29.9170 O   0  0  0  0  0  0  0  0  0  0  0  0
   -1.8130   19.8100  -28.3410 O   0  0  0  0  0  0  0  0  0  0  0  0
   -1.1880   19.8760  -30.9310 N   0  0  0  0  0  0  0  0  0  0  0  0
   -0.4100   20.9750  -31.5120 C   0  0  0  0  0  0  0  0  0  0  0  0
   -1.1830   21.5280  -32.7010 C   0  0  0  0  0  0  0  0  0  0  0  0
   -2.2310   20.4810  -33.0280 C   0  0  0  0  0  0  0  0  0  0  0  0
   -2.0040   19.3540  -32.0320 C   0  0  0  0  0  0  0  0  0  0  0  0
   -0.9120   22.7370  -28.7860 C   0  0  0  0  0  0  0  0  0  0  0  0
   -0.7820   24.1190  -28.6360 C   0  0  0  0  0  0  0  0  0  0  0  0
   -1.7450   24.9810  -29.1690 C   0  0  0  0  0  0  0  0  0  0  0  0
   -1.6180   26.3500  -28.9590 O   0  0  0  0  0  0  0  0  0  0  0  0
   -5.8940   23.8360  -30.8270 C   0  0  0  0  0  0  0  0  0  0  0  0
   -5.4920   23.1960  -32.0130 C   0  0  0  0  0  0  0  0  0  0  0  0
   -6.1240   22.0240  -32.4320 C   0  0  0  0  0  0  0  0  0  0  0  0
   -7.1630   21.4700  -31.6730 C   0  0  0  0  0  0  0  0  0  0  0  0
   -7.9970   20.0200  -32.2380 S   0  0  0  0  0  0  0  0  0  0  0  0
   -8.5140   19.2560  -31.0510 O   0  0  0  0  0  0  0  0  0  0  0  0
   -9.1730   20.4210  -33.0840 O   0  0  0  0  0  0  0  0  0  0  0  0
   -6.9370   18.9900  -33.1690 N   0  0  0  0  0  0  0  0  0  0  0  0
   -5.5500   19.1070  -32.6870 C   0  0  0  0  0  0  0  0  0  0  0  0
   -4.6580   18.0170  -33.3170 C   0  0  0  0  0  0  0  0  0  0  0  0
   -5.3100   17.3980  -34.4080 O   0  0  0  0  0  0  0  0  0  0  0  0
   -6.4550   16.6990  -33.9500 C   0  0  0  0  0  0  0  0  0  0  0  0
   -7.3830   17.5900  -33.0980 C   0  0  0  0  0  0  0  0  0  0  0  0
   -7.5450   22.0860  -30.4740 C   0  0  0  0  0  0  0  0  0  0  0  0
   -6.9100   23.2570  -30.0490 C   0  0  0  0  0  0  0  0  0  0  0  0
   -3.8602   22.6497  -30.5144 H   0  0  0  0  0  0  0  0  0  0  0  0
   -0.2651   21.7661  -30.7615 H   0  0  0  0  0  0  0  0  0  0  0  0
    0.5768   20.6125  -31.8356 H   0  0  0  0  0  0  0  0  0  0  0  0
   -1.6626   22.4822  -32.4372 H   0  0  0  0  0  0  0  0  0  0  0  0
   -0.5237   21.7262  -33.5589 H   0  0  0  0  0  0  0  0  0  0  0  0
   -3.2417   20.8992  -32.9115 H   0  0  0  0  0  0  0  0  0  0  0  0
   -2.1472   20.1303  -34.0672 H   0  0  0  0  0  0  0  0  0  0  0  0
   -2.9702   18.9990  -31.6441 H   0  0  0  0  0  0  0  0  0  0  0  0
   -1.4915   18.5119  -32.5200 H   0  0  0  0  0  0  0  0  0  0  0  0
   -0.1464   22.0653  -28.3704 H   0  0  0  0  0  0  0  0  0  0  0  0
    0.0827   24.5317  -28.0956 H   0  0  0  0  0  0  0  0  0  0  0  0
   -4.6748   23.6214  -32.6140 H   0  0  0  0  0  0  0  0  0  0  0  0
   -5.8045   21.5329  -33.3630 H   0  0  0  0  0  0  0  0  0  0  0  0
   -5.1559   20.0973  -32.9589 H   0  0  0  0  0  0  0  0  0  0  0  0
   -5.5442   18.9798  -31.5944 H   0  0  0  0  0  0  0  0  0  0  0  0
   -3.7232   18.4767  -33.6702 H   0  0  0  0  0  0  0  0  0  0  0  0
   -4.4470   17.2525  -32.5548 H   0  0  0  0  0  0  0  0  0  0  0  0
   -7.0180   16.3330  -34.8212 H   0  0  0  0  0  0  0  0  0  0  0  0
   -6.1110   15.8683  -33.3162 H   0  0  0  0  0  0  0  0  0  0  0  0
   -8.4118   17.5152  -33.4799 H   0  0  0  0  0  0  0  0  0  0  0  0
   -7.3491   17.2519  -32.0518 H   0  0  0  0  0  0  0  0  0  0  0  0
   -8.3481   21.6464  -29.8642 H   0  0  0  0  0  0  0  0  0  0  0  0
   -7.2077   23.7273  -29.1002 H   0  0  0  0  0  0  0  0  0  0  0  0
  1  2  2  0
  2  3  1  0
  3  4  1  0
  4  5  2  0
  5  6  1  0
  6  7  1  0
  7  8  2  0
  7  9  2  0
  7 10  1  0
 10 11  1  0
 11 12  1  0
 12 13  1  0
 13 14  1  0
  6 15  2  0
 15 16  1  0
 16 17  2  0
 17 18  1  0
  2 19  1  0
 19 20  2  0
 20 21  1  0
 21 22  2  0
 22 23  1  0
 23 24  2  0
 23 25  2  0
 23 26  1  0
 26 27  1  0
 27 28  1  0
 28 29  1  0
 29 30  1  0
 30 31  1  0
 22 32  1  0
 32 33  2  0
 17  4  1  0
 33 19  1  0
 14 10  1  0
 31 26  1  0
  5 34  1  0
 11 35  1  0
 11 36  1  0
 12 37  1  0
 12 38  1  0
 13 39  1  0
 13 40  1  0
 14 41  1  0
 14 42  1  0
 15 43  1  0
 16 44  1  0
 20 45  1  0
 21 46  1  0
 27 47  1  0
 27 48  1  0
 28 49  1  0
 28 50  1  0
 30 51  1  0
 30 52  1  0
 31 53  1  0
 31 54  1  0
 32 55  1  0
 33 56  1  0
M  CHG  2   3  -1  18  -1
M  END
>  <UniqueID>  (40) 
39

>  <SMILES>  (40) 
O=C([N-]c1cc(S(=O)(=O)N2CCCC2)ccc1[O-])c1ccc(S(=O)(=O)N2CCOCC2)cc1

>  <Energy>  (40) 
74.51374202506472

>  <Genealogy>  (40) 
O=C([N-]c1cc(S(=O)(=O)N2CCCC2)ccc1[O-])c1ccc(S(=O)(=O)N2CCOCC2)cc1 (protonated)
O=C([N-]c1cc(S(=O)(=O)N2CCCC2)ccc1[O-])c1ccc(S(=O)(=O)N2CCOCC2)cc1 (3D coordinates assigned)
O=C([N-]c1cc(S(=O)(=O)N2CCCC2)ccc1[O-])c1ccc(S(=O)(=O)N2CCOCC2)cc1 (nonaromatic ring conformer: 74.51374202506472 kcal/mol)

>  <smiles>  (40) 
O=C(Nc1cc(S(=O)(=O)N2CCCC2)ccc1O)c1ccc(S(=O)(=O)N2CCOCC2)cc1

>  <score_type>  (40) 
oracle

>  <origin>  (40) 
adgpu

>  <m_score__min__energy>  (40) 
-15.17

>  <m_primary>  (40) 
energy

$$$$
40:0
     RDKit          3D

 72 76  0  0  0  0  0  0  0  0999 V2000
   -9.1820   21.9270  -32.0510 C   0  0  0  0  0  0  0  0  0  0  0  0
   -8.5190   20.6140  -32.3630 C   0  0  0  0  0  0  0  0  0  0  0  0
   -8.8010   20.0590  -33.4180 O   0  0  0  0  0  0  0  0  0  0  0  0
   -7.5590   20.0110  -31.4450 N   0  0  0  0  0  0  0  0  0  0  0  0
   -6.1570   20.2370  -31.9100 C   0  0  0  0  0  0  0  0  0  0  0  0
   -5.3430   18.9510  -32.1230 C   0  0  0  0  0  0  0  0  0  0  0  0
   -6.1470   17.9380  -32.8170 N   0  0  0  0  0  0  0  0  0  0  0  0
   -5.5940   17.1450  -33.8900 C   0  0  0  0  0  0  0  0  0  0  0  0
   -6.3680   16.5440  -34.6860 O   0  0  0  0  0  0  0  0  0  0  0  0
   -4.1360   17.0320  -34.0960 C   0  0  0  0  0  0  0  0  0  0  0  0
   -3.6290   16.7870  -35.3770 C   0  0  0  0  0  0  0  0  0  0  0  0
   -2.2520   16.7100  -35.5820 C   0  0  0  0  0  0  0  0  0  0  0  0
   -1.3620   16.8650  -34.5130 C   0  0  0  0  0  0  0  0  0  0  0  0
    0.3610   16.7480  -34.8630 Cl  0  0  0  0  0  0  0  0  0  0  0  0
   -1.8600   17.1030  -33.2090 C   0  0  0  0  0  0  0  0  0  0  0  0
   -0.9410   17.1850  -32.0080 C   0  0  0  0  0  0  0  0  0  0  0  0
    0.1260   18.6700  -32.0360 S   0  0  0  0  0  0  0  0  0  0  0  0
   -1.2320   19.8520  -32.0240 C   0  0  0  0  0  0  0  0  0  0  0  0
   -1.9390   20.0570  -30.8360 C   0  0  0  0  0  0  0  0  0  0  0  0
   -2.9530   21.0120  -30.7750 C   0  0  0  0  0  0  0  0  0  0  0  0
   -3.2490   21.8000  -31.8950 C   0  0  0  0  0  0  0  0  0  0  0  0
   -4.2410   22.8300  -31.8320 N   0  0  0  0  0  0  0  0  0  0  0  0
   -4.4610   23.8290  -30.4310 S   0  0  0  0  0  0  0  0  0  0  0  0
   -4.4700   25.2700  -30.8480 O   0  0  0  0  0  0  0  0  0  0  0  0
   -5.7950   23.5140  -29.8220 O   0  0  0  0  0  0  0  0  0  0  0  0
   -3.2090   23.5570  -29.2190 C   0  0  0  0  0  0  0  0  0  0  0  0
   -3.4420   22.6780  -28.1530 C   0  0  0  0  0  0  0  0  0  0  0  0
   -2.4610   22.4730  -27.1770 C   0  0  0  0  0  0  0  0  0  0  0  0
   -1.2240   23.1370  -27.2650 C   0  0  0  0  0  0  0  0  0  0  0  0
   -0.9930   24.0150  -28.3400 C   0  0  0  0  0  0  0  0  0  0  0  0
   -1.9780   24.2220  -29.3100 C   0  0  0  0  0  0  0  0  0  0  0  0
    0.2310   24.6880  -28.4380 O   0  0  0  0  0  0  0  0  0  0  0  0
    1.1600   24.7110  -27.3570 C   0  0  0  0  0  0  0  0  0  0  0  0
    1.1880   23.3570  -26.6390 C   0  0  0  0  0  0  0  0  0  0  0  0
   -0.1790   22.9460  -26.2850 N   0  0  0  0  0  0  0  0  0  0  0  0
   -0.4750   22.4400  -24.9440 C   0  0  0  0  0  0  0  0  0  0  0  0
   -2.5860   21.5560  -33.1050 C   0  0  0  0  0  0  0  0  0  0  0  0
   -1.5750   20.5900  -33.1730 C   0  0  0  0  0  0  0  0  0  0  0  0
   -0.7400   20.3430  -34.7020 Cl  0  0  0  0  0  0  0  0  0  0  0  0
   -3.2530   17.1780  -33.0150 C   0  0  0  0  0  0  0  0  0  0  0  0
   -7.5160   17.6740  -32.3660 C   0  0  0  0  0  0  0  0  0  0  0  0
   -7.9000   18.5900  -31.1930 C   0  0  0  0  0  0  0  0  0  0  0  0
   -9.2467   22.0551  -30.9604 H   0  0  0  0  0  0  0  0  0  0  0  0
   -8.5904   22.7481  -32.4822 H   0  0  0  0  0  0  0  0  0  0  0  0
  -10.1939   21.9384  -32.4822 H   0  0  0  0  0  0  0  0  0  0  0  0
   -7.6560   20.4930  -30.5200 H   0  0  0  0  0  0  0  0  0  0  0  0
   -6.1950   20.7821  -32.8647 H   0  0  0  0  0  0  0  0  0  0  0  0
   -5.6495   20.8011  -31.1136 H   0  0  0  0  0  0  0  0  0  0  0  0
   -4.4535   19.1824  -32.7273 H   0  0  0  0  0  0  0  0  0  0  0  0
   -5.0444   18.5544  -31.1414 H   0  0  0  0  0  0  0  0  0  0  0  0
   -4.3182   16.6549  -36.2241 H   0  0  0  0  0  0  0  0  0  0  0  0
   -1.8614   16.5257  -36.5936 H   0  0  0  0  0  0  0  0  0  0  0  0
   -1.5553   17.2102  -31.0959 H   0  0  0  0  0  0  0  0  0  0  0  0
   -0.2839   16.3032  -32.0316 H   0  0  0  0  0  0  0  0  0  0  0  0
   -1.6941   19.4616  -29.9441 H   0  0  0  0  0  0  0  0  0  0  0  0
   -3.5228   21.1473  -29.8439 H   0  0  0  0  0  0  0  0  0  0  0  0
   -4.4022   22.1459  -28.0832 H   0  0  0  0  0  0  0  0  0  0  0  0
   -2.6577   21.7899  -26.3375 H   0  0  0  0  0  0  0  0  0  0  0  0
   -1.7867   24.9090  -30.1476 H   0  0  0  0  0  0  0  0  0  0  0  0
    2.1638   24.9334  -27.7480 H   0  0  0  0  0  0  0  0  0  0  0  0
    0.8499   25.4856  -26.6401 H   0  0  0  0  0  0  0  0  0  0  0  0
    1.6348   22.6021  -27.3027 H   0  0  0  0  0  0  0  0  0  0  0  0
    1.7865   23.4481  -25.7206 H   0  0  0  0  0  0  0  0  0  0  0  0
   -0.0693   23.1335  -24.1926 H   0  0  0  0  0  0  0  0  0  0  0  0
   -1.5643   22.3566  -24.8157 H   0  0  0  0  0  0  0  0  0  0  0  0
   -0.0138   21.4496  -24.8157 H   0  0  0  0  0  0  0  0  0  0  0  0
   -2.8609   22.1256  -34.0050 H   0  0  0  0  0  0  0  0  0  0  0  0
   -3.6531   17.3529  -32.0054 H   0  0  0  0  0  0  0  0  0  0  0  0
   -8.2095   17.8506  -33.2014 H   0  0  0  0  0  0  0  0  0  0  0  0
   -7.5762   16.6293  -32.0269 H   0  0  0  0  0  0  0  0  0  0  0  0
   -8.9843   18.5121  -31.0253 H   0  0  0  0  0  0  0  0  0  0  0  0
   -7.3291   18.2611  -30.3122 H   0  0  0  0  0  0  0  0  0  0  0  0
  1  2  1  0
  2  3  2  0
  2  4  1  0
  4  5  1  0
  5  6  1  0
  6  7  1  0
  7  8  1  0
  8  9  2  0
  8 10  1  0
 10 11  2  0
 11 12  1  0
 12 13  2  0
 13 14  1  0
 13 15  1  0
 15 16  1  0
 16 17  1  0
 17 18  1  0
 18 19  2  0
 19 20  1  0
 20 21  2  0
 21 22  1  0
 22 23  1  0
 23 24  2  0
 23 25  2  0
 23 26  1  0
 26 27  2  0
 27 28  1  0
 28 29  2  0
 29 30  1  0
 30 31  2  0
 30 32  1  0
 32 33  1  0
 33 34  1  0
 34 35  1  0
 35 36  1  0
 21 37  1  0
 37 38  2  0
 38 39  1  0
 15 40  2  0
  7 41  1  0
 41 42  1  0
 42  4  1  0
 40 10  1  0
 38 18  1  0
 31 26  1  0
 35 29  1  0
  1 43  1  0
  1 44  1  0
  1 45  1  0
  4 46  1  0
  5 47  1  0
  5 48  1  0
  6 49  1  0
  6 50  1  0
 11 51  1  0
 12 52  1  0
 16 53  1  0
 16 54  1  0
 19 55  1  0
 20 56  1  0
 27 57  1  0
 28 58  1  0
 31 59  1  0
 33 60  1  0
 33 61  1  0
 34 62  1  0
 34 63  1  0
 36 64  1  0
 36 65  1  0
 36 66  1  0
 37 67  1  0
 40 68  1  0
 41 69  1  0
 41 70  1  0
 42 71  1  0
 42 72  1  0
M  CHG  2   4   1  22  -1
M  END
>  <UniqueID>  (41) 
40

>  <SMILES>  (41) 
CC(=O)[NH+]1CCN(C(=O)c2ccc(Cl)c(CSc3ccc([N-]S(=O)(=O)c4ccc5c(c4)OCCN5C)cc3Cl)c2)CC1

>  <Energy>  (41) 
92.97421554271972

>  <Genealogy>  (41) 
CC(=O)[NH+]1CCN(C(=O)c2ccc(Cl)c(CSc3ccc([N-]S(=O)(=O)c4ccc5c(c4)OCCN5C)cc3Cl)c2)CC1 (protonated)
CC(=O)[NH+]1CCN(C(=O)c2ccc(Cl)c(CSc3ccc([N-]S(=O)(=O)c4ccc5c(c4)OCCN5C)cc3Cl)c2)CC1 (3D coordinates assigned)
CC(=O)[NH+]1CCN(C(=O)c2ccc(Cl)c(CSc3ccc([N-]S(=O)(=O)c4ccc5c(c4)OCCN5C)cc3Cl)c2)CC1 (nonaromatic ring conformer: 92.97421554271972 kcal/mol)

>  <smiles>  (41) 
CC(=O)N1CCN(C(=O)c2ccc(Cl)c(CSc3ccc(NS(=O)(=O)c4ccc5c(c4)OCCN5C)cc3Cl)c2)CC1

>  <score_type>  (41) 
oracle

>  <origin>  (41) 
adgpu

>  <m_score__min__energy>  (41) 
-11.210000000000001

>  <m_primary>  (41) 
energy

$$$$
41:0
     RDKit          3D

 58 62  0  0  0  0  0  0  0  0999 V2000
   -4.0580   16.5600  -34.0620 O   0  0  0  0  0  0  0  0  0  0  0  0
   -4.6550   17.9240  -33.8600 S   0  0  0  0  0  0  0  0  0  0  0  0
   -5.2970   18.3810  -35.1420 O   0  0  0  0  0  0  0  0  0  0  0  0
   -5.8620   17.8390  -32.6160 N   0  0  0  0  0  0  0  0  0  0  0  0
   -6.8370   18.8570  -32.3610 C   0  0  0  0  0  0  0  0  0  0  0  0
   -8.1810   18.5390  -32.0220 C   0  0  0  0  0  0  0  0  0  0  0  0
   -9.1170   19.5580  -31.7630 C   0  0  0  0  0  0  0  0  0  0  0  0
   -8.6820   20.8780  -31.8460 C   0  0  0  0  0  0  0  0  0  0  0  0
   -9.4090   21.9900  -31.6370 N   0  0  0  0  0  0  0  0  0  0  0  0
   -8.5650   23.0290  -31.8270 C   0  0  0  0  0  0  0  0  0  0  0  0
   -7.2910   22.5690  -32.1490 C   0  0  0  0  0  0  0  0  0  0  0  0
   -6.0900   23.4090  -32.4790 C   0  0  0  0  0  0  0  0  0  0  0  0
   -5.7470   24.3700  -31.3250 C   0  0  1  0  0  0  0  0  0  0  0  0
   -6.3040   23.9130  -29.9800 C   0  0  0  0  0  0  0  0  0  0  0  0
   -5.3350   24.4780  -28.9620 C   0  0  0  0  0  0  0  0  0  0  0  0
   -4.1110   24.9190  -29.7630 C   0  0  0  0  0  0  0  0  0  0  0  0
   -4.2990   24.5090  -31.1550 N   0  0  0  0  0  0  0  0  0  0  0  0
   -7.3870   21.1900  -32.1710 C   0  0  0  0  0  0  0  0  0  0  0  0
   -6.4370   20.2050  -32.4460 C   0  0  0  0  0  0  0  0  0  0  0  0
   -3.4170   19.0880  -33.3980 C   0  0  0  0  0  0  0  0  0  0  0  0
   -2.2970   19.2990  -34.2130 C   0  0  0  0  0  0  0  0  0  0  0  0
   -1.3100   20.2090  -33.8250 C   0  0  0  0  0  0  0  0  0  0  0  0
   -1.4360   20.9110  -32.6220 C   0  0  0  0  0  0  0  0  0  0  0  0
   -2.5510   20.7030  -31.8010 C   0  0  0  0  0  0  0  0  0  0  0  0
   -2.7350   21.5930  -30.2950 S   0  0  0  0  0  0  0  0  0  0  0  0
   -4.1830   21.9170  -30.0560 O   0  0  0  0  0  0  0  0  0  0  0  0
   -1.9710   22.8850  -30.3760 O   0  0  0  0  0  0  0  0  0  0  0  0
   -2.1150   20.6070  -28.9770 C   0  0  0  0  0  0  0  0  0  0  0  0
   -0.8440   20.0210  -29.0690 C   0  0  0  0  0  0  0  0  0  0  0  0
   -0.3380   19.2710  -28.0020 C   0  0  0  0  0  0  0  0  0  0  0  0
   -1.0960   19.1080  -26.8380 C   0  0  0  0  0  0  0  0  0  0  0  0
   -2.3610   19.6940  -26.7400 C   0  0  0  0  0  0  0  0  0  0  0  0
   -2.8690   20.4460  -27.8050 C   0  0  0  0  0  0  0  0  0  0  0  0
   -3.5450   19.8000  -32.1990 C   0  0  0  0  0  0  0  0  0  0  0  0
   -8.4924   17.4857  -31.9615 H   0  0  0  0  0  0  0  0  0  0  0  0
  -10.1589   19.3190  -31.5033 H   0  0  0  0  0  0  0  0  0  0  0  0
  -10.4230   22.0450  -31.3860 H   0  0  0  0  0  0  0  0  0  0  0  0
   -8.8455   24.0890  -31.7395 H   0  0  0  0  0  0  0  0  0  0  0  0
   -5.2300   22.7484  -32.6632 H   0  0  0  0  0  0  0  0  0  0  0  0
   -6.3189   24.0071  -33.3734 H   0  0  0  0  0  0  0  0  0  0  0  0
   -6.2097   25.3259  -31.6116 H   0  0  0  0  0  0  0  0  0  0  0  0
   -7.3154   24.3150  -29.8202 H   0  0  0  0  0  0  0  0  0  0  0  0
   -6.3940   22.8188  -29.9123 H   0  0  0  0  0  0  0  0  0  0  0  0
   -5.7828   25.3368  -28.4406 H   0  0  0  0  0  0  0  0  0  0  0  0
   -5.0734   23.7364  -28.1928 H   0  0  0  0  0  0  0  0  0  0  0  0
   -4.0055   26.0126  -29.7086 H   0  0  0  0  0  0  0  0  0  0  0  0
   -3.2023   24.4554  -29.3514 H   0  0  0  0  0  0  0  0  0  0  0  0
   -3.8530   23.5670  -31.2640 H   0  0  0  0  0  0  0  0  0  0  0  0
   -5.4063   20.4735  -32.7210 H   0  0  0  0  0  0  0  0  0  0  0  0
   -2.1945   18.7477  -35.1593 H   0  0  0  0  0  0  0  0  0  0  0  0
   -0.4322   20.3735  -34.4671 H   0  0  0  0  0  0  0  0  0  0  0  0
   -0.6579   21.6277  -32.3203 H   0  0  0  0  0  0  0  0  0  0  0  0
   -0.2441   20.1514  -29.9817 H   0  0  0  0  0  0  0  0  0  0  0  0
    0.6573   18.8089  -28.0786 H   0  0  0  0  0  0  0  0  0  0  0  0
   -0.6965   18.5185  -25.9996 H   0  0  0  0  0  0  0  0  0  0  0  0
   -2.9576   19.5640  -25.8251 H   0  0  0  0  0  0  0  0  0  0  0  0
   -3.8620   20.9121  -27.7231 H   0  0  0  0  0  0  0  0  0  0  0  0
   -4.4317   19.6492  -31.5658 H   0  0  0  0  0  0  0  0  0  0  0  0
  1  2  2  0
  2  3  2  0
  2  4  1  0
  4  5  1  0
  5  6  2  0
  6  7  1  0
  7  8  2  0
  8  9  1  0
  9 10  1  0
 10 11  2  0
 11 12  1  0
 12 13  1  0
 13 14  1  0
 14 15  1  0
 15 16  1  0
 16 17  1  0
 11 18  1  0
 18 19  2  0
  2 20  1  0
 20 21  2  0
 21 22  1  0
 22 23  2  0
 23 24  1  0
 24 25  1  0
 25 26  2  0
 25 27  2  0
 25 28  1  0
 28 29  2  0
 29 30  1  0
 30 31  2  0
 31 32  1  0
 32 33  2  0
 24 34  2  0
 19  5  1  0
 34 20  1  0
 18  8  1  0
 33 28  1  0
 17 13  1  0
  6 35  1  0
  7 36  1  0
  9 37  1  0
 10 38  1  0
 12 39  1  0
 12 40  1  0
 13 41  1  6
 14 42  1  0
 14 43  1  0
 15 44  1  0
 15 45  1  0
 16 46  1  0
 16 47  1  0
 17 48  1  0
 19 49  1  0
 21 50  1  0
 22 51  1  0
 23 52  1  0
 29 53  1  0
 30 54  1  0
 31 55  1  0
 32 56  1  0
 33 57  1  0
 34 58  1  0
M  CHG  1   4  -1
M  END
>  <UniqueID>  (42) 
41

>  <SMILES>  (42) 
O=S(=O)([N-]c1ccc2[nH]cc(C[C@H]3CCCN3)c2c1)c1cccc(S(=O)(=O)c2ccccc2)c1

>  <Energy>  (42) 
98.55560180272423

>  <Genealogy>  (42) 
O=S(=O)([N-]c1ccc2[nH]cc(CC3CCCN3)c2c1)c1cccc(S(=O)(=O)c2ccccc2)c1 (protonated)
O=S(=O)([N-]c1ccc2[nH]cc(C[C@H]3CCCN3)c2c1)c1cccc(S(=O)(=O)c2ccccc2)c1 (chirality)
O=S(=O)([N-]c1ccc2[nH]cc(C[C@H]3CCCN3)c2c1)c1cccc(S(=O)(=O)c2ccccc2)c1 (3D coordinates assigned)
O=S(=O)([N-]c1ccc2[nH]cc(C[C@H]3CCCN3)c2c1)c1cccc(S(=O)(=O)c2ccccc2)c1 (nonaromatic ring conformer: 98.55560180272423 kcal/mol)

>  <smiles>  (42) 
O=S(=O)(Nc1ccc2[nH]cc(CC3CCCN3)c2c1)c1cccc(S(=O)(=O)c2ccccc2)c1

>  <score_type>  (42) 
oracle

>  <origin>  (42) 
adgpu

>  <m_score__min__energy>  (42) 
-12.9

>  <m_primary>  (42) 
energy

$$$$
42:0
     RDKit          3D

 57 60  0  0  0  0  0  0  0  0999 V2000
   -7.2370   23.7290  -30.2000 C   0  0  0  0  0  0  0  0  0  0  0  0
   -6.3370   24.4100  -31.1450 N   0  0  0  0  0  0  0  0  0  0  0  0
   -5.4190   25.3160  -30.4160 C   0  0  0  0  0  0  0  0  0  0  0  0
   -4.6260   24.6020  -29.2910 C   0  0  0  0  0  0  0  0  0  0  0  0
   -3.4310   23.8010  -29.7690 C   0  0  0  0  0  0  0  0  0  0  0  0
   -2.1360   24.1640  -29.3640 C   0  0  0  0  0  0  0  0  0  0  0  0
   -1.0270   23.4180  -29.7680 C   0  0  0  0  0  0  0  0  0  0  0  0
    0.2390   23.7990  -29.3370 O   0  0  0  0  0  0  0  0  0  0  0  0
   -1.1900   22.2890  -30.5900 C   0  0  0  0  0  0  0  0  0  0  0  0
   -0.0410   21.5160  -30.9840 N   0  0  0  0  0  0  0  0  0  0  0  0
    0.1180   20.7900  -32.5530 S   0  0  0  0  0  0  0  0  0  0  0  0
    0.3510   21.8680  -33.5730 O   0  0  0  0  0  0  0  0  0  0  0  0
    1.2900   19.8520  -32.5530 O   0  0  0  0  0  0  0  0  0  0  0  0
   -1.3390   19.8740  -32.9330 C   0  0  0  0  0  0  0  0  0  0  0  0
   -2.4220   20.5170  -33.5440 C   0  0  0  0  0  0  0  0  0  0  0  0
   -3.5670   19.7940  -33.8880 C   0  0  0  0  0  0  0  0  0  0  0  0
   -3.6430   18.4210  -33.6170 C   0  0  0  0  0  0  0  0  0  0  0  0
   -5.0920   17.5090  -34.0440 S   0  0  0  0  0  0  0  0  0  0  0  0
   -5.7450   18.1520  -35.2340 O   0  0  0  0  0  0  0  0  0  0  0  0
   -4.6980   16.1120  -34.4320 O   0  0  0  0  0  0  0  0  0  0  0  0
   -6.2400   17.4420  -32.7230 N   0  0  0  0  0  0  0  0  0  0  0  0
   -7.5750   17.8650  -33.1590 C   0  0  0  0  0  0  0  0  0  0  0  0
   -7.7630   19.3260  -32.7790 C   0  0  0  0  0  0  0  0  0  0  0  0
   -6.6660   19.6350  -31.7790 C   0  0  0  0  0  0  0  0  0  0  0  0
   -5.8570   18.3530  -31.6380 C   0  0  0  0  0  0  0  0  0  0  0  0
   -2.5570   17.7770  -33.0060 C   0  0  0  0  0  0  0  0  0  0  0  0
   -1.4120   18.5000  -32.6630 C   0  0  0  0  0  0  0  0  0  0  0  0
   -2.4830   21.9370  -31.0150 C   0  0  0  0  0  0  0  0  0  0  0  0
   -3.6040   22.6680  -30.5930 C   0  0  0  0  0  0  0  0  0  0  0  0
   -4.9800   22.2870  -31.0760 C   0  0  0  0  0  0  0  0  0  0  0  0
   -5.6080   23.3990  -31.9470 C   0  0  0  0  0  0  0  0  0  0  0  0
   -6.9302   23.9611  -29.1695 H   0  0  0  0  0  0  0  0  0  0  0  0
   -8.2686   24.0747  -30.3622 H   0  0  0  0  0  0  0  0  0  0  0  0
   -7.1847   22.6423  -30.3622 H   0  0  0  0  0  0  0  0  0  0  0  0
   -4.7022   25.7403  -31.1345 H   0  0  0  0  0  0  0  0  0  0  0  0
   -6.0348   26.0936  -29.9405 H   0  0  0  0  0  0  0  0  0  0  0  0
   -4.2665   25.3667  -28.5868 H   0  0  0  0  0  0  0  0  0  0  0  0
   -5.3189   23.8820  -28.8311 H   0  0  0  0  0  0  0  0  0  0  0  0
   -1.9939   25.0455  -28.7216 H   0  0  0  0  0  0  0  0  0  0  0  0
    0.6750   21.2540  -30.2700 H   0  0  0  0  0  0  0  0  0  0  0  0
   -2.3713   21.5956  -33.7541 H   0  0  0  0  0  0  0  0  0  0  0  0
   -4.4120   20.3043  -34.3734 H   0  0  0  0  0  0  0  0  0  0  0  0
   -7.6635   17.7503  -34.2494 H   0  0  0  0  0  0  0  0  0  0  0  0
   -8.3448   17.2462  -32.6747 H   0  0  0  0  0  0  0  0  0  0  0  0
   -7.6650   19.9686  -33.6664 H   0  0  0  0  0  0  0  0  0  0  0  0
   -8.7615   19.5098  -32.3556 H   0  0  0  0  0  0  0  0  0  0  0  0
   -6.0285   20.4509  -32.1503 H   0  0  0  0  0  0  0  0  0  0  0  0
   -7.0798   19.9598  -30.8130 H   0  0  0  0  0  0  0  0  0  0  0  0
   -4.7833   18.5818  -31.7066 H   0  0  0  0  0  0  0  0  0  0  0  0
   -6.0574   17.8849  -30.6629 H   0  0  0  0  0  0  0  0  0  0  0  0
   -2.6072   16.6984  -32.7961 H   0  0  0  0  0  0  0  0  0  0  0  0
   -0.5655   17.9901  -32.1799 H   0  0  0  0  0  0  0  0  0  0  0  0
   -2.6178   21.0769  -31.6874 H   0  0  0  0  0  0  0  0  0  0  0  0
   -4.9061   21.3658  -31.6726 H   0  0  0  0  0  0  0  0  0  0  0  0
   -5.6228   22.1361  -30.1962 H   0  0  0  0  0  0  0  0  0  0  0  0
   -4.8059   23.9041  -32.5052 H   0  0  0  0  0  0  0  0  0  0  0  0
   -6.3348   22.9225  -32.6213 H   0  0  0  0  0  0  0  0  0  0  0  0
  1  2  1  0
  2  3  1  0
  3  4  1  0
  4  5  1  0
  5  6  2  0
  6  7  1  0
  7  8  1  0
  7  9  2  0
  9 10  1  0
 10 11  1  0
 11 12  2  0
 11 13  2  0
 11 14  1  0
 14 15  2  0
 15 16  1  0
 16 17  2  0
 17 18  1  0
 18 19  2  0
 18 20  2  0
 18 21  1  0
 21 22  1  0
 22 23  1  0
 23 24  1  0
 24 25  1  0
 17 26  1  0
 26 27  2  0
  9 28  1  0
 28 29  2  0
 29 30  1  0
 30 31  1  0
 31  2  1  0
 29  5  1  0
 27 14  1  0
 25 21  1  0
  1 32  1  0
  1 33  1  0
  1 34  1  0
  3 35  1  0
  3 36  1  0
  4 37  1  0
  4 38  1  0
  6 39  1  0
 10 40  1  0
 15 41  1  0
 16 42  1  0
 22 43  1  0
 22 44  1  0
 23 45  1  0
 23 46  1  0
 24 47  1  0
 24 48  1  0
 25 49  1  0
 25 50  1  0
 26 51  1  0
 27 52  1  0
 28 53  1  0
 30 54  1  0
 30 55  1  0
 31 56  1  0
 31 57  1  0
M  CHG  1   8  -1
M  END
>  <UniqueID>  (43) 
42

>  <SMILES>  (43) 
CN1CCc2cc([O-])c(NS(=O)(=O)c3ccc(S(=O)(=O)N4CCCC4)cc3)cc2CC1

>  <Energy>  (43) 
72.21510898437354

>  <Genealogy>  (43) 
CN1CCc2cc([O-])c(NS(=O)(=O)c3ccc(S(=O)(=O)N4CCCC4)cc3)cc2CC1 (protonated)
CN1CCc2cc([O-])c(NS(=O)(=O)c3ccc(S(=O)(=O)N4CCCC4)cc3)cc2CC1 (3D coordinates assigned)
CN1CCc2cc([O-])c(NS(=O)(=O)c3ccc(S(=O)(=O)N4CCCC4)cc3)cc2CC1 (nonaromatic ring conformer: 72.21510898437354 kcal/mol)

>  <smiles>  (43) 
CN1CCc2cc(O)c(NS(=O)(=O)c3ccc(S(=O)(=O)N4CCCC4)cc3)cc2CC1

>  <score_type>  (43) 
oracle

>  <origin>  (43) 
adgpu

>  <m_score__min__energy>  (43) 
-12.92

>  <m_primary>  (43) 
energy

$$$$
43:0
     RDKit          3D

 53 56  0  0  0  0  0  0  0  0999 V2000
   -0.4770   24.8430  -28.4410 H   0  0  0  0  0  0  0  0  0  0  0  0
   -0.0560   23.9760  -28.8410 N   0  0  0  0  0  0  0  0  0  0  0  0
   -0.6800   23.1550  -29.6290 C   0  0  0  0  0  0  0  0  0  0  0  0
   -0.0360   22.0320  -30.0400 N   0  0  0  0  0  0  0  0  0  0  0  0
   -0.6460   21.0940  -30.8080 C   0  0  0  0  0  0  0  0  0  0  0  0
   -0.0923   20.2017  -31.1354 H   0  0  0  0  0  0  0  0  0  0  0  0
   -1.9870   21.2690  -31.1820 C   0  0  0  0  0  0  0  0  0  0  0  0
   -2.7080   20.2760  -32.0180 C   0  0  0  0  0  0  0  0  0  0  0  0
   -4.1140   20.2130  -31.9720 C   0  0  0  0  0  0  0  0  0  0  0  0
   -4.6693   20.9004  -31.3170 H   0  0  0  0  0  0  0  0  0  0  0  0
   -4.8100   19.2850  -32.7510 C   0  0  0  0  0  0  0  0  0  0  0  0
   -5.9088   19.2517  -32.7115 H   0  0  0  0  0  0  0  0  0  0  0  0
   -4.1160   18.3980  -33.5810 C   0  0  0  0  0  0  0  0  0  0  0  0
   -5.0110   17.2540  -34.5780 S   0  0  0  0  0  0  0  0  0  0  0  0
   -6.4210   17.7380  -34.7790 O   0  0  0  0  0  0  0  0  0  0  0  0
   -4.3410   17.1590  -35.9210 O   0  0  0  0  0  0  0  0  0  0  0  0
   -5.0160   15.6880  -33.8060 N   0  0  0  0  0  0  0  0  0  0  0  0
   -3.9330   14.8550  -34.3530 C   0  0  0  0  0  0  0  0  0  0  0  0
   -4.0509   14.7788  -35.4440 H   0  0  0  0  0  0  0  0  0  0  0  0
   -2.9674   15.3210  -34.1073 H   0  0  0  0  0  0  0  0  0  0  0  0
   -3.9750   13.4410  -33.7380 C   0  0  0  0  0  0  0  0  0  0  0  0
   -4.3261   12.7300  -34.5004 H   0  0  0  0  0  0  0  0  0  0  0  0
   -2.9612   13.1825  -33.3983 H   0  0  0  0  0  0  0  0  0  0  0  0
   -4.8830   13.3830  -32.5730 N   0  0  0  0  0  0  0  0  0  0  0  0
   -4.7380   12.0950  -31.8780 C   0  0  0  0  0  0  0  0  0  0  0  0
   -4.7567   12.2609  -30.7907 H   0  0  0  0  0  0  0  0  0  0  0  0
   -5.5669   11.4299  -32.1617 H   0  0  0  0  0  0  0  0  0  0  0  0
   -3.7819   11.6309  -32.1617 H   0  0  0  0  0  0  0  0  0  0  0  0
   -4.6070   14.4980  -31.6500 C   0  0  0  0  0  0  0  0  0  0  0  0
   -5.2684   14.4158  -30.7749 H   0  0  0  0  0  0  0  0  0  0  0  0
   -3.5542   14.4474  -31.3354 H   0  0  0  0  0  0  0  0  0  0  0  0
   -4.8550   15.8520  -32.3490 C   0  0  0  0  0  0  0  0  0  0  0  0
   -5.7692   16.3044  -31.9373 H   0  0  0  0  0  0  0  0  0  0  0  0
   -3.9827   16.4975  -32.1692 H   0  0  0  0  0  0  0  0  0  0  0  0
   -2.7170   18.4470  -33.6280 C   0  0  0  0  0  0  0  0  0  0  0  0
   -2.1663   17.7526  -34.2795 H   0  0  0  0  0  0  0  0  0  0  0  0
   -2.0180   19.3740  -32.8510 C   0  0  0  0  0  0  0  0  0  0  0  0
   -0.9190   19.3997  -32.8901 H   0  0  0  0  0  0  0  0  0  0  0  0
   -2.6250   22.4030  -30.7890 N   0  0  0  0  0  0  0  0  0  0  0  0
   -2.0180   23.3630  -30.0400 C   0  0  0  0  0  0  0  0  0  0  0  0
   -2.7910   24.5790  -29.7160 C   0  0  0  0  0  0  0  0  0  0  0  0
   -2.4520   25.2690  -28.7200 O   0  0  0  0  0  0  0  0  0  0  0  0
   -3.9210   24.9990  -30.4950 N   0  0  0  0  0  0  0  0  0  0  0  0
   -5.1180   24.2430  -30.7290 C   0  0  0  0  0  0  0  0  0  0  0  0
   -6.0730   24.1440  -29.7110 C   0  0  0  0  0  0  0  0  0  0  0  0
   -5.9052   24.6547  -28.7513 H   0  0  0  0  0  0  0  0  0  0  0  0
   -7.2080   23.4190  -29.9030 N   0  0  0  0  0  0  0  0  0  0  0  0
   -7.4480   22.7640  -31.0690 C   0  0  0  0  0  0  0  0  0  0  0  0
   -8.3800   22.1941  -31.1976 H   0  0  0  0  0  0  0  0  0  0  0  0
   -6.5130   22.8140  -32.1030 C   0  0  0  0  0  0  0  0  0  0  0  0
   -6.6993   22.2788  -33.0458 H   0  0  0  0  0  0  0  0  0  0  0  0
   -5.3390   23.5490  -31.9310 C   0  0  0  0  0  0  0  0  0  0  0  0
   -4.5885   23.5850  -32.7344 H   0  0  0  0  0  0  0  0  0  0  0  0
  1  2  1  0
  2  3  2  0
  3  4  1  0
  4  5  1  0
  5  6  1  0
  5  7  2  0
  7  8  1  0
  8  9  2  0
  9 10  1  0
  9 11  1  0
 11 12  1  0
 11 13  2  0
 13 14  1  0
 14 15  2  0
 14 16  2  0
 14 17  1  0
 17 18  1  0
 18 19  1  0
 18 20  1  0
 18 21  1  0
 21 22  1  0
 21 23  1  0
 21 24  1  0
 24 25  1  0
 25 26  1  0
 25 27  1  0
 25 28  1  0
 24 29  1  0
 29 30  1  0
 29 31  1  0
 29 32  1  0
 32 33  1  0
 32 34  1  0
 13 35  1  0
 35 36  1  0
 35 37  2  0
 37 38  1  0
  7 39  1  0
 39 40  2  0
 40 41  1  0
 41 42  2  0
 41 43  1  0
 43 44  1  0
 44 45  2  0
 45 46  1  0
 45 47  1  0
 47 48  2  0
 48 49  1  0
 48 50  1  0
 50 51  1  0
 50 52  2  0
 52 53  1  0
 40  3  1  0
 52 44  1  0
 37  8  1  0
 32 17  1  0
M  CHG  2   4  -1  43  -1
M  END
>  <UniqueID>  (44) 
43

>  <SMILES>  (44) 
[H]/N=c1/[n-]cc(-c2ccc(S(=O)(=O)N3CCN(C)CC3)cc2)nc1C(=O)[N-]c1cccnc1

>  <Energy>  (44) 
79.13606555301921

>  <Genealogy>  (44) 
CN1CCN(S(=O)(=O)c2ccc(-c3c[n-]c(=N)c(C(=O)[N-]c4cccnc4)n3)cc2)CC1 (protonated)
[H]/N=c1/[n-]cc(-c2ccc(S(=O)(=O)N3CCN(C)CC3)cc2)nc1C(=O)[N-]c1cccnc1 (cis-trans isomerization)
[H]/N=c1/[n-]cc(-c2ccc(S(=O)(=O)N3CCN(C)CC3)cc2)nc1C(=O)[N-]c1cccnc1 (3D coordinates assigned)
[H]/N=c1/[n-]cc(-c2ccc(S(=O)(=O)N3CCN(C)CC3)cc2)nc1C(=O)[N-]c1cccnc1 (nonaromatic ring conformer: 79.13606555301921 kcal/mol)

>  <smiles>  (44) 
CN1CCN(S(=O)(=O)c2ccc(-c3c[nH]c(=N)c(C(=O)Nc4cccnc4)n3)cc2)CC1

>  <score_type>  (44) 
oracle

>  <origin>  (44) 
adgpu

>  <m_score__min__energy>  (44) 
-11.470000000000001

>  <m_primary>  (44) 
energy

$$$$
44:0
     RDKit          3D

 61 64  0  0  0  0  0  0  0  0999 V2000
    3.5490   19.2960  -29.8610 C   0  0  0  0  0  0  0  0  0  0  0  0
    2.7530   18.8330  -31.0560 C   0  0  0  0  0  0  0  0  0  0  0  0
    3.1100   19.3200  -32.3310 C   0  0  0  0  0  0  0  0  0  0  0  0
    2.3670   18.9730  -33.4620 C   0  0  0  0  0  0  0  0  0  0  0  0
    2.7280   19.4510  -34.6820 F   0  0  0  0  0  0  0  0  0  0  0  0
    1.2440   18.1550  -33.3330 C   0  0  0  0  0  0  0  0  0  0  0  0
    0.8720   17.6640  -32.0800 C   0  0  0  0  0  0  0  0  0  0  0  0
    1.6200   17.9800  -30.9290 C   0  0  0  0  0  0  0  0  0  0  0  0
    1.1690   17.3960  -29.6010 C   0  0  0  0  0  0  0  0  0  0  0  0
   -0.1570   18.0210  -29.0950 C   0  0  0  0  0  0  0  0  0  0  0  0
   -0.4260   19.3730  -29.8090 C   0  0  0  0  0  0  0  0  0  0  0  0
   -0.0870   20.5670  -28.9220 C   0  0  0  0  0  0  0  0  0  0  0  0
   -0.8970   20.5110  -27.6970 N   0  0  0  0  0  0  0  0  0  0  0  0
   -1.4190   21.7190  -27.1110 C   0  0  0  0  0  0  0  0  0  0  0  0
   -1.3520   21.8910  -25.8620 O   0  0  0  0  0  0  0  0  0  0  0  0
   -2.0630   22.7480  -27.9520 C   0  0  0  0  0  0  0  0  0  0  0  0
   -1.3570   23.8960  -28.3410 C   0  0  0  0  0  0  0  0  0  0  0  0
   -1.9570   24.8420  -29.1770 C   0  0  0  0  0  0  0  0  0  0  0  0
   -3.2760   24.6620  -29.6090 C   0  0  0  0  0  0  0  0  0  0  0  0
   -3.8630   25.6190  -30.4310 O   0  0  0  0  0  0  0  0  0  0  0  0
   -4.0060   23.5360  -29.1950 C   0  0  0  0  0  0  0  0  0  0  0  0
   -5.3730   23.3750  -29.5920 N   0  0  0  0  0  0  0  0  0  0  0  0
   -5.7640   22.9370  -31.2230 S   0  0  0  0  0  0  0  0  0  0  0  0
   -5.8450   24.1680  -32.0850 O   0  0  0  0  0  0  0  0  0  0  0  0
   -7.0920   22.2330  -31.2520 O   0  0  0  0  0  0  0  0  0  0  0  0
   -4.5260   21.8470  -31.8250 C   0  0  0  0  0  0  0  0  0  0  0  0
   -3.1890   22.1590  -31.9810 C   0  0  0  0  0  0  0  0  0  0  0  0
   -2.5990   21.0420  -32.5420 C   0  0  0  0  0  0  0  0  0  0  0  0
   -3.5300   20.0900  -32.7450 N   0  0  0  0  0  0  0  0  0  0  0  0
   -3.2880   18.7530  -33.2800 C   0  0  0  0  0  0  0  0  0  0  0  0
   -4.7110   20.5650  -32.2990 C   0  0  0  0  0  0  0  0  0  0  0  0
   -3.3920   22.5800  -28.3720 C   0  0  0  0  0  0  0  0  0  0  0  0
   -1.1390   19.2180  -27.0360 C   0  0  0  0  0  0  0  0  0  0  0  0
   -0.1710   18.1400  -27.5450 C   0  0  0  0  0  0  0  0  0  0  0  0
    3.0324   18.9955  -28.9375 H   0  0  0  0  0  0  0  0  0  0  0  0
    4.5491   18.8387  -29.8871 H   0  0  0  0  0  0  0  0  0  0  0  0
    3.6459   20.3914  -29.8871 H   0  0  0  0  0  0  0  0  0  0  0  0
    3.9834   19.9805  -32.4358 H   0  0  0  0  0  0  0  0  0  0  0  0
    0.6496   17.8960  -34.2216 H   0  0  0  0  0  0  0  0  0  0  0  0
   -0.0168   17.0221  -31.9905 H   0  0  0  0  0  0  0  0  0  0  0  0
    1.0237   16.3126  -29.7236 H   0  0  0  0  0  0  0  0  0  0  0  0
    1.9479   17.6189  -28.8570 H   0  0  0  0  0  0  0  0  0  0  0  0
   -0.9878   17.3487  -29.3553 H   0  0  0  0  0  0  0  0  0  0  0  0
    0.1888   19.4217  -30.7198 H   0  0  0  0  0  0  0  0  0  0  0  0
   -1.4984   19.4224  -30.0487 H   0  0  0  0  0  0  0  0  0  0  0  0
    0.9804   20.5365  -28.6578 H   0  0  0  0  0  0  0  0  0  0  0  0
   -0.3036   21.4998  -29.4632 H   0  0  0  0  0  0  0  0  0  0  0  0
   -0.3274   24.0524  -27.9868 H   0  0  0  0  0  0  0  0  0  0  0  0
   -1.3913   25.7298  -29.4960 H   0  0  0  0  0  0  0  0  0  0  0  0
   -6.0940   23.1830  -28.8610 H   0  0  0  0  0  0  0  0  0  0  0  0
   -2.6945   23.1044  -31.7131 H   0  0  0  0  0  0  0  0  0  0  0  0
   -1.5307   20.9452  -32.7858 H   0  0  0  0  0  0  0  0  0  0  0  0
   -3.1596   18.0434  -32.4494 H   0  0  0  0  0  0  0  0  0  0  0  0
   -4.1449   18.4443  -33.8968 H   0  0  0  0  0  0  0  0  0  0  0  0
   -2.3773   18.7642  -33.8968 H   0  0  0  0  0  0  0  0  0  0  0  0
   -5.6659   20.0190  -32.3113 H   0  0  0  0  0  0  0  0  0  0  0  0
   -3.9566   21.6914  -28.0532 H   0  0  0  0  0  0  0  0  0  0  0  0
   -1.0019   19.3391  -25.9513 H   0  0  0  0  0  0  0  0  0  0  0  0
   -2.1661   18.8981  -27.2657 H   0  0  0  0  0  0  0  0  0  0  0  0
    0.8441   18.3905  -27.2032 H   0  0  0  0  0  0  0  0  0  0  0  0
   -0.5122   17.1745  -27.1434 H   0  0  0  0  0  0  0  0  0  0  0  0
  1  2  1  0
  2  3  2  0
  3  4  1  0
  4  5  1  0
  4  6  2  0
  6  7  1  0
  7  8  2  0
  8  9  1  0
  9 10  1  0
 10 11  1  0
 11 12  1  0
 12 13  1  0
 13 14  1  0
 14 15  2  0
 14 16  1  0
 16 17  2  0
 17 18  1  0
 18 19  2  0
 19 20  1  0
 19 21  1  0
 21 22  1  0
 22 23  1  0
 23 24  2  0
 23 25  2  0
 23 26  1  0
 26 27  1  0
 27 28  2  0
 28 29  1  0
 29 30  1  0
 29 31  1  0
 21 32  2  0
 13 33  1  0
 33 34  1  0
  8  2  1  0
 34 10  1  0
 32 16  1  0
 31 26  2  0
  1 35  1  0
  1 36  1  0
  1 37  1  0
  3 38  1  0
  6 39  1  0
  7 40  1  0
  9 41  1  0
  9 42  1  0
 10 43  1  0
 11 44  1  0
 11 45  1  0
 12 46  1  0
 12 47  1  0
 17 48  1  0
 18 49  1  0
 22 50  1  0
 27 51  1  0
 28 52  1  0
 30 53  1  0
 30 54  1  0
 30 55  1  0
 31 56  1  0
 32 57  1  0
 33 58  1  0
 33 59  1  0
 34 60  1  0
 34 61  1  0
M  CHG  1  20  -1
M  END
>  <UniqueID>  (45) 
44

>  <SMILES>  (45) 
Cc1cc(F)ccc1CC1CCN(C(=O)c2ccc([O-])c(NS(=O)(=O)c3ccn(C)c3)c2)CC1

>  <Energy>  (45) 
102.68343484127767

>  <Genealogy>  (45) 
Cc1cc(F)ccc1CC1CCN(C(=O)c2ccc([O-])c(NS(=O)(=O)c3ccn(C)c3)c2)CC1 (protonated)
Cc1cc(F)ccc1CC1CCN(C(=O)c2ccc([O-])c(NS(=O)(=O)c3ccn(C)c3)c2)CC1 (3D coordinates assigned)
Cc1cc(F)ccc1CC1CCN(C(=O)c2ccc([O-])c(NS(=O)(=O)c3ccn(C)c3)c2)CC1 (nonaromatic ring conformer: 102.68343484127767 kcal/mol)

>  <smiles>  (45) 
Cc1cc(F)ccc1CC1CCN(C(=O)c2ccc(O)c(NS(=O)(=O)c3ccn(C)c3)c2)CC1

>  <score_type>  (45) 
oracle

>  <origin>  (45) 
adgpu

>  <m_score__min__energy>  (45) 
-12.949999999999999

>  <m_primary>  (45) 
energy

$$$$
45:0
     RDKit          3D

 55 59  0  0  0  0  0  0  0  0999 V2000
   -6.1620   25.1160  -29.0390 O   0  0  0  0  0  0  0  0  0  0  0  0
   -5.4350   25.0040  -30.3500 S   0  0  0  0  0  0  0  0  0  0  0  0
   -5.9740   26.0390  -31.2960 O   0  0  0  0  0  0  0  0  0  0  0  0
   -3.7460   25.2940  -30.0880 N   0  0  0  0  0  0  0  0  0  0  0  0
   -2.8540   24.4110  -29.3930 C   0  0  0  0  0  0  0  0  0  0  0  0
   -3.2060   23.0840  -29.0930 C   0  0  0  0  0  0  0  0  0  0  0  0
   -2.3080   22.2360  -28.4270 C   0  0  0  0  0  0  0  0  0  0  0  0
   -1.0540   22.7380  -28.0110 C   0  0  0  0  0  0  0  0  0  0  0  0
   -0.7060   24.0600  -28.3190 C   0  0  0  0  0  0  0  0  0  0  0  0
   -1.5980   24.8920  -29.0000 C   0  0  0  0  0  0  0  0  0  0  0  0
   -1.2310   26.2010  -29.2880 O   0  0  0  0  0  0  0  0  0  0  0  0
   -0.0330   21.8530  -27.3330 C   0  0  0  0  0  0  0  0  0  0  0  0
   -0.6590   20.6050  -26.7050 C   0  0  0  0  0  0  0  0  0  0  0  0
   -1.5880   19.9160  -27.7040 C   0  0  0  0  0  0  0  0  0  0  0  0
   -2.7570   20.8370  -28.0690 C   0  0  0  0  0  0  0  0  0  0  0  0
   -5.6570   23.4090  -31.0610 C   0  0  0  0  0  0  0  0  0  0  0  0
   -6.8610   22.7270  -30.8620 C   0  0  0  0  0  0  0  0  0  0  0  0
   -7.0690   21.4720  -31.4410 C   0  0  0  0  0  0  0  0  0  0  0  0
   -6.0720   20.8780  -32.2410 C   0  0  0  0  0  0  0  0  0  0  0  0
   -6.2520   19.6050  -32.8410 C   0  0  0  0  0  0  0  0  0  0  0  0
   -7.5290   18.8620  -32.7150 C   0  0  0  0  0  0  0  0  0  0  0  0
   -7.6610   17.5330  -32.8470 C   0  0  0  0  0  0  0  0  0  0  0  0
   -6.5490   16.5720  -32.9910 C   0  0  0  0  0  0  0  0  0  0  0  0
   -6.2980   15.8950  -34.1970 C   0  0  0  0  0  0  0  0  0  0  0  0
   -5.2130   15.0200  -34.2800 C   0  0  0  0  0  0  0  0  0  0  0  0
   -4.3770   14.8430  -33.1770 C   0  0  0  0  0  0  0  0  0  0  0  0
   -4.6340   15.5550  -32.0050 C   0  0  0  0  0  0  0  0  0  0  0  0
   -5.6990   16.3990  -31.9400 N   0  0  0  0  0  0  0  0  0  0  0  0
   -5.2210   19.0640  -33.6290 C   0  0  0  0  0  0  0  0  0  0  0  0
   -4.0200   19.7510  -33.8040 C   0  0  0  0  0  0  0  0  0  0  0  0
   -3.8300   20.9970  -33.2080 C   0  0  0  0  0  0  0  0  0  0  0  0
   -4.8460   21.5690  -32.4300 C   0  0  0  0  0  0  0  0  0  0  0  0
   -4.6500   22.8280  -31.8400 C   0  0  0  0  0  0  0  0  0  0  0  0
   -4.1971   22.7056  -29.3837 H   0  0  0  0  0  0  0  0  0  0  0  0
    0.2799   24.4467  -28.0214 H   0  0  0  0  0  0  0  0  0  0  0  0
    0.7100   21.5365  -28.0798 H   0  0  0  0  0  0  0  0  0  0  0  0
    0.4285   22.4372  -26.5233 H   0  0  0  0  0  0  0  0  0  0  0  0
    0.1393   19.9074  -26.4115 H   0  0  0  0  0  0  0  0  0  0  0  0
   -1.2427   20.9039  -25.8218 H   0  0  0  0  0  0  0  0  0  0  0  0
   -1.0224   19.6699  -28.6148 H   0  0  0  0  0  0  0  0  0  0  0  0
   -1.9861   18.9981  -27.2468 H   0  0  0  0  0  0  0  0  0  0  0  0
   -3.2883   20.4066  -28.9307 H   0  0  0  0  0  0  0  0  0  0  0  0
   -3.4085   20.9129  -27.1859 H   0  0  0  0  0  0  0  0  0  0  0  0
   -7.6504   23.1814  -30.2452 H   0  0  0  0  0  0  0  0  0  0  0  0
   -8.0186   20.9435  -31.2710 H   0  0  0  0  0  0  0  0  0  0  0  0
   -8.4366   19.4440  -32.4969 H   0  0  0  0  0  0  0  0  0  0  0  0
   -8.6827   17.1255  -32.8480 H   0  0  0  0  0  0  0  0  0  0  0  0
   -6.9508   16.0532  -35.0681 H   0  0  0  0  0  0  0  0  0  0  0  0
   -5.0177   14.4713  -35.2132 H   0  0  0  0  0  0  0  0  0  0  0  0
   -3.5247   14.1497  -33.2309 H   0  0  0  0  0  0  0  0  0  0  0  0
   -3.9749   15.4338  -31.1327 H   0  0  0  0  0  0  0  0  0  0  0  0
   -5.3634   18.0868  -34.1135 H   0  0  0  0  0  0  0  0  0  0  0  0
   -3.2195   19.3080  -34.4147 H   0  0  0  0  0  0  0  0  0  0  0  0
   -2.8797   21.5329  -33.3488 H   0  0  0  0  0  0  0  0  0  0  0  0
   -3.6995   23.3607  -31.9910 H   0  0  0  0  0  0  0  0  0  0  0  0
  1  2  2  0
  2  3  2  0
  2  4  1  0
  4  5  1  0
  5  6  2  0
  6  7  1  0
  7  8  2  0
  8  9  1  0
  9 10  2  0
 10 11  1  0
  8 12  1  0
 12 13  1  0
 13 14  1  0
 14 15  1  0
  2 16  1  0
 16 17  2  0
 17 18  1  0
 18 19  2  0
 19 20  1  0
 20 21  1  0
 21 22  2  3
 22 23  1  0
 23 24  2  0
 24 25  1  0
 25 26  2  0
 26 27  1  0
 27 28  2  0
 20 29  2  0
 29 30  1  0
 30 31  2  0
 31 32  1  0
 32 33  2  0
 10  5  1  0
 33 16  1  0
 15  7  1  0
 32 19  1  0
 28 23  1  0
  6 34  1  0
  9 35  1  0
 12 36  1  0
 12 37  1  0
 13 38  1  0
 13 39  1  0
 14 40  1  0
 14 41  1  0
 15 42  1  0
 15 43  1  0
 17 44  1  0
 18 45  1  0
 21 46  1  0
 22 47  1  0
 24 48  1  0
 25 49  1  0
 26 50  1  0
 27 51  1  0
 29 52  1  0
 30 53  1  0
 31 54  1  0
 33 55  1  0
M  CHG  2   4  -1  11  -1
M  END
>  <UniqueID>  (46) 
45

>  <SMILES>  (46) 
O=S(=O)([N-]c1cc2c(cc1[O-])CCCC2)c1ccc2c(C=Cc3ccccn3)cccc2c1

>  <Energy>  (46) 
78.32150902449554

>  <Genealogy>  (46) 
O=S(=O)([N-]c1cc2c(cc1[O-])CCCC2)c1ccc2c(C=Cc3ccccn3)cccc2c1 (protonated)
O=S(=O)([N-]c1cc2c(cc1[O-])CCCC2)c1ccc2c(C=Cc3ccccn3)cccc2c1 (3D coordinates assigned)
O=S(=O)([N-]c1cc2c(cc1[O-])CCCC2)c1ccc2c(C=Cc3ccccn3)cccc2c1 (nonaromatic ring conformer: 78.32150902449554 kcal/mol)

>  <smiles>  (46) 
O=S(=O)(Nc1cc2c(cc1O)CCCC2)c1ccc2c(C=Cc3ccccn3)cccc2c1

>  <score_type>  (46) 
oracle

>  <origin>  (46) 
adgpu

>  <m_score__min__energy>  (46) 
-15.710000000000001

>  <m_primary>  (46) 
energy

$$$$
46:0
     RDKit          3D

 61 64  0  0  0  0  0  0  0  0999 V2000
    0.3150   25.2180  -26.6100 C   0  0  0  0  0  0  0  0  0  0  0  0
   -0.9420   24.8290  -27.3300 C   0  0  0  0  0  0  0  0  0  0  0  0
   -2.1740   24.8540  -26.6650 C   0  0  0  0  0  0  0  0  0  0  0  0
   -3.3510   24.5300  -27.3440 C   0  0  0  0  0  0  0  0  0  0  0  0
   -3.3290   24.2080  -28.7190 C   0  0  0  0  0  0  0  0  0  0  0  0
   -4.6240   23.8070  -29.4430 C   0  0  0  0  0  0  0  0  0  0  0  0
   -5.3460   22.8830  -28.6570 O   0  0  0  0  0  0  0  0  0  0  0  0
   -5.5400   25.0280  -29.7300 C   0  0  0  0  0  0  0  0  0  0  0  0
   -6.8740   24.5680  -30.3390 C   0  0  0  0  0  0  0  0  0  0  0  0
   -6.6730   23.4680  -31.2930 N   0  0  0  0  0  0  0  0  0  0  0  0
   -7.8260   22.8020  -31.8390 C   0  0  0  0  0  0  0  0  0  0  0  0
   -8.8600   23.4760  -32.1040 O   0  0  0  0  0  0  0  0  0  0  0  0
   -7.8350   21.3390  -32.0660 C   0  0  0  0  0  0  0  0  0  0  0  0
   -8.6830   20.5060  -31.3210 C   0  0  0  0  0  0  0  0  0  0  0  0
   -8.7030   19.1300  -31.5540 C   0  0  0  0  0  0  0  0  0  0  0  0
   -7.8930   18.5700  -32.5450 C   0  0  0  0  0  0  0  0  0  0  0  0
   -7.9420   17.1970  -32.7630 O   0  0  0  0  0  0  0  0  0  0  0  0
   -7.0470   19.3880  -33.3170 C   0  0  0  0  0  0  0  0  0  0  0  0
   -6.2300   18.8000  -34.3500 N   0  0  0  0  0  0  0  0  0  0  0  0
   -4.6890   18.0580  -34.0510 S   0  0  0  0  0  0  0  0  0  0  0  0
   -4.8750   16.9060  -33.1040 O   0  0  0  0  0  0  0  0  0  0  0  0
   -4.1260   17.5420  -35.3450 O   0  0  0  0  0  0  0  0  0  0  0  0
   -3.5710   19.2450  -33.3820 C   0  0  0  0  0  0  0  0  0  0  0  0
   -3.7270   19.6750  -32.0580 C   0  0  0  0  0  0  0  0  0  0  0  0
   -2.8200   20.5810  -31.5030 C   0  0  0  0  0  0  0  0  0  0  0  0
   -1.7560   21.0670  -32.2680 C   0  0  0  0  0  0  0  0  0  0  0  0
   -1.6010   20.6590  -33.6020 C   0  0  0  0  0  0  0  0  0  0  0  0
   -0.4340   21.1440  -34.4110 C   0  0  0  0  0  0  0  0  0  0  0  0
   -2.5060   19.7360  -34.1510 C   0  0  0  0  0  0  0  0  0  0  0  0
   -7.0190   20.7730  -33.0600 C   0  0  0  0  0  0  0  0  0  0  0  0
   -5.3410   23.2380  -31.8730 C   0  0  0  0  0  0  0  0  0  0  0  0
   -4.2580   23.1070  -30.7810 C   0  0  0  0  0  0  0  0  0  0  0  0
   -2.0780   24.1630  -29.3710 C   0  0  0  0  0  0  0  0  0  0  0  0
   -0.9020   24.4890  -28.6880 C   0  0  0  0  0  0  0  0  0  0  0  0
    0.1467   25.1659  -25.5242 H   0  0  0  0  0  0  0  0  0  0  0  0
    1.1256   24.5287  -26.8889 H   0  0  0  0  0  0  0  0  0  0  0  0
    0.5946   26.2447  -26.8889 H   0  0  0  0  0  0  0  0  0  0  0  0
   -2.2153   25.1305  -25.6011 H   0  0  0  0  0  0  0  0  0  0  0  0
   -4.3075   24.5256  -26.8007 H   0  0  0  0  0  0  0  0  0  0  0  0
   -6.1330   23.3550  -28.2750 H   0  0  0  0  0  0  0  0  0  0  0  0
   -5.7367   25.5622  -28.7888 H   0  0  0  0  0  0  0  0  0  0  0  0
   -5.0331   25.6932  -30.4445 H   0  0  0  0  0  0  0  0  0  0  0  0
   -7.5377   24.2255  -29.5314 H   0  0  0  0  0  0  0  0  0  0  0  0
   -7.3220   25.4168  -30.8763 H   0  0  0  0  0  0  0  0  0  0  0  0
   -9.3357   20.9396  -30.5490 H   0  0  0  0  0  0  0  0  0  0  0  0
   -9.3600   18.4830  -30.9542 H   0  0  0  0  0  0  0  0  0  0  0  0
   -6.5160   18.8950  -35.3480 H   0  0  0  0  0  0  0  0  0  0  0  0
   -4.5656   19.2984  -31.4539 H   0  0  0  0  0  0  0  0  0  0  0  0
   -2.9435   20.9127  -30.4615 H   0  0  0  0  0  0  0  0  0  0  0  0
   -1.0378   21.7715  -31.8232 H   0  0  0  0  0  0  0  0  0  0  0  0
    0.3675   21.4771  -33.7352 H   0  0  0  0  0  0  0  0  0  0  0  0
   -0.0623   20.3258  -35.0454 H   0  0  0  0  0  0  0  0  0  0  0  0
   -0.7517   21.9846  -35.0454 H   0  0  0  0  0  0  0  0  0  0  0  0
   -2.3788   19.3964  -35.1895 H   0  0  0  0  0  0  0  0  0  0  0  0
   -6.3492   21.4200  -33.6455 H   0  0  0  0  0  0  0  0  0  0  0  0
   -5.3649   22.3108  -32.4645 H   0  0  0  0  0  0  0  0  0  0  0  0
   -5.0882   24.1021  -32.5049 H   0  0  0  0  0  0  0  0  0  0  0  0
   -4.0971   22.0376  -30.5795 H   0  0  0  0  0  0  0  0  0  0  0  0
   -3.3557   23.6053  -31.1652 H   0  0  0  0  0  0  0  0  0  0  0  0
   -2.0274   23.8679  -30.4295 H   0  0  0  0  0  0  0  0  0  0  0  0
    0.0604   24.4783  -29.2207 H   0  0  0  0  0  0  0  0  0  0  0  0
  1  2  1  0
  2  3  2  0
  3  4  1  0
  4  5  2  0
  5  6  1  0
  6  7  1  0
  6  8  1  0
  8  9  1  0
  9 10  1  0
 10 11  1  0
 11 12  2  0
 11 13  1  0
 13 14  2  0
 14 15  1  0
 15 16  2  0
 16 17  1  0
 16 18  1  0
 18 19  1  0
 19 20  1  0
 20 21  2  0
 20 22  2  0
 20 23  1  0
 23 24  2  0
 24 25  1  0
 25 26  2  0
 26 27  1  0
 27 28  1  0
 27 29  2  0
 18 30  2  0
 10 31  1  0
 31 32  1  0
  5 33  1  0
 33 34  2  0
 34  2  1  0
 32  6  1  0
 30 13  1  0
 29 23  1  0
  1 35  1  0
  1 36  1  0
  1 37  1  0
  3 38  1  0
  4 39  1  0
  7 40  1  0
  8 41  1  0
  8 42  1  0
  9 43  1  0
  9 44  1  0
 14 45  1  0
 15 46  1  0
 19 47  1  0
 24 48  1  0
 25 49  1  0
 26 50  1  0
 28 51  1  0
 28 52  1  0
 28 53  1  0
 29 54  1  0
 30 55  1  0
 31 56  1  0
 31 57  1  0
 32 58  1  0
 32 59  1  0
 33 60  1  0
 34 61  1  0
M  CHG  1  17  -1
M  END
>  <UniqueID>  (47) 
46

>  <SMILES>  (47) 
Cc1ccc(C2(O)CCN(C(=O)c3ccc([O-])c(NS(=O)(=O)c4cccc(C)c4)c3)CC2)cc1

>  <Energy>  (47) 
78.61034571413988

>  <Genealogy>  (47) 
Cc1ccc(C2(O)CCN(C(=O)c3ccc([O-])c(NS(=O)(=O)c4cccc(C)c4)c3)CC2)cc1 (protonated)
Cc1ccc(C2(O)CCN(C(=O)c3ccc([O-])c(NS(=O)(=O)c4cccc(C)c4)c3)CC2)cc1 (3D coordinates assigned)
Cc1ccc(C2(O)CCN(C(=O)c3ccc([O-])c(NS(=O)(=O)c4cccc(C)c4)c3)CC2)cc1 (nonaromatic ring conformer: 78.61034571413988 kcal/mol)

>  <smiles>  (47) 
Cc1ccc(C2(O)CCN(C(=O)c3ccc(O)c(NS(=O)(=O)c4cccc(C)c4)c3)CC2)cc1

>  <score_type>  (47) 
oracle

>  <origin>  (47) 
adgpu

>  <m_score__min__energy>  (47) 
-13.1

>  <m_primary>  (47) 
energy

$$$$
47:0
     RDKit          3D

 41 44  0  0  0  0  0  0  0  0999 V2000
   -5.0790   19.2131  -33.7800 H   0  0  0  0  0  0  0  0  0  0  0  0
   -5.9670   19.5850  -33.2480 C   0  0  0  0  0  0  0  0  0  0  0  0
   -7.2330   19.1850  -33.4740 N   0  0  0  0  0  0  0  0  0  0  0  0
   -8.0160   19.8430  -32.6350 N   0  0  0  0  0  0  0  0  0  0  0  0
   -9.4670   19.7260  -32.6170 C   0  0  0  0  0  0  0  0  0  0  0  0
   -9.8197   19.6976  -31.5755 H   0  0  0  0  0  0  0  0  0  0  0  0
   -9.9110   20.5913  -33.1310 H   0  0  0  0  0  0  0  0  0  0  0  0
   -9.7667   18.8008  -33.1310 H   0  0  0  0  0  0  0  0  0  0  0  0
   -7.2850   20.6830  -31.8800 C   0  0  0  0  0  0  0  0  0  0  0  0
   -7.6758   21.3652  -31.1107 H   0  0  0  0  0  0  0  0  0  0  0  0
   -5.9560   20.5400  -32.2390 C   0  0  0  0  0  0  0  0  0  0  0  0
   -4.7820   21.2600  -31.6810 C   0  0  0  0  0  0  0  0  0  0  0  0
   -3.5550   20.5970  -31.5040 C   0  0  0  0  0  0  0  0  0  0  0  0
   -3.4624   19.5369  -31.7825 H   0  0  0  0  0  0  0  0  0  0  0  0
   -2.4540   21.2730  -30.9780 C   0  0  0  0  0  0  0  0  0  0  0  0
   -1.4949   20.7469  -30.8627 H   0  0  0  0  0  0  0  0  0  0  0  0
   -2.5600   22.6180  -30.5950 C   0  0  0  0  0  0  0  0  0  0  0  0
   -1.4160   23.3330  -30.1040 N   0  0  0  0  0  0  0  0  0  0  0  0
   -1.3310   24.0140  -28.9960 C   0  0  0  0  0  0  0  0  0  0  0  0
   -0.1150   24.5460  -28.6480 N   0  0  0  0  0  0  0  0  0  0  0  0
    0.0530   25.2780  -27.5090 C   0  0  0  0  0  0  0  0  0  0  0  0
    1.0352   25.6937  -27.2399 H   0  0  0  0  0  0  0  0  0  0  0  0
   -1.0550   25.4800  -26.7030 C   0  0  0  0  0  0  0  0  0  0  0  0
   -1.2470   26.1610  -25.5220 C   0  0  0  0  0  0  0  0  0  0  0  0
   -0.2650   26.8840  -24.7600 C   0  0  0  0  0  0  0  0  0  0  0  0
    0.5270   27.4640  -24.1480 N   0  0  0  0  0  0  0  0  0  0  0  0
   -2.5980   26.0200  -25.2180 C   0  0  0  0  0  0  0  0  0  0  0  0
   -3.0913   26.4465  -24.3321 H   0  0  0  0  0  0  0  0  0  0  0  0
   -3.2180   25.2820  -26.1700 N   0  0  0  0  0  0  0  0  0  0  0  0
   -4.2280   25.0200  -26.2040 H   0  0  0  0  0  0  0  0  0  0  0  0
   -2.2620   24.9630  -27.0600 C   0  0  0  0  0  0  0  0  0  0  0  0
   -2.4280   24.2390  -28.1940 N   0  0  0  0  0  0  0  0  0  0  0  0
   -3.3850   23.9060  -28.4450 H   0  0  0  0  0  0  0  0  0  0  0  0
   -3.7650   23.3060  -30.7980 C   0  0  0  0  0  0  0  0  0  0  0  0
   -3.8250   24.6660  -30.4530 O   0  0  0  0  0  0  0  0  0  0  0  0
   -5.0290   25.3930  -30.2300 C   0  0  0  0  0  0  0  0  0  0  0  0
   -5.2000   25.4962  -29.1483 H   0  0  0  0  0  0  0  0  0  0  0  0
   -4.9443   26.3910  -30.6847 H   0  0  0  0  0  0  0  0  0  0  0  0
   -5.8728   24.8533  -30.6847 H   0  0  0  0  0  0  0  0  0  0  0  0
   -4.8750   22.6200  -31.3300 C   0  0  0  0  0  0  0  0  0  0  0  0
   -5.8261   23.1540  -31.4728 H   0  0  0  0  0  0  0  0  0  0  0  0
  1  2  1  0
  2  3  2  0
  3  4  1  0
  4  5  1  0
  5  6  1  0
  5  7  1  0
  5  8  1  0
  4  9  1  0
  9 10  1  0
  9 11  2  0
 11 12  1  0
 12 13  2  0
 13 14  1  0
 13 15  1  0
 15 16  1  0
 15 17  2  0
 17 18  1  0
 18 19  2  0
 19 20  1  0
 20 21  2  0
 21 22  1  0
 21 23  1  0
 23 24  1  0
 24 25  1  0
 25 26  3  0
 24 27  2  0
 27 28  1  0
 27 29  1  0
 29 30  1  0
 29 31  1  0
 31 32  1  0
 32 33  1  0
 17 34  1  0
 34 35  1  0
 35 36  1  0
 36 37  1  0
 36 38  1  0
 36 39  1  0
 34 40  2  0
 40 41  1  0
 11  2  1  0
 40 12  1  0
 32 19  1  0
 31 23  2  0
M  END
>  <UniqueID>  (48) 
47

>  <SMILES>  (48) 
COc1cc(-c2cnn(C)c2)ccc1/N=c1/ncc2c(C#N)c[nH]c2[nH]1

>  <Energy>  (48) 
120.24795360082116

>  <Genealogy>  (48) 
COc1cc(-c2cnn(C)c2)ccc1/N=c1/ncc2c(C#N)c[nH]c2[nH]1 (cis-trans isomerization)
COc1cc(-c2cnn(C)c2)ccc1/N=c1/ncc2c(C#N)c[nH]c2[nH]1 (3D coordinates assigned)
COc1cc(-c2cnn(C)c2)ccc1/N=c1/ncc2c(C#N)c[nH]c2[nH]1 (optimized conformer: 120.24795360082116 kcal/mol)

>  <smiles>  (48) 
COc1cc(-c2cnn(C)c2)ccc1N=c1ncc2c(C#N)c[nH]c2[nH]1

>  <score_type>  (48) 
oracle

>  <origin>  (48) 
adgpu

>  <m_score__min__energy>  (48) 
-7.8700000000000001

>  <m_primary>  (48) 
energy

$$$$
48:0
     RDKit          3D

 56 59  0  0  0  0  0  0  0  0999 V2000
   -1.9390   25.3360  -28.0510 C   0  0  0  0  0  0  0  0  0  0  0  0
   -2.2980   24.8690  -29.3480 O   0  0  0  0  0  0  0  0  0  0  0  0
   -3.5890   24.4630  -29.7210 C   0  0  0  0  0  0  0  0  0  0  0  0
   -4.4560   25.3220  -30.4270 C   0  0  0  0  0  0  0  0  0  0  0  0
   -5.7330   24.8970  -30.7910 C   0  0  0  0  0  0  0  0  0  0  0  0
   -6.1720   23.6130  -30.4490 C   0  0  0  0  0  0  0  0  0  0  0  0
   -7.5110   23.1540  -30.8440 C   0  0  0  0  0  0  0  0  0  0  0  0
   -7.7330   22.0300  -31.5390 C   0  0  0  0  0  0  0  0  0  0  0  0
   -9.3970   21.5230  -31.9810 S   0  0  0  0  0  0  0  0  0  0  0  0
   -8.7090   19.9630  -32.5560 C   0  0  0  0  0  0  0  0  0  0  0  0
   -9.4720   18.9460  -32.8170 N   0  0  0  0  0  0  0  0  0  0  0  0
   -7.2790   19.8740  -32.5390 N   0  0  0  0  0  0  0  0  0  0  0  0
   -6.5040   18.8290  -33.1510 C   0  0  0  0  0  0  0  0  0  0  0  0
   -5.2940   19.1190  -33.7990 C   0  0  0  0  0  0  0  0  0  0  0  0
   -4.5690   18.0850  -34.3950 C   0  0  0  0  0  0  0  0  0  0  0  0
   -5.0590   16.7720  -34.3560 C   0  0  0  0  0  0  0  0  0  0  0  0
   -4.2670   15.6480  -34.9600 C   0  0  0  0  0  0  0  0  0  0  0  0
   -6.2600   16.5200  -33.6800 C   0  0  0  0  0  0  0  0  0  0  0  0
   -6.9490   17.5420  -33.1060 N   0  0  0  0  0  0  0  0  0  0  0  0
   -6.7250   21.0490  -31.9590 C   0  0  0  0  0  0  0  0  0  0  0  0
   -5.4810   21.2180  -31.8360 O   0  0  0  0  0  0  0  0  0  0  0  0
   -5.3310   22.7630  -29.7230 C   0  0  0  0  0  0  0  0  0  0  0  0
   -4.0300   23.1640  -29.3830 C   0  0  0  0  0  0  0  0  0  0  0  0
   -2.9650   22.0040  -28.5650 S   0  0  0  0  0  0  0  0  0  0  0  0
   -3.1650   20.6450  -29.1790 O   0  0  0  0  0  0  0  0  0  0  0  0
   -3.3340   21.9070  -27.1110 O   0  0  0  0  0  0  0  0  0  0  0  0
   -1.2760   22.4570  -28.7050 N   0  0  0  0  0  0  0  0  0  0  0  0
   -0.6670   22.6110  -27.3650 C   0  0  0  0  0  0  0  0  0  0  0  0
    0.8610   22.4430  -27.4330 C   0  0  0  0  0  0  0  0  0  0  0  0
    1.2790   21.1680  -27.9070 O   0  0  0  0  0  0  0  0  0  0  0  0
    0.3240   20.5260  -28.7440 C   0  0  0  0  0  0  0  0  0  0  0  0
   -0.5250   21.5130  -29.5700 C   0  0  0  0  0  0  0  0  0  0  0  0
   -2.4221   24.7076  -27.2883 H   0  0  0  0  0  0  0  0  0  0  0  0
   -0.8468   25.2831  -27.9316 H   0  0  0  0  0  0  0  0  0  0  0  0
   -2.2709   26.3779  -27.9316 H   0  0  0  0  0  0  0  0  0  0  0  0
   -4.1221   26.3358  -30.6928 H   0  0  0  0  0  0  0  0  0  0  0  0
   -6.3976   25.5731  -31.3488 H   0  0  0  0  0  0  0  0  0  0  0  0
   -8.3776   23.7660  -30.5535 H   0  0  0  0  0  0  0  0  0  0  0  0
   -9.0790   18.0120  -33.0630 H   0  0  0  0  0  0  0  0  0  0  0  0
  -10.5110   19.0410  -32.7650 H   0  0  0  0  0  0  0  0  0  0  0  0
   -4.9194   20.1525  -33.8373 H   0  0  0  0  0  0  0  0  0  0  0  0
   -3.6133   18.3007  -34.8952 H   0  0  0  0  0  0  0  0  0  0  0  0
   -3.8334   15.0326  -34.1579 H   0  0  0  0  0  0  0  0  0  0  0  0
   -4.9279   15.0267  -35.5822 H   0  0  0  0  0  0  0  0  0  0  0  0
   -3.4596   16.0614  -35.5822 H   0  0  0  0  0  0  0  0  0  0  0  0
   -6.6467   15.4923  -33.6134 H   0  0  0  0  0  0  0  0  0  0  0  0
   -5.6930   21.7708  -29.4157 H   0  0  0  0  0  0  0  0  0  0  0  0
   -1.2630   23.3950  -29.1720 H   0  0  0  0  0  0  0  0  0  0  0  0
   -0.9021   23.6126  -26.9756 H   0  0  0  0  0  0  0  0  0  0  0  0
   -1.0765   21.8347  -26.7019 H   0  0  0  0  0  0  0  0  0  0  0  0
    1.2647   23.2128  -28.1071 H   0  0  0  0  0  0  0  0  0  0  0  0
    1.2398   22.5421  -26.4051 H   0  0  0  0  0  0  0  0  0  0  0  0
    0.8591   19.8606  -29.4375 H   0  0  0  0  0  0  0  0  0  0  0  0
   -0.3650   19.9738  -28.0879 H   0  0  0  0  0  0  0  0  0  0  0  0
    0.1407   22.0885  -30.2301 H   0  0  0  0  0  0  0  0  0  0  0  0
   -1.2544   20.9305  -30.1519 H   0  0  0  0  0  0  0  0  0  0  0  0
  1  2  1  0
  2  3  1  0
  3  4  2  0
  4  5  1  0
  5  6  2  0
  6  7  1  0
  7  8  2  3
  8  9  1  0
  9 10  1  0
 10 11  2  0
 10 12  1  0
 12 13  1  0
 13 14  2  0
 14 15  1  0
 15 16  2  0
 16 17  1  0
 16 18  1  0
 18 19  2  0
 12 20  1  0
 20 21  2  0
  6 22  1  0
 22 23  2  0
 23 24  1  0
 24 25  2  0
 24 26  2  0
 24 27  1  0
 27 28  1  0
 28 29  1  0
 29 30  1  0
 30 31  1  0
 31 32  1  0
 23  3  1  0
 32 27  1  0
 20  8  1  0
 19 13  1  0
  1 33  1  0
  1 34  1  0
  1 35  1  0
  4 36  1  0
  5 37  1  0
  7 38  1  0
 11 39  1  0
 11 40  1  0
 14 41  1  0
 15 42  1  0
 17 43  1  0
 17 44  1  0
 17 45  1  0
 18 46  1  0
 22 47  1  0
 27 48  1  0
 28 49  1  0
 28 50  1  0
 29 51  1  0
 29 52  1  0
 31 53  1  0
 31 54  1  0
 32 55  1  0
 32 56  1  0
M  CHG  2  11   1  27   1
M  END
>  <UniqueID>  (49) 
48

>  <SMILES>  (49) 
COc1ccc(C=C2SC(=[NH2+])N(c3ccc(C)cn3)C2=O)cc1S(=O)(=O)[NH+]1CCOCC1

>  <Energy>  (49) 
102.56107531299459

>  <Genealogy>  (49) 
COc1ccc(C=C2SC(=[NH2+])N(c3ccc(C)cn3)C2=O)cc1S(=O)(=O)[NH+]1CCOCC1 (protonated)
COc1ccc(C=C2SC(=[NH2+])N(c3ccc(C)cn3)C2=O)cc1S(=O)(=O)[NH+]1CCOCC1 (3D coordinates assigned)
COc1ccc(C=C2SC(=[NH2+])N(c3ccc(C)cn3)C2=O)cc1S(=O)(=O)[NH+]1CCOCC1 (nonaromatic ring conformer: 102.56107531299459 kcal/mol)

>  <smiles>  (49) 
COc1ccc(C=C2SC(=N)N(c3ccc(C)cn3)C2=O)cc1S(=O)(=O)N1CCOCC1

>  <score_type>  (49) 
oracle

>  <origin>  (49) 
adgpu

>  <m_score__min__energy>  (49) 
-8.5899999999999999

>  <m_primary>  (49) 
energy

$$$$
