0:0
     RDKit          3D

 44 46  0  0  0  0  0  0  0  0999 V2000
   -0.8600   26.7610  -27.8450 C   0  0  0  0  0  0  0  0  0  0  0  0
   -1.4150   26.0250  -28.9310 O   0  0  0  0  0  0  0  0  0  0  0  0
   -1.6080   24.6340  -28.9330 C   0  0  0  0  0  0  0  0  0  0  0  0
   -0.8150   23.7660  -28.1530 C   0  0  0  0  0  0  0  0  0  0  0  0
   -1.0660   22.3900  -28.1550 C   0  0  0  0  0  0  0  0  0  0  0  0
   -2.1060   21.8680  -28.9280 C   0  0  0  0  0  0  0  0  0  0  0  0
   -2.8970   22.7190  -29.7050 C   0  0  0  0  0  0  0  0  0  0  0  0
   -2.6460   24.0980  -29.7150 C   0  0  0  0  0  0  0  0  0  0  0  0
   -3.4850   24.9700  -30.4750 N   0  0  0  0  0  0  0  0  0  0  0  0
   -5.1920   25.0260  -30.1920 S   0  0  0  0  0  0  0  0  0  0  0  0
   -5.7470   26.3490  -30.6360 O   0  0  0  0  0  0  0  0  0  0  0  0
   -5.4400   24.8680  -28.7190 O   0  0  0  0  0  0  0  0  0  0  0  0
   -5.9660   23.7160  -31.0820 C   0  0  0  0  0  0  0  0  0  0  0  0
   -7.3500   23.5130  -31.0110 C   0  0  0  0  0  0  0  0  0  0  0  0
   -7.9310   22.4180  -31.6550 C   0  0  0  0  0  0  0  0  0  0  0  0
   -7.1340   21.5100  -32.3560 C   0  0  0  0  0  0  0  0  0  0  0  0
   -5.7420   21.7000  -32.4390 C   0  0  0  0  0  0  0  0  0  0  0  0
   -4.8800   20.6960  -33.1060 C   0  0  0  0  0  0  0  0  0  0  0  0
   -5.2600   19.4950  -33.1930 O   0  0  0  0  0  0  0  0  0  0  0  0
   -3.6060   21.0720  -33.6480 N   0  0  0  0  0  0  0  0  0  0  0  0
   -2.3860   20.3510  -33.3910 C   0  0  0  0  0  0  0  0  0  0  0  0
   -1.2690   21.0480  -32.9020 C   0  0  0  0  0  0  0  0  0  0  0  0
   -0.0900   20.3660  -32.5890 C   0  0  0  0  0  0  0  0  0  0  0  0
   -0.0160   18.9810  -32.7550 C   0  0  0  0  0  0  0  0  0  0  0  0
   -1.1240   18.2760  -33.2330 C   0  0  0  0  0  0  0  0  0  0  0  0
   -2.3050   18.9540  -33.5480 C   0  0  0  0  0  0  0  0  0  0  0  0
   -5.1730   22.8240  -31.8130 C   0  0  0  0  0  0  0  0  0  0  0  0
   -1.1932   26.3192  -26.8943 H   0  0  0  0  0  0  0  0  0  0  0  0
    0.2380   26.7253  -27.9010 H   0  0  0  0  0  0  0  0  0  0  0  0
   -1.1962   27.8069  -27.9010 H   0  0  0  0  0  0  0  0  0  0  0  0
    0.0036   24.1729  -27.5411 H   0  0  0  0  0  0  0  0  0  0  0  0
   -0.4433   21.7176  -27.5467 H   0  0  0  0  0  0  0  0  0  0  0  0
   -2.3027   20.7857  -28.9252 H   0  0  0  0  0  0  0  0  0  0  0  0
   -3.7178   22.3059  -30.3096 H   0  0  0  0  0  0  0  0  0  0  0  0
   -7.9802   24.2167  -30.4474 H   0  0  0  0  0  0  0  0  0  0  0  0
   -9.0201   22.2703  -31.6099 H   0  0  0  0  0  0  0  0  0  0  0  0
   -7.5972   20.6410  -32.8462 H   0  0  0  0  0  0  0  0  0  0  0  0
   -3.5600   21.9410  -34.2260 H   0  0  0  0  0  0  0  0  0  0  0  0
   -1.3225   22.1381  -32.7644 H   0  0  0  0  0  0  0  0  0  0  0  0
    0.7814   20.9209  -32.2112 H   0  0  0  0  0  0  0  0  0  0  0  0
    0.9133   18.4459  -32.5098 H   0  0  0  0  0  0  0  0  0  0  0  0
   -1.0665   17.1851  -33.3616 H   0  0  0  0  0  0  0  0  0  0  0  0
   -3.1753   18.3936  -33.9203 H   0  0  0  0  0  0  0  0  0  0  0  0
   -4.0913   23.0041  -31.8991 H   0  0  0  0  0  0  0  0  0  0  0  0
  1  2  1  0
  2  3  1  0
  3  4  2  0
  4  5  1  0
  5  6  2  0
  6  7  1  0
  7  8  2  0
  8  9  1  0
  9 10  1  0
 10 11  2  0
 10 12  2  0
 10 13  1  0
 13 14  2  0
 14 15  1  0
 15 16  2  0
 16 17  1  0
 17 18  1  0
 18 19  2  0
 18 20  1  0
 20 21  1  0
 21 22  2  0
 22 23  1  0
 23 24  2  0
 24 25  1  0
 25 26  2  0
 17 27  2  0
  8  3  1  0
 27 13  1  0
 26 21  1  0
  1 28  1  0
  1 29  1  0
  1 30  1  0
  4 31  1  0
  5 32  1  0
  6 33  1  0
  7 34  1  0
 14 35  1  0
 15 36  1  0
 16 37  1  0
 20 38  1  0
 22 39  1  0
 23 40  1  0
 24 41  1  0
 25 42  1  0
 26 43  1  0
 27 44  1  0
M  CHG  1   9  -1
M  END
>  <UniqueID>  (1) 
1

>  <SMILES>  (1) 
COc1ccccc1[N-]S(=O)(=O)c1cccc(C(=O)Nc2ccccc2)c1

>  <Energy>  (1) 
57.25598490423053

>  <Genealogy>  (1) 
COc1ccccc1[N-]S(=O)(=O)c1cccc(C(=O)Nc2ccccc2)c1 (protonated)
COc1ccccc1[N-]S(=O)(=O)c1cccc(C(=O)Nc2ccccc2)c1 (3D coordinates assigned)
COc1ccccc1[N-]S(=O)(=O)c1cccc(C(=O)Nc2ccccc2)c1 (optimized conformer: 57.25598490423053 kcal/mol)

>  <smiles>  (1) 
COc1ccccc1NS(=O)(=O)c1cccc(C(=O)Nc2ccccc2)c1

>  <score_type>  (1) 
oracle

>  <origin>  (1) 
adgpu

>  <m_score__min__energy>  (1) 
-10.859999999999999

>  <m_primary>  (1) 
energy

$$$$
1:0
     RDKit          3D

 38 40  0  0  0  0  0  0  0  0999 V2000
   -8.7750   18.5640  -31.5960 C   0  0  0  0  0  0  0  0  0  0  0  0
   -7.9140   17.7360  -32.3450 O   0  0  0  0  0  0  0  0  0  0  0  0
   -6.5930   18.2450  -32.3210 C   0  0  0  0  0  0  0  0  0  0  0  0
   -6.4300   19.3760  -33.3430 C   0  0  0  0  0  0  0  0  0  0  0  0
   -5.8450   20.5800  -32.7130 N   0  0  0  0  0  0  0  0  0  0  0  0
   -4.4760   20.6700  -32.5490 C   0  0  0  0  0  0  0  0  0  0  0  0
   -3.7380   19.7250  -32.9480 O   0  0  0  0  0  0  0  0  0  0  0  0
   -3.9000   21.7750  -31.9510 N   0  0  0  0  0  0  0  0  0  0  0  0
   -2.4290   21.8640  -31.8300 C   0  0  0  0  0  0  0  0  0  0  0  0
   -2.0210   21.8820  -30.3790 C   0  0  0  0  0  0  0  0  0  0  0  0
   -1.2320   22.9280  -29.8740 C   0  0  0  0  0  0  0  0  0  0  0  0
   -0.8840   22.9580  -28.5220 C   0  0  0  0  0  0  0  0  0  0  0  0
   -1.3200   21.9500  -27.6560 C   0  0  0  0  0  0  0  0  0  0  0  0
   -0.8610   22.0230  -25.9600 Cl  0  0  0  0  0  0  0  0  0  0  0  0
   -2.1130   20.9010  -28.1520 C   0  0  0  0  0  0  0  0  0  0  0  0
   -2.6860   19.6150  -27.0990 Cl  0  0  0  0  0  0  0  0  0  0  0  0
   -2.4620   20.8720  -29.5080 C   0  0  0  0  0  0  0  0  0  0  0  0
   -4.6910   22.8040  -31.5040 C   0  0  0  0  0  0  0  0  0  0  0  0
   -4.1920   23.8270  -30.9580 O   0  0  0  0  0  0  0  0  0  0  0  0
   -6.0610   22.7070  -31.6540 C   0  0  0  0  0  0  0  0  0  0  0  0
   -7.2510   23.7950  -31.1850 S   0  0  0  0  0  0  0  0  0  0  0  0
   -8.5370   22.8560  -31.7420 C   0  0  0  0  0  0  0  0  0  0  0  0
   -8.0380   21.6820  -32.2990 C   0  0  0  0  0  0  0  0  0  0  0  0
   -6.6320   21.6030  -32.2490 C   0  0  0  0  0  0  0  0  0  0  0  0
   -8.6018   18.3974  -30.5226 H   0  0  0  0  0  0  0  0  0  0  0  0
   -8.5749   19.6176  -31.8405 H   0  0  0  0  0  0  0  0  0  0  0  0
   -9.8200   18.3229  -31.8405 H   0  0  0  0  0  0  0  0  0  0  0  0
   -6.3735   18.6326  -31.3152 H   0  0  0  0  0  0  0  0  0  0  0  0
   -5.8963   17.4333  -32.5773 H   0  0  0  0  0  0  0  0  0  0  0  0
   -5.7679   19.0362  -34.1530 H   0  0  0  0  0  0  0  0  0  0  0  0
   -7.4226   19.6354  -33.7397 H   0  0  0  0  0  0  0  0  0  0  0  0
   -1.9714   20.9944  -32.3244 H   0  0  0  0  0  0  0  0  0  0  0  0
   -2.0874   22.7939  -32.3082 H   0  0  0  0  0  0  0  0  0  0  0  0
   -0.8866   23.7272  -30.5463 H   0  0  0  0  0  0  0  0  0  0  0  0
   -0.2630   23.7796  -28.1356 H   0  0  0  0  0  0  0  0  0  0  0  0
   -3.0860   20.0524  -29.8938 H   0  0  0  0  0  0  0  0  0  0  0  0
   -9.6007   23.1282  -31.6756 H   0  0  0  0  0  0  0  0  0  0  0  0
   -8.6751   20.8974  -32.7331 H   0  0  0  0  0  0  0  0  0  0  0  0
  1  2  1  0
  2  3  1  0
  3  4  1  0
  4  5  1  0
  5  6  1  0
  6  7  2  0
  6  8  1  0
  8  9  1  0
  9 10  1  0
 10 11  2  0
 11 12  1  0
 12 13  2  0
 13 14  1  0
 13 15  1  0
 15 16  1  0
 15 17  2  0
  8 18  1  0
 18 19  2  0
 18 20  1  0
 20 21  1  0
 21 22  1  0
 22 23  2  0
 23 24  1  0
 24  5  1  0
 17 10  1  0
 24 20  2  0
  1 25  1  0
  1 26  1  0
  1 27  1  0
  3 28  1  0
  3 29  1  0
  4 30  1  0
  4 31  1  0
  9 32  1  0
  9 33  1  0
 11 34  1  0
 12 35  1  0
 17 36  1  0
 22 37  1  0
 23 38  1  0
M  END
>  <UniqueID>  (2) 
2

>  <SMILES>  (2) 
COCCn1c(=O)n(Cc2ccc(Cl)c(Cl)c2)c(=O)c2sccc21

>  <Energy>  (2) 
80.52765795989646

>  <Genealogy>  (2) 
COCCn1c(=O)n(Cc2ccc(Cl)c(Cl)c2)c(=O)c2sccc21 (3D coordinates assigned)
COCCn1c(=O)n(Cc2ccc(Cl)c(Cl)c2)c(=O)c2sccc21 (optimized conformer: 80.52765795989646 kcal/mol)

>  <smiles>  (2) 
COCCn1c(=O)n(Cc2ccc(Cl)c(Cl)c2)c(=O)c2sccc21

>  <score_type>  (2) 
oracle

>  <origin>  (2) 
adgpu

>  <m_score__min__energy>  (2) 
-8.1500000000000004

>  <m_primary>  (2) 
energy

$$$$
2:0
     RDKit          3D

 30 31  0  0  0  0  0  0  0  0999 V2000
   -3.5120   25.2570  -30.4950 N   0  0  0  0  0  0  0  0  0  0  0  0
   -5.1630   24.7700  -30.3430 S   0  0  0  0  0  0  0  0  0  0  0  0
   -6.0500   25.7880  -31.0050 O   0  0  0  0  0  0  0  0  0  0  0  0
   -5.5280   24.6890  -28.8870 O   0  0  0  0  0  0  0  0  0  0  0  0
   -5.3870   23.1990  -31.1040 C   0  0  0  0  0  0  0  0  0  0  0  0
   -4.4290   22.1920  -30.9380 C   0  0  0  0  0  0  0  0  0  0  0  0
   -4.6010   20.9490  -31.5540 C   0  0  0  0  0  0  0  0  0  0  0  0
   -5.7360   20.6910  -32.3430 C   0  0  0  0  0  0  0  0  0  0  0  0
   -5.8960   19.3670  -32.9900 C   0  0  0  0  0  0  0  0  0  0  0  0
   -6.2080   19.3200  -34.2110 O   0  0  0  0  0  0  0  0  0  0  0  0
   -5.7080   18.1450  -32.2490 N   0  0  0  0  0  0  0  0  0  0  0  0
   -5.7510   16.8360  -32.8410 C   0  0  0  0  0  0  0  0  0  0  0  0
   -4.6680   15.9620  -32.6560 C   0  0  0  0  0  0  0  0  0  0  0  0
   -4.6750   14.6930  -33.2420 C   0  0  0  0  0  0  0  0  0  0  0  0
   -5.7550   14.2910  -34.0320 C   0  0  0  0  0  0  0  0  0  0  0  0
   -5.7610   12.6990  -34.7700 Cl  0  0  0  0  0  0  0  0  0  0  0  0
   -6.8270   15.1630  -34.2430 C   0  0  0  0  0  0  0  0  0  0  0  0
   -6.8240   16.4330  -33.6580 C   0  0  0  0  0  0  0  0  0  0  0  0
   -6.6830   21.7170  -32.5220 C   0  0  0  0  0  0  0  0  0  0  0  0
   -6.5090   22.9600  -31.9070 C   0  0  0  0  0  0  0  0  0  0  0  0
   -3.4840   26.0180  -31.2100 H   0  0  0  0  0  0  0  0  0  0  0  0
   -3.5379   22.3794  -30.3208 H   0  0  0  0  0  0  0  0  0  0  0  0
   -3.8410   20.1650  -31.4202 H   0  0  0  0  0  0  0  0  0  0  0  0
   -5.5830   18.1900  -31.2150 H   0  0  0  0  0  0  0  0  0  0  0  0
   -3.8087   16.2778  -32.0462 H   0  0  0  0  0  0  0  0  0  0  0  0
   -3.8284   14.0094  -33.0808 H   0  0  0  0  0  0  0  0  0  0  0  0
   -7.6744   14.8495  -34.8704 H   0  0  0  0  0  0  0  0  0  0  0  0
   -7.6640   17.1203  -33.8371 H   0  0  0  0  0  0  0  0  0  0  0  0
   -7.5675   21.5390  -33.1513 H   0  0  0  0  0  0  0  0  0  0  0  0
   -7.2563   23.7536  -32.0544 H   0  0  0  0  0  0  0  0  0  0  0  0
  1  2  1  0
  2  3  2  0
  2  4  2  0
  2  5  1  0
  5  6  2  0
  6  7  1  0
  7  8  2  0
  8  9  1  0
  9 10  2  0
  9 11  1  0
 11 12  1  0
 12 13  2  0
 13 14  1  0
 14 15  2  0
 15 16  1  0
 15 17  1  0
 17 18  2  0
  8 19  1  0
 19 20  2  0
 20  5  1  0
 18 12  1  0
  1 21  1  0
  6 22  1  0
  7 23  1  0
 11 24  1  0
 13 25  1  0
 14 26  1  0
 17 27  1  0
 18 28  1  0
 19 29  1  0
 20 30  1  0
M  CHG  1   1  -1
M  END
>  <UniqueID>  (3) 
3

>  <SMILES>  (3) 
[NH-]S(=O)(=O)c1ccc(C(=O)Nc2ccc(Cl)cc2)cc1

>  <Energy>  (3) 
37.378383012132105

>  <Genealogy>  (3) 
[NH-]S(=O)(=O)c1ccc(C(=O)Nc2ccc(Cl)cc2)cc1 (protonated)
[NH-]S(=O)(=O)c1ccc(C(=O)Nc2ccc(Cl)cc2)cc1 (3D coordinates assigned)
[NH-]S(=O)(=O)c1ccc(C(=O)Nc2ccc(Cl)cc2)cc1 (optimized conformer: 37.378383012132105 kcal/mol)

>  <smiles>  (3) 
NS(=O)(=O)c1ccc(C(=O)Nc2ccc(Cl)cc2)cc1

>  <score_type>  (3) 
oracle

>  <origin>  (3) 
adgpu

>  <m_score__min__energy>  (3) 
-9.3599999999999994

>  <m_primary>  (3) 
energy

$$$$
3:0
     RDKit          3D

 46 49  0  0  1  0  0  0  0  0999 V2000
   -3.8270   18.2610  -25.5560 C   0  0  0  0  0  0  0  0  0  0  0  0
   -2.4960   18.1560  -26.0170 O   0  0  0  0  0  0  0  0  0  0  0  0
   -1.9610   18.9480  -27.0040 C   0  0  0  0  0  0  0  0  0  0  0  0
   -2.6070   20.0960  -27.4400 C   0  0  0  0  0  0  0  0  0  0  0  0
   -2.0020   20.8400  -28.4410 C   0  0  0  0  0  0  0  0  0  0  0  0
   -2.6260   22.0500  -28.9390 C   0  0  0  0  0  0  0  0  0  0  0  0
   -2.1950   23.2510  -28.4830 C   0  0  0  0  0  0  0  0  0  0  0  0
   -2.6990   24.4720  -28.8720 C   0  0  0  0  0  0  0  0  0  0  0  0
   -3.7260   24.4160  -29.8060 C   0  0  0  0  0  0  0  0  0  0  0  0
   -4.2270   25.6000  -30.1940 N   0  0  0  0  0  0  0  0  0  0  0  0
   -5.2180   25.5980  -31.0930 C   0  0  0  0  0  0  0  0  0  0  0  0
   -5.6950   24.4610  -31.5870 N   0  0  0  0  0  0  0  0  0  0  0  0
   -5.1980   23.2680  -31.2020 C   0  0  0  0  0  0  0  0  0  0  0  0
   -5.7080   22.2500  -31.7210 N   0  0  0  0  0  0  0  0  0  0  0  0
   -5.3560   20.9190  -31.4760 C   0  0  0  0  0  0  0  0  0  0  0  0
   -6.6840   20.1940  -31.7350 C   0  0  0  0  0  0  0  0  0  0  0  0
   -6.7270   18.8150  -31.7560 C   0  0  0  0  0  0  0  0  0  0  0  0
   -7.9170   18.1710  -32.0050 C   0  0  0  0  0  0  0  0  0  0  0  0
   -9.0210   18.9530  -32.2220 C   0  0  0  0  0  0  0  0  0  0  0  0
   -9.0330   20.3260  -32.2110 C   0  0  0  0  0  0  0  0  0  0  0  0
   -7.8360   20.9590  -31.9610 C   0  0  0  0  0  0  0  0  0  0  0  0
   -4.1810   23.1970  -30.2840 C   0  0  0  0  0  0  0  0  0  0  0  0
   -3.6780   22.0000  -29.8950 C   0  0  0  0  0  0  0  0  0  0  0  0
   -0.7820   20.4220  -28.9720 C   0  0  0  0  0  0  0  0  0  0  0  0
   -0.1430   19.2830  -28.5370 C   0  0  0  0  0  0  0  0  0  0  0  0
    1.3970   18.7730  -29.2210 Cl  0  0  0  0  0  0  0  0  0  0  0  0
   -0.7450   18.5460  -27.5440 C   0  0  0  0  0  0  0  0  0  0  0  0
   -0.1170   17.3940  -27.0940 O   0  0  0  0  0  0  0  0  0  0  0  0
   -3.8351   18.2616  -24.4560 H   0  0  0  0  0  0  0  0  0  0  0  0
   -4.2706   19.1969  -25.9265 H   0  0  0  0  0  0  0  0  0  0  0  0
   -4.4119   17.4062  -25.9265 H   0  0  0  0  0  0  0  0  0  0  0  0
   -3.5687   20.4059  -27.0051 H   0  0  0  0  0  0  0  0  0  0  0  0
   -1.3794   23.2506  -27.7449 H   0  0  0  0  0  0  0  0  0  0  0  0
   -2.3163   25.4227  -28.4723 H   0  0  0  0  0  0  0  0  0  0  0  0
   -3.8640   26.5150  -29.8140 H   0  0  0  0  0  0  0  0  0  0  0  0
   -5.6451   26.5545  -31.4288 H   0  0  0  0  0  0  0  0  0  0  0  0
   -4.5713   20.5779  -32.1673 H   0  0  0  0  0  0  0  0  0  0  0  0
   -4.9398   20.7443  -30.4729 H   0  0  0  0  0  0  0  0  0  0  0  0
   -5.8121   18.2320  -31.5741 H   0  0  0  0  0  0  0  0  0  0  0  0
   -7.9796   17.0730  -32.0289 H   0  0  0  0  0  0  0  0  0  0  0  0
   -9.9735   18.4400  -32.4209 H   0  0  0  0  0  0  0  0  0  0  0  0
   -9.9569   20.8944  -32.3936 H   0  0  0  0  0  0  0  0  0  0  0  0
   -7.7845   22.0576  -31.9389 H   0  0  0  0  0  0  0  0  0  0  0  0
   -4.0598   21.0487  -30.2940 H   0  0  0  0  0  0  0  0  0  0  0  0
   -0.3143   21.0231  -29.7657 H   0  0  0  0  0  0  0  0  0  0  0  0
   -0.4920   16.8320  -26.3510 H   0  0  0  0  0  0  0  0  0  0  0  0
  1  2  1  0
  2  3  1  0
  3  4  2  0
  4  5  1  0
  5  6  1  0
  6  7  2  0
  7  8  1  0
  8  9  2  0
  9 10  1  0
 10 11  1  0
 11 12  2  0
 12 13  1  0
 13 14  2  0
 14 15  1  0
 15 16  1  0
 16 17  2  0
 17 18  1  0
 18 19  2  0
 19 20  1  0
 20 21  2  0
 13 22  1  0
 22 23  2  0
  5 24  2  0
 24 25  1  0
 25 26  1  0
 25 27  2  0
 27 28  1  0
 27  3  1  0
 23  6  1  0
 22  9  1  0
 21 16  1  0
  1 29  1  0
  1 30  1  0
  1 31  1  0
  4 32  1  0
  7 33  1  0
  8 34  1  0
 10 35  1  0
 11 36  1  0
 15 37  1  0
 15 38  1  0
 17 39  1  0
 18 40  1  0
 19 41  1  0
 20 42  1  0
 21 43  1  0
 23 44  1  0
 24 45  1  0
 28 46  1  0
M  END
>  <smiles>  (4) 
COc1cc(-c2ccc3[nH]cnc(=NCc4ccccc4)c3c2)cc(Cl)c1O

>  <score_type>  (4) 
oracle

>  <origin>  (4) 
adgpu

>  <m_score__min__energy>  (4) 
-9.7100000000000009

>  <m_primary>  (4) 
energy

$$$$
4:0
     RDKit          3D

 44 46  0  0  0  0  0  0  0  0999 V2000
   -0.9630   24.7370  -28.1390 C   0  0  0  0  0  0  0  0  0  0  0  0
   -1.7880   24.7380  -29.3450 N   0  0  0  0  0  0  0  0  0  0  0  0
   -2.2710   23.5350  -29.9810 C   0  0  0  0  0  0  0  0  0  0  0  0
   -1.4510   22.3940  -30.0800 C   0  0  0  0  0  0  0  0  0  0  0  0
   -1.9160   21.2320  -30.7000 C   0  0  0  0  0  0  0  0  0  0  0  0
   -3.2010   21.1830  -31.2480 C   0  0  0  0  0  0  0  0  0  0  0  0
   -3.6590   19.9730  -31.8760 N   0  0  0  0  0  0  0  0  0  0  0  0
   -4.6930   19.9320  -32.8730 C   0  0  0  0  0  0  0  0  0  0  0  0
   -5.0490   20.9930  -33.4550 O   0  0  0  0  0  0  0  0  0  0  0  0
   -5.3340   18.6410  -33.2290 C   0  0  0  0  0  0  0  0  0  0  0  0
   -4.6020   17.7170  -33.9980 C   0  0  0  0  0  0  0  0  0  0  0  0
   -5.1480   16.4780  -34.3350 C   0  0  0  0  0  0  0  0  0  0  0  0
   -6.4300   16.1380  -33.9080 C   0  0  0  0  0  0  0  0  0  0  0  0
   -7.1760   17.0410  -33.1490 C   0  0  0  0  0  0  0  0  0  0  0  0
   -6.6510   18.3020  -32.8130 C   0  0  0  0  0  0  0  0  0  0  0  0
   -7.5100   19.2530  -32.0210 C   0  0  0  0  0  0  0  0  0  0  0  0
   -4.0380   22.3030  -31.1280 C   0  0  0  0  0  0  0  0  0  0  0  0
   -3.5800   23.4780  -30.5150 C   0  0  0  0  0  0  0  0  0  0  0  0
   -4.7030   24.8820  -30.4470 S   0  0  0  0  0  0  0  0  0  0  0  0
   -6.1320   23.8640  -30.8020 C   0  0  0  0  0  0  0  0  0  0  0  0
   -6.6790   23.8380  -32.0890 C   0  0  0  0  0  0  0  0  0  0  0  0
   -7.8030   23.0470  -32.3370 C   0  0  0  0  0  0  0  0  0  0  0  0
   -8.3630   22.2930  -31.3030 C   0  0  0  0  0  0  0  0  0  0  0  0
   -7.7860   22.3420  -30.0320 C   0  0  0  0  0  0  0  0  0  0  0  0
   -6.6920   23.1200  -29.8090 N   0  0  0  0  0  0  0  0  0  0  0  0
   -1.6119   24.7378  -27.2508 H   0  0  0  0  0  0  0  0  0  0  0  0
   -0.3291   23.8381  -28.1291 H   0  0  0  0  0  0  0  0  0  0  0  0
   -0.3269   25.6344  -28.1291 H   0  0  0  0  0  0  0  0  0  0  0  0
   -2.0120   25.6720  -29.7510 H   0  0  0  0  0  0  0  0  0  0  0  0
   -0.4329   22.4184  -29.6643 H   0  0  0  0  0  0  0  0  0  0  0  0
   -1.2650   20.3472  -30.7576 H   0  0  0  0  0  0  0  0  0  0  0  0
   -3.1380   19.0890  -31.6740 H   0  0  0  0  0  0  0  0  0  0  0  0
   -3.5878   17.9746  -34.3372 H   0  0  0  0  0  0  0  0  0  0  0  0
   -4.5648   15.7677  -34.9394 H   0  0  0  0  0  0  0  0  0  0  0  0
   -6.8544   15.1574  -34.1692 H   0  0  0  0  0  0  0  0  0  0  0  0
   -8.1850   16.7637  -32.8100 H   0  0  0  0  0  0  0  0  0  0  0  0
   -7.3536   19.0799  -30.9460 H   0  0  0  0  0  0  0  0  0  0  0  0
   -7.2353   20.2888  -32.2693 H   0  0  0  0  0  0  0  0  0  0  0  0
   -8.5683   19.0847  -32.2693 H   0  0  0  0  0  0  0  0  0  0  0  0
   -5.0651   22.2586  -31.5193 H   0  0  0  0  0  0  0  0  0  0  0  0
   -6.2290   24.4338  -32.8968 H   0  0  0  0  0  0  0  0  0  0  0  0
   -8.2459   23.0178  -33.3435 H   0  0  0  0  0  0  0  0  0  0  0  0
   -9.2488   21.6675  -31.4877 H   0  0  0  0  0  0  0  0  0  0  0  0
   -8.2164   21.7509  -29.2102 H   0  0  0  0  0  0  0  0  0  0  0  0
  1  2  1  0
  2  3  1  0
  3  4  2  0
  4  5  1  0
  5  6  2  0
  6  7  1  0
  7  8  1  0
  8  9  2  0
  8 10  1  0
 10 11  2  0
 11 12  1  0
 12 13  2  0
 13 14  1  0
 14 15  2  0
 15 16  1  0
  6 17  1  0
 17 18  2  0
 18 19  1  0
 19 20  1  0
 20 21  2  0
 21 22  1  0
 22 23  2  0
 23 24  1  0
 24 25  2  0
 18  3  1  0
 25 20  1  0
 15 10  1  0
  1 26  1  0
  1 27  1  0
  1 28  1  0
  2 29  1  0
  4 30  1  0
  5 31  1  0
  7 32  1  0
 11 33  1  0
 12 34  1  0
 13 35  1  0
 14 36  1  0
 16 37  1  0
 16 38  1  0
 16 39  1  0
 17 40  1  0
 21 41  1  0
 22 42  1  0
 23 43  1  0
 24 44  1  0
M  END
>  <UniqueID>  (5) 
4

>  <SMILES>  (5) 
CNc1ccc(NC(=O)c2ccccc2C)cc1Sc1ccccn1

>  <Energy>  (5) 
50.87649635346067

>  <Genealogy>  (5) 
CNc1ccc(NC(=O)c2ccccc2C)cc1Sc1ccccn1 (3D coordinates assigned)
CNc1ccc(NC(=O)c2ccccc2C)cc1Sc1ccccn1 (optimized conformer: 50.87649635346067 kcal/mol)

>  <smiles>  (5) 
CNc1ccc(NC(=O)c2ccccc2C)cc1Sc1ccccn1

>  <score_type>  (5) 
oracle

>  <origin>  (5) 
adgpu

>  <m_score__min__energy>  (5) 
-8.8599999999999994

>  <m_primary>  (5) 
energy

$$$$
5:0
     RDKit          3D

 28 30  0  0  0  0  0  0  0  0999 V2000
   -8.0720   22.6510  -31.2950 O   0  0  0  0  0  0  0  0  0  0  0  0
   -7.2180   21.8600  -31.7880 C   0  0  0  0  0  0  0  0  0  0  0  0
   -7.5560   20.5090  -31.9650 C   0  0  0  0  0  0  0  0  0  0  0  0
   -8.8260   20.0030  -31.6230 C   0  0  0  0  0  0  0  0  0  0  0  0
   -9.1190   18.6500  -31.8160 C   0  0  0  0  0  0  0  0  0  0  0  0
   -8.1540   17.7920  -32.3490 C   0  0  0  0  0  0  0  0  0  0  0  0
   -6.8910   18.2840  -32.6900 C   0  0  0  0  0  0  0  0  0  0  0  0
   -6.5860   19.6420  -32.5000 C   0  0  0  0  0  0  0  0  0  0  0  0
   -5.3580   20.1230  -32.8230 N   0  0  0  0  0  0  0  0  0  0  0  0
   -5.0380   21.4360  -32.6480 C   0  0  0  0  0  0  0  0  0  0  0  0
   -3.5110   21.9170  -33.0470 S   0  0  0  0  0  0  0  0  0  0  0  0
   -5.9710   22.3200  -32.1430 N   0  0  0  0  0  0  0  0  0  0  0  0
   -5.6370   23.7460  -31.9260 C   0  0  0  0  0  0  0  0  0  0  0  0
   -4.8860   23.9160  -30.6430 C   0  0  0  0  0  0  0  0  0  0  0  0
   -5.2120   23.3350  -29.4330 C   0  0  0  0  0  0  0  0  0  0  0  0
   -4.2370   23.7500  -28.5500 C   0  0  0  0  0  0  0  0  0  0  0  0
   -3.3790   24.5530  -29.2750 C   0  0  0  0  0  0  0  0  0  0  0  0
   -3.7930   24.6310  -30.5190 O   0  0  0  0  0  0  0  0  0  0  0  0
   -9.5890   20.6748  -31.2029 H   0  0  0  0  0  0  0  0  0  0  0  0
  -10.1118   18.2599  -31.5475 H   0  0  0  0  0  0  0  0  0  0  0  0
   -8.3884   16.7280  -32.5005 H   0  0  0  0  0  0  0  0  0  0  0  0
   -6.1332   17.6054  -33.1086 H   0  0  0  0  0  0  0  0  0  0  0  0
   -4.6400   19.4700  -33.2130 H   0  0  0  0  0  0  0  0  0  0  0  0
   -5.0154   24.1037  -32.7601 H   0  0  0  0  0  0  0  0  0  0  0  0
   -6.5695   24.3271  -31.8735 H   0  0  0  0  0  0  0  0  0  0  0  0
   -6.0688   22.6793  -29.2187 H   0  0  0  0  0  0  0  0  0  0  0  0
   -4.1587   23.4931  -27.4833 H   0  0  0  0  0  0  0  0  0  0  0  0
   -2.4850   25.0514  -28.8721 H   0  0  0  0  0  0  0  0  0  0  0  0
  1  2  2  0
  2  3  1  0
  3  4  2  0
  4  5  1  0
  5  6  2  0
  6  7  1  0
  7  8  2  0
  8  9  1  0
  9 10  1  0
 10 11  2  0
 10 12  1  0
 12 13  1  0
 13 14  1  0
 14 15  2  0
 15 16  1  0
 16 17  2  0
 17 18  1  0
 12  2  1  0
 18 14  1  0
  8  3  1  0
  4 19  1  0
  5 20  1  0
  6 21  1  0
  7 22  1  0
  9 23  1  0
 13 24  1  0
 13 25  1  0
 15 26  1  0
 16 27  1  0
 17 28  1  0
M  END
>  <UniqueID>  (6) 
5

>  <SMILES>  (6) 
O=c1c2ccccc2[nH]c(=S)n1Cc1ccco1

>  <Energy>  (6) 
66.2591831289569

>  <Genealogy>  (6) 
O=c1c2ccccc2[nH]c(=S)n1Cc1ccco1 (3D coordinates assigned)
O=c1c2ccccc2[nH]c(=S)n1Cc1ccco1 (optimized conformer: 66.2591831289569 kcal/mol)

>  <smiles>  (6) 
O=c1c2ccccc2[nH]c(=S)n1Cc1ccco1

>  <score_type>  (6) 
oracle

>  <origin>  (6) 
adgpu

>  <m_score__min__energy>  (6) 
-7.2699999999999996

>  <m_primary>  (6) 
energy

$$$$
6:0
     RDKit          3D

 47 50  0  0  0  0  0  0  0  0999 V2000
   -2.3120   20.9950  -32.1150 C   0  0  0  0  0  0  0  0  0  0  0  0
   -1.6350   21.2770  -30.8060 C   0  0  0  0  0  0  0  0  0  0  0  0
   -1.4830   20.2570  -29.8550 C   0  0  0  0  0  0  0  0  0  0  0  0
   -0.8870   20.5300  -28.6230 C   0  0  0  0  0  0  0  0  0  0  0  0
   -0.4490   21.8230  -28.3230 C   0  0  0  0  0  0  0  0  0  0  0  0
   -0.6090   22.8600  -29.2630 C   0  0  0  0  0  0  0  0  0  0  0  0
   -0.1930   24.1790  -29.0140 O   0  0  0  0  0  0  0  0  0  0  0  0
   -0.9910   25.1920  -28.4020 C   0  0  0  0  0  0  0  0  0  0  0  0
   -2.4460   24.8660  -28.5260 C   0  0  0  0  0  0  0  0  0  0  0  0
   -3.1090   24.5750  -27.4940 O   0  0  0  0  0  0  0  0  0  0  0  0
   -3.0740   24.9200  -29.8120 N   0  0  0  0  0  0  0  0  0  0  0  0
   -4.4250   24.5450  -30.1220 C   0  0  0  0  0  0  0  0  0  0  0  0
   -5.4600   25.4190  -29.7690 C   0  0  0  0  0  0  0  0  0  0  0  0
   -6.7860   25.1010  -30.0670 C   0  0  0  0  0  0  0  0  0  0  0  0
   -7.0900   23.9130  -30.7350 C   0  0  0  0  0  0  0  0  0  0  0  0
   -6.0650   23.0360  -31.1200 C   0  0  0  0  0  0  0  0  0  0  0  0
   -6.3910   21.7910  -31.8440 C   0  0  0  0  0  0  0  0  0  0  0  0
   -7.6390   21.4010  -32.1710 N   0  0  0  0  0  0  0  0  0  0  0  0
   -7.5150   20.2460  -32.8070 N   0  0  0  0  0  0  0  0  0  0  0  0
   -6.1960   19.9730  -32.8440 C   0  0  0  0  0  0  0  0  0  0  0  0
   -5.6080   18.7710  -33.4660 C   0  0  0  0  0  0  0  0  0  0  0  0
   -6.3610   17.5880  -33.5660 C   0  0  0  0  0  0  0  0  0  0  0  0
   -5.8070   16.4460  -34.1540 C   0  0  0  0  0  0  0  0  0  0  0  0
   -4.4990   16.4750  -34.6450 C   0  0  0  0  0  0  0  0  0  0  0  0
   -3.7440   17.6460  -34.5500 C   0  0  0  0  0  0  0  0  0  0  0  0
   -4.2930   18.7900  -33.9630 C   0  0  0  0  0  0  0  0  0  0  0  0
   -5.5020   20.9170  -32.2550 O   0  0  0  0  0  0  0  0  0  0  0  0
   -4.7300   23.3610  -30.8180 C   0  0  0  0  0  0  0  0  0  0  0  0
   -1.2120   22.5790  -30.4960 C   0  0  0  0  0  0  0  0  0  0  0  0
   -3.3126   20.5782  -31.9280 H   0  0  0  0  0  0  0  0  0  0  0  0
   -2.4052   21.9291  -32.6883 H   0  0  0  0  0  0  0  0  0  0  0  0
   -1.7145   20.2709  -32.6883 H   0  0  0  0  0  0  0  0  0  0  0  0
   -1.8345   19.2394  -30.0809 H   0  0  0  0  0  0  0  0  0  0  0  0
   -0.7614   19.7242  -27.8849 H   0  0  0  0  0  0  0  0  0  0  0  0
    0.0216   22.0313  -27.3508 H   0  0  0  0  0  0  0  0  0  0  0  0
   -0.7269   25.2653  -27.3367 H   0  0  0  0  0  0  0  0  0  0  0  0
   -0.7984   26.1487  -28.9096 H   0  0  0  0  0  0  0  0  0  0  0  0
   -5.2268   26.3623  -29.2535 H   0  0  0  0  0  0  0  0  0  0  0  0
   -7.5938   25.7881  -29.7748 H   0  0  0  0  0  0  0  0  0  0  0  0
   -8.1375   23.6638  -30.9602 H   0  0  0  0  0  0  0  0  0  0  0  0
   -7.3907   17.5603  -33.1800 H   0  0  0  0  0  0  0  0  0  0  0  0
   -6.4018   15.5238  -34.2300 H   0  0  0  0  0  0  0  0  0  0  0  0
   -4.0643   15.5759  -35.1061 H   0  0  0  0  0  0  0  0  0  0  0  0
   -2.7149   17.6683  -34.9379 H   0  0  0  0  0  0  0  0  0  0  0  0
   -3.6933   19.7092  -33.8897 H   0  0  0  0  0  0  0  0  0  0  0  0
   -3.9194   22.6851  -31.1280 H   0  0  0  0  0  0  0  0  0  0  0  0
   -1.3554   23.3869  -31.2286 H   0  0  0  0  0  0  0  0  0  0  0  0
  1  2  1  0
  2  3  2  0
  3  4  1  0
  4  5  2  0
  5  6  1  0
  6  7  1  0
  7  8  1  0
  8  9  1  0
  9 10  2  0
  9 11  1  0
 11 12  1  0
 12 13  2  0
 13 14  1  0
 14 15  2  0
 15 16  1  0
 16 17  1  0
 17 18  2  0
 18 19  1  0
 19 20  2  0
 20 21  1  0
 21 22  2  0
 22 23  1  0
 23 24  2  0
 24 25  1  0
 25 26  2  0
 20 27  1  0
 16 28  2  0
  6 29  2  0
 29  2  1  0
 28 12  1  0
 27 17  1  0
 26 21  1  0
  1 30  1  0
  1 31  1  0
  1 32  1  0
  3 33  1  0
  4 34  1  0
  5 35  1  0
  8 36  1  0
  8 37  1  0
 13 38  1  0
 14 39  1  0
 15 40  1  0
 22 41  1  0
 23 42  1  0
 24 43  1  0
 25 44  1  0
 26 45  1  0
 28 46  1  0
 29 47  1  0
M  CHG  1  11  -1
M  END
>  <UniqueID>  (7) 
6

>  <SMILES>  (7) 
Cc1cccc(OCC(=O)[N-]c2cccc(-c3nnc(-c4ccccc4)o3)c2)c1

>  <Energy>  (7) 
88.32927715601448

>  <Genealogy>  (7) 
Cc1cccc(OCC(=O)[N-]c2cccc(-c3nnc(-c4ccccc4)o3)c2)c1 (protonated)
Cc1cccc(OCC(=O)[N-]c2cccc(-c3nnc(-c4ccccc4)o3)c2)c1 (3D coordinates assigned)
Cc1cccc(OCC(=O)[N-]c2cccc(-c3nnc(-c4ccccc4)o3)c2)c1 (optimized conformer: 88.32927715601448 kcal/mol)

>  <smiles>  (7) 
Cc1cccc(OCC(=O)Nc2cccc(-c3nnc(-c4ccccc4)o3)c2)c1

>  <score_type>  (7) 
oracle

>  <origin>  (7) 
adgpu

>  <m_score__min__energy>  (7) 
-11.52

>  <m_primary>  (7) 
energy

$$$$
7:0
     RDKit          3D

 64 68  0  0  0  0  0  0  0  0999 V2000
   -5.7087   26.0030  -31.6968 H   0  0  0  0  0  0  0  0  0  0  0  0
   -5.7480   25.0110  -31.2230 C   0  0  0  0  0  0  0  0  0  0  0  0
   -4.9910   24.7530  -30.1270 N   0  0  0  0  0  0  0  0  0  0  0  0
   -5.0210   23.5330  -29.5260 C   0  0  0  0  0  0  0  0  0  0  0  0
   -4.3280   23.2910  -28.4510 N   0  0  0  0  0  0  0  0  0  0  0  0
   -3.4040   24.1790  -27.8000 C   0  0  0  0  0  0  0  0  0  0  0  0
   -3.7020   24.7980  -26.5720 C   0  0  0  0  0  0  0  0  0  0  0  0
   -4.6607   24.5924  -26.0735 H   0  0  0  0  0  0  0  0  0  0  0  0
   -2.7850   25.6730  -25.9830 C   0  0  0  0  0  0  0  0  0  0  0  0
   -3.0196   26.1384  -25.0143 H   0  0  0  0  0  0  0  0  0  0  0  0
   -1.5650   25.9630  -26.6190 C   0  0  0  0  0  0  0  0  0  0  0  0
   -0.6160   26.8600  -26.0090 N   0  0  0  0  0  0  0  0  0  0  0  0
   -0.6740   27.0960  -24.5610 C   0  0  0  0  0  0  0  0  0  0  0  0
   -0.5648   26.1360  -24.0351 H   0  0  0  0  0  0  0  0  0  0  0  0
   -1.6421   27.5590  -24.3191 H   0  0  0  0  0  0  0  0  0  0  0  0
    0.4490   28.0450  -24.1140 C   0  0  0  0  0  0  0  0  0  0  0  0
    1.3970   27.4877  -24.0877 H   0  0  0  0  0  0  0  0  0  0  0  0
    0.1921   28.4342  -23.1177 H   0  0  0  0  0  0  0  0  0  0  0  0
    0.5940   29.1930  -25.0330 N   0  0  0  0  0  0  0  0  0  0  0  0
   -0.5440   30.1230  -24.9370 C   0  0  0  0  0  0  0  0  0  0  0  0
   -0.7750   30.3118  -23.8782 H   0  0  0  0  0  0  0  0  0  0  0  0
   -0.2851   31.0714  -25.4305 H   0  0  0  0  0  0  0  0  0  0  0  0
   -1.4218   29.6805  -25.4305 H   0  0  0  0  0  0  0  0  0  0  0  0
    0.8700   28.7980  -26.4390 C   0  0  0  0  0  0  0  0  0  0  0  0
    1.9372   28.9717  -26.6412 H   0  0  0  0  0  0  0  0  0  0  0  0
    0.2070   29.4077  -27.0705 H   0  0  0  0  0  0  0  0  0  0  0  0
    0.5520   27.3250  -26.7650 C   0  0  0  0  0  0  0  0  0  0  0  0
    1.4208   26.7030  -26.5035 H   0  0  0  0  0  0  0  0  0  0  0  0
    0.3294   27.2438  -27.8392 H   0  0  0  0  0  0  0  0  0  0  0  0
   -1.2880   25.3710  -27.8620 C   0  0  0  0  0  0  0  0  0  0  0  0
   -0.3427   25.5983  -28.3766 H   0  0  0  0  0  0  0  0  0  0  0  0
   -2.2050   24.4950  -28.4500 C   0  0  0  0  0  0  0  0  0  0  0  0
   -1.9827   24.0504  -29.4313 H   0  0  0  0  0  0  0  0  0  0  0  0
   -5.8280   22.5610  -30.0240 N   0  0  0  0  0  0  0  0  0  0  0  0
   -6.6010   22.7620  -31.1260 C   0  0  0  0  0  0  0  0  0  0  0  0
   -7.4750   21.6630  -31.6140 C   0  0  0  0  0  0  0  0  0  0  0  0
   -8.8430   21.8680  -31.8750 C   0  0  0  0  0  0  0  0  0  0  0  0
   -9.2855   22.8630  -31.7198 H   0  0  0  0  0  0  0  0  0  0  0  0
   -9.6430   20.8160  -32.3300 C   0  0  0  0  0  0  0  0  0  0  0  0
  -10.7082   20.9894  -32.5427 H   0  0  0  0  0  0  0  0  0  0  0  0
   -9.0950   19.5480  -32.5150 C   0  0  0  0  0  0  0  0  0  0  0  0
   -9.7303   18.7244  -32.8730 H   0  0  0  0  0  0  0  0  0  0  0  0
   -7.7420   19.3170  -32.2480 C   0  0  0  0  0  0  0  0  0  0  0  0
   -7.2150   17.9940  -32.4260 N   0  0  0  0  0  0  0  0  0  0  0  0
   -6.3810   17.5500  -33.5080 C   0  0  0  0  0  0  0  0  0  0  0  0
   -6.8560   16.7270  -34.3340 O   0  0  0  0  0  0  0  0  0  0  0  0
   -4.9770   18.0020  -33.6570 C   0  0  0  0  0  0  0  0  0  0  0  0
   -3.9980   17.1140  -34.1340 C   0  0  0  0  0  0  0  0  0  0  0  0
   -4.2698   16.0742  -34.3683 H   0  0  0  0  0  0  0  0  0  0  0  0
   -2.6820   17.5450  -34.3120 C   0  0  0  0  0  0  0  0  0  0  0  0
   -1.9214   16.8438  -34.6859 H   0  0  0  0  0  0  0  0  0  0  0  0
   -2.3280   18.8630  -34.0170 C   0  0  0  0  0  0  0  0  0  0  0  0
   -1.2885   19.1945  -34.1566 H   0  0  0  0  0  0  0  0  0  0  0  0
   -3.2920   19.7680  -33.5430 C   0  0  0  0  0  0  0  0  0  0  0  0
   -2.9060   21.1790  -33.1720 C   0  0  0  0  0  0  0  0  0  0  0  0
   -2.7300   21.3000  -31.8030 F   0  0  0  0  0  0  0  0  0  0  0  0
   -3.9060   22.0460  -33.5760 F   0  0  0  0  0  0  0  0  0  0  0  0
   -1.7190   21.5340  -33.7900 F   0  0  0  0  0  0  0  0  0  0  0  0
   -4.6070   19.3180  -33.3310 C   0  0  0  0  0  0  0  0  0  0  0  0
   -5.3545   20.0036  -32.9053 H   0  0  0  0  0  0  0  0  0  0  0  0
   -6.9280   20.3880  -31.8380 C   0  0  0  0  0  0  0  0  0  0  0  0
   -5.8500   20.2258  -31.6908 H   0  0  0  0  0  0  0  0  0  0  0  0
   -6.5750   24.0210  -31.7490 C   0  0  0  0  0  0  0  0  0  0  0  0
   -7.1956   24.2211  -32.6349 H   0  0  0  0  0  0  0  0  0  0  0  0
  1  2  1  0
  2  3  1  0
  3  4  1  0
  4  5  2  0
  5  6  1  0
  6  7  2  0
  7  8  1  0
  7  9  1  0
  9 10  1  0
  9 11  2  0
 11 12  1  0
 12 13  1  0
 13 14  1  0
 13 15  1  0
 13 16  1  0
 16 17  1  0
 16 18  1  0
 16 19  1  0
 19 20  1  0
 20 21  1  0
 20 22  1  0
 20 23  1  0
 19 24  1  0
 24 25  1  0
 24 26  1  0
 24 27  1  0
 27 28  1  0
 27 29  1  0
 11 30  1  0
 30 31  1  0
 30 32  2  0
 32 33  1  0
  4 34  1  0
 34 35  2  0
 35 36  1  0
 36 37  2  0
 37 38  1  0
 37 39  1  0
 39 40  1  0
 39 41  2  0
 41 42  1  0
 41 43  1  0
 43 44  1  0
 44 45  1  0
 45 46  2  0
 45 47  1  0
 47 48  2  0
 48 49  1  0
 48 50  1  0
 50 51  1  0
 50 52  2  0
 52 53  1  0
 52 54  1  0
 54 55  1  0
 55 56  1  0
 55 57  1  0
 55 58  1  0
 54 59  2  0
 59 60  1  0
 43 61  2  0
 61 62  1  0
 35 63  1  0
 63 64  1  0
 63  2  2  0
 32  6  1  0
 61 36  1  0
 27 12  1  0
 59 47  1  0
M  CHG  2   3  -1  44  -1
M  END
>  <UniqueID>  (8) 
7

>  <SMILES>  (8) 
CN1CCN(c2ccc(/N=c3/nc(-c4cccc([N-]C(=O)c5cccc(C(F)(F)F)c5)c4)cc[n-]3)cc2)CC1

>  <Energy>  (8) 
98.72366221485595

>  <Genealogy>  (8) 
CN1CCN(c2ccc(N=c3nc(-c4cccc([N-]C(=O)c5cccc(C(F)(F)F)c5)c4)cc[n-]3)cc2)CC1 (protonated)
CN1CCN(c2ccc(/N=c3/nc(-c4cccc([N-]C(=O)c5cccc(C(F)(F)F)c5)c4)cc[n-]3)cc2)CC1 (cis-trans isomerization)
CN1CCN(c2ccc(/N=c3/nc(-c4cccc([N-]C(=O)c5cccc(C(F)(F)F)c5)c4)cc[n-]3)cc2)CC1 (3D coordinates assigned)
CN1CCN(c2ccc(/N=c3/nc(-c4cccc([N-]C(=O)c5cccc(C(F)(F)F)c5)c4)cc[n-]3)cc2)CC1 (nonaromatic ring conformer: 98.72366221485595 kcal/mol)

>  <smiles>  (8) 
CN1CCN(c2ccc(N=c3nc(-c4cccc(NC(=O)c5cccc(C(F)(F)F)c5)c4)cc[nH]3)cc2)CC1

>  <score_type>  (8) 
oracle

>  <origin>  (8) 
adgpu

>  <m_score__min__energy>  (8) 
-10.85

>  <m_primary>  (8) 
energy

$$$$
8:0
     RDKit          3D

 39 40  0  0  0  0  0  0  0  0999 V2000
   -1.8410   24.2560  -27.1000 C   0  0  0  0  0  0  0  0  0  0  0  0
   -1.5430   24.7190  -28.4920 C   0  0  0  0  0  0  0  0  0  0  0  0
   -0.3750   24.5860  -28.9420 O   0  0  0  0  0  0  0  0  0  0  0  0
   -2.5550   25.2730  -29.3450 N   0  0  0  0  0  0  0  0  0  0  0  0
   -3.6730   24.5780  -29.9130 C   0  0  0  0  0  0  0  0  0  0  0  0
   -3.6750   23.1800  -30.0610 C   0  0  0  0  0  0  0  0  0  0  0  0
   -4.7930   22.5310  -30.5910 C   0  0  0  0  0  0  0  0  0  0  0  0
   -5.9310   23.2640  -30.9520 C   0  0  0  0  0  0  0  0  0  0  0  0
   -7.3430   22.4310  -31.5990 S   0  0  0  0  0  0  0  0  0  0  0  0
   -7.9980   21.5920  -30.5380 O   0  0  0  0  0  0  0  0  0  0  0  0
   -8.3220   23.4640  -32.0760 O   0  0  0  0  0  0  0  0  0  0  0  0
   -6.8910   21.4180  -32.9340 N   0  0  0  0  0  0  0  0  0  0  0  0
   -6.9400   19.9880  -32.8560 C   0  0  0  0  0  0  0  0  0  0  0  0
   -8.0620   19.2240  -32.5980 C   0  0  0  0  0  0  0  0  0  0  0  0
   -9.4500   19.7280  -32.3770 C   0  0  0  0  0  0  0  0  0  0  0  0
   -7.7400   17.9180  -32.6810 N   0  0  0  0  0  0  0  0  0  0  0  0
   -6.4470   17.8380  -32.9590 N   0  0  0  0  0  0  0  0  0  0  0  0
   -5.7370   16.5720  -33.1030 C   0  0  0  0  0  0  0  0  0  0  0  0
   -5.9160   19.0780  -33.0540 C   0  0  0  0  0  0  0  0  0  0  0  0
   -4.4720   19.3790  -33.3150 C   0  0  0  0  0  0  0  0  0  0  0  0
   -5.9360   24.6560  -30.7890 C   0  0  0  0  0  0  0  0  0  0  0  0
   -4.8170   25.3050  -30.2600 C   0  0  0  0  0  0  0  0  0  0  0  0
   -1.3920   24.9535  -26.3776 H   0  0  0  0  0  0  0  0  0  0  0  0
   -2.9302   24.2232  -26.9498 H   0  0  0  0  0  0  0  0  0  0  0  0
   -1.4197   23.2510  -26.9498 H   0  0  0  0  0  0  0  0  0  0  0  0
   -2.7937   22.5953  -29.7586 H   0  0  0  0  0  0  0  0  0  0  0  0
   -4.7796   21.4393  -30.7255 H   0  0  0  0  0  0  0  0  0  0  0  0
   -6.2870   21.8520  -33.6670 H   0  0  0  0  0  0  0  0  0  0  0  0
   -9.6466   19.7994  -31.2971 H   0  0  0  0  0  0  0  0  0  0  0  0
   -9.5565   20.7222  -32.8356 H   0  0  0  0  0  0  0  0  0  0  0  0
  -10.1695   19.0338  -32.8356 H   0  0  0  0  0  0  0  0  0  0  0  0
   -5.5084   16.1645  -32.1072 H   0  0  0  0  0  0  0  0  0  0  0  0
   -6.3669   15.8591  -33.6552 H   0  0  0  0  0  0  0  0  0  0  0  0
   -4.8002   16.7377  -33.6552 H   0  0  0  0  0  0  0  0  0  0  0  0
   -3.9416   19.4896  -32.3577 H   0  0  0  0  0  0  0  0  0  0  0  0
   -4.0237   18.5550  -33.8895 H   0  0  0  0  0  0  0  0  0  0  0  0
   -4.3903   20.3135  -33.8895 H   0  0  0  0  0  0  0  0  0  0  0  0
   -6.8228   25.2391  -31.0781 H   0  0  0  0  0  0  0  0  0  0  0  0
   -4.8358   26.3953  -30.1154 H   0  0  0  0  0  0  0  0  0  0  0  0
  1  2  1  0
  2  3  2  0
  2  4  1  0
  4  5  1  0
  5  6  2  0
  6  7  1  0
  7  8  2  0
  8  9  1  0
  9 10  2  0
  9 11  2  0
  9 12  1  0
 12 13  1  0
 13 14  1  0
 14 15  1  0
 14 16  2  0
 16 17  1  0
 17 18  1  0
 17 19  1  0
 19 20  1  0
  8 21  1  0
 21 22  2  0
 22  5  1  0
 19 13  2  0
  1 23  1  0
  1 24  1  0
  1 25  1  0
  6 26  1  0
  7 27  1  0
 12 28  1  0
 15 29  1  0
 15 30  1  0
 15 31  1  0
 18 32  1  0
 18 33  1  0
 18 34  1  0
 20 35  1  0
 20 36  1  0
 20 37  1  0
 21 38  1  0
 22 39  1  0
M  CHG  1   4  -1
M  END
>  <UniqueID>  (9) 
8

>  <SMILES>  (9) 
CC(=O)[N-]c1ccc(S(=O)(=O)Nc2c(C)nn(C)c2C)cc1

>  <Energy>  (9) 
74.8723297185333

>  <Genealogy>  (9) 
CC(=O)[N-]c1ccc(S(=O)(=O)Nc2c(C)nn(C)c2C)cc1 (protonated)
CC(=O)[N-]c1ccc(S(=O)(=O)Nc2c(C)nn(C)c2C)cc1 (3D coordinates assigned)
CC(=O)[N-]c1ccc(S(=O)(=O)Nc2c(C)nn(C)c2C)cc1 (optimized conformer: 74.8723297185333 kcal/mol)

>  <smiles>  (9) 
CC(=O)Nc1ccc(S(=O)(=O)Nc2c(C)nn(C)c2C)cc1

>  <score_type>  (9) 
oracle

>  <origin>  (9) 
adgpu

>  <m_score__min__energy>  (9) 
-10.15

>  <m_primary>  (9) 
energy

$$$$
9:0
     RDKit          3D

 50 53  0  0  0  0  0  0  0  0999 V2000
   -9.5340   21.7360  -31.2600 C   0  0  0  0  0  0  0  0  0  0  0  0
   -8.5690   20.7430  -30.9280 O   0  0  0  0  0  0  0  0  0  0  0  0
   -7.8740   19.9700  -31.8690 C   0  0  0  0  0  0  0  0  0  0  0  0
   -7.0370   20.6170  -32.7830 C   0  0  0  0  0  0  0  0  0  0  0  0
   -6.3280   19.8790  -33.7320 C   0  0  0  0  0  0  0  0  0  0  0  0
   -6.4500   18.4860  -33.7500 C   0  0  0  0  0  0  0  0  0  0  0  0
   -5.7220   17.6780  -34.7890 C   0  0  2  0  0  0  0  0  0  0  0  0
   -5.4060   16.2360  -34.3970 C   0  0  0  0  0  0  0  0  0  0  0  0
   -4.2810   17.2580  -34.4820 C   0  0  2  0  0  0  0  0  0  0  0  0
   -3.6640   17.6500  -33.1270 C   0  0  0  0  0  0  0  0  0  0  0  0
   -2.8370   18.8010  -33.2790 O   0  0  0  0  0  0  0  0  0  0  0  0
   -2.5180   19.6680  -32.2280 C   0  0  0  0  0  0  0  0  0  0  0  0
   -3.2670   20.8350  -32.0510 C   0  0  0  0  0  0  0  0  0  0  0  0
   -2.9560   21.7140  -31.0010 C   0  0  0  0  0  0  0  0  0  0  0  0
   -3.7440   22.9560  -30.7960 C   0  0  0  0  0  0  0  0  0  0  0  0
   -3.1130   24.1570  -30.4320 C   0  0  0  0  0  0  0  0  0  0  0  0
   -3.8430   25.2890  -30.2530 N   0  0  0  0  0  0  0  0  0  0  0  0
   -5.1910   25.3110  -30.4090 C   0  0  0  0  0  0  0  0  0  0  0  0
   -5.8160   26.3900  -30.2330 O   0  0  0  0  0  0  0  0  0  0  0  0
   -5.8770   24.1370  -30.7640 C   0  0  0  0  0  0  0  0  0  0  0  0
   -7.3680   24.1420  -30.9520 C   0  0  0  0  0  0  0  0  0  0  0  0
   -5.1400   22.9600  -30.9630 C   0  0  0  0  0  0  0  0  0  0  0  0
   -1.8880   21.3950  -30.1460 C   0  0  0  0  0  0  0  0  0  0  0  0
   -1.1550   20.2200  -30.3570 C   0  0  0  0  0  0  0  0  0  0  0  0
   -0.0280   19.8570  -29.4440 C   0  0  0  0  0  0  0  0  0  0  0  0
   -1.4880   19.3920  -31.3820 N   0  0  0  0  0  0  0  0  0  0  0  0
   -7.2850   17.8710  -32.8680 N   0  0  0  0  0  0  0  0  0  0  0  0
   -7.9870   18.5690  -31.9360 C   0  0  0  0  0  0  0  0  0  0  0  0
   -9.9510   22.1651  -30.3370 H   0  0  0  0  0  0  0  0  0  0  0  0
   -9.0541   22.5309  -31.8497 H   0  0  0  0  0  0  0  0  0  0  0  0
  -10.3423   21.2791  -31.8497 H   0  0  0  0  0  0  0  0  0  0  0  0
   -6.9368   21.7120  -32.7541 H   0  0  0  0  0  0  0  0  0  0  0  0
   -5.6790   20.3886  -34.4594 H   0  0  0  0  0  0  0  0  0  0  0  0
   -6.2117   18.1806  -35.6361 H   0  0  0  0  0  0  0  0  0  0  0  0
   -5.7251   15.8508  -33.4173 H   0  0  0  0  0  0  0  0  0  0  0  0
   -5.5946   15.2503  -34.8474 H   0  0  0  0  0  0  0  0  0  0  0  0
   -3.3319   17.3638  -35.0279 H   0  0  0  0  0  0  0  0  0  0  0  0
   -4.4693   17.8727  -32.4115 H   0  0  0  0  0  0  0  0  0  0  0  0
   -3.0527   16.8145  -32.7550 H   0  0  0  0  0  0  0  0  0  0  0  0
   -4.0988   21.0644  -32.7333 H   0  0  0  0  0  0  0  0  0  0  0  0
   -2.0223   24.1812  -30.2911 H   0  0  0  0  0  0  0  0  0  0  0  0
   -7.8615   24.1437  -29.9689 H   0  0  0  0  0  0  0  0  0  0  0  0
   -7.6639   25.0411  -31.5123 H   0  0  0  0  0  0  0  0  0  0  0  0
   -7.6699   23.2449  -31.5123 H   0  0  0  0  0  0  0  0  0  0  0  0
   -5.6581   22.0336  -31.2518 H   0  0  0  0  0  0  0  0  0  0  0  0
   -1.6282   22.0656  -29.3136 H   0  0  0  0  0  0  0  0  0  0  0  0
   -0.3544   19.9621  -28.3988 H   0  0  0  0  0  0  0  0  0  0  0  0
    0.2744   18.8160  -29.6307 H   0  0  0  0  0  0  0  0  0  0  0  0
    0.8251   20.5258  -29.6307 H   0  0  0  0  0  0  0  0  0  0  0  0
   -8.6448   18.0373  -31.2327 H   0  0  0  0  0  0  0  0  0  0  0  0
  1  2  1  0
  2  3  1  0
  3  4  2  0
  4  5  1  0
  5  6  2  0
  6  7  1  0
  7  8  1  0
  8  9  1  0
  9 10  1  0
 10 11  1  0
 11 12  1  0
 12 13  2  0
 13 14  1  0
 14 15  1  0
 15 16  2  0
 16 17  1  0
 17 18  1  0
 18 19  2  0
 18 20  1  0
 20 21  1  0
 20 22  2  0
 14 23  2  0
 23 24  1  0
 24 25  1  0
 24 26  2  0
  6 27  1  0
 27 28  2  0
 28  3  1  0
  9  7  1  0
 26 12  1  0
 22 15  1  0
  1 29  1  0
  1 30  1  0
  1 31  1  0
  4 32  1  0
  5 33  1  0
  7 34  1  6
  8 35  1  0
  8 36  1  0
  9 37  1  6
 10 38  1  0
 10 39  1  0
 13 40  1  0
 16 41  1  0
 21 42  1  0
 21 43  1  0
 21 44  1  0
 22 45  1  0
 23 46  1  0
 25 47  1  0
 25 48  1  0
 25 49  1  0
 28 50  1  0
M  CHG  1  17  -1
M  END
>  <UniqueID>  (10) 
9

>  <SMILES>  (10) 
COc1ccc([C@@H]2C[C@@H]2COc2cc(-c3c[n-]c(=O)c(C)c3)cc(C)n2)nc1

>  <Energy>  (10) 
323.7755052385738

>  <Genealogy>  (10) 
COc1ccc(C2CC2COc2cc(-c3c[n-]c(=O)c(C)c3)cc(C)n2)nc1 (protonated)
COc1ccc([C@@H]2C[C@@H]2COc2cc(-c3c[n-]c(=O)c(C)c3)cc(C)n2)nc1 (chirality)
COc1ccc([C@@H]2C[C@@H]2COc2cc(-c3c[n-]c(=O)c(C)c3)cc(C)n2)nc1 (3D coordinates assigned)
COc1ccc([C@@H]2C[C@@H]2COc2cc(-c3c[n-]c(=O)c(C)c3)cc(C)n2)nc1 (nonaromatic ring conformer: 323.7755052385738 kcal/mol)

>  <smiles>  (10) 
COc1ccc(C2CC2COc2cc(-c3c[nH]c(=O)c(C)c3)cc(C)n2)nc1

>  <score_type>  (10) 
oracle

>  <origin>  (10) 
adgpu

>  <m_score__min__energy>  (10) 
-10.24

>  <m_primary>  (10) 
energy

$$$$
10:0
     RDKit          3D

 46 49  0  0  0  0  0  0  0  0999 V2000
   -6.2354   24.3361  -28.6418 H   0  0  0  0  0  0  0  0  0  0  0  0
   -5.6000   23.6820  -29.2570 C   0  0  0  0  0  0  0  0  0  0  0  0
   -4.1430   23.8710  -29.1870 C   0  0  0  0  0  0  0  0  0  0  0  0
   -3.3250   23.0940  -28.4560 N   0  0  0  0  0  0  0  0  0  0  0  0
   -2.0960   23.5710  -28.7500 C   0  0  0  0  0  0  0  0  0  0  0  0
   -1.0470   23.1010  -28.2390 O   0  0  0  0  0  0  0  0  0  0  0  0
   -2.0780   24.5840  -29.6420 N   0  0  0  0  0  0  0  0  0  0  0  0
   -3.3810   24.7540  -29.9190 C   0  0  0  0  0  0  0  0  0  0  0  0
   -3.8580   25.6710  -30.8470 O   0  0  0  0  0  0  0  0  0  0  0  0
   -6.2020   22.7610  -30.0250 C   0  0  0  0  0  0  0  0  0  0  0  0
   -7.5670   22.5010  -30.0770 C   0  0  0  0  0  0  0  0  0  0  0  0
   -8.3308   23.0100  -29.4707 H   0  0  0  0  0  0  0  0  0  0  0  0
   -7.8160   21.5280  -30.9850 N   0  0  0  0  0  0  0  0  0  0  0  0
   -6.6560   21.1770  -31.5160 N   0  0  0  0  0  0  0  0  0  0  0  0
   -6.3930   20.2580  -32.4920 C   0  0  0  0  0  0  0  0  0  0  0  0
   -7.3090   19.5210  -33.0610 N   0  0  0  0  0  0  0  0  0  0  0  0
   -8.7540   19.5100  -32.8400 C   0  0  0  0  0  0  0  0  0  0  0  0
   -9.2553   19.1541  -33.7521 H   0  0  0  0  0  0  0  0  0  0  0  0
   -9.0806   20.5318  -32.5965 H   0  0  0  0  0  0  0  0  0  0  0  0
   -9.1190   18.5910  -31.6780 C   0  0  0  0  0  0  0  0  0  0  0  0
   -8.9152   19.1042  -30.7266 H   0  0  0  0  0  0  0  0  0  0  0  0
  -10.1872   18.3347  -31.7348 H   0  0  0  0  0  0  0  0  0  0  0  0
   -8.5178   17.6716  -31.7348 H   0  0  0  0  0  0  0  0  0  0  0  0
   -5.0980   20.1080  -32.8880 N   0  0  0  0  0  0  0  0  0  0  0  0
   -4.0940   20.8580  -32.3390 C   0  0  0  0  0  0  0  0  0  0  0  0
   -2.7300   20.6890  -32.7770 N   0  0  0  0  0  0  0  0  0  0  0  0
   -2.3430   19.5180  -33.5790 C   0  0  0  0  0  0  0  0  0  0  0  0
   -2.0039   18.7226  -32.8990 H   0  0  0  0  0  0  0  0  0  0  0  0
   -3.2238   19.2087  -34.1608 H   0  0  0  0  0  0  0  0  0  0  0  0
   -1.2060   19.8290  -34.5830 C   0  0  0  0  0  0  0  0  0  0  0  0
   -0.4802   19.0030  -34.5520 H   0  0  0  0  0  0  0  0  0  0  0  0
   -1.6737   19.9412  -35.5723 H   0  0  0  0  0  0  0  0  0  0  0  0
   -0.4870   21.0940  -34.2990 N   0  0  0  0  0  0  0  0  0  0  0  0
   -1.0380   21.8900  -34.7000 H   0  0  0  0  0  0  0  0  0  0  0  0
    0.8280   21.0950  -34.9640 C   0  0  0  0  0  0  0  0  0  0  0  0
    1.6232   21.0956  -34.2040 H   0  0  0  0  0  0  0  0  0  0  0  0
    0.9219   20.1969  -35.5922 H   0  0  0  0  0  0  0  0  0  0  0  0
    0.9205   21.9932  -35.5922 H   0  0  0  0  0  0  0  0  0  0  0  0
   -0.3270   21.3030  -32.8490 C   0  0  0  0  0  0  0  0  0  0  0  0
    0.1164   20.4040  -32.3960 H   0  0  0  0  0  0  0  0  0  0  0  0
    0.3323   22.1660  -32.6743 H   0  0  0  0  0  0  0  0  0  0  0  0
   -1.6950   21.5710  -32.2160 C   0  0  0  0  0  0  0  0  0  0  0  0
   -1.6273   21.3983  -31.1318 H   0  0  0  0  0  0  0  0  0  0  0  0
   -1.9762   22.6128  -32.4294 H   0  0  0  0  0  0  0  0  0  0  0  0
   -4.3890   21.7700  -31.3690 N   0  0  0  0  0  0  0  0  0  0  0  0
   -5.6730   21.8960  -30.9640 C   0  0  0  0  0  0  0  0  0  0  0  0
  1  2  1  0
  2  3  1  0
  3  4  1  0
  4  5  1  0
  5  6  2  0
  5  7  1  0
  7  8  1  0
  8  9  1  0
  2 10  2  3
 10 11  1  0
 11 12  1  0
 11 13  2  0
 13 14  1  0
 14 15  1  0
 15 16  2  0
 16 17  1  0
 17 18  1  0
 17 19  1  0
 17 20  1  0
 20 21  1  0
 20 22  1  0
 20 23  1  0
 15 24  1  0
 24 25  2  0
 25 26  1  0
 26 27  1  0
 27 28  1  0
 27 29  1  0
 27 30  1  0
 30 31  1  0
 30 32  1  0
 30 33  1  0
 33 34  1  0
 33 35  1  0
 35 36  1  0
 35 37  1  0
 35 38  1  0
 33 39  1  0
 39 40  1  0
 39 41  1  0
 39 42  1  0
 42 43  1  0
 42 44  1  0
 25 45  1  0
 45 46  2  0
  8  3  2  0
 46 10  1  0
 46 14  1  0
 42 26  1  0
M  CHG  4   4  -1   7  -1   9  -1  33   1
M  END
>  <UniqueID>  (11) 
10

>  <SMILES>  (11) 
CC/N=c1/nc(N2CC[NH+](C)CC2)nc2c(=Cc3[n-]c(=O)[n-]c3[O-])cnn12

>  <Energy>  (11) 
130.4420703959836

>  <Genealogy>  (11) 
CCN=c1nc(N2CC[NH+](C)CC2)nc2c(=Cc3[n-]c(=O)[n-]c3[O-])cnn12 (protonated)
CC/N=c1/nc(N2CC[NH+](C)CC2)nc2c(=Cc3[n-]c(=O)[n-]c3[O-])cnn12 (cis-trans isomerization)
CC/N=c1/nc(N2CC[NH+](C)CC2)nc2c(=Cc3[n-]c(=O)[n-]c3[O-])cnn12 (3D coordinates assigned)
CC/N=c1/nc(N2CC[NH+](C)CC2)nc2c(=Cc3[n-]c(=O)[n-]c3[O-])cnn12 (nonaromatic ring conformer: 130.4420703959836 kcal/mol)

>  <smiles>  (11) 
CCN=c1nc(N2CCN(C)CC2)nc2c(=Cc3[nH]c(=O)[nH]c3O)cnn12

>  <score_type>  (11) 
oracle

>  <origin>  (11) 
adgpu

>  <m_score__min__energy>  (11) 
-11.960000000000001

>  <m_primary>  (11) 
energy

$$$$
11:0
     RDKit          3D

 37 40  0  0  0  0  0  0  0  0999 V2000
   -1.3640   24.7910  -29.1910 O   0  0  0  0  0  0  0  0  0  0  0  0
   -2.4670   24.3950  -29.6510 C   0  0  0  0  0  0  0  0  0  0  0  0
   -3.4910   25.2980  -30.0630 N   0  0  0  0  0  0  0  0  0  0  0  0
   -4.5390   24.4390  -30.4850 C   0  0  0  0  0  0  0  0  0  0  0  0
   -5.7730   24.8500  -30.9780 C   0  0  0  0  0  0  0  0  0  0  0  0
   -6.7090   23.8710  -31.3510 C   0  0  0  0  0  0  0  0  0  0  0  0
   -6.4030   22.4920  -31.2240 C   0  0  0  0  0  0  0  0  0  0  0  0
   -7.3960   21.4620  -31.6200 C   0  0  0  0  0  0  0  0  0  0  0  0
   -8.7670   21.7750  -31.6800 C   0  0  0  0  0  0  0  0  0  0  0  0
   -9.6990   20.8020  -32.0550 C   0  0  0  0  0  0  0  0  0  0  0  0
   -9.2760   19.5100  -32.3740 C   0  0  0  0  0  0  0  0  0  0  0  0
  -10.1820   18.5700  -32.7380 F   0  0  0  0  0  0  0  0  0  0  0  0
   -7.9180   19.1880  -32.3180 C   0  0  0  0  0  0  0  0  0  0  0  0
   -6.9810   20.1560  -31.9440 C   0  0  0  0  0  0  0  0  0  0  0  0
   -5.1410   22.1090  -30.7180 C   0  0  0  0  0  0  0  0  0  0  0  0
   -4.2260   23.1020  -30.3590 C   0  0  0  0  0  0  0  0  0  0  0  0
   -2.8400   22.9390  -29.8120 C   0  0  2  0  0  0  0  0  0  0  0  0
   -2.8530   22.3040  -28.5530 O   0  0  0  0  0  0  0  0  0  0  0  0
   -1.9520   22.1970  -30.8090 C   0  0  0  0  0  0  0  0  0  0  0  0
   -2.4150   21.9190  -32.1150 C   0  0  0  0  0  0  0  0  0  0  0  0
   -1.6290   21.1970  -33.0150 C   0  0  0  0  0  0  0  0  0  0  0  0
   -0.3790   20.7170  -32.6250 C   0  0  0  0  0  0  0  0  0  0  0  0
    0.6040   19.8050  -33.7570 Cl  0  0  0  0  0  0  0  0  0  0  0  0
    0.0810   20.9470  -31.3280 C   0  0  0  0  0  0  0  0  0  0  0  0
   -0.6990   21.6690  -30.4180 C   0  0  0  0  0  0  0  0  0  0  0  0
   -0.2300   21.8280  -29.1540 F   0  0  0  0  0  0  0  0  0  0  0  0
   -6.0111   25.9196  -31.0739 H   0  0  0  0  0  0  0  0  0  0  0  0
   -7.6891   24.1771  -31.7455 H   0  0  0  0  0  0  0  0  0  0  0  0
   -9.1074   22.7908  -31.4305 H   0  0  0  0  0  0  0  0  0  0  0  0
  -10.7686   21.0553  -32.0988 H   0  0  0  0  0  0  0  0  0  0  0  0
   -7.5848   18.1701  -32.5688 H   0  0  0  0  0  0  0  0  0  0  0  0
   -5.9130   19.8957  -31.9026 H   0  0  0  0  0  0  0  0  0  0  0  0
   -4.8826   21.0454  -30.6083 H   0  0  0  0  0  0  0  0  0  0  0  0
   -2.2860   22.8330  -27.9290 H   0  0  0  0  0  0  0  0  0  0  0  0
   -3.4077   22.2762  -32.4265 H   0  0  0  0  0  0  0  0  0  0  0  0
   -1.9965   21.0063  -34.0341 H   0  0  0  0  0  0  0  0  0  0  0  0
    1.0626   20.5584  -31.0190 H   0  0  0  0  0  0  0  0  0  0  0  0
  1  2  2  0
  2  3  1  0
  3  4  1  0
  4  5  2  0
  5  6  1  0
  6  7  2  0
  7  8  1  0
  8  9  2  0
  9 10  1  0
 10 11  2  0
 11 12  1  0
 11 13  1  0
 13 14  2  0
  7 15  1  0
 15 16  2  0
 16 17  1  0
 17 18  1  1
 17 19  1  0
 19 20  2  0
 20 21  1  0
 21 22  2  0
 22 23  1  0
 22 24  1  0
 24 25  2  0
 25 26  1  0
 17  2  1  0
 25 19  1  0
 16  4  1  0
 14  8  1  0
  5 27  1  0
  6 28  1  0
  9 29  1  0
 10 30  1  0
 13 31  1  0
 14 32  1  0
 15 33  1  0
 18 34  1  0
 20 35  1  0
 21 36  1  0
 24 37  1  0
M  CHG  1   3  -1
M  END
>  <UniqueID>  (12) 
11

>  <SMILES>  (12) 
O=C1[N-]c2ccc(-c3ccc(F)cc3)cc2[C@@]1(O)c1ccc(Cl)cc1F

>  <Energy>  (12) 
70.83073444650192

>  <Genealogy>  (12) 
O=C1[N-]c2ccc(-c3ccc(F)cc3)cc2C1(O)c1ccc(Cl)cc1F (protonated)
O=C1[N-]c2ccc(-c3ccc(F)cc3)cc2[C@@]1(O)c1ccc(Cl)cc1F (chirality)
O=C1[N-]c2ccc(-c3ccc(F)cc3)cc2[C@@]1(O)c1ccc(Cl)cc1F (3D coordinates assigned)
O=C1[N-]c2ccc(-c3ccc(F)cc3)cc2[C@@]1(O)c1ccc(Cl)cc1F (nonaromatic ring conformer: 70.83073444650192 kcal/mol)

>  <smiles>  (12) 
O=C1Nc2ccc(-c3ccc(F)cc3)cc2C1(O)c1ccc(Cl)cc1F

>  <score_type>  (12) 
oracle

>  <origin>  (12) 
adgpu

>  <m_score__min__energy>  (12) 
-10.029999999999999

>  <m_primary>  (12) 
energy

$$$$
12:0
     RDKit          3D

 42 45  0  0  0  0  0  0  0  0999 V2000
   -9.3430   23.4340  -32.3210 C   0  0  0  0  0  0  0  0  0  0  0  0
   -8.1050   22.6480  -32.0410 C   0  0  0  0  0  0  0  0  0  0  0  0
   -8.0380   21.3390  -32.3950 N   0  0  0  0  0  0  0  0  0  0  0  0
   -6.9090   20.6110  -32.1900 C   0  0  0  0  0  0  0  0  0  0  0  0
   -6.8880   19.1830  -32.5710 C   0  0  0  0  0  0  0  0  0  0  0  0
   -7.8680   18.2380  -32.2910 C   0  0  0  0  0  0  0  0  0  0  0  0
   -9.1490   18.4780  -31.5600 C   0  0  0  0  0  0  0  0  0  0  0  0
   -7.5120   17.0330  -32.7960 N   0  0  0  0  0  0  0  0  0  0  0  0
   -6.3180   17.2750  -33.3740 C   0  0  0  0  0  0  0  0  0  0  0  0
   -5.5420   16.3380  -34.0600 C   0  0  0  0  0  0  0  0  0  0  0  0
   -6.0470   14.6640  -34.2110 Cl  0  0  0  0  0  0  0  0  0  0  0  0
   -4.3420   16.7810  -34.6390 C   0  0  0  0  0  0  0  0  0  0  0  0
   -3.9580   18.1300  -34.5320 C   0  0  0  0  0  0  0  0  0  0  0  0
   -4.7750   19.0280  -33.8340 C   0  0  0  0  0  0  0  0  0  0  0  0
   -5.9170   18.5560  -33.2620 N   0  0  0  0  0  0  0  0  0  0  0  0
   -5.8000   21.2150  -31.5880 C   0  0  0  0  0  0  0  0  0  0  0  0
   -5.8730   22.5740  -31.2370 C   0  0  0  0  0  0  0  0  0  0  0  0
   -4.7560   23.2600  -30.6280 N   0  0  0  0  0  0  0  0  0  0  0  0
   -3.3910   23.0920  -31.1460 C   0  0  0  0  0  0  0  0  0  0  0  0
   -2.3650   23.3650  -30.0420 C   0  0  0  0  0  0  0  0  0  0  0  0
   -2.6200   24.6050  -29.4110 O   0  0  0  0  0  0  0  0  0  0  0  0
   -3.8550   24.5400  -28.7270 C   0  0  0  0  0  0  0  0  0  0  0  0
   -5.0150   24.3800  -29.7130 C   0  0  0  0  0  0  0  0  0  0  0  0
   -7.0250   23.2550  -31.4850 N   0  0  0  0  0  0  0  0  0  0  0  0
   -9.8113   23.7313  -31.3711 H   0  0  0  0  0  0  0  0  0  0  0  0
   -9.0836   24.3332  -32.8991 H   0  0  0  0  0  0  0  0  0  0  0  0
  -10.0464   22.8167  -32.8991 H   0  0  0  0  0  0  0  0  0  0  0  0
   -8.9647   18.4435  -30.4761 H   0  0  0  0  0  0  0  0  0  0  0  0
   -9.5473   19.4664  -31.8329 H   0  0  0  0  0  0  0  0  0  0  0  0
   -9.8781   17.7008  -31.8329 H   0  0  0  0  0  0  0  0  0  0  0  0
   -3.6993   16.0699  -35.1787 H   0  0  0  0  0  0  0  0  0  0  0  0
   -3.0219   18.4773  -34.9937 H   0  0  0  0  0  0  0  0  0  0  0  0
   -4.5006   20.0899  -33.7498 H   0  0  0  0  0  0  0  0  0  0  0  0
   -4.8856   20.6356  -31.3925 H   0  0  0  0  0  0  0  0  0  0  0  0
   -3.2658   22.0618  -31.5108 H   0  0  0  0  0  0  0  0  0  0  0  0
   -3.2302   23.8055  -31.9677 H   0  0  0  0  0  0  0  0  0  0  0  0
   -2.4200   22.5616  -29.2926 H   0  0  0  0  0  0  0  0  0  0  0  0
   -1.3630   23.4006  -30.4945 H   0  0  0  0  0  0  0  0  0  0  0  0
   -3.8429   23.6795  -28.0418 H   0  0  0  0  0  0  0  0  0  0  0  0
   -3.9964   25.4751  -28.1651 H   0  0  0  0  0  0  0  0  0  0  0  0
   -5.9421   24.1849  -29.1540 H   0  0  0  0  0  0  0  0  0  0  0  0
   -5.1161   25.3051  -30.2995 H   0  0  0  0  0  0  0  0  0  0  0  0
  1  2  1  0
  2  3  2  0
  3  4  1  0
  4  5  1  0
  5  6  2  0
  6  7  1  0
  6  8  1  0
  8  9  2  0
  9 10  1  0
 10 11  1  0
 10 12  2  0
 12 13  1  0
 13 14  2  0
 14 15  1  0
  4 16  2  0
 16 17  1  0
 17 18  1  0
 18 19  1  0
 19 20  1  0
 20 21  1  0
 21 22  1  0
 22 23  1  0
 17 24  2  0
 24  2  1  0
 15  5  1  0
 23 18  1  0
 15  9  1  0
  1 25  1  0
  1 26  1  0
  1 27  1  0
  7 28  1  0
  7 29  1  0
  7 30  1  0
 12 31  1  0
 13 32  1  0
 14 33  1  0
 16 34  1  0
 19 35  1  0
 19 36  1  0
 20 37  1  0
 20 38  1  0
 22 39  1  0
 22 40  1  0
 23 41  1  0
 23 42  1  0
M  END
>  <UniqueID>  (13) 
12

>  <SMILES>  (13) 
Cc1nc(-c2c(C)nc3c(Cl)cccn23)cc(N2CCOCC2)n1

>  <Energy>  (13) 
87.12982531413513

>  <Genealogy>  (13) 
Cc1nc(-c2c(C)nc3c(Cl)cccn23)cc(N2CCOCC2)n1 (3D coordinates assigned)
Cc1nc(-c2c(C)nc3c(Cl)cccn23)cc(N2CCOCC2)n1 (nonaromatic ring conformer: 87.12982531413513 kcal/mol)

>  <smiles>  (13) 
Cc1nc(-c2c(C)nc3c(Cl)cccn23)cc(N2CCOCC2)n1

>  <score_type>  (13) 
oracle

>  <origin>  (13) 
adgpu

>  <m_score__min__energy>  (13) 
-8.4199999999999999

>  <m_primary>  (13) 
energy

$$$$
13:0
     RDKit          3D

 63 67  0  0  0  0  0  0  0  0999 V2000
   -8.3334   23.9646  -32.0319 H   0  0  0  0  0  0  0  0  0  0  0  0
   -8.0590   22.9000  -31.9940 C   0  0  0  0  0  0  0  0  0  0  0  0
   -8.8200   22.0110  -31.2360 C   0  0  0  0  0  0  0  0  0  0  0  0
   -9.6869   22.3777  -30.6667 H   0  0  0  0  0  0  0  0  0  0  0  0
   -8.4840   20.6560  -31.1980 C   0  0  0  0  0  0  0  0  0  0  0  0
   -9.0904   19.9599  -30.6000 H   0  0  0  0  0  0  0  0  0  0  0  0
   -7.3770   20.1750  -31.9180 C   0  0  0  0  0  0  0  0  0  0  0  0
   -7.0650   18.7680  -31.8990 N   0  0  0  0  0  0  0  0  0  0  0  0
   -5.7590   18.3140  -31.3980 C   0  0  0  0  0  0  0  0  0  0  0  0
   -5.0021   19.0781  -31.6287 H   0  0  0  0  0  0  0  0  0  0  0  0
   -5.8399   18.1595  -30.3119 H   0  0  0  0  0  0  0  0  0  0  0  0
   -5.3400   16.9830  -32.0460 C   0  0  0  0  0  0  0  0  0  0  0  0
   -4.2503   16.8675  -31.9503 H   0  0  0  0  0  0  0  0  0  0  0  0
   -5.8699   16.1689  -31.5298 H   0  0  0  0  0  0  0  0  0  0  0  0
   -5.7190   16.9310  -33.5420 C   0  0  0  0  0  0  0  0  0  0  0  0
   -5.4928   15.9147  -33.8970 H   0  0  0  0  0  0  0  0  0  0  0  0
   -4.8760   17.9180  -34.3640 C   0  0  0  0  0  0  0  0  0  0  0  0
   -4.3145   18.5755  -33.6840 H   0  0  0  0  0  0  0  0  0  0  0  0
   -4.1720   17.3593  -34.9983 H   0  0  0  0  0  0  0  0  0  0  0  0
   -5.5379   18.5259  -34.9983 H   0  0  0  0  0  0  0  0  0  0  0  0
   -7.2400   17.1640  -33.7680 C   0  0  0  0  0  0  0  0  0  0  0  0
   -7.3653   17.8271  -34.6366 H   0  0  0  0  0  0  0  0  0  0  0  0
   -7.6984   16.1768  -33.9271 H   0  0  0  0  0  0  0  0  0  0  0  0
   -7.9480   17.8020  -32.5630 C   0  0  0  0  0  0  0  0  0  0  0  0
   -8.8552   18.3192  -32.9086 H   0  0  0  0  0  0  0  0  0  0  0  0
   -8.2119   17.0106  -31.8460 H   0  0  0  0  0  0  0  0  0  0  0  0
   -6.5940   21.0840  -32.6630 C   0  0  0  0  0  0  0  0  0  0  0  0
   -5.4310   20.6500  -33.3760 N   0  0  0  0  0  0  0  0  0  0  0  0
   -4.1750   20.8060  -33.0410 C   0  0  0  0  0  0  0  0  0  0  0  0
   -3.7480   21.4650  -31.8530 C   0  0  0  0  0  0  0  0  0  0  0  0
   -4.6040   21.9450  -30.9980 N   0  0  0  0  0  0  0  0  0  0  0  0
   -4.2660   22.6040  -29.7660 C   0  0  0  0  0  0  0  0  0  0  0  0
   -4.6390   23.9490  -29.5170 C   0  0  0  0  0  0  0  0  0  0  0  0
   -5.3810   24.7900  -30.5230 C   0  0  0  0  0  0  0  0  0  0  0  0
   -6.0197   25.5139  -29.9958 H   0  0  0  0  0  0  0  0  0  0  0  0
   -4.6590   25.3292  -31.1538 H   0  0  0  0  0  0  0  0  0  0  0  0
   -6.0060   24.1408  -31.1538 H   0  0  0  0  0  0  0  0  0  0  0  0
   -4.2890   24.5450  -28.2960 C   0  0  0  0  0  0  0  0  0  0  0  0
   -4.6004   25.5789  -28.0862 H   0  0  0  0  0  0  0  0  0  0  0  0
   -3.5510   23.8410  -27.3460 C   0  0  0  0  0  0  0  0  0  0  0  0
   -3.2862   24.3196  -26.3916 H   0  0  0  0  0  0  0  0  0  0  0  0
   -3.1480   22.5320  -27.6030 C   0  0  0  0  0  0  0  0  0  0  0  0
   -2.5461   21.9895  -26.8591 H   0  0  0  0  0  0  0  0  0  0  0  0
   -3.5050   21.9020  -28.8040 C   0  0  0  0  0  0  0  0  0  0  0  0
   -3.0410   20.4950  -29.0690 C   0  0  0  0  0  0  0  0  0  0  0  0
   -2.8708   19.9788  -28.1127 H   0  0  0  0  0  0  0  0  0  0  0  0
   -3.8095   19.9576  -29.6440 H   0  0  0  0  0  0  0  0  0  0  0  0
   -2.1036   20.5202  -29.6440 H   0  0  0  0  0  0  0  0  0  0  0  0
   -2.4120   21.5980  -31.6170 N   0  0  0  0  0  0  0  0  0  0  0  0
   -1.4790   21.1140  -32.4710 C   0  0  0  0  0  0  0  0  0  0  0  0
   -0.1160   21.2680  -32.1950 C   0  0  0  0  0  0  0  0  0  0  0  0
    0.2053   21.7795  -31.2757 H   0  0  0  0  0  0  0  0  0  0  0  0
    0.8370   20.7710  -33.0890 C   0  0  0  0  0  0  0  0  0  0  0  0
    1.9087   20.8934  -32.8732 H   0  0  0  0  0  0  0  0  0  0  0  0
    0.4300   20.1180  -34.2580 C   0  0  0  0  0  0  0  0  0  0  0  0
    1.1826   19.7281  -34.9591 H   0  0  0  0  0  0  0  0  0  0  0  0
   -0.9320   19.9600  -34.5370 C   0  0  0  0  0  0  0  0  0  0  0  0
   -1.2491   19.4465  -35.4566 H   0  0  0  0  0  0  0  0  0  0  0  0
   -1.8940   20.4570  -33.6430 C   0  0  0  0  0  0  0  0  0  0  0  0
   -3.2260   20.3170  -33.8930 N   0  0  0  0  0  0  0  0  0  0  0  0
   -3.5330   19.8310  -34.7660 H   0  0  0  0  0  0  0  0  0  0  0  0
   -6.9490   22.4400  -32.7050 C   0  0  0  0  0  0  0  0  0  0  0  0
   -6.3502   23.1445  -33.3009 H   0  0  0  0  0  0  0  0  0  0  0  0
  1  2  1  0
  2  3  2  0
  3  4  1  0
  3  5  1  0
  5  6  1  0
  5  7  2  0
  7  8  1  0
  8  9  1  0
  9 10  1  0
  9 11  1  0
  9 12  1  0
 12 13  1  0
 12 14  1  0
 12 15  1  0
 15 16  1  0
 15 17  1  0
 17 18  1  0
 17 19  1  0
 17 20  1  0
 15 21  1  0
 21 22  1  0
 21 23  1  0
 21 24  1  0
 24 25  1  0
 24 26  1  0
  7 27  1  0
 27 28  1  0
 28 29  2  0
 29 30  1  0
 30 31  2  0
 31 32  1  0
 32 33  2  0
 33 34  1  0
 34 35  1  0
 34 36  1  0
 34 37  1  0
 33 38  1  0
 38 39  1  0
 38 40  2  0
 40 41  1  0
 40 42  1  0
 42 43  1  0
 42 44  2  0
 44 45  1  0
 45 46  1  0
 45 47  1  0
 45 48  1  0
 30 49  1  0
 49 50  1  0
 50 51  2  0
 51 52  1  0
 51 53  1  0
 53 54  1  0
 53 55  2  0
 55 56  1  0
 55 57  1  0
 57 58  1  0
 57 59  2  0
 59 60  1  0
 60 61  1  0
 27 62  2  0
 62 63  1  0
 62  2  1  0
 24  8  1  0
 60 29  1  0
 44 32  1  0
 59 50  1  0
M  CHG  1  49  -1
M  END
>  <UniqueID>  (14) 
13

>  <SMILES>  (14) 
Cc1cccc(C)c1/N=c1\[n-]c2ccccc2[nH]\c1=N\c1ccccc1N1CCC(C)CC1

>  <Energy>  (14) 
96.99466459670072

>  <Genealogy>  (14) 
Cc1cccc(C)c1N=c1[n-]c2ccccc2[nH]c1=Nc1ccccc1N1CCC(C)CC1 (protonated)
Cc1cccc(C)c1/N=c1\[n-]c2ccccc2[nH]\c1=N\c1ccccc1N1CCC(C)CC1 (cis-trans isomerization)
Cc1cccc(C)c1/N=c1\[n-]c2ccccc2[nH]\c1=N\c1ccccc1N1CCC(C)CC1 (3D coordinates assigned)
Cc1cccc(C)c1/N=c1\[n-]c2ccccc2[nH]\c1=N\c1ccccc1N1CCC(C)CC1 (nonaromatic ring conformer: 96.99466459670072 kcal/mol)

>  <smiles>  (14) 
Cc1cccc(C)c1N=c1[nH]c2ccccc2[nH]c1=Nc1ccccc1N1CCC(C)CC1

>  <score_type>  (14) 
oracle

>  <origin>  (14) 
adgpu

>  <m_score__min__energy>  (14) 
-10.06

>  <m_primary>  (14) 
energy

$$$$
14:0
     RDKit          3D

 30 31  0  0  0  0  0  0  0  0999 V2000
   -9.6190   21.3010  -31.9610 C   0  0  0  0  0  0  0  0  0  0  0  0
   -8.2440   21.8950  -31.8980 C   0  0  0  0  0  0  0  0  0  0  0  0
   -8.0310   22.9770  -31.0980 N   0  0  0  0  0  0  0  0  0  0  0  0
   -6.8130   23.5680  -30.9900 C   0  0  0  0  0  0  0  0  0  0  0  0
   -5.7270   23.0620  -31.7020 C   0  0  0  0  0  0  0  0  0  0  0  0
   -5.9060   21.9510  -32.5260 C   0  0  0  0  0  0  0  0  0  0  0  0
   -7.1740   21.3570  -32.6450 C   0  0  0  0  0  0  0  0  0  0  0  0
   -7.3590   20.1870  -33.4630 N   0  0  0  0  0  0  0  0  0  0  0  0
   -6.7550   18.9110  -33.1920 C   0  0  0  0  0  0  0  0  0  0  0  0
   -6.1230   18.2110  -34.2230 C   0  0  0  0  0  0  0  0  0  0  0  0
   -5.5150   16.9840  -33.9660 C   0  0  0  0  0  0  0  0  0  0  0  0
   -5.5290   16.4610  -32.6650 C   0  0  0  0  0  0  0  0  0  0  0  0
   -4.8650   15.1440  -32.3790 C   0  0  0  0  0  0  0  0  0  0  0  0
   -6.1250   17.1680  -31.6550 N   0  0  0  0  0  0  0  0  0  0  0  0
   -6.1120   16.6600  -30.3710 O   0  0  0  0  0  0  0  0  0  0  0  0
   -6.7250   18.3700  -31.8950 C   0  0  0  0  0  0  0  0  0  0  0  0
   -9.9953   21.1384  -30.9402 H   0  0  0  0  0  0  0  0  0  0  0  0
  -10.2915   21.9889  -32.4945 H   0  0  0  0  0  0  0  0  0  0  0  0
   -9.5791   20.3399  -32.4945 H   0  0  0  0  0  0  0  0  0  0  0  0
   -6.6836   24.4462  -30.3404 H   0  0  0  0  0  0  0  0  0  0  0  0
   -4.7375   23.5346  -31.6149 H   0  0  0  0  0  0  0  0  0  0  0  0
   -5.0525   21.5387  -33.0841 H   0  0  0  0  0  0  0  0  0  0  0  0
   -7.9930   20.2610  -34.2910 H   0  0  0  0  0  0  0  0  0  0  0  0
   -6.1054   18.6297  -35.2401 H   0  0  0  0  0  0  0  0  0  0  0  0
   -5.0263   16.4282  -34.7798 H   0  0  0  0  0  0  0  0  0  0  0  0
   -4.7918   14.9989  -31.2911 H   0  0  0  0  0  0  0  0  0  0  0  0
   -5.4605   14.3301  -32.8183 H   0  0  0  0  0  0  0  0  0  0  0  0
   -3.8565   15.1388  -32.8183 H   0  0  0  0  0  0  0  0  0  0  0  0
   -5.4520   15.9450  -30.0890 H   0  0  0  0  0  0  0  0  0  0  0  0
   -7.1901   18.9214  -31.0646 H   0  0  0  0  0  0  0  0  0  0  0  0
  1  2  1  0
  2  3  2  0
  3  4  1  0
  4  5  2  0
  5  6  1  0
  6  7  2  0
  7  8  1  0
  8  9  1  0
  9 10  2  0
 10 11  1  0
 11 12  2  0
 12 13  1  0
 12 14  1  0
 14 15  1  0
 14 16  2  0
  7  2  1  0
 16  9  1  0
  1 17  1  0
  1 18  1  0
  1 19  1  0
  4 20  1  0
  5 21  1  0
  6 22  1  0
  8 23  1  0
 10 24  1  0
 11 25  1  0
 13 26  1  0
 13 27  1  0
 13 28  1  0
 15 29  1  0
 16 30  1  0
M  CHG  1  14   1
M  END
>  <UniqueID>  (15) 
14

>  <SMILES>  (15) 
Cc1ncccc1Nc1ccc(C)[n+](O)c1

>  <Energy>  (15) 
36.174387072523615

>  <Genealogy>  (15) 
Cc1ncccc1Nc1ccc(C)[n+](O)c1 (protonated)
Cc1ncccc1Nc1ccc(C)[n+](O)c1 (3D coordinates assigned)
Cc1ncccc1Nc1ccc(C)[n+](O)c1 (optimized conformer: 36.174387072523615 kcal/mol)

>  <smiles>  (15) 
Cc1ncccc1Nc1ccc(C)[n+]([O-])c1

>  <score_type>  (15) 
oracle

>  <origin>  (15) 
adgpu

>  <m_score__min__energy>  (15) 
-6.7599999999999998

>  <m_primary>  (15) 
energy

$$$$
15:0
     RDKit          3D

 39 40  0  0  0  0  0  0  0  0999 V2000
   -3.2110   24.1450  -27.8880 C   0  0  0  0  0  0  0  0  0  0  0  0
   -2.9190   24.4520  -29.3630 C   0  0  0  0  0  0  0  0  0  0  0  0
   -4.1100   24.4190  -30.2390 N   0  0  0  0  0  0  0  0  0  0  0  0
   -5.3430   24.8970  -29.5770 C   0  0  0  0  0  0  0  0  0  0  0  0
   -6.5770   24.5210  -30.4040 C   0  0  0  0  0  0  0  0  0  0  0  0
   -6.7290   23.0500  -30.4980 N   0  0  0  0  0  0  0  0  0  0  0  0
   -7.7320   22.6320  -31.8690 S   0  0  0  0  0  0  0  0  0  0  0  0
   -9.1510   23.0490  -31.5940 O   0  0  0  0  0  0  0  0  0  0  0  0
   -7.2580   23.3790  -33.0860 O   0  0  0  0  0  0  0  0  0  0  0  0
   -7.6960   20.8990  -32.2050 C   0  0  0  0  0  0  0  0  0  0  0  0
   -8.6630   20.0520  -31.6460 C   0  0  0  0  0  0  0  0  0  0  0  0
   -8.6140   18.6770  -31.8810 C   0  0  0  0  0  0  0  0  0  0  0  0
   -7.6100   18.1380  -32.6890 C   0  0  0  0  0  0  0  0  0  0  0  0
   -6.6530   18.9760  -33.2880 C   0  0  0  0  0  0  0  0  0  0  0  0
   -5.5380   18.3940  -34.1190 C   0  0  0  0  0  0  0  0  0  0  0  0
   -5.4160   17.0460  -33.8370 F   0  0  0  0  0  0  0  0  0  0  0  0
   -4.3390   19.0240  -33.8340 F   0  0  0  0  0  0  0  0  0  0  0  0
   -5.7980   18.5490  -35.4690 F   0  0  0  0  0  0  0  0  0  0  0  0
   -6.6940   20.3570  -33.0240 C   0  0  0  0  0  0  0  0  0  0  0  0
   -5.4380   22.3100  -30.5240 C   0  0  0  0  0  0  0  0  0  0  0  0
   -4.2660   23.1740  -31.0290 C   0  0  0  0  0  0  0  0  0  0  0  0
   -2.5938   24.7939  -27.2493 H   0  0  0  0  0  0  0  0  0  0  0  0
   -4.2750   24.3295  -27.6787 H   0  0  0  0  0  0  0  0  0  0  0  0
   -2.9735   23.0915  -27.6787 H   0  0  0  0  0  0  0  0  0  0  0  0
   -2.4740   25.4561  -29.4243 H   0  0  0  0  0  0  0  0  0  0  0  0
   -2.2426   23.6619  -29.7212 H   0  0  0  0  0  0  0  0  0  0  0  0
   -5.4208   24.4366  -28.5810 H   0  0  0  0  0  0  0  0  0  0  0  0
   -5.2961   25.9922  -29.4861 H   0  0  0  0  0  0  0  0  0  0  0  0
   -7.4725   24.9448  -29.9259 H   0  0  0  0  0  0  0  0  0  0  0  0
   -6.4528   24.9247  -31.4197 H   0  0  0  0  0  0  0  0  0  0  0  0
   -7.2550   22.7340  -29.6490 H   0  0  0  0  0  0  0  0  0  0  0  0
   -9.4635   20.4726  -31.0197 H   0  0  0  0  0  0  0  0  0  0  0  0
   -9.3680   18.0160  -31.4287 H   0  0  0  0  0  0  0  0  0  0  0  0
   -7.5679   17.0518  -32.8576 H   0  0  0  0  0  0  0  0  0  0  0  0
   -5.9331   21.0185  -33.4639 H   0  0  0  0  0  0  0  0  0  0  0  0
   -5.2084   21.9673  -29.5043 H   0  0  0  0  0  0  0  0  0  0  0  0
   -5.5529   21.4668  -31.2209 H   0  0  0  0  0  0  0  0  0  0  0  0
   -3.3372   22.5892  -30.9564 H   0  0  0  0  0  0  0  0  0  0  0  0
   -4.4785   23.4579  -32.0703 H   0  0  0  0  0  0  0  0  0  0  0  0
  1  2  1  0
  2  3  1  0
  3  4  1  0
  4  5  1  0
  5  6  1  0
  6  7  1  0
  7  8  2  0
  7  9  2  0
  7 10  1  0
 10 11  2  0
 11 12  1  0
 12 13  2  0
 13 14  1  0
 14 15  1  0
 15 16  1  0
 15 17  1  0
 15 18  1  0
 14 19  2  0
  6 20  1  0
 20 21  1  0
 21  3  1  0
 19 10  1  0
  1 22  1  0
  1 23  1  0
  1 24  1  0
  2 25  1  0
  2 26  1  0
  4 27  1  0
  4 28  1  0
  5 29  1  0
  5 30  1  0
  6 31  1  0
 11 32  1  0
 12 33  1  0
 13 34  1  0
 19 35  1  0
 20 36  1  0
 20 37  1  0
 21 38  1  0
 21 39  1  0
M  CHG  1   6   1
M  END
>  <UniqueID>  (16) 
15

>  <SMILES>  (16) 
CCN1CC[NH+](S(=O)(=O)c2cccc(C(F)(F)F)c2)CC1

>  <Energy>  (16) 
49.609570246066795

>  <Genealogy>  (16) 
CCN1CC[NH+](S(=O)(=O)c2cccc(C(F)(F)F)c2)CC1 (protonated)
CCN1CC[NH+](S(=O)(=O)c2cccc(C(F)(F)F)c2)CC1 (3D coordinates assigned)
CCN1CC[NH+](S(=O)(=O)c2cccc(C(F)(F)F)c2)CC1 (nonaromatic ring conformer: 49.609570246066795 kcal/mol)

>  <smiles>  (16) 
CCN1CCN(S(=O)(=O)c2cccc(C(F)(F)F)c2)CC1

>  <score_type>  (16) 
oracle

>  <origin>  (16) 
adgpu

>  <m_score__min__energy>  (16) 
-6.9000000000000004

>  <m_primary>  (16) 
energy

$$$$
16:0
     RDKit          3D

 27 28  0  0  0  0  0  0  0  0999 V2000
   -3.1240   25.6530  -31.5940 H   0  0  0  0  0  0  0  0  0  0  0  0
   -3.4930   25.2980  -30.7240 O   0  0  0  0  0  0  0  0  0  0  0  0
   -4.7070   24.6180  -30.6080 C   0  0  0  0  0  0  0  0  0  0  0  0
   -5.7690   25.2920  -29.9930 C   0  0  0  0  0  0  0  0  0  0  0  0
   -5.6318   26.3290  -29.6526 H   0  0  0  0  0  0  0  0  0  0  0  0
   -6.9980   24.6620  -29.8080 C   0  0  0  0  0  0  0  0  0  0  0  0
   -7.8244   25.2023  -29.3232 H   0  0  0  0  0  0  0  0  0  0  0  0
   -7.1820   23.3490  -30.2360 C   0  0  0  0  0  0  0  0  0  0  0  0
   -8.1512   22.8534  -30.0780 H   0  0  0  0  0  0  0  0  0  0  0  0
   -6.1360   22.6530  -30.8690 C   0  0  0  0  0  0  0  0  0  0  0  0
   -6.3250   21.3060  -31.3270 N   0  0  0  0  0  0  0  0  0  0  0  0
   -6.0370   20.9410  -32.5110 N   0  0  0  0  0  0  0  0  0  0  0  0
   -6.2290   19.5940  -32.9610 C   0  0  0  0  0  0  0  0  0  0  0  0
   -5.5610   19.1620  -34.1150 C   0  0  0  0  0  0  0  0  0  0  0  0
   -4.9017   19.8552  -34.6579 H   0  0  0  0  0  0  0  0  0  0  0  0
   -5.7290   17.8540  -34.5790 C   0  0  0  0  0  0  0  0  0  0  0  0
   -5.2024   17.5213  -35.4856 H   0  0  0  0  0  0  0  0  0  0  0  0
   -6.5650   16.9680  -33.8930 C   0  0  0  0  0  0  0  0  0  0  0  0
   -6.6947   15.9387  -34.2587 H   0  0  0  0  0  0  0  0  0  0  0  0
   -7.2360   17.3910  -32.7420 C   0  0  0  0  0  0  0  0  0  0  0  0
   -7.8944   16.6938  -32.2031 H   0  0  0  0  0  0  0  0  0  0  0  0
   -7.0720   18.6990  -32.2740 C   0  0  0  0  0  0  0  0  0  0  0  0
   -7.6021   19.0289  -31.3684 H   0  0  0  0  0  0  0  0  0  0  0  0
   -4.8900   23.2890  -31.0690 C   0  0  0  0  0  0  0  0  0  0  0  0
   -3.8360   22.5870  -31.7490 N   0  0  0  0  0  0  0  0  0  0  0  0
   -4.0100   21.6660  -32.2080 H   0  0  0  0  0  0  0  0  0  0  0  0
   -2.8880   22.9940  -31.8870 H   0  0  0  0  0  0  0  0  0  0  0  0
  1  2  1  0
  2  3  1  0
  3  4  2  0
  4  5  1  0
  4  6  1  0
  6  7  1  0
  6  8  2  0
  8  9  1  0
  8 10  1  0
 10 11  1  0
 11 12  2  0
 12 13  1  0
 13 14  2  0
 14 15  1  0
 14 16  1  0
 16 17  1  0
 16 18  2  0
 18 19  1  0
 18 20  1  0
 20 21  1  0
 20 22  2  0
 22 23  1  0
 10 24  2  0
 24 25  1  0
 25 26  1  0
 25 27  1  0
 24  3  1  0
 22 13  1  0
M  END
>  <UniqueID>  (17) 
16

>  <SMILES>  (17) 
Nc1c(O)cccc1/N=N/c1ccccc1

>  <Energy>  (17) 
30.771159191432574

>  <Genealogy>  (17) 
Nc1c(O)cccc1/N=N/c1ccccc1 (cis-trans isomerization)
Nc1c(O)cccc1/N=N/c1ccccc1 (3D coordinates assigned)
Nc1c(O)cccc1/N=N/c1ccccc1 (optimized conformer: 30.771159191432574 kcal/mol)

>  <smiles>  (17) 
Nc1c(O)cccc1N=Nc1ccccc1

>  <score_type>  (17) 
oracle

>  <origin>  (17) 
adgpu

>  <m_score__min__energy>  (17) 
-7.3600000000000003

>  <m_primary>  (17) 
energy

$$$$
17:0
     RDKit          3D

 27 29  0  0  0  0  0  0  0  0999 V2000
   -3.2000   23.2140  -29.8210 O   0  0  0  0  0  0  0  0  0  0  0  0
   -3.0620   24.4580  -29.6890 C   0  0  0  0  0  0  0  0  0  0  0  0
   -3.8600   25.3220  -30.5140 N   0  0  0  0  0  0  0  0  0  0  0  0
   -5.3150   25.3300  -30.6170 C   0  0  0  0  0  0  0  0  0  0  0  0
   -5.8210   23.9920  -31.0630 C   0  0  0  0  0  0  0  0  0  0  0  0
   -7.1170   23.6000  -30.9060 N   0  0  0  0  0  0  0  0  0  0  0  0
   -7.1080   22.3550  -31.4160 C   0  0  0  0  0  0  0  0  0  0  0  0
   -8.1640   21.4590  -31.5300 C   0  0  0  0  0  0  0  0  0  0  0  0
   -7.8830   20.2050  -32.1070 C   0  0  0  0  0  0  0  0  0  0  0  0
   -9.2730   18.9110  -32.3050 Br  0  0  0  0  0  0  0  0  0  0  0  0
   -6.5670   19.9080  -32.5390 C   0  0  0  0  0  0  0  0  0  0  0  0
   -5.5660   20.8300  -32.4000 N   0  0  0  0  0  0  0  0  0  0  0  0
   -5.8620   22.0300  -31.8420 C   0  0  0  0  0  0  0  0  0  0  0  0
   -5.0240   23.0470  -31.6250 N   0  0  0  0  0  0  0  0  0  0  0  0
   -2.0910   24.9670  -28.7000 C   0  0  0  0  0  0  0  0  0  0  0  0
   -1.8550   24.4140  -27.4540 C   0  0  0  0  0  0  0  0  0  0  0  0
   -0.8820   25.1990  -26.8730 C   0  0  0  0  0  0  0  0  0  0  0  0
   -0.5810   26.1790  -27.7960 C   0  0  0  0  0  0  0  0  0  0  0  0
   -1.3150   26.0120  -28.8720 O   0  0  0  0  0  0  0  0  0  0  0  0
   -5.7454   25.5695  -29.6335 H   0  0  0  0  0  0  0  0  0  0  0  0
   -5.6132   26.0862  -31.3581 H   0  0  0  0  0  0  0  0  0  0  0  0
   -9.1758   21.7178  -31.1846 H   0  0  0  0  0  0  0  0  0  0  0  0
   -6.3484   18.9286  -32.9896 H   0  0  0  0  0  0  0  0  0  0  0  0
   -4.0030   23.1000  -31.8410 H   0  0  0  0  0  0  0  0  0  0  0  0
   -2.3430   23.5303  -27.0171 H   0  0  0  0  0  0  0  0  0  0  0  0
   -0.4361   25.0701  -25.8757 H   0  0  0  0  0  0  0  0  0  0  0  0
    0.1608   26.9785  -27.6525 H   0  0  0  0  0  0  0  0  0  0  0  0
  1  2  2  0
  2  3  1  0
  3  4  1  0
  4  5  1  0
  5  6  2  0
  6  7  1  0
  7  8  2  0
  8  9  1  0
  9 10  1  0
  9 11  2  0
 11 12  1  0
 12 13  2  0
 13 14  1  0
  2 15  1  0
 15 16  2  0
 16 17  1  0
 17 18  2  0
 18 19  1  0
 14  5  1  0
 19 15  1  0
 13  7  1  0
  4 20  1  0
  4 21  1  0
  8 22  1  0
 11 23  1  0
 14 24  1  0
 16 25  1  0
 17 26  1  0
 18 27  1  0
M  CHG  1   3  -1
M  END
>  <UniqueID>  (18) 
17

>  <SMILES>  (18) 
O=C([N-]Cc1nc2cc(Br)cnc2[nH]1)c1ccco1

>  <Energy>  (18) 
91.56665512238231

>  <Genealogy>  (18) 
O=C([N-]Cc1nc2cc(Br)cnc2[nH]1)c1ccco1 (protonated)
O=C([N-]Cc1nc2cc(Br)cnc2[nH]1)c1ccco1 (3D coordinates assigned)
O=C([N-]Cc1nc2cc(Br)cnc2[nH]1)c1ccco1 (optimized conformer: 91.56665512238231 kcal/mol)

>  <smiles>  (18) 
O=C(NCc1nc2cc(Br)cnc2[nH]1)c1ccco1

>  <score_type>  (18) 
oracle

>  <origin>  (18) 
adgpu

>  <m_score__min__energy>  (18) 
-9.0500000000000007

>  <m_primary>  (18) 
energy

$$$$
18:0
     RDKit          3D

 50 53  0  0  1  0  0  0  0  0999 V2000
   -2.6720   21.1630  -32.3320 C   0  0  0  0  0  0  0  0  0  0  0  0
   -3.1730   22.1110  -31.3040 C   0  0  0  0  0  0  0  0  0  0  0  0
   -2.4920   22.3970  -30.1550 C   0  0  0  0  0  0  0  0  0  0  0  0
   -3.0560   23.2930  -29.2750 C   0  0  0  0  0  0  0  0  0  0  0  0
   -2.4340   23.6620  -28.0500 N   0  0  0  0  0  0  0  0  0  0  0  0
   -1.8000   24.7580  -27.8710 C   0  0  0  0  0  0  0  0  0  0  0  0
   -1.1980   25.1040  -26.6660 C   0  0  0  0  0  0  0  0  0  0  0  0
   -0.6360   26.3580  -26.9300 C   0  0  0  0  0  0  0  0  0  0  0  0
    0.1200   27.1140  -25.8950 C   0  0  0  0  0  0  0  0  0  0  0  0
    1.2960   26.4550  -25.6180 F   0  0  0  0  0  0  0  0  0  0  0  0
   -0.5920   27.2080  -24.7080 F   0  0  0  0  0  0  0  0  0  0  0  0
    0.3580   28.4060  -26.3200 F   0  0  0  0  0  0  0  0  0  0  0  0
   -0.9100   26.6870  -28.2020 N   0  0  0  0  0  0  0  0  0  0  0  0
   -1.6220   25.7120  -28.7840 N   0  0  0  0  0  0  0  0  0  0  0  0
   -4.2560   23.8690  -29.5560 N   0  0  0  0  0  0  0  0  0  0  0  0
   -4.9100   23.5700  -30.6990 C   0  0  0  0  0  0  0  0  0  0  0  0
   -6.0570   24.1010  -31.0010 N   0  0  0  0  0  0  0  0  0  0  0  0
   -6.6870   23.7230  -32.2480 C   0  0  0  0  0  0  0  0  0  0  0  0
   -7.4350   22.4420  -32.1600 C   0  0  0  0  0  0  0  0  0  0  0  0
   -8.7980   22.4240  -31.9550 C   0  0  0  0  0  0  0  0  0  0  0  0
   -9.5150   21.2310  -31.8710 C   0  0  0  0  0  0  0  0  0  0  0  0
   -8.8410   20.0290  -31.9950 C   0  0  0  0  0  0  0  0  0  0  0  0
   -7.4570   20.0460  -32.2030 C   0  0  0  0  0  0  0  0  0  0  0  0
   -6.8160   18.7820  -32.3230 N   0  0  0  0  0  0  0  0  0  0  0  0
   -6.7240   17.8770  -31.3150 C   0  0  0  0  0  0  0  0  0  0  0  0
   -6.0340   16.8050  -31.8470 C   0  0  0  0  0  0  0  0  0  0  0  0
   -5.7340   17.0700  -33.1130 N   0  0  0  0  0  0  0  0  0  0  0  0
   -6.2190   18.3050  -33.4150 C   0  0  0  0  0  0  0  0  0  0  0  0
   -6.0740   18.9400  -34.7490 C   0  0  0  0  0  0  0  0  0  0  0  0
   -6.7850   21.2360  -32.2810 C   0  0  0  0  0  0  0  0  0  0  0  0
   -4.3640   22.7020  -31.5530 N   0  0  0  0  0  0  0  0  0  0  0  0
   -2.2130   20.2944  -31.8371 H   0  0  0  0  0  0  0  0  0  0  0  0
   -3.5101   20.8266  -32.9601 H   0  0  0  0  0  0  0  0  0  0  0  0
   -1.9219   21.6659  -32.9601 H   0  0  0  0  0  0  0  0  0  0  0  0
   -1.5219   21.9255  -29.9393 H   0  0  0  0  0  0  0  0  0  0  0  0
   -1.1703   24.5289  -25.7287 H   0  0  0  0  0  0  0  0  0  0  0  0
   -0.6160   27.5700  -28.6740 H   0  0  0  0  0  0  0  0  0  0  0  0
   -1.9850   25.6740  -29.7630 H   0  0  0  0  0  0  0  0  0  0  0  0
   -4.7140   24.5460  -28.9230 H   0  0  0  0  0  0  0  0  0  0  0  0
   -7.3884   24.5182  -32.5407 H   0  0  0  0  0  0  0  0  0  0  0  0
   -5.8870   23.5846  -32.9902 H   0  0  0  0  0  0  0  0  0  0  0  0
   -9.3356   23.3784  -31.8548 H   0  0  0  0  0  0  0  0  0  0  0  0
  -10.6028   21.2453  -31.7082 H   0  0  0  0  0  0  0  0  0  0  0  0
   -9.3845   19.0748  -31.9311 H   0  0  0  0  0  0  0  0  0  0  0  0
   -7.1157   17.9763  -30.2919 H   0  0  0  0  0  0  0  0  0  0  0  0
   -5.7750   15.8813  -31.3088 H   0  0  0  0  0  0  0  0  0  0  0  0
   -5.8307   20.0054  -34.6235 H   0  0  0  0  0  0  0  0  0  0  0  0
   -5.2663   18.4426  -35.3060 H   0  0  0  0  0  0  0  0  0  0  0  0
   -7.0175   18.8425  -35.3060 H   0  0  0  0  0  0  0  0  0  0  0  0
   -5.6973   21.2275  -32.4446 H   0  0  0  0  0  0  0  0  0  0  0  0
  1  2  1  0
  2  3  1  0
  3  4  2  0
  4  5  1  0
  5  6  2  0
  6  7  1  0
  7  8  2  0
  8  9  1  0
  9 10  1  0
  9 11  1  0
  9 12  1  0
  8 13  1  0
 13 14  1  0
  4 15  1  0
 15 16  1  0
 16 17  2  0
 17 18  1  0
 18 19  1  0
 19 20  2  0
 20 21  1  0
 21 22  2  0
 22 23  1  0
 23 24  1  0
 24 25  1  0
 25 26  2  0
 26 27  1  0
 27 28  2  0
 28 29  1  0
 23 30  2  0
 16 31  1  0
 31  2  2  0
 14  6  1  0
 30 19  1  0
 28 24  1  0
  1 32  1  0
  1 33  1  0
  1 34  1  0
  3 35  1  0
  7 36  1  0
 13 37  1  0
 14 38  1  0
 15 39  1  0
 18 40  1  0
 18 41  1  0
 20 42  1  0
 21 43  1  0
 22 44  1  0
 25 45  1  0
 26 46  1  0
 29 47  1  0
 29 48  1  0
 29 49  1  0
 30 50  1  0
M  END
>  <smiles>  (19) 
Cc1cc(N=c2cc(C(F)(F)F)[nH][nH]2)[nH]c(=NCc2cccc(-n3ccnc3C)c2)n1

>  <score_type>  (19) 
oracle

>  <origin>  (19) 
adgpu

>  <m_score__min__energy>  (19) 
-9.5199999999999996

>  <m_primary>  (19) 
energy

$$$$
19:0
     RDKit          3D

 34 37  0  0  0  0  0  0  0  0999 V2000
   -4.2330   24.5490  -27.0150 C   0  0  0  0  0  0  0  0  0  0  0  0
   -2.9480   24.1140  -27.6730 C   0  0  0  0  0  0  0  0  0  0  0  0
   -1.7880   24.0350  -26.8830 C   0  0  0  0  0  0  0  0  0  0  0  0
   -0.5720   23.6380  -27.4400 C   0  0  0  0  0  0  0  0  0  0  0  0
   -0.4950   23.3160  -28.7910 C   0  0  0  0  0  0  0  0  0  0  0  0
   -1.6350   23.3870  -29.5940 C   0  0  0  0  0  0  0  0  0  0  0  0
   -2.8750   23.7850  -29.0560 C   0  0  0  0  0  0  0  0  0  0  0  0
   -4.0520   23.8420  -29.9660 C   0  0  0  0  0  0  0  0  0  0  0  0
   -4.2850   24.8480  -30.8340 N   0  0  0  0  0  0  0  0  0  0  0  0
   -5.4110   24.5540  -31.4630 N   0  0  0  0  0  0  0  0  0  0  0  0
   -5.8280   23.3790  -30.9580 C   0  0  0  0  0  0  0  0  0  0  0  0
   -7.0530   22.6880  -31.3870 C   0  0  0  0  0  0  0  0  0  0  0  0
   -8.2920   23.2830  -31.6130 C   0  0  0  0  0  0  0  0  0  0  0  0
   -9.1980   22.3560  -31.9970 N   0  0  0  0  0  0  0  0  0  0  0  0
   -8.5450   21.1810  -32.0140 C   0  0  0  0  0  0  0  0  0  0  0  0
   -9.0670   19.9330  -32.3490 C   0  0  0  0  0  0  0  0  0  0  0  0
   -8.2030   18.8250  -32.3020 C   0  0  0  0  0  0  0  0  0  0  0  0
   -6.8520   18.9860  -31.9260 C   0  0  0  0  0  0  0  0  0  0  0  0
   -6.3510   20.2580  -31.5920 C   0  0  0  0  0  0  0  0  0  0  0  0
   -7.2310   21.3410  -31.6480 C   0  0  0  0  0  0  0  0  0  0  0  0
   -5.0010   22.9380  -30.0420 O   0  0  0  0  0  0  0  0  0  0  0  0
   -4.1168   24.5097  -25.9219 H   0  0  0  0  0  0  0  0  0  0  0  0
   -4.4718   25.5781  -27.3215 H   0  0  0  0  0  0  0  0  0  0  0  0
   -5.0478   23.8766  -27.3215 H   0  0  0  0  0  0  0  0  0  0  0  0
   -1.8396   24.2890  -25.8140 H   0  0  0  0  0  0  0  0  0  0  0  0
    0.3275   23.5795  -26.8096 H   0  0  0  0  0  0  0  0  0  0  0  0
    0.4656   23.0049  -29.2275 H   0  0  0  0  0  0  0  0  0  0  0  0
   -1.5642   23.1288  -30.6609 H   0  0  0  0  0  0  0  0  0  0  0  0
   -8.5035   24.3561  -31.4956 H   0  0  0  0  0  0  0  0  0  0  0  0
  -10.2020   22.5230  -32.2300 H   0  0  0  0  0  0  0  0  0  0  0  0
  -10.1214   19.8186  -32.6409 H   0  0  0  0  0  0  0  0  0  0  0  0
   -8.5825   17.8253  -32.5601 H   0  0  0  0  0  0  0  0  0  0  0  0
   -6.1861   18.1111  -31.8938 H   0  0  0  0  0  0  0  0  0  0  0  0
   -5.3003   20.3948  -31.2964 H   0  0  0  0  0  0  0  0  0  0  0  0
  1  2  1  0
  2  3  2  0
  3  4  1  0
  4  5  2  0
  5  6  1  0
  6  7  2  0
  7  8  1  0
  8  9  2  0
  9 10  1  0
 10 11  2  0
 11 12  1  0
 12 13  2  0
 13 14  1  0
 14 15  1  0
 15 16  2  0
 16 17  1  0
 17 18  2  0
 18 19  1  0
 19 20  2  0
 11 21  1  0
  7  2  1  0
 21  8  1  0
 20 12  1  0
 20 15  1  0
  1 22  1  0
  1 23  1  0
  1 24  1  0
  3 25  1  0
  4 26  1  0
  5 27  1  0
  6 28  1  0
 13 29  1  0
 14 30  1  0
 16 31  1  0
 17 32  1  0
 18 33  1  0
 19 34  1  0
M  END
>  <UniqueID>  (20) 
18

>  <SMILES>  (20) 
Cc1ccccc1-c1nnc(-c2c[nH]c3ccccc23)o1

>  <Energy>  (20) 
108.3934650678303

>  <Genealogy>  (20) 
Cc1ccccc1-c1nnc(-c2c[nH]c3ccccc23)o1 (3D coordinates assigned)
Cc1ccccc1-c1nnc(-c2c[nH]c3ccccc23)o1 (optimized conformer: 108.3934650678303 kcal/mol)

>  <smiles>  (20) 
Cc1ccccc1-c1nnc(-c2c[nH]c3ccccc23)o1

>  <score_type>  (20) 
oracle

>  <origin>  (20) 
adgpu

>  <m_score__min__energy>  (20) 
-8.3399999999999999

>  <m_primary>  (20) 
energy

$$$$
20:0
     RDKit          3D

 38 40  0  0  0  0  0  0  0  0999 V2000
   -1.4500   23.6100  -29.8510 O   0  0  0  0  0  0  0  0  0  0  0  0
   -1.9790   24.5540  -29.2100 C   0  0  0  0  0  0  0  0  0  0  0  0
   -3.2000   25.1170  -29.7100 N   0  0  0  0  0  0  0  0  0  0  0  0
   -4.2130   24.4180  -30.4450 C   0  0  0  0  0  0  0  0  0  0  0  0
   -5.5430   24.8700  -30.4780 C   0  0  0  0  0  0  0  0  0  0  0  0
   -6.5110   24.1470  -31.1790 C   0  0  0  0  0  0  0  0  0  0  0  0
   -6.1570   22.9820  -31.8650 C   0  0  0  0  0  0  0  0  0  0  0  0
   -4.8280   22.5440  -31.8690 C   0  0  0  0  0  0  0  0  0  0  0  0
   -4.3980   21.0670  -32.7240 S   0  0  0  0  0  0  0  0  0  0  0  0
   -3.3270   21.3790  -33.7310 O   0  0  0  0  0  0  0  0  0  0  0  0
   -3.8800   20.0260  -31.7700 O   0  0  0  0  0  0  0  0  0  0  0  0
   -5.7910   20.4420  -33.5470 N   0  0  0  0  0  0  0  0  0  0  0  0
   -6.9170   19.8200  -32.9100 C   0  0  0  0  0  0  0  0  0  0  0  0
   -8.0430   20.5640  -32.5050 C   0  0  0  0  0  0  0  0  0  0  0  0
   -9.1240   19.9260  -31.8900 C   0  0  0  0  0  0  0  0  0  0  0  0
   -9.0980   18.5470  -31.6790 C   0  0  0  0  0  0  0  0  0  0  0  0
   -7.9840   17.8020  -32.0740 C   0  0  0  0  0  0  0  0  0  0  0  0
   -6.8960   18.4320  -32.6870 C   0  0  0  0  0  0  0  0  0  0  0  0
   -5.5140   17.4640  -33.1790 Cl  0  0  0  0  0  0  0  0  0  0  0  0
   -3.8570   23.2740  -31.1700 C   0  0  0  0  0  0  0  0  0  0  0  0
   -1.4030   24.9850  -27.9120 C   0  0  0  0  0  0  0  0  0  0  0  0
   -0.0720   25.2680  -27.8570 N   0  0  0  0  0  0  0  0  0  0  0  0
    0.5480   25.6590  -26.7130 C   0  0  0  0  0  0  0  0  0  0  0  0
    2.1550   25.9520  -26.7260 S   0  0  0  0  0  0  0  0  0  0  0  0
   -0.1880   25.7950  -25.5350 C   0  0  0  0  0  0  0  0  0  0  0  0
   -1.5560   25.5240  -25.5550 C   0  0  0  0  0  0  0  0  0  0  0  0
   -2.1790   25.1120  -26.7380 C   0  0  0  0  0  0  0  0  0  0  0  0
   -3.8950   24.7170  -26.6770 Cl  0  0  0  0  0  0  0  0  0  0  0  0
   -5.8223   25.7944  -29.9512 H   0  0  0  0  0  0  0  0  0  0  0  0
   -7.5543   24.4954  -31.1911 H   0  0  0  0  0  0  0  0  0  0  0  0
   -6.9253   22.4077  -32.4034 H   0  0  0  0  0  0  0  0  0  0  0  0
   -8.0714   21.6507  -32.6734 H   0  0  0  0  0  0  0  0  0  0  0  0
   -9.9980   20.5130  -31.5713 H   0  0  0  0  0  0  0  0  0  0  0  0
   -9.9538   18.0468  -31.2021 H   0  0  0  0  0  0  0  0  0  0  0  0
   -7.9625   16.7157  -31.9022 H   0  0  0  0  0  0  0  0  0  0  0  0
   -2.8073   22.9458  -31.1910 H   0  0  0  0  0  0  0  0  0  0  0  0
    0.3041   26.1116  -24.6035 H   0  0  0  0  0  0  0  0  0  0  0  0
   -2.1487   25.6349  -24.6350 H   0  0  0  0  0  0  0  0  0  0  0  0
  1  2  2  0
  2  3  1  0
  3  4  1  0
  4  5  2  0
  5  6  1  0
  6  7  2  0
  7  8  1  0
  8  9  1  0
  9 10  2  0
  9 11  2  0
  9 12  1  0
 12 13  1  0
 13 14  2  0
 14 15  1  0
 15 16  2  0
 16 17  1  0
 17 18  2  0
 18 19  1  0
  8 20  2  0
  2 21  1  0
 21 22  1  0
 22 23  1  0
 23 24  2  0
 23 25  1  0
 25 26  2  0
 26 27  1  0
 27 28  1  0
 20  4  1  0
 27 21  2  0
 18 13  1  0
  5 29  1  0
  6 30  1  0
  7 31  1  0
 14 32  1  0
 15 33  1  0
 16 34  1  0
 17 35  1  0
 20 36  1  0
 25 37  1  0
 26 38  1  0
M  CHG  3   3  -1  12  -1  22  -1
M  END
>  <UniqueID>  (21) 
19

>  <SMILES>  (21) 
O=C([N-]c1cccc(S(=O)(=O)[N-]c2ccccc2Cl)c1)c1[n-]c(=S)ccc1Cl

>  <Energy>  (21) 
52.02636668608195

>  <Genealogy>  (21) 
O=C([N-]c1cccc(S(=O)(=O)[N-]c2ccccc2Cl)c1)c1[n-]c(=S)ccc1Cl (protonated)
O=C([N-]c1cccc(S(=O)(=O)[N-]c2ccccc2Cl)c1)c1[n-]c(=S)ccc1Cl (3D coordinates assigned)
O=C([N-]c1cccc(S(=O)(=O)[N-]c2ccccc2Cl)c1)c1[n-]c(=S)ccc1Cl (optimized conformer: 52.02636668608195 kcal/mol)

>  <smiles>  (21) 
O=C(Nc1cccc(S(=O)(=O)Nc2ccccc2Cl)c1)c1[nH]c(=S)ccc1Cl

>  <score_type>  (21) 
oracle

>  <origin>  (21) 
adgpu

>  <m_score__min__energy>  (21) 
-12.300000000000001

>  <m_primary>  (21) 
energy

$$$$
21:0
     RDKit          3D

 39 40  0  0  0  0  0  0  0  0999 V2000
   -0.7780   22.7750  -29.3700 C   0  0  0  0  0  0  0  0  0  0  0  0
   -1.0160   23.5760  -28.1180 C   0  0  0  0  0  0  0  0  0  0  0  0
   -0.4570   23.1330  -26.9080 C   0  0  0  0  0  0  0  0  0  0  0  0
   -0.6560   23.8570  -25.7300 C   0  0  0  0  0  0  0  0  0  0  0  0
   -1.3960   25.0400  -25.7510 C   0  0  0  0  0  0  0  0  0  0  0  0
   -1.9450   25.4990  -26.9490 C   0  0  0  0  0  0  0  0  0  0  0  0
   -1.7520   24.7820  -28.1380 C   0  0  0  0  0  0  0  0  0  0  0  0
   -2.3590   25.2630  -29.3420 N   0  0  0  0  0  0  0  0  0  0  0  0
   -3.6760   24.9060  -29.7730 C   0  0  0  0  0  0  0  0  0  0  0  0
   -4.2390   25.6050  -30.6570 O   0  0  0  0  0  0  0  0  0  0  0  0
   -4.3950   23.7090  -29.2140 C   0  0  0  0  0  0  0  0  0  0  0  0
   -4.7870   22.7800  -30.2900 N   0  0  0  0  0  0  0  0  0  0  0  0
   -3.6990   22.6260  -31.2680 C   0  0  0  0  0  0  0  0  0  0  0  0
   -6.2000   23.4030  -31.1080 S   0  0  0  0  0  0  0  0  0  0  0  0
   -5.7880   24.1590  -32.3430 O   0  0  0  0  0  0  0  0  0  0  0  0
   -6.9500   24.3440  -30.2060 O   0  0  0  0  0  0  0  0  0  0  0  0
   -7.2560   22.0770  -31.5890 C   0  0  0  0  0  0  0  0  0  0  0  0
   -6.7080   20.8570  -32.0110 C   0  0  0  0  0  0  0  0  0  0  0  0
   -7.5430   19.8090  -32.4060 C   0  0  0  0  0  0  0  0  0  0  0  0
   -8.9320   19.9670  -32.3670 C   0  0  0  0  0  0  0  0  0  0  0  0
   -9.4850   21.1780  -31.9400 C   0  0  0  0  0  0  0  0  0  0  0  0
   -8.6510   22.2330  -31.5590 C   0  0  0  0  0  0  0  0  0  0  0  0
   -0.4743   21.7530  -29.0993 H   0  0  0  0  0  0  0  0  0  0  0  0
   -1.7038   22.7375  -29.9628 H   0  0  0  0  0  0  0  0  0  0  0  0
    0.0181   23.2491  -29.9628 H   0  0  0  0  0  0  0  0  0  0  0  0
    0.1413   22.2101  -26.8879 H   0  0  0  0  0  0  0  0  0  0  0  0
   -0.2285   23.4938  -24.7838 H   0  0  0  0  0  0  0  0  0  0  0  0
   -1.5466   25.6109  -24.8229 H   0  0  0  0  0  0  0  0  0  0  0  0
   -2.5326   26.4288  -26.9604 H   0  0  0  0  0  0  0  0  0  0  0  0
   -3.7303   23.1857  -28.5109 H   0  0  0  0  0  0  0  0  0  0  0  0
   -5.3040   24.0540  -28.6995 H   0  0  0  0  0  0  0  0  0  0  0  0
   -2.7451   22.4910  -30.7371 H   0  0  0  0  0  0  0  0  0  0  0  0
   -3.8950   21.7466  -31.8991 H   0  0  0  0  0  0  0  0  0  0  0  0
   -3.6433   23.5252  -31.8991 H   0  0  0  0  0  0  0  0  0  0  0  0
   -5.6162   20.7247  -32.0311 H   0  0  0  0  0  0  0  0  0  0  0  0
   -7.1075   18.8585  -32.7480 H   0  0  0  0  0  0  0  0  0  0  0  0
   -9.5889   19.1391  -32.6720 H   0  0  0  0  0  0  0  0  0  0  0  0
  -10.5775   21.3007  -31.9038 H   0  0  0  0  0  0  0  0  0  0  0  0
   -9.0890   23.1885  -31.2346 H   0  0  0  0  0  0  0  0  0  0  0  0
  1  2  1  0
  2  3  2  0
  3  4  1  0
  4  5  2  0
  5  6  1  0
  6  7  2  0
  7  8  1  0
  8  9  1  0
  9 10  2  0
  9 11  1  0
 11 12  1  0
 12 13  1  0
 12 14  1  0
 14 15  2  0
 14 16  2  0
 14 17  1  0
 17 18  2  0
 18 19  1  0
 19 20  2  0
 20 21  1  0
 21 22  2  0
  7  2  1  0
 22 17  1  0
  1 23  1  0
  1 24  1  0
  1 25  1  0
  3 26  1  0
  4 27  1  0
  5 28  1  0
  6 29  1  0
 11 30  1  0
 11 31  1  0
 13 32  1  0
 13 33  1  0
 13 34  1  0
 18 35  1  0
 19 36  1  0
 20 37  1  0
 21 38  1  0
 22 39  1  0
M  CHG  1   8  -1
M  END
>  <UniqueID>  (22) 
20

>  <SMILES>  (22) 
Cc1ccccc1[N-]C(=O)CN(C)S(=O)(=O)c1ccccc1

>  <Energy>  (22) 
40.00346611202402

>  <Genealogy>  (22) 
Cc1ccccc1[N-]C(=O)CN(C)S(=O)(=O)c1ccccc1 (protonated)
Cc1ccccc1[N-]C(=O)CN(C)S(=O)(=O)c1ccccc1 (3D coordinates assigned)
Cc1ccccc1[N-]C(=O)CN(C)S(=O)(=O)c1ccccc1 (optimized conformer: 40.00346611202402 kcal/mol)

>  <smiles>  (22) 
Cc1ccccc1NC(=O)CN(C)S(=O)(=O)c1ccccc1

>  <score_type>  (22) 
oracle

>  <origin>  (22) 
adgpu

>  <m_score__min__energy>  (22) 
-10.199999999999999

>  <m_primary>  (22) 
energy

$$$$
22:0
     RDKit          3D

 27 27  0  0  0  0  0  0  0  0999 V2000
   -6.7970   17.4490  -33.8570 C   0  0  0  0  0  0  0  0  0  0  0  0
   -6.8980   18.5380  -32.8310 C   0  0  0  0  0  0  0  0  0  0  0  0
   -6.9540   18.2320  -31.5680 N   0  0  0  0  0  0  0  0  0  0  0  0
   -7.0930   19.8940  -33.2700 N   0  0  0  0  0  0  0  0  0  0  0  0
   -6.6510   21.0530  -32.5430 C   0  0  0  0  0  0  0  0  0  0  0  0
   -5.2770   21.2830  -32.3850 C   0  0  0  0  0  0  0  0  0  0  0  0
   -4.8220   22.3890  -31.6590 C   0  0  0  0  0  0  0  0  0  0  0  0
   -5.7370   23.2730  -31.0750 C   0  0  0  0  0  0  0  0  0  0  0  0
   -5.1650   24.6540  -30.1450 S   0  0  0  0  0  0  0  0  0  0  0  0
   -4.6490   24.1090  -28.5340 C   0  0  0  0  0  0  0  0  0  0  0  0
   -6.2680   25.6650  -30.0040 O   0  0  0  0  0  0  0  0  0  0  0  0
   -4.0070   25.2990  -30.8530 O   0  0  0  0  0  0  0  0  0  0  0  0
   -7.1110   23.0310  -31.2030 C   0  0  0  0  0  0  0  0  0  0  0  0
   -7.5670   21.9260  -31.9290 C   0  0  0  0  0  0  0  0  0  0  0  0
   -6.7068   16.4762  -33.3515 H   0  0  0  0  0  0  0  0  0  0  0  0
   -7.6994   17.4530  -34.4860 H   0  0  0  0  0  0  0  0  0  0  0  0
   -5.9108   17.6189  -34.4860 H   0  0  0  0  0  0  0  0  0  0  0  0
   -7.1220   18.9590  -30.8400 H   0  0  0  0  0  0  0  0  0  0  0  0
   -6.8650   17.2400  -31.2520 H   0  0  0  0  0  0  0  0  0  0  0  0
   -7.5730   20.0420  -34.1870 H   0  0  0  0  0  0  0  0  0  0  0  0
   -4.5517   20.5891  -32.8350 H   0  0  0  0  0  0  0  0  0  0  0  0
   -3.7419   22.5645  -31.5467 H   0  0  0  0  0  0  0  0  0  0  0  0
   -5.1889   24.6792  -27.7637 H   0  0  0  0  0  0  0  0  0  0  0  0
   -4.8716   23.0377  -28.4206 H   0  0  0  0  0  0  0  0  0  0  0  0
   -3.5672   24.2727  -28.4206 H   0  0  0  0  0  0  0  0  0  0  0  0
   -7.8338   23.7126  -30.7308 H   0  0  0  0  0  0  0  0  0  0  0  0
   -8.6471   21.7388  -32.0202 H   0  0  0  0  0  0  0  0  0  0  0  0
  1  2  1  0
  2  3  2  0
  2  4  1  0
  4  5  1  0
  5  6  2  0
  6  7  1  0
  7  8  2  0
  8  9  1  0
  9 10  1  0
  9 11  2  0
  9 12  2  0
  8 13  1  0
 13 14  2  0
 14  5  1  0
  1 15  1  0
  1 16  1  0
  1 17  1  0
  3 18  1  0
  3 19  1  0
  4 20  1  0
  6 21  1  0
  7 22  1  0
 10 23  1  0
 10 24  1  0
 10 25  1  0
 13 26  1  0
 14 27  1  0
M  CHG  1   3   1
M  END
>  <UniqueID>  (23) 
21

>  <SMILES>  (23) 
CC(=[NH2+])Nc1ccc(S(C)(=O)=O)cc1

>  <Energy>  (23) 
24.706268822679714

>  <Genealogy>  (23) 
CC(=[NH2+])Nc1ccc(S(C)(=O)=O)cc1 (protonated)
CC(=[NH2+])Nc1ccc(S(C)(=O)=O)cc1 (3D coordinates assigned)
CC(=[NH2+])Nc1ccc(S(C)(=O)=O)cc1 (optimized conformer: 24.706268822679714 kcal/mol)

>  <smiles>  (23) 
CC(=N)Nc1ccc(S(C)(=O)=O)cc1

>  <score_type>  (23) 
oracle

>  <origin>  (23) 
adgpu

>  <m_score__min__energy>  (23) 
-6.3099999999999996

>  <m_primary>  (23) 
energy

$$$$
23:0
     RDKit          3D

 43 45  0  0  0  0  0  0  0  0999 V2000
   -5.1590   17.8000  -35.2710 C   0  0  0  0  0  0  0  0  0  0  0  0
   -4.8190   16.8500  -34.2030 N   0  0  0  0  0  0  0  0  0  0  0  0
   -3.6120   17.2960  -33.4960 C   0  0  0  0  0  0  0  0  0  0  0  0
   -6.1510   16.7200  -33.0810 S   0  0  0  0  0  0  0  0  0  0  0  0
   -5.6780   16.0480  -31.8210 O   0  0  0  0  0  0  0  0  0  0  0  0
   -7.2320   15.8660  -33.6840 O   0  0  0  0  0  0  0  0  0  0  0  0
   -6.8190   18.3040  -32.6770 C   0  0  0  0  0  0  0  0  0  0  0  0
   -8.2030   18.5150  -32.7210 C   0  0  0  0  0  0  0  0  0  0  0  0
   -8.7300   19.7750  -32.4270 C   0  0  0  0  0  0  0  0  0  0  0  0
   -7.8790   20.8270  -32.0790 C   0  0  0  0  0  0  0  0  0  0  0  0
   -6.4920   20.6250  -32.0070 C   0  0  0  0  0  0  0  0  0  0  0  0
   -5.6360   21.7300  -31.6720 N   0  0  0  0  0  0  0  0  0  0  0  0
   -5.8820   22.6360  -30.5840 C   0  0  0  0  0  0  0  0  0  0  0  0
   -7.0090   22.6630  -30.0190 O   0  0  0  0  0  0  0  0  0  0  0  0
   -4.8330   23.5690  -30.1440 C   0  0  0  0  0  0  0  0  0  0  0  0
   -4.0950   23.4730  -28.9820 C   0  0  0  0  0  0  0  0  0  0  0  0
   -3.2500   24.5690  -29.0300 C   0  0  0  0  0  0  0  0  0  0  0  0
   -2.2320   24.9560  -28.0240 C   0  0  0  0  0  0  0  0  0  0  0  0
   -2.5720   24.9880  -26.6580 C   0  0  0  0  0  0  0  0  0  0  0  0
   -1.6220   25.3510  -25.6980 C   0  0  0  0  0  0  0  0  0  0  0  0
   -0.3240   25.6880  -26.0880 C   0  0  0  0  0  0  0  0  0  0  0  0
    0.0270   25.6600  -27.4390 C   0  0  0  0  0  0  0  0  0  0  0  0
   -0.9180   25.2970  -28.4040 C   0  0  0  0  0  0  0  0  0  0  0  0
   -3.4870   25.2640  -30.1610 N   0  0  0  0  0  0  0  0  0  0  0  0
   -4.4490   24.6560  -30.8390 N   0  0  0  0  0  0  0  0  0  0  0  0
   -5.9670   19.3600  -32.3260 C   0  0  0  0  0  0  0  0  0  0  0  0
   -5.4979   18.7468  -34.8253 H   0  0  0  0  0  0  0  0  0  0  0  0
   -4.2712   17.9848  -35.8936 H   0  0  0  0  0  0  0  0  0  0  0  0
   -5.9625   17.3796  -35.8936 H   0  0  0  0  0  0  0  0  0  0  0  0
   -3.7790   17.2343  -32.4105 H   0  0  0  0  0  0  0  0  0  0  0  0
   -2.7650   16.6515  -33.7739 H   0  0  0  0  0  0  0  0  0  0  0  0
   -3.3876   18.3364  -33.7739 H   0  0  0  0  0  0  0  0  0  0  0  0
   -8.8763   17.6870  -32.9876 H   0  0  0  0  0  0  0  0  0  0  0  0
   -9.8169   19.9391  -32.4696 H   0  0  0  0  0  0  0  0  0  0  0  0
   -8.2987   21.8199  -31.8600 H   0  0  0  0  0  0  0  0  0  0  0  0
   -4.8330   21.9370  -32.3100 H   0  0  0  0  0  0  0  0  0  0  0  0
   -4.1624   22.7037  -28.1987 H   0  0  0  0  0  0  0  0  0  0  0  0
   -3.5928   24.7254  -26.3435 H   0  0  0  0  0  0  0  0  0  0  0  0
   -1.8978   25.3711  -24.6333 H   0  0  0  0  0  0  0  0  0  0  0  0
    0.4211   25.9752  -25.3315 H   0  0  0  0  0  0  0  0  0  0  0  0
    1.0499   25.9242  -27.7454 H   0  0  0  0  0  0  0  0  0  0  0  0
   -0.6341   25.2775  -29.4665 H   0  0  0  0  0  0  0  0  0  0  0  0
   -4.8793   19.1981  -32.2998 H   0  0  0  0  0  0  0  0  0  0  0  0
  1  2  1  0
  2  3  1  0
  2  4  1  0
  4  5  2  0
  4  6  2  0
  4  7  1  0
  7  8  2  0
  8  9  1  0
  9 10  2  0
 10 11  1  0
 11 12  1  0
 12 13  1  0
 13 14  2  0
 13 15  1  0
 15 16  1  0
 16 17  2  0
 17 18  1  0
 18 19  2  0
 19 20  1  0
 20 21  2  0
 21 22  1  0
 22 23  2  0
 17 24  1  0
 24 25  1  0
 11 26  2  0
 26  7  1  0
 25 15  2  0
 23 18  1  0
  1 27  1  0
  1 28  1  0
  1 29  1  0
  3 30  1  0
  3 31  1  0
  3 32  1  0
  8 33  1  0
  9 34  1  0
 10 35  1  0
 12 36  1  0
 16 37  1  0
 19 38  1  0
 20 39  1  0
 21 40  1  0
 22 41  1  0
 23 42  1  0
 26 43  1  0
M  CHG  1  24  -1
M  END
>  <UniqueID>  (24) 
22

>  <SMILES>  (24) 
CN(C)S(=O)(=O)c1cccc(NC(=O)c2cc(-c3ccccc3)[n-]n2)c1

>  <Energy>  (24) 
76.24954446886798

>  <Genealogy>  (24) 
CN(C)S(=O)(=O)c1cccc(NC(=O)c2cc(-c3ccccc3)[n-]n2)c1 (protonated)
CN(C)S(=O)(=O)c1cccc(NC(=O)c2cc(-c3ccccc3)[n-]n2)c1 (3D coordinates assigned)
CN(C)S(=O)(=O)c1cccc(NC(=O)c2cc(-c3ccccc3)[n-]n2)c1 (optimized conformer: 76.24954446886798 kcal/mol)

>  <smiles>  (24) 
CN(C)S(=O)(=O)c1cccc(NC(=O)c2cc(-c3ccccc3)[nH]n2)c1

>  <score_type>  (24) 
oracle

>  <origin>  (24) 
adgpu

>  <m_score__min__energy>  (24) 
-10.94

>  <m_primary>  (24) 
energy

$$$$
24:0
     RDKit          3D

 51 54  0  0  0  0  0  0  0  0999 V2000
   -3.5460   21.9460  -29.0200 C   0  0  0  0  0  0  0  0  0  0  0  0
   -2.6380   23.0980  -28.6950 C   0  0  0  0  0  0  0  0  0  0  0  0
   -2.6450   24.3620  -29.2770 C   0  0  0  0  0  0  0  0  0  0  0  0
   -3.5260   24.9070  -30.2650 N   0  0  0  0  0  0  0  0  0  0  0  0
   -5.1250   24.3160  -30.5880 S   0  0  0  0  0  0  0  0  0  0  0  0
   -5.9200   25.3790  -31.2940 O   0  0  0  0  0  0  0  0  0  0  0  0
   -5.7890   23.9550  -29.2900 O   0  0  0  0  0  0  0  0  0  0  0  0
   -5.0460   22.8890  -31.6290 C   0  0  0  0  0  0  0  0  0  0  0  0
   -3.8560   22.5950  -32.3150 C   0  0  0  0  0  0  0  0  0  0  0  0
   -3.7650   21.4750  -33.1540 C   0  0  0  0  0  0  0  0  0  0  0  0
   -2.5200   21.1860  -33.8120 N   0  0  0  0  0  0  0  0  0  0  0  0
   -1.2460   21.1690  -33.1500 C   0  0  0  0  0  0  0  0  0  0  0  0
   -1.1770   21.1760  -31.8910 O   0  0  0  0  0  0  0  0  0  0  0  0
   -0.0080   21.1000  -33.9420 C   0  0  0  0  0  0  0  0  0  0  0  0
    0.9840   20.1460  -33.8170 C   0  0  0  0  0  0  0  0  0  0  0  0
    1.9370   20.4780  -34.7550 C   0  0  0  0  0  0  0  0  0  0  0  0
    1.4700   21.6100  -35.3930 C   0  0  0  0  0  0  0  0  0  0  0  0
    0.3090   21.9550  -34.8860 O   0  0  0  0  0  0  0  0  0  0  0  0
   -4.8740   20.6230  -33.2800 C   0  0  0  0  0  0  0  0  0  0  0  0
   -6.0620   20.9090  -32.6030 C   0  0  0  0  0  0  0  0  0  0  0  0
   -6.1580   22.0380  -31.7830 C   0  0  0  0  0  0  0  0  0  0  0  0
   -7.6850   22.3420  -30.9590 Cl  0  0  0  0  0  0  0  0  0  0  0  0
   -1.5850   25.0230  -28.7070 C   0  0  0  0  0  0  0  0  0  0  0  0
   -1.2400   26.2100  -28.9540 O   0  0  0  0  0  0  0  0  0  0  0  0
   -0.9880   24.2250  -27.8010 N   0  0  0  0  0  0  0  0  0  0  0  0
    0.1250   24.5900  -26.9650 C   0  0  0  0  0  0  0  0  0  0  0  0
    1.4340   24.5370  -27.4700 C   0  0  0  0  0  0  0  0  0  0  0  0
    2.5170   24.8900  -26.6580 C   0  0  0  0  0  0  0  0  0  0  0  0
    2.2970   25.3110  -25.3430 C   0  0  0  0  0  0  0  0  0  0  0  0
    0.9960   25.3810  -24.8400 C   0  0  0  0  0  0  0  0  0  0  0  0
   -0.0880   25.0260  -25.6480 C   0  0  0  0  0  0  0  0  0  0  0  0
   -1.6180   23.0500  -27.7980 N   0  0  0  0  0  0  0  0  0  0  0  0
   -1.2730   21.9120  -26.9420 C   0  0  0  0  0  0  0  0  0  0  0  0
   -3.9065   21.4887  -28.0868 H   0  0  0  0  0  0  0  0  0  0  0  0
   -4.4035   22.3089  -29.6056 H   0  0  0  0  0  0  0  0  0  0  0  0
   -2.9928   21.1970  -29.6056 H   0  0  0  0  0  0  0  0  0  0  0  0
   -2.9829   23.2528  -32.1923 H   0  0  0  0  0  0  0  0  0  0  0  0
   -2.5560   20.8880  -34.8140 H   0  0  0  0  0  0  0  0  0  0  0  0
    1.0078   19.2990  -33.1156 H   0  0  0  0  0  0  0  0  0  0  0  0
    2.8799   19.9480  -34.9553 H   0  0  0  0  0  0  0  0  0  0  0  0
    1.9912   22.1418  -36.2027 H   0  0  0  0  0  0  0  0  0  0  0  0
   -4.8070   19.7268  -33.9143 H   0  0  0  0  0  0  0  0  0  0  0  0
   -6.9287   20.2411  -32.7157 H   0  0  0  0  0  0  0  0  0  0  0  0
    1.6085   24.2168  -28.5078 H   0  0  0  0  0  0  0  0  0  0  0  0
    3.5418   24.8364  -27.0541 H   0  0  0  0  0  0  0  0  0  0  0  0
    3.1490   25.5872  -24.7043 H   0  0  0  0  0  0  0  0  0  0  0  0
    0.8241   25.7160  -23.8065 H   0  0  0  0  0  0  0  0  0  0  0  0
   -1.1117   25.0886  -25.2502 H   0  0  0  0  0  0  0  0  0  0  0  0
   -1.3624   22.2071  -25.8861 H   0  0  0  0  0  0  0  0  0  0  0  0
   -1.9583   21.0767  -27.1486 H   0  0  0  0  0  0  0  0  0  0  0  0
   -0.2393   21.5979  -27.1486 H   0  0  0  0  0  0  0  0  0  0  0  0
  1  2  1  0
  2  3  2  0
  3  4  1  0
  4  5  1  0
  5  6  2  0
  5  7  2  0
  5  8  1  0
  8  9  2  0
  9 10  1  0
 10 11  1  0
 11 12  1  0
 12 13  2  0
 12 14  1  0
 14 15  2  0
 15 16  1  0
 16 17  2  0
 17 18  1  0
 10 19  2  0
 19 20  1  0
 20 21  2  0
 21 22  1  0
  3 23  1  0
 23 24  2  0
 23 25  1  0
 25 26  1  0
 26 27  2  0
 27 28  1  0
 28 29  2  0
 29 30  1  0
 30 31  2  0
 25 32  1  0
 32 33  1  0
 32  2  1  0
 21  8  1  0
 31 26  1  0
 18 14  1  0
  1 34  1  0
  1 35  1  0
  1 36  1  0
  9 37  1  0
 11 38  1  0
 15 39  1  0
 16 40  1  0
 17 41  1  0
 19 42  1  0
 20 43  1  0
 27 44  1  0
 28 45  1  0
 29 46  1  0
 30 47  1  0
 31 48  1  0
 33 49  1  0
 33 50  1  0
 33 51  1  0
M  CHG  1   4  -1
M  END
>  <UniqueID>  (25) 
23

>  <SMILES>  (25) 
Cc1c([N-]S(=O)(=O)c2cc(NC(=O)c3ccco3)ccc2Cl)c(=O)n(-c2ccccc2)n1C

>  <Energy>  (25) 
135.0212473571598

>  <Genealogy>  (25) 
Cc1c([N-]S(=O)(=O)c2cc(NC(=O)c3ccco3)ccc2Cl)c(=O)n(-c2ccccc2)n1C (protonated)
Cc1c([N-]S(=O)(=O)c2cc(NC(=O)c3ccco3)ccc2Cl)c(=O)n(-c2ccccc2)n1C (3D coordinates assigned)
Cc1c([N-]S(=O)(=O)c2cc(NC(=O)c3ccco3)ccc2Cl)c(=O)n(-c2ccccc2)n1C (optimized conformer: 135.0212473571598 kcal/mol)

>  <smiles>  (25) 
Cc1c(NS(=O)(=O)c2cc(NC(=O)c3ccco3)ccc2Cl)c(=O)n(-c2ccccc2)n1C

>  <score_type>  (25) 
oracle

>  <origin>  (25) 
adgpu

>  <m_score__min__energy>  (25) 
-11.199999999999999

>  <m_primary>  (25) 
energy

$$$$
25:0
     RDKit          3D

 44 46  0  0  0  0  0  0  0  0999 V2000
    0.4210   19.5390  -28.7420 C   0  0  0  0  0  0  0  0  0  0  0  0
    0.5050   20.9390  -28.9990 O   0  0  0  0  0  0  0  0  0  0  0  0
   -0.5810   21.7710  -29.3150 C   0  0  0  0  0  0  0  0  0  0  0  0
   -1.7580   21.2300  -29.8520 C   0  0  0  0  0  0  0  0  0  0  0  0
   -2.8410   22.0390  -30.1700 C   0  0  0  0  0  0  0  0  0  0  0  0
   -3.9310   21.4710  -30.6690 O   0  0  0  0  0  0  0  0  0  0  0  0
   -5.0230   22.1470  -31.0030 C   0  0  0  0  0  0  0  0  0  0  0  0
   -6.1730   21.3820  -31.5350 C   0  0  0  0  0  0  0  0  0  0  0  0
   -6.0340   20.5300  -32.6450 C   0  0  0  0  0  0  0  0  0  0  0  0
   -7.1390   19.8350  -33.1470 C   0  0  0  0  0  0  0  0  0  0  0  0
   -8.3970   19.9930  -32.5560 C   0  0  0  0  0  0  0  0  0  0  0  0
   -9.4890   19.2940  -33.0660 O   0  0  0  0  0  0  0  0  0  0  0  0
   -8.5470   20.8560  -31.4630 C   0  0  0  0  0  0  0  0  0  0  0  0
   -7.4440   21.5520  -30.9600 C   0  0  0  0  0  0  0  0  0  0  0  0
   -5.0580   23.5480  -30.8660 C   0  0  0  0  0  0  0  0  0  0  0  0
   -6.2100   24.2330  -31.3010 O   0  0  0  0  0  0  0  0  0  0  0  0
   -7.1810   24.8700  -30.4780 C   0  0  0  0  0  0  0  0  0  0  0  0
   -3.9210   24.1920  -30.3230 C   0  0  0  0  0  0  0  0  0  0  0  0
   -3.9230   25.4420  -30.1660 O   0  0  0  0  0  0  0  0  0  0  0  0
   -2.7810   23.4300  -29.9630 C   0  0  0  0  0  0  0  0  0  0  0  0
   -1.6010   24.0060  -29.4180 C   0  0  0  0  0  0  0  0  0  0  0  0
   -1.5840   25.4050  -29.2240 O   0  0  0  0  0  0  0  0  0  0  0  0
   -1.2200   26.1160  -28.0460 C   0  0  0  0  0  0  0  0  0  0  0  0
   -0.4930   23.1700  -29.0910 C   0  0  0  0  0  0  0  0  0  0  0  0
    0.6600   23.7730  -28.5530 O   0  0  0  0  0  0  0  0  0  0  0  0
    1.2000   23.6030  -27.2460 C   0  0  0  0  0  0  0  0  0  0  0  0
    0.4106   19.3656  -27.6558 H   0  0  0  0  0  0  0  0  0  0  0  0
   -0.5027   19.1395  -29.1860 H   0  0  0  0  0  0  0  0  0  0  0  0
    1.2903   19.0319  -29.1860 H   0  0  0  0  0  0  0  0  0  0  0  0
   -1.8246   20.1456  -30.0244 H   0  0  0  0  0  0  0  0  0  0  0  0
   -5.0499   20.4094  -33.1215 H   0  0  0  0  0  0  0  0  0  0  0  0
   -7.0185   19.1623  -34.0089 H   0  0  0  0  0  0  0  0  0  0  0  0
   -9.6800   19.2630  -34.0600 H   0  0  0  0  0  0  0  0  0  0  0  0
   -9.5358   20.9865  -30.9990 H   0  0  0  0  0  0  0  0  0  0  0  0
   -7.5717   22.2370  -30.1088 H   0  0  0  0  0  0  0  0  0  0  0  0
   -6.9297   24.7052  -29.4198 H   0  0  0  0  0  0  0  0  0  0  0  0
   -7.1892   25.9495  -30.6891 H   0  0  0  0  0  0  0  0  0  0  0  0
   -8.1745   24.4476  -30.6891 H   0  0  0  0  0  0  0  0  0  0  0  0
   -1.5174   25.5351  -27.1605 H   0  0  0  0  0  0  0  0  0  0  0  0
   -0.1312   26.2719  -28.0335 H   0  0  0  0  0  0  0  0  0  0  0  0
   -1.7301   27.0905  -28.0335 H   0  0  0  0  0  0  0  0  0  0  0  0
    0.4313   23.8450  -26.4973 H   0  0  0  0  0  0  0  0  0  0  0  0
    1.5232   22.5597  -27.1156 H   0  0  0  0  0  0  0  0  0  0  0  0
    2.0626   24.2730  -27.1156 H   0  0  0  0  0  0  0  0  0  0  0  0
  1  2  1  0
  2  3  1  0
  3  4  2  0
  4  5  1  0
  5  6  1  0
  6  7  1  0
  7  8  1  0
  8  9  2  0
  9 10  1  0
 10 11  2  0
 11 12  1  0
 11 13  1  0
 13 14  2  0
  7 15  2  0
 15 16  1  0
 16 17  1  0
 15 18  1  0
 18 19  2  0
 18 20  1  0
 20 21  1  0
 21 22  1  0
 22 23  1  0
 21 24  2  0
 24 25  1  0
 25 26  1  0
 24  3  1  0
 20  5  2  0
 14  8  1  0
  1 27  1  0
  1 28  1  0
  1 29  1  0
  4 30  1  0
  9 31  1  0
 10 32  1  0
 12 33  1  0
 13 34  1  0
 14 35  1  0
 17 36  1  0
 17 37  1  0
 17 38  1  0
 23 39  1  0
 23 40  1  0
 23 41  1  0
 26 42  1  0
 26 43  1  0
 26 44  1  0
M  END
>  <UniqueID>  (26) 
24

>  <SMILES>  (26) 
COc1cc2oc(-c3ccc(O)cc3)c(OC)c(=O)c2c(OC)c1OC

>  <Energy>  (26) 
66.78814409764036

>  <Genealogy>  (26) 
COc1cc2oc(-c3ccc(O)cc3)c(OC)c(=O)c2c(OC)c1OC (3D coordinates assigned)
COc1cc2oc(-c3ccc(O)cc3)c(OC)c(=O)c2c(OC)c1OC (optimized conformer: 66.78814409764036 kcal/mol)

>  <smiles>  (26) 
COc1cc2oc(-c3ccc(O)cc3)c(OC)c(=O)c2c(OC)c1OC

>  <score_type>  (26) 
oracle

>  <origin>  (26) 
adgpu

>  <m_score__min__energy>  (26) 
-7.3200000000000003

>  <m_primary>  (26) 
energy

$$$$
26:0
     RDKit          3D

 39 42  0  0  0  0  0  0  0  0999 V2000
   -5.7410   26.3930  -30.3840 O   0  0  0  0  0  0  0  0  0  0  0  0
   -5.1330   25.3160  -30.6100 C   0  0  0  0  0  0  0  0  0  0  0  0
   -3.7080   25.2790  -30.4530 N   0  0  0  0  0  0  0  0  0  0  0  0
   -2.9480   24.1910  -29.9080 C   0  0  0  0  0  0  0  0  0  0  0  0
   -2.8770   22.9450  -30.5530 C   0  0  0  0  0  0  0  0  0  0  0  0
   -2.1160   21.9090  -30.0040 C   0  0  0  0  0  0  0  0  0  0  0  0
   -1.3870   22.1140  -28.8190 C   0  0  0  0  0  0  0  0  0  0  0  0
   -0.6160   21.0570  -28.2200 N   0  0  0  0  0  0  0  0  0  0  0  0
    0.2180   20.1550  -28.9650 C   0  0  0  0  0  0  0  0  0  0  0  0
    0.5950   20.4580  -30.1290 O   0  0  0  0  0  0  0  0  0  0  0  0
    0.6830   18.8900  -28.3700 C   0  0  0  0  0  0  0  0  0  0  0  0
   -0.1100   17.8580  -27.8790 C   0  0  0  0  0  0  0  0  0  0  0  0
    0.6300   16.7740  -27.3920 C   0  0  0  0  0  0  0  0  0  0  0  0
    2.0040   16.9420  -27.4980 C   0  0  0  0  0  0  0  0  0  0  0  0
    2.2970   18.4410  -28.2010 S   0  0  0  0  0  0  0  0  0  0  0  0
   -1.4590   23.3620  -28.1810 C   0  0  0  0  0  0  0  0  0  0  0  0
   -2.2210   24.3960  -28.7300 C   0  0  0  0  0  0  0  0  0  0  0  0
   -5.9130   24.1180  -30.9690 C   0  0  0  0  0  0  0  0  0  0  0  0
   -7.1920   23.7990  -30.5090 C   0  0  0  0  0  0  0  0  0  0  0  0
   -7.4900   22.6110  -31.1330 C   0  0  0  0  0  0  0  0  0  0  0  0
   -8.6250   21.8060  -31.0680 C   0  0  0  0  0  0  0  0  0  0  0  0
   -8.6360   20.6290  -31.8400 C   0  0  0  0  0  0  0  0  0  0  0  0
   -7.5270   20.2920  -32.6490 C   0  0  0  0  0  0  0  0  0  0  0  0
   -6.3970   21.1310  -32.6930 C   0  0  0  0  0  0  0  0  0  0  0  0
   -6.4160   22.2870  -31.9170 C   0  0  0  0  0  0  0  0  0  0  0  0
   -5.4800   23.1990  -31.8140 O   0  0  0  0  0  0  0  0  0  0  0  0
   -3.4228   22.7839  -31.4944 H   0  0  0  0  0  0  0  0  0  0  0  0
   -2.0872   20.9283  -30.5014 H   0  0  0  0  0  0  0  0  0  0  0  0
   -0.5840   21.0120  -27.1770 H   0  0  0  0  0  0  0  0  0  0  0  0
   -1.2095   17.8904  -27.8739 H   0  0  0  0  0  0  0  0  0  0  0  0
    0.1658   15.8728  -26.9650 H   0  0  0  0  0  0  0  0  0  0  0  0
    2.7688   16.2193  -27.1775 H   0  0  0  0  0  0  0  0  0  0  0  0
   -0.9112   23.5271  -27.2415 H   0  0  0  0  0  0  0  0  0  0  0  0
   -2.2498   25.3771  -28.2334 H   0  0  0  0  0  0  0  0  0  0  0  0
   -7.8186   24.3687  -29.8070 H   0  0  0  0  0  0  0  0  0  0  0  0
   -9.4823   22.0804  -30.4358 H   0  0  0  0  0  0  0  0  0  0  0  0
   -9.5139   19.9668  -31.8135 H   0  0  0  0  0  0  0  0  0  0  0  0
   -7.5468   19.3693  -33.2475 H   0  0  0  0  0  0  0  0  0  0  0  0
   -5.5281   20.8815  -33.3196 H   0  0  0  0  0  0  0  0  0  0  0  0
  1  2  2  0
  2  3  1  0
  3  4  1  0
  4  5  2  0
  5  6  1  0
  6  7  2  0
  7  8  1  0
  8  9  1  0
  9 10  2  0
  9 11  1  0
 11 12  2  0
 12 13  1  0
 13 14  2  0
 14 15  1  0
  7 16  1  0
 16 17  2  0
  2 18  1  0
 18 19  2  0
 19 20  1  0
 20 21  2  0
 21 22  1  0
 22 23  2  0
 23 24  1  0
 24 25  2  0
 25 26  1  0
 17  4  1  0
 26 18  1  0
 15 11  1  0
 25 20  1  0
  5 27  1  0
  6 28  1  0
  8 29  1  0
 12 30  1  0
 13 31  1  0
 14 32  1  0
 16 33  1  0
 17 34  1  0
 19 35  1  0
 21 36  1  0
 22 37  1  0
 23 38  1  0
 24 39  1  0
M  CHG  1   3  -1
M  END
>  <UniqueID>  (27) 
25

>  <SMILES>  (27) 
O=C([N-]c1ccc(NC(=O)c2cccs2)cc1)c1cc2ccccc2o1

>  <Energy>  (27) 
111.58626920762235

>  <Genealogy>  (27) 
O=C([N-]c1ccc(NC(=O)c2cccs2)cc1)c1cc2ccccc2o1 (protonated)
O=C([N-]c1ccc(NC(=O)c2cccs2)cc1)c1cc2ccccc2o1 (3D coordinates assigned)
O=C([N-]c1ccc(NC(=O)c2cccs2)cc1)c1cc2ccccc2o1 (optimized conformer: 111.58626920762235 kcal/mol)

>  <smiles>  (27) 
O=C(Nc1ccc(NC(=O)c2cccs2)cc1)c1cc2ccccc2o1

>  <score_type>  (27) 
oracle

>  <origin>  (27) 
adgpu

>  <m_score__min__energy>  (27) 
-9.7899999999999991

>  <m_primary>  (27) 
energy

$$$$
27:0
     RDKit          3D

 39 41  0  0  0  0  0  0  0  0999 V2000
   -8.4295   17.2110  -31.0181 H   0  0  0  0  0  0  0  0  0  0  0  0
   -8.1490   18.1160  -31.5770 C   0  0  0  0  0  0  0  0  0  0  0  0
   -8.7410   19.3420  -31.2610 C   0  0  0  0  0  0  0  0  0  0  0  0
   -9.4781   19.4035  -30.4468 H   0  0  0  0  0  0  0  0  0  0  0  0
   -8.3960   20.4900  -31.9800 C   0  0  0  0  0  0  0  0  0  0  0  0
   -9.1390   22.0300  -31.5850 Cl  0  0  0  0  0  0  0  0  0  0  0  0
   -7.4510   20.4140  -33.0090 C   0  0  0  0  0  0  0  0  0  0  0  0
   -7.2003   21.3145  -33.5889 H   0  0  0  0  0  0  0  0  0  0  0  0
   -6.8200   19.1930  -33.3060 C   0  0  0  0  0  0  0  0  0  0  0  0
   -5.8160   19.1320  -34.4290 C   0  0  0  0  0  0  0  0  0  0  0  0
   -5.2576   20.0793  -34.4557 H   0  0  0  0  0  0  0  0  0  0  0  0
   -6.3689   18.9641  -35.3650 H   0  0  0  0  0  0  0  0  0  0  0  0
   -4.8620   18.0260  -34.2670 N   0  0  0  0  0  0  0  0  0  0  0  0
   -3.8400   17.8570  -33.3800 C   0  0  0  0  0  0  0  0  0  0  0  0
   -3.4350   18.6860  -32.4570 N   0  0  0  0  0  0  0  0  0  0  0  0
   -3.8580   20.0300  -32.2110 C   0  0  0  0  0  0  0  0  0  0  0  0
   -4.6100   20.3410  -31.0720 C   0  0  0  0  0  0  0  0  0  0  0  0
   -4.8303   19.5595  -30.3299 H   0  0  0  0  0  0  0  0  0  0  0  0
   -5.0820   21.6430  -30.8750 C   0  0  0  0  0  0  0  0  0  0  0  0
   -5.6434   21.8886  -29.9615 H   0  0  0  0  0  0  0  0  0  0  0  0
   -4.8430   22.6400  -31.8380 C   0  0  0  0  0  0  0  0  0  0  0  0
   -5.3170   23.9840  -31.6270 N   0  0  0  0  0  0  0  0  0  0  0  0
   -6.4820   24.3040  -31.9400 O   0  0  0  0  0  0  0  0  0  0  0  0
   -4.4880   24.9410  -31.0900 O   0  0  0  0  0  0  0  0  0  0  0  0
   -4.1400   22.3020  -33.0080 C   0  0  0  0  0  0  0  0  0  0  0  0
   -3.9643   23.0659  -33.7797 H   0  0  0  0  0  0  0  0  0  0  0  0
   -3.6630   21.0020  -33.1970 C   0  0  0  0  0  0  0  0  0  0  0  0
   -3.1322   20.7425  -34.1249 H   0  0  0  0  0  0  0  0  0  0  0  0
   -3.2940   16.5990  -33.5380 C   0  0  0  0  0  0  0  0  0  0  0  0
   -2.4691   16.1448  -32.9694 H   0  0  0  0  0  0  0  0  0  0  0  0
   -4.0180   16.0410  -34.5710 C   0  0  0  0  0  0  0  0  0  0  0  0
   -3.8850   14.6440  -35.0810 C   0  0  0  0  0  0  0  0  0  0  0  0
   -3.8188   13.9483  -34.2315 H   0  0  0  0  0  0  0  0  0  0  0  0
   -4.7632   14.3921  -35.6936 H   0  0  0  0  0  0  0  0  0  0  0  0
   -2.9750   14.5624  -35.6936 H   0  0  0  0  0  0  0  0  0  0  0  0
   -4.9590   16.9120  -34.9790 N   0  0  0  0  0  0  0  0  0  0  0  0
   -5.6800   16.7320  -35.7150 H   0  0  0  0  0  0  0  0  0  0  0  0
   -7.2010   18.0370  -32.6020 C   0  0  0  0  0  0  0  0  0  0  0  0
   -6.7515   17.0664  -32.8586 H   0  0  0  0  0  0  0  0  0  0  0  0
  1  2  1  0
  2  3  2  0
  3  4  1  0
  3  5  1  0
  5  6  1  0
  5  7  2  0
  7  8  1  0
  7  9  1  0
  9 10  1  0
 10 11  1  0
 10 12  1  0
 10 13  1  0
 13 14  1  0
 14 15  2  0
 15 16  1  0
 16 17  2  0
 17 18  1  0
 17 19  1  0
 19 20  1  0
 19 21  2  0
 21 22  1  0
 22 23  2  0
 22 24  1  0
 21 25  1  0
 25 26  1  0
 25 27  2  0
 27 28  1  0
 14 29  1  0
 29 30  1  0
 29 31  2  0
 31 32  1  0
 32 33  1  0
 32 34  1  0
 32 35  1  0
 31 36  1  0
 36 37  1  0
  9 38  2  0
 38 39  1  0
 38  2  1  0
 36 13  1  0
 27 16  1  0
M  CHG  2  22   1  24  -1
M  END
>  <UniqueID>  (28) 
26

>  <SMILES>  (28) 
Cc1c/c(=N/c2ccc([N+](=O)[O-])cc2)n(Cc2cccc(Cl)c2)[nH]1

>  <Energy>  (28) 
83.16168895257674

>  <Genealogy>  (28) 
Cc1c/c(=N/c2ccc([N+](=O)[O-])cc2)n(Cc2cccc(Cl)c2)[nH]1 (cis-trans isomerization)
Cc1c/c(=N/c2ccc([N+](=O)[O-])cc2)n(Cc2cccc(Cl)c2)[nH]1 (3D coordinates assigned)
Cc1c/c(=N/c2ccc([N+](=O)[O-])cc2)n(Cc2cccc(Cl)c2)[nH]1 (optimized conformer: 83.16168895257674 kcal/mol)

>  <smiles>  (28) 
Cc1cc(=Nc2ccc([N+](=O)[O-])cc2)n(Cc2cccc(Cl)c2)[nH]1

>  <score_type>  (28) 
oracle

>  <origin>  (28) 
adgpu

>  <m_score__min__energy>  (28) 
-8.4800000000000004

>  <m_primary>  (28) 
energy

$$$$
28:0
     RDKit          3D

 55 59  0  0  0  0  0  0  0  0999 V2000
   -5.7360   25.7780  -30.1740 C   0  0  0  0  0  0  0  0  0  0  0  0
   -4.7170   24.7420  -30.2160 N   0  0  0  0  0  0  0  0  0  0  0  0
   -4.8520   23.5240  -30.7720 C   0  0  0  0  0  0  0  0  0  0  0  0
   -3.6370   22.8830  -30.6840 C   0  0  0  0  0  0  0  0  0  0  0  0
   -3.3020   21.5020  -31.1640 C   0  0  0  0  0  0  0  0  0  0  0  0
   -3.2840   21.4480  -32.6420 N   0  0  0  0  0  0  0  0  0  0  0  0
   -2.2390   20.5060  -33.1560 C   0  0  0  0  0  0  0  0  0  0  0  0
   -2.7380   19.4980  -34.2100 C   0  0  0  0  0  0  0  0  0  0  0  0
   -4.0400   18.9170  -33.7660 C   0  0  0  0  0  0  0  0  0  0  0  0
   -4.2910   17.5870  -33.8740 N   0  0  0  0  0  0  0  0  0  0  0  0
   -5.4820   17.0620  -33.4740 C   0  0  0  0  0  0  0  0  0  0  0  0
   -5.7310   15.6030  -33.5840 C   0  0  0  0  0  0  0  0  0  0  0  0
   -4.8330   14.6750  -33.0200 C   0  0  0  0  0  0  0  0  0  0  0  0
   -5.0730   13.3000  -33.1270 C   0  0  0  0  0  0  0  0  0  0  0  0
   -6.2060   12.8350  -33.7990 C   0  0  0  0  0  0  0  0  0  0  0  0
   -7.1040   13.7440  -34.3650 C   0  0  0  0  0  0  0  0  0  0  0  0
   -6.8720   15.1210  -34.2580 C   0  0  0  0  0  0  0  0  0  0  0  0
   -6.4390   17.8900  -32.9690 N   0  0  0  0  0  0  0  0  0  0  0  0
   -6.2390   19.2300  -32.8530 C   0  0  0  0  0  0  0  0  0  0  0  0
   -7.2790   20.0410  -32.2950 N   0  0  0  0  0  0  0  0  0  0  0  0
   -8.6670   19.5960  -32.4320 C   0  0  0  0  0  0  0  0  0  0  0  0
   -9.6060   20.8030  -32.3400 C   0  0  0  0  0  0  0  0  0  0  0  0
   -9.3370   21.5480  -31.1710 O   0  0  0  0  0  0  0  0  0  0  0  0
   -8.0570   22.1480  -31.2750 C   0  0  0  0  0  0  0  0  0  0  0  0
   -6.9420   21.0900  -31.3280 C   0  0  0  0  0  0  0  0  0  0  0  0
   -5.0040   19.7770  -33.2490 C   0  0  0  0  0  0  0  0  0  0  0  0
   -4.6510   21.2410  -33.1820 C   0  0  0  0  0  0  0  0  0  0  0  0
   -2.7930   23.7820  -30.0610 C   0  0  0  0  0  0  0  0  0  0  0  0
   -3.4740   24.9140  -29.7940 N   0  0  0  0  0  0  0  0  0  0  0  0
   -5.9720   26.0179  -29.1267 H   0  0  0  0  0  0  0  0  0  0  0  0
   -5.3632   26.6798  -30.6817 H   0  0  0  0  0  0  0  0  0  0  0  0
   -6.6438   25.4202  -30.6817 H   0  0  0  0  0  0  0  0  0  0  0  0
   -5.7701   23.1135  -31.2176 H   0  0  0  0  0  0  0  0  0  0  0  0
   -2.3108   21.2179  -30.7809 H   0  0  0  0  0  0  0  0  0  0  0  0
   -4.0697   20.8055  -30.7957 H   0  0  0  0  0  0  0  0  0  0  0  0
   -1.4332   21.1028  -33.6082 H   0  0  0  0  0  0  0  0  0  0  0  0
   -1.9071   19.9113  -32.2922 H   0  0  0  0  0  0  0  0  0  0  0  0
   -2.8752   20.0120  -35.1728 H   0  0  0  0  0  0  0  0  0  0  0  0
   -1.9978   18.6927  -34.3264 H   0  0  0  0  0  0  0  0  0  0  0  0
   -3.9371   15.0336  -32.4919 H   0  0  0  0  0  0  0  0  0  0  0  0
   -4.3675   12.5837  -32.6807 H   0  0  0  0  0  0  0  0  0  0  0  0
   -6.3912   11.7539  -33.8826 H   0  0  0  0  0  0  0  0  0  0  0  0
   -7.9950   13.3772  -34.8957 H   0  0  0  0  0  0  0  0  0  0  0  0
   -7.5846   15.8313  -34.7027 H   0  0  0  0  0  0  0  0  0  0  0  0
   -8.7988   19.1033  -33.4066 H   0  0  0  0  0  0  0  0  0  0  0  0
   -8.9042   18.8868  -31.6253 H   0  0  0  0  0  0  0  0  0  0  0  0
   -9.4584   21.4450  -33.2209 H   0  0  0  0  0  0  0  0  0  0  0  0
  -10.6453   20.4445  -32.3034 H   0  0  0  0  0  0  0  0  0  0  0  0
   -8.0194   22.7534  -32.1926 H   0  0  0  0  0  0  0  0  0  0  0  0
   -7.8962   22.7751  -30.3857 H   0  0  0  0  0  0  0  0  0  0  0  0
   -5.9997   21.5712  -31.6288 H   0  0  0  0  0  0  0  0  0  0  0  0
   -6.8332   20.6358  -30.3321 H   0  0  0  0  0  0  0  0  0  0  0  0
   -4.7035   21.6678  -34.1945 H   0  0  0  0  0  0  0  0  0  0  0  0
   -5.3660   21.7375  -32.5095 H   0  0  0  0  0  0  0  0  0  0  0  0
   -1.7345   23.6026  -29.8212 H   0  0  0  0  0  0  0  0  0  0  0  0
  1  2  1  0
  2  3  1  0
  3  4  2  0
  4  5  1  0
  5  6  1  0
  6  7  1  0
  7  8  1  0
  8  9  1  0
  9 10  2  0
 10 11  1  0
 11 12  1  0
 12 13  2  0
 13 14  1  0
 14 15  2  0
 15 16  1  0
 16 17  2  0
 11 18  2  0
 18 19  1  0
 19 20  1  0
 20 21  1  0
 21 22  1  0
 22 23  1  0
 23 24  1  0
 24 25  1  0
 19 26  2  0
 26 27  1  0
  4 28  1  0
 28 29  2  0
 29  2  1  0
 27  6  1  0
 26  9  1  0
 17 12  1  0
 25 20  1  0
  1 30  1  0
  1 31  1  0
  1 32  1  0
  3 33  1  0
  5 34  1  0
  5 35  1  0
  7 36  1  0
  7 37  1  0
  8 38  1  0
  8 39  1  0
 13 40  1  0
 14 41  1  0
 15 42  1  0
 16 43  1  0
 17 44  1  0
 21 45  1  0
 21 46  1  0
 22 47  1  0
 22 48  1  0
 24 49  1  0
 24 50  1  0
 25 51  1  0
 25 52  1  0
 27 53  1  0
 27 54  1  0
 28 55  1  0
M  END
>  <UniqueID>  (29) 
27

>  <SMILES>  (29) 
Cn1cc(CN2CCc3nc(-c4ccccc4)nc(N4CCOCC4)c3C2)cn1

>  <Energy>  (29) 
108.8628967317913

>  <Genealogy>  (29) 
Cn1cc(CN2CCc3nc(-c4ccccc4)nc(N4CCOCC4)c3C2)cn1 (3D coordinates assigned)
Cn1cc(CN2CCc3nc(-c4ccccc4)nc(N4CCOCC4)c3C2)cn1 (nonaromatic ring conformer: 108.8628967317913 kcal/mol)

>  <smiles>  (29) 
Cn1cc(CN2CCc3nc(-c4ccccc4)nc(N4CCOCC4)c3C2)cn1

>  <score_type>  (29) 
oracle

>  <origin>  (29) 
adgpu

>  <m_score__min__energy>  (29) 
-8.6600000000000001

>  <m_primary>  (29) 
energy

$$$$
29:0
     RDKit          3D

 45 48  0  0  0  0  0  0  0  0999 V2000
   -5.7690   26.7500  -28.6160 H   0  0  0  0  0  0  0  0  0  0  0  0
   -6.3000   26.2060  -29.3330 N   0  0  0  0  0  0  0  0  0  0  0  0
   -5.7750   25.2060  -29.9670 C   0  0  0  0  0  0  0  0  0  0  0  0
   -6.5150   24.5360  -30.8860 N   0  0  0  0  0  0  0  0  0  0  0  0
   -6.0010   23.4840  -31.5720 C   0  0  0  0  0  0  0  0  0  0  0  0
   -6.6207   22.9565  -32.3121 H   0  0  0  0  0  0  0  0  0  0  0  0
   -4.6810   23.0670  -31.3400 C   0  0  0  0  0  0  0  0  0  0  0  0
   -4.0970   21.9210  -32.0760 C   0  0  0  0  0  0  0  0  0  0  0  0
   -4.8660   20.8540  -32.4100 N   0  0  0  0  0  0  0  0  0  0  0  0
   -4.3390   19.7980  -33.0850 C   0  0  0  0  0  0  0  0  0  0  0  0
   -5.1650   18.6680  -33.4360 N   0  0  0  0  0  0  0  0  0  0  0  0
   -4.6520   17.6500  -34.3620 C   0  0  0  0  0  0  0  0  0  0  0  0
   -4.7926   17.9977  -35.3961 H   0  0  0  0  0  0  0  0  0  0  0  0
   -3.5831   17.4897  -34.1575 H   0  0  0  0  0  0  0  0  0  0  0  0
   -5.3970   16.3250  -34.1700 C   0  0  0  0  0  0  0  0  0  0  0  0
   -5.1110   15.6310  -34.9741 H   0  0  0  0  0  0  0  0  0  0  0  0
   -5.1261   15.9080  -33.1888 H   0  0  0  0  0  0  0  0  0  0  0  0
   -6.7950   16.5240  -34.2060 O   0  0  0  0  0  0  0  0  0  0  0  0
   -7.1900   17.3010  -33.0950 C   0  0  0  0  0  0  0  0  0  0  0  0
   -8.2881   17.3605  -33.0689 H   0  0  0  0  0  0  0  0  0  0  0  0
   -6.8099   16.8246  -32.1792 H   0  0  0  0  0  0  0  0  0  0  0  0
   -6.6130   18.7160  -33.1870 C   0  0  0  0  0  0  0  0  0  0  0  0
   -7.1041   19.2540  -34.0112 H   0  0  0  0  0  0  0  0  0  0  0  0
   -6.7924   19.2353  -32.2340 H   0  0  0  0  0  0  0  0  0  0  0  0
   -3.0240   19.8220  -33.4250 N   0  0  0  0  0  0  0  0  0  0  0  0
   -2.2370   20.8810  -33.0990 C   0  0  0  0  0  0  0  0  0  0  0  0
   -0.8420   20.8960  -33.4670 N   0  0  0  0  0  0  0  0  0  0  0  0
   -0.4110   21.6220  -34.6710 C   0  0  0  0  0  0  0  0  0  0  0  0
   -1.1717   21.5040  -35.4567 H   0  0  0  0  0  0  0  0  0  0  0  0
   -0.2873   22.6858  -34.4201 H   0  0  0  0  0  0  0  0  0  0  0  0
    0.9250   21.0740  -35.1770 C   0  0  0  0  0  0  0  0  0  0  0  0
    0.7709   20.0601  -35.5747 H   0  0  0  0  0  0  0  0  0  0  0  0
    1.3033   21.7423  -35.9646 H   0  0  0  0  0  0  0  0  0  0  0  0
    1.8770   21.0220  -34.1330 O   0  0  0  0  0  0  0  0  0  0  0  0
    1.4640   20.0750  -33.1690 C   0  0  0  0  0  0  0  0  0  0  0  0
    1.2844   19.1101  -33.6657 H   0  0  0  0  0  0  0  0  0  0  0  0
    2.2557   19.9754  -32.4119 H   0  0  0  0  0  0  0  0  0  0  0  0
    0.1770   20.5290  -32.4750 C   0  0  0  0  0  0  0  0  0  0  0  0
   -0.2056   19.7087  -31.8499 H   0  0  0  0  0  0  0  0  0  0  0  0
    0.4001   21.4084  -31.8530 H   0  0  0  0  0  0  0  0  0  0  0  0
   -2.7830   21.9270  -32.4250 N   0  0  0  0  0  0  0  0  0  0  0  0
   -3.9350   23.7750  -30.3850 C   0  0  0  0  0  0  0  0  0  0  0  0
   -2.8966   23.4803  -30.1732 H   0  0  0  0  0  0  0  0  0  0  0  0
   -4.4900   24.8240  -29.7200 N   0  0  0  0  0  0  0  0  0  0  0  0
   -3.9110   25.3340  -29.0140 H   0  0  0  0  0  0  0  0  0  0  0  0
  1  2  1  0
  2  3  2  0
  3  4  1  0
  4  5  2  0
  5  6  1  0
  5  7  1  0
  7  8  1  0
  8  9  2  0
  9 10  1  0
 10 11  1  0
 11 12  1  0
 12 13  1  0
 12 14  1  0
 12 15  1  0
 15 16  1  0
 15 17  1  0
 15 18  1  0
 18 19  1  0
 19 20  1  0
 19 21  1  0
 19 22  1  0
 22 23  1  0
 22 24  1  0
 10 25  2  0
 25 26  1  0
 26 27  1  0
 27 28  1  0
 28 29  1  0
 28 30  1  0
 28 31  1  0
 31 32  1  0
 31 33  1  0
 31 34  1  0
 34 35  1  0
 35 36  1  0
 35 37  1  0
 35 38  1  0
 38 39  1  0
 38 40  1  0
 26 41  2  0
  7 42  2  0
 42 43  1  0
 42 44  1  0
 44 45  1  0
 44  3  1  0
 41  8  1  0
 22 11  1  0
 38 27  1  0
M  END
>  <UniqueID>  (30) 
28

>  <SMILES>  (30) 
[H]/N=c1/ncc(-c2nc(N3CCOCC3)nc(N3CCOCC3)n2)c[nH]1

>  <Energy>  (30) 
52.547839088908475

>  <Genealogy>  (30) 
[H]/N=c1/ncc(-c2nc(N3CCOCC3)nc(N3CCOCC3)n2)c[nH]1 (cis-trans isomerization)
[H]/N=c1/ncc(-c2nc(N3CCOCC3)nc(N3CCOCC3)n2)c[nH]1 (3D coordinates assigned)
[H]/N=c1/ncc(-c2nc(N3CCOCC3)nc(N3CCOCC3)n2)c[nH]1 (nonaromatic ring conformer: 52.547839088908475 kcal/mol)

>  <smiles>  (30) 
N=c1ncc(-c2nc(N3CCOCC3)nc(N3CCOCC3)n2)c[nH]1

>  <score_type>  (30) 
oracle

>  <origin>  (30) 
adgpu

>  <m_score__min__energy>  (30) 
-7.2599999999999998

>  <m_primary>  (30) 
energy

$$$$
30:0
     RDKit          3D

 16 16  0  0  0  0  0  0  0  0999 V2000
   -5.3610   24.9260  -28.8690 N   0  0  0  0  0  0  0  0  0  0  0  0
   -5.0880   24.6280  -30.2420 C   0  0  0  0  0  0  0  0  0  0  0  0
   -4.2050   25.2970  -30.8440 O   0  0  0  0  0  0  0  0  0  0  0  0
   -5.8310   23.5690  -30.9700 C   0  0  0  0  0  0  0  0  0  0  0  0
   -5.1260   22.5790  -31.6790 C   0  0  0  0  0  0  0  0  0  0  0  0
   -5.8130   21.5730  -32.3650 C   0  0  0  0  0  0  0  0  0  0  0  0
   -7.2090   21.5380  -32.3450 C   0  0  0  0  0  0  0  0  0  0  0  0
   -7.9200   22.5070  -31.6340 C   0  0  0  0  0  0  0  0  0  0  0  0
   -9.2760   22.4640  -31.6040 F   0  0  0  0  0  0  0  0  0  0  0  0
   -7.2370   23.5170  -30.9470 C   0  0  0  0  0  0  0  0  0  0  0  0
   -6.1820   24.5180  -28.3710 H   0  0  0  0  0  0  0  0  0  0  0  0
   -4.7840   25.6350  -28.3660 H   0  0  0  0  0  0  0  0  0  0  0  0
   -4.0262   22.5967  -31.6936 H   0  0  0  0  0  0  0  0  0  0  0  0
   -5.2528   20.8074  -32.9217 H   0  0  0  0  0  0  0  0  0  0  0  0
   -7.7478   20.7480  -32.8887 H   0  0  0  0  0  0  0  0  0  0  0  0
   -7.8028   24.2750  -30.3855 H   0  0  0  0  0  0  0  0  0  0  0  0
  1  2  1  0
  2  3  2  0
  2  4  1  0
  4  5  2  0
  5  6  1  0
  6  7  2  0
  7  8  1  0
  8  9  1  0
  8 10  2  0
 10  4  1  0
  1 11  1  0
  1 12  1  0
  5 13  1  0
  6 14  1  0
  7 15  1  0
 10 16  1  0
M  END
>  <UniqueID>  (31) 
29

>  <SMILES>  (31) 
NC(=O)c1cccc(F)c1

>  <Energy>  (31) 
15.905790708778282

>  <Genealogy>  (31) 
NC(=O)c1cccc(F)c1 (3D coordinates assigned)
NC(=O)c1cccc(F)c1 (optimized conformer: 15.905790708778282 kcal/mol)

>  <smiles>  (31) 
NC(=O)c1cccc(F)c1

>  <score_type>  (31) 
oracle

>  <origin>  (31) 
adgpu

>  <m_score__min__energy>  (31) 
-5.6399999999999997

>  <m_primary>  (31) 
energy

$$$$
31:0
     RDKit          3D

 38 41  0  0  0  0  0  0  0  0999 V2000
   -9.4830   19.7980  -32.9800 N   0  0  0  0  0  0  0  0  0  0  0  0
   -8.4660   20.5950  -32.3730 C   0  0  0  0  0  0  0  0  0  0  0  0
   -8.7140   21.7480  -31.7810 O   0  0  0  0  0  0  0  0  0  0  0  0
   -7.5750   22.1930  -31.3040 C   0  0  0  0  0  0  0  0  0  0  0  0
   -7.3570   23.3780  -30.6110 C   0  0  0  0  0  0  0  0  0  0  0  0
   -6.0440   23.6730  -30.2030 C   0  0  0  0  0  0  0  0  0  0  0  0
   -4.9720   22.7870  -30.4990 C   0  0  0  0  0  0  0  0  0  0  0  0
   -3.5890   23.1140  -30.0720 C   0  0  0  0  0  0  0  0  0  0  0  0
   -2.6050   22.1100  -30.0070 C   0  0  0  0  0  0  0  0  0  0  0  0
   -1.3030   22.4180  -29.6050 C   0  0  0  0  0  0  0  0  0  0  0  0
   -0.9640   23.7340  -29.2610 C   0  0  0  0  0  0  0  0  0  0  0  0
    0.3330   24.0490  -28.8590 O   0  0  0  0  0  0  0  0  0  0  0  0
   -1.9360   24.7390  -29.3220 C   0  0  0  0  0  0  0  0  0  0  0  0
   -1.6100   26.0460  -28.9790 O   0  0  0  0  0  0  0  0  0  0  0  0
   -3.2400   24.4310  -29.7250 C   0  0  0  0  0  0  0  0  0  0  0  0
   -5.2380   21.5910  -31.2080 C   0  0  0  0  0  0  0  0  0  0  0  0
   -6.5550   21.3220  -31.5830 C   0  0  0  0  0  0  0  0  0  0  0  0
   -7.1130   20.2680  -32.2840 C   0  0  0  0  0  0  0  0  0  0  0  0
   -6.4240   19.0820  -32.8290 C   0  0  0  0  0  0  0  0  0  0  0  0
   -5.8970   19.1010  -34.1310 C   0  0  0  0  0  0  0  0  0  0  0  0
   -5.2520   17.9740  -34.6480 C   0  0  0  0  0  0  0  0  0  0  0  0
   -5.1280   16.8190  -33.8710 C   0  0  0  0  0  0  0  0  0  0  0  0
   -5.6520   16.7900  -32.5750 C   0  0  0  0  0  0  0  0  0  0  0  0
   -6.2980   17.9150  -32.0540 C   0  0  0  0  0  0  0  0  0  0  0  0
   -9.4790   19.6010  -34.0040 H   0  0  0  0  0  0  0  0  0  0  0  0
  -10.2180   19.3550  -32.3850 H   0  0  0  0  0  0  0  0  0  0  0  0
   -8.1870   24.0647  -30.3883 H   0  0  0  0  0  0  0  0  0  0  0  0
   -5.8436   24.6012  -29.6477 H   0  0  0  0  0  0  0  0  0  0  0  0
   -2.8630   21.0748  -30.2748 H   0  0  0  0  0  0  0  0  0  0  0  0
   -0.5416   21.6255  -29.5583 H   0  0  0  0  0  0  0  0  0  0  0  0
    0.5940   24.9950  -28.6060 H   0  0  0  0  0  0  0  0  0  0  0  0
   -3.9987   25.2262  -29.7707 H   0  0  0  0  0  0  0  0  0  0  0  0
   -4.4268   20.8911  -31.4571 H   0  0  0  0  0  0  0  0  0  0  0  0
   -5.9924   20.0075  -34.7468 H   0  0  0  0  0  0  0  0  0  0  0  0
   -4.8413   17.9961  -35.6682 H   0  0  0  0  0  0  0  0  0  0  0  0
   -4.6186   15.9334  -34.2787 H   0  0  0  0  0  0  0  0  0  0  0  0
   -5.5558   15.8802  -31.9642 H   0  0  0  0  0  0  0  0  0  0  0  0
   -6.7093   17.8874  -31.0342 H   0  0  0  0  0  0  0  0  0  0  0  0
  1  2  1  0
  2  3  1  0
  3  4  1  0
  4  5  2  0
  5  6  1  0
  6  7  2  0
  7  8  1  0
  8  9  2  0
  9 10  1  0
 10 11  2  0
 11 12  1  0
 11 13  1  0
 13 14  1  0
 13 15  2  0
  7 16  1  0
 16 17  2  0
 17 18  1  0
 18 19  1  0
 19 20  2  0
 20 21  1  0
 21 22  2  0
 22 23  1  0
 23 24  2  0
 18  2  2  0
 24 19  1  0
 17  4  1  0
 15  8  1  0
  1 25  1  0
  1 26  1  0
  5 27  1  0
  6 28  1  0
  9 29  1  0
 10 30  1  0
 12 31  1  0
 15 32  1  0
 16 33  1  0
 20 34  1  0
 21 35  1  0
 22 36  1  0
 23 37  1  0
 24 38  1  0
M  CHG  1  14  -1
M  END
>  <UniqueID>  (32) 
30

>  <SMILES>  (32) 
Nc1oc2ccc(-c3ccc(O)c([O-])c3)cc2c1-c1ccccc1

>  <Energy>  (32) 
86.94591288289553

>  <Genealogy>  (32) 
Nc1oc2ccc(-c3ccc(O)c([O-])c3)cc2c1-c1ccccc1 (protonated)
Nc1oc2ccc(-c3ccc(O)c([O-])c3)cc2c1-c1ccccc1 (3D coordinates assigned)
Nc1oc2ccc(-c3ccc(O)c([O-])c3)cc2c1-c1ccccc1 (optimized conformer: 86.94591288289553 kcal/mol)

>  <smiles>  (32) 
Nc1oc2ccc(-c3ccc(O)c(O)c3)cc2c1-c1ccccc1

>  <score_type>  (32) 
oracle

>  <origin>  (32) 
adgpu

>  <m_score__min__energy>  (32) 
-11.81

>  <m_primary>  (32) 
energy

$$$$
32:0
     RDKit          3D

 48 50  0  0  0  0  0  0  0  0999 V2000
   -7.6150   23.5510  -31.2090 C   0  0  0  0  0  0  0  0  0  0  0  0
   -7.5780   22.7210  -32.3650 O   0  0  0  0  0  0  0  0  0  0  0  0
   -6.9530   21.4650  -32.4230 C   0  0  0  0  0  0  0  0  0  0  0  0
   -5.5590   21.3290  -32.5750 C   0  0  0  0  0  0  0  0  0  0  0  0
   -4.9670   20.0590  -32.6240 C   0  0  0  0  0  0  0  0  0  0  0  0
   -3.4990   19.9220  -32.7470 C   0  0  0  0  0  0  0  0  0  0  0  0
   -2.5280   20.5530  -31.9800 C   0  0  0  0  0  0  0  0  0  0  0  0
   -2.7250   21.5940  -30.9440 C   0  0  0  0  0  0  0  0  0  0  0  0
   -2.4420   21.3030  -29.6050 C   0  0  0  0  0  0  0  0  0  0  0  0
   -2.6270   22.2680  -28.5950 C   0  0  0  0  0  0  0  0  0  0  0  0
   -2.3480   21.9680  -27.2530 O   0  0  0  0  0  0  0  0  0  0  0  0
   -1.7130   20.7780  -26.7950 C   0  0  0  0  0  0  0  0  0  0  0  0
   -3.1050   23.5570  -28.9500 C   0  0  0  0  0  0  0  0  0  0  0  0
   -3.3370   24.5880  -28.0180 O   0  0  0  0  0  0  0  0  0  0  0  0
   -4.1800   24.5250  -26.8740 C   0  0  0  0  0  0  0  0  0  0  0  0
   -3.3710   23.8540  -30.2970 C   0  0  0  0  0  0  0  0  0  0  0  0
   -3.8470   25.1370  -30.6140 O   0  0  0  0  0  0  0  0  0  0  0  0
   -5.2010   25.5550  -30.4720 C   0  0  0  0  0  0  0  0  0  0  0  0
   -3.1620   22.8790  -31.2860 C   0  0  0  0  0  0  0  0  0  0  0  0
   -1.3110   20.0910  -32.3350 N   0  0  0  0  0  0  0  0  0  0  0  0
   -1.5580   19.1950  -33.3140 C   0  0  0  0  0  0  0  0  0  0  0  0
   -2.8730   19.0640  -33.5780 N   0  0  0  0  0  0  0  0  0  0  0  0
   -3.4660   18.1690  -34.5670 C   0  0  0  0  0  0  0  0  0  0  0  0
   -5.7750   18.9170  -32.5250 C   0  0  0  0  0  0  0  0  0  0  0  0
   -7.1560   19.0440  -32.3720 C   0  0  0  0  0  0  0  0  0  0  0  0
   -7.7450   20.3110  -32.3210 C   0  0  0  0  0  0  0  0  0  0  0  0
   -9.4870   20.4400  -32.1240 Cl  0  0  0  0  0  0  0  0  0  0  0  0
   -7.5870   22.9235  -30.3060 H   0  0  0  0  0  0  0  0  0  0  0  0
   -6.7460   24.2254  -31.2139 H   0  0  0  0  0  0  0  0  0  0  0  0
   -8.5405   24.1454  -31.2139 H   0  0  0  0  0  0  0  0  0  0  0  0
   -4.9294   22.2273  -32.6560 H   0  0  0  0  0  0  0  0  0  0  0  0
   -2.0687   20.3038  -29.3362 H   0  0  0  0  0  0  0  0  0  0  0  0
   -1.7065   20.7659  -25.6951 H   0  0  0  0  0  0  0  0  0  0  0  0
   -2.2634   19.9018  -27.1681 H   0  0  0  0  0  0  0  0  0  0  0  0
   -0.6787   20.7474  -27.1681 H   0  0  0  0  0  0  0  0  0  0  0  0
   -3.5655   24.5709  -25.9628 H   0  0  0  0  0  0  0  0  0  0  0  0
   -4.8801   25.3733  -26.8873 H   0  0  0  0  0  0  0  0  0  0  0  0
   -4.7462   23.5820  -26.8873 H   0  0  0  0  0  0  0  0  0  0  0  0
   -5.4508   25.6321  -29.4035 H   0  0  0  0  0  0  0  0  0  0  0  0
   -5.3341   26.5361  -30.9514 H   0  0  0  0  0  0  0  0  0  0  0  0
   -5.8639   24.8197  -30.9514 H   0  0  0  0  0  0  0  0  0  0  0  0
   -3.3439   23.1281  -32.3419 H   0  0  0  0  0  0  0  0  0  0  0  0
   -0.7716   18.6330  -33.8391 H   0  0  0  0  0  0  0  0  0  0  0  0
   -4.0031   17.3584  -34.0526 H   0  0  0  0  0  0  0  0  0  0  0  0
   -4.1696   18.7331  -35.1968 H   0  0  0  0  0  0  0  0  0  0  0  0
   -2.6722   17.7410  -35.1968 H   0  0  0  0  0  0  0  0  0  0  0  0
   -5.3182   17.9173  -32.5681 H   0  0  0  0  0  0  0  0  0  0  0  0
   -7.7835   18.1442  -32.2912 H   0  0  0  0  0  0  0  0  0  0  0  0
  1  2  1  0
  2  3  1  0
  3  4  2  0
  4  5  1  0
  5  6  1  0
  6  7  2  0
  7  8  1  0
  8  9  2  0
  9 10  1  0
 10 11  1  0
 11 12  1  0
 10 13  2  0
 13 14  1  0
 14 15  1  0
 13 16  1  0
 16 17  1  0
 17 18  1  0
 16 19  2  0
  7 20  1  0
 20 21  2  0
 21 22  1  0
 22 23  1  0
  5 24  2  0
 24 25  1  0
 25 26  2  0
 26 27  1  0
 26  3  1  0
 22  6  1  0
 19  8  1  0
  1 28  1  0
  1 29  1  0
  1 30  1  0
  4 31  1  0
  9 32  1  0
 12 33  1  0
 12 34  1  0
 12 35  1  0
 15 36  1  0
 15 37  1  0
 15 38  1  0
 18 39  1  0
 18 40  1  0
 18 41  1  0
 19 42  1  0
 21 43  1  0
 23 44  1  0
 23 45  1  0
 23 46  1  0
 24 47  1  0
 25 48  1  0
M  END
>  <UniqueID>  (33) 
31

>  <SMILES>  (33) 
COc1cc(-c2c(-c3cc(OC)c(OC)c(OC)c3)ncn2C)ccc1Cl

>  <Energy>  (33) 
87.97540829121841

>  <Genealogy>  (33) 
COc1cc(-c2c(-c3cc(OC)c(OC)c(OC)c3)ncn2C)ccc1Cl (3D coordinates assigned)
COc1cc(-c2c(-c3cc(OC)c(OC)c(OC)c3)ncn2C)ccc1Cl (optimized conformer: 87.97540829121841 kcal/mol)

>  <smiles>  (33) 
COc1cc(-c2c(-c3cc(OC)c(OC)c(OC)c3)ncn2C)ccc1Cl

>  <score_type>  (33) 
oracle

>  <origin>  (33) 
adgpu

>  <m_score__min__energy>  (33) 
-7.7000000000000002

>  <m_primary>  (33) 
energy

$$$$
33:0
     RDKit          3D

 34 36  0  0  0  0  0  0  0  0999 V2000
   -2.9430   20.8160  -29.0150 H   0  0  0  0  0  0  0  0  0  0  0  0
   -3.6380   21.1980  -29.6470 O   0  0  0  0  0  0  0  0  0  0  0  0
   -3.7360   22.5700  -29.8590 C   0  0  0  0  0  0  0  0  0  0  0  0
   -2.8130   23.3990  -29.3050 N   0  0  0  0  0  0  0  0  0  0  0  0
   -2.8590   24.7450  -29.5000 C   0  0  0  0  0  0  0  0  0  0  0  0
   -1.9740   25.5380  -28.9700 N   0  0  0  0  0  0  0  0  0  0  0  0
   -0.8610   25.1650  -28.1370 C   0  0  0  0  0  0  0  0  0  0  0  0
    0.1180   24.5310  -28.6200 O   0  0  0  0  0  0  0  0  0  0  0  0
   -0.8630   25.5280  -26.7000 C   0  0  0  0  0  0  0  0  0  0  0  0
   -1.2130   26.8280  -26.2880 C   0  0  0  0  0  0  0  0  0  0  0  0
   -1.4875   27.5837  -27.0387 H   0  0  0  0  0  0  0  0  0  0  0  0
   -1.2140   27.1650  -24.9310 C   0  0  0  0  0  0  0  0  0  0  0  0
   -1.4881   28.1836  -24.6189 H   0  0  0  0  0  0  0  0  0  0  0  0
   -0.8680   26.2120  -23.9710 C   0  0  0  0  0  0  0  0  0  0  0  0
   -0.8711   26.4799  -22.9041 H   0  0  0  0  0  0  0  0  0  0  0  0
   -0.5180   24.9190  -24.3650 C   0  0  0  0  0  0  0  0  0  0  0  0
   -0.2436   24.1694  -23.6082 H   0  0  0  0  0  0  0  0  0  0  0  0
   -0.5160   24.5760  -25.7210 C   0  0  0  0  0  0  0  0  0  0  0  0
   -0.2414   23.5552  -26.0254 H   0  0  0  0  0  0  0  0  0  0  0  0
   -3.8460   25.2760  -30.2650 N   0  0  0  0  0  0  0  0  0  0  0  0
   -4.7960   24.4950  -30.8410 C   0  0  0  0  0  0  0  0  0  0  0  0
   -5.7040   25.0350  -31.5270 O   0  0  0  0  0  0  0  0  0  0  0  0
   -4.7680   23.1000  -30.6520 C   0  0  0  0  0  0  0  0  0  0  0  0
   -5.7900   22.2170  -31.2650 C   0  0  0  0  0  0  0  0  0  0  0  0
   -5.4300   21.3030  -32.2710 C   0  0  0  0  0  0  0  0  0  0  0  0
   -4.3842   21.2422  -32.6065 H   0  0  0  0  0  0  0  0  0  0  0  0
   -6.3950   20.4710  -32.8470 C   0  0  0  0  0  0  0  0  0  0  0  0
   -6.1060   19.7562  -33.6315 H   0  0  0  0  0  0  0  0  0  0  0  0
   -7.7250   20.5460  -32.4280 C   0  0  0  0  0  0  0  0  0  0  0  0
   -8.4830   19.8922  -32.8840 H   0  0  0  0  0  0  0  0  0  0  0  0
   -8.0930   21.4520  -31.4290 C   0  0  0  0  0  0  0  0  0  0  0  0
   -9.1404   21.5091  -31.0979 H   0  0  0  0  0  0  0  0  0  0  0  0
   -7.1310   22.2860  -30.8500 C   0  0  0  0  0  0  0  0  0  0  0  0
   -7.4254   22.9993  -30.0661 H   0  0  0  0  0  0  0  0  0  0  0  0
  1  2  1  0
  2  3  1  0
  3  4  1  0
  4  5  1  0
  5  6  2  0
  6  7  1  0
  7  8  2  0
  7  9  1  0
  9 10  2  0
 10 11  1  0
 10 12  1  0
 12 13  1  0
 12 14  2  0
 14 15  1  0
 14 16  1  0
 16 17  1  0
 16 18  2  0
 18 19  1  0
  5 20  1  0
 20 21  1  0
 21 22  2  0
 21 23  1  0
 23 24  1  0
 24 25  2  0
 25 26  1  0
 25 27  1  0
 27 28  1  0
 27 29  2  0
 29 30  1  0
 29 31  1  0
 31 32  1  0
 31 33  2  0
 33 34  1  0
 23  3  2  0
 33 24  1  0
 18  9  1  0
M  CHG  2   4  -1  20  -1
M  END
>  <UniqueID>  (34) 
32

>  <SMILES>  (34) 
O=C(/N=c1\[n-]c(O)c(-c2ccccc2)c(=O)[n-]1)c1ccccc1

>  <Energy>  (34) 
48.68731650518702

>  <Genealogy>  (34) 
O=C(N=c1[n-]c(O)c(-c2ccccc2)c(=O)[n-]1)c1ccccc1 (protonated)
O=C(/N=c1\[n-]c(O)c(-c2ccccc2)c(=O)[n-]1)c1ccccc1 (cis-trans isomerization)
O=C(/N=c1\[n-]c(O)c(-c2ccccc2)c(=O)[n-]1)c1ccccc1 (3D coordinates assigned)
O=C(/N=c1\[n-]c(O)c(-c2ccccc2)c(=O)[n-]1)c1ccccc1 (optimized conformer: 48.68731650518702 kcal/mol)

>  <smiles>  (34) 
O=C(N=c1[nH]c(O)c(-c2ccccc2)c(=O)[nH]1)c1ccccc1

>  <score_type>  (34) 
oracle

>  <origin>  (34) 
adgpu

>  <m_score__min__energy>  (34) 
-10.779999999999999

>  <m_primary>  (34) 
energy

$$$$
34:0
     RDKit          3D

 43 45  0  0  0  0  0  0  0  0999 V2000
   -0.3080   21.3210  -29.2200 N   0  0  0  0  0  0  0  0  0  0  0  0
   -1.2340   21.1880  -30.1280 C   0  0  0  0  0  0  0  0  0  0  0  0
   -2.4910   20.8260  -29.8080 N   0  0  0  0  0  0  0  0  0  0  0  0
   -3.4230   20.6970  -30.7720 C   0  0  0  0  0  0  0  0  0  0  0  0
   -3.0530   20.9470  -32.0920 C   0  0  0  0  0  0  0  0  0  0  0  0
   -4.0310   20.8220  -33.1990 C   0  0  0  0  0  0  0  0  0  0  0  0
   -4.9860   21.8980  -33.0940 N   0  0  0  0  0  0  0  0  0  0  0  0
   -6.2400   21.6190  -32.4460 C   0  0  0  0  0  0  0  0  0  0  0  0
   -6.9190   20.4530  -32.6570 C   0  0  0  0  0  0  0  0  0  0  0  0
   -8.1150   20.1540  -32.0590 C   0  0  0  0  0  0  0  0  0  0  0  0
   -8.8200   18.8710  -32.3180 C   0  0  0  0  0  0  0  0  0  0  0  0
   -9.9410   18.9940  -33.0830 F   0  0  0  0  0  0  0  0  0  0  0  0
   -9.1300   18.2950  -31.0890 F   0  0  0  0  0  0  0  0  0  0  0  0
   -7.9120   18.0000  -32.9210 F   0  0  0  0  0  0  0  0  0  0  0  0
   -8.6450   21.0950  -31.1990 C   0  0  0  0  0  0  0  0  0  0  0  0
   -8.0030   22.2940  -30.9460 C   0  0  0  0  0  0  0  0  0  0  0  0
   -6.8020   22.5370  -31.5800 C   0  0  0  0  0  0  0  0  0  0  0  0
   -5.9940   24.1100  -31.2260 S   0  0  0  0  0  0  0  0  0  0  0  0
   -4.7510   23.8830  -29.9470 C   0  0  0  0  0  0  0  0  0  0  0  0
   -4.9780   23.1060  -28.8320 C   0  0  0  0  0  0  0  0  0  0  0  0
   -3.9480   23.0060  -27.9180 C   0  0  0  0  0  0  0  0  0  0  0  0
   -2.7300   23.6470  -28.0860 C   0  0  0  0  0  0  0  0  0  0  0  0
   -1.4280   23.5190  -26.9280 Cl  0  0  0  0  0  0  0  0  0  0  0  0
   -2.5260   24.4260  -29.2210 C   0  0  0  0  0  0  0  0  0  0  0  0
   -3.5430   24.5460  -30.1600 C   0  0  0  0  0  0  0  0  0  0  0  0
   -1.7730   21.3140  -32.4090 C   0  0  0  0  0  0  0  0  0  0  0  0
   -1.3520   21.5600  -33.5910 N   0  0  0  0  0  0  0  0  0  0  0  0
   -0.8800   21.4280  -31.4020 N   0  0  0  0  0  0  0  0  0  0  0  0
    0.6670   21.6000  -29.4450 H   0  0  0  0  0  0  0  0  0  0  0  0
   -2.7130   20.6510  -28.8050 H   0  0  0  0  0  0  0  0  0  0  0  0
   -4.4527   20.4010  -30.5229 H   0  0  0  0  0  0  0  0  0  0  0  0
   -3.5076   20.8841  -34.1645 H   0  0  0  0  0  0  0  0  0  0  0  0
   -4.5483   19.8533  -33.1354 H   0  0  0  0  0  0  0  0  0  0  0  0
   -4.8230   22.8620  -33.4590 H   0  0  0  0  0  0  0  0  0  0  0  0
   -6.4820   19.7137  -33.3444 H   0  0  0  0  0  0  0  0  0  0  0  0
   -9.6035   20.8858  -30.7016 H   0  0  0  0  0  0  0  0  0  0  0  0
   -8.4383   23.0336  -30.2579 H   0  0  0  0  0  0  0  0  0  0  0  0
   -5.9364   22.5888  -28.6771 H   0  0  0  0  0  0  0  0  0  0  0  0
   -4.1001   22.3917  -27.0183 H   0  0  0  0  0  0  0  0  0  0  0  0
   -1.5670   24.9427  -29.3735 H   0  0  0  0  0  0  0  0  0  0  0  0
   -3.3967   25.1579  -31.0623 H   0  0  0  0  0  0  0  0  0  0  0  0
   -1.9280   21.5130  -34.4610 H   0  0  0  0  0  0  0  0  0  0  0  0
    0.1060   21.7070  -31.6150 H   0  0  0  0  0  0  0  0  0  0  0  0
  1  2  2  3
  2  3  1  0
  3  4  1  0
  4  5  2  0
  5  6  1  0
  6  7  1  0
  7  8  1  0
  8  9  2  0
  9 10  1  0
 10 11  1  0
 11 12  1  0
 11 13  1  0
 11 14  1  0
 10 15  2  0
 15 16  1  0
 16 17  2  0
 17 18  1  0
 18 19  1  0
 19 20  2  0
 20 21  1  0
 21 22  2  0
 22 23  1  0
 22 24  1  0
 24 25  2  0
  5 26  1  0
 26 27  2  3
 26 28  1  0
 28  2  1  0
 17  8  1  0
 25 19  1  0
  1 29  1  0
  3 30  1  0
  4 31  1  0
  6 32  1  0
  6 33  1  0
  7 34  1  0
  9 35  1  0
 15 36  1  0
 16 37  1  0
 20 38  1  0
 21 39  1  0
 24 40  1  0
 25 41  1  0
 27 42  1  0
 28 43  1  0
M  END
>  <smiles>  (35) 
N=c1[nH]cc(CNc2cc(C(F)(F)F)ccc2Sc2ccc(Cl)cc2)c(=N)[nH]1

>  <score_type>  (35) 
oracle

>  <origin>  (35) 
adgpu

>  <m_score__min__energy>  (35) 
-8.0999999999999996

>  <m_primary>  (35) 
energy

$$$$
35:0
     RDKit          3D

 40 43  0  0  0  0  0  0  0  0999 V2000
   -7.4180   17.8390  -32.3000 C   0  0  0  0  0  0  0  0  0  0  0  0
   -8.5360   18.6670  -32.0020 O   0  0  0  0  0  0  0  0  0  0  0  0
   -8.3730   20.0440  -31.9450 C   0  0  0  0  0  0  0  0  0  0  0  0
   -9.5320   20.8150  -32.0740 C   0  0  0  0  0  0  0  0  0  0  0  0
   -9.4030   22.1840  -32.0220 C   0  0  0  0  0  0  0  0  0  0  0  0
   -8.1580   22.7570  -31.8460 C   0  0  0  0  0  0  0  0  0  0  0  0
   -6.9990   22.0320  -31.7150 C   0  0  0  0  0  0  0  0  0  0  0  0
   -5.6790   22.5500  -31.5310 C   0  0  0  0  0  0  0  0  0  0  0  0
   -4.6270   21.7620  -32.0300 C   0  0  0  0  0  0  0  0  0  0  0  0
   -3.3120   22.1000  -31.8730 C   0  0  0  0  0  0  0  0  0  0  0  0
   -2.1910   21.3150  -32.3720 C   0  0  0  0  0  0  0  0  0  0  0  0
   -2.3400   20.6450  -33.5680 C   0  0  0  0  0  0  0  0  0  0  0  0
   -1.3220   19.8700  -34.1190 C   0  0  0  0  0  0  0  0  0  0  0  0
   -0.0980   19.7580  -33.4480 C   0  0  0  0  0  0  0  0  0  0  0  0
    0.0100   20.4430  -32.2560 C   0  0  0  0  0  0  0  0  0  0  0  0
   -0.9860   21.2000  -31.7170 C   0  0  0  0  0  0  0  0  0  0  0  0
   -3.0210   23.2370  -31.2150 N   0  0  0  0  0  0  0  0  0  0  0  0
   -4.0080   24.0270  -30.7190 C   0  0  0  0  0  0  0  0  0  0  0  0
   -3.9540   25.1850  -30.0540 N   0  0  0  0  0  0  0  0  0  0  0  0
   -5.1850   25.5690  -29.7990 N   0  0  0  0  0  0  0  0  0  0  0  0
   -6.0820   24.6760  -30.2890 C   0  0  0  0  0  0  0  0  0  0  0  0
   -7.3300   24.8560  -30.1760 N   0  0  0  0  0  0  0  0  0  0  0  0
   -5.3390   23.6990  -30.8680 C   0  0  0  0  0  0  0  0  0  0  0  0
   -7.1430   20.6410  -31.7710 C   0  0  0  0  0  0  0  0  0  0  0  0
   -6.9553   17.4963  -31.3627 H   0  0  0  0  0  0  0  0  0  0  0  0
   -7.7517   16.9685  -32.8838 H   0  0  0  0  0  0  0  0  0  0  0  0
   -6.6826   18.4120  -32.8838 H   0  0  0  0  0  0  0  0  0  0  0  0
  -10.5156   20.3424  -32.2126 H   0  0  0  0  0  0  0  0  0  0  0  0
  -10.2926   22.8234  -32.1207 H   0  0  0  0  0  0  0  0  0  0  0  0
   -8.0915   23.8544  -31.8088 H   0  0  0  0  0  0  0  0  0  0  0  0
   -4.8724   20.8351  -32.5691 H   0  0  0  0  0  0  0  0  0  0  0  0
   -3.2962   20.7253  -34.1058 H   0  0  0  0  0  0  0  0  0  0  0  0
   -1.4786   19.3493  -35.0752 H   0  0  0  0  0  0  0  0  0  0  0  0
    0.7313   19.1570  -33.8494 H   0  0  0  0  0  0  0  0  0  0  0  0
    0.9601   20.3738  -31.7059 H   0  0  0  0  0  0  0  0  0  0  0  0
   -0.8275   21.7185  -30.7599 H   0  0  0  0  0  0  0  0  0  0  0  0
   -3.0550   25.6750  -29.7950 H   0  0  0  0  0  0  0  0  0  0  0  0
   -5.4040   26.4490  -29.2860 H   0  0  0  0  0  0  0  0  0  0  0  0
   -8.1160   24.3110  -30.4740 H   0  0  0  0  0  0  0  0  0  0  0  0
   -6.2497   20.0066  -31.6734 H   0  0  0  0  0  0  0  0  0  0  0  0
  1  2  1  0
  2  3  1  0
  3  4  2  0
  4  5  1  0
  5  6  2  0
  6  7  1  0
  7  8  1  0
  8  9  2  0
  9 10  1  0
 10 11  1  0
 11 12  2  0
 12 13  1  0
 13 14  2  0
 14 15  1  0
 15 16  2  0
 10 17  2  0
 17 18  1  0
 18 19  1  0
 19 20  1  0
 20 21  1  0
 21 22  2  3
 21 23  1  0
  7 24  2  0
 24  3  1  0
 23  8  1  0
 16 11  1  0
 23 18  2  0
  1 25  1  0
  1 26  1  0
  1 27  1  0
  4 28  1  0
  5 29  1  0
  6 30  1  0
  9 31  1  0
 12 32  1  0
 13 33  1  0
 14 34  1  0
 15 35  1  0
 16 36  1  0
 19 37  1  0
 20 38  1  0
 22 39  1  0
 24 40  1  0
M  END
>  <smiles>  (36) 
COc1cccc(-c2cc(-c3ccccc3)nc3[nH][nH]c(=N)c23)c1

>  <score_type>  (36) 
oracle

>  <origin>  (36) 
adgpu

>  <m_score__min__energy>  (36) 
-9.0199999999999996

>  <m_primary>  (36) 
energy

$$$$
36:0
     RDKit          3D

 28 29  0  0  0  0  0  0  0  0999 V2000
   -6.5290   25.3050  -29.7110 C   0  0  0  0  0  0  0  0  0  0  0  0
   -5.7050   24.8410  -30.9030 C   0  0  0  0  0  0  0  0  0  0  0  0
   -4.1010   24.1870  -30.3350 S   0  0  0  0  0  0  0  0  0  0  0  0
   -4.2100   22.7230  -31.3560 C   0  0  0  0  0  0  0  0  0  0  0  0
   -3.1290   22.3060  -32.0610 N   0  0  0  0  0  0  0  0  0  0  0  0
   -3.1870   21.2010  -32.8470 C   0  0  0  0  0  0  0  0  0  0  0  0
   -1.7480   20.7350  -33.7450 Cl  0  0  0  0  0  0  0  0  0  0  0  0
   -4.3810   20.4660  -32.9360 C   0  0  0  0  0  0  0  0  0  0  0  0
   -4.4700   19.3340  -33.8300 C   0  0  0  0  0  0  0  0  0  0  0  0
   -4.5420   18.4280  -34.5460 N   0  0  0  0  0  0  0  0  0  0  0  0
   -5.4920   20.9060  -32.1820 C   0  0  0  0  0  0  0  0  0  0  0  0
   -6.7960   20.2050  -32.1930 C   0  0  0  0  0  0  0  0  0  0  0  0
   -7.9820   20.9400  -32.3540 C   0  0  0  0  0  0  0  0  0  0  0  0
   -9.2230   20.2940  -32.3410 C   0  0  0  0  0  0  0  0  0  0  0  0
   -9.2890   18.9100  -32.1540 C   0  0  0  0  0  0  0  0  0  0  0  0
   -8.1170   18.1730  -31.9730 C   0  0  0  0  0  0  0  0  0  0  0  0
   -6.8750   18.8150  -31.9850 C   0  0  0  0  0  0  0  0  0  0  0  0
   -5.3740   22.0290  -31.4230 N   0  0  0  0  0  0  0  0  0  0  0  0
   -6.0196   25.0182  -28.7792 H   0  0  0  0  0  0  0  0  0  0  0  0
   -6.6409   26.3987  -29.7460 H   0  0  0  0  0  0  0  0  0  0  0  0
   -7.5222   24.8335  -29.7460 H   0  0  0  0  0  0  0  0  0  0  0  0
   -6.2517   24.0507  -31.4384 H   0  0  0  0  0  0  0  0  0  0  0  0
   -5.5297   25.6941  -31.5750 H   0  0  0  0  0  0  0  0  0  0  0  0
   -7.9349   22.0304  -32.4912 H   0  0  0  0  0  0  0  0  0  0  0  0
  -10.1469   20.8751  -32.4779 H   0  0  0  0  0  0  0  0  0  0  0  0
  -10.2645   18.4016  -32.1495 H   0  0  0  0  0  0  0  0  0  0  0  0
   -8.1709   17.0849  -31.8206 H   0  0  0  0  0  0  0  0  0  0  0  0
   -5.9554   18.2313  -31.8312 H   0  0  0  0  0  0  0  0  0  0  0  0
  1  2  1  0
  2  3  1  0
  3  4  1  0
  4  5  2  0
  5  6  1  0
  6  7  1  0
  6  8  2  0
  8  9  1  0
  9 10  3  0
  8 11  1  0
 11 12  1  0
 12 13  2  0
 13 14  1  0
 14 15  2  0
 15 16  1  0
 16 17  2  0
 11 18  2  0
 18  4  1  0
 17 12  1  0
  1 19  1  0
  1 20  1  0
  1 21  1  0
  2 22  1  0
  2 23  1  0
 13 24  1  0
 14 25  1  0
 15 26  1  0
 16 27  1  0
 17 28  1  0
M  END
>  <UniqueID>  (37) 
33

>  <SMILES>  (37) 
CCSc1nc(Cl)c(C#N)c(-c2ccccc2)n1

>  <Energy>  (37) 
29.631573870677517

>  <Genealogy>  (37) 
CCSc1nc(Cl)c(C#N)c(-c2ccccc2)n1 (3D coordinates assigned)
CCSc1nc(Cl)c(C#N)c(-c2ccccc2)n1 (optimized conformer: 29.631573870677517 kcal/mol)

>  <smiles>  (37) 
CCSc1nc(Cl)c(C#N)c(-c2ccccc2)n1

>  <score_type>  (37) 
oracle

>  <origin>  (37) 
adgpu

>  <m_score__min__energy>  (37) 
-7.2999999999999998

>  <m_primary>  (37) 
energy

$$$$
37:0
     RDKit          3D

 50 52  0  0  0  0  0  0  0  0999 V2000
    0.3110   23.9790  -24.9120 C   0  0  0  0  0  0  0  0  0  0  0  0
    0.1510   23.9860  -26.3300 O   0  0  0  0  0  0  0  0  0  0  0  0
   -1.0890   24.0170  -26.9860 C   0  0  0  0  0  0  0  0  0  0  0  0
   -2.1750   24.6050  -26.3300 C   0  0  0  0  0  0  0  0  0  0  0  0
   -3.4310   24.6630  -26.9410 C   0  0  0  0  0  0  0  0  0  0  0  0
   -3.6270   24.1060  -28.2180 C   0  0  0  0  0  0  0  0  0  0  0  0
   -4.9010   24.1630  -28.8830 N   0  0  0  0  0  0  0  0  0  0  0  0
   -5.1040   24.6560  -30.2180 C   0  0  0  0  0  0  0  0  0  0  0  0
   -4.1790   25.2500  -30.8350 O   0  0  0  0  0  0  0  0  0  0  0  0
   -6.4610   24.5650  -30.8440 C   0  0  0  0  0  0  0  0  0  0  0  0
   -6.6810   23.1830  -31.3830 C   0  0  0  0  0  0  0  0  0  0  0  0
   -5.7220   22.2220  -31.3080 N   0  0  0  0  0  0  0  0  0  0  0  0
   -6.3480   21.1300  -31.7820 C   0  0  0  0  0  0  0  0  0  0  0  0
   -5.8300   19.8420  -31.8960 C   0  0  0  0  0  0  0  0  0  0  0  0
   -6.6840   18.8260  -32.3740 C   0  0  0  0  0  0  0  0  0  0  0  0
   -6.0850   17.1750  -32.5410 S   0  0  0  0  0  0  0  0  0  0  0  0
   -5.7900   16.6160  -31.1780 O   0  0  0  0  0  0  0  0  0  0  0  0
   -7.1530   16.3240  -33.1690 O   0  0  0  0  0  0  0  0  0  0  0  0
   -4.6410   17.1110  -33.5220 N   0  0  0  0  0  0  0  0  0  0  0  0
   -4.8730   17.8120  -34.7940 C   0  0  0  0  0  0  0  0  0  0  0  0
   -4.2710   15.7130  -33.7770 C   0  0  0  0  0  0  0  0  0  0  0  0
   -8.0250   19.1320  -32.7160 C   0  0  0  0  0  0  0  0  0  0  0  0
   -8.5170   20.4440  -32.5850 C   0  0  0  0  0  0  0  0  0  0  0  0
   -7.6370   21.4230  -32.1170 C   0  0  0  0  0  0  0  0  0  0  0  0
   -7.8640   22.7270  -31.8840 N   0  0  0  0  0  0  0  0  0  0  0  0
   -9.1410   23.4330  -31.9790 C   0  0  0  0  0  0  0  0  0  0  0  0
   -2.5320   23.5350  -28.8860 C   0  0  0  0  0  0  0  0  0  0  0  0
   -1.2750   23.4860  -28.2760 C   0  0  0  0  0  0  0  0  0  0  0  0
   -0.6774   24.0222  -24.4313 H   0  0  0  0  0  0  0  0  0  0  0  0
    0.8276   23.0574  -24.6058 H   0  0  0  0  0  0  0  0  0  0  0  0
    0.9061   24.8520  -24.6058 H   0  0  0  0  0  0  0  0  0  0  0  0
   -2.0396   25.0262  -25.3229 H   0  0  0  0  0  0  0  0  0  0  0  0
   -4.2707   25.1468  -26.4205 H   0  0  0  0  0  0  0  0  0  0  0  0
   -5.7490   23.8760  -28.3390 H   0  0  0  0  0  0  0  0  0  0  0  0
   -7.2277   24.7881  -30.0874 H   0  0  0  0  0  0  0  0  0  0  0  0
   -6.5301   25.2909  -31.6676 H   0  0  0  0  0  0  0  0  0  0  0  0
   -4.7873   19.6239  -31.6218 H   0  0  0  0  0  0  0  0  0  0  0  0
   -5.2126   18.8383  -34.5904 H   0  0  0  0  0  0  0  0  0  0  0  0
   -3.9373   17.8432  -35.3714 H   0  0  0  0  0  0  0  0  0  0  0  0
   -5.6426   17.2788  -35.3714 H   0  0  0  0  0  0  0  0  0  0  0  0
   -4.1325   15.1898  -32.8193 H   0  0  0  0  0  0  0  0  0  0  0  0
   -5.0699   15.2212  -34.3513 H   0  0  0  0  0  0  0  0  0  0  0  0
   -3.3334   15.6808  -34.3513 H   0  0  0  0  0  0  0  0  0  0  0  0
   -8.6876   18.3363  -33.0874 H   0  0  0  0  0  0  0  0  0  0  0  0
   -9.5579   20.6900  -32.8421 H   0  0  0  0  0  0  0  0  0  0  0  0
   -9.5202   23.6426  -30.9679 H   0  0  0  0  0  0  0  0  0  0  0  0
   -8.9972   24.3798  -32.5203 H   0  0  0  0  0  0  0  0  0  0  0  0
   -9.8663   22.8077  -32.5203 H   0  0  0  0  0  0  0  0  0  0  0  0
   -2.6642   23.1229  -29.8973 H   0  0  0  0  0  0  0  0  0  0  0  0
   -0.4266   23.0299  -28.8073 H   0  0  0  0  0  0  0  0  0  0  0  0
  1  2  1  0
  2  3  1  0
  3  4  2  0
  4  5  1  0
  5  6  2  0
  6  7  1  0
  7  8  1  0
  8  9  2  0
  8 10  1  0
 10 11  1  0
 11 12  2  0
 12 13  1  0
 13 14  2  0
 14 15  1  0
 15 16  1  0
 16 17  2  0
 16 18  2  0
 16 19  1  0
 19 20  1  0
 19 21  1  0
 15 22  2  0
 22 23  1  0
 23 24  2  0
 24 25  1  0
 25 26  1  0
  6 27  1  0
 27 28  2  0
 28  3  1  0
 25 11  1  0
 24 13  1  0
  1 29  1  0
  1 30  1  0
  1 31  1  0
  4 32  1  0
  5 33  1  0
  7 34  1  0
 10 35  1  0
 10 36  1  0
 14 37  1  0
 20 38  1  0
 20 39  1  0
 20 40  1  0
 21 41  1  0
 21 42  1  0
 21 43  1  0
 22 44  1  0
 23 45  1  0
 26 46  1  0
 26 47  1  0
 26 48  1  0
 27 49  1  0
 28 50  1  0
M  END
>  <UniqueID>  (38) 
34

>  <SMILES>  (38) 
COc1ccc(NC(=O)Cc2nc3cc(S(=O)(=O)N(C)C)ccc3n2C)cc1

>  <Energy>  (38) 
86.72768844257051

>  <Genealogy>  (38) 
COc1ccc(NC(=O)Cc2nc3cc(S(=O)(=O)N(C)C)ccc3n2C)cc1 (3D coordinates assigned)
COc1ccc(NC(=O)Cc2nc3cc(S(=O)(=O)N(C)C)ccc3n2C)cc1 (optimized conformer: 86.72768844257051 kcal/mol)

>  <smiles>  (38) 
COc1ccc(NC(=O)Cc2nc3cc(S(=O)(=O)N(C)C)ccc3n2C)cc1

>  <score_type>  (38) 
oracle

>  <origin>  (38) 
adgpu

>  <m_score__min__energy>  (38) 
-9.4800000000000004

>  <m_primary>  (38) 
energy

$$$$
38:0
     RDKit          3D

 29 30  0  0  0  0  0  0  0  0999 V2000
   -0.3740   25.9350  -25.0610 C   0  0  0  0  0  0  0  0  0  0  0  0
   -1.3660   25.3860  -26.0430 C   0  0  0  0  0  0  0  0  0  0  0  0
   -2.7380   25.4660  -25.7760 C   0  0  0  0  0  0  0  0  0  0  0  0
   -3.6620   24.9170  -26.6680 C   0  0  0  0  0  0  0  0  0  0  0  0
   -3.2310   24.2780  -27.8430 C   0  0  0  0  0  0  0  0  0  0  0  0
   -4.1920   23.6830  -28.7350 N   0  0  0  0  0  0  0  0  0  0  0  0
   -4.5480   24.2500  -30.0060 C   0  0  0  0  0  0  0  0  0  0  0  0
   -3.8870   25.2130  -30.4840 O   0  0  0  0  0  0  0  0  0  0  0  0
   -5.6690   23.6900  -30.7750 C   0  0  0  0  0  0  0  0  0  0  0  0
   -6.1540   24.1770  -31.9750 C   0  0  0  0  0  0  0  0  0  0  0  0
   -7.1980   23.3450  -32.3220 C   0  0  0  0  0  0  0  0  0  0  0  0
   -7.2820   22.4080  -31.3130 C   0  0  0  0  0  0  0  0  0  0  0  0
   -8.5420   20.9810  -31.2260 Br  0  0  0  0  0  0  0  0  0  0  0  0
   -6.3610   22.6360  -30.4060 O   0  0  0  0  0  0  0  0  0  0  0  0
   -1.8450   24.1770  -28.1070 C   0  0  0  0  0  0  0  0  0  0  0  0
   -1.3400   23.4770  -29.3390 C   0  0  0  0  0  0  0  0  0  0  0  0
   -0.9250   24.7230  -27.1960 C   0  0  0  0  0  0  0  0  0  0  0  0
   -0.7256   25.7404  -24.0370 H   0  0  0  0  0  0  0  0  0  0  0  0
    0.6004   25.4478  -25.2129 H   0  0  0  0  0  0  0  0  0  0  0  0
   -0.2694   27.0194  -25.2129 H   0  0  0  0  0  0  0  0  0  0  0  0
   -3.0897   25.9632  -24.8600 H   0  0  0  0  0  0  0  0  0  0  0  0
   -4.7377   24.9855  -26.4486 H   0  0  0  0  0  0  0  0  0  0  0  0
   -4.6100   22.7620  -28.4740 H   0  0  0  0  0  0  0  0  0  0  0  0
   -5.7839   25.0475  -32.5365 H   0  0  0  0  0  0  0  0  0  0  0  0
   -7.8324   23.4143  -33.2180 H   0  0  0  0  0  0  0  0  0  0  0  0
   -0.7200   22.6175  -29.0442 H   0  0  0  0  0  0  0  0  0  0  0  0
   -2.1938   23.1253  -29.9368 H   0  0  0  0  0  0  0  0  0  0  0  0
   -0.7370   24.1763  -29.9368 H   0  0  0  0  0  0  0  0  0  0  0  0
    0.1536   24.6289  -27.3902 H   0  0  0  0  0  0  0  0  0  0  0  0
  1  2  1  0
  2  3  2  0
  3  4  1  0
  4  5  2  0
  5  6  1  0
  6  7  1  0
  7  8  2  0
  7  9  1  0
  9 10  2  0
 10 11  1  0
 11 12  2  0
 12 13  1  0
 12 14  1  0
  5 15  1  0
 15 16  1  0
 15 17  2  0
 17  2  1  0
 14  9  1  0
  1 18  1  0
  1 19  1  0
  1 20  1  0
  3 21  1  0
  4 22  1  0
  6 23  1  0
 10 24  1  0
 11 25  1  0
 16 26  1  0
 16 27  1  0
 16 28  1  0
 17 29  1  0
M  END
>  <UniqueID>  (39) 
35

>  <SMILES>  (39) 
Cc1ccc(NC(=O)c2ccc(Br)o2)c(C)c1

>  <Energy>  (39) 
57.51837620232632

>  <Genealogy>  (39) 
Cc1ccc(NC(=O)c2ccc(Br)o2)c(C)c1 (3D coordinates assigned)
Cc1ccc(NC(=O)c2ccc(Br)o2)c(C)c1 (optimized conformer: 57.51837620232632 kcal/mol)

>  <smiles>  (39) 
Cc1ccc(NC(=O)c2ccc(Br)o2)c(C)c1

>  <score_type>  (39) 
oracle

>  <origin>  (39) 
adgpu

>  <m_score__min__energy>  (39) 
-6.7800000000000002

>  <m_primary>  (39) 
energy

$$$$
39:0
     RDKit          3D

 43 46  0  0  0  0  0  0  0  0999 V2000
   -2.3980   24.5490  -28.9890 C   0  0  0  0  0  0  0  0  0  0  0  0
   -3.2970   25.2310  -29.8570 O   0  0  0  0  0  0  0  0  0  0  0  0
   -4.6200   24.8330  -30.0970 C   0  0  0  0  0  0  0  0  0  0  0  0
   -5.7210   25.6630  -29.8110 C   0  0  0  0  0  0  0  0  0  0  0  0
   -7.0210   25.2180  -30.0660 C   0  0  0  0  0  0  0  0  0  0  0  0
   -7.2370   23.9510  -30.6100 C   0  0  0  0  0  0  0  0  0  0  0  0
   -6.1490   23.1160  -30.9170 C   0  0  0  0  0  0  0  0  0  0  0  0
   -6.3580   21.7670  -31.4870 C   0  0  0  0  0  0  0  0  0  0  0  0
   -7.3410   20.9310  -31.0680 N   0  0  0  0  0  0  0  0  0  0  0  0
   -7.1890   19.8390  -31.8470 C   0  0  0  0  0  0  0  0  0  0  0  0
   -7.9520   18.6760  -31.7760 C   0  0  0  0  0  0  0  0  0  0  0  0
   -7.6130   17.6190  -32.6350 C   0  0  0  0  0  0  0  0  0  0  0  0
   -6.5280   17.7450  -33.5260 C   0  0  0  0  0  0  0  0  0  0  0  0
   -6.0910   16.4160  -34.5830 Cl  0  0  0  0  0  0  0  0  0  0  0  0
   -5.7950   18.9410  -33.5560 C   0  0  0  0  0  0  0  0  0  0  0  0
   -6.1720   19.9430  -32.7200 N   0  0  0  0  0  0  0  0  0  0  0  0
   -5.6390   21.1560  -32.5100 C   0  0  0  0  0  0  0  0  0  0  0  0
   -4.4170   21.6090  -33.1060 N   0  0  0  0  0  0  0  0  0  0  0  0
   -3.1960   20.8170  -32.9990 C   0  0  0  0  0  0  0  0  0  0  0  0
   -2.5320   21.0860  -31.6780 C   0  0  0  0  0  0  0  0  0  0  0  0
   -1.2180   21.5710  -31.6310 C   0  0  0  0  0  0  0  0  0  0  0  0
   -0.5960   21.7530  -30.3920 C   0  0  0  0  0  0  0  0  0  0  0  0
   -1.2590   21.4460  -29.2450 N   0  0  0  0  0  0  0  0  0  0  0  0
   -2.5290   20.9610  -29.2630 C   0  0  0  0  0  0  0  0  0  0  0  0
   -3.1870   20.7670  -30.4790 C   0  0  0  0  0  0  0  0  0  0  0  0
   -4.8450   23.5630  -30.6420 C   0  0  0  0  0  0  0  0  0  0  0  0
   -2.6702   24.7555  -27.9434 H   0  0  0  0  0  0  0  0  0  0  0  0
   -2.4574   23.4667  -29.1765 H   0  0  0  0  0  0  0  0  0  0  0  0
   -1.3717   24.8978  -29.1765 H   0  0  0  0  0  0  0  0  0  0  0  0
   -5.5574   26.6642  -29.3858 H   0  0  0  0  0  0  0  0  0  0  0  0
   -7.8776   25.8690  -29.8370 H   0  0  0  0  0  0  0  0  0  0  0  0
   -8.2636   23.6043  -30.7994 H   0  0  0  0  0  0  0  0  0  0  0  0
   -8.7917   18.5888  -31.0708 H   0  0  0  0  0  0  0  0  0  0  0  0
   -8.1972   16.6872  -32.6128 H   0  0  0  0  0  0  0  0  0  0  0  0
   -4.9398   19.0637  -34.2368 H   0  0  0  0  0  0  0  0  0  0  0  0
   -4.4900   22.2550  -33.9230 H   0  0  0  0  0  0  0  0  0  0  0  0
   -3.4459   19.7482  -33.0717 H   0  0  0  0  0  0  0  0  0  0  0  0
   -2.5105   21.0924  -33.8141 H   0  0  0  0  0  0  0  0  0  0  0  0
   -0.6803   21.8066  -32.5613 H   0  0  0  0  0  0  0  0  0  0  0  0
    0.4307   22.1449  -30.3450 H   0  0  0  0  0  0  0  0  0  0  0  0
   -3.0388   20.7211  -28.3182 H   0  0  0  0  0  0  0  0  0  0  0  0
   -4.2115   20.3670  -30.4969 H   0  0  0  0  0  0  0  0  0  0  0  0
   -3.9895   22.9061  -30.8579 H   0  0  0  0  0  0  0  0  0  0  0  0
  1  2  1  0
  2  3  1  0
  3  4  2  0
  4  5  1  0
  5  6  2  0
  6  7  1  0
  7  8  1  0
  8  9  1  0
  9 10  2  0
 10 11  1  0
 11 12  2  0
 12 13  1  0
 13 14  1  0
 13 15  2  0
 15 16  1  0
 16 17  1  0
 17 18  1  0
 18 19  1  0
 19 20  1  0
 20 21  2  0
 21 22  1  0
 22 23  2  0
 23 24  1  0
 24 25  2  0
  7 26  2  0
 26  3  1  0
 17  8  2  0
 25 20  1  0
 16 10  1  0
  1 27  1  0
  1 28  1  0
  1 29  1  0
  4 30  1  0
  5 31  1  0
  6 32  1  0
 11 33  1  0
 12 34  1  0
 15 35  1  0
 18 36  1  0
 19 37  1  0
 19 38  1  0
 21 39  1  0
 22 40  1  0
 24 41  1  0
 25 42  1  0
 26 43  1  0
M  END
>  <UniqueID>  (40) 
36

>  <SMILES>  (40) 
COc1cccc(-c2nc3ccc(Cl)cn3c2NCc2ccncc2)c1

>  <Energy>  (40) 
87.66853592186845

>  <Genealogy>  (40) 
COc1cccc(-c2nc3ccc(Cl)cn3c2NCc2ccncc2)c1 (3D coordinates assigned)
COc1cccc(-c2nc3ccc(Cl)cn3c2NCc2ccncc2)c1 (optimized conformer: 87.66853592186845 kcal/mol)

>  <smiles>  (40) 
COc1cccc(-c2nc3ccc(Cl)cn3c2NCc2ccncc2)c1

>  <score_type>  (40) 
oracle

>  <origin>  (40) 
adgpu

>  <m_score__min__energy>  (40) 
-8.8100000000000005

>  <m_primary>  (40) 
energy

$$$$
40:0
     RDKit          3D

 38 39  0  0  0  0  0  0  0  0999 V2000
   -0.8530   26.3640  -23.9340 C   0  0  0  0  0  0  0  0  0  0  0  0
   -1.5680   26.7670  -25.2240 C   0  0  0  0  0  0  0  0  0  0  0  0
   -0.6010   26.9100  -26.4080 C   0  0  0  0  0  0  0  0  0  0  0  0
   -0.8290   25.6300  -27.6400 S   0  0  0  0  0  0  0  0  0  0  0  0
   -1.2520   26.2540  -28.9400 O   0  0  0  0  0  0  0  0  0  0  0  0
    0.4830   24.9320  -27.8580 O   0  0  0  0  0  0  0  0  0  0  0  0
   -1.9990   24.4460  -27.1500 N   0  0  0  0  0  0  0  0  0  0  0  0
   -3.3800   24.4310  -27.5290 C   0  0  0  0  0  0  0  0  0  0  0  0
   -4.2420   24.7650  -26.6750 O   0  0  0  0  0  0  0  0  0  0  0  0
   -3.8280   24.0630  -28.8840 C   0  0  0  0  0  0  0  0  0  0  0  0
   -3.9580   24.9280  -29.9470 C   0  0  0  0  0  0  0  0  0  0  0  0
   -4.3260   24.2320  -31.0350 N   0  0  0  0  0  0  0  0  0  0  0  0
   -4.3960   22.9540  -30.6020 C   0  0  0  0  0  0  0  0  0  0  0  0
   -4.7530   21.8210  -31.4850 C   0  0  0  0  0  0  0  0  0  0  0  0
   -6.0780   21.3550  -31.5500 C   0  0  0  0  0  0  0  0  0  0  0  0
   -6.4130   20.2840  -32.3840 C   0  0  0  0  0  0  0  0  0  0  0  0
   -5.4300   19.6670  -33.1670 C   0  0  0  0  0  0  0  0  0  0  0  0
   -5.8490   18.3070  -34.2050 S   0  0  0  0  0  0  0  0  0  0  0  0
   -7.2510   17.5110  -33.5820 N   0  0  0  0  0  0  0  0  0  0  0  0
   -4.7040   17.3350  -34.2590 O   0  0  0  0  0  0  0  0  0  0  0  0
   -6.1300   18.7980  -35.5970 O   0  0  0  0  0  0  0  0  0  0  0  0
   -4.1060   20.1180  -33.0980 C   0  0  0  0  0  0  0  0  0  0  0  0
   -3.7690   21.1870  -32.2630 C   0  0  0  0  0  0  0  0  0  0  0  0
   -4.0920   22.8110  -29.2930 N   0  0  0  0  0  0  0  0  0  0  0  0
   -1.4438   26.6970  -23.0679 H   0  0  0  0  0  0  0  0  0  0  0  0
   -0.7414   25.2701  -23.9030 H   0  0  0  0  0  0  0  0  0  0  0  0
    0.1406   26.8350  -23.9030 H   0  0  0  0  0  0  0  0  0  0  0  0
   -2.3153   25.9979  -25.4689 H   0  0  0  0  0  0  0  0  0  0  0  0
   -2.0389   27.7466  -25.0549 H   0  0  0  0  0  0  0  0  0  0  0  0
   -0.7662   27.8889  -26.8819 H   0  0  0  0  0  0  0  0  0  0  0  0
    0.4226   26.8174  -26.0160 H   0  0  0  0  0  0  0  0  0  0  0  0
   -3.7879   26.0142  -29.9110 H   0  0  0  0  0  0  0  0  0  0  0  0
   -6.8567   21.8365  -30.9403 H   0  0  0  0  0  0  0  0  0  0  0  0
   -7.4520   19.9251  -32.4251 H   0  0  0  0  0  0  0  0  0  0  0  0
   -7.0610   17.3040  -32.5750 H   0  0  0  0  0  0  0  0  0  0  0  0
   -8.0310   18.2050  -33.6040 H   0  0  0  0  0  0  0  0  0  0  0  0
   -3.3284   19.6291  -33.7032 H   0  0  0  0  0  0  0  0  0  0  0  0
   -2.7265   21.5345  -32.2144 H   0  0  0  0  0  0  0  0  0  0  0  0
  1  2  1  0
  2  3  1  0
  3  4  1  0
  4  5  2  0
  4  6  2  0
  4  7  1  0
  7  8  1  0
  8  9  2  0
  8 10  1  0
 10 11  2  0
 11 12  1  0
 12 13  2  0
 13 14  1  0
 14 15  2  0
 15 16  1  0
 16 17  2  0
 17 18  1  0
 18 19  1  0
 18 20  2  0
 18 21  2  0
 17 22  1  0
 22 23  2  0
 13 24  1  0
 24 10  1  0
 23 14  1  0
  1 25  1  0
  1 26  1  0
  1 27  1  0
  2 28  1  0
  2 29  1  0
  3 30  1  0
  3 31  1  0
 11 32  1  0
 15 33  1  0
 16 34  1  0
 19 35  1  0
 19 36  1  0
 22 37  1  0
 23 38  1  0
M  CHG  2   7  -1  24  -1
M  END
>  <UniqueID>  (41) 
37

>  <SMILES>  (41) 
CCCS(=O)(=O)[N-]C(=O)c1cnc(-c2ccc(S(N)(=O)=O)cc2)[n-]1

>  <Energy>  (41) 
61.90055270787485

>  <Genealogy>  (41) 
CCCS(=O)(=O)[N-]C(=O)c1cnc(-c2ccc(S(N)(=O)=O)cc2)[n-]1 (protonated)
CCCS(=O)(=O)[N-]C(=O)c1cnc(-c2ccc(S(N)(=O)=O)cc2)[n-]1 (3D coordinates assigned)
CCCS(=O)(=O)[N-]C(=O)c1cnc(-c2ccc(S(N)(=O)=O)cc2)[n-]1 (optimized conformer: 61.90055270787485 kcal/mol)

>  <smiles>  (41) 
CCCS(=O)(=O)NC(=O)c1cnc(-c2ccc(S(N)(=O)=O)cc2)[nH]1

>  <score_type>  (41) 
oracle

>  <origin>  (41) 
adgpu

>  <m_score__min__energy>  (41) 
-9.7300000000000004

>  <m_primary>  (41) 
energy

$$$$
41:0
     RDKit          3D

 50 52  0  0  1  0  0  0  0  0999 V2000
   -2.7080   20.0050  -27.0850 C   0  0  0  0  0  0  0  0  0  0  0  0
   -2.1310   21.0600  -27.8310 O   0  0  0  0  0  0  0  0  0  0  0  0
   -1.9900   22.3290  -27.2950 C   0  0  0  0  0  0  0  0  0  0  0  0
   -0.9460   22.5720  -26.4240 C   0  0  0  0  0  0  0  0  0  0  0  0
   -0.7790   23.8350  -25.8710 C   0  0  0  0  0  0  0  0  0  0  0  0
   -1.6810   24.8320  -26.2150 C   0  0  0  0  0  0  0  0  0  0  0  0
   -2.7330   24.6160  -27.0830 C   0  0  0  0  0  0  0  0  0  0  0  0
   -2.8830   23.3550  -27.6220 C   0  0  0  0  0  0  0  0  0  0  0  0
   -3.9210   23.0050  -28.5240 N   0  0  0  0  0  0  0  0  0  0  0  0
   -3.6780   22.4890  -29.6970 C   0  0  0  0  0  0  0  0  0  0  0  0
   -2.3910   22.2840  -30.0540 N   0  0  0  0  0  0  0  0  0  0  0  0
   -2.0670   21.7520  -31.2550 C   0  0  0  0  0  0  0  0  0  0  0  0
   -3.0930   21.4260  -32.1040 C   0  0  0  0  0  0  0  0  0  0  0  0
   -2.7240   20.7330  -33.6690 Cl  0  0  0  0  0  0  0  0  0  0  0  0
   -4.4130   21.6440  -31.7180 C   0  0  0  0  0  0  0  0  0  0  0  0
   -5.3180   21.3170  -32.5570 N   0  0  0  0  0  0  0  0  0  0  0  0
   -6.7000   21.4980  -32.2640 C   0  0  0  0  0  0  0  0  0  0  0  0
   -7.2540   22.7610  -32.2440 C   0  0  0  0  0  0  0  0  0  0  0  0
   -8.5840   23.0010  -31.9680 C   0  0  0  0  0  0  0  0  0  0  0  0
   -9.3760   21.9030  -31.7030 C   0  0  0  0  0  0  0  0  0  0  0  0
   -8.8190   20.6410  -31.7230 C   0  0  0  0  0  0  0  0  0  0  0  0
   -7.5060   20.3810  -31.9940 C   0  0  0  0  0  0  0  0  0  0  0  0
   -6.7610   18.8350  -32.0310 S   0  0  0  0  0  0  0  0  0  0  0  0
   -7.5900   17.8400  -31.2410 O   0  0  0  0  0  0  0  0  0  0  0  0
   -5.4460   18.9110  -31.3270 O   0  0  0  0  0  0  0  0  0  0  0  0
   -6.5280   18.1440  -33.6400 C   0  0  0  0  0  0  0  0  0  0  0  0
   -6.4950   16.6500  -33.6680 C   0  0  0  0  0  0  0  0  0  0  0  0
   -5.3920   18.8030  -34.3790 C   0  0  0  0  0  0  0  0  0  0  0  0
   -4.7010   22.1700  -30.5290 N   0  0  0  0  0  0  0  0  0  0  0  0
   -2.5952   20.2113  -26.0104 H   0  0  0  0  0  0  0  0  0  0  0  0
   -3.7767   19.9228  -27.3323 H   0  0  0  0  0  0  0  0  0  0  0  0
   -2.2007   19.0608  -27.3323 H   0  0  0  0  0  0  0  0  0  0  0  0
   -0.2454   21.7636  -26.1678 H   0  0  0  0  0  0  0  0  0  0  0  0
    0.0490   24.0403  -25.1765 H   0  0  0  0  0  0  0  0  0  0  0  0
   -1.5529   25.8338  -25.7790 H   0  0  0  0  0  0  0  0  0  0  0  0
   -3.4317   25.4266  -27.3375 H   0  0  0  0  0  0  0  0  0  0  0  0
   -1.5890   22.5200  -29.4340 H   0  0  0  0  0  0  0  0  0  0  0  0
   -1.0175   21.5869  -31.5402 H   0  0  0  0  0  0  0  0  0  0  0  0
   -6.6021   23.6205  -32.4591 H   0  0  0  0  0  0  0  0  0  0  0  0
   -8.9944   24.0215  -31.9596 H   0  0  0  0  0  0  0  0  0  0  0  0
  -10.4447   22.0329  -31.4772 H   0  0  0  0  0  0  0  0  0  0  0  0
   -9.4769   19.7865  -31.5060 H   0  0  0  0  0  0  0  0  0  0  0  0
   -7.4385   18.3859  -34.2079 H   0  0  0  0  0  0  0  0  0  0  0  0
   -6.4865   16.2641  -32.6380 H   0  0  0  0  0  0  0  0  0  0  0  0
   -7.3850   16.2734  -34.1933 H   0  0  0  0  0  0  0  0  0  0  0  0
   -5.5892   16.3130  -34.1933 H   0  0  0  0  0  0  0  0  0  0  0  0
   -4.6757   19.2185  -33.6550 H   0  0  0  0  0  0  0  0  0  0  0  0
   -4.8849   18.0589  -35.0107 H   0  0  0  0  0  0  0  0  0  0  0  0
   -5.7862   19.6126  -35.0107 H   0  0  0  0  0  0  0  0  0  0  0  0
   -5.6830   22.3190  -30.2720 H   0  0  0  0  0  0  0  0  0  0  0  0
  1  2  1  0
  2  3  1  0
  3  4  2  0
  4  5  1  0
  5  6  2  0
  6  7  1  0
  7  8  2  0
  8  9  1  0
  9 10  2  0
 10 11  1  0
 11 12  1  0
 12 13  2  0
 13 14  1  0
 13 15  1  0
 15 16  2  0
 16 17  1  0
 17 18  2  0
 18 19  1  0
 19 20  2  0
 20 21  1  0
 21 22  2  0
 22 23  1  0
 23 24  2  0
 23 25  2  0
 23 26  1  0
 26 27  1  0
 26 28  1  0
 15 29  1  0
  8  3  1  0
 29 10  1  0
 22 17  1  0
  1 30  1  0
  1 31  1  0
  1 32  1  0
  4 33  1  0
  5 34  1  0
  6 35  1  0
  7 36  1  0
 11 37  1  0
 12 38  1  0
 18 39  1  0
 19 40  1  0
 20 41  1  0
 21 42  1  0
 26 43  1  0
 27 44  1  0
 27 45  1  0
 27 46  1  0
 28 47  1  0
 28 48  1  0
 28 49  1  0
 29 50  1  0
M  END
>  <smiles>  (42) 
COc1ccccc1N=c1[nH]cc(Cl)c(=Nc2ccccc2S(=O)(=O)C(C)C)[nH]1

>  <score_type>  (42) 
oracle

>  <origin>  (42) 
adgpu

>  <m_score__min__energy>  (42) 
-9.2400000000000002

>  <m_primary>  (42) 
energy

$$$$
42:0
     RDKit          3D

 22 23  0  0  0  0  0  0  0  0999 V2000
   -2.6650   25.7730  -29.0160 H   0  0  0  0  0  0  0  0  0  0  0  0
   -2.7190   24.9160  -29.6110 N   0  0  0  0  0  0  0  0  0  0  0  0
   -3.8410   24.4800  -30.0890 C   0  0  0  0  0  0  0  0  0  0  0  0
   -3.8480   23.3600  -30.8550 N   0  0  0  0  0  0  0  0  0  0  0  0
   -4.9990   22.8570  -31.3770 C   0  0  0  0  0  0  0  0  0  0  0  0
   -4.9220   21.6280  -32.1940 C   0  0  0  0  0  0  0  0  0  0  0  0
   -3.8270   21.4280  -33.0510 C   0  0  0  0  0  0  0  0  0  0  0  0
   -3.0434   22.1963  -33.1270 H   0  0  0  0  0  0  0  0  0  0  0  0
   -3.7290   20.2560  -33.8080 C   0  0  0  0  0  0  0  0  0  0  0  0
   -2.8747   20.1104  -34.4855 H   0  0  0  0  0  0  0  0  0  0  0  0
   -4.7130   19.2700  -33.7060 C   0  0  0  0  0  0  0  0  0  0  0  0
   -4.6150   18.1340  -34.4400 F   0  0  0  0  0  0  0  0  0  0  0  0
   -5.7960   19.4520  -32.8410 C   0  0  0  0  0  0  0  0  0  0  0  0
   -6.5692   18.6740  -32.7578 H   0  0  0  0  0  0  0  0  0  0  0  0
   -5.8980   20.6220  -32.0810 C   0  0  0  0  0  0  0  0  0  0  0  0
   -6.7452   20.7556  -31.3922 H   0  0  0  0  0  0  0  0  0  0  0  0
   -6.2140   23.5290  -31.1370 C   0  0  0  0  0  0  0  0  0  0  0  0
   -7.7340   23.0120  -31.8720 Cl  0  0  0  0  0  0  0  0  0  0  0  0
   -6.1870   24.6830  -30.3420 C   0  0  0  0  0  0  0  0  0  0  0  0
   -7.2520   25.3130  -30.1020 O   0  0  0  0  0  0  0  0  0  0  0  0
   -5.0090   25.1320  -29.8290 N   0  0  0  0  0  0  0  0  0  0  0  0
   -5.0070   25.9940  -29.2370 H   0  0  0  0  0  0  0  0  0  0  0  0
  1  2  1  0
  2  3  2  0
  3  4  1  0
  4  5  1  0
  5  6  1  0
  6  7  2  0
  7  8  1  0
  7  9  1  0
  9 10  1  0
  9 11  2  0
 11 12  1  0
 11 13  1  0
 13 14  1  0
 13 15  2  0
 15 16  1  0
  5 17  2  0
 17 18  1  0
 17 19  1  0
 19 20  2  0
 19 21  1  0
 21 22  1  0
 21  3  1  0
 15  6  1  0
M  CHG  1   4  -1
M  END
>  <UniqueID>  (43) 
38

>  <SMILES>  (43) 
[H]/N=c1/[n-]c(-c2ccc(F)cc2)c(Cl)c(=O)[nH]1

>  <Energy>  (43) 
31.43690094438665

>  <Genealogy>  (43) 
N=c1[n-]c(-c2ccc(F)cc2)c(Cl)c(=O)[nH]1 (protonated)
[H]/N=c1/[n-]c(-c2ccc(F)cc2)c(Cl)c(=O)[nH]1 (cis-trans isomerization)
[H]/N=c1/[n-]c(-c2ccc(F)cc2)c(Cl)c(=O)[nH]1 (3D coordinates assigned)
[H]/N=c1/[n-]c(-c2ccc(F)cc2)c(Cl)c(=O)[nH]1 (optimized conformer: 31.43690094438665 kcal/mol)

>  <smiles>  (43) 
N=c1[nH]c(-c2ccc(F)cc2)c(Cl)c(=O)[nH]1

>  <score_type>  (43) 
oracle

>  <origin>  (43) 
adgpu

>  <m_score__min__energy>  (43) 
-7.7699999999999996

>  <m_primary>  (43) 
energy

$$$$
43:0
     RDKit          3D

 39 43  0  0  0  0  0  0  0  0999 V2000
   -2.7070   24.8710  -27.3840 O   0  0  0  0  0  0  0  0  0  0  0  0
   -2.6770   24.1300  -28.4020 C   0  0  0  0  0  0  0  0  0  0  0  0
   -2.9400   24.6780  -29.6900 N   0  0  0  0  0  0  0  0  0  0  0  0
   -3.1200   23.7940  -30.8420 C   0  0  2  0  0  0  0  0  0  0  0  0
   -4.5870   23.3860  -30.9490 C   0  0  0  0  0  0  0  0  0  0  0  0
   -5.5650   24.3270  -30.5230 C   0  0  0  0  0  0  0  0  0  0  0  0
   -6.9390   24.0260  -30.5720 C   0  0  0  0  0  0  0  0  0  0  0  0
   -7.3170   22.7780  -31.0520 C   0  0  0  0  0  0  0  0  0  0  0  0
   -8.5750   22.2980  -31.1770 N   0  0  0  0  0  0  0  0  0  0  0  0
   -8.4200   21.0560  -31.6840 C   0  0  0  0  0  0  0  0  0  0  0  0
   -9.4250   20.1410  -31.9950 C   0  0  0  0  0  0  0  0  0  0  0  0
   -9.0410   18.8920  -32.5150 C   0  0  0  0  0  0  0  0  0  0  0  0
   -7.6750   18.5830  -32.7120 C   0  0  0  0  0  0  0  0  0  0  0  0
   -6.6770   19.5220  -32.3910 C   0  0  0  0  0  0  0  0  0  0  0  0
   -7.0880   20.7510  -31.8790 C   0  0  0  0  0  0  0  0  0  0  0  0
   -6.3800   21.8590  -31.4720 C   0  0  0  0  0  0  0  0  0  0  0  0
   -5.0140   22.1250  -31.4390 C   0  0  0  0  0  0  0  0  0  0  0  0
   -2.1670   22.6590  -30.7810 N   0  0  0  0  0  0  0  0  0  0  0  0
   -2.1530   21.9820  -29.4980 C   0  0  0  0  0  0  0  0  0  0  0  0
   -1.8310   20.6150  -29.4280 C   0  0  0  0  0  0  0  0  0  0  0  0
   -1.7520   19.9690  -28.1910 C   0  0  0  0  0  0  0  0  0  0  0  0
   -1.9700   20.6830  -27.0110 C   0  0  0  0  0  0  0  0  0  0  0  0
   -2.2690   22.0470  -27.0620 C   0  0  0  0  0  0  0  0  0  0  0  0
   -2.3580   22.7000  -28.3010 C   0  0  0  0  0  0  0  0  0  0  0  0
   -2.8790   24.3218  -31.7765 H   0  0  0  0  0  0  0  0  0  0  0  0
   -5.2411   25.3091  -30.1480 H   0  0  0  0  0  0  0  0  0  0  0  0
   -7.6912   24.7569  -30.2402 H   0  0  0  0  0  0  0  0  0  0  0  0
   -9.4680   22.7810  -30.9350 H   0  0  0  0  0  0  0  0  0  0  0  0
  -10.4853   20.3884  -31.8385 H   0  0  0  0  0  0  0  0  0  0  0  0
   -9.8102   18.1485  -32.7709 H   0  0  0  0  0  0  0  0  0  0  0  0
   -7.3905   17.6015  -33.1191 H   0  0  0  0  0  0  0  0  0  0  0  0
   -5.6111   19.2939  -32.5389 H   0  0  0  0  0  0  0  0  0  0  0  0
   -4.2848   21.3771  -31.7838 H   0  0  0  0  0  0  0  0  0  0  0  0
   -1.2030   23.0330  -30.9440 H   0  0  0  0  0  0  0  0  0  0  0  0
   -2.3690   21.9890  -31.5590 H   0  0  0  0  0  0  0  0  0  0  0  0
   -1.6401   20.0504  -30.3526 H   0  0  0  0  0  0  0  0  0  0  0  0
   -1.5175   18.8952  -28.1470 H   0  0  0  0  0  0  0  0  0  0  0  0
   -1.9062   20.1708  -26.0396 H   0  0  0  0  0  0  0  0  0  0  0  0
   -2.4346   22.6089  -26.1310 H   0  0  0  0  0  0  0  0  0  0  0  0
  1  2  2  0
  2  3  1  0
  3  4  1  0
  4  5  1  0
  5  6  2  0
  6  7  1  0
  7  8  2  0
  8  9  1  0
  9 10  1  0
 10 11  2  0
 11 12  1  0
 12 13  2  0
 13 14  1  0
 14 15  2  0
 15 16  1  0
 16 17  2  0
  4 18  1  0
 18 19  1  0
 19 20  2  0
 20 21  1  0
 21 22  2  0
 22 23  1  0
 23 24  2  0
 24  2  1  0
 17  5  1  0
 24 19  1  0
 16  8  1  0
 15 10  1  0
  4 25  1  6
  6 26  1  0
  7 27  1  0
  9 28  1  0
 11 29  1  0
 12 30  1  0
 13 31  1  0
 14 32  1  0
 17 33  1  0
 18 34  1  0
 18 35  1  0
 20 36  1  0
 21 37  1  0
 22 38  1  0
 23 39  1  0
M  CHG  2   3  -1  18   1
M  END
>  <UniqueID>  (44) 
39

>  <SMILES>  (44) 
O=C1[N-][C@H](c2ccc3[nH]c4ccccc4c3c2)[NH2+]c2ccccc21

>  <Energy>  (44) 
94.5825985793084

>  <Genealogy>  (44) 
O=C1[N-]C(c2ccc3[nH]c4ccccc4c3c2)[NH2+]c2ccccc21 (protonated)
O=C1[N-][C@H](c2ccc3[nH]c4ccccc4c3c2)[NH2+]c2ccccc21 (chirality)
O=C1[N-][C@H](c2ccc3[nH]c4ccccc4c3c2)[NH2+]c2ccccc21 (3D coordinates assigned)
O=C1[N-][C@H](c2ccc3[nH]c4ccccc4c3c2)[NH2+]c2ccccc21 (nonaromatic ring conformer: 94.5825985793084 kcal/mol)

>  <smiles>  (44) 
O=C1NC(c2ccc3[nH]c4ccccc4c3c2)Nc2ccccc21

>  <score_type>  (44) 
oracle

>  <origin>  (44) 
adgpu

>  <m_score__min__energy>  (44) 
-8.5299999999999994

>  <m_primary>  (44) 
energy

$$$$
44:0
     RDKit          3D

 54 58  0  0  1  0  0  0  0  0999 V2000
   -3.8310   24.1110  -28.1480 C   0  0  0  0  0  0  0  0  0  0  0  0
   -4.9580   24.2220  -29.1280 C   0  0  0  0  0  0  0  0  0  0  0  0
   -5.3040   23.2490  -30.0540 C   0  0  0  0  0  0  0  0  0  0  0  0
   -6.3860   23.7730  -30.7350 C   0  0  0  0  0  0  0  0  0  0  0  0
   -7.0140   23.1730  -31.6910 N   0  0  0  0  0  0  0  0  0  0  0  0
   -6.6120   21.8790  -32.1190 C   0  0  0  0  0  0  0  0  0  0  0  0
   -5.2980   21.6180  -32.3800 N   0  0  0  0  0  0  0  0  0  0  0  0
   -5.0060   20.3670  -32.7810 C   0  0  0  0  0  0  0  0  0  0  0  0
   -3.3320   19.8460  -33.1670 S   0  0  0  0  0  0  0  0  0  0  0  0
   -2.2650   20.5940  -31.9200 C   0  0  0  0  0  0  0  0  0  0  0  0
   -2.8350   20.7840  -30.6740 C   0  0  0  0  0  0  0  0  0  0  0  0
   -2.0800   21.3520  -29.6680 C   0  0  0  0  0  0  0  0  0  0  0  0
   -0.7580   21.7200  -29.9370 C   0  0  0  0  0  0  0  0  0  0  0  0
   -0.0500   22.2990  -28.8460 N   0  0  0  0  0  0  0  0  0  0  0  0
   -0.2000   21.8770  -27.5010 C   0  0  0  0  0  0  0  0  0  0  0  0
   -0.9620   20.9590  -27.1420 O   0  0  0  0  0  0  0  0  0  0  0  0
    0.6350   22.6110  -26.4850 C   0  0  0  0  0  0  0  0  0  0  0  0
   -0.0140   23.8340  -26.0930 N   0  0  0  0  0  0  0  0  0  0  0  0
   -0.5450   24.1780  -24.7980 C   0  0  0  0  0  0  0  0  0  0  0  0
   -0.5180   25.6850  -24.8150 C   0  0  0  0  0  0  0  0  0  0  0  0
   -0.7400   26.0000  -26.2160 N   0  0  0  0  0  0  0  0  0  0  0  0
   -0.2240   24.9250  -26.9910 C   0  0  0  0  0  0  0  0  0  0  0  0
   -0.0050   24.9570  -28.2330 O   0  0  0  0  0  0  0  0  0  0  0  0
   -0.1950   21.5290  -31.1830 C   0  0  0  0  0  0  0  0  0  0  0  0
   -0.9620   20.9520  -32.2010 C   0  0  0  0  0  0  0  0  0  0  0  0
   -5.9660   19.4090  -32.9190 N   0  0  0  0  0  0  0  0  0  0  0  0
   -7.2440   19.6390  -32.6720 N   0  0  0  0  0  0  0  0  0  0  0  0
   -8.3290   18.8480  -32.7450 C   0  0  0  0  0  0  0  0  0  0  0  0
   -9.4440   19.5870  -32.3740 C   0  0  0  0  0  0  0  0  0  0  0  0
   -8.9550   20.8510  -32.0810 C   0  0  0  0  0  0  0  0  0  0  0  0
   -7.5780   20.8780  -32.2690 C   0  0  0  0  0  0  0  0  0  0  0  0
   -6.6800   24.9980  -30.2480 N   0  0  0  0  0  0  0  0  0  0  0  0
   -5.8060   25.2450  -29.2830 N   0  0  0  0  0  0  0  0  0  0  0  0
   -4.2305   24.1503  -27.1238 H   0  0  0  0  0  0  0  0  0  0  0  0
   -3.3054   23.1567  -28.3002 H   0  0  0  0  0  0  0  0  0  0  0  0
   -3.1293   24.9444  -28.3002 H   0  0  0  0  0  0  0  0  0  0  0  0
   -4.8220   22.2729  -30.2118 H   0  0  0  0  0  0  0  0  0  0  0  0
   -3.8773   20.4860  -30.4873 H   0  0  0  0  0  0  0  0  0  0  0  0
   -2.5118   21.5129  -28.6692 H   0  0  0  0  0  0  0  0  0  0  0  0
    0.6100   23.0840  -29.1010 H   0  0  0  0  0  0  0  0  0  0  0  0
    0.7721   21.9732  -25.5993 H   0  0  0  0  0  0  0  0  0  0  0  0
    1.6110   22.8517  -26.9315 H   0  0  0  0  0  0  0  0  0  0  0  0
   -1.5716   23.8015  -24.6781 H   0  0  0  0  0  0  0  0  0  0  0  0
    0.0246   23.7418  -23.9641 H   0  0  0  0  0  0  0  0  0  0  0  0
   -1.3172   26.1019  -24.1846 H   0  0  0  0  0  0  0  0  0  0  0  0
    0.4177   26.1063  -24.4189 H   0  0  0  0  0  0  0  0  0  0  0  0
   -1.1860   26.8350  -26.6520 H   0  0  0  0  0  0  0  0  0  0  0  0
    0.8464   21.8275  -31.3736 H   0  0  0  0  0  0  0  0  0  0  0  0
   -0.5365   20.7875  -33.2019 H   0  0  0  0  0  0  0  0  0  0  0  0
   -8.3324   17.7907  -33.0484 H   0  0  0  0  0  0  0  0  0  0  0  0
  -10.4881   19.2445  -32.3235 H   0  0  0  0  0  0  0  0  0  0  0  0
   -9.5651   21.7042  -31.7496 H   0  0  0  0  0  0  0  0  0  0  0  0
   -7.4560   25.5830  -30.6080 H   0  0  0  0  0  0  0  0  0  0  0  0
   -5.7600   26.1160  -28.7010 H   0  0  0  0  0  0  0  0  0  0  0  0
  1  2  1  0
  2  3  2  0
  3  4  1  0
  4  5  2  0
  5  6  1  0
  6  7  2  0
  7  8  1  0
  8  9  1  0
  9 10  1  0
 10 11  2  0
 11 12  1  0
 12 13  2  0
 13 14  1  0
 14 15  1  0
 15 16  2  0
 15 17  1  0
 17 18  1  0
 18 19  1  0
 19 20  1  0
 20 21  1  0
 21 22  1  0
 22 23  2  0
 13 24  1  0
 24 25  2  0
  8 26  2  0
 26 27  1  0
 27 28  1  0
 28 29  2  0
 29 30  1  0
 30 31  2  0
  4 32  1  0
 32 33  1  0
 33  2  1  0
 31  6  1  0
 25 10  1  0
 31 27  1  0
 22 18  1  0
  1 34  1  0
  1 35  1  0
  1 36  1  0
  3 37  1  0
 11 38  1  0
 12 39  1  0
 14 40  1  0
 17 41  1  0
 17 42  1  0
 19 43  1  0
 19 44  1  0
 20 45  1  0
 20 46  1  0
 21 47  1  0
 24 48  1  0
 25 49  1  0
 28 50  1  0
 29 51  1  0
 30 52  1  0
 32 53  1  0
 33 54  1  0
M  END
>  <smiles>  (45) 
Cc1cc(=Nc2nc(Sc3ccc(NC(=O)CN4CCNC4=O)cc3)nn3cccc23)[nH][nH]1

>  <score_type>  (45) 
oracle

>  <origin>  (45) 
adgpu

>  <m_score__min__energy>  (45) 
-9.5999999999999996

>  <m_primary>  (45) 
energy

$$$$
45:0
     RDKit          3D

 20 21  0  0  0  0  0  0  0  0999 V2000
   -4.1610   24.9220  -29.3590 N   0  0  0  0  0  0  0  0  0  0  0  0
   -4.8560   24.0820  -30.0690 C   0  0  0  0  0  0  0  0  0  0  0  0
   -4.2860   23.6600  -31.2200 N   0  0  0  0  0  0  0  0  0  0  0  0
   -4.9100   22.7840  -32.0480 C   0  0  0  0  0  0  0  0  0  0  0  0
   -4.2970   22.4420  -33.1100 N   0  0  0  0  0  0  0  0  0  0  0  0
   -6.1490   22.3480  -31.6560 C   0  0  0  0  0  0  0  0  0  0  0  0
   -6.8250   21.4580  -32.4610 C   0  0  0  0  0  0  0  0  0  0  0  0
   -8.0750   21.0000  -32.0950 C   0  0  0  0  0  0  0  0  0  0  0  0
   -8.6330   21.4580  -30.8980 C   0  0  0  0  0  0  0  0  0  0  0  0
   -7.9570   22.3420  -30.1060 C   0  0  0  0  0  0  0  0  0  0  0  0
   -6.7090   22.7910  -30.4810 C   0  0  0  0  0  0  0  0  0  0  0  0
   -6.0760   23.6520  -29.6850 N   0  0  0  0  0  0  0  0  0  0  0  0
   -4.5930   25.2530  -28.4680 H   0  0  0  0  0  0  0  0  0  0  0  0
   -3.3250   24.0200  -31.4900 H   0  0  0  0  0  0  0  0  0  0  0  0
   -4.6090   21.7970  -33.8460 H   0  0  0  0  0  0  0  0  0  0  0  0
   -6.3672   21.1108  -33.3990 H   0  0  0  0  0  0  0  0  0  0  0  0
   -8.6208   20.2890  -32.7326 H   0  0  0  0  0  0  0  0  0  0  0  0
   -9.6275   21.1026  -30.5905 H   0  0  0  0  0  0  0  0  0  0  0  0
   -8.4091   22.6960  -29.1678 H   0  0  0  0  0  0  0  0  0  0  0  0
   -6.4910   24.0010  -28.7820 H   0  0  0  0  0  0  0  0  0  0  0  0
  1  2  2  3
  2  3  1  0
  3  4  1  0
  4  5  2  3
  4  6  1  0
  6  7  2  0
  7  8  1  0
  8  9  2  0
  9 10  1  0
 10 11  2  0
 11 12  1  0
 12  2  1  0
 11  6  1  0
  1 13  1  0
  3 14  1  0
  5 15  1  0
  7 16  1  0
  8 17  1  0
  9 18  1  0
 10 19  1  0
 12 20  1  0
M  END
>  <smiles>  (46) 
N=c1[nH]c(=N)c2ccccc2[nH]1

>  <score_type>  (46) 
oracle

>  <origin>  (46) 
adgpu

>  <m_score__min__energy>  (46) 
-5.5999999999999996

>  <m_primary>  (46) 
energy

$$$$
46:0
     RDKit          3D

 33 35  0  0  0  0  0  0  0  0999 V2000
   -3.8720   25.2950  -30.6260 O   0  0  0  0  0  0  0  0  0  0  0  0
   -4.1850   24.1810  -30.1220 C   0  0  0  0  0  0  0  0  0  0  0  0
   -3.8100   23.8670  -28.7700 N   0  0  0  0  0  0  0  0  0  0  0  0
   -2.8210   24.5960  -28.0230 C   0  0  0  0  0  0  0  0  0  0  0  0
   -3.0810   24.9340  -26.6850 C   0  0  0  0  0  0  0  0  0  0  0  0
   -2.1260   25.6230  -25.9310 C   0  0  0  0  0  0  0  0  0  0  0  0
   -0.8980   25.9670  -26.5020 C   0  0  0  0  0  0  0  0  0  0  0  0
   -0.6200   25.6140  -27.8240 C   0  0  0  0  0  0  0  0  0  0  0  0
   -1.5730   24.9270  -28.5820 C   0  0  0  0  0  0  0  0  0  0  0  0
   -4.9720   23.2260  -30.9220 C   0  0  0  0  0  0  0  0  0  0  0  0
   -6.0990   23.5320  -31.6750 C   0  0  0  0  0  0  0  0  0  0  0  0
   -6.6410   22.4290  -32.3480 C   0  0  0  0  0  0  0  0  0  0  0  0
   -5.9410   21.2390  -32.1320 C   0  0  0  0  0  0  0  0  0  0  0  0
   -6.2540   19.9030  -32.7010 C   0  0  0  0  0  0  0  0  0  0  0  0
   -7.2750   19.1000  -32.1530 C   0  0  0  0  0  0  0  0  0  0  0  0
   -7.5610   17.8440  -32.6950 C   0  0  0  0  0  0  0  0  0  0  0  0
   -6.8330   17.3700  -33.7880 C   0  0  0  0  0  0  0  0  0  0  0  0
   -7.1120   16.1510  -34.3120 F   0  0  0  0  0  0  0  0  0  0  0  0
   -5.8160   18.1520  -34.3390 C   0  0  0  0  0  0  0  0  0  0  0  0
   -5.5260   19.4090  -33.8010 C   0  0  0  0  0  0  0  0  0  0  0  0
   -4.6490   21.5850  -31.1020 S   0  0  0  0  0  0  0  0  0  0  0  0
   -4.3480   23.1260  -28.2680 H   0  0  0  0  0  0  0  0  0  0  0  0
   -4.0416   24.6551  -26.2274 H   0  0  0  0  0  0  0  0  0  0  0  0
   -2.3417   25.8945  -24.8871 H   0  0  0  0  0  0  0  0  0  0  0  0
   -0.1505   26.5157  -25.9102 H   0  0  0  0  0  0  0  0  0  0  0  0
    0.3506   25.8769  -28.2699 H   0  0  0  0  0  0  0  0  0  0  0  0
   -1.3460   24.6439  -29.6204 H   0  0  0  0  0  0  0  0  0  0  0  0
   -6.5253   24.5442  -31.7369 H   0  0  0  0  0  0  0  0  0  0  0  0
   -7.5342   22.4938  -32.9868 H   0  0  0  0  0  0  0  0  0  0  0  0
   -7.8519   19.4655  -31.2907 H   0  0  0  0  0  0  0  0  0  0  0  0
   -8.3613   17.2276  -32.2596 H   0  0  0  0  0  0  0  0  0  0  0  0
   -5.2413   17.7777  -35.1990 H   0  0  0  0  0  0  0  0  0  0  0  0
   -4.7222   20.0178  -34.2405 H   0  0  0  0  0  0  0  0  0  0  0  0
  1  2  2  0
  2  3  1  0
  3  4  1  0
  4  5  2  0
  5  6  1  0
  6  7  2  0
  7  8  1  0
  8  9  2  0
  2 10  1  0
 10 11  2  0
 11 12  1  0
 12 13  2  0
 13 14  1  0
 14 15  2  0
 15 16  1  0
 16 17  2  0
 17 18  1  0
 17 19  1  0
 19 20  2  0
 13 21  1  0
  9  4  1  0
 21 10  1  0
 20 14  1  0
  3 22  1  0
  5 23  1  0
  6 24  1  0
  7 25  1  0
  8 26  1  0
  9 27  1  0
 11 28  1  0
 12 29  1  0
 15 30  1  0
 16 31  1  0
 19 32  1  0
 20 33  1  0
M  END
>  <UniqueID>  (47) 
40

>  <SMILES>  (47) 
O=C(Nc1ccccc1)c1ccc(-c2ccc(F)cc2)s1

>  <Energy>  (47) 
67.50715318599974

>  <Genealogy>  (47) 
O=C(Nc1ccccc1)c1ccc(-c2ccc(F)cc2)s1 (3D coordinates assigned)
O=C(Nc1ccccc1)c1ccc(-c2ccc(F)cc2)s1 (optimized conformer: 67.50715318599974 kcal/mol)

>  <smiles>  (47) 
O=C(Nc1ccccc1)c1ccc(-c2ccc(F)cc2)s1

>  <score_type>  (47) 
oracle

>  <origin>  (47) 
adgpu

>  <m_score__min__energy>  (47) 
-8.3300000000000001

>  <m_primary>  (47) 
energy

$$$$
47:0
     RDKit          3D

 39 41  0  0  0  0  0  0  0  0999 V2000
    0.3570   25.9190  -27.2610 H   0  0  0  0  0  0  0  0  0  0  0  0
   -0.3440   25.8840  -28.0350 N   0  0  0  0  0  0  0  0  0  0  0  0
   -1.0960   24.8470  -28.2200 C   0  0  0  0  0  0  0  0  0  0  0  0
   -0.9850   23.7700  -27.3980 N   0  0  0  0  0  0  0  0  0  0  0  0
   -1.7640   22.6710  -27.5680 C   0  0  0  0  0  0  0  0  0  0  0  0
   -1.5970   21.4920  -26.6630 C   0  0  0  0  0  0  0  0  0  0  0  0
   -1.6441   21.8243  -25.6154 H   0  0  0  0  0  0  0  0  0  0  0  0
   -2.4013   20.7663  -26.8540 H   0  0  0  0  0  0  0  0  0  0  0  0
   -0.6228   21.0183  -26.8540 H   0  0  0  0  0  0  0  0  0  0  0  0
   -2.6930   22.6380  -28.6100 C   0  0  0  0  0  0  0  0  0  0  0  0
   -3.3242   21.7513  -28.7692 H   0  0  0  0  0  0  0  0  0  0  0  0
   -2.8070   23.7540  -29.4490 C   0  0  0  0  0  0  0  0  0  0  0  0
   -3.7420   23.7490  -30.5460 N   0  0  0  0  0  0  0  0  0  0  0  0
   -4.8640   24.6980  -30.5850 C   0  0  0  0  0  0  0  0  0  0  0  0
   -4.8807   25.2831  -29.6537 H   0  0  0  0  0  0  0  0  0  0  0  0
   -4.7398   25.3743  -31.4436 H   0  0  0  0  0  0  0  0  0  0  0  0
   -6.1840   23.9310  -30.7290 C   0  0  0  0  0  0  0  0  0  0  0  0
   -6.4596   23.5062  -29.7525 H   0  0  0  0  0  0  0  0  0  0  0  0
   -6.9553   24.6317  -31.0811 H   0  0  0  0  0  0  0  0  0  0  0  0
   -6.0660   22.8400  -31.7100 N   0  0  0  0  0  0  0  0  0  0  0  0
   -7.1220   21.8660  -31.8200 C   0  0  0  0  0  0  0  0  0  0  0  0
   -6.8320   20.5380  -32.1800 C   0  0  0  0  0  0  0  0  0  0  0  0
   -5.7932   20.2429  -32.3890 H   0  0  0  0  0  0  0  0  0  0  0  0
   -7.8560   19.5900  -32.2740 C   0  0  0  0  0  0  0  0  0  0  0  0
   -7.6212   18.5539  -32.5591 H   0  0  0  0  0  0  0  0  0  0  0  0
   -9.1770   19.9580  -32.0060 C   0  0  0  0  0  0  0  0  0  0  0  0
   -9.9821   19.2124  -32.0824 H   0  0  0  0  0  0  0  0  0  0  0  0
   -9.4750   21.2730  -31.6410 C   0  0  0  0  0  0  0  0  0  0  0  0
  -10.5151   21.5612  -31.4286 H   0  0  0  0  0  0  0  0  0  0  0  0
   -8.4540   22.2240  -31.5450 C   0  0  0  0  0  0  0  0  0  0  0  0
   -8.6939   23.2570  -31.2530 H   0  0  0  0  0  0  0  0  0  0  0  0
   -4.8430   22.7150  -32.5160 C   0  0  0  0  0  0  0  0  0  0  0  0
   -4.8701   21.7692  -33.0770 H   0  0  0  0  0  0  0  0  0  0  0  0
   -4.7819   23.5598  -33.2178 H   0  0  0  0  0  0  0  0  0  0  0  0
   -3.6150   22.7280  -31.5990 C   0  0  0  0  0  0  0  0  0  0  0  0
   -3.5094   21.7395  -31.1282 H   0  0  0  0  0  0  0  0  0  0  0  0
   -2.7306   22.9667  -32.2080 H   0  0  0  0  0  0  0  0  0  0  0  0
   -2.0010   24.8350  -29.2390 N   0  0  0  0  0  0  0  0  0  0  0  0
   -2.0850   25.6740  -29.8550 H   0  0  0  0  0  0  0  0  0  0  0  0
  1  2  1  0
  2  3  2  0
  3  4  1  0
  4  5  2  0
  5  6  1  0
  6  7  1  0
  6  8  1  0
  6  9  1  0
  5 10  1  0
 10 11  1  0
 10 12  2  0
 12 13  1  0
 13 14  1  0
 14 15  1  0
 14 16  1  0
 14 17  1  0
 17 18  1  0
 17 19  1  0
 17 20  1  0
 20 21  1  0
 21 22  2  0
 22 23  1  0
 22 24  1  0
 24 25  1  0
 24 26  2  0
 26 27  1  0
 26 28  1  0
 28 29  1  0
 28 30  2  0
 30 31  1  0
 20 32  1  0
 32 33  1  0
 32 34  1  0
 32 35  1  0
 35 36  1  0
 35 37  1  0
 12 38  1  0
 38 39  1  0
 38  3  1  0
 35 13  1  0
 30 21  1  0
M  END
>  <UniqueID>  (48) 
41

>  <SMILES>  (48) 
[H]/N=c1\nc(C)cc(N2CCN(c3ccccc3)CC2)[nH]1

>  <Energy>  (48) 
48.15185949507043

>  <Genealogy>  (48) 
[H]/N=c1\nc(C)cc(N2CCN(c3ccccc3)CC2)[nH]1 (cis-trans isomerization)
[H]/N=c1\nc(C)cc(N2CCN(c3ccccc3)CC2)[nH]1 (3D coordinates assigned)
[H]/N=c1\nc(C)cc(N2CCN(c3ccccc3)CC2)[nH]1 (nonaromatic ring conformer: 48.15185949507043 kcal/mol)

>  <smiles>  (48) 
Cc1cc(N2CCN(c3ccccc3)CC2)[nH]c(=N)n1

>  <score_type>  (48) 
oracle

>  <origin>  (48) 
adgpu

>  <m_score__min__energy>  (48) 
-7.71

>  <m_primary>  (48) 
energy

$$$$
