0:0
     RDKit          3D

 29 30  0  0  0  0  0  0  0  0999 V2000
   -4.5710   15.2030  -33.0300 H   0  0  0  0  0  0  0  0  0  0  0  0
   -4.9820   15.5460  -32.1330 N   0  0  0  0  0  0  0  0  0  0  0  0
   -5.5750   16.6930  -32.0670 C   0  0  0  0  0  0  0  0  0  0  0  0
   -5.7130   17.5250  -33.1160 N   0  0  0  0  0  0  0  0  0  0  0  0
   -6.3750   18.5560  -32.5450 C   0  0  0  0  0  0  0  0  0  0  0  0
   -6.8560   20.0320  -33.4380 S   0  0  0  0  0  0  0  0  0  0  0  0
   -7.3930   20.9420  -31.9470 C   0  0  0  0  0  0  0  0  0  0  0  0
   -8.3542   21.4355  -32.1533 H   0  0  0  0  0  0  0  0  0  0  0  0
   -7.4976   20.2265  -31.1181 H   0  0  0  0  0  0  0  0  0  0  0  0
   -6.3790   21.9830  -31.5570 C   0  0  0  0  0  0  0  0  0  0  0  0
   -6.7730   23.3090  -31.3220 C   0  0  0  0  0  0  0  0  0  0  0  0
   -7.8269   23.5973  -31.4492 H   0  0  0  0  0  0  0  0  0  0  0  0
   -5.8330   24.2660  -30.9270 C   0  0  0  0  0  0  0  0  0  0  0  0
   -6.1527   25.3003  -30.7322 H   0  0  0  0  0  0  0  0  0  0  0  0
   -4.4810   23.9110  -30.7780 C   0  0  0  0  0  0  0  0  0  0  0  0
   -3.4970   24.8600  -30.3440 N   0  0  0  0  0  0  0  0  0  0  0  0
   -2.6560   24.7550  -29.1870 C   0  0  0  0  0  0  0  0  0  0  0  0
   -1.8000   25.6520  -28.9730 O   0  0  0  0  0  0  0  0  0  0  0  0
   -2.7950   23.6350  -28.2020 C   0  0  0  0  0  0  0  0  0  0  0  0
   -2.7450   24.0376  -27.1795 H   0  0  0  0  0  0  0  0  0  0  0  0
   -3.7623   23.1331  -28.3516 H   0  0  0  0  0  0  0  0  0  0  0  0
   -1.9797   22.9119  -28.3516 H   0  0  0  0  0  0  0  0  0  0  0  0
   -4.0960   22.5810  -30.9810 C   0  0  0  0  0  0  0  0  0  0  0  0
   -3.0469   22.2871  -30.8295 H   0  0  0  0  0  0  0  0  0  0  0  0
   -5.0350   21.6230  -31.3750 C   0  0  0  0  0  0  0  0  0  0  0  0
   -4.7189   20.5829  -31.5430 H   0  0  0  0  0  0  0  0  0  0  0  0
   -6.6270   18.3640  -31.2340 N   0  0  0  0  0  0  0  0  0  0  0  0
   -6.1180   17.1820  -30.9420 N   0  0  0  0  0  0  0  0  0  0  0  0
   -6.1430   16.7350  -29.9990 H   0  0  0  0  0  0  0  0  0  0  0  0
  1  2  1  0
  2  3  2  0
  3  4  1  0
  4  5  2  0
  5  6  1  0
  6  7  1  0
  7  8  1  0
  7  9  1  0
  7 10  1  0
 10 11  2  0
 11 12  1  0
 11 13  1  0
 13 14  1  0
 13 15  2  0
 15 16  1  0
 16 17  1  0
 17 18  2  0
 17 19  1  0
 19 20  1  0
 19 21  1  0
 19 22  1  0
 15 23  1  0
 23 24  1  0
 23 25  2  0
 25 26  1  0
  5 27  1  0
 27 28  1  0
 28 29  1  0
 28  3  1  0
 25 10  1  0
M  CHG  2  16  -1  27  -1
M  END
>  <UniqueID>  (1) 
1

>  <SMILES>  (1) 
[H]/N=c1\nc(SCc2ccc([N-]C(C)=O)cc2)[n-][nH]1

>  <Energy>  (1) 
60.92194972787376

>  <Genealogy>  (1) 
CC(=O)[N-]c1ccc(CSc2nc(=N)[nH][n-]2)cc1 (protonated)
[H]/N=c1\nc(SCc2ccc([N-]C(C)=O)cc2)[n-][nH]1 (cis-trans isomerization)
[H]/N=c1\nc(SCc2ccc([N-]C(C)=O)cc2)[n-][nH]1 (3D coordinates assigned)
[H]/N=c1\nc(SCc2ccc([N-]C(C)=O)cc2)[n-][nH]1 (optimized conformer: 60.92194972787376 kcal/mol)

>  <smiles>  (1) 
CC(=O)Nc1ccc(CSc2nc(=N)[nH][nH]2)cc1

>  <score_type>  (1) 
oracle

>  <origin>  (1) 
adgpu

>  <m_score__min__energy>  (1) 
-8.7300000000000004

>  <m_primary>  (1) 
energy

$$$$
1:0
     RDKit          3D

 37 39  0  0  0  0  0  0  0  0999 V2000
   -5.6470   14.3190  -33.8230 H   0  0  0  0  0  0  0  0  0  0  0  0
   -5.0590   14.9320  -34.3780 O   0  0  0  0  0  0  0  0  0  0  0  0
   -5.0720   16.3130  -34.1970 C   0  0  0  0  0  0  0  0  0  0  0  0
   -4.0160   17.0810  -34.6920 C   0  0  0  0  0  0  0  0  0  0  0  0
   -3.1873   16.5940  -35.2269 H   0  0  0  0  0  0  0  0  0  0  0  0
   -4.0090   18.4650  -34.5100 C   0  0  0  0  0  0  0  0  0  0  0  0
   -3.1783   19.0641  -34.9111 H   0  0  0  0  0  0  0  0  0  0  0  0
   -5.0510   19.0960  -33.8210 C   0  0  0  0  0  0  0  0  0  0  0  0
   -4.9580   20.4790  -33.6090 O   0  0  0  0  0  0  0  0  0  0  0  0
   -4.7680   21.0810  -32.3560 C   0  0  0  0  0  0  0  0  0  0  0  0
   -3.7600   20.5860  -31.5210 C   0  0  0  0  0  0  0  0  0  0  0  0
   -3.1569   19.7248  -31.8444 H   0  0  0  0  0  0  0  0  0  0  0  0
   -3.5140   21.1780  -30.2790 C   0  0  0  0  0  0  0  0  0  0  0  0
   -2.7234   20.7772  -29.6276 H   0  0  0  0  0  0  0  0  0  0  0  0
   -4.2730   22.2830  -29.8600 C   0  0  0  0  0  0  0  0  0  0  0  0
   -4.0510   22.9040  -28.5380 C   0  0  0  0  0  0  0  0  0  0  0  0
   -4.5017   22.4101  -27.6645 H   0  0  0  0  0  0  0  0  0  0  0  0
   -3.3430   24.0230  -28.3180 C   0  0  0  0  0  0  0  0  0  0  0  0
   -3.1433   24.2929  -27.2705 H   0  0  0  0  0  0  0  0  0  0  0  0
   -2.8090   24.9230  -29.3590 C   0  0  0  0  0  0  0  0  0  0  0  0
   -1.6300   25.3610  -29.3120 O   0  0  0  0  0  0  0  0  0  0  0  0
   -3.6070   25.2410  -30.4510 O   0  0  0  0  0  0  0  0  0  0  0  0
   -5.3200   22.7440  -30.6690 C   0  0  0  0  0  0  0  0  0  0  0  0
   -5.9534   23.5746  -30.3243 H   0  0  0  0  0  0  0  0  0  0  0  0
   -5.5630   22.1530  -31.9120 C   0  0  0  0  0  0  0  0  0  0  0  0
   -6.3799   22.5280  -32.5461 H   0  0  0  0  0  0  0  0  0  0  0  0
   -6.1530   18.3330  -33.3600 C   0  0  0  0  0  0  0  0  0  0  0  0
   -7.3380   18.9650  -32.7380 C   0  0  0  0  0  0  0  0  0  0  0  0
   -7.9370   20.1570  -33.1010 C   0  0  0  0  0  0  0  0  0  0  0  0
   -7.5983   20.8178  -33.9126 H   0  0  0  0  0  0  0  0  0  0  0  0
   -8.9740   20.3770  -32.3250 O   0  0  0  0  0  0  0  0  0  0  0  0
   -9.0910   19.3810  -31.4750 C   0  0  0  0  0  0  0  0  0  0  0  0
   -9.8696   19.2970  -30.7025 H   0  0  0  0  0  0  0  0  0  0  0  0
   -8.0910   18.4570  -31.6970 C   0  0  0  0  0  0  0  0  0  0  0  0
   -7.9273   17.5125  -31.1575 H   0  0  0  0  0  0  0  0  0  0  0  0
   -6.1360   16.9380  -33.5340 C   0  0  0  0  0  0  0  0  0  0  0  0
   -6.9670   16.3309  -33.1454 H   0  0  0  0  0  0  0  0  0  0  0  0
  1  2  1  0
  2  3  1  0
  3  4  2  0
  4  5  1  0
  4  6  1  0
  6  7  1  0
  6  8  2  0
  8  9  1  0
  9 10  1  0
 10 11  2  0
 11 12  1  0
 11 13  1  0
 13 14  1  0
 13 15  2  0
 15 16  1  0
 16 17  1  0
 16 18  2  0
 18 19  1  0
 18 20  1  0
 20 21  2  0
 20 22  1  0
 15 23  1  0
 23 24  1  0
 23 25  2  0
 25 26  1  0
  8 27  1  0
 27 28  1  0
 28 29  2  0
 29 30  1  0
 29 31  1  0
 31 32  1  0
 32 33  1  0
 32 34  2  0
 34 35  1  0
 27 36  2  0
 36 37  1  0
 36  3  1  0
 25 10  1  0
 34 28  1  0
M  CHG  1  22  -1
M  END
>  <UniqueID>  (2) 
2

>  <SMILES>  (2) 
O=C([O-])/C=C\c1ccc(Oc2ccc(O)cc2-c2ccoc2)cc1

>  <Energy>  (2) 
84.30183316992466

>  <Genealogy>  (2) 
O=C([O-])C=Cc1ccc(Oc2ccc(O)cc2-c2ccoc2)cc1 (protonated)
O=C([O-])/C=C\c1ccc(Oc2ccc(O)cc2-c2ccoc2)cc1 (cis-trans isomerization)
O=C([O-])/C=C\c1ccc(Oc2ccc(O)cc2-c2ccoc2)cc1 (3D coordinates assigned)
O=C([O-])/C=C\c1ccc(Oc2ccc(O)cc2-c2ccoc2)cc1 (optimized conformer: 84.30183316992466 kcal/mol)

>  <smiles>  (2) 
O=C(O)C=Cc1ccc(Oc2ccc(O)cc2-c2ccoc2)cc1

>  <score_type>  (2) 
oracle

>  <origin>  (2) 
adgpu

>  <m_score__min__energy>  (2) 
-9.9800000000000004

>  <m_primary>  (2) 
energy

$$$$
2:0
     RDKit          3D

 55 58  0  0  0  0  0  0  0  0999 V2000
   -1.1803   21.0306  -32.3629 H   0  0  0  0  0  0  0  0  0  0  0  0
   -1.3540   21.6160  -31.4480 C   0  0  0  0  0  0  0  0  0  0  0  0
   -1.9714   22.5256  -31.4860 H   0  0  0  0  0  0  0  0  0  0  0  0
   -0.8120   21.2200  -30.2840 C   0  0  0  0  0  0  0  0  0  0  0  0
   -0.9330   21.8470  -29.0310 C   0  0  0  0  0  0  0  0  0  0  0  0
   -1.7160   22.8650  -28.6210 C   0  0  0  0  0  0  0  0  0  0  0  0
   -1.4992   23.3017  -27.6350 H   0  0  0  0  0  0  0  0  0  0  0  0
   -2.8400   23.4430  -29.3840 C   0  0  0  0  0  0  0  0  0  0  0  0
   -2.8550   24.8000  -29.7270 C   0  0  0  0  0  0  0  0  0  0  0  0
   -1.8270   25.6470  -29.3310 O   0  0  0  0  0  0  0  0  0  0  0  0
   -3.8810   25.2980  -30.4590 N   0  0  0  0  0  0  0  0  0  0  0  0
   -4.8980   24.5070  -30.8870 C   0  0  0  0  0  0  0  0  0  0  0  0
   -5.8230   25.0200  -31.5720 O   0  0  0  0  0  0  0  0  0  0  0  0
   -4.9040   23.1690  -30.5880 N   0  0  0  0  0  0  0  0  0  0  0  0
   -5.9860   22.3330  -31.0480 C   0  0  0  0  0  0  0  0  0  0  0  0
   -7.2790   22.5070  -30.5380 C   0  0  0  0  0  0  0  0  0  0  0  0
   -7.4684   23.2808  -29.7795 H   0  0  0  0  0  0  0  0  0  0  0  0
   -8.3280   21.7040  -30.9870 C   0  0  0  0  0  0  0  0  0  0  0  0
   -9.3386   21.8490  -30.5776 H   0  0  0  0  0  0  0  0  0  0  0  0
   -8.1060   20.7120  -31.9570 C   0  0  0  0  0  0  0  0  0  0  0  0
   -9.2590   19.8550  -32.4110 C   0  0  0  0  0  0  0  0  0  0  0  0
   -9.7904   19.4600  -31.5326 H   0  0  0  0  0  0  0  0  0  0  0  0
   -9.9500   20.4605  -33.0159 H   0  0  0  0  0  0  0  0  0  0  0  0
   -8.8784   19.0188  -33.0159 H   0  0  0  0  0  0  0  0  0  0  0  0
   -6.7990   20.5170  -32.4640 C   0  0  0  0  0  0  0  0  0  0  0  0
   -6.5110   19.4610  -33.4990 C   0  0  0  0  0  0  0  0  0  0  0  0
   -6.2534   18.5165  -32.9974 H   0  0  0  0  0  0  0  0  0  0  0  0
   -7.4011   19.3114  -34.1277 H   0  0  0  0  0  0  0  0  0  0  0  0
   -5.6681   19.7840  -34.1277 H   0  0  0  0  0  0  0  0  0  0  0  0
   -5.7530   21.3390  -32.0110 C   0  0  0  0  0  0  0  0  0  0  0  0
   -4.7395   21.2017  -32.4160 H   0  0  0  0  0  0  0  0  0  0  0  0
   -3.8820   22.6280  -29.8500 C   0  0  0  0  0  0  0  0  0  0  0  0
   -3.8830   21.3970  -29.5660 O   0  0  0  0  0  0  0  0  0  0  0  0
   -0.0510   21.1950  -28.1850 C   0  0  0  0  0  0  0  0  0  0  0  0
    0.1527   21.4441  -27.1331 H   0  0  0  0  0  0  0  0  0  0  0  0
    0.5230   20.1740  -28.9130 C   0  0  0  0  0  0  0  0  0  0  0  0
    1.5320   19.2080  -28.3700 C   0  0  0  0  0  0  0  0  0  0  0  0
    1.5074   19.2315  -27.2705 H   0  0  0  0  0  0  0  0  0  0  0  0
    1.2935   18.1930  -28.7205 H   0  0  0  0  0  0  0  0  0  0  0  0
    2.5357   19.4905  -28.7205 H   0  0  0  0  0  0  0  0  0  0  0  0
    0.0660   20.1880  -30.1850 N   0  0  0  0  0  0  0  0  0  0  0  0
    0.4610   19.2800  -31.2290 C   0  0  0  0  0  0  0  0  0  0  0  0
   -0.1020   17.9990  -31.3050 C   0  0  0  0  0  0  0  0  0  0  0  0
   -0.8447   17.6821  -30.5580 H   0  0  0  0  0  0  0  0  0  0  0  0
    0.2760   17.1220  -32.3260 C   0  0  0  0  0  0  0  0  0  0  0  0
   -0.1829   16.1241  -32.3863 H   0  0  0  0  0  0  0  0  0  0  0  0
    1.2380   17.5060  -33.2760 C   0  0  0  0  0  0  0  0  0  0  0  0
    1.6150   16.5810  -34.4070 C   0  0  0  0  0  0  0  0  0  0  0  0
    1.6530   17.3000  -35.5870 F   0  0  0  0  0  0  0  0  0  0  0  0
    2.8580   16.0200  -34.1810 F   0  0  0  0  0  0  0  0  0  0  0  0
    0.6940   15.5560  -34.5340 F   0  0  0  0  0  0  0  0  0  0  0  0
    1.7800   18.8000  -33.2110 C   0  0  0  0  0  0  0  0  0  0  0  0
    2.5085   19.1256  -33.9682 H   0  0  0  0  0  0  0  0  0  0  0  0
    1.4000   19.6780  -32.1900 C   0  0  0  0  0  0  0  0  0  0  0  0
    1.8402   20.6849  -32.1415 H   0  0  0  0  0  0  0  0  0  0  0  0
  1  2  1  0
  2  3  1  0
  2  4  2  0
  4  5  1  0
  5  6  2  0
  6  7  1  0
  6  8  1  0
  8  9  2  0
  9 10  1  0
  9 11  1  0
 11 12  1  0
 12 13  2  0
 12 14  1  0
 14 15  1  0
 15 16  2  0
 16 17  1  0
 16 18  1  0
 18 19  1  0
 18 20  2  0
 20 21  1  0
 21 22  1  0
 21 23  1  0
 21 24  1  0
 20 25  1  0
 25 26  1  0
 26 27  1  0
 26 28  1  0
 26 29  1  0
 25 30  2  0
 30 31  1  0
 14 32  1  0
 32 33  2  0
  5 34  1  0
 34 35  1  0
 34 36  2  0
 36 37  1  0
 37 38  1  0
 37 39  1  0
 37 40  1  0
 36 41  1  0
 41 42  1  0
 42 43  2  0
 43 44  1  0
 43 45  1  0
 45 46  1  0
 45 47  2  0
 47 48  1  0
 48 49  1  0
 48 50  1  0
 48 51  1  0
 47 52  1  0
 52 53  1  0
 52 54  2  0
 54 55  1  0
 41  4  1  0
 54 42  1  0
 32  8  1  0
 30 15  1  0
M  CHG  2  10  -1  11  -1
M  END
>  <UniqueID>  (3) 
3

>  <SMILES>  (3) 
C=c1/c(=C\c2c([O-])[n-]c(=O)n(-c3ccc(C)c(C)c3)c2=O)cc(C)n1-c1ccc(C(F)(F)F)cc1

>  <Energy>  (3) 
118.60242741714096

>  <Genealogy>  (3) 
C=c1c(=Cc2c([O-])[n-]c(=O)n(-c3ccc(C)c(C)c3)c2=O)cc(C)n1-c1ccc(C(F)(F)F)cc1 (protonated)
C=c1/c(=C\c2c([O-])[n-]c(=O)n(-c3ccc(C)c(C)c3)c2=O)cc(C)n1-c1ccc(C(F)(F)F)cc1 (cis-trans isomerization)
C=c1/c(=C\c2c([O-])[n-]c(=O)n(-c3ccc(C)c(C)c3)c2=O)cc(C)n1-c1ccc(C(F)(F)F)cc1 (3D coordinates assigned)
C=c1/c(=C\c2c([O-])[n-]c(=O)n(-c3ccc(C)c(C)c3)c2=O)cc(C)n1-c1ccc(C(F)(F)F)cc1 (optimized conformer: 118.60242741714096 kcal/mol)

>  <smiles>  (3) 
C=c1c(=Cc2c(O)[nH]c(=O)n(-c3ccc(C)c(C)c3)c2=O)cc(C)n1-c1ccc(C(F)(F)F)cc1

>  <score_type>  (3) 
oracle

>  <origin>  (3) 
adgpu

>  <m_score__min__energy>  (3) 
-13.19

>  <m_primary>  (3) 
energy

$$$$
3:0
     RDKit          3D

 47 48  0  0  0  0  0  0  0  0999 V2000
   -8.7890   18.8230  -31.5080 C   0  0  0  0  0  0  0  0  0  0  0  0
   -7.9740   18.4190  -32.7310 C   0  0  0  0  0  0  0  0  0  0  0  0
   -6.3040   17.9820  -32.2730 S   0  0  0  0  0  0  0  0  0  0  0  0
   -6.0050   16.5720  -32.7010 O   0  0  0  0  0  0  0  0  0  0  0  0
   -6.1460   18.0790  -30.7810 O   0  0  0  0  0  0  0  0  0  0  0  0
   -5.2010   19.0740  -33.0510 N   0  0  0  0  0  0  0  0  0  0  0  0
   -4.5490   18.6520  -34.2870 C   0  0  0  0  0  0  0  0  0  0  0  0
   -5.2750   20.4680  -32.7290 C   0  0  0  0  0  0  0  0  0  0  0  0
   -6.5240   21.0880  -32.6000 C   0  0  0  0  0  0  0  0  0  0  0  0
   -6.6080   22.4430  -32.2740 C   0  0  0  0  0  0  0  0  0  0  0  0
   -5.4480   23.2010  -32.0910 C   0  0  0  0  0  0  0  0  0  0  0  0
   -5.5840   24.5880  -31.7440 N   0  0  0  0  0  0  0  0  0  0  0  0
   -4.8540   25.2920  -30.7330 C   0  0  0  0  0  0  0  0  0  0  0  0
   -5.3890   26.2420  -30.1000 O   0  0  0  0  0  0  0  0  0  0  0  0
   -3.5060   24.8960  -30.4530 N   0  0  0  0  0  0  0  0  0  0  0  0
   -3.0850   23.8480  -29.5680 C   0  0  0  0  0  0  0  0  0  0  0  0
   -1.7510   23.4270  -29.6170 C   0  0  0  0  0  0  0  0  0  0  0  0
   -1.3010   22.3930  -28.7910 C   0  0  0  0  0  0  0  0  0  0  0  0
   -2.1830   21.7630  -27.8950 C   0  0  0  0  0  0  0  0  0  0  0  0
   -1.7140   20.6140  -27.0390 C   0  0  0  0  0  0  0  0  0  0  0  0
   -1.2610   21.0750  -25.8140 F   0  0  0  0  0  0  0  0  0  0  0  0
   -2.7660   19.7410  -26.8310 F   0  0  0  0  0  0  0  0  0  0  0  0
   -0.6780   19.9330  -27.6550 F   0  0  0  0  0  0  0  0  0  0  0  0
   -3.5330   22.1500  -27.8850 C   0  0  0  0  0  0  0  0  0  0  0  0
   -3.9820   23.1850  -28.7120 C   0  0  0  0  0  0  0  0  0  0  0  0
   -4.1920   22.5760  -32.1950 C   0  0  0  0  0  0  0  0  0  0  0  0
   -4.0990   21.2090  -32.5240 C   0  0  0  0  0  0  0  0  0  0  0  0
   -2.8620   20.5560  -32.6600 O   0  0  0  0  0  0  0  0  0  0  0  0
   -1.6010   21.1450  -32.3610 C   0  0  0  0  0  0  0  0  0  0  0  0
   -8.2395   18.5506  -30.5949 H   0  0  0  0  0  0  0  0  0  0  0  0
   -8.9590   19.9097  -31.5233 H   0  0  0  0  0  0  0  0  0  0  0  0
   -9.7567   18.3003  -31.5233 H   0  0  0  0  0  0  0  0  0  0  0  0
   -8.4529   17.5536  -33.2123 H   0  0  0  0  0  0  0  0  0  0  0  0
   -7.9350   19.2730  -33.4233 H   0  0  0  0  0  0  0  0  0  0  0  0
   -3.6480   18.0689  -34.0457 H   0  0  0  0  0  0  0  0  0  0  0  0
   -5.2418   18.0306  -34.8734 H   0  0  0  0  0  0  0  0  0  0  0  0
   -4.2658   19.5386  -34.8734 H   0  0  0  0  0  0  0  0  0  0  0  0
   -7.4434   20.5046  -32.7563 H   0  0  0  0  0  0  0  0  0  0  0  0
   -7.5940   22.9173  -32.1604 H   0  0  0  0  0  0  0  0  0  0  0  0
   -1.0507   23.9141  -30.3115 H   0  0  0  0  0  0  0  0  0  0  0  0
   -0.2507   22.0702  -28.8422 H   0  0  0  0  0  0  0  0  0  0  0  0
   -4.2432   21.6350  -27.2214 H   0  0  0  0  0  0  0  0  0  0  0  0
   -5.0411   23.4814  -28.6926 H   0  0  0  0  0  0  0  0  0  0  0  0
   -3.2759   23.1586  -32.0182 H   0  0  0  0  0  0  0  0  0  0  0  0
   -1.4736   21.2045  -31.2700 H   0  0  0  0  0  0  0  0  0  0  0  0
   -0.7974   20.5291  -32.7910 H   0  0  0  0  0  0  0  0  0  0  0  0
   -1.5576   22.1566  -32.7910 H   0  0  0  0  0  0  0  0  0  0  0  0
  1  2  1  0
  2  3  1  0
  3  4  2  0
  3  5  2  0
  3  6  1  0
  6  7  1  0
  6  8  1  0
  8  9  2  0
  9 10  1  0
 10 11  2  0
 11 12  1  0
 12 13  1  0
 13 14  2  0
 13 15  1  0
 15 16  1  0
 16 17  2  0
 17 18  1  0
 18 19  2  0
 19 20  1  0
 20 21  1  0
 20 22  1  0
 20 23  1  0
 19 24  1  0
 24 25  2  0
 11 26  1  0
 26 27  2  0
 27 28  1  0
 28 29  1  0
 27  8  1  0
 25 16  1  0
  1 30  1  0
  1 31  1  0
  1 32  1  0
  2 33  1  0
  2 34  1  0
  7 35  1  0
  7 36  1  0
  7 37  1  0
  9 38  1  0
 10 39  1  0
 17 40  1  0
 18 41  1  0
 24 42  1  0
 25 43  1  0
 26 44  1  0
 29 45  1  0
 29 46  1  0
 29 47  1  0
M  CHG  2  12  -1  15  -1
M  END
>  <UniqueID>  (4) 
4

>  <SMILES>  (4) 
CCS(=O)(=O)N(C)c1ccc([N-]C(=O)[N-]c2ccc(C(F)(F)F)cc2)cc1OC

>  <Energy>  (4) 
52.820564006554484

>  <Genealogy>  (4) 
CCS(=O)(=O)N(C)c1ccc([N-]C(=O)[N-]c2ccc(C(F)(F)F)cc2)cc1OC (protonated)
CCS(=O)(=O)N(C)c1ccc([N-]C(=O)[N-]c2ccc(C(F)(F)F)cc2)cc1OC (3D coordinates assigned)
CCS(=O)(=O)N(C)c1ccc([N-]C(=O)[N-]c2ccc(C(F)(F)F)cc2)cc1OC (optimized conformer: 52.820564006554484 kcal/mol)

>  <smiles>  (4) 
CCS(=O)(=O)N(C)c1ccc(NC(=O)Nc2ccc(C(F)(F)F)cc2)cc1OC

>  <score_type>  (4) 
oracle

>  <origin>  (4) 
adgpu

>  <m_score__min__energy>  (4) 
-10.16

>  <m_primary>  (4) 
energy

$$$$
4:0
     RDKit          3D

 20 21  0  0  0  0  0  0  0  0999 V2000
   -3.0439   23.6639  -27.6980 H   0  0  0  0  0  0  0  0  0  0  0  0
   -3.4610   23.8370  -28.7010 C   0  0  0  0  0  0  0  0  0  0  0  0
   -4.7310   22.9860  -29.4110 S   0  0  0  0  0  0  0  0  0  0  0  0
   -4.6870   23.8910  -30.8370 C   0  0  0  0  0  0  0  0  0  0  0  0
   -5.4270   23.7080  -31.8920 N   0  0  0  0  0  0  0  0  0  0  0  0
   -6.5110   22.7760  -32.0240 C   0  0  0  0  0  0  0  0  0  0  0  0
   -6.3080   21.4670  -32.5000 C   0  0  0  0  0  0  0  0  0  0  0  0
   -5.3033   21.1477  -32.8141 H   0  0  0  0  0  0  0  0  0  0  0  0
   -7.3790   20.5710  -32.5750 C   0  0  0  0  0  0  0  0  0  0  0  0
   -7.2184   19.5543  -32.9631 H   0  0  0  0  0  0  0  0  0  0  0  0
   -8.6520   20.9650  -32.1580 C   0  0  0  0  0  0  0  0  0  0  0  0
   -9.4957   20.2626  -32.2275 H   0  0  0  0  0  0  0  0  0  0  0  0
   -8.8540   22.2530  -31.6520 C   0  0  0  0  0  0  0  0  0  0  0  0
   -9.8547   22.5596  -31.3134 H   0  0  0  0  0  0  0  0  0  0  0  0
   -7.7860   23.1510  -31.5760 C   0  0  0  0  0  0  0  0  0  0  0  0
   -7.9462   24.1576  -31.1625 H   0  0  0  0  0  0  0  0  0  0  0  0
   -3.7110   24.8210  -30.7920 N   0  0  0  0  0  0  0  0  0  0  0  0
   -3.4930   25.4820  -31.5720 H   0  0  0  0  0  0  0  0  0  0  0  0
   -3.0360   24.7970  -29.6120 C   0  0  0  0  0  0  0  0  0  0  0  0
   -1.9910   25.6730  -29.3440 O   0  0  0  0  0  0  0  0  0  0  0  0
  1  2  1  0
  2  3  1  0
  3  4  1  0
  4  5  2  0
  5  6  1  0
  6  7  2  0
  7  8  1  0
  7  9  1  0
  9 10  1  0
  9 11  2  0
 11 12  1  0
 11 13  1  0
 13 14  1  0
 13 15  2  0
 15 16  1  0
  4 17  1  0
 17 18  1  0
 17 19  1  0
 19 20  1  0
 19  2  2  0
 15  6  1  0
M  CHG  1  20  -1
M  END
>  <UniqueID>  (5) 
5

>  <SMILES>  (5) 
[O-]c1cs/c(=N\c2ccccc2)[nH]1

>  <Energy>  (5) 
57.9922273349859

>  <Genealogy>  (5) 
[O-]c1csc(=Nc2ccccc2)[nH]1 (protonated)
[O-]c1cs/c(=N\c2ccccc2)[nH]1 (cis-trans isomerization)
[O-]c1cs/c(=N\c2ccccc2)[nH]1 (3D coordinates assigned)
[O-]c1cs/c(=N\c2ccccc2)[nH]1 (optimized conformer: 57.9922273349859 kcal/mol)

>  <smiles>  (5) 
Oc1csc(=Nc2ccccc2)[nH]1

>  <score_type>  (5) 
oracle

>  <origin>  (5) 
adgpu

>  <m_score__min__energy>  (5) 
-9.4100000000000001

>  <m_primary>  (5) 
energy

$$$$
5:0
     RDKit          3D

 40 42  0  0  0  0  0  0  0  0999 V2000
   -5.9310   25.5060  -29.1140 O   0  0  0  0  0  0  0  0  0  0  0  0
   -5.0320   24.5260  -29.8180 S   0  0  0  0  0  0  0  0  0  0  0  0
   -4.2420   25.2820  -30.8480 O   0  0  0  0  0  0  0  0  0  0  0  0
   -6.0180   23.3160  -30.6550 C   0  0  0  0  0  0  0  0  0  0  0  0
   -5.5780   22.7570  -31.8650 C   0  0  0  0  0  0  0  0  0  0  0  0
   -6.3510   21.7940  -32.5200 C   0  0  0  0  0  0  0  0  0  0  0  0
   -7.5790   21.3970  -31.9830 C   0  0  0  0  0  0  0  0  0  0  0  0
   -8.0410   21.9750  -30.7990 C   0  0  0  0  0  0  0  0  0  0  0  0
   -7.2700   22.9400  -30.1440 C   0  0  0  0  0  0  0  0  0  0  0  0
   -3.9280   23.8270  -28.6500 N   0  0  0  0  0  0  0  0  0  0  0  0
   -3.9560   24.4850  -27.3230 C   0  0  0  0  0  0  0  0  0  0  0  0
   -2.6580   25.1220  -26.9030 C   0  0  0  0  0  0  0  0  0  0  0  0
   -2.3000   25.5300  -25.6220 C   0  0  0  0  0  0  0  0  0  0  0  0
   -0.9830   25.9970  -25.5360 C   0  0  0  0  0  0  0  0  0  0  0  0
   -0.2870   25.9280  -26.7360 C   0  0  0  0  0  0  0  0  0  0  0  0
   -1.3110   25.2810  -27.8990 S   0  0  0  0  0  0  0  0  0  0  0  0
   -4.0030   22.3560  -28.6230 C   0  0  0  0  0  0  0  0  0  0  0  0
   -2.6380   21.7460  -28.4140 C   0  0  0  0  0  0  0  0  0  0  0  0
   -2.2200   21.4030  -27.1160 C   0  0  0  0  0  0  0  0  0  0  0  0
   -0.9540   20.8530  -26.9000 C   0  0  0  0  0  0  0  0  0  0  0  0
   -0.0930   20.6370  -27.9770 C   0  0  0  0  0  0  0  0  0  0  0  0
   -0.4940   20.9710  -29.2710 C   0  0  0  0  0  0  0  0  0  0  0  0
   -1.7600   21.5230  -29.4990 C   0  0  0  0  0  0  0  0  0  0  0  0
   -2.2160   21.9230  -31.1520 Cl  0  0  0  0  0  0  0  0  0  0  0  0
   -4.6201   23.0783  -32.3000 H   0  0  0  0  0  0  0  0  0  0  0  0
   -5.9924   21.3479  -33.4594 H   0  0  0  0  0  0  0  0  0  0  0  0
   -8.1807   20.6301  -32.4927 H   0  0  0  0  0  0  0  0  0  0  0  0
   -9.0121   21.6710  -30.3813 H   0  0  0  0  0  0  0  0  0  0  0  0
   -7.6470   23.4075  -29.2224 H   0  0  0  0  0  0  0  0  0  0  0  0
   -4.7288   25.2675  -27.3460 H   0  0  0  0  0  0  0  0  0  0  0  0
   -4.1612   23.6912  -26.5897 H   0  0  0  0  0  0  0  0  0  0  0  0
   -2.9842   25.4896  -24.7616 H   0  0  0  0  0  0  0  0  0  0  0  0
   -0.5409   26.3824  -24.6054 H   0  0  0  0  0  0  0  0  0  0  0  0
    0.7547   26.2427  -26.8967 H   0  0  0  0  0  0  0  0  0  0  0  0
   -4.6651   22.0450  -27.8014 H   0  0  0  0  0  0  0  0  0  0  0  0
   -4.3968   22.0084  -29.5895 H   0  0  0  0  0  0  0  0  0  0  0  0
   -2.8953   21.5691  -26.2637 H   0  0  0  0  0  0  0  0  0  0  0  0
   -0.6356   20.5900  -25.8804 H   0  0  0  0  0  0  0  0  0  0  0  0
    0.9030   20.2029  -27.8055 H   0  0  0  0  0  0  0  0  0  0  0  0
    0.1884   20.7996  -30.1166 H   0  0  0  0  0  0  0  0  0  0  0  0
  1  2  2  0
  2  3  2  0
  2  4  1  0
  4  5  2  0
  5  6  1  0
  6  7  2  0
  7  8  1  0
  8  9  2  0
  2 10  1  0
 10 11  1  0
 11 12  1  0
 12 13  2  0
 13 14  1  0
 14 15  2  0
 15 16  1  0
 10 17  1  0
 17 18  1  0
 18 19  2  0
 19 20  1  0
 20 21  2  0
 21 22  1  0
 22 23  2  0
 23 24  1  0
  9  4  1  0
 16 12  1  0
 23 18  1  0
  5 25  1  0
  6 26  1  0
  7 27  1  0
  8 28  1  0
  9 29  1  0
 11 30  1  0
 11 31  1  0
 13 32  1  0
 14 33  1  0
 15 34  1  0
 17 35  1  0
 17 36  1  0
 19 37  1  0
 20 38  1  0
 21 39  1  0
 22 40  1  0
M  END
>  <UniqueID>  (6) 
6

>  <SMILES>  (6) 
O=S(=O)(c1ccccc1)N(Cc1cccs1)Cc1ccccc1Cl

>  <Energy>  (6) 
71.62965991846441

>  <Genealogy>  (6) 
O=S(=O)(c1ccccc1)N(Cc1cccs1)Cc1ccccc1Cl (3D coordinates assigned)
O=S(=O)(c1ccccc1)N(Cc1cccs1)Cc1ccccc1Cl (optimized conformer: 71.62965991846441 kcal/mol)

>  <smiles>  (6) 
O=S(=O)(c1ccccc1)N(Cc1cccs1)Cc1ccccc1Cl

>  <score_type>  (6) 
oracle

>  <origin>  (6) 
adgpu

>  <m_score__min__energy>  (6) 
-8.5700000000000003

>  <m_primary>  (6) 
energy

$$$$
6:0
     RDKit          3D

 35 36  0  0  0  0  0  0  0  0999 V2000
   -1.1630   20.8110  -34.0760 C   0  0  0  0  0  0  0  0  0  0  0  0
   -2.5330   20.9120  -33.5640 N   0  0  0  0  0  0  0  0  0  0  0  0
   -2.5860   21.5360  -32.2320 C   0  0  0  0  0  0  0  0  0  0  0  0
   -3.9290   22.1810  -31.9620 C   0  0  0  0  0  0  0  0  0  0  0  0
   -4.0010   23.2700  -31.0760 C   0  0  0  0  0  0  0  0  0  0  0  0
   -5.2280   23.8990  -30.8070 C   0  0  0  0  0  0  0  0  0  0  0  0
   -5.2850   25.0950  -29.8910 C   0  0  0  0  0  0  0  0  0  0  0  0
   -4.9740   24.7310  -28.5920 F   0  0  0  0  0  0  0  0  0  0  0  0
   -6.5530   25.6520  -29.8910 F   0  0  0  0  0  0  0  0  0  0  0  0
   -4.3770   26.0430  -30.3220 F   0  0  0  0  0  0  0  0  0  0  0  0
   -6.3790   23.4640  -31.4820 C   0  0  0  0  0  0  0  0  0  0  0  0
   -6.3150   22.3890  -32.3690 C   0  0  0  0  0  0  0  0  0  0  0  0
   -5.0980   21.7280  -32.6050 C   0  0  0  0  0  0  0  0  0  0  0  0
   -5.0160   20.6620  -33.5160 O   0  0  0  0  0  0  0  0  0  0  0  0
   -5.7190   19.4520  -33.4210 C   0  0  0  0  0  0  0  0  0  0  0  0
   -5.3010   18.2930  -34.1020 C   0  0  0  0  0  0  0  0  0  0  0  0
   -6.0390   17.1110  -33.9950 C   0  0  0  0  0  0  0  0  0  0  0  0
   -7.2030   17.0780  -33.2230 C   0  0  0  0  0  0  0  0  0  0  0  0
   -7.6360   18.2320  -32.5610 C   0  0  0  0  0  0  0  0  0  0  0  0
   -9.1030   18.1960  -31.6010 Cl  0  0  0  0  0  0  0  0  0  0  0  0
   -6.8980   19.4170  -32.6660 C   0  0  0  0  0  0  0  0  0  0  0  0
   -0.4591   20.7591  -33.2323 H   0  0  0  0  0  0  0  0  0  0  0  0
   -1.0670   19.9033  -34.6900 H   0  0  0  0  0  0  0  0  0  0  0  0
   -0.9349   21.6948  -34.6900 H   0  0  0  0  0  0  0  0  0  0  0  0
   -2.9670   19.9590  -33.5360 H   0  0  0  0  0  0  0  0  0  0  0  0
   -3.0880   21.5030  -34.2280 H   0  0  0  0  0  0  0  0  0  0  0  0
   -2.4031   20.7637  -31.4703 H   0  0  0  0  0  0  0  0  0  0  0  0
   -1.8173   22.3219  -32.1936 H   0  0  0  0  0  0  0  0  0  0  0  0
   -3.0853   23.6341  -30.5873 H   0  0  0  0  0  0  0  0  0  0  0  0
   -7.3383   23.9742  -31.3105 H   0  0  0  0  0  0  0  0  0  0  0  0
   -7.2257   22.0559  -32.8883 H   0  0  0  0  0  0  0  0  0  0  0  0
   -4.3913   18.3178  -34.7199 H   0  0  0  0  0  0  0  0  0  0  0  0
   -5.7027   16.2046  -34.5198 H   0  0  0  0  0  0  0  0  0  0  0  0
   -7.7789   16.1449  -33.1357 H   0  0  0  0  0  0  0  0  0  0  0  0
   -7.2461   20.3255  -32.1527 H   0  0  0  0  0  0  0  0  0  0  0  0
  1  2  1  0
  2  3  1  0
  3  4  1  0
  4  5  2  0
  5  6  1  0
  6  7  1  0
  7  8  1  0
  7  9  1  0
  7 10  1  0
  6 11  2  0
 11 12  1  0
 12 13  2  0
 13 14  1  0
 14 15  1  0
 15 16  2  0
 16 17  1  0
 17 18  2  0
 18 19  1  0
 19 20  1  0
 19 21  2  0
 13  4  1  0
 21 15  1  0
  1 22  1  0
  1 23  1  0
  1 24  1  0
  2 25  1  0
  2 26  1  0
  3 27  1  0
  3 28  1  0
  5 29  1  0
 11 30  1  0
 12 31  1  0
 16 32  1  0
 17 33  1  0
 18 34  1  0
 21 35  1  0
M  CHG  1   2   1
M  END
>  <UniqueID>  (7) 
7

>  <SMILES>  (7) 
C[NH2+]Cc1cc(C(F)(F)F)ccc1Oc1cccc(Cl)c1

>  <Energy>  (7) 
41.18582521520392

>  <Genealogy>  (7) 
C[NH2+]Cc1cc(C(F)(F)F)ccc1Oc1cccc(Cl)c1 (protonated)
C[NH2+]Cc1cc(C(F)(F)F)ccc1Oc1cccc(Cl)c1 (3D coordinates assigned)
C[NH2+]Cc1cc(C(F)(F)F)ccc1Oc1cccc(Cl)c1 (optimized conformer: 41.18582521520392 kcal/mol)

>  <smiles>  (7) 
CNCc1cc(C(F)(F)F)ccc1Oc1cccc(Cl)c1

>  <score_type>  (7) 
oracle

>  <origin>  (7) 
adgpu

>  <m_score__min__energy>  (7) 
-5.9900000000000002

>  <m_primary>  (7) 
energy

$$$$
7:0
     RDKit          3D

 57 59  0  0  0  0  0  0  0  0999 V2000
   -0.8020   22.3050  -26.9280 H   0  0  0  0  0  0  0  0  0  0  0  0
   -0.8100   22.4720  -25.9490 O   0  0  0  0  0  0  0  0  0  0  0  0
    0.3060   23.2710  -25.6690 C   0  0  0  0  0  0  0  0  0  0  0  0
    1.2230   22.6974  -25.8691 H   0  0  0  0  0  0  0  0  0  0  0  0
    0.2752   23.5729  -24.6117 H   0  0  0  0  0  0  0  0  0  0  0  0
    0.2920   24.5230  -26.5460 C   0  0  0  0  0  0  0  0  0  0  0  0
    0.9248   25.2939  -26.0820 H   0  0  0  0  0  0  0  0  0  0  0  0
   -0.7459   24.8766  -26.6340 H   0  0  0  0  0  0  0  0  0  0  0  0
    0.9260   24.1590  -28.2220 S   0  0  0  0  0  0  0  0  0  0  0  0
   -0.6060   23.4460  -28.8130 C   0  0  0  0  0  0  0  0  0  0  0  0
   -0.7850   22.1030  -28.7780 N   0  0  0  0  0  0  0  0  0  0  0  0
   -1.9480   21.5550  -29.2230 C   0  0  0  0  0  0  0  0  0  0  0  0
   -2.1290   20.2690  -29.2110 N   0  0  0  0  0  0  0  0  0  0  0  0
   -1.1710   19.3240  -28.7070 C   0  0  0  0  0  0  0  0  0  0  0  0
   -1.4150   18.6840  -27.4750 C   0  0  0  0  0  0  0  0  0  0  0  0
   -2.6770   18.9660  -26.7060 C   0  0  0  0  0  0  0  0  0  0  0  0
   -2.4672   18.9191  -25.6272 H   0  0  0  0  0  0  0  0  0  0  0  0
   -3.0474   19.9691  -26.9643 H   0  0  0  0  0  0  0  0  0  0  0  0
   -3.4391   18.2160  -26.9643 H   0  0  0  0  0  0  0  0  0  0  0  0
   -0.4990   17.7380  -26.9910 C   0  0  0  0  0  0  0  0  0  0  0  0
   -0.7021   17.2195  -26.0423 H   0  0  0  0  0  0  0  0  0  0  0  0
    0.6710   17.4470  -27.7030 C   0  0  0  0  0  0  0  0  0  0  0  0
    1.6210   16.4010  -27.2000 C   0  0  0  0  0  0  0  0  0  0  0  0
    1.6194   16.4028  -26.1000 H   0  0  0  0  0  0  0  0  0  0  0  0
    1.3053   15.4127  -27.5656 H   0  0  0  0  0  0  0  0  0  0  0  0
    2.6350   16.6204  -27.5656 H   0  0  0  0  0  0  0  0  0  0  0  0
    0.9150   18.0910  -28.9220 C   0  0  0  0  0  0  0  0  0  0  0  0
    1.8199   17.8430  -29.4961 H   0  0  0  0  0  0  0  0  0  0  0  0
    0.0190   19.0490  -29.4200 C   0  0  0  0  0  0  0  0  0  0  0  0
    0.3270   19.7320  -30.7260 C   0  0  0  0  0  0  0  0  0  0  0  0
    0.7718   20.7184  -30.5280 H   0  0  0  0  0  0  0  0  0  0  0  0
    1.0359   19.1191  -31.3021 H   0  0  0  0  0  0  0  0  0  0  0  0
   -0.6016   19.8575  -31.3021 H   0  0  0  0  0  0  0  0  0  0  0  0
   -2.9240   22.3610  -29.7080 N   0  0  0  0  0  0  0  0  0  0  0  0
   -2.7480   23.7100  -29.7480 C   0  0  0  0  0  0  0  0  0  0  0  0
   -3.6780   24.4920  -30.2060 N   0  0  0  0  0  0  0  0  0  0  0  0
   -4.9270   24.0330  -30.7490 C   0  0  0  0  0  0  0  0  0  0  0  0
   -4.9590   23.0470  -31.7640 C   0  0  0  0  0  0  0  0  0  0  0  0
   -3.6960   22.4500  -32.3230 C   0  0  0  0  0  0  0  0  0  0  0  0
   -3.0399   22.1399  -31.4964 H   0  0  0  0  0  0  0  0  0  0  0  0
   -3.9462   21.5748  -32.9407 H   0  0  0  0  0  0  0  0  0  0  0  0
   -3.1786   23.1988  -32.9407 H   0  0  0  0  0  0  0  0  0  0  0  0
   -6.1960   22.5920  -32.2450 C   0  0  0  0  0  0  0  0  0  0  0  0
   -6.2245   21.8077  -33.0158 H   0  0  0  0  0  0  0  0  0  0  0  0
   -7.3950   23.1250  -31.7550 C   0  0  0  0  0  0  0  0  0  0  0  0
   -8.7110   22.6620  -32.3090 C   0  0  0  0  0  0  0  0  0  0  0  0
   -9.3935   22.4219  -31.4805 H   0  0  0  0  0  0  0  0  0  0  0  0
   -9.1500   23.4597  -32.9263 H   0  0  0  0  0  0  0  0  0  0  0  0
   -8.5539   21.7652  -32.9263 H   0  0  0  0  0  0  0  0  0  0  0  0
   -7.3570   24.1460  -30.7970 C   0  0  0  0  0  0  0  0  0  0  0  0
   -8.2964   24.5905  -30.4365 H   0  0  0  0  0  0  0  0  0  0  0  0
   -6.1310   24.6070  -30.2930 C   0  0  0  0  0  0  0  0  0  0  0  0
   -6.1120   25.6780  -29.2360 C   0  0  0  0  0  0  0  0  0  0  0  0
   -6.1203   25.2106  -28.2403 H   0  0  0  0  0  0  0  0  0  0  0  0
   -5.2029   26.2872  -29.3476 H   0  0  0  0  0  0  0  0  0  0  0  0
   -6.9989   26.3190  -29.3476 H   0  0  0  0  0  0  0  0  0  0  0  0
   -1.5900   24.2480  -29.2910 N   0  0  0  0  0  0  0  0  0  0  0  0
  1  2  1  0
  2  3  1  0
  3  4  1  0
  3  5  1  0
  3  6  1  0
  6  7  1  0
  6  8  1  0
  6  9  1  0
  9 10  1  0
 10 11  2  0
 11 12  1  0
 12 13  2  0
 13 14  1  0
 14 15  2  0
 15 16  1  0
 16 17  1  0
 16 18  1  0
 16 19  1  0
 15 20  1  0
 20 21  1  0
 20 22  2  0
 22 23  1  0
 23 24  1  0
 23 25  1  0
 23 26  1  0
 22 27  1  0
 27 28  1  0
 27 29  2  0
 29 30  1  0
 30 31  1  0
 30 32  1  0
 30 33  1  0
 12 34  1  0
 34 35  1  0
 35 36  2  0
 36 37  1  0
 37 38  2  0
 38 39  1  0
 39 40  1  0
 39 41  1  0
 39 42  1  0
 38 43  1  0
 43 44  1  0
 43 45  2  0
 45 46  1  0
 46 47  1  0
 46 48  1  0
 46 49  1  0
 45 50  1  0
 50 51  1  0
 50 52  2  0
 52 53  1  0
 53 54  1  0
 53 55  1  0
 53 56  1  0
 35 57  1  0
 57 10  1  0
 29 14  1  0
 52 37  1  0
M  CHG  2  34  -1  57  -1
M  END
>  <UniqueID>  (8) 
8

>  <SMILES>  (8) 
Cc1cc(C)c(/N=c2\nc(SCCO)[n-]/c(=N/c3c(C)cc(C)cc3C)[n-]2)c(C)c1

>  <Energy>  (8) 
67.57953642423028

>  <Genealogy>  (8) 
Cc1cc(C)c(N=c2nc(SCCO)[n-]c(=Nc3c(C)cc(C)cc3C)[n-]2)c(C)c1 (protonated)
Cc1cc(C)c(/N=c2\nc(SCCO)[n-]/c(=N/c3c(C)cc(C)cc3C)[n-]2)c(C)c1 (cis-trans isomerization)
Cc1cc(C)c(/N=c2\nc(SCCO)[n-]/c(=N/c3c(C)cc(C)cc3C)[n-]2)c(C)c1 (3D coordinates assigned)
Cc1cc(C)c(/N=c2\nc(SCCO)[n-]/c(=N/c3c(C)cc(C)cc3C)[n-]2)c(C)c1 (optimized conformer: 67.57953642423028 kcal/mol)

>  <smiles>  (8) 
Cc1cc(C)c(N=c2nc(SCCO)[nH]c(=Nc3c(C)cc(C)cc3C)[nH]2)c(C)c1

>  <score_type>  (8) 
oracle

>  <origin>  (8) 
adgpu

>  <m_score__min__energy>  (8) 
-9.1899999999999995

>  <m_primary>  (8) 
energy

$$$$
8:0
     RDKit          3D

 58 61  0  0  0  0  0  0  0  0999 V2000
   -1.1574   28.8728  -24.6393 H   0  0  0  0  0  0  0  0  0  0  0  0
   -1.0490   28.0550  -25.3670 C   0  0  0  0  0  0  0  0  0  0  0  0
   -1.5860   26.7920  -25.0860 C   0  0  0  0  0  0  0  0  0  0  0  0
   -2.1108   26.6176  -24.1351 H   0  0  0  0  0  0  0  0  0  0  0  0
   -1.4560   25.7530  -26.0120 C   0  0  0  0  0  0  0  0  0  0  0  0
   -1.8669   24.7589  -25.7820 H   0  0  0  0  0  0  0  0  0  0  0  0
   -0.8040   25.9740  -27.2320 C   0  0  0  0  0  0  0  0  0  0  0  0
   -0.6020   24.8720  -28.1210 N   0  0  0  0  0  0  0  0  0  0  0  0
   -1.4830   24.3000  -28.8910 C   0  0  0  0  0  0  0  0  0  0  0  0
   -1.0690   23.3130  -29.7210 N   0  0  0  0  0  0  0  0  0  0  0  0
   -1.9490   22.6590  -30.5220 C   0  0  0  0  0  0  0  0  0  0  0  0
   -1.5620   21.6940  -31.3050 N   0  0  0  0  0  0  0  0  0  0  0  0
   -0.1810   21.2490  -31.4680 C   0  0  0  0  0  0  0  0  0  0  0  0
    0.4891   22.1206  -31.4337 H   0  0  0  0  0  0  0  0  0  0  0  0
   -0.0781   20.7375  -32.4364 H   0  0  0  0  0  0  0  0  0  0  0  0
    0.1850   20.2960  -30.3650 C   0  0  0  0  0  0  0  0  0  0  0  0
    1.3970   19.5980  -30.4040 C   0  0  0  0  0  0  0  0  0  0  0  0
    2.1076   19.7913  -31.2211 H   0  0  0  0  0  0  0  0  0  0  0  0
    1.7200   18.6530  -29.4140 C   0  0  0  0  0  0  0  0  0  0  0  0
    2.9350   17.9570  -29.4550 O   0  0  0  0  0  0  0  0  0  0  0  0
    3.9210   17.9620  -28.4280 C   0  0  0  0  0  0  0  0  0  0  0  0
    3.4268   17.9595  -27.4453 H   0  0  0  0  0  0  0  0  0  0  0  0
    4.5535   17.0671  -28.5226 H   0  0  0  0  0  0  0  0  0  0  0  0
    4.5444   18.8633  -28.5226 H   0  0  0  0  0  0  0  0  0  0  0  0
    0.7980   18.4070  -28.3640 C   0  0  0  0  0  0  0  0  0  0  0  0
    1.0180   17.4710  -27.3360 O   0  0  0  0  0  0  0  0  0  0  0  0
    0.9990   16.0580  -27.4620 C   0  0  0  0  0  0  0  0  0  0  0  0
    0.9929   15.6007  -26.4616 H   0  0  0  0  0  0  0  0  0  0  0  0
    0.0966   15.7509  -28.0111 H   0  0  0  0  0  0  0  0  0  0  0  0
    1.8928   15.7268  -28.0111 H   0  0  0  0  0  0  0  0  0  0  0  0
   -0.4110   19.1190  -28.3200 C   0  0  0  0  0  0  0  0  0  0  0  0
   -1.2910   18.8620  -27.2580 O   0  0  0  0  0  0  0  0  0  0  0  0
   -2.4430   19.6410  -26.9530 C   0  0  0  0  0  0  0  0  0  0  0  0
   -2.5556   19.7172  -25.8614 H   0  0  0  0  0  0  0  0  0  0  0  0
   -2.3286   20.6479  -27.3810 H   0  0  0  0  0  0  0  0  0  0  0  0
   -3.3348   19.1598  -27.3810 H   0  0  0  0  0  0  0  0  0  0  0  0
   -0.7160   20.0520  -29.3250 C   0  0  0  0  0  0  0  0  0  0  0  0
   -1.6721   20.5951  -29.2930 H   0  0  0  0  0  0  0  0  0  0  0  0
   -3.2570   23.0030  -30.4920 N   0  0  0  0  0  0  0  0  0  0  0  0
   -3.6980   23.9800  -29.6560 C   0  0  0  0  0  0  0  0  0  0  0  0
   -4.9510   24.3390  -29.6440 N   0  0  0  0  0  0  0  0  0  0  0  0
   -6.0240   23.7560  -30.4050 C   0  0  0  0  0  0  0  0  0  0  0  0
   -6.1710   24.1240  -31.7500 C   0  0  0  0  0  0  0  0  0  0  0  0
   -5.4657   24.8366  -32.2026 H   0  0  0  0  0  0  0  0  0  0  0  0
   -7.2110   23.5890  -32.5200 C   0  0  0  0  0  0  0  0  0  0  0  0
   -7.3115   23.8710  -33.5785 H   0  0  0  0  0  0  0  0  0  0  0  0
   -8.1220   22.6970  -31.9460 C   0  0  0  0  0  0  0  0  0  0  0  0
   -8.9305   22.2677  -32.5560 H   0  0  0  0  0  0  0  0  0  0  0  0
   -8.0050   22.3510  -30.5970 C   0  0  0  0  0  0  0  0  0  0  0  0
   -8.7295   21.6595  -30.1421 H   0  0  0  0  0  0  0  0  0  0  0  0
   -6.9660   22.8840  -29.8240 C   0  0  0  0  0  0  0  0  0  0  0  0
   -6.8850   22.6209  -28.7590 H   0  0  0  0  0  0  0  0  0  0  0  0
   -2.8110   24.6230  -28.8480 N   0  0  0  0  0  0  0  0  0  0  0  0
   -3.1760   25.3380  -28.1840 H   0  0  0  0  0  0  0  0  0  0  0  0
   -0.2400   27.2380  -27.4950 C   0  0  0  0  0  0  0  0  0  0  0  0
    0.3100   27.4086  -28.4322 H   0  0  0  0  0  0  0  0  0  0  0  0
   -0.3770   28.2760  -26.5690 C   0  0  0  0  0  0  0  0  0  0  0  0
    0.0454   29.2677  -26.7884 H   0  0  0  0  0  0  0  0  0  0  0  0
  1  2  1  0
  2  3  2  0
  3  4  1  0
  3  5  1  0
  5  6  1  0
  5  7  2  0
  7  8  1  0
  8  9  2  3
  9 10  1  0
 10 11  1  0
 11 12  2  0
 12 13  1  0
 13 14  1  0
 13 15  1  0
 13 16  1  0
 16 17  2  0
 17 18  1  0
 17 19  1  0
 19 20  1  0
 20 21  1  0
 21 22  1  0
 21 23  1  0
 21 24  1  0
 19 25  2  0
 25 26  1  0
 26 27  1  0
 27 28  1  0
 27 29  1  0
 27 30  1  0
 25 31  1  0
 31 32  1  0
 32 33  1  0
 33 34  1  0
 33 35  1  0
 33 36  1  0
 31 37  2  0
 37 38  1  0
 11 39  1  0
 39 40  1  0
 40 41  2  0
 41 42  1  0
 42 43  2  0
 43 44  1  0
 43 45  1  0
 45 46  1  0
 45 47  2  0
 47 48  1  0
 47 49  1  0
 49 50  1  0
 49 51  2  0
 51 52  1  0
 40 53  1  0
 53 54  1  0
  7 55  1  0
 55 56  1  0
 55 57  2  0
 57 58  1  0
 57  2  1  0
 53  9  1  0
 37 16  1  0
 51 42  1  0
M  CHG  2  10  -1  39  -1
M  END
>  <UniqueID>  (9) 
9

>  <SMILES>  (9) 
COc1cc(C/N=c2\[n-]c(=Nc3ccccc3)[nH]/c(=N/c3ccccc3)[n-]2)cc(OC)c1OC

>  <Energy>  (9) 
79.46171755272299

>  <Genealogy>  (9) 
COc1cc(CN=c2[n-]c(=Nc3ccccc3)[nH]c(=Nc3ccccc3)[n-]2)cc(OC)c1OC (protonated)
COc1cc(C/N=c2\[n-]c(=Nc3ccccc3)[nH]/c(=N/c3ccccc3)[n-]2)cc(OC)c1OC (cis-trans isomerization)
COc1cc(C/N=c2\[n-]c(=Nc3ccccc3)[nH]/c(=N/c3ccccc3)[n-]2)cc(OC)c1OC (3D coordinates assigned)
COc1cc(C/N=c2\[n-]c(=Nc3ccccc3)[nH]/c(=N/c3ccccc3)[n-]2)cc(OC)c1OC (optimized conformer: 79.46171755272299 kcal/mol)

>  <smiles>  (9) 
COc1cc(CN=c2[nH]c(=Nc3ccccc3)[nH]c(=Nc3ccccc3)[nH]2)cc(OC)c1OC

>  <score_type>  (9) 
oracle

>  <origin>  (9) 
adgpu

>  <m_score__min__energy>  (9) 
-9.5800000000000001

>  <m_primary>  (9) 
energy

$$$$
9:0
     RDKit          3D

 62 65  0  0  0  0  0  0  0  0999 V2000
   -5.7490   24.5510  -31.3070 C   0  0  0  0  0  0  0  0  0  0  0  0
   -4.7770   24.3570  -30.1920 C   0  0  0  0  0  0  0  0  0  0  0  0
   -4.9480   23.5170  -29.1070 C   0  0  0  0  0  0  0  0  0  0  0  0
   -3.8050   23.6520  -28.3500 C   0  0  0  0  0  0  0  0  0  0  0  0
   -3.0000   24.5510  -29.0330 C   0  0  0  0  0  0  0  0  0  0  0  0
   -1.6640   25.0040  -28.5880 C   0  0  0  0  0  0  0  0  0  0  0  0
   -1.2450   26.1320  -28.9700 O   0  0  0  0  0  0  0  0  0  0  0  0
   -0.8480   24.2420  -27.6880 N   0  0  0  0  0  0  0  0  0  0  0  0
   -0.8310   22.8170  -27.5690 C   0  0  0  0  0  0  0  0  0  0  0  0
    0.0080   21.9400  -28.2260 C   0  0  0  0  0  0  0  0  0  0  0  0
   -0.3580   20.6800  -27.7830 C   0  0  0  0  0  0  0  0  0  0  0  0
    0.1980   19.4220  -28.3170 C   0  0  0  0  0  0  0  0  0  0  0  0
    0.2810   18.4200  -27.5580 O   0  0  0  0  0  0  0  0  0  0  0  0
    0.6940   19.3230  -29.6600 N   0  0  0  0  0  0  0  0  0  0  0  0
    0.0540   19.8640  -30.8230 C   0  0  0  0  0  0  0  0  0  0  0  0
    0.6100   19.8960  -32.0830 C   0  0  0  0  0  0  0  0  0  0  0  0
   -0.3110   20.5510  -32.8840 C   0  0  0  0  0  0  0  0  0  0  0  0
   -0.1300   20.8610  -34.3170 C   0  0  0  0  0  0  0  0  0  0  0  0
    0.3270   21.9870  -34.6460 O   0  0  0  0  0  0  0  0  0  0  0  0
   -0.4850   19.9370  -35.3550 N   0  0  0  0  0  0  0  0  0  0  0  0
   -0.4690   18.4750  -35.2650 C   0  0  0  0  0  0  0  0  0  0  0  0
   -1.3830   17.9480  -34.1420 C   0  0  0  0  0  0  0  0  0  0  0  0
   -2.8070   18.2720  -34.3740 N   0  0  0  0  0  0  0  0  0  0  0  0
   -3.5280   17.1330  -34.9850 C   0  0  0  0  0  0  0  0  0  0  0  0
   -5.0440   17.4170  -35.0410 C   0  0  0  0  0  0  0  0  0  0  0  0
   -5.3310   18.7510  -34.6720 O   0  0  0  0  0  0  0  0  0  0  0  0
   -4.9450   18.9650  -33.3260 C   0  0  0  0  0  0  0  0  0  0  0  0
   -3.4530   18.6510  -33.1020 C   0  0  0  0  0  0  0  0  0  0  0  0
   -1.3840   20.9230  -32.1500 N   0  0  0  0  0  0  0  0  0  0  0  0
   -2.5780   21.6210  -32.6190 C   0  0  0  0  0  0  0  0  0  0  0  0
   -1.1640   20.5140  -30.8850 C   0  0  0  0  0  0  0  0  0  0  0  0
   -1.3400   20.7770  -26.8560 N   0  0  0  0  0  0  0  0  0  0  0  0
   -2.0080   19.6950  -26.1360 C   0  0  0  0  0  0  0  0  0  0  0  0
   -1.6290   22.0850  -26.7180 C   0  0  0  0  0  0  0  0  0  0  0  0
   -3.6050   24.9430  -30.1320 O   0  0  0  0  0  0  0  0  0  0  0  0
   -6.7480   24.7504  -30.8920 H   0  0  0  0  0  0  0  0  0  0  0  0
   -5.4320   25.4036  -31.9256 H   0  0  0  0  0  0  0  0  0  0  0  0
   -5.7836   23.6421  -31.9256 H   0  0  0  0  0  0  0  0  0  0  0  0
   -5.8154   22.8752  -28.8931 H   0  0  0  0  0  0  0  0  0  0  0  0
   -3.5775   23.1494  -27.3984 H   0  0  0  0  0  0  0  0  0  0  0  0
    0.7994   22.1890  -28.9482 H   0  0  0  0  0  0  0  0  0  0  0  0
    1.5837   19.4863  -32.3896 H   0  0  0  0  0  0  0  0  0  0  0  0
   -0.8103   18.0578  -36.2239 H   0  0  0  0  0  0  0  0  0  0  0  0
    0.5605   18.1633  -35.0349 H   0  0  0  0  0  0  0  0  0  0  0  0
   -1.2748   16.8550  -34.0825 H   0  0  0  0  0  0  0  0  0  0  0  0
   -1.0770   18.4356  -33.2046 H   0  0  0  0  0  0  0  0  0  0  0  0
   -3.1521   16.9732  -36.0064 H   0  0  0  0  0  0  0  0  0  0  0  0
   -3.3577   16.2355  -34.3722 H   0  0  0  0  0  0  0  0  0  0  0  0
   -5.4033   17.2436  -36.0661 H   0  0  0  0  0  0  0  0  0  0  0  0
   -5.5494   16.7445  -34.3323 H   0  0  0  0  0  0  0  0  0  0  0  0
   -5.1304   20.0175  -33.0654 H   0  0  0  0  0  0  0  0  0  0  0  0
   -5.5359   18.2902  -32.6893 H   0  0  0  0  0  0  0  0  0  0  0  0
   -2.9531   19.5417  -32.6936 H   0  0  0  0  0  0  0  0  0  0  0  0
   -3.3686   17.8113  -32.3965 H   0  0  0  0  0  0  0  0  0  0  0  0
   -3.1653   21.9643  -31.7546 H   0  0  0  0  0  0  0  0  0  0  0  0
   -2.2807   22.4876  -33.2278 H   0  0  0  0  0  0  0  0  0  0  0  0
   -3.1873   20.9368  -33.2278 H   0  0  0  0  0  0  0  0  0  0  0  0
   -1.8457   20.6724  -30.0364 H   0  0  0  0  0  0  0  0  0  0  0  0
   -1.9072   19.8583  -25.0529 H   0  0  0  0  0  0  0  0  0  0  0  0
   -3.0741   19.6779  -26.4066 H   0  0  0  0  0  0  0  0  0  0  0  0
   -1.5456   18.7343  -26.4066 H   0  0  0  0  0  0  0  0  0  0  0  0
   -2.3827   22.5025  -26.0342 H   0  0  0  0  0  0  0  0  0  0  0  0
  1  2  1  0
  2  3  2  0
  3  4  1  0
  4  5  2  0
  5  6  1  0
  6  7  2  0
  6  8  1  0
  8  9  1  0
  9 10  1  0
 10 11  2  0
 11 12  1  0
 12 13  2  0
 12 14  1  0
 14 15  1  0
 15 16  1  0
 16 17  2  0
 17 18  1  0
 18 19  2  0
 18 20  1  0
 20 21  1  0
 21 22  1  0
 22 23  1  0
 23 24  1  0
 24 25  1  0
 25 26  1  0
 26 27  1  0
 27 28  1  0
 17 29  1  0
 29 30  1  0
 29 31  1  0
 11 32  1  0
 32 33  1  0
 32 34  1  0
  5 35  1  0
 35  2  1  0
 34  9  2  0
 31 15  2  0
 28 23  1  0
  1 36  1  0
  1 37  1  0
  1 38  1  0
  3 39  1  0
  4 40  1  0
 10 41  1  0
 16 42  1  0
 21 43  1  0
 21 44  1  0
 22 45  1  0
 22 46  1  0
 24 47  1  0
 24 48  1  0
 25 49  1  0
 25 50  1  0
 27 51  1  0
 27 52  1  0
 28 53  1  0
 28 54  1  0
 30 55  1  0
 30 56  1  0
 30 57  1  0
 31 58  1  0
 33 59  1  0
 33 60  1  0
 33 61  1  0
 34 62  1  0
M  CHG  3   8  -1  14  -1  20  -1
M  END
>  <UniqueID>  (10) 
10

>  <SMILES>  (10) 
Cc1ccc(C(=O)[N-]c2cc(C(=O)[N-]c3cc(C(=O)[N-]CCN4CCOCC4)n(C)c3)n(C)c2)o1

>  <Energy>  (10) 
161.00466569880675

>  <Genealogy>  (10) 
Cc1ccc(C(=O)[N-]c2cc(C(=O)[N-]c3cc(C(=O)[N-]CCN4CCOCC4)n(C)c3)n(C)c2)o1 (protonated)
Cc1ccc(C(=O)[N-]c2cc(C(=O)[N-]c3cc(C(=O)[N-]CCN4CCOCC4)n(C)c3)n(C)c2)o1 (3D coordinates assigned)
Cc1ccc(C(=O)[N-]c2cc(C(=O)[N-]c3cc(C(=O)[N-]CCN4CCOCC4)n(C)c3)n(C)c2)o1 (nonaromatic ring conformer: 161.00466569880675 kcal/mol)

>  <smiles>  (10) 
Cc1ccc(C(=O)Nc2cc(C(=O)Nc3cc(C(=O)NCCN4CCOCC4)n(C)c3)n(C)c2)o1

>  <score_type>  (10) 
oracle

>  <origin>  (10) 
adgpu

>  <m_score__min__energy>  (10) 
-10.359999999999999

>  <m_primary>  (10) 
energy

$$$$
10:0
     RDKit          3D

 43 47  0  0  1  0  0  0  0  0999 V2000
   -9.4660   19.3300  -32.7610 C   0  0  0  0  0  0  0  0  0  0  0  0
   -8.1760   19.9900  -32.6910 N   0  0  0  0  0  0  0  0  0  0  0  0
   -7.8330   20.9210  -31.8090 C   0  0  0  0  0  0  0  0  0  0  0  0
   -6.5280   21.2740  -32.0960 C   0  0  0  0  0  0  0  0  0  0  0  0
   -5.7070   22.2630  -31.4080 C   0  0  0  0  0  0  0  0  0  0  0  0
   -5.8580   23.6130  -31.7240 C   0  0  0  0  0  0  0  0  0  0  0  0
   -5.0680   24.5010  -31.0660 N   0  0  0  0  0  0  0  0  0  0  0  0
   -4.1610   24.1160  -30.1330 C   0  0  0  0  0  0  0  0  0  0  0  0
   -3.3830   25.0120  -29.4950 N   0  0  0  0  0  0  0  0  0  0  0  0
   -2.4760   24.6030  -28.5670 C   0  0  0  0  0  0  0  0  0  0  0  0
   -1.7570   25.5010  -27.9900 N   0  0  0  0  0  0  0  0  0  0  0  0
   -0.7880   25.0680  -26.9990 C   0  0  0  0  0  0  0  0  0  0  0  0
   -1.0010   25.0700  -25.7080 C   0  0  0  0  0  0  0  0  0  0  0  0
    0.0260   24.6220  -24.8400 C   0  0  0  0  0  0  0  0  0  0  0  0
    1.3990   24.1620  -25.9710 S   0  0  0  0  0  0  0  0  0  0  0  0
    0.4670   24.6150  -27.4950 C   0  0  0  0  0  0  0  0  0  0  0  0
   -2.3360   23.3280  -28.2710 N   0  0  0  0  0  0  0  0  0  0  0  0
   -3.1000   22.4110  -28.8930 C   0  0  0  0  0  0  0  0  0  0  0  0
   -2.9400   21.1960  -28.5840 N   0  0  0  0  0  0  0  0  0  0  0  0
   -2.0790   20.5710  -27.6710 C   0  0  0  0  0  0  0  0  0  0  0  0
   -0.6250   20.6220  -27.5410 C   0  0  0  0  0  0  0  0  0  0  0  0
   -1.6090   20.7340  -26.3530 C   0  0  0  0  0  0  0  0  0  0  0  0
   -4.0190   22.7670  -29.8260 C   0  0  0  0  0  0  0  0  0  0  0  0
   -4.7960   21.8280  -30.4660 C   0  0  0  0  0  0  0  0  0  0  0  0
   -6.1030   20.5160  -33.1850 C   0  0  0  0  0  0  0  0  0  0  0  0
   -7.1660   19.7500  -33.4970 N   0  0  0  0  0  0  0  0  0  0  0  0
   -9.8366   19.1404  -31.7428 H   0  0  0  0  0  0  0  0  0  0  0  0
  -10.1789   19.9742  -33.2966 H   0  0  0  0  0  0  0  0  0  0  0  0
   -9.3607   18.3750  -33.2966 H   0  0  0  0  0  0  0  0  0  0  0  0
   -8.4640   21.3312  -31.0067 H   0  0  0  0  0  0  0  0  0  0  0  0
   -6.5881   23.9457  -32.4765 H   0  0  0  0  0  0  0  0  0  0  0  0
   -3.4910   26.0310  -29.7270 H   0  0  0  0  0  0  0  0  0  0  0  0
   -1.9636   25.4145  -25.3021 H   0  0  0  0  0  0  0  0  0  0  0  0
    0.0057   24.5632  -23.7418 H   0  0  0  0  0  0  0  0  0  0  0  0
    0.8015   24.5505  -28.5409 H   0  0  0  0  0  0  0  0  0  0  0  0
   -1.6620   22.9750  -27.5770 H   0  0  0  0  0  0  0  0  0  0  0  0
   -2.8630   19.9170  -28.0804 H   0  0  0  0  0  0  0  0  0  0  0  0
   -0.0167   19.7165  -27.6826 H   0  0  0  0  0  0  0  0  0  0  0  0
    0.1970   21.2207  -27.9604 H   0  0  0  0  0  0  0  0  0  0  0  0
   -1.6973   19.9106  -25.6289 H   0  0  0  0  0  0  0  0  0  0  0  0
   -1.7811   21.4590  -25.5438 H   0  0  0  0  0  0  0  0  0  0  0  0
   -4.6937   20.7579  -30.2328 H   0  0  0  0  0  0  0  0  0  0  0  0
   -5.1204   20.5382  -33.6789 H   0  0  0  0  0  0  0  0  0  0  0  0
  1  2  1  0
  2  3  1  0
  3  4  2  0
  4  5  1  0
  5  6  2  0
  6  7  1  0
  7  8  2  0
  8  9  1  0
  9 10  1  0
 10 11  2  0
 11 12  1  0
 12 13  1  0
 13 14  2  0
 14 15  1  0
 15 16  1  0
 10 17  1  0
 17 18  1  0
 18 19  2  0
 19 20  1  0
 20 21  1  0
 21 22  1  0
 18 23  1  0
 23 24  2  0
  4 25  1  0
 25 26  2  0
 26  2  1  0
 24  5  1  0
 23  8  1  0
 16 12  2  0
 22 20  1  0
  1 27  1  0
  1 28  1  0
  1 29  1  0
  3 30  1  0
  6 31  1  0
  9 32  1  0
 13 33  1  0
 14 34  1  0
 16 35  1  0
 17 36  1  0
 20 37  1  0
 21 38  1  0
 21 39  1  0
 22 40  1  0
 22 41  1  0
 24 42  1  0
 25 43  1  0
M  END
>  <smiles>  (11) 
Cn1cc(-c2cnc3[nH]c(=Nc4ccsc4)[nH]c(=NC4CC4)c3c2)cn1

>  <score_type>  (11) 
oracle

>  <origin>  (11) 
adgpu

>  <m_score__min__energy>  (11) 
-8.6500000000000004

>  <m_primary>  (11) 
energy

$$$$
11:0
     RDKit          3D

 40 42  0  0  0  0  0  0  0  0999 V2000
   -1.6990   25.0650  -28.0990 C   0  0  0  0  0  0  0  0  0  0  0  0
   -2.3790   25.2440  -29.3370 O   0  0  0  0  0  0  0  0  0  0  0  0
   -3.1840   24.2710  -29.9460 C   0  0  0  0  0  0  0  0  0  0  0  0
   -2.7050   22.9580  -30.0150 C   0  0  0  0  0  0  0  0  0  0  0  0
   -3.4640   21.9570  -30.6250 C   0  0  0  0  0  0  0  0  0  0  0  0
   -4.7140   22.2600  -31.1740 C   0  0  0  0  0  0  0  0  0  0  0  0
   -5.2190   23.5670  -31.1010 C   0  0  0  0  0  0  0  0  0  0  0  0
   -6.5080   23.9190  -31.7920 C   0  0  0  0  0  0  0  0  0  0  0  0
   -7.5220   22.9300  -31.4450 N   0  0  0  0  0  0  0  0  0  0  0  0
   -7.9180   21.9070  -32.2190 C   0  0  0  0  0  0  0  0  0  0  0  0
   -8.6290   21.0610  -31.3970 C   0  0  0  0  0  0  0  0  0  0  0  0
   -9.1200   19.6870  -31.7380 C   0  0  0  0  0  0  0  0  0  0  0  0
   -8.5150   19.2110  -32.9860 N   0  0  0  0  0  0  0  0  0  0  0  0
   -7.1370   18.8110  -33.1230 C   0  0  0  0  0  0  0  0  0  0  0  0
   -6.1640   19.6710  -33.6700 C   0  0  0  0  0  0  0  0  0  0  0  0
   -4.8470   19.2330  -33.8380 C   0  0  0  0  0  0  0  0  0  0  0  0
   -4.4810   17.9440  -33.4480 C   0  0  0  0  0  0  0  0  0  0  0  0
   -5.4310   17.0890  -32.8820 C   0  0  0  0  0  0  0  0  0  0  0  0
   -4.9650   15.4770  -32.3720 Cl  0  0  0  0  0  0  0  0  0  0  0  0
   -6.7530   17.5200  -32.7230 C   0  0  0  0  0  0  0  0  0  0  0  0
   -8.6610   21.5960  -30.1600 N   0  0  0  0  0  0  0  0  0  0  0  0
   -7.9700   22.7260  -30.2160 N   0  0  0  0  0  0  0  0  0  0  0  0
   -4.4470   24.5710  -30.4940 C   0  0  0  0  0  0  0  0  0  0  0  0
   -2.3960   25.2485  -27.2680 H   0  0  0  0  0  0  0  0  0  0  0  0
   -1.3165   24.0356  -28.0363 H   0  0  0  0  0  0  0  0  0  0  0  0
   -0.8592   25.7727  -28.0363 H   0  0  0  0  0  0  0  0  0  0  0  0
   -1.7227   22.7124  -29.5853 H   0  0  0  0  0  0  0  0  0  0  0  0
   -3.0779   20.9282  -30.6738 H   0  0  0  0  0  0  0  0  0  0  0  0
   -5.3031   21.4712  -31.6646 H   0  0  0  0  0  0  0  0  0  0  0  0
   -6.8397   24.9161  -31.4668 H   0  0  0  0  0  0  0  0  0  0  0  0
   -6.3544   23.9253  -32.8812 H   0  0  0  0  0  0  0  0  0  0  0  0
   -7.7157   21.7719  -33.2918 H   0  0  0  0  0  0  0  0  0  0  0  0
   -8.8552   18.9972  -30.9231 H   0  0  0  0  0  0  0  0  0  0  0  0
  -10.2116   19.7257  -31.8685 H   0  0  0  0  0  0  0  0  0  0  0  0
   -9.1080   19.2530  -33.8470 H   0  0  0  0  0  0  0  0  0  0  0  0
   -6.4423   20.6930  -33.9666 H   0  0  0  0  0  0  0  0  0  0  0  0
   -4.0971   19.9063  -34.2788 H   0  0  0  0  0  0  0  0  0  0  0  0
   -3.4450   17.6009  -33.5860 H   0  0  0  0  0  0  0  0  0  0  0  0
   -7.4980   16.8421  -32.2810 H   0  0  0  0  0  0  0  0  0  0  0  0
   -4.8316   25.6004  -30.4460 H   0  0  0  0  0  0  0  0  0  0  0  0
  1  2  1  0
  2  3  1  0
  3  4  2  0
  4  5  1  0
  5  6  2  0
  6  7  1  0
  7  8  1  0
  8  9  1  0
  9 10  1  0
 10 11  2  0
 11 12  1  0
 12 13  1  0
 13 14  1  0
 14 15  2  0
 15 16  1  0
 16 17  2  0
 17 18  1  0
 18 19  1  0
 18 20  2  0
 11 21  1  0
 21 22  2  0
  7 23  2  0
 23  3  1  0
 22  9  1  0
 20 14  1  0
  1 24  1  0
  1 25  1  0
  1 26  1  0
  4 27  1  0
  5 28  1  0
  6 29  1  0
  8 30  1  0
  8 31  1  0
 10 32  1  0
 12 33  1  0
 12 34  1  0
 13 35  1  0
 15 36  1  0
 16 37  1  0
 17 38  1  0
 20 39  1  0
 23 40  1  0
M  END
>  <UniqueID>  (12) 
11

>  <SMILES>  (12) 
COc1cccc(Cn2cc(CNc3cccc(Cl)c3)nn2)c1

>  <Energy>  (12) 
70.44677642919511

>  <Genealogy>  (12) 
COc1cccc(Cn2cc(CNc3cccc(Cl)c3)nn2)c1 (3D coordinates assigned)
COc1cccc(Cn2cc(CNc3cccc(Cl)c3)nn2)c1 (optimized conformer: 70.44677642919511 kcal/mol)

>  <smiles>  (12) 
COc1cccc(Cn2cc(CNc3cccc(Cl)c3)nn2)c1

>  <score_type>  (12) 
oracle

>  <origin>  (12) 
adgpu

>  <m_score__min__energy>  (12) 
-9.0299999999999994

>  <m_primary>  (12) 
energy

$$$$
12:0
     RDKit          3D

 66 71  0  0  0  0  0  0  0  0999 V2000
    1.0140   28.0990  -23.0000 C   0  0  0  0  0  0  0  0  0  0  0  0
    0.1860   27.4640  -24.0780 C   0  0  0  0  0  0  0  0  0  0  0  0
   -0.4360   26.2270  -23.8520 C   0  0  0  0  0  0  0  0  0  0  0  0
   -1.2350   25.6480  -24.8430 C   0  0  0  0  0  0  0  0  0  0  0  0
   -1.4260   26.2950  -26.0730 C   0  0  0  0  0  0  0  0  0  0  0  0
   -2.2700   25.6840  -27.0650 N   0  0  0  0  0  0  0  0  0  0  0  0
   -1.8240   25.2890  -28.3730 C   0  0  0  0  0  0  0  0  0  0  0  0
   -0.5950   25.1790  -28.6220 O   0  0  0  0  0  0  0  0  0  0  0  0
   -2.7710   24.9200  -29.3810 N   0  0  0  0  0  0  0  0  0  0  0  0
   -2.7520   23.6860  -30.1120 C   0  0  0  0  0  0  0  0  0  0  0  0
   -3.8490   23.2820  -30.8890 C   0  0  0  0  0  0  0  0  0  0  0  0
   -3.7960   22.0910  -31.6170 C   0  0  0  0  0  0  0  0  0  0  0  0
   -2.6470   21.2810  -31.5800 C   0  0  0  0  0  0  0  0  0  0  0  0
   -2.5970   20.0140  -32.3460 C   0  0  0  0  0  0  0  0  0  0  0  0
   -1.4940   19.2000  -32.2590 N   0  0  0  0  0  0  0  0  0  0  0  0
   -1.4010   18.0180  -32.9380 C   0  0  0  0  0  0  0  0  0  0  0  0
   -0.2290   17.1940  -32.7900 N   0  0  0  0  0  0  0  0  0  0  0  0
   -0.1170   16.1970  -31.7200 C   0  0  0  0  0  0  0  0  0  0  0  0
    1.3170   16.1730  -31.1850 C   0  0  0  0  0  0  0  0  0  0  0  0
    2.2430   16.0110  -32.2420 O   0  0  0  0  0  0  0  0  0  0  0  0
    2.2060   17.1440  -33.0900 C   0  0  0  0  0  0  0  0  0  0  0  0
    0.8460   17.2630  -33.7850 C   0  0  0  0  0  0  0  0  0  0  0  0
   -2.4820   17.6680  -33.7530 C   0  0  0  0  0  0  0  0  0  0  0  0
   -2.7660   16.6220  -34.6130 C   0  0  0  0  0  0  0  0  0  0  0  0
   -3.9940   16.8300  -35.1550 N   0  0  0  0  0  0  0  0  0  0  0  0
   -4.4700   17.9760  -34.6770 N   0  0  0  0  0  0  0  0  0  0  0  0
   -5.7920   18.5100  -34.9820 C   0  0  0  0  0  0  0  0  0  0  0  0
   -6.5050   18.8650  -33.7070 C   0  0  0  0  0  0  0  0  0  0  0  0
   -6.7980   20.2040  -33.4120 C   0  0  0  0  0  0  0  0  0  0  0  0
   -7.5060   20.5130  -32.2480 C   0  0  0  0  0  0  0  0  0  0  0  0
   -7.9160   19.5190  -31.4150 N   0  0  0  0  0  0  0  0  0  0  0  0
   -7.6550   18.2120  -31.6830 C   0  0  0  0  0  0  0  0  0  0  0  0
   -6.9480   17.8590  -32.8370 C   0  0  0  0  0  0  0  0  0  0  0  0
   -3.5650   18.4850  -33.8280 C   0  0  0  0  0  0  0  0  0  0  0  0
   -3.6490   19.6500  -33.1420 N   0  0  0  0  0  0  0  0  0  0  0  0
   -1.5460   21.6960  -30.8070 C   0  0  0  0  0  0  0  0  0  0  0  0
   -1.5950   22.8980  -30.0920 C   0  0  0  0  0  0  0  0  0  0  0  0
   -0.8350   27.5540  -26.2820 C   0  0  0  0  0  0  0  0  0  0  0  0
   -0.0350   28.1330  -25.2900 C   0  0  0  0  0  0  0  0  0  0  0  0
    0.6251   27.8007  -22.0152 H   0  0  0  0  0  0  0  0  0  0  0  0
    2.0586   27.7682  -23.0972 H   0  0  0  0  0  0  0  0  0  0  0  0
    0.9654   29.1936  -23.0972 H   0  0  0  0  0  0  0  0  0  0  0  0
   -0.2946   25.7103  -22.8912 H   0  0  0  0  0  0  0  0  0  0  0  0
   -1.7177   24.6773  -24.6565 H   0  0  0  0  0  0  0  0  0  0  0  0
   -3.2270   25.3860  -26.7750 H   0  0  0  0  0  0  0  0  0  0  0  0
   -4.7542   23.9059  -30.9248 H   0  0  0  0  0  0  0  0  0  0  0  0
   -4.6603   21.7841  -32.2243 H   0  0  0  0  0  0  0  0  0  0  0  0
   -0.8073   16.4572  -30.9041 H   0  0  0  0  0  0  0  0  0  0  0  0
   -0.3736   15.2044  -32.1187 H   0  0  0  0  0  0  0  0  0  0  0  0
    1.5243   17.1201  -30.6654 H   0  0  0  0  0  0  0  0  0  0  0  0
    1.4211   15.3259  -30.4910 H   0  0  0  0  0  0  0  0  0  0  0  0
    2.3842   18.0487  -32.4902 H   0  0  0  0  0  0  0  0  0  0  0  0
    2.9848   17.0329  -33.8588 H   0  0  0  0  0  0  0  0  0  0  0  0
    0.7905   18.2246  -34.3163 H   0  0  0  0  0  0  0  0  0  0  0  0
    0.7310   16.4361  -34.5013 H   0  0  0  0  0  0  0  0  0  0  0  0
   -2.1079   15.7658  -34.8226 H   0  0  0  0  0  0  0  0  0  0  0  0
   -5.6872   19.4107  -35.6046 H   0  0  0  0  0  0  0  0  0  0  0  0
   -6.3742   17.7502  -35.5240 H   0  0  0  0  0  0  0  0  0  0  0  0
   -6.4728   21.0052  -34.0920 H   0  0  0  0  0  0  0  0  0  0  0  0
   -7.7322   21.5617  -32.0048 H   0  0  0  0  0  0  0  0  0  0  0  0
   -8.0007   17.4303  -30.9906 H   0  0  0  0  0  0  0  0  0  0  0  0
   -6.7415   16.8018  -33.0599 H   0  0  0  0  0  0  0  0  0  0  0  0
   -0.6415   21.0715  -30.7648 H   0  0  0  0  0  0  0  0  0  0  0  0
   -0.7200   23.2253  -29.5113 H   0  0  0  0  0  0  0  0  0  0  0  0
   -1.0023   28.0864  -27.2299 H   0  0  0  0  0  0  0  0  0  0  0  0
    0.4228   29.1183  -25.4624 H   0  0  0  0  0  0  0  0  0  0  0  0
  1  2  1  0
  2  3  2  0
  3  4  1  0
  4  5  2  0
  5  6  1  0
  6  7  1  0
  7  8  2  0
  7  9  1  0
  9 10  1  0
 10 11  2  0
 11 12  1  0
 12 13  2  0
 13 14  1  0
 14 15  2  0
 15 16  1  0
 16 17  1  0
 17 18  1  0
 18 19  1  0
 19 20  1  0
 20 21  1  0
 21 22  1  0
 16 23  2  0
 23 24  1  0
 24 25  2  0
 25 26  1  0
 26 27  1  0
 27 28  1  0
 28 29  2  0
 29 30  1  0
 30 31  2  0
 31 32  1  0
 32 33  2  0
 26 34  1  0
 34 35  2  0
 13 36  1  0
 36 37  2  0
  5 38  1  0
 38 39  2  0
 39  2  1  0
 37 10  1  0
 35 14  1  0
 22 17  1  0
 34 23  1  0
 33 28  1  0
  1 40  1  0
  1 41  1  0
  1 42  1  0
  3 43  1  0
  4 44  1  0
  6 45  1  0
 11 46  1  0
 12 47  1  0
 18 48  1  0
 18 49  1  0
 19 50  1  0
 19 51  1  0
 21 52  1  0
 21 53  1  0
 22 54  1  0
 22 55  1  0
 24 56  1  0
 27 57  1  0
 27 58  1  0
 29 59  1  0
 30 60  1  0
 32 61  1  0
 33 62  1  0
 36 63  1  0
 37 64  1  0
 38 65  1  0
 39 66  1  0
M  CHG  1   9  -1
M  END
>  <UniqueID>  (13) 
12

>  <SMILES>  (13) 
Cc1ccc(NC(=O)[N-]c2ccc(-c3nc(N4CCOCC4)c4cnn(Cc5ccncc5)c4n3)cc2)cc1

>  <Energy>  (13) 
127.12741348095503

>  <Genealogy>  (13) 
Cc1ccc(NC(=O)[N-]c2ccc(-c3nc(N4CCOCC4)c4cnn(Cc5ccncc5)c4n3)cc2)cc1 (protonated)
Cc1ccc(NC(=O)[N-]c2ccc(-c3nc(N4CCOCC4)c4cnn(Cc5ccncc5)c4n3)cc2)cc1 (3D coordinates assigned)
Cc1ccc(NC(=O)[N-]c2ccc(-c3nc(N4CCOCC4)c4cnn(Cc5ccncc5)c4n3)cc2)cc1 (nonaromatic ring conformer: 127.12741348095503 kcal/mol)

>  <smiles>  (13) 
Cc1ccc(NC(=O)Nc2ccc(-c3nc(N4CCOCC4)c4cnn(Cc5ccncc5)c4n3)cc2)cc1

>  <score_type>  (13) 
oracle

>  <origin>  (13) 
adgpu

>  <m_score__min__energy>  (13) 
-10.35

>  <m_primary>  (13) 
energy

$$$$
13:0
     RDKit          3D

 46 49  0  0  0  0  0  0  0  0999 V2000
   -2.6986   15.3800  -34.8287 H   0  0  0  0  0  0  0  0  0  0  0  0
   -2.8870   16.4030  -34.4710 C   0  0  0  0  0  0  0  0  0  0  0  0
   -1.9190   17.3910  -34.6400 C   0  0  0  0  0  0  0  0  0  0  0  0
   -0.9623   17.1539  -35.1284 H   0  0  0  0  0  0  0  0  0  0  0  0
   -2.1760   18.6850  -34.1830 C   0  0  0  0  0  0  0  0  0  0  0  0
   -1.4189   19.4723  -34.3137 H   0  0  0  0  0  0  0  0  0  0  0  0
   -3.3600   18.9770  -33.5760 N   0  0  0  0  0  0  0  0  0  0  0  0
   -3.5090   19.9620  -33.2660 H   0  0  0  0  0  0  0  0  0  0  0  0
   -4.3240   18.0190  -33.3910 C   0  0  0  0  0  0  0  0  0  0  0  0
   -5.4580   18.2890  -32.8080 N   0  0  0  0  0  0  0  0  0  0  0  0
   -5.8320   19.5550  -32.2480 C   0  0  0  0  0  0  0  0  0  0  0  0
   -4.8550   20.3740  -31.7780 N   0  0  0  0  0  0  0  0  0  0  0  0
   -5.1330   21.5900  -31.2330 C   0  0  0  0  0  0  0  0  0  0  0  0
   -4.0650   22.4290  -30.7360 N   0  0  0  0  0  0  0  0  0  0  0  0
   -4.2210   23.8910  -30.7000 C   0  0  0  0  0  0  0  0  0  0  0  0
   -5.2921   24.1407  -30.6782 H   0  0  0  0  0  0  0  0  0  0  0  0
   -3.7503   24.3220  -31.5959 H   0  0  0  0  0  0  0  0  0  0  0  0
   -3.5440   24.4690  -29.4580 C   0  0  0  0  0  0  0  0  0  0  0  0
   -4.1258   24.1915  -28.5666 H   0  0  0  0  0  0  0  0  0  0  0  0
   -3.4976   25.5637  -29.5557 H   0  0  0  0  0  0  0  0  0  0  0  0
   -2.1770   23.9460  -29.3250 N   0  0  0  0  0  0  0  0  0  0  0  0
   -1.1250   24.8100  -28.8360 C   0  0  0  0  0  0  0  0  0  0  0  0
   -1.2330   26.0610  -28.9520 O   0  0  0  0  0  0  0  0  0  0  0  0
    0.1230   24.2610  -28.2100 C   0  0  0  0  0  0  0  0  0  0  0  0
    0.0319   24.3011  -27.1145 H   0  0  0  0  0  0  0  0  0  0  0  0
    0.2644   23.2176  -28.5282 H   0  0  0  0  0  0  0  0  0  0  0  0
    0.9877   24.8618  -28.5282 H   0  0  0  0  0  0  0  0  0  0  0  0
   -2.0120   22.4850  -29.3660 C   0  0  0  0  0  0  0  0  0  0  0  0
   -2.4567   22.0456  -28.4609 H   0  0  0  0  0  0  0  0  0  0  0  0
   -0.9383   22.2509  -29.4150 H   0  0  0  0  0  0  0  0  0  0  0  0
   -2.7010   21.8990  -30.6000 C   0  0  0  0  0  0  0  0  0  0  0  0
   -2.7474   20.8044  -30.5017 H   0  0  0  0  0  0  0  0  0  0  0  0
   -2.1230   22.1786  -31.4932 H   0  0  0  0  0  0  0  0  0  0  0  0
   -6.4250   22.0080  -31.1630 N   0  0  0  0  0  0  0  0  0  0  0  0
   -7.4450   21.2440  -31.6320 C   0  0  0  0  0  0  0  0  0  0  0  0
   -8.7610   21.7130  -31.5560 C   0  0  0  0  0  0  0  0  0  0  0  0
   -8.9701   22.6928  -31.1018 H   0  0  0  0  0  0  0  0  0  0  0  0
   -9.8100   20.9370  -32.0570 C   0  0  0  0  0  0  0  0  0  0  0  0
  -10.8444   21.3057  -31.9930 H   0  0  0  0  0  0  0  0  0  0  0  0
   -9.5480   19.6940  -32.6390 C   0  0  0  0  0  0  0  0  0  0  0  0
  -10.3768   19.0893  -33.0358 H   0  0  0  0  0  0  0  0  0  0  0  0
   -8.2370   19.2160  -32.7190 C   0  0  0  0  0  0  0  0  0  0  0  0
   -8.0355   18.2397  -33.1840 H   0  0  0  0  0  0  0  0  0  0  0  0
   -7.1740   19.9830  -32.2050 C   0  0  0  0  0  0  0  0  0  0  0  0
   -4.0960   16.7140  -33.8470 C   0  0  0  0  0  0  0  0  0  0  0  0
   -4.8653   15.9391  -33.7140 H   0  0  0  0  0  0  0  0  0  0  0  0
  1  2  1  0
  2  3  1  0
  3  4  1  0
  3  5  2  0
  5  6  1  0
  5  7  1  0
  7  8  1  0
  7  9  1  0
  9 10  2  0
 10 11  1  0
 11 12  2  0
 12 13  1  0
 13 14  1  0
 14 15  1  0
 15 16  1  0
 15 17  1  0
 15 18  1  0
 18 19  1  0
 18 20  1  0
 18 21  1  0
 21 22  1  0
 22 23  2  0
 22 24  1  0
 24 25  1  0
 24 26  1  0
 24 27  1  0
 21 28  1  0
 28 29  1  0
 28 30  1  0
 28 31  1  0
 31 32  1  0
 31 33  1  0
 13 34  2  0
 34 35  1  0
 35 36  2  0
 36 37  1  0
 36 38  1  0
 38 39  1  0
 38 40  2  0
 40 41  1  0
 40 42  1  0
 42 43  1  0
 42 44  2  0
  9 45  1  0
 45 46  1  0
 45  2  2  0
 44 11  1  0
 31 14  1  0
 44 35  1  0
M  END
>  <UniqueID>  (14) 
13

>  <SMILES>  (14) 
CC(=O)N1CCN(c2nc(/N=c3/cccc[nH]3)c3ccccc3n2)CC1

>  <Energy>  (14) 
64.42086495240811

>  <Genealogy>  (14) 
CC(=O)N1CCN(c2nc(/N=c3/cccc[nH]3)c3ccccc3n2)CC1 (cis-trans isomerization)
CC(=O)N1CCN(c2nc(/N=c3/cccc[nH]3)c3ccccc3n2)CC1 (3D coordinates assigned)
CC(=O)N1CCN(c2nc(/N=c3/cccc[nH]3)c3ccccc3n2)CC1 (nonaromatic ring conformer: 64.42086495240811 kcal/mol)

>  <smiles>  (14) 
CC(=O)N1CCN(c2nc(N=c3cccc[nH]3)c3ccccc3n2)CC1

>  <score_type>  (14) 
oracle

>  <origin>  (14) 
adgpu

>  <m_score__min__energy>  (14) 
-7.9100000000000001

>  <m_primary>  (14) 
energy

$$$$
14:0
     RDKit          3D

 24 25  0  0  0  0  0  0  0  0999 V2000
   -4.3750   25.6800  -31.8740 H   0  0  0  0  0  0  0  0  0  0  0  0
   -4.2580   25.6310  -30.8390 N   0  0  0  0  0  0  0  0  0  0  0  0
   -4.4440   24.5410  -30.1630 C   0  0  0  0  0  0  0  0  0  0  0  0
   -4.2940   24.4770  -28.8280 N   0  0  0  0  0  0  0  0  0  0  0  0
   -4.0210   25.2470  -28.1790 H   0  0  0  0  0  0  0  0  0  0  0  0
   -4.5860   23.2030  -28.5020 C   0  0  0  0  0  0  0  0  0  0  0  0
   -4.5706   22.7825  -27.4856 H   0  0  0  0  0  0  0  0  0  0  0  0
   -4.9080   22.5110  -29.6540 C   0  0  0  0  0  0  0  0  0  0  0  0
   -5.1952   21.4505  -29.7072 H   0  0  0  0  0  0  0  0  0  0  0  0
   -4.8110   23.3540  -30.7020 N   0  0  0  0  0  0  0  0  0  0  0  0
   -5.1290   23.0360  -32.0960 C   0  0  0  0  0  0  0  0  0  0  0  0
   -5.2815   23.9706  -32.6558 H   0  0  0  0  0  0  0  0  0  0  0  0
   -4.2948   22.4672  -32.5327 H   0  0  0  0  0  0  0  0  0  0  0  0
   -6.3800   22.2040  -32.1690 C   0  0  0  0  0  0  0  0  0  0  0  0
   -7.6140   22.7260  -31.7450 C   0  0  0  0  0  0  0  0  0  0  0  0
   -7.6718   23.7573  -31.3669 H   0  0  0  0  0  0  0  0  0  0  0  0
   -8.7690   21.9390  -31.8020 C   0  0  0  0  0  0  0  0  0  0  0  0
   -9.7325   22.3532  -31.4701 H   0  0  0  0  0  0  0  0  0  0  0  0
   -8.7010   20.6270  -32.2800 C   0  0  0  0  0  0  0  0  0  0  0  0
   -9.8220   19.8670  -32.3330 F   0  0  0  0  0  0  0  0  0  0  0  0
   -7.4780   20.1010  -32.7030 C   0  0  0  0  0  0  0  0  0  0  0  0
   -7.4251   19.0690  -33.0800 H   0  0  0  0  0  0  0  0  0  0  0  0
   -6.3210   20.8840  -32.6480 C   0  0  0  0  0  0  0  0  0  0  0  0
   -5.3601   20.4650  -32.9812 H   0  0  0  0  0  0  0  0  0  0  0  0
  1  2  1  0
  2  3  2  0
  3  4  1  0
  4  5  1  0
  4  6  1  0
  6  7  1  0
  6  8  2  0
  8  9  1  0
  8 10  1  0
 10 11  1  0
 11 12  1  0
 11 13  1  0
 11 14  1  0
 14 15  2  0
 15 16  1  0
 15 17  1  0
 17 18  1  0
 17 19  2  0
 19 20  1  0
 19 21  1  0
 21 22  1  0
 21 23  2  0
 23 24  1  0
 10  3  1  0
 23 14  1  0
M  END
>  <UniqueID>  (15) 
14

>  <SMILES>  (15) 
[H]/N=c1/[nH]ccn1Cc1ccc(F)cc1

>  <Energy>  (15) 
55.08998570901199

>  <Genealogy>  (15) 
[H]/N=c1/[nH]ccn1Cc1ccc(F)cc1 (cis-trans isomerization)
[H]/N=c1/[nH]ccn1Cc1ccc(F)cc1 (3D coordinates assigned)
[H]/N=c1/[nH]ccn1Cc1ccc(F)cc1 (optimized conformer: 55.08998570901199 kcal/mol)

>  <smiles>  (15) 
N=c1[nH]ccn1Cc1ccc(F)cc1

>  <score_type>  (15) 
oracle

>  <origin>  (15) 
adgpu

>  <m_score__min__energy>  (15) 
-6.1799999999999997

>  <m_primary>  (15) 
energy

$$$$
15:0
     RDKit          3D

 45 46  0  0  0  0  0  0  0  0999 V2000
    1.0100   24.2190  -36.0690 C   0  0  0  0  0  0  0  0  0  0  0  0
    0.3260   23.0450  -35.6880 O   0  0  0  0  0  0  0  0  0  0  0  0
    1.2450   22.0030  -35.4200 C   0  0  0  0  0  0  0  0  0  0  0  0
    0.6940   21.0380  -34.3660 C   0  0  0  0  0  0  0  0  0  0  0  0
   -0.6310   21.4640  -33.9140 N   0  0  0  0  0  0  0  0  0  0  0  0
   -1.0950   21.2560  -32.5700 C   0  0  0  0  0  0  0  0  0  0  0  0
   -0.3240   20.7560  -31.7060 O   0  0  0  0  0  0  0  0  0  0  0  0
   -2.4670   21.6260  -32.1830 C   0  0  0  0  0  0  0  0  0  0  0  0
   -2.8190   21.6920  -30.8730 N   0  0  0  0  0  0  0  0  0  0  0  0
   -4.0790   22.0340  -30.4980 C   0  0  0  0  0  0  0  0  0  0  0  0
   -5.0480   22.3350  -31.4680 C   0  0  0  0  0  0  0  0  0  0  0  0
   -6.3920   22.7180  -31.0890 N   0  0  0  0  0  0  0  0  0  0  0  0
   -6.6140   23.4490  -29.8380 C   0  0  0  0  0  0  0  0  0  0  0  0
   -7.5340   22.4340  -31.9740 C   0  0  0  0  0  0  0  0  0  0  0  0
   -7.7330   20.9470  -32.1140 C   0  0  0  0  0  0  0  0  0  0  0  0
   -8.7340   20.2870  -31.3840 C   0  0  0  0  0  0  0  0  0  0  0  0
   -8.8990   18.9050  -31.5080 C   0  0  0  0  0  0  0  0  0  0  0  0
   -8.0640   18.1710  -32.3530 C   0  0  0  0  0  0  0  0  0  0  0  0
   -7.0460   18.8150  -33.0740 C   0  0  0  0  0  0  0  0  0  0  0  0
   -6.1710   18.0330  -34.0080 C   0  0  0  0  0  0  0  0  0  0  0  0
   -6.8950   20.2060  -32.9630 C   0  0  0  0  0  0  0  0  0  0  0  0
   -4.6600   22.2560  -32.8140 C   0  0  0  0  0  0  0  0  0  0  0  0
   -3.3900   21.9070  -33.1410 N   0  0  0  0  0  0  0  0  0  0  0  0
    1.3287   24.7660  -35.1694 H   0  0  0  0  0  0  0  0  0  0  0  0
    1.8933   23.9509  -36.6673 H   0  0  0  0  0  0  0  0  0  0  0  0
    0.3412   24.8552  -36.6673 H   0  0  0  0  0  0  0  0  0  0  0  0
    1.4387   21.4473  -36.3493 H   0  0  0  0  0  0  0  0  0  0  0  0
    2.1741   22.4478  -35.0341 H   0  0  0  0  0  0  0  0  0  0  0  0
    0.6197   20.0311  -34.8026 H   0  0  0  0  0  0  0  0  0  0  0  0
    1.3759   21.0315  -33.5029 H   0  0  0  0  0  0  0  0  0  0  0  0
   -1.2450   21.9520  -34.6030 H   0  0  0  0  0  0  0  0  0  0  0  0
   -4.3409   22.0752  -29.4304 H   0  0  0  0  0  0  0  0  0  0  0  0
   -6.4123   22.7849  -28.9846 H   0  0  0  0  0  0  0  0  0  0  0  0
   -5.9387   24.3163  -29.7953 H   0  0  0  0  0  0  0  0  0  0  0  0
   -7.6575   23.7943  -29.7953 H   0  0  0  0  0  0  0  0  0  0  0  0
   -8.4433   22.8828  -31.5477 H   0  0  0  0  0  0  0  0  0  0  0  0
   -7.3310   22.8619  -32.9668 H   0  0  0  0  0  0  0  0  0  0  0  0
   -9.3905   20.8595  -30.7123 H   0  0  0  0  0  0  0  0  0  0  0  0
   -9.6890   18.3937  -30.9383 H   0  0  0  0  0  0  0  0  0  0  0  0
   -8.2043   17.0847  -32.4540 H   0  0  0  0  0  0  0  0  0  0  0  0
   -5.4755   17.4115  -33.4249 H   0  0  0  0  0  0  0  0  0  0  0  0
   -6.7964   17.3873  -34.6421 H   0  0  0  0  0  0  0  0  0  0  0  0
   -5.5994   18.7267  -34.6421 H   0  0  0  0  0  0  0  0  0  0  0  0
   -6.1151   20.7191  -33.5448 H   0  0  0  0  0  0  0  0  0  0  0  0
   -5.3885   22.4779  -33.6078 H   0  0  0  0  0  0  0  0  0  0  0  0
  1  2  1  0
  2  3  1  0
  3  4  1  0
  4  5  1  0
  5  6  1  0
  6  7  2  0
  6  8  1  0
  8  9  2  0
  9 10  1  0
 10 11  2  0
 11 12  1  0
 12 13  1  0
 12 14  1  0
 14 15  1  0
 15 16  2  0
 16 17  1  0
 17 18  2  0
 18 19  1  0
 19 20  1  0
 19 21  2  0
 11 22  1  0
 22 23  2  0
 23  8  1  0
 21 15  1  0
  1 24  1  0
  1 25  1  0
  1 26  1  0
  3 27  1  0
  3 28  1  0
  4 29  1  0
  4 30  1  0
  5 31  1  0
 10 32  1  0
 13 33  1  0
 13 34  1  0
 13 35  1  0
 14 36  1  0
 14 37  1  0
 16 38  1  0
 17 39  1  0
 18 40  1  0
 20 41  1  0
 20 42  1  0
 20 43  1  0
 21 44  1  0
 22 45  1  0
M  END
>  <UniqueID>  (16) 
15

>  <SMILES>  (16) 
COCCNC(=O)c1ncc(N(C)Cc2cccc(C)c2)cn1

>  <Energy>  (16) 
43.924784844722566

>  <Genealogy>  (16) 
COCCNC(=O)c1ncc(N(C)Cc2cccc(C)c2)cn1 (3D coordinates assigned)
COCCNC(=O)c1ncc(N(C)Cc2cccc(C)c2)cn1 (optimized conformer: 43.924784844722566 kcal/mol)

>  <smiles>  (16) 
COCCNC(=O)c1ncc(N(C)Cc2cccc(C)c2)cn1

>  <score_type>  (16) 
oracle

>  <origin>  (16) 
adgpu

>  <m_score__min__energy>  (16) 
-7.5

>  <m_primary>  (16) 
energy

$$$$
16:0
     RDKit          3D

 29 30  0  0  0  0  0  0  0  0999 V2000
    0.5710   26.5720  -22.9690 N   0  0  0  0  0  0  0  0  0  0  0  0
    0.1560   27.4960  -23.9830 C   0  0  0  0  0  0  0  0  0  0  0  0
    0.2610   28.7740  -23.7660 N   0  0  0  0  0  0  0  0  0  0  0  0
   -0.3790   26.9880  -25.2710 C   0  0  0  0  0  0  0  0  0  0  0  0
   -1.2260   25.8650  -25.3070 C   0  0  0  0  0  0  0  0  0  0  0  0
   -1.7220   25.3900  -26.5250 C   0  0  0  0  0  0  0  0  0  0  0  0
   -1.3670   26.0200  -27.7290 C   0  0  0  0  0  0  0  0  0  0  0  0
   -1.8570   25.5830  -28.9690 O   0  0  0  0  0  0  0  0  0  0  0  0
   -2.6820   24.4660  -29.1680 C   0  0  0  0  0  0  0  0  0  0  0  0
   -2.3130   23.1810  -28.7280 C   0  0  0  0  0  0  0  0  0  0  0  0
   -3.1580   22.0890  -28.9590 C   0  0  0  0  0  0  0  0  0  0  0  0
   -2.6970   20.4910  -28.4030 Cl  0  0  0  0  0  0  0  0  0  0  0  0
   -4.3660   22.2700  -29.6410 C   0  0  0  0  0  0  0  0  0  0  0  0
   -4.7260   23.5410  -30.0990 C   0  0  0  0  0  0  0  0  0  0  0  0
   -6.3700   23.7850  -31.0420 Br  0  0  0  0  0  0  0  0  0  0  0  0
   -3.8830   24.6330  -29.8680 C   0  0  0  0  0  0  0  0  0  0  0  0
   -0.5400   27.1470  -27.6940 C   0  0  0  0  0  0  0  0  0  0  0  0
   -0.0420   27.6240  -26.4780 C   0  0  0  0  0  0  0  0  0  0  0  0
    0.4170   25.5460  -23.0800 H   0  0  0  0  0  0  0  0  0  0  0  0
    0.9910   26.9140  -22.0760 H   0  0  0  0  0  0  0  0  0  0  0  0
    0.6340   29.1320  -22.8580 H   0  0  0  0  0  0  0  0  0  0  0  0
    0.0030   29.4780  -24.4920 H   0  0  0  0  0  0  0  0  0  0  0  0
   -1.4999   25.3572  -24.3704 H   0  0  0  0  0  0  0  0  0  0  0  0
   -2.3934   24.5188  -26.5403 H   0  0  0  0  0  0  0  0  0  0  0  0
   -1.3584   23.0344  -28.2014 H   0  0  0  0  0  0  0  0  0  0  0  0
   -5.0324   21.4127  -29.8169 H   0  0  0  0  0  0  0  0  0  0  0  0
   -4.1654   25.6294  -30.2387 H   0  0  0  0  0  0  0  0  0  0  0  0
   -0.2793   27.6621  -28.6303 H   0  0  0  0  0  0  0  0  0  0  0  0
    0.6185   28.5036  -26.4658 H   0  0  0  0  0  0  0  0  0  0  0  0
  1  2  1  0
  2  3  2  0
  2  4  1  0
  4  5  2  0
  5  6  1  0
  6  7  2  0
  7  8  1  0
  8  9  1  0
  9 10  2  0
 10 11  1  0
 11 12  1  0
 11 13  2  0
 13 14  1  0
 14 15  1  0
 14 16  2  0
  7 17  1  0
 17 18  2  0
 18  4  1  0
 16  9  1  0
  1 19  1  0
  1 20  1  0
  3 21  1  0
  3 22  1  0
  5 23  1  0
  6 24  1  0
 10 25  1  0
 13 26  1  0
 16 27  1  0
 17 28  1  0
 18 29  1  0
M  CHG  1   3   1
M  END
>  <UniqueID>  (17) 
16

>  <SMILES>  (17) 
NC(=[NH2+])c1ccc(Oc2cc(Cl)cc(Br)c2)cc1

>  <Energy>  (17) 
37.952163729752655

>  <Genealogy>  (17) 
NC(=[NH2+])c1ccc(Oc2cc(Cl)cc(Br)c2)cc1 (protonated)
NC(=[NH2+])c1ccc(Oc2cc(Cl)cc(Br)c2)cc1 (3D coordinates assigned)
NC(=[NH2+])c1ccc(Oc2cc(Cl)cc(Br)c2)cc1 (optimized conformer: 37.952163729752655 kcal/mol)

>  <smiles>  (17) 
N=C(N)c1ccc(Oc2cc(Cl)cc(Br)c2)cc1

>  <score_type>  (17) 
oracle

>  <origin>  (17) 
adgpu

>  <m_score__min__energy>  (17) 
-7.9500000000000002

>  <m_primary>  (17) 
energy

$$$$
17:0
     RDKit          3D

 48 50  0  0  0  0  0  0  0  0999 V2000
   -2.5740   24.5570  -27.0510 C   0  0  0  0  0  0  0  0  0  0  0  0
   -1.9860   24.8840  -28.7020 S   0  0  0  0  0  0  0  0  0  0  0  0
   -1.3310   23.6400  -29.2360 O   0  0  0  0  0  0  0  0  0  0  0  0
   -0.9750   25.9990  -28.6830 O   0  0  0  0  0  0  0  0  0  0  0  0
   -3.2950   25.2990  -29.7270 O   0  0  0  0  0  0  0  0  0  0  0  0
   -4.4560   24.5340  -29.9040 C   0  0  0  0  0  0  0  0  0  0  0  0
   -5.6700   25.2110  -30.0700 C   0  0  0  0  0  0  0  0  0  0  0  0
   -6.8630   24.5040  -30.2400 C   0  0  0  0  0  0  0  0  0  0  0  0
   -6.8580   23.1000  -30.2460 C   0  0  0  0  0  0  0  0  0  0  0  0
   -8.1320   22.3390  -30.4840 C   0  0  0  0  0  0  0  0  0  0  0  0
   -7.8280   21.0470  -31.0960 N   0  0  0  0  0  0  0  0  0  0  0  0
   -7.1190   20.9320  -32.3400 C   0  0  0  0  0  0  0  0  0  0  0  0
   -6.8560   21.9670  -33.0110 O   0  0  0  0  0  0  0  0  0  0  0  0
   -6.7040   19.6040  -32.8510 C   0  0  0  0  0  0  0  0  0  0  0  0
   -7.5390   18.4910  -32.6350 C   0  0  0  0  0  0  0  0  0  0  0  0
   -7.1930   17.2350  -33.1350 C   0  0  0  0  0  0  0  0  0  0  0  0
   -6.0080   17.0680  -33.8520 C   0  0  0  0  0  0  0  0  0  0  0  0
   -5.1640   18.1590  -34.0710 C   0  0  0  0  0  0  0  0  0  0  0  0
   -5.5060   19.4370  -33.5900 C   0  0  0  0  0  0  0  0  0  0  0  0
   -4.5930   20.5350  -33.7740 N   0  0  0  0  0  0  0  0  0  0  0  0
   -3.2200   20.5190  -33.3460 C   0  0  0  0  0  0  0  0  0  0  0  0
   -2.7820   21.2900  -32.2520 C   0  0  0  0  0  0  0  0  0  0  0  0
   -1.4450   21.2450  -31.8450 C   0  0  0  0  0  0  0  0  0  0  0  0
   -0.5360   20.4240  -32.5170 C   0  0  0  0  0  0  0  0  0  0  0  0
   -0.9650   19.6380  -33.5920 C   0  0  0  0  0  0  0  0  0  0  0  0
   -2.3030   19.6810  -34.0000 C   0  0  0  0  0  0  0  0  0  0  0  0
   -5.6430   22.4170  -30.0930 C   0  0  0  0  0  0  0  0  0  0  0  0
   -4.4510   23.1250  -29.9100 C   0  0  0  0  0  0  0  0  0  0  0  0
   -1.8556   24.9565  -26.3201 H   0  0  0  0  0  0  0  0  0  0  0  0
   -3.5511   25.0413  -26.9071 H   0  0  0  0  0  0  0  0  0  0  0  0
   -2.6781   23.4714  -26.9071 H   0  0  0  0  0  0  0  0  0  0  0  0
   -5.6848   26.3109  -30.0666 H   0  0  0  0  0  0  0  0  0  0  0  0
   -7.8095   25.0493  -30.3696 H   0  0  0  0  0  0  0  0  0  0  0  0
   -8.6457   22.1773  -29.5249 H   0  0  0  0  0  0  0  0  0  0  0  0
   -8.7809   22.9174  -31.1581 H   0  0  0  0  0  0  0  0  0  0  0  0
   -7.9700   20.1950  -30.5090 H   0  0  0  0  0  0  0  0  0  0  0  0
   -8.4729   18.6127  -32.0667 H   0  0  0  0  0  0  0  0  0  0  0  0
   -7.8563   16.3744  -32.9634 H   0  0  0  0  0  0  0  0  0  0  0  0
   -5.7383   16.0766  -34.2450 H   0  0  0  0  0  0  0  0  0  0  0  0
   -4.2237   18.0184  -34.6242 H   0  0  0  0  0  0  0  0  0  0  0  0
   -4.9600   21.4070  -34.2150 H   0  0  0  0  0  0  0  0  0  0  0  0
   -3.4959   21.9314  -31.7145 H   0  0  0  0  0  0  0  0  0  0  0  0
   -1.1086   21.8566  -30.9949 H   0  0  0  0  0  0  0  0  0  0  0  0
    0.5172   20.3956  -32.2008 H   0  0  0  0  0  0  0  0  0  0  0  0
   -0.2507   18.9863  -34.1164 H   0  0  0  0  0  0  0  0  0  0  0  0
   -2.6385   19.0538  -34.8390 H   0  0  0  0  0  0  0  0  0  0  0  0
   -5.6274   21.3174  -30.1171 H   0  0  0  0  0  0  0  0  0  0  0  0
   -3.5059   22.5798  -29.7702 H   0  0  0  0  0  0  0  0  0  0  0  0
  1  2  1  0
  2  3  2  0
  2  4  2  0
  2  5  1  0
  5  6  1  0
  6  7  2  0
  7  8  1  0
  8  9  2  0
  9 10  1  0
 10 11  1  0
 11 12  1  0
 12 13  2  0
 12 14  1  0
 14 15  2  0
 15 16  1  0
 16 17  2  0
 17 18  1  0
 18 19  2  0
 19 20  1  0
 20 21  1  0
 21 22  2  0
 22 23  1  0
 23 24  2  0
 24 25  1  0
 25 26  2  0
  9 27  1  0
 27 28  2  0
 28  6  1  0
 19 14  1  0
 26 21  1  0
  1 29  1  0
  1 30  1  0
  1 31  1  0
  7 32  1  0
  8 33  1  0
 10 34  1  0
 10 35  1  0
 11 36  1  0
 15 37  1  0
 16 38  1  0
 17 39  1  0
 18 40  1  0
 20 41  1  0
 22 42  1  0
 23 43  1  0
 24 44  1  0
 25 45  1  0
 26 46  1  0
 27 47  1  0
 28 48  1  0
M  END
>  <UniqueID>  (18) 
17

>  <SMILES>  (18) 
CS(=O)(=O)Oc1ccc(CNC(=O)c2ccccc2Nc2ccccc2)cc1

>  <Energy>  (18) 
54.45892751858558

>  <Genealogy>  (18) 
CS(=O)(=O)Oc1ccc(CNC(=O)c2ccccc2Nc2ccccc2)cc1 (3D coordinates assigned)
CS(=O)(=O)Oc1ccc(CNC(=O)c2ccccc2Nc2ccccc2)cc1 (optimized conformer: 54.45892751858558 kcal/mol)

>  <smiles>  (18) 
CS(=O)(=O)Oc1ccc(CNC(=O)c2ccccc2Nc2ccccc2)cc1

>  <score_type>  (18) 
oracle

>  <origin>  (18) 
adgpu

>  <m_score__min__energy>  (18) 
-9.5

>  <m_primary>  (18) 
energy

$$$$
18:0
     RDKit          3D

 43 45  0  0  0  0  0  0  0  0999 V2000
   -6.7900   15.4230  -34.2410 C   0  0  0  0  0  0  0  0  0  0  0  0
   -6.4100   16.8180  -33.8350 C   0  0  0  0  0  0  0  0  0  0  0  0
   -7.1280   17.4890  -32.8320 C   0  0  0  0  0  0  0  0  0  0  0  0
   -6.7740   18.7900  -32.4610 C   0  0  0  0  0  0  0  0  0  0  0  0
   -5.7070   19.4460  -33.0980 C   0  0  0  0  0  0  0  0  0  0  0  0
   -5.3100   20.7760  -32.7190 N   0  0  0  0  0  0  0  0  0  0  0  0
   -6.2340   21.7940  -32.3010 C   0  0  0  0  0  0  0  0  0  0  0  0
   -7.4480   21.7130  -32.6370 O   0  0  0  0  0  0  0  0  0  0  0  0
   -5.7710   22.9680  -31.5210 C   0  0  0  0  0  0  0  0  0  0  0  0
   -6.5230   24.1580  -31.4900 C   0  0  0  0  0  0  0  0  0  0  0  0
   -6.0670   25.2640  -30.7680 C   0  0  0  0  0  0  0  0  0  0  0  0
   -4.8570   25.2000  -30.0750 C   0  0  0  0  0  0  0  0  0  0  0  0
   -4.0950   24.0270  -30.0980 C   0  0  0  0  0  0  0  0  0  0  0  0
   -2.5460   23.9720  -29.2560 S   0  0  0  0  0  0  0  0  0  0  0  0
   -2.0880   25.3790  -28.9960 O   0  0  0  0  0  0  0  0  0  0  0  0
   -2.7040   23.2750  -27.9330 O   0  0  0  0  0  0  0  0  0  0  0  0
   -1.3370   23.1490  -30.2040 N   0  0  0  0  0  0  0  0  0  0  0  0
   -1.6670   21.7350  -30.3930 C   0  0  0  0  0  0  0  0  0  0  0  0
   -1.5710   21.3450  -31.8350 C   0  0  0  0  0  0  0  0  0  0  0  0
   -0.4010   21.1620  -32.5460 C   0  0  0  0  0  0  0  0  0  0  0  0
   -0.7940   20.8090  -33.8190 C   0  0  0  0  0  0  0  0  0  0  0  0
   -2.1740   20.7940  -33.8040 C   0  0  0  0  0  0  0  0  0  0  0  0
   -2.6080   21.1150  -32.6070 O   0  0  0  0  0  0  0  0  0  0  0  0
   -4.5520   22.9160  -30.8210 C   0  0  0  0  0  0  0  0  0  0  0  0
   -4.9800   18.7650  -34.0870 C   0  0  0  0  0  0  0  0  0  0  0  0
   -5.3330   17.4640  -34.4600 C   0  0  0  0  0  0  0  0  0  0  0  0
   -4.6210   16.8350  -35.4300 F   0  0  0  0  0  0  0  0  0  0  0  0
   -6.9565   14.8119  -33.3417 H   0  0  0  0  0  0  0  0  0  0  0  0
   -7.7125   15.4537  -34.8394 H   0  0  0  0  0  0  0  0  0  0  0  0
   -5.9794   14.9816  -34.8394 H   0  0  0  0  0  0  0  0  0  0  0  0
   -7.9728   16.9889  -32.3358 H   0  0  0  0  0  0  0  0  0  0  0  0
   -7.3343   19.3031  -31.6655 H   0  0  0  0  0  0  0  0  0  0  0  0
   -4.3120   21.0480  -32.8650 H   0  0  0  0  0  0  0  0  0  0  0  0
   -7.4752   24.2173  -32.0375 H   0  0  0  0  0  0  0  0  0  0  0  0
   -6.6634   26.1880  -30.7457 H   0  0  0  0  0  0  0  0  0  0  0  0
   -4.5018   26.0740  -29.5094 H   0  0  0  0  0  0  0  0  0  0  0  0
   -0.9660   21.1216  -29.8079 H   0  0  0  0  0  0  0  0  0  0  0  0
   -2.7010   21.5704  -30.0557 H   0  0  0  0  0  0  0  0  0  0  0  0
    0.6282   21.2744  -32.1743 H   0  0  0  0  0  0  0  0  0  0  0  0
   -0.1398   20.5845  -34.6744 H   0  0  0  0  0  0  0  0  0  0  0  0
   -2.8138   20.5500  -34.6649 H   0  0  0  0  0  0  0  0  0  0  0  0
   -3.9514   21.9947  -30.8410 H   0  0  0  0  0  0  0  0  0  0  0  0
   -4.1254   19.2587  -34.5728 H   0  0  0  0  0  0  0  0  0  0  0  0
  1  2  1  0
  2  3  2  0
  3  4  1  0
  4  5  2  0
  5  6  1  0
  6  7  1  0
  7  8  2  0
  7  9  1  0
  9 10  2  0
 10 11  1  0
 11 12  2  0
 12 13  1  0
 13 14  1  0
 14 15  2  0
 14 16  2  0
 14 17  1  0
 17 18  1  0
 18 19  1  0
 19 20  2  0
 20 21  1  0
 21 22  2  0
 22 23  1  0
 13 24  2  0
  5 25  1  0
 25 26  2  0
 26 27  1  0
 26  2  1  0
 24  9  1  0
 23 19  1  0
  1 28  1  0
  1 29  1  0
  1 30  1  0
  3 31  1  0
  4 32  1  0
  6 33  1  0
 10 34  1  0
 11 35  1  0
 12 36  1  0
 18 37  1  0
 18 38  1  0
 20 39  1  0
 21 40  1  0
 22 41  1  0
 24 42  1  0
 25 43  1  0
M  CHG  1  17  -1
M  END
>  <UniqueID>  (19) 
18

>  <SMILES>  (19) 
Cc1ccc(NC(=O)c2cccc(S(=O)(=O)[N-]Cc3ccco3)c2)cc1F

>  <Energy>  (19) 
74.0186402557166

>  <Genealogy>  (19) 
Cc1ccc(NC(=O)c2cccc(S(=O)(=O)[N-]Cc3ccco3)c2)cc1F (protonated)
Cc1ccc(NC(=O)c2cccc(S(=O)(=O)[N-]Cc3ccco3)c2)cc1F (3D coordinates assigned)
Cc1ccc(NC(=O)c2cccc(S(=O)(=O)[N-]Cc3ccco3)c2)cc1F (optimized conformer: 74.0186402557166 kcal/mol)

>  <smiles>  (19) 
Cc1ccc(NC(=O)c2cccc(S(=O)(=O)NCc3ccco3)c2)cc1F

>  <score_type>  (19) 
oracle

>  <origin>  (19) 
adgpu

>  <m_score__min__energy>  (19) 
-10.529999999999999

>  <m_primary>  (19) 
energy

$$$$
19:0
     RDKit          3D

 43 46  0  0  0  0  0  0  0  0999 V2000
   -0.1480   21.1150  -31.0460 C   0  0  0  0  0  0  0  0  0  0  0  0
    0.1510   21.2150  -29.6580 O   0  0  0  0  0  0  0  0  0  0  0  0
   -0.6340   20.6670  -28.6310 C   0  0  0  0  0  0  0  0  0  0  0  0
   -0.3890   19.3780  -28.1170 C   0  0  0  0  0  0  0  0  0  0  0  0
   -1.2030   18.8520  -27.1100 C   0  0  0  0  0  0  0  0  0  0  0  0
   -2.2650   19.6030  -26.6040 C   0  0  0  0  0  0  0  0  0  0  0  0
   -2.5140   20.8840  -27.0990 C   0  0  0  0  0  0  0  0  0  0  0  0
   -1.7000   21.4260  -28.1070 C   0  0  0  0  0  0  0  0  0  0  0  0
   -1.9680   22.7980  -28.5960 C   0  0  0  0  0  0  0  0  0  0  0  0
   -2.9980   23.1540  -29.4680 C   0  0  0  0  0  0  0  0  0  0  0  0
   -3.9810   22.2530  -30.1040 C   0  0  0  0  0  0  0  0  0  0  0  0
   -3.7860   21.0080  -30.0760 O   0  0  0  0  0  0  0  0  0  0  0  0
   -5.1950   22.7750  -30.7550 C   0  0  0  0  0  0  0  0  0  0  0  0
   -6.4550   22.8270  -30.1900 C   0  0  0  0  0  0  0  0  0  0  0  0
   -7.2670   23.4020  -31.1440 C   0  0  0  0  0  0  0  0  0  0  0  0
   -6.4560   23.6700  -32.2270 C   0  0  0  0  0  0  0  0  0  0  0  0
   -5.2270   23.2880  -31.9650 O   0  0  0  0  0  0  0  0  0  0  0  0
   -2.8330   24.5060  -29.7120 C   0  0  0  0  0  0  0  0  0  0  0  0
   -3.5850   25.2960  -30.5730 O   0  0  0  0  0  0  0  0  0  0  0  0
   -1.7440   24.9230  -28.9820 C   0  0  0  0  0  0  0  0  0  0  0  0
   -1.2450   26.2230  -28.9440 O   0  0  0  0  0  0  0  0  0  0  0  0
   -1.2180   23.8910  -28.2920 N   0  0  0  0  0  0  0  0  0  0  0  0
   -0.0850   23.9740  -27.4090 C   0  0  0  0  0  0  0  0  0  0  0  0
   -0.1730   23.5440  -26.0740 C   0  0  0  0  0  0  0  0  0  0  0  0
    0.9510   23.6290  -25.2510 C   0  0  0  0  0  0  0  0  0  0  0  0
    2.1440   24.1490  -25.7540 C   0  0  0  0  0  0  0  0  0  0  0  0
    2.1930   24.5850  -27.0790 C   0  0  0  0  0  0  0  0  0  0  0  0
    1.0890   24.4920  -27.8680 N   0  0  0  0  0  0  0  0  0  0  0  0
   -1.1841   20.7685  -31.1738 H   0  0  0  0  0  0  0  0  0  0  0  0
   -0.0303   22.1014  -31.5184 H   0  0  0  0  0  0  0  0  0  0  0  0
    0.5394   20.3979  -31.5184 H   0  0  0  0  0  0  0  0  0  0  0  0
    0.4478   18.7823  -28.5106 H   0  0  0  0  0  0  0  0  0  0  0  0
   -1.0063   17.8442  -26.7155 H   0  0  0  0  0  0  0  0  0  0  0  0
   -2.9064   19.1849  -25.8142 H   0  0  0  0  0  0  0  0  0  0  0  0
   -3.3523   21.4722  -26.6975 H   0  0  0  0  0  0  0  0  0  0  0  0
   -6.7488   22.4815  -29.1878 H   0  0  0  0  0  0  0  0  0  0  0  0
   -8.3446   23.6060  -31.0588 H   0  0  0  0  0  0  0  0  0  0  0  0
   -6.7882   24.1335  -33.1677 H   0  0  0  0  0  0  0  0  0  0  0  0
   -1.2400   26.8060  -29.7720 H   0  0  0  0  0  0  0  0  0  0  0  0
   -1.1194   23.1440  -25.6811 H   0  0  0  0  0  0  0  0  0  0  0  0
    0.8964   23.2865  -24.2071 H   0  0  0  0  0  0  0  0  0  0  0  0
    3.0359   24.2146  -25.1135 H   0  0  0  0  0  0  0  0  0  0  0  0
    3.1252   25.0042  -27.4855 H   0  0  0  0  0  0  0  0  0  0  0  0
  1  2  1  0
  2  3  1  0
  3  4  2  0
  4  5  1  0
  5  6  2  0
  6  7  1  0
  7  8  2  0
  8  9  1  0
  9 10  2  0
 10 11  1  0
 11 12  2  0
 11 13  1  0
 13 14  2  0
 14 15  1  0
 15 16  2  0
 16 17  1  0
 10 18  1  0
 18 19  1  0
 18 20  2  0
 20 21  1  0
 20 22  1  0
 22 23  1  0
 23 24  2  0
 24 25  1  0
 25 26  2  0
 26 27  1  0
 27 28  2  0
  8  3  1  0
 22  9  1  0
 28 23  1  0
 17 13  1  0
  1 29  1  0
  1 30  1  0
  1 31  1  0
  4 32  1  0
  5 33  1  0
  6 34  1  0
  7 35  1  0
 14 36  1  0
 15 37  1  0
 16 38  1  0
 21 39  1  0
 24 40  1  0
 25 41  1  0
 26 42  1  0
 27 43  1  0
M  CHG  1  19  -1
M  END
>  <UniqueID>  (20) 
19

>  <SMILES>  (20) 
COc1ccccc1-c1c(C(=O)c2ccco2)c([O-])c(O)n1-c1ccccn1

>  <Energy>  (20) 
115.03212707606326

>  <Genealogy>  (20) 
COc1ccccc1-c1c(C(=O)c2ccco2)c([O-])c(O)n1-c1ccccn1 (protonated)
COc1ccccc1-c1c(C(=O)c2ccco2)c([O-])c(O)n1-c1ccccn1 (3D coordinates assigned)
COc1ccccc1-c1c(C(=O)c2ccco2)c([O-])c(O)n1-c1ccccn1 (optimized conformer: 115.03212707606326 kcal/mol)

>  <smiles>  (20) 
COc1ccccc1-c1c(C(=O)c2ccco2)c(O)c(O)n1-c1ccccn1

>  <score_type>  (20) 
oracle

>  <origin>  (20) 
adgpu

>  <m_score__min__energy>  (20) 
-11.52

>  <m_primary>  (20) 
energy

$$$$
20:0
     RDKit          3D

 41 42  0  0  0  0  0  0  0  0999 V2000
   -9.1260   18.5460  -31.5940 C   0  0  0  0  0  0  0  0  0  0  0  0
   -9.2910   19.8480  -32.3710 C   0  0  0  0  0  0  0  0  0  0  0  0
   -8.0480   20.2590  -32.9400 O   0  0  0  0  0  0  0  0  0  0  0  0
   -7.2640   21.3460  -32.5110 C   0  0  0  0  0  0  0  0  0  0  0  0
   -7.8270   22.4590  -31.8590 C   0  0  0  0  0  0  0  0  0  0  0  0
   -7.0200   23.5110  -31.4280 C   0  0  0  0  0  0  0  0  0  0  0  0
   -5.6390   23.4740  -31.6200 C   0  0  0  0  0  0  0  0  0  0  0  0
   -4.8730   24.5530  -31.1570 O   0  0  0  0  0  0  0  0  0  0  0  0
   -5.3990   25.6650  -30.4390 C   0  0  0  0  0  0  0  0  0  0  0  0
   -5.0660   22.3640  -32.2660 C   0  0  0  0  0  0  0  0  0  0  0  0
   -5.8690   21.3100  -32.7400 C   0  0  0  0  0  0  0  0  0  0  0  0
   -5.2240   20.1340  -33.4590 C   0  0  0  0  0  0  0  0  0  0  0  0
   -6.0660   18.9070  -33.5190 N   0  0  0  0  0  0  0  0  0  0  0  0
   -6.1170   18.1600  -32.2310 C   0  0  0  0  0  0  0  0  0  0  0  0
   -5.3430   16.8340  -32.2930 C   0  0  0  0  0  0  0  0  0  0  0  0
   -5.8780   15.9460  -33.3430 N   0  0  0  0  0  0  0  0  0  0  0  0
   -6.3810   16.6590  -34.5340 C   0  0  0  0  0  0  0  0  0  0  0  0
   -5.7460   18.0480  -34.6870 C   0  0  0  0  0  0  0  0  0  0  0  0
   -9.1528   18.7571  -30.5148 H   0  0  0  0  0  0  0  0  0  0  0  0
   -9.9441   17.8580  -31.8534 H   0  0  0  0  0  0  0  0  0  0  0  0
   -8.1621   18.0838  -31.8534 H   0  0  0  0  0  0  0  0  0  0  0  0
  -10.0242   19.6967  -33.1769 H   0  0  0  0  0  0  0  0  0  0  0  0
   -9.6383   20.6299  -31.6797 H   0  0  0  0  0  0  0  0  0  0  0  0
   -8.9129   22.4992  -31.6880 H   0  0  0  0  0  0  0  0  0  0  0  0
   -7.4773   24.3794  -30.9312 H   0  0  0  0  0  0  0  0  0  0  0  0
   -5.3109   25.4787  -29.3585 H   0  0  0  0  0  0  0  0  0  0  0  0
   -4.8343   26.5716  -30.7020 H   0  0  0  0  0  0  0  0  0  0  0  0
   -6.4581   25.8035  -30.7020 H   0  0  0  0  0  0  0  0  0  0  0  0
   -3.9754   22.3190  -32.4026 H   0  0  0  0  0  0  0  0  0  0  0  0
   -4.9964   20.4447  -34.4894 H   0  0  0  0  0  0  0  0  0  0  0  0
   -4.3269   19.8687  -32.8804 H   0  0  0  0  0  0  0  0  0  0  0  0
   -7.0400   19.2580  -33.6840 H   0  0  0  0  0  0  0  0  0  0  0  0
   -5.6797   18.7879  -31.4407 H   0  0  0  0  0  0  0  0  0  0  0  0
   -7.1707   17.9243  -32.0210 H   0  0  0  0  0  0  0  0  0  0  0  0
   -4.2856   17.0468  -32.5090 H   0  0  0  0  0  0  0  0  0  0  0  0
   -5.4492   16.3259  -31.3232 H   0  0  0  0  0  0  0  0  0  0  0  0
   -5.1080   15.3000  -33.6400 H   0  0  0  0  0  0  0  0  0  0  0  0
   -6.1490   16.0625  -35.4287 H   0  0  0  0  0  0  0  0  0  0  0  0
   -7.4661   16.7941  -34.4145 H   0  0  0  0  0  0  0  0  0  0  0  0
   -4.6543   17.9385  -34.7655 H   0  0  0  0  0  0  0  0  0  0  0  0
   -6.1501   18.5219  -35.5937 H   0  0  0  0  0  0  0  0  0  0  0  0
  1  2  1  0
  2  3  1  0
  3  4  1  0
  4  5  2  0
  5  6  1  0
  6  7  2  0
  7  8  1  0
  8  9  1  0
  7 10  1  0
 10 11  2  0
 11 12  1  0
 12 13  1  0
 13 14  1  0
 14 15  1  0
 15 16  1  0
 16 17  1  0
 17 18  1  0
 11  4  1  0
 18 13  1  0
  1 19  1  0
  1 20  1  0
  1 21  1  0
  2 22  1  0
  2 23  1  0
  5 24  1  0
  6 25  1  0
  9 26  1  0
  9 27  1  0
  9 28  1  0
 10 29  1  0
 12 30  1  0
 12 31  1  0
 13 32  1  0
 14 33  1  0
 14 34  1  0
 15 35  1  0
 15 36  1  0
 16 37  1  0
 17 38  1  0
 17 39  1  0
 18 40  1  0
 18 41  1  0
M  CHG  1  13   1
M  END
>  <UniqueID>  (21) 
20

>  <SMILES>  (21) 
CCOc1ccc(OC)cc1C[NH+]1CCNCC1

>  <Energy>  (21) 
50.75133779960849

>  <Genealogy>  (21) 
CCOc1ccc(OC)cc1C[NH+]1CCNCC1 (protonated)
CCOc1ccc(OC)cc1C[NH+]1CCNCC1 (3D coordinates assigned)
CCOc1ccc(OC)cc1C[NH+]1CCNCC1 (nonaromatic ring conformer: 50.75133779960849 kcal/mol)

>  <smiles>  (21) 
CCOc1ccc(OC)cc1CN1CCNCC1

>  <score_type>  (21) 
oracle

>  <origin>  (21) 
adgpu

>  <m_score__min__energy>  (21) 
-5.6299999999999999

>  <m_primary>  (21) 
energy

$$$$
21:0
     RDKit          3D

 23 25  0  0  0  0  0  0  0  0999 V2000
   -3.9110   25.5180  -30.8740 O   0  0  0  0  0  0  0  0  0  0  0  0
   -3.5430   24.9120  -29.8320 C   0  0  0  0  0  0  0  0  0  0  0  0
   -2.3880   25.2930  -29.2240 N   0  0  0  0  0  0  0  0  0  0  0  0
   -1.9310   24.6850  -28.0990 C   0  0  0  0  0  0  0  0  0  0  0  0
   -2.6510   23.6350  -27.5330 C   0  0  0  0  0  0  0  0  0  0  0  0
   -3.8390   23.2180  -28.1320 C   0  0  0  0  0  0  0  0  0  0  0  0
   -4.3090   23.8510  -29.2970 C   0  0  0  0  0  0  0  0  0  0  0  0
   -5.5760   23.3960  -29.9210 C   0  0  0  0  0  0  0  0  0  0  0  0
   -6.6800   24.1620  -30.0480 N   0  0  0  0  0  0  0  0  0  0  0  0
   -7.5520   23.4030  -30.6380 O   0  0  0  0  0  0  0  0  0  0  0  0
   -7.0250   22.2270  -30.8690 C   0  0  0  0  0  0  0  0  0  0  0  0
   -7.7310   21.1210  -31.5240 C   0  0  0  0  0  0  0  0  0  0  0  0
   -9.0890   21.0800  -31.8110 C   0  0  0  0  0  0  0  0  0  0  0  0
   -9.4810   19.8930  -32.4410 C   0  0  0  0  0  0  0  0  0  0  0  0
   -8.4370   19.0000  -32.6500 C   0  0  0  0  0  0  0  0  0  0  0  0
   -7.0250   19.6880  -32.0500 S   0  0  0  0  0  0  0  0  0  0  0  0
   -5.7540   22.1570  -30.4320 N   0  0  0  0  0  0  0  0  0  0  0  0
   -0.9923   25.0215  -27.6346 H   0  0  0  0  0  0  0  0  0  0  0  0
   -2.2854   23.1394  -26.6216 H   0  0  0  0  0  0  0  0  0  0  0  0
   -4.4121   22.3891  -27.6910 H   0  0  0  0  0  0  0  0  0  0  0  0
   -9.7852   21.8964  -31.5682 H   0  0  0  0  0  0  0  0  0  0  0  0
  -10.5185   19.6864  -32.7425 H   0  0  0  0  0  0  0  0  0  0  0  0
   -8.5201   18.0120  -33.1265 H   0  0  0  0  0  0  0  0  0  0  0  0
  1  2  2  0
  2  3  1  0
  3  4  1  0
  4  5  2  0
  5  6  1  0
  6  7  2  0
  7  8  1  0
  8  9  2  0
  9 10  1  0
 10 11  1  0
 11 12  1  0
 12 13  2  0
 13 14  1  0
 14 15  2  0
 15 16  1  0
 11 17  2  0
  7  2  1  0
 17  8  1  0
 16 12  1  0
  4 18  1  0
  5 19  1  0
  6 20  1  0
 13 21  1  0
 14 22  1  0
 15 23  1  0
M  CHG  1   3  -1
M  END
>  <UniqueID>  (22) 
21

>  <SMILES>  (22) 
O=c1[n-]cccc1-c1noc(-c2cccs2)n1

>  <Energy>  (22) 
86.92085922779594

>  <Genealogy>  (22) 
O=c1[n-]cccc1-c1noc(-c2cccs2)n1 (protonated)
O=c1[n-]cccc1-c1noc(-c2cccs2)n1 (3D coordinates assigned)
O=c1[n-]cccc1-c1noc(-c2cccs2)n1 (optimized conformer: 86.92085922779594 kcal/mol)

>  <smiles>  (22) 
O=c1[nH]cccc1-c1noc(-c2cccs2)n1

>  <score_type>  (22) 
oracle

>  <origin>  (22) 
adgpu

>  <m_score__min__energy>  (22) 
-8.9600000000000009

>  <m_primary>  (22) 
energy

$$$$
22:0
     RDKit          3D

 51 54  0  0  1  0  0  0  0  0999 V2000
   -3.0520   14.0360  -32.0880 C   0  0  0  0  0  0  0  0  0  0  0  0
   -4.0090   13.0270  -32.4940 N   0  0  0  0  0  0  0  0  0  0  0  0
   -5.0620   13.3900  -33.1650 C   0  0  0  0  0  0  0  0  0  0  0  0
   -5.2840   14.7300  -33.4960 C   0  0  0  0  0  0  0  0  0  0  0  0
   -6.4150   15.0840  -34.2110 C   0  0  0  0  0  0  0  0  0  0  0  0
   -6.6730   16.3960  -34.5630 O   0  0  0  0  0  0  0  0  0  0  0  0
   -6.1970   17.4600  -33.8170 C   0  0  0  0  0  0  0  0  0  0  0  0
   -6.8990   17.9230  -32.7030 C   0  0  0  0  0  0  0  0  0  0  0  0
   -6.3680   18.9890  -32.0030 C   0  0  0  0  0  0  0  0  0  0  0  0
   -5.1620   19.5940  -32.3910 C   0  0  0  0  0  0  0  0  0  0  0  0
   -4.7350   20.6750  -31.5850 N   0  0  0  0  0  0  0  0  0  0  0  0
   -3.3980   20.7790  -31.0580 C   0  0  0  0  0  0  0  0  0  0  0  0
   -2.5360   19.9070  -31.2900 O   0  0  0  0  0  0  0  0  0  0  0  0
   -3.1530   21.9760  -30.2360 C   0  0  0  0  0  0  0  0  0  0  0  0
   -3.6190   23.1920  -30.6930 C   0  0  0  0  0  0  0  0  0  0  0  0
   -3.4440   24.3710  -30.0000 C   0  0  0  0  0  0  0  0  0  0  0  0
   -3.9130   25.5910  -30.4580 O   0  0  0  0  0  0  0  0  0  0  0  0
   -2.7620   24.2750  -28.7900 C   0  0  0  0  0  0  0  0  0  0  0  0
   -2.3190   23.0800  -28.3660 N   0  0  0  0  0  0  0  0  0  0  0  0
   -2.4890   21.9350  -29.0420 C   0  0  0  0  0  0  0  0  0  0  0  0
   -1.9610   20.7100  -28.4710 C   0  0  0  0  0  0  0  0  0  0  0  0
   -0.7270   20.2790  -28.9630 C   0  0  0  0  0  0  0  0  0  0  0  0
   -0.1150   19.1300  -28.5080 C   0  0  0  0  0  0  0  0  0  0  0  0
   -0.7560   18.3920  -27.5330 C   0  0  0  0  0  0  0  0  0  0  0  0
   -0.1270   17.2310  -27.0770 O   0  0  0  0  0  0  0  0  0  0  0  0
   -1.9810   18.8110  -27.0370 C   0  0  0  0  0  0  0  0  0  0  0  0
   -2.6010   19.9730  -27.4950 C   0  0  0  0  0  0  0  0  0  0  0  0
   -4.4740   19.1300  -33.4950 C   0  0  0  0  0  0  0  0  0  0  0  0
   -5.0020   18.0530  -34.2120 C   0  0  0  0  0  0  0  0  0  0  0  0
   -7.2610   14.0880  -34.5540 N   0  0  0  0  0  0  0  0  0  0  0  0
   -7.0220   12.7990  -34.2190 C   0  0  0  0  0  0  0  0  0  0  0  0
   -5.9270   12.4310  -33.5250 N   0  0  0  0  0  0  0  0  0  0  0  0
   -3.0098   14.0805  -30.9897 H   0  0  0  0  0  0  0  0  0  0  0  0
   -2.0581   13.7787  -32.4830 H   0  0  0  0  0  0  0  0  0  0  0  0
   -3.3614   15.0149  -32.4830 H   0  0  0  0  0  0  0  0  0  0  0  0
   -4.5618   15.5009  -33.1890 H   0  0  0  0  0  0  0  0  0  0  0  0
   -7.8444   17.4542  -32.3925 H   0  0  0  0  0  0  0  0  0  0  0  0
   -6.9024   19.3726  -31.1214 H   0  0  0  0  0  0  0  0  0  0  0  0
   -5.4550   21.4180  -31.3780 H   0  0  0  0  0  0  0  0  0  0  0  0
   -4.1542   23.2219  -31.6535 H   0  0  0  0  0  0  0  0  0  0  0  0
   -3.8640   26.4430  -29.9250 H   0  0  0  0  0  0  0  0  0  0  0  0
   -2.5865   25.1754  -28.1829 H   0  0  0  0  0  0  0  0  0  0  0  0
   -0.2265   20.8761  -29.7395 H   0  0  0  0  0  0  0  0  0  0  0  0
    0.8573   18.8102  -28.9109 H   0  0  0  0  0  0  0  0  0  0  0  0
   -0.5570   16.6290  -26.3740 H   0  0  0  0  0  0  0  0  0  0  0  0
   -2.4775   18.2102  -26.2608 H   0  0  0  0  0  0  0  0  0  0  0  0
   -3.5724   20.2932  -27.0901 H   0  0  0  0  0  0  0  0  0  0  0  0
   -3.5284   19.5993  -33.8040 H   0  0  0  0  0  0  0  0  0  0  0  0
   -4.4689   17.6713  -35.0952 H   0  0  0  0  0  0  0  0  0  0  0  0
   -8.1210   14.3580  -35.0940 H   0  0  0  0  0  0  0  0  0  0  0  0
   -7.7444   12.0270  -34.5228 H   0  0  0  0  0  0  0  0  0  0  0  0
  1  2  1  0
  2  3  2  0
  3  4  1  0
  4  5  2  0
  5  6  1  0
  6  7  1  0
  7  8  2  0
  8  9  1  0
  9 10  2  0
 10 11  1  0
 11 12  1  0
 12 13  2  0
 12 14  1  0
 14 15  2  0
 15 16  1  0
 16 17  1  0
 16 18  2  0
 18 19  1  0
 19 20  2  0
 20 21  1  0
 21 22  2  0
 22 23  1  0
 23 24  2  0
 24 25  1  0
 24 26  1  0
 26 27  2  0
 10 28  1  0
 28 29  2  0
  5 30  1  0
 30 31  1  0
 31 32  2  0
 32  3  1  0
 29  7  1  0
 20 14  1  0
 27 21  1  0
  1 33  1  0
  1 34  1  0
  1 35  1  0
  4 36  1  0
  8 37  1  0
  9 38  1  0
 11 39  1  0
 15 40  1  0
 17 41  1  0
 18 42  1  0
 22 43  1  0
 23 44  1  0
 25 45  1  0
 26 46  1  0
 27 47  1  0
 28 48  1  0
 29 49  1  0
 30 50  1  0
 31 51  1  0
M  END
>  <smiles>  (23) 
CN=c1cc(Oc2ccc(NC(=O)c3cc(O)cnc3-c3ccc(O)cc3)cc2)[nH]cn1

>  <score_type>  (23) 
oracle

>  <origin>  (23) 
adgpu

>  <m_score__min__energy>  (23) 
-9.7799999999999994

>  <m_primary>  (23) 
energy

$$$$
23:0
     RDKit          3D

 24 26  0  0  0  0  0  0  0  0999 V2000
   -6.7350   16.6260  -33.6250 C   0  0  0  0  0  0  0  0  0  0  0  0
   -6.0710   17.3710  -34.5770 C   0  0  0  0  0  0  0  0  0  0  0  0
   -6.1540   18.6470  -34.2780 O   0  0  0  0  0  0  0  0  0  0  0  0
   -6.8460   18.7760  -33.1690 C   0  0  0  0  0  0  0  0  0  0  0  0
   -7.1370   20.0730  -32.5400 C   0  0  0  0  0  0  0  0  0  0  0  0
   -8.4200   20.5010  -32.2000 C   0  0  0  0  0  0  0  0  0  0  0  0
   -8.2810   22.0280  -31.5140 S   0  0  0  0  0  0  0  0  0  0  0  0
   -6.6040   22.0860  -31.6720 C   0  0  0  0  0  0  0  0  0  0  0  0
   -5.7310   23.2060  -31.2530 C   0  0  0  0  0  0  0  0  0  0  0  0
   -6.2070   24.5270  -31.2310 C   0  0  0  0  0  0  0  0  0  0  0  0
   -5.3580   25.5630  -30.8300 C   0  0  0  0  0  0  0  0  0  0  0  0
   -4.0770   25.2920  -30.4630 N   0  0  0  0  0  0  0  0  0  0  0  0
   -3.5880   24.0250  -30.4730 C   0  0  0  0  0  0  0  0  0  0  0  0
   -4.4020   22.9600  -30.8670 C   0  0  0  0  0  0  0  0  0  0  0  0
   -6.1410   20.9520  -32.2450 N   0  0  0  0  0  0  0  0  0  0  0  0
   -7.2370   17.5300  -32.7130 C   0  0  0  0  0  0  0  0  0  0  0  0
   -6.8424   15.5316  -33.5987 H   0  0  0  0  0  0  0  0  0  0  0  0
   -5.5506   16.9587  -35.4541 H   0  0  0  0  0  0  0  0  0  0  0  0
   -9.3538   19.9402  -32.3533 H   0  0  0  0  0  0  0  0  0  0  0  0
   -7.2433   24.7457  -31.5280 H   0  0  0  0  0  0  0  0  0  0  0  0
   -5.7270   26.5991  -30.8114 H   0  0  0  0  0  0  0  0  0  0  0  0
   -2.5475   23.8366  -30.1699 H   0  0  0  0  0  0  0  0  0  0  0  0
   -4.0049   21.9342  -30.8751 H   0  0  0  0  0  0  0  0  0  0  0  0
   -7.8256   17.3069  -31.8109 H   0  0  0  0  0  0  0  0  0  0  0  0
  1  2  2  0
  2  3  1  0
  3  4  1  0
  4  5  1  0
  5  6  2  0
  6  7  1  0
  7  8  1  0
  8  9  1  0
  9 10  2  0
 10 11  1  0
 11 12  2  0
 12 13  1  0
 13 14  2  0
  8 15  2  0
  4 16  2  0
 16  1  1  0
 15  5  1  0
 14  9  1  0
  1 17  1  0
  2 18  1  0
  6 19  1  0
 10 20  1  0
 11 21  1  0
 13 22  1  0
 14 23  1  0
 16 24  1  0
M  END
>  <UniqueID>  (24) 
22

>  <SMILES>  (24) 
c1coc(-c2csc(-c3ccncc3)n2)c1

>  <Energy>  (24) 
83.4340659012928

>  <Genealogy>  (24) 
c1coc(-c2csc(-c3ccncc3)n2)c1 (3D coordinates assigned)
c1coc(-c2csc(-c3ccncc3)n2)c1 (optimized conformer: 83.4340659012928 kcal/mol)

>  <smiles>  (24) 
c1coc(-c2csc(-c3ccncc3)n2)c1

>  <score_type>  (24) 
oracle

>  <origin>  (24) 
adgpu

>  <m_score__min__energy>  (24) 
-6.7000000000000002

>  <m_primary>  (24) 
energy

$$$$
24:0
     RDKit          3D

 49 52  0  0  0  0  0  0  0  0999 V2000
   -6.8090   16.6740  -33.0960 C   0  0  0  0  0  0  0  0  0  0  0  0
   -7.3450   18.0490  -32.7950 C   0  0  0  0  0  0  0  0  0  0  0  0
   -8.3580   18.1850  -31.8270 C   0  0  0  0  0  0  0  0  0  0  0  0
   -8.8730   19.4430  -31.5090 C   0  0  0  0  0  0  0  0  0  0  0  0
   -8.3810   20.5820  -32.1420 C   0  0  0  0  0  0  0  0  0  0  0  0
   -7.3730   20.4670  -33.0980 C   0  0  0  0  0  0  0  0  0  0  0  0
   -6.8460   19.2080  -33.4450 C   0  0  0  0  0  0  0  0  0  0  0  0
   -5.7800   19.1550  -34.5170 C   0  0  0  0  0  0  0  0  0  0  0  0
   -4.4500   19.1430  -33.9080 N   0  0  0  0  0  0  0  0  0  0  0  0
   -3.5290   18.1630  -34.0030 C   0  0  0  0  0  0  0  0  0  0  0  0
   -2.4530   18.5140  -33.2140 C   0  0  0  0  0  0  0  0  0  0  0  0
   -1.3320   17.7130  -33.0030 O   0  0  0  0  0  0  0  0  0  0  0  0
   -2.6850   19.7150  -32.6360 N   0  0  0  0  0  0  0  0  0  0  0  0
   -1.8470   20.4540  -31.7340 C   0  0  0  0  0  0  0  0  0  0  0  0
   -0.5590   20.9020  -31.9610 C   0  0  0  0  0  0  0  0  0  0  0  0
   -0.1380   21.5710  -30.8700 N   0  0  0  0  0  0  0  0  0  0  0  0
   -1.1240   21.5660  -29.9830 N   0  0  0  0  0  0  0  0  0  0  0  0
   -1.0180   22.1370  -28.6450 C   0  0  0  0  0  0  0  0  0  0  0  0
   -1.1510   23.6310  -28.7120 C   0  0  0  0  0  0  0  0  0  0  0  0
   -0.2870   24.5870  -28.2110 C   0  0  0  0  0  0  0  0  0  0  0  0
    1.0180   24.3430  -27.5250 C   0  0  0  0  0  0  0  0  0  0  0  0
   -0.8280   25.8100  -28.3790 N   0  0  0  0  0  0  0  0  0  0  0  0
   -1.9820   25.6410  -28.9580 O   0  0  0  0  0  0  0  0  0  0  0  0
   -2.2250   24.3680  -29.1720 C   0  0  0  0  0  0  0  0  0  0  0  0
   -3.4740   23.8470  -29.8030 C   0  0  0  0  0  0  0  0  0  0  0  0
   -2.1850   20.8990  -30.4750 C   0  0  0  0  0  0  0  0  0  0  0  0
   -3.9160   20.0610  -33.0740 C   0  0  0  0  0  0  0  0  0  0  0  0
   -4.5020   21.1290  -32.7460 O   0  0  0  0  0  0  0  0  0  0  0  0
   -6.6032   16.1462  -32.1531 H   0  0  0  0  0  0  0  0  0  0  0  0
   -7.5530   16.1096  -33.6774 H   0  0  0  0  0  0  0  0  0  0  0  0
   -5.8793   16.7620  -33.6774 H   0  0  0  0  0  0  0  0  0  0  0  0
   -8.7473   17.2918  -31.3165 H   0  0  0  0  0  0  0  0  0  0  0  0
   -9.6698   19.5350  -30.7562 H   0  0  0  0  0  0  0  0  0  0  0  0
   -8.7877   21.5719  -31.8876 H   0  0  0  0  0  0  0  0  0  0  0  0
   -6.9840   21.3718  -33.5879 H   0  0  0  0  0  0  0  0  0  0  0  0
   -5.9131   18.2425  -35.1167 H   0  0  0  0  0  0  0  0  0  0  0  0
   -5.8724   20.0436  -35.1588 H   0  0  0  0  0  0  0  0  0  0  0  0
   -3.6195   17.2458  -34.6034 H   0  0  0  0  0  0  0  0  0  0  0  0
   -1.1770   16.8600  -33.5220 H   0  0  0  0  0  0  0  0  0  0  0  0
    0.0247   20.7394  -32.8791 H   0  0  0  0  0  0  0  0  0  0  0  0
   -1.8179   21.7282  -28.0101 H   0  0  0  0  0  0  0  0  0  0  0  0
   -0.0364   21.8807  -28.2199 H   0  0  0  0  0  0  0  0  0  0  0  0
    0.8702   24.3706  -26.4353 H   0  0  0  0  0  0  0  0  0  0  0  0
    1.4071   23.3565  -27.8174 H   0  0  0  0  0  0  0  0  0  0  0  0
    1.7373   25.1222  -27.8174 H   0  0  0  0  0  0  0  0  0  0  0  0
   -4.1852   23.5503  -29.0180 H   0  0  0  0  0  0  0  0  0  0  0  0
   -3.9242   24.6323  -30.4279 H   0  0  0  0  0  0  0  0  0  0  0  0
   -3.2327   22.9745  -30.4279 H   0  0  0  0  0  0  0  0  0  0  0  0
   -3.1462   20.7387  -29.9648 H   0  0  0  0  0  0  0  0  0  0  0  0
  1  2  1  0
  2  3  2  0
  3  4  1  0
  4  5  2  0
  5  6  1  0
  6  7  2  0
  7  8  1  0
  8  9  1  0
  9 10  1  0
 10 11  2  0
 11 12  1  0
 11 13  1  0
 13 14  1  0
 14 15  1  0
 15 16  2  0
 16 17  1  0
 17 18  1  0
 18 19  1  0
 19 20  1  0
 20 21  1  0
 20 22  2  0
 22 23  1  0
 23 24  1  0
 24 25  1  0
 17 26  1  0
 13 27  1  0
 27 28  2  0
  7  2  1  0
 27  9  1  0
 26 14  2  0
 24 19  2  0
  1 29  1  0
  1 30  1  0
  1 31  1  0
  3 32  1  0
  4 33  1  0
  5 34  1  0
  6 35  1  0
  8 36  1  0
  8 37  1  0
 10 38  1  0
 12 39  1  0
 15 40  1  0
 18 41  1  0
 18 42  1  0
 21 43  1  0
 21 44  1  0
 21 45  1  0
 25 46  1  0
 25 47  1  0
 25 48  1  0
 26 49  1  0
M  END
>  <UniqueID>  (25) 
23

>  <SMILES>  (25) 
Cc1ccccc1Cn1cc(O)n(-c2cnn(Cc3c(C)noc3C)c2)c1=O

>  <Energy>  (25) 
148.6795190103423

>  <Genealogy>  (25) 
Cc1ccccc1Cn1cc(O)n(-c2cnn(Cc3c(C)noc3C)c2)c1=O (3D coordinates assigned)
Cc1ccccc1Cn1cc(O)n(-c2cnn(Cc3c(C)noc3C)c2)c1=O (optimized conformer: 148.6795190103423 kcal/mol)

>  <smiles>  (25) 
Cc1ccccc1Cn1cc(O)n(-c2cnn(Cc3c(C)noc3C)c2)c1=O

>  <score_type>  (25) 
oracle

>  <origin>  (25) 
adgpu

>  <m_score__min__energy>  (25) 
-9.4000000000000004

>  <m_primary>  (25) 
energy

$$$$
25:0
     RDKit          3D

 31 32  0  0  0  0  0  0  0  0999 V2000
   -4.4120   24.3910  -30.8850 O   0  0  0  0  0  0  0  0  0  0  0  0
   -5.2720   23.7390  -31.5370 C   0  0  0  0  0  0  0  0  0  0  0  0
   -6.7070   24.1720  -31.4970 C   0  0  0  0  0  0  0  0  0  0  0  0
   -7.5090   23.4020  -32.4590 N   0  0  0  0  0  0  0  0  0  0  0  0
   -8.2180   22.2730  -31.8350 C   0  0  0  0  0  0  0  0  0  0  0  0
   -7.7370   20.9500  -32.3560 C   0  0  0  0  0  0  0  0  0  0  0  0
   -8.2020   19.7090  -31.9670 C   0  0  0  0  0  0  0  0  0  0  0  0
   -7.4660   18.7960  -32.6900 C   0  0  0  0  0  0  0  0  0  0  0  0
   -6.6000   19.5340  -33.4730 C   0  0  0  0  0  0  0  0  0  0  0  0
   -6.7850   20.8140  -33.2510 O   0  0  0  0  0  0  0  0  0  0  0  0
   -4.8820   22.6350  -32.3670 N   0  0  0  0  0  0  0  0  0  0  0  0
   -3.5730   22.0400  -32.3560 C   0  0  0  0  0  0  0  0  0  0  0  0
   -2.7310   22.1360  -31.2320 C   0  0  0  0  0  0  0  0  0  0  0  0
   -1.4730   21.5270  -31.2390 C   0  0  0  0  0  0  0  0  0  0  0  0
   -1.0480   20.8080  -32.3590 C   0  0  0  0  0  0  0  0  0  0  0  0
   -1.8860   20.6880  -33.4700 C   0  0  0  0  0  0  0  0  0  0  0  0
   -3.1460   21.2940  -33.4670 C   0  0  0  0  0  0  0  0  0  0  0  0
   -7.1048   24.0106  -30.4842 H   0  0  0  0  0  0  0  0  0  0  0  0
   -6.7624   25.2378  -31.7633 H   0  0  0  0  0  0  0  0  0  0  0  0
   -6.8730   23.0340  -33.2050 H   0  0  0  0  0  0  0  0  0  0  0  0
   -8.0537   22.3076  -30.7479 H   0  0  0  0  0  0  0  0  0  0  0  0
   -9.2865   22.3661  -32.0790 H   0  0  0  0  0  0  0  0  0  0  0  0
   -8.9936   19.4947  -31.2340 H   0  0  0  0  0  0  0  0  0  0  0  0
   -7.5509   17.7000  -32.6514 H   0  0  0  0  0  0  0  0  0  0  0  0
   -5.8664   19.1126  -34.1761 H   0  0  0  0  0  0  0  0  0  0  0  0
   -5.5650   22.3030  -33.0850 H   0  0  0  0  0  0  0  0  0  0  0  0
   -3.0647   22.6929  -30.3440 H   0  0  0  0  0  0  0  0  0  0  0  0
   -0.8162   21.6140  -30.3609 H   0  0  0  0  0  0  0  0  0  0  0  0
   -0.0541   20.3367  -32.3659 H   0  0  0  0  0  0  0  0  0  0  0  0
   -1.5541   20.1157  -34.3488 H   0  0  0  0  0  0  0  0  0  0  0  0
   -3.8068   21.1860  -34.3397 H   0  0  0  0  0  0  0  0  0  0  0  0
  1  2  2  0
  2  3  1  0
  3  4  1  0
  4  5  1  0
  5  6  1  0
  6  7  2  0
  7  8  1  0
  8  9  2  0
  9 10  1  0
  2 11  1  0
 11 12  1  0
 12 13  2  0
 13 14  1  0
 14 15  2  0
 15 16  1  0
 16 17  2  0
 10  6  1  0
 17 12  1  0
  3 18  1  0
  3 19  1  0
  4 20  1  0
  5 21  1  0
  5 22  1  0
  7 23  1  0
  8 24  1  0
  9 25  1  0
 11 26  1  0
 13 27  1  0
 14 28  1  0
 15 29  1  0
 16 30  1  0
 17 31  1  0
M  END
>  <UniqueID>  (26) 
24

>  <SMILES>  (26) 
O=C(CNCc1ccco1)Nc1ccccc1

>  <Energy>  (26) 
58.847323401415785

>  <Genealogy>  (26) 
O=C(CNCc1ccco1)Nc1ccccc1 (3D coordinates assigned)
O=C(CNCc1ccco1)Nc1ccccc1 (optimized conformer: 58.847323401415785 kcal/mol)

>  <smiles>  (26) 
O=C(CNCc1ccco1)Nc1ccccc1

>  <score_type>  (26) 
oracle

>  <origin>  (26) 
adgpu

>  <m_score__min__energy>  (26) 
-7.7300000000000004

>  <m_primary>  (26) 
energy

$$$$
26:0
     RDKit          3D

 47 49  0  0  0  0  0  0  0  0999 V2000
   -6.5190   26.0510  -29.3340 N   0  0  0  0  0  0  0  0  0  0  0  0
   -6.0280   25.1100  -29.7960 C   0  0  0  0  0  0  0  0  0  0  0  0
   -5.4160   23.9380  -30.3710 C   0  0  0  0  0  0  0  0  0  0  0  0
   -5.7540   23.5620  -31.6770 C   0  0  0  0  0  0  0  0  0  0  0  0
   -5.1740   22.4310  -32.2560 C   0  0  0  0  0  0  0  0  0  0  0  0
   -4.2420   21.6580  -31.5420 C   0  0  0  0  0  0  0  0  0  0  0  0
   -3.6570   20.4880  -32.1610 N   0  0  0  0  0  0  0  0  0  0  0  0
   -4.4470   19.2820  -32.4520 C   0  0  0  0  0  0  0  0  0  0  0  0
   -5.0740   19.3550  -33.8600 C   0  0  0  0  0  0  0  0  0  0  0  0
   -6.5380   19.1100  -33.8320 N   0  0  0  0  0  0  0  0  0  0  0  0
   -7.2220   20.2220  -33.1170 C   0  0  0  0  0  0  0  0  0  0  0  0
   -8.6370   19.8310  -32.6770 C   0  0  0  0  0  0  0  0  0  0  0  0
   -8.6000   18.6660  -31.6730 C   0  0  0  0  0  0  0  0  0  0  0  0
   -7.3360   17.8030  -31.8180 C   0  0  0  0  0  0  0  0  0  0  0  0
   -6.8620   17.7580  -33.2790 C   0  0  0  0  0  0  0  0  0  0  0  0
   -2.3070   20.5320  -32.5740 N   0  0  0  0  0  0  0  0  0  0  0  0
   -2.0250   20.7950  -33.8860 C   0  0  0  0  0  0  0  0  0  0  0  0
   -0.7030   20.8420  -34.3330 C   0  0  0  0  0  0  0  0  0  0  0  0
    0.3330   20.6180  -33.4280 C   0  0  0  0  0  0  0  0  0  0  0  0
    0.0380   20.3550  -32.0910 C   0  0  0  0  0  0  0  0  0  0  0  0
   -1.2960   20.3170  -31.6740 C   0  0  0  0  0  0  0  0  0  0  0  0
   -1.5570   20.0970  -30.4600 O   0  0  0  0  0  0  0  0  0  0  0  0
   -3.9120   22.0380  -30.2270 C   0  0  0  0  0  0  0  0  0  0  0  0
   -4.4910   23.1710  -29.6430 C   0  0  0  0  0  0  0  0  0  0  0  0
   -4.0390   23.6020  -27.9970 Cl  0  0  0  0  0  0  0  0  0  0  0  0
   -6.4790   24.1597  -32.2490 H   0  0  0  0  0  0  0  0  0  0  0  0
   -5.4493   22.1422  -33.2811 H   0  0  0  0  0  0  0  0  0  0  0  0
   -3.7911   18.4007  -32.3961 H   0  0  0  0  0  0  0  0  0  0  0  0
   -5.2575   19.2083  -31.7120 H   0  0  0  0  0  0  0  0  0  0  0  0
   -4.8896   20.3552  -34.2791 H   0  0  0  0  0  0  0  0  0  0  0  0
   -4.6109   18.5719  -34.4784 H   0  0  0  0  0  0  0  0  0  0  0  0
   -6.8890   19.1360  -34.8210 H   0  0  0  0  0  0  0  0  0  0  0  0
   -6.6332   20.4883  -32.2268 H   0  0  0  0  0  0  0  0  0  0  0  0
   -7.3022   21.0743  -33.8078 H   0  0  0  0  0  0  0  0  0  0  0  0
   -9.1191   20.6989  -32.2034 H   0  0  0  0  0  0  0  0  0  0  0  0
   -9.2040   19.5115  -33.5638 H   0  0  0  0  0  0  0  0  0  0  0  0
   -8.6307   19.0779  -30.6535 H   0  0  0  0  0  0  0  0  0  0  0  0
   -9.4688   18.0226  -31.8759 H   0  0  0  0  0  0  0  0  0  0  0  0
   -6.5366   18.2289  -31.1938 H   0  0  0  0  0  0  0  0  0  0  0  0
   -7.5734   16.7784  -31.4958 H   0  0  0  0  0  0  0  0  0  0  0  0
   -5.9598   17.1311  -33.3354 H   0  0  0  0  0  0  0  0  0  0  0  0
   -7.6869   17.3468  -33.8793 H   0  0  0  0  0  0  0  0  0  0  0  0
   -2.8469   20.9711  -34.5955 H   0  0  0  0  0  0  0  0  0  0  0  0
   -0.4813   21.0538  -35.3894 H   0  0  0  0  0  0  0  0  0  0  0  0
    1.3790   20.6486  -33.7672 H   0  0  0  0  0  0  0  0  0  0  0  0
    0.8491   20.1786  -31.3692 H   0  0  0  0  0  0  0  0  0  0  0  0
   -3.1912   21.4380  -29.6521 H   0  0  0  0  0  0  0  0  0  0  0  0
  1  2  3  0
  2  3  1  0
  3  4  2  0
  4  5  1  0
  5  6  2  0
  6  7  1  0
  7  8  1  0
  8  9  1  0
  9 10  1  0
 10 11  1  0
 11 12  1  0
 12 13  1  0
 13 14  1  0
 14 15  1  0
  7 16  1  0
 16 17  1  0
 17 18  2  0
 18 19  1  0
 19 20  2  0
 20 21  1  0
 21 22  2  0
  6 23  1  0
 23 24  2  0
 24 25  1  0
 24  3  1  0
 15 10  1  0
 21 16  1  0
  4 26  1  0
  5 27  1  0
  8 28  1  0
  8 29  1  0
  9 30  1  0
  9 31  1  0
 10 32  1  0
 11 33  1  0
 11 34  1  0
 12 35  1  0
 12 36  1  0
 13 37  1  0
 13 38  1  0
 14 39  1  0
 14 40  1  0
 15 41  1  0
 15 42  1  0
 17 43  1  0
 18 44  1  0
 19 45  1  0
 20 46  1  0
 23 47  1  0
M  CHG  1  10   1
M  END
>  <UniqueID>  (27) 
25

>  <SMILES>  (27) 
N#Cc1ccc(N(CC[NH+]2CCCCC2)n2ccccc2=O)cc1Cl

>  <Energy>  (27) 
65.88369576812957

>  <Genealogy>  (27) 
N#Cc1ccc(N(CC[NH+]2CCCCC2)n2ccccc2=O)cc1Cl (protonated)
N#Cc1ccc(N(CC[NH+]2CCCCC2)n2ccccc2=O)cc1Cl (3D coordinates assigned)
N#Cc1ccc(N(CC[NH+]2CCCCC2)n2ccccc2=O)cc1Cl (nonaromatic ring conformer: 65.88369576812957 kcal/mol)

>  <smiles>  (27) 
N#Cc1ccc(N(CCN2CCCCC2)n2ccccc2=O)cc1Cl

>  <score_type>  (27) 
oracle

>  <origin>  (27) 
adgpu

>  <m_score__min__energy>  (27) 
-7.8499999999999996

>  <m_primary>  (27) 
energy

$$$$
27:0
     RDKit          3D

 37 39  0  0  0  0  0  0  0  0999 V2000
   -8.7080   18.5280  -31.3570 C   0  0  0  0  0  0  0  0  0  0  0  0
   -9.4940   18.9810  -32.5820 C   0  0  0  0  0  0  0  0  0  0  0  0
   -9.0900   20.2890  -32.9880 O   0  0  0  0  0  0  0  0  0  0  0  0
   -8.0660   21.0540  -32.3990 C   0  0  0  0  0  0  0  0  0  0  0  0
   -8.3310   22.0630  -31.4540 C   0  0  0  0  0  0  0  0  0  0  0  0
   -7.2870   22.8010  -30.8920 C   0  0  0  0  0  0  0  0  0  0  0  0
   -5.9580   22.5450  -31.2590 C   0  0  0  0  0  0  0  0  0  0  0  0
   -4.8530   23.3240  -30.6670 C   0  0  0  0  0  0  0  0  0  0  0  0
   -4.1030   22.9100  -29.6260 N   0  0  0  0  0  0  0  0  0  0  0  0
   -3.2540   23.9490  -29.4690 C   0  0  0  0  0  0  0  0  0  0  0  0
   -2.1970   23.9970  -28.4310 C   0  0  0  0  0  0  0  0  0  0  0  0
   -2.1440   22.9970  -27.4410 C   0  0  0  0  0  0  0  0  0  0  0  0
   -1.1540   23.0260  -26.4540 C   0  0  0  0  0  0  0  0  0  0  0  0
   -0.2080   24.0520  -26.4410 C   0  0  0  0  0  0  0  0  0  0  0  0
   -0.2490   25.0500  -27.4160 C   0  0  0  0  0  0  0  0  0  0  0  0
   -1.2350   25.0300  -28.4080 C   0  0  0  0  0  0  0  0  0  0  0  0
   -1.2430   26.0170  -29.3390 F   0  0  0  0  0  0  0  0  0  0  0  0
   -3.4810   24.9300  -30.3660 N   0  0  0  0  0  0  0  0  0  0  0  0
   -4.4740   24.5080  -31.0850 O   0  0  0  0  0  0  0  0  0  0  0  0
   -5.6880   21.5380  -32.1970 C   0  0  0  0  0  0  0  0  0  0  0  0
   -6.7320   20.7910  -32.7670 C   0  0  0  0  0  0  0  0  0  0  0  0
   -6.4260   19.7170  -33.7740 C   0  0  0  0  0  0  0  0  0  0  0  0
   -9.2410   18.8352  -30.4451 H   0  0  0  0  0  0  0  0  0  0  0  0
   -8.6064   17.4328  -31.3709 H   0  0  0  0  0  0  0  0  0  0  0  0
   -7.7094   18.9891  -31.3709 H   0  0  0  0  0  0  0  0  0  0  0  0
   -9.3145   18.2757  -33.4069 H   0  0  0  0  0  0  0  0  0  0  0  0
  -10.5634   19.0058  -32.3256 H   0  0  0  0  0  0  0  0  0  0  0  0
   -9.3690   22.2720  -31.1557 H   0  0  0  0  0  0  0  0  0  0  0  0
   -7.5087   23.5884  -30.1565 H   0  0  0  0  0  0  0  0  0  0  0  0
   -2.8875   22.1864  -27.4441 H   0  0  0  0  0  0  0  0  0  0  0  0
   -1.1207   22.2388  -25.6864 H   0  0  0  0  0  0  0  0  0  0  0  0
    0.5693   24.0742  -25.6630 H   0  0  0  0  0  0  0  0  0  0  0  0
    0.4985   25.8570  -27.4042 H   0  0  0  0  0  0  0  0  0  0  0  0
   -4.6479   21.3310  -32.4893 H   0  0  0  0  0  0  0  0  0  0  0  0
   -6.1611   18.7872  -33.2493 H   0  0  0  0  0  0  0  0  0  0  0  0
   -7.3103   19.5430  -34.4046 H   0  0  0  0  0  0  0  0  0  0  0  0
   -5.5828   20.0352  -34.4046 H   0  0  0  0  0  0  0  0  0  0  0  0
  1  2  1  0
  2  3  1  0
  3  4  1  0
  4  5  2  0
  5  6  1  0
  6  7  2  0
  7  8  1  0
  8  9  2  0
  9 10  1  0
 10 11  1  0
 11 12  2  0
 12 13  1  0
 13 14  2  0
 14 15  1  0
 15 16  2  0
 16 17  1  0
 10 18  2  0
 18 19  1  0
  7 20  1  0
 20 21  2  0
 21 22  1  0
 21  4  1  0
 19  8  1  0
 16 11  1  0
  1 23  1  0
  1 24  1  0
  1 25  1  0
  2 26  1  0
  2 27  1  0
  5 28  1  0
  6 29  1  0
 12 30  1  0
 13 31  1  0
 14 32  1  0
 15 33  1  0
 20 34  1  0
 22 35  1  0
 22 36  1  0
 22 37  1  0
M  END
>  <UniqueID>  (28) 
26

>  <SMILES>  (28) 
CCOc1ccc(-c2nc(-c3ccccc3F)no2)cc1C

>  <Energy>  (28) 
71.9422678509193

>  <Genealogy>  (28) 
CCOc1ccc(-c2nc(-c3ccccc3F)no2)cc1C (3D coordinates assigned)
CCOc1ccc(-c2nc(-c3ccccc3F)no2)cc1C (optimized conformer: 71.9422678509193 kcal/mol)

>  <smiles>  (28) 
CCOc1ccc(-c2nc(-c3ccccc3F)no2)cc1C

>  <score_type>  (28) 
oracle

>  <origin>  (28) 
adgpu

>  <m_score__min__energy>  (28) 
-8.25

>  <m_primary>  (28) 
energy

$$$$
28:0
     RDKit          3D

 46 48  0  0  0  0  0  0  0  0999 V2000
   -5.0904   27.0067  -30.5263 H   0  0  0  0  0  0  0  0  0  0  0  0
   -5.0290   25.9100  -30.4680 C   0  0  0  0  0  0  0  0  0  0  0  0
   -3.8240   25.3050  -30.3720 N   0  0  0  0  0  0  0  0  0  0  0  0
   -3.6990   23.9570  -30.2880 C   0  0  0  0  0  0  0  0  0  0  0  0
   -2.4120   23.4180  -30.1800 C   0  0  0  0  0  0  0  0  0  0  0  0
   -1.5384   24.0864  -30.1837 H   0  0  0  0  0  0  0  0  0  0  0  0
   -2.2290   22.0440  -30.0680 C   0  0  0  0  0  0  0  0  0  0  0  0
   -0.6130   21.3760  -29.9320 Cl  0  0  0  0  0  0  0  0  0  0  0  0
   -3.3360   21.2010  -30.0530 C   0  0  0  0  0  0  0  0  0  0  0  0
   -3.1927   20.1146  -29.9568 H   0  0  0  0  0  0  0  0  0  0  0  0
   -4.6270   21.7220  -30.1590 C   0  0  0  0  0  0  0  0  0  0  0  0
   -5.4876   21.0374  -30.1333 H   0  0  0  0  0  0  0  0  0  0  0  0
   -4.8520   23.1140  -30.2990 C   0  0  0  0  0  0  0  0  0  0  0  0
   -6.1410   23.7470  -30.4290 C   0  0  0  0  0  0  0  0  0  0  0  0
   -7.3080   23.1560  -30.5120 N   0  0  0  0  0  0  0  0  0  0  0  0
   -7.7660   21.7710  -30.5470 C   0  0  0  0  0  0  0  0  0  0  0  0
   -8.1140   21.4818  -29.5444 H   0  0  0  0  0  0  0  0  0  0  0  0
   -6.9278   21.1326  -30.8630 H   0  0  0  0  0  0  0  0  0  0  0  0
   -8.9190   21.5970  -31.5490 C   0  0  0  0  0  0  0  0  0  0  0  0
   -8.6840   22.1600  -32.4643 H   0  0  0  0  0  0  0  0  0  0  0  0
   -9.8404   21.9734  -31.0806 H   0  0  0  0  0  0  0  0  0  0  0  0
   -9.1350   20.1260  -31.9130 C   0  0  0  0  0  0  0  0  0  0  0  0
  -10.2008   19.9578  -32.1268 H   0  0  0  0  0  0  0  0  0  0  0  0
   -8.8165   19.4977  -31.0681 H   0  0  0  0  0  0  0  0  0  0  0  0
   -8.3430   19.7730  -33.0950 N   0  0  0  0  0  0  0  0  0  0  0  0
   -8.9590   19.2430  -33.7550 H   0  0  0  0  0  0  0  0  0  0  0  0
   -7.0460   18.7100  -32.6420 S   0  0  0  0  0  0  0  0  0  0  0  0
   -7.1860   18.3380  -31.1910 O   0  0  0  0  0  0  0  0  0  0  0  0
   -7.1100   17.4630  -33.4780 O   0  0  0  0  0  0  0  0  0  0  0  0
   -5.5000   19.5070  -32.9190 C   0  0  0  0  0  0  0  0  0  0  0  0
   -4.3230   18.7500  -32.9560 C   0  0  0  0  0  0  0  0  0  0  0  0
   -4.3669   17.6611  -32.8067 H   0  0  0  0  0  0  0  0  0  0  0  0
   -3.0920   19.3730  -33.1820 C   0  0  0  0  0  0  0  0  0  0  0  0
   -2.1714   18.7718  -33.2139 H   0  0  0  0  0  0  0  0  0  0  0  0
   -3.0260   20.7670  -33.3690 C   0  0  0  0  0  0  0  0  0  0  0  0
   -1.8160   21.4390  -33.6010 O   0  0  0  0  0  0  0  0  0  0  0  0
   -0.5430   20.8030  -33.6620 C   0  0  0  0  0  0  0  0  0  0  0  0
   -0.1756   20.6194  -32.6416 H   0  0  0  0  0  0  0  0  0  0  0  0
   -0.6366   19.8457  -34.1958 H   0  0  0  0  0  0  0  0  0  0  0  0
    0.1663   21.4527  -34.1958 H   0  0  0  0  0  0  0  0  0  0  0  0
   -4.2060   21.5190  -33.3240 C   0  0  0  0  0  0  0  0  0  0  0  0
   -4.1645   22.6089  -33.4667 H   0  0  0  0  0  0  0  0  0  0  0  0
   -5.4370   20.8950  -33.0990 C   0  0  0  0  0  0  0  0  0  0  0  0
   -6.3581   21.4953  -33.0632 H   0  0  0  0  0  0  0  0  0  0  0  0
   -6.1890   25.1480  -30.4930 C   0  0  0  0  0  0  0  0  0  0  0  0
   -7.1642   25.6519  -30.5643 H   0  0  0  0  0  0  0  0  0  0  0  0
  1  2  1  0
  2  3  1  0
  3  4  1  0
  4  5  2  0
  5  6  1  0
  5  7  1  0
  7  8  1  0
  7  9  2  0
  9 10  1  0
  9 11  1  0
 11 12  1  0
 11 13  2  0
 13 14  1  0
 14 15  2  0
 15 16  1  0
 16 17  1  0
 16 18  1  0
 16 19  1  0
 19 20  1  0
 19 21  1  0
 19 22  1  0
 22 23  1  0
 22 24  1  0
 22 25  1  0
 25 26  1  0
 25 27  1  0
 27 28  2  0
 27 29  2  0
 27 30  1  0
 30 31  2  0
 31 32  1  0
 31 33  1  0
 33 34  1  0
 33 35  2  0
 35 36  1  0
 36 37  1  0
 37 38  1  0
 37 39  1  0
 37 40  1  0
 35 41  1  0
 41 42  1  0
 41 43  2  0
 43 44  1  0
 14 45  1  0
 45 46  1  0
 45  2  2  0
 13  4  1  0
 43 30  1  0
M  CHG  1   3  -1
M  END
>  <UniqueID>  (29) 
27

>  <SMILES>  (29) 
COc1ccc(S(=O)(=O)NCCC/N=c2/cc[n-]c3cc(Cl)ccc23)cc1

>  <Energy>  (29) 
61.38236764310856

>  <Genealogy>  (29) 
COc1ccc(S(=O)(=O)NCCCN=c2cc[n-]c3cc(Cl)ccc23)cc1 (protonated)
COc1ccc(S(=O)(=O)NCCC/N=c2/cc[n-]c3cc(Cl)ccc23)cc1 (cis-trans isomerization)
COc1ccc(S(=O)(=O)NCCC/N=c2/cc[n-]c3cc(Cl)ccc23)cc1 (3D coordinates assigned)
COc1ccc(S(=O)(=O)NCCC/N=c2/cc[n-]c3cc(Cl)ccc23)cc1 (optimized conformer: 61.38236764310856 kcal/mol)

>  <smiles>  (29) 
COc1ccc(S(=O)(=O)NCCCN=c2cc[nH]c3cc(Cl)ccc23)cc1

>  <score_type>  (29) 
oracle

>  <origin>  (29) 
adgpu

>  <m_score__min__energy>  (29) 
-10.42

>  <m_primary>  (29) 
energy

$$$$
29:0
     RDKit          3D

 23 24  0  0  0  0  0  0  0  0999 V2000
   -5.2280   18.9440  -33.8610 C   0  0  0  0  0  0  0  0  0  0  0  0
   -6.4690   19.6700  -34.1100 N   0  0  0  0  0  0  0  0  0  0  0  0
   -7.1630   20.4280  -33.1020 C   0  0  0  0  0  0  0  0  0  0  0  0
   -8.4480   20.0670  -32.6590 C   0  0  0  0  0  0  0  0  0  0  0  0
   -9.0950   20.8250  -31.6830 C   0  0  0  0  0  0  0  0  0  0  0  0
   -8.4720   21.9470  -31.1330 C   0  0  0  0  0  0  0  0  0  0  0  0
   -7.1830   22.3270  -31.5530 C   0  0  0  0  0  0  0  0  0  0  0  0
   -6.5010   23.5190  -30.9850 C   0  0  0  0  0  0  0  0  0  0  0  0
   -7.1260   24.4810  -30.1810 C   0  0  0  0  0  0  0  0  0  0  0  0
   -5.9860   25.6430  -29.7530 S   0  0  0  0  0  0  0  0  0  0  0  0
   -4.7580   24.8780  -30.5980 C   0  0  0  0  0  0  0  0  0  0  0  0
   -3.5720   25.2970  -30.6630 O   0  0  0  0  0  0  0  0  0  0  0  0
   -5.1760   23.7520  -31.2070 N   0  0  0  0  0  0  0  0  0  0  0  0
   -6.5420   21.5590  -32.5440 C   0  0  0  0  0  0  0  0  0  0  0  0
   -5.0689   18.8509  -32.7766 H   0  0  0  0  0  0  0  0  0  0  0  0
   -5.2933   17.9417  -34.3094 H   0  0  0  0  0  0  0  0  0  0  0  0
   -4.3863   19.4921  -34.3094 H   0  0  0  0  0  0  0  0  0  0  0  0
   -6.8670   19.6300  -35.0760 H   0  0  0  0  0  0  0  0  0  0  0  0
   -8.9452   19.1827  -33.0842 H   0  0  0  0  0  0  0  0  0  0  0  0
  -10.1014   20.5373  -31.3448 H   0  0  0  0  0  0  0  0  0  0  0  0
   -8.9924   22.5387  -30.3655 H   0  0  0  0  0  0  0  0  0  0  0  0
   -8.1840   24.4776  -29.8800 H   0  0  0  0  0  0  0  0  0  0  0  0
   -5.5380   21.8490  -32.8874 H   0  0  0  0  0  0  0  0  0  0  0  0
  1  2  1  0
  2  3  1  0
  3  4  2  0
  4  5  1  0
  5  6  2  0
  6  7  1  0
  7  8  1  0
  8  9  2  0
  9 10  1  0
 10 11  1  0
 11 12  2  0
 11 13  1  0
  7 14  2  0
 14  3  1  0
 13  8  1  0
  1 15  1  0
  1 16  1  0
  1 17  1  0
  2 18  1  0
  4 19  1  0
  5 20  1  0
  6 21  1  0
  9 22  1  0
 14 23  1  0
M  CHG  1  13  -1
M  END
>  <UniqueID>  (30) 
28

>  <SMILES>  (30) 
CNc1cccc(-c2csc(=O)[n-]2)c1

>  <Energy>  (30) 
54.92867541953399

>  <Genealogy>  (30) 
CNc1cccc(-c2csc(=O)[n-]2)c1 (protonated)
CNc1cccc(-c2csc(=O)[n-]2)c1 (3D coordinates assigned)
CNc1cccc(-c2csc(=O)[n-]2)c1 (optimized conformer: 54.92867541953399 kcal/mol)

>  <smiles>  (30) 
CNc1cccc(-c2csc(=O)[nH]2)c1

>  <score_type>  (30) 
oracle

>  <origin>  (30) 
adgpu

>  <m_score__min__energy>  (30) 
-7.7699999999999996

>  <m_primary>  (30) 
energy

$$$$
30:0
     RDKit          3D

 49 51  0  0  0  0  0  0  0  0999 V2000
   -8.3450   18.2360  -31.9830 C   0  0  0  0  0  0  0  0  0  0  0  0
   -8.4990   19.5770  -31.2740 C   0  0  0  0  0  0  0  0  0  0  0  0
   -7.8690   20.6490  -32.0620 N   0  0  0  0  0  0  0  0  0  0  0  0
   -7.2210   20.3320  -33.3470 C   0  0  0  0  0  0  0  0  0  0  0  0
   -5.7470   20.0950  -33.1610 C   0  0  0  0  0  0  0  0  0  0  0  0
   -4.8610   21.1850  -33.1230 C   0  0  0  0  0  0  0  0  0  0  0  0
   -3.4930   20.9730  -32.9310 C   0  0  0  0  0  0  0  0  0  0  0  0
   -2.9990   19.6750  -32.7760 C   0  0  0  0  0  0  0  0  0  0  0  0
   -3.8740   18.5850  -32.8130 C   0  0  0  0  0  0  0  0  0  0  0  0
   -5.2440   18.7910  -33.0020 C   0  0  0  0  0  0  0  0  0  0  0  0
   -8.0040   22.0190  -31.6200 C   0  0  0  0  0  0  0  0  0  0  0  0
   -9.1460   22.5550  -31.5950 O   0  0  0  0  0  0  0  0  0  0  0  0
   -6.8380   22.8190  -31.2000 C   0  0  0  0  0  0  0  0  0  0  0  0
   -5.8370   22.2540  -30.3950 C   0  0  0  0  0  0  0  0  0  0  0  0
   -4.7260   23.0130  -30.0140 C   0  0  0  0  0  0  0  0  0  0  0  0
   -4.6090   24.3540  -30.4220 C   0  0  0  0  0  0  0  0  0  0  0  0
   -3.4830   25.1650  -30.0600 N   0  0  0  0  0  0  0  0  0  0  0  0
   -2.2780   24.7340  -28.8970 S   0  0  0  0  0  0  0  0  0  0  0  0
   -2.8390   24.9080  -27.5140 O   0  0  0  0  0  0  0  0  0  0  0  0
   -1.0900   25.6400  -29.0570 O   0  0  0  0  0  0  0  0  0  0  0  0
   -1.7660   23.0690  -29.1610 C   0  0  0  0  0  0  0  0  0  0  0  0
   -1.8820   22.1320  -28.1250 C   0  0  0  0  0  0  0  0  0  0  0  0
   -1.4870   20.8070  -28.3310 C   0  0  0  0  0  0  0  0  0  0  0  0
   -0.9720   20.4120  -29.5690 C   0  0  0  0  0  0  0  0  0  0  0  0
   -0.8420   21.3470  -30.6000 C   0  0  0  0  0  0  0  0  0  0  0  0
   -1.2380   22.6730  -30.4000 C   0  0  0  0  0  0  0  0  0  0  0  0
   -5.6200   24.9220  -31.2060 C   0  0  0  0  0  0  0  0  0  0  0  0
   -6.7290   24.1630  -31.5930 C   0  0  0  0  0  0  0  0  0  0  0  0
   -8.2529   17.4344  -31.2354 H   0  0  0  0  0  0  0  0  0  0  0  0
   -9.2278   18.0506  -32.6126 H   0  0  0  0  0  0  0  0  0  0  0  0
   -7.4432   18.2555  -32.6126 H   0  0  0  0  0  0  0  0  0  0  0  0
   -9.5688   19.8000  -31.1487 H   0  0  0  0  0  0  0  0  0  0  0  0
   -8.0074   19.5200  -30.2916 H   0  0  0  0  0  0  0  0  0  0  0  0
   -7.6810   19.4261  -33.7685 H   0  0  0  0  0  0  0  0  0  0  0  0
   -7.3566   21.1846  -34.0287 H   0  0  0  0  0  0  0  0  0  0  0  0
   -5.2454   22.2084  -33.2448 H   0  0  0  0  0  0  0  0  0  0  0  0
   -2.8036   21.8297  -32.9018 H   0  0  0  0  0  0  0  0  0  0  0  0
   -1.9219   19.5108  -32.6249 H   0  0  0  0  0  0  0  0  0  0  0  0
   -3.4838   17.5635  -32.6932 H   0  0  0  0  0  0  0  0  0  0  0  0
   -5.9300   17.9314  -33.0264 H   0  0  0  0  0  0  0  0  0  0  0  0
   -5.9267   21.2094  -30.0622 H   0  0  0  0  0  0  0  0  0  0  0  0
   -3.9400   22.5593  -29.3924 H   0  0  0  0  0  0  0  0  0  0  0  0
   -2.2844   22.4397  -27.1486 H   0  0  0  0  0  0  0  0  0  0  0  0
   -1.5817   20.0734  -27.5169 H   0  0  0  0  0  0  0  0  0  0  0  0
   -0.6695   19.3670  -29.7317 H   0  0  0  0  0  0  0  0  0  0  0  0
   -0.4271   21.0388  -31.5710 H   0  0  0  0  0  0  0  0  0  0  0  0
   -1.1358   23.4061  -31.2137 H   0  0  0  0  0  0  0  0  0  0  0  0
   -5.5416   25.9733  -31.5201 H   0  0  0  0  0  0  0  0  0  0  0  0
   -7.5187   24.6202  -32.2073 H   0  0  0  0  0  0  0  0  0  0  0  0
  1  2  1  0
  2  3  1  0
  3  4  1  0
  4  5  1  0
  5  6  2  0
  6  7  1  0
  7  8  2  0
  8  9  1  0
  9 10  2  0
  3 11  1  0
 11 12  2  0
 11 13  1  0
 13 14  2  0
 14 15  1  0
 15 16  2  0
 16 17  1  0
 17 18  1  0
 18 19  2  0
 18 20  2  0
 18 21  1  0
 21 22  2  0
 22 23  1  0
 23 24  2  0
 24 25  1  0
 25 26  2  0
 16 27  1  0
 27 28  2  0
 10  5  1  0
 28 13  1  0
 26 21  1  0
  1 29  1  0
  1 30  1  0
  1 31  1  0
  2 32  1  0
  2 33  1  0
  4 34  1  0
  4 35  1  0
  6 36  1  0
  7 37  1  0
  8 38  1  0
  9 39  1  0
 10 40  1  0
 14 41  1  0
 15 42  1  0
 22 43  1  0
 23 44  1  0
 24 45  1  0
 25 46  1  0
 26 47  1  0
 27 48  1  0
 28 49  1  0
M  CHG  1  17  -1
M  END
>  <UniqueID>  (31) 
29

>  <SMILES>  (31) 
CCN(Cc1ccccc1)C(=O)c1ccc([N-]S(=O)(=O)c2ccccc2)cc1

>  <Energy>  (31) 
53.40925792557521

>  <Genealogy>  (31) 
CCN(Cc1ccccc1)C(=O)c1ccc([N-]S(=O)(=O)c2ccccc2)cc1 (protonated)
CCN(Cc1ccccc1)C(=O)c1ccc([N-]S(=O)(=O)c2ccccc2)cc1 (3D coordinates assigned)
CCN(Cc1ccccc1)C(=O)c1ccc([N-]S(=O)(=O)c2ccccc2)cc1 (optimized conformer: 53.40925792557521 kcal/mol)

>  <smiles>  (31) 
CCN(Cc1ccccc1)C(=O)c1ccc(NS(=O)(=O)c2ccccc2)cc1

>  <score_type>  (31) 
oracle

>  <origin>  (31) 
adgpu

>  <m_score__min__energy>  (31) 
-11.18

>  <m_primary>  (31) 
energy

$$$$
31:0
     RDKit          3D

 29 30  0  0  0  0  0  0  0  0999 V2000
    1.2380   24.4860  -26.5720 C   0  0  0  0  0  0  0  0  0  0  0  0
    0.6300   24.5390  -27.8580 O   0  0  0  0  0  0  0  0  0  0  0  0
   -0.7240   24.2680  -28.1060 C   0  0  0  0  0  0  0  0  0  0  0  0
   -1.3830   23.3570  -27.2730 C   0  0  0  0  0  0  0  0  0  0  0  0
   -2.7320   23.0560  -27.4790 C   0  0  0  0  0  0  0  0  0  0  0  0
   -3.4310   23.6560  -28.5280 C   0  0  0  0  0  0  0  0  0  0  0  0
   -2.7860   24.5550  -29.3850 C   0  0  0  0  0  0  0  0  0  0  0  0
   -3.5370   25.1580  -30.4500 N   0  0  0  0  0  0  0  0  0  0  0  0
   -4.9640   25.1380  -30.6010 C   0  0  0  0  0  0  0  0  0  0  0  0
   -5.6210   26.1520  -30.2450 O   0  0  0  0  0  0  0  0  0  0  0  0
   -5.6850   23.9490  -31.1150 C   0  0  0  0  0  0  0  0  0  0  0  0
   -5.0050   22.9450  -31.8280 C   0  0  0  0  0  0  0  0  0  0  0  0
   -5.6980   21.8330  -32.3160 C   0  0  0  0  0  0  0  0  0  0  0  0
   -7.0700   21.7060  -32.0860 C   0  0  0  0  0  0  0  0  0  0  0  0
   -7.7510   22.6880  -31.3640 C   0  0  0  0  0  0  0  0  0  0  0  0
   -7.0630   23.8030  -30.8740 C   0  0  0  0  0  0  0  0  0  0  0  0
   -1.4370   24.8800  -29.1560 C   0  0  0  0  0  0  0  0  0  0  0  0
    0.4612   24.5537  -25.7961 H   0  0  0  0  0  0  0  0  0  0  0  0
    1.7833   23.5369  -26.4631 H   0  0  0  0  0  0  0  0  0  0  0  0
    1.9393   25.3264  -26.4631 H   0  0  0  0  0  0  0  0  0  0  0  0
   -0.8353   22.8744  -26.4502 H   0  0  0  0  0  0  0  0  0  0  0  0
   -3.2439   22.3452  -26.8136 H   0  0  0  0  0  0  0  0  0  0  0  0
   -4.4945   23.4209  -28.6818 H   0  0  0  0  0  0  0  0  0  0  0  0
   -3.9227   23.0352  -32.0025 H   0  0  0  0  0  0  0  0  0  0  0  0
   -5.1620   21.0569  -32.8820 H   0  0  0  0  0  0  0  0  0  0  0  0
   -7.6140   20.8321  -32.4738 H   0  0  0  0  0  0  0  0  0  0  0  0
   -8.8306   22.5847  -31.1802 H   0  0  0  0  0  0  0  0  0  0  0  0
   -7.6022   24.5692  -30.2975 H   0  0  0  0  0  0  0  0  0  0  0  0
   -0.9353   25.6167  -29.8007 H   0  0  0  0  0  0  0  0  0  0  0  0
  1  2  1  0
  2  3  1  0
  3  4  2  0
  4  5  1  0
  5  6  2  0
  6  7  1  0
  7  8  1  0
  8  9  1  0
  9 10  2  0
  9 11  1  0
 11 12  2  0
 12 13  1  0
 13 14  2  0
 14 15  1  0
 15 16  2  0
  7 17  2  0
 17  3  1  0
 16 11  1  0
  1 18  1  0
  1 19  1  0
  1 20  1  0
  4 21  1  0
  5 22  1  0
  6 23  1  0
 12 24  1  0
 13 25  1  0
 14 26  1  0
 15 27  1  0
 16 28  1  0
 17 29  1  0
M  CHG  1   8  -1
M  END
>  <UniqueID>  (32) 
30

>  <SMILES>  (32) 
COc1cccc([N-]C(=O)c2ccccc2)c1

>  <Energy>  (32) 
35.40600985800711

>  <Genealogy>  (32) 
COc1cccc([N-]C(=O)c2ccccc2)c1 (protonated)
COc1cccc([N-]C(=O)c2ccccc2)c1 (3D coordinates assigned)
COc1cccc([N-]C(=O)c2ccccc2)c1 (optimized conformer: 35.40600985800711 kcal/mol)

>  <smiles>  (32) 
COc1cccc(NC(=O)c2ccccc2)c1

>  <score_type>  (32) 
oracle

>  <origin>  (32) 
adgpu

>  <m_score__min__energy>  (32) 
-8

>  <m_primary>  (32) 
energy

$$$$
32:0
     RDKit          3D

 74 78  0  0  0  0  0  0  0  0999 V2000
   -2.3050   24.9870  -27.3560 C   0  0  0  0  0  0  0  0  0  0  0  0
   -2.1350   23.9150  -28.4040 C   0  0  0  0  0  0  0  0  0  0  0  0
   -1.3520   22.7890  -28.1070 C   0  0  0  0  0  0  0  0  0  0  0  0
   -1.1050   21.8180  -29.0770 C   0  0  0  0  0  0  0  0  0  0  0  0
   -1.6440   21.9350  -30.3680 C   0  0  0  0  0  0  0  0  0  0  0  0
   -1.3390   20.8990  -31.3830 C   0  0  0  0  0  0  0  0  0  0  0  0
   -0.2240   20.3090  -31.3360 O   0  0  0  0  0  0  0  0  0  0  0  0
   -2.2900   20.5410  -32.4030 N   0  0  0  0  0  0  0  0  0  0  0  0
   -2.1330   19.3700  -33.2120 C   0  0  0  0  0  0  0  0  0  0  0  0
   -3.0790   18.3440  -33.1600 C   0  0  0  0  0  0  0  0  0  0  0  0
   -2.8890   17.1790  -33.8990 C   0  0  0  0  0  0  0  0  0  0  0  0
   -1.7380   16.9980  -34.6900 C   0  0  0  0  0  0  0  0  0  0  0  0
   -1.5550   15.6530  -35.3640 C   0  0  0  0  0  0  0  0  0  0  0  0
   -0.6870   14.7780  -34.5400 N   0  0  0  0  0  0  0  0  0  0  0  0
   -1.0780   13.3540  -34.6180 C   0  0  0  0  0  0  0  0  0  0  0  0
   -2.4370   13.0870  -33.9400 C   0  0  0  0  0  0  0  0  0  0  0  0
   -2.7910   14.1130  -32.9390 N   0  0  0  0  0  0  0  0  0  0  0  0
   -3.8050   13.5820  -32.0050 C   0  0  0  0  0  0  0  0  0  0  0  0
   -1.6070   14.5760  -32.1930 C   0  0  0  0  0  0  0  0  0  0  0  0
   -0.5840   15.2450  -33.1350 C   0  0  0  0  0  0  0  0  0  0  0  0
   -0.7640   18.0420  -34.7460 C   0  0  0  0  0  0  0  0  0  0  0  0
    0.5460   17.8770  -35.5040 C   0  0  0  0  0  0  0  0  0  0  0  0
    1.3480   16.9550  -34.8520 F   0  0  0  0  0  0  0  0  0  0  0  0
    1.2500   19.0630  -35.5770 F   0  0  0  0  0  0  0  0  0  0  0  0
    0.2940   17.4450  -36.7920 F   0  0  0  0  0  0  0  0  0  0  0  0
   -1.0040   19.2300  -34.0220 C   0  0  0  0  0  0  0  0  0  0  0  0
   -2.4330   23.0610  -30.6690 C   0  0  0  0  0  0  0  0  0  0  0  0
   -2.7200   24.0280  -29.6890 C   0  0  0  0  0  0  0  0  0  0  0  0
   -3.5370   25.1520  -30.0460 N   0  0  0  0  0  0  0  0  0  0  0  0
   -4.8760   25.0100  -30.5370 C   0  0  0  0  0  0  0  0  0  0  0  0
   -5.5550   26.0390  -30.7960 O   0  0  0  0  0  0  0  0  0  0  0  0
   -5.4420   23.6700  -30.8240 C   0  0  0  0  0  0  0  0  0  0  0  0
   -6.5640   23.2040  -30.1230 C   0  0  0  0  0  0  0  0  0  0  0  0
   -7.1460   22.0330  -30.4720 N   0  0  0  0  0  0  0  0  0  0  0  0
   -6.6500   21.2680  -31.4780 C   0  0  0  0  0  0  0  0  0  0  0  0
   -7.2810   20.1830  -31.8190 N   0  0  0  0  0  0  0  0  0  0  0  0
   -6.8960   19.2390  -32.8280 C   0  0  0  0  0  0  0  0  0  0  0  0
   -6.3840   19.6500  -34.0800 C   0  0  0  0  0  0  0  0  0  0  0  0
   -5.9230   18.7000  -34.9950 C   0  0  0  0  0  0  0  0  0  0  0  0
   -5.9660   17.3400  -34.6750 C   0  0  0  0  0  0  0  0  0  0  0  0
   -6.4680   16.9260  -33.4330 C   0  0  0  0  0  0  0  0  0  0  0  0
   -6.5040   15.6100  -33.1130 F   0  0  0  0  0  0  0  0  0  0  0  0
   -6.9060   17.8760  -32.5060 C   0  0  0  0  0  0  0  0  0  0  0  0
   -5.5470   21.6860  -32.1580 N   0  0  0  0  0  0  0  0  0  0  0  0
   -4.9310   22.8570  -31.8450 C   0  0  0  0  0  0  0  0  0  0  0  0
   -2.2335   24.5360  -26.3552 H   0  0  0  0  0  0  0  0  0  0  0  0
   -1.5157   25.7439  -27.4743 H   0  0  0  0  0  0  0  0  0  0  0  0
   -3.2898   25.4626  -27.4743 H   0  0  0  0  0  0  0  0  0  0  0  0
   -0.9287   22.6710  -27.0986 H   0  0  0  0  0  0  0  0  0  0  0  0
   -0.4793   20.9485  -28.8272 H   0  0  0  0  0  0  0  0  0  0  0  0
   -3.1410   21.1300  -32.5700 H   0  0  0  0  0  0  0  0  0  0  0  0
   -3.9764   18.4563  -32.5338 H   0  0  0  0  0  0  0  0  0  0  0  0
   -3.6511   16.3865  -33.8643 H   0  0  0  0  0  0  0  0  0  0  0  0
   -2.5371   15.1741  -35.4908 H   0  0  0  0  0  0  0  0  0  0  0  0
   -1.0808   15.8060  -36.3447 H   0  0  0  0  0  0  0  0  0  0  0  0
   -1.1465   13.0626  -35.6765 H   0  0  0  0  0  0  0  0  0  0  0  0
   -0.3145   12.7640  -34.0898 H   0  0  0  0  0  0  0  0  0  0  0  0
   -3.2179   13.0680  -34.7145 H   0  0  0  0  0  0  0  0  0  0  0  0
   -2.3596   12.1245  -33.4131 H   0  0  0  0  0  0  0  0  0  0  0  0
   -3.4758   13.7544  -30.9697 H   0  0  0  0  0  0  0  0  0  0  0  0
   -4.7638   14.0938  -32.1749 H   0  0  0  0  0  0  0  0  0  0  0  0
   -3.9304   12.5025  -32.1749 H   0  0  0  0  0  0  0  0  0  0  0  0
   -1.9240   15.3039  -31.4316 H   0  0  0  0  0  0  0  0  0  0  0  0
   -1.1294   13.7053  -31.7200 H   0  0  0  0  0  0  0  0  0  0  0  0
   -0.7502   16.3322  -33.1153 H   0  0  0  0  0  0  0  0  0  0  0  0
    0.4186   14.9724  -32.7737 H   0  0  0  0  0  0  0  0  0  0  0  0
   -0.2878   20.0615  -34.0974 H   0  0  0  0  0  0  0  0  0  0  0  0
   -2.8314   23.1866  -31.6866 H   0  0  0  0  0  0  0  0  0  0  0  0
   -6.9719   23.7918  -29.2875 H   0  0  0  0  0  0  0  0  0  0  0  0
   -6.3485   20.7196  -34.3343 H   0  0  0  0  0  0  0  0  0  0  0  0
   -5.5256   19.0228  -35.9686 H   0  0  0  0  0  0  0  0  0  0  0  0
   -5.6056   16.5937  -35.3983 H   0  0  0  0  0  0  0  0  0  0  0  0
   -7.2610   17.5509  -31.5169 H   0  0  0  0  0  0  0  0  0  0  0  0
   -4.0297   23.1670  -32.3942 H   0  0  0  0  0  0  0  0  0  0  0  0
  1  2  1  0
  2  3  2  0
  3  4  1  0
  4  5  2  0
  5  6  1  0
  6  7  2  0
  6  8  1  0
  8  9  1  0
  9 10  2  0
 10 11  1  0
 11 12  2  0
 12 13  1  0
 13 14  1  0
 14 15  1  0
 15 16  1  0
 16 17  1  0
 17 18  1  0
 17 19  1  0
 19 20  1  0
 12 21  1  0
 21 22  1  0
 22 23  1  0
 22 24  1  0
 22 25  1  0
 21 26  2  0
  5 27  1  0
 27 28  2  0
 28 29  1  0
 29 30  1  0
 30 31  2  0
 30 32  1  0
 32 33  1  0
 33 34  2  0
 34 35  1  0
 35 36  2  3
 36 37  1  0
 37 38  2  0
 38 39  1  0
 39 40  2  0
 40 41  1  0
 41 42  1  0
 41 43  2  0
 35 44  1  0
 44 45  1  0
 28  2  1  0
 45 32  2  0
 26  9  1  0
 43 37  1  0
 20 14  1  0
  1 46  1  0
  1 47  1  0
  1 48  1  0
  3 49  1  0
  4 50  1  0
  8 51  1  0
 10 52  1  0
 11 53  1  0
 13 54  1  0
 13 55  1  0
 15 56  1  0
 15 57  1  0
 16 58  1  0
 16 59  1  0
 18 60  1  0
 18 61  1  0
 18 62  1  0
 19 63  1  0
 19 64  1  0
 20 65  1  0
 20 66  1  0
 26 67  1  0
 27 68  1  0
 33 69  1  0
 38 70  1  0
 39 71  1  0
 40 72  1  0
 43 73  1  0
 45 74  1  0
M  CHG  2  29  -1  44  -1
M  END
>  <UniqueID>  (33) 
31

>  <SMILES>  (33) 
Cc1ccc(C(=O)Nc2ccc(CN3CCN(C)CC3)c(C(F)(F)F)c2)cc1[N-]C(=O)c1cnc(=Nc2cccc(F)c2)[n-]c1

>  <Energy>  (33) 
120.10440470335186

>  <Genealogy>  (33) 
Cc1ccc(C(=O)Nc2ccc(CN3CCN(C)CC3)c(C(F)(F)F)c2)cc1[N-]C(=O)c1cnc(=Nc2cccc(F)c2)[n-]c1 (protonated)
Cc1ccc(C(=O)Nc2ccc(CN3CCN(C)CC3)c(C(F)(F)F)c2)cc1[N-]C(=O)c1cnc(=Nc2cccc(F)c2)[n-]c1 (3D coordinates assigned)
Cc1ccc(C(=O)Nc2ccc(CN3CCN(C)CC3)c(C(F)(F)F)c2)cc1[N-]C(=O)c1cnc(=Nc2cccc(F)c2)[n-]c1 (nonaromatic ring conformer: 120.10440470335186 kcal/mol)

>  <smiles>  (33) 
Cc1ccc(C(=O)Nc2ccc(CN3CCN(C)CC3)c(C(F)(F)F)c2)cc1NC(=O)c1cnc(=Nc2cccc(F)c2)[nH]c1

>  <score_type>  (33) 
oracle

>  <origin>  (33) 
adgpu

>  <m_score__min__energy>  (33) 
-11.43

>  <m_primary>  (33) 
energy

$$$$
33:0
     RDKit          3D

 44 47  0  0  0  0  0  0  0  0999 V2000
   -2.3507   15.3922  -34.9178 H   0  0  0  0  0  0  0  0  0  0  0  0
   -3.2500   15.9980  -34.7330 C   0  0  0  0  0  0  0  0  0  0  0  0
   -3.8380   16.6690  -35.7580 N   0  0  0  0  0  0  0  0  0  0  0  0
   -4.9490   17.4280  -35.5680 C   0  0  0  0  0  0  0  0  0  0  0  0
   -5.4021   17.9595  -36.4178 H   0  0  0  0  0  0  0  0  0  0  0  0
   -5.5170   17.5350  -34.2970 C   0  0  0  0  0  0  0  0  0  0  0  0
   -6.4122   18.1547  -34.1401 H   0  0  0  0  0  0  0  0  0  0  0  0
   -4.9370   16.8460  -33.2220 C   0  0  0  0  0  0  0  0  0  0  0  0
   -5.5240   16.9450  -31.8380 C   0  0  0  0  0  0  0  0  0  0  0  0
   -4.9301   17.6550  -31.2437 H   0  0  0  0  0  0  0  0  0  0  0  0
   -5.5041   15.9483  -31.3729 H   0  0  0  0  0  0  0  0  0  0  0  0
   -6.9120   17.4100  -31.8970 N   0  0  0  0  0  0  0  0  0  0  0  0
   -7.6550   16.6770  -31.9460 H   0  0  0  0  0  0  0  0  0  0  0  0
   -7.3070   18.7950  -31.9590 C   0  0  0  0  0  0  0  0  0  0  0  0
   -8.6220   19.1750  -32.2690 C   0  0  0  0  0  0  0  0  0  0  0  0
   -9.3665   18.4086  -32.5304 H   0  0  0  0  0  0  0  0  0  0  0  0
   -8.9880   20.5180  -32.2470 C   0  0  0  0  0  0  0  0  0  0  0  0
  -10.0306   20.8021  -32.4528 H   0  0  0  0  0  0  0  0  0  0  0  0
   -8.0400   21.5120  -31.9650 C   0  0  0  0  0  0  0  0  0  0  0  0
   -6.6770   21.1630  -31.7750 C   0  0  0  0  0  0  0  0  0  0  0  0
   -6.3540   19.7890  -31.6920 C   0  0  0  0  0  0  0  0  0  0  0  0
   -5.3324   19.4929  -31.4117 H   0  0  0  0  0  0  0  0  0  0  0  0
   -5.7300   22.2160  -31.5620 C   0  0  0  0  0  0  0  0  0  0  0  0
   -4.4280   22.0690  -31.6160 N   0  0  0  0  0  0  0  0  0  0  0  0
   -3.6380   20.9950  -32.1460 C   0  0  0  0  0  0  0  0  0  0  0  0
   -3.8400   20.5290  -33.4570 C   0  0  0  0  0  0  0  0  0  0  0  0
   -4.6368   20.9646  -34.0778 H   0  0  0  0  0  0  0  0  0  0  0  0
   -3.0300   19.5130  -33.9730 C   0  0  0  0  0  0  0  0  0  0  0  0
   -3.2051   19.1343  -34.9908 H   0  0  0  0  0  0  0  0  0  0  0  0
   -1.9980   18.9780  -33.1970 C   0  0  0  0  0  0  0  0  0  0  0  0
   -1.2160   17.9920  -33.7070 F   0  0  0  0  0  0  0  0  0  0  0  0
   -1.7680   19.4660  -31.9040 C   0  0  0  0  0  0  0  0  0  0  0  0
   -0.4630   18.8140  -30.9280 Cl  0  0  0  0  0  0  0  0  0  0  0  0
   -2.5790   20.4820  -31.3870 C   0  0  0  0  0  0  0  0  0  0  0  0
   -2.3839   20.8795  -30.3801 H   0  0  0  0  0  0  0  0  0  0  0  0
   -6.2210   23.5160  -31.3240 C   0  0  0  0  0  0  0  0  0  0  0  0
   -5.3300   24.6100  -31.0070 C   0  0  0  0  0  0  0  0  0  0  0  0
   -4.6160   25.4850  -30.7530 N   0  0  0  0  0  0  0  0  0  0  0  0
   -7.5800   23.7890  -31.4800 C   0  0  0  0  0  0  0  0  0  0  0  0
   -7.9541   24.8098  -31.3126 H   0  0  0  0  0  0  0  0  0  0  0  0
   -8.4430   22.8070  -31.8360 N   0  0  0  0  0  0  0  0  0  0  0  0
   -9.4510   23.0600  -31.9660 H   0  0  0  0  0  0  0  0  0  0  0  0
   -3.7850   16.0760  -33.4460 C   0  0  0  0  0  0  0  0  0  0  0  0
   -3.3074   15.5381  -32.6138 H   0  0  0  0  0  0  0  0  0  0  0  0
  1  2  1  0
  2  3  2  0
  3  4  1  0
  4  5  1  0
  4  6  2  0
  6  7  1  0
  6  8  1  0
  8  9  1  0
  9 10  1  0
  9 11  1  0
  9 12  1  0
 12 13  1  0
 12 14  1  0
 14 15  2  0
 15 16  1  0
 15 17  1  0
 17 18  1  0
 17 19  2  0
 19 20  1  0
 20 21  2  0
 21 22  1  0
 20 23  1  0
 23 24  2  0
 24 25  1  0
 25 26  2  0
 26 27  1  0
 26 28  1  0
 28 29  1  0
 28 30  2  0
 30 31  1  0
 30 32  1  0
 32 33  1  0
 32 34  2  0
 34 35  1  0
 23 36  1  0
 36 37  1  0
 37 38  3  0
 36 39  2  0
 39 40  1  0
 39 41  1  0
 41 42  1  0
  8 43  2  0
 43 44  1  0
 43  2  1  0
 21 14  1  0
 34 25  1  0
 41 19  1  0
M  END
>  <UniqueID>  (34) 
32

>  <SMILES>  (34) 
N#Cc1c[nH]c2ccc(NCc3ccncc3)cc2/c1=N\c1ccc(F)c(Cl)c1

>  <Energy>  (34) 
73.13668801733182

>  <Genealogy>  (34) 
N#Cc1c[nH]c2ccc(NCc3ccncc3)cc2/c1=N\c1ccc(F)c(Cl)c1 (cis-trans isomerization)
N#Cc1c[nH]c2ccc(NCc3ccncc3)cc2/c1=N\c1ccc(F)c(Cl)c1 (3D coordinates assigned)
N#Cc1c[nH]c2ccc(NCc3ccncc3)cc2/c1=N\c1ccc(F)c(Cl)c1 (optimized conformer: 73.13668801733182 kcal/mol)

>  <smiles>  (34) 
N#Cc1c[nH]c2ccc(NCc3ccncc3)cc2c1=Nc1ccc(F)c(Cl)c1

>  <score_type>  (34) 
oracle

>  <origin>  (34) 
adgpu

>  <m_score__min__energy>  (34) 
-8.8599999999999994

>  <m_primary>  (34) 
energy

$$$$
34:0
     RDKit          3D

 44 47  0  0  0  0  0  0  0  0999 V2000
   -3.7026   20.8403  -26.9525 H   0  0  0  0  0  0  0  0  0  0  0  0
   -2.9060   21.4040  -27.4600 C   0  0  0  0  0  0  0  0  0  0  0  0
   -1.6450   20.9020  -27.5070 N   0  0  0  0  0  0  0  0  0  0  0  0
   -0.6300   21.5560  -28.1310 C   0  0  0  0  0  0  0  0  0  0  0  0
    0.6840   20.9740  -28.1040 N   0  0  0  0  0  0  0  0  0  0  0  0
    0.9730   19.7050  -28.0400 C   0  0  0  0  0  0  0  0  0  0  0  0
   -0.0030   18.7660  -27.8960 N   0  0  0  0  0  0  0  0  0  0  0  0
    0.2970   17.4450  -27.8060 C   0  0  0  0  0  0  0  0  0  0  0  0
   -0.5077   16.7030  -27.6970 H   0  0  0  0  0  0  0  0  0  0  0  0
    1.6250   17.0320  -27.8520 C   0  0  0  0  0  0  0  0  0  0  0  0
    1.8850   15.9654  -27.7833 H   0  0  0  0  0  0  0  0  0  0  0  0
    2.6180   18.0000  -27.9870 C   0  0  0  0  0  0  0  0  0  0  0  0
    3.6761   17.7014  -28.0216 H   0  0  0  0  0  0  0  0  0  0  0  0
    2.2790   19.3140  -28.0760 N   0  0  0  0  0  0  0  0  0  0  0  0
    3.0380   20.0280  -28.1730 H   0  0  0  0  0  0  0  0  0  0  0  0
   -0.8730   22.8140  -28.7100 C   0  0  0  0  0  0  0  0  0  0  0  0
   -0.0495   23.3761  -29.1747 H   0  0  0  0  0  0  0  0  0  0  0  0
   -2.1700   23.3500  -28.6930 C   0  0  0  0  0  0  0  0  0  0  0  0
   -2.4400   24.6720  -29.3090 C   0  0  0  0  0  0  0  0  0  0  0  0
   -1.7490   25.6670  -28.9620 O   0  0  0  0  0  0  0  0  0  0  0  0
   -3.4990   24.8690  -30.2550 N   0  0  0  0  0  0  0  0  0  0  0  0
   -4.5200   23.9170  -30.5900 C   0  0  0  0  0  0  0  0  0  0  0  0
   -4.2940   23.0270  -31.6460 C   0  0  0  0  0  0  0  0  0  0  0  0
   -3.3483   23.0716  -32.2060 H   0  0  0  0  0  0  0  0  0  0  0  0
   -5.2630   22.0820  -31.9930 C   0  0  0  0  0  0  0  0  0  0  0  0
   -5.0809   21.3951  -32.8327 H   0  0  0  0  0  0  0  0  0  0  0  0
   -6.4680   22.0040  -31.2760 C   0  0  0  0  0  0  0  0  0  0  0  0
   -7.4600   21.0210  -31.6340 N   0  0  0  0  0  0  0  0  0  0  0  0
   -7.1050   19.7000  -31.6560 C   0  0  0  0  0  0  0  0  0  0  0  0
   -6.0773   19.4074  -31.3947 H   0  0  0  0  0  0  0  0  0  0  0  0
   -8.0350   18.7200  -32.0070 C   0  0  0  0  0  0  0  0  0  0  0  0
   -7.7437   17.6594  -32.0212 H   0  0  0  0  0  0  0  0  0  0  0  0
   -9.3340   19.0950  -32.3390 C   0  0  0  0  0  0  0  0  0  0  0  0
  -10.0751   18.3318  -32.6189 H   0  0  0  0  0  0  0  0  0  0  0  0
   -9.6910   20.4420  -32.3150 C   0  0  0  0  0  0  0  0  0  0  0  0
  -10.7146   20.7482  -32.5766 H   0  0  0  0  0  0  0  0  0  0  0  0
   -8.7390   21.4020  -31.9560 C   0  0  0  0  0  0  0  0  0  0  0  0
   -9.0780   22.6180  -31.9220 O   0  0  0  0  0  0  0  0  0  0  0  0
   -6.6850   22.8800  -30.1980 C   0  0  0  0  0  0  0  0  0  0  0  0
   -7.8410   22.8240  -29.4910 F   0  0  0  0  0  0  0  0  0  0  0  0
   -5.7130   23.8250  -29.8540 C   0  0  0  0  0  0  0  0  0  0  0  0
   -5.8837   24.5000  -29.0024 H   0  0  0  0  0  0  0  0  0  0  0  0
   -3.1930   22.6330  -28.0540 C   0  0  0  0  0  0  0  0  0  0  0  0
   -4.2153   23.0378  -28.0217 H   0  0  0  0  0  0  0  0  0  0  0  0
  1  2  1  0
  2  3  2  0
  3  4  1  0
  4  5  1  0
  5  6  2  0
  6  7  1  0
  7  8  2  0
  8  9  1  0
  8 10  1  0
 10 11  1  0
 10 12  2  0
 12 13  1  0
 12 14  1  0
 14 15  1  0
  4 16  2  0
 16 17  1  0
 16 18  1  0
 18 19  1  0
 19 20  2  0
 19 21  1  0
 21 22  1  0
 22 23  2  0
 23 24  1  0
 23 25  1  0
 25 26  1  0
 25 27  2  0
 27 28  1  0
 28 29  1  0
 29 30  1  0
 29 31  2  0
 31 32  1  0
 31 33  1  0
 33 34  1  0
 33 35  2  0
 35 36  1  0
 35 37  1  0
 37 38  2  0
 27 39  1  0
 39 40  1  0
 39 41  2  0
 41 42  1  0
 18 43  2  0
 43 44  1  0
 43  2  1  0
 14  6  1  0
 41 22  1  0
 37 28  1  0
M  CHG  1  21  -1
M  END
>  <UniqueID>  (35) 
33

>  <SMILES>  (35) 
O=C([N-]c1ccc(-n2ccccc2=O)c(F)c1)c1ccnc(/N=c2\nccc[nH]2)c1

>  <Energy>  (35) 
73.0648345999232

>  <Genealogy>  (35) 
O=C([N-]c1ccc(-n2ccccc2=O)c(F)c1)c1ccnc(N=c2nccc[nH]2)c1 (protonated)
O=C([N-]c1ccc(-n2ccccc2=O)c(F)c1)c1ccnc(/N=c2\nccc[nH]2)c1 (cis-trans isomerization)
O=C([N-]c1ccc(-n2ccccc2=O)c(F)c1)c1ccnc(/N=c2\nccc[nH]2)c1 (3D coordinates assigned)
O=C([N-]c1ccc(-n2ccccc2=O)c(F)c1)c1ccnc(/N=c2\nccc[nH]2)c1 (optimized conformer: 73.0648345999232 kcal/mol)

>  <smiles>  (35) 
O=C(Nc1ccc(-n2ccccc2=O)c(F)c1)c1ccnc(N=c2nccc[nH]2)c1

>  <score_type>  (35) 
oracle

>  <origin>  (35) 
adgpu

>  <m_score__min__energy>  (35) 
-10.369999999999999

>  <m_primary>  (35) 
energy

$$$$
35:0
     RDKit          3D

 29 31  0  0  0  0  0  0  0  0999 V2000
   -5.3000   24.2760  -31.5940 O   0  0  0  0  0  0  0  0  0  0  0  0
   -4.5560   23.3420  -31.1890 C   0  0  0  0  0  0  0  0  0  0  0  0
   -4.8470   21.9840  -31.5390 N   0  0  0  0  0  0  0  0  0  0  0  0
   -6.1390   21.4430  -31.8490 C   0  0  0  0  0  0  0  0  0  0  0  0
   -7.3270   22.1660  -31.6240 C   0  0  0  0  0  0  0  0  0  0  0  0
   -8.5670   21.5920  -31.9200 C   0  0  0  0  0  0  0  0  0  0  0  0
   -8.6350   20.2910  -32.4270 C   0  0  0  0  0  0  0  0  0  0  0  0
   -9.8410   19.7380  -32.7110 F   0  0  0  0  0  0  0  0  0  0  0  0
   -7.4620   19.5590  -32.6310 C   0  0  0  0  0  0  0  0  0  0  0  0
   -7.5260   18.2920  -33.1130 F   0  0  0  0  0  0  0  0  0  0  0  0
   -6.2200   20.1300  -32.3360 C   0  0  0  0  0  0  0  0  0  0  0  0
   -3.3020   23.6430  -30.4670 C   0  0  0  0  0  0  0  0  0  0  0  0
   -3.1170   24.9240  -30.0510 N   0  0  0  0  0  0  0  0  0  0  0  0
   -2.0520   25.2970  -29.3430 N   0  0  0  0  0  0  0  0  0  0  0  0
   -1.0830   24.4170  -28.9930 C   0  0  0  0  0  0  0  0  0  0  0  0
   -0.1020   24.8190  -28.3130 O   0  0  0  0  0  0  0  0  0  0  0  0
   -1.1850   23.0770  -29.4020 C   0  0  0  0  0  0  0  0  0  0  0  0
   -0.1860   22.1390  -29.0760 C   0  0  0  0  0  0  0  0  0  0  0  0
   -0.2820   20.8230  -29.5270 C   0  0  0  0  0  0  0  0  0  0  0  0
   -1.3620   20.4320  -30.3170 C   0  0  0  0  0  0  0  0  0  0  0  0
   -2.3640   21.3480  -30.6460 C   0  0  0  0  0  0  0  0  0  0  0  0
   -2.3060   22.6770  -30.1720 C   0  0  0  0  0  0  0  0  0  0  0  0
   -7.2788   23.1856  -31.2140 H   0  0  0  0  0  0  0  0  0  0  0  0
   -9.4910   22.1652  -31.7536 H   0  0  0  0  0  0  0  0  0  0  0  0
   -5.3004   19.5456  -32.4869 H   0  0  0  0  0  0  0  0  0  0  0  0
    0.6740   22.4461  -28.4627 H   0  0  0  0  0  0  0  0  0  0  0  0
    0.4955   20.0924  -29.2591 H   0  0  0  0  0  0  0  0  0  0  0  0
   -1.4255   19.3967  -30.6832 H   0  0  0  0  0  0  0  0  0  0  0  0
   -3.2055   21.0314  -31.2798 H   0  0  0  0  0  0  0  0  0  0  0  0
  1  2  2  0
  2  3  1  0
  3  4  1  0
  4  5  2  0
  5  6  1  0
  6  7  2  0
  7  8  1  0
  7  9  1  0
  9 10  1  0
  9 11  2  0
  2 12  1  0
 12 13  2  0
 13 14  1  0
 14 15  1  0
 15 16  2  0
 15 17  1  0
 17 18  2  0
 18 19  1  0
 19 20  2  0
 20 21  1  0
 21 22  2  0
 11  4  1  0
 22 12  1  0
 22 17  1  0
  5 23  1  0
  6 24  1  0
 11 25  1  0
 18 26  1  0
 19 27  1  0
 20 28  1  0
 21 29  1  0
M  CHG  2   3  -1  14  -1
M  END
>  <UniqueID>  (36) 
34

>  <SMILES>  (36) 
O=C([N-]c1ccc(F)c(F)c1)c1n[n-]c(=O)c2ccccc12

>  <Energy>  (36) 
47.60375606261344

>  <Genealogy>  (36) 
O=C([N-]c1ccc(F)c(F)c1)c1n[n-]c(=O)c2ccccc12 (protonated)
O=C([N-]c1ccc(F)c(F)c1)c1n[n-]c(=O)c2ccccc12 (3D coordinates assigned)
O=C([N-]c1ccc(F)c(F)c1)c1n[n-]c(=O)c2ccccc12 (optimized conformer: 47.60375606261344 kcal/mol)

>  <smiles>  (36) 
O=C(Nc1ccc(F)c(F)c1)c1n[nH]c(=O)c2ccccc12

>  <score_type>  (36) 
oracle

>  <origin>  (36) 
adgpu

>  <m_score__min__energy>  (36) 
-9.6099999999999994

>  <m_primary>  (36) 
energy

$$$$
36:0
     RDKit          3D

 36 38  0  0  0  0  0  0  0  0999 V2000
    0.3230   30.0650  -26.7550 C   0  0  0  0  0  0  0  0  0  0  0  0
    0.5790   28.7980  -26.1560 O   0  0  0  0  0  0  0  0  0  0  0  0
   -0.2400   27.6700  -26.3090 C   0  0  0  0  0  0  0  0  0  0  0  0
   -0.8310   27.1190  -25.1660 C   0  0  0  0  0  0  0  0  0  0  0  0
   -1.6650   26.0030  -25.2670 C   0  0  0  0  0  0  0  0  0  0  0  0
   -1.9090   25.4220  -26.5130 C   0  0  0  0  0  0  0  0  0  0  0  0
   -1.3020   25.9440  -27.6680 C   0  0  0  0  0  0  0  0  0  0  0  0
   -1.5600   25.3910  -28.9650 N   0  0  0  0  0  0  0  0  0  0  0  0
   -2.6790   24.5700  -29.3190 C   0  0  0  0  0  0  0  0  0  0  0  0
   -2.6200   23.3330  -29.0910 O   0  0  0  0  0  0  0  0  0  0  0  0
   -3.8650   25.1470  -29.8920 N   0  0  0  0  0  0  0  0  0  0  0  0
   -4.9780   24.3630  -30.3460 C   0  0  0  0  0  0  0  0  0  0  0  0
   -4.7440   23.1810  -31.0570 C   0  0  0  0  0  0  0  0  0  0  0  0
   -5.8240   22.4220  -31.5110 C   0  0  0  0  0  0  0  0  0  0  0  0
   -5.6340   21.2180  -32.2080 C   0  0  0  0  0  0  0  0  0  0  0  0
   -6.7420   20.4840  -32.6430 C   0  0  0  0  0  0  0  0  0  0  0  0
   -8.0370   20.9450  -32.3850 C   0  0  0  0  0  0  0  0  0  0  0  0
   -8.2330   22.1430  -31.6930 C   0  0  0  0  0  0  0  0  0  0  0  0
   -7.1320   22.8870  -31.2530 C   0  0  0  0  0  0  0  0  0  0  0  0
   -7.3180   24.0300  -30.6010 O   0  0  0  0  0  0  0  0  0  0  0  0
   -6.3110   24.7770  -30.1550 C   0  0  0  0  0  0  0  0  0  0  0  0
   -6.5660   25.8700  -29.5820 O   0  0  0  0  0  0  0  0  0  0  0  0
   -0.4890   27.0800  -27.5640 C   0  0  0  0  0  0  0  0  0  0  0  0
    0.1708   30.8185  -25.9682 H   0  0  0  0  0  0  0  0  0  0  0  0
    1.1806   30.3553  -27.3797 H   0  0  0  0  0  0  0  0  0  0  0  0
   -0.5801   29.9995  -27.3797 H   0  0  0  0  0  0  0  0  0  0  0  0
   -0.6372   27.5682  -24.1808 H   0  0  0  0  0  0  0  0  0  0  0  0
   -2.1301   25.5813  -24.3638 H   0  0  0  0  0  0  0  0  0  0  0  0
   -2.5786   24.5528  -26.5908 H   0  0  0  0  0  0  0  0  0  0  0  0
   -3.8830   26.1700  -30.0990 H   0  0  0  0  0  0  0  0  0  0  0  0
   -3.7139   22.8513  -31.2573 H   0  0  0  0  0  0  0  0  0  0  0  0
   -4.6164   20.8531  -32.4113 H   0  0  0  0  0  0  0  0  0  0  0  0
   -6.5946   19.5410  -33.1899 H   0  0  0  0  0  0  0  0  0  0  0  0
   -8.9045   20.3622  -32.7282 H   0  0  0  0  0  0  0  0  0  0  0  0
   -9.2536   22.5018  -31.4938 H   0  0  0  0  0  0  0  0  0  0  0  0
   -0.0413   27.5150  -28.4697 H   0  0  0  0  0  0  0  0  0  0  0  0
  1  2  1  0
  2  3  1  0
  3  4  2  0
  4  5  1  0
  5  6  2  0
  6  7  1  0
  7  8  1  0
  8  9  1  0
  9 10  2  0
  9 11  1  0
 11 12  1  0
 12 13  2  0
 13 14  1  0
 14 15  2  0
 15 16  1  0
 16 17  2  0
 17 18  1  0
 18 19  2  0
 19 20  1  0
 20 21  1  0
 21 22  2  0
  7 23  2  0
 23  3  1  0
 21 12  1  0
 19 14  1  0
  1 24  1  0
  1 25  1  0
  1 26  1  0
  4 27  1  0
  5 28  1  0
  6 29  1  0
 11 30  1  0
 13 31  1  0
 15 32  1  0
 16 33  1  0
 17 34  1  0
 18 35  1  0
 23 36  1  0
M  CHG  1   8  -1
M  END
>  <UniqueID>  (37) 
35

>  <SMILES>  (37) 
COc1cccc([N-]C(=O)Nc2cc3ccccc3oc2=O)c1

>  <Energy>  (37) 
52.06539578507646

>  <Genealogy>  (37) 
COc1cccc([N-]C(=O)Nc2cc3ccccc3oc2=O)c1 (protonated)
COc1cccc([N-]C(=O)Nc2cc3ccccc3oc2=O)c1 (3D coordinates assigned)
COc1cccc([N-]C(=O)Nc2cc3ccccc3oc2=O)c1 (optimized conformer: 52.06539578507646 kcal/mol)

>  <smiles>  (37) 
COc1cccc(NC(=O)Nc2cc3ccccc3oc2=O)c1

>  <score_type>  (37) 
oracle

>  <origin>  (37) 
adgpu

>  <m_score__min__energy>  (37) 
-9.0500000000000007

>  <m_primary>  (37) 
energy

$$$$
37:0
     RDKit          3D

 63 67  0  0  0  0  0  0  0  0999 V2000
   -5.5080   26.4430  -30.6840 O   0  0  0  0  0  0  0  0  0  0  0  0
   -4.9190   25.3310  -30.6360 C   0  0  0  0  0  0  0  0  0  0  0  0
   -3.5890   25.2670  -30.1100 N   0  0  0  0  0  0  0  0  0  0  0  0
   -3.0960   24.1690  -29.3340 C   0  0  0  0  0  0  0  0  0  0  0  0
   -3.9720   23.3640  -28.5890 C   0  0  0  0  0  0  0  0  0  0  0  0
   -3.4830   22.2730  -27.8660 C   0  0  0  0  0  0  0  0  0  0  0  0
   -2.1100   21.9950  -27.8510 C   0  0  0  0  0  0  0  0  0  0  0  0
   -1.4890   20.6310  -26.9120 S   0  0  0  0  0  0  0  0  0  0  0  0
   -0.9340   21.1470  -25.6120 O   0  0  0  0  0  0  0  0  0  0  0  0
   -2.6250   19.6970  -26.5940 O   0  0  0  0  0  0  0  0  0  0  0  0
   -0.2460   19.7380  -27.7580 N   0  0  0  0  0  0  0  0  0  0  0  0
   -0.3540   19.8690  -29.2140 C   0  0  0  0  0  0  0  0  0  0  0  0
    0.1760   18.5760  -29.8220 C   0  0  0  0  0  0  0  0  0  0  0  0
    0.3480   17.6100  -28.6610 C   0  0  0  0  0  0  0  0  0  0  0  0
   -0.2940   18.3030  -27.4720 C   0  0  0  0  0  0  0  0  0  0  0  0
   -1.2360   22.7950  -28.6050 C   0  0  0  0  0  0  0  0  0  0  0  0
   -1.7310   23.8660  -29.3550 C   0  0  0  0  0  0  0  0  0  0  0  0
   -5.6230   24.1080  -31.0750 C   0  0  0  0  0  0  0  0  0  0  0  0
   -6.9490   23.8750  -30.6740 C   0  0  0  0  0  0  0  0  0  0  0  0
   -7.6340   22.7420  -31.1190 C   0  0  0  0  0  0  0  0  0  0  0  0
   -6.9960   21.8040  -31.9450 C   0  0  0  0  0  0  0  0  0  0  0  0
   -7.7420   20.5820  -32.4420 C   0  0  0  0  0  0  0  0  0  0  0  0
   -6.9100   19.3610  -32.5350 N   0  0  0  0  0  0  0  0  0  0  0  0
   -7.5410   18.1790  -31.9220 C   0  0  0  0  0  0  0  0  0  0  0  0
   -6.4860   17.0900  -31.7090 C   0  0  0  0  0  0  0  0  0  0  0  0
   -5.6040   16.9010  -32.9200 C   0  0  0  0  0  0  0  0  0  0  0  0
   -4.7740   15.7730  -32.9970 C   0  0  0  0  0  0  0  0  0  0  0  0
   -3.9170   15.6020  -34.0860 C   0  0  0  0  0  0  0  0  0  0  0  0
   -3.8710   16.5580  -35.1010 C   0  0  0  0  0  0  0  0  0  0  0  0
   -4.6790   17.6940  -35.0280 C   0  0  0  0  0  0  0  0  0  0  0  0
   -5.5370   17.8830  -33.9340 C   0  0  0  0  0  0  0  0  0  0  0  0
   -6.4730   19.0650  -33.9140 C   0  0  0  0  0  0  0  0  0  0  0  0
   -5.6650   22.0320  -32.3370 C   0  0  0  0  0  0  0  0  0  0  0  0
   -4.9890   23.1800  -31.9160 C   0  0  0  0  0  0  0  0  0  0  0  0
   -5.0478   23.5930  -28.5744 H   0  0  0  0  0  0  0  0  0  0  0  0
   -4.1785   21.6301  -27.3066 H   0  0  0  0  0  0  0  0  0  0  0  0
    0.6850   20.1130  -27.4540 H   0  0  0  0  0  0  0  0  0  0  0  0
   -1.4050   20.0182  -29.5023 H   0  0  0  0  0  0  0  0  0  0  0  0
    0.2223   20.7347  -29.5725 H   0  0  0  0  0  0  0  0  0  0  0  0
   -0.5423   18.1736  -30.5515 H   0  0  0  0  0  0  0  0  0  0  0  0
    1.1240   18.7393  -30.3556 H   0  0  0  0  0  0  0  0  0  0  0  0
   -0.1592   16.6572  -28.8729 H   0  0  0  0  0  0  0  0  0  0  0  0
    1.4057   17.3706  -28.4770 H   0  0  0  0  0  0  0  0  0  0  0  0
   -1.3367   17.9724  -27.3558 H   0  0  0  0  0  0  0  0  0  0  0  0
    0.2336   18.0637  -26.5369 H   0  0  0  0  0  0  0  0  0  0  0  0
   -0.1576   22.5780  -28.6055 H   0  0  0  0  0  0  0  0  0  0  0  0
   -1.0443   24.4725  -29.9638 H   0  0  0  0  0  0  0  0  0  0  0  0
   -7.4511   24.5895  -30.0052 H   0  0  0  0  0  0  0  0  0  0  0  0
   -8.6807   22.5839  -30.8199 H   0  0  0  0  0  0  0  0  0  0  0  0
   -8.5742   20.3809  -31.7513 H   0  0  0  0  0  0  0  0  0  0  0  0
   -8.0822   20.8119  -33.4625 H   0  0  0  0  0  0  0  0  0  0  0  0
   -7.9799   18.4588  -30.9530 H   0  0  0  0  0  0  0  0  0  0  0  0
   -8.3311   17.7991  -32.5864 H   0  0  0  0  0  0  0  0  0  0  0  0
   -5.8554   17.3712  -30.8527 H   0  0  0  0  0  0  0  0  0  0  0  0
   -7.0134   16.1422  -31.5259 H   0  0  0  0  0  0  0  0  0  0  0  0
   -4.7983   15.0196  -32.1958 H   0  0  0  0  0  0  0  0  0  0  0  0
   -3.2757   14.7101  -34.1438 H   0  0  0  0  0  0  0  0  0  0  0  0
   -3.1977   16.4166  -35.9593 H   0  0  0  0  0  0  0  0  0  0  0  0
   -4.6429   18.4442  -35.8316 H   0  0  0  0  0  0  0  0  0  0  0  0
   -5.9541   19.9436  -34.3248 H   0  0  0  0  0  0  0  0  0  0  0  0
   -7.3580   18.8258  -34.5219 H   0  0  0  0  0  0  0  0  0  0  0  0
   -5.1523   21.3013  -32.9798 H   0  0  0  0  0  0  0  0  0  0  0  0
   -3.9546   23.3575  -32.2453 H   0  0  0  0  0  0  0  0  0  0  0  0
  1  2  2  0
  2  3  1  0
  3  4  1  0
  4  5  2  0
  5  6  1  0
  6  7  2  0
  7  8  1  0
  8  9  2  0
  8 10  2  0
  8 11  1  0
 11 12  1  0
 12 13  1  0
 13 14  1  0
 14 15  1  0
  7 16  1  0
 16 17  2  0
  2 18  1  0
 18 19  2  0
 19 20  1  0
 20 21  2  0
 21 22  1  0
 22 23  1  0
 23 24  1  0
 24 25  1  0
 25 26  1  0
 26 27  2  0
 27 28  1  0
 28 29  2  0
 29 30  1  0
 30 31  2  0
 31 32  1  0
 21 33  1  0
 33 34  2  0
 17  4  1  0
 34 18  1  0
 15 11  1  0
 32 23  1  0
 31 26  1  0
  5 35  1  0
  6 36  1  0
 11 37  1  0
 12 38  1  0
 12 39  1  0
 13 40  1  0
 13 41  1  0
 14 42  1  0
 14 43  1  0
 15 44  1  0
 15 45  1  0
 16 46  1  0
 17 47  1  0
 19 48  1  0
 20 49  1  0
 22 50  1  0
 22 51  1  0
 24 52  1  0
 24 53  1  0
 25 54  1  0
 25 55  1  0
 27 56  1  0
 28 57  1  0
 29 58  1  0
 30 59  1  0
 32 60  1  0
 32 61  1  0
 33 62  1  0
 34 63  1  0
M  CHG  2   3  -1  11   1
M  END
>  <UniqueID>  (38) 
36

>  <SMILES>  (38) 
O=C([N-]c1ccc(S(=O)(=O)[NH+]2CCCC2)cc1)c1ccc(CN2CCc3ccccc3C2)cc1

>  <Energy>  (38) 
78.02179759994551

>  <Genealogy>  (38) 
O=C([N-]c1ccc(S(=O)(=O)[NH+]2CCCC2)cc1)c1ccc(CN2CCc3ccccc3C2)cc1 (protonated)
O=C([N-]c1ccc(S(=O)(=O)[NH+]2CCCC2)cc1)c1ccc(CN2CCc3ccccc3C2)cc1 (3D coordinates assigned)
O=C([N-]c1ccc(S(=O)(=O)[NH+]2CCCC2)cc1)c1ccc(CN2CCc3ccccc3C2)cc1 (nonaromatic ring conformer: 78.02179759994551 kcal/mol)

>  <smiles>  (38) 
O=C(Nc1ccc(S(=O)(=O)N2CCCC2)cc1)c1ccc(CN2CCc3ccccc3C2)cc1

>  <score_type>  (38) 
oracle

>  <origin>  (38) 
adgpu

>  <m_score__min__energy>  (38) 
-13.32

>  <m_primary>  (38) 
energy

$$$$
38:0
     RDKit          3D

 36 38  0  0  1  0  0  0  0  0999 V2000
   -4.5640   17.5570  -34.7190 C   0  0  0  0  0  0  0  0  0  0  0  0
   -4.2640   18.9310  -34.4350 O   0  0  0  0  0  0  0  0  0  0  0  0
   -5.1660   19.6800  -33.6920 C   0  0  0  0  0  0  0  0  0  0  0  0
   -6.4820   19.2910  -33.7390 C   0  0  0  0  0  0  0  0  0  0  0  0
   -7.3750   20.0330  -33.0020 C   0  0  0  0  0  0  0  0  0  0  0  0
   -8.6610   19.6590  -33.0430 N   0  0  0  0  0  0  0  0  0  0  0  0
   -9.5690   20.3490  -32.3440 C   0  0  0  0  0  0  0  0  0  0  0  0
   -9.1520   21.3900  -31.6300 N   0  0  0  0  0  0  0  0  0  0  0  0
   -7.8670   21.8000  -31.5600 C   0  0  0  0  0  0  0  0  0  0  0  0
   -7.5950   22.7730  -30.8730 N   0  0  0  0  0  0  0  0  0  0  0  0
   -6.4420   23.4150  -30.6020 C   0  0  0  0  0  0  0  0  0  0  0  0
   -6.1220   24.6420  -31.2350 C   0  0  0  0  0  0  0  0  0  0  0  0
   -4.9910   25.3090  -30.8300 C   0  0  0  0  0  0  0  0  0  0  0  0
   -4.1580   24.8420  -29.8430 C   0  0  0  0  0  0  0  0  0  0  0  0
   -4.4640   23.6600  -29.2310 C   0  0  0  0  0  0  0  0  0  0  0  0
   -3.3550   22.9290  -27.8400 Br  0  0  0  0  0  0  0  0  0  0  0  0
   -5.5870   22.9300  -29.5850 C   0  0  0  0  0  0  0  0  0  0  0  0
   -6.9130   21.1160  -32.2630 C   0  0  0  0  0  0  0  0  0  0  0  0
   -5.5960   21.4710  -32.2420 C   0  0  0  0  0  0  0  0  0  0  0  0
   -4.6660   20.7260  -32.9880 C   0  0  0  0  0  0  0  0  0  0  0  0
   -3.3170   21.0360  -33.0070 O   0  0  0  0  0  0  0  0  0  0  0  0
   -2.6620   21.5640  -31.8770 C   0  0  0  0  0  0  0  0  0  0  0  0
   -4.6845   17.0053  -33.7750 H   0  0  0  0  0  0  0  0  0  0  0  0
   -5.4962   17.4977  -35.2999 H   0  0  0  0  0  0  0  0  0  0  0  0
   -3.7413   17.1146  -35.2999 H   0  0  0  0  0  0  0  0  0  0  0  0
   -6.8065   18.4271  -34.3376 H   0  0  0  0  0  0  0  0  0  0  0  0
   -8.9840   18.8380  -33.6090 H   0  0  0  0  0  0  0  0  0  0  0  0
  -10.6311   20.0631  -32.3595 H   0  0  0  0  0  0  0  0  0  0  0  0
   -6.7629   25.0501  -32.0305 H   0  0  0  0  0  0  0  0  0  0  0  0
   -4.7410   26.2619  -31.3194 H   0  0  0  0  0  0  0  0  0  0  0  0
   -3.2617   25.4090  -29.5510 H   0  0  0  0  0  0  0  0  0  0  0  0
   -5.8121   21.9798  -29.0786 H   0  0  0  0  0  0  0  0  0  0  0  0
   -5.2642   22.3338  -31.6458 H   0  0  0  0  0  0  0  0  0  0  0  0
   -3.1392   21.1794  -30.9636 H   0  0  0  0  0  0  0  0  0  0  0  0
   -1.6040   21.2632  -31.8926 H   0  0  0  0  0  0  0  0  0  0  0  0
   -2.7314   22.6617  -31.8926 H   0  0  0  0  0  0  0  0  0  0  0  0
  1  2  1  0
  2  3  1  0
  3  4  2  0
  4  5  1  0
  5  6  1  0
  6  7  1  0
  7  8  2  0
  8  9  1  0
  9 10  2  0
 10 11  1  0
 11 12  2  0
 12 13  1  0
 13 14  2  0
 14 15  1  0
 15 16  1  0
 15 17  2  0
  9 18  1  0
 18 19  1  0
 19 20  2  0
 20 21  1  0
 21 22  1  0
 20  3  1  0
 18  5  2  0
 17 11  1  0
  1 23  1  0
  1 24  1  0
  1 25  1  0
  4 26  1  0
  6 27  1  0
  7 28  1  0
 12 29  1  0
 13 30  1  0
 14 31  1  0
 17 32  1  0
 19 33  1  0
 22 34  1  0
 22 35  1  0
 22 36  1  0
M  END
>  <smiles>  (39) 
COc1cc2[nH]cnc(=Nc3cccc(Br)c3)c2cc1OC

>  <score_type>  (39) 
oracle

>  <origin>  (39) 
adgpu

>  <m_score__min__energy>  (39) 
-7.5199999999999996

>  <m_primary>  (39) 
energy

$$$$
39:0
     RDKit          3D

 46 49  0  0  0  0  0  0  0  0999 V2000
   -9.4710   22.1810  -31.6340 C   0  0  0  0  0  0  0  0  0  0  0  0
   -9.6340   20.8230  -32.0280 O   0  0  0  0  0  0  0  0  0  0  0  0
   -8.5740   19.9290  -32.2420 C   0  0  0  0  0  0  0  0  0  0  0  0
   -8.6920   18.5470  -32.0030 C   0  0  0  0  0  0  0  0  0  0  0  0
   -7.6050   17.7000  -32.2280 C   0  0  0  0  0  0  0  0  0  0  0  0
   -6.3960   18.2160  -32.6980 C   0  0  0  0  0  0  0  0  0  0  0  0
   -6.2650   19.5910  -32.9600 C   0  0  0  0  0  0  0  0  0  0  0  0
   -4.9910   20.1500  -33.4720 C   0  0  0  0  0  0  0  0  0  0  0  0
   -4.1340   19.3770  -33.9760 O   0  0  0  0  0  0  0  0  0  0  0  0
   -4.7190   21.5560  -33.4550 N   0  0  0  0  0  0  0  0  0  0  0  0
   -4.2630   22.3010  -32.3170 C   0  0  0  0  0  0  0  0  0  0  0  0
   -2.9700   22.3020  -31.8020 C   0  0  0  0  0  0  0  0  0  0  0  0
   -1.8120   21.5590  -32.3290 C   0  0  0  0  0  0  0  0  0  0  0  0
   -0.7170   21.5830  -31.7050 O   0  0  0  0  0  0  0  0  0  0  0  0
   -1.9260   20.8430  -33.5690 N   0  0  0  0  0  0  0  0  0  0  0  0
   -0.9520   19.8980  -34.0450 C   0  0  0  0  0  0  0  0  0  0  0  0
   -1.1000   18.5150  -33.8230 C   0  0  0  0  0  0  0  0  0  0  0  0
   -0.1500   17.6170  -34.3180 C   0  0  0  0  0  0  0  0  0  0  0  0
    0.9460   18.0850  -35.0480 C   0  0  0  0  0  0  0  0  0  0  0  0
    1.8650   17.2120  -35.5290 F   0  0  0  0  0  0  0  0  0  0  0  0
    1.0890   19.4540  -35.2920 C   0  0  0  0  0  0  0  0  0  0  0  0
    0.1400   20.3550  -34.7990 C   0  0  0  0  0  0  0  0  0  0  0  0
   -2.9100   23.0980  -30.7490 O   0  0  0  0  0  0  0  0  0  0  0  0
   -4.1080   23.5990  -30.5540 C   0  0  0  0  0  0  0  0  0  0  0  0
   -4.5030   24.4740  -29.5450 C   0  0  0  0  0  0  0  0  0  0  0  0
   -5.8540   24.8610  -29.5000 C   0  0  0  0  0  0  0  0  0  0  0  0
   -6.7730   24.3600  -30.4480 C   0  0  0  0  0  0  0  0  0  0  0  0
   -6.3480   23.4760  -31.4550 C   0  0  0  0  0  0  0  0  0  0  0  0
   -4.9940   23.1330  -31.4930 C   0  0  0  0  0  0  0  0  0  0  0  0
   -7.3580   20.4410  -32.7130 C   0  0  0  0  0  0  0  0  0  0  0  0
   -9.4632   22.2458  -30.5359 H   0  0  0  0  0  0  0  0  0  0  0  0
   -8.5202   22.5663  -32.0308 H   0  0  0  0  0  0  0  0  0  0  0  0
  -10.3036   22.7804  -32.0308 H   0  0  0  0  0  0  0  0  0  0  0  0
   -9.6434   18.1329  -31.6379 H   0  0  0  0  0  0  0  0  0  0  0  0
   -7.7017   16.6216  -32.0341 H   0  0  0  0  0  0  0  0  0  0  0  0
   -5.5416   17.5434  -32.8642 H   0  0  0  0  0  0  0  0  0  0  0  0
   -2.7210   21.0850  -34.2040 H   0  0  0  0  0  0  0  0  0  0  0  0
   -1.9663   18.1402  -33.2581 H   0  0  0  0  0  0  0  0  0  0  0  0
   -0.2654   16.5389  -34.1324 H   0  0  0  0  0  0  0  0  0  0  0  0
    1.9481   19.8225  -35.8718 H   0  0  0  0  0  0  0  0  0  0  0  0
    0.2502   21.4302  -35.0037 H   0  0  0  0  0  0  0  0  0  0  0  0
   -3.7804   24.8507  -28.8061 H   0  0  0  0  0  0  0  0  0  0  0  0
   -6.1972   25.5583  -28.7216 H   0  0  0  0  0  0  0  0  0  0  0  0
   -7.8291   24.6637  -30.3981 H   0  0  0  0  0  0  0  0  0  0  0  0
   -7.0582   23.0676  -32.1891 H   0  0  0  0  0  0  0  0  0  0  0  0
   -7.2568   21.5216  -32.8919 H   0  0  0  0  0  0  0  0  0  0  0  0
  1  2  1  0
  2  3  1  0
  3  4  2  0
  4  5  1  0
  5  6  2  0
  6  7  1  0
  7  8  1  0
  8  9  2  0
  8 10  1  0
 10 11  1  0
 11 12  2  0
 12 13  1  0
 13 14  2  0
 13 15  1  0
 15 16  1  0
 16 17  2  0
 17 18  1  0
 18 19  2  0
 19 20  1  0
 19 21  1  0
 21 22  2  0
 12 23  1  0
 23 24  1  0
 24 25  2  0
 25 26  1  0
 26 27  2  0
 27 28  1  0
 28 29  2  0
  7 30  2  0
 30  3  1  0
 29 11  1  0
 22 16  1  0
 29 24  1  0
  1 31  1  0
  1 32  1  0
  1 33  1  0
  4 34  1  0
  5 35  1  0
  6 36  1  0
 15 37  1  0
 17 38  1  0
 18 39  1  0
 21 40  1  0
 22 41  1  0
 25 42  1  0
 26 43  1  0
 27 44  1  0
 28 45  1  0
 30 46  1  0
M  CHG  1  10  -1
M  END
>  <UniqueID>  (40) 
37

>  <SMILES>  (40) 
COc1cccc(C(=O)[N-]c2c(C(=O)Nc3ccc(F)cc3)oc3ccccc23)c1

>  <Energy>  (40) 
95.48842406362503

>  <Genealogy>  (40) 
COc1cccc(C(=O)[N-]c2c(C(=O)Nc3ccc(F)cc3)oc3ccccc23)c1 (protonated)
COc1cccc(C(=O)[N-]c2c(C(=O)Nc3ccc(F)cc3)oc3ccccc23)c1 (3D coordinates assigned)
COc1cccc(C(=O)[N-]c2c(C(=O)Nc3ccc(F)cc3)oc3ccccc23)c1 (optimized conformer: 95.48842406362503 kcal/mol)

>  <smiles>  (40) 
COc1cccc(C(=O)Nc2c(C(=O)Nc3ccc(F)cc3)oc3ccccc23)c1

>  <score_type>  (40) 
oracle

>  <origin>  (40) 
adgpu

>  <m_score__min__energy>  (40) 
-9.2200000000000006

>  <m_primary>  (40) 
energy

$$$$
40:0
     RDKit          3D

 30 31  0  0  0  0  0  0  0  0999 V2000
   -3.8960   25.6380  -30.8390 O   0  0  0  0  0  0  0  0  0  0  0  0
   -4.3040   24.4660  -30.6100 C   0  0  0  0  0  0  0  0  0  0  0  0
   -5.1420   23.8030  -31.5580 N   0  0  0  0  0  0  0  0  0  0  0  0
   -4.9860   22.1160  -31.9170 S   0  0  0  0  0  0  0  0  0  0  0  0
   -4.2320   21.9520  -33.2070 O   0  0  0  0  0  0  0  0  0  0  0  0
   -4.2170   21.4520  -30.8100 O   0  0  0  0  0  0  0  0  0  0  0  0
   -6.5780   21.3870  -32.0860 C   0  0  0  0  0  0  0  0  0  0  0  0
   -6.7040   20.0860  -32.5920 C   0  0  0  0  0  0  0  0  0  0  0  0
   -7.9680   19.5030  -32.7290 C   0  0  0  0  0  0  0  0  0  0  0  0
   -9.1120   20.2170  -32.3580 C   0  0  0  0  0  0  0  0  0  0  0  0
   -8.9910   21.5130  -31.8470 C   0  0  0  0  0  0  0  0  0  0  0  0
   -7.7280   22.0970  -31.7090 C   0  0  0  0  0  0  0  0  0  0  0  0
   -3.8980   23.7690  -29.4250 N   0  0  0  0  0  0  0  0  0  0  0  0
   -3.2030   24.3790  -28.3240 C   0  0  0  0  0  0  0  0  0  0  0  0
   -3.8690   24.5540  -27.1020 C   0  0  0  0  0  0  0  0  0  0  0  0
   -3.2230   25.1650  -26.0230 C   0  0  0  0  0  0  0  0  0  0  0  0
   -1.9090   25.6220  -26.1610 C   0  0  0  0  0  0  0  0  0  0  0  0
   -1.1000   26.3910  -24.8080 Cl  0  0  0  0  0  0  0  0  0  0  0  0
   -1.2440   25.4740  -27.3820 C   0  0  0  0  0  0  0  0  0  0  0  0
   -1.8870   24.8620  -28.4620 C   0  0  0  0  0  0  0  0  0  0  0  0
   -5.8057   19.5215  -32.8824 H   0  0  0  0  0  0  0  0  0  0  0  0
   -8.0624   18.4825  -33.1287 H   0  0  0  0  0  0  0  0  0  0  0  0
  -10.1062   19.7594  -32.4681 H   0  0  0  0  0  0  0  0  0  0  0  0
   -9.8905   22.0738  -31.5532 H   0  0  0  0  0  0  0  0  0  0  0  0
   -7.6358   23.1155  -31.3039 H   0  0  0  0  0  0  0  0  0  0  0  0
   -4.0390   22.7340  -29.4060 H   0  0  0  0  0  0  0  0  0  0  0  0
   -4.9073   24.2079  -26.9917 H   0  0  0  0  0  0  0  0  0  0  0  0
   -3.7491   25.2862  -25.0646 H   0  0  0  0  0  0  0  0  0  0  0  0
   -0.2126   25.8399  -27.4930 H   0  0  0  0  0  0  0  0  0  0  0  0
   -1.3631   24.7572  -29.4235 H   0  0  0  0  0  0  0  0  0  0  0  0
  1  2  2  0
  2  3  1  0
  3  4  1  0
  4  5  2  0
  4  6  2  0
  4  7  1  0
  7  8  2  0
  8  9  1  0
  9 10  2  0
 10 11  1  0
 11 12  2  0
  2 13  1  0
 13 14  1  0
 14 15  2  0
 15 16  1  0
 16 17  2  0
 17 18  1  0
 17 19  1  0
 19 20  2  0
 12  7  1  0
 20 14  1  0
  8 21  1  0
  9 22  1  0
 10 23  1  0
 11 24  1  0
 12 25  1  0
 13 26  1  0
 15 27  1  0
 16 28  1  0
 19 29  1  0
 20 30  1  0
M  CHG  1   3  -1
M  END
>  <UniqueID>  (41) 
38

>  <SMILES>  (41) 
O=C([N-]S(=O)(=O)c1ccccc1)Nc1ccc(Cl)cc1

>  <Energy>  (41) 
35.63741902194427

>  <Genealogy>  (41) 
O=C([N-]S(=O)(=O)c1ccccc1)Nc1ccc(Cl)cc1 (protonated)
O=C([N-]S(=O)(=O)c1ccccc1)Nc1ccc(Cl)cc1 (3D coordinates assigned)
O=C([N-]S(=O)(=O)c1ccccc1)Nc1ccc(Cl)cc1 (optimized conformer: 35.63741902194427 kcal/mol)

>  <smiles>  (41) 
O=C(Nc1ccc(Cl)cc1)NS(=O)(=O)c1ccccc1

>  <score_type>  (41) 
oracle

>  <origin>  (41) 
adgpu

>  <m_score__min__energy>  (41) 
-8.9600000000000009

>  <m_primary>  (41) 
energy

$$$$
41:0
     RDKit          3D

 37 39  0  0  0  0  0  0  0  0999 V2000
   -3.8960   25.6460  -30.8430 O   0  0  0  0  0  0  0  0  0  0  0  0
   -4.1490   24.5230  -30.3340 C   0  0  0  0  0  0  0  0  0  0  0  0
   -4.8340   23.5470  -31.1290 N   0  0  0  0  0  0  0  0  0  0  0  0
   -4.2520   22.3980  -31.7650 C   0  0  0  0  0  0  0  0  0  0  0  0
   -2.8570   22.2710  -31.9050 C   0  0  0  0  0  0  0  0  0  0  0  0
   -2.3110   21.1690  -32.5670 C   0  0  0  0  0  0  0  0  0  0  0  0
   -3.1470   20.1950  -33.1140 C   0  0  0  0  0  0  0  0  0  0  0  0
   -4.5320   20.3240  -33.0060 C   0  0  0  0  0  0  0  0  0  0  0  0
   -5.0940   21.4210  -32.3340 C   0  0  0  0  0  0  0  0  0  0  0  0
   -6.5230   21.5370  -32.2360 N   0  0  0  0  0  0  0  0  0  0  0  0
   -7.1650   22.8220  -32.5360 C   0  0  0  0  0  0  0  0  0  0  0  0
   -8.3620   23.0510  -31.6020 C   0  0  0  0  0  0  0  0  0  0  0  0
   -9.2680   21.8070  -31.4390 C   0  0  0  0  0  0  0  0  0  0  0  0
   -8.8240   20.6090  -32.2890 C   0  0  0  0  0  0  0  0  0  0  0  0
   -7.3340   20.3200  -32.0830 C   0  0  0  0  0  0  0  0  0  0  0  0
   -3.7570   24.2690  -28.9350 C   0  0  0  0  0  0  0  0  0  0  0  0
   -4.6160   24.3120  -27.8990 N   0  0  0  0  0  0  0  0  0  0  0  0
   -3.9800   24.0030  -26.7810 N   0  0  0  0  0  0  0  0  0  0  0  0
   -2.6940   23.7470  -27.0920 C   0  0  0  0  0  0  0  0  0  0  0  0
   -2.5150   23.9030  -28.4510 C   0  0  0  0  0  0  0  0  0  0  0  0
   -1.0470   23.5410  -29.3410 Cl  0  0  0  0  0  0  0  0  0  0  0  0
   -2.1932   23.0441  -31.4907 H   0  0  0  0  0  0  0  0  0  0  0  0
   -1.2193   21.0687  -32.6573 H   0  0  0  0  0  0  0  0  0  0  0  0
   -2.7142   19.3255  -33.6303 H   0  0  0  0  0  0  0  0  0  0  0  0
   -5.1880   19.5610  -33.4504 H   0  0  0  0  0  0  0  0  0  0  0  0
   -6.4355   23.6334  -32.3964 H   0  0  0  0  0  0  0  0  0  0  0  0
   -7.5207   22.8097  -33.5768 H   0  0  0  0  0  0  0  0  0  0  0  0
   -7.9799   23.3352  -30.6104 H   0  0  0  0  0  0  0  0  0  0  0  0
   -8.9782   23.8414  -32.0554 H   0  0  0  0  0  0  0  0  0  0  0  0
   -9.2582   21.5057  -30.3811 H   0  0  0  0  0  0  0  0  0  0  0  0
  -10.2731   22.0922  -31.7830 H   0  0  0  0  0  0  0  0  0  0  0  0
   -9.4072   19.7233  -31.9968 H   0  0  0  0  0  0  0  0  0  0  0  0
   -8.9944   20.8460  -33.3496 H   0  0  0  0  0  0  0  0  0  0  0  0
   -7.1848   19.9159  -31.0708 H   0  0  0  0  0  0  0  0  0  0  0  0
   -7.0145   19.5942  -32.8453 H   0  0  0  0  0  0  0  0  0  0  0  0
   -5.6320   24.5510  -27.9460 H   0  0  0  0  0  0  0  0  0  0  0  0
   -1.9107   23.4591  -26.3754 H   0  0  0  0  0  0  0  0  0  0  0  0
  1  2  2  0
  2  3  1  0
  3  4  1  0
  4  5  2  0
  5  6  1  0
  6  7  2  0
  7  8  1  0
  8  9  2  0
  9 10  1  0
 10 11  1  0
 11 12  1  0
 12 13  1  0
 13 14  1  0
 14 15  1  0
  2 16  1  0
 16 17  1  0
 17 18  1  0
 18 19  2  0
 19 20  1  0
 20 21  1  0
  9  4  1  0
 15 10  1  0
 20 16  2  0
  5 22  1  0
  6 23  1  0
  7 24  1  0
  8 25  1  0
 11 26  1  0
 11 27  1  0
 12 28  1  0
 12 29  1  0
 13 30  1  0
 13 31  1  0
 14 32  1  0
 14 33  1  0
 15 34  1  0
 15 35  1  0
 17 36  1  0
 19 37  1  0
M  CHG  1   3  -1
M  END
>  <UniqueID>  (42) 
39

>  <SMILES>  (42) 
O=C([N-]c1ccccc1N1CCCCC1)c1[nH]ncc1Cl

>  <Energy>  (42) 
80.43884594289608

>  <Genealogy>  (42) 
O=C([N-]c1ccccc1N1CCCCC1)c1[nH]ncc1Cl (protonated)
O=C([N-]c1ccccc1N1CCCCC1)c1[nH]ncc1Cl (3D coordinates assigned)
O=C([N-]c1ccccc1N1CCCCC1)c1[nH]ncc1Cl (nonaromatic ring conformer: 80.43884594289608 kcal/mol)

>  <smiles>  (42) 
O=C(Nc1ccccc1N1CCCCC1)c1[nH]ncc1Cl

>  <score_type>  (42) 
oracle

>  <origin>  (42) 
adgpu

>  <m_score__min__energy>  (42) 
-9.1300000000000008

>  <m_primary>  (42) 
energy

$$$$
42:0
     RDKit          3D

 39 41  0  0  0  0  0  0  0  0999 V2000
   -2.2500   22.1930  -29.8430 O   0  0  0  0  0  0  0  0  0  0  0  0
   -3.0440   22.5080  -30.7550 N   0  0  0  0  0  0  0  0  0  0  0  0
   -2.7140   22.1850  -32.0520 O   0  0  0  0  0  0  0  0  0  0  0  0
   -4.2770   23.1910  -30.4460 C   0  0  0  0  0  0  0  0  0  0  0  0
   -5.4980   22.4880  -30.4900 C   0  0  0  0  0  0  0  0  0  0  0  0
   -6.7110   23.1240  -30.1690 C   0  0  0  0  0  0  0  0  0  0  0  0
   -7.9660   22.4290  -30.1840 N   0  0  0  0  0  0  0  0  0  0  0  0
   -8.8060   21.9150  -31.6110 S   0  0  0  0  0  0  0  0  0  0  0  0
   -8.8770   23.0610  -32.5810 O   0  0  0  0  0  0  0  0  0  0  0  0
  -10.2030   21.5020  -31.2400 O   0  0  0  0  0  0  0  0  0  0  0  0
   -7.9750   20.5370  -32.3240 C   0  0  0  0  0  0  0  0  0  0  0  0
   -8.4500   19.2340  -32.1240 C   0  0  0  0  0  0  0  0  0  0  0  0
   -7.8150   18.1520  -32.7410 C   0  0  0  0  0  0  0  0  0  0  0  0
   -6.7010   18.3650  -33.5720 C   0  0  0  0  0  0  0  0  0  0  0  0
   -6.0400   17.3050  -34.2090 O   0  0  0  0  0  0  0  0  0  0  0  0
   -5.6690   16.0970  -33.5980 C   0  0  0  0  0  0  0  0  0  0  0  0
   -5.0070   16.0640  -32.3560 C   0  0  0  0  0  0  0  0  0  0  0  0
   -4.6690   14.8390  -31.7720 C   0  0  0  0  0  0  0  0  0  0  0  0
   -4.9980   13.6420  -32.4140 C   0  0  0  0  0  0  0  0  0  0  0  0
   -5.6730   13.6690  -33.6370 C   0  0  0  0  0  0  0  0  0  0  0  0
   -6.0120   14.8920  -34.2240 C   0  0  0  0  0  0  0  0  0  0  0  0
   -6.2080   19.6640  -33.7390 C   0  0  0  0  0  0  0  0  0  0  0  0
   -6.8460   20.7460  -33.1260 C   0  0  0  0  0  0  0  0  0  0  0  0
   -6.7000   24.4780  -29.8210 C   0  0  0  0  0  0  0  0  0  0  0  0
   -5.5010   25.1890  -29.7800 C   0  0  0  0  0  0  0  0  0  0  0  0
   -4.2930   24.5570  -30.0860 C   0  0  0  0  0  0  0  0  0  0  0  0
   -3.1180   25.2980  -30.0200 O   0  0  0  0  0  0  0  0  0  0  0  0
   -5.5024   21.4268  -30.7795 H   0  0  0  0  0  0  0  0  0  0  0  0
   -9.3249   19.0620  -31.4798 H   0  0  0  0  0  0  0  0  0  0  0  0
   -8.1882   17.1305  -32.5758 H   0  0  0  0  0  0  0  0  0  0  0  0
   -4.7549   17.0041  -31.8436 H   0  0  0  0  0  0  0  0  0  0  0  0
   -4.1434   14.8176  -30.8059 H   0  0  0  0  0  0  0  0  0  0  0  0
   -4.7257   12.6793  -31.9568 H   0  0  0  0  0  0  0  0  0  0  0  0
   -5.9381   12.7267  -34.1389 H   0  0  0  0  0  0  0  0  0  0  0  0
   -6.5511   14.9078  -35.1827 H   0  0  0  0  0  0  0  0  0  0  0  0
   -5.3135   19.8345  -34.3561 H   0  0  0  0  0  0  0  0  0  0  0  0
   -6.4600   21.7654  -33.2740 H   0  0  0  0  0  0  0  0  0  0  0  0
   -7.6445   24.9865  -29.5776 H   0  0  0  0  0  0  0  0  0  0  0  0
   -5.5063   26.2541  -29.5050 H   0  0  0  0  0  0  0  0  0  0  0  0
  1  2  2  0
  2  3  1  0
  2  4  1  0
  4  5  2  0
  5  6  1  0
  6  7  1  0
  7  8  1  0
  8  9  2  0
  8 10  2  0
  8 11  1  0
 11 12  2  0
 12 13  1  0
 13 14  2  0
 14 15  1  0
 15 16  1  0
 16 17  2  0
 17 18  1  0
 18 19  2  0
 19 20  1  0
 20 21  2  0
 14 22  1  0
 22 23  2  0
  6 24  2  0
 24 25  1  0
 25 26  2  0
 26 27  1  0
 26  4  1  0
 23 11  1  0
 21 16  1  0
  5 28  1  0
 12 29  1  0
 13 30  1  0
 17 31  1  0
 18 32  1  0
 19 33  1  0
 20 34  1  0
 21 35  1  0
 22 36  1  0
 23 37  1  0
 24 38  1  0
 25 39  1  0
M  CHG  4   2   1   3  -1   7  -1  27  -1
M  END
>  <UniqueID>  (43) 
40

>  <SMILES>  (43) 
O=[N+]([O-])c1cc([N-]S(=O)(=O)c2ccc(Oc3ccccc3)cc2)ccc1[O-]

>  <Energy>  (43) 
54.25174360205041

>  <Genealogy>  (43) 
O=[N+]([O-])c1cc([N-]S(=O)(=O)c2ccc(Oc3ccccc3)cc2)ccc1[O-] (protonated)
O=[N+]([O-])c1cc([N-]S(=O)(=O)c2ccc(Oc3ccccc3)cc2)ccc1[O-] (3D coordinates assigned)
O=[N+]([O-])c1cc([N-]S(=O)(=O)c2ccc(Oc3ccccc3)cc2)ccc1[O-] (optimized conformer: 54.25174360205041 kcal/mol)

>  <smiles>  (43) 
O=[N+]([O-])c1cc(NS(=O)(=O)c2ccc(Oc3ccccc3)cc2)ccc1O

>  <score_type>  (43) 
oracle

>  <origin>  (43) 
adgpu

>  <m_score__min__energy>  (43) 
-11.35

>  <m_primary>  (43) 
energy

$$$$
43:0
     RDKit          3D

 53 55  0  0  0  0  0  0  0  0999 V2000
   -2.9760   20.3430  -32.6900 C   0  0  0  0  0  0  0  0  0  0  0  0
   -4.1840   20.9740  -33.3940 C   0  0  0  0  0  0  0  0  0  0  0  0
   -5.3860   21.1090  -32.5400 N   0  0  0  0  0  0  0  0  0  0  0  0
   -5.0530   21.2950  -31.1140 C   0  0  0  0  0  0  0  0  0  0  0  0
   -5.2350   22.7390  -30.7120 C   0  0  0  0  0  0  0  0  0  0  0  0
   -6.5320   23.2780  -30.6470 C   0  0  0  0  0  0  0  0  0  0  0  0
   -6.7280   24.6180  -30.3050 C   0  0  0  0  0  0  0  0  0  0  0  0
   -5.6330   25.4370  -30.0280 C   0  0  0  0  0  0  0  0  0  0  0  0
   -4.3390   24.9170  -30.0880 C   0  0  0  0  0  0  0  0  0  0  0  0
   -4.1280   23.5720  -30.4200 C   0  0  0  0  0  0  0  0  0  0  0  0
   -2.4350   22.9620  -30.4820 S   0  0  0  0  0  0  0  0  0  0  0  0
   -1.9320   23.9020  -29.0420 C   0  0  0  0  0  0  0  0  0  0  0  0
   -2.5850   23.7350  -27.8230 C   0  0  0  0  0  0  0  0  0  0  0  0
   -2.1690   24.4790  -26.7210 C   0  0  0  0  0  0  0  0  0  0  0  0
   -1.1080   25.3900  -26.8610 C   0  0  0  0  0  0  0  0  0  0  0  0
   -0.6300   26.1800  -25.7460 N   0  0  0  0  0  0  0  0  0  0  0  0
    0.6610   26.8810  -25.8200 C   0  0  0  0  0  0  0  0  0  0  0  0
    1.4930   26.6550  -24.5400 C   0  0  0  0  0  0  0  0  0  0  0  0
    0.6780   26.3640  -23.3430 N   0  0  0  0  0  0  0  0  0  0  0  0
   -0.6520   26.9850  -23.4000 C   0  0  0  0  0  0  0  0  0  0  0  0
   -1.4660   26.3780  -24.5500 C   0  0  0  0  0  0  0  0  0  0  0  0
   -0.5200   25.5140  -28.0850 N   0  0  0  0  0  0  0  0  0  0  0  0
   -0.9170   24.7980  -29.1370 N   0  0  0  0  0  0  0  0  0  0  0  0
   -6.5380   19.8070  -32.7710 S   0  0  0  0  0  0  0  0  0  0  0  0
   -6.1150   18.7990  -34.1790 C   0  0  0  0  0  0  0  0  0  0  0  0
   -6.6050   18.9360  -31.5470 O   0  0  0  0  0  0  0  0  0  0  0  0
   -7.8980   20.3960  -33.0210 O   0  0  0  0  0  0  0  0  0  0  0  0
   -3.1091   20.4125  -31.6003 H   0  0  0  0  0  0  0  0  0  0  0  0
   -2.8921   19.2859  -32.9824 H   0  0  0  0  0  0  0  0  0  0  0  0
   -2.0605   20.8781  -32.9824 H   0  0  0  0  0  0  0  0  0  0  0  0
   -3.8946   21.9765  -33.7422 H   0  0  0  0  0  0  0  0  0  0  0  0
   -4.4573   20.2974  -34.2171 H   0  0  0  0  0  0  0  0  0  0  0  0
   -5.7139   20.6631  -30.5026 H   0  0  0  0  0  0  0  0  0  0  0  0
   -4.0023   21.0111  -30.9543 H   0  0  0  0  0  0  0  0  0  0  0  0
   -7.3998   22.6389  -30.8674 H   0  0  0  0  0  0  0  0  0  0  0  0
   -7.7474   25.0282  -30.2540 H   0  0  0  0  0  0  0  0  0  0  0  0
   -5.7895   26.4929  -29.7622 H   0  0  0  0  0  0  0  0  0  0  0  0
   -3.4786   25.5678  -29.8731 H   0  0  0  0  0  0  0  0  0  0  0  0
   -3.4194   23.0240  -27.7315 H   0  0  0  0  0  0  0  0  0  0  0  0
   -2.6674   24.3543  -25.7483 H   0  0  0  0  0  0  0  0  0  0  0  0
    1.2250   26.5038  -26.6858 H   0  0  0  0  0  0  0  0  0  0  0  0
    0.4667   27.9588  -25.9233 H   0  0  0  0  0  0  0  0  0  0  0  0
    2.1712   25.8063  -24.7125 H   0  0  0  0  0  0  0  0  0  0  0  0
    2.0335   27.5918  -24.3396 H   0  0  0  0  0  0  0  0  0  0  0  0
    1.1790   26.7180  -22.4940 H   0  0  0  0  0  0  0  0  0  0  0  0
    0.5690   25.3260  -23.2380 H   0  0  0  0  0  0  0  0  0  0  0  0
   -1.1771   26.8091  -22.4496 H   0  0  0  0  0  0  0  0  0  0  0  0
   -0.5387   28.0660  -23.5693 H   0  0  0  0  0  0  0  0  0  0  0  0
   -1.8705   25.4065  -24.2298 H   0  0  0  0  0  0  0  0  0  0  0  0
   -2.2808   27.0717  -24.8048 H   0  0  0  0  0  0  0  0  0  0  0  0
   -5.7110   17.8363  -33.8326 H   0  0  0  0  0  0  0  0  0  0  0  0
   -7.0147   18.6218  -34.7866 H   0  0  0  0  0  0  0  0  0  0  0  0
   -5.3583   19.3169  -34.7866 H   0  0  0  0  0  0  0  0  0  0  0  0
  1  2  1  0
  2  3  1  0
  3  4  1  0
  4  5  1  0
  5  6  2  0
  6  7  1  0
  7  8  2  0
  8  9  1  0
  9 10  2  0
 10 11  1  0
 11 12  1  0
 12 13  2  0
 13 14  1  0
 14 15  2  0
 15 16  1  0
 16 17  1  0
 17 18  1  0
 18 19  1  0
 19 20  1  0
 20 21  1  0
 15 22  1  0
 22 23  2  0
  3 24  1  0
 24 25  1  0
 24 26  2  0
 24 27  2  0
 10  5  1  0
 23 12  1  0
 21 16  1  0
  1 28  1  0
  1 29  1  0
  1 30  1  0
  2 31  1  0
  2 32  1  0
  4 33  1  0
  4 34  1  0
  6 35  1  0
  7 36  1  0
  8 37  1  0
  9 38  1  0
 13 39  1  0
 14 40  1  0
 17 41  1  0
 17 42  1  0
 18 43  1  0
 18 44  1  0
 19 45  1  0
 19 46  1  0
 20 47  1  0
 20 48  1  0
 21 49  1  0
 21 50  1  0
 25 51  1  0
 25 52  1  0
 25 53  1  0
M  CHG  1  19   1
M  END
>  <UniqueID>  (44) 
41

>  <SMILES>  (44) 
CCN(Cc1ccccc1Sc1ccc(N2CC[NH2+]CC2)nn1)S(C)(=O)=O

>  <Energy>  (44) 
53.95393284099678

>  <Genealogy>  (44) 
CCN(Cc1ccccc1Sc1ccc(N2CC[NH2+]CC2)nn1)S(C)(=O)=O (protonated)
CCN(Cc1ccccc1Sc1ccc(N2CC[NH2+]CC2)nn1)S(C)(=O)=O (3D coordinates assigned)
CCN(Cc1ccccc1Sc1ccc(N2CC[NH2+]CC2)nn1)S(C)(=O)=O (nonaromatic ring conformer: 53.95393284099678 kcal/mol)

>  <smiles>  (44) 
CCN(Cc1ccccc1Sc1ccc(N2CCNCC2)nn1)S(C)(=O)=O

>  <score_type>  (44) 
oracle

>  <origin>  (44) 
adgpu

>  <m_score__min__energy>  (44) 
-9.8599999999999994

>  <m_primary>  (44) 
energy

$$$$
44:0
     RDKit          3D

 43 45  0  0  0  0  0  0  0  0999 V2000
   -9.0800   19.8580  -32.3690 C   0  0  0  0  0  0  0  0  0  0  0  0
   -7.5860   19.9870  -32.4260 C   0  0  0  0  0  0  0  0  0  0  0  0
   -6.7740   18.8480  -32.3330 C   0  0  0  0  0  0  0  0  0  0  0  0
   -5.3830   18.9640  -32.4240 C   0  0  0  0  0  0  0  0  0  0  0  0
   -4.7870   20.2180  -32.6380 C   0  0  0  0  0  0  0  0  0  0  0  0
   -3.3180   20.3600  -32.7230 C   0  0  0  0  0  0  0  0  0  0  0  0
   -2.6080   19.9530  -33.7910 N   0  0  0  0  0  0  0  0  0  0  0  0
   -1.3460   20.3320  -33.5070 C   0  0  0  0  0  0  0  0  0  0  0  0
    0.0320   20.0350  -34.6110 S   0  0  0  0  0  0  0  0  0  0  0  0
    0.2120   21.7850  -35.0880 C   0  0  0  0  0  0  0  0  0  0  0  0
    0.1810   21.9110  -36.4650 F   0  0  0  0  0  0  0  0  0  0  0  0
    1.4020   22.2930  -34.6000 F   0  0  0  0  0  0  0  0  0  0  0  0
   -1.2100   20.9490  -32.3160 N   0  0  0  0  0  0  0  0  0  0  0  0
   -2.4590   20.9660  -31.8150 C   0  0  0  0  0  0  0  0  0  0  0  0
   -2.7740   21.4740  -30.4620 C   0  0  0  0  0  0  0  0  0  0  0  0
   -2.3660   20.7620  -29.3250 C   0  0  0  0  0  0  0  0  0  0  0  0
   -2.6530   21.2480  -28.0490 C   0  0  0  0  0  0  0  0  0  0  0  0
   -3.3340   22.4560  -27.8940 C   0  0  0  0  0  0  0  0  0  0  0  0
   -3.7290   23.2020  -29.0200 C   0  0  0  0  0  0  0  0  0  0  0  0
   -4.4340   24.4520  -28.8870 N   0  0  0  0  0  0  0  0  0  0  0  0
   -5.6640   25.0040  -29.9810 S   0  0  0  0  0  0  0  0  0  0  0  0
   -6.7470   23.6610  -30.4200 C   0  0  0  0  0  0  0  0  0  0  0  0
   -6.4780   26.0680  -29.2990 O   0  0  0  0  0  0  0  0  0  0  0  0
   -5.0330   25.5950  -31.2100 O   0  0  0  0  0  0  0  0  0  0  0  0
   -3.4450   22.7010  -30.3050 C   0  0  0  0  0  0  0  0  0  0  0  0
   -3.8350   23.4010  -31.4010 F   0  0  0  0  0  0  0  0  0  0  0  0
   -5.6020   21.3570  -32.7260 C   0  0  0  0  0  0  0  0  0  0  0  0
   -6.9920   21.2410  -32.6350 C   0  0  0  0  0  0  0  0  0  0  0  0
   -9.4058   19.8299  -31.3187 H   0  0  0  0  0  0  0  0  0  0  0  0
   -9.5419   20.7196  -32.8732 H   0  0  0  0  0  0  0  0  0  0  0  0
   -9.3874   18.9300  -32.8732 H   0  0  0  0  0  0  0  0  0  0  0  0
   -7.2327   17.8588  -32.1878 H   0  0  0  0  0  0  0  0  0  0  0  0
   -4.7521   18.0681  -32.3274 H   0  0  0  0  0  0  0  0  0  0  0  0
   -0.6253   22.3531  -34.6565 H   0  0  0  0  0  0  0  0  0  0  0  0
   -1.8170   19.8157  -29.4396 H   0  0  0  0  0  0  0  0  0  0  0  0
   -2.3413   20.6768  -27.1621 H   0  0  0  0  0  0  0  0  0  0  0  0
   -3.5637   22.8278  -26.8845 H   0  0  0  0  0  0  0  0  0  0  0  0
   -4.2710   25.0410  -28.0410 H   0  0  0  0  0  0  0  0  0  0  0  0
   -7.1306   23.1853  -29.5054 H   0  0  0  0  0  0  0  0  0  0  0  0
   -7.5889   24.0477  -31.0130 H   0  0  0  0  0  0  0  0  0  0  0  0
   -6.1906   22.9201  -31.0130 H   0  0  0  0  0  0  0  0  0  0  0  0
   -5.1442   22.3471  -32.8675 H   0  0  0  0  0  0  0  0  0  0  0  0
   -7.6233   22.1371  -32.7277 H   0  0  0  0  0  0  0  0  0  0  0  0
  1  2  1  0
  2  3  2  0
  3  4  1  0
  4  5  2  0
  5  6  1  0
  6  7  1  0
  7  8  1  0
  8  9  1  0
  9 10  1  0
 10 11  1  0
 10 12  1  0
  8 13  2  0
 13 14  1  0
 14 15  1  0
 15 16  2  0
 16 17  1  0
 17 18  2  0
 18 19  1  0
 19 20  1  0
 20 21  1  0
 21 22  1  0
 21 23  2  0
 21 24  2  0
 19 25  2  0
 25 26  1  0
  5 27  1  0
 27 28  2  0
 28  2  1  0
 14  6  2  0
 25 15  1  0
  1 29  1  0
  1 30  1  0
  1 31  1  0
  3 32  1  0
  4 33  1  0
 10 34  1  0
 16 35  1  0
 17 36  1  0
 18 37  1  0
 20 38  1  0
 22 39  1  0
 22 40  1  0
 22 41  1  0
 27 42  1  0
 28 43  1  0
M  CHG  1   7  -1
M  END
>  <UniqueID>  (45) 
42

>  <SMILES>  (45) 
Cc1ccc(-c2[n-]c(SC(F)F)nc2-c2cccc(NS(C)(=O)=O)c2F)cc1

>  <Energy>  (45) 
76.18494449887113

>  <Genealogy>  (45) 
Cc1ccc(-c2[n-]c(SC(F)F)nc2-c2cccc(NS(C)(=O)=O)c2F)cc1 (protonated)
Cc1ccc(-c2[n-]c(SC(F)F)nc2-c2cccc(NS(C)(=O)=O)c2F)cc1 (3D coordinates assigned)
Cc1ccc(-c2[n-]c(SC(F)F)nc2-c2cccc(NS(C)(=O)=O)c2F)cc1 (optimized conformer: 76.18494449887113 kcal/mol)

>  <smiles>  (45) 
Cc1ccc(-c2[nH]c(SC(F)F)nc2-c2cccc(NS(C)(=O)=O)c2F)cc1

>  <score_type>  (45) 
oracle

>  <origin>  (45) 
adgpu

>  <m_score__min__energy>  (45) 
-8.9800000000000004

>  <m_primary>  (45) 
energy

$$$$
45:0
     RDKit          3D

 42 44  0  0  0  0  0  0  0  0999 V2000
   -8.4870   23.3700  -31.8960 O   0  0  0  0  0  0  0  0  0  0  0  0
   -7.1030   22.7890  -31.8190 S   0  0  0  0  0  0  0  0  0  0  0  0
   -6.8870   22.1900  -30.4570 O   0  0  0  0  0  0  0  0  0  0  0  0
   -6.9330   21.5670  -33.0360 N   0  0  0  0  0  0  0  0  0  0  0  0
   -7.0730   20.1570  -32.8190 C   0  0  0  0  0  0  0  0  0  0  0  0
   -7.8650   19.6330  -31.7810 C   0  0  0  0  0  0  0  0  0  0  0  0
   -7.9620   18.2490  -31.6020 C   0  0  0  0  0  0  0  0  0  0  0  0
   -7.2740   17.3810  -32.4540 C   0  0  0  0  0  0  0  0  0  0  0  0
   -6.4880   17.8960  -33.4870 C   0  0  0  0  0  0  0  0  0  0  0  0
   -6.3890   19.2780  -33.6700 C   0  0  0  0  0  0  0  0  0  0  0  0
   -5.9490   24.0550  -32.1140 N   0  0  0  0  0  0  0  0  0  0  0  0
   -5.0900   24.4250  -30.6500 S   0  0  0  0  0  0  0  0  0  0  0  0
   -4.2790   25.6730  -30.8580 O   0  0  0  0  0  0  0  0  0  0  0  0
   -6.0770   24.6760  -29.5440 O   0  0  0  0  0  0  0  0  0  0  0  0
   -4.0210   23.1190  -30.2230 N   0  0  0  0  0  0  0  0  0  0  0  0
   -3.4700   23.0630  -28.8660 C   0  0  0  0  0  0  0  0  0  0  0  0
   -2.2700   23.9500  -28.7600 C   0  0  0  0  0  0  0  0  0  0  0  0
   -0.9800   23.5410  -28.5280 C   0  0  0  0  0  0  0  0  0  0  0  0
   -0.1690   24.6120  -28.5850 N   0  0  0  0  0  0  0  0  0  0  0  0
   -1.0000   25.6400  -28.8590 C   0  0  0  0  0  0  0  0  0  0  0  0
   -2.2930   25.2750  -28.9840 N   0  0  0  0  0  0  0  0  0  0  0  0
   -3.7650   22.0560  -31.1590 C   0  0  0  0  0  0  0  0  0  0  0  0
   -3.5540   20.7450  -30.7060 C   0  0  0  0  0  0  0  0  0  0  0  0
   -3.3200   19.7110  -31.6170 C   0  0  0  0  0  0  0  0  0  0  0  0
   -3.3050   19.9770  -32.9900 C   0  0  0  0  0  0  0  0  0  0  0  0
   -3.0140   18.6790  -34.1330 Cl  0  0  0  0  0  0  0  0  0  0  0  0
   -3.5270   21.2790  -33.4500 C   0  0  0  0  0  0  0  0  0  0  0  0
   -3.7590   22.3140  -32.5400 C   0  0  0  0  0  0  0  0  0  0  0  0
   -8.4090   20.3129  -31.1089 H   0  0  0  0  0  0  0  0  0  0  0  0
   -8.5813   17.8430  -30.7886 H   0  0  0  0  0  0  0  0  0  0  0  0
   -7.3515   16.2931  -32.3111 H   0  0  0  0  0  0  0  0  0  0  0  0
   -5.9460   17.2130  -34.1576 H   0  0  0  0  0  0  0  0  0  0  0  0
   -5.7705   19.6784  -34.4868 H   0  0  0  0  0  0  0  0  0  0  0  0
   -6.4910   24.9100  -32.3720 H   0  0  0  0  0  0  0  0  0  0  0  0
   -4.2342   23.3980  -28.1492 H   0  0  0  0  0  0  0  0  0  0  0  0
   -3.1730   22.0280  -28.6411 H   0  0  0  0  0  0  0  0  0  0  0  0
   -0.6622   22.5070  -28.3283 H   0  0  0  0  0  0  0  0  0  0  0  0
   -0.6551   26.6786  -28.9700 H   0  0  0  0  0  0  0  0  0  0  0  0
   -3.5728   20.5296  -29.6275 H   0  0  0  0  0  0  0  0  0  0  0  0
   -3.1475   18.6871  -31.2537 H   0  0  0  0  0  0  0  0  0  0  0  0
   -3.5190   21.4887  -34.5298 H   0  0  0  0  0  0  0  0  0  0  0  0
   -3.9378   23.3355  -32.9068 H   0  0  0  0  0  0  0  0  0  0  0  0
  1  2  2  0
  2  3  2  0
  2  4  1  0
  4  5  1  0
  5  6  2  0
  6  7  1  0
  7  8  2  0
  8  9  1  0
  9 10  2  0
  2 11  1  0
 11 12  1  0
 12 13  2  0
 12 14  2  0
 12 15  1  0
 15 16  1  0
 16 17  1  0
 17 18  2  0
 18 19  1  0
 19 20  1  0
 20 21  2  0
 15 22  1  0
 22 23  2  0
 23 24  1  0
 24 25  2  0
 25 26  1  0
 25 27  1  0
 27 28  2  0
 10  5  1  0
 21 17  1  0
 28 22  1  0
  6 29  1  0
  7 30  1  0
  8 31  1  0
  9 32  1  0
 10 33  1  0
 11 34  1  0
 16 35  1  0
 16 36  1  0
 18 37  1  0
 20 38  1  0
 23 39  1  0
 24 40  1  0
 27 41  1  0
 28 42  1  0
M  CHG  2   4  -1  19  -1
M  END
>  <UniqueID>  (46) 
43

>  <SMILES>  (46) 
O=S(=O)([N-]c1ccccc1)NS(=O)(=O)N(Cc1c[n-]cn1)c1ccc(Cl)cc1

>  <Energy>  (46) 
70.8183478550168

>  <Genealogy>  (46) 
O=S(=O)([N-]c1ccccc1)NS(=O)(=O)N(Cc1c[n-]cn1)c1ccc(Cl)cc1 (protonated)
O=S(=O)([N-]c1ccccc1)NS(=O)(=O)N(Cc1c[n-]cn1)c1ccc(Cl)cc1 (3D coordinates assigned)
O=S(=O)([N-]c1ccccc1)NS(=O)(=O)N(Cc1c[n-]cn1)c1ccc(Cl)cc1 (optimized conformer: 70.8183478550168 kcal/mol)

>  <smiles>  (46) 
O=S(=O)(Nc1ccccc1)NS(=O)(=O)N(Cc1c[nH]cn1)c1ccc(Cl)cc1

>  <score_type>  (46) 
oracle

>  <origin>  (46) 
adgpu

>  <m_score__min__energy>  (46) 
-10.65

>  <m_primary>  (46) 
energy

$$$$
46:0
     RDKit          3D

 48 50  0  0  0  0  0  0  0  0999 V2000
   -0.7070   27.0190  -27.8290 C   0  0  0  0  0  0  0  0  0  0  0  0
   -1.3210   26.1720  -28.7960 O   0  0  0  0  0  0  0  0  0  0  0  0
   -1.6210   24.8170  -28.5910 C   0  0  0  0  0  0  0  0  0  0  0  0
   -0.8760   24.0110  -27.7070 C   0  0  0  0  0  0  0  0  0  0  0  0
   -1.2120   22.6660  -27.5270 C   0  0  0  0  0  0  0  0  0  0  0  0
   -2.2900   22.1130  -28.2200 C   0  0  0  0  0  0  0  0  0  0  0  0
   -3.0330   22.9030  -29.1010 C   0  0  0  0  0  0  0  0  0  0  0  0
   -2.6990   24.2490  -29.2930 C   0  0  0  0  0  0  0  0  0  0  0  0
   -3.4510   25.0330  -30.2180 N   0  0  0  0  0  0  0  0  0  0  0  0
   -5.1500   24.7730  -30.4190 S   0  0  0  0  0  0  0  0  0  0  0  0
   -5.7320   25.9090  -31.2120 O   0  0  0  0  0  0  0  0  0  0  0  0
   -5.8180   24.7350  -29.0730 O   0  0  0  0  0  0  0  0  0  0  0  0
   -5.4240   23.2570  -31.2720 C   0  0  0  0  0  0  0  0  0  0  0  0
   -4.3820   22.6400  -31.9740 C   0  0  0  0  0  0  0  0  0  0  0  0
   -4.5830   21.4020  -32.5900 C   0  0  0  0  0  0  0  0  0  0  0  0
   -5.8340   20.7620  -32.5160 C   0  0  0  0  0  0  0  0  0  0  0  0
   -6.0210   19.4380  -33.1550 C   0  0  0  0  0  0  0  0  0  0  0  0
   -6.8280   19.3350  -34.1200 O   0  0  0  0  0  0  0  0  0  0  0  0
   -5.2940   18.2810  -32.7000 N   0  0  0  0  0  0  0  0  0  0  0  0
   -5.4600   16.9670  -33.2610 C   0  0  0  0  0  0  0  0  0  0  0  0
   -6.7280   16.5170  -33.6720 C   0  0  0  0  0  0  0  0  0  0  0  0
   -6.8870   15.2300  -34.1900 C   0  0  0  0  0  0  0  0  0  0  0  0
   -5.7890   14.3760  -34.2890 C   0  0  0  0  0  0  0  0  0  0  0  0
   -4.5280   14.8020  -33.8660 C   0  0  0  0  0  0  0  0  0  0  0  0
   -4.3530   16.0990  -33.3430 C   0  0  0  0  0  0  0  0  0  0  0  0
   -3.1010   16.5610  -32.9080 O   0  0  0  0  0  0  0  0  0  0  0  0
   -2.2900   17.4890  -33.6210 C   0  0  0  0  0  0  0  0  0  0  0  0
   -6.8730   21.3830  -31.7980 C   0  0  0  0  0  0  0  0  0  0  0  0
   -6.6680   22.6220  -31.1850 C   0  0  0  0  0  0  0  0  0  0  0  0
   -0.9621   26.6670  -26.8185 H   0  0  0  0  0  0  0  0  0  0  0  0
    0.3848   26.9948  -27.9609 H   0  0  0  0  0  0  0  0  0  0  0  0
   -1.0696   28.0491  -27.9609 H   0  0  0  0  0  0  0  0  0  0  0  0
   -0.0268   24.4419  -27.1565 H   0  0  0  0  0  0  0  0  0  0  0  0
   -0.6251   22.0417  -26.8372 H   0  0  0  0  0  0  0  0  0  0  0  0
   -2.5546   21.0555  -28.0726 H   0  0  0  0  0  0  0  0  0  0  0  0
   -3.8831   22.4660  -29.6455 H   0  0  0  0  0  0  0  0  0  0  0  0
   -3.4004   23.1319  -32.0411 H   0  0  0  0  0  0  0  0  0  0  0  0
   -3.7569   20.9240  -33.1370 H   0  0  0  0  0  0  0  0  0  0  0  0
   -4.5750   18.3920  -31.9530 H   0  0  0  0  0  0  0  0  0  0  0  0
   -7.5992   17.1828  -33.5848 H   0  0  0  0  0  0  0  0  0  0  0  0
   -7.8794   14.8894  -34.5203 H   0  0  0  0  0  0  0  0  0  0  0  0
   -5.9164   13.3642  -34.7013 H   0  0  0  0  0  0  0  0  0  0  0  0
   -3.6669   14.1217  -33.9414 H   0  0  0  0  0  0  0  0  0  0  0  0
   -1.7394   18.1190  -32.9069 H   0  0  0  0  0  0  0  0  0  0  0  0
   -1.5757   16.9414  -34.2535 H   0  0  0  0  0  0  0  0  0  0  0  0
   -2.9283   18.1235  -34.2535 H   0  0  0  0  0  0  0  0  0  0  0  0
   -7.8530   20.8898  -31.7188 H   0  0  0  0  0  0  0  0  0  0  0  0
   -7.4890   23.1007  -30.6311 H   0  0  0  0  0  0  0  0  0  0  0  0
  1  2  1  0
  2  3  1  0
  3  4  2  0
  4  5  1  0
  5  6  2  0
  6  7  1  0
  7  8  2  0
  8  9  1  0
  9 10  1  0
 10 11  2  0
 10 12  2  0
 10 13  1  0
 13 14  2  0
 14 15  1  0
 15 16  2  0
 16 17  1  0
 17 18  2  0
 17 19  1  0
 19 20  1  0
 20 21  2  0
 21 22  1  0
 22 23  2  0
 23 24  1  0
 24 25  2  0
 25 26  1  0
 26 27  1  0
 16 28  1  0
 28 29  2  0
  8  3  1  0
 29 13  1  0
 25 20  1  0
  1 30  1  0
  1 31  1  0
  1 32  1  0
  4 33  1  0
  5 34  1  0
  6 35  1  0
  7 36  1  0
 14 37  1  0
 15 38  1  0
 19 39  1  0
 21 40  1  0
 22 41  1  0
 23 42  1  0
 24 43  1  0
 27 44  1  0
 27 45  1  0
 27 46  1  0
 28 47  1  0
 29 48  1  0
M  CHG  1   9  -1
M  END
>  <UniqueID>  (47) 
44

>  <SMILES>  (47) 
COc1ccccc1[N-]S(=O)(=O)c1ccc(C(=O)Nc2ccccc2OC)cc1

>  <Energy>  (47) 
64.58966749316538

>  <Genealogy>  (47) 
COc1ccccc1[N-]S(=O)(=O)c1ccc(C(=O)Nc2ccccc2OC)cc1 (protonated)
COc1ccccc1[N-]S(=O)(=O)c1ccc(C(=O)Nc2ccccc2OC)cc1 (3D coordinates assigned)
COc1ccccc1[N-]S(=O)(=O)c1ccc(C(=O)Nc2ccccc2OC)cc1 (optimized conformer: 64.58966749316538 kcal/mol)

>  <smiles>  (47) 
COc1ccccc1NC(=O)c1ccc(S(=O)(=O)Nc2ccccc2OC)cc1

>  <score_type>  (47) 
oracle

>  <origin>  (47) 
adgpu

>  <m_score__min__energy>  (47) 
-10.16

>  <m_primary>  (47) 
energy

$$$$
