0:0
     RDKit          3D

 49 51  0  0  0  0  0  0  0  0999 V2000
   -5.7520   25.1580  -30.7270 C   0  0  0  0  0  0  0  0  0  0  0  0
   -4.6620   24.3240  -31.1080 O   0  0  0  0  0  0  0  0  0  0  0  0
   -3.6600   23.8740  -30.2320 C   0  0  0  0  0  0  0  0  0  0  0  0
   -3.4910   24.4190  -28.9470 C   0  0  0  0  0  0  0  0  0  0  0  0
   -2.4880   23.9330  -28.1030 C   0  0  0  0  0  0  0  0  0  0  0  0
   -2.2790   24.5240  -26.7400 C   0  0  0  0  0  0  0  0  0  0  0  0
   -1.6370   22.9300  -28.5730 C   0  0  0  0  0  0  0  0  0  0  0  0
   -1.8050   22.4100  -29.8180 N   0  0  0  0  0  0  0  0  0  0  0  0
   -2.7990   22.8450  -30.6540 C   0  0  0  0  0  0  0  0  0  0  0  0
   -2.9780   22.3290  -31.8380 N   0  0  0  0  0  0  0  0  0  0  0  0
   -2.0730   21.0280  -32.5490 S   0  0  0  0  0  0  0  0  0  0  0  0
   -1.3580   21.5350  -33.7690 O   0  0  0  0  0  0  0  0  0  0  0  0
   -1.0480   20.5290  -31.5680 O   0  0  0  0  0  0  0  0  0  0  0  0
   -3.1750   19.7400  -33.0320 C   0  0  0  0  0  0  0  0  0  0  0  0
   -2.8000   18.8590  -34.0480 C   0  0  0  0  0  0  0  0  0  0  0  0
   -3.6910   17.8830  -34.4960 C   0  0  0  0  0  0  0  0  0  0  0  0
   -4.9820   17.7840  -33.9470 C   0  0  0  0  0  0  0  0  0  0  0  0
   -5.9220   16.7360  -34.4830 C   0  0  0  0  0  0  0  0  0  0  0  0
   -5.3560   18.6600  -32.8970 C   0  0  0  0  0  0  0  0  0  0  0  0
   -6.9830   18.6540  -32.1970 S   0  0  0  0  0  0  0  0  0  0  0  0
   -6.9720   17.9900  -30.8490 O   0  0  0  0  0  0  0  0  0  0  0  0
   -7.9180   17.8880  -33.0920 O   0  0  0  0  0  0  0  0  0  0  0  0
   -7.5210   20.3200  -32.0050 C   0  0  0  0  0  0  0  0  0  0  0  0
   -8.7210   20.5860  -31.3310 C   0  0  0  0  0  0  0  0  0  0  0  0
   -9.1520   21.9050  -31.1560 C   0  0  0  0  0  0  0  0  0  0  0  0
   -8.3890   22.9620  -31.6590 C   0  0  0  0  0  0  0  0  0  0  0  0
   -7.1940   22.7020  -32.3380 C   0  0  0  0  0  0  0  0  0  0  0  0
   -6.7590   21.3840  -32.5110 C   0  0  0  0  0  0  0  0  0  0  0  0
   -4.4420   19.6280  -32.4490 C   0  0  0  0  0  0  0  0  0  0  0  0
   -5.8123   25.2041  -29.6296 H   0  0  0  0  0  0  0  0  0  0  0  0
   -5.5970   26.1703  -31.1286 H   0  0  0  0  0  0  0  0  0  0  0  0
   -6.6885   24.7437  -31.1286 H   0  0  0  0  0  0  0  0  0  0  0  0
   -4.1501   25.2304  -28.6046 H   0  0  0  0  0  0  0  0  0  0  0  0
   -2.5421   23.7801  -25.9735 H   0  0  0  0  0  0  0  0  0  0  0  0
   -1.2241   24.8132  -26.6235 H   0  0  0  0  0  0  0  0  0  0  0  0
   -2.9176   25.4120  -26.6235 H   0  0  0  0  0  0  0  0  0  0  0  0
   -0.8248   22.5581  -27.9311 H   0  0  0  0  0  0  0  0  0  0  0  0
   -1.1320   21.6720  -30.1110 H   0  0  0  0  0  0  0  0  0  0  0  0
   -1.7986   18.9345  -34.4969 H   0  0  0  0  0  0  0  0  0  0  0  0
   -3.3805   17.1840  -35.2865 H   0  0  0  0  0  0  0  0  0  0  0  0
   -6.3972   16.2062  -33.6442 H   0  0  0  0  0  0  0  0  0  0  0  0
   -6.6962   17.2180  -35.0981 H   0  0  0  0  0  0  0  0  0  0  0  0
   -5.3590   16.0186  -35.0981 H   0  0  0  0  0  0  0  0  0  0  0  0
   -9.3254   19.7549  -30.9386 H   0  0  0  0  0  0  0  0  0  0  0  0
  -10.0917   22.1103  -30.6223 H   0  0  0  0  0  0  0  0  0  0  0  0
   -8.7283   23.9992  -31.5209 H   0  0  0  0  0  0  0  0  0  0  0  0
   -6.5959   23.5348  -32.7363 H   0  0  0  0  0  0  0  0  0  0  0  0
   -5.8185   21.1814  -33.0443 H   0  0  0  0  0  0  0  0  0  0  0  0
   -4.7256   20.3058  -31.6304 H   0  0  0  0  0  0  0  0  0  0  0  0
  1  2  1  0
  2  3  1  0
  3  4  2  0
  4  5  1  0
  5  6  1  0
  5  7  2  0
  7  8  1  0
  8  9  1  0
  9 10  2  3
 10 11  1  0
 11 12  2  0
 11 13  2  0
 11 14  1  0
 14 15  2  0
 15 16  1  0
 16 17  2  0
 17 18  1  0
 17 19  1  0
 19 20  1  0
 20 21  2  0
 20 22  2  0
 20 23  1  0
 23 24  2  0
 24 25  1  0
 25 26  2  0
 26 27  1  0
 27 28  2  0
 19 29  2  0
  9  3  1  0
 29 14  1  0
 28 23  1  0
  1 30  1  0
  1 31  1  0
  1 32  1  0
  4 33  1  0
  6 34  1  0
  6 35  1  0
  6 36  1  0
  7 37  1  0
  8 38  1  0
 15 39  1  0
 16 40  1  0
 18 41  1  0
 18 42  1  0
 18 43  1  0
 24 44  1  0
 25 45  1  0
 26 46  1  0
 27 47  1  0
 28 48  1  0
 29 49  1  0
M  END
>  <UniqueID>  (1) 
1

>  <SMILES>  (1) 
COc1cc(C)c[nH]c1=NS(=O)(=O)c1ccc(C)c(S(=O)(=O)c2ccccc2)c1

>  <Energy>  (1) 
57.38285482782852

>  <Genealogy>  (1) 
COc1cc(C)c[nH]c1=NS(=O)(=O)c1ccc(C)c(S(=O)(=O)c2ccccc2)c1 (3D coordinates assigned)
COc1cc(C)c[nH]c1=NS(=O)(=O)c1ccc(C)c(S(=O)(=O)c2ccccc2)c1 (optimized conformer: 57.38285482782852 kcal/mol)

>  <smiles>  (1) 
COc1cc(C)c[nH]c1=NS(=O)(=O)c1ccc(C)c(S(=O)(=O)c2ccccc2)c1

>  <score_type>  (1) 
oracle

>  <origin>  (1) 
adgpu

>  <m_score__min__energy>  (1) 
-10.199999999999999

>  <m_primary>  (1) 
energy

$$$$
1:0
     RDKit          3D

 54 57  0  0  0  0  0  0  0  0999 V2000
   -6.4130   20.3150  -33.4450 C   0  0  0  0  0  0  0  0  0  0  0  0
   -6.8720   20.5960  -32.0640 C   0  0  0  0  0  0  0  0  0  0  0  0
   -7.1420   19.6410  -31.2710 O   0  0  0  0  0  0  0  0  0  0  0  0
   -7.0360   21.9040  -31.5490 N   0  0  0  0  0  0  0  0  0  0  0  0
   -7.4890   22.1060  -30.1870 C   0  0  0  0  0  0  0  0  0  0  0  0
   -6.3890   22.8060  -29.4250 C   0  0  0  0  0  0  0  0  0  0  0  0
   -5.6670   23.7510  -30.2470 N   0  0  0  0  0  0  0  0  0  0  0  0
   -4.3570   24.2090  -29.9940 C   0  0  0  0  0  0  0  0  0  0  0  0
   -3.8480   25.0420  -30.8020 O   0  0  0  0  0  0  0  0  0  0  0  0
   -3.5160   23.8150  -28.8800 C   0  0  0  0  0  0  0  0  0  0  0  0
   -3.3510   24.5520  -27.7310 C   0  0  0  0  0  0  0  0  0  0  0  0
   -2.5480   24.0490  -26.7220 C   0  0  0  0  0  0  0  0  0  0  0  0
   -1.9010   22.8190  -26.8370 C   0  0  0  0  0  0  0  0  0  0  0  0
   -2.0700   22.0840  -27.9950 C   0  0  0  0  0  0  0  0  0  0  0  0
   -1.3320   20.5210  -28.2560 S   0  0  0  0  0  0  0  0  0  0  0  0
   -0.1540   20.4370  -27.3140 O   0  0  0  0  0  0  0  0  0  0  0  0
   -2.2760   19.4220  -27.8360 O   0  0  0  0  0  0  0  0  0  0  0  0
   -0.8250   20.2540  -29.8830 C   0  0  0  0  0  0  0  0  0  0  0  0
    0.3680   19.5440  -30.0720 C   0  0  0  0  0  0  0  0  0  0  0  0
    0.8510   19.2950  -31.3480 C   0  0  0  0  0  0  0  0  0  0  0  0
    0.1790   19.7350  -32.4780 C   0  0  0  0  0  0  0  0  0  0  0  0
    0.6920   19.4660  -33.6730 N   0  0  0  0  0  0  0  0  0  0  0  0
    0.0250   19.9040  -34.7590 C   0  0  0  0  0  0  0  0  0  0  0  0
    0.4570   19.6830  -35.9710 N   0  0  0  0  0  0  0  0  0  0  0  0
   -1.1430   20.6040  -34.6500 N   0  0  0  0  0  0  0  0  0  0  0  0
   -1.6520   20.8680  -33.4100 C   0  0  0  0  0  0  0  0  0  0  0  0
   -2.7660   21.5450  -33.3270 N   0  0  0  0  0  0  0  0  0  0  0  0
   -0.9910   20.4300  -32.2600 C   0  0  0  0  0  0  0  0  0  0  0  0
   -1.5010   20.6960  -31.0030 C   0  0  0  0  0  0  0  0  0  0  0  0
   -2.8700   22.5860  -28.9990 C   0  0  0  0  0  0  0  0  0  0  0  0
   -6.3660   24.2500  -31.4250 C   0  0  0  0  0  0  0  0  0  0  0  0
   -6.7640   23.1080  -32.3420 C   0  0  0  0  0  0  0  0  0  0  0  0
   -5.4753   19.7410  -33.4101 H   0  0  0  0  0  0  0  0  0  0  0  0
   -7.1805   19.7318  -33.9749 H   0  0  0  0  0  0  0  0  0  0  0  0
   -6.2426   21.2638  -33.9749 H   0  0  0  0  0  0  0  0  0  0  0  0
   -8.3973   22.7264  -30.1844 H   0  0  0  0  0  0  0  0  0  0  0  0
   -7.7231   21.1398  -29.7162 H   0  0  0  0  0  0  0  0  0  0  0  0
   -6.8346   23.3443  -28.5755 H   0  0  0  0  0  0  0  0  0  0  0  0
   -5.6751   22.0408  -29.0862 H   0  0  0  0  0  0  0  0  0  0  0  0
   -3.8492   25.5259  -27.6155 H   0  0  0  0  0  0  0  0  0  0  0  0
   -2.4162   24.6371  -25.8018 H   0  0  0  0  0  0  0  0  0  0  0  0
   -1.2678   22.4408  -26.0209 H   0  0  0  0  0  0  0  0  0  0  0  0
    0.9281   19.1798  -29.1981 H   0  0  0  0  0  0  0  0  0  0  0  0
    1.7902   18.7347  -31.4664 H   0  0  0  0  0  0  0  0  0  0  0  0
    1.5840   18.9390  -33.8380 H   0  0  0  0  0  0  0  0  0  0  0  0
    1.3710   19.1340  -36.0210 H   0  0  0  0  0  0  0  0  0  0  0  0
   -1.6240   20.9240  -35.5150 H   0  0  0  0  0  0  0  0  0  0  0  0
   -3.1720   21.8280  -34.2460 H   0  0  0  0  0  0  0  0  0  0  0  0
   -2.4410   21.2572  -30.8955 H   0  0  0  0  0  0  0  0  0  0  0  0
   -3.0022   21.9998  -29.9204 H   0  0  0  0  0  0  0  0  0  0  0  0
   -7.2709   24.7880  -31.1060 H   0  0  0  0  0  0  0  0  0  0  0  0
   -5.6923   24.9239  -31.9745 H   0  0  0  0  0  0  0  0  0  0  0  0
   -7.6683   23.3880  -32.9023 H   0  0  0  0  0  0  0  0  0  0  0  0
   -5.9417   22.9024  -33.0431 H   0  0  0  0  0  0  0  0  0  0  0  0
  1  2  1  0
  2  3  2  0
  2  4  1  0
  4  5  1  0
  5  6  1  0
  6  7  1  0
  7  8  1  0
  8  9  2  0
  8 10  1  0
 10 11  2  0
 11 12  1  0
 12 13  2  0
 13 14  1  0
 14 15  1  0
 15 16  2  0
 15 17  2  0
 15 18  1  0
 18 19  2  0
 19 20  1  0
 20 21  2  0
 21 22  1  0
 22 23  1  0
 23 24  2  3
 23 25  1  0
 25 26  1  0
 26 27  2  3
 26 28  1  0
 28 29  2  0
 14 30  2  0
  7 31  1  0
 31 32  1  0
 32  4  1  0
 30 10  1  0
 29 18  1  0
 28 21  1  0
  1 33  1  0
  1 34  1  0
  1 35  1  0
  5 36  1  0
  5 37  1  0
  6 38  1  0
  6 39  1  0
 11 40  1  0
 12 41  1  0
 13 42  1  0
 19 43  1  0
 20 44  1  0
 22 45  1  0
 24 46  1  0
 25 47  1  0
 27 48  1  0
 29 49  1  0
 30 50  1  0
 31 51  1  0
 31 52  1  0
 32 53  1  0
 32 54  1  0
M  END
>  <smiles>  (2) 
CC(=O)N1CCN(C(=O)c2cccc(S(=O)(=O)c3ccc4[nH]c(=N)[nH]c(=N)c4c3)c2)CC1

>  <score_type>  (2) 
oracle

>  <origin>  (2) 
adgpu

>  <m_score__min__energy>  (2) 
-9.7300000000000004

>  <m_primary>  (2) 
energy

$$$$
2:0
     RDKit          3D

 50 53  0  0  0  0  0  0  0  0999 V2000
   -4.4820   17.9160  -34.3270 C   0  0  0  0  0  0  0  0  0  0  0  0
   -4.4330   18.7130  -33.1510 O   0  0  0  0  0  0  0  0  0  0  0  0
   -5.5450   19.4030  -32.6550 C   0  0  0  0  0  0  0  0  0  0  0  0
   -6.7580   18.7890  -32.5800 N   0  0  0  0  0  0  0  0  0  0  0  0
   -7.8530   19.4330  -32.0960 C   0  0  0  0  0  0  0  0  0  0  0  0
   -9.1540   18.7110  -31.9870 C   0  0  0  0  0  0  0  0  0  0  0  0
   -7.7450   20.7100  -31.6470 N   0  0  0  0  0  0  0  0  0  0  0  0
   -6.5600   21.3730  -31.6960 C   0  0  0  0  0  0  0  0  0  0  0  0
   -6.4650   22.6740  -31.1920 C   0  0  0  0  0  0  0  0  0  0  0  0
   -5.2270   23.3350  -31.1800 C   0  0  0  0  0  0  0  0  0  0  0  0
   -5.0290   24.8460  -30.2900 S   0  0  0  0  0  0  0  0  0  0  0  0
   -6.3170   25.6190  -30.2590 O   0  0  0  0  0  0  0  0  0  0  0  0
   -3.9730   25.6740  -30.9660 O   0  0  0  0  0  0  0  0  0  0  0  0
   -4.5350   24.4810  -28.6670 N   0  0  0  0  0  0  0  0  0  0  0  0
   -3.3360   23.7290  -28.4220 C   0  0  0  0  0  0  0  0  0  0  0  0
   -3.4130   22.4340  -27.8870 C   0  0  0  0  0  0  0  0  0  0  0  0
   -2.2780   21.6140  -27.8300 C   0  0  0  0  0  0  0  0  0  0  0  0
   -1.0430   22.1040  -28.2960 C   0  0  0  0  0  0  0  0  0  0  0  0
   -0.9480   23.4330  -28.7370 C   0  0  0  0  0  0  0  0  0  0  0  0
   -2.0890   24.2380  -28.8150 C   0  0  0  0  0  0  0  0  0  0  0  0
   -1.9810   25.5300  -29.3160 O   0  0  0  0  0  0  0  0  0  0  0  0
    0.1940   21.2380  -28.2660 C   0  0  0  0  0  0  0  0  0  0  0  0
   -0.1210   19.7950  -28.2740 N   0  0  0  0  0  0  0  0  0  0  0  0
   -0.5450   19.3290  -29.6070 C   0  0  0  0  0  0  0  0  0  0  0  0
   -1.0960   19.4590  -27.2180 C   0  0  0  0  0  0  0  0  0  0  0  0
   -2.4410   20.1760  -27.4080 C   0  0  0  0  0  0  0  0  0  0  0  0
   -4.0990   22.7060  -31.7220 C   0  0  0  0  0  0  0  0  0  0  0  0
   -4.1900   21.4110  -32.2400 C   0  0  0  0  0  0  0  0  0  0  0  0
   -5.4160   20.7290  -32.2140 C   0  0  0  0  0  0  0  0  0  0  0  0
   -4.5473   16.8540  -34.0478 H   0  0  0  0  0  0  0  0  0  0  0  0
   -5.3648   18.1937  -34.9216 H   0  0  0  0  0  0  0  0  0  0  0  0
   -3.5719   18.0835  -34.9216 H   0  0  0  0  0  0  0  0  0  0  0  0
   -9.4075   18.5703  -30.9259 H   0  0  0  0  0  0  0  0  0  0  0  0
   -9.9427   19.3005  -32.4774 H   0  0  0  0  0  0  0  0  0  0  0  0
   -9.0711   17.7298  -32.4774 H   0  0  0  0  0  0  0  0  0  0  0  0
   -7.3616   23.1799  -30.8045 H   0  0  0  0  0  0  0  0  0  0  0  0
   -4.9430   25.0600  -27.9000 H   0  0  0  0  0  0  0  0  0  0  0  0
   -4.3750   22.0583  -27.5082 H   0  0  0  0  0  0  0  0  0  0  0  0
    0.0311   23.8445  -29.0234 H   0  0  0  0  0  0  0  0  0  0  0  0
    0.8072   21.4694  -29.1494 H   0  0  0  0  0  0  0  0  0  0  0  0
    0.7301   21.4562  -27.3306 H   0  0  0  0  0  0  0  0  0  0  0  0
   -1.2815   18.5196  -29.4953 H   0  0  0  0  0  0  0  0  0  0  0  0
   -0.9993   20.1643  -30.1601 H   0  0  0  0  0  0  0  0  0  0  0  0
    0.3294   18.9554  -30.1601 H   0  0  0  0  0  0  0  0  0  0  0  0
   -1.2704   18.3730  -27.2318 H   0  0  0  0  0  0  0  0  0  0  0  0
   -0.6745   19.7894  -26.2572 H   0  0  0  0  0  0  0  0  0  0  0  0
   -3.0168   19.6454  -28.1806 H   0  0  0  0  0  0  0  0  0  0  0  0
   -2.9608   20.1706  -26.4386 H   0  0  0  0  0  0  0  0  0  0  0  0
   -3.1347   23.2349  -31.7401 H   0  0  0  0  0  0  0  0  0  0  0  0
   -3.3002   20.9263  -32.6682 H   0  0  0  0  0  0  0  0  0  0  0  0
  1  2  1  0
  2  3  1  0
  3  4  2  0
  4  5  1  0
  5  6  1  0
  5  7  2  0
  7  8  1  0
  8  9  2  0
  9 10  1  0
 10 11  1  0
 11 12  2  0
 11 13  2  0
 11 14  1  0
 14 15  1  0
 15 16  2  0
 16 17  1  0
 17 18  2  0
 18 19  1  0
 19 20  2  0
 20 21  1  0
 18 22  1  0
 22 23  1  0
 23 24  1  0
 23 25  1  0
 25 26  1  0
 10 27  2  0
 27 28  1  0
 28 29  2  0
 29  3  1  0
 29  8  1  0
 20 15  1  0
 26 17  1  0
  1 30  1  0
  1 31  1  0
  1 32  1  0
  6 33  1  0
  6 34  1  0
  6 35  1  0
  9 36  1  0
 14 37  1  0
 16 38  1  0
 19 39  1  0
 22 40  1  0
 22 41  1  0
 24 42  1  0
 24 43  1  0
 24 44  1  0
 25 45  1  0
 25 46  1  0
 26 47  1  0
 26 48  1  0
 27 49  1  0
 28 50  1  0
M  CHG  1  21  -1
M  END
>  <UniqueID>  (3) 
2

>  <SMILES>  (3) 
COc1nc(C)nc2cc(S(=O)(=O)Nc3cc4c(cc3[O-])CN(C)CC4)ccc12

>  <Energy>  (3) 
61.114591219078804

>  <Genealogy>  (3) 
COc1nc(C)nc2cc(S(=O)(=O)Nc3cc4c(cc3[O-])CN(C)CC4)ccc12 (protonated)
COc1nc(C)nc2cc(S(=O)(=O)Nc3cc4c(cc3[O-])CN(C)CC4)ccc12 (3D coordinates assigned)
COc1nc(C)nc2cc(S(=O)(=O)Nc3cc4c(cc3[O-])CN(C)CC4)ccc12 (nonaromatic ring conformer: 61.114591219078804 kcal/mol)

>  <smiles>  (3) 
COc1nc(C)nc2cc(S(=O)(=O)Nc3cc4c(cc3O)CN(C)CC4)ccc12

>  <score_type>  (3) 
oracle

>  <origin>  (3) 
adgpu

>  <m_score__min__energy>  (3) 
-13.699999999999999

>  <m_primary>  (3) 
energy

$$$$
3:0
     RDKit          3D

 58 61  0  0  0  0  0  0  0  0999 V2000
   -1.6120   19.2860  -33.1060 N   0  0  0  0  0  0  0  0  0  0  0  0
   -1.6970   20.3870  -32.1910 C   0  0  0  0  0  0  0  0  0  0  0  0
   -0.6630   20.5900  -31.2650 C   0  0  0  0  0  0  0  0  0  0  0  0
   -0.7160   21.6570  -30.3680 C   0  0  0  0  0  0  0  0  0  0  0  0
   -1.8000   22.5440  -30.3930 C   0  0  0  0  0  0  0  0  0  0  0  0
   -1.8820   23.8930  -29.2620 S   0  0  0  0  0  0  0  0  0  0  0  0
   -0.5620   24.6140  -29.2250 O   0  0  0  0  0  0  0  0  0  0  0  0
   -2.9390   24.8510  -29.7380 O   0  0  0  0  0  0  0  0  0  0  0  0
   -2.2970   23.2990  -27.6680 N   0  0  0  0  0  0  0  0  0  0  0  0
   -1.8250   24.2250  -26.6330 C   0  0  0  0  0  0  0  0  0  0  0  0
   -2.9560   25.1880  -26.3030 C   0  0  0  0  0  0  0  0  0  0  0  0
   -4.2080   24.5580  -26.8820 C   0  0  0  0  0  0  0  0  0  0  0  0
   -3.7540   23.2450  -27.5050 C   0  0  0  0  0  0  0  0  0  0  0  0
   -2.8370   22.3460  -31.3120 C   0  0  0  0  0  0  0  0  0  0  0  0
   -2.8040   21.2580  -32.2050 C   0  0  0  0  0  0  0  0  0  0  0  0
   -3.8460   21.0600  -33.1750 N   0  0  0  0  0  0  0  0  0  0  0  0
   -4.5500   19.8400  -33.4430 C   0  0  0  0  0  0  0  0  0  0  0  0
   -4.0160   18.9570  -34.1680 O   0  0  0  0  0  0  0  0  0  0  0  0
   -5.9220   19.6240  -32.9100 C   0  0  0  0  0  0  0  0  0  0  0  0
   -6.6500   20.7250  -32.4150 C   0  0  0  0  0  0  0  0  0  0  0  0
   -7.9500   20.5680  -31.9170 C   0  0  0  0  0  0  0  0  0  0  0  0
   -8.8430   21.9640  -31.3000 S   0  0  0  0  0  0  0  0  0  0  0  0
   -9.8210   22.4190  -32.3460 O   0  0  0  0  0  0  0  0  0  0  0  0
   -9.6230   21.5470  -30.0840 O   0  0  0  0  0  0  0  0  0  0  0  0
   -7.8020   23.3020  -30.8740 N   0  0  0  0  0  0  0  0  0  0  0  0
   -6.9960   23.7510  -32.0070 C   0  0  0  0  0  0  0  0  0  0  0  0
   -5.7780   24.4360  -31.4140 C   0  0  0  0  0  0  0  0  0  0  0  0
   -5.6440   23.8670  -30.0080 C   0  0  0  0  0  0  0  0  0  0  0  0
   -6.8450   22.9470  -29.8270 C   0  0  0  0  0  0  0  0  0  0  0  0
   -8.5270   19.2950  -31.8880 C   0  0  0  0  0  0  0  0  0  0  0  0
   -7.8220   18.1940  -32.3710 C   0  0  0  0  0  0  0  0  0  0  0  0
   -6.5260   18.3440  -32.8820 C   0  0  0  0  0  0  0  0  0  0  0  0
   -5.8460   17.2210  -33.3530 O   0  0  0  0  0  0  0  0  0  0  0  0
   -2.3690   19.1160  -33.8060 H   0  0  0  0  0  0  0  0  0  0  0  0
   -0.7990   18.6320  -33.1020 H   0  0  0  0  0  0  0  0  0  0  0  0
    0.1958   19.9029  -31.2461 H   0  0  0  0  0  0  0  0  0  0  0  0
    0.0952   21.8022  -29.6394 H   0  0  0  0  0  0  0  0  0  0  0  0
   -1.5407   23.6621  -25.7317 H   0  0  0  0  0  0  0  0  0  0  0  0
   -0.9466   24.7806  -26.9931 H   0  0  0  0  0  0  0  0  0  0  0  0
   -3.0541   25.3067  -25.2138 H   0  0  0  0  0  0  0  0  0  0  0  0
   -2.7734   26.1894  -26.7199 H   0  0  0  0  0  0  0  0  0  0  0  0
   -4.9465   24.3715  -26.0883 H   0  0  0  0  0  0  0  0  0  0  0  0
   -4.6899   25.2146  -27.6213 H   0  0  0  0  0  0  0  0  0  0  0  0
   -4.0249   22.4064  -26.8467 H   0  0  0  0  0  0  0  0  0  0  0  0
   -4.2418   23.0963  -28.4797 H   0  0  0  0  0  0  0  0  0  0  0  0
   -3.6849   23.0463  -31.3368 H   0  0  0  0  0  0  0  0  0  0  0  0
   -6.1897   21.7240  -32.4198 H   0  0  0  0  0  0  0  0  0  0  0  0
   -6.6891   22.8916  -32.6212 H   0  0  0  0  0  0  0  0  0  0  0  0
   -7.5630   24.4332  -32.6575 H   0  0  0  0  0  0  0  0  0  0  0  0
   -4.8807   24.2098  -32.0087 H   0  0  0  0  0  0  0  0  0  0  0  0
   -5.8857   25.5307  -31.4056 H   0  0  0  0  0  0  0  0  0  0  0  0
   -4.7066   23.2998  -29.9102 H   0  0  0  0  0  0  0  0  0  0  0  0
   -5.6184   24.6605  -29.2466 H   0  0  0  0  0  0  0  0  0  0  0  0
   -6.5380   21.8961  -29.9333 H   0  0  0  0  0  0  0  0  0  0  0  0
   -7.2882   23.0638  -28.8270 H   0  0  0  0  0  0  0  0  0  0  0  0
   -9.5409   19.1618  -31.4826 H   0  0  0  0  0  0  0  0  0  0  0  0
   -8.2876   17.1976  -32.3508 H   0  0  0  0  0  0  0  0  0  0  0  0
   -4.9450   17.2960  -33.8140 H   0  0  0  0  0  0  0  0  0  0  0  0
  1  2  1  0
  2  3  2  0
  3  4  1  0
  4  5  2  0
  5  6  1  0
  6  7  2  0
  6  8  2  0
  6  9  1  0
  9 10  1  0
 10 11  1  0
 11 12  1  0
 12 13  1  0
  5 14  1  0
 14 15  2  0
 15 16  1  0
 16 17  1  0
 17 18  2  0
 17 19  1  0
 19 20  2  0
 20 21  1  0
 21 22  1  0
 22 23  2  0
 22 24  2  0
 22 25  1  0
 25 26  1  0
 26 27  1  0
 27 28  1  0
 28 29  1  0
 21 30  2  0
 30 31  1  0
 31 32  2  0
 32 33  1  0
 15  2  1  0
 32 19  1  0
 13  9  1  0
 29 25  1  0
  1 34  1  0
  1 35  1  0
  3 36  1  0
  4 37  1  0
 10 38  1  0
 10 39  1  0
 11 40  1  0
 11 41  1  0
 12 42  1  0
 12 43  1  0
 13 44  1  0
 13 45  1  0
 14 46  1  0
 20 47  1  0
 26 48  1  0
 26 49  1  0
 27 50  1  0
 27 51  1  0
 28 52  1  0
 28 53  1  0
 29 54  1  0
 29 55  1  0
 30 56  1  0
 31 57  1  0
 33 58  1  0
M  CHG  1  16  -1
M  END
>  <UniqueID>  (4) 
3

>  <SMILES>  (4) 
Nc1ccc(S(=O)(=O)N2CCCC2)cc1[N-]C(=O)c1cc(S(=O)(=O)N2CCCC2)ccc1O

>  <Energy>  (4) 
67.75723033875933

>  <Genealogy>  (4) 
Nc1ccc(S(=O)(=O)N2CCCC2)cc1[N-]C(=O)c1cc(S(=O)(=O)N2CCCC2)ccc1O (protonated)
Nc1ccc(S(=O)(=O)N2CCCC2)cc1[N-]C(=O)c1cc(S(=O)(=O)N2CCCC2)ccc1O (3D coordinates assigned)
Nc1ccc(S(=O)(=O)N2CCCC2)cc1[N-]C(=O)c1cc(S(=O)(=O)N2CCCC2)ccc1O (nonaromatic ring conformer: 67.75723033875933 kcal/mol)

>  <smiles>  (4) 
Nc1ccc(S(=O)(=O)N2CCCC2)cc1NC(=O)c1cc(S(=O)(=O)N2CCCC2)ccc1O

>  <score_type>  (4) 
oracle

>  <origin>  (4) 
adgpu

>  <m_score__min__energy>  (4) 
-12.220000000000001

>  <m_primary>  (4) 
energy

$$$$
4:0
     RDKit          3D

 61 64  0  0  0  0  0  0  0  0999 V2000
    0.5430   22.0430  -28.1650 C   0  0  0  0  0  0  0  0  0  0  0  0
   -0.0800   23.4200  -28.1270 C   0  0  0  0  0  0  0  0  0  0  0  0
    0.3890   24.4120  -27.2180 C   0  0  0  0  0  0  0  0  0  0  0  0
    1.7520   24.1760  -26.0990 S   0  0  0  0  0  0  0  0  0  0  0  0
    2.8820   23.4190  -26.7380 O   0  0  0  0  0  0  0  0  0  0  0  0
    1.2540   23.3530  -24.9450 O   0  0  0  0  0  0  0  0  0  0  0  0
    2.3040   25.7240  -25.4910 N   0  0  0  0  0  0  0  0  0  0  0  0
    3.4690   26.2540  -26.2310 C   0  0  0  0  0  0  0  0  0  0  0  0
    4.8120   25.9120  -25.5600 C   0  0  0  0  0  0  0  0  0  0  0  0
    4.6990   24.7420  -24.7820 O   0  0  0  0  0  0  0  0  0  0  0  0
    3.8650   24.9860  -23.6650 C   0  0  0  0  0  0  0  0  0  0  0  0
    2.5360   25.6870  -24.0360 C   0  0  0  0  0  0  0  0  0  0  0  0
   -0.2290   25.6690  -27.1920 C   0  0  0  0  0  0  0  0  0  0  0  0
   -1.3110   25.9540  -28.0200 C   0  0  0  0  0  0  0  0  0  0  0  0
   -1.7940   24.9880  -28.8960 C   0  0  0  0  0  0  0  0  0  0  0  0
   -2.8700   25.2960  -29.7210 O   0  0  0  0  0  0  0  0  0  0  0  0
   -1.1930   23.7200  -28.9570 C   0  0  0  0  0  0  0  0  0  0  0  0
   -1.7140   22.7520  -29.8800 N   0  0  0  0  0  0  0  0  0  0  0  0
   -3.0270   22.1890  -29.7190 C   0  0  0  0  0  0  0  0  0  0  0  0
   -3.6620   22.3940  -28.6470 O   0  0  0  0  0  0  0  0  0  0  0  0
   -3.6360   21.3510  -30.7770 C   0  0  0  0  0  0  0  0  0  0  0  0
   -2.9290   20.2800  -31.3540 C   0  0  0  0  0  0  0  0  0  0  0  0
   -3.5120   19.5080  -32.3640 C   0  0  0  0  0  0  0  0  0  0  0  0
   -4.8010   19.8040  -32.8250 C   0  0  0  0  0  0  0  0  0  0  0  0
   -5.5410   18.8230  -34.0910 S   0  0  0  0  0  0  0  0  0  0  0  0
   -4.4610   18.3420  -35.0200 O   0  0  0  0  0  0  0  0  0  0  0  0
   -6.4750   19.6870  -34.8920 O   0  0  0  0  0  0  0  0  0  0  0  0
   -6.4190   17.4400  -33.4740 N   0  0  0  0  0  0  0  0  0  0  0  0
   -7.0510   17.6790  -32.1620 C   0  0  0  0  0  0  0  0  0  0  0  0
   -6.1430   17.2870  -30.9880 C   0  0  0  0  0  0  0  0  0  0  0  0
   -5.6800   15.9630  -31.1360 O   0  0  0  0  0  0  0  0  0  0  0  0
   -4.8550   15.8870  -32.2780 C   0  0  0  0  0  0  0  0  0  0  0  0
   -5.6600   16.1770  -33.5530 C   0  0  0  0  0  0  0  0  0  0  0  0
   -5.5150   20.8610  -32.2480 C   0  0  0  0  0  0  0  0  0  0  0  0
   -4.9340   21.6360  -31.2400 C   0  0  0  0  0  0  0  0  0  0  0  0
    0.7048   21.6853  -27.1375 H   0  0  0  0  0  0  0  0  0  0  0  0
   -0.1296   21.3507  -28.6926 H   0  0  0  0  0  0  0  0  0  0  0  0
    1.5070   22.0911  -28.6926 H   0  0  0  0  0  0  0  0  0  0  0  0
    3.4645   25.8271  -27.2448 H   0  0  0  0  0  0  0  0  0  0  0  0
    3.3783   27.3501  -26.2476 H   0  0  0  0  0  0  0  0  0  0  0  0
    5.5742   25.7559  -26.3376 H   0  0  0  0  0  0  0  0  0  0  0  0
    5.1005   26.7458  -24.9031 H   0  0  0  0  0  0  0  0  0  0  0  0
    3.6306   24.0233  -23.1871 H   0  0  0  0  0  0  0  0  0  0  0  0
    4.4124   25.6607  -22.9904 H   0  0  0  0  0  0  0  0  0  0  0  0
    1.7061   25.1440  -23.5602 H   0  0  0  0  0  0  0  0  0  0  0  0
    2.5960   26.7263  -23.6807 H   0  0  0  0  0  0  0  0  0  0  0  0
    0.1467   26.4429  -26.5065 H   0  0  0  0  0  0  0  0  0  0  0  0
   -1.7852   26.9458  -27.9813 H   0  0  0  0  0  0  0  0  0  0  0  0
   -1.0800   22.3870  -30.6250 H   0  0  0  0  0  0  0  0  0  0  0  0
   -1.9107   20.0483  -31.0083 H   0  0  0  0  0  0  0  0  0  0  0  0
   -2.9556   18.6644  -32.7984 H   0  0  0  0  0  0  0  0  0  0  0  0
   -7.2936   18.7486  -32.0776 H   0  0  0  0  0  0  0  0  0  0  0  0
   -7.9534   17.0523  -32.1083 H   0  0  0  0  0  0  0  0  0  0  0  0
   -5.2809   17.9694  -30.9549 H   0  0  0  0  0  0  0  0  0  0  0  0
   -6.7214   17.3570  -30.0550 H   0  0  0  0  0  0  0  0  0  0  0  0
   -4.0448   16.6255  -32.1873 H   0  0  0  0  0  0  0  0  0  0  0  0
   -4.4407   14.8703  -32.3464 H   0  0  0  0  0  0  0  0  0  0  0  0
   -4.9636   16.2378  -34.4023 H   0  0  0  0  0  0  0  0  0  0  0  0
   -6.3866   15.3608  -33.6793 H   0  0  0  0  0  0  0  0  0  0  0  0
   -6.5370   21.0825  -32.5891 H   0  0  0  0  0  0  0  0  0  0  0  0
   -5.4961   22.4756  -30.8051 H   0  0  0  0  0  0  0  0  0  0  0  0
  1  2  1  0
  2  3  2  0
  3  4  1  0
  4  5  2  0
  4  6  2  0
  4  7  1  0
  7  8  1  0
  8  9  1  0
  9 10  1  0
 10 11  1  0
 11 12  1  0
  3 13  1  0
 13 14  2  0
 14 15  1  0
 15 16  1  0
 15 17  2  0
 17 18  1  0
 18 19  1  0
 19 20  2  0
 19 21  1  0
 21 22  2  0
 22 23  1  0
 23 24  2  0
 24 25  1  0
 25 26  2  0
 25 27  2  0
 25 28  1  0
 28 29  1  0
 29 30  1  0
 30 31  1  0
 31 32  1  0
 32 33  1  0
 24 34  1  0
 34 35  2  0
 17  2  1  0
 35 21  1  0
 12  7  1  0
 33 28  1  0
  1 36  1  0
  1 37  1  0
  1 38  1  0
  8 39  1  0
  8 40  1  0
  9 41  1  0
  9 42  1  0
 11 43  1  0
 11 44  1  0
 12 45  1  0
 12 46  1  0
 13 47  1  0
 14 48  1  0
 18 49  1  0
 22 50  1  0
 23 51  1  0
 29 52  1  0
 29 53  1  0
 30 54  1  0
 30 55  1  0
 32 56  1  0
 32 57  1  0
 33 58  1  0
 33 59  1  0
 34 60  1  0
 35 61  1  0
M  CHG  1  16  -1
M  END
>  <UniqueID>  (5) 
4

>  <SMILES>  (5) 
Cc1c(S(=O)(=O)N2CCOCC2)ccc([O-])c1NC(=O)c1ccc(S(=O)(=O)N2CCOCC2)cc1

>  <Energy>  (5) 
93.52650925561048

>  <Genealogy>  (5) 
Cc1c(S(=O)(=O)N2CCOCC2)ccc([O-])c1NC(=O)c1ccc(S(=O)(=O)N2CCOCC2)cc1 (protonated)
Cc1c(S(=O)(=O)N2CCOCC2)ccc([O-])c1NC(=O)c1ccc(S(=O)(=O)N2CCOCC2)cc1 (3D coordinates assigned)
Cc1c(S(=O)(=O)N2CCOCC2)ccc([O-])c1NC(=O)c1ccc(S(=O)(=O)N2CCOCC2)cc1 (nonaromatic ring conformer: 93.52650925561048 kcal/mol)

>  <smiles>  (5) 
Cc1c(S(=O)(=O)N2CCOCC2)ccc(O)c1NC(=O)c1ccc(S(=O)(=O)N2CCOCC2)cc1

>  <score_type>  (5) 
oracle

>  <origin>  (5) 
adgpu

>  <m_score__min__energy>  (5) 
-11.18

>  <m_primary>  (5) 
energy

$$$$
5:0
     RDKit          3D

 41 42  0  0  0  0  0  0  0  0999 V2000
   -5.7030   17.7870  -34.6270 C   0  0  0  0  0  0  0  0  0  0  0  0
   -5.8980   18.9020  -33.7640 O   0  0  0  0  0  0  0  0  0  0  0  0
   -6.9810   19.0470  -32.8810 C   0  0  0  0  0  0  0  0  0  0  0  0
   -7.9190   18.0170  -32.6740 C   0  0  0  0  0  0  0  0  0  0  0  0
   -8.9680   18.1880  -31.7660 C   0  0  0  0  0  0  0  0  0  0  0  0
   -9.0910   19.3830  -31.0560 C   0  0  0  0  0  0  0  0  0  0  0  0
   -8.1690   20.4130  -31.2560 C   0  0  0  0  0  0  0  0  0  0  0  0
   -7.1180   20.2560  -32.1730 C   0  0  0  0  0  0  0  0  0  0  0  0
   -6.1820   21.3250  -32.3730 N   0  0  0  0  0  0  0  0  0  0  0  0
   -6.6660   22.6710  -32.6890 C   0  0  0  0  0  0  0  0  0  0  0  0
   -5.7990   23.7510  -32.0040 C   0  0  0  0  0  0  0  0  0  0  0  0
   -4.4020   23.3260  -31.7220 N   0  0  0  0  0  0  0  0  0  0  0  0
   -4.2040   22.9260  -30.3090 C   0  0  0  0  0  0  0  0  0  0  0  0
   -3.6590   24.1060  -29.4830 C   0  0  2  0  0  0  0  0  0  0  0  0
   -3.5550   25.2470  -30.2940 O   0  0  0  0  0  0  0  0  0  0  0  0
   -2.2710   23.7810  -28.9130 C   0  0  0  0  0  0  0  0  0  0  0  0
   -1.3310   24.7510  -29.2920 O   0  0  0  0  0  0  0  0  0  0  0  0
   -3.9290   22.2930  -32.6670 C   0  0  0  0  0  0  0  0  0  0  0  0
   -4.7610   21.0090  -32.5520 C   0  0  0  0  0  0  0  0  0  0  0  0
   -5.5444   16.8804  -34.0246 H   0  0  0  0  0  0  0  0  0  0  0  0
   -6.5916   17.6547  -35.2617 H   0  0  0  0  0  0  0  0  0  0  0  0
   -4.8222   17.9642  -35.2617 H   0  0  0  0  0  0  0  0  0  0  0  0
   -7.8256   17.0725  -33.2301 H   0  0  0  0  0  0  0  0  0  0  0  0
   -9.6975   17.3794  -31.6110 H   0  0  0  0  0  0  0  0  0  0  0  0
   -9.9144   19.5139  -30.3385 H   0  0  0  0  0  0  0  0  0  0  0  0
   -8.2671   21.3522  -30.6918 H   0  0  0  0  0  0  0  0  0  0  0  0
   -6.6293   22.8190  -33.7784 H   0  0  0  0  0  0  0  0  0  0  0  0
   -7.6977   22.7661  -32.3194 H   0  0  0  0  0  0  0  0  0  0  0  0
   -5.7649   24.6329  -32.6605 H   0  0  0  0  0  0  0  0  0  0  0  0
   -6.2672   23.9604  -31.0309 H   0  0  0  0  0  0  0  0  0  0  0  0
   -5.1668   22.6030  -29.8864 H   0  0  0  0  0  0  0  0  0  0  0  0
   -3.4767   22.1016  -30.2724 H   0  0  0  0  0  0  0  0  0  0  0  0
   -4.3567   24.2905  -28.6528 H   0  0  0  0  0  0  0  0  0  0  0  0
   -3.4880   24.9310  -31.2320 H   0  0  0  0  0  0  0  0  0  0  0  0
   -2.3317   23.7488  -27.8151 H   0  0  0  0  0  0  0  0  0  0  0  0
   -1.9487   22.8072  -29.3104 H   0  0  0  0  0  0  0  0  0  0  0  0
   -1.4180   24.8620  -30.2750 H   0  0  0  0  0  0  0  0  0  0  0  0
   -4.0101   22.6818  -33.6928 H   0  0  0  0  0  0  0  0  0  0  0  0
   -2.8837   22.0522  -32.4234 H   0  0  0  0  0  0  0  0  0  0  0  0
   -4.6362   20.4148  -33.4692 H   0  0  0  0  0  0  0  0  0  0  0  0
   -4.4129   20.4398  -31.6775 H   0  0  0  0  0  0  0  0  0  0  0  0
  1  2  1  0
  2  3  1  0
  3  4  2  0
  4  5  1  0
  5  6  2  0
  6  7  1  0
  7  8  2  0
  8  9  1  0
  9 10  1  0
 10 11  1  0
 11 12  1  0
 12 13  1  0
 13 14  1  0
 14 15  1  0
 14 16  1  0
 16 17  1  0
 12 18  1  0
 18 19  1  0
  8  3  1  0
 19  9  1  0
  1 20  1  0
  1 21  1  0
  1 22  1  0
  4 23  1  0
  5 24  1  0
  6 25  1  0
  7 26  1  0
 10 27  1  0
 10 28  1  0
 11 29  1  0
 11 30  1  0
 13 31  1  0
 13 32  1  0
 14 33  1  1
 15 34  1  0
 16 35  1  0
 16 36  1  0
 17 37  1  0
 18 38  1  0
 18 39  1  0
 19 40  1  0
 19 41  1  0
M  END
>  <UniqueID>  (6) 
5

>  <SMILES>  (6) 
COc1ccccc1N1CCN(C[C@H](O)CO)CC1

>  <Energy>  (6) 
48.710866016269016

>  <Genealogy>  (6) 
COc1ccccc1N1CCN(C[C@H](O)CO)CC1 (chirality)
COc1ccccc1N1CCN(C[C@H](O)CO)CC1 (3D coordinates assigned)
COc1ccccc1N1CCN(C[C@H](O)CO)CC1 (nonaromatic ring conformer: 48.710866016269016 kcal/mol)

>  <smiles>  (6) 
COc1ccccc1N1CCN(CC(O)CO)CC1

>  <score_type>  (6) 
oracle

>  <origin>  (6) 
adgpu

>  <m_score__min__energy>  (6) 
-7.4100000000000001

>  <m_primary>  (6) 
energy

$$$$
6:0
     RDKit          3D

 39 41  0  0  0  0  0  0  0  0999 V2000
   -9.8726   20.4488  -30.1669 H   0  0  0  0  0  0  0  0  0  0  0  0
   -9.1010   20.8300  -30.8520 C   0  0  0  0  0  0  0  0  0  0  0  0
   -8.7210   22.1200  -30.9540 N   0  0  0  0  0  0  0  0  0  0  0  0
   -7.7540   22.1080  -31.8960 C   0  0  0  0  0  0  0  0  0  0  0  0
   -6.9230   23.6010  -32.4450 S   0  0  0  0  0  0  0  0  0  0  0  0
   -6.5490   24.2560  -30.7740 C   0  0  0  0  0  0  0  0  0  0  0  0
   -6.8603   23.5162  -30.0218 H   0  0  0  0  0  0  0  0  0  0  0  0
   -7.0964   25.2010  -30.6423 H   0  0  0  0  0  0  0  0  0  0  0  0
   -5.0810   24.5330  -30.6090 C   0  0  0  0  0  0  0  0  0  0  0  0
   -4.6460   25.6770  -30.9030 O   0  0  0  0  0  0  0  0  0  0  0  0
   -4.2120   23.6360  -29.9030 N   0  0  0  0  0  0  0  0  0  0  0  0
   -3.1050   23.9210  -29.2810 C   0  0  0  0  0  0  0  0  0  0  0  0
   -2.1390   22.7610  -28.5500 S   0  0  0  0  0  0  0  0  0  0  0  0
   -1.0440   23.8900  -27.9500 C   0  0  0  0  0  0  0  0  0  0  0  0
   -0.1459   23.6676  -27.3550 H   0  0  0  0  0  0  0  0  0  0  0  0
   -1.4760   25.1560  -28.3400 C   0  0  0  0  0  0  0  0  0  0  0  0
   -0.7910   26.4130  -27.9100 C   0  0  0  0  0  0  0  0  0  0  0  0
   -0.7657   26.4594  -26.8113 H   0  0  0  0  0  0  0  0  0  0  0  0
    0.2371   26.4226  -28.3011 H   0  0  0  0  0  0  0  0  0  0  0  0
   -1.3402   27.2821  -28.3011 H   0  0  0  0  0  0  0  0  0  0  0  0
   -2.6300   25.1690  -29.0620 N   0  0  0  0  0  0  0  0  0  0  0  0
   -3.1070   26.0480  -29.3450 H   0  0  0  0  0  0  0  0  0  0  0  0
   -7.5320   20.8730  -32.3990 N   0  0  0  0  0  0  0  0  0  0  0  0
   -6.6340   20.4810  -33.4880 C   0  0  0  0  0  0  0  0  0  0  0  0
   -6.8937   19.4653  -33.8210 H   0  0  0  0  0  0  0  0  0  0  0  0
   -6.7500   21.1976  -34.3144 H   0  0  0  0  0  0  0  0  0  0  0  0
   -5.1940   20.4990  -33.0320 C   0  0  0  0  0  0  0  0  0  0  0  0
   -4.5900   21.7380  -32.7550 C   0  0  0  0  0  0  0  0  0  0  0  0
   -5.1789   22.6627  -32.8448 H   0  0  0  0  0  0  0  0  0  0  0  0
   -3.2500   21.8070  -32.3670 C   0  0  0  0  0  0  0  0  0  0  0  0
   -2.7861   22.7833  -32.1631 H   0  0  0  0  0  0  0  0  0  0  0  0
   -2.5000   20.6380  -32.2380 C   0  0  0  0  0  0  0  0  0  0  0  0
   -0.8080   20.7290  -31.7840 Cl  0  0  0  0  0  0  0  0  0  0  0  0
   -3.0980   19.3960  -32.4650 C   0  0  0  0  0  0  0  0  0  0  0  0
   -2.5086   18.4754  -32.3421 H   0  0  0  0  0  0  0  0  0  0  0  0
   -4.4430   19.3150  -32.8480 C   0  0  0  0  0  0  0  0  0  0  0  0
   -5.1410   17.7110  -33.0590 Cl  0  0  0  0  0  0  0  0  0  0  0  0
   -8.3760   20.0630  -31.7360 C   0  0  0  0  0  0  0  0  0  0  0  0
   -8.4708   18.9760  -31.8757 H   0  0  0  0  0  0  0  0  0  0  0  0
  1  2  1  0
  2  3  1  0
  3  4  2  0
  4  5  1  0
  5  6  1  0
  6  7  1  0
  6  8  1  0
  6  9  1  0
  9 10  2  0
  9 11  1  0
 11 12  2  0
 12 13  1  0
 13 14  1  0
 14 15  1  0
 14 16  2  0
 16 17  1  0
 17 18  1  0
 17 19  1  0
 17 20  1  0
 16 21  1  0
 21 22  1  0
  4 23  1  0
 23 24  1  0
 24 25  1  0
 24 26  1  0
 24 27  1  0
 27 28  2  0
 28 29  1  0
 28 30  1  0
 30 31  1  0
 30 32  2  0
 32 33  1  0
 32 34  1  0
 34 35  1  0
 34 36  2  0
 36 37  1  0
 23 38  1  0
 38 39  1  0
 38  2  2  0
 21 12  1  0
 36 27  1  0
M  END
>  <UniqueID>  (7) 
6

>  <SMILES>  (7) 
Cc1cs/c(=N/C(=O)CSc2nccn2Cc2ccc(Cl)cc2Cl)[nH]1

>  <Energy>  (7) 
98.63929274204642

>  <Genealogy>  (7) 
Cc1cs/c(=N/C(=O)CSc2nccn2Cc2ccc(Cl)cc2Cl)[nH]1 (cis-trans isomerization)
Cc1cs/c(=N/C(=O)CSc2nccn2Cc2ccc(Cl)cc2Cl)[nH]1 (3D coordinates assigned)
Cc1cs/c(=N/C(=O)CSc2nccn2Cc2ccc(Cl)cc2Cl)[nH]1 (optimized conformer: 98.63929274204642 kcal/mol)

>  <smiles>  (7) 
Cc1csc(=NC(=O)CSc2nccn2Cc2ccc(Cl)cc2Cl)[nH]1

>  <score_type>  (7) 
oracle

>  <origin>  (7) 
adgpu

>  <m_score__min__energy>  (7) 
-9.0299999999999994

>  <m_primary>  (7) 
energy

$$$$
7:0
     RDKit          3D

 42 44  0  0  0  0  0  0  0  0999 V2000
   -0.3350   21.7040  -31.2200 O   0  0  0  0  0  0  0  0  0  0  0  0
   -1.5540   21.8960  -30.9570 C   0  0  0  0  0  0  0  0  0  0  0  0
   -1.9270   22.9190  -30.0170 N   0  0  0  0  0  0  0  0  0  0  0  0
   -1.0310   23.4510  -29.0250 C   0  0  0  0  0  0  0  0  0  0  0  0
   -0.1240   22.6150  -28.3460 C   0  0  0  0  0  0  0  0  0  0  0  0
    0.7230   23.1390  -27.3660 C   0  0  0  0  0  0  0  0  0  0  0  0
    0.6700   24.4970  -27.0460 C   0  0  0  0  0  0  0  0  0  0  0  0
   -0.2380   25.3330  -27.7010 C   0  0  0  0  0  0  0  0  0  0  0  0
   -1.0880   24.8150  -28.6840 C   0  0  0  0  0  0  0  0  0  0  0  0
   -1.9840   25.6650  -29.3250 O   0  0  0  0  0  0  0  0  0  0  0  0
   -2.5870   21.0930  -31.6570 C   0  0  0  0  0  0  0  0  0  0  0  0
   -3.9490   21.4300  -31.5670 C   0  0  0  0  0  0  0  0  0  0  0  0
   -4.9150   20.6620  -32.2240 C   0  0  0  0  0  0  0  0  0  0  0  0
   -4.5380   19.5420  -32.9750 C   0  0  0  0  0  0  0  0  0  0  0  0
   -5.7580   18.5680  -33.7980 S   0  0  0  0  0  0  0  0  0  0  0  0
   -5.7620   18.9130  -35.2610 O   0  0  0  0  0  0  0  0  0  0  0  0
   -5.3980   17.1140  -33.6650 O   0  0  0  0  0  0  0  0  0  0  0  0
   -7.3540   18.8280  -33.1370 N   0  0  0  0  0  0  0  0  0  0  0  0
   -7.6850   20.2630  -33.1390 C   0  0  0  0  0  0  0  0  0  0  0  0
   -8.9850   20.5230  -32.3500 C   0  0  0  0  0  0  0  0  0  0  0  0
   -9.6600   19.3120  -32.0660 O   0  0  0  0  0  0  0  0  0  0  0  0
   -8.8640   18.5060  -31.2140 C   0  0  0  0  0  0  0  0  0  0  0  0
   -7.4420   18.2890  -31.7730 C   0  0  0  0  0  0  0  0  0  0  0  0
   -3.1840   19.1970  -33.0640 C   0  0  0  0  0  0  0  0  0  0  0  0
   -2.2160   19.9630  -32.4070 C   0  0  0  0  0  0  0  0  0  0  0  0
   -2.8620   23.3700  -30.1300 H   0  0  0  0  0  0  0  0  0  0  0  0
   -0.0820   21.5429  -28.5885 H   0  0  0  0  0  0  0  0  0  0  0  0
    1.4333   22.4800  -26.8453 H   0  0  0  0  0  0  0  0  0  0  0  0
    1.3425   24.9084  -26.2789 H   0  0  0  0  0  0  0  0  0  0  0  0
   -0.2846   26.4013  -27.4430 H   0  0  0  0  0  0  0  0  0  0  0  0
   -4.2569   22.3046  -30.9752 H   0  0  0  0  0  0  0  0  0  0  0  0
   -5.9770   20.9391  -32.1505 H   0  0  0  0  0  0  0  0  0  0  0  0
   -6.8615   20.8243  -32.6735 H   0  0  0  0  0  0  0  0  0  0  0  0
   -7.8303   20.5913  -34.1788 H   0  0  0  0  0  0  0  0  0  0  0  0
   -8.7364   21.0260  -31.4039 H   0  0  0  0  0  0  0  0  0  0  0  0
   -9.6447   21.1551  -32.9625 H   0  0  0  0  0  0  0  0  0  0  0  0
   -8.7872   18.9971  -30.2327 H   0  0  0  0  0  0  0  0  0  0  0  0
   -9.3478   17.5214  -31.1338 H   0  0  0  0  0  0  0  0  0  0  0  0
   -6.7143   18.8047  -31.1292 H   0  0  0  0  0  0  0  0  0  0  0  0
   -7.2213   17.2116  -31.7941 H   0  0  0  0  0  0  0  0  0  0  0  0
   -2.8803   18.3193  -33.6535 H   0  0  0  0  0  0  0  0  0  0  0  0
   -1.1556   19.6792  -32.4775 H   0  0  0  0  0  0  0  0  0  0  0  0
  1  2  2  0
  2  3  1  0
  3  4  1  0
  4  5  2  0
  5  6  1  0
  6  7  2  0
  7  8  1  0
  8  9  2  0
  9 10  1  0
  2 11  1  0
 11 12  2  0
 12 13  1  0
 13 14  2  0
 14 15  1  0
 15 16  2  0
 15 17  2  0
 15 18  1  0
 18 19  1  0
 19 20  1  0
 20 21  1  0
 21 22  1  0
 22 23  1  0
 14 24  1  0
 24 25  2  0
  9  4  1  0
 25 11  1  0
 23 18  1  0
  3 26  1  0
  5 27  1  0
  6 28  1  0
  7 29  1  0
  8 30  1  0
 12 31  1  0
 13 32  1  0
 19 33  1  0
 19 34  1  0
 20 35  1  0
 20 36  1  0
 22 37  1  0
 22 38  1  0
 23 39  1  0
 23 40  1  0
 24 41  1  0
 25 42  1  0
M  CHG  1  10  -1
M  END
>  <UniqueID>  (8) 
7

>  <SMILES>  (8) 
O=C(Nc1ccccc1[O-])c1ccc(S(=O)(=O)N2CCOCC2)cc1

>  <Energy>  (8) 
56.91134796082498

>  <Genealogy>  (8) 
O=C(Nc1ccccc1[O-])c1ccc(S(=O)(=O)N2CCOCC2)cc1 (protonated)
O=C(Nc1ccccc1[O-])c1ccc(S(=O)(=O)N2CCOCC2)cc1 (3D coordinates assigned)
O=C(Nc1ccccc1[O-])c1ccc(S(=O)(=O)N2CCOCC2)cc1 (nonaromatic ring conformer: 56.91134796082498 kcal/mol)

>  <smiles>  (8) 
O=C(Nc1ccccc1O)c1ccc(S(=O)(=O)N2CCOCC2)cc1

>  <score_type>  (8) 
oracle

>  <origin>  (8) 
adgpu

>  <m_score__min__energy>  (8) 
-11.289999999999999

>  <m_primary>  (8) 
energy

$$$$
8:0
     RDKit          3D

 42 44  0  0  0  0  0  0  0  0999 V2000
   -0.0410   26.7450  -27.1310 C   0  0  0  0  0  0  0  0  0  0  0  0
   -0.6520   25.6190  -27.8910 C   0  0  0  0  0  0  0  0  0  0  0  0
   -1.9500   25.5870  -28.2560 N   0  0  0  0  0  0  0  0  0  0  0  0
   -2.0550   24.4240  -28.9310 C   0  0  0  0  0  0  0  0  0  0  0  0
   -3.3170   23.9350  -29.5380 C   0  0  0  0  0  0  0  0  0  0  0  0
   -3.2730   23.0400  -30.6240 C   0  0  0  0  0  0  0  0  0  0  0  0
   -4.4530   22.5690  -31.2050 C   0  0  0  0  0  0  0  0  0  0  0  0
   -5.6970   22.9810  -30.7130 C   0  0  0  0  0  0  0  0  0  0  0  0
   -7.1880   22.3730  -31.4370 S   0  0  0  0  0  0  0  0  0  0  0  0
   -7.4600   23.1190  -32.7140 O   0  0  0  0  0  0  0  0  0  0  0  0
   -8.3340   22.6280  -30.4990 O   0  0  0  0  0  0  0  0  0  0  0  0
   -7.0780   20.6610  -31.7700 N   0  0  0  0  0  0  0  0  0  0  0  0
   -6.1760   20.4160  -32.9150 C   0  0  0  0  0  0  0  0  0  0  0  0
   -5.2690   19.1810  -32.6880 C   0  0  0  0  0  0  0  0  0  0  0  0
   -6.0330   17.8470  -32.6000 C   0  0  0  0  0  0  0  0  0  0  0  0
   -7.5200   17.9310  -33.0310 C   0  0  0  0  0  0  0  0  0  0  0  0
   -8.4750   18.5720  -32.0070 C   0  0  0  0  0  0  0  0  0  0  0  0
   -8.4320   20.1110  -31.9780 C   0  0  0  0  0  0  0  0  0  0  0  0
   -5.7500   23.8730  -29.6350 C   0  0  0  0  0  0  0  0  0  0  0  0
   -4.5720   24.3470  -29.0510 C   0  0  0  0  0  0  0  0  0  0  0  0
   -0.8190   23.8040  -28.9550 C   0  0  0  0  0  0  0  0  0  0  0  0
    0.0210   24.5710  -28.3070 O   0  0  0  0  0  0  0  0  0  0  0  0
   -0.1430   26.5571  -26.0520 H   0  0  0  0  0  0  0  0  0  0  0  0
    1.0250   26.8264  -27.3899 H   0  0  0  0  0  0  0  0  0  0  0  0
   -0.5538   27.6831  -27.3899 H   0  0  0  0  0  0  0  0  0  0  0  0
   -2.3011   22.7087  -31.0184 H   0  0  0  0  0  0  0  0  0  0  0  0
   -4.4042   21.8707  -32.0535 H   0  0  0  0  0  0  0  0  0  0  0  0
   -6.7841   20.2487  -33.8162 H   0  0  0  0  0  0  0  0  0  0  0  0
   -5.5269   21.2967  -33.0296 H   0  0  0  0  0  0  0  0  0  0  0  0
   -4.5573   19.1168  -33.5242 H   0  0  0  0  0  0  0  0  0  0  0  0
   -4.7724   19.3265  -31.7173 H   0  0  0  0  0  0  0  0  0  0  0  0
   -5.5272   17.1174  -33.2495 H   0  0  0  0  0  0  0  0  0  0  0  0
   -6.0295   17.5525  -31.5402 H   0  0  0  0  0  0  0  0  0  0  0  0
   -7.5709   18.5221  -33.9573 H   0  0  0  0  0  0  0  0  0  0  0  0
   -7.8584   16.8909  -33.1476 H   0  0  0  0  0  0  0  0  0  0  0  0
   -9.5014   18.2605  -32.2510 H   0  0  0  0  0  0  0  0  0  0  0  0
   -8.1490   18.2288  -31.0141 H   0  0  0  0  0  0  0  0  0  0  0  0
   -8.8167   20.4877  -32.9372 H   0  0  0  0  0  0  0  0  0  0  0  0
   -9.0460   20.4346  -31.1246 H   0  0  0  0  0  0  0  0  0  0  0  0
   -6.7245   24.2026  -29.2455 H   0  0  0  0  0  0  0  0  0  0  0  0
   -4.6259   25.0473  -28.2044 H   0  0  0  0  0  0  0  0  0  0  0  0
   -0.5843   22.8410  -29.4321 H   0  0  0  0  0  0  0  0  0  0  0  0
  1  2  1  0
  2  3  2  0
  3  4  1  0
  4  5  1  0
  5  6  2  0
  6  7  1  0
  7  8  2  0
  8  9  1  0
  9 10  2  0
  9 11  2  0
  9 12  1  0
 12 13  1  0
 13 14  1  0
 14 15  1  0
 15 16  1  0
 16 17  1  0
 17 18  1  0
  8 19  1  0
 19 20  2  0
  4 21  2  0
 21 22  1  0
 22  2  1  0
 20  5  1  0
 18 12  1  0
  1 23  1  0
  1 24  1  0
  1 25  1  0
  6 26  1  0
  7 27  1  0
 13 28  1  0
 13 29  1  0
 14 30  1  0
 14 31  1  0
 15 32  1  0
 15 33  1  0
 16 34  1  0
 16 35  1  0
 17 36  1  0
 17 37  1  0
 18 38  1  0
 18 39  1  0
 19 40  1  0
 20 41  1  0
 21 42  1  0
M  END
>  <UniqueID>  (9) 
8

>  <SMILES>  (9) 
Cc1nc(-c2ccc(S(=O)(=O)N3CCCCCC3)cc2)co1

>  <Energy>  (9) 
79.20429603254617

>  <Genealogy>  (9) 
Cc1nc(-c2ccc(S(=O)(=O)N3CCCCCC3)cc2)co1 (3D coordinates assigned)
Cc1nc(-c2ccc(S(=O)(=O)N3CCCCCC3)cc2)co1 (nonaromatic ring conformer: 79.20429603254617 kcal/mol)

>  <smiles>  (9) 
Cc1nc(-c2ccc(S(=O)(=O)N3CCCCCC3)cc2)co1

>  <score_type>  (9) 
oracle

>  <origin>  (9) 
adgpu

>  <m_score__min__energy>  (9) 
-6.1500000000000004

>  <m_primary>  (9) 
energy

$$$$
9:0
     RDKit          3D

 53 57  0  0  0  0  0  0  0  0999 V2000
   -5.2840   15.5030  -33.5170 C   0  0  0  0  0  0  0  0  0  0  0  0
   -5.7030   16.9170  -33.7410 C   0  0  0  0  0  0  0  0  0  0  0  0
   -5.2660   17.7530  -34.7350 C   0  0  0  0  0  0  0  0  0  0  0  0
   -5.8240   18.9690  -34.5580 N   0  0  0  0  0  0  0  0  0  0  0  0
   -6.5700   18.8180  -33.4450 C   0  0  0  0  0  0  0  0  0  0  0  0
   -7.4060   19.8790  -32.8320 C   0  0  0  0  0  0  0  0  0  0  0  0
   -8.7770   19.6010  -32.6810 C   0  0  0  0  0  0  0  0  0  0  0  0
   -9.6430   20.5340  -32.1110 C   0  0  0  0  0  0  0  0  0  0  0  0
   -9.1570   21.7600  -31.6620 C   0  0  0  0  0  0  0  0  0  0  0  0
   -7.7930   22.0670  -31.7820 C   0  0  0  0  0  0  0  0  0  0  0  0
   -7.3130   23.2850  -31.2750 C   0  0  0  0  0  0  0  0  0  0  0  0
   -5.9460   23.5840  -31.3270 C   0  0  0  0  0  0  0  0  0  0  0  0
   -5.2990   24.9920  -30.4820 S   0  0  0  0  0  0  0  0  0  0  0  0
   -5.8180   25.0380  -29.0690 O   0  0  0  0  0  0  0  0  0  0  0  0
   -5.7470   26.2290  -31.2110 O   0  0  0  0  0  0  0  0  0  0  0  0
   -3.5590   24.9410  -30.4590 N   0  0  0  0  0  0  0  0  0  0  0  0
   -2.8260   24.2420  -29.4440 C   0  0  0  0  0  0  0  0  0  0  0  0
   -3.2470   22.9800  -28.9970 C   0  0  0  0  0  0  0  0  0  0  0  0
   -2.4290   22.2110  -28.1560 C   0  0  0  0  0  0  0  0  0  0  0  0
   -1.1850   22.7300  -27.7300 C   0  0  0  0  0  0  0  0  0  0  0  0
   -0.8220   24.0400  -28.0870 C   0  0  0  0  0  0  0  0  0  0  0  0
   -1.6330   24.7880  -28.9490 C   0  0  0  0  0  0  0  0  0  0  0  0
   -1.2280   26.0620  -29.3390 O   0  0  0  0  0  0  0  0  0  0  0  0
   -0.2680   21.9150  -26.8470 C   0  0  0  0  0  0  0  0  0  0  0  0
   -0.4940   20.4600  -26.9880 N   0  0  0  0  0  0  0  0  0  0  0  0
    0.0530   19.9260  -28.2520 C   0  0  0  0  0  0  0  0  0  0  0  0
   -1.9210   20.1210  -26.8010 C   0  0  0  0  0  0  0  0  0  0  0  0
   -2.8350   20.7920  -27.8460 C   0  0  0  0  0  0  0  0  0  0  0  0
   -5.0610   22.6750  -31.9140 C   0  0  0  0  0  0  0  0  0  0  0  0
   -5.5220   21.4580  -32.4180 C   0  0  0  0  0  0  0  0  0  0  0  0
   -6.8960   21.1280  -32.3700 C   0  0  0  0  0  0  0  0  0  0  0  0
   -6.5060   17.5930  -32.9620 O   0  0  0  0  0  0  0  0  0  0  0  0
   -5.2253   15.3048  -32.4366 H   0  0  0  0  0  0  0  0  0  0  0  0
   -6.0200   14.8256  -33.9746 H   0  0  0  0  0  0  0  0  0  0  0  0
   -4.2977   15.3359  -33.9746 H   0  0  0  0  0  0  0  0  0  0  0  0
   -4.5738   17.4780  -35.5445 H   0  0  0  0  0  0  0  0  0  0  0  0
   -9.1725   18.6315  -33.0182 H   0  0  0  0  0  0  0  0  0  0  0  0
  -10.7138   20.3009  -32.0156 H   0  0  0  0  0  0  0  0  0  0  0  0
   -9.8453   22.4903  -31.2116 H   0  0  0  0  0  0  0  0  0  0  0  0
   -8.0147   24.0085  -30.8344 H   0  0  0  0  0  0  0  0  0  0  0  0
   -4.2272   22.5904  -29.3089 H   0  0  0  0  0  0  0  0  0  0  0  0
    0.1037   24.4797  -27.6873 H   0  0  0  0  0  0  0  0  0  0  0  0
    0.7742   22.1384  -27.1188 H   0  0  0  0  0  0  0  0  0  0  0  0
   -0.4799   22.1871  -25.8025 H   0  0  0  0  0  0  0  0  0  0  0  0
    0.8238   19.1735  -28.0291 H   0  0  0  0  0  0  0  0  0  0  0  0
   -0.7561   19.4607  -28.8341 H   0  0  0  0  0  0  0  0  0  0  0  0
    0.4987   20.7461  -28.8341 H   0  0  0  0  0  0  0  0  0  0  0  0
   -2.0368   19.0301  -26.8812 H   0  0  0  0  0  0  0  0  0  0  0  0
   -2.2228   20.4908  -25.8100 H   0  0  0  0  0  0  0  0  0  0  0  0
   -2.7958   20.2047  -28.7753 H   0  0  0  0  0  0  0  0  0  0  0  0
   -3.8505   20.8238  -27.4244 H   0  0  0  0  0  0  0  0  0  0  0  0
   -3.9909   22.9213  -31.9793 H   0  0  0  0  0  0  0  0  0  0  0  0
   -4.8076   20.7467  -32.8580 H   0  0  0  0  0  0  0  0  0  0  0  0
  1  2  1  0
  2  3  2  0
  3  4  1  0
  4  5  2  0
  5  6  1  0
  6  7  2  0
  7  8  1  0
  8  9  2  0
  9 10  1  0
 10 11  2  0
 11 12  1  0
 12 13  1  0
 13 14  2  0
 13 15  2  0
 13 16  1  0
 16 17  1  0
 17 18  2  0
 18 19  1  0
 19 20  2  0
 20 21  1  0
 21 22  2  0
 22 23  1  0
 20 24  1  0
 24 25  1  0
 25 26  1  0
 25 27  1  0
 27 28  1  0
 12 29  2  0
 29 30  1  0
 30 31  2  0
  5 32  1  0
 32  2  1  0
 31  6  1  0
 31 10  1  0
 22 17  1  0
 28 19  1  0
  1 33  1  0
  1 34  1  0
  1 35  1  0
  3 36  1  0
  7 37  1  0
  8 38  1  0
  9 39  1  0
 11 40  1  0
 18 41  1  0
 21 42  1  0
 24 43  1  0
 24 44  1  0
 26 45  1  0
 26 46  1  0
 26 47  1  0
 27 48  1  0
 27 49  1  0
 28 50  1  0
 28 51  1  0
 29 52  1  0
 30 53  1  0
M  CHG  2  16  -1  23  -1
M  END
>  <UniqueID>  (10) 
9

>  <SMILES>  (10) 
Cc1cnc(-c2cccc3cc(S(=O)(=O)[N-]c4cc5c(cc4[O-])CN(C)CC5)ccc23)o1

>  <Energy>  (10) 
106.5790424842678

>  <Genealogy>  (10) 
Cc1cnc(-c2cccc3cc(S(=O)(=O)[N-]c4cc5c(cc4[O-])CN(C)CC5)ccc23)o1 (protonated)
Cc1cnc(-c2cccc3cc(S(=O)(=O)[N-]c4cc5c(cc4[O-])CN(C)CC5)ccc23)o1 (3D coordinates assigned)
Cc1cnc(-c2cccc3cc(S(=O)(=O)[N-]c4cc5c(cc4[O-])CN(C)CC5)ccc23)o1 (nonaromatic ring conformer: 106.5790424842678 kcal/mol)

>  <smiles>  (10) 
Cc1cnc(-c2cccc3cc(S(=O)(=O)Nc4cc5c(cc4O)CN(C)CC5)ccc23)o1

>  <score_type>  (10) 
oracle

>  <origin>  (10) 
adgpu

>  <m_score__min__energy>  (10) 
-16.960000000000001

>  <m_primary>  (10) 
energy

$$$$
10:0
     RDKit          3D

 48 50  0  0  0  0  0  0  0  0999 V2000
   -5.0280   24.9760  -26.0460 H   0  0  0  0  0  0  0  0  0  0  0  0
   -4.5270   24.1130  -26.2220 O   0  0  0  0  0  0  0  0  0  0  0  0
   -4.2290   23.6960  -27.5180 C   0  0  0  0  0  0  0  0  0  0  0  0
   -4.1660   22.3300  -27.8050 C   0  0  0  0  0  0  0  0  0  0  0  0
   -4.3539   21.5933  -27.0100 H   0  0  0  0  0  0  0  0  0  0  0  0
   -3.8650   21.8970  -29.0990 C   0  0  0  0  0  0  0  0  0  0  0  0
   -3.8168   20.8203  -29.3190 H   0  0  0  0  0  0  0  0  0  0  0  0
   -3.6240   22.8300  -30.1190 C   0  0  0  0  0  0  0  0  0  0  0  0
   -3.3030   22.3450  -31.4770 C   0  0  0  0  0  0  0  0  0  0  0  0
   -1.5950   21.9270  -31.8490 S   0  0  0  0  0  0  0  0  0  0  0  0
   -1.1120   21.7890  -30.1300 C   0  0  0  0  0  0  0  0  0  0  0  0
   -0.6280   22.9090  -29.4430 C   0  0  0  0  0  0  0  0  0  0  0  0
   -0.5540   23.8791  -29.9562 H   0  0  0  0  0  0  0  0  0  0  0  0
   -0.2390   22.7950  -28.1060 C   0  0  0  0  0  0  0  0  0  0  0  0
    0.1357   23.6772  -27.5663 H   0  0  0  0  0  0  0  0  0  0  0  0
   -0.3250   21.5610  -27.4520 C   0  0  0  0  0  0  0  0  0  0  0  0
   -0.0092   21.4735  -26.4020 H   0  0  0  0  0  0  0  0  0  0  0  0
   -0.8130   20.4350  -28.1320 C   0  0  0  0  0  0  0  0  0  0  0  0
   -0.8690   19.1020  -27.4460 C   0  0  0  0  0  0  0  0  0  0  0  0
   -0.8628   19.2500  -26.3560 H   0  0  0  0  0  0  0  0  0  0  0  0
   -1.7900   18.5770  -27.7395 H   0  0  0  0  0  0  0  0  0  0  0  0
    0.0047   18.5016  -27.7395 H   0  0  0  0  0  0  0  0  0  0  0  0
   -1.1860   20.5500  -29.4820 C   0  0  0  0  0  0  0  0  0  0  0  0
   -1.5371   19.6640  -30.0313 H   0  0  0  0  0  0  0  0  0  0  0  0
   -4.2540   22.0040  -32.3600 C   0  0  0  0  0  0  0  0  0  0  0  0
   -3.9355   21.5997  -33.3322 H   0  0  0  0  0  0  0  0  0  0  0  0
   -5.7050   22.1390  -32.1050 C   0  0  0  0  0  0  0  0  0  0  0  0
   -6.2450   23.3640  -31.6800 C   0  0  0  0  0  0  0  0  0  0  0  0
   -5.5838   24.2308  -31.5330 H   0  0  0  0  0  0  0  0  0  0  0  0
   -7.6140   23.4890  -31.4430 C   0  0  0  0  0  0  0  0  0  0  0  0
   -8.0262   24.4476  -31.0949 H   0  0  0  0  0  0  0  0  0  0  0  0
   -8.4600   22.4000  -31.6470 C   0  0  0  0  0  0  0  0  0  0  0  0
   -9.5387   22.4999  -31.4564 H   0  0  0  0  0  0  0  0  0  0  0  0
   -7.9410   21.1820  -32.0930 C   0  0  0  0  0  0  0  0  0  0  0  0
   -8.6156   20.3300  -32.2635 H   0  0  0  0  0  0  0  0  0  0  0  0
   -6.5570   21.0380  -32.3260 C   0  0  0  0  0  0  0  0  0  0  0  0
   -5.9930   19.8280  -32.7660 O   0  0  0  0  0  0  0  0  0  0  0  0
   -6.7110   18.6300  -33.0600 C   0  0  0  0  0  0  0  0  0  0  0  0
   -6.1303   18.0268  -33.7734 H   0  0  0  0  0  0  0  0  0  0  0  0
   -7.6859   18.8989  -33.4927 H   0  0  0  0  0  0  0  0  0  0  0  0
   -6.9450   17.8170  -31.7910 C   0  0  0  0  0  0  0  0  0  0  0  0
   -6.7626   18.4508  -30.9106 H   0  0  0  0  0  0  0  0  0  0  0  0
   -7.9837   17.4553  -31.7736 H   0  0  0  0  0  0  0  0  0  0  0  0
   -6.2575   16.9585  -31.7736 H   0  0  0  0  0  0  0  0  0  0  0  0
   -3.6940   24.2040  -29.8300 C   0  0  0  0  0  0  0  0  0  0  0  0
   -3.4830   25.1520  -30.8270 O   0  0  0  0  0  0  0  0  0  0  0  0
   -3.9940   24.6330  -28.5330 C   0  0  0  0  0  0  0  0  0  0  0  0
   -4.0456   25.7088  -28.3092 H   0  0  0  0  0  0  0  0  0  0  0  0
  1  2  1  0
  2  3  1  0
  3  4  2  0
  4  5  1  0
  4  6  1  0
  6  7  1  0
  6  8  2  0
  8  9  1  0
  9 10  1  0
 10 11  1  0
 11 12  2  0
 12 13  1  0
 12 14  1  0
 14 15  1  0
 14 16  2  0
 16 17  1  0
 16 18  1  0
 18 19  1  0
 19 20  1  0
 19 21  1  0
 19 22  1  0
 18 23  2  0
 23 24  1  0
  9 25  2  0
 25 26  1  0
 25 27  1  0
 27 28  2  0
 28 29  1  0
 28 30  1  0
 30 31  1  0
 30 32  2  0
 32 33  1  0
 32 34  1  0
 34 35  1  0
 34 36  2  0
 36 37  1  0
 37 38  1  0
 38 39  1  0
 38 40  1  0
 38 41  1  0
 41 42  1  0
 41 43  1  0
 41 44  1  0
  8 45  1  0
 45 46  1  0
 45 47  2  0
 47 48  1  0
 47  3  1  0
 23 11  1  0
 36 27  1  0
M  CHG  1  46  -1
M  END
>  <UniqueID>  (11) 
10

>  <SMILES>  (11) 
CCOc1ccccc1/C=C(/Sc1cccc(C)c1)c1ccc(O)cc1[O-]

>  <Energy>  (11) 
55.722282564622105

>  <Genealogy>  (11) 
CCOc1ccccc1C=C(Sc1cccc(C)c1)c1ccc(O)cc1[O-] (protonated)
CCOc1ccccc1/C=C(/Sc1cccc(C)c1)c1ccc(O)cc1[O-] (cis-trans isomerization)
CCOc1ccccc1/C=C(/Sc1cccc(C)c1)c1ccc(O)cc1[O-] (3D coordinates assigned)
CCOc1ccccc1/C=C(/Sc1cccc(C)c1)c1ccc(O)cc1[O-] (optimized conformer: 55.722282564622105 kcal/mol)

>  <smiles>  (11) 
CCOc1ccccc1C=C(Sc1cccc(C)c1)c1ccc(O)cc1O

>  <score_type>  (11) 
oracle

>  <origin>  (11) 
adgpu

>  <m_score__min__energy>  (11) 
-11.42

>  <m_primary>  (11) 
energy

$$$$
11:0
     RDKit          3D

 62 64  0  0  0  0  0  0  0  0999 V2000
   -6.8850   15.0600  -34.2460 C   0  0  0  0  0  0  0  0  0  0  0  0
   -5.6260   15.3660  -33.4170 C   0  0  0  0  0  0  0  0  0  0  0  0
   -5.2690   16.7980  -33.5170 N   0  0  0  0  0  0  0  0  0  0  0  0
   -3.7950   17.0000  -33.5490 C   0  0  0  0  0  0  0  0  0  0  0  0
   -3.3820   18.3830  -34.1030 C   0  0  0  0  0  0  0  0  0  0  0  0
   -4.5020   19.3250  -34.0180 N   0  0  0  0  0  0  0  0  0  0  0  0
   -4.4330   20.4070  -33.0770 C   0  0  0  0  0  0  0  0  0  0  0  0
   -3.2590   21.1640  -32.9960 C   0  0  0  0  0  0  0  0  0  0  0  0
   -3.1550   22.2170  -32.0850 C   0  0  0  0  0  0  0  0  0  0  0  0
   -4.2290   22.5360  -31.2540 C   0  0  0  0  0  0  0  0  0  0  0  0
   -4.0690   23.8470  -30.0910 S   0  0  0  0  0  0  0  0  0  0  0  0
   -5.3220   23.9650  -29.2660 O   0  0  0  0  0  0  0  0  0  0  0  0
   -3.8510   25.1340  -30.8370 O   0  0  0  0  0  0  0  0  0  0  0  0
   -2.7070   23.5200  -29.0480 N   0  0  0  0  0  0  0  0  0  0  0  0
   -2.5370   24.5970  -28.0460 C   0  0  0  0  0  0  0  0  0  0  0  0
   -1.2340   25.3890  -28.2460 C   0  0  0  0  0  0  0  0  0  0  0  0
   -0.0910   24.5550  -28.2200 O   0  0  0  0  0  0  0  0  0  0  0  0
   -0.2450   23.3520  -28.9700 C   0  0  0  0  0  0  0  0  0  0  0  0
   -1.4970   23.2920  -29.8600 C   0  0  0  0  0  0  0  0  0  0  0  0
   -5.4190   21.7970  -31.3410 C   0  0  0  0  0  0  0  0  0  0  0  0
   -5.5320   20.7330  -32.2540 C   0  0  0  0  0  0  0  0  0  0  0  0
   -6.7420   19.9550  -32.2970 N   0  0  0  0  0  0  0  0  0  0  0  0
   -6.7570   18.6590  -31.5910 C   0  0  0  0  0  0  0  0  0  0  0  0
   -7.9790   17.8180  -31.9780 C   0  0  0  0  0  0  0  0  0  0  0  0
   -8.0010   20.6030  -32.7020 C   0  0  0  0  0  0  0  0  0  0  0  0
   -8.7290   21.1640  -31.4850 C   0  0  0  0  0  0  0  0  0  0  0  0
   -5.8010   18.9400  -34.5800 C   0  0  0  0  0  0  0  0  0  0  0  0
   -5.9110   17.4140  -34.6960 C   0  0  0  0  0  0  0  0  0  0  0  0
   -7.7282   14.8550  -33.5700 H   0  0  0  0  0  0  0  0  0  0  0  0
   -7.1257   15.9258  -34.8804 H   0  0  0  0  0  0  0  0  0  0  0  0
   -6.7014   14.1803  -34.8804 H   0  0  0  0  0  0  0  0  0  0  0  0
   -5.8175   15.1144  -32.3634 H   0  0  0  0  0  0  0  0  0  0  0  0
   -4.7911   14.7655  -33.8073 H   0  0  0  0  0  0  0  0  0  0  0  0
   -3.4065   16.9035  -32.5244 H   0  0  0  0  0  0  0  0  0  0  0  0
   -3.3752   16.2390  -34.2233 H   0  0  0  0  0  0  0  0  0  0  0  0
   -2.5372   18.7710  -33.5150 H   0  0  0  0  0  0  0  0  0  0  0  0
   -3.0902   18.2713  -35.1577 H   0  0  0  0  0  0  0  0  0  0  0  0
   -2.4110   20.9276  -33.6555 H   0  0  0  0  0  0  0  0  0  0  0  0
   -2.2226   22.7972  -32.0224 H   0  0  0  0  0  0  0  0  0  0  0  0
   -3.3870   25.2906  -28.1263 H   0  0  0  0  0  0  0  0  0  0  0  0
   -2.4916   24.1251  -27.0534 H   0  0  0  0  0  0  0  0  0  0  0  0
   -1.2766   25.9010  -29.2186 H   0  0  0  0  0  0  0  0  0  0  0  0
   -1.1458   26.1079  -27.4181 H   0  0  0  0  0  0  0  0  0  0  0  0
    0.6378   23.2384  -29.6163 H   0  0  0  0  0  0  0  0  0  0  0  0
   -0.3558   22.5439  -28.2320 H   0  0  0  0  0  0  0  0  0  0  0  0
   -1.4287   24.0677  -30.6370 H   0  0  0  0  0  0  0  0  0  0  0  0
   -1.5591   22.2984  -30.3278 H   0  0  0  0  0  0  0  0  0  0  0  0
   -6.2690   22.0516  -30.6908 H   0  0  0  0  0  0  0  0  0  0  0  0
   -5.8443   18.1018  -31.8488 H   0  0  0  0  0  0  0  0  0  0  0  0
   -6.8049   18.8573  -30.5101 H   0  0  0  0  0  0  0  0  0  0  0  0
   -8.4869   17.4684  -31.0671 H   0  0  0  0  0  0  0  0  0  0  0  0
   -8.6726   18.4309  -32.5723 H   0  0  0  0  0  0  0  0  0  0  0  0
   -7.6543   16.9512  -32.5723 H   0  0  0  0  0  0  0  0  0  0  0  0
   -7.7776   21.4233  -33.4000 H   0  0  0  0  0  0  0  0  0  0  0  0
   -8.6451   19.8557  -33.1884 H   0  0  0  0  0  0  0  0  0  0  0  0
   -8.2485   20.7937  -30.5674 H   0  0  0  0  0  0  0  0  0  0  0  0
   -8.6836   22.2629  -31.5049 H   0  0  0  0  0  0  0  0  0  0  0  0
   -9.7800   20.8400  -31.5049 H   0  0  0  0  0  0  0  0  0  0  0  0
   -6.6024   19.3110  -33.9242 H   0  0  0  0  0  0  0  0  0  0  0  0
   -5.8959   19.3787  -35.5843 H   0  0  0  0  0  0  0  0  0  0  0  0
   -6.9708   17.1219  -34.7344 H   0  0  0  0  0  0  0  0  0  0  0  0
   -5.4107   17.0726  -35.6142 H   0  0  0  0  0  0  0  0  0  0  0  0
  1  2  1  0
  2  3  1  0
  3  4  1  0
  4  5  1  0
  5  6  1  0
  6  7  1  0
  7  8  2  0
  8  9  1  0
  9 10  2  0
 10 11  1  0
 11 12  2  0
 11 13  2  0
 11 14  1  0
 14 15  1  0
 15 16  1  0
 16 17  1  0
 17 18  1  0
 18 19  1  0
 10 20  1  0
 20 21  2  0
 21 22  1  0
 22 23  1  0
 23 24  1  0
 22 25  1  0
 25 26  1  0
  6 27  1  0
 27 28  1  0
 28  3  1  0
 21  7  1  0
 19 14  1  0
  1 29  1  0
  1 30  1  0
  1 31  1  0
  2 32  1  0
  2 33  1  0
  4 34  1  0
  4 35  1  0
  5 36  1  0
  5 37  1  0
  8 38  1  0
  9 39  1  0
 15 40  1  0
 15 41  1  0
 16 42  1  0
 16 43  1  0
 18 44  1  0
 18 45  1  0
 19 46  1  0
 19 47  1  0
 20 48  1  0
 23 49  1  0
 23 50  1  0
 24 51  1  0
 24 52  1  0
 24 53  1  0
 25 54  1  0
 25 55  1  0
 26 56  1  0
 26 57  1  0
 26 58  1  0
 27 59  1  0
 27 60  1  0
 28 61  1  0
 28 62  1  0
M  END
>  <UniqueID>  (12) 
11

>  <SMILES>  (12) 
CCN1CCN(c2ccc(S(=O)(=O)N3CCOCC3)cc2N(CC)CC)CC1

>  <Energy>  (12) 
82.42427215411033

>  <Genealogy>  (12) 
CCN1CCN(c2ccc(S(=O)(=O)N3CCOCC3)cc2N(CC)CC)CC1 (3D coordinates assigned)
CCN1CCN(c2ccc(S(=O)(=O)N3CCOCC3)cc2N(CC)CC)CC1 (nonaromatic ring conformer: 82.42427215411033 kcal/mol)

>  <smiles>  (12) 
CCN1CCN(c2ccc(S(=O)(=O)N3CCOCC3)cc2N(CC)CC)CC1

>  <score_type>  (12) 
oracle

>  <origin>  (12) 
adgpu

>  <m_score__min__energy>  (12) 
-9

>  <m_primary>  (12) 
energy

$$$$
12:0
     RDKit          3D

 54 57  0  0  0  0  0  0  0  0999 V2000
   -7.1810   20.2040  -31.6290 C   0  0  0  0  0  0  0  0  0  0  0  0
   -6.4450   19.3490  -32.6270 C   0  0  0  0  0  0  0  0  0  0  0  0
   -7.1270   18.2860  -33.2440 C   0  0  0  0  0  0  0  0  0  0  0  0
   -6.4760   17.4630  -34.1640 C   0  0  0  0  0  0  0  0  0  0  0  0
   -5.1410   17.6950  -34.4870 C   0  0  0  0  0  0  0  0  0  0  0  0
   -4.4500   18.7550  -33.8960 C   0  0  0  0  0  0  0  0  0  0  0  0
   -5.0880   19.5970  -32.9660 C   0  0  0  0  0  0  0  0  0  0  0  0
   -4.3300   20.7290  -32.3840 C   0  0  0  0  0  0  0  0  0  0  0  0
   -4.0320   21.7130  -33.1140 O   0  0  0  0  0  0  0  0  0  0  0  0
   -3.8980   20.6880  -31.0120 N   0  0  0  0  0  0  0  0  0  0  0  0
   -3.2950   21.7990  -30.3260 C   0  0  0  0  0  0  0  0  0  0  0  0
   -4.1130   22.7020  -29.6320 C   0  0  0  0  0  0  0  0  0  0  0  0
   -3.5540   23.8010  -28.9720 C   0  0  0  0  0  0  0  0  0  0  0  0
   -2.1700   24.0300  -29.0200 C   0  0  0  0  0  0  0  0  0  0  0  0
   -1.5820   25.1850  -28.3080 C   0  0  0  0  0  0  0  0  0  0  0  0
   -1.2370   26.2020  -28.9690 O   0  0  0  0  0  0  0  0  0  0  0  0
   -1.3850   25.1670  -26.8830 N   0  0  0  0  0  0  0  0  0  0  0  0
   -1.5600   26.3970  -26.0990 C   0  0  0  0  0  0  0  0  0  0  0  0
   -0.2450   26.7660  -25.4050 C   0  0  0  0  0  0  0  0  0  0  0  0
    0.4070   25.5840  -24.8210 N   0  0  0  0  0  0  0  0  0  0  0  0
    1.6910   25.7390  -24.1850 C   0  0  0  0  0  0  0  0  0  0  0  0
    2.5870   24.6610  -24.0820 C   0  0  0  0  0  0  0  0  0  0  0  0
    3.8310   24.8570  -23.4760 C   0  0  0  0  0  0  0  0  0  0  0  0
    4.1770   26.1190  -22.9930 C   0  0  0  0  0  0  0  0  0  0  0  0
    3.2740   27.1740  -23.1290 C   0  0  0  0  0  0  0  0  0  0  0  0
    2.0670   26.9640  -23.7180 N   0  0  0  0  0  0  0  0  0  0  0  0
   -0.2950   24.2910  -24.8310 C   0  0  0  0  0  0  0  0  0  0  0  0
   -0.7850   23.9790  -26.2490 C   0  0  0  0  0  0  0  0  0  0  0  0
   -1.3510   23.1300  -29.7230 C   0  0  0  0  0  0  0  0  0  0  0  0
   -1.9100   22.0300  -30.3810 C   0  0  0  0  0  0  0  0  0  0  0  0
   -6.9119   19.8914  -30.6093 H   0  0  0  0  0  0  0  0  0  0  0  0
   -6.9036   21.2585  -31.7744 H   0  0  0  0  0  0  0  0  0  0  0  0
   -8.2650   20.0866  -31.7744 H   0  0  0  0  0  0  0  0  0  0  0  0
   -8.1834   18.1012  -32.9995 H   0  0  0  0  0  0  0  0  0  0  0  0
   -7.0180   16.6297  -34.6349 H   0  0  0  0  0  0  0  0  0  0  0  0
   -4.6298   17.0417  -35.2094 H   0  0  0  0  0  0  0  0  0  0  0  0
   -3.3971   18.9335  -34.1598 H   0  0  0  0  0  0  0  0  0  0  0  0
   -3.9780   19.7860  -30.4900 H   0  0  0  0  0  0  0  0  0  0  0  0
   -5.2014   22.5450  -29.6065 H   0  0  0  0  0  0  0  0  0  0  0  0
   -4.2030   24.4902  -28.4118 H   0  0  0  0  0  0  0  0  0  0  0  0
   -1.8612   27.2162  -26.7685 H   0  0  0  0  0  0  0  0  0  0  0  0
   -2.3370   26.2332  -25.3378 H   0  0  0  0  0  0  0  0  0  0  0  0
    0.4330   27.2203  -26.1425 H   0  0  0  0  0  0  0  0  0  0  0  0
   -0.4702   27.4724  -24.5924 H   0  0  0  0  0  0  0  0  0  0  0  0
    2.3114   23.6713  -24.4751 H   0  0  0  0  0  0  0  0  0  0  0  0
    4.5357   24.0179  -23.3801 H   0  0  0  0  0  0  0  0  0  0  0  0
    5.1518   26.2809  -22.5098 H   0  0  0  0  0  0  0  0  0  0  0  0
    3.5388   28.1757  -22.7596 H   0  0  0  0  0  0  0  0  0  0  0  0
    0.3928   23.4992  -24.4995 H   0  0  0  0  0  0  0  0  0  0  0  0
   -1.1579   24.3402  -24.1505 H   0  0  0  0  0  0  0  0  0  0  0  0
    0.0677   23.6411  -26.8563 H   0  0  0  0  0  0  0  0  0  0  0  0
   -1.5534   23.1945  -26.1856 H   0  0  0  0  0  0  0  0  0  0  0  0
   -0.2635   23.2918  -29.7559 H   0  0  0  0  0  0  0  0  0  0  0  0
   -1.2624   21.3422  -30.9444 H   0  0  0  0  0  0  0  0  0  0  0  0
  1  2  1  0
  2  3  2  0
  3  4  1  0
  4  5  2  0
  5  6  1  0
  6  7  2  0
  7  8  1  0
  8  9  2  0
  8 10  1  0
 10 11  1  0
 11 12  2  0
 12 13  1  0
 13 14  2  0
 14 15  1  0
 15 16  2  0
 15 17  1  0
 17 18  1  0
 18 19  1  0
 19 20  1  0
 20 21  1  0
 21 22  2  0
 22 23  1  0
 23 24  2  0
 24 25  1  0
 25 26  2  0
 20 27  1  0
 27 28  1  0
 14 29  1  0
 29 30  2  0
  7  2  1  0
 30 11  1  0
 28 17  1  0
 26 21  1  0
  1 31  1  0
  1 32  1  0
  1 33  1  0
  3 34  1  0
  4 35  1  0
  5 36  1  0
  6 37  1  0
 10 38  1  0
 12 39  1  0
 13 40  1  0
 18 41  1  0
 18 42  1  0
 19 43  1  0
 19 44  1  0
 22 45  1  0
 23 46  1  0
 24 47  1  0
 25 48  1  0
 27 49  1  0
 27 50  1  0
 28 51  1  0
 28 52  1  0
 29 53  1  0
 30 54  1  0
M  END
>  <UniqueID>  (13) 
12

>  <SMILES>  (13) 
Cc1ccccc1C(=O)Nc1ccc(C(=O)N2CCN(c3ccccn3)CC2)cc1

>  <Energy>  (13) 
76.83402746911044

>  <Genealogy>  (13) 
Cc1ccccc1C(=O)Nc1ccc(C(=O)N2CCN(c3ccccn3)CC2)cc1 (3D coordinates assigned)
Cc1ccccc1C(=O)Nc1ccc(C(=O)N2CCN(c3ccccn3)CC2)cc1 (nonaromatic ring conformer: 76.83402746911044 kcal/mol)

>  <smiles>  (13) 
Cc1ccccc1C(=O)Nc1ccc(C(=O)N2CCN(c3ccccn3)CC2)cc1

>  <score_type>  (13) 
oracle

>  <origin>  (13) 
adgpu

>  <m_score__min__energy>  (13) 
-8.0399999999999991

>  <m_primary>  (13) 
energy

$$$$
13:0
     RDKit          3D

 43 45  0  0  0  0  0  0  0  0999 V2000
   -3.0500   22.6740  -31.7310 O   0  0  0  0  0  0  0  0  0  0  0  0
   -3.9220   23.4280  -31.2200 C   0  0  0  0  0  0  0  0  0  0  0  0
   -3.4890   24.5690  -30.4670 N   0  0  0  0  0  0  0  0  0  0  0  0
   -3.3570   24.6060  -29.0160 C   0  0  0  0  0  0  0  0  0  0  0  0
   -1.9910   24.1210  -28.6300 C   0  0  0  0  0  0  0  0  0  0  0  0
   -1.7940   22.7950  -28.2180 C   0  0  0  0  0  0  0  0  0  0  0  0
   -0.5220   22.3680  -27.8280 C   0  0  0  0  0  0  0  0  0  0  0  0
    0.5380   23.2750  -27.8420 C   0  0  0  0  0  0  0  0  0  0  0  0
    0.3290   24.5620  -28.2270 N   0  0  0  0  0  0  0  0  0  0  0  0
   -0.8990   25.0020  -28.6130 C   0  0  0  0  0  0  0  0  0  0  0  0
   -5.3480   23.0870  -31.3830 C   0  0  0  0  0  0  0  0  0  0  0  0
   -6.3360   24.0830  -31.3230 C   0  0  0  0  0  0  0  0  0  0  0  0
   -7.6810   23.7520  -31.4950 C   0  0  0  0  0  0  0  0  0  0  0  0
   -8.0520   22.4270  -31.7400 C   0  0  0  0  0  0  0  0  0  0  0  0
   -7.0750   21.4260  -31.8180 C   0  0  0  0  0  0  0  0  0  0  0  0
   -7.5530   19.7640  -32.1440 S   0  0  0  0  0  0  0  0  0  0  0  0
   -8.4740   19.3100  -31.0460 O   0  0  0  0  0  0  0  0  0  0  0  0
   -8.2960   19.7100  -33.4520 O   0  0  0  0  0  0  0  0  0  0  0  0
   -6.0980   18.7790  -32.2130 N   0  0  0  0  0  0  0  0  0  0  0  0
   -6.3840   17.3350  -32.1440 C   0  0  0  0  0  0  0  0  0  0  0  0
   -6.8390   16.7800  -33.5030 C   0  0  0  0  0  0  0  0  0  0  0  0
   -5.8770   17.0550  -34.5010 O   0  0  0  0  0  0  0  0  0  0  0  0
   -5.7510   18.4530  -34.6610 C   0  0  0  0  0  0  0  0  0  0  0  0
   -5.2390   19.1060  -33.3670 C   0  0  0  0  0  0  0  0  0  0  0  0
   -5.7230   21.7610  -31.6520 C   0  0  0  0  0  0  0  0  0  0  0  0
   -3.4945   25.6379  -28.6607 H   0  0  0  0  0  0  0  0  0  0  0  0
   -4.1204   23.9586  -28.5599 H   0  0  0  0  0  0  0  0  0  0  0  0
   -2.6398   22.0919  -28.2019 H   0  0  0  0  0  0  0  0  0  0  0  0
   -0.3580   21.3269  -27.5130 H   0  0  0  0  0  0  0  0  0  0  0  0
    1.5443   22.9483  -27.5411 H   0  0  0  0  0  0  0  0  0  0  0  0
   -1.0363   26.0515  -28.9127 H   0  0  0  0  0  0  0  0  0  0  0  0
   -6.0487   25.1289  -31.1396 H   0  0  0  0  0  0  0  0  0  0  0  0
   -8.4507   24.5357  -31.4376 H   0  0  0  0  0  0  0  0  0  0  0  0
   -9.1133   22.1696  -31.8719 H   0  0  0  0  0  0  0  0  0  0  0  0
   -5.4723   16.8056  -31.8299 H   0  0  0  0  0  0  0  0  0  0  0  0
   -7.1983   17.1809  -31.4207 H   0  0  0  0  0  0  0  0  0  0  0  0
   -6.9743   15.6914  -33.4217 H   0  0  0  0  0  0  0  0  0  0  0  0
   -7.7874   17.2620  -33.7828 H   0  0  0  0  0  0  0  0  0  0  0  0
   -5.0409   18.6604  -35.4751 H   0  0  0  0  0  0  0  0  0  0  0  0
   -6.7399   18.8713  -34.9000 H   0  0  0  0  0  0  0  0  0  0  0  0
   -4.2193   18.7460  -33.1655 H   0  0  0  0  0  0  0  0  0  0  0  0
   -5.2521   20.1972  -33.5055 H   0  0  0  0  0  0  0  0  0  0  0  0
   -4.9522   20.9804  -31.7330 H   0  0  0  0  0  0  0  0  0  0  0  0
  1  2  2  0
  2  3  1  0
  3  4  1  0
  4  5  1  0
  5  6  2  0
  6  7  1  0
  7  8  2  0
  8  9  1  0
  9 10  2  0
  2 11  1  0
 11 12  2  0
 12 13  1  0
 13 14  2  0
 14 15  1  0
 15 16  1  0
 16 17  2  0
 16 18  2  0
 16 19  1  0
 19 20  1  0
 20 21  1  0
 21 22  1  0
 22 23  1  0
 23 24  1  0
 15 25  2  0
 10  5  1  0
 25 11  1  0
 24 19  1  0
  4 26  1  0
  4 27  1  0
  6 28  1  0
  7 29  1  0
  8 30  1  0
 10 31  1  0
 12 32  1  0
 13 33  1  0
 14 34  1  0
 20 35  1  0
 20 36  1  0
 21 37  1  0
 21 38  1  0
 23 39  1  0
 23 40  1  0
 24 41  1  0
 24 42  1  0
 25 43  1  0
M  CHG  1   3  -1
M  END
>  <UniqueID>  (14) 
13

>  <SMILES>  (14) 
O=C([N-]Cc1cccnc1)c1cccc(S(=O)(=O)N2CCOCC2)c1

>  <Energy>  (14) 
54.94734236545382

>  <Genealogy>  (14) 
O=C([N-]Cc1cccnc1)c1cccc(S(=O)(=O)N2CCOCC2)c1 (protonated)
O=C([N-]Cc1cccnc1)c1cccc(S(=O)(=O)N2CCOCC2)c1 (3D coordinates assigned)
O=C([N-]Cc1cccnc1)c1cccc(S(=O)(=O)N2CCOCC2)c1 (nonaromatic ring conformer: 54.94734236545382 kcal/mol)

>  <smiles>  (14) 
O=C(NCc1cccnc1)c1cccc(S(=O)(=O)N2CCOCC2)c1

>  <score_type>  (14) 
oracle

>  <origin>  (14) 
adgpu

>  <m_score__min__energy>  (14) 
-10.76

>  <m_primary>  (14) 
energy

$$$$
14:0
     RDKit          3D

 48 51  0  0  0  0  0  0  0  0999 V2000
   -0.3480   20.6130  -30.7960 C   0  0  0  0  0  0  0  0  0  0  0  0
   -1.4700   20.3760  -31.7200 N   0  0  0  0  0  0  0  0  0  0  0  0
   -2.7510   20.8210  -31.1150 C   0  0  0  0  0  0  0  0  0  0  0  0
   -3.7710   21.3550  -32.1490 C   0  0  0  0  0  0  0  0  0  0  0  0
   -3.6750   20.6830  -33.4590 N   0  0  0  0  0  0  0  0  0  0  0  0
   -4.4270   19.1010  -33.4510 S   0  0  0  0  0  0  0  0  0  0  0  0
   -3.5830   18.1290  -32.6750 O   0  0  0  0  0  0  0  0  0  0  0  0
   -4.5720   18.6050  -34.8620 O   0  0  0  0  0  0  0  0  0  0  0  0
   -6.0340   19.2000  -32.7360 C   0  0  0  0  0  0  0  0  0  0  0  0
   -6.8210   18.0520  -32.5780 C   0  0  0  0  0  0  0  0  0  0  0  0
   -8.0820   18.1430  -31.9800 C   0  0  0  0  0  0  0  0  0  0  0  0
   -8.5590   19.3770  -31.5330 C   0  0  0  0  0  0  0  0  0  0  0  0
   -7.7810   20.5320  -31.6950 C   0  0  0  0  0  0  0  0  0  0  0  0
   -8.3260   22.0850  -31.0750 S   0  0  0  0  0  0  0  0  0  0  0  0
   -9.2630   22.7230  -32.0630 O   0  0  0  0  0  0  0  0  0  0  0  0
   -9.0600   21.9070  -29.7750 O   0  0  0  0  0  0  0  0  0  0  0  0
   -6.9190   23.1090  -30.8240 C   0  0  0  0  0  0  0  0  0  0  0  0
   -6.8850   24.4150  -31.3750 C   0  0  0  0  0  0  0  0  0  0  0  0
   -5.7450   25.2260  -31.2220 C   0  0  0  0  0  0  0  0  0  0  0  0
   -4.6650   24.6980  -30.5200 C   0  0  0  0  0  0  0  0  0  0  0  0
   -3.4880   25.2880  -30.2610 N   0  0  0  0  0  0  0  0  0  0  0  0
   -2.8370   24.3240  -29.5640 C   0  0  0  0  0  0  0  0  0  0  0  0
   -1.6680   24.4840  -29.1230 O   0  0  0  0  0  0  0  0  0  0  0  0
   -3.5320   23.1740  -29.3740 N   0  0  0  0  0  0  0  0  0  0  0  0
   -4.6910   23.4430  -29.9920 C   0  0  0  0  0  0  0  0  0  0  0  0
   -5.7990   22.6100  -30.1240 C   0  0  0  0  0  0  0  0  0  0  0  0
   -6.5240   20.4400  -32.3060 C   0  0  0  0  0  0  0  0  0  0  0  0
   -2.3070   20.6570  -34.0280 C   0  0  0  0  0  0  0  0  0  0  0  0
   -1.2130   21.0340  -33.0130 C   0  0  0  0  0  0  0  0  0  0  0  0
   -0.7053   20.5375  -29.7584 H   0  0  0  0  0  0  0  0  0  0  0  0
    0.4353   19.8605  -30.9697 H   0  0  0  0  0  0  0  0  0  0  0  0
    0.0641   21.6180  -30.9697 H   0  0  0  0  0  0  0  0  0  0  0  0
   -1.5140   19.3420  -31.8850 H   0  0  0  0  0  0  0  0  0  0  0  0
   -3.2029   19.9667  -30.5897 H   0  0  0  0  0  0  0  0  0  0  0  0
   -2.5152   21.6527  -30.4348 H   0  0  0  0  0  0  0  0  0  0  0  0
   -4.7851   21.2024  -31.7510 H   0  0  0  0  0  0  0  0  0  0  0  0
   -3.5469   22.4198  -32.3101 H   0  0  0  0  0  0  0  0  0  0  0  0
   -6.4467   17.0775  -32.9248 H   0  0  0  0  0  0  0  0  0  0  0  0
   -8.6995   17.2404  -31.8615 H   0  0  0  0  0  0  0  0  0  0  0  0
   -9.5466   19.4429  -31.0531 H   0  0  0  0  0  0  0  0  0  0  0  0
   -7.7566   24.7974  -31.9265 H   0  0  0  0  0  0  0  0  0  0  0  0
   -5.7086   26.2418  -31.6425 H   0  0  0  0  0  0  0  0  0  0  0  0
   -5.8016   21.5963  -29.6969 H   0  0  0  0  0  0  0  0  0  0  0  0
   -5.9180   21.3468  -32.4491 H   0  0  0  0  0  0  0  0  0  0  0  0
   -2.1032   19.6415  -34.3986 H   0  0  0  0  0  0  0  0  0  0  0  0
   -2.2761   21.4080  -34.8311 H   0  0  0  0  0  0  0  0  0  0  0  0
   -0.2342   20.7108  -33.3970 H   0  0  0  0  0  0  0  0  0  0  0  0
   -1.2182   22.1244  -32.8681 H   0  0  0  0  0  0  0  0  0  0  0  0
  1  2  1  0
  2  3  1  0
  3  4  1  0
  4  5  1  0
  5  6  1  0
  6  7  2  0
  6  8  2  0
  6  9  1  0
  9 10  2  0
 10 11  1  0
 11 12  2  0
 12 13  1  0
 13 14  1  0
 14 15  2  0
 14 16  2  0
 14 17  1  0
 17 18  2  0
 18 19  1  0
 19 20  2  0
 20 21  1  0
 21 22  1  0
 22 23  2  0
 22 24  1  0
 24 25  1  0
 25 26  2  0
 13 27  2  0
  5 28  1  0
 28 29  1  0
 29  2  1  0
 27  9  1  0
 26 17  1  0
 25 20  1  0
  1 30  1  0
  1 31  1  0
  1 32  1  0
  2 33  1  0
  3 34  1  0
  3 35  1  0
  4 36  1  0
  4 37  1  0
 10 38  1  0
 11 39  1  0
 12 40  1  0
 18 41  1  0
 19 42  1  0
 26 43  1  0
 27 44  1  0
 28 45  1  0
 28 46  1  0
 29 47  1  0
 29 48  1  0
M  CHG  3   2   1  21  -1  24  -1
M  END
>  <UniqueID>  (15) 
14

>  <SMILES>  (15) 
C[NH+]1CCN(S(=O)(=O)c2cccc(S(=O)(=O)c3ccc4[n-]c(=O)[n-]c4c3)c2)CC1

>  <Energy>  (15) 
99.14519567335708

>  <Genealogy>  (15) 
C[NH+]1CCN(S(=O)(=O)c2cccc(S(=O)(=O)c3ccc4[n-]c(=O)[n-]c4c3)c2)CC1 (protonated)
C[NH+]1CCN(S(=O)(=O)c2cccc(S(=O)(=O)c3ccc4[n-]c(=O)[n-]c4c3)c2)CC1 (3D coordinates assigned)
C[NH+]1CCN(S(=O)(=O)c2cccc(S(=O)(=O)c3ccc4[n-]c(=O)[n-]c4c3)c2)CC1 (nonaromatic ring conformer: 99.14519567335708 kcal/mol)

>  <smiles>  (15) 
CN1CCN(S(=O)(=O)c2cccc(S(=O)(=O)c3ccc4[nH]c(=O)[nH]c4c3)c2)CC1

>  <score_type>  (15) 
oracle

>  <origin>  (15) 
adgpu

>  <m_score__min__energy>  (15) 
-11.73

>  <m_primary>  (15) 
energy

$$$$
15:0
     RDKit          3D

 34 36  0  0  0  0  0  0  0  0999 V2000
   -0.5030   22.9950  -23.7920 C   0  0  0  0  0  0  0  0  0  0  0  0
   -0.2570   22.3700  -25.1620 C   0  0  0  0  0  0  0  0  0  0  0  0
   -0.5300   23.3680  -26.2610 C   0  0  0  0  0  0  0  0  0  0  0  0
   -1.6010   23.1560  -27.1430 C   0  0  0  0  0  0  0  0  0  0  0  0
   -1.8640   24.0500  -28.1990 C   0  0  0  0  0  0  0  0  0  0  0  0
   -3.0150   23.7760  -29.1020 C   0  0  0  0  0  0  0  0  0  0  0  0
   -3.5970   24.7270  -29.8700 N   0  0  0  0  0  0  0  0  0  0  0  0
   -4.6230   24.2860  -30.5970 N   0  0  0  0  0  0  0  0  0  0  0  0
   -4.8880   22.9720  -30.4240 C   0  0  0  0  0  0  0  0  0  0  0  0
   -5.9810   22.2550  -31.1200 C   0  0  0  0  0  0  0  0  0  0  0  0
   -5.7030   21.2140  -32.0240 C   0  0  0  0  0  0  0  0  0  0  0  0
   -6.7430   20.5450  -32.6750 C   0  0  0  0  0  0  0  0  0  0  0  0
   -8.0740   20.9060  -32.4350 C   0  0  0  0  0  0  0  0  0  0  0  0
   -9.1180   20.2460  -33.0790 O   0  0  0  0  0  0  0  0  0  0  0  0
   -8.3590   21.9400  -31.5380 C   0  0  0  0  0  0  0  0  0  0  0  0
   -7.3210   22.6120  -30.8850 C   0  0  0  0  0  0  0  0  0  0  0  0
   -3.8090   22.3000  -29.3160 S   0  0  0  0  0  0  0  0  0  0  0  0
   -1.0220   25.1750  -28.3580 C   0  0  0  0  0  0  0  0  0  0  0  0
   -1.2380   26.1090  -29.3640 O   0  0  0  0  0  0  0  0  0  0  0  0
    0.0550   25.3750  -27.4890 C   0  0  0  0  0  0  0  0  0  0  0  0
    0.3080   24.4800  -26.4500 C   0  0  0  0  0  0  0  0  0  0  0  0
    1.3950   24.7010  -25.6120 O   0  0  0  0  0  0  0  0  0  0  0  0
   -0.2211   22.2787  -23.0062 H   0  0  0  0  0  0  0  0  0  0  0  0
    0.1031   23.9074  -23.6910 H   0  0  0  0  0  0  0  0  0  0  0  0
   -1.5684   23.2495  -23.6910 H   0  0  0  0  0  0  0  0  0  0  0  0
    0.7906   22.0405  -25.2256 H   0  0  0  0  0  0  0  0  0  0  0  0
   -0.9352   21.5129  -25.2864 H   0  0  0  0  0  0  0  0  0  0  0  0
   -2.2466   22.2758  -27.0070 H   0  0  0  0  0  0  0  0  0  0  0  0
   -4.6600   20.9245  -32.2199 H   0  0  0  0  0  0  0  0  0  0  0  0
   -6.5147   19.7312  -33.3790 H   0  0  0  0  0  0  0  0  0  0  0  0
   -8.9820   19.7840  -33.9710 H   0  0  0  0  0  0  0  0  0  0  0  0
   -9.4036   22.2259  -31.3453 H   0  0  0  0  0  0  0  0  0  0  0  0
   -7.5541   23.4257  -30.1825 H   0  0  0  0  0  0  0  0  0  0  0  0
    0.7100   26.2480  -27.6265 H   0  0  0  0  0  0  0  0  0  0  0  0
  1  2  1  0
  2  3  1  0
  3  4  2  0
  4  5  1  0
  5  6  1  0
  6  7  2  0
  7  8  1  0
  8  9  2  0
  9 10  1  0
 10 11  2  0
 11 12  1  0
 12 13  2  0
 13 14  1  0
 13 15  1  0
 15 16  2  0
  9 17  1  0
  5 18  2  0
 18 19  1  0
 18 20  1  0
 20 21  2  0
 21 22  1  0
 21  3  1  0
 17  6  1  0
 16 10  1  0
  1 23  1  0
  1 24  1  0
  1 25  1  0
  2 26  1  0
  2 27  1  0
  4 28  1  0
 11 29  1  0
 12 30  1  0
 14 31  1  0
 15 32  1  0
 16 33  1  0
 20 34  1  0
M  CHG  2  19  -1  22  -1
M  END
>  <UniqueID>  (16) 
15

>  <SMILES>  (16) 
CCc1cc(-c2nnc(-c3ccc(O)cc3)s2)c([O-])cc1[O-]

>  <Energy>  (16) 
72.30593473753027

>  <Genealogy>  (16) 
CCc1cc(-c2nnc(-c3ccc(O)cc3)s2)c([O-])cc1[O-] (protonated)
CCc1cc(-c2nnc(-c3ccc(O)cc3)s2)c([O-])cc1[O-] (3D coordinates assigned)
CCc1cc(-c2nnc(-c3ccc(O)cc3)s2)c([O-])cc1[O-] (optimized conformer: 72.30593473753027 kcal/mol)

>  <smiles>  (16) 
CCc1cc(-c2nnc(-c3ccc(O)cc3)s2)c(O)cc1O

>  <score_type>  (16) 
oracle

>  <origin>  (16) 
adgpu

>  <m_score__min__energy>  (16) 
-10.94

>  <m_primary>  (16) 
energy

$$$$
16:0
     RDKit          3D

 70 74  0  0  0  0  0  0  0  0999 V2000
   -5.5950   18.3500  -33.4560 C   0  0  0  0  0  0  0  0  0  0  0  0
   -4.3150   18.9240  -34.0550 C   0  0  0  0  0  0  0  0  0  0  0  0
   -3.6420   19.7860  -33.0860 N   0  0  0  0  0  0  0  0  0  0  0  0
   -2.2730   19.5920  -32.7040 C   0  0  0  0  0  0  0  0  0  0  0  0
   -1.5630   18.7480  -33.3090 O   0  0  0  0  0  0  0  0  0  0  0  0
   -1.6650   20.3950  -31.6270 C   0  0  0  0  0  0  0  0  0  0  0  0
   -1.7540   21.7840  -31.5550 C   0  0  0  0  0  0  0  0  0  0  0  0
   -1.0460   22.1350  -30.4270 C   0  0  0  0  0  0  0  0  0  0  0  0
   -0.7820   23.3920  -29.8870 C   0  0  0  0  0  0  0  0  0  0  0  0
    0.0110   23.4670  -28.7250 C   0  0  0  0  0  0  0  0  0  0  0  0
    0.3520   24.7630  -28.2150 N   0  0  0  0  0  0  0  0  0  0  0  0
   -0.5390   25.8710  -28.0360 C   0  0  0  0  0  0  0  0  0  0  0  0
   -0.2270   26.8300  -27.2840 O   0  0  0  0  0  0  0  0  0  0  0  0
   -1.7990   25.8950  -28.7090 N   0  0  0  0  0  0  0  0  0  0  0  0
   -2.7710   24.8520  -28.5780 C   0  0  0  0  0  0  0  0  0  0  0  0
   -2.8720   24.0880  -27.3920 C   0  0  0  0  0  0  0  0  0  0  0  0
   -2.0960   24.4180  -26.2240 N   0  0  0  0  0  0  0  0  0  0  0  0
   -2.1850   25.6960  -25.5350 C   0  0  0  0  0  0  0  0  0  0  0  0
   -1.1690   25.6190  -24.4040 C   0  0  0  0  0  0  0  0  0  0  0  0
   -0.2030   24.5080  -24.8020 C   0  0  0  0  0  0  0  0  0  0  0  0
   -0.9810   23.6110  -25.7540 C   0  0  0  0  0  0  0  0  0  0  0  0
   -3.7780   23.0200  -27.3440 C   0  0  0  0  0  0  0  0  0  0  0  0
   -4.5900   22.7270  -28.4380 C   0  0  0  0  0  0  0  0  0  0  0  0
   -4.5230   23.5030  -29.6010 C   0  0  0  0  0  0  0  0  0  0  0  0
   -5.5560   23.0820  -30.9710 S   0  0  0  0  0  0  0  0  0  0  0  0
   -4.6770   22.5980  -32.0900 O   0  0  0  0  0  0  0  0  0  0  0  0
   -6.3320   24.2850  -31.4340 O   0  0  0  0  0  0  0  0  0  0  0  0
   -6.6680   21.8130  -30.5030 N   0  0  0  0  0  0  0  0  0  0  0  0
   -8.0490   22.3090  -30.5180 C   0  0  0  0  0  0  0  0  0  0  0  0
   -8.6560   21.9820  -31.8750 C   0  0  0  0  0  0  0  0  0  0  0  0
   -7.7330   20.9530  -32.4990 C   0  0  0  0  0  0  0  0  0  0  0  0
   -6.6350   20.7140  -31.4730 C   0  0  0  0  0  0  0  0  0  0  0  0
   -3.6040   24.5630  -29.6710 C   0  0  0  0  0  0  0  0  0  0  0  0
   -3.4900   25.3220  -30.8330 O   0  0  0  0  0  0  0  0  0  0  0  0
    0.5250   22.2750  -28.1490 C   0  0  0  0  0  0  0  0  0  0  0  0
    0.2390   21.0200  -28.7160 C   0  0  0  0  0  0  0  0  0  0  0  0
   -0.5540   20.9850  -29.8680 C   0  0  0  0  0  0  0  0  0  0  0  0
   -0.9080   19.9090  -30.6050 N   0  0  0  0  0  0  0  0  0  0  0  0
   -0.4940   18.5230  -30.3750 C   0  0  0  0  0  0  0  0  0  0  0  0
   -5.5311   18.3787  -32.3582 H   0  0  0  0  0  0  0  0  0  0  0  0
   -6.4560   18.9482  -33.7889 H   0  0  0  0  0  0  0  0  0  0  0  0
   -5.7210   17.3092  -33.7889 H   0  0  0  0  0  0  0  0  0  0  0  0
   -3.6434   18.0987  -34.3340 H   0  0  0  0  0  0  0  0  0  0  0  0
   -4.5721   19.5187  -34.9440 H   0  0  0  0  0  0  0  0  0  0  0  0
   -4.1950   20.5580  -32.6490 H   0  0  0  0  0  0  0  0  0  0  0  0
   -2.2778   22.4563  -32.2505 H   0  0  0  0  0  0  0  0  0  0  0  0
   -1.1826   24.3027  -30.3561 H   0  0  0  0  0  0  0  0  0  0  0  0
   -1.9365   26.5202  -26.2198 H   0  0  0  0  0  0  0  0  0  0  0  0
   -3.2009   25.8874  -25.1591 H   0  0  0  0  0  0  0  0  0  0  0  0
   -0.6346   26.5750  -24.3010 H   0  0  0  0  0  0  0  0  0  0  0  0
   -1.6496   25.4157  -23.4357 H   0  0  0  0  0  0  0  0  0  0  0  0
    0.6796   24.9288  -25.3059 H   0  0  0  0  0  0  0  0  0  0  0  0
    0.1616   23.9522  -23.9255 H   0  0  0  0  0  0  0  0  0  0  0  0
   -0.3460   23.3038  -26.5981 H   0  0  0  0  0  0  0  0  0  0  0  0
   -1.3236   22.6903  -25.2591 H   0  0  0  0  0  0  0  0  0  0  0  0
   -3.8489   22.4067  -26.4336 H   0  0  0  0  0  0  0  0  0  0  0  0
   -5.2891   21.8792  -28.3872 H   0  0  0  0  0  0  0  0  0  0  0  0
   -8.6295   21.8190  -29.7224 H   0  0  0  0  0  0  0  0  0  0  0  0
   -8.0649   23.3954  -30.3460 H   0  0  0  0  0  0  0  0  0  0  0  0
   -9.6672   21.5665  -31.7530 H   0  0  0  0  0  0  0  0  0  0  0  0
   -8.7499   22.8788  -32.5050 H   0  0  0  0  0  0  0  0  0  0  0  0
   -8.2791   20.0199  -32.7017 H   0  0  0  0  0  0  0  0  0  0  0  0
   -7.3246   21.3012  -33.4592 H   0  0  0  0  0  0  0  0  0  0  0  0
   -6.8081   19.7575  -30.9581 H   0  0  0  0  0  0  0  0  0  0  0  0
   -5.6538   20.6737  -31.9686 H   0  0  0  0  0  0  0  0  0  0  0  0
    1.1543   22.3339  -27.2487 H   0  0  0  0  0  0  0  0  0  0  0  0
    0.6272   20.0938  -28.2671 H   0  0  0  0  0  0  0  0  0  0  0  0
   -0.4370   18.3321  -29.2932 H   0  0  0  0  0  0  0  0  0  0  0  0
   -1.2276   17.8410  -30.8295 H   0  0  0  0  0  0  0  0  0  0  0  0
    0.4935   18.3551  -30.8295 H   0  0  0  0  0  0  0  0  0  0  0  0
  1  2  1  0
  2  3  1  0
  3  4  1  0
  4  5  2  0
  4  6  1  0
  6  7  2  0
  7  8  1  0
  8  9  2  0
  9 10  1  0
 10 11  1  0
 11 12  1  0
 12 13  2  0
 12 14  1  0
 14 15  1  0
 15 16  1  0
 16 17  1  0
 17 18  1  0
 18 19  1  0
 19 20  1  0
 20 21  1  0
 16 22  2  0
 22 23  1  0
 23 24  2  0
 24 25  1  0
 25 26  2  0
 25 27  2  0
 25 28  1  0
 28 29  1  0
 29 30  1  0
 30 31  1  0
 31 32  1  0
 24 33  1  0
 33 34  1  0
 10 35  2  0
 35 36  1  0
 36 37  2  0
 37 38  1  0
 38 39  1  0
 38  6  1  0
 37  8  1  0
 33 15  2  0
 21 17  1  0
 32 28  1  0
  1 40  1  0
  1 41  1  0
  1 42  1  0
  2 43  1  0
  2 44  1  0
  3 45  1  0
  7 46  1  0
  9 47  1  0
 18 48  1  0
 18 49  1  0
 19 50  1  0
 19 51  1  0
 20 52  1  0
 20 53  1  0
 21 54  1  0
 21 55  1  0
 22 56  1  0
 23 57  1  0
 29 58  1  0
 29 59  1  0
 30 60  1  0
 30 61  1  0
 31 62  1  0
 31 63  1  0
 32 64  1  0
 32 65  1  0
 35 66  1  0
 36 67  1  0
 39 68  1  0
 39 69  1  0
 39 70  1  0
M  CHG  3  11  -1  14  -1  34  -1
M  END
>  <UniqueID>  (17) 
16

>  <SMILES>  (17) 
CCNC(=O)c1cc2cc([N-]C(=O)[N-]c3c(N4CCCC4)ccc(S(=O)(=O)N4CCCC4)c3[O-])ccc2n1C

>  <Energy>  (17) 
122.00222568237636

>  <Genealogy>  (17) 
CCNC(=O)c1cc2cc([N-]C(=O)[N-]c3c(N4CCCC4)ccc(S(=O)(=O)N4CCCC4)c3[O-])ccc2n1C (protonated)
CCNC(=O)c1cc2cc([N-]C(=O)[N-]c3c(N4CCCC4)ccc(S(=O)(=O)N4CCCC4)c3[O-])ccc2n1C (3D coordinates assigned)
CCNC(=O)c1cc2cc([N-]C(=O)[N-]c3c(N4CCCC4)ccc(S(=O)(=O)N4CCCC4)c3[O-])ccc2n1C (nonaromatic ring conformer: 122.00222568237636 kcal/mol)

>  <smiles>  (17) 
CCNC(=O)c1cc2cc(NC(=O)Nc3c(N4CCCC4)ccc(S(=O)(=O)N4CCCC4)c3O)ccc2n1C

>  <score_type>  (17) 
oracle

>  <origin>  (17) 
adgpu

>  <m_score__min__energy>  (17) 
-15.199999999999999

>  <m_primary>  (17) 
energy

$$$$
17:0
     RDKit          3D

 64 67  0  0  0  0  0  0  0  0999 V2000
   -2.7970   19.5560  -26.5090 C   0  0  0  0  0  0  0  0  0  0  0  0
   -1.5580   19.3030  -27.2390 N   0  0  0  0  0  0  0  0  0  0  0  0
   -0.8580   18.1880  -27.1000 N   0  0  0  0  0  0  0  0  0  0  0  0
    0.2370   18.2890  -27.8770 C   0  0  0  0  0  0  0  0  0  0  0  0
    0.2340   19.5060  -28.5300 C   0  0  0  0  0  0  0  0  0  0  0  0
   -0.9310   20.1220  -28.1140 C   0  0  0  0  0  0  0  0  0  0  0  0
   -1.3850   21.4650  -28.5420 C   0  0  0  0  0  0  0  0  0  0  0  0
   -0.4650   22.4350  -28.9660 C   0  0  0  0  0  0  0  0  0  0  0  0
   -0.9040   23.7030  -29.3510 C   0  0  0  0  0  0  0  0  0  0  0  0
   -2.2640   24.0230  -29.3080 C   0  0  0  0  0  0  0  0  0  0  0  0
   -2.6740   25.2960  -29.6940 O   0  0  0  0  0  0  0  0  0  0  0  0
   -3.2000   23.0660  -28.8690 C   0  0  0  0  0  0  0  0  0  0  0  0
   -4.6780   23.3890  -28.7900 C   0  0  0  0  0  0  0  0  0  0  0  0
   -4.9290   24.8250  -28.5760 N   0  0  0  0  0  0  0  0  0  0  0  0
   -6.1360   25.3120  -29.2630 C   0  0  0  0  0  0  0  0  0  0  0  0
   -5.9450   25.2910  -30.7830 C   0  0  0  0  0  0  0  0  0  0  0  0
   -6.2520   23.9240  -31.3330 C   0  0  0  0  0  0  0  0  0  0  0  0
   -7.5580   23.4120  -31.2770 C   0  0  0  0  0  0  0  0  0  0  0  0
   -7.8460   22.1540  -31.8140 C   0  0  0  0  0  0  0  0  0  0  0  0
   -6.8310   21.3910  -32.4100 C   0  0  0  0  0  0  0  0  0  0  0  0
   -7.2000   19.8110  -33.1020 S   0  0  0  0  0  0  0  0  0  0  0  0
   -8.6930   19.6310  -33.1210 O   0  0  0  0  0  0  0  0  0  0  0  0
   -6.7220   19.7850  -34.5280 O   0  0  0  0  0  0  0  0  0  0  0  0
   -6.4770   18.4760  -32.2300 N   0  0  0  0  0  0  0  0  0  0  0  0
   -6.9440   17.1470  -32.6660 C   0  0  0  0  0  0  0  0  0  0  0  0
   -6.1010   16.5550  -33.8040 C   0  0  0  0  0  0  0  0  0  0  0  0
   -4.6680   16.5710  -33.4630 N   0  0  0  0  0  0  0  0  0  0  0  0
   -3.8800   15.9730  -34.5550 C   0  0  0  0  0  0  0  0  0  0  0  0
   -4.2240   17.9540  -33.2150 C   0  0  0  0  0  0  0  0  0  0  0  0
   -5.0160   18.5880  -32.0620 C   0  0  0  0  0  0  0  0  0  0  0  0
   -5.5350   21.9180  -32.5000 C   0  0  0  0  0  0  0  0  0  0  0  0
   -5.2450   23.1740  -31.9630 C   0  0  0  0  0  0  0  0  0  0  0  0
   -2.7490   21.7920  -28.4830 C   0  0  0  0  0  0  0  0  0  0  0  0
   -2.6001   19.5158  -25.4275 H   0  0  0  0  0  0  0  0  0  0  0  0
   -3.1824   20.5514  -26.7748 H   0  0  0  0  0  0  0  0  0  0  0  0
   -3.5418   18.7914  -26.7748 H   0  0  0  0  0  0  0  0  0  0  0  0
    1.0160   17.5188  -27.9766 H   0  0  0  0  0  0  0  0  0  0  0  0
    0.9904   19.8977  -29.2261 H   0  0  0  0  0  0  0  0  0  0  0  0
    0.6082   22.1953  -28.9953 H   0  0  0  0  0  0  0  0  0  0  0  0
   -0.1757   24.4544  -29.6901 H   0  0  0  0  0  0  0  0  0  0  0  0
   -5.1571   23.0833  -29.7318 H   0  0  0  0  0  0  0  0  0  0  0  0
   -5.0946   22.8441  -27.9300 H   0  0  0  0  0  0  0  0  0  0  0  0
   -4.1040   25.3690  -28.9220 H   0  0  0  0  0  0  0  0  0  0  0  0
   -6.9866   24.6668  -28.9978 H   0  0  0  0  0  0  0  0  0  0  0  0
   -6.3269   26.3481  -28.9467 H   0  0  0  0  0  0  0  0  0  0  0  0
   -6.6210   26.0267  -31.2432 H   0  0  0  0  0  0  0  0  0  0  0  0
   -4.8991   25.5413  -31.0141 H   0  0  0  0  0  0  0  0  0  0  0  0
   -8.3583   24.0035  -30.8084 H   0  0  0  0  0  0  0  0  0  0  0  0
   -8.8724   21.7609  -31.7690 H   0  0  0  0  0  0  0  0  0  0  0  0
   -6.9018   16.4619  -31.8064 H   0  0  0  0  0  0  0  0  0  0  0  0
   -7.9689   17.2685  -33.0466 H   0  0  0  0  0  0  0  0  0  0  0  0
   -6.4166   15.5165  -33.9828 H   0  0  0  0  0  0  0  0  0  0  0  0
   -6.2532   17.1649  -34.7067 H   0  0  0  0  0  0  0  0  0  0  0  0
   -4.5110   15.9960  -32.6000 H   0  0  0  0  0  0  0  0  0  0  0  0
   -3.0716   15.3595  -34.1305 H   0  0  0  0  0  0  0  0  0  0  0  0
   -4.5330   15.3411  -35.1749 H   0  0  0  0  0  0  0  0  0  0  0  0
   -3.4471   16.7720  -35.1749 H   0  0  0  0  0  0  0  0  0  0  0  0
   -3.1549   17.9476  -32.9562 H   0  0  0  0  0  0  0  0  0  0  0  0
   -4.3966   18.5461  -34.1259 H   0  0  0  0  0  0  0  0  0  0  0  0
   -4.7323   18.0858  -31.1253 H   0  0  0  0  0  0  0  0  0  0  0  0
   -4.7699   19.6600  -32.0471 H   0  0  0  0  0  0  0  0  0  0  0  0
   -4.7423   21.3390  -32.9963 H   0  0  0  0  0  0  0  0  0  0  0  0
   -4.2242   23.5776  -32.0336 H   0  0  0  0  0  0  0  0  0  0  0  0
   -3.4730   21.0426  -28.1307 H   0  0  0  0  0  0  0  0  0  0  0  0
  1  2  1  0
  2  3  1  0
  3  4  2  0
  4  5  1  0
  5  6  2  0
  6  7  1  0
  7  8  2  0
  8  9  1  0
  9 10  2  0
 10 11  1  0
 10 12  1  0
 12 13  1  0
 13 14  1  0
 14 15  1  0
 15 16  1  0
 16 17  1  0
 17 18  2  0
 18 19  1  0
 19 20  2  0
 20 21  1  0
 21 22  2  0
 21 23  2  0
 21 24  1  0
 24 25  1  0
 25 26  1  0
 26 27  1  0
 27 28  1  0
 27 29  1  0
 29 30  1  0
 20 31  1  0
 31 32  2  0
 12 33  2  0
  6  2  1  0
 33  7  1  0
 32 17  1  0
 30 24  1  0
  1 34  1  0
  1 35  1  0
  1 36  1  0
  4 37  1  0
  5 38  1  0
  8 39  1  0
  9 40  1  0
 13 41  1  0
 13 42  1  0
 14 43  1  0
 15 44  1  0
 15 45  1  0
 16 46  1  0
 16 47  1  0
 18 48  1  0
 19 49  1  0
 25 50  1  0
 25 51  1  0
 26 52  1  0
 26 53  1  0
 27 54  1  0
 28 55  1  0
 28 56  1  0
 28 57  1  0
 29 58  1  0
 29 59  1  0
 30 60  1  0
 30 61  1  0
 31 62  1  0
 32 63  1  0
 33 64  1  0
M  CHG  2  11  -1  27   1
M  END
>  <UniqueID>  (18) 
17

>  <SMILES>  (18) 
Cn1nccc1-c1ccc([O-])c(CNCCc2ccc(S(=O)(=O)N3CC[NH+](C)CC3)cc2)c1

>  <Energy>  (18) 
103.69959782210479

>  <Genealogy>  (18) 
Cn1nccc1-c1ccc([O-])c(CNCCc2ccc(S(=O)(=O)N3CC[NH+](C)CC3)cc2)c1 (protonated)
Cn1nccc1-c1ccc([O-])c(CNCCc2ccc(S(=O)(=O)N3CC[NH+](C)CC3)cc2)c1 (3D coordinates assigned)
Cn1nccc1-c1ccc([O-])c(CNCCc2ccc(S(=O)(=O)N3CC[NH+](C)CC3)cc2)c1 (nonaromatic ring conformer: 103.69959782210479 kcal/mol)

>  <smiles>  (18) 
CN1CCN(S(=O)(=O)c2ccc(CCNCc3cc(-c4ccnn4C)ccc3O)cc2)CC1

>  <score_type>  (18) 
oracle

>  <origin>  (18) 
adgpu

>  <m_score__min__energy>  (18) 
-13.56

>  <m_primary>  (18) 
energy

$$$$
18:0
     RDKit          3D

 52 55  0  0  0  0  0  0  0  0999 V2000
   -2.2130   19.8130  -26.4960 C   0  0  0  0  0  0  0  0  0  0  0  0
   -1.3720   19.7230  -27.7030 N   0  0  0  0  0  0  0  0  0  0  0  0
   -0.0110   20.2520  -27.4880 C   0  0  0  0  0  0  0  0  0  0  0  0
   -0.0050   21.7620  -27.2040 C   0  0  0  0  0  0  0  0  0  0  0  0
   -0.9310   22.5210  -28.1160 C   0  0  0  0  0  0  0  0  0  0  0  0
   -0.8520   23.9200  -28.1590 C   0  0  0  0  0  0  0  0  0  0  0  0
   -1.7280   24.6590  -28.9580 C   0  0  0  0  0  0  0  0  0  0  0  0
   -1.6110   26.0440  -28.9880 O   0  0  0  0  0  0  0  0  0  0  0  0
   -2.7090   24.0080  -29.7280 C   0  0  0  0  0  0  0  0  0  0  0  0
   -3.5900   24.7810  -30.5660 N   0  0  0  0  0  0  0  0  0  0  0  0
   -5.3030   24.8920  -30.3120 S   0  0  0  0  0  0  0  0  0  0  0  0
   -5.8420   26.0740  -31.0690 O   0  0  0  0  0  0  0  0  0  0  0  0
   -5.5710   25.0850  -28.8450 O   0  0  0  0  0  0  0  0  0  0  0  0
   -6.0950   23.4350  -30.9040 C   0  0  0  0  0  0  0  0  0  0  0  0
   -7.3430   23.0470  -30.3980 C   0  0  0  0  0  0  0  0  0  0  0  0
   -7.9530   21.8750  -30.8530 C   0  0  0  0  0  0  0  0  0  0  0  0
   -7.3190   21.0770  -31.8150 C   0  0  0  0  0  0  0  0  0  0  0  0
   -8.1020   19.6140  -32.3970 S   0  0  0  0  0  0  0  0  0  0  0  0
   -8.7980   18.9120  -31.2650 O   0  0  0  0  0  0  0  0  0  0  0  0
   -9.1340   19.9700  -33.4310 O   0  0  0  0  0  0  0  0  0  0  0  0
   -6.8850   18.5520  -33.0930 C   0  0  0  0  0  0  0  0  0  0  0  0
   -6.1390   18.9640  -34.2080 C   0  0  0  0  0  0  0  0  0  0  0  0
   -5.1580   18.1240  -34.7440 C   0  0  0  0  0  0  0  0  0  0  0  0
   -4.9130   16.8740  -34.1680 C   0  0  0  0  0  0  0  0  0  0  0  0
   -5.6490   16.4640  -33.0520 C   0  0  0  0  0  0  0  0  0  0  0  0
   -6.6310   17.3000  -32.5120 C   0  0  0  0  0  0  0  0  0  0  0  0
   -6.0780   21.4740  -32.3340 C   0  0  0  0  0  0  0  0  0  0  0  0
   -5.4690   22.6470  -31.8800 C   0  0  0  0  0  0  0  0  0  0  0  0
   -2.8050   22.6060  -29.6610 C   0  0  0  0  0  0  0  0  0  0  0  0
   -1.9330   21.8610  -28.8540 C   0  0  0  0  0  0  0  0  0  0  0  0
   -2.0160   20.3520  -28.8730 C   0  0  0  0  0  0  0  0  0  0  0  0
   -1.5777   19.7450  -25.6006 H   0  0  0  0  0  0  0  0  0  0  0  0
   -2.7489   20.7736  -26.4933 H   0  0  0  0  0  0  0  0  0  0  0  0
   -2.9400   18.9875  -26.4933 H   0  0  0  0  0  0  0  0  0  0  0  0
    0.4391   19.7300  -26.6307 H   0  0  0  0  0  0  0  0  0  0  0  0
    0.5630   20.0831  -28.4110 H   0  0  0  0  0  0  0  0  0  0  0  0
   -0.3206   21.9270  -26.1632 H   0  0  0  0  0  0  0  0  0  0  0  0
    1.0160   22.1321  -27.3791 H   0  0  0  0  0  0  0  0  0  0  0  0
   -0.0926   24.4412  -27.5576 H   0  0  0  0  0  0  0  0  0  0  0  0
   -3.2190   25.2190  -31.4370 H   0  0  0  0  0  0  0  0  0  0  0  0
   -7.8441   23.6671  -29.6401 H   0  0  0  0  0  0  0  0  0  0  0  0
   -8.9343   21.5777  -30.4547 H   0  0  0  0  0  0  0  0  0  0  0  0
   -6.3262   19.9488  -34.6608 H   0  0  0  0  0  0  0  0  0  0  0  0
   -4.5778   18.4475  -35.6208 H   0  0  0  0  0  0  0  0  0  0  0  0
   -4.1422   16.2138  -34.5922 H   0  0  0  0  0  0  0  0  0  0  0  0
   -5.4549   15.4812  -32.5977 H   0  0  0  0  0  0  0  0  0  0  0  0
   -7.2049   16.9762  -31.6312 H   0  0  0  0  0  0  0  0  0  0  0  0
   -5.5826   20.8602  -33.1007 H   0  0  0  0  0  0  0  0  0  0  0  0
   -4.4952   22.9531  -32.2898 H   0  0  0  0  0  0  0  0  0  0  0  0
   -3.5752   22.0867  -30.2501 H   0  0  0  0  0  0  0  0  0  0  0  0
   -3.0763   20.0596  -28.8885 H   0  0  0  0  0  0  0  0  0  0  0  0
   -1.4805   20.0048  -29.7689 H   0  0  0  0  0  0  0  0  0  0  0  0
  1  2  1  0
  2  3  1  0
  3  4  1  0
  4  5  1  0
  5  6  2  0
  6  7  1  0
  7  8  1  0
  7  9  2  0
  9 10  1  0
 10 11  1  0
 11 12  2  0
 11 13  2  0
 11 14  1  0
 14 15  2  0
 15 16  1  0
 16 17  2  0
 17 18  1  0
 18 19  2  0
 18 20  2  0
 18 21  1  0
 21 22  2  0
 22 23  1  0
 23 24  2  0
 24 25  1  0
 25 26  2  0
 17 27  1  0
 27 28  2  0
  9 29  1  0
 29 30  2  0
 30 31  1  0
 31  2  1  0
 30  5  1  0
 28 14  1  0
 26 21  1  0
  1 32  1  0
  1 33  1  0
  1 34  1  0
  3 35  1  0
  3 36  1  0
  4 37  1  0
  4 38  1  0
  6 39  1  0
 10 40  1  0
 15 41  1  0
 16 42  1  0
 22 43  1  0
 23 44  1  0
 24 45  1  0
 25 46  1  0
 26 47  1  0
 27 48  1  0
 28 49  1  0
 29 50  1  0
 31 51  1  0
 31 52  1  0
M  CHG  1   8  -1
M  END
>  <UniqueID>  (19) 
18

>  <SMILES>  (19) 
CN1CCc2cc([O-])c(NS(=O)(=O)c3ccc(S(=O)(=O)c4ccccc4)cc3)cc2C1

>  <Energy>  (19) 
65.76909382682948

>  <Genealogy>  (19) 
CN1CCc2cc([O-])c(NS(=O)(=O)c3ccc(S(=O)(=O)c4ccccc4)cc3)cc2C1 (protonated)
CN1CCc2cc([O-])c(NS(=O)(=O)c3ccc(S(=O)(=O)c4ccccc4)cc3)cc2C1 (3D coordinates assigned)
CN1CCc2cc([O-])c(NS(=O)(=O)c3ccc(S(=O)(=O)c4ccccc4)cc3)cc2C1 (nonaromatic ring conformer: 65.76909382682948 kcal/mol)

>  <smiles>  (19) 
CN1CCc2cc(O)c(NS(=O)(=O)c3ccc(S(=O)(=O)c4ccccc4)cc3)cc2C1

>  <score_type>  (19) 
oracle

>  <origin>  (19) 
adgpu

>  <m_score__min__energy>  (19) 
-15.15

>  <m_primary>  (19) 
energy

$$$$
19:0
     RDKit          3D

 53 56  0  0  0  0  0  0  0  0999 V2000
   -0.1090   28.6130  -27.1050 C   0  0  0  0  0  0  0  0  0  0  0  0
   -0.7800   27.4980  -26.4460 N   0  0  0  0  0  0  0  0  0  0  0  0
   -1.0520   27.4810  -25.1510 N   0  0  0  0  0  0  0  0  0  0  0  0
   -1.6170   26.2910  -24.8680 C   0  0  0  0  0  0  0  0  0  0  0  0
   -1.6950   25.5280  -26.0170 C   0  0  0  0  0  0  0  0  0  0  0  0
   -1.1410   26.3210  -26.9990 C   0  0  0  0  0  0  0  0  0  0  0  0
   -0.9930   25.9480  -28.4480 C   0  0  0  0  0  0  0  0  0  0  0  0
   -2.2290   25.3600  -28.9680 N   0  0  0  0  0  0  0  0  0  0  0  0
   -2.5260   23.9430  -28.9730 C   0  0  0  0  0  0  0  0  0  0  0  0
   -1.6560   23.0290  -28.3430 C   0  0  0  0  0  0  0  0  0  0  0  0
   -1.9280   21.6610  -28.3490 C   0  0  0  0  0  0  0  0  0  0  0  0
   -3.0750   21.1780  -28.9740 C   0  0  0  0  0  0  0  0  0  0  0  0
   -3.9550   22.0620  -29.5950 C   0  0  0  0  0  0  0  0  0  0  0  0
   -3.7020   23.4440  -29.6010 C   0  0  0  0  0  0  0  0  0  0  0  0
   -4.8680   24.5110  -30.4000 S   0  0  0  0  0  0  0  0  0  0  0  0
   -4.2360   25.8580  -30.6110 O   0  0  0  0  0  0  0  0  0  0  0  0
   -6.0950   24.6560  -29.5440 O   0  0  0  0  0  0  0  0  0  0  0  0
   -5.3310   23.8560  -31.9370 N   0  0  0  0  0  0  0  0  0  0  0  0
   -6.2790   22.7930  -32.0750 C   0  0  0  0  0  0  0  0  0  0  0  0
   -7.6300   23.0900  -31.8850 C   0  0  0  0  0  0  0  0  0  0  0  0
   -8.5950   22.0880  -31.9570 C   0  0  0  0  0  0  0  0  0  0  0  0
   -8.2190   20.7690  -32.2320 C   0  0  0  0  0  0  0  0  0  0  0  0
   -6.8680   20.4500  -32.4690 C   0  0  0  0  0  0  0  0  0  0  0  0
   -5.8810   21.4710  -32.3950 C   0  0  0  0  0  0  0  0  0  0  0  0
   -4.4640   21.1960  -32.7060 C   0  0  0  0  0  0  0  0  0  0  0  0
   -3.8390   21.9140  -33.5310 O   0  0  0  0  0  0  0  0  0  0  0  0
   -3.8240   20.1090  -32.1230 O   0  0  0  0  0  0  0  0  0  0  0  0
   -6.5740   19.0360  -32.9260 C   0  0  0  0  0  0  0  0  0  0  0  0
   -7.3160   18.0010  -32.0600 C   0  0  0  0  0  0  0  0  0  0  0  0
   -8.7630   18.3990  -31.6750 C   0  0  0  0  0  0  0  0  0  0  0  0
   -9.2570   19.6860  -32.3530 C   0  0  0  0  0  0  0  0  0  0  0  0
    0.3013   29.2947  -26.3454 H   0  0  0  0  0  0  0  0  0  0  0  0
    0.7084   28.2294  -27.7333 H   0  0  0  0  0  0  0  0  0  0  0  0
   -0.8307   29.1557  -27.7333 H   0  0  0  0  0  0  0  0  0  0  0  0
   -1.9636   25.9750  -23.8730 H   0  0  0  0  0  0  0  0  0  0  0  0
   -2.1073   24.5138  -26.1243 H   0  0  0  0  0  0  0  0  0  0  0  0
   -0.7520   26.8505  -29.0288 H   0  0  0  0  0  0  0  0  0  0  0  0
   -0.1869   25.2049  -28.5377 H   0  0  0  0  0  0  0  0  0  0  0  0
   -2.9260   26.0380  -29.3430 H   0  0  0  0  0  0  0  0  0  0  0  0
   -0.7508   23.4000  -27.8401 H   0  0  0  0  0  0  0  0  0  0  0  0
   -1.2347   20.9617  -27.8588 H   0  0  0  0  0  0  0  0  0  0  0  0
   -3.2863   20.0985  -28.9774 H   0  0  0  0  0  0  0  0  0  0  0  0
   -4.8589   21.6731  -30.0866 H   0  0  0  0  0  0  0  0  0  0  0  0
   -7.9355   24.1259  -31.6763 H   0  0  0  0  0  0  0  0  0  0  0  0
   -9.6551   22.3345  -31.7973 H   0  0  0  0  0  0  0  0  0  0  0  0
   -6.8951   18.9237  -33.9721 H   0  0  0  0  0  0  0  0  0  0  0  0
   -5.4929   18.8580  -32.8288 H   0  0  0  0  0  0  0  0  0  0  0  0
   -7.3578   17.0539  -32.6180 H   0  0  0  0  0  0  0  0  0  0  0  0
   -6.7536   17.9230  -31.1179 H   0  0  0  0  0  0  0  0  0  0  0  0
   -9.4358   17.5770  -31.9608 H   0  0  0  0  0  0  0  0  0  0  0  0
   -8.7639   18.5889  -30.5915 H   0  0  0  0  0  0  0  0  0  0  0  0
   -9.4499   19.4850  -33.4171 H   0  0  0  0  0  0  0  0  0  0  0  0
  -10.1821   20.0190  -31.8598 H   0  0  0  0  0  0  0  0  0  0  0  0
  1  2  1  0
  2  3  1  0
  3  4  2  0
  4  5  1  0
  5  6  2  0
  6  7  1  0
  7  8  1  0
  8  9  1  0
  9 10  2  0
 10 11  1  0
 11 12  2  0
 12 13  1  0
 13 14  2  0
 14 15  1  0
 15 16  2  0
 15 17  2  0
 15 18  1  0
 18 19  1  0
 19 20  2  0
 20 21  1  0
 21 22  2  0
 22 23  1  0
 23 24  2  0
 24 25  1  0
 25 26  2  0
 25 27  1  0
 23 28  1  0
 28 29  1  0
 29 30  1  0
 30 31  1  0
  6  2  1  0
 14  9  1  0
 24 19  1  0
 31 22  1  0
  1 32  1  0
  1 33  1  0
  1 34  1  0
  4 35  1  0
  5 36  1  0
  7 37  1  0
  7 38  1  0
  8 39  1  0
 10 40  1  0
 11 41  1  0
 12 42  1  0
 13 43  1  0
 20 44  1  0
 21 45  1  0
 28 46  1  0
 28 47  1  0
 29 48  1  0
 29 49  1  0
 30 50  1  0
 30 51  1  0
 31 52  1  0
 31 53  1  0
M  CHG  2  18  -1  27  -1
M  END
>  <UniqueID>  (20) 
19

>  <SMILES>  (20) 
Cn1nccc1CNc1ccccc1S(=O)(=O)[N-]c1ccc2c(c1C(=O)[O-])CCCC2

>  <Energy>  (20) 
109.14201131347183

>  <Genealogy>  (20) 
Cn1nccc1CNc1ccccc1S(=O)(=O)[N-]c1ccc2c(c1C(=O)[O-])CCCC2 (protonated)
Cn1nccc1CNc1ccccc1S(=O)(=O)[N-]c1ccc2c(c1C(=O)[O-])CCCC2 (3D coordinates assigned)
Cn1nccc1CNc1ccccc1S(=O)(=O)[N-]c1ccc2c(c1C(=O)[O-])CCCC2 (nonaromatic ring conformer: 109.14201131347183 kcal/mol)

>  <smiles>  (20) 
Cn1nccc1CNc1ccccc1S(=O)(=O)Nc1ccc2c(c1C(=O)O)CCCC2

>  <score_type>  (20) 
oracle

>  <origin>  (20) 
adgpu

>  <m_score__min__energy>  (20) 
-12.51

>  <m_primary>  (20) 
energy

$$$$
20:0
     RDKit          3D

 42 44  0  0  0  0  0  0  0  0999 V2000
   -0.2890   27.2080  -27.8560 O   0  0  0  0  0  0  0  0  0  0  0  0
   -0.6080   26.0230  -28.1380 C   0  0  0  0  0  0  0  0  0  0  0  0
    0.3860   24.9910  -28.1560 N   0  0  0  0  0  0  0  0  0  0  0  0
    0.8310   24.2730  -26.9690 C   0  0  0  0  0  0  0  0  0  0  0  0
    0.5060   25.0590  -25.7400 C   0  0  0  0  0  0  0  0  0  0  0  0
   -0.6870   25.0140  -25.0470 C   0  0  0  0  0  0  0  0  0  0  0  0
   -0.5280   25.8740  -23.9820 C   0  0  0  0  0  0  0  0  0  0  0  0
    0.7500   26.3860  -24.0900 C   0  0  0  0  0  0  0  0  0  0  0  0
    1.3420   25.8800  -25.1470 O   0  0  0  0  0  0  0  0  0  0  0  0
   -1.9650   25.7280  -28.4840 N   0  0  0  0  0  0  0  0  0  0  0  0
   -2.3970   24.4980  -29.0830 C   0  0  0  0  0  0  0  0  0  0  0  0
   -1.8140   23.3050  -28.6560 C   0  0  0  0  0  0  0  0  0  0  0  0
   -2.2460   22.0860  -29.1730 C   0  0  0  0  0  0  0  0  0  0  0  0
   -3.2630   22.0390  -30.1320 C   0  0  0  0  0  0  0  0  0  0  0  0
   -3.7790   20.4450  -30.6710 Cl  0  0  0  0  0  0  0  0  0  0  0  0
   -3.8350   23.2420  -30.6140 C   0  0  0  0  0  0  0  0  0  0  0  0
   -5.1500   23.2430  -31.8190 S   0  0  0  0  0  0  0  0  0  0  0  0
   -5.7580   24.6160  -31.8940 O   0  0  0  0  0  0  0  0  0  0  0  0
   -4.6140   22.9270  -33.1870 O   0  0  0  0  0  0  0  0  0  0  0  0
   -6.4000   22.0920  -31.4120 N   0  0  0  0  0  0  0  0  0  0  0  0
   -7.6470   22.7840  -31.0490 C   0  0  0  0  0  0  0  0  0  0  0  0
   -8.7890   21.7680  -30.8380 C   0  0  0  0  0  0  0  0  0  0  0  0
   -8.3110   20.4370  -30.8840 O   0  0  0  0  0  0  0  0  0  0  0  0
   -7.7580   20.1700  -32.1620 C   0  0  0  0  0  0  0  0  0  0  0  0
   -6.6460   21.1730  -32.5340 C   0  0  0  0  0  0  0  0  0  0  0  0
   -3.3720   24.4720  -30.0980 C   0  0  0  0  0  0  0  0  0  0  0  0
   -3.8660   25.6720  -30.6010 O   0  0  0  0  0  0  0  0  0  0  0  0
    0.3234   23.2982  -26.9220 H   0  0  0  0  0  0  0  0  0  0  0  0
    1.9198   24.1264  -27.0246 H   0  0  0  0  0  0  0  0  0  0  0  0
   -1.5775   24.4171  -25.2932 H   0  0  0  0  0  0  0  0  0  0  0  0
   -1.2694   26.1058  -23.2031 H   0  0  0  0  0  0  0  0  0  0  0  0
    1.2034   27.1085  -23.3955 H   0  0  0  0  0  0  0  0  0  0  0  0
   -1.0087   23.3270  -27.9069 H   0  0  0  0  0  0  0  0  0  0  0  0
   -1.7829   21.1513  -28.8238 H   0  0  0  0  0  0  0  0  0  0  0  0
   -7.4893   23.3493  -30.1186 H   0  0  0  0  0  0  0  0  0  0  0  0
   -7.9252   23.4663  -31.8657 H   0  0  0  0  0  0  0  0  0  0  0  0
   -9.2517   21.9484  -29.8565 H   0  0  0  0  0  0  0  0  0  0  0  0
   -9.5236   21.9001  -31.6460 H   0  0  0  0  0  0  0  0  0  0  0  0
   -7.3341   19.1550  -32.1601 H   0  0  0  0  0  0  0  0  0  0  0  0
   -8.5627   20.2649  -32.9060 H   0  0  0  0  0  0  0  0  0  0  0  0
   -5.7215   20.6230  -32.7635 H   0  0  0  0  0  0  0  0  0  0  0  0
   -6.9633   21.7536  -33.4128 H   0  0  0  0  0  0  0  0  0  0  0  0
  1  2  2  0
  2  3  1  0
  3  4  1  0
  4  5  1  0
  5  6  2  0
  6  7  1  0
  7  8  2  0
  8  9  1  0
  2 10  1  0
 10 11  1  0
 11 12  2  0
 12 13  1  0
 13 14  2  0
 14 15  1  0
 14 16  1  0
 16 17  1  0
 17 18  2  0
 17 19  2  0
 17 20  1  0
 20 21  1  0
 21 22  1  0
 22 23  1  0
 23 24  1  0
 24 25  1  0
 16 26  2  0
 26 27  1  0
  9  5  1  0
 26 11  1  0
 25 20  1  0
  4 28  1  0
  4 29  1  0
  6 30  1  0
  7 31  1  0
  8 32  1  0
 12 33  1  0
 13 34  1  0
 21 35  1  0
 21 36  1  0
 22 37  1  0
 22 38  1  0
 24 39  1  0
 24 40  1  0
 25 41  1  0
 25 42  1  0
M  CHG  3   3  -1  10  -1  27  -1
M  END
>  <UniqueID>  (21) 
20

>  <SMILES>  (21) 
O=C([N-]Cc1ccco1)[N-]c1ccc(Cl)c(S(=O)(=O)N2CCOCC2)c1[O-]

>  <Energy>  (21) 
82.02220287897393

>  <Genealogy>  (21) 
O=C([N-]Cc1ccco1)[N-]c1ccc(Cl)c(S(=O)(=O)N2CCOCC2)c1[O-] (protonated)
O=C([N-]Cc1ccco1)[N-]c1ccc(Cl)c(S(=O)(=O)N2CCOCC2)c1[O-] (3D coordinates assigned)
O=C([N-]Cc1ccco1)[N-]c1ccc(Cl)c(S(=O)(=O)N2CCOCC2)c1[O-] (nonaromatic ring conformer: 82.02220287897393 kcal/mol)

>  <smiles>  (21) 
O=C(NCc1ccco1)Nc1ccc(Cl)c(S(=O)(=O)N2CCOCC2)c1O

>  <score_type>  (21) 
oracle

>  <origin>  (21) 
adgpu

>  <m_score__min__energy>  (21) 
-13.789999999999999

>  <m_primary>  (21) 
energy

$$$$
21:0
     RDKit          3D

 54 57  0  0  0  0  0  0  0  0999 V2000
   -0.1010   17.8400  -34.4590 C   0  0  0  0  0  0  0  0  0  0  0  0
   -1.2970   18.6790  -34.6180 N   0  0  0  0  0  0  0  0  0  0  0  0
   -2.4580   18.0650  -33.9150 C   0  0  0  0  0  0  0  0  0  0  0  0
   -3.4550   19.0980  -33.3690 C   0  0  0  0  0  0  0  0  0  0  0  0
   -2.7120   20.0420  -32.4740 C   0  0  0  0  0  0  0  0  0  0  0  0
   -3.2160   20.4410  -31.2290 C   0  0  0  0  0  0  0  0  0  0  0  0
   -2.4580   21.2830  -30.3940 C   0  0  0  0  0  0  0  0  0  0  0  0
   -2.9160   21.6780  -29.0920 N   0  0  0  0  0  0  0  0  0  0  0  0
   -3.5740   23.2240  -28.6540 S   0  0  0  0  0  0  0  0  0  0  0  0
   -4.0290   23.2270  -27.2220 O   0  0  0  0  0  0  0  0  0  0  0  0
   -2.4980   24.2620  -28.7940 O   0  0  0  0  0  0  0  0  0  0  0  0
   -4.9160   23.5990  -29.7390 C   0  0  0  0  0  0  0  0  0  0  0  0
   -5.9690   22.6830  -29.8760 C   0  0  0  0  0  0  0  0  0  0  0  0
   -6.9930   22.9050  -30.8070 C   0  0  0  0  0  0  0  0  0  0  0  0
   -8.2580   21.6970  -31.0520 S   0  0  0  0  0  0  0  0  0  0  0  0
   -9.1940   21.7220  -29.8760 O   0  0  0  0  0  0  0  0  0  0  0  0
   -9.0440   22.0520  -32.2820 O   0  0  0  0  0  0  0  0  0  0  0  0
   -7.6140   20.0810  -31.2420 N   0  0  0  0  0  0  0  0  0  0  0  0
   -8.6550   19.1080  -31.5680 C   0  0  0  0  0  0  0  0  0  0  0  0
   -7.9550   17.9740  -32.2880 C   0  0  0  0  0  0  0  0  0  0  0  0
   -6.7850   18.6360  -32.9890 C   0  0  0  0  0  0  0  0  0  0  0  0
   -6.6280   20.0010  -32.3240 C   0  0  0  0  0  0  0  0  0  0  0  0
   -6.9890   24.0830  -31.5650 C   0  0  0  0  0  0  0  0  0  0  0  0
   -5.9540   25.0080  -31.4250 C   0  0  0  0  0  0  0  0  0  0  0  0
   -4.9070   24.7630  -30.5300 C   0  0  0  0  0  0  0  0  0  0  0  0
   -3.8610   25.6770  -30.4480 O   0  0  0  0  0  0  0  0  0  0  0  0
   -1.1940   21.7240  -30.8260 C   0  0  0  0  0  0  0  0  0  0  0  0
   -0.4310   22.5560  -30.0040 O   0  0  0  0  0  0  0  0  0  0  0  0
   -0.7070   21.3400  -32.0840 C   0  0  0  0  0  0  0  0  0  0  0  0
   -1.4620   20.4910  -32.9030 C   0  0  0  0  0  0  0  0  0  0  0  0
   -0.9990   20.1000  -34.2850 C   0  0  0  0  0  0  0  0  0  0  0  0
    0.1055   17.6951  -33.3883 H   0  0  0  0  0  0  0  0  0  0  0  0
   -0.2725   16.8632  -34.9348 H   0  0  0  0  0  0  0  0  0  0  0  0
    0.7591   18.3337  -34.9348 H   0  0  0  0  0  0  0  0  0  0  0  0
   -2.9871   17.4094  -34.6222 H   0  0  0  0  0  0  0  0  0  0  0  0
   -2.0597   17.5101  -33.0528 H   0  0  0  0  0  0  0  0  0  0  0  0
   -3.9078   19.6547  -34.2027 H   0  0  0  0  0  0  0  0  0  0  0  0
   -4.2542   18.5928  -32.8068 H   0  0  0  0  0  0  0  0  0  0  0  0
   -4.2079   20.0948  -30.9030 H   0  0  0  0  0  0  0  0  0  0  0  0
   -5.9916   21.7812  -29.2465 H   0  0  0  0  0  0  0  0  0  0  0  0
   -9.1348   18.7392  -30.6494 H   0  0  0  0  0  0  0  0  0  0  0  0
   -9.4438   19.5550  -32.1908 H   0  0  0  0  0  0  0  0  0  0  0  0
   -7.6019   17.2175  -31.5717 H   0  0  0  0  0  0  0  0  0  0  0  0
   -8.6205   17.4488  -32.9889 H   0  0  0  0  0  0  0  0  0  0  0  0
   -5.8710   18.0380  -32.8589 H   0  0  0  0  0  0  0  0  0  0  0  0
   -6.9576   18.7277  -34.0715 H   0  0  0  0  0  0  0  0  0  0  0  0
   -5.6123   20.1046  -31.9147 H   0  0  0  0  0  0  0  0  0  0  0  0
   -6.7882   20.8080  -33.0541 H   0  0  0  0  0  0  0  0  0  0  0  0
   -7.8063   24.2798  -32.2744 H   0  0  0  0  0  0  0  0  0  0  0  0
   -5.9612   25.9330  -32.0203 H   0  0  0  0  0  0  0  0  0  0  0  0
   -0.8130   22.9600  -29.1580 H   0  0  0  0  0  0  0  0  0  0  0  0
    0.2711   21.7068  -32.4285 H   0  0  0  0  0  0  0  0  0  0  0  0
   -1.5033   20.7453  -35.0193 H   0  0  0  0  0  0  0  0  0  0  0  0
    0.0938   20.2224  -34.3130 H   0  0  0  0  0  0  0  0  0  0  0  0
  1  2  1  0
  2  3  1  0
  3  4  1  0
  4  5  1  0
  5  6  2  0
  6  7  1  0
  7  8  1  0
  8  9  1  0
  9 10  2  0
  9 11  2  0
  9 12  1  0
 12 13  2  0
 13 14  1  0
 14 15  1  0
 15 16  2  0
 15 17  2  0
 15 18  1  0
 18 19  1  0
 19 20  1  0
 20 21  1  0
 21 22  1  0
 14 23  2  0
 23 24  1  0
 24 25  2  0
 25 26  1  0
  7 27  2  0
 27 28  1  0
 27 29  1  0
 29 30  2  0
 30 31  1  0
 31  2  1  0
 30  5  1  0
 25 12  1  0
 22 18  1  0
  1 32  1  0
  1 33  1  0
  1 34  1  0
  3 35  1  0
  3 36  1  0
  4 37  1  0
  4 38  1  0
  6 39  1  0
 13 40  1  0
 19 41  1  0
 19 42  1  0
 20 43  1  0
 20 44  1  0
 21 45  1  0
 21 46  1  0
 22 47  1  0
 22 48  1  0
 23 49  1  0
 24 50  1  0
 28 51  1  0
 29 52  1  0
 31 53  1  0
 31 54  1  0
M  CHG  2   8  -1  26  -1
M  END
>  <UniqueID>  (22) 
21

>  <SMILES>  (22) 
CN1CCc2cc([N-]S(=O)(=O)c3cc(S(=O)(=O)N4CCCC4)ccc3[O-])c(O)cc2C1

>  <Energy>  (22) 
70.16062826340543

>  <Genealogy>  (22) 
CN1CCc2cc([N-]S(=O)(=O)c3cc(S(=O)(=O)N4CCCC4)ccc3[O-])c(O)cc2C1 (protonated)
CN1CCc2cc([N-]S(=O)(=O)c3cc(S(=O)(=O)N4CCCC4)ccc3[O-])c(O)cc2C1 (3D coordinates assigned)
CN1CCc2cc([N-]S(=O)(=O)c3cc(S(=O)(=O)N4CCCC4)ccc3[O-])c(O)cc2C1 (nonaromatic ring conformer: 70.16062826340543 kcal/mol)

>  <smiles>  (22) 
CN1CCc2cc(NS(=O)(=O)c3cc(S(=O)(=O)N4CCCC4)ccc3O)c(O)cc2C1

>  <score_type>  (22) 
oracle

>  <origin>  (22) 
adgpu

>  <m_score__min__energy>  (22) 
-13.92

>  <m_primary>  (22) 
energy

$$$$
22:0
     RDKit          3D

 45 47  0  0  0  0  0  0  0  0999 V2000
   -3.1910   21.1740  -28.8370 C   0  0  0  0  0  0  0  0  0  0  0  0
   -3.7340   21.0230  -30.1440 O   0  0  0  0  0  0  0  0  0  0  0  0
   -2.9680   20.9020  -31.3150 C   0  0  0  0  0  0  0  0  0  0  0  0
   -1.6240   21.3170  -31.3730 C   0  0  0  0  0  0  0  0  0  0  0  0
   -0.8910   21.1820  -32.5550 C   0  0  0  0  0  0  0  0  0  0  0  0
   -1.4880   20.6360  -33.6980 C   0  0  0  0  0  0  0  0  0  0  0  0
   -0.6870   20.4530  -34.9540 C   0  0  0  0  0  0  0  0  0  0  0  0
   -2.8180   20.2020  -33.6410 C   0  0  0  0  0  0  0  0  0  0  0  0
   -3.5670   20.3550  -32.4650 C   0  0  0  0  0  0  0  0  0  0  0  0
   -4.9710   19.8990  -32.4320 C   0  0  0  0  0  0  0  0  0  0  0  0
   -5.2230   18.5200  -32.5040 C   0  0  0  0  0  0  0  0  0  0  0  0
   -6.5310   18.0370  -32.4670 C   0  0  0  0  0  0  0  0  0  0  0  0
   -7.6000   18.9240  -32.3540 C   0  0  0  0  0  0  0  0  0  0  0  0
   -7.3650   20.2980  -32.2750 C   0  0  0  0  0  0  0  0  0  0  0  0
   -6.0550   20.8040  -32.3160 C   0  0  0  0  0  0  0  0  0  0  0  0
   -5.8050   22.5560  -32.1730 S   0  0  0  0  0  0  0  0  0  0  0  0
   -7.0170   23.2710  -32.7060 O   0  0  0  0  0  0  0  0  0  0  0  0
   -4.6380   22.9540  -33.0340 O   0  0  0  0  0  0  0  0  0  0  0  0
   -5.5340   22.9620  -30.4790 N   0  0  0  0  0  0  0  0  0  0  0  0
   -4.6050   24.0880  -30.3260 C   0  0  0  0  0  0  0  0  0  0  0  0
   -5.4400   25.3630  -30.3450 C   0  0  0  0  0  0  0  0  0  0  0  0
   -6.8590   24.9150  -30.0260 C   0  0  0  0  0  0  0  0  0  0  0  0
   -6.7630   23.4100  -29.8160 C   0  0  0  0  0  0  0  0  0  0  0  0
   -3.9686   20.9578  -28.0896 H   0  0  0  0  0  0  0  0  0  0  0  0
   -2.3517   20.4752  -28.7056 H   0  0  0  0  0  0  0  0  0  0  0  0
   -2.8330   22.2058  -28.7056 H   0  0  0  0  0  0  0  0  0  0  0  0
   -1.1474   21.7506  -30.4815 H   0  0  0  0  0  0  0  0  0  0  0  0
    0.1597   21.5061  -32.5878 H   0  0  0  0  0  0  0  0  0  0  0  0
    0.3548   20.2150  -34.6931 H   0  0  0  0  0  0  0  0  0  0  0  0
   -1.1144   19.6294  -35.5447 H   0  0  0  0  0  0  0  0  0  0  0  0
   -0.7143   21.3805  -35.5447 H   0  0  0  0  0  0  0  0  0  0  0  0
   -3.2790   19.7375  -34.5252 H   0  0  0  0  0  0  0  0  0  0  0  0
   -4.3829   17.8152  -32.5902 H   0  0  0  0  0  0  0  0  0  0  0  0
   -6.7190   16.9548  -32.5271 H   0  0  0  0  0  0  0  0  0  0  0  0
   -8.6308   18.5409  -32.3270 H   0  0  0  0  0  0  0  0  0  0  0  0
   -8.2138   20.9911  -32.1797 H   0  0  0  0  0  0  0  0  0  0  0  0
   -5.1600   22.1190  -29.9870 H   0  0  0  0  0  0  0  0  0  0  0  0
   -4.0650   24.0047  -29.3713 H   0  0  0  0  0  0  0  0  0  0  0  0
   -3.8610   24.0949  -31.1362 H   0  0  0  0  0  0  0  0  0  0  0  0
   -5.0792   26.0718  -29.5851 H   0  0  0  0  0  0  0  0  0  0  0  0
   -5.3799   25.8796  -31.3143 H   0  0  0  0  0  0  0  0  0  0  0  0
   -7.2241   25.4095  -29.1138 H   0  0  0  0  0  0  0  0  0  0  0  0
   -7.5633   25.1745  -30.8301 H   0  0  0  0  0  0  0  0  0  0  0  0
   -6.7175   23.1807  -28.7411 H   0  0  0  0  0  0  0  0  0  0  0  0
   -7.6429   22.8985  -30.2333 H   0  0  0  0  0  0  0  0  0  0  0  0
  1  2  1  0
  2  3  1  0
  3  4  2  0
  4  5  1  0
  5  6  2  0
  6  7  1  0
  6  8  1  0
  8  9  2  0
  9 10  1  0
 10 11  2  0
 11 12  1  0
 12 13  2  0
 13 14  1  0
 14 15  2  0
 15 16  1  0
 16 17  2  0
 16 18  2  0
 16 19  1  0
 19 20  1  0
 20 21  1  0
 21 22  1  0
 22 23  1  0
  9  3  1  0
 15 10  1  0
 23 19  1  0
  1 24  1  0
  1 25  1  0
  1 26  1  0
  4 27  1  0
  5 28  1  0
  7 29  1  0
  7 30  1  0
  7 31  1  0
  8 32  1  0
 11 33  1  0
 12 34  1  0
 13 35  1  0
 14 36  1  0
 19 37  1  0
 20 38  1  0
 20 39  1  0
 21 40  1  0
 21 41  1  0
 22 42  1  0
 22 43  1  0
 23 44  1  0
 23 45  1  0
M  CHG  1  19   1
M  END
>  <UniqueID>  (23) 
22

>  <SMILES>  (23) 
COc1ccc(C)cc1-c1ccccc1S(=O)(=O)[NH+]1CCCC1

>  <Energy>  (23) 
56.44856884760376

>  <Genealogy>  (23) 
COc1ccc(C)cc1-c1ccccc1S(=O)(=O)[NH+]1CCCC1 (protonated)
COc1ccc(C)cc1-c1ccccc1S(=O)(=O)[NH+]1CCCC1 (3D coordinates assigned)
COc1ccc(C)cc1-c1ccccc1S(=O)(=O)[NH+]1CCCC1 (nonaromatic ring conformer: 56.44856884760376 kcal/mol)

>  <smiles>  (23) 
COc1ccc(C)cc1-c1ccccc1S(=O)(=O)N1CCCC1

>  <score_type>  (23) 
oracle

>  <origin>  (23) 
adgpu

>  <m_score__min__energy>  (23) 
-7.4900000000000002

>  <m_primary>  (23) 
energy

$$$$
23:0
     RDKit          3D

 53 55  0  0  0  0  0  0  0  0999 V2000
   -0.4840   23.8030  -24.3730 C   0  0  0  0  0  0  0  0  0  0  0  0
   -0.6360   25.2750  -24.6440 C   0  0  0  0  0  0  0  0  0  0  0  0
   -0.2720   26.2020  -23.6520 C   0  0  0  0  0  0  0  0  0  0  0  0
   -0.4010   27.5740  -23.8820 C   0  0  0  0  0  0  0  0  0  0  0  0
   -0.8820   28.0350  -25.1070 C   0  0  0  0  0  0  0  0  0  0  0  0
   -1.2370   27.1280  -26.1070 C   0  0  0  0  0  0  0  0  0  0  0  0
   -1.1270   25.7430  -25.8860 C   0  0  0  0  0  0  0  0  0  0  0  0
   -1.4610   24.8150  -26.9360 N   0  0  0  0  0  0  0  0  0  0  0  0
   -0.4980   24.2800  -27.8550 C   0  0  0  0  0  0  0  0  0  0  0  0
    0.6860   24.7160  -27.8720 O   0  0  0  0  0  0  0  0  0  0  0  0
   -0.9170   23.2580  -28.8670 C   0  0  0  0  0  0  0  0  0  0  0  0
   -2.0670   23.7940  -29.7210 C   0  0  0  0  0  0  0  0  0  0  0  0
   -3.2510   24.0270  -28.8920 N   0  0  0  0  0  0  0  0  0  0  0  0
   -4.6360   24.4280  -29.8650 S   0  0  0  0  0  0  0  0  0  0  0  0
   -5.7320   24.9810  -28.9960 O   0  0  0  0  0  0  0  0  0  0  0  0
   -4.2460   25.4780  -30.8670 O   0  0  0  0  0  0  0  0  0  0  0  0
   -5.2030   23.0000  -30.7250 C   0  0  0  0  0  0  0  0  0  0  0  0
   -4.2830   21.9920  -31.0830 C   0  0  0  0  0  0  0  0  0  0  0  0
   -4.7180   20.8320  -31.7430 C   0  0  0  0  0  0  0  0  0  0  0  0
   -6.0780   20.6990  -32.0390 C   0  0  0  0  0  0  0  0  0  0  0  0
   -6.9790   21.6870  -31.6940 C   0  0  0  0  0  0  0  0  0  0  0  0
   -6.5690   22.8460  -31.0300 C   0  0  0  0  0  0  0  0  0  0  0  0
   -8.3050   21.3510  -32.0780 N   0  0  0  0  0  0  0  0  0  0  0  0
   -9.5290   21.9550  -31.5640 C   0  0  0  0  0  0  0  0  0  0  0  0
   -8.2010   20.0460  -32.6460 C   0  0  0  0  0  0  0  0  0  0  0  0
   -9.1990   19.3890  -33.0440 O   0  0  0  0  0  0  0  0  0  0  0  0
   -6.7800   19.5420  -32.6980 C   0  0  0  0  0  0  0  0  0  0  0  0
   -6.6240   18.2530  -31.8790 C   0  0  0  0  0  0  0  0  0  0  0  0
   -6.3130   19.3570  -34.1490 C   0  0  0  0  0  0  0  0  0  0  0  0
   -0.4661   23.6301  -23.2868 H   0  0  0  0  0  0  0  0  0  0  0  0
   -1.3308   23.2591  -24.8170 H   0  0  0  0  0  0  0  0  0  0  0  0
    0.4560   23.4436  -24.8170 H   0  0  0  0  0  0  0  0  0  0  0  0
    0.1174   25.8445  -22.6873 H   0  0  0  0  0  0  0  0  0  0  0  0
   -0.1228   28.2914  -23.0959 H   0  0  0  0  0  0  0  0  0  0  0  0
   -0.9819   29.1158  -25.2857 H   0  0  0  0  0  0  0  0  0  0  0  0
   -1.6054   27.4989  -27.0748 H   0  0  0  0  0  0  0  0  0  0  0  0
   -2.4660   24.5720  -27.0870 H   0  0  0  0  0  0  0  0  0  0  0  0
   -0.0624   23.0206  -29.5176 H   0  0  0  0  0  0  0  0  0  0  0  0
   -1.2547   22.3527  -28.3413 H   0  0  0  0  0  0  0  0  0  0  0  0
   -1.7602   24.7408  -30.1895 H   0  0  0  0  0  0  0  0  0  0  0  0
   -2.3131   23.0523  -30.4952 H   0  0  0  0  0  0  0  0  0  0  0  0
   -3.2167   22.1161  -30.8431 H   0  0  0  0  0  0  0  0  0  0  0  0
   -4.0034   20.0436  -32.0217 H   0  0  0  0  0  0  0  0  0  0  0  0
   -7.2977   23.6215  -30.7515 H   0  0  0  0  0  0  0  0  0  0  0  0
   -9.5090   21.9451  -30.4642 H   0  0  0  0  0  0  0  0  0  0  0  0
   -9.6032   22.9931  -31.9201 H   0  0  0  0  0  0  0  0  0  0  0  0
  -10.3980   21.3823  -31.9201 H   0  0  0  0  0  0  0  0  0  0  0  0
   -6.6532   18.4944  -30.8062 H   0  0  0  0  0  0  0  0  0  0  0  0
   -7.4451   17.5626  -32.1220 H   0  0  0  0  0  0  0  0  0  0  0  0
   -5.6619   17.7784  -32.1220 H   0  0  0  0  0  0  0  0  0  0  0  0
   -5.2903   18.9519  -34.1562 H   0  0  0  0  0  0  0  0  0  0  0  0
   -6.9878   18.6583  -34.6651 H   0  0  0  0  0  0  0  0  0  0  0  0
   -6.3263   20.3283  -34.6651 H   0  0  0  0  0  0  0  0  0  0  0  0
  1  2  1  0
  2  3  2  0
  3  4  1  0
  4  5  2  0
  5  6  1  0
  6  7  2  0
  7  8  1  0
  8  9  1  0
  9 10  2  0
  9 11  1  0
 11 12  1  0
 12 13  1  0
 13 14  1  0
 14 15  2  0
 14 16  2  0
 14 17  1  0
 17 18  2  0
 18 19  1  0
 19 20  2  0
 20 21  1  0
 21 22  2  0
 21 23  1  0
 23 24  1  0
 23 25  1  0
 25 26  2  0
 25 27  1  0
 27 28  1  0
 27 29  1  0
  7  2  1  0
 22 17  1  0
 27 20  1  0
  1 30  1  0
  1 31  1  0
  1 32  1  0
  3 33  1  0
  4 34  1  0
  5 35  1  0
  6 36  1  0
  8 37  1  0
 11 38  1  0
 11 39  1  0
 12 40  1  0
 12 41  1  0
 18 42  1  0
 19 43  1  0
 22 44  1  0
 24 45  1  0
 24 46  1  0
 24 47  1  0
 28 48  1  0
 28 49  1  0
 28 50  1  0
 29 51  1  0
 29 52  1  0
 29 53  1  0
M  CHG  1  13  -1
M  END
>  <UniqueID>  (24) 
23

>  <SMILES>  (24) 
Cc1ccccc1NC(=O)CC[N-]S(=O)(=O)c1ccc2c(c1)N(C)C(=O)C2(C)C

>  <Energy>  (24) 
70.03641265381577

>  <Genealogy>  (24) 
Cc1ccccc1NC(=O)CC[N-]S(=O)(=O)c1ccc2c(c1)N(C)C(=O)C2(C)C (protonated)
Cc1ccccc1NC(=O)CC[N-]S(=O)(=O)c1ccc2c(c1)N(C)C(=O)C2(C)C (3D coordinates assigned)
Cc1ccccc1NC(=O)CC[N-]S(=O)(=O)c1ccc2c(c1)N(C)C(=O)C2(C)C (nonaromatic ring conformer: 70.03641265381577 kcal/mol)

>  <smiles>  (24) 
Cc1ccccc1NC(=O)CCNS(=O)(=O)c1ccc2c(c1)N(C)C(=O)C2(C)C

>  <score_type>  (24) 
oracle

>  <origin>  (24) 
adgpu

>  <m_score__min__energy>  (24) 
-11.130000000000001

>  <m_primary>  (24) 
energy

$$$$
24:0
     RDKit          3D

 56 59  0  0  0  0  0  0  0  0999 V2000
   -1.8800   21.9520  -26.7650 C   0  0  0  0  0  0  0  0  0  0  0  0
   -1.1790   20.9220  -27.6120 C   0  0  0  0  0  0  0  0  0  0  0  0
   -0.9850   19.6330  -27.0820 C   0  0  0  0  0  0  0  0  0  0  0  0
   -0.4160   18.6240  -27.8600 C   0  0  0  0  0  0  0  0  0  0  0  0
   -0.0190   18.8930  -29.1770 C   0  0  0  0  0  0  0  0  0  0  0  0
    0.4650   17.5840  -30.2460 S   0  0  0  0  0  0  0  0  0  0  0  0
    1.9070   17.7710  -30.6260 O   0  0  0  0  0  0  0  0  0  0  0  0
    0.3240   16.2600  -29.5490 O   0  0  0  0  0  0  0  0  0  0  0  0
   -0.5040   17.5780  -31.6830 N   0  0  0  0  0  0  0  0  0  0  0  0
   -0.9240   18.7790  -32.3440 C   0  0  0  0  0  0  0  0  0  0  0  0
   -2.2850   19.1190  -32.4190 C   0  0  0  0  0  0  0  0  0  0  0  0
   -2.6860   20.2690  -33.1010 C   0  0  0  0  0  0  0  0  0  0  0  0
   -1.7330   21.1110  -33.6790 C   0  0  0  0  0  0  0  0  0  0  0  0
   -0.3720   20.8140  -33.5600 C   0  0  0  0  0  0  0  0  0  0  0  0
    0.0420   19.6530  -32.8930 C   0  0  0  0  0  0  0  0  0  0  0  0
    1.4100   19.3770  -32.8050 O   0  0  0  0  0  0  0  0  0  0  0  0
   -0.1460   20.1870  -29.6920 C   0  0  0  0  0  0  0  0  0  0  0  0
   -0.7160   21.2130  -28.9230 C   0  0  0  0  0  0  0  0  0  0  0  0
   -0.9550   22.7910  -29.6940 S   0  0  0  0  0  0  0  0  0  0  0  0
   -0.8240   22.6720  -31.1890 O   0  0  0  0  0  0  0  0  0  0  0  0
    0.0880   23.7630  -29.2220 O   0  0  0  0  0  0  0  0  0  0  0  0
   -2.5290   23.3870  -29.2670 N   0  0  0  0  0  0  0  0  0  0  0  0
   -3.6790   23.2600  -30.1140 C   0  0  0  0  0  0  0  0  0  0  0  0
   -4.2100   21.9810  -30.3380 C   0  0  0  0  0  0  0  0  0  0  0  0
   -5.3370   21.8050  -31.1560 C   0  0  0  0  0  0  0  0  0  0  0  0
   -5.9610   22.9330  -31.7290 C   0  0  0  0  0  0  0  0  0  0  0  0
   -5.4260   24.2140  -31.5120 C   0  0  0  0  0  0  0  0  0  0  0  0
   -4.3100   24.3830  -30.6900 C   0  0  0  0  0  0  0  0  0  0  0  0
   -3.8680   25.6750  -30.4240 O   0  0  0  0  0  0  0  0  0  0  0  0
   -7.1630   22.7820  -32.6290 C   0  0  0  0  0  0  0  0  0  0  0  0
   -7.8980   21.5240  -32.3980 N   0  0  0  0  0  0  0  0  0  0  0  0
   -8.7160   21.5720  -31.1760 C   0  0  0  0  0  0  0  0  0  0  0  0
   -6.9930   20.3590  -32.4260 C   0  0  0  0  0  0  0  0  0  0  0  0
   -5.9060   20.4210  -31.3380 C   0  0  0  0  0  0  0  0  0  0  0  0
   -1.7226   21.7207  -25.7012 H   0  0  0  0  0  0  0  0  0  0  0  0
   -1.4721   22.9490  -26.9877 H   0  0  0  0  0  0  0  0  0  0  0  0
   -2.9571   21.9384  -26.9877 H   0  0  0  0  0  0  0  0  0  0  0  0
   -1.2845   19.4189  -26.0454 H   0  0  0  0  0  0  0  0  0  0  0  0
   -0.2789   17.6169  -27.4394 H   0  0  0  0  0  0  0  0  0  0  0  0
   -3.0375   18.4765  -31.9384 H   0  0  0  0  0  0  0  0  0  0  0  0
   -3.7554   20.5129  -33.1835 H   0  0  0  0  0  0  0  0  0  0  0  0
   -2.0536   22.0085  -34.2283 H   0  0  0  0  0  0  0  0  0  0  0  0
    0.3769   21.4943  -33.9916 H   0  0  0  0  0  0  0  0  0  0  0  0
    1.7760   18.5990  -32.2680 H   0  0  0  0  0  0  0  0  0  0  0  0
    0.2051   20.4030  -30.7118 H   0  0  0  0  0  0  0  0  0  0  0  0
   -3.7378   21.1061  -29.8673 H   0  0  0  0  0  0  0  0  0  0  0  0
   -5.8889   25.0886  -31.9924 H   0  0  0  0  0  0  0  0  0  0  0  0
   -7.8453   23.6256  -32.4480 H   0  0  0  0  0  0  0  0  0  0  0  0
   -6.7987   22.7660  -33.6668 H   0  0  0  0  0  0  0  0  0  0  0  0
   -8.0600   21.5335  -30.2939 H   0  0  0  0  0  0  0  0  0  0  0  0
   -9.2972   22.5058  -31.1603 H   0  0  0  0  0  0  0  0  0  0  0  0
   -9.4024   20.7126  -31.1603 H   0  0  0  0  0  0  0  0  0  0  0  0
   -7.5894   19.4471  -32.2752 H   0  0  0  0  0  0  0  0  0  0  0  0
   -6.4850   20.3580  -33.4016 H   0  0  0  0  0  0  0  0  0  0  0  0
   -6.3451   20.0937  -30.3840 H   0  0  0  0  0  0  0  0  0  0  0  0
   -5.0826   19.7646  -31.6560 H   0  0  0  0  0  0  0  0  0  0  0  0
  1  2  1  0
  2  3  2  0
  3  4  1  0
  4  5  2  0
  5  6  1  0
  6  7  2  0
  6  8  2  0
  6  9  1  0
  9 10  1  0
 10 11  2  0
 11 12  1  0
 12 13  2  0
 13 14  1  0
 14 15  2  0
 15 16  1  0
  5 17  1  0
 17 18  2  0
 18 19  1  0
 19 20  2  0
 19 21  2  0
 19 22  1  0
 22 23  1  0
 23 24  2  0
 24 25  1  0
 25 26  2  0
 26 27  1  0
 27 28  2  0
 28 29  1  0
 26 30  1  0
 30 31  1  0
 31 32  1  0
 31 33  1  0
 33 34  1  0
 18  2  1  0
 28 23  1  0
 15 10  1  0
 34 25  1  0
  1 35  1  0
  1 36  1  0
  1 37  1  0
  3 38  1  0
  4 39  1  0
 11 40  1  0
 12 41  1  0
 13 42  1  0
 14 43  1  0
 16 44  1  0
 17 45  1  0
 24 46  1  0
 27 47  1  0
 30 48  1  0
 30 49  1  0
 32 50  1  0
 32 51  1  0
 32 52  1  0
 33 53  1  0
 33 54  1  0
 34 55  1  0
 34 56  1  0
M  CHG  3   9  -1  22  -1  29  -1
M  END
>  <UniqueID>  (25) 
24

>  <SMILES>  (25) 
Cc1ccc(S(=O)(=O)[N-]c2ccccc2O)cc1S(=O)(=O)[N-]c1cc2c(cc1[O-])CN(C)CC2

>  <Energy>  (25) 
78.22994041256828

>  <Genealogy>  (25) 
Cc1ccc(S(=O)(=O)[N-]c2ccccc2O)cc1S(=O)(=O)[N-]c1cc2c(cc1[O-])CN(C)CC2 (protonated)
Cc1ccc(S(=O)(=O)[N-]c2ccccc2O)cc1S(=O)(=O)[N-]c1cc2c(cc1[O-])CN(C)CC2 (3D coordinates assigned)
Cc1ccc(S(=O)(=O)[N-]c2ccccc2O)cc1S(=O)(=O)[N-]c1cc2c(cc1[O-])CN(C)CC2 (nonaromatic ring conformer: 78.22994041256828 kcal/mol)

>  <smiles>  (25) 
Cc1ccc(S(=O)(=O)Nc2ccccc2O)cc1S(=O)(=O)Nc1cc2c(cc1O)CN(C)CC2

>  <score_type>  (25) 
oracle

>  <origin>  (25) 
adgpu

>  <m_score__min__energy>  (25) 
-14.81

>  <m_primary>  (25) 
energy

$$$$
25:0
     RDKit          3D

 44 47  0  0  0  0  0  0  0  0999 V2000
    1.7440   24.2460  -25.4490 C   0  0  0  0  0  0  0  0  0  0  0  0
    0.4040   23.9060  -25.9450 N   0  0  0  0  0  0  0  0  0  0  0  0
    0.2520   22.4430  -26.0340 C   0  0  0  0  0  0  0  0  0  0  0  0
   -1.2160   22.1070  -26.2950 C   0  0  0  0  0  0  0  0  0  0  0  0
   -1.7670   22.9030  -27.4510 C   0  0  0  0  0  0  0  0  0  0  0  0
   -2.9680   22.4990  -28.0500 C   0  0  0  0  0  0  0  0  0  0  0  0
   -3.5610   23.2730  -29.0630 C   0  0  0  0  0  0  0  0  0  0  0  0
   -4.8000   22.8860  -29.6770 N   0  0  0  0  0  0  0  0  0  0  0  0
   -5.1870   23.0930  -31.3570 S   0  0  0  0  0  0  0  0  0  0  0  0
   -5.7030   24.4870  -31.5710 O   0  0  0  0  0  0  0  0  0  0  0  0
   -3.9280   22.9090  -32.1620 O   0  0  0  0  0  0  0  0  0  0  0  0
   -6.4360   21.9380  -31.8460 C   0  0  0  0  0  0  0  0  0  0  0  0
   -7.7830   22.2400  -31.5860 C   0  0  0  0  0  0  0  0  0  0  0  0
   -8.7960   21.3430  -31.9390 C   0  0  0  0  0  0  0  0  0  0  0  0
   -8.4800   20.1350  -32.5630 C   0  0  0  0  0  0  0  0  0  0  0  0
   -7.1430   19.8190  -32.8430 C   0  0  0  0  0  0  0  0  0  0  0  0
   -6.8040   18.6130  -33.4720 C   0  0  0  0  0  0  0  0  0  0  0  0
   -5.4650   18.3200  -33.7390 C   0  0  0  0  0  0  0  0  0  0  0  0
   -4.4750   19.2360  -33.3750 C   0  0  0  0  0  0  0  0  0  0  0  0
   -4.8170   20.4050  -32.7660 N   0  0  0  0  0  0  0  0  0  0  0  0
   -6.1120   20.7230  -32.4860 C   0  0  0  0  0  0  0  0  0  0  0  0
   -2.9330   24.4660  -29.4710 C   0  0  0  0  0  0  0  0  0  0  0  0
   -3.4910   25.2800  -30.4570 O   0  0  0  0  0  0  0  0  0  0  0  0
   -1.7280   24.8610  -28.8820 C   0  0  0  0  0  0  0  0  0  0  0  0
   -1.1490   24.0990  -27.8580 C   0  0  0  0  0  0  0  0  0  0  0  0
    0.1750   24.5270  -27.2670 C   0  0  0  0  0  0  0  0  0  0  0  0
    1.7391   24.2447  -24.3490 H   0  0  0  0  0  0  0  0  0  0  0  0
    2.4692   23.5034  -25.8133 H   0  0  0  0  0  0  0  0  0  0  0  0
    2.0274   25.2445  -25.8133 H   0  0  0  0  0  0  0  0  0  0  0  0
    0.8701   22.0581  -26.8585 H   0  0  0  0  0  0  0  0  0  0  0  0
    0.5761   21.9790  -25.0908 H   0  0  0  0  0  0  0  0  0  0  0  0
   -1.3019   21.0349  -26.5258 H   0  0  0  0  0  0  0  0  0  0  0  0
   -1.7940   22.3607  -25.3941 H   0  0  0  0  0  0  0  0  0  0  0  0
   -3.4518   21.5664  -27.7241 H   0  0  0  0  0  0  0  0  0  0  0  0
   -8.0436   23.1917  -31.0998 H   0  0  0  0  0  0  0  0  0  0  0  0
   -9.8461   21.5903  -31.7241 H   0  0  0  0  0  0  0  0  0  0  0  0
   -9.2801   19.4308  -32.8351 H   0  0  0  0  0  0  0  0  0  0  0  0
   -7.5913   17.8987  -33.7548 H   0  0  0  0  0  0  0  0  0  0  0  0
   -5.1919   17.3754  -34.2321 H   0  0  0  0  0  0  0  0  0  0  0  0
   -3.4177   19.0126  -33.5806 H   0  0  0  0  0  0  0  0  0  0  0  0
   -3.7580   24.9270  -31.3680 H   0  0  0  0  0  0  0  0  0  0  0  0
   -1.2293   25.7792  -29.2258 H   0  0  0  0  0  0  0  0  0  0  0  0
    0.9845   24.2262  -27.9483 H   0  0  0  0  0  0  0  0  0  0  0  0
    0.1582   25.6192  -27.1371 H   0  0  0  0  0  0  0  0  0  0  0  0
  1  2  1  0
  2  3  1  0
  3  4  1  0
  4  5  1  0
  5  6  2  0
  6  7  1  0
  7  8  1  0
  8  9  1  0
  9 10  2  0
  9 11  2  0
  9 12  1  0
 12 13  2  0
 13 14  1  0
 14 15  2  0
 15 16  1  0
 16 17  2  0
 17 18  1  0
 18 19  2  0
 19 20  1  0
 20 21  2  0
  7 22  2  0
 22 23  1  0
 22 24  1  0
 24 25  2  0
 25 26  1  0
 26  2  1  0
 25  5  1  0
 21 12  1  0
 21 16  1  0
  1 27  1  0
  1 28  1  0
  1 29  1  0
  3 30  1  0
  3 31  1  0
  4 32  1  0
  4 33  1  0
  6 34  1  0
 13 35  1  0
 14 36  1  0
 15 37  1  0
 17 38  1  0
 18 39  1  0
 19 40  1  0
 23 41  1  0
 24 42  1  0
 26 43  1  0
 26 44  1  0
M  CHG  1   8  -1
M  END
>  <UniqueID>  (26) 
25

>  <SMILES>  (26) 
CN1CCc2cc([N-]S(=O)(=O)c3cccc4cccnc34)c(O)cc2C1

>  <Energy>  (26) 
57.75536137707644

>  <Genealogy>  (26) 
CN1CCc2cc([N-]S(=O)(=O)c3cccc4cccnc34)c(O)cc2C1 (protonated)
CN1CCc2cc([N-]S(=O)(=O)c3cccc4cccnc34)c(O)cc2C1 (3D coordinates assigned)
CN1CCc2cc([N-]S(=O)(=O)c3cccc4cccnc34)c(O)cc2C1 (nonaromatic ring conformer: 57.75536137707644 kcal/mol)

>  <smiles>  (26) 
CN1CCc2cc(NS(=O)(=O)c3cccc4cccnc34)c(O)cc2C1

>  <score_type>  (26) 
oracle

>  <origin>  (26) 
adgpu

>  <m_score__min__energy>  (26) 
-10.880000000000001

>  <m_primary>  (26) 
energy

$$$$
26:0
     RDKit          3D

 61 64  0  0  0  0  0  0  0  0999 V2000
   -7.1100   19.1860  -33.3390 O   0  0  0  0  0  0  0  0  0  0  0  0
   -5.8750   19.2580  -33.0970 C   0  0  0  0  0  0  0  0  0  0  0  0
   -5.3580   20.2960  -32.2510 N   0  0  0  0  0  0  0  0  0  0  0  0
   -6.1070   21.4560  -31.8550 C   0  0  0  0  0  0  0  0  0  0  0  0
   -7.4940   21.5350  -32.0600 C   0  0  0  0  0  0  0  0  0  0  0  0
   -8.1950   22.6890  -31.7030 C   0  0  0  0  0  0  0  0  0  0  0  0
   -7.5170   23.7790  -31.1570 C   0  0  0  0  0  0  0  0  0  0  0  0
   -6.1270   23.7280  -30.9780 C   0  0  0  0  0  0  0  0  0  0  0  0
   -5.2530   25.0940  -30.2830 S   0  0  0  0  0  0  0  0  0  0  0  0
   -5.7320   26.3830  -30.8920 O   0  0  0  0  0  0  0  0  0  0  0  0
   -5.5700   25.1400  -28.8140 O   0  0  0  0  0  0  0  0  0  0  0  0
   -3.5160   24.9670  -30.4620 N   0  0  0  0  0  0  0  0  0  0  0  0
   -2.8100   24.1330  -29.4720 C   0  0  0  0  0  0  0  0  0  0  0  0
   -3.7010   23.0970  -28.7570 C   0  0  0  0  0  0  0  0  0  0  0  0
   -2.8630   22.1610  -27.8680 C   0  0  0  0  0  0  0  0  0  0  0  0
   -1.7010   22.8720  -27.1390 C   0  0  0  0  0  0  0  0  0  0  0  0
   -1.8850   24.3930  -27.0830 C   0  0  0  0  0  0  0  0  0  0  0  0
   -1.9670   24.9910  -28.4960 C   0  0  0  0  0  0  0  0  0  0  0  0
   -5.4300   22.5600  -31.3160 C   0  0  0  0  0  0  0  0  0  0  0  0
   -4.9520   18.2660  -33.6760 C   0  0  0  0  0  0  0  0  0  0  0  0
   -5.4850   17.0210  -34.0410 C   0  0  0  0  0  0  0  0  0  0  0  0
   -4.6740   16.0380  -34.6060 C   0  0  0  0  0  0  0  0  0  0  0  0
   -3.3260   16.2930  -34.8310 C   0  0  0  0  0  0  0  0  0  0  0  0
   -2.7840   17.5300  -34.4920 C   0  0  0  0  0  0  0  0  0  0  0  0
   -3.5760   18.5280  -33.9010 C   0  0  0  0  0  0  0  0  0  0  0  0
   -2.8120   20.0960  -33.5440 S   0  0  0  0  0  0  0  0  0  0  0  0
   -1.6420   20.2660  -34.4720 O   0  0  0  0  0  0  0  0  0  0  0  0
   -3.7660   21.2230  -33.8230 O   0  0  0  0  0  0  0  0  0  0  0  0
   -2.2500   20.2330  -31.8920 N   0  0  0  0  0  0  0  0  0  0  0  0
   -1.0440   19.4500  -31.6380 C   0  0  0  0  0  0  0  0  0  0  0  0
   -0.3620   20.0970  -30.4440 C   0  0  0  0  0  0  0  0  0  0  0  0
   -0.8800   21.5270  -30.4170 C   0  0  0  0  0  0  0  0  0  0  0  0
   -1.9050   21.6100  -31.5380 C   0  0  0  0  0  0  0  0  0  0  0  0
   -4.4040   20.1620  -31.8440 H   0  0  0  0  0  0  0  0  0  0  0  0
   -8.0310   20.6838  -32.5039 H   0  0  0  0  0  0  0  0  0  0  0  0
   -9.2837   22.7385  -31.8526 H   0  0  0  0  0  0  0  0  0  0  0  0
   -8.0745   24.6815  -30.8659 H   0  0  0  0  0  0  0  0  0  0  0  0
   -2.1063   23.5179  -30.0521 H   0  0  0  0  0  0  0  0  0  0  0  0
   -4.4340   23.6260  -28.1302 H   0  0  0  0  0  0  0  0  0  0  0  0
   -4.2096   22.4895  -29.5200 H   0  0  0  0  0  0  0  0  0  0  0  0
   -3.5258   21.7146  -27.1121 H   0  0  0  0  0  0  0  0  0  0  0  0
   -2.4132   21.4065  -28.5301 H   0  0  0  0  0  0  0  0  0  0  0  0
   -1.6411   22.4860  -26.1107 H   0  0  0  0  0  0  0  0  0  0  0  0
   -0.7786   22.6678  -27.7025 H   0  0  0  0  0  0  0  0  0  0  0  0
   -2.8140   24.6231  -26.5407 H   0  0  0  0  0  0  0  0  0  0  0  0
   -1.0183   24.8317  -26.5669 H   0  0  0  0  0  0  0  0  0  0  0  0
   -2.4211   25.9905  -28.4271 H   0  0  0  0  0  0  0  0  0  0  0  0
   -0.9427   25.0300  -28.8951 H   0  0  0  0  0  0  0  0  0  0  0  0
   -4.3427   22.5086  -31.1572 H   0  0  0  0  0  0  0  0  0  0  0  0
   -6.5540   16.8182  -33.8797 H   0  0  0  0  0  0  0  0  0  0  0  0
   -5.1008   15.0602  -34.8739 H   0  0  0  0  0  0  0  0  0  0  0  0
   -2.6870   15.5168  -35.2773 H   0  0  0  0  0  0  0  0  0  0  0  0
   -1.7203   17.7284  -34.6899 H   0  0  0  0  0  0  0  0  0  0  0  0
   -1.3079   18.4073  -31.4076 H   0  0  0  0  0  0  0  0  0  0  0  0
   -0.3833   19.4349  -32.5173 H   0  0  0  0  0  0  0  0  0  0  0  0
   -0.6298   19.5719  -29.5153 H   0  0  0  0  0  0  0  0  0  0  0  0
    0.7343   20.0578  -30.5250 H   0  0  0  0  0  0  0  0  0  0  0  0
   -1.3518   21.7466  -29.4479 H   0  0  0  0  0  0  0  0  0  0  0  0
   -0.0685   22.2573  -30.5516 H   0  0  0  0  0  0  0  0  0  0  0  0
   -2.8002   22.1492  -31.1946 H   0  0  0  0  0  0  0  0  0  0  0  0
   -1.5013   22.1532  -32.4052 H   0  0  0  0  0  0  0  0  0  0  0  0
  1  2  2  0
  2  3  1  0
  3  4  1  0
  4  5  2  0
  5  6  1  0
  6  7  2  0
  7  8  1  0
  8  9  1  0
  9 10  2  0
  9 11  2  0
  9 12  1  0
 12 13  1  0
 13 14  1  0
 14 15  1  0
 15 16  1  0
 16 17  1  0
 17 18  1  0
  8 19  2  0
  2 20  1  0
 20 21  2  0
 21 22  1  0
 22 23  2  0
 23 24  1  0
 24 25  2  0
 25 26  1  0
 26 27  2  0
 26 28  2  0
 26 29  1  0
 29 30  1  0
 30 31  1  0
 31 32  1  0
 32 33  1  0
 19  4  1  0
 25 20  1  0
 33 29  1  0
 18 13  1  0
  3 34  1  0
  5 35  1  0
  6 36  1  0
  7 37  1  0
 13 38  1  0
 14 39  1  0
 14 40  1  0
 15 41  1  0
 15 42  1  0
 16 43  1  0
 16 44  1  0
 17 45  1  0
 17 46  1  0
 18 47  1  0
 18 48  1  0
 19 49  1  0
 21 50  1  0
 22 51  1  0
 23 52  1  0
 24 53  1  0
 30 54  1  0
 30 55  1  0
 31 56  1  0
 31 57  1  0
 32 58  1  0
 32 59  1  0
 33 60  1  0
 33 61  1  0
M  CHG  1  12  -1
M  END
>  <UniqueID>  (27) 
26

>  <SMILES>  (27) 
O=C(Nc1cccc(S(=O)(=O)[N-]C2CCCCC2)c1)c1ccccc1S(=O)(=O)N1CCCC1

>  <Energy>  (27) 
83.44211936764181

>  <Genealogy>  (27) 
O=C(Nc1cccc(S(=O)(=O)[N-]C2CCCCC2)c1)c1ccccc1S(=O)(=O)N1CCCC1 (protonated)
O=C(Nc1cccc(S(=O)(=O)[N-]C2CCCCC2)c1)c1ccccc1S(=O)(=O)N1CCCC1 (3D coordinates assigned)
O=C(Nc1cccc(S(=O)(=O)[N-]C2CCCCC2)c1)c1ccccc1S(=O)(=O)N1CCCC1 (nonaromatic ring conformer: 83.44211936764181 kcal/mol)

>  <smiles>  (27) 
O=C(Nc1cccc(S(=O)(=O)NC2CCCCC2)c1)c1ccccc1S(=O)(=O)N1CCCC1

>  <score_type>  (27) 
oracle

>  <origin>  (27) 
adgpu

>  <m_score__min__energy>  (27) 
-11.92

>  <m_primary>  (27) 
energy

$$$$
27:0
     RDKit          3D

 51 54  0  0  0  0  0  0  0  0999 V2000
   -9.7700   19.2890  -32.8430 N   0  0  0  0  0  0  0  0  0  0  0  0
   -8.4790   19.2310  -32.1560 C   0  0  0  0  0  0  0  0  0  0  0  0
   -7.3610   19.8780  -33.0130 C   0  0  2  0  0  0  0  0  0  0  0  0
   -6.2490   18.8370  -33.3000 C   0  0  0  0  0  0  0  0  0  0  0  0
   -4.9530   19.4960  -33.7570 C   0  0  0  0  0  0  0  0  0  0  0  0
   -4.4120   20.3780  -32.6360 C   0  0  0  0  0  0  0  0  0  0  0  0
   -5.4380   21.3870  -32.1910 C   0  0  0  0  0  0  0  0  0  0  0  0
   -4.9960   22.5480  -31.5400 C   0  0  0  0  0  0  0  0  0  0  0  0
   -5.9090   23.5030  -31.0850 C   0  0  0  0  0  0  0  0  0  0  0  0
   -5.3460   24.8690  -30.1230 S   0  0  0  0  0  0  0  0  0  0  0  0
   -4.2320   25.5530  -30.8550 O   0  0  0  0  0  0  0  0  0  0  0  0
   -6.4660   25.8430  -29.8940 O   0  0  0  0  0  0  0  0  0  0  0  0
   -4.7650   24.3110  -28.5840 N   0  0  0  0  0  0  0  0  0  0  0  0
   -3.6280   23.4490  -28.4060 C   0  0  0  0  0  0  0  0  0  0  0  0
   -3.7530   22.1750  -27.8240 C   0  0  0  0  0  0  0  0  0  0  0  0
   -2.6470   21.3150  -27.7390 C   0  0  0  0  0  0  0  0  0  0  0  0
   -1.3990   21.7340  -28.2420 C   0  0  0  0  0  0  0  0  0  0  0  0
   -1.2640   23.0260  -28.7680 C   0  0  0  0  0  0  0  0  0  0  0  0
   -2.3730   23.8790  -28.8590 C   0  0  0  0  0  0  0  0  0  0  0  0
   -2.2350   25.1520  -29.4160 O   0  0  0  0  0  0  0  0  0  0  0  0
   -0.1790   20.8460  -28.1250 C   0  0  0  0  0  0  0  0  0  0  0  0
   -0.5350   19.4280  -27.9750 N   0  0  0  0  0  0  0  0  0  0  0  0
   -1.4980   19.2500  -26.8790 C   0  0  0  0  0  0  0  0  0  0  0  0
   -2.8390   19.9190  -27.2120 C   0  0  0  0  0  0  0  0  0  0  0  0
   -7.2700   23.3300  -31.3410 C   0  0  0  0  0  0  0  0  0  0  0  0
   -7.7240   22.1780  -31.9860 C   0  0  0  0  0  0  0  0  0  0  0  0
   -6.8280   21.1550  -32.3560 C   0  0  0  0  0  0  0  0  0  0  0  0
   -9.5900   19.3360  -33.8690 H   0  0  0  0  0  0  0  0  0  0  0  0
  -10.2440   20.1870  -32.5880 H   0  0  0  0  0  0  0  0  0  0  0  0
   -8.5562   19.7699  -31.2001 H   0  0  0  0  0  0  0  0  0  0  0  0
   -8.2214   18.1753  -31.9851 H   0  0  0  0  0  0  0  0  0  0  0  0
   -7.7795   20.1885  -33.9817 H   0  0  0  0  0  0  0  0  0  0  0  0
   -6.0518   18.2657  -32.3809 H   0  0  0  0  0  0  0  0  0  0  0  0
   -6.5997   18.1803  -34.1098 H   0  0  0  0  0  0  0  0  0  0  0  0
   -4.2133   18.7199  -34.0032 H   0  0  0  0  0  0  0  0  0  0  0  0
   -5.1472   20.1111  -34.6481 H   0  0  0  0  0  0  0  0  0  0  0  0
   -4.1391   19.7430  -31.7803 H   0  0  0  0  0  0  0  0  0  0  0  0
   -3.5326   20.9201  -33.0140 H   0  0  0  0  0  0  0  0  0  0  0  0
   -3.9187   22.7086  -31.3859 H   0  0  0  0  0  0  0  0  0  0  0  0
   -4.7275   21.8491  -27.4313 H   0  0  0  0  0  0  0  0  0  0  0  0
   -0.2790   23.3740  -29.1126 H   0  0  0  0  0  0  0  0  0  0  0  0
   -3.0380   25.6790  -29.7420 H   0  0  0  0  0  0  0  0  0  0  0  0
    0.4325   20.9634  -29.0318 H   0  0  0  0  0  0  0  0  0  0  0  0
    0.3751   21.1514  -27.2252 H   0  0  0  0  0  0  0  0  0  0  0  0
   -0.9650   19.0890  -28.8700 H   0  0  0  0  0  0  0  0  0  0  0  0
   -1.6629   18.1747  -26.7159 H   0  0  0  0  0  0  0  0  0  0  0  0
   -1.0879   19.7184  -25.9721 H   0  0  0  0  0  0  0  0  0  0  0  0
   -3.3579   19.3184  -27.9736 H   0  0  0  0  0  0  0  0  0  0  0  0
   -3.4318   19.9793  -26.2874 H   0  0  0  0  0  0  0  0  0  0  0  0
   -7.9880   24.1045  -31.0333 H   0  0  0  0  0  0  0  0  0  0  0  0
   -8.7956   22.0673  -32.2084 H   0  0  0  0  0  0  0  0  0  0  0  0
  1  2  1  0
  2  3  1  0
  3  4  1  0
  4  5  1  0
  5  6  1  0
  6  7  1  0
  7  8  2  0
  8  9  1  0
  9 10  1  0
 10 11  2  0
 10 12  2  0
 10 13  1  0
 13 14  1  0
 14 15  2  0
 15 16  1  0
 16 17  2  0
 17 18  1  0
 18 19  2  0
 19 20  1  0
 17 21  1  0
 21 22  1  0
 22 23  1  0
 23 24  1  0
  9 25  2  0
 25 26  1  0
 26 27  2  0
 27  3  1  0
 27  7  1  0
 19 14  1  0
 24 16  1  0
  1 28  1  0
  1 29  1  0
  2 30  1  0
  2 31  1  0
  3 32  1  6
  4 33  1  0
  4 34  1  0
  5 35  1  0
  5 36  1  0
  6 37  1  0
  6 38  1  0
  8 39  1  0
 15 40  1  0
 18 41  1  0
 20 42  1  0
 21 43  1  0
 21 44  1  0
 22 45  1  0
 23 46  1  0
 23 47  1  0
 24 48  1  0
 24 49  1  0
 25 50  1  0
 26 51  1  0
M  CHG  1  13  -1
M  END
>  <UniqueID>  (28) 
27

>  <SMILES>  (28) 
NC[C@@H]1CCCc2cc(S(=O)(=O)[N-]c3cc4c(cc3O)CNCC4)ccc21

>  <Energy>  (28) 
58.710732313784604

>  <Genealogy>  (28) 
NCC1CCCc2cc(S(=O)(=O)[N-]c3cc4c(cc3O)CNCC4)ccc21 (protonated)
NC[C@@H]1CCCc2cc(S(=O)(=O)[N-]c3cc4c(cc3O)CNCC4)ccc21 (chirality)
NC[C@@H]1CCCc2cc(S(=O)(=O)[N-]c3cc4c(cc3O)CNCC4)ccc21 (3D coordinates assigned)
NC[C@@H]1CCCc2cc(S(=O)(=O)[N-]c3cc4c(cc3O)CNCC4)ccc21 (nonaromatic ring conformer: 58.710732313784604 kcal/mol)

>  <smiles>  (28) 
NCC1CCCc2cc(S(=O)(=O)Nc3cc4c(cc3O)CNCC4)ccc21

>  <score_type>  (28) 
oracle

>  <origin>  (28) 
adgpu

>  <m_score__min__energy>  (28) 
-13.16

>  <m_primary>  (28) 
energy

$$$$
28:0
     RDKit          3D

 50 53  0  0  0  0  0  0  0  0999 V2000
   -3.5770   18.9830  -33.8890 C   0  0  0  0  0  0  0  0  0  0  0  0
   -2.1800   19.3870  -33.6690 N   0  0  0  0  0  0  0  0  0  0  0  0
   -2.0090   20.8560  -33.8190 C   0  0  0  0  0  0  0  0  0  0  0  0
   -1.8930   21.5800  -32.4710 C   0  0  0  0  0  0  0  0  0  0  0  0
   -0.6640   21.0730  -31.6830 C   0  0  0  0  0  0  0  0  0  0  0  0
   -0.8180   21.3660  -30.2520 N   0  0  0  0  0  0  0  0  0  0  0  0
   -1.5040   22.5190  -29.7400 C   0  0  0  0  0  0  0  0  0  0  0  0
   -0.9350   23.7750  -29.5950 C   0  0  0  0  0  0  0  0  0  0  0  0
   -1.9640   24.6030  -29.1840 C   0  0  0  0  0  0  0  0  0  0  0  0
   -1.8510   25.9690  -28.9640 O   0  0  0  0  0  0  0  0  0  0  0  0
   -3.1080   23.9100  -29.0480 N   0  0  0  0  0  0  0  0  0  0  0  0
   -4.3660   24.4360  -28.8580 O   0  0  0  0  0  0  0  0  0  0  0  0
   -5.3500   24.8010  -30.2030 S   0  0  0  0  0  0  0  0  0  0  0  0
   -4.5970   25.6710  -31.1700 O   0  0  0  0  0  0  0  0  0  0  0  0
   -6.5770   25.5370  -29.7430 O   0  0  0  0  0  0  0  0  0  0  0  0
   -5.8020   23.2900  -30.9870 C   0  0  0  0  0  0  0  0  0  0  0  0
   -4.9790   22.7300  -31.9730 C   0  0  0  0  0  0  0  0  0  0  0  0
   -5.3770   21.5740  -32.6500 C   0  0  0  0  0  0  0  0  0  0  0  0
   -6.6110   20.9730  -32.3580 C   0  0  0  0  0  0  0  0  0  0  0  0
   -7.0280   19.8220  -33.0440 C   0  0  0  0  0  0  0  0  0  0  0  0
   -8.2670   19.2430  -32.7540 C   0  0  0  0  0  0  0  0  0  0  0  0
   -9.0980   19.8090  -31.7840 C   0  0  0  0  0  0  0  0  0  0  0  0
   -8.6930   20.9530  -31.0910 C   0  0  0  0  0  0  0  0  0  0  0  0
   -7.4480   21.5410  -31.3670 C   0  0  0  0  0  0  0  0  0  0  0  0
   -7.0350   22.6930  -30.6860 C   0  0  0  0  0  0  0  0  0  0  0  0
   -2.8430   22.6420  -29.3970 C   0  0  0  0  0  0  0  0  0  0  0  0
   -3.8070   21.6420  -29.4410 O   0  0  0  0  0  0  0  0  0  0  0  0
   -0.4190   19.5600  -31.9120 C   0  0  0  0  0  0  0  0  0  0  0  0
   -1.6880   18.8410  -32.3810 C   0  0  0  0  0  0  0  0  0  0  0  0
   -4.0743   18.8392  -32.9184 H   0  0  0  0  0  0  0  0  0  0  0  0
   -4.1003   19.7666  -34.4566 H   0  0  0  0  0  0  0  0  0  0  0  0
   -3.6013   18.0410  -34.4566 H   0  0  0  0  0  0  0  0  0  0  0  0
   -1.0947   21.0462  -34.4003 H   0  0  0  0  0  0  0  0  0  0  0  0
   -2.9034   21.2440  -34.3284 H   0  0  0  0  0  0  0  0  0  0  0  0
   -1.7872   22.6603  -32.6492 H   0  0  0  0  0  0  0  0  0  0  0  0
   -2.7994   21.3775  -31.8815 H   0  0  0  0  0  0  0  0  0  0  0  0
    0.2201   21.6077  -32.0603 H   0  0  0  0  0  0  0  0  0  0  0  0
   -0.4070   20.7100  -29.5470 H   0  0  0  0  0  0  0  0  0  0  0  0
    0.1144   24.0544  -29.7701 H   0  0  0  0  0  0  0  0  0  0  0  0
   -4.0155   23.2022  -32.2153 H   0  0  0  0  0  0  0  0  0  0  0  0
   -4.7204   21.1335  -33.4147 H   0  0  0  0  0  0  0  0  0  0  0  0
   -6.3789   19.3746  -33.8112 H   0  0  0  0  0  0  0  0  0  0  0  0
   -8.5887   18.3387  -33.2914 H   0  0  0  0  0  0  0  0  0  0  0  0
  -10.0746   19.3526  -31.5650 H   0  0  0  0  0  0  0  0  0  0  0  0
   -9.3509   21.3939  -30.3276 H   0  0  0  0  0  0  0  0  0  0  0  0
   -7.6808   23.1318  -29.9112 H   0  0  0  0  0  0  0  0  0  0  0  0
    0.3623   19.4379  -32.6766 H   0  0  0  0  0  0  0  0  0  0  0  0
   -0.1092   19.1158  -30.9545 H   0  0  0  0  0  0  0  0  0  0  0  0
   -1.4659   17.7712  -32.5083 H   0  0  0  0  0  0  0  0  0  0  0  0
   -2.4697   18.9922  -31.6220 H   0  0  0  0  0  0  0  0  0  0  0  0
  1  2  1  0
  2  3  1  0
  3  4  1  0
  4  5  1  0
  5  6  1  0
  6  7  1  0
  7  8  1  0
  8  9  2  0
  9 10  1  0
  9 11  1  0
 11 12  1  0
 12 13  1  0
 13 14  2  0
 13 15  2  0
 13 16  1  0
 16 17  2  0
 17 18  1  0
 18 19  2  0
 19 20  1  0
 20 21  2  0
 21 22  1  0
 22 23  2  0
 23 24  1  0
 24 25  2  0
 11 26  1  0
 26 27  1  0
  5 28  1  0
 28 29  1  0
 29  2  1  0
 26  7  2  0
 25 16  1  0
 24 19  1  0
  1 30  1  0
  1 31  1  0
  1 32  1  0
  3 33  1  0
  3 34  1  0
  4 35  1  0
  4 36  1  0
  5 37  1  0
  6 38  1  0
  8 39  1  0
 17 40  1  0
 18 41  1  0
 20 42  1  0
 21 43  1  0
 22 44  1  0
 23 45  1  0
 25 46  1  0
 28 47  1  0
 28 48  1  0
 29 49  1  0
 29 50  1  0
M  CHG  2  10  -1  27  -1
M  END
>  <UniqueID>  (29) 
28

>  <SMILES>  (29) 
CN1CCC(Nc2cc([O-])n(OS(=O)(=O)c3ccc4ccccc4c3)c2[O-])CC1

>  <Energy>  (29) 
95.10636400465135

>  <Genealogy>  (29) 
CN1CCC(Nc2cc([O-])n(OS(=O)(=O)c3ccc4ccccc4c3)c2[O-])CC1 (protonated)
CN1CCC(Nc2cc([O-])n(OS(=O)(=O)c3ccc4ccccc4c3)c2[O-])CC1 (3D coordinates assigned)
CN1CCC(Nc2cc([O-])n(OS(=O)(=O)c3ccc4ccccc4c3)c2[O-])CC1 (nonaromatic ring conformer: 95.10636400465135 kcal/mol)

>  <smiles>  (29) 
CN1CCC(Nc2cc(O)n(OS(=O)(=O)c3ccc4ccccc4c3)c2O)CC1

>  <score_type>  (29) 
oracle

>  <origin>  (29) 
adgpu

>  <m_score__min__energy>  (29) 
-13.800000000000001

>  <m_primary>  (29) 
energy

$$$$
29:0
     RDKit          3D

 62 65  0  0  0  0  0  0  0  0999 V2000
    0.2389   27.1592  -27.3838 H   0  0  0  0  0  0  0  0  0  0  0  0
   -0.1210   26.1860  -27.7490 C   0  0  0  0  0  0  0  0  0  0  0  0
   -1.2390   26.1230  -28.5160 N   0  0  0  0  0  0  0  0  0  0  0  0
   -1.7040   24.9390  -28.9860 C   0  0  0  0  0  0  0  0  0  0  0  0
   -2.7870   24.9230  -29.7060 N   0  0  0  0  0  0  0  0  0  0  0  0
   -3.3940   23.7740  -30.3230 C   0  0  0  0  0  0  0  0  0  0  0  0
   -2.6900   22.5660  -30.4800 C   0  0  0  0  0  0  0  0  0  0  0  0
   -1.6600   22.4812  -30.1033 H   0  0  0  0  0  0  0  0  0  0  0  0
   -3.2890   21.4750  -31.1100 C   0  0  0  0  0  0  0  0  0  0  0  0
   -2.7341   20.5307  -31.2119 H   0  0  0  0  0  0  0  0  0  0  0  0
   -4.5930   21.5740  -31.6140 C   0  0  0  0  0  0  0  0  0  0  0  0
   -5.2010   20.4430  -32.2670 N   0  0  0  0  0  0  0  0  0  0  0  0
   -4.3640   19.4960  -33.0090 C   0  0  0  0  0  0  0  0  0  0  0  0
   -3.4585   20.0107  -33.3628 H   0  0  0  0  0  0  0  0  0  0  0  0
   -4.0868   18.6641  -32.3449 H   0  0  0  0  0  0  0  0  0  0  0  0
   -5.1350   18.9410  -34.2130 C   0  0  0  0  0  0  0  0  0  0  0  0
   -5.2531   19.7438  -34.9557 H   0  0  0  0  0  0  0  0  0  0  0  0
   -4.5581   18.0956  -34.6161 H   0  0  0  0  0  0  0  0  0  0  0  0
   -6.4740   18.4340  -33.8480 N   0  0  0  0  0  0  0  0  0  0  0  0
   -6.4170   17.1560  -33.1190 C   0  0  0  0  0  0  0  0  0  0  0  0
   -6.4257   17.3507  -32.0364 H   0  0  0  0  0  0  0  0  0  0  0  0
   -7.2886   16.5412  -33.3880 H   0  0  0  0  0  0  0  0  0  0  0  0
   -5.4941   16.6213  -33.3880 H   0  0  0  0  0  0  0  0  0  0  0  0
   -7.2780   19.4540  -33.1420 C   0  0  0  0  0  0  0  0  0  0  0  0
   -7.4922   20.2777  -33.8389 H   0  0  0  0  0  0  0  0  0  0  0  0
   -8.2003   18.9670  -32.7925 H   0  0  0  0  0  0  0  0  0  0  0  0
   -6.5600   20.0260  -31.9110 C   0  0  0  0  0  0  0  0  0  0  0  0
   -7.1200   20.8948  -31.5347 H   0  0  0  0  0  0  0  0  0  0  0  0
   -6.5055   19.2494  -31.1338 H   0  0  0  0  0  0  0  0  0  0  0  0
   -5.2860   22.7890  -31.4900 C   0  0  0  0  0  0  0  0  0  0  0  0
   -6.3051   22.8782  -31.8942 H   0  0  0  0  0  0  0  0  0  0  0  0
   -4.6890   23.8950  -30.8530 C   0  0  0  0  0  0  0  0  0  0  0  0
   -5.3540   25.1250  -30.7210 O   0  0  0  0  0  0  0  0  0  0  0  0
   -6.2420   25.4530  -29.6570 C   0  0  0  0  0  0  0  0  0  0  0  0
   -5.7438   25.2690  -28.6937 H   0  0  0  0  0  0  0  0  0  0  0  0
   -6.5228   26.5142  -29.7277 H   0  0  0  0  0  0  0  0  0  0  0  0
   -7.1452   24.8292  -29.7277 H   0  0  0  0  0  0  0  0  0  0  0  0
   -1.0570   23.7870  -28.6570 N   0  0  0  0  0  0  0  0  0  0  0  0
    0.0570   23.7880  -27.8790 C   0  0  0  0  0  0  0  0  0  0  0  0
    0.6870   22.5330  -27.5850 N   0  0  0  0  0  0  0  0  0  0  0  0
    1.6330   22.5530  -27.1420 H   0  0  0  0  0  0  0  0  0  0  0  0
    0.2120   21.0350  -28.3230 S   0  0  0  0  0  0  0  0  0  0  0  0
    1.2680   19.9990  -28.0670 O   0  0  0  0  0  0  0  0  0  0  0  0
    0.0710   21.2300  -29.8070 O   0  0  0  0  0  0  0  0  0  0  0  0
   -1.3110   20.4930  -27.6420 C   0  0  0  0  0  0  0  0  0  0  0  0
   -2.5520   21.0550  -27.8650 C   0  0  0  0  0  0  0  0  0  0  0  0
   -2.7841   21.9146  -28.5110 H   0  0  0  0  0  0  0  0  0  0  0  0
   -3.4430   20.3160  -27.1100 C   0  0  0  0  0  0  0  0  0  0  0  0
   -4.5283   20.4890  -27.0634 H   0  0  0  0  0  0  0  0  0  0  0  0
   -2.7820   19.3510  -26.4390 N   0  0  0  0  0  0  0  0  0  0  0  0
   -3.3860   18.3300  -25.5920 C   0  0  0  0  0  0  0  0  0  0  0  0
   -3.2311   18.5918  -24.5349 H   0  0  0  0  0  0  0  0  0  0  0  0
   -4.4644   18.2711  -25.8009 H   0  0  0  0  0  0  0  0  0  0  0  0
   -2.9183   17.3565  -25.8009 H   0  0  0  0  0  0  0  0  0  0  0  0
   -1.4800   19.4420  -26.7670 C   0  0  0  0  0  0  0  0  0  0  0  0
   -0.6802   18.7839  -26.3966 H   0  0  0  0  0  0  0  0  0  0  0  0
    0.5780   25.0130  -27.4200 C   0  0  0  0  0  0  0  0  0  0  0  0
    1.7700   25.0390  -26.6840 O   0  0  0  0  0  0  0  0  0  0  0  0
    1.8600   24.8310  -25.2790 C   0  0  0  0  0  0  0  0  0  0  0  0
    1.4766   25.7171  -24.7519 H   0  0  0  0  0  0  0  0  0  0  0  0
    1.2622   23.9509  -24.9996 H   0  0  0  0  0  0  0  0  0  0  0  0
    2.9108   24.6642  -24.9996 H   0  0  0  0  0  0  0  0  0  0  0  0
  1  2  1  0
  2  3  2  0
  3  4  1  0
  4  5  2  0
  5  6  1  0
  6  7  2  0
  7  8  1  0
  7  9  1  0
  9 10  1  0
  9 11  2  0
 11 12  1  0
 12 13  1  0
 13 14  1  0
 13 15  1  0
 13 16  1  0
 16 17  1  0
 16 18  1  0
 16 19  1  0
 19 20  1  0
 20 21  1  0
 20 22  1  0
 20 23  1  0
 19 24  1  0
 24 25  1  0
 24 26  1  0
 24 27  1  0
 27 28  1  0
 27 29  1  0
 11 30  1  0
 30 31  1  0
 30 32  2  0
 32 33  1  0
 33 34  1  0
 34 35  1  0
 34 36  1  0
 34 37  1  0
  4 38  1  0
 38 39  1  0
 39 40  1  0
 40 41  1  0
 40 42  1  0
 42 43  2  0
 42 44  2  0
 42 45  1  0
 45 46  1  0
 46 47  1  0
 46 48  2  0
 48 49  1  0
 48 50  1  0
 50 51  1  0
 51 52  1  0
 51 53  1  0
 51 54  1  0
 50 55  1  0
 55 56  1  0
 39 57  2  0
 57 58  1  0
 58 59  1  0
 59 60  1  0
 59 61  1  0
 59 62  1  0
 57  2  1  0
 32  6  1  0
 55 45  2  0
 27 12  1  0
M  CHG  1  38  -1
M  END
>  <UniqueID>  (30) 
29

>  <SMILES>  (30) 
COc1cc(N2CCN(C)CC2)ccc1/N=c1/ncc(OC)c(NS(=O)(=O)c2ccn(C)c2)[n-]1

>  <Energy>  (30) 
106.77648781329529

>  <Genealogy>  (30) 
COc1cc(N2CCN(C)CC2)ccc1N=c1ncc(OC)c(NS(=O)(=O)c2ccn(C)c2)[n-]1 (protonated)
COc1cc(N2CCN(C)CC2)ccc1/N=c1/ncc(OC)c(NS(=O)(=O)c2ccn(C)c2)[n-]1 (cis-trans isomerization)
COc1cc(N2CCN(C)CC2)ccc1/N=c1/ncc(OC)c(NS(=O)(=O)c2ccn(C)c2)[n-]1 (3D coordinates assigned)
COc1cc(N2CCN(C)CC2)ccc1/N=c1/ncc(OC)c(NS(=O)(=O)c2ccn(C)c2)[n-]1 (nonaromatic ring conformer: 106.77648781329529 kcal/mol)

>  <smiles>  (30) 
COc1cc(N2CCN(C)CC2)ccc1N=c1ncc(OC)c(NS(=O)(=O)c2ccn(C)c2)[nH]1

>  <score_type>  (30) 
oracle

>  <origin>  (30) 
adgpu

>  <m_score__min__energy>  (30) 
-9.4399999999999995

>  <m_primary>  (30) 
energy

$$$$
30:0
     RDKit          3D

 43 46  0  0  0  0  0  0  0  0999 V2000
   -0.3940   24.7440  -24.3710 C   0  0  0  0  0  0  0  0  0  0  0  0
   -0.5050   23.4800  -25.1640 C   0  0  0  0  0  0  0  0  0  0  0  0
   -0.3790   22.3770  -24.5700 O   0  0  0  0  0  0  0  0  0  0  0  0
   -0.6980   23.5020  -26.5890 N   0  0  0  0  0  0  0  0  0  0  0  0
   -1.8910   23.8230  -27.2920 C   0  0  0  0  0  0  0  0  0  0  0  0
   -3.1370   24.1710  -26.7550 C   0  0  0  0  0  0  0  0  0  0  0  0
   -4.2060   24.4070  -27.6350 C   0  0  0  0  0  0  0  0  0  0  0  0
   -4.0260   24.2720  -29.0280 C   0  0  0  0  0  0  0  0  0  0  0  0
   -5.3610   24.5660  -30.1350 S   0  0  0  0  0  0  0  0  0  0  0  0
   -4.9510   25.5320  -31.2120 O   0  0  0  0  0  0  0  0  0  0  0  0
   -6.5140   25.1450  -29.3640 O   0  0  0  0  0  0  0  0  0  0  0  0
   -5.8310   23.0700  -30.8720 N   0  0  0  0  0  0  0  0  0  0  0  0
   -7.0390   22.3380  -30.6680 C   0  0  0  0  0  0  0  0  0  0  0  0
   -7.9450   22.6670  -29.8590 O   0  0  0  0  0  0  0  0  0  0  0  0
   -7.0570   21.1680  -31.5420 C   0  0  0  0  0  0  0  0  0  0  0  0
   -8.0090   20.1620  -31.6970 C   0  0  0  0  0  0  0  0  0  0  0  0
   -7.7490   19.1440  -32.6330 C   0  0  0  0  0  0  0  0  0  0  0  0
   -6.5540   19.1540  -33.3870 C   0  0  0  0  0  0  0  0  0  0  0  0
   -5.6090   20.1800  -33.2120 C   0  0  0  0  0  0  0  0  0  0  0  0
   -5.8900   21.1780  -32.2810 C   0  0  0  0  0  0  0  0  0  0  0  0
   -5.1220   22.3520  -31.8800 C   0  0  0  0  0  0  0  0  0  0  0  0
   -4.0020   22.6950  -32.3430 O   0  0  0  0  0  0  0  0  0  0  0  0
   -2.7750   23.8800  -29.5370 C   0  0  0  0  0  0  0  0  0  0  0  0
   -1.7270   23.6600  -28.6420 C   0  0  0  0  0  0  0  0  0  0  0  0
   -0.3550   23.1820  -28.9560 C   0  0  0  0  0  0  0  0  0  0  0  0
    0.3100   23.0490  -27.5560 C   0  0  1  0  0  0  0  0  0  0  0  0
    1.5800   23.9000  -27.4540 C   0  0  0  0  0  0  0  0  0  0  0  0
   -0.4149   24.5062  -23.2972 H   0  0  0  0  0  0  0  0  0  0  0  0
    0.5519   25.2489  -24.6164 H   0  0  0  0  0  0  0  0  0  0  0  0
   -1.2375   25.4061  -24.6164 H   0  0  0  0  0  0  0  0  0  0  0  0
   -3.2754   24.2576  -25.6672 H   0  0  0  0  0  0  0  0  0  0  0  0
   -5.1888   24.6986  -27.2361 H   0  0  0  0  0  0  0  0  0  0  0  0
   -8.9362   20.1637  -31.1051 H   0  0  0  0  0  0  0  0  0  0  0  0
   -8.4805   18.3355  -32.7786 H   0  0  0  0  0  0  0  0  0  0  0  0
   -6.3618   18.3532  -34.1162 H   0  0  0  0  0  0  0  0  0  0  0  0
   -4.6751   20.1946  -33.7930 H   0  0  0  0  0  0  0  0  0  0  0  0
   -2.6255   23.7494  -30.6189 H   0  0  0  0  0  0  0  0  0  0  0  0
   -0.3850   22.2106  -29.4713 H   0  0  0  0  0  0  0  0  0  0  0  0
    0.1921   23.8590  -29.6286 H   0  0  0  0  0  0  0  0  0  0  0  0
    0.6215   22.0115  -27.3649 H   0  0  0  0  0  0  0  0  0  0  0  0
    1.8266   24.0652  -26.3948 H   0  0  0  0  0  0  0  0  0  0  0  0
    2.4126   23.3767  -27.9470 H   0  0  0  0  0  0  0  0  0  0  0  0
    1.4126   24.8690  -27.9470 H   0  0  0  0  0  0  0  0  0  0  0  0
  1  2  1  0
  2  3  2  0
  2  4  1  0
  4  5  1  0
  5  6  2  0
  6  7  1  0
  7  8  2  0
  8  9  1  0
  9 10  2  0
  9 11  2  0
  9 12  1  0
 12 13  1  0
 13 14  2  0
 13 15  1  0
 15 16  2  0
 16 17  1  0
 17 18  2  0
 18 19  1  0
 19 20  2  0
 20 21  1  0
 21 22  2  0
  8 23  1  0
 23 24  2  0
 24 25  1  0
 25 26  1  0
 26 27  1  0
 26  4  1  0
 24  5  1  0
 21 12  1  0
 20 15  1  0
  1 28  1  0
  1 29  1  0
  1 30  1  0
  6 31  1  0
  7 32  1  0
 16 33  1  0
 17 34  1  0
 18 35  1  0
 19 36  1  0
 23 37  1  0
 25 38  1  0
 25 39  1  0
 26 40  1  1
 27 41  1  0
 27 42  1  0
 27 43  1  0
M  END
>  <UniqueID>  (31) 
30

>  <SMILES>  (31) 
CC(=O)N1c2ccc(S(=O)(=O)N3C(=O)c4ccccc4C3=O)cc2C[C@H]1C

>  <Energy>  (31) 
96.93785255135118

>  <Genealogy>  (31) 
CC(=O)N1c2ccc(S(=O)(=O)N3C(=O)c4ccccc4C3=O)cc2C[C@H]1C (chirality)
CC(=O)N1c2ccc(S(=O)(=O)N3C(=O)c4ccccc4C3=O)cc2C[C@H]1C (3D coordinates assigned)
CC(=O)N1c2ccc(S(=O)(=O)N3C(=O)c4ccccc4C3=O)cc2C[C@H]1C (nonaromatic ring conformer: 96.93785255135118 kcal/mol)

>  <smiles>  (31) 
CC(=O)N1c2ccc(S(=O)(=O)N3C(=O)c4ccccc4C3=O)cc2CC1C

>  <score_type>  (31) 
oracle

>  <origin>  (31) 
adgpu

>  <m_score__min__energy>  (31) 
-9.9499999999999993

>  <m_primary>  (31) 
energy

$$$$
31:0
     RDKit          3D

 44 46  0  0  0  0  0  0  0  0999 V2000
    1.7030   19.6130  -28.4490 C   0  0  0  0  0  0  0  0  0  0  0  0
    0.9190   19.4130  -29.6590 N   0  0  0  0  0  0  0  0  0  0  0  0
    0.0120   20.3960  -30.1690 C   0  0  0  0  0  0  0  0  0  0  0  0
    0.2230   20.8990  -31.3080 O   0  0  0  0  0  0  0  0  0  0  0  0
   -1.1690   20.8340  -29.3750 C   0  0  0  0  0  0  0  0  0  0  0  0
   -1.8790   19.8820  -28.6170 C   0  0  0  0  0  0  0  0  0  0  0  0
   -2.9950   20.2540  -27.8660 C   0  0  0  0  0  0  0  0  0  0  0  0
   -3.4230   21.5790  -27.8580 C   0  0  0  0  0  0  0  0  0  0  0  0
   -2.7360   22.5460  -28.6000 C   0  0  0  0  0  0  0  0  0  0  0  0
   -3.1910   23.9060  -28.5950 N   0  0  0  0  0  0  0  0  0  0  0  0
   -2.6270   24.8430  -27.6630 C   0  0  0  0  0  0  0  0  0  0  0  0
   -3.0980   24.8700  -26.3400 C   0  0  0  0  0  0  0  0  0  0  0  0
   -2.5610   25.7710  -25.4180 C   0  0  0  0  0  0  0  0  0  0  0  0
   -1.5460   26.6480  -25.8050 C   0  0  0  0  0  0  0  0  0  0  0  0
   -1.0570   26.6210  -27.1150 C   0  0  0  0  0  0  0  0  0  0  0  0
   -0.0370   27.4930  -27.4810 O   0  0  0  0  0  0  0  0  0  0  0  0
   -1.5900   25.7140  -28.0490 C   0  0  0  0  0  0  0  0  0  0  0  0
   -1.0830   25.6550  -29.3470 O   0  0  0  0  0  0  0  0  0  0  0  0
   -4.4200   24.3980  -29.7220 S   0  0  0  0  0  0  0  0  0  0  0  0
   -5.5810   25.0070  -28.9860 O   0  0  0  0  0  0  0  0  0  0  0  0
   -3.8650   25.4340  -30.6610 O   0  0  0  0  0  0  0  0  0  0  0  0
   -4.9720   22.9930  -30.6310 C   0  0  0  0  0  0  0  0  0  0  0  0
   -4.1040   22.3730  -31.5410 C   0  0  0  0  0  0  0  0  0  0  0  0
   -4.5370   21.2730  -32.2880 C   0  0  0  0  0  0  0  0  0  0  0  0
   -5.8380   20.7860  -32.1280 C   0  0  0  0  0  0  0  0  0  0  0  0
   -6.4300   19.2850  -33.1490 Br  0  0  0  0  0  0  0  0  0  0  0  0
   -6.7060   21.4000  -31.2190 C   0  0  0  0  0  0  0  0  0  0  0  0
   -6.2750   22.5010  -30.4720 C   0  0  0  0  0  0  0  0  0  0  0  0
   -1.6100   22.1790  -29.3580 C   0  0  0  0  0  0  0  0  0  0  0  0
   -0.9480   23.1580  -30.0920 O   0  0  0  0  0  0  0  0  0  0  0  0
    1.0651   19.4503  -27.5677 H   0  0  0  0  0  0  0  0  0  0  0  0
    2.5402   18.8997  -28.4324 H   0  0  0  0  0  0  0  0  0  0  0  0
    2.0962   20.6402  -28.4324 H   0  0  0  0  0  0  0  0  0  0  0  0
   -1.5496   18.8325  -28.6171 H   0  0  0  0  0  0  0  0  0  0  0  0
   -3.5378   19.4986  -27.2789 H   0  0  0  0  0  0  0  0  0  0  0  0
   -4.3045   21.8665  -27.2661 H   0  0  0  0  0  0  0  0  0  0  0  0
   -3.8941   24.1778  -26.0285 H   0  0  0  0  0  0  0  0  0  0  0  0
   -2.9384   25.7897  -24.3849 H   0  0  0  0  0  0  0  0  0  0  0  0
   -1.1302   27.3615  -25.0783 H   0  0  0  0  0  0  0  0  0  0  0  0
   -0.8790   24.7770  -29.8080 H   0  0  0  0  0  0  0  0  0  0  0  0
   -3.0795   22.7530  -31.6677 H   0  0  0  0  0  0  0  0  0  0  0  0
   -3.8536   20.7904  -33.0021 H   0  0  0  0  0  0  0  0  0  0  0  0
   -7.7290   21.0163  -31.0915 H   0  0  0  0  0  0  0  0  0  0  0  0
   -6.9599   22.9819  -29.7582 H   0  0  0  0  0  0  0  0  0  0  0  0
  1  2  1  0
  2  3  1  0
  3  4  2  0
  3  5  1  0
  5  6  2  0
  6  7  1  0
  7  8  2  0
  8  9  1  0
  9 10  1  0
 10 11  1  0
 11 12  2  0
 12 13  1  0
 13 14  2  0
 14 15  1  0
 15 16  1  0
 15 17  2  0
 17 18  1  0
 10 19  1  0
 19 20  2  0
 19 21  2  0
 19 22  1  0
 22 23  2  0
 23 24  1  0
 24 25  2  0
 25 26  1  0
 25 27  1  0
 27 28  2  0
  9 29  2  0
 29 30  1  0
 29  5  1  0
 17 11  1  0
 28 22  1  0
  1 31  1  0
  1 32  1  0
  1 33  1  0
  6 34  1  0
  7 35  1  0
  8 36  1  0
 12 37  1  0
 13 38  1  0
 14 39  1  0
 18 40  1  0
 23 41  1  0
 24 42  1  0
 27 43  1  0
 28 44  1  0
M  CHG  3   2  -1  16  -1  30  -1
M  END
>  <UniqueID>  (32) 
31

>  <SMILES>  (32) 
C[N-]C(=O)c1cccc(N(c2cccc([O-])c2O)S(=O)(=O)c2ccc(Br)cc2)c1[O-]

>  <Energy>  (32) 
59.54915354266253

>  <Genealogy>  (32) 
C[N-]C(=O)c1cccc(N(c2cccc([O-])c2O)S(=O)(=O)c2ccc(Br)cc2)c1[O-] (protonated)
C[N-]C(=O)c1cccc(N(c2cccc([O-])c2O)S(=O)(=O)c2ccc(Br)cc2)c1[O-] (3D coordinates assigned)
C[N-]C(=O)c1cccc(N(c2cccc([O-])c2O)S(=O)(=O)c2ccc(Br)cc2)c1[O-] (optimized conformer: 59.54915354266253 kcal/mol)

>  <smiles>  (32) 
CNC(=O)c1cccc(N(c2cccc(O)c2O)S(=O)(=O)c2ccc(Br)cc2)c1O

>  <score_type>  (32) 
oracle

>  <origin>  (32) 
adgpu

>  <m_score__min__energy>  (32) 
-11.68

>  <m_primary>  (32) 
energy

$$$$
32:0
     RDKit          3D

 73 78  0  0  0  0  0  0  0  0999 V2000
   -5.0040   19.5230  -34.1830 O   0  0  0  0  0  0  0  0  0  0  0  0
   -4.7390   19.9910  -33.0430 C   0  0  0  0  0  0  0  0  0  0  0  0
   -3.5660   19.5320  -32.3570 N   0  0  0  0  0  0  0  0  0  0  0  0
   -2.2180   19.7100  -32.8120 C   0  0  0  0  0  0  0  0  0  0  0  0
   -1.2230   18.8030  -32.3830 C   0  0  0  0  0  0  0  0  0  0  0  0
    0.1120   18.9460  -32.8020 C   0  0  0  0  0  0  0  0  0  0  0  0
    0.4260   20.0200  -33.6340 C   0  0  0  0  0  0  0  0  0  0  0  0
   -0.5330   20.9230  -34.0340 C   0  0  0  0  0  0  0  0  0  0  0  0
   -1.8610   20.8040  -33.6360 C   0  0  0  0  0  0  0  0  0  0  0  0
    0.1220   21.9240  -34.8640 C   0  0  0  0  0  0  0  0  0  0  0  0
   -0.4350   22.9390  -35.3640 O   0  0  0  0  0  0  0  0  0  0  0  0
    1.5090   21.6100  -35.0110 N   0  0  0  0  0  0  0  0  0  0  0  0
    2.5430   22.4970  -35.4570 C   0  0  0  0  0  0  0  0  0  0  0  0
    3.7440   21.9760  -35.9570 C   0  0  0  0  0  0  0  0  0  0  0  0
    4.7500   22.8360  -36.4060 C   0  0  0  0  0  0  0  0  0  0  0  0
    4.5670   24.2200  -36.3420 C   0  0  0  0  0  0  0  0  0  0  0  0
    3.3770   24.7510  -35.8260 C   0  0  0  0  0  0  0  0  0  0  0  0
    3.1490   26.5000  -35.7270 S   0  0  0  0  0  0  0  0  0  0  0  0
    3.5620   27.1280  -37.0300 O   0  0  0  0  0  0  0  0  0  0  0  0
    4.0340   27.0530  -34.6450 O   0  0  0  0  0  0  0  0  0  0  0  0
    1.4850   26.9180  -35.3940 N   0  0  0  0  0  0  0  0  0  0  0  0
    0.6070   26.4400  -36.4830 C   0  0  0  0  0  0  0  0  0  0  0  0
   -0.8400   26.9650  -36.3380 C   0  0  0  0  0  0  0  0  0  0  0  0
   -1.0820   27.6130  -34.9720 C   0  0  0  0  0  0  0  0  0  0  0  0
   -0.0590   28.7260  -34.6970 C   0  0  0  0  0  0  0  0  0  0  0  0
    1.3520   28.3710  -35.2120 C   0  0  0  0  0  0  0  0  0  0  0  0
    2.3680   23.8860  -35.3860 C   0  0  0  0  0  0  0  0  0  0  0  0
    1.6970   20.4410  -34.2140 C   0  0  0  0  0  0  0  0  0  0  0  0
    2.8070   19.8690  -34.0420 O   0  0  0  0  0  0  0  0  0  0  0  0
   -5.5810   21.0700  -32.4820 C   0  0  0  0  0  0  0  0  0  0  0  0
   -4.9710   22.0510  -31.6830 C   0  0  0  0  0  0  0  0  0  0  0  0
   -5.7260   23.0940  -31.1310 C   0  0  0  0  0  0  0  0  0  0  0  0
   -4.9350   24.3540  -30.1780 S   0  0  0  0  0  0  0  0  0  0  0  0
   -4.2850   25.3320  -31.1170 O   0  0  0  0  0  0  0  0  0  0  0  0
   -5.9760   25.0930  -29.3860 O   0  0  0  0  0  0  0  0  0  0  0  0
   -3.7340   23.7330  -29.0740 N   0  0  0  0  0  0  0  0  0  0  0  0
   -2.5840   23.1700  -29.7700 C   0  0  0  0  0  0  0  0  0  0  0  0
   -1.9140   22.2590  -28.7570 C   0  0  0  0  0  0  0  0  0  0  0  0
   -3.0460   21.7880  -27.8560 C   0  0  0  0  0  0  0  0  0  0  0  0
   -4.2480   22.6490  -28.2370 C   0  0  0  0  0  0  0  0  0  0  0  0
   -7.0990   23.1610  -31.3880 C   0  0  0  0  0  0  0  0  0  0  0  0
   -7.7170   22.1870  -32.1750 C   0  0  0  0  0  0  0  0  0  0  0  0
   -6.9730   21.1350  -32.7190 C   0  0  0  0  0  0  0  0  0  0  0  0
   -7.6490   20.1610  -33.4590 O   0  0  0  0  0  0  0  0  0  0  0  0
   -1.4960   17.9746  -31.7128 H   0  0  0  0  0  0  0  0  0  0  0  0
    0.8854   18.2318  -32.4828 H   0  0  0  0  0  0  0  0  0  0  0  0
   -2.6136   21.5408  -33.9534 H   0  0  0  0  0  0  0  0  0  0  0  0
    3.8953   20.8872  -35.9962 H   0  0  0  0  0  0  0  0  0  0  0  0
    5.6862   22.4233  -36.8099 H   0  0  0  0  0  0  0  0  0  0  0  0
    5.3595   24.8948  -36.6978 H   0  0  0  0  0  0  0  0  0  0  0  0
    1.0147   26.7854  -37.4445 H   0  0  0  0  0  0  0  0  0  0  0  0
    0.5747   25.3416  -36.4339 H   0  0  0  0  0  0  0  0  0  0  0  0
   -1.0269   27.7122  -37.1234 H   0  0  0  0  0  0  0  0  0  0  0  0
   -1.5230   26.1080  -36.4328 H   0  0  0  0  0  0  0  0  0  0  0  0
   -2.0942   28.0431  -34.9530 H   0  0  0  0  0  0  0  0  0  0  0  0
   -0.9745   26.8410  -34.1958 H   0  0  0  0  0  0  0  0  0  0  0  0
   -0.3959   29.6463  -35.1966 H   0  0  0  0  0  0  0  0  0  0  0  0
    0.0062   28.8587  -33.6070 H   0  0  0  0  0  0  0  0  0  0  0  0
    1.5223   28.8733  -36.1757 H   0  0  0  0  0  0  0  0  0  0  0  0
    2.0945   28.7057  -34.4726 H   0  0  0  0  0  0  0  0  0  0  0  0
    1.4319   24.2989  -34.9820 H   0  0  0  0  0  0  0  0  0  0  0  0
   -3.8895   21.9998  -31.4887 H   0  0  0  0  0  0  0  0  0  0  0  0
   -2.9088   22.5957  -30.6501 H   0  0  0  0  0  0  0  0  0  0  0  0
   -1.9014   23.9511  -30.1359 H   0  0  0  0  0  0  0  0  0  0  0  0
   -1.4364   21.4048  -29.2592 H   0  0  0  0  0  0  0  0  0  0  0  0
   -1.1201   22.7728  -28.1951 H   0  0  0  0  0  0  0  0  0  0  0  0
   -3.2623   20.7241  -28.0331 H   0  0  0  0  0  0  0  0  0  0  0  0
   -2.7911   21.8876  -26.7906 H   0  0  0  0  0  0  0  0  0  0  0  0
   -4.9813   22.0509  -28.7978 H   0  0  0  0  0  0  0  0  0  0  0  0
   -4.7546   23.0425  -27.3434 H   0  0  0  0  0  0  0  0  0  0  0  0
   -7.6949   23.9848  -30.9682 H   0  0  0  0  0  0  0  0  0  0  0  0
   -8.7981   22.2476  -32.3687 H   0  0  0  0  0  0  0  0  0  0  0  0
   -7.2190   19.6460  -34.2160 H   0  0  0  0  0  0  0  0  0  0  0  0
  1  2  2  0
  2  3  1  0
  3  4  1  0
  4  5  2  0
  5  6  1  0
  6  7  2  0
  7  8  1  0
  8  9  2  0
  8 10  1  0
 10 11  2  0
 10 12  1  0
 12 13  1  0
 13 14  2  0
 14 15  1  0
 15 16  2  0
 16 17  1  0
 17 18  1  0
 18 19  2  0
 18 20  2  0
 18 21  1  0
 21 22  1  0
 22 23  1  0
 23 24  1  0
 24 25  1  0
 25 26  1  0
 17 27  2  0
 12 28  1  0
 28 29  2  0
  2 30  1  0
 30 31  2  0
 31 32  1  0
 32 33  1  0
 33 34  2  0
 33 35  2  0
 33 36  1  0
 36 37  1  0
 37 38  1  0
 38 39  1  0
 39 40  1  0
 32 41  2  0
 41 42  1  0
 42 43  2  0
 43 44  1  0
  9  4  1  0
 27 13  1  0
 43 30  1  0
 28  7  1  0
 40 36  1  0
 26 21  1  0
  5 45  1  0
  6 46  1  0
  9 47  1  0
 14 48  1  0
 15 49  1  0
 16 50  1  0
 22 51  1  0
 22 52  1  0
 23 53  1  0
 23 54  1  0
 24 55  1  0
 24 56  1  0
 25 57  1  0
 25 58  1  0
 26 59  1  0
 26 60  1  0
 27 61  1  0
 31 62  1  0
 37 63  1  0
 37 64  1  0
 38 65  1  0
 38 66  1  0
 39 67  1  0
 39 68  1  0
 40 69  1  0
 40 70  1  0
 41 71  1  0
 42 72  1  0
 44 73  1  0
M  CHG  1   3  -1
M  END
>  <UniqueID>  (33) 
32

>  <SMILES>  (33) 
O=C([N-]c1ccc2c(c1)C(=O)N(c1cccc(S(=O)(=O)N3CCCCC3)c1)C2=O)c1cc(S(=O)(=O)N2CCCC2)ccc1O

>  <Energy>  (33) 
125.05996102420501

>  <Genealogy>  (33) 
O=C([N-]c1ccc2c(c1)C(=O)N(c1cccc(S(=O)(=O)N3CCCCC3)c1)C2=O)c1cc(S(=O)(=O)N2CCCC2)ccc1O (protonated)
O=C([N-]c1ccc2c(c1)C(=O)N(c1cccc(S(=O)(=O)N3CCCCC3)c1)C2=O)c1cc(S(=O)(=O)N2CCCC2)ccc1O (3D coordinates assigned)
O=C([N-]c1ccc2c(c1)C(=O)N(c1cccc(S(=O)(=O)N3CCCCC3)c1)C2=O)c1cc(S(=O)(=O)N2CCCC2)ccc1O (nonaromatic ring conformer: 125.05996102420501 kcal/mol)

>  <smiles>  (33) 
O=C(Nc1ccc2c(c1)C(=O)N(c1cccc(S(=O)(=O)N3CCCCC3)c1)C2=O)c1cc(S(=O)(=O)N2CCCC2)ccc1O

>  <score_type>  (33) 
oracle

>  <origin>  (33) 
adgpu

>  <m_score__min__energy>  (33) 
-12.69

>  <m_primary>  (33) 
energy

$$$$
33:0
     RDKit          3D

 66 69  0  0  0  0  0  0  0  0999 V2000
   -4.5110   22.4520  -28.8680 C   0  0  0  0  0  0  0  0  0  0  0  0
   -3.0670   22.9090  -28.8530 C   0  0  0  0  0  0  0  0  0  0  0  0
   -2.1470   22.3950  -29.8040 C   0  0  0  0  0  0  0  0  0  0  0  0
   -2.5670   21.4980  -30.9050 C   0  0  0  0  0  0  0  0  0  0  0  0
   -1.9190   20.2700  -31.1000 C   0  0  0  0  0  0  0  0  0  0  0  0
   -2.3130   19.4230  -32.1400 C   0  0  0  0  0  0  0  0  0  0  0  0
   -3.3590   19.7930  -32.9960 C   0  0  0  0  0  0  0  0  0  0  0  0
   -3.7880   18.9000  -34.0880 C   0  0  0  0  0  0  0  0  0  0  0  0
   -2.9450   18.1280  -34.6150 O   0  0  0  0  0  0  0  0  0  0  0  0
   -5.1320   18.9060  -34.5900 N   0  0  0  0  0  0  0  0  0  0  0  0
   -6.2130   18.0480  -34.1160 C   0  0  0  0  0  0  0  0  0  0  0  0
   -7.0720   18.7800  -33.1180 C   0  0  0  0  0  0  0  0  0  0  0  0
   -7.9770   18.0790  -32.3030 C   0  0  0  0  0  0  0  0  0  0  0  0
   -8.7500   18.7660  -31.3610 C   0  0  0  0  0  0  0  0  0  0  0  0
   -8.6250   20.1510  -31.2240 C   0  0  0  0  0  0  0  0  0  0  0  0
   -7.7330   20.8610  -32.0390 C   0  0  0  0  0  0  0  0  0  0  0  0
   -7.5520   22.6030  -31.8580 S   0  0  0  0  0  0  0  0  0  0  0  0
   -7.2960   22.9960  -30.1420 C   0  0  0  0  0  0  0  0  0  0  0  0
   -6.3740   23.0730  -32.6670 O   0  0  0  0  0  0  0  0  0  0  0  0
   -8.7860   23.3050  -32.3500 O   0  0  0  0  0  0  0  0  0  0  0  0
   -6.9570   20.1730  -32.9820 C   0  0  0  0  0  0  0  0  0  0  0  0
   -3.9860   21.0350  -32.8220 C   0  0  0  0  0  0  0  0  0  0  0  0
   -3.5950   21.8810  -31.7810 C   0  0  0  0  0  0  0  0  0  0  0  0
   -0.7950   22.7470  -29.7230 C   0  0  0  0  0  0  0  0  0  0  0  0
   -0.3450   23.6130  -28.7350 C   0  0  0  0  0  0  0  0  0  0  0  0
   -1.2380   24.1710  -27.8110 C   0  0  0  0  0  0  0  0  0  0  0  0
   -0.6870   25.0610  -26.7630 C   0  0  0  0  0  0  0  0  0  0  0  0
   -1.0040   26.4290  -26.7530 C   0  0  0  0  0  0  0  0  0  0  0  0
   -0.4910   27.2640  -25.7560 C   0  0  0  0  0  0  0  0  0  0  0  0
    0.3430   26.7420  -24.7580 C   0  0  0  0  0  0  0  0  0  0  0  0
    0.9790   27.7870  -23.4920 S   0  0  0  0  0  0  0  0  0  0  0  0
    2.7090   27.4480  -23.2580 C   0  0  0  0  0  0  0  0  0  0  0  0
    0.7970   29.2260  -23.8850 O   0  0  0  0  0  0  0  0  0  0  0  0
    0.2380   27.5390  -22.2080 O   0  0  0  0  0  0  0  0  0  0  0  0
    0.6440   25.3740  -24.7550 C   0  0  0  0  0  0  0  0  0  0  0  0
    0.1300   24.5370  -25.7480 C   0  0  0  0  0  0  0  0  0  0  0  0
   -2.6210   23.8620  -27.8950 C   0  0  0  0  0  0  0  0  0  0  0  0
   -3.6100   24.5290  -26.9620 C   0  0  0  0  0  0  0  0  0  0  0  0
   -4.8703   22.3383  -27.8346 H   0  0  0  0  0  0  0  0  0  0  0  0
   -5.1267   23.1992  -29.3902 H   0  0  0  0  0  0  0  0  0  0  0  0
   -4.5847   21.4866  -29.3902 H   0  0  0  0  0  0  0  0  0  0  0  0
   -1.0974   19.9719  -30.4321 H   0  0  0  0  0  0  0  0  0  0  0  0
   -1.7995   18.4614  -32.2871 H   0  0  0  0  0  0  0  0  0  0  0  0
   -6.8333   17.7421  -34.9714 H   0  0  0  0  0  0  0  0  0  0  0  0
   -5.7763   17.1644  -33.6275 H   0  0  0  0  0  0  0  0  0  0  0  0
   -8.0777   16.9885  -32.4059 H   0  0  0  0  0  0  0  0  0  0  0  0
   -9.4586   18.2141  -30.7260 H   0  0  0  0  0  0  0  0  0  0  0  0
   -9.2280   20.6851  -30.4749 H   0  0  0  0  0  0  0  0  0  0  0  0
   -7.7893   22.2388  -29.5149 H   0  0  0  0  0  0  0  0  0  0  0  0
   -6.2177   23.0059  -29.9250 H   0  0  0  0  0  0  0  0  0  0  0  0
   -7.7228   23.9863  -29.9250 H   0  0  0  0  0  0  0  0  0  0  0  0
   -6.2532   20.7279  -33.6198 H   0  0  0  0  0  0  0  0  0  0  0  0
   -4.7887   21.3445  -33.5075 H   0  0  0  0  0  0  0  0  0  0  0  0
   -4.0950   22.8516  -31.6472 H   0  0  0  0  0  0  0  0  0  0  0  0
   -0.0807   22.3331  -30.4500 H   0  0  0  0  0  0  0  0  0  0  0  0
    0.7245   23.8636  -28.6773 H   0  0  0  0  0  0  0  0  0  0  0  0
   -1.6586   26.8453  -27.5328 H   0  0  0  0  0  0  0  0  0  0  0  0
   -0.7429   28.3348  -25.7549 H   0  0  0  0  0  0  0  0  0  0  0  0
    2.9318   27.4043  -22.1817 H   0  0  0  0  0  0  0  0  0  0  0  0
    2.9599   26.4836  -23.7238 H   0  0  0  0  0  0  0  0  0  0  0  0
    3.3054   28.2464  -23.7238 H   0  0  0  0  0  0  0  0  0  0  0  0
    1.2882   24.9569  -23.9669 H   0  0  0  0  0  0  0  0  0  0  0  0
    0.3661   23.4627  -25.7350 H   0  0  0  0  0  0  0  0  0  0  0  0
   -3.3197   24.3332  -25.9192 H   0  0  0  0  0  0  0  0  0  0  0  0
   -3.6121   25.6137  -27.1446 H   0  0  0  0  0  0  0  0  0  0  0  0
   -4.6165   24.1245  -27.1446 H   0  0  0  0  0  0  0  0  0  0  0  0
  1  2  1  0
  2  3  2  0
  3  4  1  0
  4  5  2  0
  5  6  1  0
  6  7  2  0
  7  8  1  0
  8  9  2  0
  8 10  1  0
 10 11  1  0
 11 12  1  0
 12 13  2  0
 13 14  1  0
 14 15  2  0
 15 16  1  0
 16 17  1  0
 17 18  1  0
 17 19  2  0
 17 20  2  0
 16 21  2  0
  7 22  1  0
 22 23  2  0
  3 24  1  0
 24 25  2  0
 25 26  1  0
 26 27  1  0
 27 28  2  0
 28 29  1  0
 29 30  2  0
 30 31  1  0
 31 32  1  0
 31 33  2  0
 31 34  2  0
 30 35  1  0
 35 36  2  0
 26 37  2  0
 37 38  1  0
 37  2  1  0
 23  4  1  0
 36 27  1  0
 21 12  1  0
  1 39  1  0
  1 40  1  0
  1 41  1  0
  5 42  1  0
  6 43  1  0
 11 44  1  0
 11 45  1  0
 13 46  1  0
 14 47  1  0
 15 48  1  0
 18 49  1  0
 18 50  1  0
 18 51  1  0
 21 52  1  0
 22 53  1  0
 23 54  1  0
 24 55  1  0
 25 56  1  0
 28 57  1  0
 29 58  1  0
 32 59  1  0
 32 60  1  0
 32 61  1  0
 35 62  1  0
 36 63  1  0
 38 64  1  0
 38 65  1  0
 38 66  1  0
M  CHG  1  10  -1
M  END
>  <UniqueID>  (34) 
33

>  <SMILES>  (34) 
Cc1c(-c2ccc(C(=O)[N-]Cc3cccc(S(C)(=O)=O)c3)cc2)ccc(-c2ccc(S(C)(=O)=O)cc2)c1C

>  <Energy>  (34) 
83.63308736315932

>  <Genealogy>  (34) 
Cc1c(-c2ccc(C(=O)[N-]Cc3cccc(S(C)(=O)=O)c3)cc2)ccc(-c2ccc(S(C)(=O)=O)cc2)c1C (protonated)
Cc1c(-c2ccc(C(=O)[N-]Cc3cccc(S(C)(=O)=O)c3)cc2)ccc(-c2ccc(S(C)(=O)=O)cc2)c1C (3D coordinates assigned)
Cc1c(-c2ccc(C(=O)[N-]Cc3cccc(S(C)(=O)=O)c3)cc2)ccc(-c2ccc(S(C)(=O)=O)cc2)c1C (optimized conformer: 83.63308736315932 kcal/mol)

>  <smiles>  (34) 
Cc1c(-c2ccc(C(=O)NCc3cccc(S(C)(=O)=O)c3)cc2)ccc(-c2ccc(S(C)(=O)=O)cc2)c1C

>  <score_type>  (34) 
oracle

>  <origin>  (34) 
adgpu

>  <m_score__min__energy>  (34) 
-10.98

>  <m_primary>  (34) 
energy

$$$$
34:0
     RDKit          3D

 59 62  0  0  0  0  0  0  0  0999 V2000
   -9.1140   18.1830  -31.5540 C   0  0  0  0  0  0  0  0  0  0  0  0
   -9.0730   19.2160  -32.5280 O   0  0  0  0  0  0  0  0  0  0  0  0
   -8.3580   20.4120  -32.3830 C   0  0  0  0  0  0  0  0  0  0  0  0
   -8.9790   21.6180  -32.0050 C   0  0  0  0  0  0  0  0  0  0  0  0
   -8.2300   22.7880  -31.8800 C   0  0  0  0  0  0  0  0  0  0  0  0
   -6.8560   22.7720  -32.1240 C   0  0  0  0  0  0  0  0  0  0  0  0
   -6.2300   21.5800  -32.5010 C   0  0  0  0  0  0  0  0  0  0  0  0
   -6.9750   20.4030  -32.6280 C   0  0  0  0  0  0  0  0  0  0  0  0
   -6.3160   19.1900  -33.0010 N   0  0  0  0  0  0  0  0  0  0  0  0
   -5.9710   18.2130  -31.9670 C   0  0  0  0  0  0  0  0  0  0  0  0
   -5.1420   17.0720  -32.5570 C   0  0  0  0  0  0  0  0  0  0  0  0
   -4.1160   17.6370  -33.4570 N   0  0  0  0  0  0  0  0  0  0  0  0
   -3.1140   16.6110  -33.8210 C   0  0  0  0  0  0  0  0  0  0  0  0
   -2.1890   17.1260  -34.9390 C   0  0  0  0  0  0  0  0  0  0  0  0
   -1.0530   18.0100  -34.4010 C   0  0  0  0  0  0  0  0  0  0  0  0
   -1.5310   19.1350  -33.5840 N   0  0  0  0  0  0  0  0  0  0  0  0
   -1.1330   19.0070  -32.1690 C   0  0  0  0  0  0  0  0  0  0  0  0
   -1.3440   20.3130  -31.4420 C   0  0  0  0  0  0  0  0  0  0  0  0
   -0.4160   20.7200  -30.4780 C   0  0  0  0  0  0  0  0  0  0  0  0
   -0.6150   21.8180  -29.7630 O   0  0  0  0  0  0  0  0  0  0  0  0
   -1.6910   22.5850  -29.9100 C   0  0  0  0  0  0  0  0  0  0  0  0
   -1.8390   23.7250  -29.1130 C   0  0  0  0  0  0  0  0  0  0  0  0
   -2.9670   24.5360  -29.2500 C   0  0  0  0  0  0  0  0  0  0  0  0
   -3.9580   24.2090  -30.1830 C   0  0  0  0  0  0  0  0  0  0  0  0
   -5.3810   25.2180  -30.3290 Cl  0  0  0  0  0  0  0  0  0  0  0  0
   -3.8230   23.0690  -30.9840 C   0  0  0  0  0  0  0  0  0  0  0  0
   -2.6860   22.2490  -30.8560 C   0  0  0  0  0  0  0  0  0  0  0  0
   -2.5080   21.0850  -31.6220 C   0  0  0  0  0  0  0  0  0  0  0  0
   -3.3820   20.7320  -32.4600 O   0  0  0  0  0  0  0  0  0  0  0  0
   -4.7230   18.2630  -34.6640 C   0  0  0  0  0  0  0  0  0  0  0  0
   -6.1250   18.8600  -34.4210 C   0  0  0  0  0  0  0  0  0  0  0  0
   -9.0964   18.6269  -30.5477 H   0  0  0  0  0  0  0  0  0  0  0  0
  -10.0361   17.5966  -31.6800 H   0  0  0  0  0  0  0  0  0  0  0  0
   -8.2412   17.5254  -31.6800 H   0  0  0  0  0  0  0  0  0  0  0  0
  -10.0609   21.6375  -31.8072 H   0  0  0  0  0  0  0  0  0  0  0  0
   -8.7240   23.7265  -31.5881 H   0  0  0  0  0  0  0  0  0  0  0  0
   -6.2669   23.6951  -32.0200 H   0  0  0  0  0  0  0  0  0  0  0  0
   -5.1479   21.5678  -32.6984 H   0  0  0  0  0  0  0  0  0  0  0  0
   -5.3888   18.7121  -31.1784 H   0  0  0  0  0  0  0  0  0  0  0  0
   -6.8997   17.7965  -31.5499 H   0  0  0  0  0  0  0  0  0  0  0  0
   -4.6530   16.5136  -31.7452 H   0  0  0  0  0  0  0  0  0  0  0  0
   -5.7963   16.3911  -33.1212 H   0  0  0  0  0  0  0  0  0  0  0  0
   -2.5088   16.3671  -32.9354 H   0  0  0  0  0  0  0  0  0  0  0  0
   -3.6403   15.7152  -34.1822 H   0  0  0  0  0  0  0  0  0  0  0  0
   -1.7483   16.2622  -35.4584 H   0  0  0  0  0  0  0  0  0  0  0  0
   -2.7968   17.7398  -35.6200 H   0  0  0  0  0  0  0  0  0  0  0  0
   -0.3882   17.3877  -33.7840 H   0  0  0  0  0  0  0  0  0  0  0  0
   -0.5312   18.4363  -35.2705 H   0  0  0  0  0  0  0  0  0  0  0  0
   -2.5780   19.1130  -33.6410 H   0  0  0  0  0  0  0  0  0  0  0  0
   -1.7403   18.2241  -31.6912 H   0  0  0  0  0  0  0  0  0  0  0  0
   -0.0668   18.7406  -32.1213 H   0  0  0  0  0  0  0  0  0  0  0  0
    0.4912   20.1207  -30.3110 H   0  0  0  0  0  0  0  0  0  0  0  0
   -1.0642   23.9832  -28.3761 H   0  0  0  0  0  0  0  0  0  0  0  0
   -3.0773   25.4335  -28.6237 H   0  0  0  0  0  0  0  0  0  0  0  0
   -4.6056   22.8139  -31.7137 H   0  0  0  0  0  0  0  0  0  0  0  0
   -4.0581   19.0692  -35.0074 H   0  0  0  0  0  0  0  0  0  0  0  0
   -4.8411   17.4652  -35.4121 H   0  0  0  0  0  0  0  0  0  0  0  0
   -6.2358   19.7750  -35.0214 H   0  0  0  0  0  0  0  0  0  0  0  0
   -6.8796   18.1149  -34.7132 H   0  0  0  0  0  0  0  0  0  0  0  0
  1  2  1  0
  2  3  1  0
  3  4  2  0
  4  5  1  0
  5  6  2  0
  6  7  1  0
  7  8  2  0
  8  9  1  0
  9 10  1  0
 10 11  1  0
 11 12  1  0
 12 13  1  0
 13 14  1  0
 14 15  1  0
 15 16  1  0
 16 17  1  0
 17 18  1  0
 18 19  2  0
 19 20  1  0
 20 21  1  0
 21 22  2  0
 22 23  1  0
 23 24  2  0
 24 25  1  0
 24 26  1  0
 26 27  2  0
 27 28  1  0
 28 29  2  0
 12 30  1  0
 30 31  1  0
  8  3  1  0
 31  9  1  0
 28 18  1  0
 27 21  1  0
  1 32  1  0
  1 33  1  0
  1 34  1  0
  4 35  1  0
  5 36  1  0
  6 37  1  0
  7 38  1  0
 10 39  1  0
 10 40  1  0
 11 41  1  0
 11 42  1  0
 13 43  1  0
 13 44  1  0
 14 45  1  0
 14 46  1  0
 15 47  1  0
 15 48  1  0
 16 49  1  0
 17 50  1  0
 17 51  1  0
 19 52  1  0
 22 53  1  0
 23 54  1  0
 26 55  1  0
 30 56  1  0
 30 57  1  0
 31 58  1  0
 31 59  1  0
M  END
>  <UniqueID>  (35) 
34

>  <SMILES>  (35) 
COc1ccccc1N1CCN(CCCNCc2coc3ccc(Cl)cc3c2=O)CC1

>  <Energy>  (35) 
77.41299686341496

>  <Genealogy>  (35) 
COc1ccccc1N1CCN(CCCNCc2coc3ccc(Cl)cc3c2=O)CC1 (3D coordinates assigned)
COc1ccccc1N1CCN(CCCNCc2coc3ccc(Cl)cc3c2=O)CC1 (nonaromatic ring conformer: 77.41299686341496 kcal/mol)

>  <smiles>  (35) 
COc1ccccc1N1CCN(CCCNCc2coc3ccc(Cl)cc3c2=O)CC1

>  <score_type>  (35) 
oracle

>  <origin>  (35) 
adgpu

>  <m_score__min__energy>  (35) 
-8.9199999999999999

>  <m_primary>  (35) 
energy

$$$$
35:0
     RDKit          3D

 56 59  0  0  0  0  0  0  0  0999 V2000
   -3.9170   16.7120  -35.4090 C   0  0  0  0  0  0  0  0  0  0  0  0
   -4.9750   17.4810  -34.7430 N   0  0  0  0  0  0  0  0  0  0  0  0
   -4.4280   18.7570  -34.2250 C   0  0  0  0  0  0  0  0  0  0  0  0
   -5.4590   19.5100  -33.3580 C   0  0  0  0  0  0  0  0  0  0  0  0
   -6.7780   18.8600  -33.4550 N   0  0  0  0  0  0  0  0  0  0  0  0
   -7.9730   19.7680  -32.5660 S   0  0  0  0  0  0  0  0  0  0  0  0
   -8.5120   18.9210  -31.4450 O   0  0  0  0  0  0  0  0  0  0  0  0
   -9.1200   20.1220  -33.4770 O   0  0  0  0  0  0  0  0  0  0  0  0
   -7.2880   21.2430  -31.8940 C   0  0  0  0  0  0  0  0  0  0  0  0
   -6.2630   21.1750  -30.9410 C   0  0  0  0  0  0  0  0  0  0  0  0
   -5.7030   22.3490  -30.4270 C   0  0  0  0  0  0  0  0  0  0  0  0
   -6.1490   23.5990  -30.8760 C   0  0  0  0  0  0  0  0  0  0  0  0
   -5.3160   25.0660  -30.3530 S   0  0  0  0  0  0  0  0  0  0  0  0
   -5.7370   26.2230  -31.2160 O   0  0  0  0  0  0  0  0  0  0  0  0
   -5.6900   25.3450  -28.9210 O   0  0  0  0  0  0  0  0  0  0  0  0
   -3.5860   24.9070  -30.4580 N   0  0  0  0  0  0  0  0  0  0  0  0
   -2.7530   24.1110  -29.6030 C   0  0  0  0  0  0  0  0  0  0  0  0
   -3.0440   22.7650  -29.3150 C   0  0  0  0  0  0  0  0  0  0  0  0
   -2.2350   22.0320  -28.4300 C   0  0  0  0  0  0  0  0  0  0  0  0
   -1.0870   22.6340  -27.8790 C   0  0  0  0  0  0  0  0  0  0  0  0
   -0.7840   23.9710  -28.1910 C   0  0  0  0  0  0  0  0  0  0  0  0
   -1.6100   24.7010  -29.0500 C   0  0  0  0  0  0  0  0  0  0  0  0
   -1.3000   26.0260  -29.3430 O   0  0  0  0  0  0  0  0  0  0  0  0
   -0.1870   21.8440  -26.9650 C   0  0  0  0  0  0  0  0  0  0  0  0
   -0.1520   20.3900  -27.4310 C   0  0  0  0  0  0  0  0  0  0  0  0
   -1.5520   19.7720  -27.3600 C   0  0  0  0  0  0  0  0  0  0  0  0
   -2.6620   20.6350  -28.0220 C   0  0  0  0  0  0  0  0  0  0  0  0
   -7.2000   23.6660  -31.8040 C   0  0  0  0  0  0  0  0  0  0  0  0
   -7.7640   22.4940  -32.3110 C   0  0  0  0  0  0  0  0  0  0  0  0
   -6.6980   17.4800  -32.9460 C   0  0  0  0  0  0  0  0  0  0  0  0
   -5.5650   16.6940  -33.6420 C   0  0  0  0  0  0  0  0  0  0  0  0
   -3.2720   16.2432  -34.6512 H   0  0  0  0  0  0  0  0  0  0  0  0
   -4.3711   15.9317  -36.0375 H   0  0  0  0  0  0  0  0  0  0  0  0
   -3.3150   17.3847  -36.0375 H   0  0  0  0  0  0  0  0  0  0  0  0
   -3.5384   18.5419  -33.6148 H   0  0  0  0  0  0  0  0  0  0  0  0
   -4.1720   19.3942  -35.0843 H   0  0  0  0  0  0  0  0  0  0  0  0
   -5.1265   19.5024  -32.3095 H   0  0  0  0  0  0  0  0  0  0  0  0
   -5.5423   20.5459  -33.7184 H   0  0  0  0  0  0  0  0  0  0  0  0
   -5.8980   20.1962  -30.5964 H   0  0  0  0  0  0  0  0  0  0  0  0
   -4.9095   22.2908  -29.6674 H   0  0  0  0  0  0  0  0  0  0  0  0
   -3.9125   22.2821  -29.7867 H   0  0  0  0  0  0  0  0  0  0  0  0
    0.1084   24.4452  -27.7565 H   0  0  0  0  0  0  0  0  0  0  0  0
    0.8289   22.2647  -26.9948 H   0  0  0  0  0  0  0  0  0  0  0  0
   -0.5699   21.8935  -25.9350 H   0  0  0  0  0  0  0  0  0  0  0  0
    0.2091   20.3509  -28.4693 H   0  0  0  0  0  0  0  0  0  0  0  0
    0.5226   19.8212  -26.7742 H   0  0  0  0  0  0  0  0  0  0  0  0
   -1.5248   18.7963  -27.8672 H   0  0  0  0  0  0  0  0  0  0  0  0
   -1.8083   19.6901  -26.2934 H   0  0  0  0  0  0  0  0  0  0  0  0
   -3.0106   20.1088  -28.9228 H   0  0  0  0  0  0  0  0  0  0  0  0
   -3.4440   20.7648  -27.2594 H   0  0  0  0  0  0  0  0  0  0  0  0
   -7.5802   24.6445  -32.1326 H   0  0  0  0  0  0  0  0  0  0  0  0
   -8.5852   22.5523  -33.0406 H   0  0  0  0  0  0  0  0  0  0  0  0
   -6.5037   17.5073  -31.8636 H   0  0  0  0  0  0  0  0  0  0  0  0
   -7.6525   16.9751  -33.1555 H   0  0  0  0  0  0  0  0  0  0  0  0
   -4.7818   16.4630  -32.9049 H   0  0  0  0  0  0  0  0  0  0  0  0
   -5.9860   15.7675  -34.0595 H   0  0  0  0  0  0  0  0  0  0  0  0
  1  2  1  0
  2  3  1  0
  3  4  1  0
  4  5  1  0
  5  6  1  0
  6  7  2  0
  6  8  2  0
  6  9  1  0
  9 10  2  0
 10 11  1  0
 11 12  2  0
 12 13  1  0
 13 14  2  0
 13 15  2  0
 13 16  1  0
 16 17  1  0
 17 18  2  0
 18 19  1  0
 19 20  2  0
 20 21  1  0
 21 22  2  0
 22 23  1  0
 20 24  1  0
 24 25  1  0
 25 26  1  0
 26 27  1  0
 12 28  1  0
 28 29  2  0
  5 30  1  0
 30 31  1  0
 31  2  1  0
 29  9  1  0
 22 17  1  0
 27 19  1  0
  1 32  1  0
  1 33  1  0
  1 34  1  0
  3 35  1  0
  3 36  1  0
  4 37  1  0
  4 38  1  0
 10 39  1  0
 11 40  1  0
 18 41  1  0
 21 42  1  0
 24 43  1  0
 24 44  1  0
 25 45  1  0
 25 46  1  0
 26 47  1  0
 26 48  1  0
 27 49  1  0
 27 50  1  0
 28 51  1  0
 29 52  1  0
 30 53  1  0
 30 54  1  0
 31 55  1  0
 31 56  1  0
M  CHG  2  16  -1  23  -1
M  END
>  <UniqueID>  (36) 
35

>  <SMILES>  (36) 
CN1CCN(S(=O)(=O)c2ccc(S(=O)(=O)[N-]c3cc4c(cc3[O-])CCCC4)cc2)CC1

>  <Energy>  (36) 
73.60240031836986

>  <Genealogy>  (36) 
CN1CCN(S(=O)(=O)c2ccc(S(=O)(=O)[N-]c3cc4c(cc3[O-])CCCC4)cc2)CC1 (protonated)
CN1CCN(S(=O)(=O)c2ccc(S(=O)(=O)[N-]c3cc4c(cc3[O-])CCCC4)cc2)CC1 (3D coordinates assigned)
CN1CCN(S(=O)(=O)c2ccc(S(=O)(=O)[N-]c3cc4c(cc3[O-])CCCC4)cc2)CC1 (nonaromatic ring conformer: 73.60240031836986 kcal/mol)

>  <smiles>  (36) 
CN1CCN(S(=O)(=O)c2ccc(S(=O)(=O)Nc3cc4c(cc3O)CCCC4)cc2)CC1

>  <score_type>  (36) 
oracle

>  <origin>  (36) 
adgpu

>  <m_score__min__energy>  (36) 
-16.23

>  <m_primary>  (36) 
energy

$$$$
36:0
     RDKit          3D

 52 55  0  0  0  0  0  0  0  0999 V2000
   -7.8860   20.9930  -32.6820 C   0  0  0  0  0  0  0  0  0  0  0  0
   -8.6300   22.1620  -32.1800 N   0  0  0  0  0  0  0  0  0  0  0  0
   -9.0720   21.9950  -30.7810 C   0  0  0  0  0  0  0  0  0  0  0  0
   -7.8930   21.9140  -29.7990 C   0  0  0  0  0  0  0  0  0  0  0  0
   -6.8280   22.9360  -30.0940 C   0  0  0  0  0  0  0  0  0  0  0  0
   -5.8190   23.1620  -29.1450 C   0  0  0  0  0  0  0  0  0  0  0  0
   -4.7850   24.0830  -29.3960 C   0  0  0  0  0  0  0  0  0  0  0  0
   -3.7640   24.3430  -28.4160 N   0  0  0  0  0  0  0  0  0  0  0  0
   -2.2530   23.4880  -28.3620 S   0  0  0  0  0  0  0  0  0  0  0  0
   -1.1240   24.4800  -28.3930 O   0  0  0  0  0  0  0  0  0  0  0  0
   -2.1740   22.6960  -27.0880 O   0  0  0  0  0  0  0  0  0  0  0  0
   -2.1500   22.3760  -29.7250 C   0  0  0  0  0  0  0  0  0  0  0  0
   -3.1940   21.4830  -30.0000 C   0  0  0  0  0  0  0  0  0  0  0  0
   -3.0840   20.5810  -31.0620 C   0  0  0  0  0  0  0  0  0  0  0  0
   -1.9300   20.5630  -31.8570 C   0  0  0  0  0  0  0  0  0  0  0  0
   -1.8120   19.4290  -33.1950 S   0  0  0  0  0  0  0  0  0  0  0  0
   -0.8760   18.3120  -32.8240 O   0  0  0  0  0  0  0  0  0  0  0  0
   -1.2650   20.1120  -34.4190 O   0  0  0  0  0  0  0  0  0  0  0  0
   -3.4130   18.7930  -33.5510 C   0  0  0  0  0  0  0  0  0  0  0  0
   -4.4880   19.6710  -33.7490 C   0  0  0  0  0  0  0  0  0  0  0  0
   -5.7670   19.1690  -34.0110 C   0  0  0  0  0  0  0  0  0  0  0  0
   -5.9780   17.7880  -34.0710 C   0  0  0  0  0  0  0  0  0  0  0  0
   -4.9110   16.9080  -33.8660 C   0  0  0  0  0  0  0  0  0  0  0  0
   -3.6320   17.4070  -33.6030 C   0  0  0  0  0  0  0  0  0  0  0  0
   -0.8900   21.4640  -31.5870 C   0  0  0  0  0  0  0  0  0  0  0  0
   -1.0000   22.3650  -30.5250 C   0  0  0  0  0  0  0  0  0  0  0  0
   -4.7550   24.7520  -30.6320 C   0  0  0  0  0  0  0  0  0  0  0  0
   -3.7480   25.6680  -30.9160 O   0  0  0  0  0  0  0  0  0  0  0  0
   -5.7460   24.5130  -31.5880 C   0  0  0  0  0  0  0  0  0  0  0  0
   -6.7770   23.5990  -31.3350 C   0  0  0  0  0  0  0  0  0  0  0  0
   -7.8750   23.4170  -32.3590 C   0  0  0  0  0  0  0  0  0  0  0  0
   -7.5112   20.4042  -31.8318 H   0  0  0  0  0  0  0  0  0  0  0  0
   -8.5534   20.3689  -33.2944 H   0  0  0  0  0  0  0  0  0  0  0  0
   -7.0380   21.3334  -33.2944 H   0  0  0  0  0  0  0  0  0  0  0  0
   -9.7029   22.8529  -30.5052 H   0  0  0  0  0  0  0  0  0  0  0  0
   -9.6278   21.0479  -30.7160 H   0  0  0  0  0  0  0  0  0  0  0  0
   -8.2705   22.0816  -28.7795 H   0  0  0  0  0  0  0  0  0  0  0  0
   -7.4388   20.9175  -29.9024 H   0  0  0  0  0  0  0  0  0  0  0  0
   -5.8366   22.6120  -28.1925 H   0  0  0  0  0  0  0  0  0  0  0  0
   -3.9650   24.9870  -27.6180 H   0  0  0  0  0  0  0  0  0  0  0  0
   -4.1019   21.4918  -29.3790 H   0  0  0  0  0  0  0  0  0  0  0  0
   -3.9066   19.8824  -31.2747 H   0  0  0  0  0  0  0  0  0  0  0  0
   -4.3251   20.7577  -33.6982 H   0  0  0  0  0  0  0  0  0  0  0  0
   -6.6072   19.8609  -34.1699 H   0  0  0  0  0  0  0  0  0  0  0  0
   -6.9836   17.3939  -34.2795 H   0  0  0  0  0  0  0  0  0  0  0  0
   -5.0782   15.8217  -33.9117 H   0  0  0  0  0  0  0  0  0  0  0  0
   -2.7954   16.7125  -33.4364 H   0  0  0  0  0  0  0  0  0  0  0  0
    0.0146   21.4614  -32.2129 H   0  0  0  0  0  0  0  0  0  0  0  0
   -0.1805   23.0685  -30.3162 H   0  0  0  0  0  0  0  0  0  0  0  0
   -5.7161   25.0479  -32.5487 H   0  0  0  0  0  0  0  0  0  0  0  0
   -8.5748   24.2616  -32.2760 H   0  0  0  0  0  0  0  0  0  0  0  0
   -7.3971   23.3744  -33.3488 H   0  0  0  0  0  0  0  0  0  0  0  0
  1  2  1  0
  2  3  1  0
  3  4  1  0
  4  5  1  0
  5  6  2  0
  6  7  1  0
  7  8  1  0
  8  9  1  0
  9 10  2  0
  9 11  2  0
  9 12  1  0
 12 13  2  0
 13 14  1  0
 14 15  2  0
 15 16  1  0
 16 17  2  0
 16 18  2  0
 16 19  1  0
 19 20  2  0
 20 21  1  0
 21 22  2  0
 22 23  1  0
 23 24  2  0
 15 25  1  0
 25 26  2  0
  7 27  2  0
 27 28  1  0
 27 29  1  0
 29 30  2  0
 30 31  1  0
 31  2  1  0
 30  5  1  0
 26 12  1  0
 24 19  1  0
  1 32  1  0
  1 33  1  0
  1 34  1  0
  3 35  1  0
  3 36  1  0
  4 37  1  0
  4 38  1  0
  6 39  1  0
  8 40  1  0
 13 41  1  0
 14 42  1  0
 20 43  1  0
 21 44  1  0
 22 45  1  0
 23 46  1  0
 24 47  1  0
 25 48  1  0
 26 49  1  0
 29 50  1  0
 31 51  1  0
 31 52  1  0
M  CHG  1  28  -1
M  END
>  <UniqueID>  (37) 
36

>  <SMILES>  (37) 
CN1CCc2cc(NS(=O)(=O)c3ccc(S(=O)(=O)c4ccccc4)cc3)c([O-])cc2C1

>  <Energy>  (37) 
65.79491637000012

>  <Genealogy>  (37) 
CN1CCc2cc(NS(=O)(=O)c3ccc(S(=O)(=O)c4ccccc4)cc3)c([O-])cc2C1 (protonated)
CN1CCc2cc(NS(=O)(=O)c3ccc(S(=O)(=O)c4ccccc4)cc3)c([O-])cc2C1 (3D coordinates assigned)
CN1CCc2cc(NS(=O)(=O)c3ccc(S(=O)(=O)c4ccccc4)cc3)c([O-])cc2C1 (nonaromatic ring conformer: 65.79491637000012 kcal/mol)

>  <smiles>  (37) 
CN1CCc2cc(NS(=O)(=O)c3ccc(S(=O)(=O)c4ccccc4)cc3)c(O)cc2C1

>  <score_type>  (37) 
oracle

>  <origin>  (37) 
adgpu

>  <m_score__min__energy>  (37) 
-14.31

>  <m_primary>  (37) 
energy

$$$$
37:0
     RDKit          3D

 33 35  0  0  0  0  0  0  0  0999 V2000
   -3.9420   25.6550  -30.7600 O   0  0  0  0  0  0  0  0  0  0  0  0
   -4.2760   24.2500  -30.3480 S   0  0  0  0  0  0  0  0  0  0  0  0
   -5.3880   24.2880  -29.3370 O   0  0  0  0  0  0  0  0  0  0  0  0
   -4.8030   23.3630  -31.7500 N   0  0  0  0  0  0  0  0  0  0  0  0
   -6.2110   23.6350  -32.0500 C   0  0  0  0  0  0  0  0  0  0  0  0
   -7.0180   22.3660  -32.0170 C   0  0  0  0  0  0  0  0  0  0  0  0
   -8.3990   22.4010  -31.6890 C   0  0  0  0  0  0  0  0  0  0  0  0
   -9.1560   21.2150  -31.6600 C   0  0  0  0  0  0  0  0  0  0  0  0
   -8.5060   20.0220  -31.9580 C   0  0  0  0  0  0  0  0  0  0  0  0
   -7.1860   19.9810  -32.2680 C   0  0  0  0  0  0  0  0  0  0  0  0
   -6.4000   21.1290  -32.3080 C   0  0  0  0  0  0  0  0  0  0  0  0
   -6.8120   18.6740  -32.5160 O   0  0  0  0  0  0  0  0  0  0  0  0
   -7.9700   17.8430  -32.3500 C   0  0  0  0  0  0  0  0  0  0  0  0
   -9.0270   18.7440  -31.9940 O   0  0  0  0  0  0  0  0  0  0  0  0
   -2.8330   23.5070  -29.6490 C   0  0  0  0  0  0  0  0  0  0  0  0
   -2.7590   22.1100  -29.5440 C   0  0  0  0  0  0  0  0  0  0  0  0
   -1.6270   21.5010  -28.9980 C   0  0  0  0  0  0  0  0  0  0  0  0
   -0.5520   22.2790  -28.5600 C   0  0  0  0  0  0  0  0  0  0  0  0
    0.5710   21.6570  -28.0160 O   0  0  0  0  0  0  0  0  0  0  0  0
   -0.6120   23.6730  -28.6740 C   0  0  0  0  0  0  0  0  0  0  0  0
   -1.7430   24.2890  -29.2220 C   0  0  0  0  0  0  0  0  0  0  0  0
   -1.7700   25.6740  -29.3420 O   0  0  0  0  0  0  0  0  0  0  0  0
   -6.6103   24.3361  -31.3023 H   0  0  0  0  0  0  0  0  0  0  0  0
   -6.2794   24.0707  -33.0577 H   0  0  0  0  0  0  0  0  0  0  0  0
   -8.8807   23.3621  -31.4559 H   0  0  0  0  0  0  0  0  0  0  0  0
  -10.2270   21.2310  -31.4098 H   0  0  0  0  0  0  0  0  0  0  0  0
   -5.3303   21.0750  -32.5585 H   0  0  0  0  0  0  0  0  0  0  0  0
   -8.2078   17.3198  -33.2879 H   0  0  0  0  0  0  0  0  0  0  0  0
   -7.8148   17.0667  -31.5863 H   0  0  0  0  0  0  0  0  0  0  0  0
   -3.5978   21.4904  -29.8939 H   0  0  0  0  0  0  0  0  0  0  0  0
   -1.5814   20.4053  -28.9124 H   0  0  0  0  0  0  0  0  0  0  0  0
    1.4010   22.1850  -27.7700 H   0  0  0  0  0  0  0  0  0  0  0  0
    0.2338   24.2871  -28.3312 H   0  0  0  0  0  0  0  0  0  0  0  0
  1  2  2  0
  2  3  2  0
  2  4  1  0
  4  5  1  0
  5  6  1  0
  6  7  2  0
  7  8  1  0
  8  9  2  0
  9 10  1  0
 10 11  2  0
 10 12  1  0
 12 13  1  0
 13 14  1  0
  2 15  1  0
 15 16  2  0
 16 17  1  0
 17 18  2  0
 18 19  1  0
 18 20  1  0
 20 21  2  0
 21 22  1  0
 11  6  1  0
 21 15  1  0
 14  9  1  0
  5 23  1  0
  5 24  1  0
  7 25  1  0
  8 26  1  0
 11 27  1  0
 13 28  1  0
 13 29  1  0
 16 30  1  0
 17 31  1  0
 19 32  1  0
 20 33  1  0
M  CHG  2   4  -1  22  -1
M  END
>  <UniqueID>  (38) 
37

>  <SMILES>  (38) 
O=S(=O)([N-]Cc1ccc2c(c1)OCO2)c1ccc(O)cc1[O-]

>  <Energy>  (38) 
62.71668203876179

>  <Genealogy>  (38) 
O=S(=O)([N-]Cc1ccc2c(c1)OCO2)c1ccc(O)cc1[O-] (protonated)
O=S(=O)([N-]Cc1ccc2c(c1)OCO2)c1ccc(O)cc1[O-] (3D coordinates assigned)
O=S(=O)([N-]Cc1ccc2c(c1)OCO2)c1ccc(O)cc1[O-] (nonaromatic ring conformer: 62.71668203876179 kcal/mol)

>  <smiles>  (38) 
O=S(=O)(NCc1ccc2c(c1)OCO2)c1ccc(O)cc1O

>  <score_type>  (38) 
oracle

>  <origin>  (38) 
adgpu

>  <m_score__min__energy>  (38) 
-11.210000000000001

>  <m_primary>  (38) 
energy

$$$$
38:0
     RDKit          3D

 64 68  0  0  0  0  0  0  0  0999 V2000
   -0.4890   30.8940  -37.9700 C   0  0  0  0  0  0  0  0  0  0  0  0
   -0.8730   30.0300  -36.9050 O   0  0  0  0  0  0  0  0  0  0  0  0
   -0.3330   28.7520  -36.6810 C   0  0  0  0  0  0  0  0  0  0  0  0
   -0.8750   27.6020  -37.2810 C   0  0  0  0  0  0  0  0  0  0  0  0
   -0.3160   26.3460  -37.0410 C   0  0  0  0  0  0  0  0  0  0  0  0
    0.8030   26.2060  -36.2030 C   0  0  0  0  0  0  0  0  0  0  0  0
    1.3820   24.8580  -35.9650 C   0  0  0  0  0  0  0  0  0  0  0  0
    2.7440   24.5560  -36.0590 C   0  0  0  0  0  0  0  0  0  0  0  0
    2.9360   22.9220  -35.7250 S   0  0  0  0  0  0  0  0  0  0  0  0
    1.2930   22.6510  -35.4730 C   0  0  0  0  0  0  0  0  0  0  0  0
    0.6700   21.3570  -35.1170 C   0  0  0  0  0  0  0  0  0  0  0  0
    0.5950   20.3270  -36.0690 C   0  0  0  0  0  0  0  0  0  0  0  0
    0.0060   19.1020  -35.7440 C   0  0  0  0  0  0  0  0  0  0  0  0
   -0.5260   18.8820  -34.4650 C   0  0  0  0  0  0  0  0  0  0  0  0
   -1.1350   17.5730  -34.1320 C   0  0  0  0  0  0  0  0  0  0  0  0
   -0.3830   16.5860  -33.9120 O   0  0  0  0  0  0  0  0  0  0  0  0
   -2.5650   17.4010  -34.0710 N   0  0  0  0  0  0  0  0  0  0  0  0
   -3.1440   16.0800  -34.3430 C   0  0  0  0  0  0  0  0  0  0  0  0
   -4.6570   16.1920  -34.5450 C   0  0  0  0  0  0  0  0  0  0  0  0
   -5.3080   16.8290  -33.3780 N   0  0  0  0  0  0  0  0  0  0  0  0
   -6.7540   17.0820  -33.5710 C   0  0  0  0  0  0  0  0  0  0  0  0
   -7.2350   18.3830  -32.9590 C   0  0  0  0  0  0  0  0  0  0  0  0
   -8.1140   18.3800  -31.8610 C   0  0  0  0  0  0  0  0  0  0  0  0
   -8.5500   19.5850  -31.3010 C   0  0  0  0  0  0  0  0  0  0  0  0
   -8.1260   20.8020  -31.8390 C   0  0  0  0  0  0  0  0  0  0  0  0
   -7.2710   20.8160  -32.9440 C   0  0  0  0  0  0  0  0  0  0  0  0
   -6.8330   19.6140  -33.5070 C   0  0  0  0  0  0  0  0  0  0  0  0
   -4.5660   17.9590  -32.7630 C   0  0  0  0  0  0  0  0  0  0  0  0
   -3.4470   18.5030  -33.6600 C   0  0  0  0  0  0  0  0  0  0  0  0
   -0.4440   19.9080  -33.5050 C   0  0  0  0  0  0  0  0  0  0  0  0
   -0.9610   19.7280  -32.2250 O   0  0  0  0  0  0  0  0  0  0  0  0
    0.1470   21.1330  -33.8320 C   0  0  0  0  0  0  0  0  0  0  0  0
    0.5920   23.7950  -35.6430 N   0  0  0  0  0  0  0  0  0  0  0  0
    1.3410   27.3570  -35.5970 C   0  0  0  0  0  0  0  0  0  0  0  0
    0.7800   28.6230  -35.8300 C   0  0  0  0  0  0  0  0  0  0  0  0
    1.3710   29.8410  -35.1760 C   0  0  0  0  0  0  0  0  0  0  0  0
   -0.0751   31.8252  -37.5557 H   0  0  0  0  0  0  0  0  0  0  0  0
    0.2731   30.3973  -38.5885 H   0  0  0  0  0  0  0  0  0  0  0  0
   -1.3684   31.1269  -38.5885 H   0  0  0  0  0  0  0  0  0  0  0  0
   -1.7471   27.6929  -37.9453 H   0  0  0  0  0  0  0  0  0  0  0  0
   -0.7565   25.4555  -37.5133 H   0  0  0  0  0  0  0  0  0  0  0  0
    3.5480   25.2643  -36.3079 H   0  0  0  0  0  0  0  0  0  0  0  0
    1.0030   20.4858  -37.0781 H   0  0  0  0  0  0  0  0  0  0  0  0
   -0.0408   18.3028  -36.4984 H   0  0  0  0  0  0  0  0  0  0  0  0
   -2.6866   15.6642  -35.2529 H   0  0  0  0  0  0  0  0  0  0  0  0
   -2.9464   15.4203  -33.4853 H   0  0  0  0  0  0  0  0  0  0  0  0
   -4.8553   16.7980  -35.4413 H   0  0  0  0  0  0  0  0  0  0  0  0
   -5.0683   15.1786  -34.6627 H   0  0  0  0  0  0  0  0  0  0  0  0
   -6.9600   17.1099  -34.6512 H   0  0  0  0  0  0  0  0  0  0  0  0
   -7.2921   16.2698  -33.0604 H   0  0  0  0  0  0  0  0  0  0  0  0
   -8.4605   17.4245  -31.4404 H   0  0  0  0  0  0  0  0  0  0  0  0
   -9.2282   19.5742  -30.4351 H   0  0  0  0  0  0  0  0  0  0  0  0
   -8.4649   21.7488  -31.3932 H   0  0  0  0  0  0  0  0  0  0  0  0
   -6.9420   21.7746  -33.3716 H   0  0  0  0  0  0  0  0  0  0  0  0
   -6.1696   19.6311  -34.3843 H   0  0  0  0  0  0  0  0  0  0  0  0
   -5.2763   18.7732  -32.5566 H   0  0  0  0  0  0  0  0  0  0  0  0
   -4.0949   17.5806  -31.8438 H   0  0  0  0  0  0  0  0  0  0  0  0
   -3.8881   18.9712  -34.5523 H   0  0  0  0  0  0  0  0  0  0  0  0
   -2.8628   19.2502  -33.1029 H   0  0  0  0  0  0  0  0  0  0  0  0
    0.2030   21.9294  -33.0753 H   0  0  0  0  0  0  0  0  0  0  0  0
    2.2124   27.2635  -34.9322 H   0  0  0  0  0  0  0  0  0  0  0  0
    1.3182   29.7322  -34.0827 H   0  0  0  0  0  0  0  0  0  0  0  0
    2.4216   29.9489  -35.4834 H   0  0  0  0  0  0  0  0  0  0  0  0
    0.8056   30.7331  -35.4834 H   0  0  0  0  0  0  0  0  0  0  0  0
  1  2  1  0
  2  3  1  0
  3  4  2  0
  4  5  1  0
  5  6  2  0
  6  7  1  0
  7  8  2  0
  8  9  1  0
  9 10  1  0
 10 11  1  0
 11 12  2  0
 12 13  1  0
 13 14  2  0
 14 15  1  0
 15 16  2  0
 15 17  1  0
 17 18  1  0
 18 19  1  0
 19 20  1  0
 20 21  1  0
 21 22  1  0
 22 23  2  0
 23 24  1  0
 24 25  2  0
 25 26  1  0
 26 27  2  0
 20 28  1  0
 28 29  1  0
 14 30  1  0
 30 31  1  0
 30 32  2  0
 10 33  2  0
  6 34  1  0
 34 35  2  0
 35 36  1  0
 35  3  1  0
 33  7  1  0
 32 11  1  0
 29 17  1  0
 27 22  1  0
  1 37  1  0
  1 38  1  0
  1 39  1  0
  4 40  1  0
  5 41  1  0
  8 42  1  0
 12 43  1  0
 13 44  1  0
 18 45  1  0
 18 46  1  0
 19 47  1  0
 19 48  1  0
 21 49  1  0
 21 50  1  0
 23 51  1  0
 24 52  1  0
 25 53  1  0
 26 54  1  0
 27 55  1  0
 28 56  1  0
 28 57  1  0
 29 58  1  0
 29 59  1  0
 32 60  1  0
 34 61  1  0
 36 62  1  0
 36 63  1  0
 36 64  1  0
M  CHG  1  31  -1
M  END
>  <UniqueID>  (39) 
38

>  <SMILES>  (39) 
COc1ccc(-c2csc(-c3ccc(C(=O)N4CCN(Cc5ccccc5)CC4)c([O-])c3)n2)cc1C

>  <Energy>  (39) 
116.60299337331416

>  <Genealogy>  (39) 
COc1ccc(-c2csc(-c3ccc(C(=O)N4CCN(Cc5ccccc5)CC4)c([O-])c3)n2)cc1C (protonated)
COc1ccc(-c2csc(-c3ccc(C(=O)N4CCN(Cc5ccccc5)CC4)c([O-])c3)n2)cc1C (3D coordinates assigned)
COc1ccc(-c2csc(-c3ccc(C(=O)N4CCN(Cc5ccccc5)CC4)c([O-])c3)n2)cc1C (nonaromatic ring conformer: 116.60299337331416 kcal/mol)

>  <smiles>  (39) 
COc1ccc(-c2csc(-c3ccc(C(=O)N4CCN(Cc5ccccc5)CC4)c(O)c3)n2)cc1C

>  <score_type>  (39) 
oracle

>  <origin>  (39) 
adgpu

>  <m_score__min__energy>  (39) 
-10.9

>  <m_primary>  (39) 
energy

$$$$
39:0
     RDKit          3D

 49 51  0  0  0  0  0  0  0  0999 V2000
   -0.6400   23.5770  -26.1670 C   0  0  0  0  0  0  0  0  0  0  0  0
   -1.5700   24.7650  -26.4330 C   0  0  1  0  0  0  0  0  0  0  0  0
   -1.6450   25.7190  -25.2120 C   0  0  0  0  0  0  0  0  0  0  0  0
   -1.1100   27.0870  -25.6620 C   0  0  0  0  0  0  0  0  0  0  0  0
   -0.8450   26.8980  -27.1000 C   0  0  0  0  0  0  0  0  0  0  0  0
   -0.4660   27.8240  -27.8660 O   0  0  0  0  0  0  0  0  0  0  0  0
   -1.0720   25.5710  -27.5400 N   0  0  0  0  0  0  0  0  0  0  0  0
   -1.0550   25.1470  -28.9420 C   0  0  0  0  0  0  0  0  0  0  0  0
   -2.2820   24.3460  -29.2600 C   0  0  0  0  0  0  0  0  0  0  0  0
   -2.2860   23.1080  -29.0290 O   0  0  0  0  0  0  0  0  0  0  0  0
   -3.4600   24.9980  -29.7630 N   0  0  0  0  0  0  0  0  0  0  0  0
   -4.6390   24.3030  -30.2030 C   0  0  0  0  0  0  0  0  0  0  0  0
   -5.8700   24.5800  -29.5900 C   0  0  0  0  0  0  0  0  0  0  0  0
   -7.0350   23.9330  -30.0130 C   0  0  0  0  0  0  0  0  0  0  0  0
   -6.9870   23.0080  -31.0640 C   0  0  0  0  0  0  0  0  0  0  0  0
   -8.4540   22.1760  -31.5870 S   0  0  0  0  0  0  0  0  0  0  0  0
   -9.3010   23.1250  -32.3900 O   0  0  0  0  0  0  0  0  0  0  0  0
   -9.2450   21.7590  -30.3770 O   0  0  0  0  0  0  0  0  0  0  0  0
   -8.0880   20.7640  -32.5500 N   0  0  0  0  0  0  0  0  0  0  0  0
   -9.2590   19.8700  -32.6770 C   0  0  0  0  0  0  0  0  0  0  0  0
   -9.1280   18.6180  -31.7890 C   0  0  0  0  0  0  0  0  0  0  0  0
   -7.9700   17.8450  -32.0740 O   0  0  0  0  0  0  0  0  0  0  0  0
   -6.8540   18.6170  -32.4990 C   0  0  0  0  0  0  0  0  0  0  0  0
   -6.8900   20.0790  -32.0280 C   0  0  0  0  0  0  0  0  0  0  0  0
   -5.7650   22.7530  -31.7020 C   0  0  0  0  0  0  0  0  0  0  0  0
   -4.5990   23.3970  -31.2780 C   0  0  0  0  0  0  0  0  0  0  0  0
   -0.5284   23.4345  -25.0820 H   0  0  0  0  0  0  0  0  0  0  0  0
   -1.0691   22.6681  -26.6140 H   0  0  0  0  0  0  0  0  0  0  0  0
    0.3453   23.7754  -26.6140 H   0  0  0  0  0  0  0  0  0  0  0  0
   -2.5578   24.3342  -26.6535 H   0  0  0  0  0  0  0  0  0  0  0  0
   -2.6874   25.8158  -24.8744 H   0  0  0  0  0  0  0  0  0  0  0  0
   -1.0487   25.3256  -24.3755 H   0  0  0  0  0  0  0  0  0  0  0  0
   -1.8606   27.8749  -25.5009 H   0  0  0  0  0  0  0  0  0  0  0  0
   -0.2187   27.4038  -25.1005 H   0  0  0  0  0  0  0  0  0  0  0  0
   -1.0244   26.0359  -29.5893 H   0  0  0  0  0  0  0  0  0  0  0  0
   -0.1661   24.5227  -29.1156 H   0  0  0  0  0  0  0  0  0  0  0  0
   -3.4930   26.0420  -29.7420 H   0  0  0  0  0  0  0  0  0  0  0  0
   -5.9191   25.3118  -28.7702 H   0  0  0  0  0  0  0  0  0  0  0  0
   -7.9931   24.1512  -29.5186 H   0  0  0  0  0  0  0  0  0  0  0  0
  -10.1621   20.4233  -32.3799 H   0  0  0  0  0  0  0  0  0  0  0  0
   -9.3218   19.5389  -33.7241 H   0  0  0  0  0  0  0  0  0  0  0  0
   -9.0836   18.9387  -30.7377 H   0  0  0  0  0  0  0  0  0  0  0  0
  -10.0022   17.9819  -31.9919 H   0  0  0  0  0  0  0  0  0  0  0  0
   -5.9396   18.1491  -32.1053 H   0  0  0  0  0  0  0  0  0  0  0  0
   -6.8803   18.6360  -33.5985 H   0  0  0  0  0  0  0  0  0  0  0  0
   -6.9097   20.1041  -30.9285 H   0  0  0  0  0  0  0  0  0  0  0  0
   -5.9945   20.5948  -32.4047 H   0  0  0  0  0  0  0  0  0  0  0  0
   -5.7235   22.0424  -32.5407 H   0  0  0  0  0  0  0  0  0  0  0  0
   -3.6455   23.1942  -31.7876 H   0  0  0  0  0  0  0  0  0  0  0  0
  1  2  1  0
  2  3  1  0
  3  4  1  0
  4  5  1  0
  5  6  2  0
  5  7  1  0
  7  8  1  0
  8  9  1  0
  9 10  2  0
  9 11  1  0
 11 12  1  0
 12 13  2  0
 13 14  1  0
 14 15  2  0
 15 16  1  0
 16 17  2  0
 16 18  2  0
 16 19  1  0
 19 20  1  0
 20 21  1  0
 21 22  1  0
 22 23  1  0
 23 24  1  0
 15 25  1  0
 25 26  2  0
  7  2  1  0
 26 12  1  0
 24 19  1  0
  1 27  1  0
  1 28  1  0
  1 29  1  0
  2 30  1  6
  3 31  1  0
  3 32  1  0
  4 33  1  0
  4 34  1  0
  8 35  1  0
  8 36  1  0
 11 37  1  0
 13 38  1  0
 14 39  1  0
 20 40  1  0
 20 41  1  0
 21 42  1  0
 21 43  1  0
 23 44  1  0
 23 45  1  0
 24 46  1  0
 24 47  1  0
 25 48  1  0
 26 49  1  0
M  END
>  <UniqueID>  (40) 
39

>  <SMILES>  (40) 
C[C@H]1CCC(=O)N1CC(=O)Nc1ccc(S(=O)(=O)N2CCOCC2)cc1

>  <Energy>  (40) 
65.83309717057692

>  <Genealogy>  (40) 
C[C@H]1CCC(=O)N1CC(=O)Nc1ccc(S(=O)(=O)N2CCOCC2)cc1 (chirality)
C[C@H]1CCC(=O)N1CC(=O)Nc1ccc(S(=O)(=O)N2CCOCC2)cc1 (3D coordinates assigned)
C[C@H]1CCC(=O)N1CC(=O)Nc1ccc(S(=O)(=O)N2CCOCC2)cc1 (nonaromatic ring conformer: 65.83309717057692 kcal/mol)

>  <smiles>  (40) 
CC1CCC(=O)N1CC(=O)Nc1ccc(S(=O)(=O)N2CCOCC2)cc1

>  <score_type>  (40) 
oracle

>  <origin>  (40) 
adgpu

>  <m_score__min__energy>  (40) 
-9.1799999999999997

>  <m_primary>  (40) 
energy

$$$$
40:0
     RDKit          3D

 41 44  0  0  0  0  0  0  0  0999 V2000
   -0.1720   22.8250  -24.1130 O   0  0  0  0  0  0  0  0  0  0  0  0
   -0.1590   23.5050  -25.1740 C   0  0  0  0  0  0  0  0  0  0  0  0
   -0.4670   24.9260  -25.2360 C   0  0  0  0  0  0  0  0  0  0  0  0
   -0.8600   25.8420  -24.2650 C   0  0  0  0  0  0  0  0  0  0  0  0
   -1.0560   27.1740  -24.6700 C   0  0  0  0  0  0  0  0  0  0  0  0
   -0.8460   27.5320  -26.0210 C   0  0  0  0  0  0  0  0  0  0  0  0
   -0.4550   26.5940  -26.9340 N   0  0  0  0  0  0  0  0  0  0  0  0
   -0.2780   25.3120  -26.5260 C   0  0  0  0  0  0  0  0  0  0  0  0
    0.1490   24.1520  -27.2830 C   0  0  0  0  0  0  0  0  0  0  0  0
    0.4880   24.1820  -28.4970 O   0  0  0  0  0  0  0  0  0  0  0  0
    0.2120   22.9620  -26.4620 N   0  0  2  0  0  0  0  0  0  0  0  0
   -0.7720   21.9480  -26.8910 C   0  0  0  0  0  0  0  0  0  0  0  0
   -1.8630   22.5580  -27.7290 C   0  0  0  0  0  0  0  0  0  0  0  0
   -1.8710   22.3960  -29.1220 C   0  0  0  0  0  0  0  0  0  0  0  0
   -2.8850   22.9900  -29.8760 C   0  0  0  0  0  0  0  0  0  0  0  0
   -3.8750   23.7470  -29.2400 C   0  0  0  0  0  0  0  0  0  0  0  0
   -5.1710   24.4830  -30.1740 S   0  0  0  0  0  0  0  0  0  0  0  0
   -4.5940   25.3990  -31.2180 O   0  0  0  0  0  0  0  0  0  0  0  0
   -6.0520   25.3010  -29.2710 O   0  0  0  0  0  0  0  0  0  0  0  0
   -6.1160   23.2140  -30.9440 C   0  0  0  0  0  0  0  0  0  0  0  0
   -7.4460   22.9950  -30.5620 C   0  0  0  0  0  0  0  0  0  0  0  0
   -8.1900   21.9740  -31.1620 C   0  0  0  0  0  0  0  0  0  0  0  0
   -9.4780   21.7660  -30.7920 F   0  0  0  0  0  0  0  0  0  0  0  0
   -7.6060   21.1630  -32.1400 C   0  0  0  0  0  0  0  0  0  0  0  0
   -6.2750   21.3720  -32.5170 C   0  0  0  0  0  0  0  0  0  0  0  0
   -5.7060   20.5820  -33.4610 F   0  0  0  0  0  0  0  0  0  0  0  0
   -5.5290   22.3940  -31.9190 C   0  0  0  0  0  0  0  0  0  0  0  0
   -3.8370   23.8820  -27.8470 C   0  0  0  0  0  0  0  0  0  0  0  0
   -2.8410   23.2950  -27.1320 N   0  0  0  0  0  0  0  0  0  0  0  0
   -1.0117   25.5354  -23.2195 H   0  0  0  0  0  0  0  0  0  0  0  0
   -1.3711   27.9334  -23.9393 H   0  0  0  0  0  0  0  0  0  0  0  0
   -0.9985   28.5737  -26.3397 H   0  0  0  0  0  0  0  0  0  0  0  0
    1.1880   22.5870  -26.4240 H   0  0  0  0  0  0  0  0  0  0  0  0
   -0.2561   21.1769  -27.4821 H   0  0  0  0  0  0  0  0  0  0  0  0
   -1.2310   21.5106  -25.9921 H   0  0  0  0  0  0  0  0  0  0  0  0
   -1.0852   21.8060  -29.6164 H   0  0  0  0  0  0  0  0  0  0  0  0
   -2.9055   22.8630  -30.9685 H   0  0  0  0  0  0  0  0  0  0  0  0
   -7.9061   23.6275  -29.7885 H   0  0  0  0  0  0  0  0  0  0  0  0
   -8.1926   20.3614  -32.6125 H   0  0  0  0  0  0  0  0  0  0  0  0
   -4.4814   22.5544  -32.2138 H   0  0  0  0  0  0  0  0  0  0  0  0
   -4.6144   24.4640  -27.3303 H   0  0  0  0  0  0  0  0  0  0  0  0
  1  2  2  0
  2  3  1  0
  3  4  2  0
  4  5  1  0
  5  6  2  0
  6  7  1  0
  7  8  2  0
  8  9  1  0
  9 10  2  0
  9 11  1  0
 11 12  1  0
 12 13  1  0
 13 14  2  0
 14 15  1  0
 15 16  2  0
 16 17  1  0
 17 18  2  0
 17 19  2  0
 17 20  1  0
 20 21  2  0
 21 22  1  0
 22 23  1  0
 22 24  2  0
 24 25  1  0
 25 26  1  0
 25 27  2  0
 16 28  1  0
 28 29  2  0
 11  2  1  0
 29 13  1  0
  8  3  1  0
 27 20  1  0
  4 30  1  0
  5 31  1  0
  6 32  1  0
 11 33  1  1
 12 34  1  0
 12 35  1  0
 14 36  1  0
 15 37  1  0
 21 38  1  0
 24 39  1  0
 27 40  1  0
 28 41  1  0
M  CHG  1  11   1
M  END
>  <UniqueID>  (41) 
40

>  <SMILES>  (41) 
O=C1c2cccnc2C(=O)[N@@H+]1Cc1ccc(S(=O)(=O)c2cc(F)cc(F)c2)cn1

>  <Energy>  (41) 
76.47568870857607

>  <Genealogy>  (41) 
O=C1c2cccnc2C(=O)[NH+]1Cc1ccc(S(=O)(=O)c2cc(F)cc(F)c2)cn1 (protonated)
O=C1c2cccnc2C(=O)[N@@H+]1Cc1ccc(S(=O)(=O)c2cc(F)cc(F)c2)cn1 (chirality)
O=C1c2cccnc2C(=O)[N@@H+]1Cc1ccc(S(=O)(=O)c2cc(F)cc(F)c2)cn1 (3D coordinates assigned)
O=C1c2cccnc2C(=O)[N@@H+]1Cc1ccc(S(=O)(=O)c2cc(F)cc(F)c2)cn1 (nonaromatic ring conformer: 76.47568870857607 kcal/mol)

>  <smiles>  (41) 
O=C1c2cccnc2C(=O)N1Cc1ccc(S(=O)(=O)c2cc(F)cc(F)c2)cn1

>  <score_type>  (41) 
oracle

>  <origin>  (41) 
adgpu

>  <m_score__min__energy>  (41) 
-8.9100000000000001

>  <m_primary>  (41) 
energy

$$$$
41:0
     RDKit          3D

 23 24  0  0  0  0  0  0  0  0999 V2000
   -1.2310   26.3320  -29.3350 O   0  0  0  0  0  0  0  0  0  0  0  0
   -1.5470   24.9920  -29.1340 C   0  0  0  0  0  0  0  0  0  0  0  0
   -2.7220   24.4690  -29.6810 C   0  0  0  0  0  0  0  0  0  0  0  0
   -3.5550   25.2970  -30.4280 O   0  0  0  0  0  0  0  0  0  0  0  0
   -3.0520   23.1170  -29.4870 C   0  0  0  0  0  0  0  0  0  0  0  0
   -4.2960   22.5830  -30.0830 C   0  0  0  0  0  0  0  0  0  0  0  0
   -4.2370   21.6360  -31.1190 C   0  0  0  0  0  0  0  0  0  0  0  0
   -5.4150   21.1400  -31.6870 C   0  0  0  0  0  0  0  0  0  0  0  0
   -6.6580   21.5910  -31.2300 C   0  0  0  0  0  0  0  0  0  0  0  0
   -8.2640   20.9130  -32.0070 Br  0  0  0  0  0  0  0  0  0  0  0  0
   -6.7220   22.5400  -30.2040 C   0  0  0  0  0  0  0  0  0  0  0  0
   -5.5460   23.0370  -29.6330 C   0  0  0  0  0  0  0  0  0  0  0  0
   -2.1950   22.2900  -28.7290 C   0  0  0  0  0  0  0  0  0  0  0  0
   -2.6700   20.4500  -28.3960 Br  0  0  0  0  0  0  0  0  0  0  0  0
   -1.0080   22.8220  -28.1810 C   0  0  0  0  0  0  0  0  0  0  0  0
    0.1660   21.6990  -27.1470 Br  0  0  0  0  0  0  0  0  0  0  0  0
   -0.6870   24.1800  -28.3890 C   0  0  0  0  0  0  0  0  0  0  0  0
    0.4760   24.7500  -27.8670 O   0  0  0  0  0  0  0  0  0  0  0  0
   -3.2613   21.2835  -31.4846 H   0  0  0  0  0  0  0  0  0  0  0  0
   -5.3641   20.3943  -32.4941 H   0  0  0  0  0  0  0  0  0  0  0  0
   -7.6992   22.8960  -29.8457 H   0  0  0  0  0  0  0  0  0  0  0  0
   -5.6006   23.7858  -28.8290 H   0  0  0  0  0  0  0  0  0  0  0  0
    0.8190   25.6600  -28.1440 H   0  0  0  0  0  0  0  0  0  0  0  0
  1  2  1  0
  2  3  2  0
  3  4  1  0
  3  5  1  0
  5  6  1  0
  6  7  2  0
  7  8  1  0
  8  9  2  0
  9 10  1  0
  9 11  1  0
 11 12  2  0
  5 13  2  0
 13 14  1  0
 13 15  1  0
 15 16  1  0
 15 17  2  0
 17 18  1  0
 17  2  1  0
 12  6  1  0
  7 19  1  0
  8 20  1  0
 11 21  1  0
 12 22  1  0
 18 23  1  0
M  CHG  2   1  -1   4  -1
M  END
>  <UniqueID>  (42) 
41

>  <SMILES>  (42) 
[O-]c1c([O-])c(-c2ccc(Br)cc2)c(Br)c(Br)c1O

>  <Energy>  (42) 
36.24032312909554

>  <Genealogy>  (42) 
[O-]c1c([O-])c(-c2ccc(Br)cc2)c(Br)c(Br)c1O (protonated)
[O-]c1c([O-])c(-c2ccc(Br)cc2)c(Br)c(Br)c1O (3D coordinates assigned)
[O-]c1c([O-])c(-c2ccc(Br)cc2)c(Br)c(Br)c1O (optimized conformer: 36.24032312909554 kcal/mol)

>  <smiles>  (42) 
Oc1c(O)c(Br)c(Br)c(-c2ccc(Br)cc2)c1O

>  <score_type>  (42) 
oracle

>  <origin>  (42) 
adgpu

>  <m_score__min__energy>  (42) 
-13.550000000000001

>  <m_primary>  (42) 
energy

$$$$
42:0
     RDKit          3D

 40 42  0  0  0  0  0  0  0  0999 V2000
   -9.7200   21.6110  -31.7390 C   0  0  0  0  0  0  0  0  0  0  0  0
   -8.4360   20.9180  -31.7350 N   0  0  0  0  0  0  0  0  0  0  0  0
   -8.1680   19.6670  -32.3680 C   0  0  0  0  0  0  0  0  0  0  0  0
   -9.0780   18.8800  -32.7440 O   0  0  0  0  0  0  0  0  0  0  0  0
   -6.6940   19.4040  -32.5440 C   0  0  0  0  0  0  0  0  0  0  0  0
   -6.2460   18.1950  -31.7110 C   0  0  0  0  0  0  0  0  0  0  0  0
   -6.3370   19.2380  -34.0280 C   0  0  0  0  0  0  0  0  0  0  0  0
   -6.1400   20.6880  -31.9860 C   0  0  0  0  0  0  0  0  0  0  0  0
   -4.8050   21.0880  -31.8940 C   0  0  0  0  0  0  0  0  0  0  0  0
   -4.5150   22.3490  -31.3530 C   0  0  0  0  0  0  0  0  0  0  0  0
   -5.5540   23.1960  -30.9130 C   0  0  0  0  0  0  0  0  0  0  0  0
   -5.1660   24.7630  -30.2110 S   0  0  0  0  0  0  0  0  0  0  0  0
   -6.4140   25.5680  -29.9820 O   0  0  0  0  0  0  0  0  0  0  0  0
   -4.2670   25.5080  -31.1550 O   0  0  0  0  0  0  0  0  0  0  0  0
   -4.3480   24.5450  -28.6980 N   0  0  0  0  0  0  0  0  0  0  0  0
   -3.1450   23.7840  -28.5090 C   0  0  0  0  0  0  0  0  0  0  0  0
   -3.1680   22.4680  -28.0070 C   0  0  0  0  0  0  0  0  0  0  0  0
   -1.9760   21.7530  -27.8510 C   0  0  0  0  0  0  0  0  0  0  0  0
   -2.0140   20.1100  -27.2350 Cl  0  0  0  0  0  0  0  0  0  0  0  0
   -0.7550   22.3450  -28.1840 C   0  0  0  0  0  0  0  0  0  0  0  0
   -0.7240   23.6530  -28.6740 C   0  0  0  0  0  0  0  0  0  0  0  0
   -1.9130   24.3710  -28.8370 C   0  0  0  0  0  0  0  0  0  0  0  0
   -1.8670   25.6710  -29.3290 O   0  0  0  0  0  0  0  0  0  0  0  0
   -6.8940   22.7780  -31.0210 C   0  0  0  0  0  0  0  0  0  0  0  0
   -7.1590   21.5150  -31.5560 C   0  0  0  0  0  0  0  0  0  0  0  0
  -10.0452   21.7865  -30.7029 H   0  0  0  0  0  0  0  0  0  0  0  0
   -9.6148   22.5749  -32.2585 H   0  0  0  0  0  0  0  0  0  0  0  0
  -10.4680   20.9941  -32.2585 H   0  0  0  0  0  0  0  0  0  0  0  0
   -6.3345   18.4339  -30.6409 H   0  0  0  0  0  0  0  0  0  0  0  0
   -6.8834   17.3303  -31.9476 H   0  0  0  0  0  0  0  0  0  0  0  0
   -5.1990   17.9544  -31.9476 H   0  0  0  0  0  0  0  0  0  0  0  0
   -5.3428   18.7757  -34.1165 H   0  0  0  0  0  0  0  0  0  0  0  0
   -7.0849   18.5953  -34.5154 H   0  0  0  0  0  0  0  0  0  0  0  0
   -6.3275   20.2241  -34.5154 H   0  0  0  0  0  0  0  0  0  0  0  0
   -3.9966   20.4267  -32.2392 H   0  0  0  0  0  0  0  0  0  0  0  0
   -3.4693   22.6803  -31.2711 H   0  0  0  0  0  0  0  0  0  0  0  0
   -4.1266   22.0011  -27.7368 H   0  0  0  0  0  0  0  0  0  0  0  0
    0.1815   21.7814  -28.0604 H   0  0  0  0  0  0  0  0  0  0  0  0
    0.2382   24.1193  -28.9323 H   0  0  0  0  0  0  0  0  0  0  0  0
   -7.7148   23.4319  -30.6912 H   0  0  0  0  0  0  0  0  0  0  0  0
  1  2  1  0
  2  3  1  0
  3  4  2  0
  3  5  1  0
  5  6  1  0
  5  7  1  0
  5  8  1  0
  8  9  2  0
  9 10  1  0
 10 11  2  0
 11 12  1  0
 12 13  2  0
 12 14  2  0
 12 15  1  0
 15 16  1  0
 16 17  2  0
 17 18  1  0
 18 19  1  0
 18 20  2  0
 20 21  1  0
 21 22  2  0
 22 23  1  0
 11 24  1  0
 24 25  2  0
 25  2  1  0
 25  8  1  0
 22 16  1  0
  1 26  1  0
  1 27  1  0
  1 28  1  0
  6 29  1  0
  6 30  1  0
  6 31  1  0
  7 32  1  0
  7 33  1  0
  7 34  1  0
  9 35  1  0
 10 36  1  0
 17 37  1  0
 20 38  1  0
 21 39  1  0
 24 40  1  0
M  CHG  2  15  -1  23  -1
M  END
>  <UniqueID>  (43) 
42

>  <SMILES>  (43) 
CN1C(=O)C(C)(C)c2ccc(S(=O)(=O)[N-]c3cc(Cl)ccc3[O-])cc21

>  <Energy>  (43) 
60.508129805835196

>  <Genealogy>  (43) 
CN1C(=O)C(C)(C)c2ccc(S(=O)(=O)[N-]c3cc(Cl)ccc3[O-])cc21 (protonated)
CN1C(=O)C(C)(C)c2ccc(S(=O)(=O)[N-]c3cc(Cl)ccc3[O-])cc21 (3D coordinates assigned)
CN1C(=O)C(C)(C)c2ccc(S(=O)(=O)[N-]c3cc(Cl)ccc3[O-])cc21 (nonaromatic ring conformer: 60.508129805835196 kcal/mol)

>  <smiles>  (43) 
CN1C(=O)C(C)(C)c2ccc(S(=O)(=O)Nc3cc(Cl)ccc3O)cc21

>  <score_type>  (43) 
oracle

>  <origin>  (43) 
adgpu

>  <m_score__min__energy>  (43) 
-14.83

>  <m_primary>  (43) 
energy

$$$$
43:0
     RDKit          3D

 57 60  0  0  0  0  0  0  0  0999 V2000
    3.0700   21.2020  -35.1470 O   0  0  0  0  0  0  0  0  0  0  0  0
    2.0000   21.8670  -35.0590 C   0  0  0  0  0  0  0  0  0  0  0  0
    1.9460   23.2350  -35.6230 C   0  0  0  0  0  0  0  0  0  0  0  0
    0.7340   23.7600  -36.1000 C   0  0  0  0  0  0  0  0  0  0  0  0
    0.6810   25.0520  -36.6290 C   0  0  0  0  0  0  0  0  0  0  0  0
    1.8430   25.8340  -36.7030 C   0  0  0  0  0  0  0  0  0  0  0  0
    1.7770   27.4640  -37.3780 S   0  0  0  0  0  0  0  0  0  0  0  0
    2.2970   28.4420  -36.3600 O   0  0  0  0  0  0  0  0  0  0  0  0
    2.6680   27.5350  -38.5860 O   0  0  0  0  0  0  0  0  0  0  0  0
    0.1470   27.9210  -37.8260 N   0  0  0  0  0  0  0  0  0  0  0  0
   -0.7940   27.7110  -36.7160 C   0  0  0  0  0  0  0  0  0  0  0  0
   -1.2520   29.0710  -36.1980 C   0  0  0  0  0  0  0  0  0  0  0  0
   -0.4520   30.0950  -36.9710 C   0  0  0  0  0  0  0  0  0  0  0  0
    0.0750   29.3430  -38.1780 C   0  0  0  0  0  0  0  0  0  0  0  0
    3.0580   25.3070  -36.2450 C   0  0  0  0  0  0  0  0  0  0  0  0
    3.1120   24.0150  -35.7160 C   0  0  0  0  0  0  0  0  0  0  0  0
    0.8540   21.2810  -34.4170 N   0  0  0  0  0  0  0  0  0  0  0  0
   -0.4200   21.2280  -35.1510 C   0  0  0  0  0  0  0  0  0  0  0  0
   -1.5180   20.5900  -34.3010 C   0  0  0  0  0  0  0  0  0  0  0  0
   -1.3660   21.0540  -32.9170 N   0  0  0  0  0  0  0  0  0  0  0  0
   -2.7930   20.6720  -31.9850 S   0  0  0  0  0  0  0  0  0  0  0  0
   -3.7380   19.8610  -32.8270 O   0  0  0  0  0  0  0  0  0  0  0  0
   -2.4000   19.8400  -30.7950 O   0  0  0  0  0  0  0  0  0  0  0  0
   -3.6120   22.1320  -31.4230 C   0  0  0  0  0  0  0  0  0  0  0  0
   -4.9920   22.2840  -31.6240 C   0  0  0  0  0  0  0  0  0  0  0  0
   -5.6440   23.4360  -31.1780 C   0  0  0  0  0  0  0  0  0  0  0  0
   -4.9260   24.4490  -30.5320 C   0  0  0  0  0  0  0  0  0  0  0  0
   -5.6000   25.5910  -30.0980 O   0  0  0  0  0  0  0  0  0  0  0  0
   -3.5430   24.3010  -30.3310 C   0  0  0  0  0  0  0  0  0  0  0  0
   -2.8110   25.2970  -29.6920 O   0  0  0  0  0  0  0  0  0  0  0  0
   -2.8910   23.1460  -30.7750 C   0  0  0  0  0  0  0  0  0  0  0  0
   -0.1690   20.4570  -32.2890 C   0  0  0  0  0  0  0  0  0  0  0  0
    1.0560   20.4360  -33.2320 C   0  0  0  0  0  0  0  0  0  0  0  0
   -0.1801   23.1497  -36.0568 H   0  0  0  0  0  0  0  0  0  0  0  0
   -0.2760   25.4576  -36.9890 H   0  0  0  0  0  0  0  0  0  0  0  0
   -1.6635   27.1384  -37.0713 H   0  0  0  0  0  0  0  0  0  0  0  0
   -0.3014   27.1493  -35.9086 H   0  0  0  0  0  0  0  0  0  0  0  0
   -2.3281   29.2081  -36.3803 H   0  0  0  0  0  0  0  0  0  0  0  0
   -1.0931   29.1665  -35.1137 H   0  0  0  0  0  0  0  0  0  0  0  0
   -1.0936   30.9314  -37.2852 H   0  0  0  0  0  0  0  0  0  0  0  0
    0.3574   30.5317  -36.3676 H   0  0  0  0  0  0  0  0  0  0  0  0
   -0.6045   29.4829  -39.0317 H   0  0  0  0  0  0  0  0  0  0  0  0
    1.0695   29.7191  -38.4600 H   0  0  0  0  0  0  0  0  0  0  0  0
    3.9738   25.9136  -36.3023 H   0  0  0  0  0  0  0  0  0  0  0  0
    4.0726   23.6056  -35.3702 H   0  0  0  0  0  0  0  0  0  0  0  0
   -0.7225   22.2508  -35.4201 H   0  0  0  0  0  0  0  0  0  0  0  0
   -0.2778   20.6168  -36.0544 H   0  0  0  0  0  0  0  0  0  0  0  0
   -2.5047   20.8875  -34.6856 H   0  0  0  0  0  0  0  0  0  0  0  0
   -1.4362   19.4938  -34.3416 H   0  0  0  0  0  0  0  0  0  0  0  0
   -5.5623   21.4938  -32.1343 H   0  0  0  0  0  0  0  0  0  0  0  0
   -6.7270   23.5476  -31.3352 H   0  0  0  0  0  0  0  0  0  0  0  0
   -5.1970   26.2290  -29.4220 H   0  0  0  0  0  0  0  0  0  0  0  0
   -1.8086   23.0323  -30.6154 H   0  0  0  0  0  0  0  0  0  0  0  0
    0.0869   21.0425  -31.3936 H   0  0  0  0  0  0  0  0  0  0  0  0
   -0.4121   19.4137  -32.0392 H   0  0  0  0  0  0  0  0  0  0  0  0
    1.9347   20.8019  -32.6807 H   0  0  0  0  0  0  0  0  0  0  0  0
    1.2031   19.4010  -33.5743 H   0  0  0  0  0  0  0  0  0  0  0  0
  1  2  2  0
  2  3  1  0
  3  4  2  0
  4  5  1  0
  5  6  2  0
  6  7  1  0
  7  8  2  0
  7  9  2  0
  7 10  1  0
 10 11  1  0
 11 12  1  0
 12 13  1  0
 13 14  1  0
  6 15  1  0
 15 16  2  0
  2 17  1  0
 17 18  1  0
 18 19  1  0
 19 20  1  0
 20 21  1  0
 21 22  2  0
 21 23  2  0
 21 24  1  0
 24 25  2  0
 25 26  1  0
 26 27  2  0
 27 28  1  0
 27 29  1  0
 29 30  1  0
 29 31  2  0
 20 32  1  0
 32 33  1  0
 16  3  1  0
 33 17  1  0
 14 10  1  0
 31 24  1  0
  4 34  1  0
  5 35  1  0
 11 36  1  0
 11 37  1  0
 12 38  1  0
 12 39  1  0
 13 40  1  0
 13 41  1  0
 14 42  1  0
 14 43  1  0
 15 44  1  0
 16 45  1  0
 18 46  1  0
 18 47  1  0
 19 48  1  0
 19 49  1  0
 25 50  1  0
 26 51  1  0
 28 52  1  0
 31 53  1  0
 32 54  1  0
 32 55  1  0
 33 56  1  0
 33 57  1  0
M  CHG  1  30  -1
M  END
>  <UniqueID>  (44) 
43

>  <SMILES>  (44) 
O=C(c1ccc(S(=O)(=O)N2CCCC2)cc1)N1CCN(S(=O)(=O)c2ccc(O)c([O-])c2)CC1

>  <Energy>  (44) 
68.13353830858982

>  <Genealogy>  (44) 
O=C(c1ccc(S(=O)(=O)N2CCCC2)cc1)N1CCN(S(=O)(=O)c2ccc(O)c([O-])c2)CC1 (protonated)
O=C(c1ccc(S(=O)(=O)N2CCCC2)cc1)N1CCN(S(=O)(=O)c2ccc(O)c([O-])c2)CC1 (3D coordinates assigned)
O=C(c1ccc(S(=O)(=O)N2CCCC2)cc1)N1CCN(S(=O)(=O)c2ccc(O)c([O-])c2)CC1 (nonaromatic ring conformer: 68.13353830858982 kcal/mol)

>  <smiles>  (44) 
O=C(c1ccc(S(=O)(=O)N2CCCC2)cc1)N1CCN(S(=O)(=O)c2ccc(O)c(O)c2)CC1

>  <score_type>  (44) 
oracle

>  <origin>  (44) 
adgpu

>  <m_score__min__energy>  (44) 
-11.9

>  <m_primary>  (44) 
energy

$$$$
44:0
     RDKit          3D

 32 34  0  0  0  0  0  0  0  0999 V2000
    0.0499   24.6044  -27.1467 H   0  0  0  0  0  0  0  0  0  0  0  0
   -0.8670   24.6850  -27.7490 C   0  0  0  0  0  0  0  0  0  0  0  0
   -1.0030   25.3980  -28.8450 O   0  0  0  0  0  0  0  0  0  0  0  0
   -2.2040   25.2950  -29.3360 N   0  0  0  0  0  0  0  0  0  0  0  0
   -2.8740   24.4710  -28.5070 C   0  0  0  0  0  0  0  0  0  0  0  0
   -4.1140   24.1250  -28.6590 N   0  0  0  0  0  0  0  0  0  0  0  0
   -5.1000   24.6860  -29.9700 S   0  0  0  0  0  0  0  0  0  0  0  0
   -4.2240   25.3370  -31.0030 O   0  0  0  0  0  0  0  0  0  0  0  0
   -6.0800   25.7000  -29.4470 O   0  0  0  0  0  0  0  0  0  0  0  0
   -5.9490   23.3330  -30.7090 C   0  0  0  0  0  0  0  0  0  0  0  0
   -7.2850   23.0430  -30.3410 C   0  0  0  0  0  0  0  0  0  0  0  0
   -7.7923   23.6682  -29.5914 H   0  0  0  0  0  0  0  0  0  0  0  0
   -7.9690   21.9620  -30.9260 C   0  0  0  0  0  0  0  0  0  0  0  0
   -9.0074   21.7306  -30.6463 H   0  0  0  0  0  0  0  0  0  0  0  0
   -7.2900   21.1910  -31.8730 C   0  0  0  0  0  0  0  0  0  0  0  0
   -6.0000   21.4780  -32.2350 C   0  0  0  0  0  0  0  0  0  0  0  0
   -5.2960   22.5430  -31.6770 C   0  0  0  0  0  0  0  0  0  0  0  0
   -4.2620   22.7608  -31.9825 H   0  0  0  0  0  0  0  0  0  0  0  0
   -5.6210   20.5640  -33.1950 C   0  0  0  0  0  0  0  0  0  0  0  0
   -4.6499   20.4977  -33.7073 H   0  0  0  0  0  0  0  0  0  0  0  0
   -6.7290   19.7440  -33.3770 C   0  0  0  0  0  0  0  0  0  0  0  0
   -6.7764   18.9042  -34.0858 H   0  0  0  0  0  0  0  0  0  0  0  0
   -7.7420   20.1220  -32.5610 N   0  0  0  0  0  0  0  0  0  0  0  0
   -9.0780   19.5290  -32.5210 C   0  0  0  0  0  0  0  0  0  0  0  0
   -9.3680   19.2196  -33.5360 H   0  0  0  0  0  0  0  0  0  0  0  0
   -9.7888   20.2752  -32.1364 H   0  0  0  0  0  0  0  0  0  0  0  0
   -9.0910   18.3130  -31.6020 C   0  0  0  0  0  0  0  0  0  0  0  0
   -9.0874   18.6457  -30.5535 H   0  0  0  0  0  0  0  0  0  0  0  0
   -9.9956   17.7175  -31.7946 H   0  0  0  0  0  0  0  0  0  0  0  0
   -8.1994   17.6983  -31.7946 H   0  0  0  0  0  0  0  0  0  0  0  0
   -2.0630   24.0550  -27.4790 C   0  0  0  0  0  0  0  0  0  0  0  0
   -2.3084   23.3827  -26.6436 H   0  0  0  0  0  0  0  0  0  0  0  0
  1  2  1  0
  2  3  1  0
  3  4  1  0
  4  5  1  0
  5  6  2  0
  6  7  1  0
  7  8  2  0
  7  9  2  0
  7 10  1  0
 10 11  2  0
 11 12  1  0
 11 13  1  0
 13 14  1  0
 13 15  2  0
 15 16  1  0
 16 17  2  0
 17 18  1  0
 16 19  1  0
 19 20  1  0
 19 21  2  0
 21 22  1  0
 21 23  1  0
 23 24  1  0
 24 25  1  0
 24 26  1  0
 24 27  1  0
 27 28  1  0
 27 29  1  0
 27 30  1  0
  5 31  1  0
 31 32  1  0
 31  2  2  0
 17 10  1  0
 23 15  1  0
M  CHG  1   4  -1
M  END
>  <UniqueID>  (45) 
44

>  <SMILES>  (45) 
CCn1ccc2cc(S(=O)(=O)/N=c3/cco[n-]3)ccc21

>  <Energy>  (45) 
97.52763138150758

>  <Genealogy>  (45) 
CCn1ccc2cc(S(=O)(=O)N=c3cco[n-]3)ccc21 (protonated)
CCn1ccc2cc(S(=O)(=O)/N=c3/cco[n-]3)ccc21 (cis-trans isomerization)
CCn1ccc2cc(S(=O)(=O)/N=c3/cco[n-]3)ccc21 (3D coordinates assigned)
CCn1ccc2cc(S(=O)(=O)/N=c3/cco[n-]3)ccc21 (optimized conformer: 97.52763138150758 kcal/mol)

>  <smiles>  (45) 
CCn1ccc2cc(S(=O)(=O)N=c3cco[nH]3)ccc21

>  <score_type>  (45) 
oracle

>  <origin>  (45) 
adgpu

>  <m_score__min__energy>  (45) 
-10.18

>  <m_primary>  (45) 
energy

$$$$
45:0
     RDKit          3D

 43 46  0  0  0  0  0  0  0  0999 V2000
    0.4950   25.6770  -25.1600 C   0  0  0  0  0  0  0  0  0  0  0  0
   -0.5030   25.4110  -26.2480 C   0  0  0  0  0  0  0  0  0  0  0  0
   -1.8530   25.2020  -25.9340 C   0  0  0  0  0  0  0  0  0  0  0  0
   -2.7770   24.9170  -26.9440 C   0  0  0  0  0  0  0  0  0  0  0  0
   -2.3640   24.8260  -28.2840 C   0  0  0  0  0  0  0  0  0  0  0  0
   -3.3610   24.5230  -29.3370 C   0  0  0  0  0  0  0  0  0  0  0  0
   -4.2810   23.4910  -29.3560 C   0  0  0  0  0  0  0  0  0  0  0  0
   -4.9520   23.6640  -30.5550 C   0  0  0  0  0  0  0  0  0  0  0  0
   -6.0620   22.8220  -31.0860 C   0  0  0  0  0  0  0  0  0  0  0  0
   -7.2640   23.4220  -31.4700 C   0  0  0  0  0  0  0  0  0  0  0  0
   -8.3040   22.6900  -31.9650 N   0  0  0  0  0  0  0  0  0  0  0  0
   -9.5320   23.4150  -32.3410 C   0  0  0  0  0  0  0  0  0  0  0  0
   -8.1990   21.3210  -32.1080 C   0  0  0  0  0  0  0  0  0  0  0  0
   -9.2760   20.5620  -32.6220 C   0  0  0  0  0  0  0  0  0  0  0  0
   -9.1780   19.1860  -32.7700 C   0  0  0  0  0  0  0  0  0  0  0  0
   -8.0130   18.5250  -32.4160 C   0  0  0  0  0  0  0  0  0  0  0  0
   -6.9120   19.2260  -31.9020 C   0  0  0  0  0  0  0  0  0  0  0  0
   -5.6860   18.4140  -31.5510 C   0  0  0  0  0  0  0  0  0  0  0  0
   -6.9930   20.6480  -31.7370 C   0  0  0  0  0  0  0  0  0  0  0  0
   -5.9280   21.4290  -31.2170 C   0  0  0  0  0  0  0  0  0  0  0  0
   -4.8500   20.8880  -30.8500 O   0  0  0  0  0  0  0  0  0  0  0  0
   -4.4460   24.7400  -31.1900 N   0  0  0  0  0  0  0  0  0  0  0  0
   -3.5030   25.2250  -30.4370 O   0  0  0  0  0  0  0  0  0  0  0  0
   -1.0060   25.0180  -28.5930 C   0  0  0  0  0  0  0  0  0  0  0  0
   -0.0830   25.3020  -27.5810 C   0  0  0  0  0  0  0  0  0  0  0  0
    0.0121   25.5483  -24.1801 H   0  0  0  0  0  0  0  0  0  0  0  0
    1.3336   24.9710  -25.2511 H   0  0  0  0  0  0  0  0  0  0  0  0
    0.8710   26.7067  -25.2511 H   0  0  0  0  0  0  0  0  0  0  0  0
   -2.1872   25.2625  -24.8877 H   0  0  0  0  0  0  0  0  0  0  0  0
   -3.8355   24.7628  -26.6876 H   0  0  0  0  0  0  0  0  0  0  0  0
   -4.4425   22.7131  -28.5952 H   0  0  0  0  0  0  0  0  0  0  0  0
   -7.3748   24.5119  -31.3708 H   0  0  0  0  0  0  0  0  0  0  0  0
  -10.0650   23.7297  -31.4317 H   0  0  0  0  0  0  0  0  0  0  0  0
   -9.2669   24.3015  -32.9359 H   0  0  0  0  0  0  0  0  0  0  0  0
  -10.1801   22.7546  -32.9359 H   0  0  0  0  0  0  0  0  0  0  0  0
  -10.2076   21.0715  -32.9094 H   0  0  0  0  0  0  0  0  0  0  0  0
  -10.0298   18.6168  -33.1705 H   0  0  0  0  0  0  0  0  0  0  0  0
   -7.9504   17.4338  -32.5399 H   0  0  0  0  0  0  0  0  0  0  0  0
   -5.5894   18.3500  -30.4571 H   0  0  0  0  0  0  0  0  0  0  0  0
   -5.7842   17.4018  -31.9702 H   0  0  0  0  0  0  0  0  0  0  0  0
   -4.7923   18.8994  -31.9702 H   0  0  0  0  0  0  0  0  0  0  0  0
   -0.6672   24.9444  -29.6369 H   0  0  0  0  0  0  0  0  0  0  0  0
    0.9788   25.4406  -27.8327 H   0  0  0  0  0  0  0  0  0  0  0  0
  1  2  1  0
  2  3  2  0
  3  4  1  0
  4  5  2  0
  5  6  1  0
  6  7  2  0
  7  8  1  0
  8  9  1  0
  9 10  2  0
 10 11  1  0
 11 12  1  0
 11 13  1  0
 13 14  2  0
 14 15  1  0
 15 16  2  0
 16 17  1  0
 17 18  1  0
 17 19  2  0
 19 20  1  0
 20 21  2  0
  8 22  2  0
 22 23  1  0
  5 24  1  0
 24 25  2  0
 25  2  1  0
 23  6  1  0
 20  9  1  0
 19 13  1  0
  1 26  1  0
  1 27  1  0
  1 28  1  0
  3 29  1  0
  4 30  1  0
  7 31  1  0
 10 32  1  0
 12 33  1  0
 12 34  1  0
 12 35  1  0
 14 36  1  0
 15 37  1  0
 16 38  1  0
 18 39  1  0
 18 40  1  0
 18 41  1  0
 24 42  1  0
 25 43  1  0
M  END
>  <UniqueID>  (46) 
45

>  <SMILES>  (46) 
Cc1ccc(-c2cc(-c3cn(C)c4cccc(C)c4c3=O)no2)cc1

>  <Energy>  (46) 
95.60546433792103

>  <Genealogy>  (46) 
Cc1ccc(-c2cc(-c3cn(C)c4cccc(C)c4c3=O)no2)cc1 (3D coordinates assigned)
Cc1ccc(-c2cc(-c3cn(C)c4cccc(C)c4c3=O)no2)cc1 (optimized conformer: 95.60546433792103 kcal/mol)

>  <smiles>  (46) 
Cc1ccc(-c2cc(-c3cn(C)c4cccc(C)c4c3=O)no2)cc1

>  <score_type>  (46) 
oracle

>  <origin>  (46) 
adgpu

>  <m_score__min__energy>  (46) 
-10.17

>  <m_primary>  (46) 
energy

$$$$
46:0
     RDKit          3D

 52 54  0  0  0  0  0  0  0  0999 V2000
   -0.7850   24.8970  -27.6830 C   0  0  0  0  0  0  0  0  0  0  0  0
   -1.7340   24.3890  -28.7200 C   0  0  0  0  0  0  0  0  0  0  0  0
   -1.7420   23.0350  -29.0670 C   0  0  0  0  0  0  0  0  0  0  0  0
   -2.6320   22.5670  -30.0450 C   0  0  0  0  0  0  0  0  0  0  0  0
   -2.5850   21.1080  -30.4170 C   0  0  0  0  0  0  0  0  0  0  0  0
   -3.5510   23.4720  -30.6320 C   0  0  0  0  0  0  0  0  0  0  0  0
   -4.5790   23.0260  -31.6050 C   0  0  0  0  0  0  0  0  0  0  0  0
   -4.2280   22.3100  -32.5810 O   0  0  0  0  0  0  0  0  0  0  0  0
   -5.9680   23.3580  -31.4570 N   0  0  0  0  0  0  0  0  0  0  0  0
   -7.0860   22.4780  -31.6460 C   0  0  0  0  0  0  0  0  0  0  0  0
   -8.3670   23.0300  -31.7490 C   0  0  0  0  0  0  0  0  0  0  0  0
   -9.4790   22.2070  -31.9440 C   0  0  0  0  0  0  0  0  0  0  0  0
   -9.3190   20.8210  -32.0230 C   0  0  0  0  0  0  0  0  0  0  0  0
   -8.0460   20.2500  -31.8880 C   0  0  0  0  0  0  0  0  0  0  0  0
   -7.8420   18.4980  -31.9570 S   0  0  0  0  0  0  0  0  0  0  0  0
   -6.9220   18.0650  -30.8480 O   0  0  0  0  0  0  0  0  0  0  0  0
   -9.1760   17.8380  -31.7360 O   0  0  0  0  0  0  0  0  0  0  0  0
   -7.1790   17.9810  -33.4920 N   0  0  2  0  0  0  0  0  0  0  0  0
   -6.8250   16.5350  -33.4680 C   0  0  0  0  0  0  0  0  0  0  0  0
   -5.3210   16.2930  -33.2740 C   0  0  0  0  0  0  0  0  0  0  0  0
   -4.5030   16.9400  -34.4160 C   0  0  2  0  0  0  0  0  0  0  0  0
   -3.0660   17.2140  -33.9530 C   0  0  0  0  0  0  0  0  0  0  0  0
   -5.1750   18.2270  -34.9570 C   0  0  0  0  0  0  0  0  0  0  0  0
   -6.0660   18.8770  -33.8920 C   0  0  0  0  0  0  0  0  0  0  0  0
   -6.9350   21.0800  -31.6900 C   0  0  0  0  0  0  0  0  0  0  0  0
   -3.4900   24.8310  -30.2620 C   0  0  0  0  0  0  0  0  0  0  0  0
   -4.2740   25.6730  -30.7740 O   0  0  0  0  0  0  0  0  0  0  0  0
   -2.5960   25.2450  -29.3280 N   0  0  0  0  0  0  0  0  0  0  0  0
   -1.1866   24.6820  -26.6817 H   0  0  0  0  0  0  0  0  0  0  0  0
    0.1889   24.3996  -27.8020 H   0  0  0  0  0  0  0  0  0  0  0  0
   -0.6589   25.9832  -27.8020 H   0  0  0  0  0  0  0  0  0  0  0  0
   -1.0504   22.3365  -28.5732 H   0  0  0  0  0  0  0  0  0  0  0  0
   -2.5653   20.4969  -29.5026 H   0  0  0  0  0  0  0  0  0  0  0  0
   -3.4754   20.8519  -31.0100 H   0  0  0  0  0  0  0  0  0  0  0  0
   -1.6800   20.9098  -31.0100 H   0  0  0  0  0  0  0  0  0  0  0  0
   -8.4998   24.1195  -31.6760 H   0  0  0  0  0  0  0  0  0  0  0  0
  -10.4815   22.6505  -32.0354 H   0  0  0  0  0  0  0  0  0  0  0  0
  -10.1943   20.1764  -32.1916 H   0  0  0  0  0  0  0  0  0  0  0  0
   -7.9470   18.1050  -34.1930 H   0  0  0  0  0  0  0  0  0  0  0  0
   -7.3678   16.0541  -32.6409 H   0  0  0  0  0  0  0  0  0  0  0  0
   -7.1056   16.1094  -34.4427 H   0  0  0  0  0  0  0  0  0  0  0  0
   -5.0072   16.7302  -32.3146 H   0  0  0  0  0  0  0  0  0  0  0  0
   -5.1369   15.2085  -33.2823 H   0  0  0  0  0  0  0  0  0  0  0  0
   -4.4714   16.2254  -35.2517 H   0  0  0  0  0  0  0  0  0  0  0  0
   -3.0300   17.2209  -32.8536 H   0  0  0  0  0  0  0  0  0  0  0  0
   -2.4007   16.4265  -34.3367 H   0  0  0  0  0  0  0  0  0  0  0  0
   -2.7371   18.1910  -34.3367 H   0  0  0  0  0  0  0  0  0  0  0  0
   -4.3937   18.9413  -35.2558 H   0  0  0  0  0  0  0  0  0  0  0  0
   -5.8030   17.9562  -35.8186 H   0  0  0  0  0  0  0  0  0  0  0  0
   -5.4552   19.1054  -33.0061 H   0  0  0  0  0  0  0  0  0  0  0  0
   -6.4982   19.7947  -34.3175 H   0  0  0  0  0  0  0  0  0  0  0  0
   -5.9364   20.6350  -31.5679 H   0  0  0  0  0  0  0  0  0  0  0  0
  1  2  1  0
  2  3  2  0
  3  4  1  0
  4  5  1  0
  4  6  2  0
  6  7  1  0
  7  8  2  0
  7  9  1  0
  9 10  1  0
 10 11  2  0
 11 12  1  0
 12 13  2  0
 13 14  1  0
 14 15  1  0
 15 16  2  0
 15 17  2  0
 15 18  1  0
 18 19  1  0
 19 20  1  0
 20 21  1  0
 21 22  1  0
 21 23  1  0
 23 24  1  0
 14 25  2  0
  6 26  1  0
 26 27  2  0
 26 28  1  0
 28  2  1  0
 25 10  1  0
 24 18  1  0
  1 29  1  0
  1 30  1  0
  1 31  1  0
  3 32  1  0
  5 33  1  0
  5 34  1  0
  5 35  1  0
 11 36  1  0
 12 37  1  0
 13 38  1  0
 18 39  1  6
 19 40  1  0
 19 41  1  0
 20 42  1  0
 20 43  1  0
 21 44  1  6
 22 45  1  0
 22 46  1  0
 22 47  1  0
 23 48  1  0
 23 49  1  0
 24 50  1  0
 24 51  1  0
 25 52  1  0
M  CHG  3   9  -1  18   1  28  -1
M  END
>  <UniqueID>  (47) 
46

>  <SMILES>  (47) 
Cc1cc(C)c(C(=O)[N-]c2cccc(S(=O)(=O)[NH+]3CCC(C)CC3)c2)c(=O)[n-]1

>  <Energy>  (47) 
64.84634157751353

>  <Genealogy>  (47) 
Cc1cc(C)c(C(=O)[N-]c2cccc(S(=O)(=O)[NH+]3CCC(C)CC3)c2)c(=O)[n-]1 (protonated)
Cc1cc(C)c(C(=O)[N-]c2cccc(S(=O)(=O)[NH+]3CCC(C)CC3)c2)c(=O)[n-]1 (3D coordinates assigned)
Cc1cc(C)c(C(=O)[N-]c2cccc(S(=O)(=O)[NH+]3CCC(C)CC3)c2)c(=O)[n-]1 (nonaromatic ring conformer: 64.84634157751353 kcal/mol)

>  <smiles>  (47) 
Cc1cc(C)c(C(=O)Nc2cccc(S(=O)(=O)N3CCC(C)CC3)c2)c(=O)[nH]1

>  <score_type>  (47) 
oracle

>  <origin>  (47) 
adgpu

>  <m_score__min__energy>  (47) 
-11.91

>  <m_primary>  (47) 
energy

$$$$
47:0
     RDKit          3D

 46 49  0  0  0  0  0  0  0  0999 V2000
   -3.2640   20.9040  -30.6440 O   0  0  0  0  0  0  0  0  0  0  0  0
   -2.9120   21.4790  -29.5790 C   0  0  0  0  0  0  0  0  0  0  0  0
   -1.8560   20.8370  -28.7250 C   0  0  0  0  0  0  0  0  0  0  0  0
   -1.1620   21.8570  -27.8210 C   0  0  0  0  0  0  0  0  0  0  0  0
   -2.1940   22.7100  -27.0840 C   0  0  0  0  0  0  0  0  0  0  0  0
   -3.0200   23.5240  -28.0840 C   0  0  0  0  0  0  0  0  0  0  0  0
   -3.5900   22.6760  -29.1400 N   0  0  0  0  0  0  0  0  0  0  0  0
   -4.6740   23.2080  -29.9180 C   0  0  0  0  0  0  0  0  0  0  0  0
   -5.8130   22.4250  -30.1630 C   0  0  0  0  0  0  0  0  0  0  0  0
   -6.8680   22.9310  -30.9320 C   0  0  0  0  0  0  0  0  0  0  0  0
   -8.2780   21.9220  -31.2590 S   0  0  0  0  0  0  0  0  0  0  0  0
   -9.1100   22.5740  -32.3280 O   0  0  0  0  0  0  0  0  0  0  0  0
   -9.0900   21.8290  -29.9970 O   0  0  0  0  0  0  0  0  0  0  0  0
   -7.8160   20.3200  -31.7790 N   0  0  0  0  0  0  0  0  0  0  0  0
   -8.8310   19.2560  -31.7540 C   0  0  0  0  0  0  0  0  0  0  0  0
   -8.1790   17.8750  -31.6560 C   0  0  0  0  0  0  0  0  0  0  0  0
   -7.1630   17.7370  -32.6450 O   0  0  0  0  0  0  0  0  0  0  0  0
   -6.2670   18.7740  -32.9060 C   0  0  0  0  0  0  0  0  0  0  0  0
   -5.0940   18.5100  -33.6190 C   0  0  0  0  0  0  0  0  0  0  0  0
   -4.1750   19.5330  -33.8550 C   0  0  0  0  0  0  0  0  0  0  0  0
   -4.4260   20.8220  -33.3790 C   0  0  0  0  0  0  0  0  0  0  0  0
   -5.6060   21.0960  -32.6810 C   0  0  0  0  0  0  0  0  0  0  0  0
   -6.5530   20.0760  -32.4500 C   0  0  0  0  0  0  0  0  0  0  0  0
   -6.7780   24.2220  -31.4700 C   0  0  0  0  0  0  0  0  0  0  0  0
   -5.6470   25.0050  -31.2270 C   0  0  0  0  0  0  0  0  0  0  0  0
   -4.5950   24.5030  -30.4540 C   0  0  0  0  0  0  0  0  0  0  0  0
   -3.4780   25.2950  -30.2150 O   0  0  0  0  0  0  0  0  0  0  0  0
   -2.3257   20.0656  -28.0971 H   0  0  0  0  0  0  0  0  0  0  0  0
   -1.0983   20.3967  -29.3899 H   0  0  0  0  0  0  0  0  0  0  0  0
   -0.5407   21.3250  -27.0855 H   0  0  0  0  0  0  0  0  0  0  0  0
   -0.5360   22.5144  -28.4422 H   0  0  0  0  0  0  0  0  0  0  0  0
   -2.8637   22.0536  -26.5090 H   0  0  0  0  0  0  0  0  0  0  0  0
   -1.6704   23.4000  -26.4059 H   0  0  0  0  0  0  0  0  0  0  0  0
   -3.8401   24.0222  -27.5461 H   0  0  0  0  0  0  0  0  0  0  0  0
   -2.3538   24.2594  -28.5588 H   0  0  0  0  0  0  0  0  0  0  0  0
   -5.8771   21.4081  -29.7485 H   0  0  0  0  0  0  0  0  0  0  0  0
   -9.4874   19.4060  -30.8841 H   0  0  0  0  0  0  0  0  0  0  0  0
   -9.4101   19.3035  -32.6880 H   0  0  0  0  0  0  0  0  0  0  0  0
   -7.7327   17.7544  -30.6579 H   0  0  0  0  0  0  0  0  0  0  0  0
   -8.9463   17.1043  -31.8211 H   0  0  0  0  0  0  0  0  0  0  0  0
   -4.8954   17.4952  -33.9942 H   0  0  0  0  0  0  0  0  0  0  0  0
   -3.2523   19.3243  -34.4162 H   0  0  0  0  0  0  0  0  0  0  0  0
   -3.6933   21.6236  -33.5538 H   0  0  0  0  0  0  0  0  0  0  0  0
   -5.7973   22.1135  -32.3095 H   0  0  0  0  0  0  0  0  0  0  0  0
   -7.5993   24.6193  -32.0846 H   0  0  0  0  0  0  0  0  0  0  0  0
   -5.5835   26.0204  -31.6452 H   0  0  0  0  0  0  0  0  0  0  0  0
  1  2  2  0
  2  3  1  0
  3  4  1  0
  4  5  1  0
  5  6  1  0
  6  7  1  0
  7  8  1  0
  8  9  2  0
  9 10  1  0
 10 11  1  0
 11 12  2  0
 11 13  2  0
 11 14  1  0
 14 15  1  0
 15 16  1  0
 16 17  1  0
 17 18  1  0
 18 19  2  0
 19 20  1  0
 20 21  2  0
 21 22  1  0
 22 23  2  0
 10 24  2  0
 24 25  1  0
 25 26  2  0
 26 27  1  0
  7  2  1  0
 26  8  1  0
 23 14  1  0
 23 18  1  0
  3 28  1  0
  3 29  1  0
  4 30  1  0
  4 31  1  0
  5 32  1  0
  5 33  1  0
  6 34  1  0
  6 35  1  0
  9 36  1  0
 15 37  1  0
 15 38  1  0
 16 39  1  0
 16 40  1  0
 19 41  1  0
 20 42  1  0
 21 43  1  0
 22 44  1  0
 24 45  1  0
 25 46  1  0
M  CHG  1  27  -1
M  END
>  <UniqueID>  (48) 
47

>  <SMILES>  (48) 
O=C1CCCCN1c1cc(S(=O)(=O)N2CCOc3ccccc32)ccc1[O-]

>  <Energy>  (48) 
58.239362392915034

>  <Genealogy>  (48) 
O=C1CCCCN1c1cc(S(=O)(=O)N2CCOc3ccccc32)ccc1[O-] (protonated)
O=C1CCCCN1c1cc(S(=O)(=O)N2CCOc3ccccc32)ccc1[O-] (3D coordinates assigned)
O=C1CCCCN1c1cc(S(=O)(=O)N2CCOc3ccccc32)ccc1[O-] (nonaromatic ring conformer: 58.239362392915034 kcal/mol)

>  <smiles>  (48) 
O=C1CCCCN1c1cc(S(=O)(=O)N2CCOc3ccccc32)ccc1O

>  <score_type>  (48) 
oracle

>  <origin>  (48) 
adgpu

>  <m_score__min__energy>  (48) 
-12.06

>  <m_primary>  (48) 
energy

$$$$
