0:0
     RDKit          3D

 44 45  0  0  0  0  0  0  0  0999 V2000
   -7.6680   17.9820  -32.6440 C   0  0  0  0  0  0  0  0  0  0  0  0
   -7.4560   19.3900  -33.0020 N   0  0  0  0  0  0  0  0  0  0  0  0
   -6.0370   19.7400  -32.8580 C   0  0  0  0  0  0  0  0  0  0  0  0
   -8.4260   20.4160  -31.9720 S   0  0  0  0  0  0  0  0  0  0  0  0
   -9.7000   20.7770  -32.6830 O   0  0  0  0  0  0  0  0  0  0  0  0
   -8.7900   19.6670  -30.7190 O   0  0  0  0  0  0  0  0  0  0  0  0
   -7.5640   21.8930  -31.5380 C   0  0  0  0  0  0  0  0  0  0  0  0
   -6.9280   22.6500  -32.5290 C   0  0  0  0  0  0  0  0  0  0  0  0
   -6.1940   23.7870  -32.1840 C   0  0  0  0  0  0  0  0  0  0  0  0
   -6.0780   24.1770  -30.8380 C   0  0  0  0  0  0  0  0  0  0  0  0
   -5.2440   25.3400  -30.4590 C   0  0  0  0  0  0  0  0  0  0  0  0
   -5.8010   26.4170  -30.1220 O   0  0  0  0  0  0  0  0  0  0  0  0
   -3.8100   25.2860  -30.4970 N   0  0  0  0  0  0  0  0  0  0  0  0
   -2.9970   24.2820  -29.8690 C   0  0  0  0  0  0  0  0  0  0  0  0
   -2.9640   22.9950  -30.4130 C   0  0  0  0  0  0  0  0  0  0  0  0
   -2.2100   21.9890  -29.8010 C   0  0  0  0  0  0  0  0  0  0  0  0
   -1.4690   22.2580  -28.6390 C   0  0  0  0  0  0  0  0  0  0  0  0
   -0.7280   21.1950  -28.0170 N   0  0  0  0  0  0  0  0  0  0  0  0
   -1.4040   20.0890  -26.8620 S   0  0  0  0  0  0  0  0  0  0  0  0
   -3.1170   19.7750  -27.2390 C   0  0  0  0  0  0  0  0  0  0  0  0
   -1.2670   20.6480  -25.4740 O   0  0  0  0  0  0  0  0  0  0  0  0
   -0.6540   18.7890  -26.9380 O   0  0  0  0  0  0  0  0  0  0  0  0
   -1.4620   23.5670  -28.1260 C   0  0  0  0  0  0  0  0  0  0  0  0
   -2.2140   24.5710  -28.7390 C   0  0  0  0  0  0  0  0  0  0  0  0
   -6.7500   23.4380  -29.8520 C   0  0  0  0  0  0  0  0  0  0  0  0
   -7.4820   22.2980  -30.2000 C   0  0  0  0  0  0  0  0  0  0  0  0
   -7.6833   17.8804  -31.5488 H   0  0  0  0  0  0  0  0  0  0  0  0
   -8.6279   17.6391  -33.0575 H   0  0  0  0  0  0  0  0  0  0  0  0
   -6.8516   17.3716  -33.0575 H   0  0  0  0  0  0  0  0  0  0  0  0
   -5.7815   19.8030  -31.7900 H   0  0  0  0  0  0  0  0  0  0  0  0
   -5.4183   18.9675  -33.3381 H   0  0  0  0  0  0  0  0  0  0  0  0
   -5.8484   20.7116  -33.3381 H   0  0  0  0  0  0  0  0  0  0  0  0
   -7.0067   22.3481  -33.5838 H   0  0  0  0  0  0  0  0  0  0  0  0
   -5.7039   24.3808  -32.9696 H   0  0  0  0  0  0  0  0  0  0  0  0
   -3.5340   22.7724  -31.3271 H   0  0  0  0  0  0  0  0  0  0  0  0
   -2.1972   20.9778  -30.2337 H   0  0  0  0  0  0  0  0  0  0  0  0
    0.2360   20.9850  -28.3600 H   0  0  0  0  0  0  0  0  0  0  0  0
   -3.6853   19.6708  -26.3030 H   0  0  0  0  0  0  0  0  0  0  0  0
   -3.5235   20.6136  -27.8234 H   0  0  0  0  0  0  0  0  0  0  0  0
   -3.1996   18.8467  -27.8234 H   0  0  0  0  0  0  0  0  0  0  0  0
   -0.8600   23.8017  -27.2357 H   0  0  0  0  0  0  0  0  0  0  0  0
   -2.1933   25.5939  -28.3349 H   0  0  0  0  0  0  0  0  0  0  0  0
   -6.7008   23.7569  -28.8004 H   0  0  0  0  0  0  0  0  0  0  0  0
   -7.9953   21.7173  -29.4195 H   0  0  0  0  0  0  0  0  0  0  0  0
  1  2  1  0
  2  3  1  0
  2  4  1  0
  4  5  2  0
  4  6  2  0
  4  7  1  0
  7  8  2  0
  8  9  1  0
  9 10  2  0
 10 11  1  0
 11 12  2  0
 11 13  1  0
 13 14  1  0
 14 15  2  0
 15 16  1  0
 16 17  2  0
 17 18  1  0
 18 19  1  0
 19 20  1  0
 19 21  2  0
 19 22  2  0
 17 23  1  0
 23 24  2  0
 10 25  1  0
 25 26  2  0
 26  7  1  0
 24 14  1  0
  1 27  1  0
  1 28  1  0
  1 29  1  0
  3 30  1  0
  3 31  1  0
  3 32  1  0
  8 33  1  0
  9 34  1  0
 15 35  1  0
 16 36  1  0
 18 37  1  0
 20 38  1  0
 20 39  1  0
 20 40  1  0
 23 41  1  0
 24 42  1  0
 25 43  1  0
 26 44  1  0
M  CHG  1  13  -1
M  END
>  <UniqueID>  (1) 
1

>  <SMILES>  (1) 
CN(C)S(=O)(=O)c1ccc(C(=O)[N-]c2ccc(NS(C)(=O)=O)cc2)cc1

>  <Energy>  (1) 
46.07475874209134

>  <Genealogy>  (1) 
CN(C)S(=O)(=O)c1ccc(C(=O)[N-]c2ccc(NS(C)(=O)=O)cc2)cc1 (protonated)
CN(C)S(=O)(=O)c1ccc(C(=O)[N-]c2ccc(NS(C)(=O)=O)cc2)cc1 (3D coordinates assigned)
CN(C)S(=O)(=O)c1ccc(C(=O)[N-]c2ccc(NS(C)(=O)=O)cc2)cc1 (optimized conformer: 46.07475874209134 kcal/mol)

>  <smiles>  (1) 
CN(C)S(=O)(=O)c1ccc(C(=O)Nc2ccc(NS(C)(=O)=O)cc2)cc1

>  <score_type>  (1) 
oracle

>  <origin>  (1) 
adgpu

>  <m_score__min__energy>  (1) 
-10.67

>  <m_primary>  (1) 
energy

$$$$
1:0
     RDKit          3D

 64 66  0  0  0  0  0  0  0  0999 V2000
   -9.1100   18.6050  -31.8960 C   0  0  0  0  0  0  0  0  0  0  0  0
   -8.3620   19.1310  -32.9860 O   0  0  0  0  0  0  0  0  0  0  0  0
   -7.1250   19.7850  -32.8610 C   0  0  0  0  0  0  0  0  0  0  0  0
   -5.9110   19.1580  -33.2020 C   0  0  0  0  0  0  0  0  0  0  0  0
   -4.7030   19.8460  -33.0780 C   0  0  0  0  0  0  0  0  0  0  0  0
   -4.6820   21.1680  -32.6120 C   0  0  0  0  0  0  0  0  0  0  0  0
   -3.3730   21.9040  -32.4690 C   0  0  0  0  0  0  0  0  0  0  0  0
   -2.5140   21.2920  -31.3950 C   0  0  0  0  0  0  0  0  0  0  0  0
   -3.0260   20.8120  -30.2420 N   0  0  0  0  0  0  0  0  0  0  0  0
   -2.0520   20.1750  -29.6130 N   0  0  0  0  0  0  0  0  0  0  0  0
   -0.9610   20.2570  -30.3970 C   0  0  0  0  0  0  0  0  0  0  0  0
    0.5850   19.4300  -30.0030 S   0  0  0  0  0  0  0  0  0  0  0  0
    0.2720   19.3650  -28.2060 C   0  0  0  0  0  0  0  0  0  0  0  0
    0.5890   20.6800  -27.5750 C   0  0  0  0  0  0  0  0  0  0  0  0
    1.7880   21.0610  -27.4970 O   0  0  0  0  0  0  0  0  0  0  0  0
   -0.4730   21.4790  -27.0380 N   0  0  0  0  0  0  0  0  0  0  0  0
   -1.2520   22.4420  -27.7610 C   0  0  0  0  0  0  0  0  0  0  0  0
   -0.5960   23.3240  -28.6290 C   0  0  0  0  0  0  0  0  0  0  0  0
   -1.3210   24.2650  -29.3650 C   0  0  0  0  0  0  0  0  0  0  0  0
   -2.7140   24.3640  -29.2100 C   0  0  0  0  0  0  0  0  0  0  0  0
   -3.4940   25.2880  -29.9820 N   0  0  0  0  0  0  0  0  0  0  0  0
   -4.8290   25.0870  -30.4650 C   0  0  0  0  0  0  0  0  0  0  0  0
   -6.0310   25.4450  -29.6460 C   0  0  0  0  0  0  0  0  0  0  0  0
   -5.0000   24.5610  -31.5960 O   0  0  0  0  0  0  0  0  0  0  0  0
   -3.3700   23.4870  -28.3380 C   0  0  0  0  0  0  0  0  0  0  0  0
   -2.6450   22.5410  -27.6060 C   0  0  0  0  0  0  0  0  0  0  0  0
   -1.2070   20.9600  -31.5240 N   0  0  0  0  0  0  0  0  0  0  0  0
   -0.2930   21.2040  -32.6520 C   0  0  0  0  0  0  0  0  0  0  0  0
   -0.8800   20.7660  -34.0170 C   0  0  0  0  0  0  0  0  0  0  0  0
   -1.2630   19.2820  -34.0390 C   0  0  0  0  0  0  0  0  0  0  0  0
    0.0460   21.0960  -35.1930 C   0  0  0  0  0  0  0  0  0  0  0  0
   -5.8890   21.7890  -32.2550 C   0  0  0  0  0  0  0  0  0  0  0  0
   -7.1140   21.1040  -32.3810 C   0  0  0  0  0  0  0  0  0  0  0  0
   -8.3390   21.7020  -32.0430 O   0  0  0  0  0  0  0  0  0  0  0  0
   -8.5570   23.1060  -31.9610 C   0  0  0  0  0  0  0  0  0  0  0  0
   -8.6528   18.9265  -30.9485 H   0  0  0  0  0  0  0  0  0  0  0  0
  -10.1444   18.9756  -31.9484 H   0  0  0  0  0  0  0  0  0  0  0  0
   -9.1111   17.5062  -31.9484 H   0  0  0  0  0  0  0  0  0  0  0  0
   -5.9148   18.1207  -33.5680 H   0  0  0  0  0  0  0  0  0  0  0  0
   -3.7605   19.3472  -33.3479 H   0  0  0  0  0  0  0  0  0  0  0  0
   -2.8327   21.8629  -33.4263 H   0  0  0  0  0  0  0  0  0  0  0  0
   -3.5898   22.9451  -32.1879 H   0  0  0  0  0  0  0  0  0  0  0  0
   -0.7871   19.1249  -28.0310 H   0  0  0  0  0  0  0  0  0  0  0  0
    0.9137   18.5910  -27.7597 H   0  0  0  0  0  0  0  0  0  0  0  0
    0.4981   23.2756  -28.7321 H   0  0  0  0  0  0  0  0  0  0  0  0
   -0.7992   24.9307  -30.0683 H   0  0  0  0  0  0  0  0  0  0  0  0
   -5.7818   25.3708  -28.5772 H   0  0  0  0  0  0  0  0  0  0  0  0
   -6.3406   26.4743  -29.8797 H   0  0  0  0  0  0  0  0  0  0  0  0
   -6.8533   24.7528  -29.8797 H   0  0  0  0  0  0  0  0  0  0  0  0
   -4.4631   23.5423  -28.2278 H   0  0  0  0  0  0  0  0  0  0  0  0
   -3.1674   21.8720  -26.9063 H   0  0  0  0  0  0  0  0  0  0  0  0
   -0.0710   22.2805  -32.6959 H   0  0  0  0  0  0  0  0  0  0  0  0
    0.6115   20.6031  -32.4765 H   0  0  0  0  0  0  0  0  0  0  0  0
   -1.8000   21.3559  -34.1419 H   0  0  0  0  0  0  0  0  0  0  0  0
   -1.3583   18.9126  -33.0073 H   0  0  0  0  0  0  0  0  0  0  0  0
   -2.2224   19.1587  -34.5628 H   0  0  0  0  0  0  0  0  0  0  0  0
   -0.4831   18.7098  -34.5628 H   0  0  0  0  0  0  0  0  0  0  0  0
    1.0170   21.4421  -34.8092 H   0  0  0  0  0  0  0  0  0  0  0  0
    0.1943   20.1954  -35.8069 H   0  0  0  0  0  0  0  0  0  0  0  0
   -0.4087   21.8874  -35.8069 H   0  0  0  0  0  0  0  0  0  0  0  0
   -5.8786   22.8205  -31.8731 H   0  0  0  0  0  0  0  0  0  0  0  0
   -8.6040   23.4087  -30.9045 H   0  0  0  0  0  0  0  0  0  0  0  0
   -7.7302   23.6351  -32.4576 H   0  0  0  0  0  0  0  0  0  0  0  0
   -9.5053   23.3594  -32.4576 H   0  0  0  0  0  0  0  0  0  0  0  0
  1  2  1  0
  2  3  1  0
  3  4  2  0
  4  5  1  0
  5  6  2  0
  6  7  1  0
  7  8  1  0
  8  9  2  0
  9 10  1  0
 10 11  2  0
 11 12  1  0
 12 13  1  0
 13 14  1  0
 14 15  2  0
 14 16  1  0
 16 17  1  0
 17 18  2  0
 18 19  1  0
 19 20  2  0
 20 21  1  0
 21 22  1  0
 22 23  1  0
 22 24  2  0
 20 25  1  0
 25 26  2  0
 11 27  1  0
 27 28  1  0
 28 29  1  0
 29 30  1  0
 29 31  1  0
  6 32  1  0
 32 33  2  0
 33 34  1  0
 34 35  1  0
 33  3  1  0
 27  8  1  0
 26 17  1  0
  1 36  1  0
  1 37  1  0
  1 38  1  0
  4 39  1  0
  5 40  1  0
  7 41  1  0
  7 42  1  0
 13 43  1  0
 13 44  1  0
 18 45  1  0
 19 46  1  0
 23 47  1  0
 23 48  1  0
 23 49  1  0
 25 50  1  0
 26 51  1  0
 28 52  1  0
 28 53  1  0
 29 54  1  0
 30 55  1  0
 30 56  1  0
 30 57  1  0
 31 58  1  0
 31 59  1  0
 31 60  1  0
 32 61  1  0
 35 62  1  0
 35 63  1  0
 35 64  1  0
M  CHG  2  16  -1  21  -1
M  END
>  <UniqueID>  (2) 
2

>  <SMILES>  (2) 
COc1ccc(Cc2nnc(SCC(=O)[N-]c3ccc([N-]C(C)=O)cc3)n2CC(C)C)cc1OC

>  <Energy>  (2) 
94.42121106955481

>  <Genealogy>  (2) 
COc1ccc(Cc2nnc(SCC(=O)[N-]c3ccc([N-]C(C)=O)cc3)n2CC(C)C)cc1OC (protonated)
COc1ccc(Cc2nnc(SCC(=O)[N-]c3ccc([N-]C(C)=O)cc3)n2CC(C)C)cc1OC (3D coordinates assigned)
COc1ccc(Cc2nnc(SCC(=O)[N-]c3ccc([N-]C(C)=O)cc3)n2CC(C)C)cc1OC (optimized conformer: 94.42121106955481 kcal/mol)

>  <smiles>  (2) 
COc1ccc(Cc2nnc(SCC(=O)Nc3ccc(NC(C)=O)cc3)n2CC(C)C)cc1OC

>  <score_type>  (2) 
oracle

>  <origin>  (2) 
adgpu

>  <m_score__min__energy>  (2) 
-11.109999999999999

>  <m_primary>  (2) 
energy

$$$$
2:0
     RDKit          3D

 23 24  0  0  0  0  0  0  0  0999 V2000
   -5.7780   23.0680  -29.3530 O   0  0  0  0  0  0  0  0  0  0  0  0
   -4.7320   22.9340  -30.0440 C   0  0  0  0  0  0  0  0  0  0  0  0
   -4.7850   22.2150  -31.2840 N   0  0  0  0  0  0  0  0  0  0  0  0
   -5.8610   21.3880  -31.7500 C   0  0  0  0  0  0  0  0  0  0  0  0
   -5.5550   20.1530  -32.3350 C   0  0  0  0  0  0  0  0  0  0  0  0
   -6.5740   19.3270  -32.8210 C   0  0  0  0  0  0  0  0  0  0  0  0
   -7.9070   19.7390  -32.7400 C   0  0  0  0  0  0  0  0  0  0  0  0
   -8.2220   20.9810  -32.1820 C   0  0  0  0  0  0  0  0  0  0  0  0
   -9.5130   21.3890  -32.1240 F   0  0  0  0  0  0  0  0  0  0  0  0
   -7.2040   21.8090  -31.6940 C   0  0  0  0  0  0  0  0  0  0  0  0
   -3.4350   23.4700  -29.5430 C   0  0  0  0  0  0  0  0  0  0  0  0
   -3.0450   24.8020  -29.8030 C   0  0  0  0  0  0  0  0  0  0  0  0
   -3.8660   25.6650  -30.5200 O   0  0  0  0  0  0  0  0  0  0  0  0
   -1.8590   25.2680  -29.3360 N   0  0  0  0  0  0  0  0  0  0  0  0
   -1.0250   24.4780  -28.6180 C   0  0  0  0  0  0  0  0  0  0  0  0
    0.0690   24.9350  -28.1970 O   0  0  0  0  0  0  0  0  0  0  0  0
   -1.3690   23.1930  -28.3550 N   0  0  0  0  0  0  0  0  0  0  0  0
   -2.5420   22.6720  -28.7960 C   0  0  0  0  0  0  0  0  0  0  0  0
   -2.8050   21.4680  -28.5380 O   0  0  0  0  0  0  0  0  0  0  0  0
   -4.5063   19.8303  -32.4129 H   0  0  0  0  0  0  0  0  0  0  0  0
   -6.3260   18.3526  -33.2672 H   0  0  0  0  0  0  0  0  0  0  0  0
   -8.7083   19.0856  -33.1155 H   0  0  0  0  0  0  0  0  0  0  0  0
   -7.4536   22.7910  -31.2657 H   0  0  0  0  0  0  0  0  0  0  0  0
  1  2  2  0
  2  3  1  0
  3  4  1  0
  4  5  2  0
  5  6  1  0
  6  7  2  0
  7  8  1  0
  8  9  1  0
  8 10  2  0
  2 11  1  0
 11 12  2  0
 12 13  1  0
 12 14  1  0
 14 15  1  0
 15 16  2  0
 15 17  1  0
 17 18  1  0
 18 19  2  0
 10  4  1  0
 18 11  1  0
  5 20  1  0
  6 21  1  0
  7 22  1  0
 10 23  1  0
M  CHG  4   3  -1  13  -1  14  -1  17  -1
M  END
>  <UniqueID>  (3) 
3

>  <SMILES>  (3) 
O=C([N-]c1cccc(F)c1)c1c([O-])[n-]c(=O)[n-]c1=O

>  <Energy>  (3) 
33.49078662371699

>  <Genealogy>  (3) 
O=C([N-]c1cccc(F)c1)c1c([O-])[n-]c(=O)[n-]c1=O (protonated)
O=C([N-]c1cccc(F)c1)c1c([O-])[n-]c(=O)[n-]c1=O (3D coordinates assigned)
O=C([N-]c1cccc(F)c1)c1c([O-])[n-]c(=O)[n-]c1=O (optimized conformer: 33.49078662371699 kcal/mol)

>  <smiles>  (3) 
O=C(Nc1cccc(F)c1)c1c(O)[nH]c(=O)[nH]c1=O

>  <score_type>  (3) 
oracle

>  <origin>  (3) 
adgpu

>  <m_score__min__energy>  (3) 
-11.83

>  <m_primary>  (3) 
energy

$$$$
3:0
     RDKit          3D

 37 39  0  0  0  0  0  0  0  0999 V2000
   -8.7440   21.0820  -32.0990 C   0  0  0  0  0  0  0  0  0  0  0  0
   -7.3670   21.4930  -31.6430 C   0  0  0  0  0  0  0  0  0  0  0  0
   -7.2190   22.7040  -30.9490 C   0  0  0  0  0  0  0  0  0  0  0  0
   -5.9680   23.1110  -30.4870 C   0  0  0  0  0  0  0  0  0  0  0  0
   -4.8370   22.3130  -30.6980 C   0  0  0  0  0  0  0  0  0  0  0  0
   -3.5560   22.7630  -30.2210 N   0  0  0  0  0  0  0  0  0  0  0  0
   -3.1850   24.1470  -30.1200 C   0  0  0  0  0  0  0  0  0  0  0  0
   -3.8380   25.0270  -30.7440 O   0  0  0  0  0  0  0  0  0  0  0  0
   -2.0160   24.5600  -29.3250 C   0  0  0  0  0  0  0  0  0  0  0  0
   -0.8130   23.8980  -29.2160 C   0  0  0  0  0  0  0  0  0  0  0  0
   -0.0050   24.5910  -28.3940 N   0  0  0  0  0  0  0  0  0  0  0  0
   -0.7540   25.6490  -28.0150 C   0  0  0  0  0  0  0  0  0  0  0  0
   -0.2370   26.7390  -27.1340 C   0  0  0  0  0  0  0  0  0  0  0  0
   -0.9040   26.7060  -25.9240 F   0  0  0  0  0  0  0  0  0  0  0  0
   -0.4420   27.9690  -27.7340 F   0  0  0  0  0  0  0  0  0  0  0  0
    1.1170   26.5670  -26.9130 F   0  0  0  0  0  0  0  0  0  0  0  0
   -1.9840   25.6740  -28.5720 N   0  0  0  0  0  0  0  0  0  0  0  0
   -4.9690   21.1220  -31.4310 C   0  0  0  0  0  0  0  0  0  0  0  0
   -6.2210   20.7060  -31.9150 C   0  0  0  0  0  0  0  0  0  0  0  0
   -6.2960   19.4530  -32.7000 C   0  0  0  0  0  0  0  0  0  0  0  0
   -6.7910   18.2720  -32.1260 C   0  0  0  0  0  0  0  0  0  0  0  0
   -6.8660   17.1050  -32.8870 C   0  0  0  0  0  0  0  0  0  0  0  0
   -6.4540   17.1290  -34.2210 C   0  0  0  0  0  0  0  0  0  0  0  0
   -5.9900   18.2850  -34.7690 N   0  0  0  0  0  0  0  0  0  0  0  0
   -5.9060   19.4350  -34.0480 C   0  0  0  0  0  0  0  0  0  0  0  0
   -9.3795   20.8923  -31.2214 H   0  0  0  0  0  0  0  0  0  0  0  0
   -9.1855   21.8875  -32.7042 H   0  0  0  0  0  0  0  0  0  0  0  0
   -8.6717   20.1663  -32.7042 H   0  0  0  0  0  0  0  0  0  0  0  0
   -8.0991   23.3385  -30.7677 H   0  0  0  0  0  0  0  0  0  0  0  0
   -5.8687   24.0671  -29.9522 H   0  0  0  0  0  0  0  0  0  0  0  0
   -2.8260   22.0400  -30.0390 H   0  0  0  0  0  0  0  0  0  0  0  0
   -0.5549   22.9549  -29.7199 H   0  0  0  0  0  0  0  0  0  0  0  0
   -4.0794   20.5060  -31.6290 H   0  0  0  0  0  0  0  0  0  0  0  0
   -7.1198   18.2663  -31.0763 H   0  0  0  0  0  0  0  0  0  0  0  0
   -7.2462   16.1745  -32.4402 H   0  0  0  0  0  0  0  0  0  0  0  0
   -6.5045   16.2136  -34.8288 H   0  0  0  0  0  0  0  0  0  0  0  0
   -5.5313   20.3538  -34.5228 H   0  0  0  0  0  0  0  0  0  0  0  0
  1  2  1  0
  2  3  2  0
  3  4  1  0
  4  5  2  0
  5  6  1  0
  6  7  1  0
  7  8  2  0
  7  9  1  0
  9 10  2  0
 10 11  1  0
 11 12  1  0
 12 13  1  0
 13 14  1  0
 13 15  1  0
 13 16  1  0
 12 17  2  0
  5 18  1  0
 18 19  2  0
 19 20  1  0
 20 21  2  0
 21 22  1  0
 22 23  2  0
 23 24  1  0
 24 25  2  0
 19  2  1  0
 25 20  1  0
 17  9  1  0
  1 26  1  0
  1 27  1  0
  1 28  1  0
  3 29  1  0
  4 30  1  0
  6 31  1  0
 10 32  1  0
 18 33  1  0
 21 34  1  0
 22 35  1  0
 23 36  1  0
 25 37  1  0
M  CHG  1  11  -1
M  END
>  <UniqueID>  (4) 
4

>  <SMILES>  (4) 
Cc1ccc(NC(=O)c2c[n-]c(C(F)(F)F)n2)cc1-c1cccnc1

>  <Energy>  (4) 
76.89665993838297

>  <Genealogy>  (4) 
Cc1ccc(NC(=O)c2c[n-]c(C(F)(F)F)n2)cc1-c1cccnc1 (protonated)
Cc1ccc(NC(=O)c2c[n-]c(C(F)(F)F)n2)cc1-c1cccnc1 (3D coordinates assigned)
Cc1ccc(NC(=O)c2c[n-]c(C(F)(F)F)n2)cc1-c1cccnc1 (optimized conformer: 76.89665993838297 kcal/mol)

>  <smiles>  (4) 
Cc1ccc(NC(=O)c2c[nH]c(C(F)(F)F)n2)cc1-c1cccnc1

>  <score_type>  (4) 
oracle

>  <origin>  (4) 
adgpu

>  <m_score__min__energy>  (4) 
-9.4499999999999993

>  <m_primary>  (4) 
energy

$$$$
4:0
     RDKit          3D

 32 33  0  0  0  0  0  0  0  0999 V2000
   -3.2340   21.8930  -32.3190 C   0  0  0  0  0  0  0  0  0  0  0  0
   -4.0430   22.4880  -31.2570 N   0  0  0  0  0  0  0  0  0  0  0  0
   -3.4860   22.5460  -29.9050 C   0  0  0  0  0  0  0  0  0  0  0  0
   -5.4680   22.5840  -31.4230 C   0  0  0  0  0  0  0  0  0  0  0  0
   -6.1810   21.4670  -31.8890 C   0  0  0  0  0  0  0  0  0  0  0  0
   -7.5740   21.5030  -31.9870 C   0  0  0  0  0  0  0  0  0  0  0  0
   -8.4710   20.0640  -32.5670 S   0  0  0  0  0  0  0  0  0  0  0  0
   -6.9850   19.2770  -33.1940 C   0  0  0  0  0  0  0  0  0  0  0  0
   -6.4180   19.5930  -34.3720 N   0  0  0  0  0  0  0  0  0  0  0  0
   -5.3340   18.8400  -34.4910 N   0  0  0  0  0  0  0  0  0  0  0  0
   -5.2570   18.0740  -33.3840 C   0  0  0  0  0  0  0  0  0  0  0  0
   -6.2910   18.3150  -32.5590 N   0  0  0  0  0  0  0  0  0  0  0  0
   -6.5070   17.7580  -31.2290 C   0  0  0  0  0  0  0  0  0  0  0  0
   -8.2670   22.6610  -31.6290 C   0  0  0  0  0  0  0  0  0  0  0  0
   -7.5710   23.7800  -31.1700 C   0  0  0  0  0  0  0  0  0  0  0  0
   -6.1670   23.7640  -31.0690 C   0  0  0  0  0  0  0  0  0  0  0  0
   -5.4700   24.9470  -30.6340 N   0  0  0  0  0  0  0  0  0  0  0  0
   -6.0190   25.7490  -29.8500 O   0  0  0  0  0  0  0  0  0  0  0  0
   -4.2450   25.2780  -31.1640 O   0  0  0  0  0  0  0  0  0  0  0  0
   -2.4240   21.2973  -31.8729 H   0  0  0  0  0  0  0  0  0  0  0  0
   -3.8667   21.2434  -32.9417 H   0  0  0  0  0  0  0  0  0  0  0  0
   -2.8024   22.6905  -32.9417 H   0  0  0  0  0  0  0  0  0  0  0  0
   -4.2994   22.4613  -29.1694 H   0  0  0  0  0  0  0  0  0  0  0  0
   -2.7769   21.7168  -29.7647 H   0  0  0  0  0  0  0  0  0  0  0  0
   -2.9630   23.5035  -29.7647 H   0  0  0  0  0  0  0  0  0  0  0  0
   -5.6375   20.5558  -32.1794 H   0  0  0  0  0  0  0  0  0  0  0  0
   -4.4550   17.3485  -33.1827 H   0  0  0  0  0  0  0  0  0  0  0  0
   -6.2193   18.5000  -30.4696 H   0  0  0  0  0  0  0  0  0  0  0  0
   -7.5697   17.5016  -31.1070 H   0  0  0  0  0  0  0  0  0  0  0  0
   -5.8950   16.8522  -31.1070 H   0  0  0  0  0  0  0  0  0  0  0  0
   -9.3637   22.6913  -31.7089 H   0  0  0  0  0  0  0  0  0  0  0  0
   -8.1261   24.6855  -30.8837 H   0  0  0  0  0  0  0  0  0  0  0  0
  1  2  1  0
  2  3  1  0
  2  4  1  0
  4  5  2  0
  5  6  1  0
  6  7  1  0
  7  8  1  0
  8  9  2  0
  9 10  1  0
 10 11  2  0
 11 12  1  0
 12 13  1  0
  6 14  2  0
 14 15  1  0
 15 16  2  0
 16 17  1  0
 17 18  2  0
 17 19  1  0
 16  4  1  0
 12  8  1  0
  1 20  1  0
  1 21  1  0
  1 22  1  0
  3 23  1  0
  3 24  1  0
  3 25  1  0
  5 26  1  0
 11 27  1  0
 13 28  1  0
 13 29  1  0
 13 30  1  0
 14 31  1  0
 15 32  1  0
M  CHG  2  17   1  19  -1
M  END
>  <UniqueID>  (5) 
5

>  <SMILES>  (5) 
CN(C)c1cc(Sc2nncn2C)ccc1[N+](=O)[O-]

>  <Energy>  (5) 
68.47886554724761

>  <Genealogy>  (5) 
CN(C)c1cc(Sc2nncn2C)ccc1[N+](=O)[O-] (3D coordinates assigned)
CN(C)c1cc(Sc2nncn2C)ccc1[N+](=O)[O-] (optimized conformer: 68.47886554724761 kcal/mol)

>  <smiles>  (5) 
CN(C)c1cc(Sc2nncn2C)ccc1[N+](=O)[O-]

>  <score_type>  (5) 
oracle

>  <origin>  (5) 
adgpu

>  <m_score__min__energy>  (5) 
-7.5700000000000003

>  <m_primary>  (5) 
energy

$$$$
5:0
     RDKit          3D

 43 45  0  0  0  0  0  0  0  0999 V2000
   -2.3706   23.0278  -27.9779 H   0  0  0  0  0  0  0  0  0  0  0  0
   -3.1010   23.1860  -28.7850 C   0  0  0  0  0  0  0  0  0  0  0  0
   -3.0380   24.3380  -29.5770 C   0  0  0  0  0  0  0  0  0  0  0  0
   -1.9930   25.2930  -29.3340 N   0  0  0  0  0  0  0  0  0  0  0  0
   -1.5650   25.7540  -28.1940 C   0  0  0  0  0  0  0  0  0  0  0  0
   -0.6000   26.6900  -28.1180 N   0  0  0  0  0  0  0  0  0  0  0  0
   -0.3820   26.9350  -26.8380 N   0  0  0  0  0  0  0  0  0  0  0  0
    0.3090   27.6320  -26.4820 H   0  0  0  0  0  0  0  0  0  0  0  0
   -1.1840   26.1540  -26.0910 C   0  0  0  0  0  0  0  0  0  0  0  0
   -1.2550   26.1980  -24.6010 C   0  0  0  0  0  0  0  0  0  0  0  0
   -0.3923   25.6634  -24.1769 H   0  0  0  0  0  0  0  0  0  0  0  0
   -1.2394   27.2450  -24.2639 H   0  0  0  0  0  0  0  0  0  0  0  0
   -2.1856   25.7181  -24.2639 H   0  0  0  0  0  0  0  0  0  0  0  0
   -1.9730   25.3810  -26.9180 C   0  0  0  0  0  0  0  0  0  0  0  0
   -2.7409   24.6458  -26.6356 H   0  0  0  0  0  0  0  0  0  0  0  0
   -3.9350   24.5050  -30.5880 N   0  0  0  0  0  0  0  0  0  0  0  0
   -4.9150   23.5970  -30.8470 C   0  0  0  0  0  0  0  0  0  0  0  0
   -5.9040   23.8720  -31.9410 C   0  0  0  0  0  0  0  0  0  0  0  0
   -5.8321   24.9299  -32.2335 H   0  0  0  0  0  0  0  0  0  0  0  0
   -5.6720   23.2196  -32.7957 H   0  0  0  0  0  0  0  0  0  0  0  0
   -7.6090   23.5200  -31.3850 S   0  0  0  0  0  0  0  0  0  0  0  0
   -7.5780   21.7880  -31.8590 C   0  0  0  0  0  0  0  0  0  0  0  0
   -8.5590   20.9110  -31.3870 C   0  0  0  0  0  0  0  0  0  0  0  0
   -9.3405   21.2767  -30.7047 H   0  0  0  0  0  0  0  0  0  0  0  0
   -8.5480   19.5700  -31.7810 C   0  0  0  0  0  0  0  0  0  0  0  0
   -9.3244   18.8860  -31.4078 H   0  0  0  0  0  0  0  0  0  0  0  0
   -7.5570   19.0890  -32.6470 C   0  0  0  0  0  0  0  0  0  0  0  0
   -7.6010   17.7380  -33.0180 O   0  0  0  0  0  0  0  0  0  0  0  0
   -6.2950   16.8760  -33.7090 S   0  0  0  0  0  0  0  0  0  0  0  0
   -5.1900   16.7290  -32.7020 O   0  0  0  0  0  0  0  0  0  0  0  0
   -5.7830   17.6070  -34.9180 O   0  0  0  0  0  0  0  0  0  0  0  0
   -6.8610   15.2630  -34.1980 C   0  0  0  0  0  0  0  0  0  0  0  0
   -7.0722   14.6612  -33.3017 H   0  0  0  0  0  0  0  0  0  0  0  0
   -7.7780   15.3623  -34.7974 H   0  0  0  0  0  0  0  0  0  0  0  0
   -6.0830   14.7675  -34.7974 H   0  0  0  0  0  0  0  0  0  0  0  0
   -6.5630   19.9740  -33.1080 C   0  0  0  0  0  0  0  0  0  0  0  0
   -5.7742   19.6088  -33.7822 H   0  0  0  0  0  0  0  0  0  0  0  0
   -6.5750   21.3150  -32.7120 C   0  0  0  0  0  0  0  0  0  0  0  0
   -5.7934   22.0001  -33.0723 H   0  0  0  0  0  0  0  0  0  0  0  0
   -5.0150   22.4420  -30.0590 C   0  0  0  0  0  0  0  0  0  0  0  0
   -5.8075   21.7039  -30.2520 H   0  0  0  0  0  0  0  0  0  0  0  0
   -4.0980   22.2390  -29.0270 C   0  0  0  0  0  0  0  0  0  0  0  0
   -4.1605   21.3340  -28.4049 H   0  0  0  0  0  0  0  0  0  0  0  0
  1  2  1  0
  2  3  2  0
  3  4  1  0
  4  5  2  0
  5  6  1  0
  6  7  1  0
  7  8  1  0
  7  9  1  0
  9 10  1  0
 10 11  1  0
 10 12  1  0
 10 13  1  0
  9 14  2  0
 14 15  1  0
  3 16  1  0
 16 17  2  0
 17 18  1  0
 18 19  1  0
 18 20  1  0
 18 21  1  0
 21 22  1  0
 22 23  2  0
 23 24  1  0
 23 25  1  0
 25 26  1  0
 25 27  2  0
 27 28  1  0
 28 29  1  0
 29 30  2  0
 29 31  2  0
 29 32  1  0
 32 33  1  0
 32 34  1  0
 32 35  1  0
 27 36  1  0
 36 37  1  0
 36 38  2  0
 38 39  1  0
 17 40  1  0
 40 41  1  0
 40 42  2  0
 42 43  1  0
 42  2  1  0
 14  5  1  0
 38 22  1  0
M  CHG  1   6  -1
M  END
>  <UniqueID>  (6) 
6

>  <SMILES>  (6) 
Cc1c/c(=N\c2cccc(CSc3ccc(OS(C)(=O)=O)cc3)n2)[n-][nH]1

>  <Energy>  (6) 
69.02847454440112

>  <Genealogy>  (6) 
Cc1cc(=Nc2cccc(CSc3ccc(OS(C)(=O)=O)cc3)n2)[n-][nH]1 (protonated)
Cc1c/c(=N\c2cccc(CSc3ccc(OS(C)(=O)=O)cc3)n2)[n-][nH]1 (cis-trans isomerization)
Cc1c/c(=N\c2cccc(CSc3ccc(OS(C)(=O)=O)cc3)n2)[n-][nH]1 (3D coordinates assigned)
Cc1c/c(=N\c2cccc(CSc3ccc(OS(C)(=O)=O)cc3)n2)[n-][nH]1 (optimized conformer: 69.02847454440112 kcal/mol)

>  <smiles>  (6) 
Cc1cc(=Nc2cccc(CSc3ccc(OS(C)(=O)=O)cc3)n2)[nH][nH]1

>  <score_type>  (6) 
oracle

>  <origin>  (6) 
adgpu

>  <m_score__min__energy>  (6) 
-10.81

>  <m_primary>  (6) 
energy

$$$$
6:0
     RDKit          3D

 43 44  0  0  0  0  0  0  0  0999 V2000
   -3.2540   16.1530  -35.5240 C   0  0  0  0  0  0  0  0  0  0  0  0
   -3.3800   17.3860  -34.6790 C   0  0  0  0  0  0  0  0  0  0  0  0
   -2.3800   18.1470  -34.5800 O   0  0  0  0  0  0  0  0  0  0  0  0
   -4.6400   17.7250  -33.9650 C   0  0  0  0  0  0  0  0  0  0  0  0
   -5.7790   16.9150  -34.1250 C   0  0  0  0  0  0  0  0  0  0  0  0
   -6.9720   17.2270  -33.4690 C   0  0  0  0  0  0  0  0  0  0  0  0
   -7.0450   18.3440  -32.6370 C   0  0  0  0  0  0  0  0  0  0  0  0
   -5.9160   19.1580  -32.4440 C   0  0  0  0  0  0  0  0  0  0  0  0
   -5.9730   20.3290  -31.6100 N   0  0  0  0  0  0  0  0  0  0  0  0
   -6.7560   21.4930  -31.9230 C   0  0  0  0  0  0  0  0  0  0  0  0
   -7.7330   21.3960  -32.7150 O   0  0  0  0  0  0  0  0  0  0  0  0
   -6.4610   22.8010  -31.2880 C   0  0  0  0  0  0  0  0  0  0  0  0
   -7.4960   23.6120  -30.7880 C   0  0  0  0  0  0  0  0  0  0  0  0
   -7.2050   24.8460  -30.1990 C   0  0  0  0  0  0  0  0  0  0  0  0
   -5.8820   25.2760  -30.0880 C   0  0  0  0  0  0  0  0  0  0  0  0
   -4.8360   24.4680  -30.5420 C   0  0  0  0  0  0  0  0  0  0  0  0
   -3.4890   24.9490  -30.4350 N   0  0  0  0  0  0  0  0  0  0  0  0
   -2.5930   24.7400  -29.3350 C   0  0  0  0  0  0  0  0  0  0  0  0
   -1.6180   25.5260  -29.1950 O   0  0  0  0  0  0  0  0  0  0  0  0
   -2.8600   23.6940  -28.2760 C   0  0  0  0  0  0  0  0  0  0  0  0
   -1.5560   23.2700  -27.5890 C   0  0  0  0  0  0  0  0  0  0  0  0
   -3.8620   24.2300  -27.2500 C   0  0  0  0  0  0  0  0  0  0  0  0
   -5.1300   23.2420  -31.1630 C   0  0  0  0  0  0  0  0  0  0  0  0
   -4.7260   18.8530  -33.1230 C   0  0  0  0  0  0  0  0  0  0  0  0
   -3.1638   15.2704  -34.8736 H   0  0  0  0  0  0  0  0  0  0  0  0
   -4.1464   16.0509  -36.1590 H   0  0  0  0  0  0  0  0  0  0  0  0
   -2.3594   16.2335  -36.1590 H   0  0  0  0  0  0  0  0  0  0  0  0
   -5.7296   16.0274  -34.7729 H   0  0  0  0  0  0  0  0  0  0  0  0
   -7.8573   16.5893  -33.6091 H   0  0  0  0  0  0  0  0  0  0  0  0
   -7.9900   18.5887  -32.1300 H   0  0  0  0  0  0  0  0  0  0  0  0
   -5.5130   20.2840  -30.6730 H   0  0  0  0  0  0  0  0  0  0  0  0
   -8.5400   23.2733  -30.8609 H   0  0  0  0  0  0  0  0  0  0  0  0
   -8.0212   25.4798  -29.8220 H   0  0  0  0  0  0  0  0  0  0  0  0
   -5.6613   26.2564  -29.6407 H   0  0  0  0  0  0  0  0  0  0  0  0
   -3.2920   22.8061  -28.7607 H   0  0  0  0  0  0  0  0  0  0  0  0
   -1.6860   23.3123  -26.4975 H   0  0  0  0  0  0  0  0  0  0  0  0
   -1.3011   22.2427  -27.8884 H   0  0  0  0  0  0  0  0  0  0  0  0
   -0.7456   23.9509  -27.8884 H   0  0  0  0  0  0  0  0  0  0  0  0
   -3.4891   24.0305  -26.2345 H   0  0  0  0  0  0  0  0  0  0  0  0
   -3.9848   25.3142  -27.3892 H   0  0  0  0  0  0  0  0  0  0  0  0
   -4.8320   23.7303  -27.3892 H   0  0  0  0  0  0  0  0  0  0  0  0
   -4.3116   22.6206  -31.5554 H   0  0  0  0  0  0  0  0  0  0  0  0
   -3.8478   19.5032  -32.9965 H   0  0  0  0  0  0  0  0  0  0  0  0
  1  2  1  0
  2  3  2  0
  2  4  1  0
  4  5  2  0
  5  6  1  0
  6  7  2  0
  7  8  1  0
  8  9  1  0
  9 10  1  0
 10 11  2  0
 10 12  1  0
 12 13  2  0
 13 14  1  0
 14 15  2  0
 15 16  1  0
 16 17  1  0
 17 18  1  0
 18 19  2  0
 18 20  1  0
 20 21  1  0
 20 22  1  0
 16 23  2  0
  8 24  2  0
 24  4  1  0
 23 12  1  0
  1 25  1  0
  1 26  1  0
  1 27  1  0
  5 28  1  0
  6 29  1  0
  7 30  1  0
  9 31  1  0
 13 32  1  0
 14 33  1  0
 15 34  1  0
 20 35  1  0
 21 36  1  0
 21 37  1  0
 21 38  1  0
 22 39  1  0
 22 40  1  0
 22 41  1  0
 23 42  1  0
 24 43  1  0
M  CHG  1  17  -1
M  END
>  <UniqueID>  (7) 
7

>  <SMILES>  (7) 
CC(=O)c1cccc(NC(=O)c2cccc([N-]C(=O)C(C)C)c2)c1

>  <Energy>  (7) 
49.37411423586441

>  <Genealogy>  (7) 
CC(=O)c1cccc(NC(=O)c2cccc([N-]C(=O)C(C)C)c2)c1 (protonated)
CC(=O)c1cccc(NC(=O)c2cccc([N-]C(=O)C(C)C)c2)c1 (3D coordinates assigned)
CC(=O)c1cccc(NC(=O)c2cccc([N-]C(=O)C(C)C)c2)c1 (optimized conformer: 49.37411423586441 kcal/mol)

>  <smiles>  (7) 
CC(=O)c1cccc(NC(=O)c2cccc(NC(=O)C(C)C)c2)c1

>  <score_type>  (7) 
oracle

>  <origin>  (7) 
adgpu

>  <m_score__min__energy>  (7) 
-10.17

>  <m_primary>  (7) 
energy

$$$$
7:0
     RDKit          3D

 64 66  0  0  0  0  0  0  0  0999 V2000
   -3.9175   24.0744  -27.8625 H   0  0  0  0  0  0  0  0  0  0  0  0
   -3.2600   24.3820  -28.6890 C   0  0  0  0  0  0  0  0  0  0  0  0
   -3.7500   24.2560  -30.0760 C   0  0  0  0  0  0  0  0  0  0  0  0
   -3.9090   25.2830  -30.7910 O   0  0  0  0  0  0  0  0  0  0  0  0
   -4.0580   22.9180  -30.6160 C   0  0  0  0  0  0  0  0  0  0  0  0
   -4.4289   22.1416  -29.9307 H   0  0  0  0  0  0  0  0  0  0  0  0
   -3.9020   22.6160  -31.9100 C   0  0  0  0  0  0  0  0  0  0  0  0
   -3.5720   23.4010  -32.6064 H   0  0  0  0  0  0  0  0  0  0  0  0
   -4.1610   21.2560  -32.4300 C   0  0  0  0  0  0  0  0  0  0  0  0
   -5.3710   20.6250  -32.0790 C   0  0  0  0  0  0  0  0  0  0  0  0
   -6.2970   21.3300  -31.2890 O   0  0  0  0  0  0  0  0  0  0  0  0
   -7.5500   21.8190  -31.7540 C   0  0  0  0  0  0  0  0  0  0  0  0
   -8.1885   22.0682  -30.8936 H   0  0  0  0  0  0  0  0  0  0  0  0
   -7.3885   22.7201  -32.3639 H   0  0  0  0  0  0  0  0  0  0  0  0
   -8.0415   21.0467  -32.3639 H   0  0  0  0  0  0  0  0  0  0  0  0
   -5.6280   19.3180  -32.5300 C   0  0  0  0  0  0  0  0  0  0  0  0
   -6.5744   18.8274  -32.2585 H   0  0  0  0  0  0  0  0  0  0  0  0
   -4.7000   18.6340  -33.3170 C   0  0  0  0  0  0  0  0  0  0  0  0
   -5.0130   17.3320  -33.7330 O   0  0  0  0  0  0  0  0  0  0  0  0
   -6.3370   16.8180  -33.8460 C   0  0  0  0  0  0  0  0  0  0  0  0
   -6.7544   16.6560  -32.8413 H   0  0  0  0  0  0  0  0  0  0  0  0
   -6.9644   17.5379  -34.3920 H   0  0  0  0  0  0  0  0  0  0  0  0
   -6.3144   15.8633  -34.3920 H   0  0  0  0  0  0  0  0  0  0  0  0
   -3.4920   19.2620  -33.6570 C   0  0  0  0  0  0  0  0  0  0  0  0
   -2.7657   18.7338  -34.2922 H   0  0  0  0  0  0  0  0  0  0  0  0
   -3.1980   20.5560  -33.1970 C   0  0  0  0  0  0  0  0  0  0  0  0
   -1.8750   21.1500  -33.5110 C   0  0  0  0  0  0  0  0  0  0  0  0
   -1.7141   21.5358  -34.5285 H   0  0  0  0  0  0  0  0  0  0  0  0
   -0.8610   21.2480  -32.6360 C   0  0  0  0  0  0  0  0  0  0  0  0
    0.1093   21.5981  -33.0181 H   0  0  0  0  0  0  0  0  0  0  0  0
   -0.9520   20.9200  -31.1960 C   0  0  0  0  0  0  0  0  0  0  0  0
   -1.1520   21.9170  -30.2260 C   0  0  0  0  0  0  0  0  0  0  0  0
   -1.2501   22.9682  -30.5348 H   0  0  0  0  0  0  0  0  0  0  0  0
   -1.2270   21.5810  -28.8710 C   0  0  0  0  0  0  0  0  0  0  0  0
   -1.3985   22.3668  -28.1206 H   0  0  0  0  0  0  0  0  0  0  0  0
   -1.0840   20.2420  -28.4630 C   0  0  0  0  0  0  0  0  0  0  0  0
   -1.1540   19.8540  -27.1180 O   0  0  0  0  0  0  0  0  0  0  0  0
   -2.3310   19.3570  -26.4850 C   0  0  0  0  0  0  0  0  0  0  0  0
   -2.2095   19.4083  -25.3929 H   0  0  0  0  0  0  0  0  0  0  0  0
   -3.1951   19.9670  -26.7869 H   0  0  0  0  0  0  0  0  0  0  0  0
   -2.4964   18.3122  -26.7869 H   0  0  0  0  0  0  0  0  0  0  0  0
   -0.8580   19.2550  -29.4300 C   0  0  0  0  0  0  0  0  0  0  0  0
   -0.7393   18.2060  -29.1210 H   0  0  0  0  0  0  0  0  0  0  0  0
   -0.7820   19.5910  -30.7840 C   0  0  0  0  0  0  0  0  0  0  0  0
   -0.5875   18.8077  -31.5314 H   0  0  0  0  0  0  0  0  0  0  0  0
   -2.0400   24.8590  -28.4040 C   0  0  0  0  0  0  0  0  0  0  0  0
   -1.3916   25.1647  -29.2384 H   0  0  0  0  0  0  0  0  0  0  0  0
   -1.5190   24.9960  -27.0220 C   0  0  0  0  0  0  0  0  0  0  0  0
   -1.3970   26.2470  -26.3860 C   0  0  0  0  0  0  0  0  0  0  0  0
   -1.7238   27.1585  -26.9080 H   0  0  0  0  0  0  0  0  0  0  0  0
   -0.8620   26.3400  -25.0920 C   0  0  0  0  0  0  0  0  0  0  0  0
   -0.7560   27.6740  -24.4150 C   0  0  0  0  0  0  0  0  0  0  0  0
   -0.7672   27.5335  -23.3241 H   0  0  0  0  0  0  0  0  0  0  0  0
    0.1838   28.1624  -24.7122 H   0  0  0  0  0  0  0  0  0  0  0  0
   -1.6069   28.3046  -24.7122 H   0  0  0  0  0  0  0  0  0  0  0  0
   -0.4800   25.1740  -24.4150 C   0  0  0  0  0  0  0  0  0  0  0  0
   -0.0843   25.2415  -23.3909 H   0  0  0  0  0  0  0  0  0  0  0  0
   -0.5990   23.9210  -25.0350 C   0  0  0  0  0  0  0  0  0  0  0  0
   -0.1360   22.6800  -24.3290 C   0  0  0  0  0  0  0  0  0  0  0  0
   -0.1934   22.8339  -23.2413 H   0  0  0  0  0  0  0  0  0  0  0  0
   -0.7791   21.8344  -24.6141 H   0  0  0  0  0  0  0  0  0  0  0  0
    0.9039   22.4623  -24.6141 H   0  0  0  0  0  0  0  0  0  0  0  0
   -1.0920   23.8420  -26.3450 C   0  0  0  0  0  0  0  0  0  0  0  0
   -1.1450   22.8653  -26.8482 H   0  0  0  0  0  0  0  0  0  0  0  0
  1  2  1  0
  2  3  1  0
  3  4  2  0
  3  5  1  0
  5  6  1  0
  5  7  2  0
  7  8  1  0
  7  9  1  0
  9 10  2  0
 10 11  1  0
 11 12  1  0
 12 13  1  0
 12 14  1  0
 12 15  1  0
 10 16  1  0
 16 17  1  0
 16 18  2  0
 18 19  1  0
 19 20  1  0
 20 21  1  0
 20 22  1  0
 20 23  1  0
 18 24  1  0
 24 25  1  0
 24 26  2  0
 26 27  1  0
 27 28  1  0
 27 29  2  3
 29 30  1  0
 29 31  1  0
 31 32  2  0
 32 33  1  0
 32 34  1  0
 34 35  1  0
 34 36  2  0
 36 37  1  0
 37 38  1  0
 38 39  1  0
 38 40  1  0
 38 41  1  0
 36 42  1  0
 42 43  1  0
 42 44  2  0
 44 45  1  0
  2 46  2  3
 46 47  1  0
 46 48  1  0
 48 49  2  0
 49 50  1  0
 49 51  1  0
 51 52  1  0
 52 53  1  0
 52 54  1  0
 52 55  1  0
 51 56  2  0
 56 57  1  0
 56 58  1  0
 58 59  1  0
 59 60  1  0
 59 61  1  0
 59 62  1  0
 58 63  2  0
 63 64  1  0
 26  9  1  0
 44 31  1  0
 63 48  1  0
M  END
>  <UniqueID>  (8) 
8

>  <SMILES>  (8) 
COc1ccc(C=Cc2cc(OC)cc(OC)c2/C=C/C(=O)C=Cc2cc(C)cc(C)c2)cc1

>  <Energy>  (8) 
80.2959147348817

>  <Genealogy>  (8) 
COc1ccc(C=Cc2cc(OC)cc(OC)c2/C=C/C(=O)C=Cc2cc(C)cc(C)c2)cc1 (cis-trans isomerization)
COc1ccc(C=Cc2cc(OC)cc(OC)c2/C=C/C(=O)C=Cc2cc(C)cc(C)c2)cc1 (3D coordinates assigned)
COc1ccc(C=Cc2cc(OC)cc(OC)c2/C=C/C(=O)C=Cc2cc(C)cc(C)c2)cc1 (optimized conformer: 80.2959147348817 kcal/mol)

>  <smiles>  (8) 
COc1ccc(C=Cc2cc(OC)cc(OC)c2C=CC(=O)C=Cc2cc(C)cc(C)c2)cc1

>  <score_type>  (8) 
oracle

>  <origin>  (8) 
adgpu

>  <m_score__min__energy>  (8) 
-9.6099999999999994

>  <m_primary>  (8) 
energy

$$$$
8:0
     RDKit          3D

 48 51  0  0  0  0  0  0  0  0999 V2000
   -9.5210   19.4890  -33.1190 O   0  0  0  0  0  0  0  0  0  0  0  0
   -8.3030   19.3730  -32.2450 S   0  0  0  0  0  0  0  0  0  0  0  0
   -8.7060   18.6780  -30.9740 O   0  0  0  0  0  0  0  0  0  0  0  0
   -7.0600   18.4420  -33.0700 C   0  0  0  0  0  0  0  0  0  0  0  0
   -6.9170   17.0710  -32.8130 C   0  0  0  0  0  0  0  0  0  0  0  0
   -5.9430   16.3280  -33.4860 C   0  0  0  0  0  0  0  0  0  0  0  0
   -5.1110   16.9480  -34.4220 C   0  0  0  0  0  0  0  0  0  0  0  0
   -5.2550   18.3130  -34.6900 C   0  0  0  0  0  0  0  0  0  0  0  0
   -6.2290   19.0590  -34.0180 C   0  0  0  0  0  0  0  0  0  0  0  0
   -7.6720   20.9730  -31.8790 C   0  0  0  0  0  0  0  0  0  0  0  0
   -8.5330   22.0770  -31.8390 C   0  0  0  0  0  0  0  0  0  0  0  0
   -8.0380   23.3450  -31.5220 C   0  0  0  0  0  0  0  0  0  0  0  0
   -6.6730   23.5230  -31.2440 C   0  0  0  0  0  0  0  0  0  0  0  0
   -6.1490   24.8770  -30.8570 C   0  0  0  0  0  0  0  0  0  0  0  0
   -4.8640   24.7330  -30.1050 C   0  0  0  0  0  0  0  0  0  0  0  0
   -4.7400   24.3420  -28.7850 C   0  0  0  0  0  0  0  0  0  0  0  0
   -3.3760   24.2890  -28.5840 C   0  0  0  0  0  0  0  0  0  0  0  0
   -2.6850   23.9820  -27.2920 C   0  0  0  0  0  0  0  0  0  0  0  0
   -1.9830   25.2090  -26.7820 C   0  0  0  0  0  0  0  0  0  0  0  0
   -2.2080   25.6630  -25.4710 C   0  0  0  0  0  0  0  0  0  0  0  0
   -1.5270   26.7830  -24.9870 C   0  0  0  0  0  0  0  0  0  0  0  0
   -0.6100   27.4530  -25.8020 C   0  0  0  0  0  0  0  0  0  0  0  0
   -0.3690   27.0000  -27.1030 C   0  0  0  0  0  0  0  0  0  0  0  0
   -1.0490   25.8790  -27.5910 C   0  0  0  0  0  0  0  0  0  0  0  0
   -2.7470   24.6380  -29.7210 N   0  0  0  0  0  0  0  0  0  0  0  0
   -3.6450   24.8980  -30.6570 N   0  0  0  0  0  0  0  0  0  0  0  0
   -5.8160   22.4100  -31.2640 C   0  0  0  0  0  0  0  0  0  0  0  0
   -6.3130   21.1430  -31.5810 C   0  0  0  0  0  0  0  0  0  0  0  0
   -7.5730   16.5789  -32.0799 H   0  0  0  0  0  0  0  0  0  0  0  0
   -5.8312   15.2535  -33.2785 H   0  0  0  0  0  0  0  0  0  0  0  0
   -4.3427   16.3623  -34.9481 H   0  0  0  0  0  0  0  0  0  0  0  0
   -4.6022   18.8001  -35.4293 H   0  0  0  0  0  0  0  0  0  0  0  0
   -6.3439   20.1316  -34.2330 H   0  0  0  0  0  0  0  0  0  0  0  0
   -9.6029   21.9456  -32.0579 H   0  0  0  0  0  0  0  0  0  0  0  0
   -8.7204   24.2071  -31.4901 H   0  0  0  0  0  0  0  0  0  0  0  0
   -5.9748   25.4732  -31.7648 H   0  0  0  0  0  0  0  0  0  0  0  0
   -6.8878   25.3802  -30.2160 H   0  0  0  0  0  0  0  0  0  0  0  0
   -5.5413   24.1241  -28.0636 H   0  0  0  0  0  0  0  0  0  0  0  0
   -3.4278   23.6524  -26.5507 H   0  0  0  0  0  0  0  0  0  0  0  0
   -1.9454   23.1848  -27.4579 H   0  0  0  0  0  0  0  0  0  0  0  0
   -2.9231   25.1345  -24.8234 H   0  0  0  0  0  0  0  0  0  0  0  0
   -1.7129   27.1382  -23.9626 H   0  0  0  0  0  0  0  0  0  0  0  0
   -0.0779   28.3367  -25.4200 H   0  0  0  0  0  0  0  0  0  0  0  0
    0.3554   27.5253  -27.7428 H   0  0  0  0  0  0  0  0  0  0  0  0
   -0.8519   25.5204  -28.6121 H   0  0  0  0  0  0  0  0  0  0  0  0
   -1.7140   24.7030  -29.8640 H   0  0  0  0  0  0  0  0  0  0  0  0
   -4.7488   22.5364  -31.0291 H   0  0  0  0  0  0  0  0  0  0  0  0
   -5.6356   20.2764  -31.5967 H   0  0  0  0  0  0  0  0  0  0  0  0
  1  2  2  0
  2  3  2  0
  2  4  1  0
  4  5  2  0
  5  6  1  0
  6  7  2  0
  7  8  1  0
  8  9  2  0
  2 10  1  0
 10 11  2  0
 11 12  1  0
 12 13  2  0
 13 14  1  0
 14 15  1  0
 15 16  1  0
 16 17  2  0
 17 18  1  0
 18 19  1  0
 19 20  2  0
 20 21  1  0
 21 22  2  0
 22 23  1  0
 23 24  2  0
 17 25  1  0
 25 26  1  0
 13 27  1  0
 27 28  2  0
  9  4  1  0
 28 10  1  0
 26 15  2  0
 24 19  1  0
  5 29  1  0
  6 30  1  0
  7 31  1  0
  8 32  1  0
  9 33  1  0
 11 34  1  0
 12 35  1  0
 14 36  1  0
 14 37  1  0
 16 38  1  0
 18 39  1  0
 18 40  1  0
 20 41  1  0
 21 42  1  0
 22 43  1  0
 23 44  1  0
 24 45  1  0
 25 46  1  0
 27 47  1  0
 28 48  1  0
M  END
>  <UniqueID>  (9) 
9

>  <SMILES>  (9) 
O=S(=O)(c1ccccc1)c1ccc(Cc2cc(Cc3ccccc3)[nH]n2)cc1

>  <Energy>  (9) 
79.84013850802525

>  <Genealogy>  (9) 
O=S(=O)(c1ccccc1)c1ccc(Cc2cc(Cc3ccccc3)[nH]n2)cc1 (3D coordinates assigned)
O=S(=O)(c1ccccc1)c1ccc(Cc2cc(Cc3ccccc3)[nH]n2)cc1 (optimized conformer: 79.84013850802525 kcal/mol)

>  <smiles>  (9) 
O=S(=O)(c1ccccc1)c1ccc(Cc2cc(Cc3ccccc3)[nH]n2)cc1

>  <score_type>  (9) 
oracle

>  <origin>  (9) 
adgpu

>  <m_score__min__energy>  (9) 
-11.42

>  <m_primary>  (9) 
energy

$$$$
9:0
     RDKit          3D

 54 57  0  0  0  0  0  0  0  0999 V2000
   -0.6890   19.8150  -34.0800 C   0  0  0  0  0  0  0  0  0  0  0  0
   -2.0220   20.3020  -34.2320 O   0  0  0  0  0  0  0  0  0  0  0  0
   -3.1640   19.6760  -33.7030 C   0  0  0  0  0  0  0  0  0  0  0  0
   -3.8380   18.6570  -34.4070 C   0  0  0  0  0  0  0  0  0  0  0  0
   -4.9640   18.0350  -33.8560 C   0  0  0  0  0  0  0  0  0  0  0  0
   -5.4360   18.4270  -32.6030 C   0  0  0  0  0  0  0  0  0  0  0  0
   -6.8520   17.6470  -31.9160 Cl  0  0  0  0  0  0  0  0  0  0  0  0
   -4.7900   19.4510  -31.9040 C   0  0  0  0  0  0  0  0  0  0  0  0
   -3.6580   20.0820  -32.4440 C   0  0  0  0  0  0  0  0  0  0  0  0
   -2.9820   21.4590  -31.5620 S   0  0  0  0  0  0  0  0  0  0  0  0
   -3.1570   21.2030  -30.0860 O   0  0  0  0  0  0  0  0  0  0  0  0
   -1.5140   21.6680  -31.8450 O   0  0  0  0  0  0  0  0  0  0  0  0
   -3.8750   22.8890  -31.9890 N   0  0  0  0  0  0  0  0  0  0  0  0
   -5.2990   23.0170  -31.8040 C   0  0  0  0  0  0  0  0  0  0  0  0
   -6.1560   21.9860  -32.2330 C   0  0  0  0  0  0  0  0  0  0  0  0
   -7.5240   22.0310  -31.9480 C   0  0  0  0  0  0  0  0  0  0  0  0
   -8.0640   23.1240  -31.2610 C   0  0  0  0  0  0  0  0  0  0  0  0
   -7.2330   24.1740  -30.8600 C   0  0  0  0  0  0  0  0  0  0  0  0
   -5.8430   24.1460  -31.1330 C   0  0  0  0  0  0  0  0  0  0  0  0
   -5.0010   25.2910  -30.6840 C   0  0  0  0  0  0  0  0  0  0  0  0
   -5.5390   26.4090  -30.4730 O   0  0  0  0  0  0  0  0  0  0  0  0
   -3.5960   25.1160  -30.4460 N   0  0  0  0  0  0  0  0  0  0  0  0
   -2.9460   24.2340  -29.5150 C   0  0  0  0  0  0  0  0  0  0  0  0
   -1.6110   23.8180  -29.6750 C   0  0  0  0  0  0  0  0  0  0  0  0
   -1.0350   22.9440  -28.7460 C   0  0  0  0  0  0  0  0  0  0  0  0
   -1.7800   22.4490  -27.6690 C   0  0  0  0  0  0  0  0  0  0  0  0
   -1.1560   21.5540  -26.7810 O   0  0  0  0  0  0  0  0  0  0  0  0
   -0.6810   20.2700  -27.1030 C   0  0  0  0  0  0  0  0  0  0  0  0
   -1.3670   19.1020  -26.7150 C   0  0  0  0  0  0  0  0  0  0  0  0
   -0.8690   17.8450  -27.0800 C   0  0  0  0  0  0  0  0  0  0  0  0
    0.3190   17.7420  -27.8150 C   0  0  0  0  0  0  0  0  0  0  0  0
    1.0240   18.8970  -28.1620 C   0  0  0  0  0  0  0  0  0  0  0  0
    0.5310   20.1560  -27.7950 C   0  0  0  0  0  0  0  0  0  0  0  0
   -3.1370   22.7970  -27.5670 C   0  0  0  0  0  0  0  0  0  0  0  0
   -3.7110   23.6900  -28.4750 C   0  0  0  0  0  0  0  0  0  0  0  0
   -0.4503   19.7278  -33.0098 H   0  0  0  0  0  0  0  0  0  0  0  0
   -0.6029   18.8273  -34.5566 H   0  0  0  0  0  0  0  0  0  0  0  0
    0.0135   20.5145  -34.5566 H   0  0  0  0  0  0  0  0  0  0  0  0
   -3.4753   18.3481  -35.3985 H   0  0  0  0  0  0  0  0  0  0  0  0
   -5.4774   17.2363  -34.4113 H   0  0  0  0  0  0  0  0  0  0  0  0
   -5.1722   19.7653  -30.9216 H   0  0  0  0  0  0  0  0  0  0  0  0
   -5.7452   21.1364  -32.7982 H   0  0  0  0  0  0  0  0  0  0  0  0
   -8.1777   21.2049  -32.2647 H   0  0  0  0  0  0  0  0  0  0  0  0
   -9.1404   23.1568  -31.0369 H   0  0  0  0  0  0  0  0  0  0  0  0
   -7.6639   25.0334  -30.3254 H   0  0  0  0  0  0  0  0  0  0  0  0
   -1.0206   24.1796  -30.5298 H   0  0  0  0  0  0  0  0  0  0  0  0
    0.0162   22.6422  -28.8635 H   0  0  0  0  0  0  0  0  0  0  0  0
   -2.2929   19.1774  -26.1259 H   0  0  0  0  0  0  0  0  0  0  0  0
   -1.4131   16.9346  -26.7882 H   0  0  0  0  0  0  0  0  0  0  0  0
    0.6959   16.7540  -28.1182 H   0  0  0  0  0  0  0  0  0  0  0  0
    1.9665   18.8180  -28.7236 H   0  0  0  0  0  0  0  0  0  0  0  0
    1.1001   21.0615  -28.0523 H   0  0  0  0  0  0  0  0  0  0  0  0
   -3.7528   22.3628  -26.7656 H   0  0  0  0  0  0  0  0  0  0  0  0
   -4.7704   23.9678  -28.3728 H   0  0  0  0  0  0  0  0  0  0  0  0
  1  2  1  0
  2  3  1  0
  3  4  2  0
  4  5  1  0
  5  6  2  0
  6  7  1  0
  6  8  1  0
  8  9  2  0
  9 10  1  0
 10 11  2  0
 10 12  2  0
 10 13  1  0
 13 14  1  0
 14 15  2  0
 15 16  1  0
 16 17  2  0
 17 18  1  0
 18 19  2  0
 19 20  1  0
 20 21  2  0
 20 22  1  0
 22 23  1  0
 23 24  2  0
 24 25  1  0
 25 26  2  0
 26 27  1  0
 27 28  1  0
 28 29  2  0
 29 30  1  0
 30 31  2  0
 31 32  1  0
 32 33  2  0
 26 34  1  0
 34 35  2  0
  9  3  1  0
 19 14  1  0
 35 23  1  0
 33 28  1  0
  1 36  1  0
  1 37  1  0
  1 38  1  0
  4 39  1  0
  5 40  1  0
  8 41  1  0
 15 42  1  0
 16 43  1  0
 17 44  1  0
 18 45  1  0
 24 46  1  0
 25 47  1  0
 29 48  1  0
 30 49  1  0
 31 50  1  0
 32 51  1  0
 33 52  1  0
 34 53  1  0
 35 54  1  0
M  CHG  2  13  -1  22  -1
M  END
>  <UniqueID>  (10) 
10

>  <SMILES>  (10) 
COc1ccc(Cl)cc1S(=O)(=O)[N-]c1ccccc1C(=O)[N-]c1ccc(Oc2ccccc2)cc1

>  <Energy>  (10) 
79.00819709379952

>  <Genealogy>  (10) 
COc1ccc(Cl)cc1S(=O)(=O)[N-]c1ccccc1C(=O)[N-]c1ccc(Oc2ccccc2)cc1 (protonated)
COc1ccc(Cl)cc1S(=O)(=O)[N-]c1ccccc1C(=O)[N-]c1ccc(Oc2ccccc2)cc1 (3D coordinates assigned)
COc1ccc(Cl)cc1S(=O)(=O)[N-]c1ccccc1C(=O)[N-]c1ccc(Oc2ccccc2)cc1 (optimized conformer: 79.00819709379952 kcal/mol)

>  <smiles>  (10) 
COc1ccc(Cl)cc1S(=O)(=O)Nc1ccccc1C(=O)Nc1ccc(Oc2ccccc2)cc1

>  <score_type>  (10) 
oracle

>  <origin>  (10) 
adgpu

>  <m_score__min__energy>  (10) 
-12.77

>  <m_primary>  (10) 
energy

$$$$
10:0
     RDKit          3D

 44 45  0  0  0  0  0  0  0  0999 V2000
   -7.9550   22.7490  -31.0850 C   0  0  0  0  0  0  0  0  0  0  0  0
   -6.7540   22.1480  -31.7720 C   0  0  0  0  0  0  0  0  0  0  0  0
   -6.9120   20.9600  -32.5130 C   0  0  0  0  0  0  0  0  0  0  0  0
   -8.1210   20.3520  -32.6070 F   0  0  0  0  0  0  0  0  0  0  0  0
   -5.8210   20.3790  -33.1630 C   0  0  0  0  0  0  0  0  0  0  0  0
   -4.5640   20.9690  -33.0820 C   0  0  0  0  0  0  0  0  0  0  0  0
   -4.3810   22.1350  -32.3400 C   0  0  0  0  0  0  0  0  0  0  0  0
   -3.1370   22.6740  -32.2890 F   0  0  0  0  0  0  0  0  0  0  0  0
   -5.4630   22.7290  -31.6570 C   0  0  0  0  0  0  0  0  0  0  0  0
   -5.1790   24.1690  -30.6510 S   0  0  0  0  0  0  0  0  0  0  0  0
   -5.8720   25.3760  -31.2180 O   0  0  0  0  0  0  0  0  0  0  0  0
   -5.7170   23.9130  -29.2720 O   0  0  0  0  0  0  0  0  0  0  0  0
   -3.4830   24.5150  -30.5470 N   0  0  0  0  0  0  0  0  0  0  0  0
   -2.5410   23.8020  -29.7310 C   0  0  0  0  0  0  0  0  0  0  0  0
   -2.5290   22.3980  -29.6630 C   0  0  0  0  0  0  0  0  0  0  0  0
   -1.6190   21.7420  -28.8800 N   0  0  0  0  0  0  0  0  0  0  0  0
   -1.6440   20.2730  -28.8040 C   0  0  0  0  0  0  0  0  0  0  0  0
   -2.7400   19.7250  -27.8560 C   0  0  0  0  0  0  0  0  0  0  0  0
   -2.2830   19.2700  -26.5180 N   0  0  0  0  0  0  0  0  0  0  0  0
   -3.3440   18.6240  -25.7280 C   0  0  0  0  0  0  0  0  0  0  0  0
   -1.6140   20.3310  -25.7430 C   0  0  0  0  0  0  0  0  0  0  0  0
   -0.7260   22.4450  -28.1190 C   0  0  0  0  0  0  0  0  0  0  0  0
   -0.7050   23.8410  -28.1540 C   0  0  0  0  0  0  0  0  0  0  0  0
    0.5730   24.7900  -27.0940 Br  0  0  0  0  0  0  0  0  0  0  0  0
   -1.6190   24.5210  -28.9630 C   0  0  0  0  0  0  0  0  0  0  0  0
   -1.6200   25.7830  -28.9910 O   0  0  0  0  0  0  0  0  0  0  0  0
   -7.8245   22.6837  -29.9947 H   0  0  0  0  0  0  0  0  0  0  0  0
   -8.0562   23.8040  -31.3797 H   0  0  0  0  0  0  0  0  0  0  0  0
   -8.8600   22.1976  -31.3797 H   0  0  0  0  0  0  0  0  0  0  0  0
   -5.9561   19.4525  -33.7404 H   0  0  0  0  0  0  0  0  0  0  0  0
   -3.7106   20.5136  -33.6057 H   0  0  0  0  0  0  0  0  0  0  0  0
   -3.2604   21.8196  -30.2466 H   0  0  0  0  0  0  0  0  0  0  0  0
   -1.8247   19.8746  -29.8133 H   0  0  0  0  0  0  0  0  0  0  0  0
   -0.6732   19.9520  -28.3983 H   0  0  0  0  0  0  0  0  0  0  0  0
   -3.4816   20.5231  -27.7037 H   0  0  0  0  0  0  0  0  0  0  0  0
   -3.1362   18.8270  -28.3525 H   0  0  0  0  0  0  0  0  0  0  0  0
   -1.5560   18.5360  -26.6970 H   0  0  0  0  0  0  0  0  0  0  0  0
   -3.1329   18.7525  -24.6561 H   0  0  0  0  0  0  0  0  0  0  0  0
   -4.3130   19.0855  -25.9688 H   0  0  0  0  0  0  0  0  0  0  0  0
   -3.3789   17.5512  -25.9688 H   0  0  0  0  0  0  0  0  0  0  0  0
   -1.7384   20.1337  -24.6680 H   0  0  0  0  0  0  0  0  0  0  0  0
   -0.5425   20.3464  -25.9914 H   0  0  0  0  0  0  0  0  0  0  0  0
   -2.0620   21.3045  -25.9914 H   0  0  0  0  0  0  0  0  0  0  0  0
   -0.0175   21.9056  -27.4732 H   0  0  0  0  0  0  0  0  0  0  0  0
  1  2  1  0
  2  3  2  0
  3  4  1  0
  3  5  1  0
  5  6  2  0
  6  7  1  0
  7  8  1  0
  7  9  2  0
  9 10  1  0
 10 11  2  0
 10 12  2  0
 10 13  1  0
 13 14  1  0
 14 15  2  0
 15 16  1  0
 16 17  1  0
 17 18  1  0
 18 19  1  0
 19 20  1  0
 19 21  1  0
 16 22  1  0
 22 23  2  0
 23 24  1  0
 23 25  1  0
 25 26  2  0
  9  2  1  0
 25 14  1  0
  1 27  1  0
  1 28  1  0
  1 29  1  0
  5 30  1  0
  6 31  1  0
 15 32  1  0
 17 33  1  0
 17 34  1  0
 18 35  1  0
 18 36  1  0
 19 37  1  0
 20 38  1  0
 20 39  1  0
 20 40  1  0
 21 41  1  0
 21 42  1  0
 21 43  1  0
 22 44  1  0
M  CHG  2  13  -1  19   1
M  END
>  <UniqueID>  (11) 
11

>  <SMILES>  (11) 
Cc1c(F)ccc(F)c1S(=O)(=O)[N-]c1cn(CC[NH+](C)C)cc(Br)c1=O

>  <Energy>  (11) 
54.64991707942347

>  <Genealogy>  (11) 
Cc1c(F)ccc(F)c1S(=O)(=O)[N-]c1cn(CC[NH+](C)C)cc(Br)c1=O (protonated)
Cc1c(F)ccc(F)c1S(=O)(=O)[N-]c1cn(CC[NH+](C)C)cc(Br)c1=O (3D coordinates assigned)
Cc1c(F)ccc(F)c1S(=O)(=O)[N-]c1cn(CC[NH+](C)C)cc(Br)c1=O (optimized conformer: 54.64991707942347 kcal/mol)

>  <smiles>  (11) 
Cc1c(F)ccc(F)c1S(=O)(=O)Nc1cn(CCN(C)C)cc(Br)c1=O

>  <score_type>  (11) 
oracle

>  <origin>  (11) 
adgpu

>  <m_score__min__energy>  (11) 
-9.4199999999999999

>  <m_primary>  (11) 
energy

$$$$
11:0
     RDKit          3D

 61 64  0  0  0  0  0  0  0  0999 V2000
    0.2600   25.9860  -23.3420 N   0  0  0  0  0  0  0  0  0  0  0  0
   -0.7690   26.4500  -24.2240 C   0  0  0  0  0  0  0  0  0  0  0  0
   -1.2310   27.6570  -24.0910 N   0  0  0  0  0  0  0  0  0  0  0  0
   -1.2950   25.5490  -25.2790 C   0  0  0  0  0  0  0  0  0  0  0  0
   -2.6340   25.6360  -25.6990 C   0  0  0  0  0  0  0  0  0  0  0  0
   -3.1170   24.7940  -26.7030 C   0  0  0  0  0  0  0  0  0  0  0  0
   -2.2730   23.8610  -27.3160 C   0  0  0  0  0  0  0  0  0  0  0  0
   -2.8220   23.0110  -28.3360 N   0  0  0  0  0  0  0  0  0  0  0  0
   -3.1700   23.3740  -29.6800 C   0  0  0  0  0  0  0  0  0  0  0  0
   -2.2860   23.3660  -30.5790 O   0  0  0  0  0  0  0  0  0  0  0  0
   -4.5680   23.7880  -29.9940 C   0  0  0  0  0  0  0  0  0  0  0  0
   -5.1120   24.8950  -29.3100 C   0  0  0  0  0  0  0  0  0  0  0  0
   -6.4240   25.3100  -29.5430 C   0  0  0  0  0  0  0  0  0  0  0  0
   -7.2220   24.6280  -30.4580 C   0  0  0  0  0  0  0  0  0  0  0  0
   -6.7110   23.5310  -31.1480 C   0  0  0  0  0  0  0  0  0  0  0  0
   -5.3890   23.1050  -30.9360 C   0  0  0  0  0  0  0  0  0  0  0  0
   -4.9090   21.9610  -31.7380 C   0  0  0  0  0  0  0  0  0  0  0  0
   -5.4780   20.6930  -31.5600 C   0  0  0  0  0  0  0  0  0  0  0  0
   -5.0480   19.6140  -32.3360 C   0  0  0  0  0  0  0  0  0  0  0  0
   -4.0570   19.7960  -33.3150 C   0  0  0  0  0  0  0  0  0  0  0  0
   -3.6060   18.6390  -34.1680 C   0  0  0  0  0  0  0  0  0  0  0  0
   -2.3240   18.1640  -33.7510 O   0  0  0  0  0  0  0  0  0  0  0  0
   -1.3630   18.9230  -33.0640 C   0  0  0  0  0  0  0  0  0  0  0  0
   -0.2810   19.4300  -33.7910 C   0  0  0  0  0  0  0  0  0  0  0  0
    0.7130   20.1770  -33.1550 C   0  0  0  0  0  0  0  0  0  0  0  0
    0.6320   20.4280  -31.7840 C   0  0  0  0  0  0  0  0  0  0  0  0
   -0.4500   19.9360  -31.0340 C   0  0  0  0  0  0  0  0  0  0  0  0
   -0.5470   20.2030  -29.5770 C   0  0  0  0  0  0  0  0  0  0  0  0
    0.0480   19.2920  -28.6450 N   0  0  0  0  0  0  0  0  0  0  0  0
   -1.1610   21.2610  -29.1360 N   0  0  0  0  0  0  0  0  0  0  0  0
   -1.4490   19.1900  -31.6840 C   0  0  0  0  0  0  0  0  0  0  0  0
   -3.4850   21.0660  -33.4870 C   0  0  0  0  0  0  0  0  0  0  0  0
   -3.9120   22.1450  -32.7070 C   0  0  0  0  0  0  0  0  0  0  0  0
   -0.9410   23.7500  -26.8800 C   0  0  0  0  0  0  0  0  0  0  0  0
   -0.4540   24.5970  -25.8800 C   0  0  0  0  0  0  0  0  0  0  0  0
    0.7260   25.0640  -23.4960 H   0  0  0  0  0  0  0  0  0  0  0  0
    0.6320   26.6020  -22.5850 H   0  0  0  0  0  0  0  0  0  0  0  0
   -2.0030   28.0210  -24.6930 H   0  0  0  0  0  0  0  0  0  0  0  0
   -0.8550   28.2940  -23.3520 H   0  0  0  0  0  0  0  0  0  0  0  0
   -3.3057   26.3723  -25.2336 H   0  0  0  0  0  0  0  0  0  0  0  0
   -4.1696   24.8647  -27.0146 H   0  0  0  0  0  0  0  0  0  0  0  0
   -4.4928   25.4395  -28.5819 H   0  0  0  0  0  0  0  0  0  0  0  0
   -6.8288   26.1782  -29.0024 H   0  0  0  0  0  0  0  0  0  0  0  0
   -8.2568   24.9558  -30.6361 H   0  0  0  0  0  0  0  0  0  0  0  0
   -7.3484   22.9933  -31.8654 H   0  0  0  0  0  0  0  0  0  0  0  0
   -6.2660   20.5467  -30.8066 H   0  0  0  0  0  0  0  0  0  0  0  0
   -5.4872   18.6176  -32.1799 H   0  0  0  0  0  0  0  0  0  0  0  0
   -4.3376   17.8221  -34.0820 H   0  0  0  0  0  0  0  0  0  0  0  0
   -3.5307   18.9810  -35.2108 H   0  0  0  0  0  0  0  0  0  0  0  0
   -0.2124   19.2389  -34.8721 H   0  0  0  0  0  0  0  0  0  0  0  0
    1.5615   20.5684  -33.7355 H   0  0  0  0  0  0  0  0  0  0  0  0
    1.4196   21.0142  -31.2879 H   0  0  0  0  0  0  0  0  0  0  0  0
    0.0270   19.4870  -27.6210 H   0  0  0  0  0  0  0  0  0  0  0  0
    0.4640   18.3900  -28.9660 H   0  0  0  0  0  0  0  0  0  0  0  0
   -1.2320   21.4490  -28.1110 H   0  0  0  0  0  0  0  0  0  0  0  0
   -1.5750   21.9660  -29.7860 H   0  0  0  0  0  0  0  0  0  0  0  0
   -2.3065   18.8111  -31.1086 H   0  0  0  0  0  0  0  0  0  0  0  0
   -2.6964   21.2133  -34.2396 H   0  0  0  0  0  0  0  0  0  0  0  0
   -3.4654   23.1395  -32.8536 H   0  0  0  0  0  0  0  0  0  0  0  0
   -0.2794   22.9937  -27.3275 H   0  0  0  0  0  0  0  0  0  0  0  0
    0.5958   24.5176  -25.5611 H   0  0  0  0  0  0  0  0  0  0  0  0
  1  2  1  0
  2  3  2  0
  2  4  1  0
  4  5  2  0
  5  6  1  0
  6  7  2  0
  7  8  1  0
  8  9  1  0
  9 10  2  0
  9 11  1  0
 11 12  2  0
 12 13  1  0
 13 14  2  0
 14 15  1  0
 15 16  2  0
 16 17  1  0
 17 18  2  0
 18 19  1  0
 19 20  2  0
 20 21  1  0
 21 22  1  0
 22 23  1  0
 23 24  2  0
 24 25  1  0
 25 26  2  0
 26 27  1  0
 27 28  1  0
 28 29  1  0
 28 30  2  0
 27 31  2  0
 20 32  1  0
 32 33  2  0
  7 34  1  0
 34 35  2  0
 35  4  1  0
 16 11  1  0
 33 17  1  0
 31 23  1  0
  1 36  1  0
  1 37  1  0
  3 38  1  0
  3 39  1  0
  5 40  1  0
  6 41  1  0
 12 42  1  0
 13 43  1  0
 14 44  1  0
 15 45  1  0
 18 46  1  0
 19 47  1  0
 21 48  1  0
 21 49  1  0
 24 50  1  0
 25 51  1  0
 26 52  1  0
 29 53  1  0
 29 54  1  0
 30 55  1  0
 30 56  1  0
 31 57  1  0
 32 58  1  0
 33 59  1  0
 34 60  1  0
 35 61  1  0
M  CHG  3   3   1   8  -1  30   1
M  END
>  <UniqueID>  (12) 
12

>  <SMILES>  (12) 
NC(=[NH2+])c1ccc([N-]C(=O)c2ccccc2-c2ccc(COc3cccc(C(N)=[NH2+])c3)cc2)cc1

>  <Energy>  (12) 
84.56157846136031

>  <Genealogy>  (12) 
NC(=[NH2+])c1ccc([N-]C(=O)c2ccccc2-c2ccc(COc3cccc(C(N)=[NH2+])c3)cc2)cc1 (protonated)
NC(=[NH2+])c1ccc([N-]C(=O)c2ccccc2-c2ccc(COc3cccc(C(N)=[NH2+])c3)cc2)cc1 (3D coordinates assigned)
NC(=[NH2+])c1ccc([N-]C(=O)c2ccccc2-c2ccc(COc3cccc(C(N)=[NH2+])c3)cc2)cc1 (optimized conformer: 84.56157846136031 kcal/mol)

>  <smiles>  (12) 
N=C(N)c1ccc(NC(=O)c2ccccc2-c2ccc(COc3cccc(C(=N)N)c3)cc2)cc1

>  <score_type>  (12) 
oracle

>  <origin>  (12) 
adgpu

>  <m_score__min__energy>  (12) 
-11.85

>  <m_primary>  (12) 
energy

$$$$
12:0
     RDKit          3D

 32 33  0  0  0  0  0  0  0  0999 V2000
   -3.8700   24.1700  -28.2890 C   0  0  0  0  0  0  0  0  0  0  0  0
   -2.9810   24.7320  -29.3860 C   0  0  0  0  0  0  0  0  0  0  0  0
   -3.8040   25.2920  -30.4490 N   0  0  0  0  0  0  0  0  0  0  0  0
   -5.0770   24.7470  -30.8140 C   0  0  0  0  0  0  0  0  0  0  0  0
   -6.1280   25.4040  -30.5790 O   0  0  0  0  0  0  0  0  0  0  0  0
   -5.1610   23.4180  -31.4650 C   0  0  0  0  0  0  0  0  0  0  0  0
   -3.9970   22.6750  -31.7260 C   0  0  0  0  0  0  0  0  0  0  0  0
   -4.0810   21.4220  -32.3390 C   0  0  0  0  0  0  0  0  0  0  0  0
   -5.3230   20.8960  -32.6980 C   0  0  0  0  0  0  0  0  0  0  0  0
   -6.4980   21.6240  -32.4450 C   0  0  0  0  0  0  0  0  0  0  0  0
   -7.7950   21.1240  -32.7990 N   0  0  0  0  0  0  0  0  0  0  0  0
   -8.4910   19.6490  -32.2120 S   0  0  0  0  0  0  0  0  0  0  0  0
   -8.9120   19.8140  -30.7800 O   0  0  0  0  0  0  0  0  0  0  0  0
   -9.6750   19.2820  -33.0620 O   0  0  0  0  0  0  0  0  0  0  0  0
   -7.2960   18.3710  -32.3160 C   0  0  0  0  0  0  0  0  0  0  0  0
   -6.6320   17.7910  -31.2450 C   0  0  0  0  0  0  0  0  0  0  0  0
   -5.7420   16.7830  -31.6370 C   0  0  0  0  0  0  0  0  0  0  0  0
   -5.7110   16.5710  -33.0100 C   0  0  0  0  0  0  0  0  0  0  0  0
   -6.7900   17.6370  -33.7390 S   0  0  0  0  0  0  0  0  0  0  0  0
   -6.4090   22.8800  -31.8310 C   0  0  0  0  0  0  0  0  0  0  0  0
   -3.4517   24.4344  -27.3066 H   0  0  0  0  0  0  0  0  0  0  0  0
   -4.8808   24.5936  -28.3832 H   0  0  0  0  0  0  0  0  0  0  0  0
   -3.9210   23.0752  -28.3832 H   0  0  0  0  0  0  0  0  0  0  0  0
   -2.3387   25.5208  -28.9674 H   0  0  0  0  0  0  0  0  0  0  0  0
   -2.3566   23.9249  -29.7968 H   0  0  0  0  0  0  0  0  0  0  0  0
   -3.0142   23.0821  -31.4462 H   0  0  0  0  0  0  0  0  0  0  0  0
   -3.1644   20.8478  -32.5394 H   0  0  0  0  0  0  0  0  0  0  0  0
   -5.3822   19.9091  -33.1802 H   0  0  0  0  0  0  0  0  0  0  0  0
   -6.7880   18.0911  -30.1983 H   0  0  0  0  0  0  0  0  0  0  0  0
   -5.1261   16.2133  -30.9256 H   0  0  0  0  0  0  0  0  0  0  0  0
   -5.0865   15.8312  -33.5322 H   0  0  0  0  0  0  0  0  0  0  0  0
   -7.3265   23.4533  -31.6323 H   0  0  0  0  0  0  0  0  0  0  0  0
  1  2  1  0
  2  3  1  0
  3  4  1  0
  4  5  2  0
  4  6  1  0
  6  7  2  0
  7  8  1  0
  8  9  2  0
  9 10  1  0
 10 11  1  0
 11 12  1  0
 12 13  2  0
 12 14  2  0
 12 15  1  0
 15 16  2  0
 16 17  1  0
 17 18  2  0
 18 19  1  0
 10 20  2  0
 20  6  1  0
 19 15  1  0
  1 21  1  0
  1 22  1  0
  1 23  1  0
  2 24  1  0
  2 25  1  0
  7 26  1  0
  8 27  1  0
  9 28  1  0
 16 29  1  0
 17 30  1  0
 18 31  1  0
 20 32  1  0
M  CHG  2   3  -1  11  -1
M  END
>  <UniqueID>  (13) 
13

>  <SMILES>  (13) 
CC[N-]C(=O)c1cccc([N-]S(=O)(=O)c2cccs2)c1

>  <Energy>  (13) 
57.6842799789435

>  <Genealogy>  (13) 
CC[N-]C(=O)c1cccc([N-]S(=O)(=O)c2cccs2)c1 (protonated)
CC[N-]C(=O)c1cccc([N-]S(=O)(=O)c2cccs2)c1 (3D coordinates assigned)
CC[N-]C(=O)c1cccc([N-]S(=O)(=O)c2cccs2)c1 (optimized conformer: 57.6842799789435 kcal/mol)

>  <smiles>  (13) 
CCNC(=O)c1cccc(NS(=O)(=O)c2cccs2)c1

>  <score_type>  (13) 
oracle

>  <origin>  (13) 
adgpu

>  <m_score__min__energy>  (13) 
-9

>  <m_primary>  (13) 
energy

$$$$
13:0
     RDKit          3D

 28 29  0  0  0  0  0  0  0  0999 V2000
   -8.4890   18.6620  -31.5560 C   0  0  0  0  0  0  0  0  0  0  0  0
   -7.4090   18.5380  -32.5970 C   0  0  0  0  0  0  0  0  0  0  0  0
   -7.2530   17.3150  -33.2740 C   0  0  0  0  0  0  0  0  0  0  0  0
   -6.2330   17.1510  -34.2150 C   0  0  0  0  0  0  0  0  0  0  0  0
   -5.3600   18.2030  -34.4900 C   0  0  0  0  0  0  0  0  0  0  0  0
   -5.5140   19.4290  -33.8410 C   0  0  0  0  0  0  0  0  0  0  0  0
   -6.5500   19.6190  -32.9140 C   0  0  0  0  0  0  0  0  0  0  0  0
   -6.6860   20.9000  -32.2820 N   0  0  0  0  0  0  0  0  0  0  0  0
   -5.6580   21.4540  -31.4450 C   0  0  0  0  0  0  0  0  0  0  0  0
   -4.7260   20.7120  -31.0290 O   0  0  0  0  0  0  0  0  0  0  0  0
   -5.6920   22.8800  -31.0400 C   0  0  0  0  0  0  0  0  0  0  0  0
   -6.8550   23.4570  -30.5010 C   0  0  0  0  0  0  0  0  0  0  0  0
   -6.8650   24.8040  -30.1340 C   0  0  0  0  0  0  0  0  0  0  0  0
   -5.7130   25.5700  -30.3140 C   0  0  0  0  0  0  0  0  0  0  0  0
   -4.5980   25.0070  -30.8440 N   0  0  0  0  0  0  0  0  0  0  0  0
   -4.5610   23.6970  -31.2100 C   0  0  0  0  0  0  0  0  0  0  0  0
   -8.0395   18.6104  -30.5534 H   0  0  0  0  0  0  0  0  0  0  0  0
   -9.0060   19.6254  -31.6769 H   0  0  0  0  0  0  0  0  0  0  0  0
   -9.2108   17.8408  -31.6769 H   0  0  0  0  0  0  0  0  0  0  0  0
   -7.9388   16.4817  -33.0612 H   0  0  0  0  0  0  0  0  0  0  0  0
   -6.1186   16.1909  -34.7394 H   0  0  0  0  0  0  0  0  0  0  0  0
   -4.5484   18.0664  -35.2198 H   0  0  0  0  0  0  0  0  0  0  0  0
   -4.8178   20.2526  -34.0579 H   0  0  0  0  0  0  0  0  0  0  0  0
   -7.6390   21.3270  -32.2490 H   0  0  0  0  0  0  0  0  0  0  0  0
   -7.7597   22.8456  -30.3680 H   0  0  0  0  0  0  0  0  0  0  0  0
   -7.7721   25.2568  -29.7072 H   0  0  0  0  0  0  0  0  0  0  0  0
   -5.7086   26.6316  -30.0259 H   0  0  0  0  0  0  0  0  0  0  0  0
   -3.6411   23.2752  -31.6412 H   0  0  0  0  0  0  0  0  0  0  0  0
  1  2  1  0
  2  3  2  0
  3  4  1  0
  4  5  2  0
  5  6  1  0
  6  7  2  0
  7  8  1  0
  8  9  1  0
  9 10  2  0
  9 11  1  0
 11 12  2  0
 12 13  1  0
 13 14  2  0
 14 15  1  0
 15 16  2  0
  7  2  1  0
 16 11  1  0
  1 17  1  0
  1 18  1  0
  1 19  1  0
  3 20  1  0
  4 21  1  0
  5 22  1  0
  6 23  1  0
  8 24  1  0
 12 25  1  0
 13 26  1  0
 14 27  1  0
 16 28  1  0
M  END
>  <UniqueID>  (14) 
14

>  <SMILES>  (14) 
Cc1ccccc1NC(=O)c1cccnc1

>  <Energy>  (14) 
37.12678093269608

>  <Genealogy>  (14) 
Cc1ccccc1NC(=O)c1cccnc1 (3D coordinates assigned)
Cc1ccccc1NC(=O)c1cccnc1 (optimized conformer: 37.12678093269608 kcal/mol)

>  <smiles>  (14) 
Cc1ccccc1NC(=O)c1cccnc1

>  <score_type>  (14) 
oracle

>  <origin>  (14) 
adgpu

>  <m_score__min__energy>  (14) 
-6.7000000000000002

>  <m_primary>  (14) 
energy

$$$$
14:0
     RDKit          3D

 36 38  0  0  0  0  0  0  0  0999 V2000
   -6.0860   24.3340  -31.2800 Cl  0  0  0  0  0  0  0  0  0  0  0  0
   -7.0760   22.9420  -31.6980 C   0  0  0  0  0  0  0  0  0  0  0  0
   -8.4660   23.0580  -31.6080 C   0  0  0  0  0  0  0  0  0  0  0  0
   -9.2840   21.9710  -31.9180 C   0  0  0  0  0  0  0  0  0  0  0  0
   -8.7190   20.7640  -32.3260 C   0  0  0  0  0  0  0  0  0  0  0  0
   -7.3250   20.6290  -32.4360 C   0  0  0  0  0  0  0  0  0  0  0  0
   -6.7650   19.3360  -32.8910 C   0  0  0  0  0  0  0  0  0  0  0  0
   -6.8320   18.2020  -32.0690 C   0  0  0  0  0  0  0  0  0  0  0  0
   -6.2870   16.9880  -32.4940 C   0  0  0  0  0  0  0  0  0  0  0  0
   -5.6540   16.8860  -33.7460 C   0  0  0  0  0  0  0  0  0  0  0  0
   -5.0920   15.6300  -34.1890 N   0  0  0  0  0  0  0  0  0  0  0  0
   -3.6780   15.5360  -34.5770 C   0  0  0  0  0  0  0  0  0  0  0  0
   -3.4910   14.4290  -35.6230 C   0  0  0  0  0  0  0  0  0  0  0  0
   -4.0150   13.1160  -35.1910 N   0  0  0  0  0  0  0  0  0  0  0  0
   -5.0260   13.1700  -34.1180 C   0  0  0  0  0  0  0  0  0  0  0  0
   -5.9150   14.4140  -34.2170 C   0  0  0  0  0  0  0  0  0  0  0  0
   -5.5790   18.0300  -34.5620 C   0  0  0  0  0  0  0  0  0  0  0  0
   -6.1250   19.2440  -34.1350 C   0  0  0  0  0  0  0  0  0  0  0  0
   -6.4940   21.7260  -32.1090 C   0  0  0  0  0  0  0  0  0  0  0  0
   -4.7350   21.5720  -32.1490 Cl  0  0  0  0  0  0  0  0  0  0  0  0
   -8.9169   24.0101  -31.2915 H   0  0  0  0  0  0  0  0  0  0  0  0
  -10.3771   22.0668  -31.8402 H   0  0  0  0  0  0  0  0  0  0  0  0
   -9.3701   19.9099  -32.5639 H   0  0  0  0  0  0  0  0  0  0  0  0
   -7.3165   18.2687  -31.0837 H   0  0  0  0  0  0  0  0  0  0  0  0
   -6.3535   16.1035  -31.8434 H   0  0  0  0  0  0  0  0  0  0  0  0
   -3.3527   16.4970  -35.0021 H   0  0  0  0  0  0  0  0  0  0  0  0
   -3.0757   15.2970  -33.6881 H   0  0  0  0  0  0  0  0  0  0  0  0
   -4.0145   14.7273  -36.5433 H   0  0  0  0  0  0  0  0  0  0  0  0
   -2.4086   14.3103  -35.7791 H   0  0  0  0  0  0  0  0  0  0  0  0
   -3.2160   12.5320  -34.8500 H   0  0  0  0  0  0  0  0  0  0  0  0
   -5.6617   12.2749  -34.1859 H   0  0  0  0  0  0  0  0  0  0  0  0
   -4.4934   13.2133  -33.1565 H   0  0  0  0  0  0  0  0  0  0  0  0
   -6.4823   14.3810  -35.1589 H   0  0  0  0  0  0  0  0  0  0  0  0
   -6.6067   14.4294  -33.3618 H   0  0  0  0  0  0  0  0  0  0  0  0
   -5.0868   17.9685  -35.5438 H   0  0  0  0  0  0  0  0  0  0  0  0
   -6.0520   20.1327  -34.7791 H   0  0  0  0  0  0  0  0  0  0  0  0
  1  2  1  0
  2  3  2  0
  3  4  1  0
  4  5  2  0
  5  6  1  0
  6  7  1  0
  7  8  2  0
  8  9  1  0
  9 10  2  0
 10 11  1  0
 11 12  1  0
 12 13  1  0
 13 14  1  0
 14 15  1  0
 15 16  1  0
 10 17  1  0
 17 18  2  0
  6 19  2  0
 19 20  1  0
 19  2  1  0
 18  7  1  0
 16 11  1  0
  3 21  1  0
  4 22  1  0
  5 23  1  0
  8 24  1  0
  9 25  1  0
 12 26  1  0
 12 27  1  0
 13 28  1  0
 13 29  1  0
 14 30  1  0
 15 31  1  0
 15 32  1  0
 16 33  1  0
 16 34  1  0
 17 35  1  0
 18 36  1  0
M  END
>  <UniqueID>  (15) 
15

>  <SMILES>  (15) 
Clc1cccc(-c2ccc(N3CCNCC3)cc2)c1Cl

>  <Energy>  (15) 
54.0067818541741

>  <Genealogy>  (15) 
Clc1cccc(-c2ccc(N3CCNCC3)cc2)c1Cl (3D coordinates assigned)
Clc1cccc(-c2ccc(N3CCNCC3)cc2)c1Cl (nonaromatic ring conformer: 54.0067818541741 kcal/mol)

>  <smiles>  (15) 
Clc1cccc(-c2ccc(N3CCNCC3)cc2)c1Cl

>  <score_type>  (15) 
oracle

>  <origin>  (15) 
adgpu

>  <m_score__min__energy>  (15) 
-7.5599999999999996

>  <m_primary>  (15) 
energy

$$$$
15:0
     RDKit          3D

 47 49  0  0  0  0  0  0  0  0999 V2000
    0.7140   27.8920  -23.2040 C   0  0  0  0  0  0  0  0  0  0  0  0
   -0.3320   28.1830  -24.1240 O   0  0  0  0  0  0  0  0  0  0  0  0
   -0.7550   27.3160  -25.1420 C   0  0  0  0  0  0  0  0  0  0  0  0
   -0.2760   27.5290  -26.4400 C   0  0  0  0  0  0  0  0  0  0  0  0
   -0.6750   26.6980  -27.4910 C   0  0  0  0  0  0  0  0  0  0  0  0
   -1.5840   25.6490  -27.2630 C   0  0  0  0  0  0  0  0  0  0  0  0
   -2.0180   24.7750  -28.3210 N   0  0  0  0  0  0  0  0  0  0  0  0
   -1.1470   23.9440  -29.1050 C   0  0  0  0  0  0  0  0  0  0  0  0
    0.1060   24.0550  -29.0140 O   0  0  0  0  0  0  0  0  0  0  0  0
   -1.7190   22.9670  -30.0840 C   0  0  0  0  0  0  0  0  0  0  0  0
   -3.3420   22.3700  -29.5070 S   0  0  0  0  0  0  0  0  0  0  0  0
   -4.3050   23.5670  -30.4440 C   0  0  0  0  0  0  0  0  0  0  0  0
   -4.1220   24.8950  -30.3290 N   0  0  0  0  0  0  0  0  0  0  0  0
   -4.9640   25.4360  -31.1980 N   0  0  0  0  0  0  0  0  0  0  0  0
   -5.6380   24.4860  -31.8280 N   0  0  0  0  0  0  0  0  0  0  0  0
   -5.2540   23.3070  -31.3700 N   0  0  0  0  0  0  0  0  0  0  0  0
   -5.7520   22.0510  -31.8730 C   0  0  0  0  0  0  0  0  0  0  0  0
   -7.0540   21.6090  -31.5840 C   0  0  0  0  0  0  0  0  0  0  0  0
   -7.5030   20.3560  -32.0400 C   0  0  0  0  0  0  0  0  0  0  0  0
   -8.7790   19.8590  -31.7380 O   0  0  0  0  0  0  0  0  0  0  0  0
   -9.1230   18.4770  -31.7250 C   0  0  0  0  0  0  0  0  0  0  0  0
   -6.6560   19.5700  -32.8290 C   0  0  0  0  0  0  0  0  0  0  0  0
   -5.3820   20.0230  -33.1860 C   0  0  0  0  0  0  0  0  0  0  0  0
   -4.6000   19.2130  -34.0230 O   0  0  0  0  0  0  0  0  0  0  0  0
   -5.0430   17.9910  -34.6060 C   0  0  0  0  0  0  0  0  0  0  0  0
   -4.9330   21.2640  -32.7010 C   0  0  0  0  0  0  0  0  0  0  0  0
   -2.0350   25.4170  -25.9560 C   0  0  0  0  0  0  0  0  0  0  0  0
   -1.6330   26.2440  -24.9040 C   0  0  0  0  0  0  0  0  0  0  0  0
    0.3376   27.9967  -22.1757 H   0  0  0  0  0  0  0  0  0  0  0  0
    1.0657   26.8619  -23.3626 H   0  0  0  0  0  0  0  0  0  0  0  0
    1.5472   28.5925  -23.3626 H   0  0  0  0  0  0  0  0  0  0  0  0
    0.4206   28.3577  -26.6347 H   0  0  0  0  0  0  0  0  0  0  0  0
   -0.2758   26.8654  -28.5022 H   0  0  0  0  0  0  0  0  0  0  0  0
   -3.0230   24.8200  -28.6050 H   0  0  0  0  0  0  0  0  0  0  0  0
   -1.8396   23.4597  -31.0600 H   0  0  0  0  0  0  0  0  0  0  0  0
   -1.0348   22.1106  -30.1762 H   0  0  0  0  0  0  0  0  0  0  0  0
   -7.7286   22.2485  -30.9958 H   0  0  0  0  0  0  0  0  0  0  0  0
   -9.2093   18.1304  -30.6846 H   0  0  0  0  0  0  0  0  0  0  0  0
  -10.0843   18.3336  -32.2402 H   0  0  0  0  0  0  0  0  0  0  0  0
   -8.3412   17.8997  -32.2402 H   0  0  0  0  0  0  0  0  0  0  0  0
   -6.9968   18.5824  -33.1731 H   0  0  0  0  0  0  0  0  0  0  0  0
   -5.3017   17.2775  -33.8098 H   0  0  0  0  0  0  0  0  0  0  0  0
   -5.9291   18.1821  -35.2292 H   0  0  0  0  0  0  0  0  0  0  0  0
   -4.2403   17.5699  -35.2292 H   0  0  0  0  0  0  0  0  0  0  0  0
   -3.9294   21.6231  -32.9726 H   0  0  0  0  0  0  0  0  0  0  0  0
   -2.7131   24.5742  -25.7564 H   0  0  0  0  0  0  0  0  0  0  0  0
   -2.0048   26.0557  -23.8860 H   0  0  0  0  0  0  0  0  0  0  0  0
  1  2  1  0
  2  3  1  0
  3  4  2  0
  4  5  1  0
  5  6  2  0
  6  7  1  0
  7  8  1  0
  8  9  2  0
  8 10  1  0
 10 11  1  0
 11 12  1  0
 12 13  2  0
 13 14  1  0
 14 15  2  0
 15 16  1  0
 16 17  1  0
 17 18  2  0
 18 19  1  0
 19 20  1  0
 20 21  1  0
 19 22  2  0
 22 23  1  0
 23 24  1  0
 24 25  1  0
 23 26  2  0
  6 27  1  0
 27 28  2  0
 28  3  1  0
 16 12  1  0
 26 17  1  0
  1 29  1  0
  1 30  1  0
  1 31  1  0
  4 32  1  0
  5 33  1  0
  7 34  1  0
 10 35  1  0
 10 36  1  0
 18 37  1  0
 21 38  1  0
 21 39  1  0
 21 40  1  0
 22 41  1  0
 25 42  1  0
 25 43  1  0
 25 44  1  0
 26 45  1  0
 27 46  1  0
 28 47  1  0
M  END
>  <UniqueID>  (16) 
16

>  <SMILES>  (16) 
COc1ccc(NC(=O)CSc2nnnn2-c2cc(OC)cc(OC)c2)cc1

>  <Energy>  (16) 
85.73648625268774

>  <Genealogy>  (16) 
COc1ccc(NC(=O)CSc2nnnn2-c2cc(OC)cc(OC)c2)cc1 (3D coordinates assigned)
COc1ccc(NC(=O)CSc2nnnn2-c2cc(OC)cc(OC)c2)cc1 (optimized conformer: 85.73648625268774 kcal/mol)

>  <smiles>  (16) 
COc1ccc(NC(=O)CSc2nnnn2-c2cc(OC)cc(OC)c2)cc1

>  <score_type>  (16) 
oracle

>  <origin>  (16) 
adgpu

>  <m_score__min__energy>  (16) 
-9.0600000000000005

>  <m_primary>  (16) 
energy

$$$$
16:0
     RDKit          3D

 46 51  0  0  0  0  0  0  0  0999 V2000
   -0.7350   25.5880  -28.5590 N   0  0  0  0  0  0  0  0  0  0  0  0
   -1.4400   24.7070  -29.1900 C   0  0  0  0  0  0  0  0  0  0  0  0
   -0.8630   23.5660  -29.6490 N   0  0  0  0  0  0  0  0  0  0  0  0
   -1.5890   22.6310  -30.3130 C   0  0  0  0  0  0  0  0  0  0  0  0
   -2.9620   22.8240  -30.5300 C   0  0  0  0  0  0  0  0  0  0  0  0
   -3.7570   21.8040  -31.2620 C   0  0  0  0  0  0  0  0  0  0  0  0
   -5.1530   21.9010  -31.3880 C   0  0  0  0  0  0  0  0  0  0  0  0
   -5.8440   20.8980  -32.0880 C   0  0  0  0  0  0  0  0  0  0  0  0
   -7.2730   20.9470  -32.2600 N   0  0  0  0  0  0  0  0  0  0  0  0
   -8.0600   22.1410  -31.9740 C   0  0  0  0  0  0  0  0  0  0  0  0
   -9.3280   21.7210  -31.2420 C   0  0  0  0  0  0  0  0  0  0  0  0
  -10.1450   20.8420  -31.9960 O   0  0  0  0  0  0  0  0  0  0  0  0
   -9.4730   19.7850  -32.6840 C   0  0  2  0  0  0  0  0  0  0  0  0
   -8.6090   18.8690  -31.8120 C   0  0  0  0  0  0  0  0  0  0  0  0
   -7.9510   19.7900  -32.8380 C   0  0  2  0  0  0  0  0  0  0  0  0
   -5.1420   19.8720  -32.6360 N   0  0  0  0  0  0  0  0  0  0  0  0
   -3.7950   19.7780  -32.4990 C   0  0  0  0  0  0  0  0  0  0  0  0
   -3.0870   18.6790  -33.0830 N   0  0  0  0  0  0  0  0  0  0  0  0
   -2.0850   18.7940  -34.1510 C   0  0  0  0  0  0  0  0  0  0  0  0
   -2.3150   17.4370  -34.8290 C   0  0  2  0  0  0  0  0  0  0  0  0
   -3.8420   17.4240  -34.8780 C   0  0  0  0  0  0  0  0  0  0  0  0
   -3.6500   17.3620  -33.3710 C   0  0  1  0  0  0  0  0  0  0  0  0
   -2.3940   16.5370  -33.6010 C   0  0  0  0  0  0  0  0  0  0  0  0
   -3.1180   20.7390  -31.8170 N   0  0  0  0  0  0  0  0  0  0  0  0
   -3.5310   24.0180  -30.0550 C   0  0  0  0  0  0  0  0  0  0  0  0
   -2.7630   24.9260  -29.3990 N   0  0  0  0  0  0  0  0  0  0  0  0
    0.2860   25.4470  -28.3850 H   0  0  0  0  0  0  0  0  0  0  0  0
   -1.0991   21.7181  -30.6826 H   0  0  0  0  0  0  0  0  0  0  0  0
   -5.6963   22.7489  -30.9455 H   0  0  0  0  0  0  0  0  0  0  0  0
   -7.4769   22.8271  -31.3421 H   0  0  0  0  0  0  0  0  0  0  0  0
   -8.3190   22.6548  -32.9115 H   0  0  0  0  0  0  0  0  0  0  0  0
   -9.0410   21.2160  -30.3079 H   0  0  0  0  0  0  0  0  0  0  0  0
   -9.9146   22.6329  -31.0566 H   0  0  0  0  0  0  0  0  0  0  0  0
  -10.2977   19.6753  -33.4036 H   0  0  0  0  0  0  0  0  0  0  0  0
   -8.4995   19.0758  -30.7372 H   0  0  0  0  0  0  0  0  0  0  0  0
   -8.5827   17.7886  -31.6068 H   0  0  0  0  0  0  0  0  0  0  0  0
   -7.2572   19.6556  -33.6810 H   0  0  0  0  0  0  0  0  0  0  0  0
   -2.2953   19.6357  -34.8272 H   0  0  0  0  0  0  0  0  0  0  0  0
   -1.0552   18.9928  -33.8193 H   0  0  0  0  0  0  0  0  0  0  0  0
   -1.6711   17.2330  -35.6972 H   0  0  0  0  0  0  0  0  0  0  0  0
   -4.3030   16.5402  -35.3431 H   0  0  0  0  0  0  0  0  0  0  0  0
   -4.4647   18.1605  -35.4071 H   0  0  0  0  0  0  0  0  0  0  0  0
   -4.4492   17.0678  -32.6748 H   0  0  0  0  0  0  0  0  0  0  0  0
   -2.5492   15.4657  -33.7968 H   0  0  0  0  0  0  0  0  0  0  0  0
   -1.5867   16.3966  -32.8671 H   0  0  0  0  0  0  0  0  0  0  0  0
   -4.6009   24.2176  -30.2149 H   0  0  0  0  0  0  0  0  0  0  0  0
  1  2  2  3
  2  3  1  0
  3  4  2  0
  4  5  1  0
  5  6  1  0
  6  7  2  0
  7  8  1  0
  8  9  1  0
  9 10  1  0
 10 11  1  0
 11 12  1  0
 12 13  1  0
 13 14  1  0
 14 15  1  0
  8 16  2  0
 16 17  1  0
 17 18  1  0
 18 19  1  0
 19 20  1  0
 20 21  1  0
 21 22  1  0
 22 23  1  0
 17 24  2  0
  5 25  2  0
 25 26  1  0
 26  2  1  0
 24  6  1  0
 15  9  1  0
 22 18  1  0
 15 13  1  0
 23 20  1  0
  1 27  1  0
  4 28  1  0
  7 29  1  0
 10 30  1  0
 10 31  1  0
 11 32  1  0
 11 33  1  0
 13 34  1  6
 14 35  1  0
 14 36  1  0
 15 37  1  6
 19 38  1  0
 19 39  1  0
 20 40  1  6
 21 41  1  0
 21 42  1  0
 22 43  1  1
 23 44  1  0
 23 45  1  0
 25 46  1  0
M  CHG  1  26  -1
M  END
>  <UniqueID>  (17) 
17

>  <SMILES>  (17) 
N=c1ncc(-c2cc(N3CCO[C@@H]4C[C@@H]43)nc(N3CC4CC3C4)n2)c[n-]1

>  <Energy>  (17) 
469.547546818582

>  <Genealogy>  (17) 
N=c1ncc(-c2cc(N3CCOC4CC43)nc(N3CC4CC3C4)n2)c[n-]1 (protonated)
N=c1ncc(-c2cc(N3CCO[C@@H]4C[C@@H]43)nc(N3CC4CC3C4)n2)c[n-]1 (chirality)
N=c1ncc(-c2cc(N3CCO[C@@H]4C[C@@H]43)nc(N3CC4CC3C4)n2)c[n-]1 (3D coordinates assigned)
N=c1ncc(-c2cc(N3CCO[C@@H]4C[C@@H]43)nc(N3CC4CC3C4)n2)c[n-]1 (nonaromatic ring conformer: 469.547546818582 kcal/mol)

>  <smiles>  (17) 
N=c1ncc(-c2cc(N3CCOC4CC43)nc(N3CC4CC3C4)n2)c[nH]1

>  <score_type>  (17) 
oracle

>  <origin>  (17) 
adgpu

>  <m_score__min__energy>  (17) 
-8.9700000000000006

>  <m_primary>  (17) 
energy

$$$$
17:0
     RDKit          3D

 51 54  0  0  1  0  0  0  0  0999 V2000
    2.6220   18.1370  -31.8220 C   0  0  0  0  0  0  0  0  0  0  0  0
    2.4840   19.4640  -33.0610 S   0  0  0  0  0  0  0  0  0  0  0  0
    0.7680   19.7380  -33.3850 C   0  0  0  0  0  0  0  0  0  0  0  0
   -0.1960   18.8320  -33.0450 N   0  0  0  0  0  0  0  0  0  0  0  0
   -1.4970   19.0580  -33.3060 C   0  0  0  0  0  0  0  0  0  0  0  0
   -2.4370   18.2220  -32.9980 N   0  0  0  0  0  0  0  0  0  0  0  0
   -3.7900   18.5970  -33.3380 C   0  0  0  0  0  0  0  0  0  0  0  0
   -4.4350   17.9760  -34.3880 C   0  0  0  0  0  0  0  0  0  0  0  0
   -5.7240   18.3490  -34.6980 C   0  0  0  0  0  0  0  0  0  0  0  0
   -6.3420   19.3300  -33.9570 C   0  0  0  0  0  0  0  0  0  0  0  0
   -5.6670   19.9410  -32.9000 C   0  0  0  0  0  0  0  0  0  0  0  0
   -6.3000   20.9850  -32.1010 C   0  0  0  0  0  0  0  0  0  0  0  0
   -7.6590   21.1880  -32.3360 C   0  0  0  0  0  0  0  0  0  0  0  0
   -8.2860   22.1680  -31.5940 C   0  0  0  0  0  0  0  0  0  0  0  0
   -7.5900   22.9140  -30.6590 C   0  0  0  0  0  0  0  0  0  0  0  0
   -6.2400   22.7150  -30.4230 C   0  0  0  0  0  0  0  0  0  0  0  0
   -5.6080   23.5080  -29.4550 N   0  0  0  0  0  0  0  0  0  0  0  0
   -3.9920   24.1130  -29.6090 S   0  0  0  0  0  0  0  0  0  0  0  0
   -3.6470   24.9190  -28.3790 O   0  0  0  0  0  0  0  0  0  0  0  0
   -3.8500   24.9500  -30.8440 O   0  0  0  0  0  0  0  0  0  0  0  0
   -2.9100   22.7470  -29.7190 C   0  0  0  0  0  0  0  0  0  0  0  0
   -2.0990   22.4880  -30.7840 C   0  0  0  0  0  0  0  0  0  0  0  0
   -1.2610   21.3710  -30.7900 C   0  0  0  0  0  0  0  0  0  0  0  0
   -1.2490   20.5080  -29.7040 C   0  0  0  0  0  0  0  0  0  0  0  0
   -0.1370   18.9640  -29.6340 Br  0  0  0  0  0  0  0  0  0  0  0  0
   -2.0690   20.7700  -28.6290 C   0  0  0  0  0  0  0  0  0  0  0  0
   -2.8960   21.8770  -28.6270 C   0  0  0  0  0  0  0  0  0  0  0  0
   -5.6050   21.7320  -31.1650 C   0  0  0  0  0  0  0  0  0  0  0  0
   -4.3650   19.5820  -32.5670 C   0  0  0  0  0  0  0  0  0  0  0  0
   -1.8150   20.2640  -33.9390 C   0  0  0  0  0  0  0  0  0  0  0  0
   -0.8470   21.1800  -34.2840 C   0  0  0  0  0  0  0  0  0  0  0  0
    0.4150   20.8940  -33.9990 N   0  0  0  0  0  0  0  0  0  0  0  0
    2.5768   18.5717  -30.8126 H   0  0  0  0  0  0  0  0  0  0  0  0
    1.7930   17.4259  -31.9525 H   0  0  0  0  0  0  0  0  0  0  0  0
    3.5796   17.6117  -31.9525 H   0  0  0  0  0  0  0  0  0  0  0  0
   -3.9263   17.1933  -34.9698 H   0  0  0  0  0  0  0  0  0  0  0  0
   -6.2554   17.8664  -35.5315 H   0  0  0  0  0  0  0  0  0  0  0  0
   -7.3713   19.6334  -34.1988 H   0  0  0  0  0  0  0  0  0  0  0  0
   -8.2078   20.5927  -33.0807 H   0  0  0  0  0  0  0  0  0  0  0  0
   -9.3581   22.3597  -31.7484 H   0  0  0  0  0  0  0  0  0  0  0  0
   -8.1242   23.6869  -30.0870 H   0  0  0  0  0  0  0  0  0  0  0  0
   -6.1680   23.7390  -28.5880 H   0  0  0  0  0  0  0  0  0  0  0  0
   -2.1049   23.1673  -31.6492 H   0  0  0  0  0  0  0  0  0  0  0  0
   -0.6107   21.1755  -31.6554 H   0  0  0  0  0  0  0  0  0  0  0  0
   -2.0656   20.0913  -27.7634 H   0  0  0  0  0  0  0  0  0  0  0  0
   -3.5459   22.0736  -27.7616 H   0  0  0  0  0  0  0  0  0  0  0  0
   -4.5329   21.5423  -31.0081 H   0  0  0  0  0  0  0  0  0  0  0  0
   -3.8255   20.0581  -31.7349 H   0  0  0  0  0  0  0  0  0  0  0  0
   -2.8677   20.4867  -34.1675 H   0  0  0  0  0  0  0  0  0  0  0  0
   -1.1139   22.1235  -34.7826 H   0  0  0  0  0  0  0  0  0  0  0  0
    1.1510   21.5830  -34.2570 H   0  0  0  0  0  0  0  0  0  0  0  0
  1  2  1  0
  2  3  1  0
  3  4  2  0
  4  5  1  0
  5  6  2  0
  6  7  1  0
  7  8  2  0
  8  9  1  0
  9 10  2  0
 10 11  1  0
 11 12  1  0
 12 13  2  0
 13 14  1  0
 14 15  2  0
 15 16  1  0
 16 17  1  0
 17 18  1  0
 18 19  2  0
 18 20  2  0
 18 21  1  0
 21 22  2  0
 22 23  1  0
 23 24  2  0
 24 25  1  0
 24 26  1  0
 26 27  2  0
 16 28  2  0
 11 29  2  0
  5 30  1  0
 30 31  2  0
 31 32  1  0
 32  3  1  0
 29  7  1  0
 28 12  1  0
 27 21  1  0
  1 33  1  0
  1 34  1  0
  1 35  1  0
  8 36  1  0
  9 37  1  0
 10 38  1  0
 13 39  1  0
 14 40  1  0
 15 41  1  0
 17 42  1  0
 22 43  1  0
 23 44  1  0
 26 45  1  0
 27 46  1  0
 28 47  1  0
 29 48  1  0
 30 49  1  0
 31 50  1  0
 32 51  1  0
M  END
>  <smiles>  (18) 
CSc1nc(=Nc2cccc(-c3cccc(NS(=O)(=O)c4ccc(Br)cc4)c3)c2)cc[nH]1

>  <score_type>  (18) 
oracle

>  <origin>  (18) 
adgpu

>  <m_score__min__energy>  (18) 
-11.300000000000001

>  <m_primary>  (18) 
energy

$$$$
18:0
     RDKit          3D

 37 38  0  0  0  0  0  0  0  0999 V2000
   -6.8530   16.9290  -33.7760 C   0  0  0  0  0  0  0  0  0  0  0  0
   -6.7570   18.1180  -32.8790 C   0  0  0  0  0  0  0  0  0  0  0  0
   -6.3780   17.9650  -31.6870 O   0  0  0  0  0  0  0  0  0  0  0  0
   -7.1800   19.4050  -33.3520 N   0  0  0  0  0  0  0  0  0  0  0  0
   -6.8790   20.6490  -32.6950 C   0  0  0  0  0  0  0  0  0  0  0  0
   -5.5710   21.1540  -32.7460 C   0  0  0  0  0  0  0  0  0  0  0  0
   -5.2390   22.3360  -32.0760 C   0  0  0  0  0  0  0  0  0  0  0  0
   -6.2100   23.0200  -31.3330 C   0  0  0  0  0  0  0  0  0  0  0  0
   -5.7930   24.4840  -30.4440 S   0  0  0  0  0  0  0  0  0  0  0  0
   -7.0380   25.3020  -30.2480 O   0  0  0  0  0  0  0  0  0  0  0  0
   -4.7830   25.2960  -31.2030 O   0  0  0  0  0  0  0  0  0  0  0  0
   -5.1330   24.0670  -28.8970 N   0  0  0  0  0  0  0  0  0  0  0  0
   -3.7640   24.2700  -28.5340 C   0  0  0  0  0  0  0  0  0  0  0  0
   -3.4390   24.1950  -27.3200 O   0  0  0  0  0  0  0  0  0  0  0  0
   -2.7710   24.5600  -29.5300 N   0  0  0  0  0  0  0  0  0  0  0  0
   -1.3370   24.4120  -29.2880 C   0  0  0  0  0  0  0  0  0  0  0  0
   -0.8790   25.4570  -28.3230 C   0  0  0  0  0  0  0  0  0  0  0  0
   -0.2480   25.2230  -27.1170 C   0  0  0  0  0  0  0  0  0  0  0  0
   -0.0270   26.4680  -26.5670 C   0  0  0  0  0  0  0  0  0  0  0  0
   -0.5400   27.3810  -27.4670 C   0  0  0  0  0  0  0  0  0  0  0  0
   -1.0420   26.7480  -28.5030 O   0  0  0  0  0  0  0  0  0  0  0  0
   -7.5140   22.5140  -31.2680 C   0  0  0  0  0  0  0  0  0  0  0  0
   -7.8460   21.3330  -31.9360 C   0  0  0  0  0  0  0  0  0  0  0  0
   -6.9267   16.0156  -33.1675 H   0  0  0  0  0  0  0  0  0  0  0  0
   -7.7467   17.0198  -34.4108 H   0  0  0  0  0  0  0  0  0  0  0  0
   -5.9563   16.8753  -34.4108 H   0  0  0  0  0  0  0  0  0  0  0  0
   -7.7830   19.4330  -34.2070 H   0  0  0  0  0  0  0  0  0  0  0  0
   -4.8004   20.6160  -33.3175 H   0  0  0  0  0  0  0  0  0  0  0  0
   -4.2133   22.7294  -32.1326 H   0  0  0  0  0  0  0  0  0  0  0  0
   -3.0700   24.9280  -30.4600 H   0  0  0  0  0  0  0  0  0  0  0  0
   -1.1379   23.4147  -28.8688 H   0  0  0  0  0  0  0  0  0  0  0  0
   -0.7933   24.5289  -30.2370 H   0  0  0  0  0  0  0  0  0  0  0  0
    0.0218   24.2478  -26.6856 H   0  0  0  0  0  0  0  0  0  0  0  0
    0.4596   26.6892  -25.6056 H   0  0  0  0  0  0  0  0  0  0  0  0
   -0.5299   28.4732  -27.3363 H   0  0  0  0  0  0  0  0  0  0  0  0
   -8.2805   23.0490  -30.6882 H   0  0  0  0  0  0  0  0  0  0  0  0
   -8.8694   20.9355  -31.8682 H   0  0  0  0  0  0  0  0  0  0  0  0
  1  2  1  0
  2  3  2  0
  2  4  1  0
  4  5  1  0
  5  6  2  0
  6  7  1  0
  7  8  2  0
  8  9  1  0
  9 10  2  0
  9 11  2  0
  9 12  1  0
 12 13  1  0
 13 14  2  0
 13 15  1  0
 15 16  1  0
 16 17  1  0
 17 18  2  0
 18 19  1  0
 19 20  2  0
 20 21  1  0
  8 22  1  0
 22 23  2  0
 23  5  1  0
 21 17  1  0
  1 24  1  0
  1 25  1  0
  1 26  1  0
  4 27  1  0
  6 28  1  0
  7 29  1  0
 15 30  1  0
 16 31  1  0
 16 32  1  0
 18 33  1  0
 19 34  1  0
 20 35  1  0
 22 36  1  0
 23 37  1  0
M  CHG  1  12  -1
M  END
>  <UniqueID>  (19) 
18

>  <SMILES>  (19) 
CC(=O)Nc1ccc(S(=O)(=O)[N-]C(=O)NCc2ccco2)cc1

>  <Energy>  (19) 
60.6987370968691

>  <Genealogy>  (19) 
CC(=O)Nc1ccc(S(=O)(=O)[N-]C(=O)NCc2ccco2)cc1 (protonated)
CC(=O)Nc1ccc(S(=O)(=O)[N-]C(=O)NCc2ccco2)cc1 (3D coordinates assigned)
CC(=O)Nc1ccc(S(=O)(=O)[N-]C(=O)NCc2ccco2)cc1 (optimized conformer: 60.6987370968691 kcal/mol)

>  <smiles>  (19) 
CC(=O)Nc1ccc(S(=O)(=O)NC(=O)NCc2ccco2)cc1

>  <score_type>  (19) 
oracle

>  <origin>  (19) 
adgpu

>  <m_score__min__energy>  (19) 
-9.3599999999999994

>  <m_primary>  (19) 
energy

$$$$
19:0
     RDKit          3D

 30 33  0  0  0  0  0  0  0  0999 V2000
   -9.3630   18.2010  -32.3100 O   0  0  0  0  0  0  0  0  0  0  0  0
   -8.7210   19.2470  -32.0320 C   0  0  0  0  0  0  0  0  0  0  0  0
   -9.2970   20.3860  -31.6900 O   0  0  0  0  0  0  0  0  0  0  0  0
   -8.3020   21.2130  -31.4850 C   0  0  0  0  0  0  0  0  0  0  0  0
   -8.3410   22.5480  -31.1030 C   0  0  0  0  0  0  0  0  0  0  0  0
   -7.1080   23.2220  -30.9490 C   0  0  0  0  0  0  0  0  0  0  0  0
   -7.0960   24.5690  -30.5650 C   0  0  0  0  0  0  0  0  0  0  0  0
   -5.8870   25.2460  -30.4090 C   0  0  0  0  0  0  0  0  0  0  0  0
   -4.6730   24.5910  -30.6320 C   0  0  0  0  0  0  0  0  0  0  0  0
   -3.4840   25.2960  -30.4680 O   0  0  0  0  0  0  0  0  0  0  0  0
   -4.6510   23.2390  -31.0190 C   0  0  0  0  0  0  0  0  0  0  0  0
   -3.3470   22.5840  -31.2450 C   0  0  0  0  0  0  0  0  0  0  0  0
   -3.0860   21.9380  -32.4620 C   0  0  0  0  0  0  0  0  0  0  0  0
   -1.8480   21.3230  -32.6780 C   0  0  0  0  0  0  0  0  0  0  0  0
   -0.8680   21.3510  -31.6800 C   0  0  0  0  0  0  0  0  0  0  0  0
    0.3600   20.7400  -31.8950 O   0  0  0  0  0  0  0  0  0  0  0  0
   -1.1260   21.9940  -30.4650 C   0  0  0  0  0  0  0  0  0  0  0  0
   -2.3630   22.6100  -30.2460 C   0  0  0  0  0  0  0  0  0  0  0  0
   -5.8700   22.5360  -31.1810 C   0  0  0  0  0  0  0  0  0  0  0  0
   -5.8940   21.1700  -31.5700 C   0  0  0  0  0  0  0  0  0  0  0  0
   -7.1310   20.5540  -31.7080 C   0  0  0  0  0  0  0  0  0  0  0  0
   -7.4010   19.3200  -32.0520 O   0  0  0  0  0  0  0  0  0  0  0  0
   -9.2972   23.0623  -30.9266 H   0  0  0  0  0  0  0  0  0  0  0  0
   -8.0451   25.0954  -30.3856 H   0  0  0  0  0  0  0  0  0  0  0  0
   -5.8889   26.3040  -30.1080 H   0  0  0  0  0  0  0  0  0  0  0  0
   -3.8555   21.9148  -33.2477 H   0  0  0  0  0  0  0  0  0  0  0  0
   -1.6450   20.8170  -33.6334 H   0  0  0  0  0  0  0  0  0  0  0  0
   -0.3553   22.0154  -29.6805 H   0  0  0  0  0  0  0  0  0  0  0  0
   -2.5639   23.1150  -29.2897 H   0  0  0  0  0  0  0  0  0  0  0  0
   -4.9615   20.6171  -31.7562 H   0  0  0  0  0  0  0  0  0  0  0  0
  1  2  2  0
  2  3  1  0
  3  4  1  0
  4  5  2  0
  5  6  1  0
  6  7  2  0
  7  8  1  0
  8  9  2  0
  9 10  1  0
  9 11  1  0
 11 12  1  0
 12 13  2  0
 13 14  1  0
 14 15  2  0
 15 16  1  0
 15 17  1  0
 17 18  2  0
 11 19  2  0
 19 20  1  0
 20 21  2  0
 21 22  1  0
 22  2  1  0
 21  4  1  0
 19  6  1  0
 18 12  1  0
  5 23  1  0
  7 24  1  0
  8 25  1  0
 13 26  1  0
 14 27  1  0
 17 28  1  0
 18 29  1  0
 20 30  1  0
M  CHG  2  10  -1  16  -1
M  END
>  <UniqueID>  (20) 
19

>  <SMILES>  (20) 
O=c1oc2cc3ccc([O-])c(-c4ccc([O-])cc4)c3cc2o1

>  <Energy>  (20) 
89.01669062982155

>  <Genealogy>  (20) 
O=c1oc2cc3ccc([O-])c(-c4ccc([O-])cc4)c3cc2o1 (protonated)
O=c1oc2cc3ccc([O-])c(-c4ccc([O-])cc4)c3cc2o1 (3D coordinates assigned)
O=c1oc2cc3ccc([O-])c(-c4ccc([O-])cc4)c3cc2o1 (optimized conformer: 89.01669062982155 kcal/mol)

>  <smiles>  (20) 
O=c1oc2cc3ccc(O)c(-c4ccc(O)cc4)c3cc2o1

>  <score_type>  (20) 
oracle

>  <origin>  (20) 
adgpu

>  <m_score__min__energy>  (20) 
-11.25

>  <m_primary>  (20) 
energy

$$$$
20:0
     RDKit          3D

 56 60  0  0  0  0  0  0  0  0999 V2000
    1.6410   14.3140  -31.3570 C   0  0  0  0  0  0  0  0  0  0  0  0
    1.6680   15.2200  -30.1730 C   0  0  0  0  0  0  0  0  0  0  0  0
    0.6030   15.9610  -29.7000 C   0  0  0  0  0  0  0  0  0  0  0  0
    1.1100   16.5880  -28.5770 C   0  0  0  0  0  0  0  0  0  0  0  0
    0.4510   17.5330  -27.7780 O   0  0  0  0  0  0  0  0  0  0  0  0
   -0.1270   18.7200  -28.2450 C   0  0  0  0  0  0  0  0  0  0  0  0
    0.5230   19.4290  -29.2610 C   0  0  0  0  0  0  0  0  0  0  0  0
   -0.0130   20.6240  -29.7480 C   0  0  0  0  0  0  0  0  0  0  0  0
   -1.2160   21.1270  -29.2210 C   0  0  0  0  0  0  0  0  0  0  0  0
   -1.7890   22.3630  -29.6740 N   0  0  0  0  0  0  0  0  0  0  0  0
   -2.5150   22.5730  -30.8920 C   0  0  0  0  0  0  0  0  0  0  0  0
   -1.9780   22.2880  -31.9970 O   0  0  0  0  0  0  0  0  0  0  0  0
   -3.9200   23.0650  -30.8620 C   0  0  0  0  0  0  0  0  0  0  0  0
   -4.9650   22.1950  -31.2370 C   0  0  0  0  0  0  0  0  0  0  0  0
   -6.3070   22.6180  -31.2160 C   0  0  0  0  0  0  0  0  0  0  0  0
   -7.3970   21.6890  -31.6120 C   0  0  0  0  0  0  0  0  0  0  0  0
   -8.7400   22.1090  -31.5850 C   0  0  0  0  0  0  0  0  0  0  0  0
   -9.7640   21.2340  -31.9580 C   0  0  0  0  0  0  0  0  0  0  0  0
   -9.4610   19.9320  -32.3620 C   0  0  0  0  0  0  0  0  0  0  0  0
   -8.1320   19.5020  -32.3940 C   0  0  0  0  0  0  0  0  0  0  0  0
   -7.1030   20.3740  -32.0220 C   0  0  0  0  0  0  0  0  0  0  0  0
   -6.6010   23.9310  -30.8160 C   0  0  0  0  0  0  0  0  0  0  0  0
   -5.5780   24.8030  -30.4490 C   0  0  0  0  0  0  0  0  0  0  0  0
   -4.2440   24.3840  -30.4710 C   0  0  0  0  0  0  0  0  0  0  0  0
   -3.2590   25.2960  -30.1100 O   0  0  0  0  0  0  0  0  0  0  0  0
   -1.8420   20.4420  -28.1740 C   0  0  0  0  0  0  0  0  0  0  0  0
   -1.3060   19.2460  -27.6880 C   0  0  0  0  0  0  0  0  0  0  0  0
    2.3980   16.2200  -28.4060 N   0  0  0  0  0  0  0  0  0  0  0  0
    3.3040   16.6460  -27.3720 C   0  0  0  0  0  0  0  0  0  0  0  0
    3.4700   15.8950  -26.1930 C   0  0  0  0  0  0  0  0  0  0  0  0
    4.3620   16.3180  -25.2040 C   0  0  0  0  0  0  0  0  0  0  0  0
    5.1030   17.4890  -25.3830 C   0  0  0  0  0  0  0  0  0  0  0  0
    4.9580   18.2330  -26.5550 C   0  0  0  0  0  0  0  0  0  0  0  0
    4.0680   17.8130  -27.5480 C   0  0  0  0  0  0  0  0  0  0  0  0
    2.7420   15.3840  -29.3750 N   0  0  0  0  0  0  0  0  0  0  0  0
    1.6098   13.2681  -31.0177 H   0  0  0  0  0  0  0  0  0  0  0  0
    0.7489   14.5295  -31.9634 H   0  0  0  0  0  0  0  0  0  0  0  0
    2.5444   14.4760  -31.9634 H   0  0  0  0  0  0  0  0  0  0  0  0
   -0.4115   16.0350  -30.1188 H   0  0  0  0  0  0  0  0  0  0  0  0
    1.4638   19.0425  -29.6799 H   0  0  0  0  0  0  0  0  0  0  0  0
    0.5077   21.1732  -30.5463 H   0  0  0  0  0  0  0  0  0  0  0  0
   -4.7268   21.1681  -31.5513 H   0  0  0  0  0  0  0  0  0  0  0  0
   -8.9855   23.1333  -31.2680 H   0  0  0  0  0  0  0  0  0  0  0  0
  -10.8106   21.5715  -31.9333 H   0  0  0  0  0  0  0  0  0  0  0  0
  -10.2686   19.2450  -32.6550 H   0  0  0  0  0  0  0  0  0  0  0  0
   -7.8943   18.4762  -32.7122 H   0  0  0  0  0  0  0  0  0  0  0  0
   -6.0584   20.0306  -32.0499 H   0  0  0  0  0  0  0  0  0  0  0  0
   -7.6459   24.2738  -30.7921 H   0  0  0  0  0  0  0  0  0  0  0  0
   -5.8219   25.8299  -30.1393 H   0  0  0  0  0  0  0  0  0  0  0  0
   -2.7630   20.8477  -27.7299 H   0  0  0  0  0  0  0  0  0  0  0  0
   -1.8085   18.7143  -26.8666 H   0  0  0  0  0  0  0  0  0  0  0  0
    2.8938   14.9691  -26.0493 H   0  0  0  0  0  0  0  0  0  0  0  0
    4.4810   15.7282  -24.2831 H   0  0  0  0  0  0  0  0  0  0  0  0
    5.8001   17.8243  -24.6009 H   0  0  0  0  0  0  0  0  0  0  0  0
    5.5454   19.1520  -26.6977 H   0  0  0  0  0  0  0  0  0  0  0  0
    3.9648   18.3994  -28.4729 H   0  0  0  0  0  0  0  0  0  0  0  0
  1  2  1  0
  2  3  1  0
  3  4  2  0
  4  5  1  0
  5  6  1  0
  6  7  2  0
  7  8  1  0
  8  9  2  0
  9 10  1  0
 10 11  1  0
 11 12  2  0
 11 13  1  0
 13 14  2  0
 14 15  1  0
 15 16  1  0
 16 17  2  0
 17 18  1  0
 18 19  2  0
 19 20  1  0
 20 21  2  0
 15 22  2  0
 22 23  1  0
 23 24  2  0
 24 25  1  0
  9 26  1  0
 26 27  2  0
  4 28  1  0
 28 29  1  0
 29 30  2  0
 30 31  1  0
 31 32  2  0
 32 33  1  0
 33 34  2  0
 28 35  1  0
 35  2  2  0
 27  6  1  0
 34 29  1  0
 24 13  1  0
 21 16  1  0
  1 36  1  0
  1 37  1  0
  1 38  1  0
  3 39  1  0
  7 40  1  0
  8 41  1  0
 14 42  1  0
 17 43  1  0
 18 44  1  0
 19 45  1  0
 20 46  1  0
 21 47  1  0
 22 48  1  0
 23 49  1  0
 26 50  1  0
 27 51  1  0
 30 52  1  0
 31 53  1  0
 32 54  1  0
 33 55  1  0
 34 56  1  0
M  CHG  2  10  -1  25  -1
M  END
>  <UniqueID>  (21) 
20

>  <SMILES>  (21) 
Cc1cc(Oc2ccc([N-]C(=O)c3cc(-c4ccccc4)ccc3[O-])cc2)n(-c2ccccc2)n1

>  <Energy>  (21) 
113.04831278500524

>  <Genealogy>  (21) 
Cc1cc(Oc2ccc([N-]C(=O)c3cc(-c4ccccc4)ccc3[O-])cc2)n(-c2ccccc2)n1 (protonated)
Cc1cc(Oc2ccc([N-]C(=O)c3cc(-c4ccccc4)ccc3[O-])cc2)n(-c2ccccc2)n1 (3D coordinates assigned)
Cc1cc(Oc2ccc([N-]C(=O)c3cc(-c4ccccc4)ccc3[O-])cc2)n(-c2ccccc2)n1 (optimized conformer: 113.04831278500524 kcal/mol)

>  <smiles>  (21) 
Cc1cc(Oc2ccc(NC(=O)c3cc(-c4ccccc4)ccc3O)cc2)n(-c2ccccc2)n1

>  <score_type>  (21) 
oracle

>  <origin>  (21) 
adgpu

>  <m_score__min__energy>  (21) 
-13.91

>  <m_primary>  (21) 
energy

$$$$
21:0
     RDKit          3D

 20 21  0  0  0  0  0  0  0  0999 V2000
   -6.6660   22.6780  -32.3430 C   0  0  0  0  0  0  0  0  0  0  0  0
   -7.2520   23.5340  -30.8490 S   0  0  0  0  0  0  0  0  0  0  0  0
   -5.6320   24.1800  -30.4480 C   0  0  0  0  0  0  0  0  0  0  0  0
   -4.9850   25.0850  -31.2050 N   0  0  0  0  0  0  0  0  0  0  0  0
   -3.8640   25.2900  -30.5820 O   0  0  0  0  0  0  0  0  0  0  0  0
   -3.8170   24.5540  -29.4990 C   0  0  0  0  0  0  0  0  0  0  0  0
   -2.6830   24.5440  -28.5620 C   0  0  0  0  0  0  0  0  0  0  0  0
   -2.6110   23.6070  -27.5180 C   0  0  0  0  0  0  0  0  0  0  0  0
   -1.5170   23.6320  -26.6510 C   0  0  0  0  0  0  0  0  0  0  0  0
   -0.5110   24.5840  -26.8270 C   0  0  0  0  0  0  0  0  0  0  0  0
   -0.6150   25.5010  -27.8750 C   0  0  0  0  0  0  0  0  0  0  0  0
   -1.6880   25.4620  -28.7110 N   0  0  0  0  0  0  0  0  0  0  0  0
   -4.9340   23.8130  -29.3550 N   0  0  0  0  0  0  0  0  0  0  0  0
   -6.0667   21.8025  -32.0527 H   0  0  0  0  0  0  0  0  0  0  0  0
   -7.5296   22.3495  -32.9399 H   0  0  0  0  0  0  0  0  0  0  0  0
   -6.0474   23.3643  -32.9399 H   0  0  0  0  0  0  0  0  0  0  0  0
   -3.4085   22.8611  -27.3849 H   0  0  0  0  0  0  0  0  0  0  0  0
   -1.4477   22.9027  -25.8304 H   0  0  0  0  0  0  0  0  0  0  0  0
    0.3538   24.6114  -26.1478 H   0  0  0  0  0  0  0  0  0  0  0  0
    0.1712   26.2556  -28.0249 H   0  0  0  0  0  0  0  0  0  0  0  0
  1  2  1  0
  2  3  1  0
  3  4  2  0
  4  5  1  0
  5  6  1  0
  6  7  1  0
  7  8  2  0
  8  9  1  0
  9 10  2  0
 10 11  1  0
 11 12  2  0
  6 13  2  0
 13  3  1  0
 12  7  1  0
  1 14  1  0
  1 15  1  0
  1 16  1  0
  8 17  1  0
  9 18  1  0
 10 19  1  0
 11 20  1  0
M  END
>  <UniqueID>  (22) 
21

>  <SMILES>  (22) 
CSc1noc(-c2ccccn2)n1

>  <Energy>  (22) 
49.79699818918547

>  <Genealogy>  (22) 
CSc1noc(-c2ccccn2)n1 (3D coordinates assigned)
CSc1noc(-c2ccccn2)n1 (optimized conformer: 49.79699818918547 kcal/mol)

>  <smiles>  (22) 
CSc1noc(-c2ccccn2)n1

>  <score_type>  (22) 
oracle

>  <origin>  (22) 
adgpu

>  <m_score__min__energy>  (22) 
-6.0199999999999996

>  <m_primary>  (22) 
energy

$$$$
22:0
     RDKit          3D

 38 39  0  0  0  0  0  0  0  0999 V2000
   -1.5640   21.5160  -29.0120 H   0  0  0  0  0  0  0  0  0  0  0  0
   -2.3670   21.1690  -29.5270 O   0  0  0  0  0  0  0  0  0  0  0  0
   -3.2830   22.0360  -30.1200 C   0  0  0  0  0  0  0  0  0  0  0  0
   -4.4050   21.5260  -30.7860 C   0  0  0  0  0  0  0  0  0  0  0  0
   -4.5385   20.4376  -30.8734 H   0  0  0  0  0  0  0  0  0  0  0  0
   -5.3590   22.3890  -31.3420 C   0  0  0  0  0  0  0  0  0  0  0  0
   -6.4890   21.8390  -32.0400 N   0  0  0  0  0  0  0  0  0  0  0  0
   -7.2600   22.4900  -32.3100 H   0  0  0  0  0  0  0  0  0  0  0  0
   -6.6280   20.4510  -32.3930 C   0  0  0  0  0  0  0  0  0  0  0  0
   -5.7470   19.8340  -33.2970 C   0  0  0  0  0  0  0  0  0  0  0  0
   -4.9176   20.4113  -33.7315 H   0  0  0  0  0  0  0  0  0  0  0  0
   -5.9170   18.4920  -33.6480 C   0  0  0  0  0  0  0  0  0  0  0  0
   -5.2140   18.0149  -34.3466 H   0  0  0  0  0  0  0  0  0  0  0  0
   -6.9860   17.7480  -33.1100 C   0  0  0  0  0  0  0  0  0  0  0  0
   -7.1980   16.3980  -33.4280 O   0  0  0  0  0  0  0  0  0  0  0  0
   -6.2770   15.5890  -34.1530 C   0  0  0  0  0  0  0  0  0  0  0  0
   -5.6432   15.0323  -33.4470 H   0  0  0  0  0  0  0  0  0  0  0  0
   -6.8309   14.8801  -34.7860 H   0  0  0  0  0  0  0  0  0  0  0  0
   -5.6455   16.2297  -34.7860 H   0  0  0  0  0  0  0  0  0  0  0  0
   -7.8740   18.3720  -32.2280 C   0  0  0  0  0  0  0  0  0  0  0  0
   -8.7141   17.8010  -31.8059 H   0  0  0  0  0  0  0  0  0  0  0  0
   -7.7040   19.7140  -31.8780 C   0  0  0  0  0  0  0  0  0  0  0  0
   -8.4187   20.1953  -31.1942 H   0  0  0  0  0  0  0  0  0  0  0  0
   -5.1620   23.7780  -31.2520 C   0  0  0  0  0  0  0  0  0  0  0  0
   -5.8945   24.4645  -31.7017 H   0  0  0  0  0  0  0  0  0  0  0  0
   -4.0400   24.2920  -30.5940 C   0  0  0  0  0  0  0  0  0  0  0  0
   -3.8710   25.6690  -30.5020 O   0  0  0  0  0  0  0  0  0  0  0  0
   -3.0870   23.4270  -30.0420 C   0  0  0  0  0  0  0  0  0  0  0  0
   -1.9590   23.9730  -29.3430 N   0  0  0  0  0  0  0  0  0  0  0  0
   -1.9570   24.4200  -28.1200 C   0  0  0  0  0  0  0  0  0  0  0  0
   -1.0428   24.9068  -27.7495 H   0  0  0  0  0  0  0  0  0  0  0  0
   -3.1310   24.3110  -27.1810 C   0  0  0  0  0  0  0  0  0  0  0  0
   -3.1754   23.2898  -26.7745 H   0  0  0  0  0  0  0  0  0  0  0  0
   -4.0525   24.5392  -27.7366 H   0  0  0  0  0  0  0  0  0  0  0  0
   -2.9910   25.3030  -26.0310 C   0  0  0  0  0  0  0  0  0  0  0  0
   -3.0666   24.7672  -25.0733 H   0  0  0  0  0  0  0  0  0  0  0  0
   -2.0134   25.8031  -26.0951 H   0  0  0  0  0  0  0  0  0  0  0  0
   -3.7920   26.0542  -26.0951 H   0  0  0  0  0  0  0  0  0  0  0  0
  1  2  1  0
  2  3  1  0
  3  4  2  0
  4  5  1  0
  4  6  1  0
  6  7  1  0
  7  8  1  0
  7  9  1  0
  9 10  2  0
 10 11  1  0
 10 12  1  0
 12 13  1  0
 12 14  2  0
 14 15  1  0
 15 16  1  0
 16 17  1  0
 16 18  1  0
 16 19  1  0
 14 20  1  0
 20 21  1  0
 20 22  2  0
 22 23  1  0
  6 24  2  0
 24 25  1  0
 24 26  1  0
 26 27  1  0
 26 28  2  0
 28 29  1  0
 29 30  2  0
 30 31  1  0
 30 32  1  0
 32 33  1  0
 32 34  1  0
 32 35  1  0
 35 36  1  0
 35 37  1  0
 35 38  1  0
 28  3  1  0
 22  9  1  0
M  CHG  1  27  -1
M  END
>  <UniqueID>  (23) 
22

>  <SMILES>  (23) 
CC/C=N\c1c([O-])cc(Nc2ccc(OC)cc2)cc1O

>  <Energy>  (23) 
48.797849640029746

>  <Genealogy>  (23) 
CCC=Nc1c([O-])cc(Nc2ccc(OC)cc2)cc1O (protonated)
CC/C=N\c1c([O-])cc(Nc2ccc(OC)cc2)cc1O (cis-trans isomerization)
CC/C=N\c1c([O-])cc(Nc2ccc(OC)cc2)cc1O (3D coordinates assigned)
CC/C=N\c1c([O-])cc(Nc2ccc(OC)cc2)cc1O (optimized conformer: 48.797849640029746 kcal/mol)

>  <smiles>  (23) 
CCC=Nc1c(O)cc(Nc2ccc(OC)cc2)cc1O

>  <score_type>  (23) 
oracle

>  <origin>  (23) 
adgpu

>  <m_score__min__energy>  (23) 
-9.0800000000000001

>  <m_primary>  (23) 
energy

$$$$
23:0
     RDKit          3D

 48 50  0  0  0  0  0  0  0  0999 V2000
   -5.1280   25.1880  -30.1440 C   0  0  0  0  0  0  0  0  0  0  0  0
   -4.3220   24.2670  -30.8710 O   0  0  0  0  0  0  0  0  0  0  0  0
   -4.7580   23.0090  -31.3180 C   0  0  0  0  0  0  0  0  0  0  0  0
   -5.7580   22.8680  -32.3000 C   0  0  0  0  0  0  0  0  0  0  0  0
   -6.1740   21.5960  -32.7040 C   0  0  0  0  0  0  0  0  0  0  0  0
   -5.6000   20.4570  -32.1380 C   0  0  0  0  0  0  0  0  0  0  0  0
   -4.6070   20.5850  -31.1650 C   0  0  0  0  0  0  0  0  0  0  0  0
   -4.1780   21.8560  -30.7580 C   0  0  0  0  0  0  0  0  0  0  0  0
   -3.1690   21.9710  -29.7480 N   0  0  0  0  0  0  0  0  0  0  0  0
   -3.5470   21.9540  -28.3320 C   0  0  0  0  0  0  0  0  0  0  0  0
   -3.0890   23.2090  -27.6560 C   0  0  0  0  0  0  0  0  0  0  0  0
   -3.9450   23.9790  -27.1440 O   0  0  0  0  0  0  0  0  0  0  0  0
   -1.6950   23.5560  -27.6490 N   0  0  0  0  0  0  0  0  0  0  0  0
   -1.1820   24.7340  -27.0080 C   0  0  0  0  0  0  0  0  0  0  0  0
   -1.1290   25.9690  -27.6830 C   0  0  0  0  0  0  0  0  0  0  0  0
   -1.5950   26.0870  -28.9520 F   0  0  0  0  0  0  0  0  0  0  0  0
   -0.6400   27.1050  -27.0300 C   0  0  0  0  0  0  0  0  0  0  0  0
   -0.2140   27.0230  -25.7020 C   0  0  0  0  0  0  0  0  0  0  0  0
   -0.2850   25.8070  -25.0190 C   0  0  0  0  0  0  0  0  0  0  0  0
   -0.7750   24.6670  -25.6640 C   0  0  0  0  0  0  0  0  0  0  0  0
   -0.8350   23.4930  -24.9860 F   0  0  0  0  0  0  0  0  0  0  0  0
   -1.5060   21.7620  -30.2050 S   0  0  0  0  0  0  0  0  0  0  0  0
   -0.7620   21.0390  -29.1180 O   0  0  0  0  0  0  0  0  0  0  0  0
   -0.8560   23.1030  -30.4080 O   0  0  0  0  0  0  0  0  0  0  0  0
   -1.4350   20.8570  -31.7120 C   0  0  0  0  0  0  0  0  0  0  0  0
   -1.5830   21.5090  -32.9450 C   0  0  0  0  0  0  0  0  0  0  0  0
   -1.4840   20.7840  -34.1370 C   0  0  0  0  0  0  0  0  0  0  0  0
   -1.2340   19.4090  -34.1010 C   0  0  0  0  0  0  0  0  0  0  0  0
   -1.0840   18.7570  -32.8740 C   0  0  0  0  0  0  0  0  0  0  0  0
   -1.1840   19.4780  -31.6820 C   0  0  0  0  0  0  0  0  0  0  0  0
   -4.9868   25.0267  -29.0651 H   0  0  0  0  0  0  0  0  0  0  0  0
   -4.8341   26.2160  -30.4026 H   0  0  0  0  0  0  0  0  0  0  0  0
   -6.1859   25.0330  -30.4026 H   0  0  0  0  0  0  0  0  0  0  0  0
   -6.2133   23.7622  -32.7507 H   0  0  0  0  0  0  0  0  0  0  0  0
   -6.9562   21.4927  -33.4704 H   0  0  0  0  0  0  0  0  0  0  0  0
   -5.9300   19.4578  -32.4586 H   0  0  0  0  0  0  0  0  0  0  0  0
   -4.1598   19.6857  -30.7163 H   0  0  0  0  0  0  0  0  0  0  0  0
   -4.6411   21.8761  -28.2496 H   0  0  0  0  0  0  0  0  0  0  0  0
   -3.0696   21.0909  -27.8449 H   0  0  0  0  0  0  0  0  0  0  0  0
   -1.0450   23.0050  -28.2540 H   0  0  0  0  0  0  0  0  0  0  0  0
   -0.5907   28.0657  -27.5635 H   0  0  0  0  0  0  0  0  0  0  0  0
    0.1775   27.9167  -25.1941 H   0  0  0  0  0  0  0  0  0  0  0  0
    0.0452   25.7457  -23.9715 H   0  0  0  0  0  0  0  0  0  0  0  0
   -1.7771   22.5913  -32.9746 H   0  0  0  0  0  0  0  0  0  0  0  0
   -1.6029   21.2960  -35.1033 H   0  0  0  0  0  0  0  0  0  0  0  0
   -1.1553   18.8399  -35.0391 H   0  0  0  0  0  0  0  0  0  0  0  0
   -0.8870   17.6751  -32.8470 H   0  0  0  0  0  0  0  0  0  0  0  0
   -1.0655   18.9627  -30.7174 H   0  0  0  0  0  0  0  0  0  0  0  0
  1  2  1  0
  2  3  1  0
  3  4  2  0
  4  5  1  0
  5  6  2  0
  6  7  1  0
  7  8  2  0
  8  9  1  0
  9 10  1  0
 10 11  1  0
 11 12  2  0
 11 13  1  0
 13 14  1  0
 14 15  2  0
 15 16  1  0
 15 17  1  0
 17 18  2  0
 18 19  1  0
 19 20  2  0
 20 21  1  0
  9 22  1  0
 22 23  2  0
 22 24  2  0
 22 25  1  0
 25 26  2  0
 26 27  1  0
 27 28  2  0
 28 29  1  0
 29 30  2  0
  8  3  1  0
 20 14  1  0
 30 25  1  0
  1 31  1  0
  1 32  1  0
  1 33  1  0
  4 34  1  0
  5 35  1  0
  6 36  1  0
  7 37  1  0
 10 38  1  0
 10 39  1  0
 13 40  1  0
 17 41  1  0
 18 42  1  0
 19 43  1  0
 26 44  1  0
 27 45  1  0
 28 46  1  0
 29 47  1  0
 30 48  1  0
M  END
>  <UniqueID>  (24) 
23

>  <SMILES>  (24) 
COc1ccccc1N(CC(=O)Nc1c(F)cccc1F)S(=O)(=O)c1ccccc1

>  <Energy>  (24) 
58.57552770697279

>  <Genealogy>  (24) 
COc1ccccc1N(CC(=O)Nc1c(F)cccc1F)S(=O)(=O)c1ccccc1 (3D coordinates assigned)
COc1ccccc1N(CC(=O)Nc1c(F)cccc1F)S(=O)(=O)c1ccccc1 (optimized conformer: 58.57552770697279 kcal/mol)

>  <smiles>  (24) 
COc1ccccc1N(CC(=O)Nc1c(F)cccc1F)S(=O)(=O)c1ccccc1

>  <score_type>  (24) 
oracle

>  <origin>  (24) 
adgpu

>  <m_score__min__energy>  (24) 
-8.7400000000000002

>  <m_primary>  (24) 
energy

$$$$
24:0
     RDKit          3D

 43 46  0  0  0  0  0  0  0  0999 V2000
   -7.8134   25.8075  -29.5061 H   0  0  0  0  0  0  0  0  0  0  0  0
   -6.9910   25.1240  -29.7640 C   0  0  0  0  0  0  0  0  0  0  0  0
   -7.2340   23.7550  -29.8840 C   0  0  0  0  0  0  0  0  0  0  0  0
   -8.2483   23.3611  -29.7225 H   0  0  0  0  0  0  0  0  0  0  0  0
   -6.1910   22.8840  -30.2090 C   0  0  0  0  0  0  0  0  0  0  0  0
   -6.3903   21.8066  -30.3063 H   0  0  0  0  0  0  0  0  0  0  0  0
   -4.8870   23.3740  -30.4130 C   0  0  0  0  0  0  0  0  0  0  0  0
   -3.7860   22.4500  -30.7650 C   0  0  0  0  0  0  0  0  0  0  0  0
   -2.8260   22.0570  -29.8950 N   0  0  0  0  0  0  0  0  0  0  0  0
   -2.0120   21.2130  -30.5180 N   0  0  0  0  0  0  0  0  0  0  0  0
   -0.8850   20.5880  -29.8780 C   0  0  0  0  0  0  0  0  0  0  0  0
    0.2120   20.1680  -30.6500 C   0  0  0  0  0  0  0  0  0  0  0  0
    0.2049   20.3254  -31.7387 H   0  0  0  0  0  0  0  0  0  0  0  0
    1.3120   19.5520  -30.0460 C   0  0  0  0  0  0  0  0  0  0  0  0
    2.1683   19.2337  -30.6587 H   0  0  0  0  0  0  0  0  0  0  0  0
    1.3250   19.3400  -28.6640 C   0  0  0  0  0  0  0  0  0  0  0  0
    2.8280   18.4960  -27.8410 Br  0  0  0  0  0  0  0  0  0  0  0  0
    0.2340   19.7390  -27.8880 C   0  0  0  0  0  0  0  0  0  0  0  0
    0.2420   19.5677  -26.8014 H   0  0  0  0  0  0  0  0  0  0  0  0
   -0.8690   20.3560  -28.4890 C   0  0  0  0  0  0  0  0  0  0  0  0
   -1.7279   20.6613  -27.8733 H   0  0  0  0  0  0  0  0  0  0  0  0
   -2.4520   21.0410  -31.7820 C   0  0  0  0  0  0  0  0  0  0  0  0
   -1.9100   20.2950  -32.6400 O   0  0  0  0  0  0  0  0  0  0  0  0
   -3.5850   21.7990  -31.9730 C   0  0  0  0  0  0  0  0  0  0  0  0
   -4.3910   21.9070  -33.1560 N   0  0  0  0  0  0  0  0  0  0  0  0
   -5.3310   21.1060  -33.4840 N   0  0  0  0  0  0  0  0  0  0  0  0
   -5.8500   20.0580  -32.6520 C   0  0  0  0  0  0  0  0  0  0  0  0
   -5.3100   18.8040  -32.4910 C   0  0  0  0  0  0  0  0  0  0  0  0
   -4.0260   18.3070  -33.0680 C   0  0  0  0  0  0  0  0  0  0  0  0
   -3.3368   18.0402  -32.2532 H   0  0  0  0  0  0  0  0  0  0  0  0
   -4.2217   17.4197  -33.6880 H   0  0  0  0  0  0  0  0  0  0  0  0
   -3.5733   19.0949  -33.6880 H   0  0  0  0  0  0  0  0  0  0  0  0
   -6.1660   18.0460  -31.7780 N   0  0  0  0  0  0  0  0  0  0  0  0
   -7.2080   18.7860  -31.5170 O   0  0  0  0  0  0  0  0  0  0  0  0
   -7.0840   19.9890  -32.0350 C   0  0  0  0  0  0  0  0  0  0  0  0
   -8.1400   21.0430  -31.9600 C   0  0  0  0  0  0  0  0  0  0  0  0
   -8.3623   21.2649  -30.9058 H   0  0  0  0  0  0  0  0  0  0  0  0
   -7.7831   21.9558  -32.4595 H   0  0  0  0  0  0  0  0  0  0  0  0
   -9.0521   20.6844  -32.4595 H   0  0  0  0  0  0  0  0  0  0  0  0
   -4.6540   24.7610  -30.2950 C   0  0  0  0  0  0  0  0  0  0  0  0
   -3.3810   25.2890  -30.4800 O   0  0  0  0  0  0  0  0  0  0  0  0
   -5.7050   25.6270  -29.9710 C   0  0  0  0  0  0  0  0  0  0  0  0
   -5.5172   26.7070  -29.8792 H   0  0  0  0  0  0  0  0  0  0  0  0
  1  2  1  0
  2  3  2  0
  3  4  1  0
  3  5  1  0
  5  6  1  0
  5  7  2  0
  7  8  1  0
  8  9  1  0
  9 10  1  0
 10 11  1  0
 11 12  2  0
 12 13  1  0
 12 14  1  0
 14 15  1  0
 14 16  2  0
 16 17  1  0
 16 18  1  0
 18 19  1  0
 18 20  2  0
 20 21  1  0
 10 22  1  0
 22 23  2  0
 22 24  1  0
 24 25  1  0
 25 26  2  0
 26 27  1  0
 27 28  1  0
 28 29  1  0
 29 30  1  0
 29 31  1  0
 29 32  1  0
 28 33  2  0
 33 34  1  0
 34 35  1  0
 35 36  1  0
 36 37  1  0
 36 38  1  0
 36 39  1  0
  7 40  1  0
 40 41  1  0
 40 42  2  0
 42 43  1  0
 42  2  1  0
 24  8  2  0
 35 27  2  0
 20 11  1  0
M  CHG  2   9  -1  41  -1
M  END
>  <UniqueID>  (25) 
24

>  <SMILES>  (25) 
Cc1noc(C)c1/N=N\c1c(-c2ccccc2[O-])[n-]n(-c2ccc(Br)cc2)c1=O

>  <Energy>  (25) 
132.52708289368132

>  <Genealogy>  (25) 
Cc1noc(C)c1N=Nc1c(-c2ccccc2[O-])[n-]n(-c2ccc(Br)cc2)c1=O (protonated)
Cc1noc(C)c1/N=N\c1c(-c2ccccc2[O-])[n-]n(-c2ccc(Br)cc2)c1=O (cis-trans isomerization)
Cc1noc(C)c1/N=N\c1c(-c2ccccc2[O-])[n-]n(-c2ccc(Br)cc2)c1=O (3D coordinates assigned)
Cc1noc(C)c1/N=N\c1c(-c2ccccc2[O-])[n-]n(-c2ccc(Br)cc2)c1=O (optimized conformer: 132.52708289368132 kcal/mol)

>  <smiles>  (25) 
Cc1noc(C)c1N=Nc1c(-c2ccccc2O)[nH]n(-c2ccc(Br)cc2)c1=O

>  <score_type>  (25) 
oracle

>  <origin>  (25) 
adgpu

>  <m_score__min__energy>  (25) 
-11.390000000000001

>  <m_primary>  (25) 
energy

$$$$
25:0
     RDKit          3D

 29 30  0  0  0  0  0  0  0  0999 V2000
   -8.4050   22.8870  -31.7480 C   0  0  0  0  0  0  0  0  0  0  0  0
   -7.0820   23.4080  -31.2740 C   0  0  0  0  0  0  0  0  0  0  0  0
   -5.8900   22.7980  -31.6910 C   0  0  0  0  0  0  0  0  0  0  0  0
   -4.6550   23.3070  -31.2790 C   0  0  0  0  0  0  0  0  0  0  0  0
   -4.5920   24.4470  -30.4700 C   0  0  0  0  0  0  0  0  0  0  0  0
   -3.3060   24.9350  -30.0580 N   0  0  0  0  0  0  0  0  0  0  0  0
   -2.2320   24.1500  -29.5220 C   0  0  0  0  0  0  0  0  0  0  0  0
   -1.8030   23.1770  -30.1950 O   0  0  0  0  0  0  0  0  0  0  0  0
   -1.5830   24.4830  -28.2320 C   0  0  0  0  0  0  0  0  0  0  0  0
   -1.4380   23.5080  -27.2240 C   0  0  0  0  0  0  0  0  0  0  0  0
   -1.9320   22.2210  -27.4020 O   0  0  0  0  0  0  0  0  0  0  0  0
   -0.8090   23.8310  -26.0170 C   0  0  0  0  0  0  0  0  0  0  0  0
   -0.3350   25.1260  -25.7910 C   0  0  0  0  0  0  0  0  0  0  0  0
    0.2850   25.4300  -24.5810 O   0  0  0  0  0  0  0  0  0  0  0  0
   -0.4940   26.1050  -26.7780 C   0  0  0  0  0  0  0  0  0  0  0  0
   -1.1140   25.7920  -27.9910 C   0  0  0  0  0  0  0  0  0  0  0  0
   -1.2420   26.7820  -28.9610 O   0  0  0  0  0  0  0  0  0  0  0  0
   -5.7870   25.0560  -30.0450 C   0  0  0  0  0  0  0  0  0  0  0  0
   -7.0220   24.5470  -30.4560 C   0  0  0  0  0  0  0  0  0  0  0  0
   -9.0338   22.6394  -30.8801 H   0  0  0  0  0  0  0  0  0  0  0  0
   -8.9052   23.6553  -32.3559 H   0  0  0  0  0  0  0  0  0  0  0  0
   -8.2470   21.9839  -32.3559 H   0  0  0  0  0  0  0  0  0  0  0  0
   -5.9271   21.9147  -32.3455 H   0  0  0  0  0  0  0  0  0  0  0  0
   -3.7263   22.8080  -31.5929 H   0  0  0  0  0  0  0  0  0  0  0  0
   -0.6868   23.0609  -25.2411 H   0  0  0  0  0  0  0  0  0  0  0  0
    0.2390   24.8000  -23.7890 H   0  0  0  0  0  0  0  0  0  0  0  0
   -0.1289   27.1270  -26.5983 H   0  0  0  0  0  0  0  0  0  0  0  0
   -5.7491   25.9363  -29.3866 H   0  0  0  0  0  0  0  0  0  0  0  0
   -7.9514   25.0414  -30.1369 H   0  0  0  0  0  0  0  0  0  0  0  0
  1  2  1  0
  2  3  2  0
  3  4  1  0
  4  5  2  0
  5  6  1  0
  6  7  1  0
  7  8  2  0
  7  9  1  0
  9 10  2  0
 10 11  1  0
 10 12  1  0
 12 13  2  0
 13 14  1  0
 13 15  1  0
 15 16  2  0
 16 17  1  0
  5 18  1  0
 18 19  2  0
 19  2  1  0
 16  9  1  0
  1 20  1  0
  1 21  1  0
  1 22  1  0
  3 23  1  0
  4 24  1  0
 12 25  1  0
 14 26  1  0
 15 27  1  0
 18 28  1  0
 19 29  1  0
M  CHG  3   6  -1  11  -1  17  -1
M  END
>  <UniqueID>  (26) 
25

>  <SMILES>  (26) 
Cc1ccc([N-]C(=O)c2c([O-])cc(O)cc2[O-])cc1

>  <Energy>  (26) 
38.165486521730244

>  <Genealogy>  (26) 
Cc1ccc([N-]C(=O)c2c([O-])cc(O)cc2[O-])cc1 (protonated)
Cc1ccc([N-]C(=O)c2c([O-])cc(O)cc2[O-])cc1 (3D coordinates assigned)
Cc1ccc([N-]C(=O)c2c([O-])cc(O)cc2[O-])cc1 (optimized conformer: 38.165486521730244 kcal/mol)

>  <smiles>  (26) 
Cc1ccc(NC(=O)c2c(O)cc(O)cc2O)cc1

>  <score_type>  (26) 
oracle

>  <origin>  (26) 
adgpu

>  <m_score__min__energy>  (26) 
-10.369999999999999

>  <m_primary>  (26) 
energy

$$$$
26:0
     RDKit          3D

 45 46  0  0  0  0  0  0  0  0999 V2000
   -2.5510   24.5450  -29.3340 C   0  0  0  0  0  0  0  0  0  0  0  0
   -3.4850   24.9830  -30.3160 O   0  0  0  0  0  0  0  0  0  0  0  0
   -4.6660   24.3010  -30.6440 C   0  0  0  0  0  0  0  0  0  0  0  0
   -4.6670   23.1110  -31.3980 C   0  0  0  0  0  0  0  0  0  0  0  0
   -5.8720   22.4690  -31.6990 C   0  0  0  0  0  0  0  0  0  0  0  0
   -7.0870   23.0030  -31.2520 C   0  0  0  0  0  0  0  0  0  0  0  0
   -8.6120   22.2140  -31.6500 S   0  0  0  0  0  0  0  0  0  0  0  0
   -9.5220   23.2100  -32.3130 O   0  0  0  0  0  0  0  0  0  0  0  0
   -9.2810   21.7210  -30.3970 O   0  0  0  0  0  0  0  0  0  0  0  0
   -8.3410   20.8820  -32.7310 N   0  0  0  0  0  0  0  0  0  0  0  0
   -9.0050   19.6800  -32.2180 C   0  0  0  0  0  0  0  0  0  0  0  0
   -7.9850   18.7450  -31.5610 C   0  0  0  0  0  0  0  0  0  0  0  0
   -6.9300   18.3080  -32.5430 C   0  0  0  0  0  0  0  0  0  0  0  0
   -7.0980   17.1280  -33.2780 C   0  0  0  0  0  0  0  0  0  0  0  0
   -6.1390   16.7370  -34.2150 C   0  0  0  0  0  0  0  0  0  0  0  0
   -4.9970   17.5310  -34.4390 C   0  0  0  0  0  0  0  0  0  0  0  0
   -4.0130   17.1710  -35.3730 O   0  0  0  0  0  0  0  0  0  0  0  0
   -2.7260   16.6670  -35.0340 C   0  0  0  0  0  0  0  0  0  0  0  0
   -4.8280   18.7220  -33.7160 C   0  0  0  0  0  0  0  0  0  0  0  0
   -3.6840   19.4960  -33.9670 O   0  0  0  0  0  0  0  0  0  0  0  0
   -3.2800   20.6150  -33.1840 C   0  0  0  0  0  0  0  0  0  0  0  0
   -5.7990   19.1060  -32.7710 C   0  0  0  0  0  0  0  0  0  0  0  0
   -7.0890   24.1890  -30.5080 C   0  0  0  0  0  0  0  0  0  0  0  0
   -5.8850   24.8310  -30.2060 C   0  0  0  0  0  0  0  0  0  0  0  0
   -2.9580   24.7358  -28.3300 H   0  0  0  0  0  0  0  0  0  0  0  0
   -2.3682   23.4673  -29.4568 H   0  0  0  0  0  0  0  0  0  0  0  0
   -1.6055   25.0936  -29.4568 H   0  0  0  0  0  0  0  0  0  0  0  0
   -3.7162   22.6853  -31.7512 H   0  0  0  0  0  0  0  0  0  0  0  0
   -5.8657   21.5408  -32.2892 H   0  0  0  0  0  0  0  0  0  0  0  0
   -7.3100   20.7050  -32.7440 H   0  0  0  0  0  0  0  0  0  0  0  0
   -9.7601   19.9729  -31.4736 H   0  0  0  0  0  0  0  0  0  0  0  0
   -9.4844   19.1525  -33.0558 H   0  0  0  0  0  0  0  0  0  0  0  0
   -7.5007   19.2731  -30.7264 H   0  0  0  0  0  0  0  0  0  0  0  0
   -8.5154   17.8511  -31.2011 H   0  0  0  0  0  0  0  0  0  0  0  0
   -7.9904   16.5055  -33.1165 H   0  0  0  0  0  0  0  0  0  0  0  0
   -6.2761   15.8039  -34.7812 H   0  0  0  0  0  0  0  0  0  0  0  0
   -2.6244   16.6272  -33.9394 H   0  0  0  0  0  0  0  0  0  0  0  0
   -2.6069   15.6558  -35.4503 H   0  0  0  0  0  0  0  0  0  0  0  0
   -1.9519   17.3284  -35.4503 H   0  0  0  0  0  0  0  0  0  0  0  0
   -3.3696   20.3668  -32.1161 H   0  0  0  0  0  0  0  0  0  0  0  0
   -2.2344   20.8662  -33.4156 H   0  0  0  0  0  0  0  0  0  0  0  0
   -3.9240   21.4762  -33.4156 H   0  0  0  0  0  0  0  0  0  0  0  0
   -5.6693   20.0409  -32.2061 H   0  0  0  0  0  0  0  0  0  0  0  0
   -8.0409   24.6167  -30.1602 H   0  0  0  0  0  0  0  0  0  0  0  0
   -5.8955   25.7611  -29.6188 H   0  0  0  0  0  0  0  0  0  0  0  0
  1  2  1  0
  2  3  1  0
  3  4  2  0
  4  5  1  0
  5  6  2  0
  6  7  1  0
  7  8  2  0
  7  9  2  0
  7 10  1  0
 10 11  1  0
 11 12  1  0
 12 13  1  0
 13 14  2  0
 14 15  1  0
 15 16  2  0
 16 17  1  0
 17 18  1  0
 16 19  1  0
 19 20  1  0
 20 21  1  0
 19 22  2  0
  6 23  1  0
 23 24  2  0
 24  3  1  0
 22 13  1  0
  1 25  1  0
  1 26  1  0
  1 27  1  0
  4 28  1  0
  5 29  1  0
 10 30  1  0
 11 31  1  0
 11 32  1  0
 12 33  1  0
 12 34  1  0
 14 35  1  0
 15 36  1  0
 18 37  1  0
 18 38  1  0
 18 39  1  0
 21 40  1  0
 21 41  1  0
 21 42  1  0
 22 43  1  0
 23 44  1  0
 24 45  1  0
M  END
>  <UniqueID>  (27) 
26

>  <SMILES>  (27) 
COc1ccc(S(=O)(=O)NCCc2ccc(OC)c(OC)c2)cc1

>  <Energy>  (27) 
37.8300211618801

>  <Genealogy>  (27) 
COc1ccc(S(=O)(=O)NCCc2ccc(OC)c(OC)c2)cc1 (3D coordinates assigned)
COc1ccc(S(=O)(=O)NCCc2ccc(OC)c(OC)c2)cc1 (optimized conformer: 37.8300211618801 kcal/mol)

>  <smiles>  (27) 
COc1ccc(S(=O)(=O)NCCc2ccc(OC)c(OC)c2)cc1

>  <score_type>  (27) 
oracle

>  <origin>  (27) 
adgpu

>  <m_score__min__energy>  (27) 
-8.3000000000000007

>  <m_primary>  (27) 
energy

$$$$
27:0
     RDKit          3D

 41 45  0  0  0  0  0  0  0  0999 V2000
   -3.4890   25.3060  -30.4620 O   0  0  0  0  0  0  0  0  0  0  0  0
   -3.1440   24.2270  -29.6550 C   0  0  0  0  0  0  0  0  0  0  0  0
   -2.1440   24.4030  -28.6910 C   0  0  0  0  0  0  0  0  0  0  0  0
   -1.7610   23.3470  -27.8490 C   0  0  0  0  0  0  0  0  0  0  0  0
   -0.7310   23.5340  -26.8560 N   0  0  0  0  0  0  0  0  0  0  0  0
   -0.8710   24.0600  -25.6240 C   0  0  0  0  0  0  0  0  0  0  0  0
    0.3610   24.0520  -25.0120 C   0  0  0  0  0  0  0  0  0  0  0  0
    1.2770   23.5230  -25.8470 N   0  0  0  0  0  0  0  0  0  0  0  0
    0.5780   23.2200  -26.9610 C   0  0  0  0  0  0  0  0  0  0  0  0
   -2.3990   22.1040  -27.9900 C   0  0  0  0  0  0  0  0  0  0  0  0
   -3.3950   21.9210  -28.9520 C   0  0  0  0  0  0  0  0  0  0  0  0
   -3.7830   22.9770  -29.7970 C   0  0  0  0  0  0  0  0  0  0  0  0
   -4.8460   22.7500  -30.8060 C   0  0  0  0  0  0  0  0  0  0  0  0
   -4.7000   22.9700  -32.1290 N   0  0  0  0  0  0  0  0  0  0  0  0
   -5.8470   22.6640  -32.6530 O   0  0  0  0  0  0  0  0  0  0  0  0
   -6.6670   22.2700  -31.7110 C   0  0  0  0  0  0  0  0  0  0  0  0
   -8.0870   21.8730  -31.9450 C   0  0  0  0  0  0  0  0  0  0  0  0
   -8.1960   20.3800  -31.9930 C   0  0  0  0  0  0  0  0  0  0  0  0
   -9.0430   19.5860  -31.2270 C   0  0  0  0  0  0  0  0  0  0  0  0
   -8.8130   18.2760  -31.4740 N   0  0  0  0  0  0  0  0  0  0  0  0
   -7.8200   18.2370  -32.3800 C   0  0  0  0  0  0  0  0  0  0  0  0
   -7.2200   17.1040  -32.9280 C   0  0  0  0  0  0  0  0  0  0  0  0
   -6.1730   17.2950  -33.8470 C   0  0  0  0  0  0  0  0  0  0  0  0
   -5.7490   18.5990  -34.1910 C   0  0  0  0  0  0  0  0  0  0  0  0
   -6.3730   19.7240  -33.6200 C   0  0  0  0  0  0  0  0  0  0  0  0
   -7.4130   19.5030  -32.7160 C   0  0  0  0  0  0  0  0  0  0  0  0
   -6.0850   22.3070  -30.4980 N   0  0  0  0  0  0  0  0  0  0  0  0
   -1.6519   25.3818  -28.5921 H   0  0  0  0  0  0  0  0  0  0  0  0
   -1.8080   24.4316  -25.1836 H   0  0  0  0  0  0  0  0  0  0  0  0
    0.5670   24.4210  -23.9964 H   0  0  0  0  0  0  0  0  0  0  0  0
    1.0261   22.7664  -27.8573 H   0  0  0  0  0  0  0  0  0  0  0  0
   -2.1118   21.2668  -27.3369 H   0  0  0  0  0  0  0  0  0  0  0  0
   -3.8819   20.9395  -29.0502 H   0  0  0  0  0  0  0  0  0  0  0  0
   -8.7133   22.2586  -31.1271 H   0  0  0  0  0  0  0  0  0  0  0  0
   -8.4279   22.2926  -32.9030 H   0  0  0  0  0  0  0  0  0  0  0  0
   -9.7938   19.9691  -30.5202 H   0  0  0  0  0  0  0  0  0  0  0  0
   -9.3010   17.4620  -31.0360 H   0  0  0  0  0  0  0  0  0  0  0  0
   -7.5548   16.0936  -32.6505 H   0  0  0  0  0  0  0  0  0  0  0  0
   -5.6801   16.4231  -34.3017 H   0  0  0  0  0  0  0  0  0  0  0  0
   -4.9268   18.7352  -34.9089 H   0  0  0  0  0  0  0  0  0  0  0  0
   -6.0515   20.7439  -33.8778 H   0  0  0  0  0  0  0  0  0  0  0  0
  1  2  1  0
  2  3  2  0
  3  4  1  0
  4  5  1  0
  5  6  1  0
  6  7  2  0
  7  8  1  0
  8  9  2  0
  4 10  2  0
 10 11  1  0
 11 12  2  0
 12 13  1  0
 13 14  2  0
 14 15  1  0
 15 16  1  0
 16 17  1  0
 17 18  1  0
 18 19  2  0
 19 20  1  0
 20 21  1  0
 21 22  2  0
 22 23  1  0
 23 24  2  0
 24 25  1  0
 25 26  2  0
 16 27  2  0
 12  2  1  0
 27 13  1  0
  9  5  1  0
 26 18  1  0
 26 21  1  0
  3 28  1  0
  6 29  1  0
  7 30  1  0
  9 31  1  0
 10 32  1  0
 11 33  1  0
 17 34  1  0
 17 35  1  0
 19 36  1  0
 20 37  1  0
 22 38  1  0
 23 39  1  0
 24 40  1  0
 25 41  1  0
M  CHG  1   1  -1
M  END
>  <UniqueID>  (28) 
27

>  <SMILES>  (28) 
[O-]c1cc(-n2ccnc2)ccc1-c1noc(Cc2c[nH]c3ccccc23)n1

>  <Energy>  (28) 
145.70884271884182

>  <Genealogy>  (28) 
[O-]c1cc(-n2ccnc2)ccc1-c1noc(Cc2c[nH]c3ccccc23)n1 (protonated)
[O-]c1cc(-n2ccnc2)ccc1-c1noc(Cc2c[nH]c3ccccc23)n1 (3D coordinates assigned)
[O-]c1cc(-n2ccnc2)ccc1-c1noc(Cc2c[nH]c3ccccc23)n1 (optimized conformer: 145.70884271884182 kcal/mol)

>  <smiles>  (28) 
Oc1cc(-n2ccnc2)ccc1-c1noc(Cc2c[nH]c3ccccc23)n1

>  <score_type>  (28) 
oracle

>  <origin>  (28) 
adgpu

>  <m_score__min__energy>  (28) 
-12.33

>  <m_primary>  (28) 
energy

$$$$
28:0
     RDKit          3D

 36 38  0  0  0  0  0  0  0  0999 V2000
    2.3220   24.7040  -27.2660 C   0  0  0  0  0  0  0  0  0  0  0  0
    1.2300   24.6390  -28.1770 O   0  0  0  0  0  0  0  0  0  0  0  0
   -0.1200   24.6730  -27.7980 C   0  0  0  0  0  0  0  0  0  0  0  0
   -0.5230   24.8520  -26.4620 C   0  0  0  0  0  0  0  0  0  0  0  0
   -1.8820   24.8790  -26.1370 C   0  0  0  0  0  0  0  0  0  0  0  0
   -2.8470   24.7290  -27.1350 C   0  0  0  0  0  0  0  0  0  0  0  0
   -2.4650   24.5500  -28.4740 C   0  0  0  0  0  0  0  0  0  0  0  0
   -3.5040   24.3920  -29.5160 C   0  0  0  0  0  0  0  0  0  0  0  0
   -4.3410   23.3100  -29.7180 C   0  0  0  0  0  0  0  0  0  0  0  0
   -5.1030   23.6830  -30.8070 C   0  0  0  0  0  0  0  0  0  0  0  0
   -6.1560   22.8900  -31.4640 C   0  0  0  0  0  0  0  0  0  0  0  0
   -6.6170   23.2850  -32.5690 O   0  0  0  0  0  0  0  0  0  0  0  0
   -6.6860   21.7080  -30.8400 N   0  0  0  0  0  0  0  0  0  0  0  0
   -7.4570   20.7150  -31.5370 C   0  0  0  0  0  0  0  0  0  0  0  0
   -7.0400   19.3840  -31.7250 C   0  0  0  0  0  0  0  0  0  0  0  0
   -7.9770   18.5960  -32.3790 C   0  0  0  0  0  0  0  0  0  0  0  0
   -9.3280   19.5400  -32.7100 S   0  0  0  0  0  0  0  0  0  0  0  0
   -8.7350   20.9610  -32.0370 C   0  0  0  0  0  0  0  0  0  0  0  0
   -9.4880   22.2500  -31.9590 C   0  0  0  0  0  0  0  0  0  0  0  0
   -4.7290   24.9090  -31.2190 N   0  0  0  0  0  0  0  0  0  0  0  0
   -3.7760   25.3020  -30.4250 O   0  0  0  0  0  0  0  0  0  0  0  0
   -1.0940   24.5230  -28.7950 C   0  0  0  0  0  0  0  0  0  0  0  0
    1.9408   24.6813  -26.2344 H   0  0  0  0  0  0  0  0  0  0  0  0
    2.9879   23.8439  -27.4298 H   0  0  0  0  0  0  0  0  0  0  0  0
    2.8811   25.6370  -27.4298 H   0  0  0  0  0  0  0  0  0  0  0  0
    0.2329   24.9709  -25.6718 H   0  0  0  0  0  0  0  0  0  0  0  0
   -2.1926   25.0189  -25.0911 H   0  0  0  0  0  0  0  0  0  0  0  0
   -3.9144   24.7513  -26.8701 H   0  0  0  0  0  0  0  0  0  0  0  0
   -4.3885   22.3721  -29.1453 H   0  0  0  0  0  0  0  0  0  0  0  0
   -6.5590   21.5940  -29.8110 H   0  0  0  0  0  0  0  0  0  0  0  0
   -6.0648   19.0045  -31.3861 H   0  0  0  0  0  0  0  0  0  0  0  0
   -7.8560   17.5336  -32.6370 H   0  0  0  0  0  0  0  0  0  0  0  0
   -9.6454   22.5194  -30.9042 H   0  0  0  0  0  0  0  0  0  0  0  0
   -8.9108   23.0426  -32.4577 H   0  0  0  0  0  0  0  0  0  0  0  0
  -10.4619   22.1365  -32.4577 H   0  0  0  0  0  0  0  0  0  0  0  0
   -0.7836   24.3825  -29.8409 H   0  0  0  0  0  0  0  0  0  0  0  0
  1  2  1  0
  2  3  1  0
  3  4  2  0
  4  5  1  0
  5  6  2  0
  6  7  1  0
  7  8  1  0
  8  9  2  0
  9 10  1  0
 10 11  1  0
 11 12  2  0
 11 13  1  0
 13 14  1  0
 14 15  1  0
 15 16  2  0
 16 17  1  0
 17 18  1  0
 18 19  1  0
 10 20  2  0
 20 21  1  0
  7 22  2  0
 22  3  1  0
 21  8  1  0
 18 14  2  0
  1 23  1  0
  1 24  1  0
  1 25  1  0
  4 26  1  0
  5 27  1  0
  6 28  1  0
  9 29  1  0
 13 30  1  0
 15 31  1  0
 16 32  1  0
 19 33  1  0
 19 34  1  0
 19 35  1  0
 22 36  1  0
M  END
>  <UniqueID>  (29) 
28

>  <SMILES>  (29) 
COc1cccc(-c2cc(C(=O)Nc3ccsc3C)no2)c1

>  <Energy>  (29) 
95.90242674311585

>  <Genealogy>  (29) 
COc1cccc(-c2cc(C(=O)Nc3ccsc3C)no2)c1 (3D coordinates assigned)
COc1cccc(-c2cc(C(=O)Nc3ccsc3C)no2)c1 (optimized conformer: 95.90242674311585 kcal/mol)

>  <smiles>  (29) 
COc1cccc(-c2cc(C(=O)Nc3ccsc3C)no2)c1

>  <score_type>  (29) 
oracle

>  <origin>  (29) 
adgpu

>  <m_score__min__energy>  (29) 
-9.1699999999999999

>  <m_primary>  (29) 
energy

$$$$
29:0
     RDKit          3D

 21 22  0  0  0  0  0  0  0  0999 V2000
   -3.5910   23.1200  -31.2270 N   0  0  0  0  0  0  0  0  0  0  0  0
   -4.3900   24.0680  -30.8620 C   0  0  0  0  0  0  0  0  0  0  0  0
   -4.0700   25.3100  -30.4200 N   0  0  0  0  0  0  0  0  0  0  0  0
   -5.2120   25.9590  -30.1530 N   0  0  0  0  0  0  0  0  0  0  0  0
   -6.2620   25.1520  -30.4160 C   0  0  0  0  0  0  0  0  0  0  0  0
   -5.7690   23.9430  -30.8700 C   0  0  0  0  0  0  0  0  0  0  0  0
   -6.5270   22.7500  -31.2820 C   0  0  0  0  0  0  0  0  0  0  0  0
   -7.6940   22.5050  -30.5690 C   0  0  0  0  0  0  0  0  0  0  0  0
   -8.4840   21.4130  -30.8700 C   0  0  0  0  0  0  0  0  0  0  0  0
   -8.0610   20.5940  -31.9000 C   0  0  0  0  0  0  0  0  0  0  0  0
   -9.0700   19.2070  -32.2800 Cl  0  0  0  0  0  0  0  0  0  0  0  0
   -6.9010   20.8440  -32.6060 C   0  0  0  0  0  0  0  0  0  0  0  0
   -6.1080   21.9310  -32.3110 C   0  0  0  0  0  0  0  0  0  0  0  0
   -2.5530   23.2440  -31.2120 H   0  0  0  0  0  0  0  0  0  0  0  0
   -3.0900   25.6710  -30.3160 H   0  0  0  0  0  0  0  0  0  0  0  0
   -5.2500   26.9480  -29.7930 H   0  0  0  0  0  0  0  0  0  0  0  0
   -7.3237   25.4112  -30.2909 H   0  0  0  0  0  0  0  0  0  0  0  0
   -7.9911   23.1864  -29.7582 H   0  0  0  0  0  0  0  0  0  0  0  0
   -9.4099   21.2040  -30.3141 H   0  0  0  0  0  0  0  0  0  0  0  0
   -6.6051   20.1634  -33.4179 H   0  0  0  0  0  0  0  0  0  0  0  0
   -5.1832   22.1369  -32.8699 H   0  0  0  0  0  0  0  0  0  0  0  0
  1  2  2  3
  2  3  1  0
  3  4  1  0
  4  5  1  0
  5  6  2  0
  6  7  1  0
  7  8  2  0
  8  9  1  0
  9 10  2  0
 10 11  1  0
 10 12  1  0
 12 13  2  0
  6  2  1  0
 13  7  1  0
  1 14  1  0
  3 15  1  0
  4 16  1  0
  5 17  1  0
  8 18  1  0
  9 19  1  0
 12 20  1  0
 13 21  1  0
M  END
>  <smiles>  (30) 
N=c1[nH][nH]cc1-c1ccc(Cl)cc1

>  <score_type>  (30) 
oracle

>  <origin>  (30) 
adgpu

>  <m_score__min__energy>  (30) 
-6.79

>  <m_primary>  (30) 
energy

$$$$
30:0
     RDKit          3D

 47 50  0  0  0  0  0  0  0  0999 V2000
   -5.0530   22.6400  -29.1340 N   0  0  0  0  0  0  0  0  0  0  0  0
   -3.6640   23.2830  -29.9400 S   0  0  0  0  0  0  0  0  0  0  0  0
   -4.0070   24.6110  -30.5550 O   0  0  0  0  0  0  0  0  0  0  0  0
   -2.5560   23.4840  -28.9450 O   0  0  0  0  0  0  0  0  0  0  0  0
   -3.1450   22.1630  -31.1940 C   0  0  0  0  0  0  0  0  0  0  0  0
   -3.6330   22.2940  -32.5010 C   0  0  0  0  0  0  0  0  0  0  0  0
   -3.2370   21.3920  -33.4930 C   0  0  0  0  0  0  0  0  0  0  0  0
   -2.3600   20.3450  -33.1900 C   0  0  0  0  0  0  0  0  0  0  0  0
   -2.0040   19.4520  -34.2130 O   0  0  0  0  0  0  0  0  0  0  0  0
   -2.4030   18.1100  -34.2740 C   0  0  0  0  0  0  0  0  0  0  0  0
   -1.5220   17.1770  -34.8270 C   0  0  0  0  0  0  0  0  0  0  0  0
   -1.8530   15.8600  -34.8780 N   0  0  0  0  0  0  0  0  0  0  0  0
   -3.0440   15.4020  -34.4140 C   0  0  0  0  0  0  0  0  0  0  0  0
   -3.9800   16.2940  -33.8770 C   0  0  0  0  0  0  0  0  0  0  0  0
   -5.2190   15.8340  -33.4110 C   0  0  0  0  0  0  0  0  0  0  0  0
   -6.1540   16.7320  -32.8950 C   0  0  0  0  0  0  0  0  0  0  0  0
   -5.8740   18.1080  -32.8480 C   0  0  0  0  0  0  0  0  0  0  0  0
   -6.8720   19.0630  -32.2980 C   0  0  0  0  0  0  0  0  0  0  0  0
   -8.2320   18.7110  -32.2310 C   0  0  0  0  0  0  0  0  0  0  0  0
   -9.1680   19.6030  -31.7040 C   0  0  0  0  0  0  0  0  0  0  0  0
   -8.7590   20.8520  -31.2350 C   0  0  0  0  0  0  0  0  0  0  0  0
   -7.4130   21.2270  -31.2890 C   0  0  0  0  0  0  0  0  0  0  0  0
   -7.0570   22.4930  -30.7950 O   0  0  0  0  0  0  0  0  0  0  0  0
   -7.1780   23.7220  -31.5080 C   0  0  0  0  0  0  0  0  0  0  0  0
   -8.4470   23.8050  -32.0450 F   0  0  0  0  0  0  0  0  0  0  0  0
   -6.2550   23.7690  -32.5370 F   0  0  0  0  0  0  0  0  0  0  0  0
   -6.9850   24.7910  -30.6520 F   0  0  0  0  0  0  0  0  0  0  0  0
   -6.4700   20.3280  -31.8270 C   0  0  0  0  0  0  0  0  0  0  0  0
   -4.6330   18.5700  -33.3220 C   0  0  0  0  0  0  0  0  0  0  0  0
   -3.6680   17.6720  -33.8160 C   0  0  0  0  0  0  0  0  0  0  0  0
   -1.8620   20.2210  -31.8800 C   0  0  0  0  0  0  0  0  0  0  0  0
   -2.2600   21.1210  -30.8870 C   0  0  0  0  0  0  0  0  0  0  0  0
   -5.8180   23.3430  -29.2340 H   0  0  0  0  0  0  0  0  0  0  0  0
   -5.3490   21.7920  -29.6670 H   0  0  0  0  0  0  0  0  0  0  0  0
   -4.3297   23.1089  -32.7472 H   0  0  0  0  0  0  0  0  0  0  0  0
   -3.6176   21.5063  -34.5187 H   0  0  0  0  0  0  0  0  0  0  0  0
   -0.5523   17.5114  -35.2244 H   0  0  0  0  0  0  0  0  0  0  0  0
   -3.2741   14.3273  -34.4601 H   0  0  0  0  0  0  0  0  0  0  0  0
   -5.4554   14.7605  -33.4522 H   0  0  0  0  0  0  0  0  0  0  0  0
   -7.1192   16.3592  -32.5216 H   0  0  0  0  0  0  0  0  0  0  0  0
   -8.5604   17.7267  -32.5961 H   0  0  0  0  0  0  0  0  0  0  0  0
  -10.2301   19.3206  -31.6584 H   0  0  0  0  0  0  0  0  0  0  0  0
   -9.5023   21.5480  -30.8190 H   0  0  0  0  0  0  0  0  0  0  0  0
   -5.4100   20.6172  -31.8795 H   0  0  0  0  0  0  0  0  0  0  0  0
   -4.4135   19.6478  -33.3065 H   0  0  0  0  0  0  0  0  0  0  0  0
   -1.1568   19.4128  -31.6362 H   0  0  0  0  0  0  0  0  0  0  0  0
   -1.8772   21.0108  -29.8616 H   0  0  0  0  0  0  0  0  0  0  0  0
  1  2  1  0
  2  3  2  0
  2  4  2  0
  2  5  1  0
  5  6  2  0
  6  7  1  0
  7  8  2  0
  8  9  1  0
  9 10  1  0
 10 11  2  0
 11 12  1  0
 12 13  2  0
 13 14  1  0
 14 15  2  0
 15 16  1  0
 16 17  2  0
 17 18  1  0
 18 19  2  0
 19 20  1  0
 20 21  2  0
 21 22  1  0
 22 23  1  0
 23 24  1  0
 24 25  1  0
 24 26  1  0
 24 27  1  0
 22 28  2  0
 17 29  1  0
 29 30  2  0
  8 31  1  0
 31 32  2  0
 32  5  1  0
 30 10  1  0
 30 14  1  0
 28 18  1  0
  1 33  1  0
  1 34  1  0
  6 35  1  0
  7 36  1  0
 11 37  1  0
 13 38  1  0
 15 39  1  0
 16 40  1  0
 19 41  1  0
 20 42  1  0
 21 43  1  0
 28 44  1  0
 29 45  1  0
 31 46  1  0
 32 47  1  0
M  END
>  <UniqueID>  (31) 
29

>  <SMILES>  (31) 
NS(=O)(=O)c1ccc(Oc2cncc3ccc(-c4cccc(OC(F)(F)F)c4)cc23)cc1

>  <Energy>  (31) 
68.27407119430742

>  <Genealogy>  (31) 
NS(=O)(=O)c1ccc(Oc2cncc3ccc(-c4cccc(OC(F)(F)F)c4)cc23)cc1 (3D coordinates assigned)
NS(=O)(=O)c1ccc(Oc2cncc3ccc(-c4cccc(OC(F)(F)F)c4)cc23)cc1 (optimized conformer: 68.27407119430742 kcal/mol)

>  <smiles>  (31) 
NS(=O)(=O)c1ccc(Oc2cncc3ccc(-c4cccc(OC(F)(F)F)c4)cc23)cc1

>  <score_type>  (31) 
oracle

>  <origin>  (31) 
adgpu

>  <m_score__min__energy>  (31) 
-9.8300000000000001

>  <m_primary>  (31) 
energy

$$$$
31:0
     RDKit          3D

 43 46  0  0  0  0  0  0  0  0999 V2000
   -3.8760   25.6730  -30.5580 O   0  0  0  0  0  0  0  0  0  0  0  0
   -4.0670   24.3020  -30.4380 C   0  0  0  0  0  0  0  0  0  0  0  0
   -4.9490   23.5620  -31.2020 C   0  0  0  0  0  0  0  0  0  0  0  0
   -4.7890   22.2550  -30.7820 C   0  0  0  0  0  0  0  0  0  0  0  0
   -5.5260   21.1310  -31.2830 N   0  0  0  0  0  0  0  0  0  0  0  0
   -6.9470   21.1380  -31.5050 C   0  0  0  0  0  0  0  0  0  0  0  0
   -7.6230   22.3660  -31.5320 C   0  0  0  0  0  0  0  0  0  0  0  0
   -9.0020   22.4120  -31.7550 C   0  0  0  0  0  0  0  0  0  0  0  0
   -9.7160   21.2310  -31.9640 C   0  0  0  0  0  0  0  0  0  0  0  0
   -9.0500   20.0040  -31.9710 C   0  0  0  0  0  0  0  0  0  0  0  0
   -7.6590   19.9480  -31.7810 C   0  0  0  0  0  0  0  0  0  0  0  0
   -6.9760   18.6830  -31.7780 N   0  0  0  0  0  0  0  0  0  0  0  0
   -6.3230   18.1260  -32.7600 C   0  0  0  0  0  0  0  0  0  0  0  0
   -5.8220   16.8300  -32.5780 C   0  0  0  0  0  0  0  0  0  0  0  0
   -5.1230   16.2030  -33.6140 C   0  0  0  0  0  0  0  0  0  0  0  0
   -4.9150   16.8560  -34.7880 N   0  0  0  0  0  0  0  0  0  0  0  0
   -5.3710   18.1210  -34.9910 C   0  0  0  0  0  0  0  0  0  0  0  0
   -6.0750   18.7850  -33.9830 C   0  0  0  0  0  0  0  0  0  0  0  0
   -3.8430   22.2610  -29.7700 C   0  0  0  0  0  0  0  0  0  0  0  0
   -3.4570   21.1490  -29.0230 O   0  0  0  0  0  0  0  0  0  0  0  0
   -3.3890   23.5170  -29.5710 N   0  0  0  0  0  0  0  0  0  0  0  0
   -2.3680   23.9450  -28.6580 C   0  0  0  0  0  0  0  0  0  0  0  0
   -2.7160   24.5640  -27.4460 C   0  0  0  0  0  0  0  0  0  0  0  0
   -1.7190   24.9950  -26.5660 C   0  0  0  0  0  0  0  0  0  0  0  0
   -0.3710   24.8220  -26.8930 C   0  0  0  0  0  0  0  0  0  0  0  0
   -0.0180   24.2150  -28.1020 C   0  0  0  0  0  0  0  0  0  0  0  0
   -1.0120   23.7780  -28.9830 C   0  0  0  0  0  0  0  0  0  0  0  0
   -5.6329   23.9339  -31.9791 H   0  0  0  0  0  0  0  0  0  0  0  0
   -4.9860   20.2790  -31.5590 H   0  0  0  0  0  0  0  0  0  0  0  0
   -7.0638   23.3004  -31.3765 H   0  0  0  0  0  0  0  0  0  0  0  0
   -9.5250   23.3797  -31.7658 H   0  0  0  0  0  0  0  0  0  0  0  0
  -10.8038   21.2670  -32.1233 H   0  0  0  0  0  0  0  0  0  0  0  0
   -9.6180   19.0749  -32.1263 H   0  0  0  0  0  0  0  0  0  0  0  0
   -5.9782   16.3074  -31.6228 H   0  0  0  0  0  0  0  0  0  0  0  0
   -4.7410   15.1803  -33.4789 H   0  0  0  0  0  0  0  0  0  0  0  0
   -5.1850   18.6232  -35.9519 H   0  0  0  0  0  0  0  0  0  0  0  0
   -6.4330   19.8130  -34.1415 H   0  0  0  0  0  0  0  0  0  0  0  0
   -3.5880   20.2050  -29.3620 H   0  0  0  0  0  0  0  0  0  0  0  0
   -3.7755   24.7099  -27.1888 H   0  0  0  0  0  0  0  0  0  0  0  0
   -1.9959   25.4714  -25.6140 H   0  0  0  0  0  0  0  0  0  0  0  0
    0.4117   25.1633  -26.1995 H   0  0  0  0  0  0  0  0  0  0  0  0
    1.0428   24.0811  -28.3604 H   0  0  0  0  0  0  0  0  0  0  0  0
   -0.7309   23.3018  -29.9339 H   0  0  0  0  0  0  0  0  0  0  0  0
  1  2  1  0
  2  3  2  0
  3  4  1  0
  4  5  1  0
  5  6  1  0
  6  7  2  0
  7  8  1  0
  8  9  2  0
  9 10  1  0
 10 11  2  0
 11 12  1  0
 12 13  2  3
 13 14  1  0
 14 15  2  0
 15 16  1  0
 16 17  1  0
 17 18  2  0
  4 19  2  0
 19 20  1  0
 19 21  1  0
 21 22  1  0
 22 23  2  0
 23 24  1  0
 24 25  2  0
 25 26  1  0
 26 27  2  0
 21  2  1  0
 27 22  1  0
 11  6  1  0
 18 13  1  0
  3 28  1  0
  5 29  1  0
  7 30  1  0
  8 31  1  0
  9 32  1  0
 10 33  1  0
 14 34  1  0
 15 35  1  0
 17 36  1  0
 18 37  1  0
 20 38  1  0
 23 39  1  0
 24 40  1  0
 25 41  1  0
 26 42  1  0
 27 43  1  0
M  CHG  2   1  -1  16  -1
M  END
>  <UniqueID>  (32) 
30

>  <SMILES>  (32) 
[O-]c1cc(Nc2ccccc2N=c2cc[n-]cc2)c(O)n1-c1ccccc1

>  <Energy>  (32) 
98.36810917246059

>  <Genealogy>  (32) 
[O-]c1cc(Nc2ccccc2N=c2cc[n-]cc2)c(O)n1-c1ccccc1 (protonated)
[O-]c1cc(Nc2ccccc2N=c2cc[n-]cc2)c(O)n1-c1ccccc1 (3D coordinates assigned)
[O-]c1cc(Nc2ccccc2N=c2cc[n-]cc2)c(O)n1-c1ccccc1 (optimized conformer: 98.36810917246059 kcal/mol)

>  <smiles>  (32) 
Oc1cc(Nc2ccccc2N=c2cc[nH]cc2)c(O)n1-c1ccccc1

>  <score_type>  (32) 
oracle

>  <origin>  (32) 
adgpu

>  <m_score__min__energy>  (32) 
-11.19

>  <m_primary>  (32) 
energy

$$$$
32:0
     RDKit          3D

 28 29  0  0  0  0  0  0  0  0999 V2000
   -3.5840   25.2660  -30.0620 N   0  0  0  0  0  0  0  0  0  0  0  0
   -4.8280   24.6490  -30.4040 C   0  0  0  0  0  0  0  0  0  0  0  0
   -6.0190   25.0860  -29.8090 C   0  0  0  0  0  0  0  0  0  0  0  0
   -7.2340   24.4880  -30.1500 C   0  0  0  0  0  0  0  0  0  0  0  0
   -7.2680   23.4460  -31.0800 C   0  0  0  0  0  0  0  0  0  0  0  0
   -6.0780   22.9850  -31.6730 C   0  0  0  0  0  0  0  0  0  0  0  0
   -6.0890   21.9280  -32.6500 N   0  0  0  0  0  0  0  0  0  0  0  0
   -6.9000   20.7460  -32.5440 C   0  0  0  0  0  0  0  0  0  0  0  0
   -8.1140   20.7990  -31.8360 C   0  0  0  0  0  0  0  0  0  0  0  0
   -8.8750   19.6450  -31.6410 C   0  0  0  0  0  0  0  0  0  0  0  0
   -8.4260   18.4220  -32.1380 C   0  0  0  0  0  0  0  0  0  0  0  0
   -7.2190   18.3500  -32.8350 C   0  0  0  0  0  0  0  0  0  0  0  0
   -6.4450   19.5040  -33.0540 C   0  0  0  0  0  0  0  0  0  0  0  0
   -5.2270   19.4010  -33.8140 N   0  0  0  0  0  0  0  0  0  0  0  0
   -4.2710   20.1720  -33.5970 O   0  0  0  0  0  0  0  0  0  0  0  0
   -5.1560   18.5490  -34.8940 O   0  0  0  0  0  0  0  0  0  0  0  0
   -4.8630   23.6030  -31.3390 C   0  0  0  0  0  0  0  0  0  0  0  0
   -2.9690   25.6750  -30.8000 H   0  0  0  0  0  0  0  0  0  0  0  0
   -3.2700   25.3200  -29.0670 H   0  0  0  0  0  0  0  0  0  0  0  0
   -5.9968   25.9020  -29.0716 H   0  0  0  0  0  0  0  0  0  0  0  0
   -8.1672   24.8385  -29.6849 H   0  0  0  0  0  0  0  0  0  0  0  0
   -8.2291   22.9839  -31.3499 H   0  0  0  0  0  0  0  0  0  0  0  0
   -5.4330   21.9970  -33.4610 H   0  0  0  0  0  0  0  0  0  0  0  0
   -8.4674   21.7591  -31.4319 H   0  0  0  0  0  0  0  0  0  0  0  0
   -9.8286   19.7005  -31.0954 H   0  0  0  0  0  0  0  0  0  0  0  0
   -9.0241   17.5124  -31.9804 H   0  0  0  0  0  0  0  0  0  0  0  0
   -6.8690   17.3798  -33.2174 H   0  0  0  0  0  0  0  0  0  0  0  0
   -3.9303   23.2647  -31.8141 H   0  0  0  0  0  0  0  0  0  0  0  0
  1  2  1  0
  2  3  2  0
  3  4  1  0
  4  5  2  0
  5  6  1  0
  6  7  1  0
  7  8  1  0
  8  9  2  0
  9 10  1  0
 10 11  2  0
 11 12  1  0
 12 13  2  0
 13 14  1  0
 14 15  2  0
 14 16  1  0
  6 17  2  0
 17  2  1  0
 13  8  1  0
  1 18  1  0
  1 19  1  0
  3 20  1  0
  4 21  1  0
  5 22  1  0
  7 23  1  0
  9 24  1  0
 10 25  1  0
 11 26  1  0
 12 27  1  0
 17 28  1  0
M  CHG  2  14   1  16  -1
M  END
>  <UniqueID>  (33) 
31

>  <SMILES>  (33) 
Nc1cccc(Nc2ccccc2[N+](=O)[O-])c1

>  <Energy>  (33) 
37.47948779435736

>  <Genealogy>  (33) 
Nc1cccc(Nc2ccccc2[N+](=O)[O-])c1 (3D coordinates assigned)
Nc1cccc(Nc2ccccc2[N+](=O)[O-])c1 (optimized conformer: 37.47948779435736 kcal/mol)

>  <smiles>  (33) 
Nc1cccc(Nc2ccccc2[N+](=O)[O-])c1

>  <score_type>  (33) 
oracle

>  <origin>  (33) 
adgpu

>  <m_score__min__energy>  (33) 
-7.5199999999999996

>  <m_primary>  (33) 
energy

$$$$
33:0
     RDKit          3D

 59 61  0  0  1  0  0  0  0  0999 V2000
   -3.0960   24.3940  -27.4330 C   0  0  0  0  0  0  0  0  0  0  0  0
   -2.3340   24.7860  -28.6580 C   0  0  0  0  0  0  0  0  0  0  0  0
   -3.1490   25.2360  -29.7140 O   0  0  0  0  0  0  0  0  0  0  0  0
   -4.2750   24.5900  -30.1540 C   0  0  0  0  0  0  0  0  0  0  0  0
   -4.2760   23.4890  -30.9780 C   0  0  0  0  0  0  0  0  0  0  0  0
   -5.4800   22.9550  -31.3310 C   0  0  0  0  0  0  0  0  0  0  0  0
   -6.7090   23.3950  -30.9520 C   0  0  0  0  0  0  0  0  0  0  0  0
   -7.9960   22.8120  -31.1570 C   0  0  0  0  0  0  0  0  0  0  0  0
   -8.3410   21.6970  -31.6730 C   0  0  0  0  0  0  0  0  0  0  0  0
   -7.6310   20.5960  -32.2210 C   0  0  0  0  0  0  0  0  0  0  0  0
   -6.4810   20.3810  -31.6420 O   0  0  0  0  0  0  0  0  0  0  0  0
   -7.8820   19.7000  -33.2430 N   0  0  0  0  0  0  0  0  0  0  0  0
   -6.8890   18.6770  -33.4980 C   0  0  0  0  0  0  0  0  0  0  0  0
   -6.0550   18.8370  -34.5950 C   0  0  0  0  0  0  0  0  0  0  0  0
   -5.0990   17.8600  -34.8470 C   0  0  0  0  0  0  0  0  0  0  0  0
   -4.9570   16.7500  -34.0490 C   0  0  0  0  0  0  0  0  0  0  0  0
   -3.7300   15.5850  -34.4490 S   0  0  0  0  0  0  0  0  0  0  0  0
   -4.2510   14.1760  -34.3920 O   0  0  0  0  0  0  0  0  0  0  0  0
   -3.3150   15.8130  -35.8930 O   0  0  0  0  0  0  0  0  0  0  0  0
   -2.4020   15.7850  -33.3860 N   0  0  0  0  0  0  0  0  0  0  0  0
   -1.8870   16.9120  -33.0740 C   0  0  0  0  0  0  0  0  0  0  0  0
   -0.8150   16.9310  -32.2040 C   0  0  0  0  0  0  0  0  0  0  0  0
   -0.2800   18.1630  -31.8860 C   0  0  0  0  0  0  0  0  0  0  0  0
    0.8760   18.2090  -30.9500 C   0  0  0  0  0  0  0  0  0  0  0  0
   -0.8030   19.2820  -32.4200 N   0  0  0  0  0  0  0  0  0  0  0  0
   -1.8590   19.2250  -33.2750 C   0  0  0  0  0  0  0  0  0  0  0  0
   -2.4120   20.4900  -33.8480 C   0  0  0  0  0  0  0  0  0  0  0  0
   -3.7030   20.7840  -33.0860 C   0  0  0  0  0  0  0  0  0  0  0  0
   -2.4170   18.0270  -33.6140 N   0  0  0  0  0  0  0  0  0  0  0  0
   -5.8020   16.6230  -32.9680 C   0  0  0  0  0  0  0  0  0  0  0  0
   -6.7770   17.5720  -32.6690 C   0  0  0  0  0  0  0  0  0  0  0  0
   -6.7060   24.5260  -30.1100 C   0  0  0  0  0  0  0  0  0  0  0  0
   -5.5010   25.0670  -29.7510 C   0  0  0  0  0  0  0  0  0  0  0  0
   -2.5272   24.6866  -26.5381 H   0  0  0  0  0  0  0  0  0  0  0  0
   -4.0716   24.9021  -27.4298 H   0  0  0  0  0  0  0  0  0  0  0  0
   -3.2499   23.3048  -27.4298 H   0  0  0  0  0  0  0  0  0  0  0  0
   -1.6370   25.5935  -28.3894 H   0  0  0  0  0  0  0  0  0  0  0  0
   -1.8155   23.8840  -29.0152 H   0  0  0  0  0  0  0  0  0  0  0  0
   -3.3340   23.0523  -31.3413 H   0  0  0  0  0  0  0  0  0  0  0  0
   -5.4540   22.0760  -31.9918 H   0  0  0  0  0  0  0  0  0  0  0  0
   -8.8361   23.4315  -30.8099 H   0  0  0  0  0  0  0  0  0  0  0  0
   -9.4318   21.5576  -31.6991 H   0  0  0  0  0  0  0  0  0  0  0  0
   -8.6750   19.7200  -33.8550 H   0  0  0  0  0  0  0  0  0  0  0  0
   -6.1481   19.7160  -35.2497 H   0  0  0  0  0  0  0  0  0  0  0  0
   -4.4334   17.9792  -35.7146 H   0  0  0  0  0  0  0  0  0  0  0  0
   -0.4041   16.0022  -31.7815 H   0  0  0  0  0  0  0  0  0  0  0  0
    0.5090   18.1944  -29.9131 H   0  0  0  0  0  0  0  0  0  0  0  0
    1.5224   17.3359  -31.1225 H   0  0  0  0  0  0  0  0  0  0  0  0
    1.4510   19.1307  -31.1225 H   0  0  0  0  0  0  0  0  0  0  0  0
   -0.3670   20.2130  -32.1540 H   0  0  0  0  0  0  0  0  0  0  0  0
   -1.6952   21.3134  -33.7130 H   0  0  0  0  0  0  0  0  0  0  0  0
   -2.6015   20.3883  -34.9268 H   0  0  0  0  0  0  0  0  0  0  0  0
   -3.5085   20.7397  -32.0042 H   0  0  0  0  0  0  0  0  0  0  0  0
   -4.0656   21.7877  -33.3525 H   0  0  0  0  0  0  0  0  0  0  0  0
   -4.4645   20.0363  -33.3525 H   0  0  0  0  0  0  0  0  0  0  0  0
   -5.7032   15.7410  -32.3181 H   0  0  0  0  0  0  0  0  0  0  0  0
   -7.4393   17.4478  -31.7995 H   0  0  0  0  0  0  0  0  0  0  0  0
   -7.6492   24.9630  -29.7503 H   0  0  0  0  0  0  0  0  0  0  0  0
   -5.5137   25.9477  -29.0920 H   0  0  0  0  0  0  0  0  0  0  0  0
  1  2  1  0
  2  3  1  0
  3  4  1  0
  4  5  2  0
  5  6  1  0
  6  7  2  0
  7  8  1  0
  8  9  2  0
  9 10  1  0
 10 11  2  0
 10 12  1  0
 12 13  1  0
 13 14  2  0
 14 15  1  0
 15 16  2  0
 16 17  1  0
 17 18  2  0
 17 19  2  0
 17 20  1  0
 20 21  2  0
 21 22  1  0
 22 23  2  0
 23 24  1  0
 23 25  1  0
 25 26  1  0
 26 27  1  0
 27 28  1  0
 26 29  2  0
 16 30  1  0
 30 31  2  0
  7 32  1  0
 32 33  2  0
 33  4  1  0
 31 13  1  0
 29 21  1  0
  1 34  1  0
  1 35  1  0
  1 36  1  0
  2 37  1  0
  2 38  1  0
  5 39  1  0
  6 40  1  0
  8 41  1  0
  9 42  1  0
 12 43  1  0
 14 44  1  0
 15 45  1  0
 22 46  1  0
 24 47  1  0
 24 48  1  0
 24 49  1  0
 25 50  1  0
 27 51  1  0
 27 52  1  0
 28 53  1  0
 28 54  1  0
 28 55  1  0
 30 56  1  0
 31 57  1  0
 32 58  1  0
 33 59  1  0
M  END
>  <smiles>  (34) 
CCOc1ccc(C=CC(=O)Nc2ccc(S(=O)(=O)N=c3cc(C)[nH]c(CC)n3)cc2)cc1

>  <score_type>  (34) 
oracle

>  <origin>  (34) 
adgpu

>  <m_score__min__energy>  (34) 
-10.9

>  <m_primary>  (34) 
energy

$$$$
34:0
     RDKit          3D

 56 59  0  0  0  0  0  0  0  0999 V2000
   -6.8510   16.7990  -33.9080 C   0  0  0  0  0  0  0  0  0  0  0  0
   -6.2600   18.0610  -33.3540 C   0  0  0  0  0  0  0  0  0  0  0  0
   -6.1050   19.1900  -34.1740 C   0  0  0  0  0  0  0  0  0  0  0  0
   -5.5210   20.3540  -33.6660 C   0  0  0  0  0  0  0  0  0  0  0  0
   -5.0730   20.4020  -32.3380 C   0  0  0  0  0  0  0  0  0  0  0  0
   -4.4700   21.6090  -31.8260 N   0  0  0  0  0  0  0  0  0  0  0  0
   -3.0670   21.6030  -31.4740 C   0  0  0  0  0  0  0  0  0  0  0  0
   -2.2030   21.9350  -32.3330 O   0  0  0  0  0  0  0  0  0  0  0  0
   -2.6150   21.2430  -30.1150 C   0  0  0  0  0  0  0  0  0  0  0  0
   -1.3070   21.2570  -29.6700 C   0  0  0  0  0  0  0  0  0  0  0  0
   -1.3590   20.8660  -28.3500 C   0  0  0  0  0  0  0  0  0  0  0  0
   -2.6910   20.6410  -28.0690 C   0  0  0  0  0  0  0  0  0  0  0  0
   -3.4130   20.8750  -29.1400 O   0  0  0  0  0  0  0  0  0  0  0  0
   -5.2430   22.8680  -31.7090 C   0  0  2  0  0  0  0  0  0  0  0  0
   -4.7220   23.7650  -30.6030 C   0  0  0  0  0  0  0  0  0  0  0  0
   -4.3200   24.9210  -30.9060 O   0  0  0  0  0  0  0  0  0  0  0  0
   -4.6860   23.3420  -29.2280 N   0  0  0  0  0  0  0  0  0  0  0  0
   -4.6100   24.2990  -28.1290 C   0  0  0  0  0  0  0  0  0  0  0  0
   -3.1720   24.5310  -27.7540 C   0  0  0  0  0  0  0  0  0  0  0  0
   -2.8430   24.9380  -26.4510 C   0  0  0  0  0  0  0  0  0  0  0  0
   -1.5160   25.2320  -26.1180 C   0  0  0  0  0  0  0  0  0  0  0  0
   -0.5120   25.1240  -27.0850 C   0  0  0  0  0  0  0  0  0  0  0  0
   -0.8330   24.7230  -28.3840 C   0  0  0  0  0  0  0  0  0  0  0  0
   -2.1580   24.4290  -28.7210 C   0  0  0  0  0  0  0  0  0  0  0  0
   -6.7410   22.6080  -31.5930 C   0  0  0  0  0  0  0  0  0  0  0  0
   -7.6300   23.4010  -32.3420 C   0  0  0  0  0  0  0  0  0  0  0  0
   -9.0050   23.1550  -32.3040 C   0  0  0  0  0  0  0  0  0  0  0  0
   -9.5090   22.1090  -31.5290 C   0  0  0  0  0  0  0  0  0  0  0  0
   -8.6380   21.3030  -30.7930 C   0  0  0  0  0  0  0  0  0  0  0  0
   -7.2620   21.5450  -30.8250 C   0  0  0  0  0  0  0  0  0  0  0  0
   -5.2080   19.2650  -31.5270 C   0  0  0  0  0  0  0  0  0  0  0  0
   -5.7940   18.1010  -32.0320 C   0  0  0  0  0  0  0  0  0  0  0  0
   -7.1580   16.1435  -33.0797 H   0  0  0  0  0  0  0  0  0  0  0  0
   -7.7276   17.0448  -34.5253 H   0  0  0  0  0  0  0  0  0  0  0  0
   -6.1009   16.2830  -34.5253 H   0  0  0  0  0  0  0  0  0  0  0  0
   -6.4443   19.1585  -35.2199 H   0  0  0  0  0  0  0  0  0  0  0  0
   -5.4122   21.2377  -34.3119 H   0  0  0  0  0  0  0  0  0  0  0  0
   -0.4108   21.5246  -30.2490 H   0  0  0  0  0  0  0  0  0  0  0  0
   -0.5099   20.7555  -27.6594 H   0  0  0  0  0  0  0  0  0  0  0  0
   -3.0874   20.3152  -27.0960 H   0  0  0  0  0  0  0  0  0  0  0  0
   -5.0916   23.4215  -32.6475 H   0  0  0  0  0  0  0  0  0  0  0  0
   -4.7820   22.3320  -28.9830 H   0  0  0  0  0  0  0  0  0  0  0  0
   -5.0640   25.2509  -28.4416 H   0  0  0  0  0  0  0  0  0  0  0  0
   -5.1518   23.8977  -27.2598 H   0  0  0  0  0  0  0  0  0  0  0  0
   -3.6315   25.0261  -25.6890 H   0  0  0  0  0  0  0  0  0  0  0  0
   -1.2628   25.5481  -25.0953 H   0  0  0  0  0  0  0  0  0  0  0  0
    0.5310   25.3549  -26.8228 H   0  0  0  0  0  0  0  0  0  0  0  0
   -0.0418   24.6383  -29.1435 H   0  0  0  0  0  0  0  0  0  0  0  0
   -2.4070   24.1170  -29.7460 H   0  0  0  0  0  0  0  0  0  0  0  0
   -7.2394   24.2211  -32.9624 H   0  0  0  0  0  0  0  0  0  0  0  0
   -9.6918   23.7870  -32.8861 H   0  0  0  0  0  0  0  0  0  0  0  0
  -10.5921   21.9197  -31.4981 H   0  0  0  0  0  0  0  0  0  0  0  0
   -9.0358   20.4758  -30.1867 H   0  0  0  0  0  0  0  0  0  0  0  0
   -6.5806   20.9027  -30.2478 H   0  0  0  0  0  0  0  0  0  0  0  0
   -4.8503   19.2899  -30.4871 H   0  0  0  0  0  0  0  0  0  0  0  0
   -5.8900   17.2129  -31.3901 H   0  0  0  0  0  0  0  0  0  0  0  0
  1  2  1  0
  2  3  2  0
  3  4  1  0
  4  5  2  0
  5  6  1  0
  6  7  1  0
  7  8  2  0
  7  9  1  0
  9 10  2  0
 10 11  1  0
 11 12  2  0
 12 13  1  0
  6 14  1  0
 14 15  1  0
 15 16  2  0
 15 17  1  0
 17 18  1  0
 18 19  1  0
 19 20  2  0
 20 21  1  0
 21 22  2  0
 22 23  1  0
 23 24  2  0
 14 25  1  0
 25 26  2  0
 26 27  1  0
 27 28  2  0
 28 29  1  0
 29 30  2  0
  5 31  1  0
 31 32  2  0
 32  2  1  0
 13  9  1  0
 24 19  1  0
 30 25  1  0
  1 33  1  0
  1 34  1  0
  1 35  1  0
  3 36  1  0
  4 37  1  0
 10 38  1  0
 11 39  1  0
 12 40  1  0
 14 41  1  6
 17 42  1  0
 18 43  1  0
 18 44  1  0
 20 45  1  0
 21 46  1  0
 22 47  1  0
 23 48  1  0
 24 49  1  0
 26 50  1  0
 27 51  1  0
 28 52  1  0
 29 53  1  0
 30 54  1  0
 31 55  1  0
 32 56  1  0
M  END
>  <UniqueID>  (35) 
32

>  <SMILES>  (35) 
Cc1ccc(N(C(=O)c2ccco2)[C@H](C(=O)NCc2ccccc2)c2ccccc2)cc1

>  <Energy>  (35) 
90.74433300726525

>  <Genealogy>  (35) 
Cc1ccc(N(C(=O)c2ccco2)[C@H](C(=O)NCc2ccccc2)c2ccccc2)cc1 (chirality)
Cc1ccc(N(C(=O)c2ccco2)[C@H](C(=O)NCc2ccccc2)c2ccccc2)cc1 (3D coordinates assigned)
Cc1ccc(N(C(=O)c2ccco2)[C@H](C(=O)NCc2ccccc2)c2ccccc2)cc1 (optimized conformer: 90.74433300726525 kcal/mol)

>  <smiles>  (35) 
Cc1ccc(N(C(=O)c2ccco2)C(C(=O)NCc2ccccc2)c2ccccc2)cc1

>  <score_type>  (35) 
oracle

>  <origin>  (35) 
adgpu

>  <m_score__min__energy>  (35) 
-10.1

>  <m_primary>  (35) 
energy

$$$$
35:0
     RDKit          3D

 37 38  0  0  0  0  0  0  0  0999 V2000
   -9.0410   19.0420  -32.3760 C   0  0  0  0  0  0  0  0  0  0  0  0
   -8.2970   20.1870  -31.7420 C   0  0  0  0  0  0  0  0  0  0  0  0
   -8.9880   21.0800  -30.9070 C   0  0  0  0  0  0  0  0  0  0  0  0
   -8.3250   22.1510  -30.3060 C   0  0  0  0  0  0  0  0  0  0  0  0
   -6.9560   22.3590  -30.5350 C   0  0  0  0  0  0  0  0  0  0  0  0
   -6.2500   23.4630  -29.9400 N   0  0  0  0  0  0  0  0  0  0  0  0
   -5.4530   24.6950  -30.8640 S   0  0  0  0  0  0  0  0  0  0  0  0
   -5.8150   24.5430  -32.3150 O   0  0  0  0  0  0  0  0  0  0  0  0
   -5.8910   26.0500  -30.3850 O   0  0  0  0  0  0  0  0  0  0  0  0
   -3.7380   24.5510  -30.6760 N   0  0  0  0  0  0  0  0  0  0  0  0
   -3.1060   23.3220  -30.3120 C   0  0  0  0  0  0  0  0  0  0  0  0
   -3.1570   22.3400  -31.1040 O   0  0  0  0  0  0  0  0  0  0  0  0
   -2.4020   23.1860  -29.0120 C   0  0  0  0  0  0  0  0  0  0  0  0
   -2.3360   21.9230  -28.3910 C   0  0  0  0  0  0  0  0  0  0  0  0
   -1.6820   21.7630  -27.1660 C   0  0  0  0  0  0  0  0  0  0  0  0
   -1.6170   20.1830  -26.4050 Cl  0  0  0  0  0  0  0  0  0  0  0  0
   -1.0830   22.8600  -26.5450 C   0  0  0  0  0  0  0  0  0  0  0  0
   -1.1310   24.1160  -27.1500 C   0  0  0  0  0  0  0  0  0  0  0  0
   -1.7800   24.2900  -28.3820 C   0  0  0  0  0  0  0  0  0  0  0  0
   -1.7890   25.5510  -28.9760 O   0  0  0  0  0  0  0  0  0  0  0  0
   -6.2570   21.4620  -31.3560 C   0  0  0  0  0  0  0  0  0  0  0  0
   -6.9120   20.3780  -31.9650 C   0  0  0  0  0  0  0  0  0  0  0  0
   -6.1270   19.4410  -32.8470 C   0  0  0  0  0  0  0  0  0  0  0  0
   -9.4602   18.3969  -31.5898 H   0  0  0  0  0  0  0  0  0  0  0  0
   -9.8563   19.4356  -33.0007 H   0  0  0  0  0  0  0  0  0  0  0  0
   -8.3501   18.4569  -33.0007 H   0  0  0  0  0  0  0  0  0  0  0  0
  -10.0629   20.9338  -30.7248 H   0  0  0  0  0  0  0  0  0  0  0  0
   -8.8792   22.8368  -29.6483 H   0  0  0  0  0  0  0  0  0  0  0  0
   -6.0900   23.4670  -28.9070 H   0  0  0  0  0  0  0  0  0  0  0  0
   -2.8042   21.0534  -28.8754 H   0  0  0  0  0  0  0  0  0  0  0  0
   -0.5731   22.7342  -25.5785 H   0  0  0  0  0  0  0  0  0  0  0  0
   -0.6562   24.9772  -26.6573 H   0  0  0  0  0  0  0  0  0  0  0  0
   -1.9960   25.6740  -29.9610 H   0  0  0  0  0  0  0  0  0  0  0  0
   -5.1802   21.6092  -31.5257 H   0  0  0  0  0  0  0  0  0  0  0  0
   -5.5463   18.7479  -32.2205 H   0  0  0  0  0  0  0  0  0  0  0  0
   -6.8194   18.8689  -33.4821 H   0  0  0  0  0  0  0  0  0  0  0  0
   -5.4424   20.0224  -33.4821 H   0  0  0  0  0  0  0  0  0  0  0  0
  1  2  1  0
  2  3  2  0
  3  4  1  0
  4  5  2  0
  5  6  1  0
  6  7  1  0
  7  8  2  0
  7  9  2  0
  7 10  1  0
 10 11  1  0
 11 12  2  0
 11 13  1  0
 13 14  2  0
 14 15  1  0
 15 16  1  0
 15 17  2  0
 17 18  1  0
 18 19  2  0
 19 20  1  0
  5 21  1  0
 21 22  2  0
 22 23  1  0
 22  2  1  0
 19 13  1  0
  1 24  1  0
  1 25  1  0
  1 26  1  0
  3 27  1  0
  4 28  1  0
  6 29  1  0
 14 30  1  0
 17 31  1  0
 18 32  1  0
 20 33  1  0
 21 34  1  0
 23 35  1  0
 23 36  1  0
 23 37  1  0
M  CHG  1  10  -1
M  END
>  <UniqueID>  (36) 
33

>  <SMILES>  (36) 
Cc1ccc(NS(=O)(=O)[N-]C(=O)c2cc(Cl)ccc2O)cc1C

>  <Energy>  (36) 
42.33149149419287

>  <Genealogy>  (36) 
Cc1ccc(NS(=O)(=O)[N-]C(=O)c2cc(Cl)ccc2O)cc1C (protonated)
Cc1ccc(NS(=O)(=O)[N-]C(=O)c2cc(Cl)ccc2O)cc1C (3D coordinates assigned)
Cc1ccc(NS(=O)(=O)[N-]C(=O)c2cc(Cl)ccc2O)cc1C (optimized conformer: 42.33149149419287 kcal/mol)

>  <smiles>  (36) 
Cc1ccc(NS(=O)(=O)NC(=O)c2cc(Cl)ccc2O)cc1C

>  <score_type>  (36) 
oracle

>  <origin>  (36) 
adgpu

>  <m_score__min__energy>  (36) 
-10.82

>  <m_primary>  (36) 
energy

$$$$
36:0
     RDKit          3D

 43 45  0  0  0  0  0  0  0  0999 V2000
   -8.4070   18.4900  -32.3080 C   0  0  0  0  0  0  0  0  0  0  0  0
   -7.9040   19.8850  -32.0600 C   0  0  0  0  0  0  0  0  0  0  0  0
   -8.7390   20.8090  -31.4090 C   0  0  0  0  0  0  0  0  0  0  0  0
   -8.3030   22.1150  -31.1730 C   0  0  0  0  0  0  0  0  0  0  0  0
   -7.0330   22.5170  -31.5920 C   0  0  0  0  0  0  0  0  0  0  0  0
   -6.4860   24.1560  -31.2900 Cl  0  0  0  0  0  0  0  0  0  0  0  0
   -6.2000   21.6140  -32.2580 C   0  0  0  0  0  0  0  0  0  0  0  0
   -6.6310   20.3040  -32.5110 C   0  0  0  0  0  0  0  0  0  0  0  0
   -5.7560   19.4080  -33.2100 N   0  0  0  0  0  0  0  0  0  0  0  0
   -6.1140   18.9290  -34.5440 C   0  0  0  0  0  0  0  0  0  0  0  0
   -5.8790   17.4090  -34.6750 C   0  0  0  0  0  0  0  0  0  0  0  0
   -4.7560   16.8820  -33.8430 N   0  0  0  0  0  0  0  0  0  0  0  0
   -5.2300   16.1400  -32.6870 C   0  0  0  0  0  0  0  0  0  0  0  0
   -5.7850   16.7520  -31.7330 O   0  0  0  0  0  0  0  0  0  0  0  0
   -5.0150   14.6710  -32.5730 C   0  0  0  0  0  0  0  0  0  0  0  0
   -4.2480   14.0470  -31.6010 C   0  0  0  0  0  0  0  0  0  0  0  0
   -4.3310   12.6900  -31.8400 C   0  0  0  0  0  0  0  0  0  0  0  0
   -5.1410   12.5310  -32.9440 C   0  0  0  0  0  0  0  0  0  0  0  0
   -5.5530   13.7340  -33.3900 N   0  0  0  0  0  0  0  0  0  0  0  0
   -6.4260   13.9430  -34.5430 C   0  0  0  0  0  0  0  0  0  0  0  0
   -3.7930   17.9260  -33.4300 C   0  0  0  0  0  0  0  0  0  0  0  0
   -4.4700   19.0370  -32.6140 C   0  0  0  0  0  0  0  0  0  0  0  0
   -8.5877   17.9889  -31.3456 H   0  0  0  0  0  0  0  0  0  0  0  0
   -9.3456   18.5349  -32.8799 H   0  0  0  0  0  0  0  0  0  0  0  0
   -7.6558   17.9256  -32.8799 H   0  0  0  0  0  0  0  0  0  0  0  0
   -9.7435   20.5016  -31.0828 H   0  0  0  0  0  0  0  0  0  0  0  0
   -8.9616   22.8284  -30.6559 H   0  0  0  0  0  0  0  0  0  0  0  0
   -5.1996   21.9330  -32.5859 H   0  0  0  0  0  0  0  0  0  0  0  0
   -7.1766   19.1447  -34.7291 H   0  0  0  0  0  0  0  0  0  0  0  0
   -5.4789   19.4436  -35.2801 H   0  0  0  0  0  0  0  0  0  0  0  0
   -6.8018   16.8915  -34.3741 H   0  0  0  0  0  0  0  0  0  0  0  0
   -5.6047   17.2241  -35.7241 H   0  0  0  0  0  0  0  0  0  0  0  0
   -4.2340   16.2130  -34.4560 H   0  0  0  0  0  0  0  0  0  0  0  0
   -3.6827   14.5383  -30.7953 H   0  0  0  0  0  0  0  0  0  0  0  0
   -3.8450   11.8905  -31.2616 H   0  0  0  0  0  0  0  0  0  0  0  0
   -5.4112   11.5646  -33.3945 H   0  0  0  0  0  0  0  0  0  0  0  0
   -7.4409   14.1860  -34.1952 H   0  0  0  0  0  0  0  0  0  0  0  0
   -6.0380   14.7736  -35.1509 H   0  0  0  0  0  0  0  0  0  0  0  0
   -6.4563   13.0267  -35.1509 H   0  0  0  0  0  0  0  0  0  0  0  0
   -3.0068   17.4622  -32.8161 H   0  0  0  0  0  0  0  0  0  0  0  0
   -3.3700   18.3791  -34.3387 H   0  0  0  0  0  0  0  0  0  0  0  0
   -4.6377   18.6796  -31.5873 H   0  0  0  0  0  0  0  0  0  0  0  0
   -3.8150   19.9207  -32.6087 H   0  0  0  0  0  0  0  0  0  0  0  0
  1  2  1  0
  2  3  2  0
  3  4  1  0
  4  5  2  0
  5  6  1  0
  5  7  1  0
  7  8  2  0
  8  9  1  0
  9 10  1  0
 10 11  1  0
 11 12  1  0
 12 13  1  0
 13 14  2  0
 13 15  1  0
 15 16  2  0
 16 17  1  0
 17 18  2  0
 18 19  1  0
 19 20  1  0
 12 21  1  0
 21 22  1  0
  8  2  1  0
 22  9  1  0
 19 15  1  0
  1 23  1  0
  1 24  1  0
  1 25  1  0
  3 26  1  0
  4 27  1  0
  7 28  1  0
 10 29  1  0
 10 30  1  0
 11 31  1  0
 11 32  1  0
 12 33  1  0
 16 34  1  0
 17 35  1  0
 18 36  1  0
 20 37  1  0
 20 38  1  0
 20 39  1  0
 21 40  1  0
 21 41  1  0
 22 42  1  0
 22 43  1  0
M  CHG  1  12   1
M  END
>  <UniqueID>  (37) 
34

>  <SMILES>  (37) 
Cc1ccc(Cl)cc1N1CC[NH+](C(=O)c2cccn2C)CC1

>  <Energy>  (37) 
85.87892734332895

>  <Genealogy>  (37) 
Cc1ccc(Cl)cc1N1CC[NH+](C(=O)c2cccn2C)CC1 (protonated)
Cc1ccc(Cl)cc1N1CC[NH+](C(=O)c2cccn2C)CC1 (3D coordinates assigned)
Cc1ccc(Cl)cc1N1CC[NH+](C(=O)c2cccn2C)CC1 (nonaromatic ring conformer: 85.87892734332895 kcal/mol)

>  <smiles>  (37) 
Cc1ccc(Cl)cc1N1CCN(C(=O)c2cccn2C)CC1

>  <score_type>  (37) 
oracle

>  <origin>  (37) 
adgpu

>  <m_score__min__energy>  (37) 
-6.6100000000000003

>  <m_primary>  (37) 
energy

$$$$
37:0
     RDKit          3D

 40 42  0  0  0  0  0  0  0  0999 V2000
    0.4130   23.8885  -28.7896 H   0  0  0  0  0  0  0  0  0  0  0  0
   -0.6660   23.9700  -28.5920 C   0  0  0  0  0  0  0  0  0  0  0  0
   -1.5240   24.2470  -29.6100 N   0  0  0  0  0  0  0  0  0  0  0  0
   -2.8670   24.3580  -29.4190 C   0  0  0  0  0  0  0  0  0  0  0  0
   -3.6190   24.6260  -30.4480 N   0  0  0  0  0  0  0  0  0  0  0  0
   -5.3450   24.8140  -30.4470 S   0  0  0  0  0  0  0  0  0  0  0  0
   -5.7300   26.0510  -31.2090 O   0  0  0  0  0  0  0  0  0  0  0  0
   -5.8510   24.9220  -29.0340 O   0  0  0  0  0  0  0  0  0  0  0  0
   -6.0670   23.4060  -31.2180 C   0  0  0  0  0  0  0  0  0  0  0  0
   -5.2560   22.3630  -31.6820 C   0  0  0  0  0  0  0  0  0  0  0  0
   -4.1634   22.4296  -31.5732 H   0  0  0  0  0  0  0  0  0  0  0  0
   -5.8270   21.2390  -32.2820 C   0  0  0  0  0  0  0  0  0  0  0  0
   -5.1813   20.4246  -32.6423 H   0  0  0  0  0  0  0  0  0  0  0  0
   -7.2250   21.1410  -32.4290 C   0  0  0  0  0  0  0  0  0  0  0  0
   -7.8470   19.9980  -33.0490 N   0  0  0  0  0  0  0  0  0  0  0  0
   -8.3640   20.1400  -33.9470 H   0  0  0  0  0  0  0  0  0  0  0  0
   -7.7580   18.6290  -32.5420 C   0  0  0  0  0  0  0  0  0  0  0  0
   -7.5953   18.6570  -31.4545 H   0  0  0  0  0  0  0  0  0  0  0  0
   -8.6965   18.1048  -32.7752 H   0  0  0  0  0  0  0  0  0  0  0  0
   -6.6180   17.8910  -33.1930 C   0  0  0  0  0  0  0  0  0  0  0  0
   -6.0350   18.3760  -34.3770 C   0  0  0  0  0  0  0  0  0  0  0  0
   -6.4148   19.3006  -34.8361 H   0  0  0  0  0  0  0  0  0  0  0  0
   -4.9740   17.6870  -34.9730 C   0  0  0  0  0  0  0  0  0  0  0  0
   -4.5252   18.0676  -35.9024 H   0  0  0  0  0  0  0  0  0  0  0  0
   -4.4830   16.5160  -34.3900 C   0  0  0  0  0  0  0  0  0  0  0  0
   -3.6505   15.9736  -34.8619 H   0  0  0  0  0  0  0  0  0  0  0  0
   -5.0500   16.0340  -33.2070 C   0  0  0  0  0  0  0  0  0  0  0  0
   -4.6607   15.1138  -32.7470 H   0  0  0  0  0  0  0  0  0  0  0  0
   -6.1110   16.7190  -32.6070 C   0  0  0  0  0  0  0  0  0  0  0  0
   -6.5503   16.3390  -31.6729 H   0  0  0  0  0  0  0  0  0  0  0  0
   -8.0310   22.1840  -31.9480 C   0  0  0  0  0  0  0  0  0  0  0  0
   -9.1246   22.1168  -32.0459 H   0  0  0  0  0  0  0  0  0  0  0  0
   -7.4580   23.3070  -31.3460 C   0  0  0  0  0  0  0  0  0  0  0  0
   -8.1018   24.1163  -30.9712 H   0  0  0  0  0  0  0  0  0  0  0  0
   -3.3910   24.1810  -28.1220 C   0  0  0  0  0  0  0  0  0  0  0  0
   -4.4731   24.2665  -27.9440 H   0  0  0  0  0  0  0  0  0  0  0  0
   -2.5230   23.8960  -27.0650 C   0  0  0  0  0  0  0  0  0  0  0  0
   -2.9211   23.7560  -26.0492 H   0  0  0  0  0  0  0  0  0  0  0  0
   -1.1530   23.7890  -27.2970 C   0  0  0  0  0  0  0  0  0  0  0  0
   -0.4640   23.5646  -26.4694 H   0  0  0  0  0  0  0  0  0  0  0  0
  1  2  1  0
  2  3  1  0
  3  4  1  0
  4  5  2  0
  5  6  1  0
  6  7  2  0
  6  8  2  0
  6  9  1  0
  9 10  2  0
 10 11  1  0
 10 12  1  0
 12 13  1  0
 12 14  2  0
 14 15  1  0
 15 16  1  0
 15 17  1  0
 17 18  1  0
 17 19  1  0
 17 20  1  0
 20 21  2  0
 21 22  1  0
 21 23  1  0
 23 24  1  0
 23 25  2  0
 25 26  1  0
 25 27  1  0
 27 28  1  0
 27 29  2  0
 29 30  1  0
 14 31  1  0
 31 32  1  0
 31 33  2  0
 33 34  1  0
  4 35  1  0
 35 36  1  0
 35 37  2  0
 37 38  1  0
 37 39  1  0
 39 40  1  0
 39  2  2  0
 33  9  1  0
 29 20  1  0
M  CHG  1   3  -1
M  END
>  <UniqueID>  (38) 
35

>  <SMILES>  (38) 
O=S(=O)(/N=c1\cccc[n-]1)c1ccc(NCc2ccccc2)cc1

>  <Energy>  (38) 
48.96687328189639

>  <Genealogy>  (38) 
O=S(=O)(N=c1cccc[n-]1)c1ccc(NCc2ccccc2)cc1 (protonated)
O=S(=O)(/N=c1\cccc[n-]1)c1ccc(NCc2ccccc2)cc1 (cis-trans isomerization)
O=S(=O)(/N=c1\cccc[n-]1)c1ccc(NCc2ccccc2)cc1 (3D coordinates assigned)
O=S(=O)(/N=c1\cccc[n-]1)c1ccc(NCc2ccccc2)cc1 (optimized conformer: 48.96687328189639 kcal/mol)

>  <smiles>  (38) 
O=S(=O)(N=c1cccc[nH]1)c1ccc(NCc2ccccc2)cc1

>  <score_type>  (38) 
oracle

>  <origin>  (38) 
adgpu

>  <m_score__min__energy>  (38) 
-10.33

>  <m_primary>  (38) 
energy

$$$$
38:0
     RDKit          3D

 39 41  0  0  1  0  0  0  0  0999 V2000
   -4.3630   17.5840  -34.6720 C   0  0  0  0  0  0  0  0  0  0  0  0
   -4.3880   18.9790  -34.5810 O   0  0  0  0  0  0  0  0  0  0  0  0
   -5.2590   19.6880  -33.8010 C   0  0  0  0  0  0  0  0  0  0  0  0
   -6.5860   19.3290  -33.8150 C   0  0  0  0  0  0  0  0  0  0  0  0
   -7.4340   20.0720  -33.0140 C   0  0  0  0  0  0  0  0  0  0  0  0
   -8.7360   19.7170  -33.0630 N   0  0  0  0  0  0  0  0  0  0  0  0
   -9.6150   20.4030  -32.3410 C   0  0  0  0  0  0  0  0  0  0  0  0
   -9.1800   21.4080  -31.5990 N   0  0  0  0  0  0  0  0  0  0  0  0
   -7.9060   21.8030  -31.5090 C   0  0  0  0  0  0  0  0  0  0  0  0
   -7.6050   22.7670  -30.8100 N   0  0  0  0  0  0  0  0  0  0  0  0
   -6.4070   23.3530  -30.5580 C   0  0  0  0  0  0  0  0  0  0  0  0
   -5.5890   22.8080  -29.5380 C   0  0  0  0  0  0  0  0  0  0  0  0
   -4.4060   23.4640  -29.1840 C   0  0  0  0  0  0  0  0  0  0  0  0
   -4.0710   24.6460  -29.8540 C   0  0  0  0  0  0  0  0  0  0  0  0
   -2.9240   25.2770  -29.4950 F   0  0  0  0  0  0  0  0  0  0  0  0
   -4.8820   25.1560  -30.8420 C   0  0  0  0  0  0  0  0  0  0  0  0
   -6.0340   24.5350  -31.2020 C   0  0  0  0  0  0  0  0  0  0  0  0
   -6.9670   21.1160  -32.2430 C   0  0  0  0  0  0  0  0  0  0  0  0
   -5.6370   21.4400  -32.2580 C   0  0  0  0  0  0  0  0  0  0  0  0
   -4.7530   20.7120  -33.0570 C   0  0  0  0  0  0  0  0  0  0  0  0
   -3.3700   21.0070  -33.1450 N   0  0  0  0  0  0  0  0  0  0  0  0
   -2.5360   21.2660  -32.0290 C   0  0  0  0  0  0  0  0  0  0  0  0
   -1.1020   21.5550  -32.3150 C   0  0  0  0  0  0  0  0  0  0  0  0
   -2.9980   21.2480  -30.8480 O   0  0  0  0  0  0  0  0  0  0  0  0
   -4.3552   17.1507  -33.6610 H   0  0  0  0  0  0  0  0  0  0  0  0
   -5.2550   17.2358  -35.2133 H   0  0  0  0  0  0  0  0  0  0  0  0
   -3.4590   17.2680  -35.2133 H   0  0  0  0  0  0  0  0  0  0  0  0
   -6.9538   18.4950  -34.4307 H   0  0  0  0  0  0  0  0  0  0  0  0
   -9.0990   18.9280  -33.6390 H   0  0  0  0  0  0  0  0  0  0  0  0
  -10.6831   20.1406  -32.3598 H   0  0  0  0  0  0  0  0  0  0  0  0
   -5.8816   21.8776  -29.0293 H   0  0  0  0  0  0  0  0  0  0  0  0
   -3.7531   23.0599  -28.3963 H   0  0  0  0  0  0  0  0  0  0  0  0
   -4.5904   26.0867  -31.3508 H   0  0  0  0  0  0  0  0  0  0  0  0
   -6.6685   24.9590  -31.9942 H   0  0  0  0  0  0  0  0  0  0  0  0
   -5.2655   22.2721  -31.6419 H   0  0  0  0  0  0  0  0  0  0  0  0
   -2.9480   21.0300  -34.1210 H   0  0  0  0  0  0  0  0  0  0  0  0
   -0.5542   21.6654  -31.3675 H   0  0  0  0  0  0  0  0  0  0  0  0
   -0.6693   20.7260  -32.8943 H   0  0  0  0  0  0  0  0  0  0  0  0
   -1.0242   22.4869  -32.8943 H   0  0  0  0  0  0  0  0  0  0  0  0
  1  2  1  0
  2  3  1  0
  3  4  2  0
  4  5  1  0
  5  6  1  0
  6  7  1  0
  7  8  2  0
  8  9  1  0
  9 10  2  0
 10 11  1  0
 11 12  2  0
 12 13  1  0
 13 14  2  0
 14 15  1  0
 14 16  1  0
 16 17  2  0
  9 18  1  0
 18 19  1  0
 19 20  2  0
 20 21  1  0
 21 22  1  0
 22 23  1  0
 22 24  2  0
 20  3  1  0
 18  5  2  0
 17 11  1  0
  1 25  1  0
  1 26  1  0
  1 27  1  0
  4 28  1  0
  6 29  1  0
  7 30  1  0
 12 31  1  0
 13 32  1  0
 16 33  1  0
 17 34  1  0
 19 35  1  0
 21 36  1  0
 23 37  1  0
 23 38  1  0
 23 39  1  0
M  END
>  <smiles>  (39) 
COc1cc2[nH]cnc(=Nc3ccc(F)cc3)c2cc1NC(C)=O

>  <score_type>  (39) 
oracle

>  <origin>  (39) 
adgpu

>  <m_score__min__energy>  (39) 
-8.0500000000000007

>  <m_primary>  (39) 
energy

$$$$
39:0
     RDKit          3D

 45 47  0  0  1  0  0  0  0  0999 V2000
   -2.8040   19.0940  -26.6270 C   0  0  0  0  0  0  0  0  0  0  0  0
   -2.1420   20.3790  -27.0260 C   0  0  0  0  0  0  0  0  0  0  0  0
   -2.5380   20.8340  -28.3640 N   0  0  0  0  0  0  0  0  0  0  0  0
   -3.1630   22.1010  -28.5170 C   0  0  0  0  0  0  0  0  0  0  0  0
   -3.0500   22.9510  -27.4790 N   0  0  0  0  0  0  0  0  0  0  0  0
   -3.6160   24.1600  -27.4940 C   0  0  0  0  0  0  0  0  0  0  0  0
   -3.4900   25.0510  -26.3940 N   0  0  0  0  0  0  0  0  0  0  0  0
   -2.3570   25.6160  -26.0990 C   0  0  0  0  0  0  0  0  0  0  0  0
   -1.2190   25.3600  -26.8630 C   0  0  0  0  0  0  0  0  0  0  0  0
   -0.2280   26.1150  -26.2690 C   0  0  0  0  0  0  0  0  0  0  0  0
    1.1770   26.1800  -26.7220 C   0  0  0  0  0  0  0  0  0  0  0  0
   -0.7610   26.7700  -25.2220 N   0  0  0  0  0  0  0  0  0  0  0  0
   -2.0610   26.4710  -25.1110 N   0  0  0  0  0  0  0  0  0  0  0  0
   -4.3090   24.5120  -28.5820 N   0  0  0  0  0  0  0  0  0  0  0  0
   -4.4570   23.6890  -29.6630 C   0  0  0  0  0  0  0  0  0  0  0  0
   -5.1570   24.1650  -30.6050 N   0  0  0  0  0  0  0  0  0  0  0  0
   -5.4140   23.4490  -31.7980 C   0  0  0  0  0  0  0  0  0  0  0  0
   -6.7000   22.7380  -31.8770 C   0  0  0  0  0  0  0  0  0  0  0  0
   -7.9700   23.0320  -31.5790 C   0  0  0  0  0  0  0  0  0  0  0  0
   -8.9510   22.1450  -31.7970 C   0  0  0  0  0  0  0  0  0  0  0  0
   -8.6350   20.9350  -32.3240 C   0  0  0  0  0  0  0  0  0  0  0  0
   -6.7830   21.0670  -32.5340 S   0  0  0  0  0  0  0  0  0  0  0  0
   -3.8810   22.4350  -29.6750 C   0  0  0  0  0  0  0  0  0  0  0  0
   -3.9900   21.5400  -30.8140 C   0  0  0  0  0  0  0  0  0  0  0  0
   -2.8395   19.0251  -25.5297 H   0  0  0  0  0  0  0  0  0  0  0  0
   -3.8275   19.0685  -27.0293 H   0  0  0  0  0  0  0  0  0  0  0  0
   -2.2306   18.2458  -27.0293 H   0  0  0  0  0  0  0  0  0  0  0  0
   -2.4146   21.1556  -26.2962 H   0  0  0  0  0  0  0  0  0  0  0  0
   -1.0570   20.1990  -27.0462 H   0  0  0  0  0  0  0  0  0  0  0  0
   -2.3280   20.1620  -29.1260 H   0  0  0  0  0  0  0  0  0  0  0  0
   -1.1309   24.7039  -27.7415 H   0  0  0  0  0  0  0  0  0  0  0  0
    1.8432   26.2108  -25.8473 H   0  0  0  0  0  0  0  0  0  0  0  0
    1.4083   25.2916  -27.3280 H   0  0  0  0  0  0  0  0  0  0  0  0
    1.3253   27.0860  -27.3280 H   0  0  0  0  0  0  0  0  0  0  0  0
   -0.2220   27.4130  -24.6010 H   0  0  0  0  0  0  0  0  0  0  0  0
   -2.7530   26.8070  -24.4150 H   0  0  0  0  0  0  0  0  0  0  0  0
   -4.7420   25.4670  -28.5640 H   0  0  0  0  0  0  0  0  0  0  0  0
   -5.3775   24.1658  -32.6316 H   0  0  0  0  0  0  0  0  0  0  0  0
   -4.6457   22.6626  -31.8349 H   0  0  0  0  0  0  0  0  0  0  0  0
   -8.2129   24.0150  -31.1492 H   0  0  0  0  0  0  0  0  0  0  0  0
   -9.9944   22.3936  -31.5529 H   0  0  0  0  0  0  0  0  0  0  0  0
   -9.2992   20.0921  -32.5657 H   0  0  0  0  0  0  0  0  0  0  0  0
   -4.1158   20.5069  -30.4578 H   0  0  0  0  0  0  0  0  0  0  0  0
   -4.8599   21.8263  -31.4233 H   0  0  0  0  0  0  0  0  0  0  0  0
   -3.0768   21.6091  -31.4233 H   0  0  0  0  0  0  0  0  0  0  0  0
  1  2  1  0
  2  3  1  0
  3  4  1  0
  4  5  1  0
  5  6  2  0
  6  7  1  0
  7  8  2  0
  8  9  1  0
  9 10  2  0
 10 11  1  0
 10 12  1  0
 12 13  1  0
  6 14  1  0
 14 15  1  0
 15 16  2  0
 16 17  1  0
 17 18  1  0
 18 19  2  0
 19 20  1  0
 20 21  2  0
 21 22  1  0
 15 23  1  0
 23 24  1  0
 23  4  2  0
 13  8  1  0
 22 18  1  0
  1 25  1  0
  1 26  1  0
  1 27  1  0
  2 28  1  0
  2 29  1  0
  3 30  1  0
  9 31  1  0
 11 32  1  0
 11 33  1  0
 11 34  1  0
 12 35  1  0
 13 36  1  0
 14 37  1  0
 17 38  1  0
 17 39  1  0
 19 40  1  0
 20 41  1  0
 21 42  1  0
 24 43  1  0
 24 44  1  0
 24 45  1  0
M  END
>  <smiles>  (40) 
CCNc1nc(N=c2cc(C)[nH][nH]2)[nH]c(=NCc2cccs2)c1C

>  <score_type>  (40) 
oracle

>  <origin>  (40) 
adgpu

>  <m_score__min__energy>  (40) 
-8.3800000000000008

>  <m_primary>  (40) 
energy

$$$$
40:0
     RDKit          3D

 53 55  0  0  0  0  0  0  0  0999 V2000
   -0.6916   25.4313  -27.8993 H   0  0  0  0  0  0  0  0  0  0  0  0
   -1.6720   25.2230  -27.4460 C   0  0  0  0  0  0  0  0  0  0  0  0
   -2.6170   24.3540  -28.1740 C   0  0  0  0  0  0  0  0  0  0  0  0
   -2.6470   23.1260  -27.8880 O   0  0  0  0  0  0  0  0  0  0  0  0
   -3.4430   24.8640  -29.2340 N   0  0  0  0  0  0  0  0  0  0  0  0
   -3.0970   25.6880  -29.7760 H   0  0  0  0  0  0  0  0  0  0  0  0
   -4.6360   24.2080  -29.7000 C   0  0  0  0  0  0  0  0  0  0  0  0
   -5.8630   24.8910  -29.7820 C   0  0  0  0  0  0  0  0  0  0  0  0
   -5.9244   25.9442  -29.4706 H   0  0  0  0  0  0  0  0  0  0  0  0
   -7.0050   24.2390  -30.2570 C   0  0  0  0  0  0  0  0  0  0  0  0
   -7.9614   24.7795  -30.3135 H   0  0  0  0  0  0  0  0  0  0  0  0
   -6.9350   22.9000  -30.6610 C   0  0  0  0  0  0  0  0  0  0  0  0
   -8.3660   22.0880  -31.2840 S   0  0  0  0  0  0  0  0  0  0  0  0
   -8.9880   22.9110  -32.3770 O   0  0  0  0  0  0  0  0  0  0  0  0
   -9.3810   21.9250  -30.1870 O   0  0  0  0  0  0  0  0  0  0  0  0
   -7.9010   20.5110  -31.9110 C   0  0  0  0  0  0  0  0  0  0  0  0
   -8.5150   19.3510  -31.4230 C   0  0  0  0  0  0  0  0  0  0  0  0
   -9.2778   19.4243  -30.6339 H   0  0  0  0  0  0  0  0  0  0  0  0
   -8.1610   18.1010  -31.9360 C   0  0  0  0  0  0  0  0  0  0  0  0
   -8.6448   17.1919  -31.5493 H   0  0  0  0  0  0  0  0  0  0  0  0
   -7.1930   18.0030  -32.9400 C   0  0  0  0  0  0  0  0  0  0  0  0
   -6.9182   17.0165  -33.3415 H   0  0  0  0  0  0  0  0  0  0  0  0
   -6.5700   19.1590  -33.4380 C   0  0  0  0  0  0  0  0  0  0  0  0
   -5.5190   19.0550  -34.5250 C   0  0  0  0  0  0  0  0  0  0  0  0
   -5.5945   19.9459  -35.1658 H   0  0  0  0  0  0  0  0  0  0  0  0
   -5.7180   18.1220  -35.0726 H   0  0  0  0  0  0  0  0  0  0  0  0
   -4.1330   18.9650  -34.0140 N   0  0  0  0  0  0  0  0  0  0  0  0
   -3.9410   17.8280  -33.0990 C   0  0  0  0  0  0  0  0  0  0  0  0
   -4.0005   18.1804  -32.0587 H   0  0  0  0  0  0  0  0  0  0  0  0
   -4.7251   17.0774  -33.2773 H   0  0  0  0  0  0  0  0  0  0  0  0
   -2.9539   17.3765  -33.2773 H   0  0  0  0  0  0  0  0  0  0  0  0
   -3.6710   20.2180  -33.3990 C   0  0  0  0  0  0  0  0  0  0  0  0
   -3.7059   20.1235  -32.3036 H   0  0  0  0  0  0  0  0  0  0  0  0
   -2.6381   20.4233  -33.7166 H   0  0  0  0  0  0  0  0  0  0  0  0
   -4.3234   21.0447  -33.7166 H   0  0  0  0  0  0  0  0  0  0  0  0
   -6.9380   20.4130  -32.9240 C   0  0  0  0  0  0  0  0  0  0  0  0
   -6.4668   21.3249  -33.3195 H   0  0  0  0  0  0  0  0  0  0  0  0
   -5.7100   22.2240  -30.6080 C   0  0  0  0  0  0  0  0  0  0  0  0
   -5.6466   21.1772  -30.9398 H   0  0  0  0  0  0  0  0  0  0  0  0
   -4.5680   22.8750  -30.1350 C   0  0  0  0  0  0  0  0  0  0  0  0
   -3.6080   22.3389  -30.1032 H   0  0  0  0  0  0  0  0  0  0  0  0
   -1.9580   25.7690  -26.2560 C   0  0  0  0  0  0  0  0  0  0  0  0
   -2.9459   25.5681  -25.8159 H   0  0  0  0  0  0  0  0  0  0  0  0
   -1.0160   26.6290  -25.5000 C   0  0  0  0  0  0  0  0  0  0  0  0
   -0.3730   27.7450  -26.0720 C   0  0  0  0  0  0  0  0  0  0  0  0
   -0.5551   28.0011  -27.1262 H   0  0  0  0  0  0  0  0  0  0  0  0
    0.4720   28.5070  -25.3260 N   0  0  0  0  0  0  0  0  0  0  0  0
    0.7220   28.2290  -24.0190 C   0  0  0  0  0  0  0  0  0  0  0  0
    1.4170   28.8604  -23.4461 H   0  0  0  0  0  0  0  0  0  0  0  0
    0.0980   27.1440  -23.4040 C   0  0  0  0  0  0  0  0  0  0  0  0
    0.2926   26.9179  -22.3452 H   0  0  0  0  0  0  0  0  0  0  0  0
   -0.7760   26.3480  -24.1460 C   0  0  0  0  0  0  0  0  0  0  0  0
   -1.2796   25.4955  -23.6668 H   0  0  0  0  0  0  0  0  0  0  0  0
  1  2  1  0
  2  3  1  0
  3  4  2  0
  3  5  1  0
  5  6  1  0
  5  7  1  0
  7  8  2  0
  8  9  1  0
  8 10  1  0
 10 11  1  0
 10 12  2  0
 12 13  1  0
 13 14  2  0
 13 15  2  0
 13 16  1  0
 16 17  2  0
 17 18  1  0
 17 19  1  0
 19 20  1  0
 19 21  2  0
 21 22  1  0
 21 23  1  0
 23 24  1  0
 24 25  1  0
 24 26  1  0
 24 27  1  0
 27 28  1  0
 28 29  1  0
 28 30  1  0
 28 31  1  0
 27 32  1  0
 32 33  1  0
 32 34  1  0
 32 35  1  0
 23 36  2  0
 36 37  1  0
 12 38  1  0
 38 39  1  0
 38 40  2  0
 40 41  1  0
  2 42  2  0
 42 43  1  0
 42 44  1  0
 44 45  2  0
 45 46  1  0
 45 47  1  0
 47 48  2  0
 48 49  1  0
 48 50  1  0
 50 51  1  0
 50 52  2  0
 52 53  1  0
 40  7  1  0
 52 44  1  0
 36 16  1  0
M  END
>  <UniqueID>  (41) 
36

>  <SMILES>  (41) 
CN(C)Cc1cccc(S(=O)(=O)c2ccc(NC(=O)/C=C/c3cccnc3)cc2)c1

>  <Energy>  (41) 
65.56978730724838

>  <Genealogy>  (41) 
CN(C)Cc1cccc(S(=O)(=O)c2ccc(NC(=O)/C=C/c3cccnc3)cc2)c1 (cis-trans isomerization)
CN(C)Cc1cccc(S(=O)(=O)c2ccc(NC(=O)/C=C/c3cccnc3)cc2)c1 (3D coordinates assigned)
CN(C)Cc1cccc(S(=O)(=O)c2ccc(NC(=O)/C=C/c3cccnc3)cc2)c1 (optimized conformer: 65.56978730724838 kcal/mol)

>  <smiles>  (41) 
CN(C)Cc1cccc(S(=O)(=O)c2ccc(NC(=O)C=Cc3cccnc3)cc2)c1

>  <score_type>  (41) 
oracle

>  <origin>  (41) 
adgpu

>  <m_score__min__energy>  (41) 
-10.029999999999999

>  <m_primary>  (41) 
energy

$$$$
41:0
     RDKit          3D

 46 49  0  0  0  0  0  0  0  0999 V2000
   -0.4390   30.5450  -26.1160 Cl  0  0  0  0  0  0  0  0  0  0  0  0
   -0.2210   29.0540  -25.2180 C   0  0  0  0  0  0  0  0  0  0  0  0
    0.6610   29.0130  -24.1330 C   0  0  0  0  0  0  0  0  0  0  0  0
    0.8300   27.8270  -23.4130 C   0  0  0  0  0  0  0  0  0  0  0  0
    0.1180   26.6790  -23.7760 C   0  0  0  0  0  0  0  0  0  0  0  0
   -0.7640   26.7100  -24.8680 C   0  0  0  0  0  0  0  0  0  0  0  0
   -1.5490   25.4760  -25.2360 C   0  0  0  0  0  0  0  0  0  0  0  0
   -2.1770   25.6240  -26.5660 N   0  0  0  0  0  0  0  0  0  0  0  0
   -3.4530   24.8650  -26.6520 C   0  0  0  0  0  0  0  0  0  0  0  0
   -3.2840   23.4940  -27.3250 C   0  0  0  0  0  0  0  0  0  0  0  0
   -2.7340   23.6330  -28.7650 C   0  0  0  0  0  0  0  0  0  0  0  0
   -3.8220   23.5750  -29.7450 N   0  0  0  0  0  0  0  0  0  0  0  0
   -4.8230   22.6780  -29.7780 C   0  0  0  0  0  0  0  0  0  0  0  0
   -5.5700   22.9750  -30.9020 C   0  0  0  0  0  0  0  0  0  0  0  0
   -6.7850   22.2830  -31.3930 C   0  0  0  0  0  0  0  0  0  0  0  0
   -6.7140   20.9340  -31.7890 C   0  0  0  0  0  0  0  0  0  0  0  0
   -7.8540   20.2710  -32.2540 C   0  0  0  0  0  0  0  0  0  0  0  0
   -9.0750   20.9440  -32.3300 C   0  0  0  0  0  0  0  0  0  0  0  0
   -9.1590   22.2820  -31.9400 C   0  0  0  0  0  0  0  0  0  0  0  0
   -8.0230   22.9500  -31.4740 C   0  0  0  0  0  0  0  0  0  0  0  0
   -4.9970   24.0320  -31.5160 N   0  0  0  0  0  0  0  0  0  0  0  0
   -3.9370   24.3710  -30.7970 N   0  0  0  0  0  0  0  0  0  0  0  0
   -1.9220   24.9290  -28.9590 C   0  0  0  0  0  0  0  0  0  0  0  0
   -1.2140   25.3180  -27.6570 C   0  0  0  0  0  0  0  0  0  0  0  0
   -0.9340   27.9060  -25.5840 C   0  0  0  0  0  0  0  0  0  0  0  0
    1.2219   29.9147  -23.8463 H   0  0  0  0  0  0  0  0  0  0  0  0
    1.5237   27.7963  -22.5599 H   0  0  0  0  0  0  0  0  0  0  0  0
    0.2495   25.7487  -23.2039 H   0  0  0  0  0  0  0  0  0  0  0  0
   -0.8708   24.6101  -25.2529 H   0  0  0  0  0  0  0  0  0  0  0  0
   -2.3425   25.3298  -24.4884 H   0  0  0  0  0  0  0  0  0  0  0  0
   -3.8405   24.7118  -25.6340 H   0  0  0  0  0  0  0  0  0  0  0  0
   -4.1486   25.4537  -27.2681 H   0  0  0  0  0  0  0  0  0  0  0  0
   -2.5831   22.8885  -26.7316 H   0  0  0  0  0  0  0  0  0  0  0  0
   -4.2710   23.0113  -27.3776 H   0  0  0  0  0  0  0  0  0  0  0  0
   -2.0528   22.7846  -28.9270 H   0  0  0  0  0  0  0  0  0  0  0  0
   -5.0098   21.8700  -29.0554 H   0  0  0  0  0  0  0  0  0  0  0  0
   -5.7552   20.3978  -31.7323 H   0  0  0  0  0  0  0  0  0  0  0  0
   -7.7887   19.2166  -32.5607 H   0  0  0  0  0  0  0  0  0  0  0  0
   -9.9701   20.4204  -32.6969 H   0  0  0  0  0  0  0  0  0  0  0  0
  -10.1213   22.8116  -31.9996 H   0  0  0  0  0  0  0  0  0  0  0  0
   -8.0963   24.0041  -31.1683 H   0  0  0  0  0  0  0  0  0  0  0  0
   -1.1705   24.7710  -29.7466 H   0  0  0  0  0  0  0  0  0  0  0  0
   -2.6081   25.7392  -29.2469 H   0  0  0  0  0  0  0  0  0  0  0  0
   -0.5719   24.4832  -27.3394 H   0  0  0  0  0  0  0  0  0  0  0  0
   -0.6228   26.2251  -27.8511 H   0  0  0  0  0  0  0  0  0  0  0  0
   -1.6297   27.9410  -26.4353 H   0  0  0  0  0  0  0  0  0  0  0  0
  1  2  1  0
  2  3  2  0
  3  4  1  0
  4  5  2  0
  5  6  1  0
  6  7  1  0
  7  8  1  0
  8  9  1  0
  9 10  1  0
 10 11  1  0
 11 12  1  0
 12 13  1  0
 13 14  2  0
 14 15  1  0
 15 16  2  0
 16 17  1  0
 17 18  2  0
 18 19  1  0
 19 20  2  0
 14 21  1  0
 21 22  2  0
 11 23  1  0
 23 24  1  0
  6 25  2  0
 25  2  1  0
 24  8  1  0
 22 12  1  0
 20 15  1  0
  3 26  1  0
  4 27  1  0
  5 28  1  0
  7 29  1  0
  7 30  1  0
  9 31  1  0
  9 32  1  0
 10 33  1  0
 10 34  1  0
 11 35  1  0
 13 36  1  0
 16 37  1  0
 17 38  1  0
 18 39  1  0
 19 40  1  0
 20 41  1  0
 23 42  1  0
 23 43  1  0
 24 44  1  0
 24 45  1  0
 25 46  1  0
M  END
>  <UniqueID>  (42) 
37

>  <SMILES>  (42) 
Clc1cccc(CN2CCC(n3cc(-c4ccccc4)nn3)CC2)c1

>  <Energy>  (42) 
93.39499319577169

>  <Genealogy>  (42) 
Clc1cccc(CN2CCC(n3cc(-c4ccccc4)nn3)CC2)c1 (3D coordinates assigned)
Clc1cccc(CN2CCC(n3cc(-c4ccccc4)nn3)CC2)c1 (nonaromatic ring conformer: 93.39499319577169 kcal/mol)

>  <smiles>  (42) 
Clc1cccc(CN2CCC(n3cc(-c4ccccc4)nn3)CC2)c1

>  <score_type>  (42) 
oracle

>  <origin>  (42) 
adgpu

>  <m_score__min__energy>  (42) 
-9.6500000000000004

>  <m_primary>  (42) 
energy

$$$$
42:0
     RDKit          3D

 49 52  0  0  0  0  0  0  0  0999 V2000
   -3.9170   13.9370  -32.8720 O   0  0  0  0  0  0  0  0  0  0  0  0
   -3.6050   14.8520  -34.0230 S   0  0  0  0  0  0  0  0  0  0  0  0
   -2.9890   14.0730  -35.1520 O   0  0  0  0  0  0  0  0  0  0  0  0
   -5.0700   15.5950  -34.5790 N   0  0  0  0  0  0  0  0  0  0  0  0
   -5.6360   16.8030  -34.0550 C   0  0  0  0  0  0  0  0  0  0  0  0
   -6.1930   16.7790  -32.7720 C   0  0  0  0  0  0  0  0  0  0  0  0
   -6.7490   17.9340  -32.2160 C   0  0  0  0  0  0  0  0  0  0  0  0
   -6.7580   19.1400  -32.9400 C   0  0  0  0  0  0  0  0  0  0  0  0
   -7.3430   20.3710  -32.3470 C   0  0  0  0  0  0  0  0  0  0  0  0
   -8.7330   20.5740  -32.3420 C   0  0  0  0  0  0  0  0  0  0  0  0
   -9.2580   21.7440  -31.7930 C   0  0  0  0  0  0  0  0  0  0  0  0
   -8.4310   22.6780  -31.2570 N   0  0  0  0  0  0  0  0  0  0  0  0
   -7.0800   22.5150  -31.2250 C   0  0  0  0  0  0  0  0  0  0  0  0
   -6.2500   23.5470  -30.6620 N   0  0  0  0  0  0  0  0  0  0  0  0
   -4.9580   23.2380  -30.0370 C   0  0  0  0  0  0  0  0  0  0  0  0
   -3.8870   24.2640  -30.4630 C   0  0  0  0  0  0  0  0  0  0  0  0
   -4.4330   25.5940  -30.8080 N   0  0  0  0  0  0  0  0  0  0  0  0
   -5.6870   25.8890  -30.1040 C   0  0  0  0  0  0  0  0  0  0  0  0
   -6.7870   24.9080  -30.5340 C   0  0  0  0  0  0  0  0  0  0  0  0
   -6.5140   21.3580  -31.7880 C   0  0  0  0  0  0  0  0  0  0  0  0
   -6.2030   19.1610  -34.2310 C   0  0  0  0  0  0  0  0  0  0  0  0
   -5.6460   18.0040  -34.7850 C   0  0  0  0  0  0  0  0  0  0  0  0
   -2.4600   16.0880  -33.4860 C   0  0  0  0  0  0  0  0  0  0  0  0
   -2.6960   17.4370  -33.8010 C   0  0  0  0  0  0  0  0  0  0  0  0
   -1.7960   18.4270  -33.3960 C   0  0  0  0  0  0  0  0  0  0  0  0
   -2.1000   20.1080  -33.7990 Cl  0  0  0  0  0  0  0  0  0  0  0  0
   -0.6530   18.0790  -32.6720 C   0  0  0  0  0  0  0  0  0  0  0  0
   -0.4110   16.7420  -32.3500 C   0  0  0  0  0  0  0  0  0  0  0  0
   -1.3060   15.7430  -32.7500 C   0  0  0  0  0  0  0  0  0  0  0  0
   -0.9470   14.0770  -32.3080 Cl  0  0  0  0  0  0  0  0  0  0  0  0
   -6.1933   15.8422  -32.1955 H   0  0  0  0  0  0  0  0  0  0  0  0
   -7.1825   17.9000  -31.2056 H   0  0  0  0  0  0  0  0  0  0  0  0
   -9.4041   19.8141  -32.7689 H   0  0  0  0  0  0  0  0  0  0  0  0
  -10.3453   21.9104  -31.7943 H   0  0  0  0  0  0  0  0  0  0  0  0
   -5.0701   23.2661  -28.9431 H   0  0  0  0  0  0  0  0  0  0  0  0
   -4.6381   22.2370  -30.3622 H   0  0  0  0  0  0  0  0  0  0  0  0
   -3.1757   24.3866  -29.6329 H   0  0  0  0  0  0  0  0  0  0  0  0
   -3.4115   23.8690  -31.3729 H   0  0  0  0  0  0  0  0  0  0  0  0
   -4.6190   25.6250  -31.8400 H   0  0  0  0  0  0  0  0  0  0  0  0
   -5.5239   25.7979  -29.0200 H   0  0  0  0  0  0  0  0  0  0  0  0
   -6.0041   26.9121  -30.3544 H   0  0  0  0  0  0  0  0  0  0  0  0
   -7.5877   24.9105  -29.7797 H   0  0  0  0  0  0  0  0  0  0  0  0
   -7.1808   25.2254  -31.5108 H   0  0  0  0  0  0  0  0  0  0  0  0
   -5.4220   21.2254  -31.7909 H   0  0  0  0  0  0  0  0  0  0  0  0
   -6.2067   20.0958  -34.8108 H   0  0  0  0  0  0  0  0  0  0  0  0
   -5.2140   18.0340  -35.7962 H   0  0  0  0  0  0  0  0  0  0  0  0
   -3.5951   17.7158  -34.3701 H   0  0  0  0  0  0  0  0  0  0  0  0
    0.0562   18.8581  -32.3557 H   0  0  0  0  0  0  0  0  0  0  0  0
    0.4891   16.4721  -31.7781 H   0  0  0  0  0  0  0  0  0  0  0  0
  1  2  2  0
  2  3  2  0
  2  4  1  0
  4  5  1  0
  5  6  2  0
  6  7  1  0
  7  8  2  0
  8  9  1  0
  9 10  2  0
 10 11  1  0
 11 12  2  0
 12 13  1  0
 13 14  1  0
 14 15  1  0
 15 16  1  0
 16 17  1  0
 17 18  1  0
 18 19  1  0
 13 20  2  0
  8 21  1  0
 21 22  2  0
  2 23  1  0
 23 24  2  0
 24 25  1  0
 25 26  1  0
 25 27  2  0
 27 28  1  0
 28 29  2  0
 29 30  1  0
 22  5  1  0
 29 23  1  0
 20  9  1  0
 19 14  1  0
  6 31  1  0
  7 32  1  0
 10 33  1  0
 11 34  1  0
 15 35  1  0
 15 36  1  0
 16 37  1  0
 16 38  1  0
 17 39  1  0
 18 40  1  0
 18 41  1  0
 19 42  1  0
 19 43  1  0
 20 44  1  0
 21 45  1  0
 22 46  1  0
 24 47  1  0
 27 48  1  0
 28 49  1  0
M  CHG  1   4  -1
M  END
>  <UniqueID>  (43) 
38

>  <SMILES>  (43) 
O=S(=O)([N-]c1ccc(-c2ccnc(N3CCNCC3)c2)cc1)c1cc(Cl)ccc1Cl

>  <Energy>  (43) 
71.58063678018105

>  <Genealogy>  (43) 
O=S(=O)([N-]c1ccc(-c2ccnc(N3CCNCC3)c2)cc1)c1cc(Cl)ccc1Cl (protonated)
O=S(=O)([N-]c1ccc(-c2ccnc(N3CCNCC3)c2)cc1)c1cc(Cl)ccc1Cl (3D coordinates assigned)
O=S(=O)([N-]c1ccc(-c2ccnc(N3CCNCC3)c2)cc1)c1cc(Cl)ccc1Cl (nonaromatic ring conformer: 71.58063678018105 kcal/mol)

>  <smiles>  (43) 
O=S(=O)(Nc1ccc(-c2ccnc(N3CCNCC3)c2)cc1)c1cc(Cl)ccc1Cl

>  <score_type>  (43) 
oracle

>  <origin>  (43) 
adgpu

>  <m_score__min__energy>  (43) 
-11.880000000000001

>  <m_primary>  (43) 
energy

$$$$
43:0
     RDKit          3D

 45 48  0  0  0  0  0  0  0  0999 V2000
    0.1494   26.5477  -27.5453 H   0  0  0  0  0  0  0  0  0  0  0  0
   -0.1130   25.4810  -27.4880 C   0  0  0  0  0  0  0  0  0  0  0  0
   -0.5360   24.8260  -28.6010 N   0  0  0  0  0  0  0  0  0  0  0  0
   -0.8700   23.5060  -28.5820 C   0  0  0  0  0  0  0  0  0  0  0  0
   -1.3310   22.9210  -29.7700 O   0  0  0  0  0  0  0  0  0  0  0  0
   -2.6850   22.7590  -30.0980 C   0  0  0  0  0  0  0  0  0  0  0  0
   -3.6560   23.0700  -29.1410 C   0  0  0  0  0  0  0  0  0  0  0  0
   -3.3503   23.3600  -28.1249 H   0  0  0  0  0  0  0  0  0  0  0  0
   -5.0140   23.0140  -29.4700 C   0  0  0  0  0  0  0  0  0  0  0  0
   -5.7733   23.2663  -28.7151 H   0  0  0  0  0  0  0  0  0  0  0  0
   -5.4090   22.6360  -30.7630 C   0  0  0  0  0  0  0  0  0  0  0  0
   -6.7960   22.5850  -31.1240 N   0  0  0  0  0  0  0  0  0  0  0  0
   -7.4520   21.5340  -31.5300 C   0  0  0  0  0  0  0  0  0  0  0  0
   -8.7890   21.6860  -31.9190 C   0  0  0  0  0  0  0  0  0  0  0  0
   -9.2642   22.6776  -31.8888 H   0  0  0  0  0  0  0  0  0  0  0  0
   -9.5150   20.5730  -32.3450 C   0  0  0  0  0  0  0  0  0  0  0  0
  -10.5624   20.6867  -32.6614 H   0  0  0  0  0  0  0  0  0  0  0  0
   -8.9110   19.3170  -32.3690 C   0  0  0  0  0  0  0  0  0  0  0  0
   -9.4747   18.4351  -32.7073 H   0  0  0  0  0  0  0  0  0  0  0  0
   -7.5830   19.1910  -31.9590 C   0  0  0  0  0  0  0  0  0  0  0  0
   -7.0987   18.2034  -31.9679 H   0  0  0  0  0  0  0  0  0  0  0  0
   -6.8840   20.2850  -31.5480 N   0  0  0  0  0  0  0  0  0  0  0  0
   -5.9070   20.1270  -31.2180 H   0  0  0  0  0  0  0  0  0  0  0  0
   -4.4430   22.2390  -31.6920 C   0  0  0  0  0  0  0  0  0  0  0  0
   -4.7521   21.8743  -32.6827 H   0  0  0  0  0  0  0  0  0  0  0  0
   -3.0860   22.3040  -31.3660 C   0  0  0  0  0  0  0  0  0  0  0  0
   -2.3294   21.9983  -32.1036 H   0  0  0  0  0  0  0  0  0  0  0  0
   -0.7340   22.7690  -27.3780 C   0  0  0  0  0  0  0  0  0  0  0  0
   -0.9670   21.3080  -27.3190 C   0  0  0  0  0  0  0  0  0  0  0  0
   -0.2470   20.4390  -28.1550 C   0  0  0  0  0  0  0  0  0  0  0  0
    0.5309   20.8394  -28.8218 H   0  0  0  0  0  0  0  0  0  0  0  0
   -0.5150   19.0680  -28.1430 C   0  0  0  0  0  0  0  0  0  0  0  0
    0.0489   18.3926  -28.8032 H   0  0  0  0  0  0  0  0  0  0  0  0
   -1.4980   18.5530  -27.2940 C   0  0  0  0  0  0  0  0  0  0  0  0
   -1.7104   17.4737  -27.2922 H   0  0  0  0  0  0  0  0  0  0  0  0
   -2.2140   19.4070  -26.4450 C   0  0  0  0  0  0  0  0  0  0  0  0
   -3.2290   18.8790  -25.5870 N   0  0  0  0  0  0  0  0  0  0  0  0
   -4.2230   19.1840  -25.6860 H   0  0  0  0  0  0  0  0  0  0  0  0
   -2.9920   18.1860  -24.8430 H   0  0  0  0  0  0  0  0  0  0  0  0
   -1.9400   20.7820  -26.4520 C   0  0  0  0  0  0  0  0  0  0  0  0
   -2.4896   21.4527  -25.7752 H   0  0  0  0  0  0  0  0  0  0  0  0
   -0.3210   23.4460  -26.2200 C   0  0  0  0  0  0  0  0  0  0  0  0
   -0.2417   22.9031  -25.2666 H   0  0  0  0  0  0  0  0  0  0  0  0
   -0.0110   24.8040  -26.2740 C   0  0  0  0  0  0  0  0  0  0  0  0
    0.3111   25.3364  -25.3669 H   0  0  0  0  0  0  0  0  0  0  0  0
  1  2  1  0
  2  3  2  0
  3  4  1  0
  4  5  1  0
  5  6  1  0
  6  7  2  0
  7  8  1  0
  7  9  1  0
  9 10  1  0
  9 11  2  0
 11 12  1  0
 12 13  2  0
 13 14  1  0
 14 15  1  0
 14 16  2  0
 16 17  1  0
 16 18  1  0
 18 19  1  0
 18 20  2  0
 20 21  1  0
 20 22  1  0
 22 23  1  0
 11 24  1  0
 24 25  1  0
 24 26  2  0
 26 27  1  0
  4 28  2  0
 28 29  1  0
 29 30  2  0
 30 31  1  0
 30 32  1  0
 32 33  1  0
 32 34  2  0
 34 35  1  0
 34 36  1  0
 36 37  1  0
 37 38  1  0
 37 39  1  0
 36 40  2  0
 40 41  1  0
 28 42  1  0
 42 43  1  0
 42 44  2  0
 44 45  1  0
 44  2  1  0
 26  6  1  0
 40 29  1  0
 22 13  1  0
M  END
>  <UniqueID>  (44) 
39

>  <SMILES>  (44) 
Nc1cccc(-c2cccnc2Oc2ccc(/N=c3/cccc[nH]3)cc2)c1

>  <Energy>  (44) 
70.30859525303083

>  <Genealogy>  (44) 
Nc1cccc(-c2cccnc2Oc2ccc(/N=c3/cccc[nH]3)cc2)c1 (cis-trans isomerization)
Nc1cccc(-c2cccnc2Oc2ccc(/N=c3/cccc[nH]3)cc2)c1 (3D coordinates assigned)
Nc1cccc(-c2cccnc2Oc2ccc(/N=c3/cccc[nH]3)cc2)c1 (optimized conformer: 70.30859525303083 kcal/mol)

>  <smiles>  (44) 
Nc1cccc(-c2cccnc2Oc2ccc(N=c3cccc[nH]3)cc2)c1

>  <score_type>  (44) 
oracle

>  <origin>  (44) 
adgpu

>  <m_score__min__energy>  (44) 
-8.6999999999999993

>  <m_primary>  (44) 
energy

$$$$
44:0
     RDKit          3D

 54 57  0  0  0  0  0  0  0  0999 V2000
   -9.2230   23.4230  -32.3300 C   0  0  0  0  0  0  0  0  0  0  0  0
   -8.0690   22.6240  -32.0900 O   0  0  0  0  0  0  0  0  0  0  0  0
   -8.0540   21.2190  -32.1160 C   0  0  0  0  0  0  0  0  0  0  0  0
   -9.2120   20.4650  -32.3840 C   0  0  0  0  0  0  0  0  0  0  0  0
   -9.1530   19.0690  -32.4240 C   0  0  0  0  0  0  0  0  0  0  0  0
   -7.9420   18.4130  -32.2000 C   0  0  0  0  0  0  0  0  0  0  0  0
   -6.7870   19.1490  -31.9290 C   0  0  0  0  0  0  0  0  0  0  0  0
   -6.8350   20.5520  -31.8800 C   0  0  0  0  0  0  0  0  0  0  0  0
   -5.6440   21.3030  -31.5880 N   0  0  0  0  0  0  0  0  0  0  0  0
   -4.3430   20.8250  -32.0540 C   0  0  0  0  0  0  0  0  0  0  0  0
   -3.4480   22.0130  -32.4290 C   0  0  0  0  0  0  0  0  0  0  0  0
   -3.4390   23.0690  -31.3950 N   0  0  0  0  0  0  0  0  0  0  0  0
   -2.3200   23.0560  -30.4290 C   0  0  0  0  0  0  0  0  0  0  0  0
   -2.6910   22.4880  -29.0480 C   0  0  0  0  0  0  0  0  0  0  0  0
   -1.9670   23.2450  -27.9510 C   0  0  0  0  0  0  0  0  0  0  0  0
   -1.4170   22.5810  -26.8350 C   0  0  0  0  0  0  0  0  0  0  0  0
   -1.4630   21.0880  -26.6830 C   0  0  0  0  0  0  0  0  0  0  0  0
   -0.8020   23.3040  -25.8670 N   0  0  0  0  0  0  0  0  0  0  0  0
   -0.7120   24.6560  -25.9250 C   0  0  0  0  0  0  0  0  0  0  0  0
   -0.0640   25.3390  -24.8900 C   0  0  0  0  0  0  0  0  0  0  0  0
    0.0300   26.7270  -24.9350 C   0  0  0  0  0  0  0  0  0  0  0  0
    0.8390   27.5990  -23.6450 Cl  0  0  0  0  0  0  0  0  0  0  0  0
   -0.5220   27.4200  -26.0090 C   0  0  0  0  0  0  0  0  0  0  0  0
   -1.1630   26.7130  -27.0290 C   0  0  0  0  0  0  0  0  0  0  0  0
   -1.2560   25.3430  -26.9860 N   0  0  0  0  0  0  0  0  0  0  0  0
   -1.8860   24.6520  -27.9920 C   0  0  0  0  0  0  0  0  0  0  0  0
   -2.4020   25.2720  -28.9660 O   0  0  0  0  0  0  0  0  0  0  0  0
   -4.7620   23.4840  -30.8850 C   0  0  0  0  0  0  0  0  0  0  0  0
   -5.6620   22.3000  -30.5180 C   0  0  0  0  0  0  0  0  0  0  0  0
   -9.6639   23.7282  -31.3695 H   0  0  0  0  0  0  0  0  0  0  0  0
   -8.9370   24.3174  -32.9029 H   0  0  0  0  0  0  0  0  0  0  0  0
   -9.9596   22.8406  -32.9029 H   0  0  0  0  0  0  0  0  0  0  0  0
  -10.1688   20.9773  -32.5630 H   0  0  0  0  0  0  0  0  0  0  0  0
  -10.0626   18.4867  -32.6324 H   0  0  0  0  0  0  0  0  0  0  0  0
   -7.8973   17.3145  -32.2370 H   0  0  0  0  0  0  0  0  0  0  0  0
   -5.8346   18.6276  -31.7530 H   0  0  0  0  0  0  0  0  0  0  0  0
   -3.8607   20.2446  -31.2537 H   0  0  0  0  0  0  0  0  0  0  0  0
   -4.4892   20.1906  -32.9406 H   0  0  0  0  0  0  0  0  0  0  0  0
   -2.4196   21.6485  -32.5687 H   0  0  0  0  0  0  0  0  0  0  0  0
   -3.8518   22.4550  -33.3518 H   0  0  0  0  0  0  0  0  0  0  0  0
   -1.5084   22.4432  -30.8482 H   0  0  0  0  0  0  0  0  0  0  0  0
   -2.0229   24.1035  -30.2726 H   0  0  0  0  0  0  0  0  0  0  0  0
   -3.7765   22.5824  -28.8974 H   0  0  0  0  0  0  0  0  0  0  0  0
   -2.3933   21.4299  -29.0066 H   0  0  0  0  0  0  0  0  0  0  0  0
   -1.4710   20.8283  -25.6141 H   0  0  0  0  0  0  0  0  0  0  0  0
   -2.3736   20.6986  -27.1618 H   0  0  0  0  0  0  0  0  0  0  0  0
   -0.5781   20.6433  -27.1618 H   0  0  0  0  0  0  0  0  0  0  0  0
    0.3686   24.7823  -24.0457 H   0  0  0  0  0  0  0  0  0  0  0  0
   -0.4538   28.5170  -26.0540 H   0  0  0  0  0  0  0  0  0  0  0  0
   -1.5990   27.2603  -27.8777 H   0  0  0  0  0  0  0  0  0  0  0  0
   -4.6132   24.1022  -29.9874 H   0  0  0  0  0  0  0  0  0  0  0  0
   -5.2641   24.0411  -31.6897 H   0  0  0  0  0  0  0  0  0  0  0  0
   -5.2975   21.8410  -29.5872 H   0  0  0  0  0  0  0  0  0  0  0  0
   -6.6920   22.6606  -30.3798 H   0  0  0  0  0  0  0  0  0  0  0  0
  1  2  1  0
  2  3  1  0
  3  4  2  0
  4  5  1  0
  5  6  2  0
  6  7  1  0
  7  8  2  0
  8  9  1  0
  9 10  1  0
 10 11  1  0
 11 12  1  0
 12 13  1  0
 13 14  1  0
 14 15  1  0
 15 16  2  0
 16 17  1  0
 16 18  1  0
 18 19  2  0
 19 20  1  0
 20 21  2  0
 21 22  1  0
 21 23  1  0
 23 24  2  0
 24 25  1  0
 25 26  1  0
 26 27  2  0
 12 28  1  0
 28 29  1  0
  8  3  1  0
 29  9  1  0
 26 15  1  0
 25 19  1  0
  1 30  1  0
  1 31  1  0
  1 32  1  0
  4 33  1  0
  5 34  1  0
  6 35  1  0
  7 36  1  0
 10 37  1  0
 10 38  1  0
 11 39  1  0
 11 40  1  0
 13 41  1  0
 13 42  1  0
 14 43  1  0
 14 44  1  0
 17 45  1  0
 17 46  1  0
 17 47  1  0
 20 48  1  0
 23 49  1  0
 24 50  1  0
 28 51  1  0
 28 52  1  0
 29 53  1  0
 29 54  1  0
M  END
>  <UniqueID>  (45) 
40

>  <SMILES>  (45) 
COc1ccccc1N1CCN(CCc2c(C)nc3cc(Cl)ccn3c2=O)CC1

>  <Energy>  (45) 
75.6246584145243

>  <Genealogy>  (45) 
COc1ccccc1N1CCN(CCc2c(C)nc3cc(Cl)ccn3c2=O)CC1 (3D coordinates assigned)
COc1ccccc1N1CCN(CCc2c(C)nc3cc(Cl)ccn3c2=O)CC1 (nonaromatic ring conformer: 75.6246584145243 kcal/mol)

>  <smiles>  (45) 
COc1ccccc1N1CCN(CCc2c(C)nc3cc(Cl)ccn3c2=O)CC1

>  <score_type>  (45) 
oracle

>  <origin>  (45) 
adgpu

>  <m_score__min__energy>  (45) 
-9.0500000000000007

>  <m_primary>  (45) 
energy

$$$$
45:0
     RDKit          3D

 57 61  0  0  0  0  0  0  0  0999 V2000
    0.9820   22.9810  -27.1060 C   0  0  0  0  0  0  0  0  0  0  0  0
   -0.4180   22.4810  -27.3510 C   0  0  0  0  0  0  0  0  0  0  0  0
   -0.7600   21.1910  -26.9150 C   0  0  0  0  0  0  0  0  0  0  0  0
   -2.0360   20.6810  -27.1410 C   0  0  0  0  0  0  0  0  0  0  0  0
   -2.9910   21.4510  -27.8010 C   0  0  0  0  0  0  0  0  0  0  0  0
   -2.6910   22.7580  -28.2200 C   0  0  0  0  0  0  0  0  0  0  0  0
   -3.6510   23.5390  -28.9500 N   0  0  0  0  0  0  0  0  0  0  0  0
   -4.1330   23.2990  -30.2790 C   0  0  0  0  0  0  0  0  0  0  0  0
   -3.8750   24.1060  -31.2120 O   0  0  0  0  0  0  0  0  0  0  0  0
   -4.8550   22.0140  -30.5910 C   0  0  1  0  0  0  0  0  0  0  0  0
   -6.2430   22.4070  -31.0670 C   0  0  0  0  0  0  0  0  0  0  0  0
   -6.3930   23.2380  -32.1910 C   0  0  0  0  0  0  0  0  0  0  0  0
   -7.6680   23.5980  -32.6400 C   0  0  0  0  0  0  0  0  0  0  0  0
   -8.8040   23.1170  -31.9830 C   0  0  0  0  0  0  0  0  0  0  0  0
   -8.6670   22.2670  -30.8830 C   0  0  0  0  0  0  0  0  0  0  0  0
   -7.3970   21.9040  -30.4310 C   0  0  0  0  0  0  0  0  0  0  0  0
   -4.1230   21.1730  -31.5790 N   0  0  0  0  0  0  0  0  0  0  0  0
   -4.6170   20.1840  -32.3920 C   0  0  0  0  0  0  0  0  0  0  0  0
   -5.9900   19.6470  -32.3490 C   0  0  0  0  0  0  0  0  0  0  0  0
   -6.9950   20.2330  -33.1340 C   0  0  0  0  0  0  0  0  0  0  0  0
   -8.2990   19.7300  -33.0930 C   0  0  0  0  0  0  0  0  0  0  0  0
   -8.6000   18.6280  -32.2860 C   0  0  0  0  0  0  0  0  0  0  0  0
   -7.5960   18.0220  -31.5270 C   0  0  0  0  0  0  0  0  0  0  0  0
   -6.2910   18.5220  -31.5650 C   0  0  0  0  0  0  0  0  0  0  0  0
   -3.6810   19.6120  -33.1910 N   0  0  0  0  0  0  0  0  0  0  0  0
   -2.5470   20.2260  -32.8240 C   0  0  0  0  0  0  0  0  0  0  0  0
   -1.2640   19.9550  -33.2920 C   0  0  0  0  0  0  0  0  0  0  0  0
   -0.1900   20.6350  -32.6950 C   0  0  0  0  0  0  0  0  0  0  0  0
   -0.4210   21.5360  -31.6340 C   0  0  0  0  0  0  0  0  0  0  0  0
   -1.7300   21.7800  -31.1780 C   0  0  0  0  0  0  0  0  0  0  0  0
   -2.7900   21.1300  -31.8270 C   0  0  0  0  0  0  0  0  0  0  0  0
   -1.3980   23.2880  -27.9850 C   0  0  0  0  0  0  0  0  0  0  0  0
   -1.0560   24.6810  -28.4660 C   0  0  0  0  0  0  0  0  0  0  0  0
    1.1639   23.0460  -26.0231 H   0  0  0  0  0  0  0  0  0  0  0  0
    1.7042   22.2852  -27.5580 H   0  0  0  0  0  0  0  0  0  0  0  0
    1.1000   23.9769  -27.5580 H   0  0  0  0  0  0  0  0  0  0  0  0
   -0.0131   20.5774  -26.3900 H   0  0  0  0  0  0  0  0  0  0  0  0
   -2.2904   19.6675  -26.7974 H   0  0  0  0  0  0  0  0  0  0  0  0
   -3.9892   21.0319  -27.9959 H   0  0  0  0  0  0  0  0  0  0  0  0
   -4.9211   21.3778  -29.6961 H   0  0  0  0  0  0  0  0  0  0  0  0
   -5.5024   23.6073  -32.7206 H   0  0  0  0  0  0  0  0  0  0  0  0
   -7.7767   24.2605  -33.5113 H   0  0  0  0  0  0  0  0  0  0  0  0
   -9.8058   23.4078  -32.3321 H   0  0  0  0  0  0  0  0  0  0  0  0
   -9.5619   21.8827  -30.3717 H   0  0  0  0  0  0  0  0  0  0  0  0
   -7.2958   21.2218  -29.5740 H   0  0  0  0  0  0  0  0  0  0  0  0
   -6.7566   21.0891  -33.7823 H   0  0  0  0  0  0  0  0  0  0  0  0
   -9.0890   20.2015  -33.6961 H   0  0  0  0  0  0  0  0  0  0  0  0
   -9.6280   18.2383  -32.2490 H   0  0  0  0  0  0  0  0  0  0  0  0
   -7.8324   17.1505  -30.8988 H   0  0  0  0  0  0  0  0  0  0  0  0
   -5.4985   18.0330  -30.9795 H   0  0  0  0  0  0  0  0  0  0  0  0
   -1.0969   19.2314  -34.1035 H   0  0  0  0  0  0  0  0  0  0  0  0
    0.8351   20.4646  -33.0559 H   0  0  0  0  0  0  0  0  0  0  0  0
    0.4276   22.0511  -31.1601 H   0  0  0  0  0  0  0  0  0  0  0  0
   -1.9167   22.4620  -30.3354 H   0  0  0  0  0  0  0  0  0  0  0  0
   -0.8945   25.3388  -27.5993 H   0  0  0  0  0  0  0  0  0  0  0  0
   -0.1402   24.6444  -29.0742 H   0  0  0  0  0  0  0  0  0  0  0  0
   -1.8847   25.0727  -29.0742 H   0  0  0  0  0  0  0  0  0  0  0  0
  1  2  1  0
  2  3  2  0
  3  4  1  0
  4  5  2  0
  5  6  1  0
  6  7  1  0
  7  8  1  0
  8  9  2  0
  8 10  1  0
 10 11  1  0
 11 12  2  0
 12 13  1  0
 13 14  2  0
 14 15  1  0
 15 16  2  0
 10 17  1  0
 17 18  1  0
 18 19  1  0
 19 20  2  0
 20 21  1  0
 21 22  2  0
 22 23  1  0
 23 24  2  0
 18 25  2  0
 25 26  1  0
 26 27  2  0
 27 28  1  0
 28 29  2  0
 29 30  1  0
 30 31  2  0
  6 32  2  0
 32 33  1  0
 32  2  1  0
 16 11  1  0
 31 17  1  0
 24 19  1  0
 31 26  1  0
  1 34  1  0
  1 35  1  0
  1 36  1  0
  3 37  1  0
  4 38  1  0
  5 39  1  0
 10 40  1  1
 12 41  1  0
 13 42  1  0
 14 43  1  0
 15 44  1  0
 16 45  1  0
 20 46  1  0
 21 47  1  0
 22 48  1  0
 23 49  1  0
 24 50  1  0
 27 51  1  0
 28 52  1  0
 29 53  1  0
 30 54  1  0
 33 55  1  0
 33 56  1  0
 33 57  1  0
M  CHG  1   7  -1
M  END
>  <UniqueID>  (46) 
41

>  <SMILES>  (46) 
Cc1cccc([N-]C(=O)[C@@H](c2ccccc2)n2c(-c3ccccc3)nc3ccccc32)c1C

>  <Energy>  (46) 
115.38406856166706

>  <Genealogy>  (46) 
Cc1cccc([N-]C(=O)C(c2ccccc2)n2c(-c3ccccc3)nc3ccccc32)c1C (protonated)
Cc1cccc([N-]C(=O)[C@@H](c2ccccc2)n2c(-c3ccccc3)nc3ccccc32)c1C (chirality)
Cc1cccc([N-]C(=O)[C@@H](c2ccccc2)n2c(-c3ccccc3)nc3ccccc32)c1C (3D coordinates assigned)
Cc1cccc([N-]C(=O)[C@@H](c2ccccc2)n2c(-c3ccccc3)nc3ccccc32)c1C (optimized conformer: 115.38406856166706 kcal/mol)

>  <smiles>  (46) 
Cc1cccc(NC(=O)C(c2ccccc2)n2c(-c3ccccc3)nc3ccccc32)c1C

>  <score_type>  (46) 
oracle

>  <origin>  (46) 
adgpu

>  <m_score__min__energy>  (46) 
-11.49

>  <m_primary>  (46) 
energy

$$$$
46:0
     RDKit          3D

 51 53  0  0  0  0  0  0  0  0999 V2000
   -1.1890   16.1370  -33.2610 C   0  0  0  0  0  0  0  0  0  0  0  0
   -1.8520   17.2840  -32.7430 O   0  0  0  0  0  0  0  0  0  0  0  0
   -1.3110   18.5810  -32.7390 C   0  0  0  0  0  0  0  0  0  0  0  0
   -1.8700   19.6240  -33.5030 C   0  0  0  0  0  0  0  0  0  0  0  0
   -1.3060   20.9010  -33.4740 C   0  0  0  0  0  0  0  0  0  0  0  0
   -0.1800   21.1500  -32.6870 C   0  0  0  0  0  0  0  0  0  0  0  0
    0.3820   20.1230  -31.9270 C   0  0  0  0  0  0  0  0  0  0  0  0
   -0.1800   18.8320  -31.9410 C   0  0  0  0  0  0  0  0  0  0  0  0
    0.3680   17.7450  -31.1750 N   0  0  0  0  0  0  0  0  0  0  0  0
    1.1930   17.8280  -29.6490 S   0  0  0  0  0  0  0  0  0  0  0  0
    1.3580   16.4270  -29.1330 O   0  0  0  0  0  0  0  0  0  0  0  0
    2.5650   18.4190  -29.8060 O   0  0  0  0  0  0  0  0  0  0  0  0
    0.2410   18.7680  -28.4990 C   0  0  0  0  0  0  0  0  0  0  0  0
   -0.6620   18.1250  -27.6420 C   0  0  0  0  0  0  0  0  0  0  0  0
   -1.4100   18.8660  -26.7270 C   0  0  0  0  0  0  0  0  0  0  0  0
   -1.2560   20.2520  -26.6520 C   0  0  0  0  0  0  0  0  0  0  0  0
   -0.3450   20.9110  -27.4870 C   0  0  0  0  0  0  0  0  0  0  0  0
   -0.2500   22.3400  -27.3950 N   0  0  0  0  0  0  0  0  0  0  0  0
   -0.4190   23.3000  -28.4490 C   0  0  0  0  0  0  0  0  0  0  0  0
    0.4390   24.2080  -28.6180 O   0  0  0  0  0  0  0  0  0  0  0  0
   -1.6130   23.2470  -29.3330 C   0  0  0  0  0  0  0  0  0  0  0  0
   -2.0080   22.0160  -29.8780 C   0  0  0  0  0  0  0  0  0  0  0  0
   -3.1320   21.9230  -30.6960 C   0  0  0  0  0  0  0  0  0  0  0  0
   -3.8980   23.0630  -31.0010 C   0  0  0  0  0  0  0  0  0  0  0  0
   -5.0350   22.9680  -31.8200 O   0  0  0  0  0  0  0  0  0  0  0  0
   -5.5340   21.7640  -32.3900 C   0  0  0  0  0  0  0  0  0  0  0  0
   -3.5060   24.3170  -30.4680 C   0  0  0  0  0  0  0  0  0  0  0  0
   -4.1940   25.5210  -30.7170 O   0  0  0  0  0  0  0  0  0  0  0  0
   -5.5700   25.7780  -30.4640 C   0  0  0  0  0  0  0  0  0  0  0  0
   -2.3730   24.3980  -29.6410 C   0  0  0  0  0  0  0  0  0  0  0  0
   -2.0030   25.6450  -29.1430 O   0  0  0  0  0  0  0  0  0  0  0  0
    0.3890   20.1630  -28.4260 C   0  0  0  0  0  0  0  0  0  0  0  0
   -0.8291   15.5144  -32.4286 H   0  0  0  0  0  0  0  0  0  0  0  0
   -1.8902   15.5554  -33.8775 H   0  0  0  0  0  0  0  0  0  0  0  0
   -0.3350   16.4543  -33.8775 H   0  0  0  0  0  0  0  0  0  0  0  0
   -2.7559   19.4314  -34.1260 H   0  0  0  0  0  0  0  0  0  0  0  0
   -1.7491   21.7113  -34.0716 H   0  0  0  0  0  0  0  0  0  0  0  0
    0.2644   22.1560  -32.6659 H   0  0  0  0  0  0  0  0  0  0  0  0
    1.2715   20.3239  -31.3119 H   0  0  0  0  0  0  0  0  0  0  0  0
   -0.7814   17.0326  -27.6909 H   0  0  0  0  0  0  0  0  0  0  0  0
   -2.1235   18.3570  -26.0623 H   0  0  0  0  0  0  0  0  0  0  0  0
   -1.8542   20.8300  -25.9323 H   0  0  0  0  0  0  0  0  0  0  0  0
   -1.4222   21.1117  -29.6564 H   0  0  0  0  0  0  0  0  0  0  0  0
   -3.4242   20.9460  -31.1085 H   0  0  0  0  0  0  0  0  0  0  0  0
   -5.8217   21.0698  -31.5867 H   0  0  0  0  0  0  0  0  0  0  0  0
   -6.4128   21.9895  -33.0120 H   0  0  0  0  0  0  0  0  0  0  0  0
   -4.7534   21.3017  -33.0120 H   0  0  0  0  0  0  0  0  0  0  0  0
   -5.7434   25.8104  -29.3782 H   0  0  0  0  0  0  0  0  0  0  0  0
   -5.8505   26.7441  -30.9091 H   0  0  0  0  0  0  0  0  0  0  0  0
   -6.1802   24.9783  -30.9091 H   0  0  0  0  0  0  0  0  0  0  0  0
    1.0840   20.6746  -29.1081 H   0  0  0  0  0  0  0  0  0  0  0  0
  1  2  1  0
  2  3  1  0
  3  4  2  0
  4  5  1  0
  5  6  2  0
  6  7  1  0
  7  8  2  0
  8  9  1  0
  9 10  1  0
 10 11  2  0
 10 12  2  0
 10 13  1  0
 13 14  2  0
 14 15  1  0
 15 16  2  0
 16 17  1  0
 17 18  1  0
 18 19  1  0
 19 20  2  0
 19 21  1  0
 21 22  2  0
 22 23  1  0
 23 24  2  0
 24 25  1  0
 25 26  1  0
 24 27  1  0
 27 28  1  0
 28 29  1  0
 27 30  2  0
 30 31  1  0
 17 32  2  0
  8  3  1  0
 32 13  1  0
 30 21  1  0
  1 33  1  0
  1 34  1  0
  1 35  1  0
  4 36  1  0
  5 37  1  0
  6 38  1  0
  7 39  1  0
 14 40  1  0
 15 41  1  0
 16 42  1  0
 22 43  1  0
 23 44  1  0
 26 45  1  0
 26 46  1  0
 26 47  1  0
 29 48  1  0
 29 49  1  0
 29 50  1  0
 32 51  1  0
M  CHG  3   9  -1  18  -1  31  -1
M  END
>  <UniqueID>  (47) 
42

>  <SMILES>  (47) 
COc1ccccc1[N-]S(=O)(=O)c1cccc([N-]C(=O)c2ccc(OC)c(OC)c2[O-])c1

>  <Energy>  (47) 
67.82406263903975

>  <Genealogy>  (47) 
COc1ccccc1[N-]S(=O)(=O)c1cccc([N-]C(=O)c2ccc(OC)c(OC)c2[O-])c1 (protonated)
COc1ccccc1[N-]S(=O)(=O)c1cccc([N-]C(=O)c2ccc(OC)c(OC)c2[O-])c1 (3D coordinates assigned)
COc1ccccc1[N-]S(=O)(=O)c1cccc([N-]C(=O)c2ccc(OC)c(OC)c2[O-])c1 (optimized conformer: 67.82406263903975 kcal/mol)

>  <smiles>  (47) 
COc1ccccc1NS(=O)(=O)c1cccc(NC(=O)c2ccc(OC)c(OC)c2O)c1

>  <score_type>  (47) 
oracle

>  <origin>  (47) 
adgpu

>  <m_score__min__energy>  (47) 
-13.08

>  <m_primary>  (47) 
energy

$$$$
47:0
     RDKit          3D

 41 44  0  0  0  0  0  0  0  0999 V2000
   -6.1490   25.6020  -29.8110 C   0  0  0  0  0  0  0  0  0  0  0  0
   -4.9450   24.7730  -30.1150 C   0  0  0  0  0  0  0  0  0  0  0  0
   -3.7380   25.0390  -29.6730 O   0  0  0  0  0  0  0  0  0  0  0  0
   -2.8740   24.1640  -30.1020 N   0  0  0  0  0  0  0  0  0  0  0  0
   -3.5470   23.2750  -30.8620 C   0  0  0  0  0  0  0  0  0  0  0  0
   -2.9090   22.0870  -31.4640 C   0  0  0  0  0  0  0  0  0  0  0  0
   -3.3720   21.5590  -32.6820 C   0  0  0  0  0  0  0  0  0  0  0  0
   -2.7730   20.4210  -33.2300 C   0  0  0  0  0  0  0  0  0  0  0  0
   -1.7120   19.7990  -32.5660 C   0  0  0  0  0  0  0  0  0  0  0  0
   -1.2570   20.3080  -31.3480 C   0  0  0  0  0  0  0  0  0  0  0  0
   -1.8580   21.4420  -30.7920 C   0  0  0  0  0  0  0  0  0  0  0  0
   -4.8870   23.6350  -30.9010 C   0  0  0  0  0  0  0  0  0  0  0  0
   -5.9810   23.0310  -31.6890 C   0  0  0  0  0  0  0  0  0  0  0  0
   -6.4070   23.6220  -32.7160 O   0  0  0  0  0  0  0  0  0  0  0  0
   -6.4940   21.7390  -31.3320 N   0  0  0  0  0  0  0  0  0  0  0  0
   -7.8000   21.3050  -31.6460 N   0  0  0  0  0  0  0  0  0  0  0  0
   -8.9600   21.9180  -31.3430 C   0  0  0  0  0  0  0  0  0  0  0  0
   -9.9820   21.1820  -31.9010 C   0  0  0  0  0  0  0  0  0  0  0  0
   -9.4750   20.1080  -32.5400 N   0  0  0  0  0  0  0  0  0  0  0  0
   -8.1410   20.2040  -32.3540 C   0  0  0  0  0  0  0  0  0  0  0  0
   -7.1990   19.1930  -32.8700 C   0  0  0  0  0  0  0  0  0  0  0  0
   -6.2860   19.5120  -33.8860 C   0  0  0  0  0  0  0  0  0  0  0  0
   -5.3850   18.5420  -34.3320 C   0  0  0  0  0  0  0  0  0  0  0  0
   -5.3820   17.3040  -33.7690 N   0  0  0  0  0  0  0  0  0  0  0  0
   -6.2410   16.9750  -32.7680 C   0  0  0  0  0  0  0  0  0  0  0  0
   -7.1580   17.9160  -32.2930 C   0  0  0  0  0  0  0  0  0  0  0  0
   -6.2708   25.6858  -28.7210 H   0  0  0  0  0  0  0  0  0  0  0  0
   -6.0223   26.6052  -30.2440 H   0  0  0  0  0  0  0  0  0  0  0  0
   -7.0410   25.1257  -30.2440 H   0  0  0  0  0  0  0  0  0  0  0  0
   -4.2091   22.0434  -33.2060 H   0  0  0  0  0  0  0  0  0  0  0  0
   -3.1372   20.0145  -34.1851 H   0  0  0  0  0  0  0  0  0  0  0  0
   -1.2356   18.9089  -33.0028 H   0  0  0  0  0  0  0  0  0  0  0  0
   -0.4240   19.8160  -30.8245 H   0  0  0  0  0  0  0  0  0  0  0  0
   -1.5061   21.8301  -29.8247 H   0  0  0  0  0  0  0  0  0  0  0  0
   -5.8380   21.0910  -30.8460 H   0  0  0  0  0  0  0  0  0  0  0  0
   -9.0715   22.8411  -30.7552 H   0  0  0  0  0  0  0  0  0  0  0  0
  -11.0511   21.4326  -31.8353 H   0  0  0  0  0  0  0  0  0  0  0  0
   -6.2795   20.5190  -34.3285 H   0  0  0  0  0  0  0  0  0  0  0  0
   -4.6770   18.7799  -35.1396 H   0  0  0  0  0  0  0  0  0  0  0  0
   -6.2140   15.9658  -32.3311 H   0  0  0  0  0  0  0  0  0  0  0  0
   -7.8429   17.6567  -31.4722 H   0  0  0  0  0  0  0  0  0  0  0  0
  1  2  1  0
  2  3  1  0
  3  4  1  0
  4  5  2  0
  5  6  1  0
  6  7  2  0
  7  8  1  0
  8  9  2  0
  9 10  1  0
 10 11  2  0
  5 12  1  0
 12 13  1  0
 13 14  2  0
 13 15  1  0
 15 16  1  0
 16 17  1  0
 17 18  2  0
 18 19  1  0
 19 20  2  0
 20 21  1  0
 21 22  2  0
 22 23  1  0
 23 24  2  0
 24 25  1  0
 25 26  2  0
 12  2  2  0
 20 16  1  0
 26 21  1  0
 11  6  1  0
  1 27  1  0
  1 28  1  0
  1 29  1  0
  7 30  1  0
  8 31  1  0
  9 32  1  0
 10 33  1  0
 11 34  1  0
 15 35  1  0
 17 36  1  0
 18 37  1  0
 22 38  1  0
 23 39  1  0
 25 40  1  0
 26 41  1  0
M  END
>  <UniqueID>  (48) 
43

>  <SMILES>  (48) 
Cc1onc(-c2ccccc2)c1C(=O)Nn1ccnc1-c1ccncc1

>  <Energy>  (48) 
118.93907651586237

>  <Genealogy>  (48) 
Cc1onc(-c2ccccc2)c1C(=O)Nn1ccnc1-c1ccncc1 (3D coordinates assigned)
Cc1onc(-c2ccccc2)c1C(=O)Nn1ccnc1-c1ccncc1 (optimized conformer: 118.93907651586237 kcal/mol)

>  <smiles>  (48) 
Cc1onc(-c2ccccc2)c1C(=O)Nn1ccnc1-c1ccncc1

>  <score_type>  (48) 
oracle

>  <origin>  (48) 
adgpu

>  <m_score__min__energy>  (48) 
-9.1199999999999992

>  <m_primary>  (48) 
energy

$$$$
