0:0
     RDKit          3D

 52 54  0  0  0  0  0  0  0  0999 V2000
   -0.8560   26.6950  -28.1470 C   0  0  0  0  0  0  0  0  0  0  0  0
   -1.4370   25.6750  -28.9530 O   0  0  0  0  0  0  0  0  0  0  0  0
   -1.2270   24.2990  -28.7720 C   0  0  0  0  0  0  0  0  0  0  0  0
   -0.0230   23.7950  -28.2390 C   0  0  0  0  0  0  0  0  0  0  0  0
    0.1520   22.4190  -28.0630 C   0  0  0  0  0  0  0  0  0  0  0  0
    1.3420   21.9320  -27.5360 O   0  0  0  0  0  0  0  0  0  0  0  0
   -0.8670   21.5340  -28.4160 C   0  0  0  0  0  0  0  0  0  0  0  0
   -2.0640   22.0200  -28.9470 C   0  0  0  0  0  0  0  0  0  0  0  0
   -2.2500   23.3990  -29.1320 C   0  0  0  0  0  0  0  0  0  0  0  0
   -3.7700   24.0050  -29.7940 S   0  0  0  0  0  0  0  0  0  0  0  0
   -3.5000   25.2790  -30.5440 O   0  0  0  0  0  0  0  0  0  0  0  0
   -4.7200   24.2570  -28.6570 O   0  0  0  0  0  0  0  0  0  0  0  0
   -4.4530   22.8350  -30.8780 N   0  0  0  0  0  0  0  0  0  0  0  0
   -5.8320   22.6580  -31.2460 C   0  0  0  0  0  0  0  0  0  0  0  0
   -6.2230   21.3780  -31.6620 C   0  0  0  0  0  0  0  0  0  0  0  0
   -7.5510   21.1050  -32.0280 C   0  0  0  0  0  0  0  0  0  0  0  0
   -7.9410   19.7480  -32.4770 C   0  0  0  0  0  0  0  0  0  0  0  0
   -9.1470   19.3870  -32.3890 O   0  0  0  0  0  0  0  0  0  0  0  0
   -6.9640   18.8260  -32.9910 N   0  0  0  0  0  0  0  0  0  0  0  0
   -6.1340   19.2120  -34.1360 C   0  0  0  0  0  0  0  0  0  0  0  0
   -4.7510   18.5670  -34.0320 C   0  0  0  0  0  0  0  0  0  0  0  0
   -4.8710   17.1300  -33.7310 N   0  0  0  0  0  0  0  0  0  0  0  0
   -3.9310   16.1710  -34.2700 C   0  0  0  0  0  0  0  0  0  0  0  0
   -2.7530   16.5930  -35.0980 C   0  0  0  0  0  0  0  0  0  0  0  0
   -4.1030   14.9380  -34.0670 O   0  0  0  0  0  0  0  0  0  0  0  0
   -5.7280   16.7450  -32.5970 C   0  0  0  0  0  0  0  0  0  0  0  0
   -7.1070   17.3950  -32.7160 C   0  0  0  0  0  0  0  0  0  0  0  0
   -8.4950   22.1410  -31.9910 C   0  0  0  0  0  0  0  0  0  0  0  0
   -8.1180   23.4210  -31.5870 C   0  0  0  0  0  0  0  0  0  0  0  0
   -6.7950   23.6940  -31.2140 C   0  0  0  0  0  0  0  0  0  0  0  0
   -6.4570   24.9890  -30.8250 O   0  0  0  0  0  0  0  0  0  0  0  0
   -0.9969   26.4476  -27.0845 H   0  0  0  0  0  0  0  0  0  0  0  0
    0.2193   26.7682  -28.3669 H   0  0  0  0  0  0  0  0  0  0  0  0
   -1.3415   27.6572  -28.3669 H   0  0  0  0  0  0  0  0  0  0  0  0
    0.7838   24.4887  -27.9599 H   0  0  0  0  0  0  0  0  0  0  0  0
   -0.7276   20.4519  -28.2760 H   0  0  0  0  0  0  0  0  0  0  0  0
   -2.8653   21.3183  -29.2217 H   0  0  0  0  0  0  0  0  0  0  0  0
   -5.4755   20.5720  -31.7026 H   0  0  0  0  0  0  0  0  0  0  0  0
   -6.6203   18.8795  -35.0649 H   0  0  0  0  0  0  0  0  0  0  0  0
   -6.0186   20.3059  -34.1411 H   0  0  0  0  0  0  0  0  0  0  0  0
   -4.2203   18.6933  -34.9872 H   0  0  0  0  0  0  0  0  0  0  0  0
   -4.1924   19.0543  -33.2193 H   0  0  0  0  0  0  0  0  0  0  0  0
   -1.9264   16.8891  -34.4354 H   0  0  0  0  0  0  0  0  0  0  0  0
   -2.4316   15.7541  -35.7328 H   0  0  0  0  0  0  0  0  0  0  0  0
   -3.0374   17.4451  -35.7328 H   0  0  0  0  0  0  0  0  0  0  0  0
   -5.8441   15.6512  -32.5873 H   0  0  0  0  0  0  0  0  0  0  0  0
   -5.2552   17.0871  -31.6646 H   0  0  0  0  0  0  0  0  0  0  0  0
   -7.6639   16.9201  -33.5372 H   0  0  0  0  0  0  0  0  0  0  0  0
   -7.6518   17.2618  -31.7697 H   0  0  0  0  0  0  0  0  0  0  0  0
   -9.5372   21.9431  -32.2819 H   0  0  0  0  0  0  0  0  0  0  0  0
   -8.8675   24.2257  -31.5607 H   0  0  0  0  0  0  0  0  0  0  0  0
   -5.6320   25.1800  -30.2680 H   0  0  0  0  0  0  0  0  0  0  0  0
  1  2  1  0
  2  3  1  0
  3  4  2  0
  4  5  1  0
  5  6  1  0
  5  7  2  0
  7  8  1  0
  8  9  2  0
  9 10  1  0
 10 11  2  0
 10 12  2  0
 10 13  1  0
 13 14  1  0
 14 15  2  0
 15 16  1  0
 16 17  1  0
 17 18  2  0
 17 19  1  0
 19 20  1  0
 20 21  1  0
 21 22  1  0
 22 23  1  0
 23 24  1  0
 23 25  2  0
 22 26  1  0
 26 27  1  0
 16 28  2  0
 28 29  1  0
 29 30  2  0
 30 31  1  0
  9  3  1  0
 30 14  1  0
 27 19  1  0
  1 32  1  0
  1 33  1  0
  1 34  1  0
  4 35  1  0
  7 36  1  0
  8 37  1  0
 15 38  1  0
 20 39  1  0
 20 40  1  0
 21 41  1  0
 21 42  1  0
 24 43  1  0
 24 44  1  0
 24 45  1  0
 26 46  1  0
 26 47  1  0
 27 48  1  0
 27 49  1  0
 28 50  1  0
 29 51  1  0
 31 52  1  0
M  CHG  2   6  -1  13  -1
M  END
>  <UniqueID>  (1) 
1

>  <SMILES>  (1) 
COc1cc([O-])ccc1S(=O)(=O)[N-]c1cc(C(=O)N2CCN(C(C)=O)CC2)ccc1O

>  <Energy>  (1) 
64.49258618390196

>  <Genealogy>  (1) 
COc1cc([O-])ccc1S(=O)(=O)[N-]c1cc(C(=O)N2CCN(C(C)=O)CC2)ccc1O (protonated)
COc1cc([O-])ccc1S(=O)(=O)[N-]c1cc(C(=O)N2CCN(C(C)=O)CC2)ccc1O (3D coordinates assigned)
COc1cc([O-])ccc1S(=O)(=O)[N-]c1cc(C(=O)N2CCN(C(C)=O)CC2)ccc1O (nonaromatic ring conformer: 64.49258618390196 kcal/mol)

>  <smiles>  (1) 
COc1cc(O)ccc1S(=O)(=O)Nc1cc(C(=O)N2CCN(C(C)=O)CC2)ccc1O

>  <score_type>  (1) 
oracle

>  <origin>  (1) 
adgpu

>  <m_score__min__energy>  (1) 
-10.630000000000001

>  <m_primary>  (1) 
energy

$$$$
1:0
     RDKit          3D

 44 46  0  0  0  0  0  0  0  0999 V2000
   -3.0690   21.3140  -30.9300 C   0  0  0  0  0  0  0  0  0  0  0  0
   -3.7800   22.0980  -32.0380 C   0  0  0  0  0  0  0  0  0  0  0  0
   -3.4390   21.5550  -33.4270 C   0  0  0  0  0  0  0  0  0  0  0  0
   -5.2420   22.1470  -31.8080 N   0  0  0  0  0  0  0  0  0  0  0  0
   -6.0210   23.2470  -31.5700 C   0  0  0  0  0  0  0  0  0  0  0  0
   -5.4080   24.9000  -31.2120 S   0  0  0  0  0  0  0  0  0  0  0  0
   -5.4100   24.6980  -29.3930 C   0  0  0  0  0  0  0  0  0  0  0  0
   -4.1430   24.0570  -28.9000 C   0  0  0  0  0  0  0  0  0  0  0  0
   -2.8950   24.5350  -29.3340 C   0  0  0  0  0  0  0  0  0  0  0  0
   -1.7150   23.9310  -28.8880 C   0  0  0  0  0  0  0  0  0  0  0  0
   -1.7730   22.8450  -28.0070 C   0  0  0  0  0  0  0  0  0  0  0  0
   -0.2930   22.0830  -27.4560 Cl  0  0  0  0  0  0  0  0  0  0  0  0
   -3.0120   22.3640  -27.5720 C   0  0  0  0  0  0  0  0  0  0  0  0
   -4.1930   22.9660  -28.0160 C   0  0  0  0  0  0  0  0  0  0  0  0
   -7.3510   22.9920  -31.6100 N   0  0  0  0  0  0  0  0  0  0  0  0
   -7.4010   21.6750  -31.8600 C   0  0  0  0  0  0  0  0  0  0  0  0
   -6.1520   21.1560  -31.9790 C   0  0  0  0  0  0  0  0  0  0  0  0
   -5.9990   19.7870  -32.2330 C   0  0  0  0  0  0  0  0  0  0  0  0
   -4.8570   19.2590  -32.2830 O   0  0  0  0  0  0  0  0  0  0  0  0
   -7.1290   19.0210  -32.4070 N   0  0  0  0  0  0  0  0  0  0  0  0
   -7.0010   17.5770  -32.6680 C   0  0  0  0  0  0  0  0  0  0  0  0
   -8.3850   19.5840  -32.2630 C   0  0  0  0  0  0  0  0  0  0  0  0
   -9.4150   18.8630  -32.3970 O   0  0  0  0  0  0  0  0  0  0  0  0
   -8.5270   20.9210  -31.9740 N   0  0  0  0  0  0  0  0  0  0  0  0
   -9.8570   21.5340  -31.8560 C   0  0  0  0  0  0  0  0  0  0  0  0
   -3.4026   21.6819  -29.9485 H   0  0  0  0  0  0  0  0  0  0  0  0
   -3.3123   20.2453  -31.0230 H   0  0  0  0  0  0  0  0  0  0  0  0
   -1.9817   21.4520  -31.0230 H   0  0  0  0  0  0  0  0  0  0  0  0
   -3.4073   23.1323  -32.0014 H   0  0  0  0  0  0  0  0  0  0  0  0
   -2.8565   20.6275  -33.3252 H   0  0  0  0  0  0  0  0  0  0  0  0
   -4.3683   21.3459  -33.9772 H   0  0  0  0  0  0  0  0  0  0  0  0
   -2.8471   22.3012  -33.9772 H   0  0  0  0  0  0  0  0  0  0  0  0
   -5.5132   25.6882  -28.9251 H   0  0  0  0  0  0  0  0  0  0  0  0
   -6.2514   24.0429  -29.1232 H   0  0  0  0  0  0  0  0  0  0  0  0
   -2.8459   25.3876  -30.0273 H   0  0  0  0  0  0  0  0  0  0  0  0
   -0.7405   24.3098  -29.2299 H   0  0  0  0  0  0  0  0  0  0  0  0
   -3.0574   21.5106  -26.8794 H   0  0  0  0  0  0  0  0  0  0  0  0
   -5.1654   22.5840  -27.6719 H   0  0  0  0  0  0  0  0  0  0  0  0
   -6.9529   17.0345  -31.7123 H   0  0  0  0  0  0  0  0  0  0  0  0
   -7.8719   17.2298  -33.2433 H   0  0  0  0  0  0  0  0  0  0  0  0
   -6.0826   17.3884  -33.2433 H   0  0  0  0  0  0  0  0  0  0  0  0
  -10.1133   21.6521  -30.7928 H   0  0  0  0  0  0  0  0  0  0  0  0
   -9.8508   22.5201  -32.3434 H   0  0  0  0  0  0  0  0  0  0  0  0
  -10.6027   20.8887  -32.3434 H   0  0  0  0  0  0  0  0  0  0  0  0
  1  2  1  0
  2  3  1  0
  2  4  1  0
  4  5  1  0
  5  6  1  0
  6  7  1  0
  7  8  1  0
  8  9  2  0
  9 10  1  0
 10 11  2  0
 11 12  1  0
 11 13  1  0
 13 14  2  0
  5 15  2  0
 15 16  1  0
 16 17  2  0
 17 18  1  0
 18 19  2  0
 18 20  1  0
 20 21  1  0
 20 22  1  0
 22 23  2  0
 22 24  1  0
 24 25  1  0
 17  4  1  0
 14  8  1  0
 24 16  1  0
  1 26  1  0
  1 27  1  0
  1 28  1  0
  2 29  1  0
  3 30  1  0
  3 31  1  0
  3 32  1  0
  7 33  1  0
  7 34  1  0
  9 35  1  0
 10 36  1  0
 13 37  1  0
 14 38  1  0
 21 39  1  0
 21 40  1  0
 21 41  1  0
 25 42  1  0
 25 43  1  0
 25 44  1  0
M  END
>  <UniqueID>  (2) 
2

>  <SMILES>  (2) 
CC(C)n1c(SCc2ccc(Cl)cc2)nc2c1c(=O)n(C)c(=O)n2C

>  <Energy>  (2) 
86.68400826924255

>  <Genealogy>  (2) 
CC(C)n1c(SCc2ccc(Cl)cc2)nc2c1c(=O)n(C)c(=O)n2C (3D coordinates assigned)
CC(C)n1c(SCc2ccc(Cl)cc2)nc2c1c(=O)n(C)c(=O)n2C (optimized conformer: 86.68400826924255 kcal/mol)

>  <smiles>  (2) 
CC(C)n1c(SCc2ccc(Cl)cc2)nc2c1c(=O)n(C)c(=O)n2C

>  <score_type>  (2) 
oracle

>  <origin>  (2) 
adgpu

>  <m_score__min__energy>  (2) 
-8.0700000000000003

>  <m_primary>  (2) 
energy

$$$$
2:0
     RDKit          3D

 61 65  0  0  0  0  0  0  0  0999 V2000
   -2.1590   19.4720  -26.3690 C   0  0  0  0  0  0  0  0  0  0  0  0
   -1.0850   19.1340  -27.3680 C   0  0  0  0  0  0  0  0  0  0  0  0
   -0.2650   18.0160  -27.1440 C   0  0  0  0  0  0  0  0  0  0  0  0
    0.7320   17.6730  -28.0600 C   0  0  0  0  0  0  0  0  0  0  0  0
    0.9260   18.4470  -29.2040 C   0  0  0  0  0  0  0  0  0  0  0  0
    0.1310   19.5720  -29.4310 C   0  0  0  0  0  0  0  0  0  0  0  0
   -0.8680   19.9340  -28.5150 C   0  0  0  0  0  0  0  0  0  0  0  0
   -1.6530   21.1100  -28.7630 N   0  0  0  0  0  0  0  0  0  0  0  0
   -0.9870   22.3900  -29.0170 C   0  0  0  0  0  0  0  0  0  0  0  0
   -1.9550   23.3450  -29.7220 C   0  0  0  0  0  0  0  0  0  0  0  0
   -3.1910   23.5650  -28.9380 N   0  0  0  0  0  0  0  0  0  0  0  0
   -4.4700   24.1500  -29.9760 S   0  0  0  0  0  0  0  0  0  0  0  0
   -3.9430   25.2600  -30.8440 O   0  0  0  0  0  0  0  0  0  0  0  0
   -5.5830   24.7060  -29.1320 O   0  0  0  0  0  0  0  0  0  0  0  0
   -5.1060   22.8610  -31.0020 C   0  0  0  0  0  0  0  0  0  0  0  0
   -6.5000   22.7050  -31.1640 C   0  0  0  0  0  0  0  0  0  0  0  0
   -7.0100   21.6940  -31.9930 C   0  0  0  0  0  0  0  0  0  0  0  0
   -6.1140   20.8470  -32.6530 C   0  0  0  0  0  0  0  0  0  0  0  0
   -4.7610   21.0030  -32.4980 C   0  0  0  0  0  0  0  0  0  0  0  0
   -4.2260   21.9920  -31.6730 C   0  0  0  0  0  0  0  0  0  0  0  0
   -4.0380   19.9930  -33.2920 C   0  0  0  0  0  0  0  0  0  0  0  0
   -5.1760   19.4000  -34.1550 C   0  0  1  0  0  0  0  0  0  0  0  0
   -4.9700   17.9030  -34.4560 C   0  0  0  0  0  0  0  0  0  0  0  0
   -6.4760   19.7530  -33.5050 N   0  0  1  0  0  0  0  0  0  0  0  0
   -7.0470   18.6810  -32.6960 C   0  0  0  0  0  0  0  0  0  0  0  0
   -6.3090   17.8470  -32.1890 O   0  0  0  0  0  0  0  0  0  0  0  0
   -8.5380   18.5110  -32.4630 C   0  0  0  0  0  0  0  0  0  0  0  0
   -9.1010   19.2330  -31.2480 C   0  0  0  0  0  0  0  0  0  0  0  0
   -9.4620   19.7070  -32.6500 C   0  0  0  0  0  0  0  0  0  0  0  0
   -3.6390   22.4060  -28.1250 C   0  0  0  0  0  0  0  0  0  0  0  0
   -3.1140   21.0620  -28.6470 C   0  0  0  0  0  0  0  0  0  0  0  0
   -1.7641   19.3477  -25.3499 H   0  0  0  0  0  0  0  0  0  0  0  0
   -2.4793   20.5144  -26.5135 H   0  0  0  0  0  0  0  0  0  0  0  0
   -3.0185   18.8009  -26.5135 H   0  0  0  0  0  0  0  0  0  0  0  0
   -0.4091   17.4058  -26.2402 H   0  0  0  0  0  0  0  0  0  0  0  0
    1.3648   16.7916  -27.8790 H   0  0  0  0  0  0  0  0  0  0  0  0
    1.7064   18.1707  -29.9283 H   0  0  0  0  0  0  0  0  0  0  0  0
    0.2891   20.1790  -30.3347 H   0  0  0  0  0  0  0  0  0  0  0  0
   -0.6681   22.8321  -28.0616 H   0  0  0  0  0  0  0  0  0  0  0  0
   -0.1089   22.2227  -29.6581 H   0  0  0  0  0  0  0  0  0  0  0  0
   -1.4530   24.3123  -29.8713 H   0  0  0  0  0  0  0  0  0  0  0  0
   -2.2398   22.8903  -30.6823 H   0  0  0  0  0  0  0  0  0  0  0  0
   -7.1905   23.3801  -30.6372 H   0  0  0  0  0  0  0  0  0  0  0  0
   -8.0954   21.5699  -32.1214 H   0  0  0  0  0  0  0  0  0  0  0  0
   -3.1374   22.0908  -31.5493 H   0  0  0  0  0  0  0  0  0  0  0  0
   -3.2601   20.4558  -33.9171 H   0  0  0  0  0  0  0  0  0  0  0  0
   -3.5024   19.2477  -32.6857 H   0  0  0  0  0  0  0  0  0  0  0  0
   -5.1765   19.8444  -35.1612 H   0  0  0  0  0  0  0  0  0  0  0  0
   -4.8934   17.3460  -33.5105 H   0  0  0  0  0  0  0  0  0  0  0  0
   -5.8245   17.5247  -35.0362 H   0  0  0  0  0  0  0  0  0  0  0  0
   -4.0450   17.7695  -35.0362 H   0  0  0  0  0  0  0  0  0  0  0  0
   -7.1420   20.1150  -34.2240 H   0  0  0  0  0  0  0  0  0  0  0  0
   -8.5417   17.4830  -32.8545 H   0  0  0  0  0  0  0  0  0  0  0  0
   -9.8603   18.7436  -30.6204 H   0  0  0  0  0  0  0  0  0  0  0  0
   -8.6675   19.7063  -30.3546 H   0  0  0  0  0  0  0  0  0  0  0  0
  -10.4818   19.5595  -33.0351 H   0  0  0  0  0  0  0  0  0  0  0  0
   -9.3972   20.6638  -33.1888 H   0  0  0  0  0  0  0  0  0  0  0  0
   -3.2823   22.5438  -27.0936 H   0  0  0  0  0  0  0  0  0  0  0  0
   -4.7370   22.3721  -28.1816 H   0  0  0  0  0  0  0  0  0  0  0  0
   -3.3986   20.2623  -27.9474 H   0  0  0  0  0  0  0  0  0  0  0  0
   -3.5503   20.8616  -29.6367 H   0  0  0  0  0  0  0  0  0  0  0  0
  1  2  1  0
  2  3  2  0
  3  4  1  0
  4  5  2  0
  5  6  1  0
  6  7  2  0
  7  8  1  0
  8  9  1  0
  9 10  1  0
 10 11  1  0
 11 12  1  0
 12 13  2  0
 12 14  2  0
 12 15  1  0
 15 16  2  0
 16 17  1  0
 17 18  2  0
 18 19  1  0
 19 20  2  0
 19 21  1  0
 21 22  1  0
 22 23  1  0
 22 24  1  0
 24 25  1  0
 25 26  2  0
 25 27  1  0
 27 28  1  0
 28 29  1  0
 11 30  1  0
 30 31  1  0
  7  2  1  0
 31  8  1  0
 20 15  1  0
 29 27  1  0
 24 18  1  0
  1 32  1  0
  1 33  1  0
  1 34  1  0
  3 35  1  0
  4 36  1  0
  5 37  1  0
  6 38  1  0
  9 39  1  0
  9 40  1  0
 10 41  1  0
 10 42  1  0
 16 43  1  0
 17 44  1  0
 20 45  1  0
 21 46  1  0
 21 47  1  0
 22 48  1  6
 23 49  1  0
 23 50  1  0
 23 51  1  0
 24 52  1  6
 27 53  1  0
 28 54  1  0
 28 55  1  0
 29 56  1  0
 29 57  1  0
 30 58  1  0
 30 59  1  0
 31 60  1  0
 31 61  1  0
M  CHG  1  24   1
M  END
>  <UniqueID>  (3) 
3

>  <SMILES>  (3) 
Cc1ccccc1N1CCN(S(=O)(=O)c2ccc3c(c2)C[C@@H](C)[N@H+]3C(=O)C2CC2)CC1

>  <Energy>  (3) 
355.1072922432079

>  <Genealogy>  (3) 
Cc1ccccc1N1CCN(S(=O)(=O)c2ccc3c(c2)CC(C)[NH+]3C(=O)C2CC2)CC1 (protonated)
Cc1ccccc1N1CCN(S(=O)(=O)c2ccc3c(c2)C[C@@H](C)[N@H+]3C(=O)C2CC2)CC1 (chirality)
Cc1ccccc1N1CCN(S(=O)(=O)c2ccc3c(c2)C[C@@H](C)[N@H+]3C(=O)C2CC2)CC1 (3D coordinates assigned)
Cc1ccccc1N1CCN(S(=O)(=O)c2ccc3c(c2)C[C@@H](C)[N@H+]3C(=O)C2CC2)CC1 (nonaromatic ring conformer: 355.1072922432079 kcal/mol)

>  <smiles>  (3) 
Cc1ccccc1N1CCN(S(=O)(=O)c2ccc3c(c2)CC(C)N3C(=O)C2CC2)CC1

>  <score_type>  (3) 
oracle

>  <origin>  (3) 
adgpu

>  <m_score__min__energy>  (3) 
-10.69

>  <m_primary>  (3) 
energy

$$$$
3:0
     RDKit          3D

 50 52  0  0  0  0  0  0  0  0999 V2000
   -2.0620   18.0940  -34.4390 C   0  0  0  0  0  0  0  0  0  0  0  0
   -1.7180   19.1640  -33.4460 C   0  0  0  0  0  0  0  0  0  0  0  0
   -1.3050   18.8190  -32.1500 C   0  0  0  0  0  0  0  0  0  0  0  0
   -1.0190   19.8160  -31.2120 C   0  0  0  0  0  0  0  0  0  0  0  0
   -1.1500   21.1700  -31.5560 C   0  0  0  0  0  0  0  0  0  0  0  0
   -0.8460   22.2480  -30.5510 C   0  0  0  0  0  0  0  0  0  0  0  0
   -0.9160   21.7150  -29.1880 N   0  0  0  0  0  0  0  0  0  0  0  0
   -2.3200   22.3130  -28.3470 S   0  0  0  0  0  0  0  0  0  0  0  0
   -3.0880   21.1550  -27.7720 O   0  0  0  0  0  0  0  0  0  0  0  0
   -1.8600   23.2070  -27.2310 O   0  0  0  0  0  0  0  0  0  0  0  0
   -3.3630   23.2460  -29.4370 C   0  0  0  0  0  0  0  0  0  0  0  0
   -4.4130   22.5920  -30.0950 C   0  0  0  0  0  0  0  0  0  0  0  0
   -5.3080   23.3020  -30.9070 C   0  0  0  0  0  0  0  0  0  0  0  0
   -6.4460   22.6210  -31.5710 C   0  0  0  0  0  0  0  0  0  0  0  0
   -7.5590   23.2110  -31.6350 O   0  0  0  0  0  0  0  0  0  0  0  0
   -6.3160   21.2680  -32.1650 C   0  0  0  0  0  0  0  0  0  0  0  0
   -7.3570   20.3270  -32.0580 C   0  0  0  0  0  0  0  0  0  0  0  0
   -7.2210   19.0530  -32.6130 C   0  0  0  0  0  0  0  0  0  0  0  0
   -6.0480   18.7020  -33.2930 C   0  0  0  0  0  0  0  0  0  0  0  0
   -5.8840   17.0990  -34.0010 S   0  0  0  0  0  0  0  0  0  0  0  0
   -4.9220   16.0700  -32.9160 C   0  0  0  0  0  0  0  0  0  0  0  0
   -7.2420   16.4860  -34.2020 O   0  0  0  0  0  0  0  0  0  0  0  0
   -5.1990   17.2000  -35.3360 O   0  0  0  0  0  0  0  0  0  0  0  0
   -5.0200   19.6440  -33.4320 C   0  0  0  0  0  0  0  0  0  0  0  0
   -5.1540   20.9190  -32.8740 C   0  0  0  0  0  0  0  0  0  0  0  0
   -5.0890   24.6710  -31.1000 C   0  0  0  0  0  0  0  0  0  0  0  0
   -4.0450   25.2890  -30.4890 N   0  0  0  0  0  0  0  0  0  0  0  0
   -3.1810   24.6310  -29.6710 C   0  0  0  0  0  0  0  0  0  0  0  0
   -2.2050   25.3020  -29.1430 N   0  0  0  0  0  0  0  0  0  0  0  0
   -1.5860   21.5140  -32.8450 C   0  0  0  0  0  0  0  0  0  0  0  0
   -1.8720   20.5170  -33.7830 C   0  0  0  0  0  0  0  0  0  0  0  0
   -2.3563   17.1787  -33.9046 H   0  0  0  0  0  0  0  0  0  0  0  0
   -2.8961   18.4341  -35.0704 H   0  0  0  0  0  0  0  0  0  0  0  0
   -1.1860   17.8844  -35.0704 H   0  0  0  0  0  0  0  0  0  0  0  0
   -1.2058   17.7597  -31.8707 H   0  0  0  0  0  0  0  0  0  0  0  0
   -0.6899   19.5375  -30.2000 H   0  0  0  0  0  0  0  0  0  0  0  0
    0.1655   22.6393  -30.7349 H   0  0  0  0  0  0  0  0  0  0  0  0
   -1.5893   23.0520  -30.6566 H   0  0  0  0  0  0  0  0  0  0  0  0
   -4.5367   21.5059  -29.9726 H   0  0  0  0  0  0  0  0  0  0  0  0
   -8.2851   20.5973  -31.5330 H   0  0  0  0  0  0  0  0  0  0  0  0
   -8.0378   18.3226  -32.5158 H   0  0  0  0  0  0  0  0  0  0  0  0
   -5.1558   16.3201  -31.8706 H   0  0  0  0  0  0  0  0  0  0  0  0
   -5.1636   15.0133  -33.1031 H   0  0  0  0  0  0  0  0  0  0  0  0
   -3.8514   16.2400  -33.1031 H   0  0  0  0  0  0  0  0  0  0  0  0
   -4.1047   19.3796  -33.9818 H   0  0  0  0  0  0  0  0  0  0  0  0
   -4.3441   21.6541  -32.9908 H   0  0  0  0  0  0  0  0  0  0  0  0
   -5.7645   25.2482  -31.7485 H   0  0  0  0  0  0  0  0  0  0  0  0
   -1.4750   24.8970  -28.5170 H   0  0  0  0  0  0  0  0  0  0  0  0
   -1.7033   22.5729  -33.1187 H   0  0  0  0  0  0  0  0  0  0  0  0
   -2.2191   20.7948  -34.7891 H   0  0  0  0  0  0  0  0  0  0  0  0
  1  2  1  0
  2  3  2  0
  3  4  1  0
  4  5  2  0
  5  6  1  0
  6  7  1  0
  7  8  1  0
  8  9  2  0
  8 10  2  0
  8 11  1  0
 11 12  2  0
 12 13  1  0
 13 14  1  0
 14 15  2  0
 14 16  1  0
 16 17  2  0
 17 18  1  0
 18 19  2  0
 19 20  1  0
 20 21  1  0
 20 22  2  0
 20 23  2  0
 19 24  1  0
 24 25  2  0
 13 26  2  0
 26 27  1  0
 27 28  1  0
 28 29  2  3
  5 30  1  0
 30 31  2  0
 31  2  1  0
 28 11  1  0
 25 16  1  0
  1 32  1  0
  1 33  1  0
  1 34  1  0
  3 35  1  0
  4 36  1  0
  6 37  1  0
  6 38  1  0
 12 39  1  0
 17 40  1  0
 18 41  1  0
 21 42  1  0
 21 43  1  0
 21 44  1  0
 24 45  1  0
 25 46  1  0
 26 47  1  0
 29 48  1  0
 30 49  1  0
 31 50  1  0
M  CHG  2   7  -1  27  -1
M  END
>  <UniqueID>  (4) 
4

>  <SMILES>  (4) 
Cc1ccc(C[N-]S(=O)(=O)c2cc(C(=O)c3ccc(S(C)(=O)=O)cc3)c[n-]c2=N)cc1

>  <Energy>  (4) 
57.17814402776304

>  <Genealogy>  (4) 
Cc1ccc(C[N-]S(=O)(=O)c2cc(C(=O)c3ccc(S(C)(=O)=O)cc3)c[n-]c2=N)cc1 (protonated)
Cc1ccc(C[N-]S(=O)(=O)c2cc(C(=O)c3ccc(S(C)(=O)=O)cc3)c[n-]c2=N)cc1 (3D coordinates assigned)
Cc1ccc(C[N-]S(=O)(=O)c2cc(C(=O)c3ccc(S(C)(=O)=O)cc3)c[n-]c2=N)cc1 (optimized conformer: 57.17814402776304 kcal/mol)

>  <smiles>  (4) 
Cc1ccc(CNS(=O)(=O)c2cc(C(=O)c3ccc(S(C)(=O)=O)cc3)c[nH]c2=N)cc1

>  <score_type>  (4) 
oracle

>  <origin>  (4) 
adgpu

>  <m_score__min__energy>  (4) 
-12.01

>  <m_primary>  (4) 
energy

$$$$
4:0
     RDKit          3D

 76 80  0  0  0  0  0  0  0  0999 V2000
   -3.2680   22.0770  -31.5910 O   0  0  0  0  0  0  0  0  0  0  0  0
   -2.2510   21.3380  -31.4740 C   0  0  0  0  0  0  0  0  0  0  0  0
   -1.7150   21.0810  -30.1660 N   0  0  0  0  0  0  0  0  0  0  0  0
   -1.7000   22.0560  -29.1080 C   0  0  0  0  0  0  0  0  0  0  0  0
   -1.4950   21.6850  -27.7660 C   0  0  0  0  0  0  0  0  0  0  0  0
   -1.5070   22.6490  -26.7550 C   0  0  0  0  0  0  0  0  0  0  0  0
   -1.7460   23.9940  -27.0630 C   0  0  0  0  0  0  0  0  0  0  0  0
   -1.7780   25.2050  -25.7780 S   0  0  0  0  0  0  0  0  0  0  0  0
   -3.2040   25.6020  -25.5140 O   0  0  0  0  0  0  0  0  0  0  0  0
   -1.2210   24.6060  -24.5160 O   0  0  0  0  0  0  0  0  0  0  0  0
   -0.8490   26.6220  -26.2020 N   0  0  0  0  0  0  0  0  0  0  0  0
   -1.2210   27.7550  -25.3300 C   0  0  0  0  0  0  0  0  0  0  0  0
   -0.2480   28.9490  -25.4690 C   0  0  0  0  0  0  0  0  0  0  0  0
    0.6300   28.8250  -26.7170 C   0  0  0  0  0  0  0  0  0  0  0  0
    1.4080   27.4980  -26.7160 C   0  0  0  0  0  0  0  0  0  0  0  0
    0.5930   26.3390  -26.1110 C   0  0  0  0  0  0  0  0  0  0  0  0
   -1.9690   24.3670  -28.3960 C   0  0  0  0  0  0  0  0  0  0  0  0
   -1.9480   23.4050  -29.4110 C   0  0  0  0  0  0  0  0  0  0  0  0
   -1.6450   20.7270  -32.6880 C   0  0  0  0  0  0  0  0  0  0  0  0
   -0.4580   21.2540  -33.2260 C   0  0  0  0  0  0  0  0  0  0  0  0
    0.1580   20.6430  -34.3200 C   0  0  0  0  0  0  0  0  0  0  0  0
   -0.4020   19.5010  -34.8960 C   0  0  0  0  0  0  0  0  0  0  0  0
    0.2250   18.8990  -35.9820 O   0  0  0  0  0  0  0  0  0  0  0  0
   -1.5960   18.9720  -34.3900 C   0  0  0  0  0  0  0  0  0  0  0  0
   -2.1400   17.7840  -34.9770 N   0  0  0  0  0  0  0  0  0  0  0  0
   -3.1120   16.6500  -34.0970 S   0  0  0  0  0  0  0  0  0  0  0  0
   -3.5280   15.5420  -35.0240 O   0  0  0  0  0  0  0  0  0  0  0  0
   -2.3380   16.0480  -32.9580 O   0  0  0  0  0  0  0  0  0  0  0  0
   -4.5400   17.4850  -33.4990 C   0  0  0  0  0  0  0  0  0  0  0  0
   -5.1040   18.5340  -34.2390 C   0  0  0  0  0  0  0  0  0  0  0  0
   -6.2850   19.1440  -33.8050 C   0  0  0  0  0  0  0  0  0  0  0  0
   -6.9150   18.7080  -32.6300 C   0  0  0  0  0  0  0  0  0  0  0  0
   -8.4350   19.4430  -32.1280 S   0  0  0  0  0  0  0  0  0  0  0  0
   -9.3260   18.3690  -31.5680 O   0  0  0  0  0  0  0  0  0  0  0  0
   -9.1150   20.0650  -33.3150 O   0  0  0  0  0  0  0  0  0  0  0  0
   -8.1170   20.6570  -30.9080 N   0  0  0  0  0  0  0  0  0  0  0  0
   -6.7510   21.2290  -31.0280 C   0  0  0  0  0  0  0  0  0  0  0  0
   -6.7250   22.7470  -31.2620 C   0  0  0  0  0  0  0  0  0  0  0  0
   -7.7330   23.1270  -32.3430 C   0  0  0  0  0  0  0  0  0  0  0  0
   -9.1610   22.6890  -31.9720 C   0  0  0  0  0  0  0  0  0  0  0  0
   -9.2040   21.6530  -30.8310 C   0  0  0  0  0  0  0  0  0  0  0  0
   -6.3500   17.6580  -31.8920 C   0  0  0  0  0  0  0  0  0  0  0  0
   -5.1700   17.0470  -32.3270 C   0  0  0  0  0  0  0  0  0  0  0  0
   -2.2080   19.5790  -33.2800 C   0  0  0  0  0  0  0  0  0  0  0  0
   -1.3850   20.1140  -29.9530 H   0  0  0  0  0  0  0  0  0  0  0  0
   -1.3241   20.6286  -27.5114 H   0  0  0  0  0  0  0  0  0  0  0  0
   -1.3278   22.3500  -25.7117 H   0  0  0  0  0  0  0  0  0  0  0  0
   -2.2333   28.0908  -25.5994 H   0  0  0  0  0  0  0  0  0  0  0  0
   -1.1768   27.4054  -24.2880 H   0  0  0  0  0  0  0  0  0  0  0  0
   -0.8324   29.8785  -25.5358 H   0  0  0  0  0  0  0  0  0  0  0  0
    0.4101   28.9580  -24.5876 H   0  0  0  0  0  0  0  0  0  0  0  0
   -0.0089   28.8664  -27.6115 H   0  0  0  0  0  0  0  0  0  0  0  0
    1.3528   29.6542  -26.7200 H   0  0  0  0  0  0  0  0  0  0  0  0
    1.6702   27.2416  -27.7531 H   0  0  0  0  0  0  0  0  0  0  0  0
    2.3056   27.6363  -26.0953 H   0  0  0  0  0  0  0  0  0  0  0  0
    0.8159   25.4132  -26.6617 H   0  0  0  0  0  0  0  0  0  0  0  0
    0.8677   26.2249  -25.0520 H   0  0  0  0  0  0  0  0  0  0  0  0
   -2.1614   25.4211  -28.6447 H   0  0  0  0  0  0  0  0  0  0  0  0
   -2.1269   23.7068  -30.4535 H   0  0  0  0  0  0  0  0  0  0  0  0
   -0.0107   22.1553  -32.7814 H   0  0  0  0  0  0  0  0  0  0  0  0
    1.0884   21.0631  -34.7298 H   0  0  0  0  0  0  0  0  0  0  0  0
   -4.6163   18.8779  -35.1631 H   0  0  0  0  0  0  0  0  0  0  0  0
   -6.7217   19.9689  -34.3872 H   0  0  0  0  0  0  0  0  0  0  0  0
   -6.2033   21.0133  -30.0987 H   0  0  0  0  0  0  0  0  0  0  0  0
   -6.2889   20.7640  -31.9113 H   0  0  0  0  0  0  0  0  0  0  0  0
   -6.9827   23.2641  -30.3260 H   0  0  0  0  0  0  0  0  0  0  0  0
   -5.7174   23.0444  -31.5880 H   0  0  0  0  0  0  0  0  0  0  0  0
   -7.7185   24.2189  -32.4754 H   0  0  0  0  0  0  0  0  0  0  0  0
   -7.4480   22.6123  -33.2725 H   0  0  0  0  0  0  0  0  0  0  0  0
   -9.7284   23.5776  -31.6583 H   0  0  0  0  0  0  0  0  0  0  0  0
   -9.5970   22.2118  -32.8620 H   0  0  0  0  0  0  0  0  0  0  0  0
   -9.1227   22.1857  -29.8720 H   0  0  0  0  0  0  0  0  0  0  0  0
  -10.1546   21.1068  -30.9213 H   0  0  0  0  0  0  0  0  0  0  0  0
   -6.8368   17.3138  -30.9676 H   0  0  0  0  0  0  0  0  0  0  0  0
   -4.7350   16.2197  -31.7471 H   0  0  0  0  0  0  0  0  0  0  0  0
   -3.1356   19.1537  -32.8693 H   0  0  0  0  0  0  0  0  0  0  0  0
  1  2  2  0
  2  3  1  0
  3  4  1  0
  4  5  2  0
  5  6  1  0
  6  7  2  0
  7  8  1  0
  8  9  2  0
  8 10  2  0
  8 11  1  0
 11 12  1  0
 12 13  1  0
 13 14  1  0
 14 15  1  0
 15 16  1  0
  7 17  1  0
 17 18  2  0
  2 19  1  0
 19 20  2  0
 20 21  1  0
 21 22  2  0
 22 23  1  0
 22 24  1  0
 24 25  1  0
 25 26  1  0
 26 27  2  0
 26 28  2  0
 26 29  1  0
 29 30  2  0
 30 31  1  0
 31 32  2  0
 32 33  1  0
 33 34  2  0
 33 35  2  0
 33 36  1  0
 36 37  1  0
 37 38  1  0
 38 39  1  0
 39 40  1  0
 40 41  1  0
 32 42  1  0
 42 43  2  0
 24 44  2  0
 18  4  1  0
 44 19  1  0
 16 11  1  0
 43 29  1  0
 41 36  1  0
  3 45  1  0
  5 46  1  0
  6 47  1  0
 12 48  1  0
 12 49  1  0
 13 50  1  0
 13 51  1  0
 14 52  1  0
 14 53  1  0
 15 54  1  0
 15 55  1  0
 16 56  1  0
 16 57  1  0
 17 58  1  0
 18 59  1  0
 20 60  1  0
 21 61  1  0
 30 62  1  0
 31 63  1  0
 37 64  1  0
 37 65  1  0
 38 66  1  0
 38 67  1  0
 39 68  1  0
 39 69  1  0
 40 70  1  0
 40 71  1  0
 41 72  1  0
 41 73  1  0
 42 74  1  0
 43 75  1  0
 44 76  1  0
M  CHG  2  23  -1  25  -1
M  END
>  <UniqueID>  (5) 
5

>  <SMILES>  (5) 
O=C(Nc1ccc(S(=O)(=O)N2CCCCC2)cc1)c1ccc([O-])c([N-]S(=O)(=O)c2ccc(S(=O)(=O)N3CCCCC3)cc2)c1

>  <Energy>  (5) 
102.77621447135553

>  <Genealogy>  (5) 
O=C(Nc1ccc(S(=O)(=O)N2CCCCC2)cc1)c1ccc([O-])c([N-]S(=O)(=O)c2ccc(S(=O)(=O)N3CCCCC3)cc2)c1 (protonated)
O=C(Nc1ccc(S(=O)(=O)N2CCCCC2)cc1)c1ccc([O-])c([N-]S(=O)(=O)c2ccc(S(=O)(=O)N3CCCCC3)cc2)c1 (3D coordinates assigned)
O=C(Nc1ccc(S(=O)(=O)N2CCCCC2)cc1)c1ccc([O-])c([N-]S(=O)(=O)c2ccc(S(=O)(=O)N3CCCCC3)cc2)c1 (nonaromatic ring conformer: 102.77621447135553 kcal/mol)

>  <smiles>  (5) 
O=C(Nc1ccc(S(=O)(=O)N2CCCCC2)cc1)c1ccc(O)c(NS(=O)(=O)c2ccc(S(=O)(=O)N3CCCCC3)cc2)c1

>  <score_type>  (5) 
oracle

>  <origin>  (5) 
adgpu

>  <m_score__min__energy>  (5) 
-15.51

>  <m_primary>  (5) 
energy

$$$$
5:0
     RDKit          3D

 37 40  0  0  0  0  0  0  0  0999 V2000
    0.7860   24.5590  -27.8570 O   0  0  0  0  0  0  0  0  0  0  0  0
   -0.4480   24.3990  -28.0510 C   0  0  0  0  0  0  0  0  0  0  0  0
   -0.8590   23.6280  -29.0890 N   0  0  0  0  0  0  0  0  0  0  0  0
   -2.1770   23.4070  -29.3250 C   0  0  0  0  0  0  0  0  0  0  0  0
   -2.6660   22.4090  -30.7270 S   0  0  0  0  0  0  0  0  0  0  0  0
   -4.1220   23.4140  -31.0290 C   0  0  0  0  0  0  0  0  0  0  0  0
   -4.1970   24.7210  -30.7280 N   0  0  0  0  0  0  0  0  0  0  0  0
   -5.3670   25.1200  -31.2110 N   0  0  0  0  0  0  0  0  0  0  0  0
   -5.9850   24.1050  -31.7970 N   0  0  0  0  0  0  0  0  0  0  0  0
   -5.2310   23.0250  -31.6880 N   0  0  0  0  0  0  0  0  0  0  0  0
   -5.5450   21.7520  -32.2730 C   0  0  0  0  0  0  0  0  0  0  0  0
   -6.8530   21.2400  -32.2320 C   0  0  0  0  0  0  0  0  0  0  0  0
   -7.1410   19.9940  -32.7970 C   0  0  0  0  0  0  0  0  0  0  0  0
   -6.1290   19.2540  -33.4150 C   0  0  0  0  0  0  0  0  0  0  0  0
   -4.8300   19.7640  -33.4750 C   0  0  0  0  0  0  0  0  0  0  0  0
   -4.5390   21.0100  -32.9130 C   0  0  0  0  0  0  0  0  0  0  0  0
   -3.1160   23.9530  -28.5080 N   0  0  0  0  0  0  0  0  0  0  0  0
   -2.7530   24.7320  -27.4550 C   0  0  0  0  0  0  0  0  0  0  0  0
   -1.3980   24.9890  -27.1970 C   0  0  0  0  0  0  0  0  0  0  0  0
   -1.0050   25.8550  -26.0570 C   0  0  0  0  0  0  0  0  0  0  0  0
   -0.7800   27.2300  -26.2530 C   0  0  0  0  0  0  0  0  0  0  0  0
   -0.4030   28.0450  -25.1820 C   0  0  0  0  0  0  0  0  0  0  0  0
   -0.2400   27.4970  -23.9080 C   0  0  0  0  0  0  0  0  0  0  0  0
   -0.4520   26.1310  -23.7030 C   0  0  0  0  0  0  0  0  0  0  0  0
   -0.8310   25.3120  -24.7700 C   0  0  0  0  0  0  0  0  0  0  0  0
   -7.6540   21.8223  -31.7531 H   0  0  0  0  0  0  0  0  0  0  0  0
   -8.1654   19.5955  -32.7551 H   0  0  0  0  0  0  0  0  0  0  0  0
   -6.3553   18.2710  -33.8537 H   0  0  0  0  0  0  0  0  0  0  0  0
   -4.0346   19.1838  -33.9655 H   0  0  0  0  0  0  0  0  0  0  0  0
   -3.5167   21.4116  -32.9722 H   0  0  0  0  0  0  0  0  0  0  0  0
   -4.1290   23.7820  -28.6920 H   0  0  0  0  0  0  0  0  0  0  0  0
   -3.5257   25.1633  -26.8016 H   0  0  0  0  0  0  0  0  0  0  0  0
   -0.9016   27.6663  -27.2554 H   0  0  0  0  0  0  0  0  0  0  0  0
   -0.2344   29.1200  -25.3429 H   0  0  0  0  0  0  0  0  0  0  0  0
    0.0552   28.1404  -23.0660 H   0  0  0  0  0  0  0  0  0  0  0  0
   -0.3203   25.6996  -22.6997 H   0  0  0  0  0  0  0  0  0  0  0  0
   -0.9943   24.2370  -24.6032 H   0  0  0  0  0  0  0  0  0  0  0  0
  1  2  2  0
  2  3  1  0
  3  4  2  0
  4  5  1  0
  5  6  1  0
  6  7  2  0
  7  8  1  0
  8  9  2  0
  9 10  1  0
 10 11  1  0
 11 12  2  0
 12 13  1  0
 13 14  2  0
 14 15  1  0
 15 16  2  0
  4 17  1  0
 17 18  1  0
 18 19  2  0
 19 20  1  0
 20 21  2  0
 21 22  1  0
 22 23  2  0
 23 24  1  0
 24 25  2  0
 19  2  1  0
 25 20  1  0
 10  6  1  0
 16 11  1  0
 12 26  1  0
 13 27  1  0
 14 28  1  0
 15 29  1  0
 16 30  1  0
 17 31  1  0
 18 32  1  0
 21 33  1  0
 22 34  1  0
 23 35  1  0
 24 36  1  0
 25 37  1  0
M  END
>  <UniqueID>  (6) 
6

>  <SMILES>  (6) 
O=c1nc(Sc2nnnn2-c2ccccc2)[nH]cc1-c1ccccc1

>  <Energy>  (6) 
89.33235955624788

>  <Genealogy>  (6) 
O=c1nc(Sc2nnnn2-c2ccccc2)[nH]cc1-c1ccccc1 (3D coordinates assigned)
O=c1nc(Sc2nnnn2-c2ccccc2)[nH]cc1-c1ccccc1 (optimized conformer: 89.33235955624788 kcal/mol)

>  <smiles>  (6) 
O=c1nc(Sc2nnnn2-c2ccccc2)[nH]cc1-c1ccccc1

>  <score_type>  (6) 
oracle

>  <origin>  (6) 
adgpu

>  <m_score__min__energy>  (6) 
-9.6500000000000004

>  <m_primary>  (6) 
energy

$$$$
6:0
     RDKit          3D

 60 64  0  0  0  0  0  0  0  0999 V2000
   -1.1930   21.9600  -25.9620 O   0  0  0  0  0  0  0  0  0  0  0  0
   -1.6080   21.6590  -27.1120 C   0  0  0  0  0  0  0  0  0  0  0  0
   -1.5240   20.2900  -27.5360 N   0  0  0  0  0  0  0  0  0  0  0  0
   -0.7130   19.7880  -28.6080 C   0  0  0  0  0  0  0  0  0  0  0  0
    0.3470   18.8920  -28.3750 C   0  0  0  0  0  0  0  0  0  0  0  0
    1.0470   18.3390  -29.4530 C   0  0  0  0  0  0  0  0  0  0  0  0
    0.6880   18.6630  -30.7640 C   0  0  0  0  0  0  0  0  0  0  0  0
   -0.3520   19.5700  -31.0050 C   0  0  0  0  0  0  0  0  0  0  0  0
   -0.8130   20.0210  -32.6430 S   0  0  0  0  0  0  0  0  0  0  0  0
   -0.1520   19.0510  -33.5820 O   0  0  0  0  0  0  0  0  0  0  0  0
   -0.3150   21.4000  -32.9720 O   0  0  0  0  0  0  0  0  0  0  0  0
   -2.5660   19.9420  -32.7610 N   0  0  0  0  0  0  0  0  0  0  0  0
   -2.9860   19.5710  -34.1270 C   0  0  0  0  0  0  0  0  0  0  0  0
   -3.9700   18.4300  -34.0790 C   0  0  0  0  0  0  0  0  0  0  0  0
   -3.6110   17.2190  -33.4640 C   0  0  0  0  0  0  0  0  0  0  0  0
   -4.5260   16.1650  -33.3960 C   0  0  0  0  0  0  0  0  0  0  0  0
   -5.8050   16.3100  -33.9430 C   0  0  0  0  0  0  0  0  0  0  0  0
   -6.6890   15.2840  -33.8740 F   0  0  0  0  0  0  0  0  0  0  0  0
   -6.1690   17.5120  -34.5600 C   0  0  0  0  0  0  0  0  0  0  0  0
   -5.2570   18.5680  -34.6280 C   0  0  0  0  0  0  0  0  0  0  0  0
   -3.1850   21.2150  -32.3390 C   0  0  0  0  0  0  0  0  0  0  0  0
   -4.6610   21.0500  -32.1650 C   0  0  0  0  0  0  0  0  0  0  0  0
   -5.1710   19.8310  -31.8430 N   0  0  0  0  0  0  0  0  0  0  0  0
   -6.5030   19.6490  -31.6550 C   0  0  0  0  0  0  0  0  0  0  0  0
   -6.9340   18.4960  -31.3840 O   0  0  0  0  0  0  0  0  0  0  0  0
   -7.3780   20.7430  -31.7660 C   0  0  0  0  0  0  0  0  0  0  0  0
   -8.7640   20.6290  -31.5490 C   0  0  0  0  0  0  0  0  0  0  0  0
   -9.5820   21.7580  -31.6530 C   0  0  0  0  0  0  0  0  0  0  0  0
   -9.0320   23.0000  -31.9860 C   0  0  0  0  0  0  0  0  0  0  0  0
   -7.6580   23.1190  -32.2160 C   0  0  0  0  0  0  0  0  0  0  0  0
   -6.8280   21.9980  -32.1030 C   0  0  0  0  0  0  0  0  0  0  0  0
   -5.4890   22.1190  -32.2980 N   0  0  0  0  0  0  0  0  0  0  0  0
   -1.0520   20.1230  -29.9240 C   0  0  0  0  0  0  0  0  0  0  0  0
   -2.1930   22.7110  -27.9720 C   0  0  0  0  0  0  0  0  0  0  0  0
   -3.4340   22.4930  -28.6040 C   0  0  0  0  0  0  0  0  0  0  0  0
   -3.9910   23.4750  -29.4340 C   0  0  0  0  0  0  0  0  0  0  0  0
   -3.2990   24.6650  -29.6700 C   0  0  0  0  0  0  0  0  0  0  0  0
   -3.8440   25.6210  -30.5170 O   0  0  0  0  0  0  0  0  0  0  0  0
   -2.0530   24.8800  -29.0680 C   0  0  0  0  0  0  0  0  0  0  0  0
   -1.3440   26.0440  -29.3380 O   0  0  0  0  0  0  0  0  0  0  0  0
   -1.5060   23.9170  -28.2120 C   0  0  0  0  0  0  0  0  0  0  0  0
    0.6254   18.6262  -27.3446 H   0  0  0  0  0  0  0  0  0  0  0  0
    1.8821   17.6474  -29.2679 H   0  0  0  0  0  0  0  0  0  0  0  0
    1.2233   18.2048  -31.6087 H   0  0  0  0  0  0  0  0  0  0  0  0
   -3.4595   20.4387  -34.6095 H   0  0  0  0  0  0  0  0  0  0  0  0
   -2.1016   19.2574  -34.7010 H   0  0  0  0  0  0  0  0  0  0  0  0
   -2.6055   17.1000  -33.0342 H   0  0  0  0  0  0  0  0  0  0  0  0
   -4.2399   15.2198  -32.9115 H   0  0  0  0  0  0  0  0  0  0  0  0
   -7.1743   17.6255  -34.9919 H   0  0  0  0  0  0  0  0  0  0  0  0
   -5.5471   19.5116  -35.1132 H   0  0  0  0  0  0  0  0  0  0  0  0
   -2.7417   21.5335  -31.3840 H   0  0  0  0  0  0  0  0  0  0  0  0
   -3.0018   21.9729  -33.1149 H   0  0  0  0  0  0  0  0  0  0  0  0
   -9.2033   19.6523  -31.2978 H   0  0  0  0  0  0  0  0  0  0  0  0
  -10.6634   21.6690  -31.4720 H   0  0  0  0  0  0  0  0  0  0  0  0
   -9.6812   23.8843  -32.0671 H   0  0  0  0  0  0  0  0  0  0  0  0
   -7.2289   24.0951  -32.4861 H   0  0  0  0  0  0  0  0  0  0  0  0
   -1.8759   20.8272  -30.1117 H   0  0  0  0  0  0  0  0  0  0  0  0
   -3.9690   21.5452  -28.4445 H   0  0  0  0  0  0  0  0  0  0  0  0
   -4.9735   23.3086  -29.8998 H   0  0  0  0  0  0  0  0  0  0  0  0
   -0.5371   24.1025  -27.7254 H   0  0  0  0  0  0  0  0  0  0  0  0
  1  2  2  0
  2  3  1  0
  3  4  1  0
  4  5  2  0
  5  6  1  0
  6  7  2  0
  7  8  1  0
  8  9  1  0
  9 10  2  0
  9 11  2  0
  9 12  1  0
 12 13  1  0
 13 14  1  0
 14 15  2  0
 15 16  1  0
 16 17  2  0
 17 18  1  0
 17 19  1  0
 19 20  2  0
 12 21  1  0
 21 22  1  0
 22 23  2  0
 23 24  1  0
 24 25  2  0
 24 26  1  0
 26 27  2  0
 27 28  1  0
 28 29  2  0
 29 30  1  0
 30 31  2  0
 31 32  1  0
  8 33  2  0
  2 34  1  0
 34 35  2  0
 35 36  1  0
 36 37  2  0
 37 38  1  0
 37 39  1  0
 39 40  1  0
 39 41  2  0
 33  4  1  0
 41 34  1  0
 20 14  1  0
 32 22  1  0
 31 26  1  0
  5 42  1  0
  6 43  1  0
  7 44  1  0
 13 45  1  0
 13 46  1  0
 15 47  1  0
 16 48  1  0
 19 49  1  0
 20 50  1  0
 21 51  1  0
 21 52  1  0
 27 53  1  0
 28 54  1  0
 29 55  1  0
 30 56  1  0
 33 57  1  0
 35 58  1  0
 36 59  1  0
 41 60  1  0
M  CHG  4   3  -1  32  -1  38  -1  40  -1
M  END
>  <UniqueID>  (7) 
7

>  <SMILES>  (7) 
O=C([N-]c1cccc(S(=O)(=O)N(Cc2ccc(F)cc2)Cc2nc(=O)c3ccccc3[n-]2)c1)c1ccc([O-])c([O-])c1

>  <Energy>  (7) 
75.8182786704742

>  <Genealogy>  (7) 
O=C([N-]c1cccc(S(=O)(=O)N(Cc2ccc(F)cc2)Cc2nc(=O)c3ccccc3[n-]2)c1)c1ccc([O-])c([O-])c1 (protonated)
O=C([N-]c1cccc(S(=O)(=O)N(Cc2ccc(F)cc2)Cc2nc(=O)c3ccccc3[n-]2)c1)c1ccc([O-])c([O-])c1 (3D coordinates assigned)
O=C([N-]c1cccc(S(=O)(=O)N(Cc2ccc(F)cc2)Cc2nc(=O)c3ccccc3[n-]2)c1)c1ccc([O-])c([O-])c1 (optimized conformer: 75.8182786704742 kcal/mol)

>  <smiles>  (7) 
O=C(Nc1cccc(S(=O)(=O)N(Cc2ccc(F)cc2)Cc2nc(=O)c3ccccc3[nH]2)c1)c1ccc(O)c(O)c1

>  <score_type>  (7) 
oracle

>  <origin>  (7) 
adgpu

>  <m_score__min__energy>  (7) 
-17.440000000000001

>  <m_primary>  (7) 
energy

$$$$
7:0
     RDKit          3D

 43 45  0  0  0  0  0  0  0  0999 V2000
   -4.2381   21.1267  -32.0220 H   0  0  0  0  0  0  0  0  0  0  0  0
   -5.2560   20.7750  -32.2460 C   0  0  0  0  0  0  0  0  0  0  0  0
   -5.4390   19.5610  -32.8300 N   0  0  0  0  0  0  0  0  0  0  0  0
   -6.6780   19.0840  -33.1370 C   0  0  0  0  0  0  0  0  0  0  0  0
   -6.8350   17.9090  -33.6770 N   0  0  0  0  0  0  0  0  0  0  0  0
   -5.7980   17.0100  -34.1050 C   0  0  0  0  0  0  0  0  0  0  0  0
   -4.7310   17.4360  -34.9190 C   0  0  0  0  0  0  0  0  0  0  0  0
   -4.6616   18.4903  -35.2251 H   0  0  0  0  0  0  0  0  0  0  0  0
   -3.7600   16.5230  -35.3390 C   0  0  0  0  0  0  0  0  0  0  0  0
   -2.9199   16.8637  -35.9620 H   0  0  0  0  0  0  0  0  0  0  0  0
   -3.8530   15.1790  -34.9700 C   0  0  0  0  0  0  0  0  0  0  0  0
   -3.0807   14.4660  -35.2943 H   0  0  0  0  0  0  0  0  0  0  0  0
   -4.9290   14.7370  -34.1870 C   0  0  0  0  0  0  0  0  0  0  0  0
   -5.0520   13.0370  -33.7260 S   0  0  0  0  0  0  0  0  0  0  0  0
   -3.7380   12.3570  -33.9890 O   0  0  0  0  0  0  0  0  0  0  0  0
   -5.3350   12.9440  -32.2520 O   0  0  0  0  0  0  0  0  0  0  0  0
   -6.3170   12.2210  -34.6120 N   0  0  0  0  0  0  0  0  0  0  0  0
   -5.8920   12.0050  -36.0010 C   0  0  0  0  0  0  0  0  0  0  0  0
   -4.9114   11.5066  -36.0111 H   0  0  0  0  0  0  0  0  0  0  0  0
   -6.6300   11.3726  -36.5161 H   0  0  0  0  0  0  0  0  0  0  0  0
   -5.8162   12.9740  -36.5161 H   0  0  0  0  0  0  0  0  0  0  0  0
   -7.5460   13.0230  -34.5770 C   0  0  0  0  0  0  0  0  0  0  0  0
   -7.8323   13.2098  -33.5315 H   0  0  0  0  0  0  0  0  0  0  0  0
   -7.3725   13.9822  -35.0867 H   0  0  0  0  0  0  0  0  0  0  0  0
   -8.3542   12.4779  -35.0867 H   0  0  0  0  0  0  0  0  0  0  0  0
   -5.9030   15.6540  -33.7680 C   0  0  0  0  0  0  0  0  0  0  0  0
   -6.7575   15.3059  -33.1692 H   0  0  0  0  0  0  0  0  0  0  0  0
   -7.8050   19.8500  -32.8270 C   0  0  0  0  0  0  0  0  0  0  0  0
   -8.8119   19.4707  -33.0557 H   0  0  0  0  0  0  0  0  0  0  0  0
   -7.6450   21.1000  -32.2250 C   0  0  0  0  0  0  0  0  0  0  0  0
   -8.5288   21.7086  -31.9833 H   0  0  0  0  0  0  0  0  0  0  0  0
   -6.3610   21.5830  -31.9270 C   0  0  0  0  0  0  0  0  0  0  0  0
   -6.1750   22.9110  -31.2870 C   0  0  0  0  0  0  0  0  0  0  0  0
   -7.2770   23.6130  -30.7630 C   0  0  0  0  0  0  0  0  0  0  0  0
   -8.2844   23.1760  -30.8277 H   0  0  0  0  0  0  0  0  0  0  0  0
   -7.0990   24.8620  -30.1610 C   0  0  0  0  0  0  0  0  0  0  0  0
   -7.9660   25.4036  -29.7547 H   0  0  0  0  0  0  0  0  0  0  0  0
   -5.8240   25.4240  -30.0740 C   0  0  0  0  0  0  0  0  0  0  0  0
   -5.6875   26.4069  -29.5993 H   0  0  0  0  0  0  0  0  0  0  0  0
   -4.7210   24.7380  -30.5900 C   0  0  0  0  0  0  0  0  0  0  0  0
   -3.4530   25.2990  -30.5070 O   0  0  0  0  0  0  0  0  0  0  0  0
   -4.8940   23.4870  -31.1930 C   0  0  0  0  0  0  0  0  0  0  0  0
   -4.0228   22.9500  -31.5964 H   0  0  0  0  0  0  0  0  0  0  0  0
  1  2  1  0
  2  3  1  0
  3  4  1  0
  4  5  2  0
  5  6  1  0
  6  7  2  0
  7  8  1  0
  7  9  1  0
  9 10  1  0
  9 11  2  0
 11 12  1  0
 11 13  1  0
 13 14  1  0
 14 15  2  0
 14 16  2  0
 14 17  1  0
 17 18  1  0
 18 19  1  0
 18 20  1  0
 18 21  1  0
 17 22  1  0
 22 23  1  0
 22 24  1  0
 22 25  1  0
 13 26  2  0
 26 27  1  0
  4 28  1  0
 28 29  1  0
 28 30  2  0
 30 31  1  0
 30 32  1  0
 32 33  1  0
 33 34  2  0
 34 35  1  0
 34 36  1  0
 36 37  1  0
 36 38  2  0
 38 39  1  0
 38 40  1  0
 40 41  1  0
 40 42  2  0
 42 43  1  0
 32  2  2  0
 42 33  1  0
 26  6  1  0
M  CHG  2   3  -1  41  -1
M  END
>  <UniqueID>  (8) 
8

>  <SMILES>  (8) 
CN(C)S(=O)(=O)c1cccc(/N=c2/ccc(-c3cccc([O-])c3)c[n-]2)c1

>  <Energy>  (8) 
55.464071701757575

>  <Genealogy>  (8) 
CN(C)S(=O)(=O)c1cccc(N=c2ccc(-c3cccc([O-])c3)c[n-]2)c1 (protonated)
CN(C)S(=O)(=O)c1cccc(/N=c2/ccc(-c3cccc([O-])c3)c[n-]2)c1 (cis-trans isomerization)
CN(C)S(=O)(=O)c1cccc(/N=c2/ccc(-c3cccc([O-])c3)c[n-]2)c1 (3D coordinates assigned)
CN(C)S(=O)(=O)c1cccc(/N=c2/ccc(-c3cccc([O-])c3)c[n-]2)c1 (optimized conformer: 55.464071701757575 kcal/mol)

>  <smiles>  (8) 
CN(C)S(=O)(=O)c1cccc(N=c2ccc(-c3cccc(O)c3)c[nH]2)c1

>  <score_type>  (8) 
oracle

>  <origin>  (8) 
adgpu

>  <m_score__min__energy>  (8) 
-11.06

>  <m_primary>  (8) 
energy

$$$$
8:0
     RDKit          3D

 53 56  0  0  0  0  0  0  0  0999 V2000
    2.5670   17.2740  -30.5730 C   0  0  0  0  0  0  0  0  0  0  0  0
    1.0540   17.0160  -29.6720 S   0  0  0  0  0  0  0  0  0  0  0  0
    0.9060   15.5410  -29.4190 O   0  0  0  0  0  0  0  0  0  0  0  0
   -0.1000   17.4830  -30.5130 O   0  0  0  0  0  0  0  0  0  0  0  0
    1.1140   17.8670  -28.1410 N   0  0  0  0  0  0  0  0  0  0  0  0
    1.5780   19.2650  -28.2700 C   0  0  0  0  0  0  0  0  0  0  0  0
    0.4840   20.2210  -28.7680 C   0  0  0  0  0  0  0  0  0  0  0  0
   -0.7360   20.0250  -27.9830 N   0  0  0  0  0  0  0  0  0  0  0  0
   -1.2460   21.0670  -27.1280 C   0  0  0  0  0  0  0  0  0  0  0  0
   -1.6000   20.7820  -25.9510 O   0  0  0  0  0  0  0  0  0  0  0  0
   -1.3590   22.4680  -27.5990 C   0  0  0  0  0  0  0  0  0  0  0  0
   -0.6220   23.4940  -26.9870 C   0  0  0  0  0  0  0  0  0  0  0  0
   -0.7290   24.8090  -27.4430 C   0  0  0  0  0  0  0  0  0  0  0  0
   -1.5650   25.1210  -28.5190 C   0  0  0  0  0  0  0  0  0  0  0  0
   -1.6050   26.4350  -28.9660 O   0  0  0  0  0  0  0  0  0  0  0  0
   -2.3210   24.1030  -29.1410 C   0  0  0  0  0  0  0  0  0  0  0  0
   -3.2090   24.3430  -30.2430 N   0  0  0  0  0  0  0  0  0  0  0  0
   -4.8980   24.7340  -30.1540 S   0  0  0  0  0  0  0  0  0  0  0  0
   -5.1640   26.0170  -30.8910 O   0  0  0  0  0  0  0  0  0  0  0  0
   -5.2930   24.8720  -28.7090 O   0  0  0  0  0  0  0  0  0  0  0  0
   -5.8500   23.4370  -30.8840 C   0  0  0  0  0  0  0  0  0  0  0  0
   -7.2290   23.3620  -30.6350 C   0  0  0  0  0  0  0  0  0  0  0  0
   -8.0020   22.3530  -31.2170 C   0  0  0  0  0  0  0  0  0  0  0  0
   -7.4100   21.4030  -32.0500 C   0  0  0  0  0  0  0  0  0  0  0  0
   -6.0320   21.4520  -32.3000 C   0  0  0  0  0  0  0  0  0  0  0  0
   -5.4140   20.5060  -33.1290 C   0  0  0  0  0  0  0  0  0  0  0  0
   -4.0390   20.5760  -33.3580 C   0  0  0  0  0  0  0  0  0  0  0  0
   -3.2920   21.5890  -32.7540 C   0  0  0  0  0  0  0  0  0  0  0  0
   -3.9030   22.5040  -31.9540 N   0  0  0  0  0  0  0  0  0  0  0  0
   -5.2440   22.4700  -31.7120 C   0  0  0  0  0  0  0  0  0  0  0  0
   -2.1890   22.7830  -28.6870 C   0  0  0  0  0  0  0  0  0  0  0  0
   -1.2470   18.6580  -27.8790 C   0  0  0  0  0  0  0  0  0  0  0  0
   -0.1360   17.7380  -27.3640 C   0  0  0  0  0  0  0  0  0  0  0  0
    3.3963   17.4154  -29.8642 H   0  0  0  0  0  0  0  0  0  0  0  0
    2.7709   16.3977  -31.2058 H   0  0  0  0  0  0  0  0  0  0  0  0
    2.4690   18.1684  -31.2058 H   0  0  0  0  0  0  0  0  0  0  0  0
    1.9232   19.6113  -27.2846 H   0  0  0  0  0  0  0  0  0  0  0  0
    2.3856   19.2743  -29.0168 H   0  0  0  0  0  0  0  0  0  0  0  0
    0.8277   21.2600  -28.6567 H   0  0  0  0  0  0  0  0  0  0  0  0
    0.2732   20.0137  -29.8275 H   0  0  0  0  0  0  0  0  0  0  0  0
    0.0438   23.2604  -26.1431 H   0  0  0  0  0  0  0  0  0  0  0  0
   -0.1511   25.6057  -26.9519 H   0  0  0  0  0  0  0  0  0  0  0  0
   -7.7056   24.1031  -29.9765 H   0  0  0  0  0  0  0  0  0  0  0  0
   -9.0828   22.3078  -31.0172 H   0  0  0  0  0  0  0  0  0  0  0  0
   -8.0249   20.6157  -32.5104 H   0  0  0  0  0  0  0  0  0  0  0  0
   -6.0112   19.7102  -33.5981 H   0  0  0  0  0  0  0  0  0  0  0  0
   -3.5475   19.8385  -34.0096 H   0  0  0  0  0  0  0  0  0  0  0  0
   -2.2070   21.6474  -32.9254 H   0  0  0  0  0  0  0  0  0  0  0  0
   -2.7456   21.9798  -29.1921 H   0  0  0  0  0  0  0  0  0  0  0  0
   -2.0958   18.6356  -27.1797 H   0  0  0  0  0  0  0  0  0  0  0  0
   -1.5800   18.3136  -28.8692 H   0  0  0  0  0  0  0  0  0  0  0  0
    0.0737   17.9921  -26.3145 H   0  0  0  0  0  0  0  0  0  0  0  0
   -0.4874   16.7008  -27.4678 H   0  0  0  0  0  0  0  0  0  0  0  0
  1  2  1  0
  2  3  2  0
  2  4  2  0
  2  5  1  0
  5  6  1  0
  6  7  1  0
  7  8  1  0
  8  9  1  0
  9 10  2  0
  9 11  1  0
 11 12  2  0
 12 13  1  0
 13 14  2  0
 14 15  1  0
 14 16  1  0
 16 17  1  0
 17 18  1  0
 18 19  2  0
 18 20  2  0
 18 21  1  0
 21 22  2  0
 22 23  1  0
 23 24  2  0
 24 25  1  0
 25 26  2  0
 26 27  1  0
 27 28  2  0
 28 29  1  0
 29 30  2  0
 16 31  2  0
  8 32  1  0
 32 33  1  0
 33  5  1  0
 31 11  1  0
 30 21  1  0
 30 25  1  0
  1 34  1  0
  1 35  1  0
  1 36  1  0
  6 37  1  0
  6 38  1  0
  7 39  1  0
  7 40  1  0
 12 41  1  0
 13 42  1  0
 22 43  1  0
 23 44  1  0
 24 45  1  0
 26 46  1  0
 27 47  1  0
 28 48  1  0
 31 49  1  0
 32 50  1  0
 32 51  1  0
 33 52  1  0
 33 53  1  0
M  CHG  2  15  -1  17  -1
M  END
>  <UniqueID>  (9) 
9

>  <SMILES>  (9) 
CS(=O)(=O)N1CCN(C(=O)c2ccc([O-])c([N-]S(=O)(=O)c3cccc4cccnc34)c2)CC1

>  <Energy>  (9) 
72.75984255798816

>  <Genealogy>  (9) 
CS(=O)(=O)N1CCN(C(=O)c2ccc([O-])c([N-]S(=O)(=O)c3cccc4cccnc34)c2)CC1 (protonated)
CS(=O)(=O)N1CCN(C(=O)c2ccc([O-])c([N-]S(=O)(=O)c3cccc4cccnc34)c2)CC1 (3D coordinates assigned)
CS(=O)(=O)N1CCN(C(=O)c2ccc([O-])c([N-]S(=O)(=O)c3cccc4cccnc34)c2)CC1 (nonaromatic ring conformer: 72.75984255798816 kcal/mol)

>  <smiles>  (9) 
CS(=O)(=O)N1CCN(C(=O)c2ccc(O)c(NS(=O)(=O)c3cccc4cccnc34)c2)CC1

>  <score_type>  (9) 
oracle

>  <origin>  (9) 
adgpu

>  <m_score__min__energy>  (9) 
-14.06

>  <m_primary>  (9) 
energy

$$$$
9:0
     RDKit          3D

 40 42  0  0  0  0  0  0  0  0999 V2000
   -5.6620   26.1450  -30.8880 O   0  0  0  0  0  0  0  0  0  0  0  0
   -5.2150   24.8660  -30.2390 S   0  0  0  0  0  0  0  0  0  0  0  0
   -5.5180   24.9270  -28.7690 O   0  0  0  0  0  0  0  0  0  0  0  0
   -3.5050   24.6690  -30.4630 N   0  0  0  0  0  0  0  0  0  0  0  0
   -2.6660   24.0460  -29.4740 C   0  0  0  0  0  0  0  0  0  0  0  0
   -2.9160   22.7320  -29.0370 C   0  0  0  0  0  0  0  0  0  0  0  0
   -2.0660   22.1170  -28.1120 C   0  0  0  0  0  0  0  0  0  0  0  0
   -2.3790   20.4710  -27.5930 Cl  0  0  0  0  0  0  0  0  0  0  0  0
   -0.9700   22.8160  -27.6000 C   0  0  0  0  0  0  0  0  0  0  0  0
   -0.7270   24.1290  -28.0060 C   0  0  0  0  0  0  0  0  0  0  0  0
   -1.5690   24.7460  -28.9390 C   0  0  0  0  0  0  0  0  0  0  0  0
   -1.2980   26.0500  -29.3400 O   0  0  0  0  0  0  0  0  0  0  0  0
   -6.0560   23.5190  -30.9990 C   0  0  0  0  0  0  0  0  0  0  0  0
   -5.3130   22.4540  -31.5250 C   0  0  0  0  0  0  0  0  0  0  0  0
   -5.9610   21.3120  -32.0000 C   0  0  0  0  0  0  0  0  0  0  0  0
   -7.3580   21.2260  -31.9570 C   0  0  0  0  0  0  0  0  0  0  0  0
   -8.1490   19.7200  -32.4120 S   0  0  0  0  0  0  0  0  0  0  0  0
   -8.7810   19.0720  -31.2120 O   0  0  0  0  0  0  0  0  0  0  0  0
   -9.2200   20.0280  -33.4210 O   0  0  0  0  0  0  0  0  0  0  0  0
   -6.9520   18.6270  -33.1020 C   0  0  0  0  0  0  0  0  0  0  0  0
   -6.7530   17.3560  -32.5400 C   0  0  0  0  0  0  0  0  0  0  0  0
   -5.7930   16.4930  -33.0770 C   0  0  0  0  0  0  0  0  0  0  0  0
   -5.0340   16.8900  -34.1810 C   0  0  0  0  0  0  0  0  0  0  0  0
   -5.2350   18.1520  -34.7500 C   0  0  0  0  0  0  0  0  0  0  0  0
   -6.1910   19.0190  -34.2130 C   0  0  0  0  0  0  0  0  0  0  0  0
   -8.1040   22.3030  -31.4590 C   0  0  0  0  0  0  0  0  0  0  0  0
   -7.4550   23.4470  -30.9850 C   0  0  0  0  0  0  0  0  0  0  0  0
   -3.1290   24.8360  -31.4230 H   0  0  0  0  0  0  0  0  0  0  0  0
   -3.7869   22.1841  -29.4260 H   0  0  0  0  0  0  0  0  0  0  0  0
   -0.2982   22.3312  -26.8764 H   0  0  0  0  0  0  0  0  0  0  0  0
    0.1293   24.6812  -27.5914 H   0  0  0  0  0  0  0  0  0  0  0  0
   -4.2155   22.5177  -31.5639 H   0  0  0  0  0  0  0  0  0  0  0  0
   -5.3725   20.4776  -32.4091 H   0  0  0  0  0  0  0  0  0  0  0  0
   -7.3538   17.0383  -31.6751 H   0  0  0  0  0  0  0  0  0  0  0  0
   -5.6350   15.5004  -32.6299 H   0  0  0  0  0  0  0  0  0  0  0  0
   -4.2787   16.2104  -34.6025 H   0  0  0  0  0  0  0  0  0  0  0  0
   -4.6398   18.4626  -35.6214 H   0  0  0  0  0  0  0  0  0  0  0  0
   -6.3468   20.0107  -34.6627 H   0  0  0  0  0  0  0  0  0  0  0  0
   -9.2025   22.2480  -31.4411 H   0  0  0  0  0  0  0  0  0  0  0  0
   -8.0442   24.2925  -30.6002 H   0  0  0  0  0  0  0  0  0  0  0  0
  1  2  2  0
  2  3  2  0
  2  4  1  0
  4  5  1  0
  5  6  2  0
  6  7  1  0
  7  8  1  0
  7  9  2  0
  9 10  1  0
 10 11  2  0
 11 12  1  0
  2 13  1  0
 13 14  2  0
 14 15  1  0
 15 16  2  0
 16 17  1  0
 17 18  2  0
 17 19  2  0
 17 20  1  0
 20 21  2  0
 21 22  1  0
 22 23  2  0
 23 24  1  0
 24 25  2  0
 16 26  1  0
 26 27  2  0
 11  5  1  0
 27 13  1  0
 25 20  1  0
  4 28  1  0
  6 29  1  0
  9 30  1  0
 10 31  1  0
 14 32  1  0
 15 33  1  0
 21 34  1  0
 22 35  1  0
 23 36  1  0
 24 37  1  0
 25 38  1  0
 26 39  1  0
 27 40  1  0
M  CHG  1  12  -1
M  END
>  <UniqueID>  (10) 
10

>  <SMILES>  (10) 
O=S(=O)(Nc1cc(Cl)ccc1[O-])c1ccc(S(=O)(=O)c2ccccc2)cc1

>  <Energy>  (10) 
47.04523455784745

>  <Genealogy>  (10) 
O=S(=O)(Nc1cc(Cl)ccc1[O-])c1ccc(S(=O)(=O)c2ccccc2)cc1 (protonated)
O=S(=O)(Nc1cc(Cl)ccc1[O-])c1ccc(S(=O)(=O)c2ccccc2)cc1 (3D coordinates assigned)
O=S(=O)(Nc1cc(Cl)ccc1[O-])c1ccc(S(=O)(=O)c2ccccc2)cc1 (optimized conformer: 47.04523455784745 kcal/mol)

>  <smiles>  (10) 
O=S(=O)(Nc1cc(Cl)ccc1O)c1ccc(S(=O)(=O)c2ccccc2)cc1

>  <score_type>  (10) 
oracle

>  <origin>  (10) 
adgpu

>  <m_score__min__energy>  (10) 
-14.75

>  <m_primary>  (10) 
energy

$$$$
10:0
     RDKit          3D

 39 42  0  0  0  0  0  0  0  0999 V2000
   -5.5920   26.2120  -30.5180 O   0  0  0  0  0  0  0  0  0  0  0  0
   -4.8770   25.1760  -30.5510 C   0  0  0  0  0  0  0  0  0  0  0  0
   -3.4920   25.2870  -30.1920 N   0  0  0  0  0  0  0  0  0  0  0  0
   -2.7790   24.4350  -29.2820 C   0  0  0  0  0  0  0  0  0  0  0  0
   -1.5790   23.8070  -29.6630 C   0  0  0  0  0  0  0  0  0  0  0  0
   -0.8960   22.9840  -28.7640 C   0  0  0  0  0  0  0  0  0  0  0  0
    0.2540   22.3740  -29.1430 F   0  0  0  0  0  0  0  0  0  0  0  0
   -1.3930   22.7940  -27.4740 C   0  0  0  0  0  0  0  0  0  0  0  0
   -2.5700   23.4330  -27.0770 C   0  0  0  0  0  0  0  0  0  0  0  0
   -3.2640   24.2570  -27.9710 C   0  0  0  0  0  0  0  0  0  0  0  0
   -4.4360   24.8800  -27.5400 O   0  0  0  0  0  0  0  0  0  0  0  0
   -5.4960   23.8770  -30.9070 C   0  0  0  0  0  0  0  0  0  0  0  0
   -6.8590   23.6570  -30.6680 C   0  0  0  0  0  0  0  0  0  0  0  0
   -7.4510   22.4400  -31.0130 C   0  0  0  0  0  0  0  0  0  0  0  0
   -6.6960   21.4070  -31.6040 C   0  0  0  0  0  0  0  0  0  0  0  0
   -5.3220   21.6260  -31.8250 C   0  0  0  0  0  0  0  0  0  0  0  0
   -4.7300   22.8440  -31.4670 C   0  0  0  0  0  0  0  0  0  0  0  0
   -4.3140   20.3910  -32.5410 S   0  0  0  0  0  0  0  0  0  0  0  0
   -3.2930   19.9320  -31.5390 O   0  0  0  0  0  0  0  0  0  0  0  0
   -3.6320   20.9520  -33.7580 O   0  0  0  0  0  0  0  0  0  0  0  0
   -5.3180   19.0410  -33.0110 C   0  0  0  0  0  0  0  0  0  0  0  0
   -4.7270   17.9710  -33.6980 C   0  0  0  0  0  0  0  0  0  0  0  0
   -5.4910   16.8700  -34.0830 C   0  0  0  0  0  0  0  0  0  0  0  0
   -6.8510   16.8290  -33.7810 C   0  0  0  0  0  0  0  0  0  0  0  0
   -7.4490   17.8880  -33.0950 C   0  0  0  0  0  0  0  0  0  0  0  0
   -6.6940   19.0130  -32.7000 C   0  0  0  0  0  0  0  0  0  0  0  0
   -7.3690   20.1260  -31.9690 C   0  0  0  0  0  0  0  0  0  0  0  0
   -8.5820   19.9790  -31.6500 O   0  0  0  0  0  0  0  0  0  0  0  0
   -1.1763   23.9649  -30.6744 H   0  0  0  0  0  0  0  0  0  0  0  0
   -0.8576   22.1407  -26.7693 H   0  0  0  0  0  0  0  0  0  0  0  0
   -2.9536   23.2879  -26.0563 H   0  0  0  0  0  0  0  0  0  0  0  0
   -4.9270   25.5630  -28.1040 H   0  0  0  0  0  0  0  0  0  0  0  0
   -7.4670   24.4484  -30.2054 H   0  0  0  0  0  0  0  0  0  0  0  0
   -8.5229   22.2853  -30.8205 H   0  0  0  0  0  0  0  0  0  0  0  0
   -3.6518   22.9921  -31.6269 H   0  0  0  0  0  0  0  0  0  0  0  0
   -3.6532   18.0004  -33.9349 H   0  0  0  0  0  0  0  0  0  0  0  0
   -5.0213   16.0354  -34.6240 H   0  0  0  0  0  0  0  0  0  0  0  0
   -7.4545   15.9606  -34.0837 H   0  0  0  0  0  0  0  0  0  0  0  0
   -8.5226   17.8448  -32.8594 H   0  0  0  0  0  0  0  0  0  0  0  0
  1  2  2  0
  2  3  1  0
  3  4  1  0
  4  5  2  0
  5  6  1  0
  6  7  1  0
  6  8  2  0
  8  9  1  0
  9 10  2  0
 10 11  1  0
  2 12  1  0
 12 13  2  0
 13 14  1  0
 14 15  2  0
 15 16  1  0
 16 17  2  0
 16 18  1  0
 18 19  2  0
 18 20  2  0
 18 21  1  0
 21 22  2  0
 22 23  1  0
 23 24  2  0
 24 25  1  0
 25 26  2  0
 26 27  1  0
 27 28  2  0
 10  4  1  0
 17 12  1  0
 26 21  1  0
 27 15  1  0
  5 29  1  0
  8 30  1  0
  9 31  1  0
 11 32  1  0
 13 33  1  0
 14 34  1  0
 17 35  1  0
 22 36  1  0
 23 37  1  0
 24 38  1  0
 25 39  1  0
M  CHG  1   3  -1
M  END
>  <UniqueID>  (11) 
11

>  <SMILES>  (11) 
O=C([N-]c1cc(F)ccc1O)c1ccc2c(c1)S(=O)(=O)c1ccccc1C2=O

>  <Energy>  (11) 
59.30953263129331

>  <Genealogy>  (11) 
O=C([N-]c1cc(F)ccc1O)c1ccc2c(c1)S(=O)(=O)c1ccccc1C2=O (protonated)
O=C([N-]c1cc(F)ccc1O)c1ccc2c(c1)S(=O)(=O)c1ccccc1C2=O (3D coordinates assigned)
O=C([N-]c1cc(F)ccc1O)c1ccc2c(c1)S(=O)(=O)c1ccccc1C2=O (nonaromatic ring conformer: 59.30953263129331 kcal/mol)

>  <smiles>  (11) 
O=C(Nc1cc(F)ccc1O)c1ccc2c(c1)S(=O)(=O)c1ccccc1C2=O

>  <score_type>  (11) 
oracle

>  <origin>  (11) 
adgpu

>  <m_score__min__energy>  (11) 
-12.56

>  <m_primary>  (11) 
energy

$$$$
11:0
     RDKit          3D

 49 52  0  0  0  0  0  0  0  0999 V2000
    1.3710   20.3080  -31.6710 O   0  0  0  0  0  0  0  0  0  0  0  0
    0.7970   20.2600  -32.7920 C   0  0  0  0  0  0  0  0  0  0  0  0
    1.6240   20.1310  -33.9500 N   0  0  0  0  0  0  0  0  0  0  0  0
    1.1440   19.8640  -35.2900 C   0  0  0  0  0  0  0  0  0  0  0  0
    0.2180   18.6620  -35.2560 C   0  0  0  0  0  0  0  0  0  0  0  0
   -1.1070   19.0690  -34.9530 O   0  0  0  0  0  0  0  0  0  0  0  0
   -1.5360   19.8370  -33.8570 C   0  0  0  0  0  0  0  0  0  0  0  0
   -2.9190   20.0510  -33.7860 C   0  0  0  0  0  0  0  0  0  0  0  0
   -3.4870   20.7810  -32.7460 C   0  0  0  0  0  0  0  0  0  0  0  0
   -2.6790   21.3140  -31.7460 C   0  0  0  0  0  0  0  0  0  0  0  0
   -3.4050   22.2660  -30.4550 S   0  0  0  0  0  0  0  0  0  0  0  0
   -2.5950   23.5030  -30.1890 O   0  0  0  0  0  0  0  0  0  0  0  0
   -3.4380   21.4500  -29.1920 O   0  0  0  0  0  0  0  0  0  0  0  0
   -5.0420   22.7090  -30.9390 C   0  0  0  0  0  0  0  0  0  0  0  0
   -6.0050   21.7070  -31.1230 C   0  0  0  0  0  0  0  0  0  0  0  0
   -7.2950   22.0320  -31.5560 C   0  0  0  0  0  0  0  0  0  0  0  0
   -8.4760   20.7580  -31.8440 S   0  0  0  0  0  0  0  0  0  0  0  0
   -9.7640   21.3700  -32.3210 O   0  0  0  0  0  0  0  0  0  0  0  0
   -8.7440   20.0210  -30.5590 O   0  0  0  0  0  0  0  0  0  0  0  0
   -7.8620   19.6690  -33.0620 N   0  0  0  0  0  0  0  0  0  0  0  0
   -6.6020   20.1540  -33.6240 C   0  0  0  0  0  0  0  0  0  0  0  0
   -5.8490   18.9290  -34.1150 C   0  0  0  0  0  0  0  0  0  0  0  0
   -6.4560   17.7560  -33.3610 C   0  0  0  0  0  0  0  0  0  0  0  0
   -7.5540   18.3560  -32.4950 C   0  0  0  0  0  0  0  0  0  0  0  0
   -7.6240   23.3680  -31.8140 C   0  0  0  0  0  0  0  0  0  0  0  0
   -6.6700   24.3730  -31.6370 C   0  0  0  0  0  0  0  0  0  0  0  0
   -5.3740   24.0500  -31.2090 C   0  0  0  0  0  0  0  0  0  0  0  0
   -4.4190   25.0550  -31.0620 O   0  0  0  0  0  0  0  0  0  0  0  0
   -1.2940   21.1260  -31.8000 C   0  0  0  0  0  0  0  0  0  0  0  0
   -0.6910   20.3940  -32.8470 C   0  0  0  0  0  0  0  0  0  0  0  0
    0.5961   20.7404  -35.6664 H   0  0  0  0  0  0  0  0  0  0  0  0
    1.9960   19.6565  -35.9542 H   0  0  0  0  0  0  0  0  0  0  0  0
    0.2298   18.1670  -36.2383 H   0  0  0  0  0  0  0  0  0  0  0  0
    0.5647   17.9653  -34.4785 H   0  0  0  0  0  0  0  0  0  0  0  0
   -3.5694   19.6333  -34.5686 H   0  0  0  0  0  0  0  0  0  0  0  0
   -4.5755   20.9368  -32.7144 H   0  0  0  0  0  0  0  0  0  0  0  0
   -5.7442   20.6568  -30.9253 H   0  0  0  0  0  0  0  0  0  0  0  0
   -6.7984   20.8402  -34.4610 H   0  0  0  0  0  0  0  0  0  0  0  0
   -6.0176   20.7057  -32.8730 H   0  0  0  0  0  0  0  0  0  0  0  0
   -5.9850   18.8020  -35.1992 H   0  0  0  0  0  0  0  0  0  0  0  0
   -4.7667   19.0146  -33.9379 H   0  0  0  0  0  0  0  0  0  0  0  0
   -6.8781   17.0233  -34.0646 H   0  0  0  0  0  0  0  0  0  0  0  0
   -5.7047   17.2245  -32.7585 H   0  0  0  0  0  0  0  0  0  0  0  0
   -8.4473   17.7144  -32.5159 H   0  0  0  0  0  0  0  0  0  0  0  0
   -7.2307   18.4420  -31.4471 H   0  0  0  0  0  0  0  0  0  0  0  0
   -8.6365   23.6271  -32.1570 H   0  0  0  0  0  0  0  0  0  0  0  0
   -6.9363   25.4219  -31.8341 H   0  0  0  0  0  0  0  0  0  0  0  0
   -3.4390   24.8890  -31.2600 H   0  0  0  0  0  0  0  0  0  0  0  0
   -0.6610   21.5573  -31.0105 H   0  0  0  0  0  0  0  0  0  0  0  0
  1  2  2  0
  2  3  1  0
  3  4  1  0
  4  5  1  0
  5  6  1  0
  6  7  1  0
  7  8  2  0
  8  9  1  0
  9 10  2  0
 10 11  1  0
 11 12  2  0
 11 13  2  0
 11 14  1  0
 14 15  2  0
 15 16  1  0
 16 17  1  0
 17 18  2  0
 17 19  2  0
 17 20  1  0
 20 21  1  0
 21 22  1  0
 22 23  1  0
 23 24  1  0
 16 25  2  0
 25 26  1  0
 26 27  2  0
 27 28  1  0
 10 29  1  0
 29 30  2  0
 30  2  1  0
 30  7  1  0
 27 14  1  0
 24 20  1  0
  4 31  1  0
  4 32  1  0
  5 33  1  0
  5 34  1  0
  8 35  1  0
  9 36  1  0
 15 37  1  0
 21 38  1  0
 21 39  1  0
 22 40  1  0
 22 41  1  0
 23 42  1  0
 23 43  1  0
 24 44  1  0
 24 45  1  0
 25 46  1  0
 26 47  1  0
 28 48  1  0
 29 49  1  0
M  CHG  1   3  -1
M  END
>  <UniqueID>  (12) 
12

>  <SMILES>  (12) 
O=C1[N-]CCOc2ccc(S(=O)(=O)c3cc(S(=O)(=O)N4CCCC4)ccc3O)cc21

>  <Energy>  (12) 
62.94717468012025

>  <Genealogy>  (12) 
O=C1[N-]CCOc2ccc(S(=O)(=O)c3cc(S(=O)(=O)N4CCCC4)ccc3O)cc21 (protonated)
O=C1[N-]CCOc2ccc(S(=O)(=O)c3cc(S(=O)(=O)N4CCCC4)ccc3O)cc21 (3D coordinates assigned)
O=C1[N-]CCOc2ccc(S(=O)(=O)c3cc(S(=O)(=O)N4CCCC4)ccc3O)cc21 (nonaromatic ring conformer: 62.94717468012025 kcal/mol)

>  <smiles>  (12) 
O=C1NCCOc2ccc(S(=O)(=O)c3cc(S(=O)(=O)N4CCCC4)ccc3O)cc21

>  <score_type>  (12) 
oracle

>  <origin>  (12) 
adgpu

>  <m_score__min__energy>  (12) 
-8.4800000000000004

>  <m_primary>  (12) 
energy

$$$$
12:0
     RDKit          3D

 65 69  0  0  0  0  0  0  0  0999 V2000
   -3.1060   25.6840  -29.7230 H   0  0  0  0  0  0  0  0  0  0  0  0
   -3.4920   25.2970  -30.5760 O   0  0  0  0  0  0  0  0  0  0  0  0
   -4.7570   24.7130  -30.6040 C   0  0  0  0  0  0  0  0  0  0  0  0
   -5.7980   25.2250  -29.8160 C   0  0  0  0  0  0  0  0  0  0  0  0
   -5.6195   26.0972  -29.1700 H   0  0  0  0  0  0  0  0  0  0  0  0
   -7.0620   24.6290  -29.8500 C   0  0  0  0  0  0  0  0  0  0  0  0
   -7.8754   25.0305  -29.2277 H   0  0  0  0  0  0  0  0  0  0  0  0
   -7.2940   23.5230  -30.6740 C   0  0  0  0  0  0  0  0  0  0  0  0
   -8.2893   23.0551  -30.6958 H   0  0  0  0  0  0  0  0  0  0  0  0
   -6.2620   23.0080  -31.4730 C   0  0  0  0  0  0  0  0  0  0  0  0
   -6.5120   21.8060  -32.3500 C   0  0  0  0  0  0  0  0  0  0  0  0
   -6.4675   22.1162  -33.4044 H   0  0  0  0  0  0  0  0  0  0  0  0
   -7.5041   21.3983  -32.1060 H   0  0  0  0  0  0  0  0  0  0  0  0
   -5.5020   20.7500  -32.1150 N   0  0  0  0  0  0  0  0  0  0  0  0
   -6.1400   19.4980  -31.6330 C   0  0  0  0  0  0  0  0  0  0  0  0
   -7.0963   19.7515  -31.1522 H   0  0  0  0  0  0  0  0  0  0  0  0
   -5.4469   19.0197  -30.9253 H   0  0  0  0  0  0  0  0  0  0  0  0
   -6.4090   18.5010  -32.7710 C   0  0  0  0  0  0  0  0  0  0  0  0
   -7.0547   18.9821  -33.5204 H   0  0  0  0  0  0  0  0  0  0  0  0
   -6.8961   17.6139  -32.3399 H   0  0  0  0  0  0  0  0  0  0  0  0
   -5.0870   18.0400  -33.4640 C   0  0  0  0  0  0  0  0  0  0  0  0
   -4.5770   16.7450  -32.7830 C   0  0  0  0  0  0  0  0  0  0  0  0
   -4.2467   16.9801  -31.7604 H   0  0  0  0  0  0  0  0  0  0  0  0
   -5.3956   16.0107  -32.7586 H   0  0  0  0  0  0  0  0  0  0  0  0
   -3.4530   16.1760  -33.5340 N   0  0  0  0  0  0  0  0  0  0  0  0
   -2.2570   15.7680  -32.8390 C   0  0  0  0  0  0  0  0  0  0  0  0
   -2.1600   14.4960  -32.3640 N   0  0  0  0  0  0  0  0  0  0  0  0
   -1.0570   14.0510  -31.7110 C   0  0  0  0  0  0  0  0  0  0  0  0
   -1.0221   13.0190  -31.3320 H   0  0  0  0  0  0  0  0  0  0  0  0
    0.0310   14.8990  -31.5200 C   0  0  0  0  0  0  0  0  0  0  0  0
    0.9212   14.5376  -30.9843 H   0  0  0  0  0  0  0  0  0  0  0  0
   -0.0060   16.2120  -32.0090 C   0  0  0  0  0  0  0  0  0  0  0  0
    1.0500   16.9590  -31.8130 N   0  0  0  0  0  0  0  0  0  0  0  0
    1.3500   18.3150  -32.2010 C   0  0  0  0  0  0  0  0  0  0  0  0
    2.4880   18.6340  -32.6380 O   0  0  0  0  0  0  0  0  0  0  0  0
    0.3110   19.3620  -32.0520 C   0  0  0  0  0  0  0  0  0  0  0  0
   -0.1150   20.1090  -33.1670 C   0  0  0  0  0  0  0  0  0  0  0  0
    0.3245   19.9126  -34.1561 H   0  0  0  0  0  0  0  0  0  0  0  0
   -1.0930   21.0990  -33.0260 C   0  0  0  0  0  0  0  0  0  0  0  0
   -1.4195   21.6766  -33.9034 H   0  0  0  0  0  0  0  0  0  0  0  0
   -1.6560   21.3560  -31.7740 C   0  0  0  0  0  0  0  0  0  0  0  0
   -2.6030   22.3170  -31.6390 F   0  0  0  0  0  0  0  0  0  0  0  0
   -1.2400   20.6230  -30.6590 C   0  0  0  0  0  0  0  0  0  0  0  0
   -1.6818   20.8266  -29.6724 H   0  0  0  0  0  0  0  0  0  0  0  0
   -0.2630   19.6310  -30.7950 C   0  0  0  0  0  0  0  0  0  0  0  0
    0.0590   19.0571  -29.9135 H   0  0  0  0  0  0  0  0  0  0  0  0
   -1.1720   16.6500  -32.6770 C   0  0  0  0  0  0  0  0  0  0  0  0
   -1.2314   17.6762  -33.0688 H   0  0  0  0  0  0  0  0  0  0  0  0
   -3.6840   15.8340  -34.9440 C   0  0  0  0  0  0  0  0  0  0  0  0
   -2.7337   15.5208  -35.4010 H   0  0  0  0  0  0  0  0  0  0  0  0
   -4.4174   15.0158  -34.9964 H   0  0  0  0  0  0  0  0  0  0  0  0
   -4.2350   17.0430  -35.7050 C   0  0  0  0  0  0  0  0  0  0  0  0
   -3.4260   17.7762  -35.8390 H   0  0  0  0  0  0  0  0  0  0  0  0
   -4.6170   16.6875  -36.6734 H   0  0  0  0  0  0  0  0  0  0  0  0
   -5.3980   17.7190  -34.9570 C   0  0  0  0  0  0  0  0  0  0  0  0
   -5.6392   18.6612  -35.4709 H   0  0  0  0  0  0  0  0  0  0  0  0
   -6.2373   17.0080  -34.9626 H   0  0  0  0  0  0  0  0  0  0  0  0
   -4.0000   19.1580  -33.3360 C   0  0  0  0  0  0  0  0  0  0  0  0
   -3.3163   19.0930  -34.1953 H   0  0  0  0  0  0  0  0  0  0  0  0
   -3.4552   19.0059  -32.3925 H   0  0  0  0  0  0  0  0  0  0  0  0
   -4.6360   20.5540  -33.3080 C   0  0  0  0  0  0  0  0  0  0  0  0
   -5.2457   20.6843  -34.2142 H   0  0  0  0  0  0  0  0  0  0  0  0
   -3.8245   21.2953  -33.2632 H   0  0  0  0  0  0  0  0  0  0  0  0
   -4.9900   23.6050  -31.4270 C   0  0  0  0  0  0  0  0  0  0  0  0
   -4.1730   23.1989  -32.0415 H   0  0  0  0  0  0  0  0  0  0  0  0
  1  2  1  0
  2  3  1  0
  3  4  2  0
  4  5  1  0
  4  6  1  0
  6  7  1  0
  6  8  2  0
  8  9  1  0
  8 10  1  0
 10 11  1  0
 11 12  1  0
 11 13  1  0
 11 14  1  0
 14 15  1  0
 15 16  1  0
 15 17  1  0
 15 18  1  0
 18 19  1  0
 18 20  1  0
 18 21  1  0
 21 22  1  0
 22 23  1  0
 22 24  1  0
 22 25  1  0
 25 26  1  0
 26 27  1  0
 27 28  1  0
 28 29  1  0
 28 30  2  0
 30 31  1  0
 30 32  1  0
 32 33  2  0
 33 34  1  0
 34 35  2  0
 34 36  1  0
 36 37  2  0
 37 38  1  0
 37 39  1  0
 39 40  1  0
 39 41  2  0
 41 42  1  0
 41 43  1  0
 43 44  1  0
 43 45  2  0
 45 46  1  0
 32 47  1  0
 47 48  1  0
 25 49  1  0
 49 50  1  0
 49 51  1  0
 49 52  1  0
 52 53  1  0
 52 54  1  0
 52 55  1  0
 55 56  1  0
 55 57  1  0
 21 58  1  0
 58 59  1  0
 58 60  1  0
 58 61  1  0
 61 62  1  0
 61 63  1  0
 10 64  2  0
 64 65  1  0
 64  3  1  0
 61 14  1  0
 55 21  1  0
 47 26  2  0
 45 36  1  0
M  CHG  1  27  -1
M  END
>  <UniqueID>  (13) 
13

>  <SMILES>  (13) 
O=C(/N=c1/cc[n-]c(N2CCCC3(CCN(Cc4cccc(O)c4)CC3)C2)c1)c1ccc(F)cc1

>  <Energy>  (13) 
91.70581077605267

>  <Genealogy>  (13) 
O=C(N=c1cc[n-]c(N2CCCC3(CCN(Cc4cccc(O)c4)CC3)C2)c1)c1ccc(F)cc1 (protonated)
O=C(/N=c1/cc[n-]c(N2CCCC3(CCN(Cc4cccc(O)c4)CC3)C2)c1)c1ccc(F)cc1 (cis-trans isomerization)
O=C(/N=c1/cc[n-]c(N2CCCC3(CCN(Cc4cccc(O)c4)CC3)C2)c1)c1ccc(F)cc1 (3D coordinates assigned)
O=C(/N=c1/cc[n-]c(N2CCCC3(CCN(Cc4cccc(O)c4)CC3)C2)c1)c1ccc(F)cc1 (nonaromatic ring conformer: 91.70581077605267 kcal/mol)

>  <smiles>  (13) 
O=C(N=c1cc[nH]c(N2CCCC3(CCN(Cc4cccc(O)c4)CC3)C2)c1)c1ccc(F)cc1

>  <score_type>  (13) 
oracle

>  <origin>  (13) 
adgpu

>  <m_score__min__energy>  (13) 
-11.09

>  <m_primary>  (13) 
energy

$$$$
13:0
     RDKit          3D

 52 55  0  0  0  0  0  0  0  0999 V2000
    0.5960   21.4330  -32.5370 O   0  0  0  0  0  0  0  0  0  0  0  0
   -0.4730   20.9360  -32.0970 C   0  0  0  0  0  0  0  0  0  0  0  0
   -1.6170   20.8960  -32.9670 N   0  0  0  0  0  0  0  0  0  0  0  0
   -2.9670   21.2160  -32.6130 C   0  0  0  0  0  0  0  0  0  0  0  0
   -3.9930   20.3700  -33.0360 C   0  0  0  0  0  0  0  0  0  0  0  0
   -5.3210   20.6680  -32.7360 C   0  0  0  0  0  0  0  0  0  0  0  0
   -5.6490   21.8270  -32.0210 C   0  0  0  0  0  0  0  0  0  0  0  0
   -7.0310   22.1100  -31.7650 N   0  0  0  0  0  0  0  0  0  0  0  0
   -7.6170   23.2940  -32.4140 C   0  0  0  0  0  0  0  0  0  0  0  0
   -9.1000   23.4740  -32.0790 C   0  0  0  0  0  0  0  0  0  0  0  0
   -9.7710   22.2340  -32.0540 O   0  0  0  0  0  0  0  0  0  0  0  0
   -9.2970   21.4820  -30.9560 C   0  0  0  0  0  0  0  0  0  0  0  0
   -7.8550   21.0340  -31.1920 C   0  0  0  0  0  0  0  0  0  0  0  0
   -4.6190   22.7010  -31.6040 C   0  0  0  0  0  0  0  0  0  0  0  0
   -4.9290   24.2060  -30.7290 S   0  0  0  0  0  0  0  0  0  0  0  0
   -5.7710   23.8710  -29.5290 O   0  0  0  0  0  0  0  0  0  0  0  0
   -5.6830   25.2040  -31.5620 O   0  0  0  0  0  0  0  0  0  0  0  0
   -3.4540   24.9350  -30.1720 N   0  0  0  0  0  0  0  0  0  0  0  0
   -2.7000   24.5120  -29.0250 C   0  0  0  0  0  0  0  0  0  0  0  0
   -3.0760   23.3800  -28.2800 C   0  0  0  0  0  0  0  0  0  0  0  0
   -2.3380   22.9990  -27.1580 C   0  0  0  0  0  0  0  0  0  0  0  0
   -1.2350   23.7490  -26.7640 C   0  0  0  0  0  0  0  0  0  0  0  0
   -0.8700   24.8950  -27.4790 C   0  0  0  0  0  0  0  0  0  0  0  0
   -1.6050   25.2740  -28.6090 C   0  0  0  0  0  0  0  0  0  0  0  0
   -1.2320   26.4140  -29.3150 O   0  0  0  0  0  0  0  0  0  0  0  0
   -3.2870   22.3890  -31.9120 C   0  0  0  0  0  0  0  0  0  0  0  0
   -0.4990   20.3450  -30.7350 C   0  0  0  0  0  0  0  0  0  0  0  0
   -1.4710   20.7570  -29.8050 C   0  0  0  0  0  0  0  0  0  0  0  0
   -1.5300   20.1810  -28.5340 C   0  0  0  0  0  0  0  0  0  0  0  0
   -0.6260   19.1810  -28.1740 C   0  0  0  0  0  0  0  0  0  0  0  0
    0.3420   18.7580  -29.0860 C   0  0  0  0  0  0  0  0  0  0  0  0
    0.4110   19.3330  -30.3610 C   0  0  0  0  0  0  0  0  0  0  0  0
    1.3940   18.8970  -31.2420 O   0  0  0  0  0  0  0  0  0  0  0  0
   -3.7522   19.4627  -33.6095 H   0  0  0  0  0  0  0  0  0  0  0  0
   -6.1195   19.9862  -33.0640 H   0  0  0  0  0  0  0  0  0  0  0  0
   -7.0690   24.1871  -32.0791 H   0  0  0  0  0  0  0  0  0  0  0  0
   -7.5354   23.1529  -33.5019 H   0  0  0  0  0  0  0  0  0  0  0  0
   -9.1896   23.9505  -31.0916 H   0  0  0  0  0  0  0  0  0  0  0  0
   -9.5589   24.1029  -32.8561 H   0  0  0  0  0  0  0  0  0  0  0  0
   -9.3388   22.1021  -30.0484 H   0  0  0  0  0  0  0  0  0  0  0  0
   -9.9301   20.5903  -30.8377 H   0  0  0  0  0  0  0  0  0  0  0  0
   -7.4174   20.7246  -30.2314 H   0  0  0  0  0  0  0  0  0  0  0  0
   -7.8711   20.1996  -31.9086 H   0  0  0  0  0  0  0  0  0  0  0  0
   -3.9553   22.7924  -28.5827 H   0  0  0  0  0  0  0  0  0  0  0  0
   -2.6288   22.1058  -26.5856 H   0  0  0  0  0  0  0  0  0  0  0  0
   -0.6473   23.4401  -25.8869 H   0  0  0  0  0  0  0  0  0  0  0  0
   -0.0081   25.4965  -27.1544 H   0  0  0  0  0  0  0  0  0  0  0  0
   -2.4830   23.0720  -31.6003 H   0  0  0  0  0  0  0  0  0  0  0  0
   -2.1917   21.5406  -30.0817 H   0  0  0  0  0  0  0  0  0  0  0  0
   -2.2914   20.5167  -27.8146 H   0  0  0  0  0  0  0  0  0  0  0  0
   -0.6762   18.7269  -27.1733 H   0  0  0  0  0  0  0  0  0  0  0  0
    1.0541   17.9692  -28.8020 H   0  0  0  0  0  0  0  0  0  0  0  0
  1  2  2  0
  2  3  1  0
  3  4  1  0
  4  5  2  0
  5  6  1  0
  6  7  2  0
  7  8  1  0
  8  9  1  0
  9 10  1  0
 10 11  1  0
 11 12  1  0
 12 13  1  0
  7 14  1  0
 14 15  1  0
 15 16  2  0
 15 17  2  0
 15 18  1  0
 18 19  1  0
 19 20  2  0
 20 21  1  0
 21 22  2  0
 22 23  1  0
 23 24  2  0
 24 25  1  0
 14 26  2  0
  2 27  1  0
 27 28  2  0
 28 29  1  0
 29 30  2  0
 30 31  1  0
 31 32  2  0
 32 33  1  0
 26  4  1  0
 32 27  1  0
 13  8  1  0
 24 19  1  0
  5 34  1  0
  6 35  1  0
  9 36  1  0
  9 37  1  0
 10 38  1  0
 10 39  1  0
 12 40  1  0
 12 41  1  0
 13 42  1  0
 13 43  1  0
 20 44  1  0
 21 45  1  0
 22 46  1  0
 23 47  1  0
 26 48  1  0
 28 49  1  0
 29 50  1  0
 30 51  1  0
 31 52  1  0
M  CHG  4   3  -1  18  -1  25  -1  33  -1
M  END
>  <UniqueID>  (14) 
14

>  <SMILES>  (14) 
O=C([N-]c1ccc(N2CCOCC2)c(S(=O)(=O)[N-]c2ccccc2[O-])c1)c1ccccc1[O-]

>  <Energy>  (14) 
79.87191100550177

>  <Genealogy>  (14) 
O=C([N-]c1ccc(N2CCOCC2)c(S(=O)(=O)[N-]c2ccccc2[O-])c1)c1ccccc1[O-] (protonated)
O=C([N-]c1ccc(N2CCOCC2)c(S(=O)(=O)[N-]c2ccccc2[O-])c1)c1ccccc1[O-] (3D coordinates assigned)
O=C([N-]c1ccc(N2CCOCC2)c(S(=O)(=O)[N-]c2ccccc2[O-])c1)c1ccccc1[O-] (nonaromatic ring conformer: 79.87191100550177 kcal/mol)

>  <smiles>  (14) 
O=C(Nc1ccc(N2CCOCC2)c(S(=O)(=O)Nc2ccccc2O)c1)c1ccccc1O

>  <score_type>  (14) 
oracle

>  <origin>  (14) 
adgpu

>  <m_score__min__energy>  (14) 
-14.82

>  <m_primary>  (14) 
energy

$$$$
14:0
     RDKit          3D

 48 52  0  0  0  0  0  0  0  0999 V2000
   -2.5260   18.8690  -34.5240 O   0  0  0  0  0  0  0  0  0  0  0  0
   -3.6290   18.7230  -33.9280 C   0  0  0  0  0  0  0  0  0  0  0  0
   -4.3060   17.4050  -33.9370 C   0  0  0  0  0  0  0  0  0  0  0  0
   -3.7360   16.3120  -34.6140 C   0  0  0  0  0  0  0  0  0  0  0  0
   -4.3790   15.0720  -34.6220 C   0  0  0  0  0  0  0  0  0  0  0  0
   -5.5950   14.9090  -33.9580 C   0  0  0  0  0  0  0  0  0  0  0  0
   -6.1720   15.9850  -33.2810 C   0  0  0  0  0  0  0  0  0  0  0  0
   -5.5360   17.2400  -33.2640 C   0  0  0  0  0  0  0  0  0  0  0  0
   -6.1450   18.3840  -32.5450 C   0  0  0  0  0  0  0  0  0  0  0  0
   -7.2380   18.2340  -31.9340 O   0  0  0  0  0  0  0  0  0  0  0  0
   -5.4710   19.7050  -32.5420 C   0  0  0  0  0  0  0  0  0  0  0  0
   -6.0480   20.8000  -31.8760 C   0  0  0  0  0  0  0  0  0  0  0  0
   -5.4210   22.0530  -31.8890 C   0  0  0  0  0  0  0  0  0  0  0  0
   -6.1760   23.4460  -31.1180 S   0  0  0  0  0  0  0  0  0  0  0  0
   -7.6630   23.2320  -31.0860 O   0  0  0  0  0  0  0  0  0  0  0  0
   -5.8830   24.7080  -31.8830 O   0  0  0  0  0  0  0  0  0  0  0  0
   -5.5820   23.6110  -29.4960 N   0  0  0  0  0  0  0  0  0  0  0  0
   -4.2180   23.3420  -29.1230 C   0  0  0  0  0  0  0  0  0  0  0  0
   -3.8880   22.2400  -28.3130 C   0  0  0  0  0  0  0  0  0  0  0  0
   -2.5630   22.0080  -27.9190 C   0  0  0  0  0  0  0  0  0  0  0  0
   -1.5370   22.8490  -28.3930 C   0  0  0  0  0  0  0  0  0  0  0  0
   -1.8610   23.9420  -29.2090 C   0  0  0  0  0  0  0  0  0  0  0  0
   -3.1880   24.1870  -29.5750 C   0  0  0  0  0  0  0  0  0  0  0  0
   -3.4760   25.2820  -30.3800 O   0  0  0  0  0  0  0  0  0  0  0  0
   -0.1060   22.6490  -27.9500 C   0  0  0  0  0  0  0  0  0  0  0  0
    0.1450   21.2820  -27.4720 N   0  0  0  0  0  0  0  0  0  0  0  0
   -0.8420   20.8980  -26.4550 C   0  0  0  0  0  0  0  0  0  0  0  0
   -2.2470   20.8090  -27.0620 C   0  0  0  0  0  0  0  0  0  0  0  0
   -4.2080   22.2120  -32.5630 C   0  0  0  0  0  0  0  0  0  0  0  0
   -3.6200   21.1300  -33.2210 C   0  0  0  0  0  0  0  0  0  0  0  0
   -4.2440   19.8700  -33.2190 C   0  0  0  0  0  0  0  0  0  0  0  0
   -2.7779   16.4344  -35.1404 H   0  0  0  0  0  0  0  0  0  0  0  0
   -3.9255   14.2221  -35.1531 H   0  0  0  0  0  0  0  0  0  0  0  0
   -6.0997   13.9317  -33.9679 H   0  0  0  0  0  0  0  0  0  0  0  0
   -7.1301   15.8508  -32.7575 H   0  0  0  0  0  0  0  0  0  0  0  0
   -7.0000   20.6722  -31.3399 H   0  0  0  0  0  0  0  0  0  0  0  0
   -6.2920   23.7960  -28.7540 H   0  0  0  0  0  0  0  0  0  0  0  0
   -4.6803   21.5513  -27.9845 H   0  0  0  0  0  0  0  0  0  0  0  0
   -1.0646   24.6124  -29.5643 H   0  0  0  0  0  0  0  0  0  0  0  0
    0.5596   22.8536  -28.8015 H   0  0  0  0  0  0  0  0  0  0  0  0
    0.0866   23.3379  -27.1144 H   0  0  0  0  0  0  0  0  0  0  0  0
    0.0770   20.6210  -28.2810 H   0  0  0  0  0  0  0  0  0  0  0  0
   -0.5670   19.9178  -26.0383 H   0  0  0  0  0  0  0  0  0  0  0  0
   -0.8484   21.6634  -25.6650 H   0  0  0  0  0  0  0  0  0  0  0  0
   -2.3107   19.9020  -27.6811 H   0  0  0  0  0  0  0  0  0  0  0  0
   -2.9744   20.7765  -26.2375 H   0  0  0  0  0  0  0  0  0  0  0  0
   -3.7135   23.1945  -32.5755 H   0  0  0  0  0  0  0  0  0  0  0  0
   -2.6620   21.2642  -33.7446 H   0  0  0  0  0  0  0  0  0  0  0  0
  1  2  2  0
  2  3  1  0
  3  4  2  0
  4  5  1  0
  5  6  2  0
  6  7  1  0
  7  8  2  0
  8  9  1  0
  9 10  2  0
  9 11  1  0
 11 12  2  0
 12 13  1  0
 13 14  1  0
 14 15  2  0
 14 16  2  0
 14 17  1  0
 17 18  1  0
 18 19  2  0
 19 20  1  0
 20 21  2  0
 21 22  1  0
 22 23  2  0
 23 24  1  0
 21 25  1  0
 25 26  1  0
 26 27  1  0
 27 28  1  0
 13 29  2  0
 29 30  1  0
 30 31  2  0
 31  2  1  0
  8  3  1  0
 31 11  1  0
 23 18  1  0
 28 20  1  0
  4 32  1  0
  5 33  1  0
  6 34  1  0
  7 35  1  0
 12 36  1  0
 17 37  1  0
 19 38  1  0
 22 39  1  0
 25 40  1  0
 25 41  1  0
 26 42  1  0
 27 43  1  0
 27 44  1  0
 28 45  1  0
 28 46  1  0
 29 47  1  0
 30 48  1  0
M  CHG  1  24  -1
M  END
>  <UniqueID>  (15) 
15

>  <SMILES>  (15) 
O=C1c2ccccc2C(=O)c2cc(S(=O)(=O)Nc3cc4c(cc3[O-])CNCC4)ccc21

>  <Energy>  (15) 
63.43658850163476

>  <Genealogy>  (15) 
O=C1c2ccccc2C(=O)c2cc(S(=O)(=O)Nc3cc4c(cc3[O-])CNCC4)ccc21 (protonated)
O=C1c2ccccc2C(=O)c2cc(S(=O)(=O)Nc3cc4c(cc3[O-])CNCC4)ccc21 (3D coordinates assigned)
O=C1c2ccccc2C(=O)c2cc(S(=O)(=O)Nc3cc4c(cc3[O-])CNCC4)ccc21 (nonaromatic ring conformer: 63.43658850163476 kcal/mol)

>  <smiles>  (15) 
O=C1c2ccccc2C(=O)c2cc(S(=O)(=O)Nc3cc4c(cc3O)CNCC4)ccc21

>  <score_type>  (15) 
oracle

>  <origin>  (15) 
adgpu

>  <m_score__min__energy>  (15) 
-15.59

>  <m_primary>  (15) 
energy

$$$$
15:0
     RDKit          3D

 48 51  0  0  0  0  0  0  0  0999 V2000
   -7.7580   18.2800  -31.9970 C   0  0  0  0  0  0  0  0  0  0  0  0
   -8.1720   19.6770  -31.9660 N   0  0  0  0  0  0  0  0  0  0  0  0
   -9.4380   20.0790  -31.9430 N   0  0  0  0  0  0  0  0  0  0  0  0
   -9.4530   21.4340  -31.9230 C   0  0  0  0  0  0  0  0  0  0  0  0
   -8.1480   21.8810  -31.9340 C   0  0  0  0  0  0  0  0  0  0  0  0
   -7.6030   23.1600  -31.9300 C   0  0  0  0  0  0  0  0  0  0  0  0
   -6.1930   23.2740  -31.9520 C   0  0  0  0  0  0  0  0  0  0  0  0
   -5.5510   24.5560  -31.9480 N   0  0  0  0  0  0  0  0  0  0  0  0
   -5.0650   25.2310  -30.7810 C   0  0  0  0  0  0  0  0  0  0  0  0
   -5.8820   25.8290  -30.0340 O   0  0  0  0  0  0  0  0  0  0  0  0
   -3.6710   25.2430  -30.4420 N   0  0  0  0  0  0  0  0  0  0  0  0
   -3.0620   24.4680  -29.3990 C   0  0  0  0  0  0  0  0  0  0  0  0
   -3.6570   23.2860  -28.9270 C   0  0  0  0  0  0  0  0  0  0  0  0
   -3.0480   22.5470  -27.9130 C   0  0  0  0  0  0  0  0  0  0  0  0
   -1.8300   22.9660  -27.3770 C   0  0  0  0  0  0  0  0  0  0  0  0
   -1.2040   24.1240  -27.8570 C   0  0  0  0  0  0  0  0  0  0  0  0
    0.3410   24.6050  -27.1440 S   0  0  0  0  0  0  0  0  0  0  0  0
    0.7680   23.5420  -26.1710 O   0  0  0  0  0  0  0  0  0  0  0  0
    1.4040   24.7290  -28.2030 O   0  0  0  0  0  0  0  0  0  0  0  0
    0.1600   26.1240  -26.3010 N   0  0  0  0  0  0  0  0  0  0  0  0
    0.7450   26.0260  -24.9500 C   0  0  0  0  0  0  0  0  0  0  0  0
    0.1640   27.1110  -24.0270 C   0  0  0  0  0  0  0  0  0  0  0  0
   -1.2490   27.0500  -23.8690 O   0  0  0  0  0  0  0  0  0  0  0  0
   -1.9130   26.3530  -24.9120 C   0  0  0  0  0  0  0  0  0  0  0  0
   -1.2560   26.5590  -26.2870 C   0  0  0  0  0  0  0  0  0  0  0  0
   -1.8290   24.8810  -28.8680 C   0  0  0  0  0  0  0  0  0  0  0  0
   -1.2440   26.0500  -29.3420 O   0  0  0  0  0  0  0  0  0  0  0  0
   -5.3930   22.1070  -32.0110 C   0  0  0  0  0  0  0  0  0  0  0  0
   -5.9820   20.8290  -32.0080 C   0  0  0  0  0  0  0  0  0  0  0  0
   -7.3740   20.7590  -31.9650 C   0  0  0  0  0  0  0  0  0  0  0  0
   -7.6476   17.9074  -30.9679 H   0  0  0  0  0  0  0  0  0  0  0  0
   -8.5181   17.6839  -32.5232 H   0  0  0  0  0  0  0  0  0  0  0  0
   -6.7958   18.1943  -32.5232 H   0  0  0  0  0  0  0  0  0  0  0  0
  -10.3514   22.0684  -31.9017 H   0  0  0  0  0  0  0  0  0  0  0  0
   -8.2458   24.0524  -31.9104 H   0  0  0  0  0  0  0  0  0  0  0  0
   -4.6080   22.9417  -29.3594 H   0  0  0  0  0  0  0  0  0  0  0  0
   -3.5287   21.6325  -27.5353 H   0  0  0  0  0  0  0  0  0  0  0  0
   -1.3580   22.3834  -26.5722 H   0  0  0  0  0  0  0  0  0  0  0  0
    0.5190   25.0350  -24.5295 H   0  0  0  0  0  0  0  0  0  0  0  0
    1.8331   26.1695  -25.0240 H   0  0  0  0  0  0  0  0  0  0  0  0
    0.6266   27.0032  -23.0348 H   0  0  0  0  0  0  0  0  0  0  0  0
    0.3867   28.0790  -24.4995 H   0  0  0  0  0  0  0  0  0  0  0  0
   -1.9036   25.2785  -24.6767 H   0  0  0  0  0  0  0  0  0  0  0  0
   -2.9364   26.7514  -24.9739 H   0  0  0  0  0  0  0  0  0  0  0  0
   -1.8128   25.9773  -27.0364 H   0  0  0  0  0  0  0  0  0  0  0  0
   -1.2813   27.6347  -26.5158 H   0  0  0  0  0  0  0  0  0  0  0  0
   -4.2981   22.2006  -32.0598 H   0  0  0  0  0  0  0  0  0  0  0  0
   -5.3664   19.9179  -32.0385 H   0  0  0  0  0  0  0  0  0  0  0  0
  1  2  1  0
  2  3  1  0
  3  4  2  0
  4  5  1  0
  5  6  2  0
  6  7  1  0
  7  8  1  0
  8  9  1  0
  9 10  2  0
  9 11  1  0
 11 12  1  0
 12 13  2  0
 13 14  1  0
 14 15  2  0
 15 16  1  0
 16 17  1  0
 17 18  2  0
 17 19  2  0
 17 20  1  0
 20 21  1  0
 21 22  1  0
 22 23  1  0
 23 24  1  0
 24 25  1  0
 16 26  2  0
 26 27  1  0
  7 28  2  0
 28 29  1  0
 29 30  2  0
 30  2  1  0
 30  5  1  0
 26 12  1  0
 25 20  1  0
  1 31  1  0
  1 32  1  0
  1 33  1  0
  4 34  1  0
  6 35  1  0
 13 36  1  0
 14 37  1  0
 15 38  1  0
 21 39  1  0
 21 40  1  0
 22 41  1  0
 22 42  1  0
 24 43  1  0
 24 44  1  0
 25 45  1  0
 25 46  1  0
 28 47  1  0
 29 48  1  0
M  CHG  3   8  -1  11  -1  27  -1
M  END
>  <UniqueID>  (16) 
16

>  <SMILES>  (16) 
Cn1ncc2cc([N-]C(=O)[N-]c3cccc(S(=O)(=O)N4CCOCC4)c3[O-])ccc21

>  <Energy>  (16) 
107.5611678160452

>  <Genealogy>  (16) 
Cn1ncc2cc([N-]C(=O)[N-]c3cccc(S(=O)(=O)N4CCOCC4)c3[O-])ccc21 (protonated)
Cn1ncc2cc([N-]C(=O)[N-]c3cccc(S(=O)(=O)N4CCOCC4)c3[O-])ccc21 (3D coordinates assigned)
Cn1ncc2cc([N-]C(=O)[N-]c3cccc(S(=O)(=O)N4CCOCC4)c3[O-])ccc21 (nonaromatic ring conformer: 107.5611678160452 kcal/mol)

>  <smiles>  (16) 
Cn1ncc2cc(NC(=O)Nc3cccc(S(=O)(=O)N4CCOCC4)c3O)ccc21

>  <score_type>  (16) 
oracle

>  <origin>  (16) 
adgpu

>  <m_score__min__energy>  (16) 
-15.890000000000001

>  <m_primary>  (16) 
energy

$$$$
16:0
     RDKit          3D

 50 53  0  0  0  0  0  0  0  0999 V2000
   -1.8380   25.6720  -28.9200 N   0  0  0  0  0  0  0  0  0  0  0  0
   -0.8400   24.7000  -28.6140 C   0  0  0  0  0  0  0  0  0  0  0  0
   -0.3410   24.0080  -29.5410 O   0  0  0  0  0  0  0  0  0  0  0  0
   -0.4380   24.4590  -27.2100 C   0  0  0  0  0  0  0  0  0  0  0  0
    0.0600   23.1860  -26.8530 C   0  0  0  0  0  0  0  0  0  0  0  0
    0.1390   22.1410  -27.8260 N   0  0  0  0  0  0  0  0  0  0  0  0
   -1.1440   20.9900  -27.9710 S   0  0  0  0  0  0  0  0  0  0  0  0
   -1.9410   20.9430  -26.6990 O   0  0  0  0  0  0  0  0  0  0  0  0
   -0.5570   19.6300  -28.2270 O   0  0  0  0  0  0  0  0  0  0  0  0
   -2.1810   21.4620  -29.3160 C   0  0  0  0  0  0  0  0  0  0  0  0
   -2.0840   20.8190  -30.5570 C   0  0  0  0  0  0  0  0  0  0  0  0
   -2.8530   21.2620  -31.6370 C   0  0  0  0  0  0  0  0  0  0  0  0
   -3.7100   22.3560  -31.4870 C   0  0  0  0  0  0  0  0  0  0  0  0
   -3.8140   23.0060  -30.2490 C   0  0  0  0  0  0  0  0  0  0  0  0
   -4.8450   24.4300  -30.0700 S   0  0  0  0  0  0  0  0  0  0  0  0
   -4.2510   25.5660  -30.8550 O   0  0  0  0  0  0  0  0  0  0  0  0
   -4.8740   24.8320  -28.6220 O   0  0  0  0  0  0  0  0  0  0  0  0
   -6.4810   24.1560  -30.6190 N   0  0  0  0  0  0  0  0  0  0  0  0
   -7.0910   22.9990  -29.9690 C   0  0  0  0  0  0  0  0  0  0  0  0
   -8.1720   22.4980  -30.9140 C   0  0  0  0  0  0  0  0  0  0  0  0
   -7.8040   23.0610  -32.2790 C   0  0  0  0  0  0  0  0  0  0  0  0
   -6.5400   23.8760  -32.0520 C   0  0  0  0  0  0  0  0  0  0  0  0
   -3.0540   22.5480  -29.1650 C   0  0  0  0  0  0  0  0  0  0  0  0
    0.3650   22.8940  -25.5210 C   0  0  0  0  0  0  0  0  0  0  0  0
    0.1810   23.8490  -24.5260 C   0  0  0  0  0  0  0  0  0  0  0  0
   -0.3060   25.1210  -24.8500 C   0  0  0  0  0  0  0  0  0  0  0  0
   -0.4890   26.0750  -23.8370 C   0  0  0  0  0  0  0  0  0  0  0  0
   -0.9560   27.3530  -24.1500 C   0  0  0  0  0  0  0  0  0  0  0  0
   -1.2300   27.6920  -25.4730 C   0  0  0  0  0  0  0  0  0  0  0  0
   -1.0540   26.7530  -26.4940 C   0  0  0  0  0  0  0  0  0  0  0  0
   -0.6090   25.4450  -26.2000 C   0  0  0  0  0  0  0  0  0  0  0  0
   -2.7920   25.3830  -29.2340 H   0  0  0  0  0  0  0  0  0  0  0  0
   -1.4021   19.9649  -30.6816 H   0  0  0  0  0  0  0  0  0  0  0  0
   -2.7835   20.7484  -32.6073 H   0  0  0  0  0  0  0  0  0  0  0  0
   -4.3047   22.7081  -32.3428 H   0  0  0  0  0  0  0  0  0  0  0  0
   -6.3377   22.2149  -29.8023 H   0  0  0  0  0  0  0  0  0  0  0  0
   -7.5108   23.2671  -28.9882 H   0  0  0  0  0  0  0  0  0  0  0  0
   -8.1813   21.3984  -30.9405 H   0  0  0  0  0  0  0  0  0  0  0  0
   -9.1754   22.8171  -30.5956 H   0  0  0  0  0  0  0  0  0  0  0  0
   -7.6135   22.2461  -32.9929 H   0  0  0  0  0  0  0  0  0  0  0  0
   -8.6148   23.6726  -32.7015 H   0  0  0  0  0  0  0  0  0  0  0  0
   -5.6556   23.3011  -32.3640 H   0  0  0  0  0  0  0  0  0  0  0  0
   -6.5543   24.8058  -32.6396 H   0  0  0  0  0  0  0  0  0  0  0  0
   -3.1431   23.0446  -28.1876 H   0  0  0  0  0  0  0  0  0  0  0  0
    0.7542   21.8997  -25.2566 H   0  0  0  0  0  0  0  0  0  0  0  0
    0.4191   23.6036  -23.4805 H   0  0  0  0  0  0  0  0  0  0  0  0
   -0.2636   25.8148  -22.7923 H   0  0  0  0  0  0  0  0  0  0  0  0
   -1.1078   28.0933  -23.3507 H   0  0  0  0  0  0  0  0  0  0  0  0
   -1.5867   28.7038  -25.7158 H   0  0  0  0  0  0  0  0  0  0  0  0
   -1.2641   27.0356  -27.5361 H   0  0  0  0  0  0  0  0  0  0  0  0
  1  2  1  0
  2  3  2  0
  2  4  1  0
  4  5  2  0
  5  6  1  0
  6  7  1  0
  7  8  2  0
  7  9  2  0
  7 10  1  0
 10 11  2  0
 11 12  1  0
 12 13  2  0
 13 14  1  0
 14 15  1  0
 15 16  2  0
 15 17  2  0
 15 18  1  0
 18 19  1  0
 19 20  1  0
 20 21  1  0
 21 22  1  0
 14 23  2  0
  5 24  1  0
 24 25  2  0
 25 26  1  0
 26 27  2  0
 27 28  1  0
 28 29  2  0
 29 30  1  0
 30 31  2  0
 31  4  1  0
 23 10  1  0
 31 26  1  0
 22 18  1  0
  1 32  1  0
 11 33  1  0
 12 34  1  0
 13 35  1  0
 19 36  1  0
 19 37  1  0
 20 38  1  0
 20 39  1  0
 21 40  1  0
 21 41  1  0
 22 42  1  0
 22 43  1  0
 23 44  1  0
 24 45  1  0
 25 46  1  0
 27 47  1  0
 28 48  1  0
 29 49  1  0
 30 50  1  0
M  CHG  2   1  -1   6  -1
M  END
>  <UniqueID>  (17) 
17

>  <SMILES>  (17) 
[NH-]C(=O)c1c([N-]S(=O)(=O)c2cccc(S(=O)(=O)N3CCCC3)c2)ccc2ccccc12

>  <Energy>  (17) 
71.29271412990123

>  <Genealogy>  (17) 
[NH-]C(=O)c1c([N-]S(=O)(=O)c2cccc(S(=O)(=O)N3CCCC3)c2)ccc2ccccc12 (protonated)
[NH-]C(=O)c1c([N-]S(=O)(=O)c2cccc(S(=O)(=O)N3CCCC3)c2)ccc2ccccc12 (3D coordinates assigned)
[NH-]C(=O)c1c([N-]S(=O)(=O)c2cccc(S(=O)(=O)N3CCCC3)c2)ccc2ccccc12 (nonaromatic ring conformer: 71.29271412990123 kcal/mol)

>  <smiles>  (17) 
NC(=O)c1c(NS(=O)(=O)c2cccc(S(=O)(=O)N3CCCC3)c2)ccc2ccccc12

>  <score_type>  (17) 
oracle

>  <origin>  (17) 
adgpu

>  <m_score__min__energy>  (17) 
-13.02

>  <m_primary>  (17) 
energy

$$$$
17:0
     RDKit          3D

 51 54  0  0  0  0  0  0  0  0999 V2000
   -0.0700   20.9700  -35.3280 C   0  0  0  0  0  0  0  0  0  0  0  0
   -0.8540   21.0470  -34.0220 C   0  0  0  0  0  0  0  0  0  0  0  0
   -1.2560   19.7460  -33.5940 O   0  0  0  0  0  0  0  0  0  0  0  0
   -2.5780   19.3100  -33.3920 C   0  0  0  0  0  0  0  0  0  0  0  0
   -3.1310   18.2590  -34.1510 C   0  0  0  0  0  0  0  0  0  0  0  0
   -4.4420   17.8350  -33.9340 C   0  0  0  0  0  0  0  0  0  0  0  0
   -5.2280   18.4500  -32.9580 C   0  0  0  0  0  0  0  0  0  0  0  0
   -6.8790   17.9110  -32.6590 S   0  0  0  0  0  0  0  0  0  0  0  0
   -7.0130   17.4180  -31.2440 O   0  0  0  0  0  0  0  0  0  0  0  0
   -7.1900   16.7750  -33.5940 O   0  0  0  0  0  0  0  0  0  0  0  0
   -7.9910   19.2310  -32.9370 N   0  0  0  0  0  0  0  0  0  0  0  0
   -8.8930   19.3810  -31.7710 C   0  0  0  0  0  0  0  0  0  0  0  0
   -9.4880   20.7920  -31.7130 C   0  0  0  0  0  0  0  0  0  0  0  0
   -8.4320   21.8100  -31.5090 N   0  0  0  0  0  0  0  0  0  0  0  0
   -8.8820   23.1240  -31.9930 C   0  0  0  0  0  0  0  0  0  0  0  0
   -7.1200   21.4360  -32.0930 C   0  0  0  0  0  0  0  0  0  0  0  0
   -7.2620   20.4790  -33.2890 C   0  0  0  0  0  0  0  0  0  0  0  0
   -4.6910   19.4900  -32.1920 C   0  0  0  0  0  0  0  0  0  0  0  0
   -3.3690   19.9330  -32.3950 C   0  0  0  0  0  0  0  0  0  0  0  0
   -2.8460   21.0450  -31.5560 C   0  0  0  0  0  0  0  0  0  0  0  0
   -3.4110   22.2840  -31.5140 N   0  0  0  0  0  0  0  0  0  0  0  0
   -2.6220   22.9310  -30.6460 C   0  0  0  0  0  0  0  0  0  0  0  0
   -2.7480   24.2190  -30.2430 N   0  0  0  0  0  0  0  0  0  0  0  0
   -1.8470   24.7210  -29.3440 C   0  0  0  0  0  0  0  0  0  0  0  0
   -1.9610   26.0390  -28.9200 O   0  0  0  0  0  0  0  0  0  0  0  0
   -0.8020   23.9080  -28.8450 C   0  0  0  0  0  0  0  0  0  0  0  0
   -0.6940   22.5740  -29.2800 C   0  0  0  0  0  0  0  0  0  0  0  0
    0.2240   21.8220  -28.8560 O   0  0  0  0  0  0  0  0  0  0  0  0
   -1.6380   22.1190  -30.1940 C   0  0  0  0  0  0  0  0  0  0  0  0
   -1.7510   20.9060  -30.7540 N   0  0  0  0  0  0  0  0  0  0  0  0
    1.0023   20.8647  -35.1063 H   0  0  0  0  0  0  0  0  0  0  0  0
   -0.4112   20.1010  -35.9098 H   0  0  0  0  0  0  0  0  0  0  0  0
   -0.2356   21.8887  -35.9098 H   0  0  0  0  0  0  0  0  0  0  0  0
   -0.2195   21.5015  -33.2469 H   0  0  0  0  0  0  0  0  0  0  0  0
   -1.7541   21.6574  -34.1869 H   0  0  0  0  0  0  0  0  0  0  0  0
   -2.5216   17.7673  -34.9236 H   0  0  0  0  0  0  0  0  0  0  0  0
   -4.8582   17.0126  -34.5344 H   0  0  0  0  0  0  0  0  0  0  0  0
   -8.5760   18.9580  -33.7620 H   0  0  0  0  0  0  0  0  0  0  0  0
   -9.7103   18.6493  -31.8524 H   0  0  0  0  0  0  0  0  0  0  0  0
   -8.3106   19.2090  -30.8538 H   0  0  0  0  0  0  0  0  0  0  0  0
  -10.0098   21.0006  -32.6586 H   0  0  0  0  0  0  0  0  0  0  0  0
  -10.1875   20.8407  -30.8654 H   0  0  0  0  0  0  0  0  0  0  0  0
   -9.1047   23.7744  -31.1343 H   0  0  0  0  0  0  0  0  0  0  0  0
   -8.0892   23.5811  -32.6033 H   0  0  0  0  0  0  0  0  0  0  0  0
   -9.7886   22.9991  -32.6033 H   0  0  0  0  0  0  0  0  0  0  0  0
   -6.6101   22.3503  -32.4307 H   0  0  0  0  0  0  0  0  0  0  0  0
   -6.5421   20.9165  -31.3144 H   0  0  0  0  0  0  0  0  0  0  0  0
   -7.8119   20.9947  -34.0900 H   0  0  0  0  0  0  0  0  0  0  0  0
   -6.2495   20.1948  -33.6115 H   0  0  0  0  0  0  0  0  0  0  0  0
   -5.3102   19.9692  -31.4194 H   0  0  0  0  0  0  0  0  0  0  0  0
   -0.0795   24.3156  -28.1226 H   0  0  0  0  0  0  0  0  0  0  0  0
  1  2  1  0
  2  3  1  0
  3  4  1  0
  4  5  2  0
  5  6  1  0
  6  7  2  0
  7  8  1  0
  8  9  2  0
  8 10  2  0
  8 11  1  0
 11 12  1  0
 12 13  1  0
 13 14  1  0
 14 15  1  0
 14 16  1  0
 16 17  1  0
  7 18  1  0
 18 19  2  0
 19 20  1  0
 20 21  2  0
 21 22  1  0
 22 23  1  0
 23 24  1  0
 24 25  1  0
 24 26  2  0
 26 27  1  0
 27 28  2  0
 27 29  1  0
 29 30  1  0
 19  4  1  0
 30 20  1  0
 17 11  1  0
 29 22  2  0
  1 31  1  0
  1 32  1  0
  1 33  1  0
  2 34  1  0
  2 35  1  0
  5 36  1  0
  6 37  1  0
 11 38  1  0
 12 39  1  0
 12 40  1  0
 13 41  1  0
 13 42  1  0
 15 43  1  0
 15 44  1  0
 15 45  1  0
 16 46  1  0
 16 47  1  0
 17 48  1  0
 17 49  1  0
 18 50  1  0
 26 51  1  0
M  CHG  4  11   1  23  -1  25  -1  30  -1
M  END
>  <UniqueID>  (18) 
18

>  <SMILES>  (18) 
CCOc1ccc(S(=O)(=O)[NH+]2CCN(C)CC2)cc1-c1nc2[n-]c([O-])cc(=O)c2[n-]1

>  <Energy>  (18) 
102.18458993305693

>  <Genealogy>  (18) 
CCOc1ccc(S(=O)(=O)[NH+]2CCN(C)CC2)cc1-c1nc2[n-]c([O-])cc(=O)c2[n-]1 (protonated)
CCOc1ccc(S(=O)(=O)[NH+]2CCN(C)CC2)cc1-c1nc2[n-]c([O-])cc(=O)c2[n-]1 (3D coordinates assigned)
CCOc1ccc(S(=O)(=O)[NH+]2CCN(C)CC2)cc1-c1nc2[n-]c([O-])cc(=O)c2[n-]1 (nonaromatic ring conformer: 102.18458993305693 kcal/mol)

>  <smiles>  (18) 
CCOc1ccc(S(=O)(=O)N2CCN(C)CC2)cc1-c1nc2[nH]c(O)cc(=O)c2[nH]1

>  <score_type>  (18) 
oracle

>  <origin>  (18) 
adgpu

>  <m_score__min__energy>  (18) 
-11.859999999999999

>  <m_primary>  (18) 
energy

$$$$
18:0
     RDKit          3D

 43 46  0  0  0  0  0  0  0  0999 V2000
   -1.6130   25.9920  -28.9220 N   0  0  0  0  0  0  0  0  0  0  0  0
   -0.7380   24.8710  -27.9400 S   0  0  0  0  0  0  0  0  0  0  0  0
    0.5760   24.5410  -28.5910 O   0  0  0  0  0  0  0  0  0  0  0  0
   -0.4650   25.5020  -26.6020 O   0  0  0  0  0  0  0  0  0  0  0  0
   -1.6910   23.3950  -27.7390 C   0  0  0  0  0  0  0  0  0  0  0  0
   -1.0560   22.2360  -27.2600 C   0  0  0  0  0  0  0  0  0  0  0  0
   -1.7660   21.0420  -27.1250 C   0  0  0  0  0  0  0  0  0  0  0  0
   -3.1180   20.9920  -27.4610 C   0  0  0  0  0  0  0  0  0  0  0  0
   -3.7660   22.1350  -27.9300 C   0  0  0  0  0  0  0  0  0  0  0  0
   -3.0650   23.3480  -28.0760 C   0  0  0  0  0  0  0  0  0  0  0  0
   -3.7490   24.5170  -28.5590 N   0  0  0  0  0  0  0  0  0  0  0  0
   -4.6880   24.5080  -30.0180 S   0  0  0  0  0  0  0  0  0  0  0  0
   -6.1430   24.6420  -29.6660 O   0  0  0  0  0  0  0  0  0  0  0  0
   -4.2810   25.6700  -30.8800 O   0  0  0  0  0  0  0  0  0  0  0  0
   -4.3960   23.0160  -30.9050 C   0  0  0  0  0  0  0  0  0  0  0  0
   -3.1370   22.7450  -31.4500 C   0  0  0  0  0  0  0  0  0  0  0  0
   -2.9240   21.5730  -32.1800 C   0  0  0  0  0  0  0  0  0  0  0  0
   -3.9700   20.6550  -32.3770 C   0  0  0  0  0  0  0  0  0  0  0  0
   -5.2420   20.9230  -31.8250 C   0  0  0  0  0  0  0  0  0  0  0  0
   -5.4410   22.1010  -31.0870 C   0  0  0  0  0  0  0  0  0  0  0  0
   -6.3550   19.9670  -32.0330 C   0  0  0  0  0  0  0  0  0  0  0  0
   -7.4930   20.2090  -31.5440 O   0  0  0  0  0  0  0  0  0  0  0  0
   -6.1340   18.7280  -32.8160 C   0  0  0  0  0  0  0  0  0  0  0  0
   -7.1840   17.8130  -33.0190 C   0  0  0  0  0  0  0  0  0  0  0  0
   -6.9720   16.6470  -33.7570 C   0  0  0  0  0  0  0  0  0  0  0  0
   -5.7160   16.3810  -34.3000 C   0  0  0  0  0  0  0  0  0  0  0  0
   -4.6640   17.2790  -34.1070 C   0  0  0  0  0  0  0  0  0  0  0  0
   -4.8620   18.4580  -33.3650 C   0  0  0  0  0  0  0  0  0  0  0  0
   -3.7490   19.4160  -33.1580 C   0  0  0  0  0  0  0  0  0  0  0  0
   -2.6120   19.1740  -33.6490 O   0  0  0  0  0  0  0  0  0  0  0  0
   -1.5750   25.6340  -29.9020 H   0  0  0  0  0  0  0  0  0  0  0  0
    0.0096   22.2704  -26.9892 H   0  0  0  0  0  0  0  0  0  0  0  0
   -1.2584   20.1397  -26.7532 H   0  0  0  0  0  0  0  0  0  0  0  0
   -3.6751   20.0493  -27.3561 H   0  0  0  0  0  0  0  0  0  0  0  0
   -4.8343   22.0885  -28.1882 H   0  0  0  0  0  0  0  0  0  0  0  0
   -3.6000   25.4410  -28.0980 H   0  0  0  0  0  0  0  0  0  0  0  0
   -2.3115   23.4571  -31.3034 H   0  0  0  0  0  0  0  0  0  0  0  0
   -1.9301   21.3671  -32.6039 H   0  0  0  0  0  0  0  0  0  0  0  0
   -6.4279   22.3075  -30.6472 H   0  0  0  0  0  0  0  0  0  0  0  0
   -8.1776   18.0178  -32.5937 H   0  0  0  0  0  0  0  0  0  0  0  0
   -7.7978   15.9367  -33.9103 H   0  0  0  0  0  0  0  0  0  0  0  0
   -5.5531   15.4618  -34.8818 H   0  0  0  0  0  0  0  0  0  0  0  0
   -3.6750   17.0634  -34.5375 H   0  0  0  0  0  0  0  0  0  0  0  0
  1  2  1  0
  2  3  2  0
  2  4  2  0
  2  5  1  0
  5  6  2  0
  6  7  1  0
  7  8  2  0
  8  9  1  0
  9 10  2  0
 10 11  1  0
 11 12  1  0
 12 13  2  0
 12 14  2  0
 12 15  1  0
 15 16  2  0
 16 17  1  0
 17 18  2  0
 18 19  1  0
 19 20  2  0
 19 21  1  0
 21 22  2  0
 21 23  1  0
 23 24  2  0
 24 25  1  0
 25 26  2  0
 26 27  1  0
 27 28  2  0
 28 29  1  0
 29 30  2  0
 10  5  1  0
 20 15  1  0
 28 23  1  0
 29 18  1  0
  1 31  1  0
  6 32  1  0
  7 33  1  0
  8 34  1  0
  9 35  1  0
 11 36  1  0
 16 37  1  0
 17 38  1  0
 20 39  1  0
 24 40  1  0
 25 41  1  0
 26 42  1  0
 27 43  1  0
M  CHG  1   1  -1
M  END
>  <UniqueID>  (19) 
19

>  <SMILES>  (19) 
[NH-]S(=O)(=O)c1ccccc1NS(=O)(=O)c1ccc2c(c1)C(=O)c1ccccc1C2=O

>  <Energy>  (19) 
56.74443493087187

>  <Genealogy>  (19) 
[NH-]S(=O)(=O)c1ccccc1NS(=O)(=O)c1ccc2c(c1)C(=O)c1ccccc1C2=O (protonated)
[NH-]S(=O)(=O)c1ccccc1NS(=O)(=O)c1ccc2c(c1)C(=O)c1ccccc1C2=O (3D coordinates assigned)
[NH-]S(=O)(=O)c1ccccc1NS(=O)(=O)c1ccc2c(c1)C(=O)c1ccccc1C2=O (nonaromatic ring conformer: 56.74443493087187 kcal/mol)

>  <smiles>  (19) 
NS(=O)(=O)c1ccccc1NS(=O)(=O)c1ccc2c(c1)C(=O)c1ccccc1C2=O

>  <score_type>  (19) 
oracle

>  <origin>  (19) 
adgpu

>  <m_score__min__energy>  (19) 
-14.07

>  <m_primary>  (19) 
energy

$$$$
19:0
     RDKit          3D

 42 44  0  0  0  0  0  0  0  0999 V2000
   -5.7470   25.6680  -30.1990 C   0  0  0  0  0  0  0  0  0  0  0  0
   -5.9810   24.3660  -30.8960 C   0  0  0  0  0  0  0  0  0  0  0  0
   -7.2450   23.7690  -30.8750 C   0  0  0  0  0  0  0  0  0  0  0  0
   -7.4550   22.5540  -31.5440 C   0  0  0  0  0  0  0  0  0  0  0  0
   -8.8190   21.9170  -31.5210 C   0  0  0  0  0  0  0  0  0  0  0  0
   -6.3810   21.9570  -32.2390 C   0  0  0  0  0  0  0  0  0  0  0  0
   -6.5620   20.7090  -32.9470 C   0  0  0  0  0  0  0  0  0  0  0  0
   -6.7050   19.7090  -33.5140 N   0  0  0  0  0  0  0  0  0  0  0  0
   -5.1250   22.5930  -32.2340 C   0  0  0  0  0  0  0  0  0  0  0  0
   -3.7100   21.8930  -33.0930 S   0  0  0  0  0  0  0  0  0  0  0  0
   -3.2940   20.7600  -31.7290 C   0  0  0  0  0  0  0  0  0  0  0  0
   -2.7270   21.5450  -30.5900 C   0  0  0  0  0  0  0  0  0  0  0  0
   -1.5270   21.3620  -30.2500 O   0  0  0  0  0  0  0  0  0  0  0  0
   -3.5760   22.4280  -29.8400 N   0  0  0  0  0  0  0  0  0  0  0  0
   -3.0990   23.3550  -28.8480 C   0  0  0  0  0  0  0  0  0  0  0  0
   -3.8610   23.6650  -27.7040 C   0  0  0  0  0  0  0  0  0  0  0  0
   -3.3680   24.5550  -26.7450 C   0  0  0  0  0  0  0  0  0  0  0  0
   -2.1080   25.1320  -26.9130 C   0  0  0  0  0  0  0  0  0  0  0  0
   -1.3220   24.7910  -28.0220 C   0  0  0  0  0  0  0  0  0  0  0  0
   -1.8170   23.9120  -28.9890 C   0  0  0  0  0  0  0  0  0  0  0  0
   -0.0410   25.3400  -28.1420 O   0  0  0  0  0  0  0  0  0  0  0  0
    0.5810   26.0100  -27.0430 C   0  0  0  0  0  0  0  0  0  0  0  0
   -0.4550   26.8410  -26.2720 C   0  0  0  0  0  0  0  0  0  0  0  0
   -1.6090   26.0480  -25.9820 O   0  0  0  0  0  0  0  0  0  0  0  0
   -4.9640   23.7700  -31.5740 N   0  0  0  0  0  0  0  0  0  0  0  0
   -5.7751   25.5115  -29.1106 H   0  0  0  0  0  0  0  0  0  0  0  0
   -4.7629   26.0663  -30.4868 H   0  0  0  0  0  0  0  0  0  0  0  0
   -6.5308   26.3841  -30.4868 H   0  0  0  0  0  0  0  0  0  0  0  0
   -8.0732   24.2511  -30.3349 H   0  0  0  0  0  0  0  0  0  0  0  0
   -9.1368   21.7686  -30.4784 H   0  0  0  0  0  0  0  0  0  0  0  0
   -9.5384   22.5723  -32.0339 H   0  0  0  0  0  0  0  0  0  0  0  0
   -8.7783   20.9447  -32.0339 H   0  0  0  0  0  0  0  0  0  0  0  0
   -4.2020   20.2351  -31.3975 H   0  0  0  0  0  0  0  0  0  0  0  0
   -2.5529   20.0241  -32.0743 H   0  0  0  0  0  0  0  0  0  0  0  0
   -4.6090   22.3280  -29.9610 H   0  0  0  0  0  0  0  0  0  0  0  0
   -4.8499   23.2039  -27.5646 H   0  0  0  0  0  0  0  0  0  0  0  0
   -3.9723   24.8003  -25.8592 H   0  0  0  0  0  0  0  0  0  0  0  0
   -1.2009   23.6554  -29.8634 H   0  0  0  0  0  0  0  0  0  0  0  0
    1.0243   25.2642  -26.3668 H   0  0  0  0  0  0  0  0  0  0  0  0
    1.3634   26.6804  -27.4282 H   0  0  0  0  0  0  0  0  0  0  0  0
   -0.0098   27.1926  -25.3296 H   0  0  0  0  0  0  0  0  0  0  0  0
   -0.7564   27.7002  -26.8892 H   0  0  0  0  0  0  0  0  0  0  0  0
  1  2  1  0
  2  3  2  0
  3  4  1  0
  4  5  1  0
  4  6  2  0
  6  7  1  0
  7  8  3  0
  6  9  1  0
  9 10  1  0
 10 11  1  0
 11 12  1  0
 12 13  2  0
 12 14  1  0
 14 15  1  0
 15 16  2  0
 16 17  1  0
 17 18  2  0
 18 19  1  0
 19 20  2  0
 19 21  1  0
 21 22  1  0
 22 23  1  0
 23 24  1  0
  9 25  2  0
 25  2  1  0
 20 15  1  0
 24 18  1  0
  1 26  1  0
  1 27  1  0
  1 28  1  0
  3 29  1  0
  5 30  1  0
  5 31  1  0
  5 32  1  0
 11 33  1  0
 11 34  1  0
 14 35  1  0
 16 36  1  0
 17 37  1  0
 20 38  1  0
 22 39  1  0
 22 40  1  0
 23 41  1  0
 23 42  1  0
M  END
>  <UniqueID>  (20) 
20

>  <SMILES>  (20) 
Cc1cc(C)c(C#N)c(SCC(=O)Nc2ccc3c(c2)OCCO3)n1

>  <Energy>  (20) 
42.389582768729205

>  <Genealogy>  (20) 
Cc1cc(C)c(C#N)c(SCC(=O)Nc2ccc3c(c2)OCCO3)n1 (3D coordinates assigned)
Cc1cc(C)c(C#N)c(SCC(=O)Nc2ccc3c(c2)OCCO3)n1 (nonaromatic ring conformer: 42.389582768729205 kcal/mol)

>  <smiles>  (20) 
Cc1cc(C)c(C#N)c(SCC(=O)Nc2ccc3c(c2)OCCO3)n1

>  <score_type>  (20) 
oracle

>  <origin>  (20) 
adgpu

>  <m_score__min__energy>  (20) 
-8.8599999999999994

>  <m_primary>  (20) 
energy

$$$$
20:0
     RDKit          3D

 49 51  0  0  0  0  0  0  0  0999 V2000
   -7.9890   18.5890  -32.4020 C   0  0  0  0  0  0  0  0  0  0  0  0
   -7.1520   19.6970  -33.0320 C   0  0  0  0  0  0  0  0  0  0  0  0
   -7.1630   20.9300  -32.1690 C   0  0  0  0  0  0  0  0  0  0  0  0
   -8.1390   21.0910  -31.1750 C   0  0  0  0  0  0  0  0  0  0  0  0
   -8.1770   22.2580  -30.4080 C   0  0  0  0  0  0  0  0  0  0  0  0
   -7.2410   23.2710  -30.6260 C   0  0  0  0  0  0  0  0  0  0  0  0
   -6.2510   23.1220  -31.6050 C   0  0  0  0  0  0  0  0  0  0  0  0
   -5.3190   24.1920  -31.8160 N   0  0  0  0  0  0  0  0  0  0  0  0
   -4.9930   25.2180  -30.8740 C   0  0  0  0  0  0  0  0  0  0  0  0
   -5.8750   26.0590  -30.5590 O   0  0  0  0  0  0  0  0  0  0  0  0
   -3.6810   25.2850  -30.2960 N   0  0  0  0  0  0  0  0  0  0  0  0
   -3.1570   24.4620  -29.2420 C   0  0  0  0  0  0  0  0  0  0  0  0
   -3.9050   23.3990  -28.7060 C   0  0  0  0  0  0  0  0  0  0  0  0
   -3.3700   22.6010  -27.6950 C   0  0  0  0  0  0  0  0  0  0  0  0
   -2.0810   22.8370  -27.2230 C   0  0  0  0  0  0  0  0  0  0  0  0
   -1.3010   23.8670  -27.7680 C   0  0  0  0  0  0  0  0  0  0  0  0
    0.3500   24.1060  -27.1670 S   0  0  0  0  0  0  0  0  0  0  0  0
    0.8900   22.8140  -26.6210 O   0  0  0  0  0  0  0  0  0  0  0  0
    1.2310   24.5220  -28.3130 O   0  0  0  0  0  0  0  0  0  0  0  0
    0.4150   25.3330  -25.9220 N   0  0  0  0  0  0  0  0  0  0  0  0
   -0.1050   24.8060  -24.6460 C   0  0  0  0  0  0  0  0  0  0  0  0
   -0.4880   25.9590  -23.7040 C   0  0  0  0  0  0  0  0  0  0  0  0
   -1.4910   26.8260  -24.2230 O   0  0  0  0  0  0  0  0  0  0  0  0
   -1.6010   26.7930  -25.6390 C   0  0  0  0  0  0  0  0  0  0  0  0
   -0.2490   26.5850  -26.3460 C   0  0  0  0  0  0  0  0  0  0  0  0
   -1.8420   24.6850  -28.7830 C   0  0  0  0  0  0  0  0  0  0  0  0
   -1.0680   25.7150  -29.3230 O   0  0  0  0  0  0  0  0  0  0  0  0
   -6.2340   21.9600  -32.3970 C   0  0  0  0  0  0  0  0  0  0  0  0
   -7.9320   18.6645  -31.3061 H   0  0  0  0  0  0  0  0  0  0  0  0
   -9.0361   18.6930  -32.7227 H   0  0  0  0  0  0  0  0  0  0  0  0
   -7.6028   17.6103  -32.7227 H   0  0  0  0  0  0  0  0  0  0  0  0
   -6.1159   19.3458  -33.1464 H   0  0  0  0  0  0  0  0  0  0  0  0
   -7.5808   19.9489  -34.0131 H   0  0  0  0  0  0  0  0  0  0  0  0
   -8.8776   20.2952  -30.9985 H   0  0  0  0  0  0  0  0  0  0  0  0
   -8.9459   22.3791  -29.6307 H   0  0  0  0  0  0  0  0  0  0  0  0
   -7.2816   24.1915  -30.0251 H   0  0  0  0  0  0  0  0  0  0  0  0
   -4.9171   23.1957  -29.0859 H   0  0  0  0  0  0  0  0  0  0  0  0
   -3.9683   21.7822  -27.2688 H   0  0  0  0  0  0  0  0  0  0  0  0
   -1.6718   22.2107  -26.4166 H   0  0  0  0  0  0  0  0  0  0  0  0
   -0.9944   24.1898  -24.8443 H   0  0  0  0  0  0  0  0  0  0  0  0
    0.6771   24.1992  -24.1663 H   0  0  0  0  0  0  0  0  0  0  0  0
   -0.8583   25.5272  -22.7625 H   0  0  0  0  0  0  0  0  0  0  0  0
    0.4170   26.5687  -23.5653 H   0  0  0  0  0  0  0  0  0  0  0  0
   -2.2727   25.9680  -25.9187 H   0  0  0  0  0  0  0  0  0  0  0  0
   -1.9918   27.7698  -25.9601 H   0  0  0  0  0  0  0  0  0  0  0  0
   -0.4192   26.5458  -27.4320 H   0  0  0  0  0  0  0  0  0  0  0  0
    0.4075   27.4248  -26.0744 H   0  0  0  0  0  0  0  0  0  0  0  0
   -0.1150   25.5760  -29.6360 H   0  0  0  0  0  0  0  0  0  0  0  0
   -5.4892   21.8565  -33.1998 H   0  0  0  0  0  0  0  0  0  0  0  0
  1  2  1  0
  2  3  1  0
  3  4  2  0
  4  5  1  0
  5  6  2  0
  6  7  1  0
  7  8  1  0
  8  9  1  0
  9 10  2  0
  9 11  1  0
 11 12  1  0
 12 13  2  0
 13 14  1  0
 14 15  2  0
 15 16  1  0
 16 17  1  0
 17 18  2  0
 17 19  2  0
 17 20  1  0
 20 21  1  0
 21 22  1  0
 22 23  1  0
 23 24  1  0
 24 25  1  0
 16 26  2  0
 26 27  1  0
  7 28  2  0
 28  3  1  0
 26 12  1  0
 25 20  1  0
  1 29  1  0
  1 30  1  0
  1 31  1  0
  2 32  1  0
  2 33  1  0
  4 34  1  0
  5 35  1  0
  6 36  1  0
 13 37  1  0
 14 38  1  0
 15 39  1  0
 21 40  1  0
 21 41  1  0
 22 42  1  0
 22 43  1  0
 24 44  1  0
 24 45  1  0
 25 46  1  0
 25 47  1  0
 27 48  1  0
 28 49  1  0
M  CHG  2   8  -1  11  -1
M  END
>  <UniqueID>  (21) 
21

>  <SMILES>  (21) 
CCc1cccc([N-]C(=O)[N-]c2cccc(S(=O)(=O)N3CCOCC3)c2O)c1

>  <Energy>  (21) 
66.63980249249413

>  <Genealogy>  (21) 
CCc1cccc([N-]C(=O)[N-]c2cccc(S(=O)(=O)N3CCOCC3)c2O)c1 (protonated)
CCc1cccc([N-]C(=O)[N-]c2cccc(S(=O)(=O)N3CCOCC3)c2O)c1 (3D coordinates assigned)
CCc1cccc([N-]C(=O)[N-]c2cccc(S(=O)(=O)N3CCOCC3)c2O)c1 (nonaromatic ring conformer: 66.63980249249413 kcal/mol)

>  <smiles>  (21) 
CCc1cccc(NC(=O)Nc2cccc(S(=O)(=O)N3CCOCC3)c2O)c1

>  <score_type>  (21) 
oracle

>  <origin>  (21) 
adgpu

>  <m_score__min__energy>  (21) 
-12.84

>  <m_primary>  (21) 
energy

$$$$
21:0
     RDKit          3D

 39 41  0  0  0  0  0  0  0  0999 V2000
   -6.8159   24.2425  -31.8283 H   0  0  0  0  0  0  0  0  0  0  0  0
   -5.8330   24.1830  -31.3380 C   0  0  0  0  0  0  0  0  0  0  0  0
   -5.1410   25.3740  -30.3710 S   0  0  0  0  0  0  0  0  0  0  0  0
   -3.7530   24.4790  -30.0900 C   0  0  0  0  0  0  0  0  0  0  0  0
   -2.7650   24.8980  -29.3570 N   0  0  0  0  0  0  0  0  0  0  0  0
   -1.5510   24.1840  -29.0800 C   0  0  0  0  0  0  0  0  0  0  0  0
   -0.4920   24.4600  -29.7070 O   0  0  0  0  0  0  0  0  0  0  0  0
   -1.5420   23.1170  -28.0540 C   0  0  0  0  0  0  0  0  0  0  0  0
   -1.2870   23.2240  -26.6910 C   0  0  0  0  0  0  0  0  0  0  0  0
   -0.9140   24.4550  -25.9160 C   0  0  0  0  0  0  0  0  0  0  0  0
   -1.0900   24.2741  -24.8453 H   0  0  0  0  0  0  0  0  0  0  0  0
   -1.5311   25.2943  -26.2692 H   0  0  0  0  0  0  0  0  0  0  0  0
    0.5550   24.8050  -26.1290 C   0  0  0  0  0  0  0  0  0  0  0  0
    1.0491   24.9227  -25.1533 H   0  0  0  0  0  0  0  0  0  0  0  0
    1.0459   23.9987  -26.6937 H   0  0  0  0  0  0  0  0  0  0  0  0
    0.6296   25.7461  -26.6937 H   0  0  0  0  0  0  0  0  0  0  0  0
   -1.3560   22.0020  -26.1270 N   0  0  0  0  0  0  0  0  0  0  0  0
   -1.6540   21.1580  -27.0700 O   0  0  0  0  0  0  0  0  0  0  0  0
   -1.7760   21.7600  -28.2300 C   0  0  0  0  0  0  0  0  0  0  0  0
   -2.1080   21.0440  -29.4990 C   0  0  0  0  0  0  0  0  0  0  0  0
   -2.5599   20.0694  -29.2626 H   0  0  0  0  0  0  0  0  0  0  0  0
   -2.8190   21.6456  -30.0842 H   0  0  0  0  0  0  0  0  0  0  0  0
   -1.1894   20.8900  -30.0842 H   0  0  0  0  0  0  0  0  0  0  0  0
   -3.7870   23.2820  -30.7140 N   0  0  0  0  0  0  0  0  0  0  0  0
   -4.9440   23.1030  -31.4120 C   0  0  0  0  0  0  0  0  0  0  0  0
   -5.1960   21.8580  -32.1840 C   0  0  0  0  0  0  0  0  0  0  0  0
   -6.5180   21.4200  -32.3920 C   0  0  0  0  0  0  0  0  0  0  0  0
   -7.3552   22.0030  -31.9808 H   0  0  0  0  0  0  0  0  0  0  0  0
   -6.7780   20.2530  -33.1150 C   0  0  0  0  0  0  0  0  0  0  0  0
   -7.8167   19.9275  -33.2737 H   0  0  0  0  0  0  0  0  0  0  0  0
   -5.7220   19.4950  -33.6390 C   0  0  0  0  0  0  0  0  0  0  0  0
   -6.0020   18.2650  -34.4500 C   0  0  0  0  0  0  0  0  0  0  0  0
   -6.1949   17.4174  -33.7759 H   0  0  0  0  0  0  0  0  0  0  0  0
   -6.8840   18.4370  -35.0845 H   0  0  0  0  0  0  0  0  0  0  0  0
   -5.1325   18.0383  -35.0845 H   0  0  0  0  0  0  0  0  0  0  0  0
   -4.4040   19.9370  -33.4590 C   0  0  0  0  0  0  0  0  0  0  0  0
   -3.5709   19.3623  -33.8899 H   0  0  0  0  0  0  0  0  0  0  0  0
   -4.1420   21.1040  -32.7350 C   0  0  0  0  0  0  0  0  0  0  0  0
   -3.1028   21.4363  -32.5945 H   0  0  0  0  0  0  0  0  0  0  0  0
  1  2  1  0
  2  3  1  0
  3  4  1  0
  4  5  2  0
  5  6  1  0
  6  7  2  0
  6  8  1  0
  8  9  1  0
  9 10  1  0
 10 11  1  0
 10 12  1  0
 10 13  1  0
 13 14  1  0
 13 15  1  0
 13 16  1  0
  9 17  2  0
 17 18  1  0
 18 19  1  0
 19 20  1  0
 20 21  1  0
 20 22  1  0
 20 23  1  0
  4 24  1  0
 24 25  1  0
 25 26  1  0
 26 27  2  0
 27 28  1  0
 27 29  1  0
 29 30  1  0
 29 31  2  0
 31 32  1  0
 32 33  1  0
 32 34  1  0
 32 35  1  0
 31 36  1  0
 36 37  1  0
 36 38  2  0
 38 39  1  0
 25  2  2  0
 38 26  1  0
 19  8  2  0
M  CHG  1  24  -1
M  END
>  <UniqueID>  (22) 
22

>  <SMILES>  (22) 
CCc1noc(C)c1C(=O)/N=c1\[n-]c(-c2ccc(C)cc2)cs1

>  <Energy>  (22) 
101.3720520162147

>  <Genealogy>  (22) 
CCc1noc(C)c1C(=O)N=c1[n-]c(-c2ccc(C)cc2)cs1 (protonated)
CCc1noc(C)c1C(=O)/N=c1\[n-]c(-c2ccc(C)cc2)cs1 (cis-trans isomerization)
CCc1noc(C)c1C(=O)/N=c1\[n-]c(-c2ccc(C)cc2)cs1 (3D coordinates assigned)
CCc1noc(C)c1C(=O)/N=c1\[n-]c(-c2ccc(C)cc2)cs1 (optimized conformer: 101.3720520162147 kcal/mol)

>  <smiles>  (22) 
CCc1noc(C)c1C(=O)N=c1[nH]c(-c2ccc(C)cc2)cs1

>  <score_type>  (22) 
oracle

>  <origin>  (22) 
adgpu

>  <m_score__min__energy>  (22) 
-8.8800000000000008

>  <m_primary>  (22) 
energy

$$$$
22:0
     RDKit          3D

 55 58  0  0  0  0  0  0  0  0999 V2000
   -3.8700   17.0990  -35.0810 C   0  0  0  0  0  0  0  0  0  0  0  0
   -4.1520   17.5310  -33.7020 N   0  0  0  0  0  0  0  0  0  0  0  0
   -5.0350   16.5990  -32.9820 C   0  0  0  0  0  0  0  0  0  0  0  0
   -6.4970   16.6770  -33.4570 C   0  0  0  0  0  0  0  0  0  0  0  0
   -7.0220   18.0530  -33.5100 N   0  0  0  0  0  0  0  0  0  0  0  0
   -7.7680   18.5950  -32.0220 S   0  0  0  0  0  0  0  0  0  0  0  0
   -6.9930   18.0480  -30.8540 O   0  0  0  0  0  0  0  0  0  0  0  0
   -9.1610   18.0350  -31.9410 O   0  0  0  0  0  0  0  0  0  0  0  0
   -7.8540   20.3500  -31.8730 C   0  0  0  0  0  0  0  0  0  0  0  0
   -9.0620   21.0200  -32.1130 C   0  0  0  0  0  0  0  0  0  0  0  0
   -9.1340   22.4080  -31.9730 C   0  0  0  0  0  0  0  0  0  0  0  0
   -8.0050   23.1350  -31.5850 C   0  0  0  0  0  0  0  0  0  0  0  0
   -6.7960   22.4710  -31.3340 C   0  0  0  0  0  0  0  0  0  0  0  0
   -5.3740   23.3710  -30.8210 S   0  0  0  0  0  0  0  0  0  0  0  0
   -5.4650   23.6950  -29.3550 O   0  0  0  0  0  0  0  0  0  0  0  0
   -5.2920   24.6650  -31.5820 O   0  0  0  0  0  0  0  0  0  0  0  0
   -3.9420   22.3970  -31.1280 C   0  0  0  0  0  0  0  0  0  0  0  0
   -3.1240   21.9930  -30.0650 C   0  0  0  0  0  0  0  0  0  0  0  0
   -1.9940   21.2040  -30.3040 C   0  0  0  0  0  0  0  0  0  0  0  0
   -1.6740   20.8030  -31.6150 C   0  0  0  0  0  0  0  0  0  0  0  0
   -2.5170   21.1870  -32.6740 C   0  0  0  0  0  0  0  0  0  0  0  0
   -3.6380   21.9870  -32.4320 C   0  0  0  0  0  0  0  0  0  0  0  0
   -2.2300   20.7670  -33.9770 O   0  0  0  0  0  0  0  0  0  0  0  0
   -1.2610   19.7510  -34.2370 C   0  0  0  0  0  0  0  0  0  0  0  0
   -0.0530   19.9250  -33.3150 C   0  0  0  0  0  0  0  0  0  0  0  0
   -0.4980   20.0150  -31.9150 N   0  0  0  0  0  0  0  0  0  0  0  0
    0.2450   19.3170  -30.8620 C   0  0  0  0  0  0  0  0  0  0  0  0
   -6.7290   21.0780  -31.4620 C   0  0  0  0  0  0  0  0  0  0  0  0
   -6.1120   19.0380  -34.1200 C   0  0  0  0  0  0  0  0  0  0  0  0
   -4.6600   18.9110  -33.6300 C   0  0  0  0  0  0  0  0  0  0  0  0
   -3.2688   16.1780  -35.0610 H   0  0  0  0  0  0  0  0  0  0  0  0
   -4.8173   16.9072  -35.6061 H   0  0  0  0  0  0  0  0  0  0  0  0
   -3.3132   17.8891  -35.6061 H   0  0  0  0  0  0  0  0  0  0  0  0
   -4.6681   15.5741  -33.1399 H   0  0  0  0  0  0  0  0  0  0  0  0
   -5.0164   16.8791  -31.9184 H   0  0  0  0  0  0  0  0  0  0  0  0
   -6.5601   16.2406  -34.4647 H   0  0  0  0  0  0  0  0  0  0  0  0
   -7.1060   16.1247  -32.7262 H   0  0  0  0  0  0  0  0  0  0  0  0
   -9.9549   20.4515  -32.4122 H   0  0  0  0  0  0  0  0  0  0  0  0
  -10.0820   22.9304  -32.1687 H   0  0  0  0  0  0  0  0  0  0  0  0
   -8.0651   24.2280  -31.4766 H   0  0  0  0  0  0  0  0  0  0  0  0
   -3.3715   22.2977  -29.0374 H   0  0  0  0  0  0  0  0  0  0  0  0
   -1.3532   20.8958  -29.4647 H   0  0  0  0  0  0  0  0  0  0  0  0
   -4.2828   22.2951  -33.2682 H   0  0  0  0  0  0  0  0  0  0  0  0
   -1.7133   18.7639  -34.0609 H   0  0  0  0  0  0  0  0  0  0  0  0
   -0.9290   19.8308  -35.2826 H   0  0  0  0  0  0  0  0  0  0  0  0
    0.6196   19.0621  -33.4288 H   0  0  0  0  0  0  0  0  0  0  0  0
    0.4779   20.8496  -33.5856 H   0  0  0  0  0  0  0  0  0  0  0  0
   -0.1122   19.6526  -29.8772 H   0  0  0  0  0  0  0  0  0  0  0  0
    0.0875   18.2327  -30.9592 H   0  0  0  0  0  0  0  0  0  0  0  0
    1.3174   19.5419  -30.9592 H   0  0  0  0  0  0  0  0  0  0  0  0
   -5.7887   20.5526  -31.2389 H   0  0  0  0  0  0  0  0  0  0  0  0
   -6.1258   18.8971  -35.2109 H   0  0  0  0  0  0  0  0  0  0  0  0
   -6.4685   20.0362  -33.8260 H   0  0  0  0  0  0  0  0  0  0  0  0
   -4.0212   19.5536  -34.2537 H   0  0  0  0  0  0  0  0  0  0  0  0
   -4.6391   19.2168  -32.5736 H   0  0  0  0  0  0  0  0  0  0  0  0
  1  2  1  0
  2  3  1  0
  3  4  1  0
  4  5  1  0
  5  6  1  0
  6  7  2  0
  6  8  2  0
  6  9  1  0
  9 10  2  0
 10 11  1  0
 11 12  2  0
 12 13  1  0
 13 14  1  0
 14 15  2  0
 14 16  2  0
 14 17  1  0
 17 18  2  0
 18 19  1  0
 19 20  2  0
 20 21  1  0
 21 22  2  0
 21 23  1  0
 23 24  1  0
 24 25  1  0
 25 26  1  0
 26 27  1  0
 13 28  2  0
  5 29  1  0
 29 30  1  0
 30  2  1  0
 28  9  1  0
 22 17  1  0
 26 20  1  0
  1 31  1  0
  1 32  1  0
  1 33  1  0
  3 34  1  0
  3 35  1  0
  4 36  1  0
  4 37  1  0
 10 38  1  0
 11 39  1  0
 12 40  1  0
 18 41  1  0
 19 42  1  0
 22 43  1  0
 24 44  1  0
 24 45  1  0
 25 46  1  0
 25 47  1  0
 27 48  1  0
 27 49  1  0
 27 50  1  0
 28 51  1  0
 29 52  1  0
 29 53  1  0
 30 54  1  0
 30 55  1  0
M  END
>  <UniqueID>  (23) 
23

>  <SMILES>  (23) 
CN1CCN(S(=O)(=O)c2cccc(S(=O)(=O)c3ccc4c(c3)OCCN4C)c2)CC1

>  <Energy>  (23) 
67.11014955120373

>  <Genealogy>  (23) 
CN1CCN(S(=O)(=O)c2cccc(S(=O)(=O)c3ccc4c(c3)OCCN4C)c2)CC1 (3D coordinates assigned)
CN1CCN(S(=O)(=O)c2cccc(S(=O)(=O)c3ccc4c(c3)OCCN4C)c2)CC1 (nonaromatic ring conformer: 67.11014955120373 kcal/mol)

>  <smiles>  (23) 
CN1CCN(S(=O)(=O)c2cccc(S(=O)(=O)c3ccc4c(c3)OCCN4C)c2)CC1

>  <score_type>  (23) 
oracle

>  <origin>  (23) 
adgpu

>  <m_score__min__energy>  (23) 
-10.279999999999999

>  <m_primary>  (23) 
energy

$$$$
23:0
     RDKit          3D

 61 65  0  0  0  0  0  0  0  0999 V2000
    1.5040   19.2200  -31.3980 C   0  0  0  0  0  0  0  0  0  0  0  0
    1.0500   19.8450  -32.6520 N   0  0  0  0  0  0  0  0  0  0  0  0
    0.2380   21.0600  -32.3620 C   0  0  0  0  0  0  0  0  0  0  0  0
   -0.7670   21.3860  -33.4740 C   0  0  0  0  0  0  0  0  0  0  0  0
   -1.6560   20.1950  -33.6650 C   0  0  0  0  0  0  0  0  0  0  0  0
   -3.0370   20.3270  -33.8440 C   0  0  0  0  0  0  0  0  0  0  0  0
   -3.8430   19.1820  -33.9540 C   0  0  0  0  0  0  0  0  0  0  0  0
   -5.2430   19.3080  -34.2020 N   0  0  0  0  0  0  0  0  0  0  0  0
   -6.3120   19.7550  -32.9130 S   0  0  0  0  0  0  0  0  0  0  0  0
   -7.4470   20.5700  -33.4610 O   0  0  0  0  0  0  0  0  0  0  0  0
   -6.8710   18.5270  -32.2490 O   0  0  0  0  0  0  0  0  0  0  0  0
   -5.3900   20.7190  -31.7630 C   0  0  0  0  0  0  0  0  0  0  0  0
   -4.2720   20.1660  -31.1180 C   0  0  0  0  0  0  0  0  0  0  0  0
   -3.4940   20.9880  -30.3030 C   0  0  0  0  0  0  0  0  0  0  0  0
   -3.7960   22.3120  -30.1090 C   0  0  0  0  0  0  0  0  0  0  0  0
   -4.8580   22.9200  -30.8150 C   0  0  0  0  0  0  0  0  0  0  0  0
   -5.0480   24.3820  -30.8760 C   0  0  0  0  0  0  0  0  0  0  0  0
   -3.9240   25.2580  -30.8400 N   0  0  0  0  0  0  0  0  0  0  0  0
   -6.1970   24.8650  -31.0520 O   0  0  0  0  0  0  0  0  0  0  0  0
   -5.6740   22.0900  -31.6150 C   0  0  0  0  0  0  0  0  0  0  0  0
   -2.8850   22.9180  -29.1940 N   0  0  0  0  0  0  0  0  0  0  0  0
   -3.4200   23.9130  -27.8610 S   0  0  0  0  0  0  0  0  0  0  0  0
   -4.0750   23.0470  -26.8230 O   0  0  0  0  0  0  0  0  0  0  0  0
   -4.4280   24.9230  -28.3310 O   0  0  0  0  0  0  0  0  0  0  0  0
   -2.0560   24.7960  -27.1660 C   0  0  0  0  0  0  0  0  0  0  0  0
   -1.7320   24.6490  -25.8090 C   0  0  0  0  0  0  0  0  0  0  0  0
   -0.6210   25.3060  -25.2780 C   0  0  0  0  0  0  0  0  0  0  0  0
    0.1670   26.1330  -26.0910 C   0  0  0  0  0  0  0  0  0  0  0  0
    1.2730   26.8000  -25.5710 O   0  0  0  0  0  0  0  0  0  0  0  0
   -0.1610   26.2930  -27.4410 C   0  0  0  0  0  0  0  0  0  0  0  0
   -1.2680   25.6290  -27.9810 C   0  0  0  0  0  0  0  0  0  0  0  0
   -1.5740   25.7970  -29.3260 O   0  0  0  0  0  0  0  0  0  0  0  0
   -1.7740   21.9760  -29.0190 C   0  0  0  0  0  0  0  0  0  0  0  0
   -2.2540   20.6220  -29.5770 C   0  0  0  0  0  0  0  0  0  0  0  0
   -3.2580   17.9080  -33.8930 C   0  0  0  0  0  0  0  0  0  0  0  0
   -4.0480   16.7660  -34.0040 O   0  0  0  0  0  0  0  0  0  0  0  0
   -1.8710   17.7810  -33.7470 C   0  0  0  0  0  0  0  0  0  0  0  0
   -1.0690   18.9260  -33.6310 C   0  0  0  0  0  0  0  0  0  0  0  0
    0.4350   18.8340  -33.5610 C   0  0  0  0  0  0  0  0  0  0  0  0
    1.0981   19.7788  -30.5419 H   0  0  0  0  0  0  0  0  0  0  0  0
    1.1498   18.1794  -31.3578 H   0  0  0  0  0  0  0  0  0  0  0  0
    2.6032   19.2350  -31.3578 H   0  0  0  0  0  0  0  0  0  0  0  0
   -0.3155   20.8969  -31.4255 H   0  0  0  0  0  0  0  0  0  0  0  0
    0.9319   21.9100  -32.2848 H   0  0  0  0  0  0  0  0  0  0  0  0
   -1.3709   22.2591  -33.1860 H   0  0  0  0  0  0  0  0  0  0  0  0
   -0.2368   21.6185  -34.4093 H   0  0  0  0  0  0  0  0  0  0  0  0
   -3.4916   21.3272  -33.8986 H   0  0  0  0  0  0  0  0  0  0  0  0
   -4.0148   19.1050  -31.2529 H   0  0  0  0  0  0  0  0  0  0  0  0
   -3.6060   25.6720  -29.9340 H   0  0  0  0  0  0  0  0  0  0  0  0
   -6.5448   22.5214  -32.1304 H   0  0  0  0  0  0  0  0  0  0  0  0
   -2.3552   24.0143  -25.1618 H   0  0  0  0  0  0  0  0  0  0  0  0
   -0.3624   25.1744  -24.2169 H   0  0  0  0  0  0  0  0  0  0  0  0
    1.3500   27.0180  -24.5870 H   0  0  0  0  0  0  0  0  0  0  0  0
    0.4536   26.9433  -28.0808 H   0  0  0  0  0  0  0  0  0  0  0  0
   -0.8903   22.3237  -29.5742 H   0  0  0  0  0  0  0  0  0  0  0  0
   -1.4890   21.8905  -27.9600 H   0  0  0  0  0  0  0  0  0  0  0  0
   -1.5086   20.1878  -30.2595 H   0  0  0  0  0  0  0  0  0  0  0  0
   -2.4131   19.8614  -28.7984 H   0  0  0  0  0  0  0  0  0  0  0  0
   -1.4101   16.7825  -33.7233 H   0  0  0  0  0  0  0  0  0  0  0  0
    0.7064   17.8307  -33.2008 H   0  0  0  0  0  0  0  0  0  0  0  0
    0.8193   19.0312  -34.5726 H   0  0  0  0  0  0  0  0  0  0  0  0
  1  2  1  0
  2  3  1  0
  3  4  1  0
  4  5  1  0
  5  6  2  0
  6  7  1  0
  7  8  1  0
  8  9  1  0
  9 10  2  0
  9 11  2  0
  9 12  1  0
 12 13  2  0
 13 14  1  0
 14 15  2  0
 15 16  1  0
 16 17  1  0
 17 18  1  0
 17 19  2  0
 16 20  2  0
 15 21  1  0
 21 22  1  0
 22 23  2  0
 22 24  2  0
 22 25  1  0
 25 26  2  0
 26 27  1  0
 27 28  2  0
 28 29  1  0
 28 30  1  0
 30 31  2  0
 31 32  1  0
 21 33  1  0
 33 34  1  0
  7 35  2  0
 35 36  1  0
 35 37  1  0
 37 38  2  0
 38 39  1  0
 39  2  1  0
 38  5  1  0
 20 12  1  0
 31 25  1  0
 34 14  1  0
  1 40  1  0
  1 41  1  0
  1 42  1  0
  3 43  1  0
  3 44  1  0
  4 45  1  0
  4 46  1  0
  6 47  1  0
 13 48  1  0
 18 49  1  0
 20 50  1  0
 26 51  1  0
 27 52  1  0
 29 53  1  0
 30 54  1  0
 33 55  1  0
 33 56  1  0
 34 57  1  0
 34 58  1  0
 37 59  1  0
 39 60  1  0
 39 61  1  0
M  CHG  4   8  -1  18  -1  32  -1  36  -1
M  END
>  <UniqueID>  (24) 
24

>  <SMILES>  (24) 
CN1CCc2cc([N-]S(=O)(=O)c3cc4c(c(C([NH-])=O)c3)N(S(=O)(=O)c3ccc(O)cc3[O-])CC4)c([O-])cc2C1

>  <Energy>  (24) 
108.05155933928913

>  <Genealogy>  (24) 
CN1CCc2cc([N-]S(=O)(=O)c3cc4c(c(C([NH-])=O)c3)N(S(=O)(=O)c3ccc(O)cc3[O-])CC4)c([O-])cc2C1 (protonated)
CN1CCc2cc([N-]S(=O)(=O)c3cc4c(c(C([NH-])=O)c3)N(S(=O)(=O)c3ccc(O)cc3[O-])CC4)c([O-])cc2C1 (3D coordinates assigned)
CN1CCc2cc([N-]S(=O)(=O)c3cc4c(c(C([NH-])=O)c3)N(S(=O)(=O)c3ccc(O)cc3[O-])CC4)c([O-])cc2C1 (nonaromatic ring conformer: 108.05155933928913 kcal/mol)

>  <smiles>  (24) 
CN1CCc2cc(NS(=O)(=O)c3cc4c(c(C(N)=O)c3)N(S(=O)(=O)c3ccc(O)cc3O)CC4)c(O)cc2C1

>  <score_type>  (24) 
oracle

>  <origin>  (24) 
adgpu

>  <m_score__min__energy>  (24) 
-15.74

>  <m_primary>  (24) 
energy

$$$$
24:0
     RDKit          3D

 23 23  0  0  0  0  0  0  0  0999 V2000
   -1.9810   19.4230  -27.0580 C   0  0  0  0  0  0  0  0  0  0  0  0
   -2.6260   20.2120  -27.9220 C   0  0  0  0  0  0  0  0  0  0  0  0
   -1.9750   20.6960  -29.1880 C   0  0  0  0  0  0  0  0  0  0  0  0
   -1.7480   22.1830  -29.1360 C   0  0  0  0  0  0  0  0  0  0  0  0
   -0.5910   22.7060  -28.5400 C   0  0  0  0  0  0  0  0  0  0  0  0
   -0.3890   24.0880  -28.4650 C   0  0  0  0  0  0  0  0  0  0  0  0
    0.7770   24.5500  -27.8680 O   0  0  0  0  0  0  0  0  0  0  0  0
   -1.3610   24.9760  -28.9900 C   0  0  0  0  0  0  0  0  0  0  0  0
   -1.2390   26.3780  -28.9580 O   0  0  0  0  0  0  0  0  0  0  0  0
   -0.7760   27.1550  -27.8600 C   0  0  0  0  0  0  0  0  0  0  0  0
   -2.5190   24.4440  -29.5750 C   0  0  0  0  0  0  0  0  0  0  0  0
   -3.4900   25.2950  -30.0910 O   0  0  0  0  0  0  0  0  0  0  0  0
   -2.7140   23.0620  -29.6450 C   0  0  0  0  0  0  0  0  0  0  0  0
   -2.4844   19.0853  -26.1401 H   0  0  0  0  0  0  0  0  0  0  0  0
   -0.9466   19.1111  -27.2646 H   0  0  0  0  0  0  0  0  0  0  0  0
   -3.6601   20.5154  -27.7015 H   0  0  0  0  0  0  0  0  0  0  0  0
   -1.0077   20.1875  -29.3136 H   0  0  0  0  0  0  0  0  0  0  0  0
   -2.6388   20.4695  -30.0354 H   0  0  0  0  0  0  0  0  0  0  0  0
    0.1654   22.0222  -28.1273 H   0  0  0  0  0  0  0  0  0  0  0  0
   -1.0664   26.6676  -26.9176 H   0  0  0  0  0  0  0  0  0  0  0  0
    0.3198   27.2393  -27.9067 H   0  0  0  0  0  0  0  0  0  0  0  0
   -1.2233   28.1588  -27.9067 H   0  0  0  0  0  0  0  0  0  0  0  0
   -3.6309   22.6616  -30.1022 H   0  0  0  0  0  0  0  0  0  0  0  0
  1  2  2  0
  2  3  1  0
  3  4  1  0
  4  5  2  0
  5  6  1  0
  6  7  1  0
  6  8  2  0
  8  9  1  0
  9 10  1  0
  8 11  1  0
 11 12  1  0
 11 13  2  0
 13  4  1  0
  1 14  1  0
  1 15  1  0
  2 16  1  0
  3 17  1  0
  3 18  1  0
  5 19  1  0
 10 20  1  0
 10 21  1  0
 10 22  1  0
 13 23  1  0
M  CHG  2   7  -1  12  -1
M  END
>  <UniqueID>  (25) 
25

>  <SMILES>  (25) 
C=CCc1cc([O-])c(OC)c([O-])c1

>  <Energy>  (25) 
20.290123744362397

>  <Genealogy>  (25) 
C=CCc1cc([O-])c(OC)c([O-])c1 (protonated)
C=CCc1cc([O-])c(OC)c([O-])c1 (3D coordinates assigned)
C=CCc1cc([O-])c(OC)c([O-])c1 (optimized conformer: 20.290123744362397 kcal/mol)

>  <smiles>  (25) 
C=CCc1cc(O)c(OC)c(O)c1

>  <score_type>  (25) 
oracle

>  <origin>  (25) 
adgpu

>  <m_score__min__energy>  (25) 
-8.4900000000000002

>  <m_primary>  (25) 
energy

$$$$
25:0
     RDKit          3D

 45 47  0  0  0  0  0  0  0  0999 V2000
   -4.4670   25.2710  -31.0520 O   0  0  0  0  0  0  0  0  0  0  0  0
   -5.5370   24.7130  -30.1560 S   0  0  0  0  0  0  0  0  0  0  0  0
   -6.5930   25.7610  -29.9470 O   0  0  0  0  0  0  0  0  0  0  0  0
   -4.8430   24.2750  -28.6270 N   0  0  0  0  0  0  0  0  0  0  0  0
   -3.6600   23.4630  -28.5300 C   0  0  0  0  0  0  0  0  0  0  0  0
   -3.7300   22.1410  -28.0530 C   0  0  0  0  0  0  0  0  0  0  0  0
   -2.5810   21.3480  -27.9910 C   0  0  0  0  0  0  0  0  0  0  0  0
   -2.6890   19.6970  -27.4070 Cl  0  0  0  0  0  0  0  0  0  0  0  0
   -1.3490   21.8710  -28.3900 C   0  0  0  0  0  0  0  0  0  0  0  0
   -1.2640   23.1880  -28.8490 C   0  0  0  0  0  0  0  0  0  0  0  0
   -2.4120   23.9850  -28.9180 C   0  0  0  0  0  0  0  0  0  0  0  0
   -2.3070   25.2890  -29.3870 O   0  0  0  0  0  0  0  0  0  0  0  0
   -6.2150   23.2720  -30.9070 C   0  0  0  0  0  0  0  0  0  0  0  0
   -7.5070   23.2850  -31.4500 C   0  0  0  0  0  0  0  0  0  0  0  0
   -8.0790   22.1040  -31.9290 C   0  0  0  0  0  0  0  0  0  0  0  0
   -7.3630   20.9000  -31.8710 C   0  0  0  0  0  0  0  0  0  0  0  0
   -8.1170   19.3920  -32.3890 S   0  0  0  0  0  0  0  0  0  0  0  0
   -8.4410   18.5560  -31.1820 O   0  0  0  0  0  0  0  0  0  0  0  0
   -9.4050   19.6990  -33.1010 O   0  0  0  0  0  0  0  0  0  0  0  0
   -7.0660   18.4910  -33.4580 N   0  0  0  0  0  0  0  0  0  0  0  0
   -6.4070   17.3900  -32.7210 C   0  0  0  0  0  0  0  0  0  0  0  0
   -5.2250   16.8210  -33.5130 C   0  0  0  0  0  0  0  0  0  0  0  0
   -4.1440   17.8910  -33.7540 C   0  0  0  0  0  0  0  0  0  0  0  0
   -4.6960   19.3240  -33.6670 C   0  0  0  0  0  0  0  0  0  0  0  0
   -6.1370   19.3860  -34.1950 C   0  0  0  0  0  0  0  0  0  0  0  0
   -6.0590   20.8950  -31.3590 C   0  0  0  0  0  0  0  0  0  0  0  0
   -5.4900   22.0750  -30.8730 C   0  0  0  0  0  0  0  0  0  0  0  0
   -5.1840   24.7910  -27.7850 H   0  0  0  0  0  0  0  0  0  0  0  0
   -4.6962   21.7288  -27.7265 H   0  0  0  0  0  0  0  0  0  0  0  0
   -0.4452   21.2458  -28.3429 H   0  0  0  0  0  0  0  0  0  0  0  0
   -0.2915   23.5995  -29.1571 H   0  0  0  0  0  0  0  0  0  0  0  0
   -8.0720   24.2275  -31.4991 H   0  0  0  0  0  0  0  0  0  0  0  0
   -9.0940   22.1187  -32.3529 H   0  0  0  0  0  0  0  0  0  0  0  0
   -6.0416   17.7724  -31.7565 H   0  0  0  0  0  0  0  0  0  0  0  0
   -7.1417   16.5860  -32.5669 H   0  0  0  0  0  0  0  0  0  0  0  0
   -4.7835   15.9870  -32.9477 H   0  0  0  0  0  0  0  0  0  0  0  0
   -5.5959   16.4769  -34.4898 H   0  0  0  0  0  0  0  0  0  0  0  0
   -3.3555   17.7712  -32.9964 H   0  0  0  0  0  0  0  0  0  0  0  0
   -3.7553   17.7464  -34.7728 H   0  0  0  0  0  0  0  0  0  0  0  0
   -4.6820   19.6528  -32.6174 H   0  0  0  0  0  0  0  0  0  0  0  0
   -4.0660   19.9827  -34.2829 H   0  0  0  0  0  0  0  0  0  0  0  0
   -6.4998   20.4203  -34.1022 H   0  0  0  0  0  0  0  0  0  0  0  0
   -6.1178   19.0490  -35.2419 H   0  0  0  0  0  0  0  0  0  0  0  0
   -5.4812   19.9592  -31.3395 H   0  0  0  0  0  0  0  0  0  0  0  0
   -4.4695   22.0633  -30.4625 H   0  0  0  0  0  0  0  0  0  0  0  0
  1  2  2  0
  2  3  2  0
  2  4  1  0
  4  5  1  0
  5  6  2  0
  6  7  1  0
  7  8  1  0
  7  9  2  0
  9 10  1  0
 10 11  2  0
 11 12  1  0
  2 13  1  0
 13 14  2  0
 14 15  1  0
 15 16  2  0
 16 17  1  0
 17 18  2  0
 17 19  2  0
 17 20  1  0
 20 21  1  0
 21 22  1  0
 22 23  1  0
 23 24  1  0
 24 25  1  0
 16 26  1  0
 26 27  2  0
 11  5  1  0
 27 13  1  0
 25 20  1  0
  4 28  1  0
  6 29  1  0
  9 30  1  0
 10 31  1  0
 14 32  1  0
 15 33  1  0
 21 34  1  0
 21 35  1  0
 22 36  1  0
 22 37  1  0
 23 38  1  0
 23 39  1  0
 24 40  1  0
 24 41  1  0
 25 42  1  0
 25 43  1  0
 26 44  1  0
 27 45  1  0
M  CHG  1  12  -1
M  END
>  <UniqueID>  (26) 
26

>  <SMILES>  (26) 
O=S(=O)(Nc1cc(Cl)ccc1[O-])c1ccc(S(=O)(=O)N2CCCCC2)cc1

>  <Energy>  (26) 
51.3597437358858

>  <Genealogy>  (26) 
O=S(=O)(Nc1cc(Cl)ccc1[O-])c1ccc(S(=O)(=O)N2CCCCC2)cc1 (protonated)
O=S(=O)(Nc1cc(Cl)ccc1[O-])c1ccc(S(=O)(=O)N2CCCCC2)cc1 (3D coordinates assigned)
O=S(=O)(Nc1cc(Cl)ccc1[O-])c1ccc(S(=O)(=O)N2CCCCC2)cc1 (nonaromatic ring conformer: 51.3597437358858 kcal/mol)

>  <smiles>  (26) 
O=S(=O)(Nc1cc(Cl)ccc1O)c1ccc(S(=O)(=O)N2CCCCC2)cc1

>  <score_type>  (26) 
oracle

>  <origin>  (26) 
adgpu

>  <m_score__min__energy>  (26) 
-14.44

>  <m_primary>  (26) 
energy

$$$$
26:0
     RDKit          3D

 49 51  0  0  0  0  0  0  0  0999 V2000
   -4.3330   22.3100  -27.4350 O   0  0  0  0  0  0  0  0  0  0  0  0
   -3.6500   22.8540  -28.6590 S   0  0  0  0  0  0  0  0  0  0  0  0
   -2.8110   24.0350  -28.2570 O   0  0  0  0  0  0  0  0  0  0  0  0
   -2.6660   21.6090  -29.3730 N   0  0  0  0  0  0  0  0  0  0  0  0
   -1.3270   22.1100  -29.7160 C   0  0  0  0  0  0  0  0  0  0  0  0
   -0.8590   21.6270  -31.1020 C   0  0  0  0  0  0  0  0  0  0  0  0
   -1.9550   20.9470  -31.8260 N   0  0  0  0  0  0  0  0  0  0  0  0
   -1.4330   20.0280  -32.8650 C   0  0  0  0  0  0  0  0  0  0  0  0
   -2.5390   19.6060  -33.8520 C   0  0  0  0  0  0  0  0  0  0  0  0
   -3.8160   19.8390  -33.2970 O   0  0  0  0  0  0  0  0  0  0  0  0
   -4.0280   21.2330  -33.1560 C   0  0  0  0  0  0  0  0  0  0  0  0
   -2.8560   21.9410  -32.4390 C   0  0  0  0  0  0  0  0  0  0  0  0
   -4.8580   23.3740  -29.8360 C   0  0  0  0  0  0  0  0  0  0  0  0
   -6.0230   22.6170  -30.0260 C   0  0  0  0  0  0  0  0  0  0  0  0
   -6.9830   23.0160  -30.9660 C   0  0  0  0  0  0  0  0  0  0  0  0
   -8.4250   22.0410  -31.2220 S   0  0  0  0  0  0  0  0  0  0  0  0
   -9.3570   22.7420  -32.1720 O   0  0  0  0  0  0  0  0  0  0  0  0
   -9.1480   21.8450  -29.9180 O   0  0  0  0  0  0  0  0  0  0  0  0
   -7.9500   20.4810  -31.8820 C   0  0  0  0  0  0  0  0  0  0  0  0
   -8.5160   19.3000  -31.3800 C   0  0  0  0  0  0  0  0  0  0  0  0
   -8.1500   18.0620  -31.9230 C   0  0  0  0  0  0  0  0  0  0  0  0
   -7.2270   18.0020  -32.9700 C   0  0  0  0  0  0  0  0  0  0  0  0
   -6.6690   19.1790  -33.4790 C   0  0  0  0  0  0  0  0  0  0  0  0
   -7.0300   20.4170  -32.9380 C   0  0  0  0  0  0  0  0  0  0  0  0
   -6.7670   24.1690  -31.7310 C   0  0  0  0  0  0  0  0  0  0  0  0
   -5.6060   24.9230  -31.5500 C   0  0  0  0  0  0  0  0  0  0  0  0
   -4.6490   24.5310  -30.6080 C   0  0  0  0  0  0  0  0  0  0  0  0
   -3.4970   25.2910  -30.4510 O   0  0  0  0  0  0  0  0  0  0  0  0
   -3.1580   21.2450  -30.2220 H   0  0  0  0  0  0  0  0  0  0  0  0
   -1.3496   23.2098  -29.7138 H   0  0  0  0  0  0  0  0  0  0  0  0
   -0.6205   21.7210  -28.9680 H   0  0  0  0  0  0  0  0  0  0  0  0
   -0.5232   22.4938  -31.6902 H   0  0  0  0  0  0  0  0  0  0  0  0
   -0.0349   20.9118  -30.9632 H   0  0  0  0  0  0  0  0  0  0  0  0
   -0.6317   20.5359  -33.4217 H   0  0  0  0  0  0  0  0  0  0  0  0
   -1.0513   19.1245  -32.3669 H   0  0  0  0  0  0  0  0  0  0  0  0
   -2.4366   20.1877  -34.7800 H   0  0  0  0  0  0  0  0  0  0  0  0
   -2.4348   18.5314  -34.0629 H   0  0  0  0  0  0  0  0  0  0  0  0
   -4.1477   21.6745  -34.1564 H   0  0  0  0  0  0  0  0  0  0  0  0
   -4.9293   21.3732  -32.5412 H   0  0  0  0  0  0  0  0  0  0  0  0
   -2.2923   22.5398  -33.1696 H   0  0  0  0  0  0  0  0  0  0  0  0
   -3.2603   22.5919  -31.6498 H   0  0  0  0  0  0  0  0  0  0  0  0
   -6.1844   21.7043  -29.4336 H   0  0  0  0  0  0  0  0  0  0  0  0
   -9.2474   19.3461  -30.5597 H   0  0  0  0  0  0  0  0  0  0  0  0
   -8.5898   17.1358  -31.5246 H   0  0  0  0  0  0  0  0  0  0  0  0
   -6.9391   17.0287  -33.3941 H   0  0  0  0  0  0  0  0  0  0  0  0
   -5.9452   19.1309  -34.3059 H   0  0  0  0  0  0  0  0  0  0  0  0
   -6.5916   21.3417  -33.3415 H   0  0  0  0  0  0  0  0  0  0  0  0
   -7.5136   24.4812  -32.4760 H   0  0  0  0  0  0  0  0  0  0  0  0
   -5.4430   25.8297  -32.1511 H   0  0  0  0  0  0  0  0  0  0  0  0
  1  2  2  0
  2  3  2  0
  2  4  1  0
  4  5  1  0
  5  6  1  0
  6  7  1  0
  7  8  1  0
  8  9  1  0
  9 10  1  0
 10 11  1  0
 11 12  1  0
  2 13  1  0
 13 14  2  0
 14 15  1  0
 15 16  1  0
 16 17  2  0
 16 18  2  0
 16 19  1  0
 19 20  2  0
 20 21  1  0
 21 22  2  0
 22 23  1  0
 23 24  2  0
 15 25  2  0
 25 26  1  0
 26 27  2  0
 27 28  1  0
 12  7  1  0
 27 13  1  0
 24 19  1  0
  4 29  1  0
  5 30  1  0
  5 31  1  0
  6 32  1  0
  6 33  1  0
  8 34  1  0
  8 35  1  0
  9 36  1  0
  9 37  1  0
 11 38  1  0
 11 39  1  0
 12 40  1  0
 12 41  1  0
 14 42  1  0
 20 43  1  0
 21 44  1  0
 22 45  1  0
 23 46  1  0
 24 47  1  0
 25 48  1  0
 26 49  1  0
M  CHG  1  28  -1
M  END
>  <UniqueID>  (27) 
27

>  <SMILES>  (27) 
O=S(=O)(NCCN1CCOCC1)c1cc(S(=O)(=O)c2ccccc2)ccc1[O-]

>  <Energy>  (27) 
62.02101059250099

>  <Genealogy>  (27) 
O=S(=O)(NCCN1CCOCC1)c1cc(S(=O)(=O)c2ccccc2)ccc1[O-] (protonated)
O=S(=O)(NCCN1CCOCC1)c1cc(S(=O)(=O)c2ccccc2)ccc1[O-] (3D coordinates assigned)
O=S(=O)(NCCN1CCOCC1)c1cc(S(=O)(=O)c2ccccc2)ccc1[O-] (nonaromatic ring conformer: 62.02101059250099 kcal/mol)

>  <smiles>  (27) 
O=S(=O)(NCCN1CCOCC1)c1cc(S(=O)(=O)c2ccccc2)ccc1O

>  <score_type>  (27) 
oracle

>  <origin>  (27) 
adgpu

>  <m_score__min__energy>  (27) 
-12.6

>  <m_primary>  (27) 
energy

$$$$
27:0
     RDKit          3D

 38 39  0  0  0  0  0  0  0  0999 V2000
   -3.2290   24.1700  -28.0070 C   0  0  0  0  0  0  0  0  0  0  0  0
   -2.5720   24.6100  -29.3110 C   0  0  0  0  0  0  0  0  0  0  0  0
   -3.5310   25.2980  -30.1710 N   0  0  0  0  0  0  0  0  0  0  0  0
   -4.9000   24.9190  -30.3720 C   0  0  0  0  0  0  0  0  0  0  0  0
   -5.8060   25.6320  -29.8660 O   0  0  0  0  0  0  0  0  0  0  0  0
   -5.2820   23.7340  -31.1640 C   0  0  0  0  0  0  0  0  0  0  0  0
   -6.6280   23.3920  -31.3500 C   0  0  0  0  0  0  0  0  0  0  0  0
   -6.9640   22.2710  -32.1110 C   0  0  0  0  0  0  0  0  0  0  0  0
   -5.9510   21.5040  -32.6910 C   0  0  0  0  0  0  0  0  0  0  0  0
   -6.2890   20.3800  -33.4510 O   0  0  0  0  0  0  0  0  0  0  0  0
   -5.9090   19.0780  -33.1020 C   0  0  0  0  0  0  0  0  0  0  0  0
   -4.5890   18.6200  -33.3170 C   0  0  0  0  0  0  0  0  0  0  0  0
   -3.5320   19.5210  -33.8980 C   0  0  0  0  0  0  0  0  0  0  0  0
   -4.2570   17.2930  -33.0040 C   0  0  0  0  0  0  0  0  0  0  0  0
   -5.2110   16.4380  -32.4430 C   0  0  0  0  0  0  0  0  0  0  0  0
   -4.8600   15.0790  -32.1210 C   0  0  0  0  0  0  0  0  0  0  0  0
   -4.5760   13.9870  -31.8620 N   0  0  0  0  0  0  0  0  0  0  0  0
   -6.5060   16.9030  -32.1910 C   0  0  0  0  0  0  0  0  0  0  0  0
   -6.8580   18.2240  -32.5070 C   0  0  0  0  0  0  0  0  0  0  0  0
   -8.2620   18.7050  -32.2670 C   0  0  0  0  0  0  0  0  0  0  0  0
   -4.6490   21.8700  -32.5250 N   0  0  0  0  0  0  0  0  0  0  0  0
   -4.2970   22.9580  -31.7900 C   0  0  0  0  0  0  0  0  0  0  0  0
   -2.6501   24.5577  -27.1557 H   0  0  0  0  0  0  0  0  0  0  0  0
   -4.2551   24.5637  -27.9623 H   0  0  0  0  0  0  0  0  0  0  0  0
   -3.2556   23.0712  -27.9623 H   0  0  0  0  0  0  0  0  0  0  0  0
   -1.7392   25.2915  -29.0828 H   0  0  0  0  0  0  0  0  0  0  0  0
   -2.2042   23.7173  -29.8381 H   0  0  0  0  0  0  0  0  0  0  0  0
   -7.4196   24.0066  -30.8965 H   0  0  0  0  0  0  0  0  0  0  0  0
   -8.0190   21.9937  -32.2529 H   0  0  0  0  0  0  0  0  0  0  0  0
   -2.9700   20.0001  -33.0827 H   0  0  0  0  0  0  0  0  0  0  0  0
   -2.8442   18.9271  -34.5179 H   0  0  0  0  0  0  0  0  0  0  0  0
   -4.0095   20.2941  -34.5179 H   0  0  0  0  0  0  0  0  0  0  0  0
   -3.2400   16.9230  -33.2011 H   0  0  0  0  0  0  0  0  0  0  0  0
   -7.2519   16.2299  -31.7430 H   0  0  0  0  0  0  0  0  0  0  0  0
   -8.4478   18.7687  -31.1847 H   0  0  0  0  0  0  0  0  0  0  0  0
   -8.3917   19.6988  -32.7204 H   0  0  0  0  0  0  0  0  0  0  0  0
   -8.9738   17.9995  -32.7204 H   0  0  0  0  0  0  0  0  0  0  0  0
   -3.2362   23.2301  -31.6863 H   0  0  0  0  0  0  0  0  0  0  0  0
  1  2  1  0
  2  3  1  0
  3  4  1  0
  4  5  2  0
  4  6  1  0
  6  7  2  0
  7  8  1  0
  8  9  2  0
  9 10  1  0
 10 11  1  0
 11 12  2  0
 12 13  1  0
 12 14  1  0
 14 15  2  0
 15 16  1  0
 16 17  3  0
 15 18  1  0
 18 19  2  0
 19 20  1  0
  9 21  1  0
 21 22  2  0
 22  6  1  0
 19 11  1  0
  1 23  1  0
  1 24  1  0
  1 25  1  0
  2 26  1  0
  2 27  1  0
  7 28  1  0
  8 29  1  0
 13 30  1  0
 13 31  1  0
 13 32  1  0
 14 33  1  0
 18 34  1  0
 20 35  1  0
 20 36  1  0
 20 37  1  0
 22 38  1  0
M  CHG  1   3  -1
M  END
>  <UniqueID>  (28) 
28

>  <SMILES>  (28) 
CC[N-]C(=O)c1ccc(Oc2c(C)cc(C#N)cc2C)nc1

>  <Energy>  (28) 
45.80243661555575

>  <Genealogy>  (28) 
CC[N-]C(=O)c1ccc(Oc2c(C)cc(C#N)cc2C)nc1 (protonated)
CC[N-]C(=O)c1ccc(Oc2c(C)cc(C#N)cc2C)nc1 (3D coordinates assigned)
CC[N-]C(=O)c1ccc(Oc2c(C)cc(C#N)cc2C)nc1 (optimized conformer: 45.80243661555575 kcal/mol)

>  <smiles>  (28) 
CCNC(=O)c1ccc(Oc2c(C)cc(C#N)cc2C)nc1

>  <score_type>  (28) 
oracle

>  <origin>  (28) 
adgpu

>  <m_score__min__energy>  (28) 
-9.2100000000000009

>  <m_primary>  (28) 
energy

$$$$
28:0
     RDKit          3D

 69 73  0  0  0  0  0  0  0  0999 V2000
   -0.0800   21.1620  -36.1840 C   0  0  0  0  0  0  0  0  0  0  0  0
    0.9830   21.1090  -35.1280 C   0  0  0  0  0  0  0  0  0  0  0  0
    1.4910   22.1950  -34.7370 O   0  0  0  0  0  0  0  0  0  0  0  0
    1.4290   19.8610  -34.5510 N   0  0  0  0  0  0  0  0  0  0  0  0
    1.1220   18.5600  -35.1640 C   0  0  0  0  0  0  0  0  0  0  0  0
    0.5960   17.5910  -34.1020 C   0  0  0  0  0  0  0  0  0  0  0  0
    1.3960   17.6540  -32.8710 N   0  0  0  0  0  0  0  0  0  0  0  0
    1.1260   16.7080  -31.8250 C   0  0  0  0  0  0  0  0  0  0  0  0
    1.0980   15.4790  -32.1050 O   0  0  0  0  0  0  0  0  0  0  0  0
    0.8640   17.1510  -30.4340 C   0  0  0  0  0  0  0  0  0  0  0  0
    0.8980   16.2260  -29.3740 C   0  0  0  0  0  0  0  0  0  0  0  0
    0.6330   16.6380  -28.0660 C   0  0  0  0  0  0  0  0  0  0  0  0
    0.3290   17.9740  -27.7960 C   0  0  0  0  0  0  0  0  0  0  0  0
    0.2740   18.9090  -28.8420 C   0  0  0  0  0  0  0  0  0  0  0  0
    0.0070   20.2950  -28.5860 N   0  0  0  0  0  0  0  0  0  0  0  0
   -0.3470   21.2370  -29.6120 C   0  0  0  0  0  0  0  0  0  0  0  0
   -0.1190   20.9640  -30.8230 O   0  0  0  0  0  0  0  0  0  0  0  0
   -0.9180   22.5530  -29.2530 C   0  0  0  0  0  0  0  0  0  0  0  0
   -0.4510   23.2480  -28.1230 C   0  0  0  0  0  0  0  0  0  0  0  0
   -1.0150   24.4760  -27.7660 C   0  0  0  0  0  0  0  0  0  0  0  0
   -2.0400   25.0280  -28.5380 C   0  0  0  0  0  0  0  0  0  0  0  0
   -2.5010   24.3540  -29.6750 C   0  0  0  0  0  0  0  0  0  0  0  0
   -3.5300   24.9220  -30.4800 N   0  0  0  0  0  0  0  0  0  0  0  0
   -5.1960   24.6230  -30.1320 S   0  0  0  0  0  0  0  0  0  0  0  0
   -5.9980   25.8600  -30.4220 O   0  0  0  0  0  0  0  0  0  0  0  0
   -5.3620   24.2780  -28.6770 O   0  0  0  0  0  0  0  0  0  0  0  0
   -5.7620   23.3040  -31.1510 C   0  0  0  0  0  0  0  0  0  0  0  0
   -7.1180   23.2380  -31.5540 C   0  0  0  0  0  0  0  0  0  0  0  0
   -7.5750   22.1690  -32.3440 C   0  0  0  0  0  0  0  0  0  0  0  0
   -6.6550   21.1900  -32.7180 C   0  0  0  0  0  0  0  0  0  0  0  0
   -6.8980   20.0740  -33.4250 N   0  0  0  0  0  0  0  0  0  0  0  0
   -5.7250   19.4060  -33.4870 C   0  0  0  0  0  0  0  0  0  0  0  0
   -4.7240   20.1210  -32.8390 C   0  0  0  0  0  0  0  0  0  0  0  0
   -3.3280   19.6790  -32.6730 C   0  0  0  0  0  0  0  0  0  0  0  0
   -2.3180   20.3730  -33.1010 N   0  0  0  0  0  0  0  0  0  0  0  0
   -2.4730   21.5610  -33.7780 O   0  0  0  0  0  0  0  0  0  0  0  0
   -5.3380   21.2540  -32.3360 C   0  0  0  0  0  0  0  0  0  0  0  0
   -4.8620   22.2890  -31.5290 C   0  0  0  0  0  0  0  0  0  0  0  0
   -1.9400   23.1230  -30.0340 C   0  0  0  0  0  0  0  0  0  0  0  0
    0.5430   18.4910  -30.1530 C   0  0  0  0  0  0  0  0  0  0  0  0
    2.5960   18.5010  -32.8100 C   0  0  0  0  0  0  0  0  0  0  0  0
    2.2900   19.9040  -33.3560 C   0  0  0  0  0  0  0  0  0  0  0  0
   -1.0695   21.2113  -35.7060 H   0  0  0  0  0  0  0  0  0  0  0  0
    0.0695   22.0538  -36.8104 H   0  0  0  0  0  0  0  0  0  0  0  0
   -0.0199   20.2597  -36.8104 H   0  0  0  0  0  0  0  0  0  0  0  0
    0.3577   18.6960  -35.9434 H   0  0  0  0  0  0  0  0  0  0  0  0
    2.0388   18.1453  -35.6083 H   0  0  0  0  0  0  0  0  0  0  0  0
   -0.4459   17.8521  -33.8648 H   0  0  0  0  0  0  0  0  0  0  0  0
    0.6622   16.5694  -34.5043 H   0  0  0  0  0  0  0  0  0  0  0  0
    1.1349   15.1712  -29.5770 H   0  0  0  0  0  0  0  0  0  0  0  0
    0.6639   15.9068  -27.2448 H   0  0  0  0  0  0  0  0  0  0  0  0
    0.1323   18.2943  -26.7622 H   0  0  0  0  0  0  0  0  0  0  0  0
    0.2220   20.6670  -27.6330 H   0  0  0  0  0  0  0  0  0  0  0  0
    0.3625   22.8228  -27.5169 H   0  0  0  0  0  0  0  0  0  0  0  0
   -0.6510   25.0089  -26.8752 H   0  0  0  0  0  0  0  0  0  0  0  0
   -2.4850   25.9926  -28.2524 H   0  0  0  0  0  0  0  0  0  0  0  0
   -7.8183   24.0286  -31.2467 H   0  0  0  0  0  0  0  0  0  0  0  0
   -8.6274   22.1065  -32.6580 H   0  0  0  0  0  0  0  0  0  0  0  0
   -7.8100   19.7770  -33.8370 H   0  0  0  0  0  0  0  0  0  0  0  0
   -5.5822   18.4334  -33.9807 H   0  0  0  0  0  0  0  0  0  0  0  0
   -3.1341   18.7223  -32.1659 H   0  0  0  0  0  0  0  0  0  0  0  0
   -1.8800   21.7760  -34.5700 H   0  0  0  0  0  0  0  0  0  0  0  0
   -3.8133   22.3110  -31.1977 H   0  0  0  0  0  0  0  0  0  0  0  0
   -2.3000   22.5985  -30.9314 H   0  0  0  0  0  0  0  0  0  0  0  0
    0.5024   19.2221  -30.9739 H   0  0  0  0  0  0  0  0  0  0  0  0
    2.9286   18.5835  -31.7647 H   0  0  0  0  0  0  0  0  0  0  0  0
    3.3866   18.0442  -33.4234 H   0  0  0  0  0  0  0  0  0  0  0  0
    1.7807   20.4854  -32.5733 H   0  0  0  0  0  0  0  0  0  0  0  0
    3.2441   20.3696  -33.6440 H   0  0  0  0  0  0  0  0  0  0  0  0
  1  2  1  0
  2  3  2  0
  2  4  1  0
  4  5  1  0
  5  6  1  0
  6  7  1  0
  7  8  1  0
  8  9  2  0
  8 10  1  0
 10 11  2  0
 11 12  1  0
 12 13  2  0
 13 14  1  0
 14 15  1  0
 15 16  1  0
 16 17  2  0
 16 18  1  0
 18 19  2  0
 19 20  1  0
 20 21  2  0
 21 22  1  0
 22 23  1  0
 23 24  1  0
 24 25  2  0
 24 26  2  0
 24 27  1  0
 27 28  2  0
 28 29  1  0
 29 30  2  0
 30 31  1  0
 31 32  1  0
 32 33  2  0
 33 34  1  0
 34 35  2  3
 35 36  1  0
 33 37  1  0
 37 38  2  0
 22 39  2  0
 14 40  2  0
  7 41  1  0
 41 42  1  0
 42  4  1  0
 40 10  1  0
 39 18  1  0
 38 27  1  0
 37 30  1  0
  1 43  1  0
  1 44  1  0
  1 45  1  0
  5 46  1  0
  5 47  1  0
  6 48  1  0
  6 49  1  0
 11 50  1  0
 12 51  1  0
 13 52  1  0
 15 53  1  0
 19 54  1  0
 20 55  1  0
 21 56  1  0
 28 57  1  0
 29 58  1  0
 31 59  1  0
 32 60  1  0
 34 61  1  0
 36 62  1  0
 38 63  1  0
 39 64  1  0
 40 65  1  0
 41 66  1  0
 41 67  1  0
 42 68  1  0
 42 69  1  0
M  CHG  1  23  -1
M  END
>  <UniqueID>  (29) 
29

>  <SMILES>  (29) 
CC(=O)N1CCN(C(=O)c2cccc(NC(=O)c3cccc([N-]S(=O)(=O)c4ccc5[nH]cc(C=NO)c5c4)c3)c2)CC1

>  <Energy>  (29) 
129.55481954459864

>  <Genealogy>  (29) 
CC(=O)N1CCN(C(=O)c2cccc(NC(=O)c3cccc([N-]S(=O)(=O)c4ccc5[nH]cc(C=NO)c5c4)c3)c2)CC1 (protonated)
CC(=O)N1CCN(C(=O)c2cccc(NC(=O)c3cccc([N-]S(=O)(=O)c4ccc5[nH]cc(C=NO)c5c4)c3)c2)CC1 (3D coordinates assigned)
CC(=O)N1CCN(C(=O)c2cccc(NC(=O)c3cccc([N-]S(=O)(=O)c4ccc5[nH]cc(C=NO)c5c4)c3)c2)CC1 (nonaromatic ring conformer: 129.55481954459864 kcal/mol)

>  <smiles>  (29) 
CC(=O)N1CCN(C(=O)c2cccc(NC(=O)c3cccc(NS(=O)(=O)c4ccc5[nH]cc(C=NO)c5c4)c3)c2)CC1

>  <score_type>  (29) 
oracle

>  <origin>  (29) 
adgpu

>  <m_score__min__energy>  (29) 
-12.34

>  <m_primary>  (29) 
energy

$$$$
29:0
     RDKit          3D

 49 52  0  0  0  0  0  0  0  0999 V2000
   -0.7770   18.4610  -28.8830 O   0  0  0  0  0  0  0  0  0  0  0  0
   -0.3220   19.3330  -29.6700 C   0  0  0  0  0  0  0  0  0  0  0  0
    0.7410   18.9530  -30.5580 N   0  0  0  0  0  0  0  0  0  0  0  0
    0.6820   18.8530  -32.0150 C   0  0  0  0  0  0  0  0  0  0  0  0
   -0.0570   20.0550  -32.6130 C   0  0  0  0  0  0  0  0  0  0  0  0
   -1.4990   19.7140  -32.8770 C   0  0  0  0  0  0  0  0  0  0  0  0
   -2.4310   20.7290  -33.1400 C   0  0  0  0  0  0  0  0  0  0  0  0
   -3.7610   20.4090  -33.4300 C   0  0  0  0  0  0  0  0  0  0  0  0
   -4.1740   19.0720  -33.4580 C   0  0  0  0  0  0  0  0  0  0  0  0
   -5.8520   18.6840  -33.8280 S   0  0  0  0  0  0  0  0  0  0  0  0
   -6.1380   17.2410  -33.5150 O   0  0  0  0  0  0  0  0  0  0  0  0
   -6.1020   18.9170  -35.2910 O   0  0  0  0  0  0  0  0  0  0  0  0
   -6.9140   19.6930  -32.8520 C   0  0  0  0  0  0  0  0  0  0  0  0
   -6.6400   21.0600  -32.7100 C   0  0  0  0  0  0  0  0  0  0  0  0
   -7.4920   21.8720  -31.9520 C   0  0  0  0  0  0  0  0  0  0  0  0
   -8.6210   21.3220  -31.3380 C   0  0  0  0  0  0  0  0  0  0  0  0
   -8.9020   19.9610  -31.4830 C   0  0  0  0  0  0  0  0  0  0  0  0
   -8.0530   19.1470  -32.2400 C   0  0  0  0  0  0  0  0  0  0  0  0
   -3.2450   18.0540  -33.2020 C   0  0  0  0  0  0  0  0  0  0  0  0
   -1.9140   18.3730  -32.9150 C   0  0  0  0  0  0  0  0  0  0  0  0
   -0.8970   20.7020  -29.6410 C   0  0  0  0  0  0  0  0  0  0  0  0
   -0.0990   21.8010  -29.2880 C   0  0  0  0  0  0  0  0  0  0  0  0
   -0.6630   23.0780  -29.2630 C   0  0  0  0  0  0  0  0  0  0  0  0
    0.0590   24.0600  -28.9390 O   0  0  0  0  0  0  0  0  0  0  0  0
   -2.0210   23.2440  -29.5980 C   0  0  0  0  0  0  0  0  0  0  0  0
   -2.6740   24.4990  -29.5940 C   0  0  0  0  0  0  0  0  0  0  0  0
   -1.9990   25.6660  -29.2500 O   0  0  0  0  0  0  0  0  0  0  0  0
   -4.0280   24.5820  -29.9380 C   0  0  0  0  0  0  0  0  0  0  0  0
   -4.7400   23.4330  -30.2890 C   0  0  0  0  0  0  0  0  0  0  0  0
   -4.1060   22.1910  -30.3000 C   0  0  0  0  0  0  0  0  0  0  0  0
   -2.7550   22.0870  -29.9540 C   0  0  0  0  0  0  0  0  0  0  0  0
   -2.1720   20.8940  -29.9600 O   0  0  0  0  0  0  0  0  0  0  0  0
    1.7058   18.8229  -32.4163 H   0  0  0  0  0  0  0  0  0  0  0  0
    0.1385   17.9353  -32.2839 H   0  0  0  0  0  0  0  0  0  0  0  0
   -0.0083   20.8969  -31.9068 H   0  0  0  0  0  0  0  0  0  0  0  0
    0.4224   20.3277  -33.5648 H   0  0  0  0  0  0  0  0  0  0  0  0
   -2.1139   21.7821  -33.1180 H   0  0  0  0  0  0  0  0  0  0  0  0
   -4.4851   21.2108  -33.6368 H   0  0  0  0  0  0  0  0  0  0  0  0
   -5.7540   21.4957  -33.1949 H   0  0  0  0  0  0  0  0  0  0  0  0
   -7.2728   22.9440  -31.8394 H   0  0  0  0  0  0  0  0  0  0  0  0
   -9.2882   21.9607  -30.7406 H   0  0  0  0  0  0  0  0  0  0  0  0
   -9.7917   19.5293  -31.0014 H   0  0  0  0  0  0  0  0  0  0  0  0
   -8.2785   18.0766  -32.3559 H   0  0  0  0  0  0  0  0  0  0  0  0
   -3.5637   17.0015  -33.2269 H   0  0  0  0  0  0  0  0  0  0  0  0
   -1.1888   17.5697  -32.7181 H   0  0  0  0  0  0  0  0  0  0  0  0
    0.9615   21.6577  -29.0333 H   0  0  0  0  0  0  0  0  0  0  0  0
   -4.5346   25.5584  -29.9319 H   0  0  0  0  0  0  0  0  0  0  0  0
   -5.8041   23.5079  -30.5576 H   0  0  0  0  0  0  0  0  0  0  0  0
   -4.6705   21.2899  -30.5818 H   0  0  0  0  0  0  0  0  0  0  0  0
  1  2  2  0
  2  3  1  0
  3  4  1  0
  4  5  1  0
  5  6  1  0
  6  7  2  0
  7  8  1  0
  8  9  2  0
  9 10  1  0
 10 11  2  0
 10 12  2  0
 10 13  1  0
 13 14  2  0
 14 15  1  0
 15 16  2  0
 16 17  1  0
 17 18  2  0
  9 19  1  0
 19 20  2  0
  2 21  1  0
 21 22  2  0
 22 23  1  0
 23 24  2  0
 23 25  1  0
 25 26  2  0
 26 27  1  0
 26 28  1  0
 28 29  2  0
 29 30  1  0
 30 31  2  0
 31 32  1  0
 20  6  1  0
 32 21  1  0
 18 13  1  0
 31 25  1  0
  4 33  1  0
  4 34  1  0
  5 35  1  0
  5 36  1  0
  7 37  1  0
  8 38  1  0
 14 39  1  0
 15 40  1  0
 16 41  1  0
 17 42  1  0
 18 43  1  0
 19 44  1  0
 20 45  1  0
 22 46  1  0
 28 47  1  0
 29 48  1  0
 30 49  1  0
M  CHG  2   3  -1  27  -1
M  END
>  <UniqueID>  (30) 
30

>  <SMILES>  (30) 
O=C([N-]CCc1ccc(S(=O)(=O)c2ccccc2)cc1)c1cc(=O)c2c([O-])cccc2o1

>  <Energy>  (30) 
59.39812155258292

>  <Genealogy>  (30) 
O=C([N-]CCc1ccc(S(=O)(=O)c2ccccc2)cc1)c1cc(=O)c2c([O-])cccc2o1 (protonated)
O=C([N-]CCc1ccc(S(=O)(=O)c2ccccc2)cc1)c1cc(=O)c2c([O-])cccc2o1 (3D coordinates assigned)
O=C([N-]CCc1ccc(S(=O)(=O)c2ccccc2)cc1)c1cc(=O)c2c([O-])cccc2o1 (optimized conformer: 59.39812155258292 kcal/mol)

>  <smiles>  (30) 
O=C(NCCc1ccc(S(=O)(=O)c2ccccc2)cc1)c1cc(=O)c2c(O)cccc2o1

>  <score_type>  (30) 
oracle

>  <origin>  (30) 
adgpu

>  <m_score__min__energy>  (30) 
-12.59

>  <m_primary>  (30) 
energy

$$$$
30:0
     RDKit          3D

 54 57  0  0  0  0  0  0  0  0999 V2000
   -2.3640   24.5010  -29.0140 C   0  0  0  0  0  0  0  0  0  0  0  0
   -3.2430   24.9230  -30.0550 O   0  0  0  0  0  0  0  0  0  0  0  0
   -4.5110   24.3690  -30.3030 C   0  0  0  0  0  0  0  0  0  0  0  0
   -5.6840   24.9910  -29.8270 C   0  0  0  0  0  0  0  0  0  0  0  0
   -6.9350   24.4280  -30.0800 C   0  0  0  0  0  0  0  0  0  0  0  0
   -7.0360   23.2410  -30.8060 C   0  0  0  0  0  0  0  0  0  0  0  0
   -5.8880   22.6140  -31.2840 C   0  0  0  0  0  0  0  0  0  0  0  0
   -4.6110   23.1600  -31.0390 C   0  0  0  0  0  0  0  0  0  0  0  0
   -3.3650   22.4630  -31.5850 C   0  0  1  0  0  0  0  0  0  0  0  0
   -2.9760   21.2120  -30.7480 C   0  0  0  0  0  0  0  0  0  0  0  0
   -2.5300   20.0370  -31.6230 C   0  0  0  0  0  0  0  0  0  0  0  0
   -3.6570   19.6410  -32.5970 C   0  0  2  0  0  0  0  0  0  0  0  0
   -3.2070   18.4660  -33.4830 C   0  0  0  0  0  0  0  0  0  0  0  0
   -3.9220   17.2360  -33.0910 N   0  0  0  0  0  0  0  0  0  0  0  0
   -5.3000   17.1160  -33.6160 C   0  0  0  0  0  0  0  0  0  0  0  0
   -5.8120   18.4060  -34.3150 C   0  0  0  0  0  0  0  0  0  0  0  0
   -6.8530   18.9100  -33.3870 C   0  0  0  0  0  0  0  0  0  0  0  0
   -7.5280   20.1300  -33.4700 C   0  0  0  0  0  0  0  0  0  0  0  0
   -8.5050   20.4270  -32.5060 C   0  0  0  0  0  0  0  0  0  0  0  0
   -8.7940   19.5030  -31.4840 C   0  0  0  0  0  0  0  0  0  0  0  0
   -8.1100   18.2780  -31.4250 C   0  0  0  0  0  0  0  0  0  0  0  0
   -7.1390   18.0040  -32.3890 C   0  0  0  0  0  0  0  0  0  0  0  0
   -6.3190   16.7730  -32.5010 C   0  0  0  0  0  0  0  0  0  0  0  0
   -4.1640   20.8440  -33.4470 C   0  0  0  0  0  0  0  0  0  0  0  0
   -3.4900   22.1850  -33.1060 C   0  0  0  0  0  0  0  0  0  0  0  0
   -2.8204   24.7201  -28.0374 H   0  0  0  0  0  0  0  0  0  0  0  0
   -2.1856   23.4190  -29.1009 H   0  0  0  0  0  0  0  0  0  0  0  0
   -1.4081   25.0384  -29.1009 H   0  0  0  0  0  0  0  0  0  0  0  0
   -5.6119   25.9263  -29.2525 H   0  0  0  0  0  0  0  0  0  0  0  0
   -7.8443   24.9213  -29.7060 H   0  0  0  0  0  0  0  0  0  0  0  0
   -8.0244   22.7994  -31.0013 H   0  0  0  0  0  0  0  0  0  0  0  0
   -5.9784   21.6812  -31.8599 H   0  0  0  0  0  0  0  0  0  0  0  0
   -2.5179   23.1558  -31.4736 H   0  0  0  0  0  0  0  0  0  0  0  0
   -3.8480   20.8992  -30.1549 H   0  0  0  0  0  0  0  0  0  0  0  0
   -2.1284   21.4905  -30.1046 H   0  0  0  0  0  0  0  0  0  0  0  0
   -2.2861   19.1778  -30.9809 H   0  0  0  0  0  0  0  0  0  0  0  0
   -1.6440   20.3366  -32.2019 H   0  0  0  0  0  0  0  0  0  0  0  0
   -4.5169   19.3138  -31.9941 H   0  0  0  0  0  0  0  0  0  0  0  0
   -3.4294   18.6971  -34.5352 H   0  0  0  0  0  0  0  0  0  0  0  0
   -2.1254   18.3112  -33.3558 H   0  0  0  0  0  0  0  0  0  0  0  0
   -3.3680   16.4120  -33.4280 H   0  0  0  0  0  0  0  0  0  0  0  0
   -5.2340   16.3022  -34.3532 H   0  0  0  0  0  0  0  0  0  0  0  0
   -5.0003   19.1392  -34.4315 H   0  0  0  0  0  0  0  0  0  0  0  0
   -6.1944   18.2216  -35.3298 H   0  0  0  0  0  0  0  0  0  0  0  0
   -7.2988   20.8441  -34.2747 H   0  0  0  0  0  0  0  0  0  0  0  0
   -9.0458   21.3839  -32.5496 H   0  0  0  0  0  0  0  0  0  0  0  0
   -9.5580   19.7413  -30.7293 H   0  0  0  0  0  0  0  0  0  0  0  0
   -8.3354   17.5480  -30.6336 H   0  0  0  0  0  0  0  0  0  0  0  0
   -5.8056   16.5552  -31.5529 H   0  0  0  0  0  0  0  0  0  0  0  0
   -6.9180   15.8790  -32.7290 H   0  0  0  0  0  0  0  0  0  0  0  0
   -5.2465   20.9504  -33.2832 H   0  0  0  0  0  0  0  0  0  0  0  0
   -3.9117   20.6203  -34.4940 H   0  0  0  0  0  0  0  0  0  0  0  0
   -4.0829   22.9941  -33.5574 H   0  0  0  0  0  0  0  0  0  0  0  0
   -2.4659   22.1353  -33.5043 H   0  0  0  0  0  0  0  0  0  0  0  0
  1  2  1  0
  2  3  1  0
  3  4  2  0
  4  5  1  0
  5  6  2  0
  6  7  1  0
  7  8  2  0
  8  9  1  0
  9 10  1  0
 10 11  1  0
 11 12  1  0
 12 13  1  0
 13 14  1  0
 14 15  1  0
 15 16  1  0
 16 17  1  0
 17 18  2  0
 18 19  1  0
 19 20  2  0
 20 21  1  0
 21 22  2  0
 22 23  1  0
 12 24  1  0
 24 25  1  0
  8  3  1  0
 25  9  1  0
 23 15  1  0
 22 17  1  0
  1 26  1  0
  1 27  1  0
  1 28  1  0
  4 29  1  0
  5 30  1  0
  6 31  1  0
  7 32  1  0
  9 33  1  6
 10 34  1  0
 10 35  1  0
 11 36  1  0
 11 37  1  0
 12 38  1  1
 13 39  1  0
 13 40  1  0
 14 41  1  0
 15 42  1  0
 16 43  1  0
 16 44  1  0
 18 45  1  0
 19 46  1  0
 20 47  1  0
 21 48  1  0
 23 49  1  0
 23 50  1  0
 24 51  1  0
 24 52  1  0
 25 53  1  0
 25 54  1  0
M  END
>  <UniqueID>  (31) 
31

>  <SMILES>  (31) 
COc1ccccc1C1CCC(CNC2Cc3ccccc3C2)CC1

>  <Energy>  (31) 
73.86051130914996

>  <Genealogy>  (31) 
COc1ccccc1C1CCC(CNC2Cc3ccccc3C2)CC1 (3D coordinates assigned)
COc1ccccc1C1CCC(CNC2Cc3ccccc3C2)CC1 (nonaromatic ring conformer: 73.86051130914996 kcal/mol)

>  <smiles>  (31) 
COc1ccccc1C1CCC(CNC2Cc3ccccc3C2)CC1

>  <score_type>  (31) 
oracle

>  <origin>  (31) 
adgpu

>  <m_score__min__energy>  (31) 
-10.359999999999999

>  <m_primary>  (31) 
energy

$$$$
31:0
     RDKit          3D

 57 60  0  0  0  0  0  0  0  0999 V2000
   -6.9440   19.4290  -32.9430 C   0  0  0  0  0  0  0  0  0  0  0  0
   -5.4770   19.6000  -33.2330 C   0  0  0  0  0  0  0  0  0  0  0  0
   -4.8140   18.5880  -33.9470 C   0  0  0  0  0  0  0  0  0  0  0  0
   -3.4550   18.6930  -34.2440 C   0  0  0  0  0  0  0  0  0  0  0  0
   -2.7260   19.8210  -33.8430 C   0  0  0  0  0  0  0  0  0  0  0  0
   -1.2750   19.9390  -34.1330 C   0  0  0  0  0  0  0  0  0  0  0  0
   -0.5280   18.9390  -33.9520 O   0  0  0  0  0  0  0  0  0  0  0  0
   -0.7070   21.1730  -34.6030 N   0  0  0  0  0  0  0  0  0  0  0  0
    0.7010   21.2930  -34.9670 C   0  0  0  0  0  0  0  0  0  0  0  0
    0.9570   22.6250  -35.6010 C   0  0  0  0  0  0  0  0  0  0  0  0
    0.0300   23.5980  -35.7050 N   0  0  0  0  0  0  0  0  0  0  0  0
    0.6700   24.5650  -36.4010 C   0  0  0  0  0  0  0  0  0  0  0  0
    0.0510   25.8540  -36.7710 C   0  0  0  0  0  0  0  0  0  0  0  0
   -0.4290   26.7290  -35.7800 C   0  0  0  0  0  0  0  0  0  0  0  0
   -1.0210   27.9430  -36.1380 C   0  0  0  0  0  0  0  0  0  0  0  0
   -1.1390   28.2960  -37.4840 C   0  0  0  0  0  0  0  0  0  0  0  0
   -0.6640   27.4340  -38.4750 C   0  0  0  0  0  0  0  0  0  0  0  0
   -0.0710   26.2170  -38.1230 C   0  0  0  0  0  0  0  0  0  0  0  0
    1.9020   24.2300  -36.7220 O   0  0  0  0  0  0  0  0  0  0  0  0
    2.1080   23.0280  -36.2450 C   0  0  0  0  0  0  0  0  0  0  0  0
    3.3770   22.2570  -36.4020 C   0  0  0  0  0  0  0  0  0  0  0  0
   -3.3840   20.8390  -33.1350 C   0  0  0  0  0  0  0  0  0  0  0  0
   -4.7540   20.7520  -32.8360 C   0  0  0  0  0  0  0  0  0  0  0  0
   -5.4970   22.0970  -31.9360 S   0  0  0  0  0  0  0  0  0  0  0  0
   -5.1180   21.9590  -30.4890 O   0  0  0  0  0  0  0  0  0  0  0  0
   -4.9330   23.4060  -32.4180 O   0  0  0  0  0  0  0  0  0  0  0  0
   -7.2490   22.0940  -32.0330 N   0  0  0  0  0  0  0  0  0  0  0  0
   -7.8510   21.5310  -30.8130 C   0  0  0  0  0  0  0  0  0  0  0  0
   -9.3890   21.6020  -30.8860 C   0  0  0  0  0  0  0  0  0  0  0  0
   -9.8290   22.0940  -32.1370 O   0  0  0  0  0  0  0  0  0  0  0  0
   -9.3290   23.4030  -32.3350 C   0  0  0  0  0  0  0  0  0  0  0  0
   -7.7870   23.4370  -32.2990 C   0  0  0  0  0  0  0  0  0  0  0  0
   -7.1029   19.4105  -31.8547 H   0  0  0  0  0  0  0  0  0  0  0  0
   -7.5046   20.2679  -33.3812 H   0  0  0  0  0  0  0  0  0  0  0  0
   -7.2966   18.4837  -33.3812 H   0  0  0  0  0  0  0  0  0  0  0  0
   -5.3742   17.7005  -34.2764 H   0  0  0  0  0  0  0  0  0  0  0  0
   -2.9523   17.8854  -34.7964 H   0  0  0  0  0  0  0  0  0  0  0  0
   -1.2860   22.0420  -34.6180 H   0  0  0  0  0  0  0  0  0  0  0  0
    1.3201   21.1954  -34.0630 H   0  0  0  0  0  0  0  0  0  0  0  0
    0.9566   20.4983  -35.6833 H   0  0  0  0  0  0  0  0  0  0  0  0
   -0.3379   26.4564  -34.7182 H   0  0  0  0  0  0  0  0  0  0  0  0
   -1.3950   28.6223  -35.3578 H   0  0  0  0  0  0  0  0  0  0  0  0
   -1.6056   29.2521  -37.7635 H   0  0  0  0  0  0  0  0  0  0  0  0
   -0.7565   27.7129  -39.5350 H   0  0  0  0  0  0  0  0  0  0  0  0
    0.3012   25.5416  -38.9074 H   0  0  0  0  0  0  0  0  0  0  0  0
    3.7818   22.0110  -35.4092 H   0  0  0  0  0  0  0  0  0  0  0  0
    3.1757   21.3284  -36.9562 H   0  0  0  0  0  0  0  0  0  0  0  0
    4.1084   22.8636  -36.9562 H   0  0  0  0  0  0  0  0  0  0  0  0
   -2.8158   21.7222  -32.8079 H   0  0  0  0  0  0  0  0  0  0  0  0
   -7.5419   20.4805  -30.7087 H   0  0  0  0  0  0  0  0  0  0  0  0
   -7.5092   22.1154  -29.9460 H   0  0  0  0  0  0  0  0  0  0  0  0
   -9.8005   20.5932  -30.7345 H   0  0  0  0  0  0  0  0  0  0  0  0
   -9.7390   22.2909  -30.1031 H   0  0  0  0  0  0  0  0  0  0  0  0
   -9.6708   23.7708  -33.3137 H   0  0  0  0  0  0  0  0  0  0  0  0
   -9.7049   24.0401  -31.5209 H   0  0  0  0  0  0  0  0  0  0  0  0
   -7.4099   23.7926  -33.2692 H   0  0  0  0  0  0  0  0  0  0  0  0
   -7.4644   24.1155  -31.4955 H   0  0  0  0  0  0  0  0  0  0  0  0
  1  2  1  0
  2  3  2  0
  3  4  1  0
  4  5  2  0
  5  6  1  0
  6  7  2  0
  6  8  1  0
  8  9  1  0
  9 10  1  0
 10 11  1  0
 11 12  2  0
 12 13  1  0
 13 14  2  0
 14 15  1  0
 15 16  2  0
 16 17  1  0
 17 18  2  0
 12 19  1  0
 19 20  1  0
 20 21  1  0
  5 22  1  0
 22 23  2  0
 23 24  1  0
 24 25  2  0
 24 26  2  0
 24 27  1  0
 27 28  1  0
 28 29  1  0
 29 30  1  0
 30 31  1  0
 31 32  1  0
 23  2  1  0
 32 27  1  0
 20 10  2  0
 18 13  1  0
  1 33  1  0
  1 34  1  0
  1 35  1  0
  3 36  1  0
  4 37  1  0
  8 38  1  0
  9 39  1  0
  9 40  1  0
 14 41  1  0
 15 42  1  0
 16 43  1  0
 17 44  1  0
 18 45  1  0
 21 46  1  0
 21 47  1  0
 21 48  1  0
 22 49  1  0
 28 50  1  0
 28 51  1  0
 29 52  1  0
 29 53  1  0
 31 54  1  0
 31 55  1  0
 32 56  1  0
 32 57  1  0
M  END
>  <UniqueID>  (32) 
32

>  <SMILES>  (32) 
Cc1ccc(C(=O)NCc2nc(-c3ccccc3)oc2C)cc1S(=O)(=O)N1CCOCC1

>  <Energy>  (32) 
100.12345809371995

>  <Genealogy>  (32) 
Cc1ccc(C(=O)NCc2nc(-c3ccccc3)oc2C)cc1S(=O)(=O)N1CCOCC1 (3D coordinates assigned)
Cc1ccc(C(=O)NCc2nc(-c3ccccc3)oc2C)cc1S(=O)(=O)N1CCOCC1 (nonaromatic ring conformer: 100.12345809371995 kcal/mol)

>  <smiles>  (32) 
Cc1ccc(C(=O)NCc2nc(-c3ccccc3)oc2C)cc1S(=O)(=O)N1CCOCC1

>  <score_type>  (32) 
oracle

>  <origin>  (32) 
adgpu

>  <m_score__min__energy>  (32) 
-11.76

>  <m_primary>  (32) 
energy

$$$$
32:0
     RDKit          3D

 33 35  0  0  0  0  0  0  0  0999 V2000
   -3.0240   24.5470  -29.4340 C   0  0  0  0  0  0  0  0  0  0  0  0
   -3.8460   25.1400  -30.4780 N   0  0  0  0  0  0  0  0  0  0  0  0
   -5.1180   24.6050  -30.8600 C   0  0  0  0  0  0  0  0  0  0  0  0
   -6.1710   25.2540  -30.6150 O   0  0  0  0  0  0  0  0  0  0  0  0
   -5.2090   23.2630  -31.4740 C   0  0  0  0  0  0  0  0  0  0  0  0
   -4.0290   22.6870  -31.9730 C   0  0  0  0  0  0  0  0  0  0  0  0
   -4.0700   21.4500  -32.6280 C   0  0  0  0  0  0  0  0  0  0  0  0
   -2.8410   20.8470  -33.1710 C   0  0  0  0  0  0  0  0  0  0  0  0
   -2.6510   19.5050  -33.4470 C   0  0  0  0  0  0  0  0  0  0  0  0
   -1.3660   19.3990  -33.9360 C   0  0  0  0  0  0  0  0  0  0  0  0
   -0.8560   20.6820  -33.9250 C   0  0  0  0  0  0  0  0  0  0  0  0
    0.5080   21.0790  -34.3810 C   0  0  0  0  0  0  0  0  0  0  0  0
   -1.7540   21.5230  -33.4680 O   0  0  0  0  0  0  0  0  0  0  0  0
   -5.2570   20.8050  -32.7710 N   0  0  0  0  0  0  0  0  0  0  0  0
   -6.4200   21.3090  -32.2860 C   0  0  0  0  0  0  0  0  0  0  0  0
   -7.6050   20.5820  -32.4490 C   0  0  0  0  0  0  0  0  0  0  0  0
   -8.8040   21.0670  -31.9230 C   0  0  0  0  0  0  0  0  0  0  0  0
   -8.8220   22.2730  -31.2210 C   0  0  0  0  0  0  0  0  0  0  0  0
   -7.6470   23.0100  -31.0530 C   0  0  0  0  0  0  0  0  0  0  0  0
   -6.4300   22.5530  -31.6050 C   0  0  0  0  0  0  0  0  0  0  0  0
   -3.4203   24.8329  -28.4485 H   0  0  0  0  0  0  0  0  0  0  0  0
   -3.0406   23.4515  -29.5321 H   0  0  0  0  0  0  0  0  0  0  0  0
   -1.9897   24.9083  -29.5321 H   0  0  0  0  0  0  0  0  0  0  0  0
   -3.0691   23.2096  -31.8488 H   0  0  0  0  0  0  0  0  0  0  0  0
   -3.3759   18.6899  -33.3055 H   0  0  0  0  0  0  0  0  0  0  0  0
   -0.8540   18.4831  -34.2661 H   0  0  0  0  0  0  0  0  0  0  0  0
    1.1475   21.2651  -33.5056 H   0  0  0  0  0  0  0  0  0  0  0  0
    0.9420   20.2699  -34.9868 H   0  0  0  0  0  0  0  0  0  0  0  0
    0.4400   21.9946  -34.9868 H   0  0  0  0  0  0  0  0  0  0  0  0
   -7.5916   19.6260  -32.9930 H   0  0  0  0  0  0  0  0  0  0  0  0
   -9.7351   20.4981  -32.0620 H   0  0  0  0  0  0  0  0  0  0  0  0
   -9.7665   22.6454  -30.7976 H   0  0  0  0  0  0  0  0  0  0  0  0
   -7.6699   23.9528  -30.4868 H   0  0  0  0  0  0  0  0  0  0  0  0
  1  2  1  0
  2  3  1  0
  3  4  2  0
  3  5  1  0
  5  6  2  0
  6  7  1  0
  7  8  1  0
  8  9  2  0
  9 10  1  0
 10 11  2  0
 11 12  1  0
 11 13  1  0
  7 14  2  0
 14 15  1  0
 15 16  2  0
 16 17  1  0
 17 18  2  0
 18 19  1  0
 19 20  2  0
 20  5  1  0
 13  8  1  0
 20 15  1  0
  1 21  1  0
  1 22  1  0
  1 23  1  0
  6 24  1  0
  9 25  1  0
 10 26  1  0
 12 27  1  0
 12 28  1  0
 12 29  1  0
 16 30  1  0
 17 31  1  0
 18 32  1  0
 19 33  1  0
M  CHG  1   2  -1
M  END
>  <UniqueID>  (33) 
33

>  <SMILES>  (33) 
C[N-]C(=O)c1cc(-c2ccc(C)o2)nc2ccccc12

>  <Energy>  (33) 
67.26151497295561

>  <Genealogy>  (33) 
C[N-]C(=O)c1cc(-c2ccc(C)o2)nc2ccccc12 (protonated)
C[N-]C(=O)c1cc(-c2ccc(C)o2)nc2ccccc12 (3D coordinates assigned)
C[N-]C(=O)c1cc(-c2ccc(C)o2)nc2ccccc12 (optimized conformer: 67.26151497295561 kcal/mol)

>  <smiles>  (33) 
CNC(=O)c1cc(-c2ccc(C)o2)nc2ccccc12

>  <score_type>  (33) 
oracle

>  <origin>  (33) 
adgpu

>  <m_score__min__energy>  (33) 
-9.1099999999999994

>  <m_primary>  (33) 
energy

$$$$
33:0
     RDKit          3D

 54 57  0  0  0  0  0  0  0  0999 V2000
   -5.7000   26.3750  -31.0080 O   0  0  0  0  0  0  0  0  0  0  0  0
   -5.2770   25.1220  -30.2990 S   0  0  0  0  0  0  0  0  0  0  0  0
   -5.6160   25.2470  -28.8410 O   0  0  0  0  0  0  0  0  0  0  0  0
   -3.5630   24.9220  -30.4740 N   0  0  0  0  0  0  0  0  0  0  0  0
   -2.7320   24.1340  -29.6070 C   0  0  0  0  0  0  0  0  0  0  0  0
   -3.0330   22.7940  -29.3090 C   0  0  0  0  0  0  0  0  0  0  0  0
   -2.2440   22.0710  -28.4020 C   0  0  0  0  0  0  0  0  0  0  0  0
   -1.1130   22.6720  -27.8290 C   0  0  0  0  0  0  0  0  0  0  0  0
   -0.7850   23.9930  -28.1610 C   0  0  0  0  0  0  0  0  0  0  0  0
   -1.5960   24.7230  -29.0360 C   0  0  0  0  0  0  0  0  0  0  0  0
   -1.2670   26.0430  -29.3340 O   0  0  0  0  0  0  0  0  0  0  0  0
   -0.2660   21.8750  -26.8790 C   0  0  0  0  0  0  0  0  0  0  0  0
   -1.1760   21.0770  -25.9430 C   0  0  0  0  0  0  0  0  0  0  0  0
   -2.1340   20.1410  -26.7090 C   0  0  0  0  0  0  0  0  0  0  0  0
   -2.5440   20.6170  -28.1260 C   0  0  0  0  0  0  0  0  0  0  0  0
   -6.1040   23.7150  -30.9590 C   0  0  0  0  0  0  0  0  0  0  0  0
   -5.4110   22.5180  -31.1800 C   0  0  0  0  0  0  0  0  0  0  0  0
   -6.1020   21.3660  -31.5670 C   0  0  0  0  0  0  0  0  0  0  0  0
   -7.4900   21.4060  -31.7530 C   0  0  0  0  0  0  0  0  0  0  0  0
   -8.3750   19.9280  -32.1310 S   0  0  0  0  0  0  0  0  0  0  0  0
   -8.9590   19.3530  -30.8710 O   0  0  0  0  0  0  0  0  0  0  0  0
   -9.5020   20.2600  -33.0730 O   0  0  0  0  0  0  0  0  0  0  0  0
   -7.3030   18.7700  -32.8850 N   0  0  0  0  0  0  0  0  0  0  0  0
   -6.4580   19.4510  -33.8930 C   0  0  0  0  0  0  0  0  0  0  0  0
   -5.2240   18.6170  -34.3030 C   0  0  0  0  0  0  0  0  0  0  0  0
   -5.4110   17.1350  -33.9700 C   0  0  0  0  0  0  0  0  0  0  0  0
   -5.6980   16.9360  -32.4710 C   0  0  0  0  0  0  0  0  0  0  0  0
   -6.4800   18.1130  -31.8580 C   0  0  0  0  0  0  0  0  0  0  0  0
   -8.1790   22.6130  -31.5680 C   0  0  0  0  0  0  0  0  0  0  0  0
   -7.4890   23.7600  -31.1690 C   0  0  0  0  0  0  0  0  0  0  0  0
   -3.8943   22.3081  -29.7909 H   0  0  0  0  0  0  0  0  0  0  0  0
    0.1145   24.4582  -27.7315 H   0  0  0  0  0  0  0  0  0  0  0  0
    0.3740   21.1841  -27.4474 H   0  0  0  0  0  0  0  0  0  0  0  0
    0.3671   22.5541  -26.2891 H   0  0  0  0  0  0  0  0  0  0  0  0
   -0.5488   20.4695  -25.2740 H   0  0  0  0  0  0  0  0  0  0  0  0
   -1.7893   21.7954  -25.3793 H   0  0  0  0  0  0  0  0  0  0  0  0
   -1.6423   19.1622  -26.8098 H   0  0  0  0  0  0  0  0  0  0  0  0
   -3.0627   20.1134  -26.1202 H   0  0  0  0  0  0  0  0  0  0  0  0
   -2.0032   20.0071  -28.8646 H   0  0  0  0  0  0  0  0  0  0  0  0
   -3.6357   20.5012  -28.1945 H   0  0  0  0  0  0  0  0  0  0  0  0
   -4.3194   22.4843  -31.0486 H   0  0  0  0  0  0  0  0  0  0  0  0
   -5.5543   20.4254  -31.7259 H   0  0  0  0  0  0  0  0  0  0  0  0
   -7.0660   19.6427  -34.7894 H   0  0  0  0  0  0  0  0  0  0  0  0
   -6.0911   20.3843  -33.4410 H   0  0  0  0  0  0  0  0  0  0  0  0
   -5.0656   18.7224  -35.3864 H   0  0  0  0  0  0  0  0  0  0  0  0
   -4.3545   18.9892  -33.7413 H   0  0  0  0  0  0  0  0  0  0  0  0
   -6.2557   16.7395  -34.5531 H   0  0  0  0  0  0  0  0  0  0  0  0
   -4.4833   16.6004  -34.2222 H   0  0  0  0  0  0  0  0  0  0  0  0
   -6.2880   16.0164  -32.3440 H   0  0  0  0  0  0  0  0  0  0  0  0
   -4.7305   16.8713  -31.9515 H   0  0  0  0  0  0  0  0  0  0  0  0
   -7.1325   17.7367  -31.0563 H   0  0  0  0  0  0  0  0  0  0  0  0
   -5.7655   18.8437  -31.4511 H   0  0  0  0  0  0  0  0  0  0  0  0
   -9.2650   22.6567  -31.7374 H   0  0  0  0  0  0  0  0  0  0  0  0
   -8.0351   24.7030  -31.0189 H   0  0  0  0  0  0  0  0  0  0  0  0
  1  2  2  0
  2  3  2  0
  2  4  1  0
  4  5  1  0
  5  6  2  0
  6  7  1  0
  7  8  2  0
  8  9  1  0
  9 10  2  0
 10 11  1  0
  8 12  1  0
 12 13  1  0
 13 14  1  0
 14 15  1  0
  2 16  1  0
 16 17  2  0
 17 18  1  0
 18 19  2  0
 19 20  1  0
 20 21  2  0
 20 22  2  0
 20 23  1  0
 23 24  1  0
 24 25  1  0
 25 26  1  0
 26 27  1  0
 27 28  1  0
 19 29  1  0
 29 30  2  0
 10  5  1  0
 30 16  1  0
 15  7  1  0
 28 23  1  0
  6 31  1  0
  9 32  1  0
 12 33  1  0
 12 34  1  0
 13 35  1  0
 13 36  1  0
 14 37  1  0
 14 38  1  0
 15 39  1  0
 15 40  1  0
 17 41  1  0
 18 42  1  0
 24 43  1  0
 24 44  1  0
 25 45  1  0
 25 46  1  0
 26 47  1  0
 26 48  1  0
 27 49  1  0
 27 50  1  0
 28 51  1  0
 28 52  1  0
 29 53  1  0
 30 54  1  0
M  CHG  2   4  -1  11  -1
M  END
>  <UniqueID>  (34) 
34

>  <SMILES>  (34) 
O=S(=O)([N-]c1cc2c(cc1[O-])CCCC2)c1ccc(S(=O)(=O)N2CCCCC2)cc1

>  <Energy>  (34) 
64.32036445951363

>  <Genealogy>  (34) 
O=S(=O)([N-]c1cc2c(cc1[O-])CCCC2)c1ccc(S(=O)(=O)N2CCCCC2)cc1 (protonated)
O=S(=O)([N-]c1cc2c(cc1[O-])CCCC2)c1ccc(S(=O)(=O)N2CCCCC2)cc1 (3D coordinates assigned)
O=S(=O)([N-]c1cc2c(cc1[O-])CCCC2)c1ccc(S(=O)(=O)N2CCCCC2)cc1 (nonaromatic ring conformer: 64.32036445951363 kcal/mol)

>  <smiles>  (34) 
O=S(=O)(Nc1cc2c(cc1O)CCCC2)c1ccc(S(=O)(=O)N2CCCCC2)cc1

>  <score_type>  (34) 
oracle

>  <origin>  (34) 
adgpu

>  <m_score__min__energy>  (34) 
-16.329999999999998

>  <m_primary>  (34) 
energy

$$$$
34:0
     RDKit          3D

 70 74  0  0  0  0  0  0  0  0999 V2000
   -4.6620   25.0630  -31.1840 O   0  0  0  0  0  0  0  0  0  0  0  0
   -4.6950   23.8160  -31.0120 C   0  0  0  0  0  0  0  0  0  0  0  0
   -5.1730   22.9870  -32.0770 N   0  0  0  0  0  0  0  0  0  0  0  0
   -4.7770   21.6270  -32.2890 C   0  0  0  0  0  0  0  0  0  0  0  0
   -5.7530   20.6070  -32.3200 C   0  0  0  0  0  0  0  0  0  0  0  0
   -7.1600   20.9210  -32.2680 N   0  0  0  0  0  0  0  0  0  0  0  0
   -8.1890   20.0980  -32.8850 C   0  0  0  0  0  0  0  0  0  0  0  0
   -9.4990   20.5390  -32.2480 C   0  0  0  0  0  0  0  0  0  0  0  0
   -9.2220   21.9180  -31.6580 C   0  0  0  0  0  0  0  0  0  0  0  0
   -7.7190   21.9620  -31.4180 C   0  0  0  0  0  0  0  0  0  0  0  0
   -5.3400   19.2710  -32.4470 C   0  0  0  0  0  0  0  0  0  0  0  0
   -3.9860   18.9510  -32.5430 C   0  0  0  0  0  0  0  0  0  0  0  0
   -3.0120   19.9540  -32.5020 C   0  0  0  0  0  0  0  0  0  0  0  0
   -1.3010   19.5070  -32.6120 S   0  0  0  0  0  0  0  0  0  0  0  0
   -0.7300   19.4160  -31.2240 O   0  0  0  0  0  0  0  0  0  0  0  0
   -1.1740   18.1520  -33.2500 O   0  0  0  0  0  0  0  0  0  0  0  0
   -0.3800   20.6680  -33.5360 N   0  0  0  0  0  0  0  0  0  0  0  0
    1.0510   20.3370  -33.5070 C   0  0  0  0  0  0  0  0  0  0  0  0
    1.8500   21.3780  -34.3200 C   0  0  0  0  0  0  0  0  0  0  0  0
    1.0040   22.2970  -34.9910 O   0  0  0  0  0  0  0  0  0  0  0  0
    0.0740   21.5920  -35.7920 C   0  0  0  0  0  0  0  0  0  0  0  0
   -0.8620   20.7230  -34.9260 C   0  0  0  0  0  0  0  0  0  0  0  0
   -3.4110   21.2950  -32.3630 C   0  0  0  0  0  0  0  0  0  0  0  0
   -2.4540   22.3020  -32.2750 O   0  0  0  0  0  0  0  0  0  0  0  0
   -4.2460   23.2370  -29.7720 N   0  0  0  0  0  0  0  0  0  0  0  0
   -3.5530   23.9630  -28.7430 C   0  0  0  0  0  0  0  0  0  0  0  0
   -4.1950   24.1920  -27.5180 C   0  0  0  0  0  0  0  0  0  0  0  0
   -3.5350   24.8620  -26.4840 C   0  0  0  0  0  0  0  0  0  0  0  0
   -2.2150   25.3140  -26.6570 C   0  0  0  0  0  0  0  0  0  0  0  0
   -1.5050   26.0050  -25.5560 C   0  0  0  0  0  0  0  0  0  0  0  0
   -1.9060   27.1380  -25.1720 O   0  0  0  0  0  0  0  0  0  0  0  0
   -0.3440   25.4260  -24.9380 N   0  0  0  0  0  0  0  0  0  0  0  0
    0.8040   26.2840  -24.6360 C   0  0  0  0  0  0  0  0  0  0  0  0
    1.9710   25.4460  -24.1110 C   0  0  0  0  0  0  0  0  0  0  0  0
    2.0340   24.2330  -24.8320 O   0  0  0  0  0  0  0  0  0  0  0  0
    0.9750   23.3740  -24.4430 C   0  0  0  0  0  0  0  0  0  0  0  0
   -0.4040   24.0730  -24.3710 C   0  0  0  0  0  0  0  0  0  0  0  0
   -1.5610   25.0560  -27.8730 C   0  0  0  0  0  0  0  0  0  0  0  0
   -2.2210   24.3830  -28.9060 C   0  0  0  0  0  0  0  0  0  0  0  0
   -8.2146   20.2653  -33.9719 H   0  0  0  0  0  0  0  0  0  0  0  0
   -8.0008   19.0253  -32.7301 H   0  0  0  0  0  0  0  0  0  0  0  0
  -10.2942   20.5978  -33.0058 H   0  0  0  0  0  0  0  0  0  0  0  0
   -9.8391   19.8279  -31.4807 H   0  0  0  0  0  0  0  0  0  0  0  0
   -9.5219   22.7060  -32.3645 H   0  0  0  0  0  0  0  0  0  0  0  0
   -9.7890   22.0871  -30.7307 H   0  0  0  0  0  0  0  0  0  0  0  0
   -7.3135   22.9456  -31.6973 H   0  0  0  0  0  0  0  0  0  0  0  0
   -7.4696   21.8022  -30.3586 H   0  0  0  0  0  0  0  0  0  0  0  0
   -6.0921   18.4686  -32.4710 H   0  0  0  0  0  0  0  0  0  0  0  0
   -3.6811   17.8997  -32.6520 H   0  0  0  0  0  0  0  0  0  0  0  0
    1.4044   20.3391  -32.4653 H   0  0  0  0  0  0  0  0  0  0  0  0
    1.2004   19.3411  -33.9495 H   0  0  0  0  0  0  0  0  0  0  0  0
    2.5057   21.9353  -33.6348 H   0  0  0  0  0  0  0  0  0  0  0  0
    2.4327   20.8377  -35.0806 H   0  0  0  0  0  0  0  0  0  0  0  0
   -0.5306   22.3144  -36.3600 H   0  0  0  0  0  0  0  0  0  0  0  0
    0.6309   20.9319  -36.4733 H   0  0  0  0  0  0  0  0  0  0  0  0
   -1.8733   21.1555  -34.9410 H   0  0  0  0  0  0  0  0  0  0  0  0
   -0.8782   19.7024  -35.3361 H   0  0  0  0  0  0  0  0  0  0  0  0
   -4.4670   22.2330  -29.5830 H   0  0  0  0  0  0  0  0  0  0  0  0
   -5.2270   23.8414  -27.3693 H   0  0  0  0  0  0  0  0  0  0  0  0
   -4.0517   25.0368  -25.5288 H   0  0  0  0  0  0  0  0  0  0  0  0
    1.1164   26.8074  -25.5517 H   0  0  0  0  0  0  0  0  0  0  0  0
    0.5124   27.0129  -23.8655 H   0  0  0  0  0  0  0  0  0  0  0  0
    2.9112   26.0015  -24.2429 H   0  0  0  0  0  0  0  0  0  0  0  0
    1.8212   25.2330  -23.0423 H   0  0  0  0  0  0  0  0  0  0  0  0
    0.9095   22.5527  -25.1718 H   0  0  0  0  0  0  0  0  0  0  0  0
    1.2072   23.0197  -23.4278 H   0  0  0  0  0  0  0  0  0  0  0  0
   -1.1372   23.4792  -24.9366 H   0  0  0  0  0  0  0  0  0  0  0  0
   -0.7001   24.1510  -23.3145 H   0  0  0  0  0  0  0  0  0  0  0  0
   -0.5212   25.3860  -28.0139 H   0  0  0  0  0  0  0  0  0  0  0  0
   -1.6954   24.1811  -29.8510 H   0  0  0  0  0  0  0  0  0  0  0  0
  1  2  2  0
  2  3  1  0
  3  4  1  0
  4  5  1  0
  5  6  1  0
  6  7  1  0
  7  8  1  0
  8  9  1  0
  9 10  1  0
  5 11  2  0
 11 12  1  0
 12 13  2  0
 13 14  1  0
 14 15  2  0
 14 16  2  0
 14 17  1  0
 17 18  1  0
 18 19  1  0
 19 20  1  0
 20 21  1  0
 21 22  1  0
 13 23  1  0
 23 24  1  0
  2 25  1  0
 25 26  1  0
 26 27  2  0
 27 28  1  0
 28 29  2  0
 29 30  1  0
 30 31  2  0
 30 32  1  0
 32 33  1  0
 33 34  1  0
 34 35  1  0
 35 36  1  0
 36 37  1  0
 29 38  1  0
 38 39  2  0
 23  4  2  0
 39 26  1  0
 10  6  1  0
 22 17  1  0
 37 32  1  0
  7 40  1  0
  7 41  1  0
  8 42  1  0
  8 43  1  0
  9 44  1  0
  9 45  1  0
 10 46  1  0
 10 47  1  0
 11 48  1  0
 12 49  1  0
 18 50  1  0
 18 51  1  0
 19 52  1  0
 19 53  1  0
 21 54  1  0
 21 55  1  0
 22 56  1  0
 22 57  1  0
 25 58  1  0
 27 59  1  0
 28 60  1  0
 33 61  1  0
 33 62  1  0
 34 63  1  0
 34 64  1  0
 36 65  1  0
 36 66  1  0
 37 67  1  0
 37 68  1  0
 38 69  1  0
 39 70  1  0
M  CHG  2   3  -1  24  -1
M  END
>  <UniqueID>  (35) 
35

>  <SMILES>  (35) 
O=C([N-]c1c(N2CCCC2)ccc(S(=O)(=O)N2CCOCC2)c1[O-])Nc1ccc(C(=O)N2CCOCC2)cc1

>  <Energy>  (35) 
106.61621599141394

>  <Genealogy>  (35) 
O=C([N-]c1c(N2CCCC2)ccc(S(=O)(=O)N2CCOCC2)c1[O-])Nc1ccc(C(=O)N2CCOCC2)cc1 (protonated)
O=C([N-]c1c(N2CCCC2)ccc(S(=O)(=O)N2CCOCC2)c1[O-])Nc1ccc(C(=O)N2CCOCC2)cc1 (3D coordinates assigned)
O=C([N-]c1c(N2CCCC2)ccc(S(=O)(=O)N2CCOCC2)c1[O-])Nc1ccc(C(=O)N2CCOCC2)cc1 (nonaromatic ring conformer: 106.61621599141394 kcal/mol)

>  <smiles>  (35) 
O=C(Nc1ccc(C(=O)N2CCOCC2)cc1)Nc1c(N2CCCC2)ccc(S(=O)(=O)N2CCOCC2)c1O

>  <score_type>  (35) 
oracle

>  <origin>  (35) 
adgpu

>  <m_score__min__energy>  (35) 
-12.300000000000001

>  <m_primary>  (35) 
energy

$$$$
35:0
     RDKit          3D

 31 32  0  0  1  0  0  0  0  0999 V2000
   -5.8170   14.9930  -34.1550 N   0  0  0  0  0  0  0  0  0  0  0  0
   -5.9560   16.1800  -33.6520 C   0  0  0  0  0  0  0  0  0  0  0  0
   -6.1070   17.2830  -34.4030 N   0  0  0  0  0  0  0  0  0  0  0  0
   -6.2500   18.5060  -33.8670 C   0  0  0  0  0  0  0  0  0  0  0  0
   -6.4100   19.6860  -34.6570 N   0  0  0  0  0  0  0  0  0  0  0  0
   -6.2410   18.6100  -32.4920 C   0  0  0  0  0  0  0  0  0  0  0  0
   -6.3850   19.8510  -31.8130 N   0  0  0  0  0  0  0  0  0  0  0  0
   -5.5530   20.8190  -31.9990 C   0  0  0  0  0  0  0  0  0  0  0  0
   -5.7570   22.0740  -31.2700 C   0  0  0  0  0  0  0  0  0  0  0  0
   -6.9110   22.3330  -30.5500 C   0  0  0  0  0  0  0  0  0  0  0  0
   -7.0920   23.5330  -29.8610 C   0  0  0  0  0  0  0  0  0  0  0  0
   -6.0730   24.4800  -29.9110 C   0  0  0  0  0  0  0  0  0  0  0  0
   -6.2170   25.6870  -29.2380 O   0  0  0  0  0  0  0  0  0  0  0  0
   -4.9140   24.2560  -30.6160 C   0  0  0  0  0  0  0  0  0  0  0  0
   -3.8750   25.1950  -30.6800 O   0  0  0  0  0  0  0  0  0  0  0  0
   -4.7920   23.0590  -31.2740 C   0  0  0  0  0  0  0  0  0  0  0  0
   -6.0870   17.4790  -31.6830 C   0  0  0  0  0  0  0  0  0  0  0  0
   -6.0800   17.5980  -30.3970 N   0  0  0  0  0  0  0  0  0  0  0  0
   -5.9480   16.2920  -32.3110 N   0  0  0  0  0  0  0  0  0  0  0  0
   -5.8090   14.7970  -35.1690 H   0  0  0  0  0  0  0  0  0  0  0  0
   -6.1090   17.1660  -35.4490 H   0  0  0  0  0  0  0  0  0  0  0  0
   -6.8760   19.6420  -35.6050 H   0  0  0  0  0  0  0  0  0  0  0  0
   -6.0730   20.6320  -34.3210 H   0  0  0  0  0  0  0  0  0  0  0  0
   -4.7062   20.7047  -32.6918 H   0  0  0  0  0  0  0  0  0  0  0  0
   -7.7058   21.5731  -30.5203 H   0  0  0  0  0  0  0  0  0  0  0  0
   -8.0147   23.7253  -29.2939 H   0  0  0  0  0  0  0  0  0  0  0  0
   -5.3510   26.2370  -29.1290 H   0  0  0  0  0  0  0  0  0  0  0  0
   -3.5800   25.5050  -31.5940 H   0  0  0  0  0  0  0  0  0  0  0  0
   -3.8672   22.8731  -31.8399 H   0  0  0  0  0  0  0  0  0  0  0  0
   -5.9620   16.7190  -29.8460 H   0  0  0  0  0  0  0  0  0  0  0  0
   -5.8320   15.4340  -31.7330 H   0  0  0  0  0  0  0  0  0  0  0  0
  1  2  2  3
  2  3  1  0
  3  4  1  0
  4  5  1  0
  4  6  2  0
  6  7  1  0
  7  8  2  0
  8  9  1  0
  9 10  2  0
 10 11  1  0
 11 12  2  0
 12 13  1  0
 12 14  1  0
 14 15  1  0
 14 16  2  0
  6 17  1  0
 17 18  2  3
 17 19  1  0
 19  2  1  0
 16  9  1  0
  1 20  1  0
  3 21  1  0
  5 22  1  0
  5 23  1  0
  8 24  1  0
 10 25  1  0
 11 26  1  0
 13 27  1  0
 15 28  1  0
 16 29  1  0
 18 30  1  0
 19 31  1  0
M  END
>  <smiles>  (36) 
N=c1[nH]c(N)c(N=Cc2ccc(O)c(O)c2)c(=N)[nH]1

>  <score_type>  (36) 
oracle

>  <origin>  (36) 
adgpu

>  <m_score__min__energy>  (36) 
-6.7800000000000002

>  <m_primary>  (36) 
energy

$$$$
36:0
     RDKit          3D

 63 67  0  0  0  0  0  0  0  0999 V2000
   -9.0390   22.6500  -31.9550 C   0  0  0  0  0  0  0  0  0  0  0  0
   -8.0240   21.6120  -32.0850 N   0  0  0  0  0  0  0  0  0  0  0  0
   -8.1990   20.2960  -32.6060 C   0  0  0  0  0  0  0  0  0  0  0  0
   -9.3040   19.8710  -33.0410 O   0  0  0  0  0  0  0  0  0  0  0  0
   -6.9370   19.4730  -32.5310 C   0  0  0  0  0  0  0  0  0  0  0  0
   -6.4810   19.0270  -33.9250 C   0  0  0  0  0  0  0  0  0  0  0  0
   -7.1180   18.2790  -31.5820 C   0  0  0  0  0  0  0  0  0  0  0  0
   -5.9990   20.4970  -31.9440 C   0  0  0  0  0  0  0  0  0  0  0  0
   -4.6350   20.3700  -31.6780 C   0  0  0  0  0  0  0  0  0  0  0  0
   -3.9510   21.4660  -31.1270 C   0  0  0  0  0  0  0  0  0  0  0  0
   -4.6380   22.6620  -30.8210 C   0  0  0  0  0  0  0  0  0  0  0  0
   -3.7910   24.0190  -30.0850 S   0  0  0  0  0  0  0  0  0  0  0  0
   -4.1030   25.2700  -30.8550 O   0  0  0  0  0  0  0  0  0  0  0  0
   -4.2590   24.2030  -28.6700 O   0  0  0  0  0  0  0  0  0  0  0  0
   -2.0760   23.7560  -30.0580 N   0  0  0  0  0  0  0  0  0  0  0  0
   -1.5150   22.4440  -30.0930 C   0  0  0  0  0  0  0  0  0  0  0  0
   -1.0510   21.9340  -31.3230 C   0  0  0  0  0  0  0  0  0  0  0  0
   -0.4300   20.6880  -31.3240 C   0  0  0  0  0  0  0  0  0  0  0  0
   -0.2930   19.9510  -30.1800 C   0  0  0  0  0  0  0  0  0  0  0  0
   -0.7760   20.3990  -28.9500 C   0  0  0  0  0  0  0  0  0  0  0  0
   -1.4100   21.6600  -28.9030 C   0  0  0  0  0  0  0  0  0  0  0  0
   -2.0490   22.2340  -27.3580 S   0  0  0  0  0  0  0  0  0  0  0  0
   -3.5510   22.1930  -27.3810 O   0  0  0  0  0  0  0  0  0  0  0  0
   -1.5700   21.3370  -26.2500 O   0  0  0  0  0  0  0  0  0  0  0  0
   -1.5580   23.8980  -27.0640 C   0  0  0  0  0  0  0  0  0  0  0  0
   -2.3890   24.7430  -26.3120 C   0  0  0  0  0  0  0  0  0  0  0  0
   -2.0150   26.0700  -26.0780 C   0  0  0  0  0  0  0  0  0  0  0  0
   -0.8150   26.5620  -26.6020 C   0  0  0  0  0  0  0  0  0  0  0  0
    0.0160   25.7250  -27.3580 C   0  0  0  0  0  0  0  0  0  0  0  0
   -0.3500   24.3940  -27.5810 C   0  0  0  0  0  0  0  0  0  0  0  0
    0.3460   18.8000  -30.4650 N   0  0  0  0  0  0  0  0  0  0  0  0
    0.7010   17.7240  -29.5430 C   0  0  0  0  0  0  0  0  0  0  0  0
    0.5830   18.8720  -31.8000 C   0  0  0  0  0  0  0  0  0  0  0  0
    1.1630   17.9620  -32.4550 O   0  0  0  0  0  0  0  0  0  0  0  0
    0.1300   20.0240  -32.3550 N   0  0  0  0  0  0  0  0  0  0  0  0
    0.1910   20.4380  -33.7560 C   0  0  0  0  0  0  0  0  0  0  0  0
   -6.0200   22.7590  -31.0800 C   0  0  0  0  0  0  0  0  0  0  0  0
   -6.6670   21.6740  -31.6740 C   0  0  0  0  0  0  0  0  0  0  0  0
   -9.2297   22.8450  -30.8893 H   0  0  0  0  0  0  0  0  0  0  0  0
   -8.6845   23.5721  -32.4388 H   0  0  0  0  0  0  0  0  0  0  0  0
   -9.9688   22.3163  -32.4388 H   0  0  0  0  0  0  0  0  0  0  0  0
   -5.6977   18.2609  -33.8269 H   0  0  0  0  0  0  0  0  0  0  0  0
   -7.3370   18.6079  -34.4742 H   0  0  0  0  0  0  0  0  0  0  0  0
   -6.0810   19.8921  -34.4742 H   0  0  0  0  0  0  0  0  0  0  0  0
   -7.0652   18.6275  -30.5400 H   0  0  0  0  0  0  0  0  0  0  0  0
   -8.0972   17.8118  -31.7632 H   0  0  0  0  0  0  0  0  0  0  0  0
   -6.3212   17.5426  -31.7632 H   0  0  0  0  0  0  0  0  0  0  0  0
   -4.1061   19.4303  -31.8955 H   0  0  0  0  0  0  0  0  0  0  0  0
   -2.8709   21.3925  -30.9320 H   0  0  0  0  0  0  0  0  0  0  0  0
   -1.1761   22.5044  -32.2552 H   0  0  0  0  0  0  0  0  0  0  0  0
   -0.6660   19.7872  -28.0425 H   0  0  0  0  0  0  0  0  0  0  0  0
   -3.3369   24.3604  -25.9057 H   0  0  0  0  0  0  0  0  0  0  0  0
   -2.6648   26.7273  -25.4816 H   0  0  0  0  0  0  0  0  0  0  0  0
   -0.5236   27.6070  -26.4203 H   0  0  0  0  0  0  0  0  0  0  0  0
    0.9559   26.1147  -27.7760 H   0  0  0  0  0  0  0  0  0  0  0  0
    0.3099   23.7337  -28.1628 H   0  0  0  0  0  0  0  0  0  0  0  0
    0.5850   18.0755  -28.5072 H   0  0  0  0  0  0  0  0  0  0  0  0
    0.0397   16.8617  -29.7138 H   0  0  0  0  0  0  0  0  0  0  0  0
    1.7456   17.4245  -29.7138 H   0  0  0  0  0  0  0  0  0  0  0  0
    0.3511   21.5249  -33.8105 H   0  0  0  0  0  0  0  0  0  0  0  0
    1.0224   19.9193  -34.2557 H   0  0  0  0  0  0  0  0  0  0  0  0
   -0.7547   20.1812  -34.2557 H   0  0  0  0  0  0  0  0  0  0  0  0
   -6.5773   23.6709  -30.8194 H   0  0  0  0  0  0  0  0  0  0  0  0
  1  2  1  0
  2  3  1  0
  3  4  2  0
  3  5  1  0
  5  6  1  0
  5  7  1  0
  5  8  1  0
  8  9  2  0
  9 10  1  0
 10 11  2  0
 11 12  1  0
 12 13  2  0
 12 14  2  0
 12 15  1  0
 15 16  1  0
 16 17  2  0
 17 18  1  0
 18 19  2  0
 19 20  1  0
 20 21  2  0
 21 22  1  0
 22 23  2  0
 22 24  2  0
 22 25  1  0
 25 26  2  0
 26 27  1  0
 27 28  2  0
 28 29  1  0
 29 30  2  0
 19 31  1  0
 31 32  1  0
 31 33  1  0
 33 34  2  0
 33 35  1  0
 35 36  1  0
 11 37  1  0
 37 38  2  0
 38  2  1  0
 38  8  1  0
 21 16  1  0
 30 25  1  0
 35 18  1  0
  1 39  1  0
  1 40  1  0
  1 41  1  0
  6 42  1  0
  6 43  1  0
  6 44  1  0
  7 45  1  0
  7 46  1  0
  7 47  1  0
  9 48  1  0
 10 49  1  0
 17 50  1  0
 20 51  1  0
 26 52  1  0
 27 53  1  0
 28 54  1  0
 29 55  1  0
 30 56  1  0
 32 57  1  0
 32 58  1  0
 32 59  1  0
 36 60  1  0
 36 61  1  0
 36 62  1  0
 37 63  1  0
M  CHG  1  15  -1
M  END
>  <UniqueID>  (37) 
36

>  <SMILES>  (37) 
CN1C(=O)C(C)(C)c2ccc(S(=O)(=O)[N-]c3cc4c(cc3S(=O)(=O)c3ccccc3)n(C)c(=O)n4C)cc21

>  <Energy>  (37) 
134.75493232863565

>  <Genealogy>  (37) 
CN1C(=O)C(C)(C)c2ccc(S(=O)(=O)[N-]c3cc4c(cc3S(=O)(=O)c3ccccc3)n(C)c(=O)n4C)cc21 (protonated)
CN1C(=O)C(C)(C)c2ccc(S(=O)(=O)[N-]c3cc4c(cc3S(=O)(=O)c3ccccc3)n(C)c(=O)n4C)cc21 (3D coordinates assigned)
CN1C(=O)C(C)(C)c2ccc(S(=O)(=O)[N-]c3cc4c(cc3S(=O)(=O)c3ccccc3)n(C)c(=O)n4C)cc21 (nonaromatic ring conformer: 134.75493232863565 kcal/mol)

>  <smiles>  (37) 
CN1C(=O)C(C)(C)c2ccc(S(=O)(=O)Nc3cc4c(cc3S(=O)(=O)c3ccccc3)n(C)c(=O)n4C)cc21

>  <score_type>  (37) 
oracle

>  <origin>  (37) 
adgpu

>  <m_score__min__energy>  (37) 
-12.880000000000001

>  <m_primary>  (37) 
energy

$$$$
37:0
     RDKit          3D

 45 47  0  0  0  0  0  0  0  0999 V2000
   -2.3640   23.8930  -27.4560 C   0  0  0  0  0  0  0  0  0  0  0  0
   -1.8490   24.5760  -28.6760 C   0  0  0  0  0  0  0  0  0  0  0  0
   -0.6400   24.9290  -28.7260 O   0  0  0  0  0  0  0  0  0  0  0  0
   -2.7590   24.9250  -29.7280 N   0  0  0  0  0  0  0  0  0  0  0  0
   -3.9220   24.1800  -30.1140 C   0  0  0  0  0  0  0  0  0  0  0  0
   -3.8420   23.0570  -30.9560 C   0  0  0  0  0  0  0  0  0  0  0  0
   -5.0070   22.4130  -31.3830 C   0  0  0  0  0  0  0  0  0  0  0  0
   -6.2620   22.8820  -30.9700 C   0  0  0  0  0  0  0  0  0  0  0  0
   -7.7380   22.2970  -31.7420 S   0  0  0  0  0  0  0  0  0  0  0  0
   -8.6590   21.6790  -30.7290 O   0  0  0  0  0  0  0  0  0  0  0  0
   -8.4310   23.4520  -32.4080 O   0  0  0  0  0  0  0  0  0  0  0  0
   -7.3190   21.1070  -32.9340 N   0  0  0  0  0  0  0  0  0  0  0  0
   -7.0540   19.7430  -32.5860 C   0  0  0  0  0  0  0  0  0  0  0  0
   -8.0170   18.7680  -32.4060 C   0  0  0  0  0  0  0  0  0  0  0  0
   -9.4890   19.0000  -32.3200 C   0  0  0  0  0  0  0  0  0  0  0  0
   -7.4640   17.5490  -32.5830 N   0  0  0  0  0  0  0  0  0  0  0  0
   -6.1690   17.7130  -32.8210 N   0  0  0  0  0  0  0  0  0  0  0  0
   -5.3010   16.6510  -33.2530 C   0  0  0  0  0  0  0  0  0  0  0  0
   -4.7410   16.6880  -34.5410 C   0  0  0  0  0  0  0  0  0  0  0  0
   -3.8370   15.7030  -34.9500 C   0  0  0  0  0  0  0  0  0  0  0  0
   -3.4970   14.6530  -34.0860 C   0  0  0  0  0  0  0  0  0  0  0  0
   -2.4810   13.6330  -34.5030 C   0  0  0  0  0  0  0  0  0  0  0  0
   -4.0570   14.6100  -32.8000 C   0  0  0  0  0  0  0  0  0  0  0  0
   -4.9580   15.5970  -32.3890 C   0  0  0  0  0  0  0  0  0  0  0  0
   -5.8970   19.0340  -32.8330 C   0  0  0  0  0  0  0  0  0  0  0  0
   -4.7730   19.5320  -33.1030 O   0  0  0  0  0  0  0  0  0  0  0  0
   -6.3360   23.9450  -30.0610 C   0  0  0  0  0  0  0  0  0  0  0  0
   -5.1720   24.5860  -29.6310 C   0  0  0  0  0  0  0  0  0  0  0  0
   -1.9795   24.4029  -26.5604 H   0  0  0  0  0  0  0  0  0  0  0  0
   -3.4635   23.9266  -27.4535 H   0  0  0  0  0  0  0  0  0  0  0  0
   -2.0292   22.8452  -27.4535 H   0  0  0  0  0  0  0  0  0  0  0  0
   -2.8593   22.6838  -31.2799 H   0  0  0  0  0  0  0  0  0  0  0  0
   -4.9389   21.5366  -32.0443 H   0  0  0  0  0  0  0  0  0  0  0  0
   -9.7916   19.0477  -31.2635 H   0  0  0  0  0  0  0  0  0  0  0  0
   -9.7403   19.9488  -32.8166 H   0  0  0  0  0  0  0  0  0  0  0  0
  -10.0199   18.1744  -32.8166 H   0  0  0  0  0  0  0  0  0  0  0  0
   -5.0158   17.4979  -35.2327 H   0  0  0  0  0  0  0  0  0  0  0  0
   -3.3907   15.7523  -35.9542 H   0  0  0  0  0  0  0  0  0  0  0  0
   -2.0288   13.1791  -33.6089 H   0  0  0  0  0  0  0  0  0  0  0  0
   -2.9706   12.8519  -35.1031 H   0  0  0  0  0  0  0  0  0  0  0  0
   -1.6979   14.1195  -35.1031 H   0  0  0  0  0  0  0  0  0  0  0  0
   -3.7858   13.7958  -32.1119 H   0  0  0  0  0  0  0  0  0  0  0  0
   -5.4010   15.5482  -31.3833 H   0  0  0  0  0  0  0  0  0  0  0  0
   -7.3149   24.2764  -29.6842 H   0  0  0  0  0  0  0  0  0  0  0  0
   -5.2375   25.4137  -28.9095 H   0  0  0  0  0  0  0  0  0  0  0  0
  1  2  1  0
  2  3  2  0
  2  4  1  0
  4  5  1  0
  5  6  2  0
  6  7  1  0
  7  8  2  0
  8  9  1  0
  9 10  2  0
  9 11  2  0
  9 12  1  0
 12 13  1  0
 13 14  2  0
 14 15  1  0
 14 16  1  0
 16 17  1  0
 17 18  1  0
 18 19  2  0
 19 20  1  0
 20 21  2  0
 21 22  1  0
 21 23  1  0
 23 24  2  0
 17 25  1  0
 25 26  2  0
  8 27  1  0
 27 28  2  0
 28  5  1  0
 25 13  1  0
 24 18  1  0
  1 29  1  0
  1 30  1  0
  1 31  1  0
  6 32  1  0
  7 33  1  0
 15 34  1  0
 15 35  1  0
 15 36  1  0
 19 37  1  0
 20 38  1  0
 22 39  1  0
 22 40  1  0
 22 41  1  0
 23 42  1  0
 24 43  1  0
 27 44  1  0
 28 45  1  0
M  CHG  3   4  -1  12  -1  16  -1
M  END
>  <UniqueID>  (38) 
37

>  <SMILES>  (38) 
CC(=O)[N-]c1ccc(S(=O)(=O)[N-]c2c(C)[n-]n(-c3ccc(C)cc3)c2=O)cc1

>  <Energy>  (38) 
90.15748487557224

>  <Genealogy>  (38) 
CC(=O)[N-]c1ccc(S(=O)(=O)[N-]c2c(C)[n-]n(-c3ccc(C)cc3)c2=O)cc1 (protonated)
CC(=O)[N-]c1ccc(S(=O)(=O)[N-]c2c(C)[n-]n(-c3ccc(C)cc3)c2=O)cc1 (3D coordinates assigned)
CC(=O)[N-]c1ccc(S(=O)(=O)[N-]c2c(C)[n-]n(-c3ccc(C)cc3)c2=O)cc1 (optimized conformer: 90.15748487557224 kcal/mol)

>  <smiles>  (38) 
CC(=O)Nc1ccc(S(=O)(=O)Nc2c(C)[nH]n(-c3ccc(C)cc3)c2=O)cc1

>  <score_type>  (38) 
oracle

>  <origin>  (38) 
adgpu

>  <m_score__min__energy>  (38) 
-10.6

>  <m_primary>  (38) 
energy

$$$$
38:0
     RDKit          3D

 31 32  0  0  0  0  0  0  0  0999 V2000
    0.0810   22.4300  -23.9290 O   0  0  0  0  0  0  0  0  0  0  0  0
   -0.3970   22.6000  -25.0830 C   0  0  0  0  0  0  0  0  0  0  0  0
   -0.3400   23.9750  -25.6970 C   0  0  0  0  0  0  0  0  0  0  0  0
    1.0530   24.3010  -26.1480 C   0  0  0  0  0  0  0  0  0  0  0  0
    2.3650   24.5280  -25.1170 S   0  0  0  0  0  0  0  0  0  0  0  0
    3.4150   24.8900  -26.3770 C   0  0  0  0  0  0  0  0  0  0  0  0
    4.9950   25.2510  -26.1850 S   0  0  0  0  0  0  0  0  0  0  0  0
    2.8030   24.8550  -27.5790 N   0  0  0  0  0  0  0  0  0  0  0  0
    1.4880   24.5340  -27.4580 C   0  0  0  0  0  0  0  0  0  0  0  0
    0.6640   24.4540  -28.5790 O   0  0  0  0  0  0  0  0  0  0  0  0
   -1.0220   21.4840  -25.7330 N   0  0  0  0  0  0  0  0  0  0  0  0
   -1.0630   21.2280  -27.1680 C   0  0  0  0  0  0  0  0  0  0  0  0
   -2.5120   21.1260  -27.6550 C   0  0  0  0  0  0  0  0  0  0  0  0
   -2.8800   22.3320  -28.4740 C   0  0  0  0  0  0  0  0  0  0  0  0
   -4.0440   22.3250  -29.2590 C   0  0  0  0  0  0  0  0  0  0  0  0
   -4.3710   23.4330  -30.0450 C   0  0  0  0  0  0  0  0  0  0  0  0
   -3.5340   24.5530  -30.0630 C   0  0  0  0  0  0  0  0  0  0  0  0
   -3.8650   25.6520  -30.8470 O   0  0  0  0  0  0  0  0  0  0  0  0
   -2.3640   24.5630  -29.2930 C   0  0  0  0  0  0  0  0  0  0  0  0
   -1.5250   25.6710  -29.3120 O   0  0  0  0  0  0  0  0  0  0  0  0
   -2.0350   23.4540  -28.5050 C   0  0  0  0  0  0  0  0  0  0  0  0
   -1.0170   24.0112  -26.5632 H   0  0  0  0  0  0  0  0  0  0  0  0
   -0.6463   24.7117  -24.9397 H   0  0  0  0  0  0  0  0  0  0  0  0
    0.0540   25.2140  -28.8540 H   0  0  0  0  0  0  0  0  0  0  0  0
   -0.5607   22.0514  -27.6969 H   0  0  0  0  0  0  0  0  0  0  0  0
   -0.5513   20.2763  -27.3738 H   0  0  0  0  0  0  0  0  0  0  0  0
   -2.6235   20.2221  -28.2719 H   0  0  0  0  0  0  0  0  0  0  0  0
   -3.1776   21.0739  -26.7808 H   0  0  0  0  0  0  0  0  0  0  0  0
   -4.7016   21.4432  -29.2552 H   0  0  0  0  0  0  0  0  0  0  0  0
   -5.2890   23.4242  -30.6510 H   0  0  0  0  0  0  0  0  0  0  0  0
   -1.1113   23.4609  -27.9077 H   0  0  0  0  0  0  0  0  0  0  0  0
  1  2  2  0
  2  3  1  0
  3  4  1  0
  4  5  1  0
  5  6  1  0
  6  7  2  0
  6  8  1  0
  8  9  1  0
  9 10  1  0
  2 11  1  0
 11 12  1  0
 12 13  1  0
 13 14  1  0
 14 15  2  0
 15 16  1  0
 16 17  2  0
 17 18  1  0
 17 19  1  0
 19 20  1  0
 19 21  2  0
  9  4  2  0
 21 14  1  0
  3 22  1  0
  3 23  1  0
 10 24  1  0
 12 25  1  0
 12 26  1  0
 13 27  1  0
 13 28  1  0
 15 29  1  0
 16 30  1  0
 21 31  1  0
M  CHG  4   8  -1  11  -1  18  -1  20  -1
M  END
>  <UniqueID>  (39) 
38

>  <SMILES>  (39) 
O=C(Cc1sc(=S)[n-]c1O)[N-]CCc1ccc([O-])c([O-])c1

>  <Energy>  (39) 
56.80952209088344

>  <Genealogy>  (39) 
O=C(Cc1sc(=S)[n-]c1O)[N-]CCc1ccc([O-])c([O-])c1 (protonated)
O=C(Cc1sc(=S)[n-]c1O)[N-]CCc1ccc([O-])c([O-])c1 (3D coordinates assigned)
O=C(Cc1sc(=S)[n-]c1O)[N-]CCc1ccc([O-])c([O-])c1 (optimized conformer: 56.80952209088344 kcal/mol)

>  <smiles>  (39) 
O=C(Cc1sc(=S)[nH]c1O)NCCc1ccc(O)c(O)c1

>  <score_type>  (39) 
oracle

>  <origin>  (39) 
adgpu

>  <m_score__min__energy>  (39) 
-11.85

>  <m_primary>  (39) 
energy

$$$$
39:0
     RDKit          3D

 56 59  0  0  0  0  0  0  0  0999 V2000
   -1.6540   19.9530  -26.3610 C   0  0  0  0  0  0  0  0  0  0  0  0
   -1.3740   20.2680  -27.7780 N   0  0  0  0  0  0  0  0  0  0  0  0
   -0.5620   19.4400  -28.5090 C   0  0  0  0  0  0  0  0  0  0  0  0
   -0.0360   18.4220  -27.9800 O   0  0  0  0  0  0  0  0  0  0  0  0
   -0.3070   19.7050  -29.8570 C   0  0  0  0  0  0  0  0  0  0  0  0
    0.4530   18.9240  -30.4950 O   0  0  0  0  0  0  0  0  0  0  0  0
   -0.8730   20.7900  -30.4740 N   0  0  0  0  0  0  0  0  0  0  0  0
   -0.6540   21.0020  -31.9210 C   0  0  0  0  0  0  0  0  0  0  0  0
   -1.6410   21.6670  -29.7410 C   0  0  0  0  0  0  0  0  0  0  0  0
   -2.1750   22.8460  -30.3200 C   0  0  0  0  0  0  0  0  0  0  0  0
   -2.9830   23.7090  -29.5800 C   0  0  0  0  0  0  0  0  0  0  0  0
   -3.5800   24.8370  -30.2210 N   0  0  0  0  0  0  0  0  0  0  0  0
   -5.2980   25.0370  -30.2090 S   0  0  0  0  0  0  0  0  0  0  0  0
   -5.7570   25.5170  -28.8610 O   0  0  0  0  0  0  0  0  0  0  0  0
   -5.6900   26.0500  -31.2460 O   0  0  0  0  0  0  0  0  0  0  0  0
   -6.0240   23.4800  -30.5910 C   0  0  0  0  0  0  0  0  0  0  0  0
   -5.4380   22.6580  -31.5630 C   0  0  0  0  0  0  0  0  0  0  0  0
   -6.0930   21.5040  -31.9950 C   0  0  0  0  0  0  0  0  0  0  0  0
   -7.3410   21.1590  -31.4580 C   0  0  0  0  0  0  0  0  0  0  0  0
   -8.2170   19.7600  -32.0820 S   0  0  0  0  0  0  0  0  0  0  0  0
   -9.2280   20.2190  -33.0960 O   0  0  0  0  0  0  0  0  0  0  0  0
   -8.9560   19.0970  -30.9530 O   0  0  0  0  0  0  0  0  0  0  0  0
   -7.1290   18.6030  -32.8120 N   0  0  0  0  0  0  0  0  0  0  0  0
   -6.1770   18.0930  -31.8110 C   0  0  0  0  0  0  0  0  0  0  0  0
   -5.3640   16.9170  -32.3850 C   0  0  0  0  0  0  0  0  0  0  0  0
   -5.3770   16.8850  -33.9210 C   0  0  0  0  0  0  0  0  0  0  0  0
   -5.2990   18.3010  -34.5020 C   0  0  0  0  0  0  0  0  0  0  0  0
   -6.4100   19.2190  -33.9440 C   0  0  0  0  0  0  0  0  0  0  0  0
   -7.9130   21.9630  -30.4630 C   0  0  0  0  0  0  0  0  0  0  0  0
   -7.2610   23.1240  -30.0370 C   0  0  0  0  0  0  0  0  0  0  0  0
   -3.2590   23.4300  -28.2430 C   0  0  0  0  0  0  0  0  0  0  0  0
   -2.7260   22.2940  -27.6400 C   0  0  0  0  0  0  0  0  0  0  0  0
   -1.9100   21.3930  -28.3690 C   0  0  0  0  0  0  0  0  0  0  0  0
   -1.0630   20.6178  -25.7139 H   0  0  0  0  0  0  0  0  0  0  0  0
   -2.7249   20.1001  -26.1574 H   0  0  0  0  0  0  0  0  0  0  0  0
   -1.3824   18.9067  -26.1574 H   0  0  0  0  0  0  0  0  0  0  0  0
    0.1294   21.7604  -32.0660 H   0  0  0  0  0  0  0  0  0  0  0  0
   -0.3396   20.0563  -32.3867 H   0  0  0  0  0  0  0  0  0  0  0  0
   -1.5890   21.3470  -32.3867 H   0  0  0  0  0  0  0  0  0  0  0  0
   -1.9483   23.0839  -31.3698 H   0  0  0  0  0  0  0  0  0  0  0  0
   -4.4583   22.9234  -31.9869 H   0  0  0  0  0  0  0  0  0  0  0  0
   -5.6286   20.8633  -32.7591 H   0  0  0  0  0  0  0  0  0  0  0  0
   -5.4889   18.9011  -31.5220 H   0  0  0  0  0  0  0  0  0  0  0  0
   -6.7397   17.7403  -30.9341 H   0  0  0  0  0  0  0  0  0  0  0  0
   -4.3225   17.0084  -32.0431 H   0  0  0  0  0  0  0  0  0  0  0  0
   -5.8274   15.9854  -32.0280 H   0  0  0  0  0  0  0  0  0  0  0  0
   -4.5137   16.3029  -34.2757 H   0  0  0  0  0  0  0  0  0  0  0  0
   -6.3178   16.4219  -34.2533 H   0  0  0  0  0  0  0  0  0  0  0  0
   -4.3201   18.7348  -34.2496 H   0  0  0  0  0  0  0  0  0  0  0  0
   -5.4339   18.2287  -35.5913 H   0  0  0  0  0  0  0  0  0  0  0  0
   -5.9535   20.1600  -33.6032 H   0  0  0  0  0  0  0  0  0  0  0  0
   -7.1380   19.3946  -34.7498 H   0  0  0  0  0  0  0  0  0  0  0  0
   -8.8774   21.6799  -30.0160 H   0  0  0  0  0  0  0  0  0  0  0  0
   -7.7200   23.7594  -29.2653 H   0  0  0  0  0  0  0  0  0  0  0  0
   -3.9000   24.1095  -27.6621 H   0  0  0  0  0  0  0  0  0  0  0  0
   -2.9417   22.0923  -26.5804 H   0  0  0  0  0  0  0  0  0  0  0  0
  1  2  1  0
  2  3  1  0
  3  4  2  0
  3  5  1  0
  5  6  2  0
  5  7  1  0
  7  8  1  0
  7  9  1  0
  9 10  2  0
 10 11  1  0
 11 12  1  0
 12 13  1  0
 13 14  2  0
 13 15  2  0
 13 16  1  0
 16 17  2  0
 17 18  1  0
 18 19  2  0
 19 20  1  0
 20 21  2  0
 20 22  2  0
 20 23  1  0
 23 24  1  0
 24 25  1  0
 25 26  1  0
 26 27  1  0
 27 28  1  0
 19 29  1  0
 29 30  2  0
 11 31  2  0
 31 32  1  0
 32 33  2  0
 33  2  1  0
 33  9  1  0
 30 16  1  0
 28 23  1  0
  1 34  1  0
  1 35  1  0
  1 36  1  0
  8 37  1  0
  8 38  1  0
  8 39  1  0
 10 40  1  0
 17 41  1  0
 18 42  1  0
 24 43  1  0
 24 44  1  0
 25 45  1  0
 25 46  1  0
 26 47  1  0
 26 48  1  0
 27 49  1  0
 27 50  1  0
 28 51  1  0
 28 52  1  0
 29 53  1  0
 30 54  1  0
 31 55  1  0
 32 56  1  0
M  CHG  1  12  -1
M  END
>  <UniqueID>  (40) 
39

>  <SMILES>  (40) 
Cn1c(=O)c(=O)n(C)c2cc([N-]S(=O)(=O)c3ccc(S(=O)(=O)N4CCCCC4)cc3)ccc21

>  <Energy>  (40) 
83.37847633921967

>  <Genealogy>  (40) 
Cn1c(=O)c(=O)n(C)c2cc([N-]S(=O)(=O)c3ccc(S(=O)(=O)N4CCCCC4)cc3)ccc21 (protonated)
Cn1c(=O)c(=O)n(C)c2cc([N-]S(=O)(=O)c3ccc(S(=O)(=O)N4CCCCC4)cc3)ccc21 (3D coordinates assigned)
Cn1c(=O)c(=O)n(C)c2cc([N-]S(=O)(=O)c3ccc(S(=O)(=O)N4CCCCC4)cc3)ccc21 (nonaromatic ring conformer: 83.37847633921967 kcal/mol)

>  <smiles>  (40) 
Cn1c(=O)c(=O)n(C)c2cc(NS(=O)(=O)c3ccc(S(=O)(=O)N4CCCCC4)cc3)ccc21

>  <score_type>  (40) 
oracle

>  <origin>  (40) 
adgpu

>  <m_score__min__energy>  (40) 
-12.390000000000001

>  <m_primary>  (40) 
energy

$$$$
40:0
     RDKit          3D

 33 34  0  0  0  0  0  0  0  0999 V2000
   -4.6170   19.5840  -32.3280 C   0  0  0  0  0  0  0  0  0  0  0  0
   -4.7650   21.2590  -33.0240 S   0  0  0  0  0  0  0  0  0  0  0  0
   -6.4990   21.4230  -32.5700 C   0  0  0  0  0  0  0  0  0  0  0  0
   -7.3220   20.2900  -32.6100 C   0  0  0  0  0  0  0  0  0  0  0  0
   -8.6830   20.3970  -32.3070 C   0  0  0  0  0  0  0  0  0  0  0  0
   -9.2290   21.6370  -31.9710 C   0  0  0  0  0  0  0  0  0  0  0  0
   -8.4140   22.7720  -31.9250 C   0  0  0  0  0  0  0  0  0  0  0  0
   -7.0440   22.6680  -32.2010 C   0  0  0  0  0  0  0  0  0  0  0  0
   -6.2340   23.8460  -32.1460 N   0  0  0  0  0  0  0  0  0  0  0  0
   -5.4860   24.2560  -30.9950 C   0  0  0  0  0  0  0  0  0  0  0  0
   -4.7960   25.3070  -31.0610 O   0  0  0  0  0  0  0  0  0  0  0  0
   -5.5450   23.4980  -29.6980 C   0  0  0  0  0  0  0  0  0  0  0  0
   -4.2460   22.2150  -29.6220 S   0  0  0  0  0  0  0  0  0  0  0  0
   -3.0430   23.2540  -28.7860 C   0  0  0  0  0  0  0  0  0  0  0  0
   -2.5540   22.8880  -27.5260 C   0  0  0  0  0  0  0  0  0  0  0  0
   -1.6200   23.6990  -26.8750 C   0  0  0  0  0  0  0  0  0  0  0  0
   -1.1770   24.8800  -27.4780 C   0  0  0  0  0  0  0  0  0  0  0  0
   -1.6700   25.2530  -28.7340 C   0  0  0  0  0  0  0  0  0  0  0  0
   -1.2330   26.4270  -29.3330 O   0  0  0  0  0  0  0  0  0  0  0  0
   -2.6060   24.4420  -29.3860 C   0  0  0  0  0  0  0  0  0  0  0  0
   -4.6221   19.6416  -31.2295 H   0  0  0  0  0  0  0  0  0  0  0  0
   -5.4644   18.9699  -32.6669 H   0  0  0  0  0  0  0  0  0  0  0  0
   -3.6751   19.1280  -32.6669 H   0  0  0  0  0  0  0  0  0  0  0  0
   -6.8961   19.3126  -32.8807 H   0  0  0  0  0  0  0  0  0  0  0  0
   -9.3238   19.5033  -32.3334 H   0  0  0  0  0  0  0  0  0  0  0  0
  -10.3016   21.7212  -31.7422 H   0  0  0  0  0  0  0  0  0  0  0  0
   -8.8495   23.7498  -31.6714 H   0  0  0  0  0  0  0  0  0  0  0  0
   -5.4033   24.2017  -28.8645 H   0  0  0  0  0  0  0  0  0  0  0  0
   -6.5258   23.0050  -29.6273 H   0  0  0  0  0  0  0  0  0  0  0  0
   -2.9051   21.9615  -27.0481 H   0  0  0  0  0  0  0  0  0  0  0  0
   -1.2332   23.4077  -25.8873 H   0  0  0  0  0  0  0  0  0  0  0  0
   -0.4407   25.5164  -26.9653 H   0  0  0  0  0  0  0  0  0  0  0  0
   -2.9987   24.7376  -30.3701 H   0  0  0  0  0  0  0  0  0  0  0  0
  1  2  1  0
  2  3  1  0
  3  4  2  0
  4  5  1  0
  5  6  2  0
  6  7  1  0
  7  8  2  0
  8  9  1  0
  9 10  1  0
 10 11  2  0
 10 12  1  0
 12 13  1  0
 13 14  1  0
 14 15  2  0
 15 16  1  0
 16 17  2  0
 17 18  1  0
 18 19  1  0
 18 20  2  0
  8  3  1  0
 20 14  1  0
  1 21  1  0
  1 22  1  0
  1 23  1  0
  4 24  1  0
  5 25  1  0
  6 26  1  0
  7 27  1  0
 12 28  1  0
 12 29  1  0
 15 30  1  0
 16 31  1  0
 17 32  1  0
 20 33  1  0
M  CHG  2   9  -1  19  -1
M  END
>  <UniqueID>  (41) 
40

>  <SMILES>  (41) 
CSc1ccccc1[N-]C(=O)CSc1cccc([O-])c1

>  <Energy>  (41) 
31.544886425923128

>  <Genealogy>  (41) 
CSc1ccccc1[N-]C(=O)CSc1cccc([O-])c1 (protonated)
CSc1ccccc1[N-]C(=O)CSc1cccc([O-])c1 (3D coordinates assigned)
CSc1ccccc1[N-]C(=O)CSc1cccc([O-])c1 (optimized conformer: 31.544886425923128 kcal/mol)

>  <smiles>  (41) 
CSc1ccccc1NC(=O)CSc1cccc(O)c1

>  <score_type>  (41) 
oracle

>  <origin>  (41) 
adgpu

>  <m_score__min__energy>  (41) 
-11.1

>  <m_primary>  (41) 
energy

$$$$
41:0
     RDKit          3D

 44 46  0  0  0  0  0  0  0  0999 V2000
   -5.2640   25.6110  -30.7980 C   0  0  0  0  0  0  0  0  0  0  0  0
   -3.8710   25.2990  -30.5140 N   0  0  0  0  0  0  0  0  0  0  0  0
   -3.4720   24.4210  -29.4590 C   0  0  0  0  0  0  0  0  0  0  0  0
   -4.0530   24.4880  -28.3420 O   0  0  0  0  0  0  0  0  0  0  0  0
   -2.3820   23.4410  -29.6730 C   0  0  0  0  0  0  0  0  0  0  0  0
   -1.2140   23.2760  -28.9180 C   0  0  0  0  0  0  0  0  0  0  0  0
   -0.8000   24.0660  -27.7190 C   0  0  0  0  0  0  0  0  0  0  0  0
   -0.4840   22.2910  -29.4060 O   0  0  0  0  0  0  0  0  0  0  0  0
   -1.1160   21.8020  -30.4450 C   0  0  0  0  0  0  0  0  0  0  0  0
   -0.7090   20.7500  -31.2570 C   0  0  0  0  0  0  0  0  0  0  0  0
   -1.5450   20.3760  -32.3210 C   0  0  0  0  0  0  0  0  0  0  0  0
   -2.7640   21.0570  -32.5630 C   0  0  0  0  0  0  0  0  0  0  0  0
   -3.6010   20.6230  -33.6520 N   0  0  0  0  0  0  0  0  0  0  0  0
   -4.8190   19.3920  -33.5140 S   0  0  0  0  0  0  0  0  0  0  0  0
   -4.2630   18.2560  -32.7030 O   0  0  0  0  0  0  0  0  0  0  0  0
   -5.1540   18.8940  -34.8920 O   0  0  0  0  0  0  0  0  0  0  0  0
   -6.2690   20.0140  -32.7090 C   0  0  0  0  0  0  0  0  0  0  0  0
   -6.4400   21.4030  -32.5930 C   0  0  0  0  0  0  0  0  0  0  0  0
   -7.6040   21.9400  -32.0260 C   0  0  0  0  0  0  0  0  0  0  0  0
   -7.7620   23.4260  -31.8950 C   0  0  0  0  0  0  0  0  0  0  0  0
   -8.5870   21.0780  -31.5260 C   0  0  0  0  0  0  0  0  0  0  0  0
   -8.4180   19.6970  -31.6110 C   0  0  0  0  0  0  0  0  0  0  0  0
   -7.2650   19.1490  -32.1930 C   0  0  0  0  0  0  0  0  0  0  0  0
   -7.1210   17.7220  -32.2260 N   0  0  0  0  0  0  0  0  0  0  0  0
   -3.1410   22.1280  -31.7160 C   0  0  0  0  0  0  0  0  0  0  0  0
   -2.2920   22.4730  -30.6610 C   0  0  0  0  0  0  0  0  0  0  0  0
   -5.8124   25.7338  -29.8524 H   0  0  0  0  0  0  0  0  0  0  0  0
   -5.3199   26.5439  -31.3781 H   0  0  0  0  0  0  0  0  0  0  0  0
   -5.7125   24.7911  -31.3781 H   0  0  0  0  0  0  0  0  0  0  0  0
   -1.0847   23.5228  -26.8058 H   0  0  0  0  0  0  0  0  0  0  0  0
    0.2902   24.2115  -27.7343 H   0  0  0  0  0  0  0  0  0  0  0  0
   -1.3008   25.0453  -27.7343 H   0  0  0  0  0  0  0  0  0  0  0  0
    0.2402   20.2259  -31.0714 H   0  0  0  0  0  0  0  0  0  0  0  0
   -1.2498   19.5429  -32.9758 H   0  0  0  0  0  0  0  0  0  0  0  0
   -3.5030   21.0890  -34.5810 H   0  0  0  0  0  0  0  0  0  0  0  0
   -5.6498   22.0788  -32.9520 H   0  0  0  0  0  0  0  0  0  0  0  0
   -7.7910   23.6992  -30.8299 H   0  0  0  0  0  0  0  0  0  0  0  0
   -6.9123   23.9292  -32.3795 H   0  0  0  0  0  0  0  0  0  0  0  0
   -8.6985   23.7393  -32.3795 H   0  0  0  0  0  0  0  0  0  0  0  0
   -9.4958   21.4917  -31.0645 H   0  0  0  0  0  0  0  0  0  0  0  0
   -9.1980   19.0288  -31.2171 H   0  0  0  0  0  0  0  0  0  0  0  0
   -6.2060   17.2550  -32.4000 H   0  0  0  0  0  0  0  0  0  0  0  0
   -7.9350   17.1050  -32.0070 H   0  0  0  0  0  0  0  0  0  0  0  0
   -4.0801   22.6753  -31.8848 H   0  0  0  0  0  0  0  0  0  0  0  0
  1  2  1  0
  2  3  1  0
  3  4  2  0
  3  5  1  0
  5  6  2  0
  6  7  1  0
  6  8  1  0
  8  9  1  0
  9 10  2  0
 10 11  1  0
 11 12  2  0
 12 13  1  0
 13 14  1  0
 14 15  2  0
 14 16  2  0
 14 17  1  0
 17 18  2  0
 18 19  1  0
 19 20  1  0
 19 21  2  0
 21 22  1  0
 22 23  2  0
 23 24  1  0
 12 25  1  0
 25 26  2  0
 26  5  1  0
 26  9  1  0
 23 17  1  0
  1 27  1  0
  1 28  1  0
  1 29  1  0
  7 30  1  0
  7 31  1  0
  7 32  1  0
 10 33  1  0
 11 34  1  0
 13 35  1  0
 18 36  1  0
 20 37  1  0
 20 38  1  0
 20 39  1  0
 21 40  1  0
 22 41  1  0
 24 42  1  0
 24 43  1  0
 25 44  1  0
M  CHG  1   2  -1
M  END
>  <UniqueID>  (42) 
41

>  <SMILES>  (42) 
C[N-]C(=O)c1c(C)oc2ccc(NS(=O)(=O)c3cc(C)ccc3N)cc12

>  <Energy>  (42) 
80.76371136953948

>  <Genealogy>  (42) 
C[N-]C(=O)c1c(C)oc2ccc(NS(=O)(=O)c3cc(C)ccc3N)cc12 (protonated)
C[N-]C(=O)c1c(C)oc2ccc(NS(=O)(=O)c3cc(C)ccc3N)cc12 (3D coordinates assigned)
C[N-]C(=O)c1c(C)oc2ccc(NS(=O)(=O)c3cc(C)ccc3N)cc12 (optimized conformer: 80.76371136953948 kcal/mol)

>  <smiles>  (42) 
CNC(=O)c1c(C)oc2ccc(NS(=O)(=O)c3cc(C)ccc3N)cc12

>  <score_type>  (42) 
oracle

>  <origin>  (42) 
adgpu

>  <m_score__min__energy>  (42) 
-9.8499999999999996

>  <m_primary>  (42) 
energy

$$$$
42:0
     RDKit          3D

 65 69  0  0  0  0  0  0  0  0999 V2000
   -4.2310   16.8640  -35.2480 N   0  0  0  0  0  0  0  0  0  0  0  0
   -4.7310   15.8990  -34.2720 C   0  0  0  0  0  0  0  0  0  0  0  0
   -5.5240   16.6080  -33.2060 C   0  0  0  0  0  0  0  0  0  0  0  0
   -5.4240   16.2150  -31.8630 C   0  0  0  0  0  0  0  0  0  0  0  0
   -6.1180   16.9130  -30.8720 C   0  0  0  0  0  0  0  0  0  0  0  0
   -6.9210   18.0030  -31.2140 C   0  0  0  0  0  0  0  0  0  0  0  0
   -7.0520   18.4040  -32.5590 C   0  0  0  0  0  0  0  0  0  0  0  0
   -7.8580   19.6550  -32.8880 C   0  0  0  0  0  0  0  0  0  0  0  0
   -7.0100   20.8110  -33.5050 C   0  0  0  0  0  0  0  0  0  0  0  0
   -6.5280   21.8900  -32.5060 C   0  0  0  0  0  0  0  0  0  0  0  0
   -7.5000   22.1460  -31.4280 N   0  0  0  0  0  0  0  0  0  0  0  0
   -7.0320   22.5590  -30.1230 C   0  0  0  0  0  0  0  0  0  0  0  0
   -7.6930   22.2520  -29.0920 O   0  0  0  0  0  0  0  0  0  0  0  0
   -5.7590   23.2870  -29.9460 C   0  0  0  0  0  0  0  0  0  0  0  0
   -5.4360   24.3820  -30.7590 C   0  0  0  0  0  0  0  0  0  0  0  0
   -4.2440   25.0830  -30.5480 C   0  0  0  0  0  0  0  0  0  0  0  0
   -3.3640   24.6940  -29.5340 C   0  0  0  0  0  0  0  0  0  0  0  0
   -2.2280   25.4610  -29.2980 O   0  0  0  0  0  0  0  0  0  0  0  0
   -3.6540   23.5650  -28.7420 C   0  0  0  0  0  0  0  0  0  0  0  0
   -2.7660   23.0980  -27.7130 N   0  0  0  0  0  0  0  0  0  0  0  0
   -1.9740   21.5530  -27.7510 S   0  0  0  0  0  0  0  0  0  0  0  0
   -0.6250   21.6820  -27.1000 O   0  0  0  0  0  0  0  0  0  0  0  0
   -2.7860   20.5500  -26.9790 O   0  0  0  0  0  0  0  0  0  0  0  0
   -1.7660   21.0220  -29.4150 C   0  0  0  0  0  0  0  0  0  0  0  0
   -0.4840   20.9470  -29.9750 C   0  0  0  0  0  0  0  0  0  0  0  0
   -0.3170   20.5660  -31.3100 C   0  0  0  0  0  0  0  0  0  0  0  0
   -1.4340   20.2600  -32.1010 C   0  0  0  0  0  0  0  0  0  0  0  0
   -1.2800   19.8890  -33.4470 C   0  0  0  0  0  0  0  0  0  0  0  0
   -2.4040   19.5910  -34.2260 C   0  0  0  0  0  0  0  0  0  0  0  0
   -3.6840   19.6650  -33.6700 C   0  0  0  0  0  0  0  0  0  0  0  0
   -3.8510   20.0330  -32.3330 C   0  0  0  0  0  0  0  0  0  0  0  0
   -2.7320   20.3340  -31.5400 C   0  0  0  0  0  0  0  0  0  0  0  0
   -2.8880   20.7180  -30.2000 C   0  0  0  0  0  0  0  0  0  0  0  0
   -4.8700   22.8930  -28.9360 C   0  0  0  0  0  0  0  0  0  0  0  0
   -8.8480   21.5870  -31.5690 C   0  0  0  0  0  0  0  0  0  0  0  0
   -8.7170   20.0740  -31.6670 C   0  0  0  0  0  0  0  0  0  0  0  0
   -6.3200   17.7140  -33.5440 C   0  0  0  0  0  0  0  0  0  0  0  0
   -5.0520   17.3180  -35.7130 H   0  0  0  0  0  0  0  0  0  0  0  0
   -3.7270   16.3320  -35.9950 H   0  0  0  0  0  0  0  0  0  0  0  0
   -5.3766   15.1678  -34.7805 H   0  0  0  0  0  0  0  0  0  0  0  0
   -3.8789   15.3833  -33.8051 H   0  0  0  0  0  0  0  0  0  0  0  0
   -4.7966   15.3539  -31.5894 H   0  0  0  0  0  0  0  0  0  0  0  0
   -6.0318   16.6034  -29.8200 H   0  0  0  0  0  0  0  0  0  0  0  0
   -7.4563   18.5538  -30.4266 H   0  0  0  0  0  0  0  0  0  0  0  0
   -8.5521   19.4004  -33.7025 H   0  0  0  0  0  0  0  0  0  0  0  0
   -6.1220   20.3653  -33.9770 H   0  0  0  0  0  0  0  0  0  0  0  0
   -7.6748   21.3292  -34.2118 H   0  0  0  0  0  0  0  0  0  0  0  0
   -5.5830   21.5537  -32.0545 H   0  0  0  0  0  0  0  0  0  0  0  0
   -6.4015   22.8276  -33.0671 H   0  0  0  0  0  0  0  0  0  0  0  0
   -6.1201   24.6903  -31.5633 H   0  0  0  0  0  0  0  0  0  0  0  0
   -3.9976   25.9459  -31.1841 H   0  0  0  0  0  0  0  0  0  0  0  0
   -2.7730   23.5920  -26.7900 H   0  0  0  0  0  0  0  0  0  0  0  0
    0.3961   21.1892  -29.3611 H   0  0  0  0  0  0  0  0  0  0  0  0
    0.6933   20.5061  -31.7410 H   0  0  0  0  0  0  0  0  0  0  0  0
   -0.2745   19.8326  -33.8895 H   0  0  0  0  0  0  0  0  0  0  0  0
   -2.2795   19.2977  -35.2788 H   0  0  0  0  0  0  0  0  0  0  0  0
   -4.5638   19.4324  -34.2880 H   0  0  0  0  0  0  0  0  0  0  0  0
   -4.8610   20.0871  -31.9005 H   0  0  0  0  0  0  0  0  0  0  0  0
   -3.8953   20.7811  -29.7625 H   0  0  0  0  0  0  0  0  0  0  0  0
   -5.1299   22.0444  -28.2861 H   0  0  0  0  0  0  0  0  0  0  0  0
   -9.4571   21.8538  -30.6928 H   0  0  0  0  0  0  0  0  0  0  0  0
   -9.3383   21.9890  -32.4679 H   0  0  0  0  0  0  0  0  0  0  0  0
   -8.2420   19.6963  -30.7495 H   0  0  0  0  0  0  0  0  0  0  0  0
   -9.7236   19.6481  -31.7912 H   0  0  0  0  0  0  0  0  0  0  0  0
   -6.3724   18.0456  -34.5915 H   0  0  0  0  0  0  0  0  0  0  0  0
  1  2  1  0
  2  3  1  0
  3  4  2  0
  4  5  1  0
  5  6  2  0
  6  7  1  0
  7  8  1  0
  8  9  1  0
  9 10  1  0
 10 11  1  0
 11 12  1  0
 12 13  2  0
 12 14  1  0
 14 15  2  0
 15 16  1  0
 16 17  2  0
 17 18  1  0
 17 19  1  0
 19 20  1  0
 20 21  1  0
 21 22  2  0
 21 23  2  0
 21 24  1  0
 24 25  2  0
 25 26  1  0
 26 27  2  0
 27 28  1  0
 28 29  2  0
 29 30  1  0
 30 31  2  0
 31 32  1  0
 32 33  2  0
 19 34  2  0
 11 35  1  0
 35 36  1  0
  7 37  2  0
 37  3  1  0
 36  8  1  0
 34 14  1  0
 33 24  1  0
 32 27  1  0
  1 38  1  0
  1 39  1  0
  2 40  1  0
  2 41  1  0
  4 42  1  0
  5 43  1  0
  6 44  1  0
  8 45  1  0
  9 46  1  0
  9 47  1  0
 10 48  1  0
 10 49  1  0
 15 50  1  0
 16 51  1  0
 20 52  1  0
 25 53  1  0
 26 54  1  0
 28 55  1  0
 29 56  1  0
 30 57  1  0
 31 58  1  0
 33 59  1  0
 34 60  1  0
 35 61  1  0
 35 62  1  0
 36 63  1  0
 36 64  1  0
 37 65  1  0
M  CHG  1  18  -1
M  END
>  <UniqueID>  (43) 
42

>  <SMILES>  (43) 
NCc1cccc(C2CCN(C(=O)c3ccc([O-])c(NS(=O)(=O)c4ccc5ccccc5c4)c3)CC2)c1

>  <Energy>  (43) 
91.02257641916458

>  <Genealogy>  (43) 
NCc1cccc(C2CCN(C(=O)c3ccc([O-])c(NS(=O)(=O)c4ccc5ccccc5c4)c3)CC2)c1 (protonated)
NCc1cccc(C2CCN(C(=O)c3ccc([O-])c(NS(=O)(=O)c4ccc5ccccc5c4)c3)CC2)c1 (3D coordinates assigned)
NCc1cccc(C2CCN(C(=O)c3ccc([O-])c(NS(=O)(=O)c4ccc5ccccc5c4)c3)CC2)c1 (nonaromatic ring conformer: 91.02257641916458 kcal/mol)

>  <smiles>  (43) 
NCc1cccc(C2CCN(C(=O)c3ccc(O)c(NS(=O)(=O)c4ccc5ccccc5c4)c3)CC2)c1

>  <score_type>  (43) 
oracle

>  <origin>  (43) 
adgpu

>  <m_score__min__energy>  (43) 
-13.449999999999999

>  <m_primary>  (43) 
energy

$$$$
43:0
     RDKit          3D

 39 41  0  0  0  0  0  0  0  0999 V2000
   -0.8520   26.4830  -23.1650 C   0  0  0  0  0  0  0  0  0  0  0  0
   -0.8300   26.5760  -24.6630 C   0  0  0  0  0  0  0  0  0  0  0  0
   -0.6400   27.8160  -25.2910 C   0  0  0  0  0  0  0  0  0  0  0  0
   -0.5780   27.8960  -26.6860 C   0  0  0  0  0  0  0  0  0  0  0  0
   -0.6950   26.7390  -27.4610 C   0  0  0  0  0  0  0  0  0  0  0  0
   -0.8720   25.4930  -26.8430 C   0  0  0  0  0  0  0  0  0  0  0  0
   -0.9890   24.0230  -27.8030 S   0  0  0  0  0  0  0  0  0  0  0  0
    0.1690   23.9680  -28.7600 O   0  0  0  0  0  0  0  0  0  0  0  0
   -0.9390   22.8060  -26.9220 O   0  0  0  0  0  0  0  0  0  0  0  0
   -2.5020   24.0270  -28.6990 C   0  0  0  0  0  0  0  0  0  0  0  0
   -2.6880   24.9240  -29.7010 N   0  0  0  0  0  0  0  0  0  0  0  0
   -3.8220   24.9530  -30.4010 N   0  0  0  0  0  0  0  0  0  0  0  0
   -4.8290   24.0830  -30.1280 C   0  0  0  0  0  0  0  0  0  0  0  0
   -6.3370   24.1230  -31.0920 S   0  0  0  0  0  0  0  0  0  0  0  0
   -5.9510   22.6120  -32.0470 C   0  0  0  0  0  0  0  0  0  0  0  0
   -7.1470   21.6920  -32.1150 C   0  0  0  0  0  0  0  0  0  0  0  0
   -8.3860   22.1690  -31.6480 C   0  0  0  0  0  0  0  0  0  0  0  0
   -9.5260   21.3650  -31.7140 C   0  0  0  0  0  0  0  0  0  0  0  0
   -9.4450   20.0780  -32.2440 C   0  0  0  0  0  0  0  0  0  0  0  0
   -8.2230   19.5900  -32.7100 C   0  0  0  0  0  0  0  0  0  0  0  0
   -7.0710   20.3840  -32.6490 C   0  0  0  0  0  0  0  0  0  0  0  0
   -5.4390   19.6200  -33.3120 Br  0  0  0  0  0  0  0  0  0  0  0  0
   -4.6840   23.1800  -29.1260 N   0  0  0  0  0  0  0  0  0  0  0  0
   -3.5370   23.1320  -28.4020 C   0  0  0  0  0  0  0  0  0  0  0  0
   -3.4170   22.2860  -27.4780 O   0  0  0  0  0  0  0  0  0  0  0  0
   -0.9300   25.4140  -25.4450 C   0  0  0  0  0  0  0  0  0  0  0  0
   -0.6191   27.4675  -22.7331 H   0  0  0  0  0  0  0  0  0  0  0  0
   -1.8505   26.1634  -22.8321 H   0  0  0  0  0  0  0  0  0  0  0  0
   -0.1025   25.7499  -22.8321 H   0  0  0  0  0  0  0  0  0  0  0  0
   -0.5395   28.7281  -24.6845 H   0  0  0  0  0  0  0  0  0  0  0  0
   -0.4369   28.8716  -27.1741 H   0  0  0  0  0  0  0  0  0  0  0  0
   -0.6481   26.8060  -28.5580 H   0  0  0  0  0  0  0  0  0  0  0  0
   -5.6586   22.8973  -33.0683 H   0  0  0  0  0  0  0  0  0  0  0  0
   -5.1295   22.0808  -31.5440 H   0  0  0  0  0  0  0  0  0  0  0  0
   -8.4570   23.1831  -31.2277 H   0  0  0  0  0  0  0  0  0  0  0  0
  -10.4897   21.7479  -31.3471 H   0  0  0  0  0  0  0  0  0  0  0  0
  -10.3445   19.4468  -32.2950 H   0  0  0  0  0  0  0  0  0  0  0  0
   -8.1645   18.5743  -33.1282 H   0  0  0  0  0  0  0  0  0  0  0  0
   -1.0546   24.4359  -24.9574 H   0  0  0  0  0  0  0  0  0  0  0  0
  1  2  1  0
  2  3  2  0
  3  4  1  0
  4  5  2  0
  5  6  1  0
  6  7  1  0
  7  8  2  0
  7  9  2  0
  7 10  1  0
 10 11  2  0
 11 12  1  0
 12 13  1  0
 13 14  1  0
 14 15  1  0
 15 16  1  0
 16 17  2  0
 17 18  1  0
 18 19  2  0
 19 20  1  0
 20 21  2  0
 21 22  1  0
 13 23  2  0
 23 24  1  0
 24 25  2  0
  6 26  2  0
 26  2  1  0
 24 10  1  0
 21 16  1  0
  1 27  1  0
  1 28  1  0
  1 29  1  0
  3 30  1  0
  4 31  1  0
  5 32  1  0
 15 33  1  0
 15 34  1  0
 17 35  1  0
 18 36  1  0
 19 37  1  0
 20 38  1  0
 26 39  1  0
M  CHG  1  12  -1
M  END
>  <UniqueID>  (44) 
43

>  <SMILES>  (44) 
Cc1cccc(S(=O)(=O)c2n[n-]c(SCc3ccccc3Br)nc2=O)c1

>  <Energy>  (44) 
42.22355336142781

>  <Genealogy>  (44) 
Cc1cccc(S(=O)(=O)c2n[n-]c(SCc3ccccc3Br)nc2=O)c1 (protonated)
Cc1cccc(S(=O)(=O)c2n[n-]c(SCc3ccccc3Br)nc2=O)c1 (3D coordinates assigned)
Cc1cccc(S(=O)(=O)c2n[n-]c(SCc3ccccc3Br)nc2=O)c1 (optimized conformer: 42.22355336142781 kcal/mol)

>  <smiles>  (44) 
Cc1cccc(S(=O)(=O)c2n[nH]c(SCc3ccccc3Br)nc2=O)c1

>  <score_type>  (44) 
oracle

>  <origin>  (44) 
adgpu

>  <m_score__min__energy>  (44) 
-11.119999999999999

>  <m_primary>  (44) 
energy

$$$$
44:0
     RDKit          3D

 54 57  0  0  0  0  0  0  0  0999 V2000
   -4.7200   25.3390  -31.1880 O   0  0  0  0  0  0  0  0  0  0  0  0
   -5.7280   24.7230  -30.2590 S   0  0  0  0  0  0  0  0  0  0  0  0
   -6.8440   25.7010  -30.0260 O   0  0  0  0  0  0  0  0  0  0  0  0
   -4.9610   24.3460  -28.7490 N   0  0  0  0  0  0  0  0  0  0  0  0
   -3.7810   23.5260  -28.6650 C   0  0  0  0  0  0  0  0  0  0  0  0
   -3.8400   22.2270  -28.1320 C   0  0  0  0  0  0  0  0  0  0  0  0
   -2.6820   21.4460  -28.0110 C   0  0  0  0  0  0  0  0  0  0  0  0
   -1.4420   21.9710  -28.4250 C   0  0  0  0  0  0  0  0  0  0  0  0
   -1.3890   23.2480  -29.0000 C   0  0  0  0  0  0  0  0  0  0  0  0
   -2.5460   24.0240  -29.1140 C   0  0  0  0  0  0  0  0  0  0  0  0
   -2.4570   25.2980  -29.6650 O   0  0  0  0  0  0  0  0  0  0  0  0
   -0.1880   21.1310  -28.3590 C   0  0  0  0  0  0  0  0  0  0  0  0
   -0.2970   20.0370  -27.3830 N   0  0  0  0  0  0  0  0  0  0  0  0
   -1.5150   19.2520  -27.6130 C   0  0  0  0  0  0  0  0  0  0  0  0
   -2.7700   20.0940  -27.3510 C   0  0  0  0  0  0  0  0  0  0  0  0
   -6.4010   23.2490  -30.9510 C   0  0  0  0  0  0  0  0  0  0  0  0
   -7.6900   23.2720  -31.4980 C   0  0  0  0  0  0  0  0  0  0  0  0
   -8.2860   22.0890  -31.9410 C   0  0  0  0  0  0  0  0  0  0  0  0
   -7.5970   20.8720  -31.8420 C   0  0  0  0  0  0  0  0  0  0  0  0
   -8.3860   19.3630  -32.2940 S   0  0  0  0  0  0  0  0  0  0  0  0
   -8.6760   18.5520  -31.0600 O   0  0  0  0  0  0  0  0  0  0  0  0
   -9.6860   19.6810  -32.9780 O   0  0  0  0  0  0  0  0  0  0  0  0
   -7.3550   18.4610  -33.3780 N   0  0  0  0  0  0  0  0  0  0  0  0
   -6.3230   19.3530  -33.9560 C   0  0  0  0  0  0  0  0  0  0  0  0
   -5.1450   18.5570  -34.5250 C   0  0  0  0  0  0  0  0  0  0  0  0
   -4.4380   17.7490  -33.4230 C   0  0  0  0  0  0  0  0  0  0  0  0
   -5.3680   17.4090  -32.2450 C   0  0  0  0  0  0  0  0  0  0  0  0
   -6.8200   17.2450  -32.7160 C   0  0  0  0  0  0  0  0  0  0  0  0
   -6.3020   20.8520  -31.3100 C   0  0  0  0  0  0  0  0  0  0  0  0
   -5.7040   22.0360  -30.8710 C   0  0  0  0  0  0  0  0  0  0  0  0
   -5.4890   24.5790  -27.8780 H   0  0  0  0  0  0  0  0  0  0  0  0
   -4.8074   21.8177  -27.8055 H   0  0  0  0  0  0  0  0  0  0  0  0
   -0.4292   23.6428  -29.3645 H   0  0  0  0  0  0  0  0  0  0  0  0
    0.0012   20.6999  -29.3532 H   0  0  0  0  0  0  0  0  0  0  0  0
    0.6371   21.7846  -28.0394 H   0  0  0  0  0  0  0  0  0  0  0  0
   -0.3320   20.4460  -26.4200 H   0  0  0  0  0  0  0  0  0  0  0  0
   -1.5268   18.9040  -28.6564 H   0  0  0  0  0  0  0  0  0  0  0  0
   -1.5163   18.3968  -26.9211 H   0  0  0  0  0  0  0  0  0  0  0  0
   -3.6465   19.5603  -27.7472 H   0  0  0  0  0  0  0  0  0  0  0  0
   -2.8594   20.2475  -26.2654 H   0  0  0  0  0  0  0  0  0  0  0  0
   -8.2346   24.2243  -31.5790 H   0  0  0  0  0  0  0  0  0  0  0  0
   -9.2991   22.1123  -32.3689 H   0  0  0  0  0  0  0  0  0  0  0  0
   -6.7760   19.9468  -34.7636 H   0  0  0  0  0  0  0  0  0  0  0  0
   -5.9434   20.0045  -33.1551 H   0  0  0  0  0  0  0  0  0  0  0  0
   -5.5174   17.8651  -35.2948 H   0  0  0  0  0  0  0  0  0  0  0  0
   -4.4221   19.2643  -34.9576 H   0  0  0  0  0  0  0  0  0  0  0  0
   -4.0654   16.8104  -33.8592 H   0  0  0  0  0  0  0  0  0  0  0  0
   -3.6187   18.3693  -33.0306 H   0  0  0  0  0  0  0  0  0  0  0  0
   -5.0323   16.4694  -31.7820 H   0  0  0  0  0  0  0  0  0  0  0  0
   -5.3276   18.2342  -31.5188 H   0  0  0  0  0  0  0  0  0  0  0  0
   -6.8650   16.4088  -33.4293 H   0  0  0  0  0  0  0  0  0  0  0  0
   -7.4363   17.0572  -31.8244 H   0  0  0  0  0  0  0  0  0  0  0  0
   -5.7537   19.9012  -31.2374 H   0  0  0  0  0  0  0  0  0  0  0  0
   -4.6833   22.0159  -30.4615 H   0  0  0  0  0  0  0  0  0  0  0  0
  1  2  2  0
  2  3  2  0
  2  4  1  0
  4  5  1  0
  5  6  2  0
  6  7  1  0
  7  8  2  0
  8  9  1  0
  9 10  2  0
 10 11  1  0
  8 12  1  0
 12 13  1  0
 13 14  1  0
 14 15  1  0
  2 16  1  0
 16 17  2  0
 17 18  1  0
 18 19  2  0
 19 20  1  0
 20 21  2  0
 20 22  2  0
 20 23  1  0
 23 24  1  0
 24 25  1  0
 25 26  1  0
 26 27  1  0
 27 28  1  0
 19 29  1  0
 29 30  2  0
 10  5  1  0
 30 16  1  0
 15  7  1  0
 28 23  1  0
  4 31  1  0
  6 32  1  0
  9 33  1  0
 12 34  1  0
 12 35  1  0
 13 36  1  0
 14 37  1  0
 14 38  1  0
 15 39  1  0
 15 40  1  0
 17 41  1  0
 18 42  1  0
 24 43  1  0
 24 44  1  0
 25 45  1  0
 25 46  1  0
 26 47  1  0
 26 48  1  0
 27 49  1  0
 27 50  1  0
 28 51  1  0
 28 52  1  0
 29 53  1  0
 30 54  1  0
M  CHG  1  11  -1
M  END
>  <UniqueID>  (45) 
44

>  <SMILES>  (45) 
O=S(=O)(Nc1cc2c(cc1[O-])CNCC2)c1ccc(S(=O)(=O)N2CCCCC2)cc1

>  <Energy>  (45) 
64.1625913836876

>  <Genealogy>  (45) 
O=S(=O)(Nc1cc2c(cc1[O-])CNCC2)c1ccc(S(=O)(=O)N2CCCCC2)cc1 (protonated)
O=S(=O)(Nc1cc2c(cc1[O-])CNCC2)c1ccc(S(=O)(=O)N2CCCCC2)cc1 (3D coordinates assigned)
O=S(=O)(Nc1cc2c(cc1[O-])CNCC2)c1ccc(S(=O)(=O)N2CCCCC2)cc1 (nonaromatic ring conformer: 64.1625913836876 kcal/mol)

>  <smiles>  (45) 
O=S(=O)(Nc1cc2c(cc1O)CNCC2)c1ccc(S(=O)(=O)N2CCCCC2)cc1

>  <score_type>  (45) 
oracle

>  <origin>  (45) 
adgpu

>  <m_score__min__energy>  (45) 
-15.029999999999999

>  <m_primary>  (45) 
energy

$$$$
45:0
     RDKit          3D

 43 46  0  0  0  0  0  0  0  0999 V2000
   -3.2630   18.8830  -33.7470 C   0  0  0  0  0  0  0  0  0  0  0  0
   -3.7770   20.2570  -33.4510 C   0  0  0  0  0  0  0  0  0  0  0  0
   -2.9630   21.2200  -33.4460 O   0  0  0  0  0  0  0  0  0  0  0  0
   -5.1720   20.5130  -33.2130 N   0  0  0  0  0  0  0  0  0  0  0  0
   -6.2390   19.6870  -33.7800 C   0  0  0  0  0  0  0  0  0  0  0  0
   -7.5490   20.1470  -33.0970 C   0  0  0  0  0  0  0  0  0  0  0  0
   -7.1090   21.2810  -32.2410 C   0  0  0  0  0  0  0  0  0  0  0  0
   -7.9090   22.1230  -31.4680 C   0  0  0  0  0  0  0  0  0  0  0  0
   -7.3010   23.1880  -30.7880 C   0  0  0  0  0  0  0  0  0  0  0  0
   -5.9140   23.4100  -30.9090 C   0  0  0  0  0  0  0  0  0  0  0  0
   -5.1840   24.7950  -30.1030 S   0  0  0  0  0  0  0  0  0  0  0  0
   -3.9000   25.1360  -30.8030 O   0  0  0  0  0  0  0  0  0  0  0  0
   -6.0980   25.9880  -30.1500 O   0  0  0  0  0  0  0  0  0  0  0  0
   -4.8490   24.3990  -28.4470 N   0  0  0  0  0  0  0  0  0  0  0  0
   -3.5140   24.2570  -27.9220 C   0  0  0  0  0  0  0  0  0  0  0  0
   -3.1240   24.9240  -26.7440 C   0  0  0  0  0  0  0  0  0  0  0  0
   -1.8300   24.7780  -26.2370 C   0  0  0  0  0  0  0  0  0  0  0  0
   -0.9010   23.9730  -26.8970 C   0  0  0  0  0  0  0  0  0  0  0  0
   -1.2620   23.3080  -28.0750 C   0  0  0  0  0  0  0  0  0  0  0  0
   -0.3460   22.4950  -28.7540 C   0  0  0  0  0  0  0  0  0  0  0  0
   -0.7310   21.8380  -29.9230 C   0  0  0  0  0  0  0  0  0  0  0  0
   -2.0320   21.9990  -30.4030 C   0  0  0  0  0  0  0  0  0  0  0  0
   -2.9130   22.7910  -29.7360 N   0  0  0  0  0  0  0  0  0  0  0  0
   -2.5720   23.4500  -28.5930 C   0  0  0  0  0  0  0  0  0  0  0  0
   -5.1310   22.5470  -31.6990 C   0  0  0  0  0  0  0  0  0  0  0  0
   -5.7560   21.4650  -32.3330 C   0  0  0  0  0  0  0  0  0  0  0  0
   -3.0652   18.3542  -32.8029 H   0  0  0  0  0  0  0  0  0  0  0  0
   -4.0142   18.3277  -34.3278 H   0  0  0  0  0  0  0  0  0  0  0  0
   -2.3318   18.9571  -34.3278 H   0  0  0  0  0  0  0  0  0  0  0  0
   -6.3021   19.8391  -34.8676 H   0  0  0  0  0  0  0  0  0  0  0  0
   -6.0517   18.6167  -33.6088 H   0  0  0  0  0  0  0  0  0  0  0  0
   -8.2865   20.4791  -33.8425 H   0  0  0  0  0  0  0  0  0  0  0  0
   -8.0426   19.3450  -32.5285 H   0  0  0  0  0  0  0  0  0  0  0  0
   -8.9935   21.9550  -31.3936 H   0  0  0  0  0  0  0  0  0  0  0  0
   -7.9090   23.8533  -30.1573 H   0  0  0  0  0  0  0  0  0  0  0  0
   -5.6650   24.3860  -27.7960 H   0  0  0  0  0  0  0  0  0  0  0  0
   -3.8455   25.5663  -26.2179 H   0  0  0  0  0  0  0  0  0  0  0  0
   -1.5423   25.3005  -25.3127 H   0  0  0  0  0  0  0  0  0  0  0  0
    0.1154   23.8608  -26.4917 H   0  0  0  0  0  0  0  0  0  0  0  0
    0.6762   22.3745  -28.3660 H   0  0  0  0  0  0  0  0  0  0  0  0
   -0.0159   21.1989  -30.4616 H   0  0  0  0  0  0  0  0  0  0  0  0
   -2.3450   21.4838  -31.3231 H   0  0  0  0  0  0  0  0  0  0  0  0
   -4.0508   22.7186  -31.8161 H   0  0  0  0  0  0  0  0  0  0  0  0
  1  2  1  0
  2  3  2  0
  2  4  1  0
  4  5  1  0
  5  6  1  0
  6  7  1  0
  7  8  2  0
  8  9  1  0
  9 10  2  0
 10 11  1  0
 11 12  2  0
 11 13  2  0
 11 14  1  0
 14 15  1  0
 15 16  2  0
 16 17  1  0
 17 18  2  0
 18 19  1  0
 19 20  2  0
 20 21  1  0
 21 22  2  0
 22 23  1  0
 23 24  2  0
 10 25  1  0
 25 26  2  0
 26  4  1  0
 26  7  1  0
 24 15  1  0
 24 19  1  0
  1 27  1  0
  1 28  1  0
  1 29  1  0
  5 30  1  0
  5 31  1  0
  6 32  1  0
  6 33  1  0
  8 34  1  0
  9 35  1  0
 14 36  1  0
 16 37  1  0
 17 38  1  0
 18 39  1  0
 20 40  1  0
 21 41  1  0
 22 42  1  0
 25 43  1  0
M  END
>  <UniqueID>  (46) 
45

>  <SMILES>  (46) 
CC(=O)N1CCc2ccc(S(=O)(=O)Nc3cccc4cccnc34)cc21

>  <Energy>  (46) 
70.34503771083608

>  <Genealogy>  (46) 
CC(=O)N1CCc2ccc(S(=O)(=O)Nc3cccc4cccnc34)cc21 (3D coordinates assigned)
CC(=O)N1CCc2ccc(S(=O)(=O)Nc3cccc4cccnc34)cc21 (nonaromatic ring conformer: 70.34503771083608 kcal/mol)

>  <smiles>  (46) 
CC(=O)N1CCc2ccc(S(=O)(=O)Nc3cccc4cccnc34)cc21

>  <score_type>  (46) 
oracle

>  <origin>  (46) 
adgpu

>  <m_score__min__energy>  (46) 
-10.039999999999999

>  <m_primary>  (46) 
energy

$$$$
46:0
     RDKit          3D

 63 66  0  0  0  0  0  0  0  0999 V2000
   -1.0130   18.5210  -27.1480 C   0  0  0  0  0  0  0  0  0  0  0  0
    0.0520   18.7690  -28.1130 N   0  0  0  0  0  0  0  0  0  0  0  0
    1.3420   18.1560  -28.1140 C   0  0  0  0  0  0  0  0  0  0  0  0
    1.8050   17.5250  -27.1250 O   0  0  0  0  0  0  0  0  0  0  0  0
    2.0740   18.3370  -29.4220 C   0  0  0  0  0  0  0  0  0  0  0  0
    3.3370   19.1880  -29.2340 C   0  0  0  0  0  0  0  0  0  0  0  0
    2.3880   16.9790  -30.0690 C   0  0  0  0  0  0  0  0  0  0  0  0
    1.0210   19.0840  -30.1990 C   0  0  0  0  0  0  0  0  0  0  0  0
    1.0690   19.5190  -31.5260 C   0  0  0  0  0  0  0  0  0  0  0  0
   -0.0510   20.1750  -32.0600 C   0  0  0  0  0  0  0  0  0  0  0  0
   -1.2010   20.3860  -31.2710 C   0  0  0  0  0  0  0  0  0  0  0  0
   -2.6160   21.1730  -31.9540 S   0  0  0  0  0  0  0  0  0  0  0  0
   -3.7510   20.1870  -31.9530 O   0  0  0  0  0  0  0  0  0  0  0  0
   -2.3420   21.6110  -33.3670 O   0  0  0  0  0  0  0  0  0  0  0  0
   -3.0070   22.5710  -31.0000 N   0  0  0  0  0  0  0  0  0  0  0  0
   -4.3430   23.0870  -30.9150 C   0  0  0  0  0  0  0  0  0  0  0  0
   -5.4450   22.2500  -31.1520 C   0  0  0  0  0  0  0  0  0  0  0  0
   -6.7490   22.7450  -31.0420 C   0  0  0  0  0  0  0  0  0  0  0  0
   -7.8870   21.8470  -31.2850 C   0  0  0  0  0  0  0  0  0  0  0  0
   -9.0090   22.1510  -30.7930 O   0  0  0  0  0  0  0  0  0  0  0  0
   -7.7220   20.6030  -31.9940 N   0  0  0  0  0  0  0  0  0  0  0  0
   -8.6930   19.5180  -31.8130 C   0  0  0  0  0  0  0  0  0  0  0  0
   -7.9550   18.1740  -31.8260 C   0  0  0  0  0  0  0  0  0  0  0  0
   -7.2180   17.9490  -33.0900 N   0  0  0  0  0  0  0  0  0  0  0  0
   -5.8580   16.8800  -32.8210 S   0  0  0  0  0  0  0  0  0  0  0  0
   -6.0340   15.3950  -33.7880 C   0  0  0  0  0  0  0  0  0  0  0  0
   -5.7670   16.5140  -31.3650 O   0  0  0  0  0  0  0  0  0  0  0  0
   -4.5880   17.5730  -33.2350 O   0  0  0  0  0  0  0  0  0  0  0  0
   -6.7890   19.1820  -33.7930 C   0  0  0  0  0  0  0  0  0  0  0  0
   -6.5500   20.3710  -32.8500 C   0  0  0  0  0  0  0  0  0  0  0  0
   -6.9560   24.0880  -30.6970 C   0  0  0  0  0  0  0  0  0  0  0  0
   -5.8630   24.9360  -30.4960 C   0  0  0  0  0  0  0  0  0  0  0  0
   -4.5590   24.4420  -30.6070 C   0  0  0  0  0  0  0  0  0  0  0  0
   -3.4830   25.2970  -30.3930 O   0  0  0  0  0  0  0  0  0  0  0  0
   -1.2320   19.9330  -29.9390 C   0  0  0  0  0  0  0  0  0  0  0  0
   -0.1030   19.2930  -29.4230 C   0  0  0  0  0  0  0  0  0  0  0  0
   -0.6124   18.6143  -26.1278 H   0  0  0  0  0  0  0  0  0  0  0  0
   -1.8186   19.2556  -27.2942 H   0  0  0  0  0  0  0  0  0  0  0  0
   -1.4112   17.5061  -27.2942 H   0  0  0  0  0  0  0  0  0  0  0  0
    3.5334   19.3203  -28.1598 H   0  0  0  0  0  0  0  0  0  0  0  0
    4.1933   18.6820  -29.7037 H   0  0  0  0  0  0  0  0  0  0  0  0
    3.1896   20.1717  -29.7037 H   0  0  0  0  0  0  0  0  0  0  0  0
    2.5613   16.2295  -29.2827 H   0  0  0  0  0  0  0  0  0  0  0  0
    1.5387   16.6653  -30.6937 H   0  0  0  0  0  0  0  0  0  0  0  0
    3.2888   17.0700  -30.6937 H   0  0  0  0  0  0  0  0  0  0  0  0
    1.9663   19.3507  -32.1396 H   0  0  0  0  0  0  0  0  0  0  0  0
   -0.0318   20.5273  -33.1019 H   0  0  0  0  0  0  0  0  0  0  0  0
   -2.3090   22.8570  -30.2770 H   0  0  0  0  0  0  0  0  0  0  0  0
   -5.2820   21.1973  -31.4262 H   0  0  0  0  0  0  0  0  0  0  0  0
   -9.2107   19.6442  -30.8507 H   0  0  0  0  0  0  0  0  0  0  0  0
   -9.4310   19.5425  -32.6284 H   0  0  0  0  0  0  0  0  0  0  0  0
   -7.2390   18.1557  -30.9911 H   0  0  0  0  0  0  0  0  0  0  0  0
   -8.7067   17.3768  -31.7287 H   0  0  0  0  0  0  0  0  0  0  0  0
   -6.1365   14.5300  -33.1162 H   0  0  0  0  0  0  0  0  0  0  0  0
   -6.9290   15.4746  -34.4225 H   0  0  0  0  0  0  0  0  0  0  0  0
   -5.1452   15.2632  -34.4225 H   0  0  0  0  0  0  0  0  0  0  0  0
   -5.8528   18.9693  -34.3299 H   0  0  0  0  0  0  0  0  0  0  0  0
   -7.6040   19.4671  -34.4745 H   0  0  0  0  0  0  0  0  0  0  0  0
   -5.6768   20.1582  -32.2158 H   0  0  0  0  0  0  0  0  0  0  0  0
   -6.3729   21.2715  -33.4564 H   0  0  0  0  0  0  0  0  0  0  0  0
   -7.9796   24.4749  -30.5844 H   0  0  0  0  0  0  0  0  0  0  0  0
   -6.0289   25.9952  -30.2498 H   0  0  0  0  0  0  0  0  0  0  0  0
   -2.1272   20.0800  -29.3169 H   0  0  0  0  0  0  0  0  0  0  0  0
  1  2  1  0
  2  3  1  0
  3  4  2  0
  3  5  1  0
  5  6  1  0
  5  7  1  0
  5  8  1  0
  8  9  2  0
  9 10  1  0
 10 11  2  0
 11 12  1  0
 12 13  2  0
 12 14  2  0
 12 15  1  0
 15 16  1  0
 16 17  2  0
 17 18  1  0
 18 19  1  0
 19 20  2  0
 19 21  1  0
 21 22  1  0
 22 23  1  0
 23 24  1  0
 24 25  1  0
 25 26  1  0
 25 27  2  0
 25 28  2  0
 24 29  1  0
 29 30  1  0
 18 31  2  0
 31 32  1  0
 32 33  2  0
 33 34  1  0
 11 35  1  0
 35 36  2  0
 36  2  1  0
 36  8  1  0
 33 16  1  0
 30 21  1  0
  1 37  1  0
  1 38  1  0
  1 39  1  0
  6 40  1  0
  6 41  1  0
  6 42  1  0
  7 43  1  0
  7 44  1  0
  7 45  1  0
  9 46  1  0
 10 47  1  0
 15 48  1  0
 17 49  1  0
 22 50  1  0
 22 51  1  0
 23 52  1  0
 23 53  1  0
 26 54  1  0
 26 55  1  0
 26 56  1  0
 29 57  1  0
 29 58  1  0
 30 59  1  0
 30 60  1  0
 31 61  1  0
 32 62  1  0
 35 63  1  0
M  CHG  1  34  -1
M  END
>  <UniqueID>  (47) 
46

>  <SMILES>  (47) 
CN1C(=O)C(C)(C)c2ccc(S(=O)(=O)Nc3cc(C(=O)N4CCN(S(C)(=O)=O)CC4)ccc3[O-])cc21

>  <Energy>  (47) 
96.29074248163477

>  <Genealogy>  (47) 
CN1C(=O)C(C)(C)c2ccc(S(=O)(=O)Nc3cc(C(=O)N4CCN(S(C)(=O)=O)CC4)ccc3[O-])cc21 (protonated)
CN1C(=O)C(C)(C)c2ccc(S(=O)(=O)Nc3cc(C(=O)N4CCN(S(C)(=O)=O)CC4)ccc3[O-])cc21 (3D coordinates assigned)
CN1C(=O)C(C)(C)c2ccc(S(=O)(=O)Nc3cc(C(=O)N4CCN(S(C)(=O)=O)CC4)ccc3[O-])cc21 (nonaromatic ring conformer: 96.29074248163477 kcal/mol)

>  <smiles>  (47) 
CN1C(=O)C(C)(C)c2ccc(S(=O)(=O)Nc3cc(C(=O)N4CCN(S(C)(=O)=O)CC4)ccc3O)cc21

>  <score_type>  (47) 
oracle

>  <origin>  (47) 
adgpu

>  <m_score__min__energy>  (47) 
-15.130000000000001

>  <m_primary>  (47) 
energy

$$$$
47:0
     RDKit          3D

 65 68  0  0  0  0  0  0  0  0999 V2000
   -1.0690   19.2040  -34.3230 C   0  0  0  0  0  0  0  0  0  0  0  0
   -0.6210   19.3920  -32.9050 C   0  0  0  0  0  0  0  0  0  0  0  0
   -0.4700   18.2850  -32.0550 C   0  0  0  0  0  0  0  0  0  0  0  0
   -0.0930   18.4650  -30.7210 C   0  0  0  0  0  0  0  0  0  0  0  0
    0.1250   19.7550  -30.2170 C   0  0  0  0  0  0  0  0  0  0  0  0
    0.5640   19.9850  -28.5260 S   0  0  0  0  0  0  0  0  0  0  0  0
   -0.5110   19.3930  -27.6600 O   0  0  0  0  0  0  0  0  0  0  0  0
    1.8800   19.3230  -28.2340 O   0  0  0  0  0  0  0  0  0  0  0  0
    0.6760   21.6870  -28.2170 N   0  0  0  0  0  0  0  0  0  0  0  0
   -0.4450   22.5340  -27.9590 C   0  0  0  0  0  0  0  0  0  0  0  0
   -0.8050   22.9070  -26.6600 C   0  0  0  0  0  0  0  0  0  0  0  0
   -1.9220   23.7210  -26.4520 C   0  0  0  0  0  0  0  0  0  0  0  0
   -2.7040   24.1520  -27.5310 C   0  0  0  0  0  0  0  0  0  0  0  0
   -3.8600   24.8830  -27.2490 O   0  0  0  0  0  0  0  0  0  0  0  0
   -2.3260   23.8080  -28.8540 C   0  0  0  0  0  0  0  0  0  0  0  0
   -3.1090   24.2400  -30.0370 C   0  0  0  0  0  0  0  0  0  0  0  0
   -3.7770   25.3070  -30.0060 O   0  0  0  0  0  0  0  0  0  0  0  0
   -3.1370   23.4300  -31.2180 N   0  0  0  0  0  0  0  0  0  0  0  0
   -4.0620   22.3570  -31.4310 C   0  0  0  0  0  0  0  0  0  0  0  0
   -3.5780   21.1190  -31.8400 C   0  0  0  0  0  0  0  0  0  0  0  0
   -4.4600   20.1020  -32.1930 C   0  0  0  0  0  0  0  0  0  0  0  0
   -5.8590   20.2840  -32.1160 C   0  0  0  0  0  0  0  0  0  0  0  0
   -6.3560   21.4960  -31.5510 C   0  0  0  0  0  0  0  0  0  0  0  0
   -5.4420   22.5380  -31.2760 C   0  0  0  0  0  0  0  0  0  0  0  0
   -7.8530   21.7320  -31.3010 C   0  0  0  0  0  0  0  0  0  0  0  0
   -8.3860   22.7520  -32.3340 C   0  0  0  0  0  0  0  0  0  0  0  0
   -8.0880   22.2960  -29.8760 C   0  0  0  0  0  0  0  0  0  0  0  0
   -8.6510   20.4060  -31.3930 C   0  0  0  0  0  0  0  0  0  0  0  0
   -8.2720   19.5960  -32.6270 C   0  0  0  0  0  0  0  0  0  0  0  0
   -6.7830   19.1570  -32.6060 C   0  0  0  0  0  0  0  0  0  0  0  0
   -6.4100   18.7530  -34.0560 C   0  0  0  0  0  0  0  0  0  0  0  0
   -6.6160   17.9250  -31.6870 C   0  0  0  0  0  0  0  0  0  0  0  0
   -1.1870   23.0040  -29.0430 C   0  0  0  0  0  0  0  0  0  0  0  0
   -0.0320   20.8640  -31.0620 C   0  0  0  0  0  0  0  0  0  0  0  0
   -0.4130   20.6830  -32.3960 C   0  0  0  0  0  0  0  0  0  0  0  0
   -2.0833   18.7784  -34.3337 H   0  0  0  0  0  0  0  0  0  0  0  0
   -1.0738   20.1760  -34.8380 H   0  0  0  0  0  0  0  0  0  0  0  0
   -0.3787   18.5197  -34.8380 H   0  0  0  0  0  0  0  0  0  0  0  0
   -0.6493   17.2706  -32.4407 H   0  0  0  0  0  0  0  0  0  0  0  0
    0.0331   17.5915  -30.0644 H   0  0  0  0  0  0  0  0  0  0  0  0
   -0.2095   22.5600  -25.8027 H   0  0  0  0  0  0  0  0  0  0  0  0
   -2.1898   24.0264  -25.4298 H   0  0  0  0  0  0  0  0  0  0  0  0
   -4.3130   25.4860  -27.9210 H   0  0  0  0  0  0  0  0  0  0  0  0
   -2.4931   20.9429  -31.8847 H   0  0  0  0  0  0  0  0  0  0  0  0
   -4.0600   19.1374  -32.5388 H   0  0  0  0  0  0  0  0  0  0  0  0
   -5.8224   23.5115  -30.9331 H   0  0  0  0  0  0  0  0  0  0  0  0
   -8.8332   23.6078  -31.8071 H   0  0  0  0  0  0  0  0  0  0  0  0
   -7.5559   23.1028  -32.9648 H   0  0  0  0  0  0  0  0  0  0  0  0
   -9.1480   22.2709  -32.9648 H   0  0  0  0  0  0  0  0  0  0  0  0
   -7.7770   21.5495  -29.1303 H   0  0  0  0  0  0  0  0  0  0  0  0
   -7.4978   23.2147  -29.7433 H   0  0  0  0  0  0  0  0  0  0  0  0
   -9.1559   22.5239  -29.7433 H   0  0  0  0  0  0  0  0  0  0  0  0
   -8.4442   19.8041  -30.4958 H   0  0  0  0  0  0  0  0  0  0  0  0
   -9.7195   20.6569  -31.4663 H   0  0  0  0  0  0  0  0  0  0  0  0
   -8.9055   18.6978  -32.6694 H   0  0  0  0  0  0  0  0  0  0  0  0
   -8.4232   20.2348  -33.5097 H   0  0  0  0  0  0  0  0  0  0  0  0
   -5.6640   17.9450  -34.0311 H   0  0  0  0  0  0  0  0  0  0  0  0
   -7.3106   18.4045  -34.5827 H   0  0  0  0  0  0  0  0  0  0  0  0
   -5.9908   19.6230  -34.5827 H   0  0  0  0  0  0  0  0  0  0  0  0
   -6.6592   18.2437  -30.6351 H   0  0  0  0  0  0  0  0  0  0  0  0
   -7.4250   17.2067  -31.8860 H   0  0  0  0  0  0  0  0  0  0  0  0
   -5.6450   17.4480  -31.8860 H   0  0  0  0  0  0  0  0  0  0  0  0
   -0.8756   22.7410  -30.0647 H   0  0  0  0  0  0  0  0  0  0  0  0
    0.1449   21.8783  -30.6747 H   0  0  0  0  0  0  0  0  0  0  0  0
   -0.5502   21.5573  -33.0492 H   0  0  0  0  0  0  0  0  0  0  0  0
  1  2  1  0
  2  3  2  0
  3  4  1  0
  4  5  2  0
  5  6  1  0
  6  7  2  0
  6  8  2  0
  6  9  1  0
  9 10  1  0
 10 11  2  0
 11 12  1  0
 12 13  2  0
 13 14  1  0
 13 15  1  0
 15 16  1  0
 16 17  2  0
 16 18  1  0
 18 19  1  0
 19 20  2  0
 20 21  1  0
 21 22  2  0
 22 23  1  0
 23 24  2  0
 23 25  1  0
 25 26  1  0
 25 27  1  0
 25 28  1  0
 28 29  1  0
 29 30  1  0
 30 31  1  0
 30 32  1  0
 15 33  2  0
  5 34  1  0
 34 35  2  0
 35  2  1  0
 33 10  1  0
 24 19  1  0
 30 22  1  0
  1 36  1  0
  1 37  1  0
  1 38  1  0
  3 39  1  0
  4 40  1  0
 11 41  1  0
 12 42  1  0
 14 43  1  0
 20 44  1  0
 21 45  1  0
 24 46  1  0
 26 47  1  0
 26 48  1  0
 26 49  1  0
 27 50  1  0
 27 51  1  0
 27 52  1  0
 28 53  1  0
 28 54  1  0
 29 55  1  0
 29 56  1  0
 31 57  1  0
 31 58  1  0
 31 59  1  0
 32 60  1  0
 32 61  1  0
 32 62  1  0
 33 63  1  0
 34 64  1  0
 35 65  1  0
M  CHG  2   9  -1  18  -1
M  END
>  <UniqueID>  (48) 
47

>  <SMILES>  (48) 
Cc1ccc(S(=O)(=O)[N-]c2ccc(O)c(C(=O)[N-]c3ccc4c(c3)C(C)(C)CCC4(C)C)c2)cc1

>  <Energy>  (48) 
92.2961996295747

>  <Genealogy>  (48) 
Cc1ccc(S(=O)(=O)[N-]c2ccc(O)c(C(=O)[N-]c3ccc4c(c3)C(C)(C)CCC4(C)C)c2)cc1 (protonated)
Cc1ccc(S(=O)(=O)[N-]c2ccc(O)c(C(=O)[N-]c3ccc4c(c3)C(C)(C)CCC4(C)C)c2)cc1 (3D coordinates assigned)
Cc1ccc(S(=O)(=O)[N-]c2ccc(O)c(C(=O)[N-]c3ccc4c(c3)C(C)(C)CCC4(C)C)c2)cc1 (nonaromatic ring conformer: 92.2961996295747 kcal/mol)

>  <smiles>  (48) 
Cc1ccc(S(=O)(=O)Nc2ccc(O)c(C(=O)Nc3ccc4c(c3)C(C)(C)CCC4(C)C)c2)cc1

>  <score_type>  (48) 
oracle

>  <origin>  (48) 
adgpu

>  <m_score__min__energy>  (48) 
-12.91

>  <m_primary>  (48) 
energy

$$$$
48:0
     RDKit          3D

 56 60  0  0  0  0  0  0  0  0999 V2000
   -4.8570   26.0270  -30.6510 O   0  0  0  0  0  0  0  0  0  0  0  0
   -5.4010   25.0490  -29.6480 S   0  0  0  0  0  0  0  0  0  0  0  0
   -6.6980   25.5790  -29.1070 O   0  0  0  0  0  0  0  0  0  0  0  0
   -4.2630   24.8690  -28.3490 N   0  0  0  0  0  0  0  0  0  0  0  0
   -3.1570   23.9460  -28.3830 C   0  0  0  0  0  0  0  0  0  0  0  0
   -3.3010   22.6150  -27.9280 C   0  0  0  0  0  0  0  0  0  0  0  0
   -2.1910   21.7760  -27.9470 C   0  0  0  0  0  0  0  0  0  0  0  0
   -0.9710   22.1930  -28.4350 C   0  0  0  0  0  0  0  0  0  0  0  0
   -0.8030   23.4910  -28.9140 C   0  0  0  0  0  0  0  0  0  0  0  0
   -1.8990   24.3720  -28.8840 C   0  0  0  0  0  0  0  0  0  0  0  0
   -1.7300   25.6730  -29.3460 O   0  0  0  0  0  0  0  0  0  0  0  0
    0.0540   21.0980  -28.3670 C   0  0  0  0  0  0  0  0  0  0  0  0
   -0.7600   19.9990  -27.7470 C   0  0  0  0  0  0  0  0  0  0  0  0
   -0.3310   18.7250  -27.3730 C   0  0  0  0  0  0  0  0  0  0  0  0
   -1.2480   17.8640  -26.7450 C   0  0  0  0  0  0  0  0  0  0  0  0
   -2.5680   18.2900  -26.4920 C   0  0  0  0  0  0  0  0  0  0  0  0
   -2.9840   19.5770  -26.8700 C   0  0  0  0  0  0  0  0  0  0  0  0
   -2.0590   20.4070  -27.5040 C   0  0  0  0  0  0  0  0  0  0  0  0
   -5.6990   23.4830  -30.3970 C   0  0  0  0  0  0  0  0  0  0  0  0
   -4.7480   22.9440  -31.2720 C   0  0  0  0  0  0  0  0  0  0  0  0
   -5.0130   21.7490  -31.9490 C   0  0  0  0  0  0  0  0  0  0  0  0
   -6.2380   21.0940  -31.7700 C   0  0  0  0  0  0  0  0  0  0  0  0
   -6.6130   19.6390  -32.6940 S   0  0  0  0  0  0  0  0  0  0  0  0
   -7.8910   19.8480  -33.4580 O   0  0  0  0  0  0  0  0  0  0  0  0
   -6.8220   18.4900  -31.7470 O   0  0  0  0  0  0  0  0  0  0  0  0
   -5.3300   19.2510  -33.8160 N   0  0  0  0  0  0  0  0  0  0  0  0
   -5.7530   18.2270  -34.8060 C   0  0  0  0  0  0  0  0  0  0  0  0
   -5.0980   16.8580  -34.5770 C   0  0  0  0  0  0  0  0  0  0  0  0
   -3.5680   16.9740  -34.6210 C   0  0  0  0  0  0  0  0  0  0  0  0
   -3.0490   18.2890  -34.0100 C   0  0  0  0  0  0  0  0  0  0  0  0
   -4.0880   18.9260  -33.0810 C   0  0  0  0  0  0  0  0  0  0  0  0
   -7.1800   21.6220  -30.8760 C   0  0  0  0  0  0  0  0  0  0  0  0
   -6.9090   22.8070  -30.1870 C   0  0  0  0  0  0  0  0  0  0  0  0
   -4.4720   25.3890  -27.4680 H   0  0  0  0  0  0  0  0  0  0  0  0
   -4.2731   22.2493  -27.5655 H   0  0  0  0  0  0  0  0  0  0  0  0
    0.1695   23.8206  -29.3085 H   0  0  0  0  0  0  0  0  0  0  0  0
    0.4175   20.8194  -29.3671 H   0  0  0  0  0  0  0  0  0  0  0  0
    0.9679   21.3595  -27.8135 H   0  0  0  0  0  0  0  0  0  0  0  0
    0.7025   18.4013  -27.5654 H   0  0  0  0  0  0  0  0  0  0  0  0
   -0.9338   16.8521  -26.4493 H   0  0  0  0  0  0  0  0  0  0  0  0
   -3.2762   17.6103  -25.9956 H   0  0  0  0  0  0  0  0  0  0  0  0
   -4.0099   19.9209  -26.6718 H   0  0  0  0  0  0  0  0  0  0  0  0
   -3.7900   23.4617  -31.4274 H   0  0  0  0  0  0  0  0  0  0  0  0
   -4.2568   21.3222  -32.6243 H   0  0  0  0  0  0  0  0  0  0  0  0
   -6.8446   18.1076  -34.7409 H   0  0  0  0  0  0  0  0  0  0  0  0
   -5.4345   18.5800  -35.7979 H   0  0  0  0  0  0  0  0  0  0  0  0
   -5.4027   16.4721  -33.5930 H   0  0  0  0  0  0  0  0  0  0  0  0
   -5.4236   16.1727  -35.3734 H   0  0  0  0  0  0  0  0  0  0  0  0
   -3.1359   16.1319  -34.0605 H   0  0  0  0  0  0  0  0  0  0  0  0
   -3.2661   16.9596  -35.6787 H   0  0  0  0  0  0  0  0  0  0  0  0
   -2.1356   18.0794  -33.4341 H   0  0  0  0  0  0  0  0  0  0  0  0
   -2.8425   18.9924  -34.8301 H   0  0  0  0  0  0  0  0  0  0  0  0
   -4.3243   18.2219  -32.2696 H   0  0  0  0  0  0  0  0  0  0  0  0
   -3.6685   19.8578  -32.6738 H   0  0  0  0  0  0  0  0  0  0  0  0
   -8.1359   21.1016  -30.7164 H   0  0  0  0  0  0  0  0  0  0  0  0
   -7.6470   23.2105  -29.4780 H   0  0  0  0  0  0  0  0  0  0  0  0
  1  2  2  0
  2  3  2  0
  2  4  1  0
  4  5  1  0
  5  6  2  0
  6  7  1  0
  7  8  2  0
  8  9  1  0
  9 10  2  0
 10 11  1  0
  8 12  1  0
 12 13  1  0
 13 14  2  0
 14 15  1  0
 15 16  2  0
 16 17  1  0
 17 18  2  0
  2 19  1  0
 19 20  2  0
 20 21  1  0
 21 22  2  0
 22 23  1  0
 23 24  2  0
 23 25  2  0
 23 26  1  0
 26 27  1  0
 27 28  1  0
 28 29  1  0
 29 30  1  0
 30 31  1  0
 22 32  1  0
 32 33  2  0
 10  5  1  0
 18 13  1  0
 33 19  1  0
 18  7  1  0
 31 26  1  0
  4 34  1  0
  6 35  1  0
  9 36  1  0
 12 37  1  0
 12 38  1  0
 14 39  1  0
 15 40  1  0
 16 41  1  0
 17 42  1  0
 20 43  1  0
 21 44  1  0
 27 45  1  0
 27 46  1  0
 28 47  1  0
 28 48  1  0
 29 49  1  0
 29 50  1  0
 30 51  1  0
 30 52  1  0
 31 53  1  0
 31 54  1  0
 32 55  1  0
 33 56  1  0
M  CHG  1  11  -1
M  END
>  <UniqueID>  (49) 
48

>  <SMILES>  (49) 
O=S(=O)(Nc1cc2c(cc1[O-])Cc1ccccc1-2)c1ccc(S(=O)(=O)N2CCCCC2)cc1

>  <Energy>  (49) 
85.77036562852737

>  <Genealogy>  (49) 
O=S(=O)(Nc1cc2c(cc1[O-])Cc1ccccc1-2)c1ccc(S(=O)(=O)N2CCCCC2)cc1 (protonated)
O=S(=O)(Nc1cc2c(cc1[O-])Cc1ccccc1-2)c1ccc(S(=O)(=O)N2CCCCC2)cc1 (3D coordinates assigned)
O=S(=O)(Nc1cc2c(cc1[O-])Cc1ccccc1-2)c1ccc(S(=O)(=O)N2CCCCC2)cc1 (nonaromatic ring conformer: 85.77036562852737 kcal/mol)

>  <smiles>  (49) 
O=S(=O)(Nc1cc2c(cc1O)Cc1ccccc1-2)c1ccc(S(=O)(=O)N2CCCCC2)cc1

>  <score_type>  (49) 
oracle

>  <origin>  (49) 
adgpu

>  <m_score__min__energy>  (49) 
-15.59

>  <m_primary>  (49) 
energy

$$$$
