0:0
     RDKit          3D

 50 53  0  0  0  0  0  0  0  0999 V2000
   -5.1057   13.7366  -30.8272 H   0  0  0  0  0  0  0  0  0  0  0  0
   -4.5870   14.1720  -31.6940 C   0  0  0  0  0  0  0  0  0  0  0  0
   -3.4420   13.7580  -32.1890 O   0  0  0  0  0  0  0  0  0  0  0  0
   -3.0790   14.4710  -33.2170 N   0  0  0  0  0  0  0  0  0  0  0  0
   -4.0420   15.3930  -33.3930 C   0  0  0  0  0  0  0  0  0  0  0  0
   -4.0020   16.2760  -34.3440 N   0  0  0  0  0  0  0  0  0  0  0  0
   -5.2270   17.4760  -34.6150 S   0  0  0  0  0  0  0  0  0  0  0  0
   -6.5400   16.9650  -34.0940 O   0  0  0  0  0  0  0  0  0  0  0  0
   -5.3510   17.7270  -36.0930 O   0  0  0  0  0  0  0  0  0  0  0  0
   -4.8130   18.9590  -33.7630 C   0  0  0  0  0  0  0  0  0  0  0  0
   -5.7720   19.6300  -32.9960 C   0  0  0  0  0  0  0  0  0  0  0  0
   -6.7966   19.2349  -32.9324 H   0  0  0  0  0  0  0  0  0  0  0  0
   -5.4340   20.7990  -32.3110 C   0  0  0  0  0  0  0  0  0  0  0  0
   -6.1957   21.3242  -31.7160 H   0  0  0  0  0  0  0  0  0  0  0  0
   -4.1230   21.3090  -32.3780 C   0  0  0  0  0  0  0  0  0  0  0  0
   -3.7450   22.4600  -31.6680 O   0  0  0  0  0  0  0  0  0  0  0  0
   -3.1470   22.4260  -30.4040 C   0  0  0  0  0  0  0  0  0  0  0  0
   -2.2070   21.4310  -30.1420 C   0  0  0  0  0  0  0  0  0  0  0  0
   -1.9675   20.6874  -30.9164 H   0  0  0  0  0  0  0  0  0  0  0  0
   -1.5710   21.3730  -28.9090 C   0  0  0  0  0  0  0  0  0  0  0  0
   -0.8437   20.5727  -28.7075 H   0  0  0  0  0  0  0  0  0  0  0  0
   -1.8470   22.3220  -27.9230 C   0  0  0  0  0  0  0  0  0  0  0  0
   -0.9270   22.1210  -26.2470 Br  0  0  0  0  0  0  0  0  0  0  0  0
   -2.7810   23.3580  -28.1700 C   0  0  0  0  0  0  0  0  0  0  0  0
   -3.0420   24.3940  -27.1040 C   0  0  0  0  0  0  0  0  0  0  0  0
   -2.9265   23.9354  -26.1109 H   0  0  0  0  0  0  0  0  0  0  0  0
   -2.3240   25.2203  -27.2121 H   0  0  0  0  0  0  0  0  0  0  0  0
   -4.0658   24.7814  -27.2121 H   0  0  0  0  0  0  0  0  0  0  0  0
   -3.4870   23.3720  -29.4090 C   0  0  0  0  0  0  0  0  0  0  0  0
   -4.8130   24.5180  -29.7510 S   0  0  0  0  0  0  0  0  0  0  0  0
   -4.3540   25.6740  -30.5940 O   0  0  0  0  0  0  0  0  0  0  0  0
   -5.2940   25.0830  -28.4430 O   0  0  0  0  0  0  0  0  0  0  0  0
   -6.1470   23.6970  -30.5590 C   0  0  0  0  0  0  0  0  0  0  0  0
   -6.4680   24.0130  -31.8880 C   0  0  0  0  0  0  0  0  0  0  0  0
   -5.8675   24.7548  -32.4349 H   0  0  0  0  0  0  0  0  0  0  0  0
   -7.5480   23.3890  -32.5200 C   0  0  0  0  0  0  0  0  0  0  0  0
   -7.7979   23.6439  -33.5605 H   0  0  0  0  0  0  0  0  0  0  0  0
   -8.3100   22.4420  -31.8310 C   0  0  0  0  0  0  0  0  0  0  0  0
   -9.1593   21.9515  -32.3290 H   0  0  0  0  0  0  0  0  0  0  0  0
   -7.9930   22.1180  -30.5090 C   0  0  0  0  0  0  0  0  0  0  0  0
   -8.5926   21.3714  -29.9676 H   0  0  0  0  0  0  0  0  0  0  0  0
   -6.9140   22.7420  -29.8730 C   0  0  0  0  0  0  0  0  0  0  0  0
   -6.6662   22.4836  -28.8329 H   0  0  0  0  0  0  0  0  0  0  0  0
   -3.1680   20.6460  -33.1680 C   0  0  0  0  0  0  0  0  0  0  0  0
   -1.8190   21.1450  -33.2550 C   0  0  0  0  0  0  0  0  0  0  0  0
   -0.7360   21.5460  -33.3250 N   0  0  0  0  0  0  0  0  0  0  0  0
   -3.5130   19.4720  -33.8500 C   0  0  0  0  0  0  0  0  0  0  0  0
   -2.7586   18.9503  -34.4572 H   0  0  0  0  0  0  0  0  0  0  0  0
   -5.0300   15.2420  -32.4410 C   0  0  0  0  0  0  0  0  0  0  0  0
   -5.9486   15.8328  -32.3102 H   0  0  0  0  0  0  0  0  0  0  0  0
  1  2  1  0
  2  3  1  0
  3  4  1  0
  4  5  1  0
  5  6  2  0
  6  7  1  0
  7  8  2  0
  7  9  2  0
  7 10  1  0
 10 11  2  0
 11 12  1  0
 11 13  1  0
 13 14  1  0
 13 15  2  0
 15 16  1  0
 16 17  1  0
 17 18  2  0
 18 19  1  0
 18 20  1  0
 20 21  1  0
 20 22  2  0
 22 23  1  0
 22 24  1  0
 24 25  1  0
 25 26  1  0
 25 27  1  0
 25 28  1  0
 24 29  2  0
 29 30  1  0
 30 31  2  0
 30 32  2  0
 30 33  1  0
 33 34  2  0
 34 35  1  0
 34 36  1  0
 36 37  1  0
 36 38  2  0
 38 39  1  0
 38 40  1  0
 40 41  1  0
 40 42  2  0
 42 43  1  0
 15 44  1  0
 44 45  1  0
 45 46  3  0
 44 47  2  0
 47 48  1  0
  5 49  1  0
 49 50  1  0
 49  2  2  0
 47 10  1  0
 29 17  1  0
 42 33  1  0
M  CHG  1   4  -1
M  END
>  <UniqueID>  (1) 
1

>  <SMILES>  (1) 
Cc1c(Br)ccc(Oc2ccc(S(=O)(=O)/N=c3\cco[n-]3)cc2C#N)c1S(=O)(=O)c1ccccc1

>  <Energy>  (1) 
100.40592784642494

>  <Genealogy>  (1) 
Cc1c(Br)ccc(Oc2ccc(S(=O)(=O)N=c3cco[n-]3)cc2C#N)c1S(=O)(=O)c1ccccc1 (protonated)
Cc1c(Br)ccc(Oc2ccc(S(=O)(=O)/N=c3\cco[n-]3)cc2C#N)c1S(=O)(=O)c1ccccc1 (cis-trans isomerization)
Cc1c(Br)ccc(Oc2ccc(S(=O)(=O)/N=c3\cco[n-]3)cc2C#N)c1S(=O)(=O)c1ccccc1 (3D coordinates assigned)
Cc1c(Br)ccc(Oc2ccc(S(=O)(=O)/N=c3\cco[n-]3)cc2C#N)c1S(=O)(=O)c1ccccc1 (optimized conformer: 100.40592784642494 kcal/mol)

>  <smiles>  (1) 
Cc1c(Br)ccc(Oc2ccc(S(=O)(=O)N=c3cco[nH]3)cc2C#N)c1S(=O)(=O)c1ccccc1

>  <score_type>  (1) 
oracle

>  <origin>  (1) 
adgpu

>  <m_score__min__energy>  (1) 
-11.84

>  <m_primary>  (1) 
energy

$$$$
1:0
     RDKit          3D

 43 45  0  0  0  0  0  0  0  0999 V2000
   -6.0910   18.1900  -34.1880 C   0  0  0  0  0  0  0  0  0  0  0  0
   -7.0290   17.9650  -32.9990 C   0  0  0  0  0  0  0  0  0  0  0  0
   -6.2950   17.2850  -31.8410 C   0  0  0  0  0  0  0  0  0  0  0  0
   -7.5970   19.2400  -32.5550 N   0  0  0  0  0  0  0  0  0  0  0  0
   -6.9200   20.3940  -32.4010 C   0  0  0  0  0  0  0  0  0  0  0  0
   -7.8160   21.3620  -31.9940 C   0  0  0  0  0  0  0  0  0  0  0  0
   -7.5600   22.7960  -31.7480 C   0  0  0  0  0  0  0  0  0  0  0  0
   -8.4340   23.6360  -32.0960 O   0  0  0  0  0  0  0  0  0  0  0  0
   -6.3090   23.2800  -31.1200 C   0  0  0  0  0  0  0  0  0  0  0  0
   -5.7900   24.5510  -31.4100 C   0  0  0  0  0  0  0  0  0  0  0  0
   -4.6240   24.9610  -30.8450 N   0  0  0  0  0  0  0  0  0  0  0  0
   -3.9280   24.1740  -29.9850 C   0  0  0  0  0  0  0  0  0  0  0  0
   -4.4010   22.8940  -29.6560 C   0  0  0  0  0  0  0  0  0  0  0  0
   -3.6710   22.0190  -28.7780 N   0  0  0  0  0  0  0  0  0  0  0  0
   -2.4590   21.3420  -29.1480 C   0  0  0  0  0  0  0  0  0  0  0  0
   -1.8030   21.7220  -30.1560 O   0  0  0  0  0  0  0  0  0  0  0  0
   -1.9430   20.2260  -28.3360 C   0  0  0  0  0  0  0  0  0  0  0  0
   -2.4640   19.7570  -27.1430 C   0  0  0  0  0  0  0  0  0  0  0  0
   -1.7150   18.7260  -26.7060 N   0  0  0  0  0  0  0  0  0  0  0  0
   -0.7350   18.5460  -27.5780 N   0  0  0  0  0  0  0  0  0  0  0  0
    0.2540   17.4820  -27.4820 C   0  0  0  0  0  0  0  0  0  0  0  0
   -0.8440   19.4300  -28.5880 C   0  0  0  0  0  0  0  0  0  0  0  0
   -5.5870   22.4450  -30.2530 C   0  0  0  0  0  0  0  0  0  0  0  0
   -9.0410   20.7210  -31.9390 C   0  0  0  0  0  0  0  0  0  0  0  0
   -8.8810   19.4290  -32.2830 N   0  0  0  0  0  0  0  0  0  0  0  0
   -5.0832   18.4317  -33.8194 H   0  0  0  0  0  0  0  0  0  0  0  0
   -6.0484   17.2766  -34.7994 H   0  0  0  0  0  0  0  0  0  0  0  0
   -6.4674   19.0233  -34.7994 H   0  0  0  0  0  0  0  0  0  0  0  0
   -7.8436   17.3023  -33.3265 H   0  0  0  0  0  0  0  0  0  0  0  0
   -6.6948   17.6554  -30.8855 H   0  0  0  0  0  0  0  0  0  0  0  0
   -6.4417   16.1966  -31.9026 H   0  0  0  0  0  0  0  0  0  0  0  0
   -5.2209   17.5143  -31.9026 H   0  0  0  0  0  0  0  0  0  0  0  0
   -5.8428   20.5395  -32.5698 H   0  0  0  0  0  0  0  0  0  0  0  0
   -6.3295   25.2187  -32.0979 H   0  0  0  0  0  0  0  0  0  0  0  0
   -2.9894   24.5410  -29.5442 H   0  0  0  0  0  0  0  0  0  0  0  0
   -3.9920   21.9510  -27.7850 H   0  0  0  0  0  0  0  0  0  0  0  0
   -3.3499   20.1621  -26.6321 H   0  0  0  0  0  0  0  0  0  0  0  0
    0.4565   17.2641  -26.4230 H   0  0  0  0  0  0  0  0  0  0  0  0
   -0.1315   16.5775  -27.9752 H   0  0  0  0  0  0  0  0  0  0  0  0
    1.1842   17.8004  -27.9752 H   0  0  0  0  0  0  0  0  0  0  0  0
   -0.1761   19.5044  -29.4588 H   0  0  0  0  0  0  0  0  0  0  0  0
   -5.9548   21.4303  -30.0404 H   0  0  0  0  0  0  0  0  0  0  0  0
   -9.9946   21.1922  -31.6586 H   0  0  0  0  0  0  0  0  0  0  0  0
  1  2  1  0
  2  3  1  0
  2  4  1  0
  4  5  1  0
  5  6  2  0
  6  7  1  0
  7  8  2  0
  7  9  1  0
  9 10  2  0
 10 11  1  0
 11 12  2  0
 12 13  1  0
 13 14  1  0
 14 15  1  0
 15 16  2  0
 15 17  1  0
 17 18  1  0
 18 19  2  0
 19 20  1  0
 20 21  1  0
 20 22  1  0
 13 23  2  0
  6 24  1  0
 24 25  2  0
 25  4  1  0
 23  9  1  0
 22 17  2  0
  1 26  1  0
  1 27  1  0
  1 28  1  0
  2 29  1  0
  3 30  1  0
  3 31  1  0
  3 32  1  0
  5 33  1  0
 10 34  1  0
 12 35  1  0
 14 36  1  0
 18 37  1  0
 21 38  1  0
 21 39  1  0
 21 40  1  0
 22 41  1  0
 23 42  1  0
 24 43  1  0
M  END
>  <UniqueID>  (2) 
2

>  <SMILES>  (2) 
CC(C)n1cc(C(=O)c2cncc(NC(=O)c3cnn(C)c3)c2)cn1

>  <Energy>  (2) 
106.89143086479818

>  <Genealogy>  (2) 
CC(C)n1cc(C(=O)c2cncc(NC(=O)c3cnn(C)c3)c2)cn1 (3D coordinates assigned)
CC(C)n1cc(C(=O)c2cncc(NC(=O)c3cnn(C)c3)c2)cn1 (optimized conformer: 106.89143086479818 kcal/mol)

>  <smiles>  (2) 
CC(C)n1cc(C(=O)c2cncc(NC(=O)c3cnn(C)c3)c2)cn1

>  <score_type>  (2) 
oracle

>  <origin>  (2) 
adgpu

>  <m_score__min__energy>  (2) 
-8.5800000000000001

>  <m_primary>  (2) 
energy

$$$$
2:0
     RDKit          3D

 48 50  0  0  0  0  0  0  0  0999 V2000
   -2.5940   19.6280  -27.3210 C   0  0  0  0  0  0  0  0  0  0  0  0
   -2.1670   21.0620  -27.2130 C   0  0  0  0  0  0  0  0  0  0  0  0
   -0.8470   21.3800  -26.8580 C   0  0  0  0  0  0  0  0  0  0  0  0
   -0.4390   22.7140  -26.7880 C   0  0  0  0  0  0  0  0  0  0  0  0
   -1.3410   23.7400  -27.0830 C   0  0  0  0  0  0  0  0  0  0  0  0
   -2.6570   23.4360  -27.4640 C   0  0  0  0  0  0  0  0  0  0  0  0
   -3.6280   24.5460  -27.7640 C   0  0  0  0  0  0  0  0  0  0  0  0
   -4.7220   24.0480  -28.5940 N   0  0  0  0  0  0  0  0  0  0  0  0
   -4.7550   24.2440  -30.0170 C   0  0  0  0  0  0  0  0  0  0  0  0
   -3.8720   24.9500  -30.5760 O   0  0  0  0  0  0  0  0  0  0  0  0
   -5.8090   23.6280  -30.8440 C   0  0  0  0  0  0  0  0  0  0  0  0
   -6.3960   24.1710  -31.9740 C   0  0  0  0  0  0  0  0  0  0  0  0
   -7.3040   23.3050  -32.4620 N   0  0  0  0  0  0  0  0  0  0  0  0
   -7.3020   22.2380  -31.6780 N   0  0  0  0  0  0  0  0  0  0  0  0
   -8.1640   21.0760  -31.8850 C   0  0  0  0  0  0  0  0  0  0  0  0
   -7.3430   19.8910  -32.3380 C   0  0  0  0  0  0  0  0  0  0  0  0
   -6.0640   20.1250  -32.8730 C   0  0  0  0  0  0  0  0  0  0  0  0
   -5.2520   19.0620  -33.2880 C   0  0  0  0  0  0  0  0  0  0  0  0
   -3.8760   19.3280  -33.8260 C   0  0  0  0  0  0  0  0  0  0  0  0
   -5.7050   17.7470  -33.1320 C   0  0  0  0  0  0  0  0  0  0  0  0
   -6.9660   17.4970  -32.5880 C   0  0  0  0  0  0  0  0  0  0  0  0
   -7.7950   18.5560  -32.1810 C   0  0  0  0  0  0  0  0  0  0  0  0
   -9.1470   18.2420  -31.5950 C   0  0  0  0  0  0  0  0  0  0  0  0
   -6.4110   22.3970  -30.6820 C   0  0  0  0  0  0  0  0  0  0  0  0
   -3.0650   22.0930  -27.5280 C   0  0  0  0  0  0  0  0  0  0  0  0
   -2.7197   19.2059  -26.3130 H   0  0  0  0  0  0  0  0  0  0  0  0
   -3.5485   19.5696  -27.8646 H   0  0  0  0  0  0  0  0  0  0  0  0
   -1.8269   19.0570  -27.8646 H   0  0  0  0  0  0  0  0  0  0  0  0
   -0.1309   20.5756  -26.6340 H   0  0  0  0  0  0  0  0  0  0  0  0
    0.5943   22.9576  -26.5001 H   0  0  0  0  0  0  0  0  0  0  0  0
   -1.0183   24.7895  -27.0163 H   0  0  0  0  0  0  0  0  0  0  0  0
   -4.0365   24.9365  -26.8203 H   0  0  0  0  0  0  0  0  0  0  0  0
   -3.1023   25.3465  -28.3051 H   0  0  0  0  0  0  0  0  0  0  0  0
   -5.5000   23.5380  -28.1210 H   0  0  0  0  0  0  0  0  0  0  0  0
   -6.1581   25.1547  -32.4051 H   0  0  0  0  0  0  0  0  0  0  0  0
   -8.6712   20.8271  -30.9412 H   0  0  0  0  0  0  0  0  0  0  0  0
   -8.9078   21.3144  -32.6596 H   0  0  0  0  0  0  0  0  0  0  0  0
   -5.6960   21.1573  -32.9669 H   0  0  0  0  0  0  0  0  0  0  0  0
   -3.1750   19.4635  -32.9892 H   0  0  0  0  0  0  0  0  0  0  0  0
   -3.5519   18.4759  -34.4415 H   0  0  0  0  0  0  0  0  0  0  0  0
   -3.8928   20.2395  -34.4415 H   0  0  0  0  0  0  0  0  0  0  0  0
   -5.0647   16.9070  -33.4393 H   0  0  0  0  0  0  0  0  0  0  0  0
   -7.3145   16.4596  -32.4767 H   0  0  0  0  0  0  0  0  0  0  0  0
   -9.0831   18.2568  -30.4970 H   0  0  0  0  0  0  0  0  0  0  0  0
   -9.8757   18.9948  -31.9301 H   0  0  0  0  0  0  0  0  0  0  0  0
   -9.4693   17.2451  -31.9301 H   0  0  0  0  0  0  0  0  0  0  0  0
   -6.2000   21.6736  -29.8806 H   0  0  0  0  0  0  0  0  0  0  0  0
   -4.0949   21.8483  -27.8269 H   0  0  0  0  0  0  0  0  0  0  0  0
  1  2  1  0
  2  3  2  0
  3  4  1  0
  4  5  2  0
  5  6  1  0
  6  7  1  0
  7  8  1  0
  8  9  1  0
  9 10  2  0
  9 11  1  0
 11 12  1  0
 12 13  2  0
 13 14  1  0
 14 15  1  0
 15 16  1  0
 16 17  2  0
 17 18  1  0
 18 19  1  0
 18 20  2  0
 20 21  1  0
 21 22  2  0
 22 23  1  0
 14 24  1  0
  6 25  2  0
 25  2  1  0
 24 11  2  0
 22 16  1  0
  1 26  1  0
  1 27  1  0
  1 28  1  0
  3 29  1  0
  4 30  1  0
  5 31  1  0
  7 32  1  0
  7 33  1  0
  8 34  1  0
 12 35  1  0
 15 36  1  0
 15 37  1  0
 17 38  1  0
 19 39  1  0
 19 40  1  0
 19 41  1  0
 20 42  1  0
 21 43  1  0
 23 44  1  0
 23 45  1  0
 23 46  1  0
 24 47  1  0
 25 48  1  0
M  END
>  <UniqueID>  (3) 
3

>  <SMILES>  (3) 
Cc1cccc(CNC(=O)c2cnn(Cc3cc(C)ccc3C)c2)c1

>  <Energy>  (3) 
74.87036038463958

>  <Genealogy>  (3) 
Cc1cccc(CNC(=O)c2cnn(Cc3cc(C)ccc3C)c2)c1 (3D coordinates assigned)
Cc1cccc(CNC(=O)c2cnn(Cc3cc(C)ccc3C)c2)c1 (optimized conformer: 74.87036038463958 kcal/mol)

>  <smiles>  (3) 
Cc1cccc(CNC(=O)c2cnn(Cc3cc(C)ccc3C)c2)c1

>  <score_type>  (3) 
oracle

>  <origin>  (3) 
adgpu

>  <m_score__min__energy>  (3) 
-9.2400000000000002

>  <m_primary>  (3) 
energy

$$$$
3:0
     RDKit          3D

 59 62  0  0  0  0  0  0  0  0999 V2000
   -5.5060   26.4250  -30.5720 O   0  0  0  0  0  0  0  0  0  0  0  0
   -4.9130   25.3140  -30.6000 C   0  0  0  0  0  0  0  0  0  0  0  0
   -3.4890   25.2900  -30.4390 N   0  0  0  0  0  0  0  0  0  0  0  0
   -2.7570   24.5000  -29.4890 C   0  0  0  0  0  0  0  0  0  0  0  0
   -2.9150   23.1060  -29.4110 C   0  0  0  0  0  0  0  0  0  0  0  0
   -2.1750   22.3660  -28.4860 C   0  0  0  0  0  0  0  0  0  0  0  0
   -1.2610   23.0070  -27.6460 C   0  0  0  0  0  0  0  0  0  0  0  0
   -1.0740   24.3930  -27.7350 C   0  0  0  0  0  0  0  0  0  0  0  0
    0.1030   25.2000  -26.6960 S   0  0  0  0  0  0  0  0  0  0  0  0
    0.4880   24.2730  -25.5770 O   0  0  0  0  0  0  0  0  0  0  0  0
    1.3420   25.5000  -27.4930 O   0  0  0  0  0  0  0  0  0  0  0  0
   -0.5260   26.6900  -26.0240 N   0  0  0  0  0  0  0  0  0  0  0  0
    0.5430   27.4970  -25.4260 C   0  0  0  0  0  0  0  0  0  0  0  0
    0.5450   27.2520  -23.9230 C   0  0  0  0  0  0  0  0  0  0  0  0
   -0.7630   26.5500  -23.6170 C   0  0  0  0  0  0  0  0  0  0  0  0
   -1.4870   26.4220  -24.9490 C   0  0  0  0  0  0  0  0  0  0  0  0
   -1.8250   25.1340  -28.6590 C   0  0  0  0  0  0  0  0  0  0  0  0
   -5.7060   24.0740  -30.7640 C   0  0  0  0  0  0  0  0  0  0  0  0
   -5.1950   23.0310  -31.5550 C   0  0  0  0  0  0  0  0  0  0  0  0
   -5.9160   21.8400  -31.7190 C   0  0  0  0  0  0  0  0  0  0  0  0
   -5.2740   20.5370  -32.7160 S   0  0  0  0  0  0  0  0  0  0  0  0
   -4.2910   21.0940  -33.7090 O   0  0  0  0  0  0  0  0  0  0  0  0
   -4.5460   19.5710  -31.8240 O   0  0  0  0  0  0  0  0  0  0  0  0
   -6.5680   19.6940  -33.5430 N   0  0  0  0  0  0  0  0  0  0  0  0
   -6.0660   18.8270  -34.6280 C   0  0  0  0  0  0  0  0  0  0  0  0
   -5.3830   17.5480  -34.1050 C   0  0  0  0  0  0  0  0  0  0  0  0
   -6.0980   16.9370  -32.8870 C   0  0  0  0  0  0  0  0  0  0  0  0
   -7.5130   17.4860  -32.7200 C   0  0  0  0  0  0  0  0  0  0  0  0
   -7.4870   19.0210  -32.5910 C   0  0  0  0  0  0  0  0  0  0  0  0
   -7.1640   21.6970  -31.1050 C   0  0  0  0  0  0  0  0  0  0  0  0
   -7.6890   22.7330  -30.3300 C   0  0  0  0  0  0  0  0  0  0  0  0
   -6.9730   23.9260  -30.1620 C   0  0  0  0  0  0  0  0  0  0  0  0
   -7.5290   24.9680  -29.4200 O   0  0  0  0  0  0  0  0  0  0  0  0
   -3.6235   22.5960  -30.0803 H   0  0  0  0  0  0  0  0  0  0  0  0
   -2.3121   21.2766  -28.4188 H   0  0  0  0  0  0  0  0  0  0  0  0
   -0.6865   22.4221  -26.9126 H   0  0  0  0  0  0  0  0  0  0  0  0
    1.5135   27.2026  -25.8519 H   0  0  0  0  0  0  0  0  0  0  0  0
    0.3742   28.5636  -25.6354 H   0  0  0  0  0  0  0  0  0  0  0  0
    1.3965   26.6158  -23.6398 H   0  0  0  0  0  0  0  0  0  0  0  0
    0.6413   28.1920  -23.3598 H   0  0  0  0  0  0  0  0  0  0  0  0
   -0.5725   25.5554  -23.1876 H   0  0  0  0  0  0  0  0  0  0  0  0
   -1.3612   27.1107  -22.8836 H   0  0  0  0  0  0  0  0  0  0  0  0
   -1.8908   25.4045  -25.0564 H   0  0  0  0  0  0  0  0  0  0  0  0
   -2.3196   27.1392  -24.9979 H   0  0  0  0  0  0  0  0  0  0  0  0
   -1.6805   26.2220  -28.7321 H   0  0  0  0  0  0  0  0  0  0  0  0
   -4.2200   23.1502  -32.0502 H   0  0  0  0  0  0  0  0  0  0  0  0
   -6.9136   18.5366  -35.2661 H   0  0  0  0  0  0  0  0  0  0  0  0
   -5.3112   19.4000  -35.1866 H   0  0  0  0  0  0  0  0  0  0  0  0
   -5.3698   16.8024  -34.9137 H   0  0  0  0  0  0  0  0  0  0  0  0
   -4.3681   17.8257  -33.7844 H   0  0  0  0  0  0  0  0  0  0  0  0
   -6.1534   15.8462  -33.0179 H   0  0  0  0  0  0  0  0  0  0  0  0
   -5.5226   17.2009  -31.9874 H   0  0  0  0  0  0  0  0  0  0  0  0
   -8.1150   17.2070  -33.5974 H   0  0  0  0  0  0  0  0  0  0  0  0
   -7.9530   17.0606  -31.8060 H   0  0  0  0  0  0  0  0  0  0  0  0
   -8.5046   19.3997  -32.7671 H   0  0  0  0  0  0  0  0  0  0  0  0
   -7.1181   19.2480  -31.5799 H   0  0  0  0  0  0  0  0  0  0  0  0
   -7.7342   20.7651  -31.2330 H   0  0  0  0  0  0  0  0  0  0  0  0
   -8.6705   22.6121  -29.8484 H   0  0  0  0  0  0  0  0  0  0  0  0
   -6.9810   25.7740  -29.1420 H   0  0  0  0  0  0  0  0  0  0  0  0
  1  2  2  0
  2  3  1  0
  3  4  1  0
  4  5  2  0
  5  6  1  0
  6  7  2  0
  7  8  1  0
  8  9  1  0
  9 10  2  0
  9 11  2  0
  9 12  1  0
 12 13  1  0
 13 14  1  0
 14 15  1  0
 15 16  1  0
  8 17  2  0
  2 18  1  0
 18 19  2  0
 19 20  1  0
 20 21  1  0
 21 22  2  0
 21 23  2  0
 21 24  1  0
 24 25  1  0
 25 26  1  0
 26 27  1  0
 27 28  1  0
 28 29  1  0
 20 30  2  0
 30 31  1  0
 31 32  2  0
 32 33  1  0
 17  4  1  0
 32 18  1  0
 16 12  1  0
 29 24  1  0
  5 34  1  0
  6 35  1  0
  7 36  1  0
 13 37  1  0
 13 38  1  0
 14 39  1  0
 14 40  1  0
 15 41  1  0
 15 42  1  0
 16 43  1  0
 16 44  1  0
 17 45  1  0
 19 46  1  0
 25 47  1  0
 25 48  1  0
 26 49  1  0
 26 50  1  0
 27 51  1  0
 27 52  1  0
 28 53  1  0
 28 54  1  0
 29 55  1  0
 29 56  1  0
 30 57  1  0
 31 58  1  0
 33 59  1  0
M  CHG  1   3  -1
M  END
>  <UniqueID>  (4) 
4

>  <SMILES>  (4) 
O=C([N-]c1cccc(S(=O)(=O)N2CCCC2)c1)c1cc(S(=O)(=O)N2CCCCC2)ccc1O

>  <Energy>  (4) 
75.50513690980962

>  <Genealogy>  (4) 
O=C([N-]c1cccc(S(=O)(=O)N2CCCC2)c1)c1cc(S(=O)(=O)N2CCCCC2)ccc1O (protonated)
O=C([N-]c1cccc(S(=O)(=O)N2CCCC2)c1)c1cc(S(=O)(=O)N2CCCCC2)ccc1O (3D coordinates assigned)
O=C([N-]c1cccc(S(=O)(=O)N2CCCC2)c1)c1cc(S(=O)(=O)N2CCCCC2)ccc1O (nonaromatic ring conformer: 75.50513690980962 kcal/mol)

>  <smiles>  (4) 
O=C(Nc1cccc(S(=O)(=O)N2CCCC2)c1)c1cc(S(=O)(=O)N2CCCCC2)ccc1O

>  <score_type>  (4) 
oracle

>  <origin>  (4) 
adgpu

>  <m_score__min__energy>  (4) 
-11.69

>  <m_primary>  (4) 
energy

$$$$
4:0
     RDKit          3D

 31 32  0  0  0  0  0  0  0  0999 V2000
   -7.5340   20.2540  -33.5780 N   0  0  0  0  0  0  0  0  0  0  0  0
   -6.8770   21.1930  -32.7230 C   0  0  0  0  0  0  0  0  0  0  0  0
   -7.6300   22.0630  -31.9200 C   0  0  0  0  0  0  0  0  0  0  0  0
   -6.9880   22.9810  -31.0840 C   0  0  0  0  0  0  0  0  0  0  0  0
   -5.5890   23.0420  -31.0470 C   0  0  0  0  0  0  0  0  0  0  0  0
   -4.7900   24.2070  -29.9930 S   0  0  0  0  0  0  0  0  0  0  0  0
   -4.1810   25.2810  -30.8490 O   0  0  0  0  0  0  0  0  0  0  0  0
   -5.7810   24.8450  -29.0590 O   0  0  0  0  0  0  0  0  0  0  0  0
   -3.5440   23.3940  -29.0330 C   0  0  0  0  0  0  0  0  0  0  0  0
   -3.8260   22.1300  -28.4870 C   0  0  0  0  0  0  0  0  0  0  0  0
   -2.8760   21.4560  -27.7110 C   0  0  0  0  0  0  0  0  0  0  0  0
   -3.1770   20.1710  -27.1610 N   0  0  0  0  0  0  0  0  0  0  0  0
   -1.6320   22.0470  -27.4740 C   0  0  0  0  0  0  0  0  0  0  0  0
   -1.3370   23.3020  -28.0070 C   0  0  0  0  0  0  0  0  0  0  0  0
   -2.2810   23.9890  -28.7880 C   0  0  0  0  0  0  0  0  0  0  0  0
   -1.9340   25.2800  -29.3090 N   0  0  0  0  0  0  0  0  0  0  0  0
   -4.8360   22.1710  -31.8450 C   0  0  0  0  0  0  0  0  0  0  0  0
   -5.4780   21.2510  -32.6810 C   0  0  0  0  0  0  0  0  0  0  0  0
   -7.1900   20.0850  -34.5500 H   0  0  0  0  0  0  0  0  0  0  0  0
   -8.3680   19.7200  -33.2450 H   0  0  0  0  0  0  0  0  0  0  0  0
   -8.7289   22.0225  -31.9485 H   0  0  0  0  0  0  0  0  0  0  0  0
   -7.5832   23.6576  -30.4532 H   0  0  0  0  0  0  0  0  0  0  0  0
   -4.8054   21.6647  -28.6718 H   0  0  0  0  0  0  0  0  0  0  0  0
   -3.9880   20.0410  -26.5150 H   0  0  0  0  0  0  0  0  0  0  0  0
   -2.5930   19.3380  -27.3960 H   0  0  0  0  0  0  0  0  0  0  0  0
   -0.8825   21.5206  -26.8648 H   0  0  0  0  0  0  0  0  0  0  0  0
   -0.3550   23.7583  -27.8137 H   0  0  0  0  0  0  0  0  0  0  0  0
   -0.9810   25.5050  -29.6650 H   0  0  0  0  0  0  0  0  0  0  0  0
   -2.6460   26.0440  -29.3440 H   0  0  0  0  0  0  0  0  0  0  0  0
   -3.7371   22.2105  -31.8142 H   0  0  0  0  0  0  0  0  0  0  0  0
   -4.8822   20.5709  -33.3074 H   0  0  0  0  0  0  0  0  0  0  0  0
  1  2  1  0
  2  3  2  0
  3  4  1  0
  4  5  2  0
  5  6  1  0
  6  7  2  0
  6  8  2  0
  6  9  1  0
  9 10  2  0
 10 11  1  0
 11 12  1  0
 11 13  2  0
 13 14  1  0
 14 15  2  0
 15 16  1  0
  5 17  1  0
 17 18  2  0
 18  2  1  0
 15  9  1  0
  1 19  1  0
  1 20  1  0
  3 21  1  0
  4 22  1  0
 10 23  1  0
 12 24  1  0
 12 25  1  0
 13 26  1  0
 14 27  1  0
 16 28  1  0
 16 29  1  0
 17 30  1  0
 18 31  1  0
M  END
>  <UniqueID>  (5) 
5

>  <SMILES>  (5) 
Nc1ccc(S(=O)(=O)c2cc(N)ccc2N)cc1

>  <Energy>  (5) 
32.90173882398927

>  <Genealogy>  (5) 
Nc1ccc(S(=O)(=O)c2cc(N)ccc2N)cc1 (3D coordinates assigned)
Nc1ccc(S(=O)(=O)c2cc(N)ccc2N)cc1 (optimized conformer: 32.90173882398927 kcal/mol)

>  <smiles>  (5) 
Nc1ccc(S(=O)(=O)c2cc(N)ccc2N)cc1

>  <score_type>  (5) 
oracle

>  <origin>  (5) 
adgpu

>  <m_score__min__energy>  (5) 
-7.1799999999999997

>  <m_primary>  (5) 
energy

$$$$
5:0
     RDKit          3D

 55 58  0  0  0  0  0  0  0  0999 V2000
   -1.2380   19.6320  -33.4050 O   0  0  0  0  0  0  0  0  0  0  0  0
   -2.2020   20.4360  -33.2810 C   0  0  0  0  0  0  0  0  0  0  0  0
   -2.0870   21.5800  -32.4320 N   0  0  0  0  0  0  0  0  0  0  0  0
   -1.9940   21.5350  -31.0010 C   0  0  0  0  0  0  0  0  0  0  0  0
   -1.4670   20.3900  -30.4020 C   0  0  0  0  0  0  0  0  0  0  0  0
   -1.3550   20.3060  -29.0170 C   0  0  0  0  0  0  0  0  0  0  0  0
   -1.7320   21.3810  -28.2070 C   0  0  0  0  0  0  0  0  0  0  0  0
   -1.6090   21.1500  -26.4650 Cl  0  0  0  0  0  0  0  0  0  0  0  0
   -2.2110   22.5770  -28.7960 C   0  0  0  0  0  0  0  0  0  0  0  0
   -2.6560   23.9990  -27.8250 S   0  0  0  0  0  0  0  0  0  0  0  0
   -2.5860   25.2630  -28.6350 O   0  0  0  0  0  0  0  0  0  0  0  0
   -4.0730   23.8440  -27.3480 O   0  0  0  0  0  0  0  0  0  0  0  0
   -1.5660   24.1200  -26.4040 C   0  0  0  0  0  0  0  0  0  0  0  0
   -0.0860   24.0400  -26.8320 C   0  0  0  0  0  0  0  0  0  0  0  0
    0.8660   24.5770  -25.7450 C   0  0  0  0  0  0  0  0  0  0  0  0
    0.2170   24.5770  -24.4290 N   0  0  0  0  0  0  0  0  0  0  0  0
   -0.9010   25.5360  -24.3920 C   0  0  0  0  0  0  0  0  0  0  0  0
   -1.8280   25.4170  -25.6240 C   0  0  0  0  0  0  0  0  0  0  0  0
   -2.3520   22.6370  -30.2000 C   0  0  0  0  0  0  0  0  0  0  0  0
   -2.8280   23.7980  -30.8000 O   0  0  0  0  0  0  0  0  0  0  0  0
   -3.4170   20.2220  -34.0040 N   0  0  0  0  0  0  0  0  0  0  0  0
   -4.6940   20.1660  -33.3640 C   0  0  0  0  0  0  0  0  0  0  0  0
   -5.4120   18.9700  -33.3960 C   0  0  0  0  0  0  0  0  0  0  0  0
   -6.6780   18.8960  -32.8200 C   0  0  0  0  0  0  0  0  0  0  0  0
   -7.2290   20.0040  -32.1720 C   0  0  0  0  0  0  0  0  0  0  0  0
   -8.8560   19.8340  -31.5200 Cl  0  0  0  0  0  0  0  0  0  0  0  0
   -6.4930   21.2080  -32.0780 C   0  0  0  0  0  0  0  0  0  0  0  0
   -7.1590   22.6190  -31.2260 S   0  0  0  0  0  0  0  0  0  0  0  0
   -7.8850   23.5140  -32.1910 O   0  0  0  0  0  0  0  0  0  0  0  0
   -8.1480   22.1820  -30.1790 O   0  0  0  0  0  0  0  0  0  0  0  0
   -5.8020   23.5280  -30.4900 C   0  0  0  0  0  0  0  0  0  0  0  0
   -6.2140   24.7720  -29.7200 C   0  0  0  0  0  0  0  0  0  0  0  0
   -5.5530   24.9050  -31.0840 C   0  0  0  0  0  0  0  0  0  0  0  0
   -5.2270   21.2920  -32.7020 C   0  0  0  0  0  0  0  0  0  0  0  0
   -4.5070   22.4870  -32.6520 O   0  0  0  0  0  0  0  0  0  0  0  0
   -1.1378   19.5480  -31.0286 H   0  0  0  0  0  0  0  0  0  0  0  0
   -0.9665   19.3859  -28.5561 H   0  0  0  0  0  0  0  0  0  0  0  0
   -1.7796   23.2667  -25.7435 H   0  0  0  0  0  0  0  0  0  0  0  0
    0.1670   22.9892  -27.0364 H   0  0  0  0  0  0  0  0  0  0  0  0
    0.0398   24.6647  -27.7287 H   0  0  0  0  0  0  0  0  0  0  0  0
    1.7613   23.9392  -25.7043 H   0  0  0  0  0  0  0  0  0  0  0  0
    1.1401   25.6114  -25.9999 H   0  0  0  0  0  0  0  0  0  0  0  0
    0.9230   24.8780  -23.7170 H   0  0  0  0  0  0  0  0  0  0  0  0
   -1.4949   25.3498  -23.4850 H   0  0  0  0  0  0  0  0  0  0  0  0
   -0.4714   26.5486  -24.3951 H   0  0  0  0  0  0  0  0  0  0  0  0
   -2.8746   25.4251  -25.2856 H   0  0  0  0  0  0  0  0  0  0  0  0
   -1.6250   26.2675  -26.2914 H   0  0  0  0  0  0  0  0  0  0  0  0
   -4.9766   18.0822  -33.8779 H   0  0  0  0  0  0  0  0  0  0  0  0
   -7.2486   17.9573  -32.8759 H   0  0  0  0  0  0  0  0  0  0  0  0
   -5.1769   22.6484  -30.2768 H   0  0  0  0  0  0  0  0  0  0  0  0
   -7.2797   25.0162  -29.5990 H   0  0  0  0  0  0  0  0  0  0  0  0
   -6.0092   25.1679  -28.7143 H   0  0  0  0  0  0  0  0  0  0  0  0
   -6.1407   25.2453  -31.9493 H   0  0  0  0  0  0  0  0  0  0  0  0
   -4.6723   25.4368  -31.4733 H   0  0  0  0  0  0  0  0  0  0  0  0
   -3.5240   22.5270  -32.4110 H   0  0  0  0  0  0  0  0  0  0  0  0
  1  2  2  0
  2  3  1  0
  3  4  1  0
  4  5  2  0
  5  6  1  0
  6  7  2  0
  7  8  1  0
  7  9  1  0
  9 10  1  0
 10 11  2  0
 10 12  2  0
 10 13  1  0
 13 14  1  0
 14 15  1  0
 15 16  1  0
 16 17  1  0
 17 18  1  0
  9 19  2  0
 19 20  1  0
  2 21  1  0
 21 22  1  0
 22 23  2  0
 23 24  1  0
 24 25  2  0
 25 26  1  0
 25 27  1  0
 27 28  1  0
 28 29  2  0
 28 30  2  0
 28 31  1  0
 31 32  1  0
 32 33  1  0
 27 34  2  0
 34 35  1  0
 19  4  1  0
 34 22  1  0
 18 13  1  0
 33 31  1  0
  5 36  1  0
  6 37  1  0
 13 38  1  0
 14 39  1  0
 14 40  1  0
 15 41  1  0
 15 42  1  0
 16 43  1  0
 17 44  1  0
 17 45  1  0
 18 46  1  0
 18 47  1  0
 23 48  1  0
 24 49  1  0
 31 50  1  0
 32 51  1  0
 32 52  1  0
 33 53  1  0
 33 54  1  0
 35 55  1  0
M  CHG  3   3  -1  20  -1  21  -1
M  END
>  <UniqueID>  (6) 
6

>  <SMILES>  (6) 
O=C([N-]c1ccc(Cl)c(S(=O)(=O)C2CCNCC2)c1[O-])[N-]c1ccc(Cl)c(S(=O)(=O)C2CC2)c1O

>  <Energy>  (6) 
341.5596390533525

>  <Genealogy>  (6) 
O=C([N-]c1ccc(Cl)c(S(=O)(=O)C2CCNCC2)c1[O-])[N-]c1ccc(Cl)c(S(=O)(=O)C2CC2)c1O (protonated)
O=C([N-]c1ccc(Cl)c(S(=O)(=O)C2CCNCC2)c1[O-])[N-]c1ccc(Cl)c(S(=O)(=O)C2CC2)c1O (3D coordinates assigned)
O=C([N-]c1ccc(Cl)c(S(=O)(=O)C2CCNCC2)c1[O-])[N-]c1ccc(Cl)c(S(=O)(=O)C2CC2)c1O (nonaromatic ring conformer: 341.5596390533525 kcal/mol)

>  <smiles>  (6) 
O=C(Nc1ccc(Cl)c(S(=O)(=O)C2CCNCC2)c1O)Nc1ccc(Cl)c(S(=O)(=O)C2CC2)c1O

>  <score_type>  (6) 
oracle

>  <origin>  (6) 
adgpu

>  <m_score__min__energy>  (6) 
-17.600000000000001

>  <m_primary>  (6) 
energy

$$$$
6:0
     RDKit          3D

 48 50  0  0  0  0  0  0  0  0999 V2000
   -2.7690   20.3230  -27.6280 C   0  0  0  0  0  0  0  0  0  0  0  0
   -2.6400   21.3960  -28.5550 O   0  0  0  0  0  0  0  0  0  0  0  0
   -1.7660   22.4900  -28.4210 C   0  0  0  0  0  0  0  0  0  0  0  0
   -0.5570   22.2500  -27.7580 C   0  0  0  0  0  0  0  0  0  0  0  0
    0.4160   23.2470  -27.6520 C   0  0  0  0  0  0  0  0  0  0  0  0
    1.6150   22.9700  -26.9970 O   0  0  0  0  0  0  0  0  0  0  0  0
    0.1810   24.5060  -28.2080 C   0  0  0  0  0  0  0  0  0  0  0  0
   -1.0340   24.7830  -28.8380 C   0  0  0  0  0  0  0  0  0  0  0  0
   -1.2560   26.0600  -29.3430 O   0  0  0  0  0  0  0  0  0  0  0  0
   -2.0280   23.7880  -28.9360 C   0  0  0  0  0  0  0  0  0  0  0  0
   -3.3420   24.1640  -29.4770 C   0  0  0  0  0  0  0  0  0  0  0  0
   -4.1510   24.8030  -28.7530 O   0  0  0  0  0  0  0  0  0  0  0  0
   -3.6510   23.8660  -30.8460 N   0  0  0  0  0  0  0  0  0  0  0  0
   -4.4840   22.8080  -31.3400 C   0  0  0  0  0  0  0  0  0  0  0  0
   -4.0640   21.4860  -31.1490 C   0  0  0  0  0  0  0  0  0  0  0  0
   -4.8590   20.4180  -31.5730 C   0  0  0  0  0  0  0  0  0  0  0  0
   -6.0920   20.6600  -32.1910 C   0  0  0  0  0  0  0  0  0  0  0  0
   -7.1070   19.3160  -32.7130 S   0  0  0  0  0  0  0  0  0  0  0  0
   -8.4520   19.8600  -33.1060 O   0  0  0  0  0  0  0  0  0  0  0  0
   -7.3050   18.3640  -31.5650 O   0  0  0  0  0  0  0  0  0  0  0  0
   -6.3980   18.4890  -34.0860 N   0  0  0  0  0  0  0  0  0  0  0  0
   -6.8240   17.0690  -34.1610 C   0  0  0  0  0  0  0  0  0  0  0  0
   -5.6780   16.0560  -33.9710 C   0  0  0  0  0  0  0  0  0  0  0  0
   -4.7450   16.4980  -32.8470 C   0  0  0  0  0  0  0  0  0  0  0  0
   -4.1550   17.8940  -33.1110 C   0  0  0  0  0  0  0  0  0  0  0  0
   -4.9380   18.6920  -34.1730 C   0  0  0  0  0  0  0  0  0  0  0  0
   -6.5220   21.9790  -32.3810 C   0  0  0  0  0  0  0  0  0  0  0  0
   -5.7320   23.0480  -31.9480 C   0  0  0  0  0  0  0  0  0  0  0  0
   -2.7216   20.7171  -26.6021 H   0  0  0  0  0  0  0  0  0  0  0  0
   -3.7342   19.8187  -27.7829 H   0  0  0  0  0  0  0  0  0  0  0  0
   -1.9508   19.6043  -27.7829 H   0  0  0  0  0  0  0  0  0  0  0  0
   -0.3700   21.2613  -27.3136 H   0  0  0  0  0  0  0  0  0  0  0  0
    2.4950   23.3640  -27.3130 H   0  0  0  0  0  0  0  0  0  0  0  0
    0.9569   25.2836  -28.1495 H   0  0  0  0  0  0  0  0  0  0  0  0
   -3.0989   21.2863  -30.6605 H   0  0  0  0  0  0  0  0  0  0  0  0
   -4.5153   19.3842  -31.4209 H   0  0  0  0  0  0  0  0  0  0  0  0
   -7.5748   16.8920  -33.3768 H   0  0  0  0  0  0  0  0  0  0  0  0
   -7.2217   16.9108  -35.1743 H   0  0  0  0  0  0  0  0  0  0  0  0
   -6.1034   15.0729  -33.7210 H   0  0  0  0  0  0  0  0  0  0  0  0
   -5.1009   15.9969  -34.9056 H   0  0  0  0  0  0  0  0  0  0  0  0
   -5.3104   16.5228  -31.9038 H   0  0  0  0  0  0  0  0  0  0  0  0
   -3.9135   15.7801  -32.7903 H   0  0  0  0  0  0  0  0  0  0  0  0
   -4.1649   18.4619  -32.1690 H   0  0  0  0  0  0  0  0  0  0  0  0
   -3.1344   17.7508  -33.4956 H   0  0  0  0  0  0  0  0  0  0  0  0
   -4.7240   19.7622  -34.0357 H   0  0  0  0  0  0  0  0  0  0  0  0
   -4.6138   18.3321  -35.1606 H   0  0  0  0  0  0  0  0  0  0  0  0
   -7.4860   22.1749  -32.8733 H   0  0  0  0  0  0  0  0  0  0  0  0
   -6.0862   24.0807  -32.0826 H   0  0  0  0  0  0  0  0  0  0  0  0
  1  2  1  0
  2  3  1  0
  3  4  2  0
  4  5  1  0
  5  6  1  0
  5  7  2  0
  7  8  1  0
  8  9  1  0
  8 10  2  0
 10 11  1  0
 11 12  2  0
 11 13  1  0
 13 14  1  0
 14 15  2  0
 15 16  1  0
 16 17  2  0
 17 18  1  0
 18 19  2  0
 18 20  2  0
 18 21  1  0
 21 22  1  0
 22 23  1  0
 23 24  1  0
 24 25  1  0
 25 26  1  0
 17 27  1  0
 27 28  2  0
 10  3  1  0
 28 14  1  0
 26 21  1  0
  1 29  1  0
  1 30  1  0
  1 31  1  0
  4 32  1  0
  6 33  1  0
  7 34  1  0
 15 35  1  0
 16 36  1  0
 22 37  1  0
 22 38  1  0
 23 39  1  0
 23 40  1  0
 24 41  1  0
 24 42  1  0
 25 43  1  0
 25 44  1  0
 26 45  1  0
 26 46  1  0
 27 47  1  0
 28 48  1  0
M  CHG  2   9  -1  13  -1
M  END
>  <UniqueID>  (7) 
7

>  <SMILES>  (7) 
COc1cc(O)cc([O-])c1C(=O)[N-]c1ccc(S(=O)(=O)N2CCCCC2)cc1

>  <Energy>  (7) 
71.50609161573547

>  <Genealogy>  (7) 
COc1cc(O)cc([O-])c1C(=O)[N-]c1ccc(S(=O)(=O)N2CCCCC2)cc1 (protonated)
COc1cc(O)cc([O-])c1C(=O)[N-]c1ccc(S(=O)(=O)N2CCCCC2)cc1 (3D coordinates assigned)
COc1cc(O)cc([O-])c1C(=O)[N-]c1ccc(S(=O)(=O)N2CCCCC2)cc1 (nonaromatic ring conformer: 71.50609161573547 kcal/mol)

>  <smiles>  (7) 
COc1cc(O)cc(O)c1C(=O)Nc1ccc(S(=O)(=O)N2CCCCC2)cc1

>  <score_type>  (7) 
oracle

>  <origin>  (7) 
adgpu

>  <m_score__min__energy>  (7) 
-12.57

>  <m_primary>  (7) 
energy

$$$$
7:0
     RDKit          3D

 36 37  0  0  0  0  0  0  0  0999 V2000
   -9.1060   23.3820  -32.3370 C   0  0  0  0  0  0  0  0  0  0  0  0
   -9.4840   22.3340  -31.6220 C   0  0  0  0  0  0  0  0  0  0  0  0
   -8.5750   21.3710  -30.9800 C   0  0  0  0  0  0  0  0  0  0  0  0
   -7.3720   21.0370  -31.7700 C   0  0  0  0  0  0  0  0  0  0  0  0
   -6.2210   21.7480  -31.5160 C   0  0  0  0  0  0  0  0  0  0  0  0
   -5.0290   21.5240  -32.2000 C   0  0  0  0  0  0  0  0  0  0  0  0
   -3.8810   22.3610  -31.8370 C   0  0  0  0  0  0  0  0  0  0  0  0
   -4.0000   23.0470  -30.5500 C   0  0  0  0  0  0  0  0  0  0  0  0
   -3.5400   22.4280  -29.3820 C   0  0  0  0  0  0  0  0  0  0  0  0
   -3.6300   23.0270  -28.1810 N   0  0  0  0  0  0  0  0  0  0  0  0
   -4.1730   24.2550  -28.0710 C   0  0  0  0  0  0  0  0  0  0  0  0
   -4.2230   24.7640  -26.8890 N   0  0  0  0  0  0  0  0  0  0  0  0
   -4.6350   24.9030  -29.1620 N   0  0  0  0  0  0  0  0  0  0  0  0
   -4.5500   24.3080  -30.3820 C   0  0  0  0  0  0  0  0  0  0  0  0
   -4.9910   24.9310  -31.4200 N   0  0  0  0  0  0  0  0  0  0  0  0
   -5.0180   20.5450  -33.1700 C   0  0  0  0  0  0  0  0  0  0  0  0
   -6.1830   19.8350  -33.4200 C   0  0  0  0  0  0  0  0  0  0  0  0
   -6.2180   18.8260  -34.4030 O   0  0  0  0  0  0  0  0  0  0  0  0
   -7.3600   20.0540  -32.7460 C   0  0  0  0  0  0  0  0  0  0  0  0
   -8.5320   19.3290  -33.0080 O   0  0  0  0  0  0  0  0  0  0  0  0
   -9.8619   24.0476  -32.7792 H   0  0  0  0  0  0  0  0  0  0  0  0
   -8.0360   23.5872  -32.4889 H   0  0  0  0  0  0  0  0  0  0  0  0
  -10.5645   22.1697  -31.4977 H   0  0  0  0  0  0  0  0  0  0  0  0
   -8.2473   21.7965  -30.0200 H   0  0  0  0  0  0  0  0  0  0  0  0
   -9.1425   20.4354  -30.8673 H   0  0  0  0  0  0  0  0  0  0  0  0
   -6.2439   22.5266  -30.7393 H   0  0  0  0  0  0  0  0  0  0  0  0
   -2.9884   21.7192  -31.8007 H   0  0  0  0  0  0  0  0  0  0  0  0
   -3.8204   23.1493  -32.6018 H   0  0  0  0  0  0  0  0  0  0  0  0
   -3.0930   21.4251  -29.4480 H   0  0  0  0  0  0  0  0  0  0  0  0
   -3.2580   22.4830  -27.3660 H   0  0  0  0  0  0  0  0  0  0  0  0
   -4.6190   25.7050  -26.6770 H   0  0  0  0  0  0  0  0  0  0  0  0
   -5.0590   25.8710  -29.0550 H   0  0  0  0  0  0  0  0  0  0  0  0
   -5.4180   25.8840  -31.3790 H   0  0  0  0  0  0  0  0  0  0  0  0
   -4.1001   20.3302  -33.7368 H   0  0  0  0  0  0  0  0  0  0  0  0
   -7.1190   18.5490  -34.8090 H   0  0  0  0  0  0  0  0  0  0  0  0
   -8.5900   18.7590  -33.8430 H   0  0  0  0  0  0  0  0  0  0  0  0
  1  2  2  0
  2  3  1  0
  3  4  1  0
  4  5  2  0
  5  6  1  0
  6  7  1  0
  7  8  1  0
  8  9  2  0
  9 10  1  0
 10 11  1  0
 11 12  2  3
 11 13  1  0
 13 14  1  0
 14 15  2  3
  6 16  2  0
 16 17  1  0
 17 18  1  0
 17 19  2  0
 19 20  1  0
 19  4  1  0
 14  8  1  0
  1 21  1  0
  1 22  1  0
  2 23  1  0
  3 24  1  0
  3 25  1  0
  5 26  1  0
  7 27  1  0
  7 28  1  0
  9 29  1  0
 10 30  1  0
 12 31  1  0
 13 32  1  0
 15 33  1  0
 16 34  1  0
 18 35  1  0
 20 36  1  0
M  END
>  <smiles>  (8) 
C=CCc1cc(Cc2c[nH]c(=N)[nH]c2=N)cc(O)c1O

>  <score_type>  (8) 
oracle

>  <origin>  (8) 
adgpu

>  <m_score__min__energy>  (8) 
-8.1500000000000004

>  <m_primary>  (8) 
energy

$$$$
8:0
     RDKit          3D

 55 58  0  0  0  0  0  0  0  0999 V2000
   -4.9590   23.5240  -31.9420 O   0  0  0  0  0  0  0  0  0  0  0  0
   -4.4560   22.5340  -31.3460 C   0  0  0  0  0  0  0  0  0  0  0  0
   -4.4420   22.5280  -29.9120 N   0  0  0  0  0  0  0  0  0  0  0  0
   -3.4680   23.1650  -29.0730 C   0  0  0  0  0  0  0  0  0  0  0  0
   -3.0240   22.4770  -27.9370 C   0  0  0  0  0  0  0  0  0  0  0  0
   -2.0200   23.0130  -27.1280 C   0  0  0  0  0  0  0  0  0  0  0  0
   -1.4630   24.2560  -27.4390 C   0  0  0  0  0  0  0  0  0  0  0  0
   -1.9380   24.9780  -28.5360 C   0  0  0  0  0  0  0  0  0  0  0  0
   -2.9650   24.4620  -29.3340 C   0  0  0  0  0  0  0  0  0  0  0  0
   -3.4920   25.2760  -30.3380 O   0  0  0  0  0  0  0  0  0  0  0  0
   -3.8970   21.4210  -32.1460 C   0  0  0  0  0  0  0  0  0  0  0  0
   -2.6440   21.6040  -32.7540 C   0  0  0  0  0  0  0  0  0  0  0  0
   -2.0500   20.5770  -33.4950 C   0  0  0  0  0  0  0  0  0  0  0  0
   -0.4840   20.8290  -34.2660 S   0  0  0  0  0  0  0  0  0  0  0  0
   -0.4100   20.0040  -35.5200 O   0  0  0  0  0  0  0  0  0  0  0  0
   -0.3690   22.2760  -34.6630 O   0  0  0  0  0  0  0  0  0  0  0  0
    0.8550   20.4140  -33.2160 N   0  0  0  0  0  0  0  0  0  0  0  0
    0.4950   20.4590  -31.7830 C   0  0  0  0  0  0  0  0  0  0  0  0
    0.2480   19.0650  -31.1820 C   0  0  0  0  0  0  0  0  0  0  0  0
   -0.2300   18.1810  -32.1680 O   0  0  0  0  0  0  0  0  0  0  0  0
    0.8010   17.8950  -33.0920 C   0  0  0  0  0  0  0  0  0  0  0  0
    1.5210   19.1600  -33.6160 C   0  0  0  0  0  0  0  0  0  0  0  0
   -2.7100   19.3540  -33.6300 C   0  0  0  0  0  0  0  0  0  0  0  0
   -3.9680   19.1660  -33.0560 C   0  0  0  0  0  0  0  0  0  0  0  0
   -4.5830   20.1940  -32.3200 C   0  0  0  0  0  0  0  0  0  0  0  0
   -5.9330   20.0130  -31.8410 N   0  0  0  0  0  0  0  0  0  0  0  0
   -6.3560   18.7570  -31.2150 C   0  0  0  0  0  0  0  0  0  0  0  0
   -7.3820   18.0730  -32.1250 C   0  0  0  0  0  0  0  0  0  0  0  0
   -8.4610   18.9480  -32.4050 O   0  0  0  0  0  0  0  0  0  0  0  0
   -7.9990   20.0730  -33.1340 C   0  0  0  0  0  0  0  0  0  0  0  0
   -7.0070   20.8950  -32.3040 C   0  0  0  0  0  0  0  0  0  0  0  0
   -3.4704   21.5052  -27.6795 H   0  0  0  0  0  0  0  0  0  0  0  0
   -1.6679   22.4571  -26.2466 H   0  0  0  0  0  0  0  0  0  0  0  0
   -0.6510   24.6656  -26.8203 H   0  0  0  0  0  0  0  0  0  0  0  0
   -1.5017   25.9592  -28.7744 H   0  0  0  0  0  0  0  0  0  0  0  0
   -3.7490   24.9220  -31.2500 H   0  0  0  0  0  0  0  0  0  0  0  0
   -2.1234   22.5670  -32.6461 H   0  0  0  0  0  0  0  0  0  0  0  0
    1.3161   20.9388  -31.2301 H   0  0  0  0  0  0  0  0  0  0  0  0
   -0.4438   21.0258  -31.6970 H   0  0  0  0  0  0  0  0  0  0  0  0
    1.1915   18.6749  -30.7726 H   0  0  0  0  0  0  0  0  0  0  0  0
   -0.5049   19.1495  -30.3845 H   0  0  0  0  0  0  0  0  0  0  0  0
    1.5430   17.2500  -32.5987 H   0  0  0  0  0  0  0  0  0  0  0  0
    0.3349   17.4029  -33.9583 H   0  0  0  0  0  0  0  0  0  0  0  0
    2.5474   19.1674  -33.2205 H   0  0  0  0  0  0  0  0  0  0  0  0
    1.5026   19.1156  -34.7150 H   0  0  0  0  0  0  0  0  0  0  0  0
   -2.2363   18.5351  -34.1913 H   0  0  0  0  0  0  0  0  0  0  0  0
   -4.4842   18.2027  -33.1808 H   0  0  0  0  0  0  0  0  0  0  0  0
   -5.4847   18.0992  -31.0803 H   0  0  0  0  0  0  0  0  0  0  0  0
   -6.8058   18.9620  -30.2323 H   0  0  0  0  0  0  0  0  0  0  0  0
   -6.8944   17.7866  -33.0685 H   0  0  0  0  0  0  0  0  0  0  0  0
   -7.7720   17.1812  -31.6127 H   0  0  0  0  0  0  0  0  0  0  0  0
   -7.5006   19.7272  -34.0516 H   0  0  0  0  0  0  0  0  0  0  0  0
   -8.8616   20.7094  -33.3807 H   0  0  0  0  0  0  0  0  0  0  0  0
   -6.5835   21.6989  -32.9240 H   0  0  0  0  0  0  0  0  0  0  0  0
   -7.5222   21.3410  -31.4405 H   0  0  0  0  0  0  0  0  0  0  0  0
  1  2  2  0
  2  3  1  0
  3  4  1  0
  4  5  2  0
  5  6  1  0
  6  7  2  0
  7  8  1  0
  8  9  2  0
  9 10  1  0
  2 11  1  0
 11 12  2  0
 12 13  1  0
 13 14  1  0
 14 15  2  0
 14 16  2  0
 14 17  1  0
 17 18  1  0
 18 19  1  0
 19 20  1  0
 20 21  1  0
 21 22  1  0
 13 23  2  0
 23 24  1  0
 24 25  2  0
 25 26  1  0
 26 27  1  0
 27 28  1  0
 28 29  1  0
 29 30  1  0
 30 31  1  0
  9  4  1  0
 25 11  1  0
 31 26  1  0
 22 17  1  0
  5 32  1  0
  6 33  1  0
  7 34  1  0
  8 35  1  0
 10 36  1  0
 12 37  1  0
 18 38  1  0
 18 39  1  0
 19 40  1  0
 19 41  1  0
 21 42  1  0
 21 43  1  0
 22 44  1  0
 22 45  1  0
 23 46  1  0
 24 47  1  0
 27 48  1  0
 27 49  1  0
 28 50  1  0
 28 51  1  0
 30 52  1  0
 30 53  1  0
 31 54  1  0
 31 55  1  0
M  CHG  1   3  -1
M  END
>  <UniqueID>  (9) 
8

>  <SMILES>  (9) 
O=C([N-]c1ccccc1O)c1cc(S(=O)(=O)N2CCOCC2)ccc1N1CCOCC1

>  <Energy>  (9) 
84.89653007771199

>  <Genealogy>  (9) 
O=C([N-]c1ccccc1O)c1cc(S(=O)(=O)N2CCOCC2)ccc1N1CCOCC1 (protonated)
O=C([N-]c1ccccc1O)c1cc(S(=O)(=O)N2CCOCC2)ccc1N1CCOCC1 (3D coordinates assigned)
O=C([N-]c1ccccc1O)c1cc(S(=O)(=O)N2CCOCC2)ccc1N1CCOCC1 (nonaromatic ring conformer: 84.89653007771199 kcal/mol)

>  <smiles>  (9) 
O=C(Nc1ccccc1O)c1cc(S(=O)(=O)N2CCOCC2)ccc1N1CCOCC1

>  <score_type>  (9) 
oracle

>  <origin>  (9) 
adgpu

>  <m_score__min__energy>  (9) 
-10.449999999999999

>  <m_primary>  (9) 
energy

$$$$
9:0
     RDKit          3D

 68 72  0  0  0  0  0  0  0  0999 V2000
   -2.3810   21.2160  -29.1180 C   0  0  0  0  0  0  0  0  0  0  0  0
   -2.3040   21.1950  -27.6560 N   0  0  0  0  0  0  0  0  0  0  0  0
   -2.7370   19.9930  -26.9390 C   0  0  0  0  0  0  0  0  0  0  0  0
   -1.4760   22.1650  -26.9890 C   0  0  0  0  0  0  0  0  0  0  0  0
   -0.2800   21.7460  -26.3850 C   0  0  0  0  0  0  0  0  0  0  0  0
    0.5980   22.6740  -25.8240 C   0  0  0  0  0  0  0  0  0  0  0  0
    0.3050   24.0410  -25.8700 C   0  0  0  0  0  0  0  0  0  0  0  0
    1.4390   25.2180  -25.2080 S   0  0  0  0  0  0  0  0  0  0  0  0
    2.6970   24.5100  -24.7840 O   0  0  0  0  0  0  0  0  0  0  0  0
    1.8040   26.2120  -26.2760 O   0  0  0  0  0  0  0  0  0  0  0  0
    0.7640   26.0660  -23.8320 N   0  0  0  0  0  0  0  0  0  0  0  0
   -0.6150   26.5010  -24.0950 C   0  0  0  0  0  0  0  0  0  0  0  0
   -0.5700   27.9800  -24.4280 C   0  0  0  0  0  0  0  0  0  0  0  0
    0.6490   28.4920  -23.6960 C   0  0  0  0  0  0  0  0  0  0  0  0
    1.5440   27.2730  -23.4970 C   0  0  0  0  0  0  0  0  0  0  0  0
   -0.8940   24.4680  -26.4550 C   0  0  0  0  0  0  0  0  0  0  0  0
   -1.8010   23.5440  -26.9900 C   0  0  0  0  0  0  0  0  0  0  0  0
   -3.0370   24.0440  -27.5210 N   0  0  0  0  0  0  0  0  0  0  0  0
   -3.2450   24.5570  -28.8450 C   0  0  0  0  0  0  0  0  0  0  0  0
   -2.3610   25.2980  -29.3500 O   0  0  0  0  0  0  0  0  0  0  0  0
   -4.4680   24.2590  -29.6220 C   0  0  0  0  0  0  0  0  0  0  0  0
   -5.6540   25.0080  -29.4310 C   0  0  0  0  0  0  0  0  0  0  0  0
   -6.8210   24.6900  -30.1430 C   0  0  0  0  0  0  0  0  0  0  0  0
   -6.7820   23.6290  -31.0470 C   0  0  0  0  0  0  0  0  0  0  0  0
   -5.6370   22.9140  -31.2510 C   0  0  0  0  0  0  0  0  0  0  0  0
   -4.4560   23.2120  -30.5680 C   0  0  0  0  0  0  0  0  0  0  0  0
   -5.8470   21.8710  -32.1810 N   0  0  0  0  0  0  0  0  0  0  0  0
   -4.6820   20.6830  -32.6630 S   0  0  0  0  0  0  0  0  0  0  0  0
   -3.8970   21.2120  -33.8300 O   0  0  0  0  0  0  0  0  0  0  0  0
   -3.7380   20.4080  -31.5260 O   0  0  0  0  0  0  0  0  0  0  0  0
   -5.5130   19.1940  -33.0920 C   0  0  0  0  0  0  0  0  0  0  0  0
   -5.1650   18.5240  -34.2730 C   0  0  0  0  0  0  0  0  0  0  0  0
   -5.8220   17.3440  -34.6320 C   0  0  0  0  0  0  0  0  0  0  0  0
   -6.8280   16.8260  -33.8100 C   0  0  0  0  0  0  0  0  0  0  0  0
   -7.1770   17.4880  -32.6300 C   0  0  0  0  0  0  0  0  0  0  0  0
   -6.5230   18.6720  -32.2700 C   0  0  0  0  0  0  0  0  0  0  0  0
   -7.2360   21.9030  -32.6320 C   0  0  0  0  0  0  0  0  0  0  0  0
   -7.8950   23.0850  -31.8770 C   0  0  0  0  0  0  0  0  0  0  0  0
   -3.3993   21.4937  -29.4276 H   0  0  0  0  0  0  0  0  0  0  0  0
   -1.6644   21.9515  -29.5124 H   0  0  0  0  0  0  0  0  0  0  0  0
   -2.1371   20.2185  -29.5124 H   0  0  0  0  0  0  0  0  0  0  0  0
   -2.6734   20.1697  -25.8551 H   0  0  0  0  0  0  0  0  0  0  0  0
   -3.7764   19.7578  -27.2118 H   0  0  0  0  0  0  0  0  0  0  0  0
   -2.0864   19.1490  -27.2118 H   0  0  0  0  0  0  0  0  0  0  0  0
   -0.0324   20.6747  -26.3537 H   0  0  0  0  0  0  0  0  0  0  0  0
    1.5252   22.3289  -25.3432 H   0  0  0  0  0  0  0  0  0  0  0  0
    0.7700   25.4050  -23.0210 H   0  0  0  0  0  0  0  0  0  0  0  0
   -1.0315   25.9375  -24.9429 H   0  0  0  0  0  0  0  0  0  0  0  0
   -1.2526   26.3204  -23.2170 H   0  0  0  0  0  0  0  0  0  0  0  0
   -0.4655   28.1320  -25.5124 H   0  0  0  0  0  0  0  0  0  0  0  0
   -1.4896   28.5054  -24.1307 H   0  0  0  0  0  0  0  0  0  0  0  0
    1.1660   29.2551  -24.2963 H   0  0  0  0  0  0  0  0  0  0  0  0
    0.3829   28.9646  -22.7390 H   0  0  0  0  0  0  0  0  0  0  0  0
    2.4213   27.3440  -24.1568 H   0  0  0  0  0  0  0  0  0  0  0  0
    1.8902   27.2232  -22.4541 H   0  0  0  0  0  0  0  0  0  0  0  0
   -1.1263   25.5424  -26.4948 H   0  0  0  0  0  0  0  0  0  0  0  0
   -5.6610   25.8462  -28.7187 H   0  0  0  0  0  0  0  0  0  0  0  0
   -7.7462   25.2652  -29.9912 H   0  0  0  0  0  0  0  0  0  0  0  0
   -3.5355   22.6424  -30.7634 H   0  0  0  0  0  0  0  0  0  0  0  0
   -4.3721   18.9284  -34.9194 H   0  0  0  0  0  0  0  0  0  0  0  0
   -5.5479   16.8226  -35.5610 H   0  0  0  0  0  0  0  0  0  0  0  0
   -7.3448   15.8970  -34.0926 H   0  0  0  0  0  0  0  0  0  0  0  0
   -7.9667   17.0782  -31.9832 H   0  0  0  0  0  0  0  0  0  0  0  0
   -6.8011   19.1934  -31.3422 H   0  0  0  0  0  0  0  0  0  0  0  0
   -7.2827   22.0682  -33.7185 H   0  0  0  0  0  0  0  0  0  0  0  0
   -7.7512   20.9529  -32.4275 H   0  0  0  0  0  0  0  0  0  0  0  0
   -8.2675   23.8432  -32.5815 H   0  0  0  0  0  0  0  0  0  0  0  0
   -8.7667   22.7801  -31.2794 H   0  0  0  0  0  0  0  0  0  0  0  0
  1  2  1  0
  2  3  1  0
  2  4  1  0
  4  5  2  0
  5  6  1  0
  6  7  2  0
  7  8  1  0
  8  9  2  0
  8 10  2  0
  8 11  1  0
 11 12  1  0
 12 13  1  0
 13 14  1  0
 14 15  1  0
  7 16  1  0
 16 17  2  0
 17 18  1  0
 18 19  1  0
 19 20  2  0
 19 21  1  0
 21 22  2  0
 22 23  1  0
 23 24  2  0
 24 25  1  0
 25 26  2  0
 25 27  1  0
 27 28  1  0
 28 29  2  0
 28 30  2  0
 28 31  1  0
 31 32  2  0
 32 33  1  0
 33 34  2  0
 34 35  1  0
 35 36  2  0
 27 37  1  0
 37 38  1  0
 17  4  1  0
 26 21  1  0
 36 31  1  0
 15 11  1  0
 38 24  1  0
  1 39  1  0
  1 40  1  0
  1 41  1  0
  3 42  1  0
  3 43  1  0
  3 44  1  0
  5 45  1  0
  6 46  1  0
 11 47  1  0
 12 48  1  0
 12 49  1  0
 13 50  1  0
 13 51  1  0
 14 52  1  0
 14 53  1  0
 15 54  1  0
 15 55  1  0
 16 56  1  0
 22 57  1  0
 23 58  1  0
 26 59  1  0
 32 60  1  0
 33 61  1  0
 34 62  1  0
 35 63  1  0
 36 64  1  0
 37 65  1  0
 37 66  1  0
 38 67  1  0
 38 68  1  0
M  CHG  2  11   1  18  -1
M  END
>  <UniqueID>  (10) 
9

>  <SMILES>  (10) 
CN(C)c1ccc(S(=O)(=O)[NH+]2CCCC2)cc1[N-]C(=O)c1ccc2c(c1)N(S(=O)(=O)c1ccccc1)CC2

>  <Energy>  (10) 
97.46255641582026

>  <Genealogy>  (10) 
CN(C)c1ccc(S(=O)(=O)[NH+]2CCCC2)cc1[N-]C(=O)c1ccc2c(c1)N(S(=O)(=O)c1ccccc1)CC2 (protonated)
CN(C)c1ccc(S(=O)(=O)[NH+]2CCCC2)cc1[N-]C(=O)c1ccc2c(c1)N(S(=O)(=O)c1ccccc1)CC2 (3D coordinates assigned)
CN(C)c1ccc(S(=O)(=O)[NH+]2CCCC2)cc1[N-]C(=O)c1ccc2c(c1)N(S(=O)(=O)c1ccccc1)CC2 (nonaromatic ring conformer: 97.46255641582026 kcal/mol)

>  <smiles>  (10) 
CN(C)c1ccc(S(=O)(=O)N2CCCC2)cc1NC(=O)c1ccc2c(c1)N(S(=O)(=O)c1ccccc1)CC2

>  <score_type>  (10) 
oracle

>  <origin>  (10) 
adgpu

>  <m_score__min__energy>  (10) 
-12.1

>  <m_primary>  (10) 
energy

$$$$
10:0
     RDKit          3D

 56 59  0  0  0  0  0  0  0  0999 V2000
   -4.2220   21.6290  -31.1540 O   0  0  0  0  0  0  0  0  0  0  0  0
   -4.3770   22.5360  -30.2920 C   0  0  0  0  0  0  0  0  0  0  0  0
   -5.6860   23.0740  -30.0310 N   0  0  0  0  0  0  0  0  0  0  0  0
   -6.8650   22.7100  -30.7690 C   0  0  0  0  0  0  0  0  0  0  0  0
   -7.7200   23.7180  -31.2380 C   0  0  0  0  0  0  0  0  0  0  0  0
   -8.8620   23.3900  -31.9730 C   0  0  0  0  0  0  0  0  0  0  0  0
   -9.1540   22.0550  -32.2570 C   0  0  0  0  0  0  0  0  0  0  0  0
   -8.3000   21.0350  -31.8110 C   0  0  0  0  0  0  0  0  0  0  0  0
   -8.6530   19.3460  -32.1920 S   0  0  0  0  0  0  0  0  0  0  0  0
   -8.9730   18.6130  -30.9200 O   0  0  0  0  0  0  0  0  0  0  0  0
   -9.8650   19.2880  -33.0780 O   0  0  0  0  0  0  0  0  0  0  0  0
   -7.3250   18.5410  -32.9930 N   0  0  0  0  0  0  0  0  0  0  0  0
   -6.4900   19.4760  -33.7430 C   0  0  0  0  0  0  0  0  0  0  0  0
   -5.1180   18.8300  -33.8520 C   0  0  0  0  0  0  0  0  0  0  0  0
   -5.0680   17.8040  -32.7290 C   0  0  0  0  0  0  0  0  0  0  0  0
   -6.4250   17.8860  -32.0460 C   0  0  0  0  0  0  0  0  0  0  0  0
   -7.1480   21.3690  -31.0830 C   0  0  0  0  0  0  0  0  0  0  0  0
   -3.1940   23.0390  -29.5640 C   0  0  0  0  0  0  0  0  0  0  0  0
   -2.4840   22.1650  -28.7250 C   0  0  0  0  0  0  0  0  0  0  0  0
   -1.3530   22.6060  -28.0260 C   0  0  0  0  0  0  0  0  0  0  0  0
   -0.4500   21.4820  -27.0140 S   0  0  0  0  0  0  0  0  0  0  0  0
   -1.2020   21.2660  -25.7300 O   0  0  0  0  0  0  0  0  0  0  0  0
    0.8990   22.0620  -26.6870 O   0  0  0  0  0  0  0  0  0  0  0  0
   -0.2780   19.9620  -27.8530 N   0  0  0  0  0  0  0  0  0  0  0  0
    1.1290   19.5880  -27.9870 C   0  0  0  0  0  0  0  0  0  0  0  0
    1.1630   18.0720  -28.0890 C   0  0  0  0  0  0  0  0  0  0  0  0
   -0.1420   17.6000  -27.4650 C   0  0  0  0  0  0  0  0  0  0  0  0
   -0.9050   18.8690  -27.1100 C   0  0  0  0  0  0  0  0  0  0  0  0
   -0.9250   23.9320  -28.1680 C   0  0  0  0  0  0  0  0  0  0  0  0
   -1.6370   24.8150  -28.9830 C   0  0  0  0  0  0  0  0  0  0  0  0
   -2.7730   24.3800  -29.6730 C   0  0  0  0  0  0  0  0  0  0  0  0
   -3.4900   25.2950  -30.4370 O   0  0  0  0  0  0  0  0  0  0  0  0
   -5.8060   23.7380  -29.2330 H   0  0  0  0  0  0  0  0  0  0  0  0
   -7.4902   24.7726  -31.0260 H   0  0  0  0  0  0  0  0  0  0  0  0
   -9.5327   24.1859  -32.3288 H   0  0  0  0  0  0  0  0  0  0  0  0
  -10.0566   21.8017  -32.8324 H   0  0  0  0  0  0  0  0  0  0  0  0
   -6.9122   19.6447  -34.7446 H   0  0  0  0  0  0  0  0  0  0  0  0
   -6.4332   20.4529  -33.2406 H   0  0  0  0  0  0  0  0  0  0  0  0
   -5.0000   18.3383  -34.8289 H   0  0  0  0  0  0  0  0  0  0  0  0
   -4.3082   19.5697  -33.7686 H   0  0  0  0  0  0  0  0  0  0  0  0
   -4.9024   16.7956  -33.1361 H   0  0  0  0  0  0  0  0  0  0  0  0
   -4.2444   18.0047  -32.0280 H   0  0  0  0  0  0  0  0  0  0  0  0
   -6.7925   16.8770  -31.8077 H   0  0  0  0  0  0  0  0  0  0  0  0
   -6.3628   18.4470  -31.1018 H   0  0  0  0  0  0  0  0  0  0  0  0
   -6.4606   20.5752  -30.7552 H   0  0  0  0  0  0  0  0  0  0  0  0
   -2.8195   21.1231  -28.6155 H   0  0  0  0  0  0  0  0  0  0  0  0
    1.5579   20.0399  -28.8935 H   0  0  0  0  0  0  0  0  0  0  0  0
    1.7191   19.9430  -27.1292 H   0  0  0  0  0  0  0  0  0  0  0  0
    1.2231   17.7576  -29.1414 H   0  0  0  0  0  0  0  0  0  0  0  0
    2.0398   17.6456  -27.5797 H   0  0  0  0  0  0  0  0  0  0  0  0
   -0.7149   16.9950  -28.1832 H   0  0  0  0  0  0  0  0  0  0  0  0
    0.0328   16.9681  -26.5817 H   0  0  0  0  0  0  0  0  0  0  0  0
   -1.9610   18.7699  -27.4017 H   0  0  0  0  0  0  0  0  0  0  0  0
   -0.8724   19.0588  -26.0270 H   0  0  0  0  0  0  0  0  0  0  0  0
   -0.0264   24.2787  -27.6367 H   0  0  0  0  0  0  0  0  0  0  0  0
   -1.3024   25.8581  -29.0827 H   0  0  0  0  0  0  0  0  0  0  0  0
  1  2  2  0
  2  3  1  0
  3  4  1  0
  4  5  2  0
  5  6  1  0
  6  7  2  0
  7  8  1  0
  8  9  1  0
  9 10  2  0
  9 11  2  0
  9 12  1  0
 12 13  1  0
 13 14  1  0
 14 15  1  0
 15 16  1  0
  8 17  2  0
  2 18  1  0
 18 19  2  0
 19 20  1  0
 20 21  1  0
 21 22  2  0
 21 23  2  0
 21 24  1  0
 24 25  1  0
 25 26  1  0
 26 27  1  0
 27 28  1  0
 20 29  2  0
 29 30  1  0
 30 31  2  0
 31 32  1  0
 17  4  1  0
 31 18  1  0
 16 12  1  0
 28 24  1  0
  3 33  1  0
  5 34  1  0
  6 35  1  0
  7 36  1  0
 13 37  1  0
 13 38  1  0
 14 39  1  0
 14 40  1  0
 15 41  1  0
 15 42  1  0
 16 43  1  0
 16 44  1  0
 17 45  1  0
 19 46  1  0
 25 47  1  0
 25 48  1  0
 26 49  1  0
 26 50  1  0
 27 51  1  0
 27 52  1  0
 28 53  1  0
 28 54  1  0
 29 55  1  0
 30 56  1  0
M  CHG  1  32  -1
M  END
>  <UniqueID>  (11) 
10

>  <SMILES>  (11) 
O=C(Nc1cccc(S(=O)(=O)N2CCCC2)c1)c1cc(S(=O)(=O)N2CCCC2)ccc1[O-]

>  <Energy>  (11) 
68.10273889718279

>  <Genealogy>  (11) 
O=C(Nc1cccc(S(=O)(=O)N2CCCC2)c1)c1cc(S(=O)(=O)N2CCCC2)ccc1[O-] (protonated)
O=C(Nc1cccc(S(=O)(=O)N2CCCC2)c1)c1cc(S(=O)(=O)N2CCCC2)ccc1[O-] (3D coordinates assigned)
O=C(Nc1cccc(S(=O)(=O)N2CCCC2)c1)c1cc(S(=O)(=O)N2CCCC2)ccc1[O-] (nonaromatic ring conformer: 68.10273889718279 kcal/mol)

>  <smiles>  (11) 
O=C(Nc1cccc(S(=O)(=O)N2CCCC2)c1)c1cc(S(=O)(=O)N2CCCC2)ccc1O

>  <score_type>  (11) 
oracle

>  <origin>  (11) 
adgpu

>  <m_score__min__energy>  (11) 
-13.77

>  <m_primary>  (11) 
energy

$$$$
11:0
     RDKit          3D

 67 70  0  0  0  0  0  0  0  0999 V2000
   -2.9750   15.9290  -35.3100 C   0  0  0  0  0  0  0  0  0  0  0  0
   -2.3240   17.1750  -34.7890 C   0  0  0  0  0  0  0  0  0  0  0  0
   -0.9430   17.3730  -34.9400 C   0  0  0  0  0  0  0  0  0  0  0  0
   -0.3460   18.5530  -34.4870 C   0  0  0  0  0  0  0  0  0  0  0  0
   -1.1240   19.5520  -33.8880 C   0  0  0  0  0  0  0  0  0  0  0  0
   -0.3650   21.0480  -33.3490 S   0  0  0  0  0  0  0  0  0  0  0  0
    0.0180   21.8500  -34.5600 O   0  0  0  0  0  0  0  0  0  0  0  0
    0.8870   20.7390  -32.5770 O   0  0  0  0  0  0  0  0  0  0  0  0
   -1.4490   21.9920  -32.3720 N   0  0  0  0  0  0  0  0  0  0  0  0
   -1.2210   21.6260  -30.6890 S   0  0  0  0  0  0  0  0  0  0  0  0
   -0.6380   20.2470  -30.5760 O   0  0  0  0  0  0  0  0  0  0  0  0
   -0.2410   22.6000  -30.0970 O   0  0  0  0  0  0  0  0  0  0  0  0
   -2.7500   21.7240  -29.8410 N   0  0  0  0  0  0  0  0  0  0  0  0
   -3.2350   23.0910  -29.5720 C   0  0  0  0  0  0  0  0  0  0  0  0
   -4.0290   23.7680  -30.7170 C   0  0  0  0  0  0  0  0  0  0  0  0
   -5.3560   23.1680  -31.1590 C   0  0  0  0  0  0  0  0  0  0  0  0
   -6.4880   23.9990  -31.0750 C   0  0  0  0  0  0  0  0  0  0  0  0
   -7.7450   23.5440  -31.4650 C   0  0  0  0  0  0  0  0  0  0  0  0
   -7.8980   22.2480  -31.9450 C   0  0  0  0  0  0  0  0  0  0  0  0
   -6.7990   21.3870  -32.0200 C   0  0  0  0  0  0  0  0  0  0  0  0
   -7.0020   20.0710  -32.5540 N   0  0  0  0  0  0  0  0  0  0  0  0
   -8.0210   19.1920  -31.9720 C   0  0  0  0  0  0  0  0  0  0  0  0
   -7.4620   17.7730  -31.7450 C   0  0  0  0  0  0  0  0  0  0  0  0
   -6.3550   17.4190  -32.6720 N   0  0  0  0  0  0  0  0  0  0  0  0
   -6.0960   15.9640  -32.8260 C   0  0  0  0  0  0  0  0  0  0  0  0
   -6.3290   15.5100  -34.2730 C   0  0  0  0  0  0  0  0  0  0  0  0
   -4.7040   15.5200  -32.3310 C   0  0  0  0  0  0  0  0  0  0  0  0
   -6.4230   18.1370  -33.9600 C   0  0  0  0  0  0  0  0  0  0  0  0
   -6.2050   19.6290  -33.7020 C   0  0  0  0  0  0  0  0  0  0  0  0
   -5.5200   21.8270  -31.5940 C   0  0  0  0  0  0  0  0  0  0  0  0
   -4.3430   20.8890  -31.6240 C   0  0  0  0  0  0  0  0  0  0  0  0
   -3.7540   20.7070  -30.2190 C   0  0  0  0  0  0  0  0  0  0  0  0
   -2.5090   19.3650  -33.7520 C   0  0  0  0  0  0  0  0  0  0  0  0
   -3.1050   18.1840  -34.2050 C   0  0  0  0  0  0  0  0  0  0  0  0
   -3.3011   15.3048  -34.4650 H   0  0  0  0  0  0  0  0  0  0  0  0
   -3.8468   16.1999  -35.9236 H   0  0  0  0  0  0  0  0  0  0  0  0
   -2.2547   15.3681  -35.9236 H   0  0  0  0  0  0  0  0  0  0  0  0
   -0.3274   16.5961  -35.4170 H   0  0  0  0  0  0  0  0  0  0  0  0
    0.7385   18.6975  -34.6013 H   0  0  0  0  0  0  0  0  0  0  0  0
   -3.8890   23.0482  -28.6886 H   0  0  0  0  0  0  0  0  0  0  0  0
   -2.3321   23.7041  -29.4347 H   0  0  0  0  0  0  0  0  0  0  0  0
   -4.2340   24.8007  -30.3985 H   0  0  0  0  0  0  0  0  0  0  0  0
   -3.3796   23.6400  -31.5956 H   0  0  0  0  0  0  0  0  0  0  0  0
   -6.3784   25.0254  -30.6949 H   0  0  0  0  0  0  0  0  0  0  0  0
   -8.6174   24.2102  -31.3933 H   0  0  0  0  0  0  0  0  0  0  0  0
   -8.8897   21.8980  -32.2677 H   0  0  0  0  0  0  0  0  0  0  0  0
   -8.3473   19.6087  -31.0077 H   0  0  0  0  0  0  0  0  0  0  0  0
   -8.8685   19.1274  -32.6703 H   0  0  0  0  0  0  0  0  0  0  0  0
   -7.0871   17.7069  -30.7130 H   0  0  0  0  0  0  0  0  0  0  0  0
   -8.2832   17.0663  -31.9352 H   0  0  0  0  0  0  0  0  0  0  0  0
   -6.8243   15.4641  -32.1705 H   0  0  0  0  0  0  0  0  0  0  0  0
   -6.8313   14.5314  -34.2739 H   0  0  0  0  0  0  0  0  0  0  0  0
   -6.9605   16.2467  -34.7913 H   0  0  0  0  0  0  0  0  0  0  0  0
   -5.3623   15.4265  -34.7913 H   0  0  0  0  0  0  0  0  0  0  0  0
   -4.6902   15.5156  -31.2311 H   0  0  0  0  0  0  0  0  0  0  0  0
   -4.4876   14.5082  -32.7045 H   0  0  0  0  0  0  0  0  0  0  0  0
   -3.9417   16.2196  -32.7045 H   0  0  0  0  0  0  0  0  0  0  0  0
   -5.6410   17.7601  -34.6356 H   0  0  0  0  0  0  0  0  0  0  0  0
   -7.4062   17.9771  -34.4267 H   0  0  0  0  0  0  0  0  0  0  0  0
   -5.1398   19.8091  -33.4946 H   0  0  0  0  0  0  0  0  0  0  0  0
   -6.5177   20.1944  -34.5923 H   0  0  0  0  0  0  0  0  0  0  0  0
   -4.6710   19.9113  -32.0068 H   0  0  0  0  0  0  0  0  0  0  0  0
   -3.5686   21.3166  -32.2778 H   0  0  0  0  0  0  0  0  0  0  0  0
   -4.5784   20.7507  -29.4921 H   0  0  0  0  0  0  0  0  0  0  0  0
   -3.2339   19.7377  -30.2199 H   0  0  0  0  0  0  0  0  0  0  0  0
   -3.1261   20.1488  -33.2884 H   0  0  0  0  0  0  0  0  0  0  0  0
   -4.1914   18.0452  -34.1031 H   0  0  0  0  0  0  0  0  0  0  0  0
  1  2  1  0
  2  3  2  0
  3  4  1  0
  4  5  2  0
  5  6  1  0
  6  7  2  0
  6  8  2  0
  6  9  1  0
  9 10  1  0
 10 11  2  0
 10 12  2  0
 10 13  1  0
 13 14  1  0
 14 15  1  0
 15 16  1  0
 16 17  2  0
 17 18  1  0
 18 19  2  0
 19 20  1  0
 20 21  1  0
 21 22  1  0
 22 23  1  0
 23 24  1  0
 24 25  1  0
 25 26  1  0
 25 27  1  0
 24 28  1  0
 28 29  1  0
 20 30  2  0
 30 31  1  0
 31 32  1  0
  5 33  1  0
 33 34  2  0
 34  2  1  0
 32 13  1  0
 30 16  1  0
 29 21  1  0
  1 35  1  0
  1 36  1  0
  1 37  1  0
  3 38  1  0
  4 39  1  0
 14 40  1  0
 14 41  1  0
 15 42  1  0
 15 43  1  0
 17 44  1  0
 18 45  1  0
 19 46  1  0
 22 47  1  0
 22 48  1  0
 23 49  1  0
 23 50  1  0
 25 51  1  0
 26 52  1  0
 26 53  1  0
 26 54  1  0
 27 55  1  0
 27 56  1  0
 27 57  1  0
 28 58  1  0
 28 59  1  0
 29 60  1  0
 29 61  1  0
 31 62  1  0
 31 63  1  0
 32 64  1  0
 32 65  1  0
 33 66  1  0
 34 67  1  0
M  CHG  1   9  -1
M  END
>  <UniqueID>  (12) 
11

>  <SMILES>  (12) 
Cc1ccc(S(=O)(=O)[N-]S(=O)(=O)N2CCc3cccc(N4CCN(C(C)C)CC4)c3CC2)cc1

>  <Energy>  (12) 
95.99211203667035

>  <Genealogy>  (12) 
Cc1ccc(S(=O)(=O)[N-]S(=O)(=O)N2CCc3cccc(N4CCN(C(C)C)CC4)c3CC2)cc1 (protonated)
Cc1ccc(S(=O)(=O)[N-]S(=O)(=O)N2CCc3cccc(N4CCN(C(C)C)CC4)c3CC2)cc1 (3D coordinates assigned)
Cc1ccc(S(=O)(=O)[N-]S(=O)(=O)N2CCc3cccc(N4CCN(C(C)C)CC4)c3CC2)cc1 (nonaromatic ring conformer: 95.99211203667035 kcal/mol)

>  <smiles>  (12) 
Cc1ccc(S(=O)(=O)NS(=O)(=O)N2CCc3cccc(N4CCN(C(C)C)CC4)c3CC2)cc1

>  <score_type>  (12) 
oracle

>  <origin>  (12) 
adgpu

>  <m_score__min__energy>  (12) 
-10.48

>  <m_primary>  (12) 
energy

$$$$
12:0
     RDKit          3D

 44 46  0  0  0  0  0  0  0  0999 V2000
   -0.4140   18.9600  -29.2140 C   0  0  0  0  0  0  0  0  0  0  0  0
   -0.9300   20.3720  -29.1250 C   0  0  0  0  0  0  0  0  0  0  0  0
   -0.5000   21.3230  -30.0660 C   0  0  0  0  0  0  0  0  0  0  0  0
   -0.9700   22.6350  -30.0150 C   0  0  0  0  0  0  0  0  0  0  0  0
   -1.8800   23.0200  -29.0250 C   0  0  0  0  0  0  0  0  0  0  0  0
   -2.5380   24.6560  -29.0050 S   0  0  0  0  0  0  0  0  0  0  0  0
   -1.4300   25.6720  -28.9790 O   0  0  0  0  0  0  0  0  0  0  0  0
   -3.3840   24.8210  -27.7760 O   0  0  0  0  0  0  0  0  0  0  0  0
   -3.5150   24.9230  -30.4140 N   0  0  0  0  0  0  0  0  0  0  0  0
   -4.6030   24.0900  -30.8410 C   0  0  0  0  0  0  0  0  0  0  0  0
   -5.8960   24.4490  -30.4740 C   0  0  0  0  0  0  0  0  0  0  0  0
   -6.9830   23.6590  -30.8400 C   0  0  0  0  0  0  0  0  0  0  0  0
   -6.8040   22.4670  -31.5830 C   0  0  0  0  0  0  0  0  0  0  0  0
   -5.4850   22.0920  -31.9690 C   0  0  0  0  0  0  0  0  0  0  0  0
   -4.4030   22.9310  -31.6040 C   0  0  0  0  0  0  0  0  0  0  0  0
   -5.2850   20.9300  -32.6820 N   0  0  0  0  0  0  0  0  0  0  0  0
   -3.9220   20.4990  -33.0600 C   0  0  0  0  0  0  0  0  0  0  0  0
   -6.3600   20.1550  -33.0320 C   0  0  0  0  0  0  0  0  0  0  0  0
   -6.2030   19.0930  -33.6970 O   0  0  0  0  0  0  0  0  0  0  0  0
   -7.6550   20.5270  -32.6590 C   0  0  0  0  0  0  0  0  0  0  0  0
   -8.6200   19.7870  -33.0010 O   0  0  0  0  0  0  0  0  0  0  0  0
   -7.8730   21.6700  -31.9370 N   0  0  0  0  0  0  0  0  0  0  0  0
   -9.2500   22.0400  -31.5480 C   0  0  0  0  0  0  0  0  0  0  0  0
   -2.3020   22.0880  -28.0710 C   0  0  0  0  0  0  0  0  0  0  0  0
   -1.8260   20.7650  -28.1010 C   0  0  0  0  0  0  0  0  0  0  0  0
   -2.3210   19.7830  -27.0710 C   0  0  0  0  0  0  0  0  0  0  0  0
   -0.2673   18.5586  -28.2004 H   0  0  0  0  0  0  0  0  0  0  0  0
   -1.1425   18.3367  -29.7533 H   0  0  0  0  0  0  0  0  0  0  0  0
    0.5447   18.9533  -29.7533 H   0  0  0  0  0  0  0  0  0  0  0  0
    0.2138   21.0299  -30.8499 H   0  0  0  0  0  0  0  0  0  0  0  0
   -0.6236   23.3701  -30.7564 H   0  0  0  0  0  0  0  0  0  0  0  0
   -6.0614   25.3658  -29.8890 H   0  0  0  0  0  0  0  0  0  0  0  0
   -7.9977   23.9662  -30.5469 H   0  0  0  0  0  0  0  0  0  0  0  0
   -3.3848   22.6674  -31.9261 H   0  0  0  0  0  0  0  0  0  0  0  0
   -3.3312   20.3122  -32.1511 H   0  0  0  0  0  0  0  0  0  0  0  0
   -3.9812   19.5757  -33.6551 H   0  0  0  0  0  0  0  0  0  0  0  0
   -3.4396   21.2884  -33.6551 H   0  0  0  0  0  0  0  0  0  0  0  0
   -9.3280   22.0610  -30.4510 H   0  0  0  0  0  0  0  0  0  0  0  0
   -9.4904   23.0346  -31.9518 H   0  0  0  0  0  0  0  0  0  0  0  0
   -9.9565   21.2998  -31.9518 H   0  0  0  0  0  0  0  0  0  0  0  0
   -3.0134   22.3930  -27.2894 H   0  0  0  0  0  0  0  0  0  0  0  0
   -2.1223   20.1771  -26.0634 H   0  0  0  0  0  0  0  0  0  0  0  0
   -3.4030   19.6318  -27.1988 H   0  0  0  0  0  0  0  0  0  0  0  0
   -1.7990   18.8232  -27.1988 H   0  0  0  0  0  0  0  0  0  0  0  0
  1  2  1  0
  2  3  2  0
  3  4  1  0
  4  5  2  0
  5  6  1  0
  6  7  2  0
  6  8  2  0
  6  9  1  0
  9 10  1  0
 10 11  2  0
 11 12  1  0
 12 13  2  0
 13 14  1  0
 14 15  2  0
 14 16  1  0
 16 17  1  0
 16 18  1  0
 18 19  2  0
 18 20  1  0
 20 21  2  0
 20 22  1  0
 22 23  1  0
  5 24  1  0
 24 25  2  0
 25 26  1  0
 25  2  1  0
 15 10  1  0
 22 13  1  0
  1 27  1  0
  1 28  1  0
  1 29  1  0
  3 30  1  0
  4 31  1  0
 11 32  1  0
 12 33  1  0
 15 34  1  0
 17 35  1  0
 17 36  1  0
 17 37  1  0
 23 38  1  0
 23 39  1  0
 23 40  1  0
 24 41  1  0
 26 42  1  0
 26 43  1  0
 26 44  1  0
M  CHG  1   9  -1
M  END
>  <UniqueID>  (13) 
12

>  <SMILES>  (13) 
Cc1ccc(S(=O)(=O)[N-]c2ccc3c(c2)n(C)c(=O)c(=O)n3C)cc1C

>  <Energy>  (13) 
65.86910390021369

>  <Genealogy>  (13) 
Cc1ccc(S(=O)(=O)[N-]c2ccc3c(c2)n(C)c(=O)c(=O)n3C)cc1C (protonated)
Cc1ccc(S(=O)(=O)[N-]c2ccc3c(c2)n(C)c(=O)c(=O)n3C)cc1C (3D coordinates assigned)
Cc1ccc(S(=O)(=O)[N-]c2ccc3c(c2)n(C)c(=O)c(=O)n3C)cc1C (optimized conformer: 65.86910390021369 kcal/mol)

>  <smiles>  (13) 
Cc1ccc(S(=O)(=O)Nc2ccc3c(c2)n(C)c(=O)c(=O)n3C)cc1C

>  <score_type>  (13) 
oracle

>  <origin>  (13) 
adgpu

>  <m_score__min__energy>  (13) 
-10.58

>  <m_primary>  (13) 
energy

$$$$
13:0
     RDKit          3D

 83 87  0  0  1  0  0  0  0  0999 V2000
    1.2140   24.9240  -35.9270 C   0  0  0  0  0  0  0  0  0  0  0  0
    0.2360   23.8900  -35.8650 O   0  0  0  0  0  0  0  0  0  0  0  0
    0.6820   22.5980  -35.7000 C   0  0  0  0  0  0  0  0  0  0  0  0
    1.8480   22.1740  -36.2940 C   0  0  0  0  0  0  0  0  0  0  0  0
    2.2500   20.8710  -36.0970 C   0  0  0  0  0  0  0  0  0  0  0  0
    1.5290   19.9780  -35.3290 C   0  0  0  0  0  0  0  0  0  0  0  0
    0.3560   20.3960  -34.7300 C   0  0  0  0  0  0  0  0  0  0  0  0
   -0.3820   19.4270  -33.9300 C   0  0  0  0  0  0  0  0  0  0  0  0
   -1.7000   19.1030  -34.1650 C   0  0  0  0  0  0  0  0  0  0  0  0
   -2.2760   18.1730  -33.3340 C   0  0  0  0  0  0  0  0  0  0  0  0
   -3.4980   17.8600  -33.5180 N   0  0  0  0  0  0  0  0  0  0  0  0
   -4.3410   18.4370  -34.5780 C   0  0  1  0  0  0  0  0  0  0  0  0
   -5.3800   17.4710  -35.0700 C   0  0  0  0  0  0  0  0  0  0  0  0
   -5.1010   19.4940  -33.8140 C   0  0  0  0  0  0  0  0  0  0  0  0
   -6.4380   19.2110  -33.5790 C   0  0  0  0  0  0  0  0  0  0  0  0
   -7.2030   20.1230  -32.8730 C   0  0  0  0  0  0  0  0  0  0  0  0
   -6.6050   21.2840  -32.4270 C   0  0  0  0  0  0  0  0  0  0  0  0
   -5.2500   21.5550  -32.6720 C   0  0  0  0  0  0  0  0  0  0  0  0
   -4.7620   22.7700  -32.1520 N   0  0  0  0  0  0  0  0  0  0  0  0
   -3.9660   22.7820  -31.1570 C   0  0  0  0  0  0  0  0  0  0  0  0
   -3.5310   21.6480  -30.5220 C   0  0  0  0  0  0  0  0  0  0  0  0
   -2.6640   21.7590  -29.4700 C   0  0  0  0  0  0  0  0  0  0  0  0
   -2.1720   20.6400  -28.7590 N   0  0  0  0  0  0  0  0  0  0  0  0
   -2.7200   20.1850  -27.5080 C   0  0  0  0  0  0  0  0  0  0  0  0
   -1.6470   19.7740  -26.5260 C   0  0  0  0  0  0  0  0  0  0  0  0
   -0.6040   19.0980  -27.1010 O   0  0  0  0  0  0  0  0  0  0  0  0
   -0.0570   19.6620  -28.2260 C   0  0  0  0  0  0  0  0  0  0  0  0
   -1.0480   19.9030  -29.3300 C   0  0  0  0  0  0  0  0  0  0  0  0
   -2.2680   22.9760  -29.0910 N   0  0  0  0  0  0  0  0  0  0  0  0
   -2.6850   24.1190  -29.7020 C   0  0  0  0  0  0  0  0  0  0  0  0
   -2.1960   25.2990  -29.2080 O   0  0  0  0  0  0  0  0  0  0  0  0
   -1.5770   25.4630  -27.9610 C   0  0  0  0  0  0  0  0  0  0  0  0
   -0.1820   24.9410  -27.8750 C   0  0  0  0  0  0  0  0  0  0  0  0
    0.0140   23.8650  -26.9430 N   0  0  0  0  0  0  0  0  0  0  0  0
   -1.1320   23.5100  -26.1680 C   0  0  0  0  0  0  0  0  0  0  0  0
    0.5790   22.6870  -27.5830 C   0  0  0  0  0  0  0  0  0  0  0  0
   -3.5330   24.0000  -30.7310 N   0  0  0  0  0  0  0  0  0  0  0  0
   -4.4880   20.6470  -33.3750 C   0  0  0  0  0  0  0  0  0  0  0  0
   -1.6070   17.5840  -32.3220 N   0  0  0  0  0  0  0  0  0  0  0  0
   -0.3220   17.9140  -32.1070 C   0  0  0  0  0  0  0  0  0  0  0  0
    0.4510   17.2910  -31.0000 C   0  0  0  0  0  0  0  0  0  0  0  0
    0.2660   18.8140  -32.8990 N   0  0  0  0  0  0  0  0  0  0  0  0
   -0.0320   21.6850  -34.9300 C   0  0  0  0  0  0  0  0  0  0  0  0
    1.4967   25.2229  -34.9068 H   0  0  0  0  0  0  0  0  0  0  0  0
    2.1027   24.5566  -36.4610 H   0  0  0  0  0  0  0  0  0  0  0  0
    0.7977   25.7909  -36.4610 H   0  0  0  0  0  0  0  0  0  0  0  0
    2.4459   22.8597  -36.9123 H   0  0  0  0  0  0  0  0  0  0  0  0
    3.1821   20.5285  -36.5702 H   0  0  0  0  0  0  0  0  0  0  0  0
    1.8845   18.9456  -35.1956 H   0  0  0  0  0  0  0  0  0  0  0  0
   -2.2675   19.5694  -34.9838 H   0  0  0  0  0  0  0  0  0  0  0  0
   -3.7419   18.7593  -35.4424 H   0  0  0  0  0  0  0  0  0  0  0  0
   -5.8826   17.0037  -34.2103 H   0  0  0  0  0  0  0  0  0  0  0  0
   -6.1208   18.0086  -35.6801 H   0  0  0  0  0  0  0  0  0  0  0  0
   -4.8977   16.6930  -35.6801 H   0  0  0  0  0  0  0  0  0  0  0  0
   -6.8839   18.2756  -33.9482 H   0  0  0  0  0  0  0  0  0  0  0  0
   -8.2663   19.9264  -32.6714 H   0  0  0  0  0  0  0  0  0  0  0  0
   -7.2053   22.0151  -31.8656 H   0  0  0  0  0  0  0  0  0  0  0  0
   -3.8759   20.6580  -30.8552 H   0  0  0  0  0  0  0  0  0  0  0  0
   -3.3121   20.9991  -27.0645 H   0  0  0  0  0  0  0  0  0  0  0  0
   -3.3421   19.3017  -27.7151 H   0  0  0  0  0  0  0  0  0  0  0  0
   -1.2504   20.6805  -26.0454 H   0  0  0  0  0  0  0  0  0  0  0  0
   -2.1164   19.0880  -25.8055 H   0  0  0  0  0  0  0  0  0  0  0  0
    0.3916   20.6267  -27.9466 H   0  0  0  0  0  0  0  0  0  0  0  0
    0.6845   18.9476  -28.6130 H   0  0  0  0  0  0  0  0  0  0  0  0
   -0.5805   20.4934  -30.1318 H   0  0  0  0  0  0  0  0  0  0  0  0
   -1.3886   18.9493  -29.7593 H   0  0  0  0  0  0  0  0  0  0  0  0
   -1.5940   23.0500  -28.2740 H   0  0  0  0  0  0  0  0  0  0  0  0
   -1.5536   26.5384  -27.7307 H   0  0  0  0  0  0  0  0  0  0  0  0
   -2.1695   24.8752  -27.2445 H   0  0  0  0  0  0  0  0  0  0  0  0
    0.1092   24.5831  -28.8736 H   0  0  0  0  0  0  0  0  0  0  0  0
    0.4336   25.7762  -27.5097 H   0  0  0  0  0  0  0  0  0  0  0  0
   -0.8887   23.5854  -25.0979 H   0  0  0  0  0  0  0  0  0  0  0  0
   -1.9607   24.1935  -26.4046 H   0  0  0  0  0  0  0  0  0  0  0  0
   -1.4292   22.4777  -26.4046 H   0  0  0  0  0  0  0  0  0  0  0  0
    0.9187   21.9787  -26.8130 H   0  0  0  0  0  0  0  0  0  0  0  0
   -0.1871   22.2074  -28.2100 H   0  0  0  0  0  0  0  0  0  0  0  0
    1.4326   22.9842  -28.2100 H   0  0  0  0  0  0  0  0  0  0  0  0
   -3.4239   20.8369  -33.5791 H   0  0  0  0  0  0  0  0  0  0  0  0
   -2.0970   16.8860  -31.7220 H   0  0  0  0  0  0  0  0  0  0  0  0
    0.0405   17.6219  -30.0346 H   0  0  0  0  0  0  0  0  0  0  0  0
    0.3786   16.1958  -31.0732 H   0  0  0  0  0  0  0  0  0  0  0  0
    1.5058   17.5944  -31.0732 H   0  0  0  0  0  0  0  0  0  0  0  0
   -0.9643   22.0249  -34.4553 H   0  0  0  0  0  0  0  0  0  0  0  0
  1  2  1  0
  2  3  1  0
  3  4  2  0
  4  5  1  0
  5  6  2  0
  6  7  1  0
  7  8  1  0
  8  9  2  0
  9 10  1  0
 10 11  2  0
 11 12  1  0
 12 13  1  0
 12 14  1  0
 14 15  2  0
 15 16  1  0
 16 17  2  0
 17 18  1  0
 18 19  1  0
 19 20  2  0
 20 21  1  0
 21 22  2  0
 22 23  1  0
 23 24  1  0
 24 25  1  0
 25 26  1  0
 26 27  1  0
 27 28  1  0
 22 29  1  0
 29 30  1  0
 30 31  1  0
 31 32  1  0
 32 33  1  0
 33 34  1  0
 34 35  1  0
 34 36  1  0
 30 37  2  0
 18 38  2  0
 10 39  1  0
 39 40  1  0
 40 41  1  0
 40 42  2  0
  7 43  2  0
 43  3  1  0
 42  8  1  0
 38 14  1  0
 37 20  1  0
 28 23  1  0
  1 44  1  0
  1 45  1  0
  1 46  1  0
  4 47  1  0
  5 48  1  0
  6 49  1  0
  9 50  1  0
 12 51  1  6
 13 52  1  0
 13 53  1  0
 13 54  1  0
 15 55  1  0
 16 56  1  0
 17 57  1  0
 21 58  1  0
 24 59  1  0
 24 60  1  0
 25 61  1  0
 25 62  1  0
 27 63  1  0
 27 64  1  0
 28 65  1  0
 28 66  1  0
 29 67  1  0
 32 68  1  0
 32 69  1  0
 33 70  1  0
 33 71  1  0
 35 72  1  0
 35 73  1  0
 35 74  1  0
 36 75  1  0
 36 76  1  0
 36 77  1  0
 38 78  1  0
 39 79  1  0
 41 80  1  0
 41 81  1  0
 41 82  1  0
 43 83  1  0
M  END
>  <smiles>  (14) 
COc1cccc(-c2cc(=NC(C)c3cccc(N=c4cc(N5CCOCC5)[nH]c(OCCN(C)C)n4)c3)[nH]c(C)n2)c1

>  <score_type>  (14) 
oracle

>  <origin>  (14) 
adgpu

>  <m_score__min__energy>  (14) 
-10.4

>  <m_primary>  (14) 
energy

$$$$
14:0
     RDKit          3D

 57 60  0  0  0  0  0  0  0  0999 V2000
   -3.8580   25.3800  -30.3600 O   0  0  0  0  0  0  0  0  0  0  0  0
   -3.4910   24.1790  -30.2730 C   0  0  0  0  0  0  0  0  0  0  0  0
   -3.9960   23.2330  -31.2240 N   0  0  0  0  0  0  0  0  0  0  0  0
   -5.3800   22.9360  -31.4650 C   0  0  0  0  0  0  0  0  0  0  0  0
   -5.7530   21.6000  -31.6510 C   0  0  0  0  0  0  0  0  0  0  0  0
   -7.0920   21.2580  -31.8810 C   0  0  0  0  0  0  0  0  0  0  0  0
   -7.5420   19.5680  -32.0840 S   0  0  0  0  0  0  0  0  0  0  0  0
   -8.3240   19.1350  -30.8770 O   0  0  0  0  0  0  0  0  0  0  0  0
   -8.3990   19.4110  -33.3110 O   0  0  0  0  0  0  0  0  0  0  0  0
   -6.1000   18.5860  -32.2380 N   0  0  0  0  0  0  0  0  0  0  0  0
   -5.3420   18.9660  -33.4360 C   0  0  0  0  0  0  0  0  0  0  0  0
   -5.7670   18.0520  -34.5770 C   0  0  0  0  0  0  0  0  0  0  0  0
   -6.5020   16.8970  -33.9240 C   0  0  0  0  0  0  0  0  0  0  0  0
   -6.4560   17.1760  -32.4290 C   0  0  0  0  0  0  0  0  0  0  0  0
   -8.0640   22.2640  -31.9320 C   0  0  0  0  0  0  0  0  0  0  0  0
   -7.6970   23.6040  -31.7820 C   0  0  0  0  0  0  0  0  0  0  0  0
   -6.3550   23.9500  -31.5660 C   0  0  0  0  0  0  0  0  0  0  0  0
   -5.9940   25.2930  -31.4790 O   0  0  0  0  0  0  0  0  0  0  0  0
   -2.5360   23.7900  -29.2100 C   0  0  0  0  0  0  0  0  0  0  0  0
   -2.5650   22.4780  -28.7060 C   0  0  0  0  0  0  0  0  0  0  0  0
   -1.6620   22.0750  -27.7130 C   0  0  0  0  0  0  0  0  0  0  0  0
   -1.6990   20.4200  -27.0960 S   0  0  0  0  0  0  0  0  0  0  0  0
   -1.6130   20.4510  -25.5950 O   0  0  0  0  0  0  0  0  0  0  0  0
   -3.0090   19.7840  -27.4730 O   0  0  0  0  0  0  0  0  0  0  0  0
   -0.3880   19.4590  -27.7310 N   0  0  0  0  0  0  0  0  0  0  0  0
   -0.3690   19.5190  -29.2020 C   0  0  0  0  0  0  0  0  0  0  0  0
    0.6760   18.5360  -29.7710 C   0  0  0  0  0  0  0  0  0  0  0  0
    1.4660   17.9720  -28.7420 O   0  0  0  0  0  0  0  0  0  0  0  0
    0.6470   17.2210  -27.8650 C   0  0  0  0  0  0  0  0  0  0  0  0
   -0.5080   18.0640  -27.2830 C   0  0  0  0  0  0  0  0  0  0  0  0
   -0.7270   22.9900  -27.2140 C   0  0  0  0  0  0  0  0  0  0  0  0
   -0.7060   24.3010  -27.6920 C   0  0  0  0  0  0  0  0  0  0  0  0
   -1.6090   24.7090  -28.6780 C   0  0  0  0  0  0  0  0  0  0  0  0
   -1.5960   26.0350  -29.0980 O   0  0  0  0  0  0  0  0  0  0  0  0
   -4.9875   20.8108  -31.6163 H   0  0  0  0  0  0  0  0  0  0  0  0
   -5.5579   20.0126  -33.6970 H   0  0  0  0  0  0  0  0  0  0  0  0
   -4.2624   18.8657  -33.2505 H   0  0  0  0  0  0  0  0  0  0  0  0
   -6.4324   18.5875  -35.2702 H   0  0  0  0  0  0  0  0  0  0  0  0
   -4.9033   17.7049  -35.1630 H   0  0  0  0  0  0  0  0  0  0  0  0
   -7.5436   16.8569  -34.2753 H   0  0  0  0  0  0  0  0  0  0  0  0
   -6.0416   15.9292  -34.1719 H   0  0  0  0  0  0  0  0  0  0  0  0
   -7.4412   16.9766  -31.9823 H   0  0  0  0  0  0  0  0  0  0  0  0
   -5.7126   16.5267  -31.9434 H   0  0  0  0  0  0  0  0  0  0  0  0
   -9.1198   21.9990  -32.0906 H   0  0  0  0  0  0  0  0  0  0  0  0
   -8.4639   24.3909  -31.8335 H   0  0  0  0  0  0  0  0  0  0  0  0
   -5.0240   25.5860  -31.4870 H   0  0  0  0  0  0  0  0  0  0  0  0
   -3.3033   21.7611  -29.0946 H   0  0  0  0  0  0  0  0  0  0  0  0
   -1.3641   19.2525  -29.5878 H   0  0  0  0  0  0  0  0  0  0  0  0
   -0.1022   20.5400  -29.5124 H   0  0  0  0  0  0  0  0  0  0  0  0
    0.1543   17.7284  -30.3055 H   0  0  0  0  0  0  0  0  0  0  0  0
    1.3382   19.0900  -30.4526 H   0  0  0  0  0  0  0  0  0  0  0  0
    0.2216   16.3707  -28.4182 H   0  0  0  0  0  0  0  0  0  0  0  0
    1.2725   16.8797  -27.0270 H   0  0  0  0  0  0  0  0  0  0  0  0
   -1.4684   17.6524  -27.6267 H   0  0  0  0  0  0  0  0  0  0  0  0
   -0.4601   18.0323  -26.1845 H   0  0  0  0  0  0  0  0  0  0  0  0
   -0.0076   22.6749  -26.4438 H   0  0  0  0  0  0  0  0  0  0  0  0
    0.0256   25.0176  -27.2904 H   0  0  0  0  0  0  0  0  0  0  0  0
  1  2  2  0
  2  3  1  0
  3  4  1  0
  4  5  2  0
  5  6  1  0
  6  7  1  0
  7  8  2  0
  7  9  2  0
  7 10  1  0
 10 11  1  0
 11 12  1  0
 12 13  1  0
 13 14  1  0
  6 15  2  0
 15 16  1  0
 16 17  2  0
 17 18  1  0
  2 19  1  0
 19 20  2  0
 20 21  1  0
 21 22  1  0
 22 23  2  0
 22 24  2  0
 22 25  1  0
 25 26  1  0
 26 27  1  0
 27 28  1  0
 28 29  1  0
 29 30  1  0
 21 31  2  0
 31 32  1  0
 32 33  2  0
 33 34  1  0
 17  4  1  0
 33 19  1  0
 14 10  1  0
 30 25  1  0
  5 35  1  0
 11 36  1  0
 11 37  1  0
 12 38  1  0
 12 39  1  0
 13 40  1  0
 13 41  1  0
 14 42  1  0
 14 43  1  0
 15 44  1  0
 16 45  1  0
 18 46  1  0
 20 47  1  0
 26 48  1  0
 26 49  1  0
 27 50  1  0
 27 51  1  0
 29 52  1  0
 29 53  1  0
 30 54  1  0
 30 55  1  0
 31 56  1  0
 32 57  1  0
M  CHG  2   3  -1  34  -1
M  END
>  <UniqueID>  (15) 
13

>  <SMILES>  (15) 
O=C([N-]c1cc(S(=O)(=O)N2CCCC2)ccc1O)c1cc(S(=O)(=O)N2CCOCC2)ccc1[O-]

>  <Energy>  (15) 
76.7887371083426

>  <Genealogy>  (15) 
O=C([N-]c1cc(S(=O)(=O)N2CCCC2)ccc1O)c1cc(S(=O)(=O)N2CCOCC2)ccc1[O-] (protonated)
O=C([N-]c1cc(S(=O)(=O)N2CCCC2)ccc1O)c1cc(S(=O)(=O)N2CCOCC2)ccc1[O-] (3D coordinates assigned)
O=C([N-]c1cc(S(=O)(=O)N2CCCC2)ccc1O)c1cc(S(=O)(=O)N2CCOCC2)ccc1[O-] (nonaromatic ring conformer: 76.7887371083426 kcal/mol)

>  <smiles>  (15) 
O=C(Nc1cc(S(=O)(=O)N2CCCC2)ccc1O)c1cc(S(=O)(=O)N2CCOCC2)ccc1O

>  <score_type>  (15) 
oracle

>  <origin>  (15) 
adgpu

>  <m_score__min__energy>  (15) 
-14.279999999999999

>  <m_primary>  (15) 
energy

$$$$
15:0
     RDKit          3D

 56 59  0  0  0  0  0  0  0  0999 V2000
   -5.2420   24.9220  -28.6340 O   0  0  0  0  0  0  0  0  0  0  0  0
   -4.9740   24.7930  -30.1070 S   0  0  0  0  0  0  0  0  0  0  0  0
   -5.4070   26.0600  -30.7900 O   0  0  0  0  0  0  0  0  0  0  0  0
   -3.2840   24.5430  -30.3890 N   0  0  0  0  0  0  0  0  0  0  0  0
   -2.4420   24.0290  -29.3560 C   0  0  0  0  0  0  0  0  0  0  0  0
   -1.4140   24.8320  -28.8430 C   0  0  0  0  0  0  0  0  0  0  0  0
   -1.2360   26.1280  -29.3130 O   0  0  0  0  0  0  0  0  0  0  0  0
   -0.5510   24.3280  -27.8720 C   0  0  0  0  0  0  0  0  0  0  0  0
   -0.7110   23.0230  -27.4030 C   0  0  0  0  0  0  0  0  0  0  0  0
   -1.7430   22.2030  -27.8930 C   0  0  0  0  0  0  0  0  0  0  0  0
   -1.9310   20.5600  -27.2620 S   0  0  0  0  0  0  0  0  0  0  0  0
   -3.3640   20.1300  -27.4130 O   0  0  0  0  0  0  0  0  0  0  0  0
   -1.5690   20.5420  -25.8050 O   0  0  0  0  0  0  0  0  0  0  0  0
   -0.8980   19.4060  -28.1060 C   0  0  0  0  0  0  0  0  0  0  0  0
   -0.5070   19.6430  -29.4340 C   0  0  0  0  0  0  0  0  0  0  0  0
    0.3240   18.7320  -30.0950 C   0  0  0  0  0  0  0  0  0  0  0  0
    0.7730   17.5860  -29.4300 C   0  0  0  0  0  0  0  0  0  0  0  0
    0.3940   17.3510  -28.1040 C   0  0  0  0  0  0  0  0  0  0  0  0
   -0.4400   18.2590  -27.4420 C   0  0  0  0  0  0  0  0  0  0  0  0
   -2.6170   22.7130  -28.8840 C   0  0  0  0  0  0  0  0  0  0  0  0
   -3.6630   21.9510  -29.4120 O   0  0  0  0  0  0  0  0  0  0  0  0
   -5.8660   23.4260  -30.7690 C   0  0  0  0  0  0  0  0  0  0  0  0
   -5.2680   22.5740  -31.7080 C   0  0  0  0  0  0  0  0  0  0  0  0
   -5.9510   21.4440  -32.1670 C   0  0  0  0  0  0  0  0  0  0  0  0
   -7.2370   21.1500  -31.6870 C   0  0  0  0  0  0  0  0  0  0  0  0
   -8.0880   19.7050  -32.2410 S   0  0  0  0  0  0  0  0  0  0  0  0
   -8.7690   19.0520  -31.0680 O   0  0  0  0  0  0  0  0  0  0  0  0
   -9.1480   20.1050  -33.2320 O   0  0  0  0  0  0  0  0  0  0  0  0
   -6.9990   18.5580  -32.9860 N   0  0  0  0  0  0  0  0  0  0  0  0
   -6.4340   19.1180  -34.2300 C   0  0  0  0  0  0  0  0  0  0  0  0
   -5.1550   18.3620  -34.6260 C   0  0  0  0  0  0  0  0  0  0  0  0
   -4.1190   18.4110  -33.6460 O   0  0  0  0  0  0  0  0  0  0  0  0
   -4.5840   18.6990  -32.3350 C   0  0  0  0  0  0  0  0  0  0  0  0
   -5.9650   18.0880  -32.0360 C   0  0  0  0  0  0  0  0  0  0  0  0
   -7.8300   22.0020  -30.7450 C   0  0  0  0  0  0  0  0  0  0  0  0
   -7.1500   23.1350  -30.2910 C   0  0  0  0  0  0  0  0  0  0  0  0
    0.2574   24.9593  -27.4745 H   0  0  0  0  0  0  0  0  0  0  0  0
   -0.0214   22.6313  -26.6408 H   0  0  0  0  0  0  0  0  0  0  0  0
   -0.8549   20.5469  -29.9555 H   0  0  0  0  0  0  0  0  0  0  0  0
    0.6242   18.9167  -31.1370 H   0  0  0  0  0  0  0  0  0  0  0  0
    1.4248   16.8688  -29.9504 H   0  0  0  0  0  0  0  0  0  0  0  0
    0.7519   16.4517  -27.5813 H   0  0  0  0  0  0  0  0  0  0  0  0
   -0.7367   18.0727  -26.3993 H   0  0  0  0  0  0  0  0  0  0  0  0
   -4.1510   21.2350  -28.8970 H   0  0  0  0  0  0  0  0  0  0  0  0
   -4.2585   22.7953  -32.0847 H   0  0  0  0  0  0  0  0  0  0  0  0
   -5.4786   20.7821  -32.9077 H   0  0  0  0  0  0  0  0  0  0  0  0
   -7.1745   19.0255  -35.0381 H   0  0  0  0  0  0  0  0  0  0  0  0
   -6.1857   20.1767  -34.0640 H   0  0  0  0  0  0  0  0  0  0  0  0
   -5.4170   17.3077  -34.7985 H   0  0  0  0  0  0  0  0  0  0  0  0
   -4.7617   18.8565  -35.5265 H   0  0  0  0  0  0  0  0  0  0  0  0
   -3.8596   18.2981  -31.6107 H   0  0  0  0  0  0  0  0  0  0  0  0
   -4.6846   19.7915  -32.2554 H   0  0  0  0  0  0  0  0  0  0  0  0
   -5.8909   16.9927  -32.1055 H   0  0  0  0  0  0  0  0  0  0  0  0
   -6.2640   18.4042  -31.0258 H   0  0  0  0  0  0  0  0  0  0  0  0
   -8.8361   21.7774  -30.3612 H   0  0  0  0  0  0  0  0  0  0  0  0
   -7.6248   23.8009  -29.5554 H   0  0  0  0  0  0  0  0  0  0  0  0
  1  2  2  0
  2  3  2  0
  2  4  1  0
  4  5  1  0
  5  6  2  0
  6  7  1  0
  6  8  1  0
  8  9  2  0
  9 10  1  0
 10 11  1  0
 11 12  2  0
 11 13  2  0
 11 14  1  0
 14 15  2  0
 15 16  1  0
 16 17  2  0
 17 18  1  0
 18 19  2  0
 10 20  2  0
 20 21  1  0
  2 22  1  0
 22 23  2  0
 23 24  1  0
 24 25  2  0
 25 26  1  0
 26 27  2  0
 26 28  2  0
 26 29  1  0
 29 30  1  0
 30 31  1  0
 31 32  1  0
 32 33  1  0
 33 34  1  0
 25 35  1  0
 35 36  2  0
 20  5  1  0
 36 22  1  0
 19 14  1  0
 34 29  1  0
  8 37  1  0
  9 38  1  0
 15 39  1  0
 16 40  1  0
 17 41  1  0
 18 42  1  0
 19 43  1  0
 21 44  1  0
 23 45  1  0
 24 46  1  0
 30 47  1  0
 30 48  1  0
 31 49  1  0
 31 50  1  0
 33 51  1  0
 33 52  1  0
 34 53  1  0
 34 54  1  0
 35 55  1  0
 36 56  1  0
M  CHG  2   4  -1   7  -1
M  END
>  <UniqueID>  (16) 
14

>  <SMILES>  (16) 
O=S(=O)([N-]c1c([O-])ccc(S(=O)(=O)c2ccccc2)c1O)c1ccc(S(=O)(=O)N2CCOCC2)cc1

>  <Energy>  (16) 
84.83367605269696

>  <Genealogy>  (16) 
O=S(=O)([N-]c1c([O-])ccc(S(=O)(=O)c2ccccc2)c1O)c1ccc(S(=O)(=O)N2CCOCC2)cc1 (protonated)
O=S(=O)([N-]c1c([O-])ccc(S(=O)(=O)c2ccccc2)c1O)c1ccc(S(=O)(=O)N2CCOCC2)cc1 (3D coordinates assigned)
O=S(=O)([N-]c1c([O-])ccc(S(=O)(=O)c2ccccc2)c1O)c1ccc(S(=O)(=O)N2CCOCC2)cc1 (nonaromatic ring conformer: 84.83367605269696 kcal/mol)

>  <smiles>  (16) 
O=S(=O)(Nc1c(O)ccc(S(=O)(=O)c2ccccc2)c1O)c1ccc(S(=O)(=O)N2CCOCC2)cc1

>  <score_type>  (16) 
oracle

>  <origin>  (16) 
adgpu

>  <m_score__min__energy>  (16) 
-15.210000000000001

>  <m_primary>  (16) 
energy

$$$$
16:0
     RDKit          3D

 41 43  0  0  0  0  0  0  0  0999 V2000
   -4.1870   24.5220  -27.6000 C   0  0  0  0  0  0  0  0  0  0  0  0
   -3.4650   23.6250  -28.5740 C   0  0  0  0  0  0  0  0  0  0  0  0
   -2.9180   22.4160  -28.1100 C   0  0  0  0  0  0  0  0  0  0  0  0
   -2.3060   21.5270  -28.9990 C   0  0  0  0  0  0  0  0  0  0  0  0
   -2.2360   21.8350  -30.3580 C   0  0  0  0  0  0  0  0  0  0  0  0
   -2.7460   23.0490  -30.8250 C   0  0  0  0  0  0  0  0  0  0  0  0
   -3.3190   23.9710  -29.9400 C   0  0  0  0  0  0  0  0  0  0  0  0
   -3.8260   25.2010  -30.4730 N   0  0  0  0  0  0  0  0  0  0  0  0
   -5.2050   25.4970  -30.7330 C   0  0  0  0  0  0  0  0  0  0  0  0
   -5.7220   26.5090  -30.1820 O   0  0  0  0  0  0  0  0  0  0  0  0
   -6.0770   24.6020  -31.5680 C   0  0  0  0  0  0  0  0  0  0  0  0
   -7.2550   23.6860  -30.5180 S   0  0  0  0  0  0  0  0  0  0  0  0
   -6.8470   22.0840  -31.2060 C   0  0  0  0  0  0  0  0  0  0  0  0
   -7.8420   21.1220  -31.3930 C   0  0  0  0  0  0  0  0  0  0  0  0
   -7.5010   19.8840  -31.9390 C   0  0  0  0  0  0  0  0  0  0  0  0
   -6.1660   19.6030  -32.2830 C   0  0  0  0  0  0  0  0  0  0  0  0
   -5.7840   18.2800  -32.8430 C   0  0  0  0  0  0  0  0  0  0  0  0
   -5.5260   18.1350  -34.2200 C   0  0  0  0  0  0  0  0  0  0  0  0
   -5.1940   16.8840  -34.7500 C   0  0  0  0  0  0  0  0  0  0  0  0
   -5.1200   15.7640  -33.9180 C   0  0  0  0  0  0  0  0  0  0  0  0
   -4.6980   14.1980  -34.5870 Cl  0  0  0  0  0  0  0  0  0  0  0  0
   -5.3640   15.8980  -32.5480 C   0  0  0  0  0  0  0  0  0  0  0  0
   -5.6860   17.1480  -32.0120 C   0  0  0  0  0  0  0  0  0  0  0  0
   -5.2020   20.6050  -32.0730 C   0  0  0  0  0  0  0  0  0  0  0  0
   -5.5630   21.8090  -31.5560 N   0  0  0  0  0  0  0  0  0  0  0  0
   -3.9426   24.2183  -26.5714 H   0  0  0  0  0  0  0  0  0  0  0  0
   -3.8729   25.5641  -27.7591 H   0  0  0  0  0  0  0  0  0  0  0  0
   -5.2722   24.4378  -27.7591 H   0  0  0  0  0  0  0  0  0  0  0  0
   -2.9718   22.1675  -27.0398 H   0  0  0  0  0  0  0  0  0  0  0  0
   -1.8794   20.5840  -28.6266 H   0  0  0  0  0  0  0  0  0  0  0  0
   -1.7797   21.1227  -31.0611 H   0  0  0  0  0  0  0  0  0  0  0  0
   -2.6970   23.2831  -31.8987 H   0  0  0  0  0  0  0  0  0  0  0  0
   -6.6374   25.2148  -32.2894 H   0  0  0  0  0  0  0  0  0  0  0  0
   -5.4381   23.8789  -32.0962 H   0  0  0  0  0  0  0  0  0  0  0  0
   -8.8836   21.3380  -31.1128 H   0  0  0  0  0  0  0  0  0  0  0  0
   -8.2796   19.1241  -32.1012 H   0  0  0  0  0  0  0  0  0  0  0  0
   -5.5860   19.0110  -34.8826 H   0  0  0  0  0  0  0  0  0  0  0  0
   -4.9903   16.7815  -35.8261 H   0  0  0  0  0  0  0  0  0  0  0  0
   -5.3025   15.0181  -31.8907 H   0  0  0  0  0  0  0  0  0  0  0  0
   -5.8644   17.2481  -30.9312 H   0  0  0  0  0  0  0  0  0  0  0  0
   -4.1495   20.4132  -32.3287 H   0  0  0  0  0  0  0  0  0  0  0  0
  1  2  1  0
  2  3  2  0
  3  4  1  0
  4  5  2  0
  5  6  1  0
  6  7  2  0
  7  8  1  0
  8  9  1  0
  9 10  2  0
  9 11  1  0
 11 12  1  0
 12 13  1  0
 13 14  2  0
 14 15  1  0
 15 16  2  0
 16 17  1  0
 17 18  2  0
 18 19  1  0
 19 20  2  0
 20 21  1  0
 20 22  1  0
 22 23  2  0
 16 24  1  0
 24 25  2  0
  7  2  1  0
 25 13  1  0
 23 17  1  0
  1 26  1  0
  1 27  1  0
  1 28  1  0
  3 29  1  0
  4 30  1  0
  5 31  1  0
  6 32  1  0
 11 33  1  0
 11 34  1  0
 14 35  1  0
 15 36  1  0
 18 37  1  0
 19 38  1  0
 22 39  1  0
 23 40  1  0
 24 41  1  0
M  CHG  1   8  -1
M  END
>  <UniqueID>  (17) 
15

>  <SMILES>  (17) 
Cc1ccccc1[N-]C(=O)CSc1ccc(-c2ccc(Cl)cc2)cn1

>  <Energy>  (17) 
48.68456964549651

>  <Genealogy>  (17) 
Cc1ccccc1[N-]C(=O)CSc1ccc(-c2ccc(Cl)cc2)cn1 (protonated)
Cc1ccccc1[N-]C(=O)CSc1ccc(-c2ccc(Cl)cc2)cn1 (3D coordinates assigned)
Cc1ccccc1[N-]C(=O)CSc1ccc(-c2ccc(Cl)cc2)cn1 (optimized conformer: 48.68456964549651 kcal/mol)

>  <smiles>  (17) 
Cc1ccccc1NC(=O)CSc1ccc(-c2ccc(Cl)cc2)cn1

>  <score_type>  (17) 
oracle

>  <origin>  (17) 
adgpu

>  <m_score__min__energy>  (17) 
-10.789999999999999

>  <m_primary>  (17) 
energy

$$$$
17:0
     RDKit          3D

 56 60  0  0  0  0  0  0  0  0999 V2000
   -6.8370   19.4550  -31.2730 O   0  0  0  0  0  0  0  0  0  0  0  0
   -7.2290   19.0800  -32.4110 C   0  0  0  0  0  0  0  0  0  0  0  0
   -8.2820   19.7990  -33.0750 N   0  0  0  0  0  0  0  0  0  0  0  0
   -9.1890   20.6880  -32.3490 C   0  0  0  0  0  0  0  0  0  0  0  0
   -8.4050   21.8120  -31.7460 C   0  0  0  0  0  0  0  0  0  0  0  0
   -8.2190   21.8850  -30.3580 C   0  0  0  0  0  0  0  0  0  0  0  0
   -7.3310   22.8250  -29.8350 C   0  0  0  0  0  0  0  0  0  0  0  0
   -6.6250   23.6710  -30.6960 C   0  0  0  0  0  0  0  0  0  0  0  0
   -5.3770   24.7330  -30.0570 S   0  0  0  0  0  0  0  0  0  0  0  0
   -6.0540   25.7270  -29.1550 O   0  0  0  0  0  0  0  0  0  0  0  0
   -4.6950   25.4890  -31.1620 O   0  0  0  0  0  0  0  0  0  0  0  0
   -4.1610   23.8070  -29.1500 C   0  0  0  0  0  0  0  0  0  0  0  0
   -3.8420   24.2550  -27.8550 C   0  0  0  0  0  0  0  0  0  0  0  0
   -2.9240   23.5690  -27.0630 C   0  0  0  0  0  0  0  0  0  0  0  0
   -2.3100   22.4200  -27.5470 C   0  0  0  0  0  0  0  0  0  0  0  0
   -2.6000   21.9590  -28.8300 C   0  0  0  0  0  0  0  0  0  0  0  0
   -3.5120   22.6420  -29.6580 C   0  0  0  0  0  0  0  0  0  0  0  0
   -3.8120   21.9710  -31.2780 S   0  0  0  0  0  0  0  0  0  0  0  0
   -4.2000   23.0510  -32.2470 O   0  0  0  0  0  0  0  0  0  0  0  0
   -4.9170   20.9540  -31.2110 O   0  0  0  0  0  0  0  0  0  0  0  0
   -2.3690   21.1850  -31.9200 C   0  0  0  0  0  0  0  0  0  0  0  0
   -1.9370   21.4570  -33.2260 C   0  0  0  0  0  0  0  0  0  0  0  0
   -0.8070   20.8120  -33.7400 C   0  0  0  0  0  0  0  0  0  0  0  0
   -0.0960   19.9060  -32.9480 C   0  0  0  0  0  0  0  0  0  0  0  0
   -0.5220   19.6340  -31.6460 C   0  0  0  0  0  0  0  0  0  0  0  0
   -1.6600   20.2660  -31.1320 C   0  0  0  0  0  0  0  0  0  0  0  0
   -6.8770   23.6060  -32.0710 C   0  0  0  0  0  0  0  0  0  0  0  0
   -7.7380   22.6750  -32.5600 N   0  0  0  0  0  0  0  0  0  0  0  0
   -6.6010   17.8980  -33.0270 C   0  0  0  0  0  0  0  0  0  0  0  0
   -7.2270   16.6820  -33.3280 C   0  0  0  0  0  0  0  0  0  0  0  0
   -6.3430   15.7530  -33.8880 C   0  0  0  0  0  0  0  0  0  0  0  0
   -6.6540   14.4540  -34.2950 C   0  0  0  0  0  0  0  0  0  0  0  0
   -5.6260   13.6690  -34.8420 C   0  0  0  0  0  0  0  0  0  0  0  0
   -4.3600   14.1700  -34.9630 N   0  0  0  0  0  0  0  0  0  0  0  0
   -4.0450   15.4350  -34.5610 C   0  0  0  0  0  0  0  0  0  0  0  0
   -5.0520   16.2270  -34.0190 C   0  0  0  0  0  0  0  0  0  0  0  0
   -4.9600   17.7980  -33.4410 S   0  0  0  0  0  0  0  0  0  0  0  0
   -8.4530   19.6520  -34.0950 H   0  0  0  0  0  0  0  0  0  0  0  0
   -9.9388   21.0945  -33.0436 H   0  0  0  0  0  0  0  0  0  0  0  0
   -9.6967   20.1247  -31.5522 H   0  0  0  0  0  0  0  0  0  0  0  0
   -8.7683   21.2073  -29.6879 H   0  0  0  0  0  0  0  0  0  0  0  0
   -7.1863   22.9007  -28.7472 H   0  0  0  0  0  0  0  0  0  0  0  0
   -4.3252   25.1615  -27.4616 H   0  0  0  0  0  0  0  0  0  0  0  0
   -2.6850   23.9368  -26.0542 H   0  0  0  0  0  0  0  0  0  0  0  0
   -1.5936   21.8732  -26.9162 H   0  0  0  0  0  0  0  0  0  0  0  0
   -2.1090   21.0476  -29.2017 H   0  0  0  0  0  0  0  0  0  0  0  0
   -2.4875   22.1787  -33.8474 H   0  0  0  0  0  0  0  0  0  0  0  0
   -0.4775   21.0182  -34.7691 H   0  0  0  0  0  0  0  0  0  0  0  0
    0.7985   19.4075  -33.3499 H   0  0  0  0  0  0  0  0  0  0  0  0
    0.0383   18.9213  -31.0230 H   0  0  0  0  0  0  0  0  0  0  0  0
   -1.9987   20.0421  -30.1097 H   0  0  0  0  0  0  0  0  0  0  0  0
   -6.3785   24.3080  -32.7556 H   0  0  0  0  0  0  0  0  0  0  0  0
   -8.2927   16.4800  -33.1450 H   0  0  0  0  0  0  0  0  0  0  0  0
   -7.6745   14.0571  -34.1902 H   0  0  0  0  0  0  0  0  0  0  0  0
   -5.8412   12.6431  -35.1756 H   0  0  0  0  0  0  0  0  0  0  0  0
   -3.0194   15.8195  -34.6630 H   0  0  0  0  0  0  0  0  0  0  0  0
  1  2  2  0
  2  3  1  0
  3  4  1  0
  4  5  1  0
  5  6  2  0
  6  7  1  0
  7  8  2  0
  8  9  1  0
  9 10  2  0
  9 11  2  0
  9 12  1  0
 12 13  2  0
 13 14  1  0
 14 15  2  0
 15 16  1  0
 16 17  2  0
 17 18  1  0
 18 19  2  0
 18 20  2  0
 18 21  1  0
 21 22  2  0
 22 23  1  0
 23 24  2  0
 24 25  1  0
 25 26  2  0
  8 27  1  0
 27 28  2  0
  2 29  1  0
 29 30  2  0
 30 31  1  0
 31 32  2  0
 32 33  1  0
 33 34  2  0
 34 35  1  0
 35 36  2  0
 36 37  1  0
 28  5  1  0
 37 29  1  0
 17 12  1  0
 26 21  1  0
 36 31  1  0
  3 38  1  0
  4 39  1  0
  4 40  1  0
  6 41  1  0
  7 42  1  0
 13 43  1  0
 14 44  1  0
 15 45  1  0
 16 46  1  0
 22 47  1  0
 23 48  1  0
 24 49  1  0
 25 50  1  0
 26 51  1  0
 27 52  1  0
 30 53  1  0
 32 54  1  0
 33 55  1  0
 35 56  1  0
M  END
>  <UniqueID>  (18) 
16

>  <SMILES>  (18) 
O=C(NCc1ccc(S(=O)(=O)c2ccccc2S(=O)(=O)c2ccccc2)cn1)c1cc2ccncc2s1

>  <Energy>  (18) 
96.86072644937585

>  <Genealogy>  (18) 
O=C(NCc1ccc(S(=O)(=O)c2ccccc2S(=O)(=O)c2ccccc2)cn1)c1cc2ccncc2s1 (3D coordinates assigned)
O=C(NCc1ccc(S(=O)(=O)c2ccccc2S(=O)(=O)c2ccccc2)cn1)c1cc2ccncc2s1 (optimized conformer: 96.86072644937585 kcal/mol)

>  <smiles>  (18) 
O=C(NCc1ccc(S(=O)(=O)c2ccccc2S(=O)(=O)c2ccccc2)cn1)c1cc2ccncc2s1

>  <score_type>  (18) 
oracle

>  <origin>  (18) 
adgpu

>  <m_score__min__energy>  (18) 
-11.289999999999999

>  <m_primary>  (18) 
energy

$$$$
18:0
     RDKit          3D

 66 70  0  0  0  0  0  0  0  0999 V2000
   -1.8020   24.3590  -29.3040 C   0  0  0  0  0  0  0  0  0  0  0  0
   -3.1410   24.2220  -29.9500 C   0  0  0  0  0  0  0  0  0  0  0  0
   -3.8030   25.2300  -30.4680 O   0  0  0  0  0  0  0  0  0  0  0  0
   -4.9440   24.8420  -30.9580 N   0  0  0  0  0  0  0  0  0  0  0  0
   -5.0510   23.5140  -30.7400 C   0  0  0  0  0  0  0  0  0  0  0  0
   -6.2150   22.7210  -31.2020 C   0  0  0  0  0  0  0  0  0  0  0  0
   -6.1560   21.9270  -32.3620 C   0  0  0  0  0  0  0  0  0  0  0  0
   -7.2640   21.1710  -32.7600 C   0  0  0  0  0  0  0  0  0  0  0  0
   -8.4360   21.1910  -32.0000 C   0  0  0  0  0  0  0  0  0  0  0  0
   -8.4990   21.9620  -30.8370 C   0  0  0  0  0  0  0  0  0  0  0  0
   -7.3940   22.7180  -30.4350 C   0  0  0  0  0  0  0  0  0  0  0  0
   -3.8980   23.0710  -30.0990 C   0  0  0  0  0  0  0  0  0  0  0  0
   -3.5210   21.6710  -29.7030 C   0  0  0  0  0  0  0  0  0  0  0  0
   -3.8090   20.7710  -30.7680 O   0  0  0  0  0  0  0  0  0  0  0  0
   -3.0150   20.6000  -31.9080 C   0  0  0  0  0  0  0  0  0  0  0  0
   -1.8020   21.2070  -32.1760 C   0  0  0  0  0  0  0  0  0  0  0  0
   -1.4850   20.7690  -33.4500 C   0  0  0  0  0  0  0  0  0  0  0  0
   -0.2780   21.1440  -34.2140 C   0  0  0  0  0  0  0  0  0  0  0  0
   -0.2180   22.2950  -34.7320 O   0  0  0  0  0  0  0  0  0  0  0  0
    0.8030   20.2010  -34.4120 N   0  0  0  0  0  0  0  0  0  0  0  0
    1.8690   20.8200  -35.2340 C   0  0  0  0  0  0  0  0  0  0  0  0
    3.2010   20.0440  -35.1410 C   0  0  0  0  0  0  0  0  0  0  0  0
    2.9680   18.6580  -34.6950 N   0  0  0  0  0  0  0  0  0  0  0  0
    4.2230   17.8750  -34.7770 C   0  0  0  0  0  0  0  0  0  0  0  0
    4.4350   17.2900  -36.1770 C   0  0  0  0  0  0  0  0  0  0  0  0
    3.2560   17.3800  -36.9270 O   0  0  0  0  0  0  0  0  0  0  0  0
    2.4040   18.6430  -33.3230 C   0  0  0  0  0  0  0  0  0  0  0  0
    1.3380   19.7420  -33.1160 C   0  0  0  0  0  0  0  0  0  0  0  0
   -2.4520   19.9480  -33.9110 N   0  0  0  0  0  0  0  0  0  0  0  0
   -3.3730   19.8420  -32.9660 N   0  0  0  0  0  0  0  0  0  0  0  0
   -4.5540   19.0320  -33.0980 C   0  0  0  0  0  0  0  0  0  0  0  0
   -4.9440   18.5620  -34.3620 C   0  0  0  0  0  0  0  0  0  0  0  0
   -6.0880   17.7700  -34.5000 C   0  0  0  0  0  0  0  0  0  0  0  0
   -6.8450   17.4310  -33.3760 C   0  0  0  0  0  0  0  0  0  0  0  0
   -6.4550   17.8750  -32.1110 C   0  0  0  0  0  0  0  0  0  0  0  0
   -5.3090   18.6650  -31.9680 C   0  0  0  0  0  0  0  0  0  0  0  0
   -1.9196   24.3470  -28.2104 H   0  0  0  0  0  0  0  0  0  0  0  0
   -1.1585   23.5220  -29.6128 H   0  0  0  0  0  0  0  0  0  0  0  0
   -1.3414   25.3090  -29.6128 H   0  0  0  0  0  0  0  0  0  0  0  0
   -5.2330   21.9004  -32.9598 H   0  0  0  0  0  0  0  0  0  0  0  0
   -7.2122   20.5597  -33.6731 H   0  0  0  0  0  0  0  0  0  0  0  0
   -9.3081   20.6003  -32.3171 H   0  0  0  0  0  0  0  0  0  0  0  0
   -9.4202   21.9743  -30.2360 H   0  0  0  0  0  0  0  0  0  0  0  0
   -7.4469   23.3147  -29.5124 H   0  0  0  0  0  0  0  0  0  0  0  0
   -2.4455   21.6337  -29.4750 H   0  0  0  0  0  0  0  0  0  0  0  0
   -4.1002   21.3778  -28.8150 H   0  0  0  0  0  0  0  0  0  0  0  0
   -1.2234   21.8813  -31.5274 H   0  0  0  0  0  0  0  0  0  0  0  0
    0.4400   19.3610  -34.9210 H   0  0  0  0  0  0  0  0  0  0  0  0
    1.5417   20.8376  -36.2840 H   0  0  0  0  0  0  0  0  0  0  0  0
    2.0428   21.8369  -34.8522 H   0  0  0  0  0  0  0  0  0  0  0  0
    3.6797   20.0288  -36.1313 H   0  0  0  0  0  0  0  0  0  0  0  0
    3.8517   20.5457  -34.4096 H   0  0  0  0  0  0  0  0  0  0  0  0
    5.0703   18.5329  -34.5334 H   0  0  0  0  0  0  0  0  0  0  0  0
    4.1541   17.0407  -34.0634 H   0  0  0  0  0  0  0  0  0  0  0  0
    5.2327   17.8501  -36.6869 H   0  0  0  0  0  0  0  0  0  0  0  0
    4.7179   16.2312  -36.0823 H   0  0  0  0  0  0  0  0  0  0  0  0
    2.5690   17.7520  -36.3160 H   0  0  0  0  0  0  0  0  0  0  0  0
    1.9407   17.6620  -33.1415 H   0  0  0  0  0  0  0  0  0  0  0  0
    3.2267   18.8348  -32.6185 H   0  0  0  0  0  0  0  0  0  0  0  0
    0.5151   19.3369  -32.5088 H   0  0  0  0  0  0  0  0  0  0  0  0
    1.8057   20.5961  -32.6043 H   0  0  0  0  0  0  0  0  0  0  0  0
   -4.3461   18.8183  -35.2490 H   0  0  0  0  0  0  0  0  0  0  0  0
   -6.3923   17.4134  -35.4951 H   0  0  0  0  0  0  0  0  0  0  0  0
   -7.7488   16.8140  -33.4876 H   0  0  0  0  0  0  0  0  0  0  0  0
   -7.0492   17.6035  -31.2260 H   0  0  0  0  0  0  0  0  0  0  0  0
   -4.9967   19.0008  -30.9681 H   0  0  0  0  0  0  0  0  0  0  0  0
  1  2  1  0
  2  3  1  0
  3  4  1  0
  4  5  2  0
  5  6  1  0
  6  7  2  0
  7  8  1  0
  8  9  2  0
  9 10  1  0
 10 11  2  0
  5 12  1  0
 12 13  1  0
 13 14  1  0
 14 15  1  0
 15 16  2  0
 16 17  1  0
 17 18  1  0
 18 19  2  0
 18 20  1  0
 20 21  1  0
 21 22  1  0
 22 23  1  0
 23 24  1  0
 24 25  1  0
 25 26  1  0
 23 27  1  0
 27 28  1  0
 17 29  2  0
 29 30  1  0
 30 31  1  0
 31 32  2  0
 32 33  1  0
 33 34  2  0
 34 35  1  0
 35 36  2  0
 12  2  2  0
 30 15  1  0
 36 31  1  0
 11  6  1  0
 28 20  1  0
  1 37  1  0
  1 38  1  0
  1 39  1  0
  7 40  1  0
  8 41  1  0
  9 42  1  0
 10 43  1  0
 11 44  1  0
 13 45  1  0
 13 46  1  0
 16 47  1  0
 20 48  1  0
 21 49  1  0
 21 50  1  0
 22 51  1  0
 22 52  1  0
 24 53  1  0
 24 54  1  0
 25 55  1  0
 25 56  1  0
 26 57  1  0
 27 58  1  0
 27 59  1  0
 28 60  1  0
 28 61  1  0
 32 62  1  0
 33 63  1  0
 34 64  1  0
 35 65  1  0
 36 66  1  0
M  CHG  1  20   1
M  END
>  <UniqueID>  (19) 
17

>  <SMILES>  (19) 
Cc1onc(-c2ccccc2)c1COc1cc(C(=O)[NH+]2CCN(CCO)CC2)nn1-c1ccccc1

>  <Energy>  (19) 
147.27911517633103

>  <Genealogy>  (19) 
Cc1onc(-c2ccccc2)c1COc1cc(C(=O)[NH+]2CCN(CCO)CC2)nn1-c1ccccc1 (protonated)
Cc1onc(-c2ccccc2)c1COc1cc(C(=O)[NH+]2CCN(CCO)CC2)nn1-c1ccccc1 (3D coordinates assigned)
Cc1onc(-c2ccccc2)c1COc1cc(C(=O)[NH+]2CCN(CCO)CC2)nn1-c1ccccc1 (nonaromatic ring conformer: 147.27911517633103 kcal/mol)

>  <smiles>  (19) 
Cc1onc(-c2ccccc2)c1COc1cc(C(=O)N2CCN(CCO)CC2)nn1-c1ccccc1

>  <score_type>  (19) 
oracle

>  <origin>  (19) 
adgpu

>  <m_score__min__energy>  (19) 
-9.7699999999999996

>  <m_primary>  (19) 
energy

$$$$
19:0
     RDKit          3D

 64 68  0  0  0  0  0  0  0  0999 V2000
   -0.1189   28.9036  -26.1632 H   0  0  0  0  0  0  0  0  0  0  0  0
    0.0140   27.8530  -26.4610 C   0  0  0  0  0  0  0  0  0  0  0  0
    1.2420   27.2790  -26.3930 N   0  0  0  0  0  0  0  0  0  0  0  0
    1.4690   25.9780  -26.7440 C   0  0  0  0  0  0  0  0  0  0  0  0
    2.8110   25.4360  -26.6310 N   0  0  0  0  0  0  0  0  0  0  0  0
    3.3460   25.2210  -25.2720 C   0  0  0  0  0  0  0  0  0  0  0  0
    3.2208   26.1480  -24.6932 H   0  0  0  0  0  0  0  0  0  0  0  0
    2.7899   24.3847  -24.8232 H   0  0  0  0  0  0  0  0  0  0  0  0
    4.8270   24.8430  -25.2770 C   0  0  0  0  0  0  0  0  0  0  0  0
    5.4285   25.7403  -25.4845 H   0  0  0  0  0  0  0  0  0  0  0  0
    5.0906   24.4277  -24.2931 H   0  0  0  0  0  0  0  0  0  0  0  0
    5.0870   23.8730  -26.2640 O   0  0  0  0  0  0  0  0  0  0  0  0
    4.9450   24.4690  -27.5330 C   0  0  0  0  0  0  0  0  0  0  0  0
    5.5695   25.3735  -27.5754 H   0  0  0  0  0  0  0  0  0  0  0  0
    5.2603   23.7406  -28.2946 H   0  0  0  0  0  0  0  0  0  0  0  0
    3.4870   24.8560  -27.8100 C   0  0  0  0  0  0  0  0  0  0  0  0
    3.4690   25.5958  -28.6239 H   0  0  0  0  0  0  0  0  0  0  0  0
    2.9474   23.9362  -28.0800 H   0  0  0  0  0  0  0  0  0  0  0  0
    0.3790   25.2040  -27.2020 C   0  0  0  0  0  0  0  0  0  0  0  0
    0.5338   24.1541  -27.4915 H   0  0  0  0  0  0  0  0  0  0  0  0
   -0.9020   25.7740  -27.2880 C   0  0  0  0  0  0  0  0  0  0  0  0
   -2.0400   24.9800  -27.8060 C   0  0  0  0  0  0  0  0  0  0  0  0
   -2.8130   24.3990  -26.9940 O   0  0  0  0  0  0  0  0  0  0  0  0
   -2.2960   24.8970  -29.2170 N   0  0  0  0  0  0  0  0  0  0  0  0
   -1.9900   25.6920  -29.8230 H   0  0  0  0  0  0  0  0  0  0  0  0
   -3.1060   23.8680  -29.8060 C   0  0  0  0  0  0  0  0  0  0  0  0
   -2.5450   22.6130  -30.0710 C   0  0  0  0  0  0  0  0  0  0  0  0
   -1.4880   22.4253  -29.8311 H   0  0  0  0  0  0  0  0  0  0  0  0
   -3.3200   21.5960  -30.6390 C   0  0  0  0  0  0  0  0  0  0  0  0
   -2.8598   20.6258  -30.8774 H   0  0  0  0  0  0  0  0  0  0  0  0
   -4.6860   21.8080  -30.9070 C   0  0  0  0  0  0  0  0  0  0  0  0
   -5.5230   20.8070  -31.5140 N   0  0  0  0  0  0  0  0  0  0  0  0
   -6.8240   20.8000  -31.6190 C   0  0  0  0  0  0  0  0  0  0  0  0
   -7.5690   21.8580  -31.1900 N   0  0  0  0  0  0  0  0  0  0  0  0
   -8.9260   21.8740  -31.2700 C   0  0  0  0  0  0  0  0  0  0  0  0
   -9.4874   22.7514  -30.9164 H   0  0  0  0  0  0  0  0  0  0  0  0
   -9.6060   20.7790  -31.8000 C   0  0  0  0  0  0  0  0  0  0  0  0
  -10.7048   20.7772  -31.8503 H   0  0  0  0  0  0  0  0  0  0  0  0
   -8.8760   19.6850  -32.2660 C   0  0  0  0  0  0  0  0  0  0  0  0
   -9.4017   18.8153  -32.6871 H   0  0  0  0  0  0  0  0  0  0  0  0
   -7.4740   19.6890  -32.2000 C   0  0  0  0  0  0  0  0  0  0  0  0
   -6.7190   18.5370  -32.7490 C   0  0  0  0  0  0  0  0  0  0  0  0
   -6.5330   17.3840  -31.9680 C   0  0  0  0  0  0  0  0  0  0  0  0
   -6.9192   17.3525  -30.9385 H   0  0  0  0  0  0  0  0  0  0  0  0
   -5.8600   16.2770  -32.4920 C   0  0  0  0  0  0  0  0  0  0  0  0
   -5.7122   15.3812  -31.8710 H   0  0  0  0  0  0  0  0  0  0  0  0
   -5.3730   16.3040  -33.8050 C   0  0  0  0  0  0  0  0  0  0  0  0
   -4.5600   14.8870  -34.4630 S   0  0  0  0  0  0  0  0  0  0  0  0
   -5.5720   13.8950  -34.9690 O   0  0  0  0  0  0  0  0  0  0  0  0
   -3.6730   15.3030  -35.6060 O   0  0  0  0  0  0  0  0  0  0  0  0
   -3.5830   14.1250  -33.1870 C   0  0  0  0  0  0  0  0  0  0  0  0
   -3.9683   14.4255  -32.2015 H   0  0  0  0  0  0  0  0  0  0  0  0
   -3.6406   13.0309  -33.2852 H   0  0  0  0  0  0  0  0  0  0  0  0
   -2.5359   14.4473  -33.2852 H   0  0  0  0  0  0  0  0  0  0  0  0
   -5.5640   17.4490  -34.5930 C   0  0  0  0  0  0  0  0  0  0  0  0
   -5.1883   17.4714  -35.6266 H   0  0  0  0  0  0  0  0  0  0  0  0
   -6.2300   18.5620  -34.0700 C   0  0  0  0  0  0  0  0  0  0  0  0
   -6.4320   19.6460  -34.8620 F   0  0  0  0  0  0  0  0  0  0  0  0
   -5.2390   23.0710  -30.6540 C   0  0  0  0  0  0  0  0  0  0  0  0
   -6.2950   23.2620  -30.8955 H   0  0  0  0  0  0  0  0  0  0  0  0
   -4.4610   24.0890  -30.0980 C   0  0  0  0  0  0  0  0  0  0  0  0
   -4.9128   25.0696  -29.8877 H   0  0  0  0  0  0  0  0  0  0  0  0
   -1.0790   27.1120  -26.9080 C   0  0  0  0  0  0  0  0  0  0  0  0
   -2.0754   27.5748  -26.9623 H   0  0  0  0  0  0  0  0  0  0  0  0
  1  2  1  0
  2  3  2  0
  3  4  1  0
  4  5  1  0
  5  6  1  0
  6  7  1  0
  6  8  1  0
  6  9  1  0
  9 10  1  0
  9 11  1  0
  9 12  1  0
 12 13  1  0
 13 14  1  0
 13 15  1  0
 13 16  1  0
 16 17  1  0
 16 18  1  0
  4 19  2  0
 19 20  1  0
 19 21  1  0
 21 22  1  0
 22 23  2  0
 22 24  1  0
 24 25  1  0
 24 26  1  0
 26 27  2  0
 27 28  1  0
 27 29  1  0
 29 30  1  0
 29 31  2  0
 31 32  1  0
 32 33  2  0
 33 34  1  0
 34 35  1  0
 35 36  1  0
 35 37  2  0
 37 38  1  0
 37 39  1  0
 39 40  1  0
 39 41  2  0
 41 42  1  0
 42 43  2  0
 43 44  1  0
 43 45  1  0
 45 46  1  0
 45 47  2  0
 47 48  1  0
 48 49  2  0
 48 50  2  0
 48 51  1  0
 51 52  1  0
 51 53  1  0
 51 54  1  0
 47 55  1  0
 55 56  1  0
 55 57  2  0
 57 58  1  0
 31 59  1  0
 59 60  1  0
 59 61  2  0
 61 62  1  0
 21 63  2  0
 63 64  1  0
 63  2  1  0
 16  5  1  0
 61 26  1  0
 41 33  1  0
 57 42  1  0
M  CHG  1  34  -1
M  END
>  <UniqueID>  (20) 
18

>  <SMILES>  (20) 
CS(=O)(=O)c1ccc(-c2ccc[n-]/c2=N\c2ccc(NC(=O)c3ccnc(N4CCOCC4)c3)cc2)c(F)c1

>  <Energy>  (20) 
94.00203142178768

>  <Genealogy>  (20) 
CS(=O)(=O)c1ccc(-c2ccc[n-]c2=Nc2ccc(NC(=O)c3ccnc(N4CCOCC4)c3)cc2)c(F)c1 (protonated)
CS(=O)(=O)c1ccc(-c2ccc[n-]/c2=N\c2ccc(NC(=O)c3ccnc(N4CCOCC4)c3)cc2)c(F)c1 (cis-trans isomerization)
CS(=O)(=O)c1ccc(-c2ccc[n-]/c2=N\c2ccc(NC(=O)c3ccnc(N4CCOCC4)c3)cc2)c(F)c1 (3D coordinates assigned)
CS(=O)(=O)c1ccc(-c2ccc[n-]/c2=N\c2ccc(NC(=O)c3ccnc(N4CCOCC4)c3)cc2)c(F)c1 (nonaromatic ring conformer: 94.00203142178768 kcal/mol)

>  <smiles>  (20) 
CS(=O)(=O)c1ccc(-c2ccc[nH]c2=Nc2ccc(NC(=O)c3ccnc(N4CCOCC4)c3)cc2)c(F)c1

>  <score_type>  (20) 
oracle

>  <origin>  (20) 
adgpu

>  <m_score__min__energy>  (20) 
-10.550000000000001

>  <m_primary>  (20) 
energy

$$$$
20:0
     RDKit          3D

 38 39  0  0  0  0  0  0  0  0999 V2000
   -6.4930   19.5350  -34.1060 C   0  0  0  0  0  0  0  0  0  0  0  0
   -7.2130   19.8890  -32.8820 N   0  0  0  0  0  0  0  0  0  0  0  0
   -8.0940   18.8900  -32.2790 C   0  0  0  0  0  0  0  0  0  0  0  0
   -6.7270   20.9790  -32.0820 C   0  0  0  0  0  0  0  0  0  0  0  0
   -5.3490   21.2440  -32.0480 C   0  0  0  0  0  0  0  0  0  0  0  0
   -4.8530   22.3370  -31.3370 C   0  0  0  0  0  0  0  0  0  0  0  0
   -5.7270   23.1830  -30.6490 C   0  0  0  0  0  0  0  0  0  0  0  0
   -5.0840   24.5750  -29.7790 S   0  0  0  0  0  0  0  0  0  0  0  0
   -3.9070   25.1480  -30.5210 O   0  0  0  0  0  0  0  0  0  0  0  0
   -6.1560   25.6250  -29.6990 O   0  0  0  0  0  0  0  0  0  0  0  0
   -4.6040   24.0950  -28.1660 N   0  0  0  0  0  0  0  0  0  0  0  0
   -4.5520   22.6320  -28.0390 C   0  0  0  0  0  0  0  0  0  0  0  0
   -3.1230   22.1950  -28.3240 C   0  0  0  0  0  0  0  0  0  0  0  0
   -2.2770   23.4510  -28.2030 C   0  0  0  0  0  0  0  0  0  0  0  0
   -3.2500   24.5700  -27.8550 C   0  0  0  0  0  0  0  0  0  0  0  0
   -7.1030   22.9280  -30.6740 C   0  0  0  0  0  0  0  0  0  0  0  0
   -7.6190   21.8220  -31.3770 C   0  0  0  0  0  0  0  0  0  0  0  0
   -9.0350   21.5580  -31.3470 N   0  0  0  0  0  0  0  0  0  0  0  0
   -9.6770   21.4410  -32.4110 O   0  0  0  0  0  0  0  0  0  0  0  0
   -9.7250   21.5520  -30.1560 O   0  0  0  0  0  0  0  0  0  0  0  0
   -5.5342   19.0636  -33.8441 H   0  0  0  0  0  0  0  0  0  0  0  0
   -7.0981   18.8317  -34.6969 H   0  0  0  0  0  0  0  0  0  0  0  0
   -6.3055   20.4437  -34.6969 H   0  0  0  0  0  0  0  0  0  0  0  0
   -8.0320   18.9603  -31.1830 H   0  0  0  0  0  0  0  0  0  0  0  0
   -9.1300   19.0731  -32.6002 H   0  0  0  0  0  0  0  0  0  0  0  0
   -7.7828   17.8850  -32.6002 H   0  0  0  0  0  0  0  0  0  0  0  0
   -4.6537   20.5837  -32.5870 H   0  0  0  0  0  0  0  0  0  0  0  0
   -3.7709   22.5335  -31.3179 H   0  0  0  0  0  0  0  0  0  0  0  0
   -5.2930   24.4930  -27.4840 H   0  0  0  0  0  0  0  0  0  0  0  0
   -4.8391   22.3337  -27.0199 H   0  0  0  0  0  0  0  0  0  0  0  0
   -5.2487   22.1583  -28.7462 H   0  0  0  0  0  0  0  0  0  0  0  0
   -2.7987   21.4420  -27.5906 H   0  0  0  0  0  0  0  0  0  0  0  0
   -3.0295   21.7370  -29.3197 H   0  0  0  0  0  0  0  0  0  0  0  0
   -1.5270   23.3333  -27.4070 H   0  0  0  0  0  0  0  0  0  0  0  0
   -1.7292   23.6633  -29.1330 H   0  0  0  0  0  0  0  0  0  0  0  0
   -3.1746   24.8131  -26.7849 H   0  0  0  0  0  0  0  0  0  0  0  0
   -3.0172   25.4771  -28.4320 H   0  0  0  0  0  0  0  0  0  0  0  0
   -7.7898   23.5996  -30.1380 H   0  0  0  0  0  0  0  0  0  0  0  0
  1  2  1  0
  2  3  1  0
  2  4  1  0
  4  5  2  0
  5  6  1  0
  6  7  2  0
  7  8  1  0
  8  9  2  0
  8 10  2  0
  8 11  1  0
 11 12  1  0
 12 13  1  0
 13 14  1  0
 14 15  1  0
  7 16  1  0
 16 17  2  0
 17 18  1  0
 18 19  2  0
 18 20  1  0
 17  4  1  0
 15 11  1  0
  1 21  1  0
  1 22  1  0
  1 23  1  0
  3 24  1  0
  3 25  1  0
  3 26  1  0
  5 27  1  0
  6 28  1  0
 11 29  1  0
 12 30  1  0
 12 31  1  0
 13 32  1  0
 13 33  1  0
 14 34  1  0
 14 35  1  0
 15 36  1  0
 15 37  1  0
 16 38  1  0
M  CHG  3  11   1  18   1  20  -1
M  END
>  <UniqueID>  (21) 
19

>  <SMILES>  (21) 
CN(C)c1ccc(S(=O)(=O)[NH+]2CCCC2)cc1[N+](=O)[O-]

>  <Energy>  (21) 
45.24961169479533

>  <Genealogy>  (21) 
CN(C)c1ccc(S(=O)(=O)[NH+]2CCCC2)cc1[N+](=O)[O-] (protonated)
CN(C)c1ccc(S(=O)(=O)[NH+]2CCCC2)cc1[N+](=O)[O-] (3D coordinates assigned)
CN(C)c1ccc(S(=O)(=O)[NH+]2CCCC2)cc1[N+](=O)[O-] (nonaromatic ring conformer: 45.24961169479533 kcal/mol)

>  <smiles>  (21) 
CN(C)c1ccc(S(=O)(=O)N2CCCC2)cc1[N+](=O)[O-]

>  <score_type>  (21) 
oracle

>  <origin>  (21) 
adgpu

>  <m_score__min__energy>  (21) 
-7.0999999999999996

>  <m_primary>  (21) 
energy

$$$$
21:0
     RDKit          3D

 45 48  0  0  0  0  0  0  0  0999 V2000
   -1.2460   23.2290  -29.6910 C   0  0  0  0  0  0  0  0  0  0  0  0
   -2.5800   23.2510  -30.3030 N   0  0  0  0  0  0  0  0  0  0  0  0
   -3.4250   24.3230  -30.1380 C   0  0  0  0  0  0  0  0  0  0  0  0
   -3.0890   25.2990  -29.4140 O   0  0  0  0  0  0  0  0  0  0  0  0
   -4.6380   24.3510  -30.7690 N   0  0  0  0  0  0  0  0  0  0  0  0
   -5.0540   23.3340  -31.5720 C   0  0  0  0  0  0  0  0  0  0  0  0
   -6.1610   23.4220  -32.1580 O   0  0  0  0  0  0  0  0  0  0  0  0
   -4.2120   22.2310  -31.7270 C   0  0  0  0  0  0  0  0  0  0  0  0
   -2.9940   22.2390  -31.1180 C   0  0  0  0  0  0  0  0  0  0  0  0
   -2.2710   21.1690  -31.4850 N   0  0  0  0  0  0  0  0  0  0  0  0
   -3.1090   20.5070  -32.3200 C   0  0  0  0  0  0  0  0  0  0  0  0
   -2.4980   18.9920  -33.3230 Br  0  0  0  0  0  0  0  0  0  0  0  0
   -4.3320   21.0970  -32.4600 N   0  0  0  0  0  0  0  0  0  0  0  0
   -5.3630   20.7010  -33.4350 C   0  0  0  0  0  0  0  0  0  0  0  0
   -6.5820   20.0160  -32.8300 C   0  0  0  0  0  0  0  0  0  0  0  0
   -7.4860   20.8430  -32.1280 C   0  0  0  0  0  0  0  0  0  0  0  0
   -8.6580   20.3330  -31.5770 C   0  0  0  0  0  0  0  0  0  0  0  0
   -8.9830   18.9950  -31.7520 C   0  0  0  0  0  0  0  0  0  0  0  0
   -8.1410   18.1650  -32.4880 C   0  0  0  0  0  0  0  0  0  0  0  0
   -6.9360   18.6430  -33.0360 C   0  0  0  0  0  0  0  0  0  0  0  0
   -6.0250   17.4910  -34.0490 S   0  0  0  0  0  0  0  0  0  0  0  0
   -5.4140   18.1790  -35.2300 O   0  0  0  0  0  0  0  0  0  0  0  0
   -7.0070   16.4890  -34.5910 O   0  0  0  0  0  0  0  0  0  0  0  0
   -4.7590   16.6280  -33.1980 N   0  0  0  0  0  0  0  0  0  0  0  0
   -5.2700   15.7470  -32.1530 C   0  0  0  0  0  0  0  0  0  0  0  0
   -4.2420   14.6380  -31.9720 C   0  0  0  0  0  0  0  0  0  0  0  0
   -3.3470   14.7090  -33.1990 C   0  0  0  0  0  0  0  0  0  0  0  0
   -3.9700   15.7760  -34.0830 C   0  0  0  0  0  0  0  0  0  0  0  0
   -1.3451   23.2306  -28.5955 H   0  0  0  0  0  0  0  0  0  0  0  0
   -0.7114   22.3219  -30.0094 H   0  0  0  0  0  0  0  0  0  0  0  0
   -0.6818   24.1180  -30.0094 H   0  0  0  0  0  0  0  0  0  0  0  0
   -5.7037   21.6057  -33.9599 H   0  0  0  0  0  0  0  0  0  0  0  0
   -4.8924   19.9644  -34.1028 H   0  0  0  0  0  0  0  0  0  0  0  0
   -7.2591   21.9133  -32.0142 H   0  0  0  0  0  0  0  0  0  0  0  0
   -9.3270   20.9906  -31.0026 H   0  0  0  0  0  0  0  0  0  0  0  0
   -9.9052   18.5904  -31.3096 H   0  0  0  0  0  0  0  0  0  0  0  0
   -8.4238   17.1135  -32.6443 H   0  0  0  0  0  0  0  0  0  0  0  0
   -5.3939   16.3057  -31.2136 H   0  0  0  0  0  0  0  0  0  0  0  0
   -6.2516   15.3345  -32.4292 H   0  0  0  0  0  0  0  0  0  0  0  0
   -3.6541   14.8044  -31.0573 H   0  0  0  0  0  0  0  0  0  0  0  0
   -4.7191   13.6519  -31.8716 H   0  0  0  0  0  0  0  0  0  0  0  0
   -2.3232   14.9931  -32.9141 H   0  0  0  0  0  0  0  0  0  0  0  0
   -3.2748   13.7391  -33.7128 H   0  0  0  0  0  0  0  0  0  0  0  0
   -3.1854   16.3653  -34.5801 H   0  0  0  0  0  0  0  0  0  0  0  0
   -4.5941   15.3296  -34.8711 H   0  0  0  0  0  0  0  0  0  0  0  0
  1  2  1  0
  2  3  1  0
  3  4  2  0
  3  5  1  0
  5  6  1  0
  6  7  2  0
  6  8  1  0
  8  9  2  0
  9 10  1  0
 10 11  2  0
 11 12  1  0
 11 13  1  0
 13 14  1  0
 14 15  1  0
 15 16  2  0
 16 17  1  0
 17 18  2  0
 18 19  1  0
 19 20  2  0
 20 21  1  0
 21 22  2  0
 21 23  2  0
 21 24  1  0
 24 25  1  0
 25 26  1  0
 26 27  1  0
 27 28  1  0
  9  2  1  0
 20 15  1  0
 28 24  1  0
 13  8  1  0
  1 29  1  0
  1 30  1  0
  1 31  1  0
 14 32  1  0
 14 33  1  0
 16 34  1  0
 17 35  1  0
 18 36  1  0
 19 37  1  0
 25 38  1  0
 25 39  1  0
 26 40  1  0
 26 41  1  0
 27 42  1  0
 27 43  1  0
 28 44  1  0
 28 45  1  0
M  CHG  1   5  -1
M  END
>  <UniqueID>  (22) 
20

>  <SMILES>  (22) 
Cn1c(=O)[n-]c(=O)c2c1nc(Br)n2Cc1ccccc1S(=O)(=O)N1CCCC1

>  <Energy>  (22) 
102.15821618736646

>  <Genealogy>  (22) 
Cn1c(=O)[n-]c(=O)c2c1nc(Br)n2Cc1ccccc1S(=O)(=O)N1CCCC1 (protonated)
Cn1c(=O)[n-]c(=O)c2c1nc(Br)n2Cc1ccccc1S(=O)(=O)N1CCCC1 (3D coordinates assigned)
Cn1c(=O)[n-]c(=O)c2c1nc(Br)n2Cc1ccccc1S(=O)(=O)N1CCCC1 (nonaromatic ring conformer: 102.15821618736646 kcal/mol)

>  <smiles>  (22) 
Cn1c(=O)[nH]c(=O)c2c1nc(Br)n2Cc1ccccc1S(=O)(=O)N1CCCC1

>  <score_type>  (22) 
oracle

>  <origin>  (22) 
adgpu

>  <m_score__min__energy>  (22) 
-10.539999999999999

>  <m_primary>  (22) 
energy

$$$$
22:0
     RDKit          3D

 52 55  0  0  0  0  0  0  0  0999 V2000
   -4.6660   21.6510  -33.1700 O   0  0  0  0  0  0  0  0  0  0  0  0
   -3.6920   21.6770  -32.3680 C   0  0  0  0  0  0  0  0  0  0  0  0
   -3.8630   22.2320  -31.0550 N   0  0  0  0  0  0  0  0  0  0  0  0
   -4.9810   23.0630  -30.7130 C   0  0  0  0  0  0  0  0  0  0  0  0
   -6.2840   22.5390  -30.7640 C   0  0  0  0  0  0  0  0  0  0  0  0
   -7.3840   23.3540  -30.4910 C   0  0  0  0  0  0  0  0  0  0  0  0
   -7.1950   24.7020  -30.1780 C   0  0  0  0  0  0  0  0  0  0  0  0
   -5.9040   25.2350  -30.1260 C   0  0  0  0  0  0  0  0  0  0  0  0
   -4.7910   24.4180  -30.3650 C   0  0  0  0  0  0  0  0  0  0  0  0
   -3.4860   25.0090  -30.3550 N   0  0  0  0  0  0  0  0  0  0  0  0
   -2.5060   24.7540  -29.3430 C   0  0  0  0  0  0  0  0  0  0  0  0
   -1.7410   25.6780  -28.9540 O   0  0  0  0  0  0  0  0  0  0  0  0
   -2.3820   23.4150  -28.7610 C   0  0  0  0  0  0  0  0  0  0  0  0
   -3.1390   22.9090  -27.7220 C   0  0  0  0  0  0  0  0  0  0  0  0
   -2.6580   21.6350  -27.5030 C   0  0  0  0  0  0  0  0  0  0  0  0
   -1.6440   21.4440  -28.4190 C   0  0  0  0  0  0  0  0  0  0  0  0
   -1.5030   22.5230  -29.1540 O   0  0  0  0  0  0  0  0  0  0  0  0
   -2.3810   21.1390  -32.7980 C   0  0  0  0  0  0  0  0  0  0  0  0
   -1.2020   21.5490  -32.1520 C   0  0  0  0  0  0  0  0  0  0  0  0
    0.0370   21.0410  -32.5480 C   0  0  0  0  0  0  0  0  0  0  0  0
    0.1190   20.1150  -33.5970 C   0  0  0  0  0  0  0  0  0  0  0  0
    1.6820   19.4620  -34.0860 S   0  0  0  0  0  0  0  0  0  0  0  0
    1.5500   17.9750  -34.2710 O   0  0  0  0  0  0  0  0  0  0  0  0
    2.6730   19.6950  -32.9790 O   0  0  0  0  0  0  0  0  0  0  0  0
    2.2970   20.1710  -35.5650 N   0  0  0  0  0  0  0  0  0  0  0  0
    3.2260   21.2960  -35.3350 C   0  0  0  0  0  0  0  0  0  0  0  0
    2.5100   22.6540  -35.3010 C   0  0  0  0  0  0  0  0  0  0  0  0
    1.7130   22.8290  -36.4510 O   0  0  0  0  0  0  0  0  0  0  0  0
    0.6790   21.8710  -36.4430 C   0  0  0  0  0  0  0  0  0  0  0  0
    1.2500   20.4500  -36.5650 C   0  0  0  0  0  0  0  0  0  0  0  0
   -1.0550   19.6780  -34.2240 C   0  0  0  0  0  0  0  0  0  0  0  0
   -2.2950   20.1880  -33.8310 C   0  0  0  0  0  0  0  0  0  0  0  0
   -3.1250   22.0740  -30.3360 H   0  0  0  0  0  0  0  0  0  0  0  0
   -6.4380   21.4805  -31.0205 H   0  0  0  0  0  0  0  0  0  0  0  0
   -8.4003   22.9343  -30.5224 H   0  0  0  0  0  0  0  0  0  0  0  0
   -8.0634   25.3450  -29.9721 H   0  0  0  0  0  0  0  0  0  0  0  0
   -5.7610   26.3012  -29.8963 H   0  0  0  0  0  0  0  0  0  0  0  0
   -3.9534   23.4153  -27.1831 H   0  0  0  0  0  0  0  0  0  0  0  0
   -3.0117   20.9158  -26.7496 H   0  0  0  0  0  0  0  0  0  0  0  0
   -1.0447   20.5270  -28.5185 H   0  0  0  0  0  0  0  0  0  0  0  0
   -1.2557   22.2757  -31.3280 H   0  0  0  0  0  0  0  0  0  0  0  0
    0.9528   21.3690  -32.0344 H   0  0  0  0  0  0  0  0  0  0  0  0
    3.7350   21.1416  -34.3721 H   0  0  0  0  0  0  0  0  0  0  0  0
    3.9396   21.3159  -36.1719 H   0  0  0  0  0  0  0  0  0  0  0  0
    1.8697   22.7018  -34.4078 H   0  0  0  0  0  0  0  0  0  0  0  0
    3.2674   23.4512  -35.2724 H   0  0  0  0  0  0  0  0  0  0  0  0
    0.1177   21.9543  -35.5007 H   0  0  0  0  0  0  0  0  0  0  0  0
    0.0173   22.0597  -37.3012 H   0  0  0  0  0  0  0  0  0  0  0  0
    0.4311   19.7285  -36.4281 H   0  0  0  0  0  0  0  0  0  0  0  0
    1.7085   20.3599  -37.5608 H   0  0  0  0  0  0  0  0  0  0  0  0
   -1.0004   18.9303  -35.0290 H   0  0  0  0  0  0  0  0  0  0  0  0
   -3.2110   19.8433  -34.3332 H   0  0  0  0  0  0  0  0  0  0  0  0
  1  2  2  0
  2  3  1  0
  3  4  1  0
  4  5  2  0
  5  6  1  0
  6  7  2  0
  7  8  1  0
  8  9  2  0
  9 10  1  0
 10 11  1  0
 11 12  2  0
 11 13  1  0
 13 14  2  0
 14 15  1  0
 15 16  2  0
 16 17  1  0
  2 18  1  0
 18 19  2  0
 19 20  1  0
 20 21  2  0
 21 22  1  0
 22 23  2  0
 22 24  2  0
 22 25  1  0
 25 26  1  0
 26 27  1  0
 27 28  1  0
 28 29  1  0
 29 30  1  0
 21 31  1  0
 31 32  2  0
  9  4  1  0
 17 13  1  0
 32 18  1  0
 30 25  1  0
  3 33  1  0
  5 34  1  0
  6 35  1  0
  7 36  1  0
  8 37  1  0
 14 38  1  0
 15 39  1  0
 16 40  1  0
 19 41  1  0
 20 42  1  0
 26 43  1  0
 26 44  1  0
 27 45  1  0
 27 46  1  0
 29 47  1  0
 29 48  1  0
 30 49  1  0
 30 50  1  0
 31 51  1  0
 32 52  1  0
M  CHG  1  10  -1
M  END
>  <UniqueID>  (23) 
21

>  <SMILES>  (23) 
O=C(Nc1ccccc1[N-]C(=O)c1ccco1)c1ccc(S(=O)(=O)N2CCOCC2)cc1

>  <Energy>  (23) 
100.11271359799173

>  <Genealogy>  (23) 
O=C(Nc1ccccc1[N-]C(=O)c1ccco1)c1ccc(S(=O)(=O)N2CCOCC2)cc1 (protonated)
O=C(Nc1ccccc1[N-]C(=O)c1ccco1)c1ccc(S(=O)(=O)N2CCOCC2)cc1 (3D coordinates assigned)
O=C(Nc1ccccc1[N-]C(=O)c1ccco1)c1ccc(S(=O)(=O)N2CCOCC2)cc1 (nonaromatic ring conformer: 100.11271359799173 kcal/mol)

>  <smiles>  (23) 
O=C(Nc1ccccc1NC(=O)c1ccco1)c1ccc(S(=O)(=O)N2CCOCC2)cc1

>  <score_type>  (23) 
oracle

>  <origin>  (23) 
adgpu

>  <m_score__min__energy>  (23) 
-10.17

>  <m_primary>  (23) 
energy

$$$$
23:0
     RDKit          3D

 24 26  0  0  0  0  0  0  0  0999 V2000
   -5.2670   22.2425  -28.9744 H   0  0  0  0  0  0  0  0  0  0  0  0
   -4.8080   22.9140  -29.7150 C   0  0  0  0  0  0  0  0  0  0  0  0
   -5.3490   23.0450  -30.8860 N   0  0  0  0  0  0  0  0  0  0  0  0
   -6.5350   22.3580  -31.2920 C   0  0  0  0  0  0  0  0  0  0  0  0
   -7.7880   22.7500  -30.9730 N   0  0  0  0  0  0  0  0  0  0  0  0
   -8.7220   21.9090  -31.4930 C   0  0  0  0  0  0  0  0  0  0  0  0
   -9.8012   22.0591  -31.3419 H   0  0  0  0  0  0  0  0  0  0  0  0
   -8.2120   20.8450  -32.2300 C   0  0  0  0  0  0  0  0  0  0  0  0
   -8.8032   20.0627  -32.7286 H   0  0  0  0  0  0  0  0  0  0  0  0
   -6.5320   20.9630  -32.2260 S   0  0  0  0  0  0  0  0  0  0  0  0
   -3.5850   23.6560  -29.3680 C   0  0  0  0  0  0  0  0  0  0  0  0
   -3.1700   24.8960  -29.8450 C   0  0  0  0  0  0  0  0  0  0  0  0
   -3.8700   25.6710  -30.7610 O   0  0  0  0  0  0  0  0  0  0  0  0
   -1.9880   25.2820  -29.3110 N   0  0  0  0  0  0  0  0  0  0  0  0
   -1.6540   24.2690  -28.4870 C   0  0  0  0  0  0  0  0  0  0  0  0
   -0.5090   24.1870  -27.6970 C   0  0  0  0  0  0  0  0  0  0  0  0
    0.2379   24.9945  -27.6976 H   0  0  0  0  0  0  0  0  0  0  0  0
   -0.3360   23.0420  -26.8990 C   0  0  0  0  0  0  0  0  0  0  0  0
    0.5575   22.9474  -26.2644 H   0  0  0  0  0  0  0  0  0  0  0  0
   -1.3040   22.0120  -26.9080 C   0  0  0  0  0  0  0  0  0  0  0  0
   -1.1586   21.1201  -26.2808 H   0  0  0  0  0  0  0  0  0  0  0  0
   -2.4510   22.1200  -27.7130 C   0  0  0  0  0  0  0  0  0  0  0  0
   -3.2117   21.3256  -27.7266 H   0  0  0  0  0  0  0  0  0  0  0  0
   -2.5940   23.2680  -28.4950 C   0  0  0  0  0  0  0  0  0  0  0  0
  1  2  1  0
  2  3  2  0
  3  4  1  0
  4  5  2  0
  5  6  1  0
  6  7  1  0
  6  8  2  0
  8  9  1  0
  8 10  1  0
  2 11  1  0
 11 12  2  0
 12 13  1  0
 12 14  1  0
 14 15  1  0
 15 16  2  0
 16 17  1  0
 16 18  1  0
 18 19  1  0
 18 20  2  0
 20 21  1  0
 20 22  1  0
 22 23  1  0
 22 24  2  0
 10  4  1  0
 24 11  1  0
 24 15  1  0
M  CHG  2  13  -1  14  -1
M  END
>  <UniqueID>  (24) 
22

>  <SMILES>  (24) 
[O-]c1[n-]c2ccccc2c1/C=N/c1nccs1

>  <Energy>  (24) 
88.9491104916864

>  <Genealogy>  (24) 
[O-]c1[n-]c2ccccc2c1C=Nc1nccs1 (protonated)
[O-]c1[n-]c2ccccc2c1/C=N/c1nccs1 (cis-trans isomerization)
[O-]c1[n-]c2ccccc2c1/C=N/c1nccs1 (3D coordinates assigned)
[O-]c1[n-]c2ccccc2c1/C=N/c1nccs1 (optimized conformer: 88.9491104916864 kcal/mol)

>  <smiles>  (24) 
Oc1[nH]c2ccccc2c1C=Nc1nccs1

>  <score_type>  (24) 
oracle

>  <origin>  (24) 
adgpu

>  <m_score__min__energy>  (24) 
-11.23

>  <m_primary>  (24) 
energy

$$$$
24:0
     RDKit          3D

 30 31  0  0  0  0  0  0  0  0999 V2000
  -10.2200   21.7870  -31.5380 H   0  0  0  0  0  0  0  0  0  0  0  0
   -9.8150   20.9290  -31.9740 N   0  0  0  0  0  0  0  0  0  0  0  0
   -8.5700   20.8720  -32.3250 C   0  0  0  0  0  0  0  0  0  0  0  0
   -7.7580   21.9450  -32.1290 N   0  0  0  0  0  0  0  0  0  0  0  0
   -6.4530   21.9150  -32.5020 C   0  0  0  0  0  0  0  0  0  0  0  0
   -5.4250   23.3620  -32.2520 S   0  0  0  0  0  0  0  0  0  0  0  0
   -5.7420   23.4740  -30.4550 C   0  0  0  0  0  0  0  0  0  0  0  0
   -6.2891   24.4046  -30.2436 H   0  0  0  0  0  0  0  0  0  0  0  0
   -6.3354   22.5999  -30.1488 H   0  0  0  0  0  0  0  0  0  0  0  0
   -4.4500   23.4740  -29.6770 C   0  0  0  0  0  0  0  0  0  0  0  0
   -4.1370   22.3720  -28.8640 C   0  0  0  0  0  0  0  0  0  0  0  0
   -4.8171   21.5081  -28.8291 H   0  0  0  0  0  0  0  0  0  0  0  0
   -2.9700   22.3660  -28.1010 C   0  0  0  0  0  0  0  0  0  0  0  0
   -2.7311   21.4960  -27.4716 H   0  0  0  0  0  0  0  0  0  0  0  0
   -2.1030   23.4610  -28.1330 C   0  0  0  0  0  0  0  0  0  0  0  0
   -1.1856   23.4513  -27.5262 H   0  0  0  0  0  0  0  0  0  0  0  0
   -2.3990   24.5770  -28.9390 C   0  0  0  0  0  0  0  0  0  0  0  0
   -1.5610   25.7010  -28.9960 O   0  0  0  0  0  0  0  0  0  0  0  0
   -0.8680   26.2470  -27.8780 C   0  0  0  0  0  0  0  0  0  0  0  0
   -1.3291   25.8837  -26.9477 H   0  0  0  0  0  0  0  0  0  0  0  0
    0.1860   25.9340  -27.9114 H   0  0  0  0  0  0  0  0  0  0  0  0
   -0.9257   27.3450  -27.9114 H   0  0  0  0  0  0  0  0  0  0  0  0
   -3.5710   24.5770  -29.7100 C   0  0  0  0  0  0  0  0  0  0  0  0
   -3.8610   25.6840  -30.5030 O   0  0  0  0  0  0  0  0  0  0  0  0
   -5.9230   20.7630  -33.0830 C   0  0  0  0  0  0  0  0  0  0  0  0
   -4.8651   20.7180  -33.3812 H   0  0  0  0  0  0  0  0  0  0  0  0
   -6.7680   19.6680  -33.2770 C   0  0  0  0  0  0  0  0  0  0  0  0
   -6.3200   18.6150  -33.8050 O   0  0  0  0  0  0  0  0  0  0  0  0
   -8.0730   19.7400  -32.8990 N   0  0  0  0  0  0  0  0  0  0  0  0
   -8.6990   18.9150  -33.0490 H   0  0  0  0  0  0  0  0  0  0  0  0
  1  2  1  0
  2  3  2  0
  3  4  1  0
  4  5  1  0
  5  6  1  0
  6  7  1  0
  7  8  1  0
  7  9  1  0
  7 10  1  0
 10 11  2  0
 11 12  1  0
 11 13  1  0
 13 14  1  0
 13 15  2  0
 15 16  1  0
 15 17  1  0
 17 18  1  0
 18 19  1  0
 19 20  1  0
 19 21  1  0
 19 22  1  0
 17 23  2  0
 23 24  1  0
  5 25  2  0
 25 26  1  0
 25 27  1  0
 27 28  2  0
 27 29  1  0
 29 30  1  0
 29  3  1  0
 23 10  1  0
M  CHG  2   4  -1  24  -1
M  END
>  <UniqueID>  (25) 
23

>  <SMILES>  (25) 
[H]/N=c1\[n-]c(SCc2cccc(OC)c2[O-])cc(=O)[nH]1

>  <Energy>  (25) 
26.310084317485366

>  <Genealogy>  (25) 
COc1cccc(CSc2cc(=O)[nH]c(=N)[n-]2)c1[O-] (protonated)
[H]/N=c1\[n-]c(SCc2cccc(OC)c2[O-])cc(=O)[nH]1 (cis-trans isomerization)
[H]/N=c1\[n-]c(SCc2cccc(OC)c2[O-])cc(=O)[nH]1 (3D coordinates assigned)
[H]/N=c1\[n-]c(SCc2cccc(OC)c2[O-])cc(=O)[nH]1 (optimized conformer: 26.310084317485366 kcal/mol)

>  <smiles>  (25) 
COc1cccc(CSc2cc(=O)[nH]c(=N)[nH]2)c1O

>  <score_type>  (25) 
oracle

>  <origin>  (25) 
adgpu

>  <m_score__min__energy>  (25) 
-10.5

>  <m_primary>  (25) 
energy

$$$$
25:0
     RDKit          3D

 50 52  0  0  0  0  0  0  0  0999 V2000
    1.1220   26.0180  -23.7580 N   0  0  0  0  0  0  0  0  0  0  0  0
   -0.2370   26.9000  -24.3550 S   0  0  0  0  0  0  0  0  0  0  0  0
    0.2020   28.2760  -24.7720 O   0  0  0  0  0  0  0  0  0  0  0  0
   -1.2690   27.0330  -23.2700 O   0  0  0  0  0  0  0  0  0  0  0  0
   -0.9330   26.0520  -25.7340 C   0  0  0  0  0  0  0  0  0  0  0  0
   -0.1850   25.8900  -26.9060 C   0  0  0  0  0  0  0  0  0  0  0  0
   -0.7320   25.2200  -28.0040 C   0  0  0  0  0  0  0  0  0  0  0  0
   -2.0420   24.7210  -27.9470 C   0  0  0  0  0  0  0  0  0  0  0  0
   -2.6180   23.9660  -29.1090 C   0  0  0  0  0  0  0  0  0  0  0  0
   -3.1410   24.9180  -30.0900 N   0  0  0  0  0  0  0  0  0  0  0  0
   -4.8790   24.9120  -30.1110 S   0  0  0  0  0  0  0  0  0  0  0  0
   -5.3880   24.9100  -28.6970 O   0  0  0  0  0  0  0  0  0  0  0  0
   -5.3910   26.1480  -30.8000 O   0  0  0  0  0  0  0  0  0  0  0  0
   -5.4560   23.4660  -30.9340 C   0  0  0  0  0  0  0  0  0  0  0  0
   -6.6830   23.4690  -31.6100 C   0  0  0  0  0  0  0  0  0  0  0  0
   -7.1350   22.3140  -32.2540 C   0  0  0  0  0  0  0  0  0  0  0  0
   -6.3600   21.1450  -32.2330 C   0  0  0  0  0  0  0  0  0  0  0  0
   -6.9350   19.6790  -33.0310 S   0  0  0  0  0  0  0  0  0  0  0  0
   -6.7220   19.8100  -34.5140 O   0  0  0  0  0  0  0  0  0  0  0  0
   -8.4140   19.5510  -32.7920 O   0  0  0  0  0  0  0  0  0  0  0  0
   -6.1340   18.2300  -32.4570 N   0  0  0  0  0  0  0  0  0  0  0  0
   -6.8560   17.0010  -32.8320 C   0  0  0  0  0  0  0  0  0  0  0  0
   -6.5560   16.5410  -34.2780 C   0  0  0  0  0  0  0  0  0  0  0  0
   -5.4970   17.2580  -34.8810 O   0  0  0  0  0  0  0  0  0  0  0  0
   -4.3910   17.2960  -34.0100 C   0  0  0  0  0  0  0  0  0  0  0  0
   -4.6960   18.1960  -32.8000 C   0  0  0  0  0  0  0  0  0  0  0  0
   -5.1290   21.1440  -31.5620 C   0  0  0  0  0  0  0  0  0  0  0  0
   -4.6770   22.3020  -30.9220 C   0  0  0  0  0  0  0  0  0  0  0  0
   -2.7910   24.8870  -26.7720 C   0  0  0  0  0  0  0  0  0  0  0  0
   -2.2420   25.5540  -25.6730 C   0  0  0  0  0  0  0  0  0  0  0  0
    0.8100   25.0310  -23.6220 H   0  0  0  0  0  0  0  0  0  0  0  0
    1.3400   26.3990  -22.8080 H   0  0  0  0  0  0  0  0  0  0  0  0
    0.8375   26.2916  -26.9631 H   0  0  0  0  0  0  0  0  0  0  0  0
   -0.1330   25.0834  -28.9164 H   0  0  0  0  0  0  0  0  0  0  0  0
   -1.8328   23.3521  -29.5745 H   0  0  0  0  0  0  0  0  0  0  0  0
   -3.4305   23.3124  -28.7588 H   0  0  0  0  0  0  0  0  0  0  0  0
   -7.2931   24.3840  -31.6340 H   0  0  0  0  0  0  0  0  0  0  0  0
   -8.1016   22.3216  -32.7790 H   0  0  0  0  0  0  0  0  0  0  0  0
   -6.5627   16.1973  -32.1406 H   0  0  0  0  0  0  0  0  0  0  0  0
   -7.9322   17.2208  -32.7733 H   0  0  0  0  0  0  0  0  0  0  0  0
   -6.2890   15.4741  -34.2574 H   0  0  0  0  0  0  0  0  0  0  0  0
   -7.4603   16.7285  -34.8755 H   0  0  0  0  0  0  0  0  0  0  0  0
   -4.1707   16.2773  -33.6583 H   0  0  0  0  0  0  0  0  0  0  0  0
   -3.5237   17.7036  -34.5500 H   0  0  0  0  0  0  0  0  0  0  0  0
   -4.1367   17.8181  -31.9315 H   0  0  0  0  0  0  0  0  0  0  0  0
   -4.3954   19.2202  -33.0659 H   0  0  0  0  0  0  0  0  0  0  0  0
   -4.5173   20.2300  -31.5390 H   0  0  0  0  0  0  0  0  0  0  0  0
   -3.7052   22.2989  -30.4067 H   0  0  0  0  0  0  0  0  0  0  0  0
   -3.8154   24.4902  -26.7155 H   0  0  0  0  0  0  0  0  0  0  0  0
   -2.8383   25.6884  -24.7585 H   0  0  0  0  0  0  0  0  0  0  0  0
  1  2  1  0
  2  3  2  0
  2  4  2  0
  2  5  1  0
  5  6  2  0
  6  7  1  0
  7  8  2  0
  8  9  1  0
  9 10  1  0
 10 11  1  0
 11 12  2  0
 11 13  2  0
 11 14  1  0
 14 15  2  0
 15 16  1  0
 16 17  2  0
 17 18  1  0
 18 19  2  0
 18 20  2  0
 18 21  1  0
 21 22  1  0
 22 23  1  0
 23 24  1  0
 24 25  1  0
 25 26  1  0
 17 27  1  0
 27 28  2  0
  8 29  1  0
 29 30  2  0
 30  5  1  0
 28 14  1  0
 26 21  1  0
  1 31  1  0
  1 32  1  0
  6 33  1  0
  7 34  1  0
  9 35  1  0
  9 36  1  0
 15 37  1  0
 16 38  1  0
 22 39  1  0
 22 40  1  0
 23 41  1  0
 23 42  1  0
 25 43  1  0
 25 44  1  0
 26 45  1  0
 26 46  1  0
 27 47  1  0
 28 48  1  0
 29 49  1  0
 30 50  1  0
M  CHG  1  10  -1
M  END
>  <UniqueID>  (26) 
24

>  <SMILES>  (26) 
NS(=O)(=O)c1ccc(C[N-]S(=O)(=O)c2ccc(S(=O)(=O)N3CCOCC3)cc2)cc1

>  <Energy>  (26) 
56.99616476573762

>  <Genealogy>  (26) 
NS(=O)(=O)c1ccc(C[N-]S(=O)(=O)c2ccc(S(=O)(=O)N3CCOCC3)cc2)cc1 (protonated)
NS(=O)(=O)c1ccc(C[N-]S(=O)(=O)c2ccc(S(=O)(=O)N3CCOCC3)cc2)cc1 (3D coordinates assigned)
NS(=O)(=O)c1ccc(C[N-]S(=O)(=O)c2ccc(S(=O)(=O)N3CCOCC3)cc2)cc1 (nonaromatic ring conformer: 56.99616476573762 kcal/mol)

>  <smiles>  (26) 
NS(=O)(=O)c1ccc(CNS(=O)(=O)c2ccc(S(=O)(=O)N3CCOCC3)cc2)cc1

>  <score_type>  (26) 
oracle

>  <origin>  (26) 
adgpu

>  <m_score__min__energy>  (26) 
-11.77

>  <m_primary>  (26) 
energy

$$$$
26:0
     RDKit          3D

 51 53  0  0  0  0  0  0  0  0999 V2000
   -4.8550   17.1460  -34.5520 C   0  0  0  0  0  0  0  0  0  0  0  0
   -6.1150   17.9150  -34.1450 C   0  0  0  0  0  0  0  0  0  0  0  0
   -6.5280   17.5450  -32.7220 C   0  0  0  0  0  0  0  0  0  0  0  0
   -5.8770   19.3210  -34.2050 O   0  0  0  0  0  0  0  0  0  0  0  0
   -6.2740   20.2210  -33.2090 C   0  0  0  0  0  0  0  0  0  0  0  0
   -5.3270   20.8660  -32.4810 N   0  0  0  0  0  0  0  0  0  0  0  0
   -5.6580   21.7460  -31.4960 C   0  0  0  0  0  0  0  0  0  0  0  0
   -4.5800   22.4280  -30.7370 C   0  0  0  0  0  0  0  0  0  0  0  0
   -3.2540   21.9520  -30.7540 C   0  0  0  0  0  0  0  0  0  0  0  0
   -2.2530   22.6130  -30.0370 C   0  0  0  0  0  0  0  0  0  0  0  0
   -2.5550   23.7640  -29.3000 C   0  0  0  0  0  0  0  0  0  0  0  0
   -1.3050   24.5870  -28.3680 S   0  0  0  0  0  0  0  0  0  0  0  0
   -1.4610   26.0710  -28.5590 O   0  0  0  0  0  0  0  0  0  0  0  0
    0.0550   24.1810  -28.8660 O   0  0  0  0  0  0  0  0  0  0  0  0
   -1.4650   24.1890  -26.6740 N   0  0  0  0  0  0  0  0  0  0  0  0
   -0.9790   25.3030  -25.8190 C   0  0  0  0  0  0  0  0  0  0  0  0
    0.4340   25.0460  -25.2690 C   0  0  0  0  0  0  0  0  0  0  0  0
    0.5010   23.8070  -24.4740 N   0  0  0  0  0  0  0  0  0  0  0  0
   -0.4460   22.7630  -24.9100 C   0  0  0  0  0  0  0  0  0  0  0  0
   -0.7980   22.8960  -26.3970 C   0  0  0  0  0  0  0  0  0  0  0  0
   -3.8680   24.2470  -29.2800 C   0  0  0  0  0  0  0  0  0  0  0  0
   -4.8710   23.5900  -29.9970 C   0  0  0  0  0  0  0  0  0  0  0  0
   -7.0160   21.9980  -31.2390 C   0  0  0  0  0  0  0  0  0  0  0  0
   -7.9840   21.3250  -31.9940 C   0  0  0  0  0  0  0  0  0  0  0  0
   -9.4440   21.5680  -31.7500 C   0  0  0  0  0  0  0  0  0  0  0  0
   -9.8060   22.7930  -32.2810 F   0  0  0  0  0  0  0  0  0  0  0  0
  -10.2090   20.5800  -32.3460 F   0  0  0  0  0  0  0  0  0  0  0  0
   -9.6940   21.5680  -30.3910 F   0  0  0  0  0  0  0  0  0  0  0  0
   -7.5900   20.4500  -32.9590 N   0  0  0  0  0  0  0  0  0  0  0  0
   -4.3180   16.8182  -33.6497 H   0  0  0  0  0  0  0  0  0  0  0  0
   -5.1388   16.2670  -35.1494 H   0  0  0  0  0  0  0  0  0  0  0  0
   -4.2030   17.8003  -35.1494 H   0  0  0  0  0  0  0  0  0  0  0  0
   -6.9206   17.6455  -34.8439 H   0  0  0  0  0  0  0  0  0  0  0  0
   -5.9074   18.1010  -32.0038 H   0  0  0  0  0  0  0  0  0  0  0  0
   -7.5863   17.8027  -32.5686 H   0  0  0  0  0  0  0  0  0  0  0  0
   -6.3877   16.4648  -32.5686 H   0  0  0  0  0  0  0  0  0  0  0  0
   -3.0046   21.0528  -31.3364 H   0  0  0  0  0  0  0  0  0  0  0  0
   -1.2231   22.2270  -30.0519 H   0  0  0  0  0  0  0  0  0  0  0  0
   -2.4910   24.0680  -26.4940 H   0  0  0  0  0  0  0  0  0  0  0  0
   -0.9629   26.2262  -26.4169 H   0  0  0  0  0  0  0  0  0  0  0  0
   -1.6622   25.3903  -24.9613 H   0  0  0  0  0  0  0  0  0  0  0  0
    1.1342   24.9642  -26.1134 H   0  0  0  0  0  0  0  0  0  0  0  0
    0.7000   25.8863  -24.6109 H   0  0  0  0  0  0  0  0  0  0  0  0
    0.2900   24.0390  -23.4750 H   0  0  0  0  0  0  0  0  0  0  0  0
    0.0089   21.7762  -24.7390 H   0  0  0  0  0  0  0  0  0  0  0  0
   -1.3725   22.8783  -24.3284 H   0  0  0  0  0  0  0  0  0  0  0  0
    0.1253   22.8335  -26.9916 H   0  0  0  0  0  0  0  0  0  0  0  0
   -1.4876   22.0826  -26.6667 H   0  0  0  0  0  0  0  0  0  0  0  0
   -4.1115   25.1477  -28.6974 H   0  0  0  0  0  0  0  0  0  0  0  0
   -5.8978   23.9842  -29.9833 H   0  0  0  0  0  0  0  0  0  0  0  0
   -7.3138   22.7124  -30.4574 H   0  0  0  0  0  0  0  0  0  0  0  0
  1  2  1  0
  2  3  1  0
  2  4  1  0
  4  5  1  0
  5  6  2  0
  6  7  1  0
  7  8  1  0
  8  9  2  0
  9 10  1  0
 10 11  2  0
 11 12  1  0
 12 13  2  0
 12 14  2  0
 12 15  1  0
 15 16  1  0
 16 17  1  0
 17 18  1  0
 18 19  1  0
 19 20  1  0
 11 21  1  0
 21 22  2  0
  7 23  2  0
 23 24  1  0
 24 25  1  0
 25 26  1  0
 25 27  1  0
 25 28  1  0
 24 29  2  0
 29  5  1  0
 22  8  1  0
 20 15  1  0
  1 30  1  0
  1 31  1  0
  1 32  1  0
  2 33  1  0
  3 34  1  0
  3 35  1  0
  3 36  1  0
  9 37  1  0
 10 38  1  0
 15 39  1  0
 16 40  1  0
 16 41  1  0
 17 42  1  0
 17 43  1  0
 18 44  1  0
 19 45  1  0
 19 46  1  0
 20 47  1  0
 20 48  1  0
 21 49  1  0
 22 50  1  0
 23 51  1  0
M  CHG  1  15   1
M  END
>  <UniqueID>  (27) 
25

>  <SMILES>  (27) 
CC(C)Oc1nc(-c2ccc(S(=O)(=O)[NH+]3CCNCC3)cc2)cc(C(F)(F)F)n1

>  <Energy>  (27) 
58.182270258852974

>  <Genealogy>  (27) 
CC(C)Oc1nc(-c2ccc(S(=O)(=O)[NH+]3CCNCC3)cc2)cc(C(F)(F)F)n1 (protonated)
CC(C)Oc1nc(-c2ccc(S(=O)(=O)[NH+]3CCNCC3)cc2)cc(C(F)(F)F)n1 (3D coordinates assigned)
CC(C)Oc1nc(-c2ccc(S(=O)(=O)[NH+]3CCNCC3)cc2)cc(C(F)(F)F)n1 (nonaromatic ring conformer: 58.182270258852974 kcal/mol)

>  <smiles>  (27) 
CC(C)Oc1nc(-c2ccc(S(=O)(=O)N3CCNCC3)cc2)cc(C(F)(F)F)n1

>  <score_type>  (27) 
oracle

>  <origin>  (27) 
adgpu

>  <m_score__min__energy>  (27) 
-8.0600000000000005

>  <m_primary>  (27) 
energy

$$$$
27:0
     RDKit          3D

 48 50  0  0  0  0  0  0  0  0999 V2000
   -3.6870   25.7480  -29.6100 H   0  0  0  0  0  0  0  0  0  0  0  0
   -3.8830   25.2930  -30.5300 N   0  0  0  0  0  0  0  0  0  0  0  0
   -4.9570   24.6020  -30.7490 C   0  0  0  0  0  0  0  0  0  0  0  0
   -5.1490   24.0350  -31.9700 N   0  0  0  0  0  0  0  0  0  0  0  0
   -6.2550   23.2970  -32.2550 C   0  0  0  0  0  0  0  0  0  0  0  0
   -6.3783   22.8558  -33.2551 H   0  0  0  0  0  0  0  0  0  0  0  0
   -7.2370   23.0980  -31.2770 C   0  0  0  0  0  0  0  0  0  0  0  0
   -8.6600   22.1140  -31.6090 S   0  0  0  0  0  0  0  0  0  0  0  0
   -9.1110   21.4720  -30.3270 O   0  0  0  0  0  0  0  0  0  0  0  0
   -9.7770   22.9600  -32.1540 O   0  0  0  0  0  0  0  0  0  0  0  0
   -8.2670   20.8800  -32.7650 N   0  0  0  0  0  0  0  0  0  0  0  0
   -8.8520   20.8500  -33.6290 H   0  0  0  0  0  0  0  0  0  0  0  0
   -7.2840   19.8550  -32.5180 C   0  0  0  0  0  0  0  0  0  0  0  0
   -5.9440   20.0510  -32.9010 C   0  0  0  0  0  0  0  0  0  0  0  0
   -5.6515   20.9926  -33.3886 H   0  0  0  0  0  0  0  0  0  0  0  0
   -4.9780   19.0640  -32.6700 C   0  0  0  0  0  0  0  0  0  0  0  0
   -3.3030   19.3370  -33.1490 S   0  0  0  0  0  0  0  0  0  0  0  0
   -3.1410   18.9660  -34.5970 O   0  0  0  0  0  0  0  0  0  0  0  0
   -2.4050   18.4410  -32.3410 O   0  0  0  0  0  0  0  0  0  0  0  0
   -2.8110   21.0010  -32.9140 N   0  0  0  0  0  0  0  0  0  0  0  0
   -3.3020   21.5670  -31.6340 C   0  0  0  0  0  0  0  0  0  0  0  0
   -4.1202   22.2682  -31.8550 H   0  0  0  0  0  0  0  0  0  0  0  0
   -3.6320   20.7212  -31.0130 H   0  0  0  0  0  0  0  0  0  0  0  0
   -2.2250   22.3140  -30.8400 C   0  0  0  0  0  0  0  0  0  0  0  0
   -1.9422   23.2307  -31.3782 H   0  0  0  0  0  0  0  0  0  0  0  0
   -2.6183   22.5784  -29.8473 H   0  0  0  0  0  0  0  0  0  0  0  0
   -1.0000   21.4200  -30.6800 C   0  0  0  0  0  0  0  0  0  0  0  0
   -0.2248   21.9739  -30.1303 H   0  0  0  0  0  0  0  0  0  0  0  0
   -1.3060   20.5169  -30.1315 H   0  0  0  0  0  0  0  0  0  0  0  0
   -0.4290   20.9820  -32.0390 C   0  0  0  0  0  0  0  0  0  0  0  0
    0.4998   21.5427  -32.2208 H   0  0  0  0  0  0  0  0  0  0  0  0
   -0.2638   19.8961  -31.9795 H   0  0  0  0  0  0  0  0  0  0  0  0
   -1.3830   21.2240  -33.2290 C   0  0  0  0  0  0  0  0  0  0  0  0
   -1.2615   22.2650  -33.5628 H   0  0  0  0  0  0  0  0  0  0  0  0
   -1.1121   20.4940  -34.0060 H   0  0  0  0  0  0  0  0  0  0  0  0
   -5.3490   17.8680  -32.0490 C   0  0  0  0  0  0  0  0  0  0  0  0
   -4.5920   17.0938  -31.8554 H   0  0  0  0  0  0  0  0  0  0  0  0
   -6.6740   17.6520  -31.6740 C   0  0  0  0  0  0  0  0  0  0  0  0
   -6.9573   16.7019  -31.1975 H   0  0  0  0  0  0  0  0  0  0  0  0
   -7.6520   18.6370  -31.8990 C   0  0  0  0  0  0  0  0  0  0  0  0
   -9.0690   18.3760  -31.4640 C   0  0  0  0  0  0  0  0  0  0  0  0
   -9.1194   18.3667  -30.3652 H   0  0  0  0  0  0  0  0  0  0  0  0
   -9.7243   19.1686  -31.8544 H   0  0  0  0  0  0  0  0  0  0  0  0
   -9.3989   17.4020  -31.8544 H   0  0  0  0  0  0  0  0  0  0  0  0
   -7.0630   23.6750  -30.0150 C   0  0  0  0  0  0  0  0  0  0  0  0
   -7.8268   23.5347  -29.2360 H   0  0  0  0  0  0  0  0  0  0  0  0
   -5.9200   24.4290  -29.7440 C   0  0  0  0  0  0  0  0  0  0  0  0
   -5.7760   24.8829  -28.7524 H   0  0  0  0  0  0  0  0  0  0  0  0
  1  2  1  0
  2  3  2  0
  3  4  1  0
  4  5  1  0
  5  6  1  0
  5  7  2  0
  7  8  1  0
  8  9  2  0
  8 10  2  0
  8 11  1  0
 11 12  1  0
 11 13  1  0
 13 14  2  0
 14 15  1  0
 14 16  1  0
 16 17  1  0
 17 18  2  0
 17 19  2  0
 17 20  1  0
 20 21  1  0
 21 22  1  0
 21 23  1  0
 21 24  1  0
 24 25  1  0
 24 26  1  0
 24 27  1  0
 27 28  1  0
 27 29  1  0
 27 30  1  0
 30 31  1  0
 30 32  1  0
 30 33  1  0
 33 34  1  0
 33 35  1  0
 16 36  2  0
 36 37  1  0
 36 38  1  0
 38 39  1  0
 38 40  2  0
 40 41  1  0
 41 42  1  0
 41 43  1  0
 41 44  1  0
  7 45  1  0
 45 46  1  0
 45 47  2  0
 47 48  1  0
 47  3  1  0
 40 13  1  0
 33 20  1  0
M  CHG  1   4  -1
M  END
>  <UniqueID>  (28) 
26

>  <SMILES>  (28) 
[H]/N=c1\ccc(S(=O)(=O)Nc2cc(S(=O)(=O)N3CCCCC3)ccc2C)c[n-]1

>  <Energy>  (28) 
60.19424609135877

>  <Genealogy>  (28) 
Cc1ccc(S(=O)(=O)N2CCCCC2)cc1NS(=O)(=O)c1ccc(=N)[n-]c1 (protonated)
[H]/N=c1\ccc(S(=O)(=O)Nc2cc(S(=O)(=O)N3CCCCC3)ccc2C)c[n-]1 (cis-trans isomerization)
[H]/N=c1\ccc(S(=O)(=O)Nc2cc(S(=O)(=O)N3CCCCC3)ccc2C)c[n-]1 (3D coordinates assigned)
[H]/N=c1\ccc(S(=O)(=O)Nc2cc(S(=O)(=O)N3CCCCC3)ccc2C)c[n-]1 (nonaromatic ring conformer: 60.19424609135877 kcal/mol)

>  <smiles>  (28) 
Cc1ccc(S(=O)(=O)N2CCCCC2)cc1NS(=O)(=O)c1ccc(=N)[nH]c1

>  <score_type>  (28) 
oracle

>  <origin>  (28) 
adgpu

>  <m_score__min__energy>  (28) 
-11.75

>  <m_primary>  (28) 
energy

$$$$
28:0
     RDKit          3D

 65 68  0  0  0  0  0  0  0  0999 V2000
   -3.4980   20.0770  -29.0510 O   0  0  0  0  0  0  0  0  0  0  0  0
   -3.3100   20.9760  -29.9170 C   0  0  0  0  0  0  0  0  0  0  0  0
   -2.0640   21.6890  -29.9360 N   0  0  0  0  0  0  0  0  0  0  0  0
   -0.9350   21.2720  -29.1530 C   0  0  0  0  0  0  0  0  0  0  0  0
   -0.6870   19.8950  -29.0140 C   0  0  0  0  0  0  0  0  0  0  0  0
    0.4260   19.4420  -28.3080 C   0  0  0  0  0  0  0  0  0  0  0  0
    1.3060   20.3570  -27.7320 C   0  0  0  0  0  0  0  0  0  0  0  0
    1.0790   21.7270  -27.8640 C   0  0  0  0  0  0  0  0  0  0  0  0
   -0.0410   22.2100  -28.5710 C   0  0  0  0  0  0  0  0  0  0  0  0
   -0.2600   23.6830  -28.6470 C   0  0  0  0  0  0  0  0  0  0  0  0
    0.5810   24.4870  -28.1640 O   0  0  0  0  0  0  0  0  0  0  0  0
   -1.4240   24.1990  -29.3030 N   0  0  0  0  0  0  0  0  0  0  0  0
   -2.5300   24.8490  -28.6060 C   0  0  2  0  0  0  0  0  0  0  0  0
   -2.7840   24.1380  -27.2620 C   0  0  0  0  0  0  0  0  0  0  0  0
   -1.9490   24.7260  -26.1540 C   0  0  0  0  0  0  0  0  0  0  0  0
   -2.1130   26.0690  -25.7720 C   0  0  0  0  0  0  0  0  0  0  0  0
   -1.3120   26.6180  -24.7650 C   0  0  0  0  0  0  0  0  0  0  0  0
   -0.3420   25.8320  -24.1350 C   0  0  0  0  0  0  0  0  0  0  0  0
   -0.1730   24.4980  -24.5100 C   0  0  0  0  0  0  0  0  0  0  0  0
   -0.9690   23.9460  -25.5190 C   0  0  0  0  0  0  0  0  0  0  0  0
   -3.7470   24.7990  -29.4840 C   0  0  0  0  0  0  0  0  0  0  0  0
   -4.8260   24.3140  -29.0450 O   0  0  0  0  0  0  0  0  0  0  0  0
   -3.6950   25.2920  -30.7820 O   0  0  0  0  0  0  0  0  0  0  0  0
   -4.3970   21.3070  -30.8680 C   0  0  0  0  0  0  0  0  0  0  0  0
   -4.4700   22.5940  -31.4320 C   0  0  0  0  0  0  0  0  0  0  0  0
   -5.4960   22.9170  -32.3250 C   0  0  0  0  0  0  0  0  0  0  0  0
   -6.4580   21.9640  -32.6620 C   0  0  0  0  0  0  0  0  0  0  0  0
   -6.4010   20.6800  -32.1070 C   0  0  0  0  0  0  0  0  0  0  0  0
   -7.6390   19.4850  -32.4910 S   0  0  0  0  0  0  0  0  0  0  0  0
   -8.1400   18.8410  -31.2290 O   0  0  0  0  0  0  0  0  0  0  0  0
   -8.7880   20.1840  -33.1630 O   0  0  0  0  0  0  0  0  0  0  0  0
   -6.9880   18.2670  -33.5610 N   0  0  0  0  0  0  0  0  0  0  0  0
   -5.7960   18.7960  -34.2630 C   0  0  0  0  0  0  0  0  0  0  0  0
   -4.9370   17.6680  -34.8400 C   0  0  0  0  0  0  0  0  0  0  0  0
   -4.3950   16.7570  -33.7230 C   0  0  0  0  0  0  0  0  0  0  0  0
   -5.2870   16.7610  -32.4690 C   0  0  0  0  0  0  0  0  0  0  0  0
   -6.7620   16.9900  -32.8360 C   0  0  0  0  0  0  0  0  0  0  0  0
   -5.3770   20.3560  -31.2070 C   0  0  0  0  0  0  0  0  0  0  0  0
   -1.9910   22.5810  -30.4760 H   0  0  0  0  0  0  0  0  0  0  0  0
   -1.3779   19.1685  -29.4667 H   0  0  0  0  0  0  0  0  0  0  0  0
    0.6101   18.3624  -28.2053 H   0  0  0  0  0  0  0  0  0  0  0  0
    2.1818   19.9977  -27.1718 H   0  0  0  0  0  0  0  0  0  0  0  0
    1.7832   22.4400  -27.4104 H   0  0  0  0  0  0  0  0  0  0  0  0
   -2.2864   25.9003  -28.3931 H   0  0  0  0  0  0  0  0  0  0  0  0
   -3.8474   24.2405  -26.9998 H   0  0  0  0  0  0  0  0  0  0  0  0
   -2.5064   23.0797  -27.3760 H   0  0  0  0  0  0  0  0  0  0  0  0
   -2.8740   26.6904  -26.2667 H   0  0  0  0  0  0  0  0  0  0  0  0
   -1.4453   27.6689  -24.4685 H   0  0  0  0  0  0  0  0  0  0  0  0
    0.2879   26.2649  -23.3439 H   0  0  0  0  0  0  0  0  0  0  0  0
    0.5877   23.8797  -24.0110 H   0  0  0  0  0  0  0  0  0  0  0  0
   -0.8268   22.8965  -25.8163 H   0  0  0  0  0  0  0  0  0  0  0  0
   -3.7157   23.3501  -31.1688 H   0  0  0  0  0  0  0  0  0  0  0  0
   -5.5451   23.9248  -32.7630 H   0  0  0  0  0  0  0  0  0  0  0  0
   -7.2632   22.2223  -33.3655 H   0  0  0  0  0  0  0  0  0  0  0  0
   -6.1257   19.4497  -35.0840 H   0  0  0  0  0  0  0  0  0  0  0  0
   -5.1880   19.3552  -33.5366 H   0  0  0  0  0  0  0  0  0  0  0  0
   -5.5488   17.0668  -35.5287 H   0  0  0  0  0  0  0  0  0  0  0  0
   -4.0837   18.1153  -35.3709 H   0  0  0  0  0  0  0  0  0  0  0  0
   -4.3324   15.7282  -34.1072 H   0  0  0  0  0  0  0  0  0  0  0  0
   -3.4073   17.1422  -33.4297 H   0  0  0  0  0  0  0  0  0  0  0  0
   -5.1909   15.7920  -31.9574 H   0  0  0  0  0  0  0  0  0  0  0  0
   -4.9604   17.5807  -31.8122 H   0  0  0  0  0  0  0  0  0  0  0  0
   -7.0972   16.1599  -33.4752 H   0  0  0  0  0  0  0  0  0  0  0  0
   -7.3312   17.0400  -31.8960 H   0  0  0  0  0  0  0  0  0  0  0  0
   -5.3390   19.3507  -30.7622 H   0  0  0  0  0  0  0  0  0  0  0  0
  1  2  2  0
  2  3  1  0
  3  4  1  0
  4  5  2  0
  5  6  1  0
  6  7  2  0
  7  8  1  0
  8  9  2  0
  9 10  1  0
 10 11  2  0
 10 12  1  0
 12 13  1  0
 13 14  1  0
 14 15  1  0
 15 16  2  0
 16 17  1  0
 17 18  2  0
 18 19  1  0
 19 20  2  0
 13 21  1  0
 21 22  2  0
 21 23  1  0
  2 24  1  0
 24 25  2  0
 25 26  1  0
 26 27  2  0
 27 28  1  0
 28 29  1  0
 29 30  2  0
 29 31  2  0
 29 32  1  0
 32 33  1  0
 33 34  1  0
 34 35  1  0
 35 36  1  0
 36 37  1  0
 28 38  2  0
  9  4  1  0
 20 15  1  0
 38 24  1  0
 37 32  1  0
  3 39  1  0
  5 40  1  0
  6 41  1  0
  7 42  1  0
  8 43  1  0
 13 44  1  1
 14 45  1  0
 14 46  1  0
 16 47  1  0
 17 48  1  0
 18 49  1  0
 19 50  1  0
 20 51  1  0
 25 52  1  0
 26 53  1  0
 27 54  1  0
 33 55  1  0
 33 56  1  0
 34 57  1  0
 34 58  1  0
 35 59  1  0
 35 60  1  0
 36 61  1  0
 36 62  1  0
 37 63  1  0
 37 64  1  0
 38 65  1  0
M  CHG  2  12  -1  23  -1
M  END
>  <UniqueID>  (29) 
27

>  <SMILES>  (29) 
O=C(Nc1ccccc1C(=O)[N-][C@H](Cc1ccccc1)C(=O)[O-])c1cccc(S(=O)(=O)N2CCCCC2)c1

>  <Energy>  (29) 
79.95345275695774

>  <Genealogy>  (29) 
O=C(Nc1ccccc1C(=O)[N-]C(Cc1ccccc1)C(=O)[O-])c1cccc(S(=O)(=O)N2CCCCC2)c1 (protonated)
O=C(Nc1ccccc1C(=O)[N-][C@H](Cc1ccccc1)C(=O)[O-])c1cccc(S(=O)(=O)N2CCCCC2)c1 (chirality)
O=C(Nc1ccccc1C(=O)[N-][C@H](Cc1ccccc1)C(=O)[O-])c1cccc(S(=O)(=O)N2CCCCC2)c1 (3D coordinates assigned)
O=C(Nc1ccccc1C(=O)[N-][C@H](Cc1ccccc1)C(=O)[O-])c1cccc(S(=O)(=O)N2CCCCC2)c1 (nonaromatic ring conformer: 79.95345275695774 kcal/mol)

>  <smiles>  (29) 
O=C(Nc1ccccc1C(=O)NC(Cc1ccccc1)C(=O)O)c1cccc(S(=O)(=O)N2CCCCC2)c1

>  <score_type>  (29) 
oracle

>  <origin>  (29) 
adgpu

>  <m_score__min__energy>  (29) 
-13.98

>  <m_primary>  (29) 
energy

$$$$
29:0
     RDKit          3D

 42 44  0  0  0  0  0  0  0  0999 V2000
   -0.9660   19.2930  -30.7480 O   0  0  0  0  0  0  0  0  0  0  0  0
   -1.5100   20.1620  -31.4810 C   0  0  0  0  0  0  0  0  0  0  0  0
   -1.8640   19.8430  -32.8340 N   0  0  0  0  0  0  0  0  0  0  0  0
   -2.9900   19.0620  -33.2660 C   0  0  0  0  0  0  0  0  0  0  0  0
   -4.1450   19.6690  -33.7960 C   0  0  0  0  0  0  0  0  0  0  0  0
   -5.2370   18.8880  -34.1870 C   0  0  0  0  0  0  0  0  0  0  0  0
   -5.1950   17.5020  -34.0380 C   0  0  0  0  0  0  0  0  0  0  0  0
   -4.0650   16.8910  -33.4900 C   0  0  0  0  0  0  0  0  0  0  0  0
   -2.9640   17.6630  -33.0970 C   0  0  0  0  0  0  0  0  0  0  0  0
   -1.8560   17.0180  -32.5450 O   0  0  0  0  0  0  0  0  0  0  0  0
   -1.8360   21.4970  -30.9260 C   0  0  0  0  0  0  0  0  0  0  0  0
   -0.8630   22.2430  -30.2360 C   0  0  0  0  0  0  0  0  0  0  0  0
   -1.1720   23.5020  -29.7170 C   0  0  0  0  0  0  0  0  0  0  0  0
   -2.4530   24.0360  -29.8750 C   0  0  0  0  0  0  0  0  0  0  0  0
   -2.7350   25.2950  -29.3590 O   0  0  0  0  0  0  0  0  0  0  0  0
   -3.4400   23.3020  -30.5530 C   0  0  0  0  0  0  0  0  0  0  0  0
   -5.0560   23.9810  -30.7730 S   0  0  0  0  0  0  0  0  0  0  0  0
   -4.9230   25.4150  -31.2010 O   0  0  0  0  0  0  0  0  0  0  0  0
   -5.8200   23.9340  -29.4770 O   0  0  0  0  0  0  0  0  0  0  0  0
   -5.9160   23.0780  -31.9970 N   0  0  0  0  0  0  0  0  0  0  0  0
   -6.1210   21.6880  -31.5450 C   0  0  0  0  0  0  0  0  0  0  0  0
   -7.2810   21.0340  -32.3130 C   0  0  0  0  0  0  0  0  0  0  0  0
   -8.5290   21.6960  -32.1570 O   0  0  0  0  0  0  0  0  0  0  0  0
   -8.4110   23.0590  -31.7690 C   0  0  0  0  0  0  0  0  0  0  0  0
   -7.1780   23.7550  -32.3700 C   0  0  0  0  0  0  0  0  0  0  0  0
   -3.1260   22.0400  -31.0790 C   0  0  0  0  0  0  0  0  0  0  0  0
   -4.1883   20.7629  -33.9029 H   0  0  0  0  0  0  0  0  0  0  0  0
   -6.1307   19.3676  -34.6128 H   0  0  0  0  0  0  0  0  0  0  0  0
   -6.0528   16.8894  -34.3524 H   0  0  0  0  0  0  0  0  0  0  0  0
   -4.0394   15.7983  -33.3664 H   0  0  0  0  0  0  0  0  0  0  0  0
   -1.1470   17.5130  -32.0190 H   0  0  0  0  0  0  0  0  0  0  0  0
    0.1486   21.8315  -30.1044 H   0  0  0  0  0  0  0  0  0  0  0  0
   -0.4023   24.0765  -29.1807 H   0  0  0  0  0  0  0  0  0  0  0  0
   -5.2008   21.1115  -31.7206 H   0  0  0  0  0  0  0  0  0  0  0  0
   -6.3663   21.6966  -30.4727 H   0  0  0  0  0  0  0  0  0  0  0  0
   -7.0257   21.0266  -33.3829 H   0  0  0  0  0  0  0  0  0  0  0  0
   -7.4051   20.0230  -31.8977 H   0  0  0  0  0  0  0  0  0  0  0  0
   -9.3119   23.5962  -32.1003 H   0  0  0  0  0  0  0  0  0  0  0  0
   -8.2972   23.0790  -30.6751 H   0  0  0  0  0  0  0  0  0  0  0  0
   -7.2699   23.7539  -33.4662 H   0  0  0  0  0  0  0  0  0  0  0  0
   -7.1416   24.7798  -31.9720 H   0  0  0  0  0  0  0  0  0  0  0  0
   -3.8964   21.4682  -31.6171 H   0  0  0  0  0  0  0  0  0  0  0  0
  1  2  2  0
  2  3  1  0
  3  4  1  0
  4  5  2  0
  5  6  1  0
  6  7  2  0
  7  8  1  0
  8  9  2  0
  9 10  1  0
  2 11  1  0
 11 12  2  0
 12 13  1  0
 13 14  2  0
 14 15  1  0
 14 16  1  0
 16 17  1  0
 17 18  2  0
 17 19  2  0
 17 20  1  0
 20 21  1  0
 21 22  1  0
 22 23  1  0
 23 24  1  0
 24 25  1  0
 16 26  2  0
  9  4  1  0
 26 11  1  0
 25 20  1  0
  5 27  1  0
  6 28  1  0
  7 29  1  0
  8 30  1  0
 10 31  1  0
 12 32  1  0
 13 33  1  0
 21 34  1  0
 21 35  1  0
 22 36  1  0
 22 37  1  0
 24 38  1  0
 24 39  1  0
 25 40  1  0
 25 41  1  0
 26 42  1  0
M  CHG  2   3  -1  15  -1
M  END
>  <UniqueID>  (30) 
28

>  <SMILES>  (30) 
O=C([N-]c1ccccc1O)c1ccc([O-])c(S(=O)(=O)N2CCOCC2)c1

>  <Energy>  (30) 
61.30716284470493

>  <Genealogy>  (30) 
O=C([N-]c1ccccc1O)c1ccc([O-])c(S(=O)(=O)N2CCOCC2)c1 (protonated)
O=C([N-]c1ccccc1O)c1ccc([O-])c(S(=O)(=O)N2CCOCC2)c1 (3D coordinates assigned)
O=C([N-]c1ccccc1O)c1ccc([O-])c(S(=O)(=O)N2CCOCC2)c1 (nonaromatic ring conformer: 61.30716284470493 kcal/mol)

>  <smiles>  (30) 
O=C(Nc1ccccc1O)c1ccc(O)c(S(=O)(=O)N2CCOCC2)c1

>  <score_type>  (30) 
oracle

>  <origin>  (30) 
adgpu

>  <m_score__min__energy>  (30) 
-11

>  <m_primary>  (30) 
energy

$$$$
30:0
     RDKit          3D

 44 46  0  0  0  0  0  0  0  0999 V2000
    0.4790   23.8590  -24.7530 N   0  0  0  0  0  0  0  0  0  0  0  0
    1.7760   24.0430  -25.3130 C   0  0  0  0  0  0  0  0  0  0  0  0
    2.6650   24.6510  -24.6600 O   0  0  0  0  0  0  0  0  0  0  0  0
    2.1480   23.4140  -26.9470 S   0  0  0  0  0  0  0  0  0  0  0  0
    0.4970   23.7480  -27.5420 C   0  0  0  0  0  0  0  0  0  0  0  0
   -0.4810   22.8210  -27.3860 N   0  0  0  0  0  0  0  0  0  0  0  0
   -1.7450   23.0550  -27.8250 C   0  0  0  0  0  0  0  0  0  0  0  0
   -2.6310   22.1730  -27.6680 O   0  0  0  0  0  0  0  0  0  0  0  0
   -2.0600   24.2750  -28.4380 C   0  0  0  0  0  0  0  0  0  0  0  0
   -3.3940   24.5080  -28.9110 N   0  0  0  0  0  0  0  0  0  0  0  0
   -3.7950   24.5560  -30.2870 C   0  0  0  0  0  0  0  0  0  0  0  0
   -3.9810   25.6720  -30.8480 O   0  0  0  0  0  0  0  0  0  0  0  0
   -4.0430   23.3010  -31.0350 C   0  0  0  0  0  0  0  0  0  0  0  0
   -3.0130   22.3590  -31.2150 C   0  0  0  0  0  0  0  0  0  0  0  0
   -3.2490   21.1780  -31.9230 C   0  0  0  0  0  0  0  0  0  0  0  0
   -4.5140   20.9170  -32.4610 C   0  0  0  0  0  0  0  0  0  0  0  0
   -4.7850   19.4300  -33.3650 S   0  0  0  0  0  0  0  0  0  0  0  0
   -5.9670   19.6330  -34.2710 O   0  0  0  0  0  0  0  0  0  0  0  0
   -3.5790   19.1140  -34.2070 O   0  0  0  0  0  0  0  0  0  0  0  0
   -5.1030   18.1280  -32.2370 N   0  0  0  0  0  0  0  0  0  0  0  0
   -6.4390   18.2510  -31.6260 C   0  0  0  0  0  0  0  0  0  0  0  0
   -7.5720   17.8630  -32.6070 C   0  0  0  0  0  0  0  0  0  0  0  0
   -7.1260   17.1040  -33.7180 O   0  0  0  0  0  0  0  0  0  0  0  0
   -6.1960   16.1290  -33.3020 C   0  0  0  0  0  0  0  0  0  0  0  0
   -4.8860   16.7990  -32.8520 C   0  0  0  0  0  0  0  0  0  0  0  0
   -5.5430   21.8520  -32.2910 C   0  0  0  0  0  0  0  0  0  0  0  0
   -5.3110   23.0350  -31.5840 C   0  0  0  0  0  0  0  0  0  0  0  0
   -1.0200   25.2040  -28.6270 C   0  0  0  0  0  0  0  0  0  0  0  0
   -1.2370   26.3930  -29.3100 O   0  0  0  0  0  0  0  0  0  0  0  0
    0.2260   24.9230  -28.1680 N   0  0  0  0  0  0  0  0  0  0  0  0
    0.2570   24.2260  -23.8010 H   0  0  0  0  0  0  0  0  0  0  0  0
   -0.2610   23.3530  -25.2890 H   0  0  0  0  0  0  0  0  0  0  0  0
   -2.0151   22.5540  -30.7953 H   0  0  0  0  0  0  0  0  0  0  0  0
   -2.4360   20.4494  -32.0582 H   0  0  0  0  0  0  0  0  0  0  0  0
   -6.4889   17.5895  -30.7486 H   0  0  0  0  0  0  0  0  0  0  0  0
   -6.5842   19.3043  -31.3440 H   0  0  0  0  0  0  0  0  0  0  0  0
   -8.3191   17.2705  -32.0585 H   0  0  0  0  0  0  0  0  0  0  0  0
   -7.9900   18.8000  -33.0036 H   0  0  0  0  0  0  0  0  0  0  0  0
   -6.6192   15.5587  -32.4620 H   0  0  0  0  0  0  0  0  0  0  0  0
   -5.9824   15.4552  -34.1449 H   0  0  0  0  0  0  0  0  0  0  0  0
   -4.3929   16.1473  -32.1157 H   0  0  0  0  0  0  0  0  0  0  0  0
   -4.2646   16.9461  -33.7477 H   0  0  0  0  0  0  0  0  0  0  0  0
   -6.5382   21.6543  -32.7159 H   0  0  0  0  0  0  0  0  0  0  0  0
   -6.1253   23.7633  -31.4558 H   0  0  0  0  0  0  0  0  0  0  0  0
  1  2  1  0
  2  3  2  0
  2  4  1  0
  4  5  1  0
  5  6  2  0
  6  7  1  0
  7  8  2  0
  7  9  1  0
  9 10  1  0
 10 11  1  0
 11 12  2  0
 11 13  1  0
 13 14  2  0
 14 15  1  0
 15 16  2  0
 16 17  1  0
 17 18  2  0
 17 19  2  0
 17 20  1  0
 20 21  1  0
 21 22  1  0
 22 23  1  0
 23 24  1  0
 24 25  1  0
 16 26  1  0
 26 27  2  0
  9 28  2  0
 28 29  1  0
 28 30  1  0
 30  5  1  0
 27 13  1  0
 25 20  1  0
  1 31  1  0
  1 32  1  0
 14 33  1  0
 15 34  1  0
 21 35  1  0
 21 36  1  0
 22 37  1  0
 22 38  1  0
 24 39  1  0
 24 40  1  0
 25 41  1  0
 25 42  1  0
 26 43  1  0
 27 44  1  0
M  CHG  3  10  -1  29  -1  30  -1
M  END
>  <UniqueID>  (31) 
29

>  <SMILES>  (31) 
NC(=O)Sc1nc(=O)c([N-]C(=O)c2ccc(S(=O)(=O)N3CCOCC3)cc2)c([O-])[n-]1

>  <Energy>  (31) 
58.95146064214729

>  <Genealogy>  (31) 
NC(=O)Sc1nc(=O)c([N-]C(=O)c2ccc(S(=O)(=O)N3CCOCC3)cc2)c([O-])[n-]1 (protonated)
NC(=O)Sc1nc(=O)c([N-]C(=O)c2ccc(S(=O)(=O)N3CCOCC3)cc2)c([O-])[n-]1 (3D coordinates assigned)
NC(=O)Sc1nc(=O)c([N-]C(=O)c2ccc(S(=O)(=O)N3CCOCC3)cc2)c([O-])[n-]1 (nonaromatic ring conformer: 58.95146064214729 kcal/mol)

>  <smiles>  (31) 
NC(=O)Sc1nc(=O)c(NC(=O)c2ccc(S(=O)(=O)N3CCOCC3)cc2)c(O)[nH]1

>  <score_type>  (31) 
oracle

>  <origin>  (31) 
adgpu

>  <m_score__min__energy>  (31) 
-14.48

>  <m_primary>  (31) 
energy

$$$$
31:0
     RDKit          3D

 51 54  0  0  0  0  0  0  0  0999 V2000
   -6.8750   19.8660  -34.2950 O   0  0  0  0  0  0  0  0  0  0  0  0
   -6.4110   18.8030  -33.3380 S   0  0  0  0  0  0  0  0  0  0  0  0
   -6.8640   17.4710  -33.8670 O   0  0  0  0  0  0  0  0  0  0  0  0
   -4.6440   18.8460  -33.2630 C   0  0  0  0  0  0  0  0  0  0  0  0
   -3.9160   17.6650  -33.4700 C   0  0  0  0  0  0  0  0  0  0  0  0
   -2.5150   17.6720  -33.4410 C   0  0  0  0  0  0  0  0  0  0  0  0
   -1.7970   16.4500  -33.6780 N   0  0  0  0  0  0  0  0  0  0  0  0
   -2.0860   15.5390  -34.7490 C   0  0  0  0  0  0  0  0  0  0  0  0
   -2.6510   15.8880  -35.8530 N   0  0  0  0  0  0  0  0  0  0  0  0
   -2.7270   14.7510  -36.7610 C   0  0  0  0  0  0  0  0  0  0  0  0
   -2.0620   13.5930  -35.9940 C   0  0  0  0  0  0  0  0  0  0  0  0
   -1.6740   14.1880  -34.7280 N   0  0  0  0  0  0  0  0  0  0  0  0
   -1.8380   18.8880  -33.2490 C   0  0  0  0  0  0  0  0  0  0  0  0
   -2.5560   20.0670  -33.0380 C   0  0  0  0  0  0  0  0  0  0  0  0
   -3.9530   20.0510  -33.0200 C   0  0  0  0  0  0  0  0  0  0  0  0
   -4.6390   21.2450  -32.7750 O   0  0  0  0  0  0  0  0  0  0  0  0
   -4.1610   22.2530  -31.9270 C   0  0  0  0  0  0  0  0  0  0  0  0
   -4.9750   23.3650  -31.6780 C   0  0  0  0  0  0  0  0  0  0  0  0
   -4.5430   24.3780  -30.8160 C   0  0  0  0  0  0  0  0  0  0  0  0
   -3.2880   24.2920  -30.2070 C   0  0  0  0  0  0  0  0  0  0  0  0
   -2.8630   25.2980  -29.3460 O   0  0  0  0  0  0  0  0  0  0  0  0
   -2.4600   23.1960  -30.4640 C   0  0  0  0  0  0  0  0  0  0  0  0
   -2.8890   22.1810  -31.3260 C   0  0  0  0  0  0  0  0  0  0  0  0
   -7.0990   19.1010  -31.7550 N   0  0  0  0  0  0  0  0  0  0  0  0
   -8.4160   18.4600  -31.5980 C   0  0  0  0  0  0  0  0  0  0  0  0
   -9.5340   19.2170  -32.3540 C   0  0  0  0  0  0  0  0  0  0  0  0
   -9.1800   20.5430  -32.7090 O   0  0  0  0  0  0  0  0  0  0  0  0
   -8.5170   21.1730  -31.6370 C   0  0  0  0  0  0  0  0  0  0  0  0
   -7.1290   20.5430  -31.4240 C   0  0  0  0  0  0  0  0  0  0  0  0
   -4.4511   16.7224  -33.6573 H   0  0  0  0  0  0  0  0  0  0  0  0
   -0.9980   16.2130  -33.0470 H   0  0  0  0  0  0  0  0  0  0  0  0
   -2.9670   16.8540  -36.0920 H   0  0  0  0  0  0  0  0  0  0  0  0
   -3.7747   14.5105  -36.9946 H   0  0  0  0  0  0  0  0  0  0  0  0
   -2.2316   14.9522  -37.7223 H   0  0  0  0  0  0  0  0  0  0  0  0
   -2.7731   12.7685  -35.8370 H   0  0  0  0  0  0  0  0  0  0  0  0
   -1.2094   13.1595  -36.5373 H   0  0  0  0  0  0  0  0  0  0  0  0
   -1.1790   13.7060  -33.9450 H   0  0  0  0  0  0  0  0  0  0  0  0
   -0.7384   18.9114  -33.2649 H   0  0  0  0  0  0  0  0  0  0  0  0
   -2.0183   21.0143  -32.8850 H   0  0  0  0  0  0  0  0  0  0  0  0
   -5.9593   23.4421  -32.1630 H   0  0  0  0  0  0  0  0  0  0  0  0
   -5.1919   25.2437  -30.6170 H   0  0  0  0  0  0  0  0  0  0  0  0
   -1.4703   23.1313  -29.9882 H   0  0  0  0  0  0  0  0  0  0  0  0
   -2.2313   21.3244  -31.5350 H   0  0  0  0  0  0  0  0  0  0  0  0
   -8.3580   17.4333  -31.9886 H   0  0  0  0  0  0  0  0  0  0  0  0
   -8.6686   18.4702  -30.5274 H   0  0  0  0  0  0  0  0  0  0  0  0
   -9.7697   18.6616  -33.2738 H   0  0  0  0  0  0  0  0  0  0  0  0
  -10.3960   19.2837  -31.6739 H   0  0  0  0  0  0  0  0  0  0  0  0
   -8.3992   22.2433  -31.8617 H   0  0  0  0  0  0  0  0  0  0  0  0
   -9.1132   21.0439  -30.7216 H   0  0  0  0  0  0  0  0  0  0  0  0
   -6.4032   21.0661  -32.0640 H   0  0  0  0  0  0  0  0  0  0  0  0
   -6.8785   20.6442  -30.3577 H   0  0  0  0  0  0  0  0  0  0  0  0
  1  2  2  0
  2  3  2  0
  2  4  1  0
  4  5  2  0
  5  6  1  0
  6  7  1  0
  7  8  1  0
  8  9  2  0
  9 10  1  0
 10 11  1  0
 11 12  1  0
  6 13  2  0
 13 14  1  0
 14 15  2  0
 15 16  1  0
 16 17  1  0
 17 18  2  0
 18 19  1  0
 19 20  2  0
 20 21  1  0
 20 22  1  0
 22 23  2  0
  2 24  1  0
 24 25  1  0
 25 26  1  0
 26 27  1  0
 27 28  1  0
 28 29  1  0
 15  4  1  0
 23 17  1  0
 29 24  1  0
 12  8  1  0
  5 30  1  0
  7 31  1  0
  9 32  1  0
 10 33  1  0
 10 34  1  0
 11 35  1  0
 11 36  1  0
 12 37  1  0
 13 38  1  0
 14 39  1  0
 18 40  1  0
 19 41  1  0
 22 42  1  0
 23 43  1  0
 25 44  1  0
 25 45  1  0
 26 46  1  0
 26 47  1  0
 28 48  1  0
 28 49  1  0
 29 50  1  0
 29 51  1  0
M  CHG  2   9   1  21  -1
M  END
>  <UniqueID>  (32) 
30

>  <SMILES>  (32) 
O=S(=O)(c1cc(NC2=[NH+]CCN2)ccc1Oc1ccc([O-])cc1)N1CCOCC1

>  <Energy>  (32) 
86.05375933528283

>  <Genealogy>  (32) 
O=S(=O)(c1cc(NC2=[NH+]CCN2)ccc1Oc1ccc([O-])cc1)N1CCOCC1 (protonated)
O=S(=O)(c1cc(NC2=[NH+]CCN2)ccc1Oc1ccc([O-])cc1)N1CCOCC1 (3D coordinates assigned)
O=S(=O)(c1cc(NC2=[NH+]CCN2)ccc1Oc1ccc([O-])cc1)N1CCOCC1 (nonaromatic ring conformer: 86.05375933528283 kcal/mol)

>  <smiles>  (32) 
O=S(=O)(c1cc(NC2=NCCN2)ccc1Oc1ccc(O)cc1)N1CCOCC1

>  <score_type>  (32) 
oracle

>  <origin>  (32) 
adgpu

>  <m_score__min__energy>  (32) 
-9.7400000000000002

>  <m_primary>  (32) 
energy

$$$$
32:0
     RDKit          3D

 52 55  0  0  0  0  0  0  0  0999 V2000
   -1.6010   25.4730  -29.3140 O   0  0  0  0  0  0  0  0  0  0  0  0
   -2.7270   24.9100  -29.3310 C   0  0  0  0  0  0  0  0  0  0  0  0
   -3.1420   24.1550  -28.1900 N   0  0  0  0  0  0  0  0  0  0  0  0
   -2.5250   22.9450  -27.7260 C   0  0  0  0  0  0  0  0  0  0  0  0
   -2.9030   21.6980  -28.2530 C   0  0  0  0  0  0  0  0  0  0  0  0
   -2.3450   20.5200  -27.7510 C   0  0  0  0  0  0  0  0  0  0  0  0
   -1.4200   20.5730  -26.7080 C   0  0  0  0  0  0  0  0  0  0  0  0
   -1.0530   21.8030  -26.1610 C   0  0  0  0  0  0  0  0  0  0  0  0
   -1.6000   22.9970  -26.6600 C   0  0  0  0  0  0  0  0  0  0  0  0
   -1.1940   24.2570  -26.0950 N   0  0  0  0  0  0  0  0  0  0  0  0
    0.2310   24.5590  -25.9030 C   0  0  0  0  0  0  0  0  0  0  0  0
    0.4470   25.2170  -24.5360 C   0  0  0  0  0  0  0  0  0  0  0  0
   -0.5030   26.4100  -24.2760 C   0  0  0  0  0  0  0  0  0  0  0  0
   -1.5800   26.5940  -25.3560 C   0  0  0  0  0  0  0  0  0  0  0  0
   -2.2160   25.2540  -25.7420 C   0  0  0  0  0  0  0  0  0  0  0  0
   -3.5830   25.0190  -30.4770 N   0  0  0  0  0  0  0  0  0  0  0  0
   -4.7880   24.2790  -30.7340 C   0  0  0  0  0  0  0  0  0  0  0  0
   -6.0410   24.7650  -30.3320 C   0  0  0  0  0  0  0  0  0  0  0  0
   -7.1970   24.0350  -30.5930 C   0  0  0  0  0  0  0  0  0  0  0  0
   -7.1320   22.8230  -31.2840 C   0  0  0  0  0  0  0  0  0  0  0  0
   -8.6380   21.9390  -31.5130 Cl  0  0  0  0  0  0  0  0  0  0  0  0
   -5.8870   22.3370  -31.7450 C   0  0  0  0  0  0  0  0  0  0  0  0
   -5.7880   20.8100  -32.6590 S   0  0  0  0  0  0  0  0  0  0  0  0
   -4.4890   20.7430  -33.4110 O   0  0  0  0  0  0  0  0  0  0  0  0
   -6.8920   20.7660  -33.6760 O   0  0  0  0  0  0  0  0  0  0  0  0
   -5.9080   19.3470  -31.6260 C   0  0  0  0  0  0  0  0  0  0  0  0
   -6.0890   18.0130  -32.3330 C   0  0  0  0  0  0  0  0  0  0  0  0
   -7.2740   18.6820  -31.6540 C   0  0  0  0  0  0  0  0  0  0  0  0
   -4.7130   23.0700  -31.4560 C   0  0  0  0  0  0  0  0  0  0  0  0
   -3.4730   22.5850  -31.8790 O   0  0  0  0  0  0  0  0  0  0  0  0
   -3.6427   21.6495  -29.0657 H   0  0  0  0  0  0  0  0  0  0  0  0
   -2.6354   19.5490  -28.1787 H   0  0  0  0  0  0  0  0  0  0  0  0
   -0.9796   19.6442  -26.3165 H   0  0  0  0  0  0  0  0  0  0  0  0
   -0.3299   21.8381  -25.3328 H   0  0  0  0  0  0  0  0  0  0  0  0
    0.8113   23.6259  -25.9541 H   0  0  0  0  0  0  0  0  0  0  0  0
    0.5638   25.2487  -26.6927 H   0  0  0  0  0  0  0  0  0  0  0  0
    0.2809   24.4612  -23.7542 H   0  0  0  0  0  0  0  0  0  0  0  0
    1.4748   25.6087  -24.5209 H   0  0  0  0  0  0  0  0  0  0  0  0
   -1.0046   26.2494  -23.3103 H   0  0  0  0  0  0  0  0  0  0  0  0
    0.1161   27.3192  -24.2838 H   0  0  0  0  0  0  0  0  0  0  0  0
   -2.3626   27.2644  -24.9711 H   0  0  0  0  0  0  0  0  0  0  0  0
   -1.1051   27.0234  -26.2504 H   0  0  0  0  0  0  0  0  0  0  0  0
   -2.8036   24.8785  -24.8913 H   0  0  0  0  0  0  0  0  0  0  0  0
   -2.8593   25.4160  -26.6194 H   0  0  0  0  0  0  0  0  0  0  0  0
   -6.1104   25.7292  -29.8071 H   0  0  0  0  0  0  0  0  0  0  0  0
   -8.1708   24.4162  -30.2519 H   0  0  0  0  0  0  0  0  0  0  0  0
   -5.2145   19.7115  -30.8539 H   0  0  0  0  0  0  0  0  0  0  0  0
   -6.0412   17.9612  -33.4307 H   0  0  0  0  0  0  0  0  0  0  0  0
   -5.6094   17.0253  -32.2657 H   0  0  0  0  0  0  0  0  0  0  0  0
   -8.0836   19.1139  -32.2607 H   0  0  0  0  0  0  0  0  0  0  0  0
   -8.0069   18.3783  -30.8920 H   0  0  0  0  0  0  0  0  0  0  0  0
   -2.5930   22.9810  -31.5720 H   0  0  0  0  0  0  0  0  0  0  0  0
  1  2  2  0
  2  3  1  0
  3  4  1  0
  4  5  2  0
  5  6  1  0
  6  7  2  0
  7  8  1  0
  8  9  2  0
  9 10  1  0
 10 11  1  0
 11 12  1  0
 12 13  1  0
 13 14  1  0
 14 15  1  0
  2 16  1  0
 16 17  1  0
 17 18  2  0
 18 19  1  0
 19 20  2  0
 20 21  1  0
 20 22  1  0
 22 23  1  0
 23 24  2  0
 23 25  2  0
 23 26  1  0
 26 27  1  0
 27 28  1  0
 22 29  2  0
 29 30  1  0
  9  4  1  0
 15 10  1  0
 29 17  1  0
 28 26  1  0
  5 31  1  0
  6 32  1  0
  7 33  1  0
  8 34  1  0
 11 35  1  0
 11 36  1  0
 12 37  1  0
 12 38  1  0
 13 39  1  0
 13 40  1  0
 14 41  1  0
 14 42  1  0
 15 43  1  0
 15 44  1  0
 18 45  1  0
 19 46  1  0
 26 47  1  0
 27 48  1  0
 27 49  1  0
 28 50  1  0
 28 51  1  0
 30 52  1  0
M  CHG  2   3  -1  16  -1
M  END
>  <UniqueID>  (33) 
31

>  <SMILES>  (33) 
O=C([N-]c1ccccc1N1CCCCC1)[N-]c1ccc(Cl)c(S(=O)(=O)C2CC2)c1O

>  <Energy>  (33) 
333.74356623151004

>  <Genealogy>  (33) 
O=C([N-]c1ccccc1N1CCCCC1)[N-]c1ccc(Cl)c(S(=O)(=O)C2CC2)c1O (protonated)
O=C([N-]c1ccccc1N1CCCCC1)[N-]c1ccc(Cl)c(S(=O)(=O)C2CC2)c1O (3D coordinates assigned)
O=C([N-]c1ccccc1N1CCCCC1)[N-]c1ccc(Cl)c(S(=O)(=O)C2CC2)c1O (nonaromatic ring conformer: 333.74356623151004 kcal/mol)

>  <smiles>  (33) 
O=C(Nc1ccccc1N1CCCCC1)Nc1ccc(Cl)c(S(=O)(=O)C2CC2)c1O

>  <score_type>  (33) 
oracle

>  <origin>  (33) 
adgpu

>  <m_score__min__energy>  (33) 
-13.07

>  <m_primary>  (33) 
energy

$$$$
33:0
     RDKit          3D

 74 78  0  0  1  0  0  0  0  0999 V2000
   -0.7440   26.4630  -27.0270 C   0  0  0  0  0  0  0  0  0  0  0  0
   -1.5890   25.5700  -27.8620 C   0  0  0  0  0  0  0  0  0  0  0  0
   -2.7110   24.8480  -27.5050 C   0  0  0  0  0  0  0  0  0  0  0  0
   -3.1370   24.1690  -28.6440 C   0  0  0  0  0  0  0  0  0  0  0  0
   -4.1740   23.3800  -28.7000 N   0  0  0  0  0  0  0  0  0  0  0  0
   -4.5290   22.7260  -29.9270 C   0  0  0  0  0  0  0  0  0  0  0  0
   -5.8470   22.3190  -30.1690 C   0  0  0  0  0  0  0  0  0  0  0  0
   -6.1780   21.6910  -31.3500 C   0  0  0  0  0  0  0  0  0  0  0  0
   -7.5010   21.2650  -31.6280 N   0  0  0  0  0  0  0  0  0  0  0  0
   -8.6510   21.6940  -30.8580 C   0  0  0  0  0  0  0  0  0  0  0  0
   -9.8490   21.6990  -31.7580 C   0  0  0  0  0  0  0  0  0  0  0  0
  -10.1160   20.5110  -32.3910 O   0  0  0  0  0  0  0  0  0  0  0  0
   -9.0560   19.6490  -32.5240 C   0  0  0  0  0  0  0  0  0  0  0  0
   -7.7440   20.3560  -32.7310 C   0  0  0  0  0  0  0  0  0  0  0  0
   -5.2030   21.4920  -32.2370 N   0  0  0  0  0  0  0  0  0  0  0  0
   -3.9260   21.8650  -32.0490 C   0  0  0  0  0  0  0  0  0  0  0  0
   -2.7050   21.5430  -33.3160 S   0  0  0  0  0  0  0  0  0  0  0  0
   -2.1940   19.8430  -33.1490 C   0  0  0  0  0  0  0  0  0  0  0  0
   -0.8750   19.6110  -32.8220 C   0  0  0  0  0  0  0  0  0  0  0  0
   -0.4450   18.3130  -32.6420 C   0  0  0  0  0  0  0  0  0  0  0  0
   -1.2910   17.2170  -32.7750 C   0  0  0  0  0  0  0  0  0  0  0  0
   -0.7990   15.8890  -32.5910 N   0  0  0  0  0  0  0  0  0  0  0  0
    0.4750   15.5760  -32.0000 C   0  0  0  0  0  0  0  0  0  0  0  0
    0.3790   14.5290  -30.9100 C   0  0  0  0  0  0  0  0  0  0  0  0
   -0.2000   13.3620  -31.5020 N   0  0  0  0  0  0  0  0  0  0  0  0
    0.6590   12.7150  -32.4420 C   0  0  0  0  0  0  0  0  0  0  0  0
   -1.5280   13.6320  -31.9600 C   0  0  0  0  0  0  0  0  0  0  0  0
   -1.6120   14.7300  -33.0010 C   0  0  0  0  0  0  0  0  0  0  0  0
   -2.5970   17.4960  -33.1030 C   0  0  0  0  0  0  0  0  0  0  0  0
   -3.0680   18.7980  -33.2940 C   0  0  0  0  0  0  0  0  0  0  0  0
   -4.4850   18.9270  -33.6870 C   0  0  0  0  0  0  0  0  0  0  0  0
   -5.2640   17.7470  -33.5380 N   0  0  0  0  0  0  0  0  0  0  0  0
   -6.1360   17.3790  -34.6030 C   0  0  0  0  0  0  0  0  0  0  0  0
   -5.9670   17.6690  -32.2890 C   0  0  0  0  0  0  0  0  0  0  0  0
   -3.6240   22.4770  -30.8890 N   0  0  0  0  0  0  0  0  0  0  0  0
   -2.2980   24.4800  -29.6260 N   0  0  0  0  0  0  0  0  0  0  0  0
   -1.3600   25.3220  -29.1730 N   0  0  0  0  0  0  0  0  0  0  0  0
   -0.9360   26.2601  -25.9631 H   0  0  0  0  0  0  0  0  0  0  0  0
    0.3171   26.2776  -27.2500 H   0  0  0  0  0  0  0  0  0  0  0  0
   -0.9877   27.5123  -27.2500 H   0  0  0  0  0  0  0  0  0  0  0  0
   -3.1792   24.8154  -26.5101 H   0  0  0  0  0  0  0  0  0  0  0  0
   -6.6231   22.5019  -29.4113 H   0  0  0  0  0  0  0  0  0  0  0  0
   -8.8179   20.9994  -30.0215 H   0  0  0  0  0  0  0  0  0  0  0  0
   -8.4792   22.7020  -30.4526 H   0  0  0  0  0  0  0  0  0  0  0  0
  -10.7275   21.9652  -31.1518 H   0  0  0  0  0  0  0  0  0  0  0  0
   -9.6254   22.4231  -32.5553 H   0  0  0  0  0  0  0  0  0  0  0  0
   -8.9847   19.0382  -31.6120 H   0  0  0  0  0  0  0  0  0  0  0  0
   -9.2424   19.0345  -33.4171 H   0  0  0  0  0  0  0  0  0  0  0  0
   -6.9327   19.6148  -32.7799 H   0  0  0  0  0  0  0  0  0  0  0  0
   -7.7806   20.9251  -33.6716 H   0  0  0  0  0  0  0  0  0  0  0  0
   -0.1741   20.4508  -32.7061 H   0  0  0  0  0  0  0  0  0  0  0  0
    0.6095   18.1374  -32.3828 H   0  0  0  0  0  0  0  0  0  0  0  0
    1.1448   15.2015  -32.7881 H   0  0  0  0  0  0  0  0  0  0  0  0
    0.8597   16.4976  -31.5388 H   0  0  0  0  0  0  0  0  0  0  0  0
    1.3808   14.2972  -30.5193 H   0  0  0  0  0  0  0  0  0  0  0  0
   -0.2346   14.8899  -30.0714 H   0  0  0  0  0  0  0  0  0  0  0  0
    1.4247   12.1383  -31.9025 H   0  0  0  0  0  0  0  0  0  0  0  0
    0.0666   12.0368  -33.0737 H   0  0  0  0  0  0  0  0  0  0  0  0
    1.1473   13.4716  -33.0737 H   0  0  0  0  0  0  0  0  0  0  0  0
   -1.9369   12.7092  -32.3974 H   0  0  0  0  0  0  0  0  0  0  0  0
   -2.1005   13.9782  -31.0868 H   0  0  0  0  0  0  0  0  0  0  0  0
   -1.2390   14.3474  -33.9625 H   0  0  0  0  0  0  0  0  0  0  0  0
   -2.6605   15.0470  -33.1019 H   0  0  0  0  0  0  0  0  0  0  0  0
   -3.3009   16.6589  -33.2200 H   0  0  0  0  0  0  0  0  0  0  0  0
   -4.9393   19.7151  -33.0686 H   0  0  0  0  0  0  0  0  0  0  0  0
   -4.4838   19.1584  -34.7624 H   0  0  0  0  0  0  0  0  0  0  0  0
   -7.0746   16.9829  -34.1881 H   0  0  0  0  0  0  0  0  0  0  0  0
   -6.3525   18.2625  -35.2215 H   0  0  0  0  0  0  0  0  0  0  0  0
   -5.6541   16.6075  -35.2215 H   0  0  0  0  0  0  0  0  0  0  0  0
   -5.2497   17.7486  -31.4589 H   0  0  0  0  0  0  0  0  0  0  0  0
   -6.6941   18.4920  -32.2255 H   0  0  0  0  0  0  0  0  0  0  0  0
   -6.4960   16.7067  -32.2255 H   0  0  0  0  0  0  0  0  0  0  0  0
   -2.3820   24.1050  -30.6090 H   0  0  0  0  0  0  0  0  0  0  0  0
   -0.5690   25.7250  -29.7530 H   0  0  0  0  0  0  0  0  0  0  0  0
  1  2  1  0
  2  3  2  0
  3  4  1  0
  4  5  2  0
  5  6  1  0
  6  7  2  0
  7  8  1  0
  8  9  1  0
  9 10  1  0
 10 11  1  0
 11 12  1  0
 12 13  1  0
 13 14  1  0
  8 15  2  0
 15 16  1  0
 16 17  1  0
 17 18  1  0
 18 19  2  0
 19 20  1  0
 20 21  2  0
 21 22  1  0
 22 23  1  0
 23 24  1  0
 24 25  1  0
 25 26  1  0
 25 27  1  0
 27 28  1  0
 21 29  1  0
 29 30  2  0
 30 31  1  0
 31 32  1  0
 32 33  1  0
 32 34  1  0
 16 35  2  0
  4 36  1  0
 36 37  1  0
 37  2  1  0
 35  6  1  0
 14  9  1  0
 30 18  1  0
 28 22  1  0
  1 38  1  0
  1 39  1  0
  1 40  1  0
  3 41  1  0
  7 42  1  0
 10 43  1  0
 10 44  1  0
 11 45  1  0
 11 46  1  0
 13 47  1  0
 13 48  1  0
 14 49  1  0
 14 50  1  0
 19 51  1  0
 20 52  1  0
 23 53  1  0
 23 54  1  0
 24 55  1  0
 24 56  1  0
 26 57  1  0
 26 58  1  0
 26 59  1  0
 27 60  1  0
 27 61  1  0
 28 62  1  0
 28 63  1  0
 29 64  1  0
 31 65  1  0
 31 66  1  0
 33 67  1  0
 33 68  1  0
 33 69  1  0
 34 70  1  0
 34 71  1  0
 34 72  1  0
 36 73  1  0
 37 74  1  0
M  END
>  <smiles>  (34) 
Cc1cc(=Nc2cc(N3CCOCC3)nc(Sc3ccc(N4CCN(C)CC4)cc3CN(C)C)n2)[nH][nH]1

>  <score_type>  (34) 
oracle

>  <origin>  (34) 
adgpu

>  <m_score__min__energy>  (34) 
-10.609999999999999

>  <m_primary>  (34) 
energy

$$$$
34:0
     RDKit          3D

 51 53  0  0  0  0  0  0  0  0999 V2000
   -6.0597   17.1082  -34.4255 H   0  0  0  0  0  0  0  0  0  0  0  0
   -5.2660   17.8150  -34.1420 C   0  0  0  0  0  0  0  0  0  0  0  0
   -3.9690   17.6630  -34.6370 C   0  0  0  0  0  0  0  0  0  0  0  0
   -3.6380   16.5370  -35.5630 C   0  0  0  0  0  0  0  0  0  0  0  0
   -3.3756   15.6445  -34.9759 H   0  0  0  0  0  0  0  0  0  0  0  0
   -4.5091   16.3157  -36.1972 H   0  0  0  0  0  0  0  0  0  0  0  0
   -2.7857   16.8223  -36.1972 H   0  0  0  0  0  0  0  0  0  0  0  0
   -3.0100   18.5610  -34.2960 N   0  0  0  0  0  0  0  0  0  0  0  0
   -3.2850   19.6150  -33.4800 C   0  0  0  0  0  0  0  0  0  0  0  0
   -2.3620   20.4640  -33.1330 N   0  0  0  0  0  0  0  0  0  0  0  0
   -1.0000   20.4980  -33.5930 C   0  0  0  0  0  0  0  0  0  0  0  0
   -0.0720   19.6250  -33.0080 C   0  0  0  0  0  0  0  0  0  0  0  0
   -0.4007   18.9218  -32.2286 H   0  0  0  0  0  0  0  0  0  0  0  0
    1.2670   19.6410  -33.4070 C   0  0  0  0  0  0  0  0  0  0  0  0
    1.9838   18.9409  -32.9531 H   0  0  0  0  0  0  0  0  0  0  0  0
    1.6980   20.5480  -34.3850 C   0  0  0  0  0  0  0  0  0  0  0  0
    3.0770   20.5640  -34.7960 C   0  0  0  0  0  0  0  0  0  0  0  0
    4.1860   20.5770  -35.1280 N   0  0  0  0  0  0  0  0  0  0  0  0
    0.7860   21.4450  -34.9500 C   0  0  0  0  0  0  0  0  0  0  0  0
    1.1234   22.1641  -35.7109 H   0  0  0  0  0  0  0  0  0  0  0  0
   -0.5540   21.4300  -34.5500 C   0  0  0  0  0  0  0  0  0  0  0  0
   -1.2631   22.1497  -34.9850 H   0  0  0  0  0  0  0  0  0  0  0  0
   -4.5380   19.7570  -32.9750 N   0  0  0  0  0  0  0  0  0  0  0  0
   -5.5390   18.8860  -33.2760 C   0  0  0  0  0  0  0  0  0  0  0  0
   -6.8520   19.0790  -32.7030 N   0  0  0  0  0  0  0  0  0  0  0  0
   -7.6210   20.3060  -32.9750 C   0  0  0  0  0  0  0  0  0  0  0  0
   -7.5759   20.5327  -34.0504 H   0  0  0  0  0  0  0  0  0  0  0  0
   -8.6661   20.1513  -32.6686 H   0  0  0  0  0  0  0  0  0  0  0  0
   -7.0460   21.4590  -32.1990 C   0  0  0  0  0  0  0  0  0  0  0  0
   -7.3830   22.7750  -32.5480 C   0  0  0  0  0  0  0  0  0  0  0  0
   -8.1069   22.9584  -33.3557 H   0  0  0  0  0  0  0  0  0  0  0  0
   -6.8040   23.8550  -31.8750 C   0  0  0  0  0  0  0  0  0  0  0  0
   -7.0748   24.8839  -32.1543 H   0  0  0  0  0  0  0  0  0  0  0  0
   -5.8800   23.6310  -30.8460 C   0  0  0  0  0  0  0  0  0  0  0  0
   -5.1260   24.9930  -30.0230 S   0  0  0  0  0  0  0  0  0  0  0  0
   -3.8510   25.3680  -30.7240 O   0  0  0  0  0  0  0  0  0  0  0  0
   -6.0520   26.1770  -30.0420 O   0  0  0  0  0  0  0  0  0  0  0  0
   -4.7770   24.5590  -28.3870 N   0  0  0  0  0  0  0  0  0  0  0  0
   -5.6420   24.1210  -27.9960 H   0  0  0  0  0  0  0  0  0  0  0  0
   -4.6280   25.4500  -27.8610 H   0  0  0  0  0  0  0  0  0  0  0  0
   -5.5330   22.3190  -30.5010 C   0  0  0  0  0  0  0  0  0  0  0  0
   -4.8013   22.1379  -29.6999 H   0  0  0  0  0  0  0  0  0  0  0  0
   -6.1140   21.2380  -31.1720 C   0  0  0  0  0  0  0  0  0  0  0  0
   -5.8396   20.2097  -30.8939 H   0  0  0  0  0  0  0  0  0  0  0  0
   -7.4960   17.9650  -31.9890 C   0  0  0  0  0  0  0  0  0  0  0  0
   -6.9196   17.7365  -31.0804 H   0  0  0  0  0  0  0  0  0  0  0  0
   -7.5244   17.0878  -32.6521 H   0  0  0  0  0  0  0  0  0  0  0  0
   -8.9230   18.3320  -31.5980 C   0  0  0  0  0  0  0  0  0  0  0  0
   -9.0086   18.3540  -30.5016 H   0  0  0  0  0  0  0  0  0  0  0  0
   -9.1713   19.3232  -32.0052 H   0  0  0  0  0  0  0  0  0  0  0  0
   -9.6188   17.5836  -32.0052 H   0  0  0  0  0  0  0  0  0  0  0  0
  1  2  1  0
  2  3  1  0
  3  4  1  0
  4  5  1  0
  4  6  1  0
  4  7  1  0
  3  8  2  0
  8  9  1  0
  9 10  2  0
 10 11  1  0
 11 12  2  0
 12 13  1  0
 12 14  1  0
 14 15  1  0
 14 16  2  0
 16 17  1  0
 17 18  3  0
 16 19  1  0
 19 20  1  0
 19 21  2  0
 21 22  1  0
  9 23  1  0
 23 24  1  0
 24 25  1  0
 25 26  1  0
 26 27  1  0
 26 28  1  0
 26 29  1  0
 29 30  2  0
 30 31  1  0
 30 32  1  0
 32 33  1  0
 32 34  2  0
 34 35  1  0
 35 36  2  0
 35 37  2  0
 35 38  1  0
 38 39  1  0
 38 40  1  0
 34 41  1  0
 41 42  1  0
 41 43  2  0
 43 44  1  0
 25 45  1  0
 45 46  1  0
 45 47  1  0
 45 48  1  0
 48 49  1  0
 48 50  1  0
 48 51  1  0
 24  2  2  0
 43 29  1  0
 21 11  1  0
M  CHG  1  23  -1
M  END
>  <UniqueID>  (35) 
32

>  <SMILES>  (35) 
CCN(Cc1ccc(S(N)(=O)=O)cc1)c1cc(C)n/c(=N\c2ccc(C#N)cc2)[n-]1

>  <Energy>  (35) 
53.80411784899196

>  <Genealogy>  (35) 
CCN(Cc1ccc(S(N)(=O)=O)cc1)c1cc(C)nc(=Nc2ccc(C#N)cc2)[n-]1 (protonated)
CCN(Cc1ccc(S(N)(=O)=O)cc1)c1cc(C)n/c(=N\c2ccc(C#N)cc2)[n-]1 (cis-trans isomerization)
CCN(Cc1ccc(S(N)(=O)=O)cc1)c1cc(C)n/c(=N\c2ccc(C#N)cc2)[n-]1 (3D coordinates assigned)
CCN(Cc1ccc(S(N)(=O)=O)cc1)c1cc(C)n/c(=N\c2ccc(C#N)cc2)[n-]1 (optimized conformer: 53.80411784899196 kcal/mol)

>  <smiles>  (35) 
CCN(Cc1ccc(S(N)(=O)=O)cc1)c1cc(C)nc(=Nc2ccc(C#N)cc2)[nH]1

>  <score_type>  (35) 
oracle

>  <origin>  (35) 
adgpu

>  <m_score__min__energy>  (35) 
-10.369999999999999

>  <m_primary>  (35) 
energy

$$$$
35:0
     RDKit          3D

 56 59  0  0  0  0  0  0  0  0999 V2000
   -0.4240   22.7940  -35.9810 H   0  0  0  0  0  0  0  0  0  0  0  0
    0.2340   22.3510  -35.3010 N   0  0  0  0  0  0  0  0  0  0  0  0
   -0.1760   21.4890  -34.4290 C   0  0  0  0  0  0  0  0  0  0  0  0
    0.7090   20.9360  -33.5620 N   0  0  0  0  0  0  0  0  0  0  0  0
    0.2960   20.0300  -32.6340 C   0  0  0  0  0  0  0  0  0  0  0  0
    1.2370   19.4470  -31.7090 N   0  0  0  0  0  0  0  0  0  0  0  0
    0.7830   19.0130  -30.3810 C   0  0  0  0  0  0  0  0  0  0  0  0
    0.0182   19.7124  -30.0124 H   0  0  0  0  0  0  0  0  0  0  0  0
    0.3604   18.0005  -30.4603 H   0  0  0  0  0  0  0  0  0  0  0  0
    1.9590   18.9870  -29.4000 C   0  0  0  0  0  0  0  0  0  0  0  0
    2.2935   20.0176  -29.2102 H   0  0  0  0  0  0  0  0  0  0  0  0
    1.6275   18.5141  -28.4638 H   0  0  0  0  0  0  0  0  0  0  0  0
    3.0360   18.2400  -29.9290 O   0  0  0  0  0  0  0  0  0  0  0  0
    3.5560   18.9010  -31.0660 C   0  0  0  0  0  0  0  0  0  0  0  0
    3.8245   19.9317  -30.7912 H   0  0  0  0  0  0  0  0  0  0  0  0
    4.4425   18.3515  -31.4155 H   0  0  0  0  0  0  0  0  0  0  0  0
    2.5270   18.9370  -32.1990 C   0  0  0  0  0  0  0  0  0  0  0  0
    2.8947   19.5940  -33.0009 H   0  0  0  0  0  0  0  0  0  0  0  0
    2.3832   17.9155  -32.5809 H   0  0  0  0  0  0  0  0  0  0  0  0
   -1.0180   19.6830  -32.5870 N   0  0  0  0  0  0  0  0  0  0  0  0
   -1.9060   20.2230  -33.4610 C   0  0  0  0  0  0  0  0  0  0  0  0
   -3.3530   19.8580  -33.3730 C   0  0  0  0  0  0  0  0  0  0  0  0
   -3.7209   19.5822  -34.3723 H   0  0  0  0  0  0  0  0  0  0  0  0
   -3.4705   19.0075  -32.6853 H   0  0  0  0  0  0  0  0  0  0  0  0
   -4.1440   21.0240  -32.8560 C   0  0  0  0  0  0  0  0  0  0  0  0
   -3.9200   22.2940  -33.2540 N   0  0  0  0  0  0  0  0  0  0  0  0
   -4.8000   23.0610  -32.6270 N   0  0  0  0  0  0  0  0  0  0  0  0
   -5.5510   22.2480  -31.8600 C   0  0  0  0  0  0  0  0  0  0  0  0
   -6.8970   22.8330  -30.8270 S   0  0  0  0  0  0  0  0  0  0  0  0
   -5.8180   23.8130  -29.7360 C   0  0  0  0  0  0  0  0  0  0  0  0
   -6.4004   24.1813  -28.8786 H   0  0  0  0  0  0  0  0  0  0  0  0
   -4.9922   23.1829  -29.3741 H   0  0  0  0  0  0  0  0  0  0  0  0
   -5.2650   24.9700  -30.4950 C   0  0  0  0  0  0  0  0  0  0  0  0
   -6.0360   25.6840  -31.1950 O   0  0  0  0  0  0  0  0  0  0  0  0
   -3.8610   25.2450  -30.4520 N   0  0  0  0  0  0  0  0  0  0  0  0
   -2.9390   24.5210  -29.5890 C   0  0  0  0  0  0  0  0  0  0  0  0
   -1.9977   25.0842  -29.5062 H   0  0  0  0  0  0  0  0  0  0  0  0
   -3.3900   24.4043  -28.5925 H   0  0  0  0  0  0  0  0  0  0  0  0
   -2.6590   23.1650  -30.1680 C   0  0  0  0  0  0  0  0  0  0  0  0
   -3.4711   22.6027  -30.6520 H   0  0  0  0  0  0  0  0  0  0  0  0
   -1.4390   22.6340  -30.1030 C   0  0  0  0  0  0  0  0  0  0  0  0
   -1.2486   21.6391  -30.5318 H   0  0  0  0  0  0  0  0  0  0  0  0
   -0.6220   23.1905  -29.6205 H   0  0  0  0  0  0  0  0  0  0  0  0
   -5.1630   20.9590  -31.9700 N   0  0  0  0  0  0  0  0  0  0  0  0
   -5.7120   19.7890  -31.2790 C   0  0  0  0  0  0  0  0  0  0  0  0
   -5.0981   18.9077  -31.5166 H   0  0  0  0  0  0  0  0  0  0  0  0
   -5.7010   19.9793  -30.1956 H   0  0  0  0  0  0  0  0  0  0  0  0
   -7.1210   19.5370  -31.7100 C   0  0  0  0  0  0  0  0  0  0  0  0
   -7.8760   18.5830  -31.2230 O   0  0  0  0  0  0  0  0  0  0  0  0
   -9.0460   18.6330  -31.8150 C   0  0  0  0  0  0  0  0  0  0  0  0
   -9.8887   17.9561  -31.6108 H   0  0  0  0  0  0  0  0  0  0  0  0
   -9.0590   19.6640  -32.7330 C   0  0  0  0  0  0  0  0  0  0  0  0
   -9.8942   19.9578  -33.3858 H   0  0  0  0  0  0  0  0  0  0  0  0
   -7.8150   20.2500  -32.6660 C   0  0  0  0  0  0  0  0  0  0  0  0
   -7.4507   21.1069  -33.2517 H   0  0  0  0  0  0  0  0  0  0  0  0
   -1.4850   21.1350  -34.3750 N   0  0  0  0  0  0  0  0  0  0  0  0
  1  2  1  0
  2  3  2  0
  3  4  1  0
  4  5  2  0
  5  6  1  0
  6  7  1  0
  7  8  1  0
  7  9  1  0
  7 10  1  0
 10 11  1  0
 10 12  1  0
 10 13  1  0
 13 14  1  0
 14 15  1  0
 14 16  1  0
 14 17  1  0
 17 18  1  0
 17 19  1  0
  5 20  1  0
 20 21  1  0
 21 22  1  0
 22 23  1  0
 22 24  1  0
 22 25  1  0
 25 26  2  0
 26 27  1  0
 27 28  2  0
 28 29  1  0
 29 30  1  0
 30 31  1  0
 30 32  1  0
 30 33  1  0
 33 34  2  0
 33 35  1  0
 35 36  1  0
 36 37  1  0
 36 38  1  0
 36 39  1  0
 39 40  1  0
 39 41  2  0
 41 42  1  0
 41 43  1  0
 28 44  1  0
 44 45  1  0
 45 46  1  0
 45 47  1  0
 45 48  1  0
 48 49  1  0
 49 50  1  0
 50 51  1  0
 50 52  2  0
 52 53  1  0
 52 54  1  0
 54 55  1  0
 21 56  2  0
 56  3  1  0
 17  6  1  0
 44 25  1  0
 54 48  2  0
M  CHG  2  20  -1  35  -1
M  END
>  <UniqueID>  (36) 
33

>  <SMILES>  (36) 
[H]/N=c1\nc(Cc2nnc(SCC(=O)[N-]CC=C)n2Cc2ccco2)[n-]c(N2CCOCC2)n1

>  <Energy>  (36) 
105.27213570973323

>  <Genealogy>  (36) 
C=CC[N-]C(=O)CSc1nnc(Cc2nc(=N)nc(N3CCOCC3)[n-]2)n1Cc1ccco1 (protonated)
[H]/N=c1\nc(Cc2nnc(SCC(=O)[N-]CC=C)n2Cc2ccco2)[n-]c(N2CCOCC2)n1 (cis-trans isomerization)
[H]/N=c1\nc(Cc2nnc(SCC(=O)[N-]CC=C)n2Cc2ccco2)[n-]c(N2CCOCC2)n1 (3D coordinates assigned)
[H]/N=c1\nc(Cc2nnc(SCC(=O)[N-]CC=C)n2Cc2ccco2)[n-]c(N2CCOCC2)n1 (nonaromatic ring conformer: 105.27213570973323 kcal/mol)

>  <smiles>  (36) 
C=CCNC(=O)CSc1nnc(Cc2nc(=N)nc(N3CCOCC3)[nH]2)n1Cc1ccco1

>  <score_type>  (36) 
oracle

>  <origin>  (36) 
adgpu

>  <m_score__min__energy>  (36) 
-10.49

>  <m_primary>  (36) 
energy

$$$$
36:0
     RDKit          3D

 49 52  0  0  0  0  0  0  0  0999 V2000
   -0.7640   21.5020  -34.3790 O   0  0  0  0  0  0  0  0  0  0  0  0
   -1.2030   20.7860  -33.4410 C   0  0  0  0  0  0  0  0  0  0  0  0
   -0.8880   19.3880  -33.4330 N   0  0  0  0  0  0  0  0  0  0  0  0
   -1.8340   18.3090  -33.3920 C   0  0  0  0  0  0  0  0  0  0  0  0
   -1.3690   17.0040  -33.1710 C   0  0  0  0  0  0  0  0  0  0  0  0
   -0.0130   16.7690  -32.9760 O   0  0  0  0  0  0  0  0  0  0  0  0
   -2.2670   15.9340  -33.1350 C   0  0  0  0  0  0  0  0  0  0  0  0
   -3.6320   16.1540  -33.3320 C   0  0  0  0  0  0  0  0  0  0  0  0
   -4.1080   17.4480  -33.5850 C   0  0  0  0  0  0  0  0  0  0  0  0
   -5.8270   17.7290  -33.8610 S   0  0  0  0  0  0  0  0  0  0  0  0
   -6.4800   16.4150  -34.1910 O   0  0  0  0  0  0  0  0  0  0  0  0
   -6.0210   18.6740  -35.0160 O   0  0  0  0  0  0  0  0  0  0  0  0
   -6.5460   18.4100  -32.4220 N   0  0  0  0  0  0  0  0  0  0  0  0
   -6.3130   19.8740  -32.3470 C   0  0  0  0  0  0  0  0  0  0  0  0
   -7.5470   20.7010  -32.7350 C   0  0  0  0  0  0  0  0  0  0  0  0
   -8.7470   20.3630  -31.8340 C   0  0  0  0  0  0  0  0  0  0  0  0
   -8.7420   18.8990  -31.3590 C   0  0  0  0  0  0  0  0  0  0  0  0
   -7.9670   18.0060  -32.3330 C   0  0  0  0  0  0  0  0  0  0  0  0
   -3.2070   18.5250  -33.6280 C   0  0  0  0  0  0  0  0  0  0  0  0
   -3.6620   19.7660  -33.9350 F   0  0  0  0  0  0  0  0  0  0  0  0
   -1.9710   21.4170  -32.3510 C   0  0  0  0  0  0  0  0  0  0  0  0
   -3.1930   22.0420  -32.4790 C   0  0  0  0  0  0  0  0  0  0  0  0
   -3.4850   22.4830  -31.2000 C   0  0  0  0  0  0  0  0  0  0  0  0
   -4.7030   23.2190  -30.7670 C   0  0  0  0  0  0  0  0  0  0  0  0
   -5.9450   22.5560  -30.6960 C   0  0  0  0  0  0  0  0  0  0  0  0
   -7.0950   23.2360  -30.2840 C   0  0  0  0  0  0  0  0  0  0  0  0
   -7.0250   24.5850  -29.9390 C   0  0  0  0  0  0  0  0  0  0  0  0
   -5.8040   25.2580  -30.0020 C   0  0  0  0  0  0  0  0  0  0  0  0
   -4.6470   24.5880  -30.4120 C   0  0  0  0  0  0  0  0  0  0  0  0
   -3.4520   25.2980  -30.4710 O   0  0  0  0  0  0  0  0  0  0  0  0
   -2.4760   22.1370  -30.3740 N   0  0  0  0  0  0  0  0  0  0  0  0
   -1.5550   21.4930  -31.0720 N   0  0  0  0  0  0  0  0  0  0  0  0
   -1.8974   14.9145  -32.9508 H   0  0  0  0  0  0  0  0  0  0  0  0
   -4.3355   15.3095  -33.2885 H   0  0  0  0  0  0  0  0  0  0  0  0
   -6.0295   20.1310  -31.3157 H   0  0  0  0  0  0  0  0  0  0  0  0
   -5.5164   20.1166  -33.0658 H   0  0  0  0  0  0  0  0  0  0  0  0
   -7.3099   21.7701  -32.6312 H   0  0  0  0  0  0  0  0  0  0  0  0
   -7.8137   20.4629  -33.7753 H   0  0  0  0  0  0  0  0  0  0  0  0
   -8.7197   21.0190  -30.9514 H   0  0  0  0  0  0  0  0  0  0  0  0
   -9.6604   20.5157  -32.4276 H   0  0  0  0  0  0  0  0  0  0  0  0
   -8.2688   18.8446  -30.3675 H   0  0  0  0  0  0  0  0  0  0  0  0
   -9.7819   18.5436  -31.3110 H   0  0  0  0  0  0  0  0  0  0  0  0
   -8.0217   16.9642  -31.9843 H   0  0  0  0  0  0  0  0  0  0  0  0
   -8.4190   18.1079  -33.3306 H   0  0  0  0  0  0  0  0  0  0  0  0
   -3.7979   22.1627  -33.3898 H   0  0  0  0  0  0  0  0  0  0  0  0
   -6.0101   21.4921  -30.9677 H   0  0  0  0  0  0  0  0  0  0  0  0
   -8.0572   22.7055  -30.2319 H   0  0  0  0  0  0  0  0  0  0  0  0
   -7.9316   25.1186  -29.6173 H   0  0  0  0  0  0  0  0  0  0  0  0
   -5.7514   26.3219  -29.7275 H   0  0  0  0  0  0  0  0  0  0  0  0
  1  2  2  0
  2  3  1  0
  3  4  1  0
  4  5  2  0
  5  6  1  0
  5  7  1  0
  7  8  2  0
  8  9  1  0
  9 10  1  0
 10 11  2  0
 10 12  2  0
 10 13  1  0
 13 14  1  0
 14 15  1  0
 15 16  1  0
 16 17  1  0
 17 18  1  0
  9 19  2  0
 19 20  1  0
  2 21  1  0
 21 22  1  0
 22 23  2  0
 23 24  1  0
 24 25  2  0
 25 26  1  0
 26 27  2  0
 27 28  1  0
 28 29  2  0
 29 30  1  0
 23 31  1  0
 31 32  1  0
 19  4  1  0
 32 21  2  0
 18 13  1  0
 29 24  1  0
  7 33  1  0
  8 34  1  0
 14 35  1  0
 14 36  1  0
 15 37  1  0
 15 38  1  0
 16 39  1  0
 16 40  1  0
 17 41  1  0
 17 42  1  0
 18 43  1  0
 18 44  1  0
 22 45  1  0
 25 46  1  0
 26 47  1  0
 27 48  1  0
 28 49  1  0
M  CHG  4   3  -1   6  -1  30  -1  31  -1
M  END
>  <UniqueID>  (37) 
34

>  <SMILES>  (37) 
O=C([N-]c1c([O-])ccc(S(=O)(=O)N2CCCCC2)c1F)c1cc(-c2ccccc2[O-])[n-]n1

>  <Energy>  (37) 
96.675794813445

>  <Genealogy>  (37) 
O=C([N-]c1c([O-])ccc(S(=O)(=O)N2CCCCC2)c1F)c1cc(-c2ccccc2[O-])[n-]n1 (protonated)
O=C([N-]c1c([O-])ccc(S(=O)(=O)N2CCCCC2)c1F)c1cc(-c2ccccc2[O-])[n-]n1 (3D coordinates assigned)
O=C([N-]c1c([O-])ccc(S(=O)(=O)N2CCCCC2)c1F)c1cc(-c2ccccc2[O-])[n-]n1 (nonaromatic ring conformer: 96.675794813445 kcal/mol)

>  <smiles>  (37) 
O=C(Nc1c(O)ccc(S(=O)(=O)N2CCCCC2)c1F)c1cc(-c2ccccc2O)[nH]n1

>  <score_type>  (37) 
oracle

>  <origin>  (37) 
adgpu

>  <m_score__min__energy>  (37) 
-15.25

>  <m_primary>  (37) 
energy

$$$$
37:0
     RDKit          3D

 53 56  0  0  0  0  0  0  0  0999 V2000
   -2.7850   25.2920  -30.8390 H   0  0  0  0  0  0  0  0  0  0  0  0
   -3.5110   25.2990  -30.0890 N   0  0  0  0  0  0  0  0  0  0  0  0
   -4.8530   24.9070  -30.3680 C   0  0  0  0  0  0  0  0  0  0  0  0
   -5.8000   25.6920  -30.0930 O   0  0  0  0  0  0  0  0  0  0  0  0
   -5.1380   23.5970  -30.9760 C   0  0  0  0  0  0  0  0  0  0  0  0
   -6.3730   22.9920  -31.1020 C   0  0  0  0  0  0  0  0  0  0  0  0
   -7.3322   23.4173  -30.7719 H   0  0  0  0  0  0  0  0  0  0  0  0
   -6.2070   21.7890  -31.6990 N   0  0  0  0  0  0  0  0  0  0  0  0
   -7.2280   20.8210  -32.0220 C   0  0  0  0  0  0  0  0  0  0  0  0
   -8.5830   21.2010  -32.0060 C   0  0  0  0  0  0  0  0  0  0  0  0
   -8.8570   22.2321  -31.7382 H   0  0  0  0  0  0  0  0  0  0  0  0
   -9.5820   20.2810  -32.3270 C   0  0  0  0  0  0  0  0  0  0  0  0
  -10.6365   20.5942  -32.3254 H   0  0  0  0  0  0  0  0  0  0  0  0
   -9.2480   18.9650  -32.6500 C   0  0  0  0  0  0  0  0  0  0  0  0
  -10.0393   18.2483  -32.9151 H   0  0  0  0  0  0  0  0  0  0  0  0
   -7.9120   18.5540  -32.6380 C   0  0  0  0  0  0  0  0  0  0  0  0
   -7.6020   17.2000  -32.9980 N   0  0  0  0  0  0  0  0  0  0  0  0
   -6.5250   16.7710  -33.8420 C   0  0  0  0  0  0  0  0  0  0  0  0
   -6.1920   15.5560  -33.8230 O   0  0  0  0  0  0  0  0  0  0  0  0
   -5.7630   17.7360  -34.6610 C   0  0  0  0  0  0  0  0  0  0  0  0
   -6.2277   18.1405  -35.5723 H   0  0  0  0  0  0  0  0  0  0  0  0
   -4.5350   18.1340  -34.3370 C   0  0  0  0  0  0  0  0  0  0  0  0
   -4.0039   18.8547  -34.9761 H   0  0  0  0  0  0  0  0  0  0  0  0
   -4.0512   17.7423  -33.4301 H   0  0  0  0  0  0  0  0  0  0  0  0
   -6.9030   19.4900  -32.3490 C   0  0  0  0  0  0  0  0  0  0  0  0
   -5.8482   19.1793  -32.3786 H   0  0  0  0  0  0  0  0  0  0  0  0
   -4.9190   21.6000  -31.9560 N   0  0  0  0  0  0  0  0  0  0  0  0
   -4.2550   22.6920  -31.5320 C   0  0  0  0  0  0  0  0  0  0  0  0
   -2.9640   22.8410  -31.5870 N   0  0  0  0  0  0  0  0  0  0  0  0
   -2.0250   21.9310  -32.1840 C   0  0  0  0  0  0  0  0  0  0  0  0
   -0.8170   21.6820  -31.5200 C   0  0  0  0  0  0  0  0  0  0  0  0
   -0.6135   22.1696  -30.5552 H   0  0  0  0  0  0  0  0  0  0  0  0
    0.1320   20.8180  -32.0750 C   0  0  0  0  0  0  0  0  0  0  0  0
    1.0719   20.6185  -31.5394 H   0  0  0  0  0  0  0  0  0  0  0  0
   -0.1110   20.2060  -33.3110 C   0  0  0  0  0  0  0  0  0  0  0  0
    1.0700   19.1010  -34.0080 S   0  0  0  0  0  0  0  0  0  0  0  0
    0.4740   18.3440  -35.1630 O   0  0  0  0  0  0  0  0  0  0  0  0
    1.5010   18.1240  -32.9520 O   0  0  0  0  0  0  0  0  0  0  0  0
    2.4620   19.9820  -34.5630 N   0  0  0  0  0  0  0  0  0  0  0  0
    2.4620   21.1500  -35.1400 C   0  0  0  0  0  0  0  0  0  0  0  0
    3.6570   21.6970  -35.4930 N   0  0  0  0  0  0  0  0  0  0  0  0
    3.7510   22.9150  -36.0880 C   0  0  0  0  0  0  0  0  0  0  0  0
    4.7379   23.3216  -36.3538 H   0  0  0  0  0  0  0  0  0  0  0  0
    2.5990   23.6500  -36.3620 C   0  0  0  0  0  0  0  0  0  0  0  0
    2.6695   24.6363  -36.8438 H   0  0  0  0  0  0  0  0  0  0  0  0
    1.3560   23.1200  -36.0180 C   0  0  0  0  0  0  0  0  0  0  0  0
    0.4380   23.6877  -36.2301 H   0  0  0  0  0  0  0  0  0  0  0  0
    1.2770   21.8680  -35.4040 C   0  0  0  0  0  0  0  0  0  0  0  0
    0.2993   21.4457  -35.1288 H   0  0  0  0  0  0  0  0  0  0  0  0
   -1.3000   20.4830  -33.9980 C   0  0  0  0  0  0  0  0  0  0  0  0
   -1.4866   20.0198  -34.9781 H   0  0  0  0  0  0  0  0  0  0  0  0
   -2.2500   21.3450  -33.4440 C   0  0  0  0  0  0  0  0  0  0  0  0
   -3.1765   21.5663  -33.9941 H   0  0  0  0  0  0  0  0  0  0  0  0
  1  2  1  0
  2  3  1  0
  3  4  2  0
  3  5  1  0
  5  6  2  0
  6  7  1  0
  6  8  1  0
  8  9  1  0
  9 10  2  0
 10 11  1  0
 10 12  1  0
 12 13  1  0
 12 14  2  0
 14 15  1  0
 14 16  1  0
 16 17  1  0
 17 18  1  0
 18 19  2  0
 18 20  1  0
 20 21  1  0
 20 22  2  0
 22 23  1  0
 22 24  1  0
 16 25  2  0
 25 26  1  0
  8 27  1  0
 27 28  1  0
 28 29  2  0
 29 30  1  0
 30 31  2  0
 31 32  1  0
 31 33  1  0
 33 34  1  0
 33 35  2  0
 35 36  1  0
 36 37  2  0
 36 38  2  0
 36 39  1  0
 39 40  2  3
 40 41  1  0
 41 42  1  0
 42 43  1  0
 42 44  2  0
 44 45  1  0
 44 46  1  0
 46 47  1  0
 46 48  2  0
 48 49  1  0
 35 50  1  0
 50 51  1  0
 50 52  2  0
 52 53  1  0
 28  5  1  0
 52 30  1  0
 25  9  1  0
 48 40  1  0
M  CHG  4   2  -1  17  -1  27  -1  41  -1
M  END
>  <UniqueID>  (38) 
35

>  <SMILES>  (38) 
C=CC(=O)[N-]c1cccc(-n2cc(C([NH-])=O)/c(=N/c3ccc(S(=O)(=O)N=c4cccc[n-]4)cc3)[n-]2)c1

>  <Energy>  (38) 
105.0943396913987

>  <Genealogy>  (38) 
C=CC(=O)[N-]c1cccc(-n2cc(C([NH-])=O)c(=Nc3ccc(S(=O)(=O)N=c4cccc[n-]4)cc3)[n-]2)c1 (protonated)
C=CC(=O)[N-]c1cccc(-n2cc(C([NH-])=O)/c(=N/c3ccc(S(=O)(=O)N=c4cccc[n-]4)cc3)[n-]2)c1 (cis-trans isomerization)
C=CC(=O)[N-]c1cccc(-n2cc(C([NH-])=O)/c(=N/c3ccc(S(=O)(=O)N=c4cccc[n-]4)cc3)[n-]2)c1 (3D coordinates assigned)
C=CC(=O)[N-]c1cccc(-n2cc(C([NH-])=O)/c(=N/c3ccc(S(=O)(=O)N=c4cccc[n-]4)cc3)[n-]2)c1 (optimized conformer: 105.0943396913987 kcal/mol)

>  <smiles>  (38) 
C=CC(=O)Nc1cccc(-n2cc(C(N)=O)c(=Nc3ccc(S(=O)(=O)N=c4cccc[nH]4)cc3)[nH]2)c1

>  <score_type>  (38) 
oracle

>  <origin>  (38) 
adgpu

>  <m_score__min__energy>  (38) 
-12.43

>  <m_primary>  (38) 
energy

$$$$
38:0
     RDKit          3D

 57 60  0  0  0  0  0  0  0  0999 V2000
   -5.6850   26.0310  -30.5680 O   0  0  0  0  0  0  0  0  0  0  0  0
   -4.9020   25.0520  -30.7010 C   0  0  0  0  0  0  0  0  0  0  0  0
   -3.5050   25.2300  -30.4230 N   0  0  0  0  0  0  0  0  0  0  0  0
   -2.8130   24.5780  -29.3500 C   0  0  0  0  0  0  0  0  0  0  0  0
   -3.3700   23.4670  -28.6960 C   0  0  0  0  0  0  0  0  0  0  0  0
   -2.6410   22.7880  -27.7200 C   0  0  0  0  0  0  0  0  0  0  0  0
   -1.3480   23.2100  -27.3860 C   0  0  0  0  0  0  0  0  0  0  0  0
   -0.3950   22.2890  -26.2180 S   0  0  0  0  0  0  0  0  0  0  0  0
    1.0510   22.6840  -26.3410 O   0  0  0  0  0  0  0  0  0  0  0  0
   -0.8550   22.6350  -24.8290 O   0  0  0  0  0  0  0  0  0  0  0  0
   -0.5380   20.5610  -26.4540 N   0  0  0  0  0  0  0  0  0  0  0  0
   -0.2580   20.1660  -27.8370 C   0  0  0  0  0  0  0  0  0  0  0  0
   -1.1620   18.9810  -28.1670 C   0  0  0  0  0  0  0  0  0  0  0  0
   -2.0600   18.8000  -26.9570 C   0  0  0  0  0  0  0  0  0  0  0  0
   -1.8860   20.0750  -26.1570 C   0  0  0  0  0  0  0  0  0  0  0  0
   -0.8170   24.3590  -27.9910 C   0  0  0  0  0  0  0  0  0  0  0  0
   -1.5510   25.0430  -28.9610 C   0  0  0  0  0  0  0  0  0  0  0  0
   -5.4350   23.7480  -31.1540 C   0  0  0  0  0  0  0  0  0  0  0  0
   -4.5490   22.7410  -31.5630 C   0  0  0  0  0  0  0  0  0  0  0  0
   -5.0350   21.5410  -32.1000 C   0  0  0  0  0  0  0  0  0  0  0  0
   -3.9190   20.3640  -32.7860 S   0  0  0  0  0  0  0  0  0  0  0  0
   -3.0270   19.8140  -31.7060 O   0  0  0  0  0  0  0  0  0  0  0  0
   -3.0610   21.0400  -33.8190 O   0  0  0  0  0  0  0  0  0  0  0  0
   -4.8390   19.0800  -33.5320 N   0  0  0  0  0  0  0  0  0  0  0  0
   -5.6160   18.3490  -32.5120 C   0  0  0  0  0  0  0  0  0  0  0  0
   -6.1110   16.9910  -33.0530 C   0  0  0  0  0  0  0  0  0  0  0  0
   -6.1110   16.9920  -34.4660 O   0  0  0  0  0  0  0  0  0  0  0  0
   -4.7800   17.0720  -34.9560 C   0  0  0  0  0  0  0  0  0  0  0  0
   -3.9440   18.1620  -34.2490 C   0  0  0  0  0  0  0  0  0  0  0  0
   -6.4160   21.3340  -32.1960 C   0  0  0  0  0  0  0  0  0  0  0  0
   -7.3050   22.3220  -31.7730 C   0  0  0  0  0  0  0  0  0  0  0  0
   -6.8240   23.5290  -31.2510 C   0  0  0  0  0  0  0  0  0  0  0  0
   -7.7220   24.5090  -30.8270 O   0  0  0  0  0  0  0  0  0  0  0  0
   -4.3851   23.1311  -28.9545 H   0  0  0  0  0  0  0  0  0  0  0  0
   -3.0828   21.9186  -27.2111 H   0  0  0  0  0  0  0  0  0  0  0  0
   -0.4725   21.0031  -28.5176 H   0  0  0  0  0  0  0  0  0  0  0  0
    0.8005   19.8908  -27.9549 H   0  0  0  0  0  0  0  0  0  0  0  0
   -1.7637   19.1954  -29.0625 H   0  0  0  0  0  0  0  0  0  0  0  0
   -0.5792   18.0726  -28.3796 H   0  0  0  0  0  0  0  0  0  0  0  0
   -3.1082   18.6759  -27.2666 H   0  0  0  0  0  0  0  0  0  0  0  0
   -1.7996   17.9037  -26.3749 H   0  0  0  0  0  0  0  0  0  0  0  0
   -2.6358   20.8207  -26.4598 H   0  0  0  0  0  0  0  0  0  0  0  0
   -2.0194   19.8946  -25.0801 H   0  0  0  0  0  0  0  0  0  0  0  0
    0.1800   24.7215  -27.7002 H   0  0  0  0  0  0  0  0  0  0  0  0
   -1.1362   25.9515  -29.4220 H   0  0  0  0  0  0  0  0  0  0  0  0
   -3.4644   22.8940  -31.4616 H   0  0  0  0  0  0  0  0  0  0  0  0
   -4.9784   18.1739  -31.6329 H   0  0  0  0  0  0  0  0  0  0  0  0
   -6.4925   18.9560  -32.2414 H   0  0  0  0  0  0  0  0  0  0  0  0
   -5.4458   16.1930  -32.6915 H   0  0  0  0  0  0  0  0  0  0  0  0
   -7.1375   16.8189  -32.6972 H   0  0  0  0  0  0  0  0  0  0  0  0
   -4.2903   16.0991  -34.8023 H   0  0  0  0  0  0  0  0  0  0  0  0
   -4.8359   17.3381  -36.0219 H   0  0  0  0  0  0  0  0  0  0  0  0
   -3.2550   17.6889  -33.5338 H   0  0  0  0  0  0  0  0  0  0  0  0
   -3.3672   18.7241  -34.9982 H   0  0  0  0  0  0  0  0  0  0  0  0
   -6.8014   20.3890  -32.6064 H   0  0  0  0  0  0  0  0  0  0  0  0
   -8.3891   22.1522  -31.8498 H   0  0  0  0  0  0  0  0  0  0  0  0
   -7.4060   25.3750  -30.4100 H   0  0  0  0  0  0  0  0  0  0  0  0
  1  2  2  0
  2  3  1  0
  3  4  1  0
  4  5  2  0
  5  6  1  0
  6  7  2  0
  7  8  1  0
  8  9  2  0
  8 10  2  0
  8 11  1  0
 11 12  1  0
 12 13  1  0
 13 14  1  0
 14 15  1  0
  7 16  1  0
 16 17  2  0
  2 18  1  0
 18 19  2  0
 19 20  1  0
 20 21  1  0
 21 22  2  0
 21 23  2  0
 21 24  1  0
 24 25  1  0
 25 26  1  0
 26 27  1  0
 27 28  1  0
 28 29  1  0
 20 30  2  0
 30 31  1  0
 31 32  2  0
 32 33  1  0
 17  4  1  0
 32 18  1  0
 15 11  1  0
 29 24  1  0
  5 34  1  0
  6 35  1  0
 12 36  1  0
 12 37  1  0
 13 38  1  0
 13 39  1  0
 14 40  1  0
 14 41  1  0
 15 42  1  0
 15 43  1  0
 16 44  1  0
 17 45  1  0
 19 46  1  0
 25 47  1  0
 25 48  1  0
 26 49  1  0
 26 50  1  0
 28 51  1  0
 28 52  1  0
 29 53  1  0
 29 54  1  0
 30 55  1  0
 31 56  1  0
 33 57  1  0
M  CHG  1   3  -1
M  END
>  <UniqueID>  (39) 
36

>  <SMILES>  (39) 
O=C([N-]c1ccc(S(=O)(=O)N2CCCC2)cc1)c1cc(S(=O)(=O)N2CCOCC2)ccc1O

>  <Energy>  (39) 
74.95671607296138

>  <Genealogy>  (39) 
O=C([N-]c1ccc(S(=O)(=O)N2CCCC2)cc1)c1cc(S(=O)(=O)N2CCOCC2)ccc1O (protonated)
O=C([N-]c1ccc(S(=O)(=O)N2CCCC2)cc1)c1cc(S(=O)(=O)N2CCOCC2)ccc1O (3D coordinates assigned)
O=C([N-]c1ccc(S(=O)(=O)N2CCCC2)cc1)c1cc(S(=O)(=O)N2CCOCC2)ccc1O (nonaromatic ring conformer: 74.95671607296138 kcal/mol)

>  <smiles>  (39) 
O=C(Nc1ccc(S(=O)(=O)N2CCCC2)cc1)c1cc(S(=O)(=O)N2CCOCC2)ccc1O

>  <score_type>  (39) 
oracle

>  <origin>  (39) 
adgpu

>  <m_score__min__energy>  (39) 
-11.6

>  <m_primary>  (39) 
energy

$$$$
39:0
     RDKit          3D

 49 51  0  0  0  0  0  0  0  0999 V2000
   -6.5630   17.8100  -31.7530 C   0  0  0  0  0  0  0  0  0  0  0  0
   -7.3660   18.3880  -32.8380 N   0  0  0  0  0  0  0  0  0  0  0  0
   -6.5230   19.2440  -33.6960 C   0  0  0  0  0  0  0  0  0  0  0  0
   -5.2510   18.5300  -34.0660 C   0  0  0  0  0  0  0  0  0  0  0  0
   -4.0340   18.9050  -33.4710 C   0  0  0  0  0  0  0  0  0  0  0  0
   -2.8500   18.2460  -33.8130 C   0  0  0  0  0  0  0  0  0  0  0  0
   -2.8700   17.2140  -34.7540 C   0  0  0  0  0  0  0  0  0  0  0  0
   -4.0740   16.8380  -35.3560 C   0  0  0  0  0  0  0  0  0  0  0  0
   -5.2610   17.4940  -35.0160 C   0  0  0  0  0  0  0  0  0  0  0  0
   -8.6810   19.3170  -32.1480 S   0  0  0  0  0  0  0  0  0  0  0  0
   -9.1150   18.7180  -30.8400 O   0  0  0  0  0  0  0  0  0  0  0  0
   -9.8490   19.3260  -33.0960 O   0  0  0  0  0  0  0  0  0  0  0  0
   -8.1350   20.9630  -31.8480 C   0  0  0  0  0  0  0  0  0  0  0  0
   -8.9450   22.0610  -32.1680 C   0  0  0  0  0  0  0  0  0  0  0  0
   -8.4720   23.3610  -31.9670 C   0  0  0  0  0  0  0  0  0  0  0  0
   -7.1870   23.5700  -31.4600 C   0  0  0  0  0  0  0  0  0  0  0  0
   -6.3680   22.4770  -31.1400 C   0  0  0  0  0  0  0  0  0  0  0  0
   -4.7190   22.7340  -30.5660 S   0  0  0  0  0  0  0  0  0  0  0  0
   -4.2560   24.1020  -30.9820 O   0  0  0  0  0  0  0  0  0  0  0  0
   -4.7020   22.6720  -29.0630 O   0  0  0  0  0  0  0  0  0  0  0  0
   -3.6220   21.5360  -31.2160 N   0  0  0  0  0  0  0  0  0  0  0  0
   -2.5090   21.2520  -30.2850 C   0  0  0  0  0  0  0  0  0  0  0  0
   -1.1940   21.9130  -30.7390 C   0  0  0  0  0  0  0  0  0  0  0  0
   -0.7750   21.5040  -32.0340 O   0  0  0  0  0  0  0  0  0  0  0  0
   -1.8510   21.2150  -32.9200 C   0  0  0  0  0  0  0  0  0  0  0  0
   -3.1630   21.9300  -32.5630 C   0  0  0  0  0  0  0  0  0  0  0  0
   -6.8570   21.1760  -31.3150 C   0  0  0  0  0  0  0  0  0  0  0  0
   -6.9844   18.1134  -30.7833 H   0  0  0  0  0  0  0  0  0  0  0  0
   -6.5762   16.7129  -31.8315 H   0  0  0  0  0  0  0  0  0  0  0  0
   -5.5268   18.1708  -31.8315 H   0  0  0  0  0  0  0  0  0  0  0  0
   -7.0769   19.4950  -34.6126 H   0  0  0  0  0  0  0  0  0  0  0  0
   -6.2686   20.1605  -33.1435 H   0  0  0  0  0  0  0  0  0  0  0  0
   -4.0134   19.7205  -32.7331 H   0  0  0  0  0  0  0  0  0  0  0  0
   -1.9012   18.5404  -33.3406 H   0  0  0  0  0  0  0  0  0  0  0  0
   -1.9369   16.6965  -35.0216 H   0  0  0  0  0  0  0  0  0  0  0  0
   -4.0877   16.0257  -36.0976 H   0  0  0  0  0  0  0  0  0  0  0  0
   -6.2066   17.1982  -35.4939 H   0  0  0  0  0  0  0  0  0  0  0  0
   -9.9532   21.8998  -32.5774 H   0  0  0  0  0  0  0  0  0  0  0  0
   -9.1131   24.2216  -32.2086 H   0  0  0  0  0  0  0  0  0  0  0  0
   -6.8163   24.5949  -31.3113 H   0  0  0  0  0  0  0  0  0  0  0  0
   -2.7733   21.6349  -29.2882 H   0  0  0  0  0  0  0  0  0  0  0  0
   -2.3526   20.1634  -30.2645 H   0  0  0  0  0  0  0  0  0  0  0  0
   -1.3364   23.0037  -30.7468 H   0  0  0  0  0  0  0  0  0  0  0  0
   -0.4121   21.6011  -30.0309 H   0  0  0  0  0  0  0  0  0  0  0  0
   -1.5554   21.5206  -33.9345 H   0  0  0  0  0  0  0  0  0  0  0  0
   -2.0457   20.1351  -32.8430 H   0  0  0  0  0  0  0  0  0  0  0  0
   -2.9992   23.0175  -32.5850 H   0  0  0  0  0  0  0  0  0  0  0  0
   -3.9320   21.6451  -33.2962 H   0  0  0  0  0  0  0  0  0  0  0  0
   -6.2331   20.3155  -31.0319 H   0  0  0  0  0  0  0  0  0  0  0  0
  1  2  1  0
  2  3  1  0
  3  4  1  0
  4  5  2  0
  5  6  1  0
  6  7  2  0
  7  8  1  0
  8  9  2  0
  2 10  1  0
 10 11  2  0
 10 12  2  0
 10 13  1  0
 13 14  2  0
 14 15  1  0
 15 16  2  0
 16 17  1  0
 17 18  1  0
 18 19  2  0
 18 20  2  0
 18 21  1  0
 21 22  1  0
 22 23  1  0
 23 24  1  0
 24 25  1  0
 25 26  1  0
 17 27  2  0
  9  4  1  0
 27 13  1  0
 26 21  1  0
  1 28  1  0
  1 29  1  0
  1 30  1  0
  3 31  1  0
  3 32  1  0
  5 33  1  0
  6 34  1  0
  7 35  1  0
  8 36  1  0
  9 37  1  0
 14 38  1  0
 15 39  1  0
 16 40  1  0
 22 41  1  0
 22 42  1  0
 23 43  1  0
 23 44  1  0
 25 45  1  0
 25 46  1  0
 26 47  1  0
 26 48  1  0
 27 49  1  0
M  END
>  <UniqueID>  (40) 
37

>  <SMILES>  (40) 
CN(Cc1ccccc1)S(=O)(=O)c1cccc(S(=O)(=O)N2CCOCC2)c1

>  <Energy>  (40) 
59.434777188277145

>  <Genealogy>  (40) 
CN(Cc1ccccc1)S(=O)(=O)c1cccc(S(=O)(=O)N2CCOCC2)c1 (3D coordinates assigned)
CN(Cc1ccccc1)S(=O)(=O)c1cccc(S(=O)(=O)N2CCOCC2)c1 (nonaromatic ring conformer: 59.434777188277145 kcal/mol)

>  <smiles>  (40) 
CN(Cc1ccccc1)S(=O)(=O)c1cccc(S(=O)(=O)N2CCOCC2)c1

>  <score_type>  (40) 
oracle

>  <origin>  (40) 
adgpu

>  <m_score__min__energy>  (40) 
-9.8200000000000003

>  <m_primary>  (40) 
energy

$$$$
40:0
     RDKit          3D

 40 42  0  0  0  0  0  0  0  0999 V2000
   -4.1460   25.3810  -30.8050 N   0  0  0  0  0  0  0  0  0  0  0  0
   -3.1570   24.3820  -29.8000 S   0  0  0  0  0  0  0  0  0  0  0  0
   -1.9610   25.1670  -29.3400 O   0  0  0  0  0  0  0  0  0  0  0  0
   -3.9410   23.9480  -28.5940 O   0  0  0  0  0  0  0  0  0  0  0  0
   -2.6310   22.9700  -30.7100 C   0  0  0  0  0  0  0  0  0  0  0  0
   -1.5910   22.1660  -30.2230 C   0  0  0  0  0  0  0  0  0  0  0  0
   -1.1790   21.0390  -30.9390 C   0  0  0  0  0  0  0  0  0  0  0  0
   -1.8170   20.6870  -32.1410 C   0  0  0  0  0  0  0  0  0  0  0  0
   -1.3920   19.5490  -32.9060 N   0  0  0  0  0  0  0  0  0  0  0  0
   -2.2930   18.6230  -33.5330 C   0  0  0  0  0  0  0  0  0  0  0  0
   -2.0000   17.7320  -34.5520 C   0  0  0  0  0  0  0  0  0  0  0  0
   -3.1650   17.0150  -34.7520 C   0  0  0  0  0  0  0  0  0  0  0  0
   -3.3180   16.0100  -35.7000 O   0  0  0  0  0  0  0  0  0  0  0  0
   -4.1390   17.4070  -33.9020 N   0  0  0  0  0  0  0  0  0  0  0  0
   -5.5120   16.9010  -33.8570 C   0  0  0  0  0  0  0  0  0  0  0  0
   -6.4450   17.9640  -33.3390 C   0  0  0  0  0  0  0  0  0  0  0  0
   -6.4510   19.2410  -33.9250 C   0  0  0  0  0  0  0  0  0  0  0  0
   -7.3050   20.2360  -33.4380 C   0  0  0  0  0  0  0  0  0  0  0  0
   -8.1590   19.9640  -32.3660 C   0  0  0  0  0  0  0  0  0  0  0  0
   -8.1610   18.6960  -31.7800 C   0  0  0  0  0  0  0  0  0  0  0  0
   -7.3090   17.6980  -32.2630 C   0  0  0  0  0  0  0  0  0  0  0  0
   -3.5990   18.3920  -33.1510 C   0  0  0  0  0  0  0  0  0  0  0  0
   -4.2620   19.0770  -32.1340 O   0  0  0  0  0  0  0  0  0  0  0  0
   -2.8450   21.5050  -32.6330 C   0  0  0  0  0  0  0  0  0  0  0  0
   -3.2580   22.6330  -31.9170 C   0  0  0  0  0  0  0  0  0  0  0  0
   -3.5080   26.0560  -31.2840 H   0  0  0  0  0  0  0  0  0  0  0  0
   -1.0976   22.4232  -29.2741 H   0  0  0  0  0  0  0  0  0  0  0  0
   -0.3501   20.4234  -30.5596 H   0  0  0  0  0  0  0  0  0  0  0  0
   -0.3690   19.4170  -33.0690 H   0  0  0  0  0  0  0  0  0  0  0  0
   -1.0456   17.6191  -35.0871 H   0  0  0  0  0  0  0  0  0  0  0  0
   -5.8237   16.6072  -34.8702 H   0  0  0  0  0  0  0  0  0  0  0  0
   -5.5509   16.0321  -33.1835 H   0  0  0  0  0  0  0  0  0  0  0  0
   -5.7815   19.4591  -34.7701 H   0  0  0  0  0  0  0  0  0  0  0  0
   -7.3043   21.2344  -33.8997 H   0  0  0  0  0  0  0  0  0  0  0  0
   -8.8293   20.7479  -31.9838 H   0  0  0  0  0  0  0  0  0  0  0  0
   -8.8342   18.4821  -30.9368 H   0  0  0  0  0  0  0  0  0  0  0  0
   -7.3150   16.7007  -31.7989 H   0  0  0  0  0  0  0  0  0  0  0  0
   -3.7730   19.4360  -31.3250 H   0  0  0  0  0  0  0  0  0  0  0  0
   -3.3297   21.2573  -33.5889 H   0  0  0  0  0  0  0  0  0  0  0  0
   -4.0774   23.2575  -32.3024 H   0  0  0  0  0  0  0  0  0  0  0  0
  1  2  1  0
  2  3  2  0
  2  4  2  0
  2  5  1  0
  5  6  2  0
  6  7  1  0
  7  8  2  0
  8  9  1  0
  9 10  1  0
 10 11  1  0
 11 12  2  0
 12 13  1  0
 12 14  1  0
 14 15  1  0
 15 16  1  0
 16 17  2  0
 17 18  1  0
 18 19  2  0
 19 20  1  0
 20 21  2  0
 14 22  1  0
 22 23  1  0
  8 24  1  0
 24 25  2  0
 25  5  1  0
 22 10  2  0
 21 16  1  0
  1 26  1  0
  6 27  1  0
  7 28  1  0
  9 29  1  0
 11 30  1  0
 15 31  1  0
 15 32  1  0
 17 33  1  0
 18 34  1  0
 19 35  1  0
 20 36  1  0
 21 37  1  0
 23 38  1  0
 24 39  1  0
 25 40  1  0
M  CHG  2   1  -1  13  -1
M  END
>  <UniqueID>  (41) 
38

>  <SMILES>  (41) 
[NH-]S(=O)(=O)c1ccc(Nc2cc([O-])n(Cc3ccccc3)c2O)cc1

>  <Energy>  (41) 
73.97553157092722

>  <Genealogy>  (41) 
[NH-]S(=O)(=O)c1ccc(Nc2cc([O-])n(Cc3ccccc3)c2O)cc1 (protonated)
[NH-]S(=O)(=O)c1ccc(Nc2cc([O-])n(Cc3ccccc3)c2O)cc1 (3D coordinates assigned)
[NH-]S(=O)(=O)c1ccc(Nc2cc([O-])n(Cc3ccccc3)c2O)cc1 (optimized conformer: 73.97553157092722 kcal/mol)

>  <smiles>  (41) 
NS(=O)(=O)c1ccc(Nc2cc(O)n(Cc3ccccc3)c2O)cc1

>  <score_type>  (41) 
oracle

>  <origin>  (41) 
adgpu

>  <m_score__min__energy>  (41) 
-9.6799999999999997

>  <m_primary>  (41) 
energy

$$$$
41:0
     RDKit          3D

 60 63  0  0  0  0  0  0  0  0999 V2000
   -3.9650   20.3900  -31.0320 O   0  0  0  0  0  0  0  0  0  0  0  0
   -3.0280   21.1490  -30.6620 C   0  0  0  0  0  0  0  0  0  0  0  0
   -3.3290   22.4630  -30.1620 N   0  0  0  0  0  0  0  0  0  0  0  0
   -4.5520   23.1650  -30.4510 C   0  0  0  0  0  0  0  0  0  0  0  0
   -5.7390   22.4630  -30.7260 C   0  0  0  0  0  0  0  0  0  0  0  0
   -6.9180   23.1520  -31.0450 C   0  0  0  0  0  0  0  0  0  0  0  0
   -8.3960   22.2590  -31.4070 S   0  0  0  0  0  0  0  0  0  0  0  0
   -9.0720   21.8780  -30.1190 O   0  0  0  0  0  0  0  0  0  0  0  0
   -9.3340   23.1450  -32.1790 O   0  0  0  0  0  0  0  0  0  0  0  0
   -8.0630   20.8190  -32.3380 N   0  0  0  0  0  0  0  0  0  0  0  0
   -6.7310   20.9240  -32.9620 C   0  0  0  0  0  0  0  0  0  0  0  0
   -6.4680   19.7040  -33.8500 C   0  0  0  0  0  0  0  0  0  0  0  0
   -6.5880   18.4120  -33.0350 C   0  0  0  0  0  0  0  0  0  0  0  0
   -7.9290   18.3590  -32.2970 C   0  0  0  0  0  0  0  0  0  0  0  0
   -8.1360   19.6310  -31.4680 C   0  0  0  0  0  0  0  0  0  0  0  0
   -6.9100   24.5510  -31.0940 C   0  0  0  0  0  0  0  0  0  0  0  0
   -5.7330   25.2560  -30.8350 C   0  0  0  0  0  0  0  0  0  0  0  0
   -4.5560   24.5700  -30.5200 C   0  0  0  0  0  0  0  0  0  0  0  0
   -3.3950   25.2920  -30.2670 O   0  0  0  0  0  0  0  0  0  0  0  0
   -1.6320   20.6550  -30.6980 C   0  0  0  0  0  0  0  0  0  0  0  0
   -0.8740   20.7570  -31.8790 C   0  0  0  0  0  0  0  0  0  0  0  0
    0.4360   20.2750  -31.9230 C   0  0  0  0  0  0  0  0  0  0  0  0
    1.0090   19.6960  -30.7900 C   0  0  0  0  0  0  0  0  0  0  0  0
    0.2780   19.6070  -29.5990 C   0  0  0  0  0  0  0  0  0  0  0  0
    1.0000   18.8590  -28.1750 S   0  0  0  0  0  0  0  0  0  0  0  0
    1.9780   19.8220  -27.5620 O   0  0  0  0  0  0  0  0  0  0  0  0
   -0.0720   18.5590  -27.1630 O   0  0  0  0  0  0  0  0  0  0  0  0
    1.8280   17.3890  -28.6260 N   0  0  0  0  0  0  0  0  0  0  0  0
    0.9600   16.5640  -29.4870 C   0  0  0  0  0  0  0  0  0  0  0  0
    1.4130   15.0950  -29.4660 C   0  0  0  0  0  0  0  0  0  0  0  0
    1.3840   14.4970  -28.1760 O   0  0  0  0  0  0  0  0  0  0  0  0
    1.4490   15.4310  -27.1080 C   0  0  0  0  0  0  0  0  0  0  0  0
    2.3140   16.6630  -27.4310 C   0  0  0  0  0  0  0  0  0  0  0  0
   -1.0380   20.0860  -29.5560 C   0  0  0  0  0  0  0  0  0  0  0  0
   -2.6650   22.8900  -29.4770 H   0  0  0  0  0  0  0  0  0  0  0  0
   -5.7427   21.3636  -30.6906 H   0  0  0  0  0  0  0  0  0  0  0  0
   -6.6873   21.8363  -33.5750 H   0  0  0  0  0  0  0  0  0  0  0  0
   -5.9660   20.9664  -32.1727 H   0  0  0  0  0  0  0  0  0  0  0  0
   -7.2036   19.6860  -34.6677 H   0  0  0  0  0  0  0  0  0  0  0  0
   -5.4490   19.7740  -34.2585 H   0  0  0  0  0  0  0  0  0  0  0  0
   -6.5150   17.5492  -33.7134 H   0  0  0  0  0  0  0  0  0  0  0  0
   -5.7756   18.3851  -32.2939 H   0  0  0  0  0  0  0  0  0  0  0  0
   -8.7430   18.2691  -33.0314 H   0  0  0  0  0  0  0  0  0  0  0  0
   -7.9295   17.4904  -31.6220 H   0  0  0  0  0  0  0  0  0  0  0  0
   -9.1235   19.5939  -30.9847 H   0  0  0  0  0  0  0  0  0  0  0  0
   -7.3478   19.6952  -30.7034 H   0  0  0  0  0  0  0  0  0  0  0  0
   -7.8337   25.0965  -31.3373 H   0  0  0  0  0  0  0  0  0  0  0  0
   -5.7316   26.3551  -30.8789 H   0  0  0  0  0  0  0  0  0  0  0  0
   -1.3162   21.2195  -32.7737 H   0  0  0  0  0  0  0  0  0  0  0  0
    1.0178   20.3520  -32.8534 H   0  0  0  0  0  0  0  0  0  0  0  0
    2.0376   19.3085  -30.8326 H   0  0  0  0  0  0  0  0  0  0  0  0
   -0.0759   16.6278  -29.1225 H   0  0  0  0  0  0  0  0  0  0  0  0
    1.0251   16.9397  -30.5188 H   0  0  0  0  0  0  0  0  0  0  0  0
    0.7499   14.5195  -30.1286 H   0  0  0  0  0  0  0  0  0  0  0  0
    2.4615   15.0815  -29.7985 H   0  0  0  0  0  0  0  0  0  0  0  0
    0.4284   15.7710  -26.8784 H   0  0  0  0  0  0  0  0  0  0  0  0
    1.9160   14.9187  -26.2539 H   0  0  0  0  0  0  0  0  0  0  0  0
    2.2939   17.3460  -26.5689 H   0  0  0  0  0  0  0  0  0  0  0  0
    3.3356   16.3131  -27.6404 H   0  0  0  0  0  0  0  0  0  0  0  0
   -1.6125   20.0167  -28.6205 H   0  0  0  0  0  0  0  0  0  0  0  0
  1  2  2  0
  2  3  1  0
  3  4  1  0
  4  5  2  0
  5  6  1  0
  6  7  1  0
  7  8  2  0
  7  9  2  0
  7 10  1  0
 10 11  1  0
 11 12  1  0
 12 13  1  0
 13 14  1  0
 14 15  1  0
  6 16  2  0
 16 17  1  0
 17 18  2  0
 18 19  1  0
  2 20  1  0
 20 21  2  0
 21 22  1  0
 22 23  2  0
 23 24  1  0
 24 25  1  0
 25 26  2  0
 25 27  2  0
 25 28  1  0
 28 29  1  0
 29 30  1  0
 30 31  1  0
 31 32  1  0
 32 33  1  0
 24 34  2  0
 18  4  1  0
 34 20  1  0
 15 10  1  0
 33 28  1  0
  3 35  1  0
  5 36  1  0
 11 37  1  0
 11 38  1  0
 12 39  1  0
 12 40  1  0
 13 41  1  0
 13 42  1  0
 14 43  1  0
 14 44  1  0
 15 45  1  0
 15 46  1  0
 16 47  1  0
 17 48  1  0
 21 49  1  0
 22 50  1  0
 23 51  1  0
 29 52  1  0
 29 53  1  0
 30 54  1  0
 30 55  1  0
 32 56  1  0
 32 57  1  0
 33 58  1  0
 33 59  1  0
 34 60  1  0
M  CHG  1  19  -1
M  END
>  <UniqueID>  (42) 
39

>  <SMILES>  (42) 
O=C(Nc1cc(S(=O)(=O)N2CCCCC2)ccc1[O-])c1cccc(S(=O)(=O)N2CCOCC2)c1

>  <Energy>  (42) 
73.85999348935971

>  <Genealogy>  (42) 
O=C(Nc1cc(S(=O)(=O)N2CCCCC2)ccc1[O-])c1cccc(S(=O)(=O)N2CCOCC2)c1 (protonated)
O=C(Nc1cc(S(=O)(=O)N2CCCCC2)ccc1[O-])c1cccc(S(=O)(=O)N2CCOCC2)c1 (3D coordinates assigned)
O=C(Nc1cc(S(=O)(=O)N2CCCCC2)ccc1[O-])c1cccc(S(=O)(=O)N2CCOCC2)c1 (nonaromatic ring conformer: 73.85999348935971 kcal/mol)

>  <smiles>  (42) 
O=C(Nc1cc(S(=O)(=O)N2CCCCC2)ccc1O)c1cccc(S(=O)(=O)N2CCOCC2)c1

>  <score_type>  (42) 
oracle

>  <origin>  (42) 
adgpu

>  <m_score__min__energy>  (42) 
-14.18

>  <m_primary>  (42) 
energy

$$$$
42:0
     RDKit          3D

 64 67  0  0  0  0  0  0  0  0999 V2000
   -2.2840   19.2280  -26.8550 C   0  0  0  0  0  0  0  0  0  0  0  0
   -1.3250   19.7190  -27.9390 C   0  0  0  0  0  0  0  0  0  0  0  0
   -0.2210   18.6950  -28.2650 C   0  0  0  0  0  0  0  0  0  0  0  0
    0.5900   19.0490  -29.5220 C   0  0  0  0  0  0  0  0  0  0  0  0
   -0.2090   18.9210  -30.7350 N   0  0  0  0  0  0  0  0  0  0  0  0
   -0.4250   17.8030  -31.4470 C   0  0  0  0  0  0  0  0  0  0  0  0
   -1.1940   18.1830  -32.5250 C   0  0  0  0  0  0  0  0  0  0  0  0
   -1.6260   17.3160  -33.6760 C   0  0  0  0  0  0  0  0  0  0  0  0
   -3.0920   17.3060  -33.8790 N   0  0  0  0  0  0  0  0  0  0  0  0
   -3.8030   16.7440  -32.7030 C   0  0  0  0  0  0  0  0  0  0  0  0
   -5.2400   16.3000  -33.0260 C   0  0  0  0  0  0  0  0  0  0  0  0
   -6.2230   17.4400  -32.9380 C   0  0  0  0  0  0  0  0  0  0  0  0
   -7.2310   17.4290  -31.9630 C   0  0  0  0  0  0  0  0  0  0  0  0
   -8.1010   18.5120  -31.8380 C   0  0  0  0  0  0  0  0  0  0  0  0
   -7.9860   19.6120  -32.6950 C   0  0  0  0  0  0  0  0  0  0  0  0
   -8.8020   20.7660  -32.4540 N   0  0  0  0  0  0  0  0  0  0  0  0
   -8.2910   22.1300  -31.4950 S   0  0  0  0  0  0  0  0  0  0  0  0
   -8.8250   21.9800  -30.0960 O   0  0  0  0  0  0  0  0  0  0  0  0
   -8.8530   23.3850  -32.0970 O   0  0  0  0  0  0  0  0  0  0  0  0
   -6.5310   22.2410  -31.4120 C   0  0  0  0  0  0  0  0  0  0  0  0
   -5.7380   21.1020  -31.5640 C   0  0  0  0  0  0  0  0  0  0  0  0
   -4.3670   21.1680  -31.3320 C   0  0  0  0  0  0  0  0  0  0  0  0
   -3.7620   22.3690  -30.9310 C   0  0  0  0  0  0  0  0  0  0  0  0
   -2.3790   22.3520  -30.5580 N   0  0  0  0  0  0  0  0  0  0  0  0
   -4.5490   23.5380  -30.8210 C   0  0  0  0  0  0  0  0  0  0  0  0
   -3.9730   24.8490  -30.4480 C   0  0  0  0  0  0  0  0  0  0  0  0
   -2.8030   24.9080  -29.6300 N   0  0  0  0  0  0  0  0  0  0  0  0
   -4.5260   25.9210  -30.8110 O   0  0  0  0  0  0  0  0  0  0  0  0
   -5.9320   23.4560  -31.0670 C   0  0  0  0  0  0  0  0  0  0  0  0
   -7.0560   19.5780  -33.7440 C   0  0  0  0  0  0  0  0  0  0  0  0
   -6.1470   18.5150  -33.8510 C   0  0  0  0  0  0  0  0  0  0  0  0
   -5.0440   18.5620  -34.8870 C   0  0  0  0  0  0  0  0  0  0  0  0
   -3.6140   18.6280  -34.3000 C   0  0  0  0  0  0  0  0  0  0  0  0
   -1.4230   19.5090  -32.4390 N   0  0  0  0  0  0  0  0  0  0  0  0
   -0.8150   19.9300  -31.3400 N   0  0  0  0  0  0  0  0  0  0  0  0
   -1.8593   19.4454  -25.8639 H   0  0  0  0  0  0  0  0  0  0  0  0
   -3.2508   19.7420  -26.9605 H   0  0  0  0  0  0  0  0  0  0  0  0
   -2.4321   18.1431  -26.9605 H   0  0  0  0  0  0  0  0  0  0  0  0
   -1.9013   19.9185  -28.8545 H   0  0  0  0  0  0  0  0  0  0  0  0
   -0.8339   20.6278  -27.5610 H   0  0  0  0  0  0  0  0  0  0  0  0
    0.4682   18.6414  -27.4093 H   0  0  0  0  0  0  0  0  0  0  0  0
   -0.7182   17.7334  -28.4602 H   0  0  0  0  0  0  0  0  0  0  0  0
    0.9443   20.0869  -29.4367 H   0  0  0  0  0  0  0  0  0  0  0  0
    1.4346   18.3479  -29.5930 H   0  0  0  0  0  0  0  0  0  0  0  0
   -0.0620   16.7905  -31.2165 H   0  0  0  0  0  0  0  0  0  0  0  0
   -1.1483   17.6895  -34.5938 H   0  0  0  0  0  0  0  0  0  0  0  0
   -1.3209   16.2854  -33.4420 H   0  0  0  0  0  0  0  0  0  0  0  0
   -3.2406   15.8724  -32.3368 H   0  0  0  0  0  0  0  0  0  0  0  0
   -3.8664   17.5391  -31.9455 H   0  0  0  0  0  0  0  0  0  0  0  0
   -5.2631   15.8906  -34.0467 H   0  0  0  0  0  0  0  0  0  0  0  0
   -5.5340   15.5432  -32.2838 H   0  0  0  0  0  0  0  0  0  0  0  0
   -7.3360   16.5623  -31.2938 H   0  0  0  0  0  0  0  0  0  0  0  0
   -8.8809   18.5013  -31.0623 H   0  0  0  0  0  0  0  0  0  0  0  0
   -6.1978   20.1500  -31.8679 H   0  0  0  0  0  0  0  0  0  0  0  0
   -3.7499   20.2671  -31.4647 H   0  0  0  0  0  0  0  0  0  0  0  0
   -1.7140   21.6480  -30.9350 H   0  0  0  0  0  0  0  0  0  0  0  0
   -1.9720   23.1440  -30.0160 H   0  0  0  0  0  0  0  0  0  0  0  0
   -1.9070   25.2980  -30.0010 H   0  0  0  0  0  0  0  0  0  0  0  0
   -6.5511   24.3617  -30.9866 H   0  0  0  0  0  0  0  0  0  0  0  0
   -7.0392   20.3891  -34.4868 H   0  0  0  0  0  0  0  0  0  0  0  0
   -5.1185   17.6580  -35.5092 H   0  0  0  0  0  0  0  0  0  0  0  0
   -5.1907   19.4907  -35.4579 H   0  0  0  0  0  0  0  0  0  0  0  0
   -2.9410   19.0416  -35.0655 H   0  0  0  0  0  0  0  0  0  0  0  0
   -3.6591   19.2618  -33.4020 H   0  0  0  0  0  0  0  0  0  0  0  0
  1  2  1  0
  2  3  1  0
  3  4  1  0
  4  5  1  0
  5  6  1  0
  6  7  2  0
  7  8  1  0
  8  9  1  0
  9 10  1  0
 10 11  1  0
 11 12  1  0
 12 13  2  0
 13 14  1  0
 14 15  2  0
 15 16  1  0
 16 17  1  0
 17 18  2  0
 17 19  2  0
 17 20  1  0
 20 21  2  0
 21 22  1  0
 22 23  2  0
 23 24  1  0
 23 25  1  0
 25 26  1  0
 26 27  1  0
 26 28  2  0
 25 29  2  0
 15 30  1  0
 30 31  2  0
 31 32  1  0
 32 33  1  0
  7 34  1  0
 34 35  2  0
 35  5  1  0
 33  9  1  0
 31 12  1  0
 29 20  1  0
  1 36  1  0
  1 37  1  0
  1 38  1  0
  2 39  1  0
  2 40  1  0
  3 41  1  0
  3 42  1  0
  4 43  1  0
  4 44  1  0
  6 45  1  0
  8 46  1  0
  8 47  1  0
 10 48  1  0
 10 49  1  0
 11 50  1  0
 11 51  1  0
 13 52  1  0
 14 53  1  0
 21 54  1  0
 22 55  1  0
 24 56  1  0
 24 57  1  0
 27 58  1  0
 29 59  1  0
 30 60  1  0
 32 61  1  0
 32 62  1  0
 33 63  1  0
 33 64  1  0
M  CHG  2  16  -1  27  -1
M  END
>  <UniqueID>  (43) 
40

>  <SMILES>  (43) 
CCCCn1cc(CN2CCc3ccc([N-]S(=O)(=O)c4ccc(N)c(C([NH-])=O)c4)cc3CC2)nn1

>  <Energy>  (43) 
118.11893100930173

>  <Genealogy>  (43) 
CCCCn1cc(CN2CCc3ccc([N-]S(=O)(=O)c4ccc(N)c(C([NH-])=O)c4)cc3CC2)nn1 (protonated)
CCCCn1cc(CN2CCc3ccc([N-]S(=O)(=O)c4ccc(N)c(C([NH-])=O)c4)cc3CC2)nn1 (3D coordinates assigned)
CCCCn1cc(CN2CCc3ccc([N-]S(=O)(=O)c4ccc(N)c(C([NH-])=O)c4)cc3CC2)nn1 (nonaromatic ring conformer: 118.11893100930173 kcal/mol)

>  <smiles>  (43) 
CCCCn1cc(CN2CCc3ccc(NS(=O)(=O)c4ccc(N)c(C(N)=O)c4)cc3CC2)nn1

>  <score_type>  (43) 
oracle

>  <origin>  (43) 
adgpu

>  <m_score__min__energy>  (43) 
-10.640000000000001

>  <m_primary>  (43) 
energy

$$$$
43:0
     RDKit          3D

 45 46  0  0  0  0  0  0  0  0999 V2000
   -0.9950   26.3850  -28.1090 C   0  0  0  0  0  0  0  0  0  0  0  0
   -1.8690   25.6690  -28.9740 O   0  0  0  0  0  0  0  0  0  0  0  0
   -2.1240   24.2900  -28.8870 C   0  0  0  0  0  0  0  0  0  0  0  0
   -1.1400   23.3790  -28.4520 C   0  0  0  0  0  0  0  0  0  0  0  0
   -1.4270   22.0140  -28.3710 C   0  0  0  0  0  0  0  0  0  0  0  0
   -2.6920   21.5430  -28.7170 C   0  0  0  0  0  0  0  0  0  0  0  0
   -3.6770   22.4330  -29.1470 C   0  0  0  0  0  0  0  0  0  0  0  0
   -3.4010   23.8080  -29.2440 C   0  0  0  0  0  0  0  0  0  0  0  0
   -4.4750   24.7540  -29.7220 C   0  0  0  0  0  0  0  0  0  0  0  0
   -4.6490   24.6600  -31.1730 N   0  0  0  0  0  0  0  0  0  0  0  0
   -5.7760   23.4030  -31.5950 S   0  0  0  0  0  0  0  0  0  0  0  0
   -6.8280   23.9610  -32.5100 O   0  0  0  0  0  0  0  0  0  0  0  0
   -6.4320   22.9010  -30.3420 O   0  0  0  0  0  0  0  0  0  0  0  0
   -4.9270   22.0640  -32.3650 C   0  0  0  0  0  0  0  0  0  0  0  0
   -3.5580   21.9060  -32.4210 C   0  0  0  0  0  0  0  0  0  0  0  0
   -3.2700   20.7320  -33.0130 N   0  0  0  0  0  0  0  0  0  0  0  0
   -4.4130   20.1350  -33.3150 N   0  0  0  0  0  0  0  0  0  0  0  0
   -4.4710   18.8460  -33.9990 C   0  0  0  0  0  0  0  0  0  0  0  0
   -5.4520   20.9200  -32.9450 C   0  0  0  0  0  0  0  0  0  0  0  0
   -6.9150   20.5820  -33.1290 C   0  0  0  0  0  0  0  0  0  0  0  0
   -7.6670   20.6380  -31.8530 N   0  0  0  0  0  0  0  0  0  0  0  0
   -8.7770   21.6000  -31.9650 C   0  0  0  0  0  0  0  0  0  0  0  0
   -8.1960   19.3140  -31.4760 C   0  0  0  0  0  0  0  0  0  0  0  0
   -1.2575   26.1700  -27.0626 H   0  0  0  0  0  0  0  0  0  0  0  0
    0.0432   26.0745  -28.2978 H   0  0  0  0  0  0  0  0  0  0  0  0
   -1.0951   27.4640  -28.2978 H   0  0  0  0  0  0  0  0  0  0  0  0
   -0.1404   23.7450  -28.1747 H   0  0  0  0  0  0  0  0  0  0  0  0
   -0.6526   21.3095  -28.0333 H   0  0  0  0  0  0  0  0  0  0  0  0
   -2.9145   20.4678  -28.6510 H   0  0  0  0  0  0  0  0  0  0  0  0
   -4.6760   22.0562  -29.4118 H   0  0  0  0  0  0  0  0  0  0  0  0
   -5.4245   24.4992  -29.2285 H   0  0  0  0  0  0  0  0  0  0  0  0
   -4.1740   25.7818  -29.4709 H   0  0  0  0  0  0  0  0  0  0  0  0
   -2.8180   22.6261  -32.0416 H   0  0  0  0  0  0  0  0  0  0  0  0
   -4.5074   18.0371  -33.2544 H   0  0  0  0  0  0  0  0  0  0  0  0
   -5.3719   18.8054  -34.6289 H   0  0  0  0  0  0  0  0  0  0  0  0
   -3.5774   18.7246  -34.6289 H   0  0  0  0  0  0  0  0  0  0  0  0
   -7.3588   21.3007  -33.8336 H   0  0  0  0  0  0  0  0  0  0  0  0
   -6.9783   19.5534  -33.5136 H   0  0  0  0  0  0  0  0  0  0  0  0
   -7.0380   20.9700  -31.0860 H   0  0  0  0  0  0  0  0  0  0  0  0
   -9.1129   21.8911  -30.9588 H   0  0  0  0  0  0  0  0  0  0  0  0
   -8.4353   22.4923  -32.5099 H   0  0  0  0  0  0  0  0  0  0  0  0
   -9.6117   21.1349  -32.5099 H   0  0  0  0  0  0  0  0  0  0  0  0
   -8.2292   19.2310  -30.3796 H   0  0  0  0  0  0  0  0  0  0  0  0
   -9.2107   19.1950  -31.8836 H   0  0  0  0  0  0  0  0  0  0  0  0
   -7.5427   18.5285  -31.8836 H   0  0  0  0  0  0  0  0  0  0  0  0
  1  2  1  0
  2  3  1  0
  3  4  2  0
  4  5  1  0
  5  6  2  0
  6  7  1  0
  7  8  2  0
  8  9  1  0
  9 10  1  0
 10 11  1  0
 11 12  2  0
 11 13  2  0
 11 14  1  0
 14 15  1  0
 15 16  2  0
 16 17  1  0
 17 18  1  0
 17 19  1  0
 19 20  1  0
 20 21  1  0
 21 22  1  0
 21 23  1  0
  8  3  1  0
 19 14  2  0
  1 24  1  0
  1 25  1  0
  1 26  1  0
  4 27  1  0
  5 28  1  0
  6 29  1  0
  7 30  1  0
  9 31  1  0
  9 32  1  0
 15 33  1  0
 18 34  1  0
 18 35  1  0
 18 36  1  0
 20 37  1  0
 20 38  1  0
 21 39  1  0
 22 40  1  0
 22 41  1  0
 22 42  1  0
 23 43  1  0
 23 44  1  0
 23 45  1  0
M  CHG  2  10  -1  21   1
M  END
>  <UniqueID>  (44) 
41

>  <SMILES>  (44) 
COc1ccccc1C[N-]S(=O)(=O)c1cnn(C)c1C[NH+](C)C

>  <Energy>  (44) 
72.74289075162486

>  <Genealogy>  (44) 
COc1ccccc1C[N-]S(=O)(=O)c1cnn(C)c1C[NH+](C)C (protonated)
COc1ccccc1C[N-]S(=O)(=O)c1cnn(C)c1C[NH+](C)C (3D coordinates assigned)
COc1ccccc1C[N-]S(=O)(=O)c1cnn(C)c1C[NH+](C)C (optimized conformer: 72.74289075162486 kcal/mol)

>  <smiles>  (44) 
COc1ccccc1CNS(=O)(=O)c1cnn(C)c1CN(C)C

>  <score_type>  (44) 
oracle

>  <origin>  (44) 
adgpu

>  <m_score__min__energy>  (44) 
-7.3600000000000003

>  <m_primary>  (44) 
energy

$$$$
44:0
     RDKit          3D

 42 44  0  0  0  0  0  0  0  0999 V2000
   -3.8047   21.7022  -31.3925 H   0  0  0  0  0  0  0  0  0  0  0  0
   -3.8670   22.7410  -31.0360 C   0  0  0  0  0  0  0  0  0  0  0  0
   -2.9280   23.2210  -30.1810 N   0  0  0  0  0  0  0  0  0  0  0  0
   -2.9860   24.4940  -29.7070 C   0  0  0  0  0  0  0  0  0  0  0  0
   -2.0890   24.9620  -28.8890 N   0  0  0  0  0  0  0  0  0  0  0  0
   -0.9240   24.3110  -28.3460 C   0  0  0  0  0  0  0  0  0  0  0  0
    0.2060   24.8160  -28.5790 O   0  0  0  0  0  0  0  0  0  0  0  0
   -0.9910   23.0610  -27.5190 C   0  0  0  0  0  0  0  0  0  0  0  0
   -0.9768   23.3264  -26.4516 H   0  0  0  0  0  0  0  0  0  0  0  0
   -1.9195   22.5182  -27.7495 H   0  0  0  0  0  0  0  0  0  0  0  0
   -0.1258   22.4220  -27.7495 H   0  0  0  0  0  0  0  0  0  0  0  0
   -4.0110   25.3000  -30.0880 N   0  0  0  0  0  0  0  0  0  0  0  0
   -4.9760   24.8680  -30.9420 C   0  0  0  0  0  0  0  0  0  0  0  0
   -5.9270   25.6370  -31.2370 O   0  0  0  0  0  0  0  0  0  0  0  0
   -4.9120   23.5630  -31.4640 C   0  0  0  0  0  0  0  0  0  0  0  0
   -5.9090   23.0420  -32.3610 N   0  0  0  0  0  0  0  0  0  0  0  0
   -5.9220   23.4080  -33.3400 H   0  0  0  0  0  0  0  0  0  0  0  0
   -6.9730   22.1610  -31.9560 C   0  0  0  0  0  0  0  0  0  0  0  0
   -8.2310   22.6900  -31.6170 C   0  0  0  0  0  0  0  0  0  0  0  0
   -8.3802   23.7798  -31.6113 H   0  0  0  0  0  0  0  0  0  0  0  0
   -9.2910   21.8460  -31.2880 C   0  0  0  0  0  0  0  0  0  0  0  0
  -10.2682   22.2718  -31.0163 H   0  0  0  0  0  0  0  0  0  0  0  0
   -9.1140   20.4630  -31.3030 C   0  0  0  0  0  0  0  0  0  0  0  0
   -9.9517   19.7992  -31.0429 H   0  0  0  0  0  0  0  0  0  0  0  0
   -7.8740   19.9190  -31.6480 C   0  0  0  0  0  0  0  0  0  0  0  0
   -7.7412   18.8271  -31.6575 H   0  0  0  0  0  0  0  0  0  0  0  0
   -6.7950   20.7550  -31.9830 C   0  0  0  0  0  0  0  0  0  0  0  0
   -5.4790   20.1550  -32.3020 C   0  0  0  0  0  0  0  0  0  0  0  0
   -5.1460   19.0730  -31.7450 O   0  0  0  0  0  0  0  0  0  0  0  0
   -4.6040   20.7730  -33.2630 N   0  0  0  0  0  0  0  0  0  0  0  0
   -4.9740   21.5550  -33.8480 H   0  0  0  0  0  0  0  0  0  0  0  0
   -3.2570   20.3390  -33.5170 C   0  0  0  0  0  0  0  0  0  0  0  0
   -2.1700   21.2300  -33.4440 C   0  0  0  0  0  0  0  0  0  0  0  0
   -2.3407   22.2808  -33.1671 H   0  0  0  0  0  0  0  0  0  0  0  0
   -0.8740   20.7850  -33.7220 C   0  0  0  0  0  0  0  0  0  0  0  0
   -0.0272   21.4836  -33.6524 H   0  0  0  0  0  0  0  0  0  0  0  0
   -0.6520   19.4550  -34.0880 C   0  0  0  0  0  0  0  0  0  0  0  0
    0.3693   19.1056  -34.2997 H   0  0  0  0  0  0  0  0  0  0  0  0
   -1.7280   18.5690  -34.1850 C   0  0  0  0  0  0  0  0  0  0  0  0
   -1.5539   17.5234  -34.4788 H   0  0  0  0  0  0  0  0  0  0  0  0
   -3.0260   19.0100  -33.9090 C   0  0  0  0  0  0  0  0  0  0  0  0
   -3.8713   18.3119  -33.9994 H   0  0  0  0  0  0  0  0  0  0  0  0
  1  2  1  0
  2  3  1  0
  3  4  1  0
  4  5  2  0
  5  6  1  0
  6  7  2  0
  6  8  1  0
  8  9  1  0
  8 10  1  0
  8 11  1  0
  4 12  1  0
 12 13  1  0
 13 14  2  0
 13 15  1  0
 15 16  1  0
 16 17  1  0
 16 18  1  0
 18 19  2  0
 19 20  1  0
 19 21  1  0
 21 22  1  0
 21 23  2  0
 23 24  1  0
 23 25  1  0
 25 26  1  0
 25 27  2  0
 27 28  1  0
 28 29  2  0
 28 30  1  0
 30 31  1  0
 30 32  1  0
 32 33  2  0
 33 34  1  0
 33 35  1  0
 35 36  1  0
 35 37  2  0
 37 38  1  0
 37 39  1  0
 39 40  1  0
 39 41  2  0
 41 42  1  0
 15  2  2  0
 27 18  1  0
 41 32  1  0
M  CHG  2   3  -1  12  -1
M  END
>  <UniqueID>  (45) 
42

>  <SMILES>  (45) 
CC(=O)/N=c1\[n-]cc(Nc2ccccc2C(=O)Nc2ccccc2)c(=O)[n-]1

>  <Energy>  (45) 
64.48944173774565

>  <Genealogy>  (45) 
CC(=O)N=c1[n-]cc(Nc2ccccc2C(=O)Nc2ccccc2)c(=O)[n-]1 (protonated)
CC(=O)/N=c1\[n-]cc(Nc2ccccc2C(=O)Nc2ccccc2)c(=O)[n-]1 (cis-trans isomerization)
CC(=O)/N=c1\[n-]cc(Nc2ccccc2C(=O)Nc2ccccc2)c(=O)[n-]1 (3D coordinates assigned)
CC(=O)/N=c1\[n-]cc(Nc2ccccc2C(=O)Nc2ccccc2)c(=O)[n-]1 (optimized conformer: 64.48944173774565 kcal/mol)

>  <smiles>  (45) 
CC(=O)N=c1[nH]cc(Nc2ccccc2C(=O)Nc2ccccc2)c(=O)[nH]1

>  <score_type>  (45) 
oracle

>  <origin>  (45) 
adgpu

>  <m_score__min__energy>  (45) 
-11.99

>  <m_primary>  (45) 
energy

$$$$
45:0
     RDKit          3D

 43 44  0  0  0  0  0  0  0  0999 V2000
   -5.5010   17.3860  -34.2350 C   0  0  0  0  0  0  0  0  0  0  0  0
   -5.2140   18.8140  -33.9150 C   0  0  0  0  0  0  0  0  0  0  0  0
   -6.0480   19.7020  -34.2350 O   0  0  0  0  0  0  0  0  0  0  0  0
   -3.9490   19.1650  -33.3440 N   0  0  0  0  0  0  0  0  0  0  0  0
   -3.6820   20.2650  -32.4600 C   0  0  0  0  0  0  0  0  0  0  0  0
   -2.6630   21.2000  -32.7180 C   0  0  0  0  0  0  0  0  0  0  0  0
   -2.4820   22.2960  -31.8680 C   0  0  0  0  0  0  0  0  0  0  0  0
   -3.3140   22.4740  -30.7590 C   0  0  0  0  0  0  0  0  0  0  0  0
   -3.1170   23.8950  -29.7400 S   0  0  0  0  0  0  0  0  0  0  0  0
   -3.7180   23.6500  -28.3830 O   0  0  0  0  0  0  0  0  0  0  0  0
   -1.6490   24.1690  -29.5640 O   0  0  0  0  0  0  0  0  0  0  0  0
   -3.8680   25.2800  -30.4780 N   0  0  0  0  0  0  0  0  0  0  0  0
   -5.2800   25.3770  -30.1080 C   0  0  0  0  0  0  0  0  0  0  0  0
   -6.0860   24.3330  -30.8160 C   0  0  0  0  0  0  0  0  0  0  0  0
   -6.8590   23.4350  -30.1710 N   0  0  0  0  0  0  0  0  0  0  0  0
   -7.3420   22.6660  -31.1640 C   0  0  0  0  0  0  0  0  0  0  0  0
   -8.2610   21.4950  -30.9530 C   0  0  0  0  0  0  0  0  0  0  0  0
   -8.1710   20.4280  -32.0670 C   0  0  0  0  0  0  0  0  0  0  0  0
   -9.5360   20.1500  -32.7100 C   0  0  0  0  0  0  0  0  0  0  0  0
   -7.5210   19.1300  -31.5690 C   0  0  0  0  0  0  0  0  0  0  0  0
   -6.8570   23.1110  -32.3710 C   0  0  0  0  0  0  0  0  0  0  0  0
   -6.0520   24.1640  -32.1560 N   0  0  0  0  0  0  0  0  0  0  0  0
   -4.3320   21.5460  -30.5020 C   0  0  0  0  0  0  0  0  0  0  0  0
   -4.5180   20.4530  -31.3540 C   0  0  0  0  0  0  0  0  0  0  0  0
   -5.6154   16.8167  -33.3007 H   0  0  0  0  0  0  0  0  0  0  0  0
   -6.4302   17.3210  -34.8201 H   0  0  0  0  0  0  0  0  0  0  0  0
   -4.6691   16.9670  -34.8201 H   0  0  0  0  0  0  0  0  0  0  0  0
   -2.0066   21.0688  -33.5909 H   0  0  0  0  0  0  0  0  0  0  0  0
   -1.6810   23.0214  -32.0733 H   0  0  0  0  0  0  0  0  0  0  0  0
   -5.3792   25.2345  -29.0218 H   0  0  0  0  0  0  0  0  0  0  0  0
   -5.6541   26.3697  -30.3987 H   0  0  0  0  0  0  0  0  0  0  0  0
   -8.0039   21.0197  -29.9949 H   0  0  0  0  0  0  0  0  0  0  0  0
   -9.2890   21.8863  -30.9641 H   0  0  0  0  0  0  0  0  0  0  0  0
   -7.5181   20.8469  -32.8469 H   0  0  0  0  0  0  0  0  0  0  0  0
  -10.2881   19.9968  -31.9220 H   0  0  0  0  0  0  0  0  0  0  0  0
   -9.8285   21.0070  -33.3345 H   0  0  0  0  0  0  0  0  0  0  0  0
   -9.4700   19.2469  -33.3345 H   0  0  0  0  0  0  0  0  0  0  0  0
   -7.5164   19.1208  -30.4690 H   0  0  0  0  0  0  0  0  0  0  0  0
   -8.0934   18.2673  -31.9405 H   0  0  0  0  0  0  0  0  0  0  0  0
   -6.4873   19.0716  -31.9405 H   0  0  0  0  0  0  0  0  0  0  0  0
   -7.0905   22.6751  -33.3536 H   0  0  0  0  0  0  0  0  0  0  0  0
   -4.9865   21.6777  -29.6278 H   0  0  0  0  0  0  0  0  0  0  0  0
   -5.3275   19.7358  -31.1532 H   0  0  0  0  0  0  0  0  0  0  0  0
  1  2  1  0
  2  3  2  0
  2  4  1  0
  4  5  1  0
  5  6  2  0
  6  7  1  0
  7  8  2  0
  8  9  1  0
  9 10  2  0
  9 11  2  0
  9 12  1  0
 12 13  1  0
 13 14  1  0
 14 15  2  0
 15 16  1  0
 16 17  1  0
 17 18  1  0
 18 19  1  0
 18 20  1  0
 16 21  2  0
 21 22  1  0
  8 23  1  0
 23 24  2  0
 24  5  1  0
 22 14  1  0
  1 25  1  0
  1 26  1  0
  1 27  1  0
  6 28  1  0
  7 29  1  0
 13 30  1  0
 13 31  1  0
 17 32  1  0
 17 33  1  0
 18 34  1  0
 19 35  1  0
 19 36  1  0
 19 37  1  0
 20 38  1  0
 20 39  1  0
 20 40  1  0
 21 41  1  0
 23 42  1  0
 24 43  1  0
M  CHG  3   4  -1  12  -1  22  -1
M  END
>  <UniqueID>  (46) 
43

>  <SMILES>  (46) 
CC(=O)[N-]c1ccc(S(=O)(=O)[N-]Cc2nc(CC(C)C)c[n-]2)cc1

>  <Energy>  (46) 
59.06194797715117

>  <Genealogy>  (46) 
CC(=O)[N-]c1ccc(S(=O)(=O)[N-]Cc2nc(CC(C)C)c[n-]2)cc1 (protonated)
CC(=O)[N-]c1ccc(S(=O)(=O)[N-]Cc2nc(CC(C)C)c[n-]2)cc1 (3D coordinates assigned)
CC(=O)[N-]c1ccc(S(=O)(=O)[N-]Cc2nc(CC(C)C)c[n-]2)cc1 (optimized conformer: 59.06194797715117 kcal/mol)

>  <smiles>  (46) 
CC(=O)Nc1ccc(S(=O)(=O)NCc2nc(CC(C)C)c[nH]2)cc1

>  <score_type>  (46) 
oracle

>  <origin>  (46) 
adgpu

>  <m_score__min__energy>  (46) 
-10.65

>  <m_primary>  (46) 
energy

$$$$
46:0
     RDKit          3D

 39 41  0  0  0  0  0  0  0  0999 V2000
   -1.6880   25.6650  -29.0190 N   0  0  0  0  0  0  0  0  0  0  0  0
   -0.9910   24.1820  -28.4670 S   0  0  0  0  0  0  0  0  0  0  0  0
    0.5060   24.3130  -28.4140 O   0  0  0  0  0  0  0  0  0  0  0  0
   -1.5140   23.8850  -27.0880 O   0  0  0  0  0  0  0  0  0  0  0  0
   -1.4250   22.8820  -29.5730 C   0  0  0  0  0  0  0  0  0  0  0  0
   -0.6530   21.7150  -29.6410 C   0  0  0  0  0  0  0  0  0  0  0  0
   -1.0030   20.6930  -30.5270 C   0  0  0  0  0  0  0  0  0  0  0  0
   -2.1170   20.8250  -31.3660 C   0  0  0  0  0  0  0  0  0  0  0  0
   -2.4300   19.7350  -32.2490 N   0  0  0  0  0  0  0  0  0  0  0  0
   -1.7370   19.3350  -33.2720 C   0  0  0  0  0  0  0  0  0  0  0  0
   -2.2060   18.2140  -34.1010 C   0  0  0  0  0  0  0  0  0  0  0  0
   -1.4080   17.4240  -34.9000 C   0  0  0  0  0  0  0  0  0  0  0  0
   -2.1830   16.5800  -35.6060 N   0  0  0  0  0  0  0  0  0  0  0  0
   -3.4500   16.7950  -35.2830 N   0  0  0  0  0  0  0  0  0  0  0  0
   -3.4980   17.7780  -34.3630 C   0  0  0  0  0  0  0  0  0  0  0  0
   -4.7580   18.2460  -33.7540 C   0  0  0  0  0  0  0  0  0  0  0  0
   -5.6080   17.3300  -33.1170 C   0  0  0  0  0  0  0  0  0  0  0  0
   -6.8020   17.7620  -32.5330 C   0  0  0  0  0  0  0  0  0  0  0  0
   -7.1540   19.1190  -32.5700 C   0  0  0  0  0  0  0  0  0  0  0  0
   -8.6530   19.6690  -31.8290 S   0  0  0  0  0  0  0  0  0  0  0  0
   -9.8630   19.8440  -33.0490 N   0  0  0  0  0  0  0  0  0  0  0  0
   -8.4320   20.9890  -31.1460 O   0  0  0  0  0  0  0  0  0  0  0  0
   -9.1090   18.6650  -30.8070 O   0  0  0  0  0  0  0  0  0  0  0  0
   -6.2900   20.0410  -33.1730 C   0  0  0  0  0  0  0  0  0  0  0  0
   -5.0950   19.6100  -33.7550 C   0  0  0  0  0  0  0  0  0  0  0  0
   -2.8940   21.9970  -31.2910 C   0  0  0  0  0  0  0  0  0  0  0  0
   -2.5450   23.0190  -30.4020 C   0  0  0  0  0  0  0  0  0  0  0  0
   -1.6050   25.6720  -30.0600 H   0  0  0  0  0  0  0  0  0  0  0  0
    0.2306   21.6031  -28.9955 H   0  0  0  0  0  0  0  0  0  0  0  0
   -0.3977   19.7754  -30.5661 H   0  0  0  0  0  0  0  0  0  0  0  0
   -0.7913   19.8388  -33.5206 H   0  0  0  0  0  0  0  0  0  0  0  0
   -0.3104   17.4752  -34.9525 H   0  0  0  0  0  0  0  0  0  0  0  0
   -5.3333   16.2656  -33.0768 H   0  0  0  0  0  0  0  0  0  0  0  0
   -7.4673   17.0358  -32.0431 H   0  0  0  0  0  0  0  0  0  0  0  0
   -9.3950   19.6860  -33.9690 H   0  0  0  0  0  0  0  0  0  0  0  0
   -6.5530   21.1090  -33.1887 H   0  0  0  0  0  0  0  0  0  0  0  0
   -4.4152   20.3417  -34.2159 H   0  0  0  0  0  0  0  0  0  0  0  0
   -3.7792   22.1093  -31.9343 H   0  0  0  0  0  0  0  0  0  0  0  0
   -3.1531   23.9344  -30.3540 H   0  0  0  0  0  0  0  0  0  0  0  0
  1  2  1  0
  2  3  2  0
  2  4  2  0
  2  5  1  0
  5  6  2  0
  6  7  1  0
  7  8  2  0
  8  9  1  0
  9 10  2  3
 10 11  1  0
 11 12  1  0
 12 13  2  0
 13 14  1  0
 14 15  1  0
 15 16  1  0
 16 17  2  0
 17 18  1  0
 18 19  2  0
 19 20  1  0
 20 21  1  0
 20 22  2  0
 20 23  2  0
 19 24  1  0
 24 25  2  0
  8 26  1  0
 26 27  2  0
 27  5  1  0
 15 11  2  0
 25 16  1  0
  1 28  1  0
  6 29  1  0
  7 30  1  0
 10 31  1  0
 12 32  1  0
 17 33  1  0
 18 34  1  0
 21 35  1  0
 24 36  1  0
 25 37  1  0
 26 38  1  0
 27 39  1  0
M  CHG  3   1  -1  14  -1  21  -1
M  END
>  <UniqueID>  (47) 
44

>  <SMILES>  (47) 
[NH-]S(=O)(=O)c1ccc(N=Cc2cn[n-]c2-c2ccc(S([NH-])(=O)=O)cc2)cc1

>  <Energy>  (47) 
78.2971738997775

>  <Genealogy>  (47) 
[NH-]S(=O)(=O)c1ccc(N=Cc2cn[n-]c2-c2ccc(S([NH-])(=O)=O)cc2)cc1 (protonated)
[NH-]S(=O)(=O)c1ccc(N=Cc2cn[n-]c2-c2ccc(S([NH-])(=O)=O)cc2)cc1 (3D coordinates assigned)
[NH-]S(=O)(=O)c1ccc(N=Cc2cn[n-]c2-c2ccc(S([NH-])(=O)=O)cc2)cc1 (optimized conformer: 78.2971738997775 kcal/mol)

>  <smiles>  (47) 
NS(=O)(=O)c1ccc(N=Cc2cn[nH]c2-c2ccc(S(N)(=O)=O)cc2)cc1

>  <score_type>  (47) 
oracle

>  <origin>  (47) 
adgpu

>  <m_score__min__energy>  (47) 
-10.98

>  <m_primary>  (47) 
energy

$$$$
47:0
     RDKit          3D

 56 59  0  0  0  0  0  0  0  0999 V2000
    3.5760   20.5900  -35.0990 C   0  0  0  0  0  0  0  0  0  0  0  0
    2.8640   20.4430  -33.8710 O   0  0  0  0  0  0  0  0  0  0  0  0
    1.5210   20.0430  -33.7700 C   0  0  0  0  0  0  0  0  0  0  0  0
    1.1550   18.7820  -33.2630 C   0  0  0  0  0  0  0  0  0  0  0  0
   -0.1910   18.4200  -33.1780 C   0  0  0  0  0  0  0  0  0  0  0  0
   -1.1960   19.3020  -33.6050 C   0  0  0  0  0  0  0  0  0  0  0  0
   -2.6190   18.9080  -33.5170 C   0  0  0  0  0  0  0  0  0  0  0  0
   -3.0540   17.7730  -32.9260 N   0  0  0  0  0  0  0  0  0  0  0  0
   -4.3450   17.7920  -33.0730 O   0  0  0  0  0  0  0  0  0  0  0  0
   -4.6940   18.8730  -33.7260 C   0  0  0  0  0  0  0  0  0  0  0  0
   -6.3790   19.2880  -34.1760 S   0  0  0  0  0  0  0  0  0  0  0  0
   -6.9360   19.4950  -32.4480 C   0  0  0  0  0  0  0  0  0  0  0  0
   -6.4890   20.8310  -31.9160 C   0  0  0  0  0  0  0  0  0  0  0  0
   -7.2320   21.4720  -30.9090 C   0  0  0  0  0  0  0  0  0  0  0  0
   -6.8480   22.7320  -30.4410 C   0  0  0  0  0  0  0  0  0  0  0  0
   -5.7200   23.3720  -30.9790 C   0  0  0  0  0  0  0  0  0  0  0  0
   -5.2210   24.9560  -30.3880 S   0  0  0  0  0  0  0  0  0  0  0  0
   -5.7100   25.1160  -28.9760 O   0  0  0  0  0  0  0  0  0  0  0  0
   -5.8410   26.0420  -31.2250 O   0  0  0  0  0  0  0  0  0  0  0  0
   -3.4880   25.1190  -30.4100 N   0  0  0  0  0  0  0  0  0  0  0  0
   -2.8680   24.4620  -29.2560 C   0  0  0  0  0  0  0  0  0  0  0  0
   -2.5300   23.0230  -29.5560 C   0  0  0  0  0  0  0  0  0  0  0  0
   -1.4810   22.7060  -30.4390 C   0  0  0  0  0  0  0  0  0  0  0  0
   -1.1610   21.3690  -30.7030 C   0  0  0  0  0  0  0  0  0  0  0  0
   -1.8880   20.3410  -30.0970 C   0  0  0  0  0  0  0  0  0  0  0  0
   -2.9390   20.6480  -29.2270 C   0  0  0  0  0  0  0  0  0  0  0  0
   -3.2630   21.9840  -28.9600 C   0  0  0  0  0  0  0  0  0  0  0  0
   -4.9910   22.7460  -32.0020 C   0  0  0  0  0  0  0  0  0  0  0  0
   -5.3700   21.4800  -32.4650 C   0  0  0  0  0  0  0  0  0  0  0  0
   -3.6310   19.6370  -34.0370 N   0  0  0  0  0  0  0  0  0  0  0  0
   -0.8330   20.5620  -34.1100 C   0  0  0  0  0  0  0  0  0  0  0  0
    0.5230   20.9390  -34.1910 C   0  0  0  0  0  0  0  0  0  0  0  0
    0.9190   22.1950  -34.6810 O   0  0  0  0  0  0  0  0  0  0  0  0
    0.6350   22.6760  -35.9920 C   0  0  0  0  0  0  0  0  0  0  0  0
    4.6329   20.8082  -34.8862 H   0  0  0  0  0  0  0  0  0  0  0  0
    3.5035   19.6580  -35.6787 H   0  0  0  0  0  0  0  0  0  0  0  0
    3.1403   21.4171  -35.6787 H   0  0  0  0  0  0  0  0  0  0  0  0
    1.9330   18.0783  -32.9321 H   0  0  0  0  0  0  0  0  0  0  0  0
   -0.4661   17.4350  -32.7729 H   0  0  0  0  0  0  0  0  0  0  0  0
   -8.0338   19.4374  -32.4104 H   0  0  0  0  0  0  0  0  0  0  0  0
   -6.4976   18.6970  -31.8307 H   0  0  0  0  0  0  0  0  0  0  0  0
   -8.1204   20.9792  -30.4871 H   0  0  0  0  0  0  0  0  0  0  0  0
   -7.4314   23.2237  -29.6487 H   0  0  0  0  0  0  0  0  0  0  0  0
   -1.9447   24.9987  -28.9923 H   0  0  0  0  0  0  0  0  0  0  0  0
   -3.5840   24.4819  -28.4212 H   0  0  0  0  0  0  0  0  0  0  0  0
   -0.9103   23.5119  -30.9236 H   0  0  0  0  0  0  0  0  0  0  0  0
   -0.3357   21.1272  -31.3888 H   0  0  0  0  0  0  0  0  0  0  0  0
   -1.6338   19.2910  -30.3041 H   0  0  0  0  0  0  0  0  0  0  0  0
   -3.5123   19.8385  -28.7515 H   0  0  0  0  0  0  0  0  0  0  0  0
   -4.0951   22.2205  -28.2806 H   0  0  0  0  0  0  0  0  0  0  0  0
   -4.1187   23.2518  -32.4417 H   0  0  0  0  0  0  0  0  0  0  0  0
   -4.7895   20.9916  -33.2616 H   0  0  0  0  0  0  0  0  0  0  0  0
   -1.6139   21.2605  -34.4451 H   0  0  0  0  0  0  0  0  0  0  0  0
    0.0768   23.6213  -35.9228 H   0  0  0  0  0  0  0  0  0  0  0  0
    1.5779   22.8456  -36.5326 H   0  0  0  0  0  0  0  0  0  0  0  0
    0.0311   21.9323  -36.5326 H   0  0  0  0  0  0  0  0  0  0  0  0
  1  2  1  0
  2  3  1  0
  3  4  2  0
  4  5  1  0
  5  6  2  0
  6  7  1  0
  7  8  2  0
  8  9  1  0
  9 10  1  0
 10 11  1  0
 11 12  1  0
 12 13  1  0
 13 14  2  0
 14 15  1  0
 15 16  2  0
 16 17  1  0
 17 18  2  0
 17 19  2  0
 17 20  1  0
 20 21  1  0
 21 22  1  0
 22 23  2  0
 23 24  1  0
 24 25  2  0
 25 26  1  0
 26 27  2  0
 16 28  1  0
 28 29  2  0
 10 30  2  0
  6 31  1  0
 31 32  2  0
 32 33  1  0
 33 34  1  0
 32  3  1  0
 30  7  1  0
 29 13  1  0
 27 22  1  0
  1 35  1  0
  1 36  1  0
  1 37  1  0
  4 38  1  0
  5 39  1  0
 12 40  1  0
 12 41  1  0
 14 42  1  0
 15 43  1  0
 21 44  1  0
 21 45  1  0
 23 46  1  0
 24 47  1  0
 25 48  1  0
 26 49  1  0
 27 50  1  0
 28 51  1  0
 29 52  1  0
 31 53  1  0
 34 54  1  0
 34 55  1  0
 34 56  1  0
M  CHG  1  20  -1
M  END
>  <UniqueID>  (48) 
45

>  <SMILES>  (48) 
COc1ccc(-c2noc(SCc3ccc(S(=O)(=O)[N-]Cc4ccccc4)cc3)n2)cc1OC

>  <Energy>  (48) 
87.50811259488862

>  <Genealogy>  (48) 
COc1ccc(-c2noc(SCc3ccc(S(=O)(=O)[N-]Cc4ccccc4)cc3)n2)cc1OC (protonated)
COc1ccc(-c2noc(SCc3ccc(S(=O)(=O)[N-]Cc4ccccc4)cc3)n2)cc1OC (3D coordinates assigned)
COc1ccc(-c2noc(SCc3ccc(S(=O)(=O)[N-]Cc4ccccc4)cc3)n2)cc1OC (optimized conformer: 87.50811259488862 kcal/mol)

>  <smiles>  (48) 
COc1ccc(-c2noc(SCc3ccc(S(=O)(=O)NCc4ccccc4)cc3)n2)cc1OC

>  <score_type>  (48) 
oracle

>  <origin>  (48) 
adgpu

>  <m_score__min__energy>  (48) 
-11.300000000000001

>  <m_primary>  (48) 
energy

$$$$
48:0
     RDKit          3D

 37 38  0  0  0  0  0  0  0  0999 V2000
    0.1555   15.8275  -27.1731 H   0  0  0  0  0  0  0  0  0  0  0  0
    0.6220   16.7790  -27.4680 C   0  0  0  0  0  0  0  0  0  0  0  0
   -0.1570   17.7880  -28.0420 C   0  0  0  0  0  0  0  0  0  0  0  0
   -1.2329   17.6243  -28.2020 H   0  0  0  0  0  0  0  0  0  0  0  0
    0.4260   19.0080  -28.4150 C   0  0  0  0  0  0  0  0  0  0  0  0
   -0.4000   20.0680  -29.0350 C   0  0  0  0  0  0  0  0  0  0  0  0
   -1.1250   20.9210  -28.2720 C   0  0  0  0  0  0  0  0  0  0  0  0
   -1.2520   20.6940  -26.5250 Cl  0  0  0  0  0  0  0  0  0  0  0  0
   -1.9110   22.0310  -28.8500 C   0  0  0  0  0  0  0  0  0  0  0  0
   -3.1470   21.7870  -29.4670 C   0  0  0  0  0  0  0  0  0  0  0  0
   -3.5436   20.7619  -29.5109 H   0  0  0  0  0  0  0  0  0  0  0  0
   -3.8770   22.8390  -30.0260 C   0  0  0  0  0  0  0  0  0  0  0  0
   -4.8500   22.6395  -30.4988 H   0  0  0  0  0  0  0  0  0  0  0  0
   -3.3730   24.1540  -29.9870 C   0  0  0  0  0  0  0  0  0  0  0  0
   -4.0730   25.2410  -30.5330 O   0  0  0  0  0  0  0  0  0  0  0  0
   -5.4850   25.4040  -30.4670 C   0  0  0  0  0  0  0  0  0  0  0  0
   -5.8011   25.4405  -29.4140 H   0  0  0  0  0  0  0  0  0  0  0  0
   -5.7698   26.3410  -30.9680 H   0  0  0  0  0  0  0  0  0  0  0  0
   -5.9757   24.5565  -30.9680 H   0  0  0  0  0  0  0  0  0  0  0  0
   -2.1300   24.3910  -29.3830 C   0  0  0  0  0  0  0  0  0  0  0  0
   -1.6140   25.6810  -29.3380 O   0  0  0  0  0  0  0  0  0  0  0  0
   -1.4020   23.3370  -28.8240 C   0  0  0  0  0  0  0  0  0  0  0  0
   -0.4238   23.5334  -28.3609 H   0  0  0  0  0  0  0  0  0  0  0  0
   -0.4000   20.1630  -30.5420 C   0  0  0  0  0  0  0  0  0  0  0  0
    0.6371   20.1861  -30.9079 H   0  0  0  0  0  0  0  0  0  0  0  0
   -0.9185   19.2897  -30.9644 H   0  0  0  0  0  0  0  0  0  0  0  0
   -0.9185   21.0824  -30.8514 H   0  0  0  0  0  0  0  0  0  0  0  0
    1.8020   19.2000  -28.2210 C   0  0  0  0  0  0  0  0  0  0  0  0
    2.2700   20.1491  -28.5213 H   0  0  0  0  0  0  0  0  0  0  0  0
    2.5810   18.1910  -27.6480 C   0  0  0  0  0  0  0  0  0  0  0  0
    3.6583   18.3531  -27.4961 H   0  0  0  0  0  0  0  0  0  0  0  0
    2.0010   16.9760  -27.2660 C   0  0  0  0  0  0  0  0  0  0  0  0
    2.8260   15.9940  -26.6940 O   0  0  0  0  0  0  0  0  0  0  0  0
    2.3920   14.6840  -26.3480 C   0  0  0  0  0  0  0  0  0  0  0  0
    2.3595   14.5858  -25.2529 H   0  0  0  0  0  0  0  0  0  0  0  0
    1.3879   14.5091  -26.7618 H   0  0  0  0  0  0  0  0  0  0  0  0
    3.0931   13.9442  -26.7618 H   0  0  0  0  0  0  0  0  0  0  0  0
  1  2  1  0
  2  3  2  0
  3  4  1  0
  3  5  1  0
  5  6  1  0
  6  7  2  0
  7  8  1  0
  7  9  1  0
  9 10  2  0
 10 11  1  0
 10 12  1  0
 12 13  1  0
 12 14  2  0
 14 15  1  0
 15 16  1  0
 16 17  1  0
 16 18  1  0
 16 19  1  0
 14 20  1  0
 20 21  1  0
 20 22  2  0
 22 23  1  0
  6 24  1  0
 24 25  1  0
 24 26  1  0
 24 27  1  0
  5 28  2  0
 28 29  1  0
 28 30  1  0
 30 31  1  0
 30 32  2  0
 32 33  1  0
 33 34  1  0
 34 35  1  0
 34 36  1  0
 34 37  1  0
 32  2  1  0
 22  9  1  0
M  CHG  1  21  -1
M  END
>  <UniqueID>  (49) 
46

>  <SMILES>  (49) 
COc1ccc(/C(C)=C(\Cl)c2ccc(OC)c([O-])c2)cc1

>  <Energy>  (49) 
50.47714096623368

>  <Genealogy>  (49) 
COc1ccc(C(C)=C(Cl)c2ccc(OC)c([O-])c2)cc1 (protonated)
COc1ccc(/C(C)=C(\Cl)c2ccc(OC)c([O-])c2)cc1 (cis-trans isomerization)
COc1ccc(/C(C)=C(\Cl)c2ccc(OC)c([O-])c2)cc1 (3D coordinates assigned)
COc1ccc(/C(C)=C(\Cl)c2ccc(OC)c([O-])c2)cc1 (optimized conformer: 50.47714096623368 kcal/mol)

>  <smiles>  (49) 
COc1ccc(C(C)=C(Cl)c2ccc(OC)c(O)c2)cc1

>  <score_type>  (49) 
oracle

>  <origin>  (49) 
adgpu

>  <m_score__min__energy>  (49) 
-10.18

>  <m_primary>  (49) 
energy

$$$$
49:0
     RDKit          3D

 62 65  0  0  0  0  0  0  0  0999 V2000
   -2.7737   19.4954  -31.9019 H   0  0  0  0  0  0  0  0  0  0  0  0
   -2.9930   20.4830  -31.4700 C   0  0  0  0  0  0  0  0  0  0  0  0
   -2.1560   20.9480  -30.5250 N   0  0  0  0  0  0  0  0  0  0  0  0
   -2.3190   21.8870  -29.5720 C   0  0  0  0  0  0  0  0  0  0  0  0
   -1.2300   22.2330  -28.9320 N   0  0  0  0  0  0  0  0  0  0  0  0
   -1.0530   23.2770  -27.9590 C   0  0  0  0  0  0  0  0  0  0  0  0
   -1.3240   24.6020  -28.3190 C   0  0  0  0  0  0  0  0  0  0  0  0
   -1.6618   24.8342  -29.3398 H   0  0  0  0  0  0  0  0  0  0  0  0
   -1.1670   25.6320  -27.3860 C   0  0  0  0  0  0  0  0  0  0  0  0
   -1.3646   26.6731  -27.6810 H   0  0  0  0  0  0  0  0  0  0  0  0
   -0.7590   25.3430  -26.0770 C   0  0  0  0  0  0  0  0  0  0  0  0
   -0.5180   26.6440  -24.9110 S   0  0  0  0  0  0  0  0  0  0  0  0
   -1.7480   26.7780  -24.0560 O   0  0  0  0  0  0  0  0  0  0  0  0
   -0.3210   27.9400  -25.6480 O   0  0  0  0  0  0  0  0  0  0  0  0
    0.8680   26.3340  -23.8950 N   0  0  0  0  0  0  0  0  0  0  0  0
    0.6230   25.5560  -23.2380 H   0  0  0  0  0  0  0  0  0  0  0  0
    1.2000   27.5290  -23.1070 C   0  0  0  0  0  0  0  0  0  0  0  0
    1.1340   27.2913  -22.0350 H   0  0  0  0  0  0  0  0  0  0  0  0
    2.2227   27.8547  -23.3480 H   0  0  0  0  0  0  0  0  0  0  0  0
    0.4919   28.3355  -23.3480 H   0  0  0  0  0  0  0  0  0  0  0  0
    2.0170   25.9170  -24.7120 C   0  0  0  0  0  0  0  0  0  0  0  0
    2.8453   25.6164  -24.0535 H   0  0  0  0  0  0  0  0  0  0  0  0
    1.7263   25.0670  -25.3469 H   0  0  0  0  0  0  0  0  0  0  0  0
    2.3391   26.7556  -25.3469 H   0  0  0  0  0  0  0  0  0  0  0  0
   -0.5300   24.0120  -25.7020 C   0  0  0  0  0  0  0  0  0  0  0  0
   -0.2258   23.7772  -24.6713 H   0  0  0  0  0  0  0  0  0  0  0  0
   -0.6870   22.9820  -26.6340 C   0  0  0  0  0  0  0  0  0  0  0  0
   -0.5237   21.9376  -26.3298 H   0  0  0  0  0  0  0  0  0  0  0  0
   -3.5930   22.3160  -29.1300 C   0  0  0  0  0  0  0  0  0  0  0  0
   -3.6960   22.5900  -27.9000 O   0  0  0  0  0  0  0  0  0  0  0  0
   -4.7020   22.4860  -29.9320 N   0  0  0  0  0  0  0  0  0  0  0  0
   -5.8860   23.2000  -29.3640 C   0  0  2  0  0  0  0  0  0  0  0  0
   -5.9720   23.0246  -28.2815 H   0  0  0  0  0  0  0  0  0  0  0  0
   -7.1870   22.6190  -29.9530 C   0  0  0  0  0  0  0  0  0  0  0  0
   -7.8582   22.3193  -29.1346 H   0  0  0  0  0  0  0  0  0  0  0  0
   -7.6818   23.3817  -30.5723 H   0  0  0  0  0  0  0  0  0  0  0  0
   -6.9493   21.7415  -30.5723 H   0  0  0  0  0  0  0  0  0  0  0  0
   -5.7020   24.7410  -29.4810 C   0  0  0  0  0  0  0  0  0  0  0  0
   -5.9244   24.9046  -28.4162 H   0  0  0  0  0  0  0  0  0  0  0  0
   -6.1160   25.3260  -30.8280 C   0  0  0  0  0  0  0  0  0  0  0  0
   -6.4578   24.6604  -31.6343 H   0  0  0  0  0  0  0  0  0  0  0  0
   -6.8354   26.0917  -31.1539 H   0  0  0  0  0  0  0  0  0  0  0  0
   -4.6530   25.3340  -30.4200 C   0  0  0  0  0  0  0  0  0  0  0  0
   -3.9363   24.6739  -30.9305 H   0  0  0  0  0  0  0  0  0  0  0  0
   -3.8760   26.1072  -30.3281 H   0  0  0  0  0  0  0  0  0  0  0  0
   -4.7930   22.1710  -31.2620 C   0  0  0  0  0  0  0  0  0  0  0  0
   -5.4782   22.7867  -31.8631 H   0  0  0  0  0  0  0  0  0  0  0  0
   -4.1140   21.1560  -31.9420 C   0  0  0  0  0  0  0  0  0  0  0  0
   -4.6640   20.7460  -33.2090 N   0  0  0  0  0  0  0  0  0  0  0  0
   -4.6200   21.4230  -34.0040 H   0  0  0  0  0  0  0  0  0  0  0  0
   -5.2050   19.4360  -33.4670 C   0  0  0  0  0  0  0  0  0  0  0  0
   -4.4250   18.4550  -34.1100 C   0  0  0  0  0  0  0  0  0  0  0  0
   -3.3893   18.6854  -34.4003 H   0  0  0  0  0  0  0  0  0  0  0  0
   -4.9560   17.1920  -34.3820 C   0  0  0  0  0  0  0  0  0  0  0  0
   -4.3357   16.4311  -34.8782 H   0  0  0  0  0  0  0  0  0  0  0  0
   -6.2740   16.8930  -34.0250 C   0  0  0  0  0  0  0  0  0  0  0  0
   -6.8190   15.5910  -34.3040 C   0  0  0  0  0  0  0  0  0  0  0  0
   -7.2570   14.5430  -34.5280 N   0  0  0  0  0  0  0  0  0  0  0  0
   -7.0640   17.8640  -33.3980 C   0  0  0  0  0  0  0  0  0  0  0  0
   -8.1024   17.6296  -33.1208 H   0  0  0  0  0  0  0  0  0  0  0  0
   -6.5380   19.1330  -33.1220 C   0  0  0  0  0  0  0  0  0  0  0  0
   -7.5620   20.3100  -32.3100 Cl  0  0  0  0  0  0  0  0  0  0  0  0
  1  2  1  0
  2  3  2  0
  3  4  1  0
  4  5  2  0
  5  6  1  0
  6  7  2  0
  7  8  1  0
  7  9  1  0
  9 10  1  0
  9 11  2  0
 11 12  1  0
 12 13  2  0
 12 14  2  0
 12 15  1  0
 15 16  1  0
 15 17  1  0
 17 18  1  0
 17 19  1  0
 17 20  1  0
 15 21  1  0
 21 22  1  0
 21 23  1  0
 21 24  1  0
 11 25  1  0
 25 26  1  0
 25 27  2  0
 27 28  1  0
  4 29  1  0
 29 30  2  0
 29 31  1  0
 31 32  1  0
 32 33  1  1
 32 34  1  0
 34 35  1  0
 34 36  1  0
 34 37  1  0
 32 38  1  0
 38 39  1  0
 38 40  1  0
 40 41  1  0
 40 42  1  0
 40 43  1  0
 43 44  1  0
 43 45  1  0
 31 46  1  0
 46 47  1  0
 46 48  2  0
 48 49  1  0
 49 50  1  0
 49 51  1  0
 51 52  2  0
 52 53  1  0
 52 54  1  0
 54 55  1  0
 54 56  2  0
 56 57  1  0
 57 58  3  0
 56 59  1  0
 59 60  1  0
 59 61  2  0
 61 62  1  0
 48  2  1  0
 61 51  1  0
 27  6  1  0
 43 38  1  0
M  CHG  1  15   1
M  END
>  <UniqueID>  (50) 
47

>  <SMILES>  (50) 
C[C@H](C1CC1)n1cc(Nc2ccc(C#N)cc2Cl)cn/c(=N/c2ccc(S(=O)(=O)[NH+](C)C)cc2)c1=O

>  <Energy>  (50) 
384.047914007973

>  <Genealogy>  (50) 
CC(C1CC1)n1cc(Nc2ccc(C#N)cc2Cl)cnc(=Nc2ccc(S(=O)(=O)[NH+](C)C)cc2)c1=O (protonated)
C[C@H](C1CC1)n1cc(Nc2ccc(C#N)cc2Cl)cnc(=Nc2ccc(S(=O)(=O)[NH+](C)C)cc2)c1=O (chirality)
C[C@H](C1CC1)n1cc(Nc2ccc(C#N)cc2Cl)cn/c(=N/c2ccc(S(=O)(=O)[NH+](C)C)cc2)c1=O (cis-trans isomerization)
C[C@H](C1CC1)n1cc(Nc2ccc(C#N)cc2Cl)cn/c(=N/c2ccc(S(=O)(=O)[NH+](C)C)cc2)c1=O (3D coordinates assigned)
C[C@H](C1CC1)n1cc(Nc2ccc(C#N)cc2Cl)cn/c(=N/c2ccc(S(=O)(=O)[NH+](C)C)cc2)c1=O (nonaromatic ring conformer: 384.047914007973 kcal/mol)

>  <smiles>  (50) 
CC(C1CC1)n1cc(Nc2ccc(C#N)cc2Cl)cnc(=Nc2ccc(S(=O)(=O)N(C)C)cc2)c1=O

>  <score_type>  (50) 
oracle

>  <origin>  (50) 
adgpu

>  <m_score__min__energy>  (50) 
-11.300000000000001

>  <m_primary>  (50) 
energy

$$$$
