0:0
     RDKit          3D

 26 27  0  0  0  0  0  0  0  0999 V2000
   -2.4350   19.7590  -33.8290 C   0  0  0  0  0  0  0  0  0  0  0  0
   -3.4400   20.6920  -33.4450 O   0  0  0  0  0  0  0  0  0  0  0  0
   -4.7650   20.3480  -33.1340 C   0  0  0  0  0  0  0  0  0  0  0  0
   -5.4430   19.3010  -33.7910 C   0  0  0  0  0  0  0  0  0  0  0  0
   -6.7620   18.9920  -33.4500 C   0  0  0  0  0  0  0  0  0  0  0  0
   -7.4200   19.7190  -32.4520 C   0  0  0  0  0  0  0  0  0  0  0  0
   -9.0760   19.3270  -32.0270 Cl  0  0  0  0  0  0  0  0  0  0  0  0
   -6.7560   20.7580  -31.7950 C   0  0  0  0  0  0  0  0  0  0  0  0
   -5.4320   21.0760  -32.1320 C   0  0  0  0  0  0  0  0  0  0  0  0
   -4.7600   22.1480  -31.4470 N   0  0  0  0  0  0  0  0  0  0  0  0
   -3.6140   21.8880  -30.7360 C   0  0  0  0  0  0  0  0  0  0  0  0
   -3.0710   20.6020  -30.6540 O   0  0  0  0  0  0  0  0  0  0  0  0
   -2.9550   22.9200  -30.0690 C   0  0  0  0  0  0  0  0  0  0  0  0
   -3.4780   24.2070  -30.1400 C   0  0  0  0  0  0  0  0  0  0  0  0
   -2.9050   25.1590  -29.5480 O   0  0  0  0  0  0  0  0  0  0  0  0
   -4.6100   24.4350  -30.8480 N   0  0  0  0  0  0  0  0  0  0  0  0
   -5.2540   23.4310  -31.4980 C   0  0  0  0  0  0  0  0  0  0  0  0
   -6.6200   23.8040  -32.3350 S   0  0  0  0  0  0  0  0  0  0  0  0
   -1.9713   19.3285  -32.9292 H   0  0  0  0  0  0  0  0  0  0  0  0
   -2.8898   18.9557  -34.4272 H   0  0  0  0  0  0  0  0  0  0  0  0
   -1.6676   20.2721  -34.4272 H   0  0  0  0  0  0  0  0  0  0  0  0
   -4.9310   18.7247  -34.5757 H   0  0  0  0  0  0  0  0  0  0  0  0
   -7.2850   18.1745  -33.9678 H   0  0  0  0  0  0  0  0  0  0  0  0
   -7.2737   21.3290  -31.0102 H   0  0  0  0  0  0  0  0  0  0  0  0
   -2.9070   20.0180  -31.4650 H   0  0  0  0  0  0  0  0  0  0  0  0
   -2.0373   22.7198  -29.4965 H   0  0  0  0  0  0  0  0  0  0  0  0
  1  2  1  0
  2  3  1  0
  3  4  2  0
  4  5  1  0
  5  6  2  0
  6  7  1  0
  6  8  1  0
  8  9  2  0
  9 10  1  0
 10 11  1  0
 11 12  1  0
 11 13  2  0
 13 14  1  0
 14 15  2  0
 14 16  1  0
 16 17  1  0
 17 18  2  0
  9  3  1  0
 17 10  1  0
  1 19  1  0
  1 20  1  0
  1 21  1  0
  4 22  1  0
  5 23  1  0
  8 24  1  0
 12 25  1  0
 13 26  1  0
M  CHG  1  16  -1
M  END
>  <UniqueID>  (1) 
1

>  <SMILES>  (1) 
COc1ccc(Cl)cc1-n1c(O)cc(=O)[n-]c1=S

>  <Energy>  (1) 
38.16972912936721

>  <Genealogy>  (1) 
COc1ccc(Cl)cc1-n1c(O)cc(=O)[n-]c1=S (protonated)
COc1ccc(Cl)cc1-n1c(O)cc(=O)[n-]c1=S (3D coordinates assigned)
COc1ccc(Cl)cc1-n1c(O)cc(=O)[n-]c1=S (optimized conformer: 38.16972912936721 kcal/mol)

>  <smiles>  (1) 
COc1ccc(Cl)cc1-n1c(O)cc(=O)[nH]c1=S

>  <score_type>  (1) 
oracle

>  <origin>  (1) 
adgpu

>  <m_score__min__energy>  (1) 
-7.0599999999999996

>  <m_primary>  (1) 
energy

$$$$
1:0
     RDKit          3D

 52 54  0  0  0  0  0  0  0  0999 V2000
   -0.8500   20.8330  -34.4720 C   0  0  0  0  0  0  0  0  0  0  0  0
   -0.8890   19.5880  -33.6370 C   0  0  0  0  0  0  0  0  0  0  0  0
   -1.3530   18.3850  -34.1880 C   0  0  0  0  0  0  0  0  0  0  0  0
   -1.3500   17.2150  -33.4260 C   0  0  0  0  0  0  0  0  0  0  0  0
   -0.8820   17.2360  -32.1100 C   0  0  0  0  0  0  0  0  0  0  0  0
   -0.4130   18.4310  -31.5410 C   0  0  0  0  0  0  0  0  0  0  0  0
    0.0870   18.4440  -30.1450 C   0  0  0  0  0  0  0  0  0  0  0  0
    1.1490   17.8290  -29.8650 O   0  0  0  0  0  0  0  0  0  0  0  0
   -0.5740   19.1790  -29.1060 N   0  0  0  0  0  0  0  0  0  0  0  0
   -1.0970   20.5110  -29.2100 C   0  0  0  0  0  0  0  0  0  0  0  0
   -2.2640   20.9040  -28.5310 C   0  0  0  0  0  0  0  0  0  0  0  0
   -2.7360   22.2150  -28.6400 C   0  0  0  0  0  0  0  0  0  0  0  0
   -2.0340   23.1620  -29.4020 C   0  0  0  0  0  0  0  0  0  0  0  0
   -2.5290   24.5540  -29.4950 C   0  0  0  0  0  0  0  0  0  0  0  0
   -2.0680   25.4270  -28.7140 O   0  0  0  0  0  0  0  0  0  0  0  0
   -3.5540   24.9340  -30.4240 N   0  0  0  0  0  0  0  0  0  0  0  0
   -4.6280   24.0990  -30.8800 C   0  0  0  0  0  0  0  0  0  0  0  0
   -5.9460   24.5550  -30.7550 C   0  0  0  0  0  0  0  0  0  0  0  0
   -7.0120   23.7620  -31.1900 C   0  0  0  0  0  0  0  0  0  0  0  0
   -6.7680   22.5100  -31.7590 C   0  0  0  0  0  0  0  0  0  0  0  0
   -5.4530   22.0500  -31.9080 C   0  0  0  0  0  0  0  0  0  0  0  0
   -5.1200   20.4750  -32.6210 S   0  0  0  0  0  0  0  0  0  0  0  0
   -3.8730   20.5410  -33.4610 O   0  0  0  0  0  0  0  0  0  0  0  0
   -4.9120   19.4820  -31.5120 O   0  0  0  0  0  0  0  0  0  0  0  0
   -6.4740   19.9860  -33.6110 N   0  0  0  0  0  0  0  0  0  0  0  0
   -6.0560   18.9040  -34.5130 C   0  0  0  0  0  0  0  0  0  0  0  0
   -7.5700   19.5270  -32.7510 C   0  0  0  0  0  0  0  0  0  0  0  0
   -4.3860   22.8530  -31.4850 C   0  0  0  0  0  0  0  0  0  0  0  0
   -0.8630   22.7690  -30.0720 C   0  0  0  0  0  0  0  0  0  0  0  0
   -0.3970   21.4550  -29.9690 C   0  0  0  0  0  0  0  0  0  0  0  0
   -0.3980   19.6020  -32.3220 C   0  0  0  0  0  0  0  0  0  0  0  0
   -0.8224   21.7146  -33.8147 H   0  0  0  0  0  0  0  0  0  0  0  0
    0.0482   20.8207  -35.1069 H   0  0  0  0  0  0  0  0  0  0  0  0
   -1.7472   20.8769  -35.1069 H   0  0  0  0  0  0  0  0  0  0  0  0
   -1.7208   18.3629  -35.2245 H   0  0  0  0  0  0  0  0  0  0  0  0
   -1.7170   16.2746  -33.8630 H   0  0  0  0  0  0  0  0  0  0  0  0
   -0.8809   16.3104  -31.5156 H   0  0  0  0  0  0  0  0  0  0  0  0
   -2.8080   20.1761  -27.9111 H   0  0  0  0  0  0  0  0  0  0  0  0
   -3.6635   22.5065  -28.1254 H   0  0  0  0  0  0  0  0  0  0  0  0
   -6.1437   25.5424  -30.3122 H   0  0  0  0  0  0  0  0  0  0  0  0
   -8.0450   24.1248  -31.0839 H   0  0  0  0  0  0  0  0  0  0  0  0
   -7.6096   21.8841  -32.0907 H   0  0  0  0  0  0  0  0  0  0  0  0
   -5.7223   18.0401  -33.9194 H   0  0  0  0  0  0  0  0  0  0  0  0
   -6.9042   18.6073  -35.1474 H   0  0  0  0  0  0  0  0  0  0  0  0
   -5.2286   19.2546  -35.1474 H   0  0  0  0  0  0  0  0  0  0  0  0
   -7.2831   19.6471  -31.6959 H   0  0  0  0  0  0  0  0  0  0  0  0
   -8.4713   20.1232  -32.9561 H   0  0  0  0  0  0  0  0  0  0  0  0
   -7.7775   18.4664  -32.9561 H   0  0  0  0  0  0  0  0  0  0  0  0
   -3.3517   22.5064  -31.6271 H   0  0  0  0  0  0  0  0  0  0  0  0
   -0.3099   23.4993  -30.6809 H   0  0  0  0  0  0  0  0  0  0  0  0
    0.5269   21.1611  -30.4886 H   0  0  0  0  0  0  0  0  0  0  0  0
    0.0016   20.5353  -31.8986 H   0  0  0  0  0  0  0  0  0  0  0  0
  1  2  1  0
  2  3  2  0
  3  4  1  0
  4  5  2  0
  5  6  1  0
  6  7  1  0
  7  8  2  0
  7  9  1  0
  9 10  1  0
 10 11  2  0
 11 12  1  0
 12 13  2  0
 13 14  1  0
 14 15  2  0
 14 16  1  0
 16 17  1  0
 17 18  2  0
 18 19  1  0
 19 20  2  0
 20 21  1  0
 21 22  1  0
 22 23  2  0
 22 24  2  0
 22 25  1  0
 25 26  1  0
 25 27  1  0
 21 28  2  0
 13 29  1  0
 29 30  2  0
  6 31  2  0
 31  2  1  0
 30 10  1  0
 28 17  1  0
  1 32  1  0
  1 33  1  0
  1 34  1  0
  3 35  1  0
  4 36  1  0
  5 37  1  0
 11 38  1  0
 12 39  1  0
 18 40  1  0
 19 41  1  0
 20 42  1  0
 26 43  1  0
 26 44  1  0
 26 45  1  0
 27 46  1  0
 27 47  1  0
 27 48  1  0
 28 49  1  0
 29 50  1  0
 30 51  1  0
 31 52  1  0
M  CHG  2   9  -1  16  -1
M  END
>  <UniqueID>  (2) 
2

>  <SMILES>  (2) 
Cc1cccc(C(=O)[N-]c2ccc(C(=O)[N-]c3cccc(S(=O)(=O)N(C)C)c3)cc2)c1

>  <Energy>  (2) 
62.31475715431536

>  <Genealogy>  (2) 
Cc1cccc(C(=O)[N-]c2ccc(C(=O)[N-]c3cccc(S(=O)(=O)N(C)C)c3)cc2)c1 (protonated)
Cc1cccc(C(=O)[N-]c2ccc(C(=O)[N-]c3cccc(S(=O)(=O)N(C)C)c3)cc2)c1 (3D coordinates assigned)
Cc1cccc(C(=O)[N-]c2ccc(C(=O)[N-]c3cccc(S(=O)(=O)N(C)C)c3)cc2)c1 (optimized conformer: 62.31475715431536 kcal/mol)

>  <smiles>  (2) 
Cc1cccc(C(=O)Nc2ccc(C(=O)Nc3cccc(S(=O)(=O)N(C)C)c3)cc2)c1

>  <score_type>  (2) 
oracle

>  <origin>  (2) 
adgpu

>  <m_score__min__energy>  (2) 
-12.220000000000001

>  <m_primary>  (2) 
energy

$$$$
2:0
     RDKit          3D

 58 61  0  0  0  0  0  0  0  0999 V2000
   -3.8720   25.3030  -30.5570 O   0  0  0  0  0  0  0  0  0  0  0  0
   -3.7400   24.0740  -30.3060 C   0  0  0  0  0  0  0  0  0  0  0  0
   -4.5930   23.1210  -30.9560 N   0  0  0  0  0  0  0  0  0  0  0  0
   -4.1860   21.9050  -31.6020 C   0  0  0  0  0  0  0  0  0  0  0  0
   -2.9700   21.8890  -32.2940 C   0  0  0  0  0  0  0  0  0  0  0  0
   -2.5470   20.7340  -32.9580 C   0  0  0  0  0  0  0  0  0  0  0  0
   -3.3460   19.5890  -32.9460 C   0  0  0  0  0  0  0  0  0  0  0  0
   -4.5760   19.5960  -32.2760 C   0  0  0  0  0  0  0  0  0  0  0  0
   -5.5890   18.1540  -32.3110 S   0  0  0  0  0  0  0  0  0  0  0  0
   -5.7500   17.5950  -30.9250 O   0  0  0  0  0  0  0  0  0  0  0  0
   -4.9210   17.1200  -33.1750 O   0  0  0  0  0  0  0  0  0  0  0  0
   -7.1550   18.5590  -32.9700 N   0  0  0  0  0  0  0  0  0  0  0  0
   -7.1900   19.9690  -33.4370 C   0  0  0  0  0  0  0  0  0  0  0  0
   -7.9100   20.9090  -32.4580 C   0  0  0  0  0  0  0  0  0  0  0  0
   -9.3580   20.4540  -32.2120 C   0  0  0  0  0  0  0  0  0  0  0  0
   -9.5270   18.9280  -32.3130 C   0  0  0  0  0  0  0  0  0  0  0  0
   -8.2140   18.2060  -31.9970 C   0  0  0  0  0  0  0  0  0  0  0  0
   -5.0010   20.7570  -31.6130 C   0  0  0  0  0  0  0  0  0  0  0  0
   -2.7440   23.6320  -29.2930 C   0  0  0  0  0  0  0  0  0  0  0  0
   -2.8380   22.3330  -28.7520 C   0  0  0  0  0  0  0  0  0  0  0  0
   -1.9170   21.8830  -27.7970 C   0  0  0  0  0  0  0  0  0  0  0  0
   -2.0360   20.2470  -27.1540 S   0  0  0  0  0  0  0  0  0  0  0  0
   -3.4840   19.8460  -27.0820 O   0  0  0  0  0  0  0  0  0  0  0  0
   -1.4600   20.2080  -25.7640 O   0  0  0  0  0  0  0  0  0  0  0  0
   -1.1820   19.1480  -28.2060 N   0  0  0  0  0  0  0  0  0  0  0  0
   -0.8690   19.7730  -29.4900 C   0  0  0  0  0  0  0  0  0  0  0  0
    0.3570   19.0580  -30.0290 C   0  0  0  0  0  0  0  0  0  0  0  0
    1.0310   18.4490  -28.8090 C   0  0  0  0  0  0  0  0  0  0  0  0
    0.1100   18.7620  -27.6370 C   0  0  0  0  0  0  0  0  0  0  0  0
   -0.8840   22.7270  -27.3790 C   0  0  0  0  0  0  0  0  0  0  0  0
   -0.7780   24.0150  -27.9010 C   0  0  0  0  0  0  0  0  0  0  0  0
   -1.6980   24.4750  -28.8490 C   0  0  0  0  0  0  0  0  0  0  0  0
   -1.5590   25.7730  -29.3310 O   0  0  0  0  0  0  0  0  0  0  0  0
   -2.3423   22.7920  -32.3156 H   0  0  0  0  0  0  0  0  0  0  0  0
   -1.5843   20.7271  -33.4902 H   0  0  0  0  0  0  0  0  0  0  0  0
   -3.0086   18.6792  -33.4640 H   0  0  0  0  0  0  0  0  0  0  0  0
   -6.1559   20.3215  -33.5647 H   0  0  0  0  0  0  0  0  0  0  0  0
   -7.7507   19.9879  -34.3832 H   0  0  0  0  0  0  0  0  0  0  0  0
   -7.3680   20.9135  -31.5008 H   0  0  0  0  0  0  0  0  0  0  0  0
   -7.9320   21.9176  -32.8965 H   0  0  0  0  0  0  0  0  0  0  0  0
   -9.6615   20.7756  -31.2048 H   0  0  0  0  0  0  0  0  0  0  0  0
   -9.9861   20.9098  -32.9915 H   0  0  0  0  0  0  0  0  0  0  0  0
  -10.2967   18.6036  -31.5972 H   0  0  0  0  0  0  0  0  0  0  0  0
   -9.8252   18.6767  -33.3416 H   0  0  0  0  0  0  0  0  0  0  0  0
   -7.8824   18.4918  -30.9879 H   0  0  0  0  0  0  0  0  0  0  0  0
   -8.3919   17.1222  -32.0573 H   0  0  0  0  0  0  0  0  0  0  0  0
   -5.9740   20.7704  -31.1001 H   0  0  0  0  0  0  0  0  0  0  0  0
   -3.6455   21.6640  -29.0844 H   0  0  0  0  0  0  0  0  0  0  0  0
   -1.7134   19.6566  -30.1853 H   0  0  0  0  0  0  0  0  0  0  0  0
   -0.6821   20.8507  -29.3732 H   0  0  0  0  0  0  0  0  0  0  0  0
    0.0637   18.2720  -30.7404 H   0  0  0  0  0  0  0  0  0  0  0  0
    1.0270   19.7417  -30.5709 H   0  0  0  0  0  0  0  0  0  0  0  0
    1.1398   17.3614  -28.9327 H   0  0  0  0  0  0  0  0  0  0  0  0
    2.0410   18.8565  -28.6546 H   0  0  0  0  0  0  0  0  0  0  0  0
   -0.0073   17.8732  -26.9996 H   0  0  0  0  0  0  0  0  0  0  0  0
    0.5239   19.5687  -27.0142 H   0  0  0  0  0  0  0  0  0  0  0  0
   -0.1532   22.3739  -26.6365 H   0  0  0  0  0  0  0  0  0  0  0  0
    0.0354   24.6749  -27.5649 H   0  0  0  0  0  0  0  0  0  0  0  0
  1  2  2  0
  2  3  1  0
  3  4  1  0
  4  5  2  0
  5  6  1  0
  6  7  2  0
  7  8  1  0
  8  9  1  0
  9 10  2  0
  9 11  2  0
  9 12  1  0
 12 13  1  0
 13 14  1  0
 14 15  1  0
 15 16  1  0
 16 17  1  0
  8 18  2  0
  2 19  1  0
 19 20  2  0
 20 21  1  0
 21 22  1  0
 22 23  2  0
 22 24  2  0
 22 25  1  0
 25 26  1  0
 26 27  1  0
 27 28  1  0
 28 29  1  0
 21 30  2  0
 30 31  1  0
 31 32  2  0
 32 33  1  0
 18  4  1  0
 32 19  1  0
 17 12  1  0
 29 25  1  0
  5 34  1  0
  6 35  1  0
  7 36  1  0
 13 37  1  0
 13 38  1  0
 14 39  1  0
 14 40  1  0
 15 41  1  0
 15 42  1  0
 16 43  1  0
 16 44  1  0
 17 45  1  0
 17 46  1  0
 18 47  1  0
 20 48  1  0
 26 49  1  0
 26 50  1  0
 27 51  1  0
 27 52  1  0
 28 53  1  0
 28 54  1  0
 29 55  1  0
 29 56  1  0
 30 57  1  0
 31 58  1  0
M  CHG  2   3  -1  33  -1
M  END
>  <UniqueID>  (3) 
3

>  <SMILES>  (3) 
O=C([N-]c1cccc(S(=O)(=O)N2CCCCC2)c1)c1cc(S(=O)(=O)N2CCCC2)ccc1[O-]

>  <Energy>  (3) 
72.10573565230371

>  <Genealogy>  (3) 
O=C([N-]c1cccc(S(=O)(=O)N2CCCCC2)c1)c1cc(S(=O)(=O)N2CCCC2)ccc1[O-] (protonated)
O=C([N-]c1cccc(S(=O)(=O)N2CCCCC2)c1)c1cc(S(=O)(=O)N2CCCC2)ccc1[O-] (3D coordinates assigned)
O=C([N-]c1cccc(S(=O)(=O)N2CCCCC2)c1)c1cc(S(=O)(=O)N2CCCC2)ccc1[O-] (nonaromatic ring conformer: 72.10573565230371 kcal/mol)

>  <smiles>  (3) 
O=C(Nc1cccc(S(=O)(=O)N2CCCCC2)c1)c1cc(S(=O)(=O)N2CCCC2)ccc1O

>  <score_type>  (3) 
oracle

>  <origin>  (3) 
adgpu

>  <m_score__min__energy>  (3) 
-14.69

>  <m_primary>  (3) 
energy

$$$$
3:0
     RDKit          3D

 41 43  0  0  0  0  0  0  0  0999 V2000
  -10.1260   21.3070  -31.9400 C   0  0  0  0  0  0  0  0  0  0  0  0
   -8.7440   20.8450  -32.2570 C   0  0  0  0  0  0  0  0  0  0  0  0
   -7.6880   21.6790  -32.3580 N   0  0  0  0  0  0  0  0  0  0  0  0
   -6.6680   20.8400  -32.6270 C   0  0  0  0  0  0  0  0  0  0  0  0
   -5.3310   21.2360  -32.7560 O   0  0  0  0  0  0  0  0  0  0  0  0
   -4.7080   22.2400  -32.0010 C   0  0  0  0  0  0  0  0  0  0  0  0
   -3.3740   22.1340  -31.5680 C   0  0  0  0  0  0  0  0  0  0  0  0
   -2.8000   23.1530  -30.8050 C   0  0  0  0  0  0  0  0  0  0  0  0
   -3.5480   24.2820  -30.4580 C   0  0  0  0  0  0  0  0  0  0  0  0
   -2.9590   25.2840  -29.6940 O   0  0  0  0  0  0  0  0  0  0  0  0
   -4.8860   24.3940  -30.8760 C   0  0  0  0  0  0  0  0  0  0  0  0
   -5.7020   25.5950  -30.4880 C   0  0  0  0  0  0  0  0  0  0  0  0
   -5.4600   23.3620  -31.6360 C   0  0  0  0  0  0  0  0  0  0  0  0
   -7.1320   19.5390  -32.6680 C   0  0  0  0  0  0  0  0  0  0  0  0
   -6.3790   18.2880  -32.9110 C   0  0  0  0  0  0  0  0  0  0  0  0
   -6.0720   17.4500  -31.8260 C   0  0  0  0  0  0  0  0  0  0  0  0
   -5.3650   16.2600  -32.0250 C   0  0  0  0  0  0  0  0  0  0  0  0
   -4.9670   15.8830  -33.3130 C   0  0  0  0  0  0  0  0  0  0  0  0
   -4.0630   14.3930  -33.5610 S   0  0  0  0  0  0  0  0  0  0  0  0
   -5.0560   13.2500  -34.4930 C   0  0  0  0  0  0  0  0  0  0  0  0
   -2.7940   14.6850  -34.3110 O   0  0  0  0  0  0  0  0  0  0  0  0
   -3.7080   13.7850  -32.2330 O   0  0  0  0  0  0  0  0  0  0  0  0
   -5.2750   16.7090  -34.4000 C   0  0  0  0  0  0  0  0  0  0  0  0
   -5.9820   17.9010  -34.2040 C   0  0  0  0  0  0  0  0  0  0  0  0
   -8.4200   19.5820  -32.4290 O   0  0  0  0  0  0  0  0  0  0  0  0
  -10.2567   21.3507  -30.8487 H   0  0  0  0  0  0  0  0  0  0  0  0
  -10.2856   22.3074  -32.3688 H   0  0  0  0  0  0  0  0  0  0  0  0
  -10.8551   20.6037  -32.3688 H   0  0  0  0  0  0  0  0  0  0  0  0
   -2.7810   21.2457  -31.8312 H   0  0  0  0  0  0  0  0  0  0  0  0
   -1.7541   23.0670  -30.4753 H   0  0  0  0  0  0  0  0  0  0  0  0
   -5.7506   25.6665  -29.3914 H   0  0  0  0  0  0  0  0  0  0  0  0
   -5.2334   26.5035  -30.8943 H   0  0  0  0  0  0  0  0  0  0  0  0
   -6.7192   25.4940  -30.8943 H   0  0  0  0  0  0  0  0  0  0  0  0
   -6.5123   23.4366  -31.9477 H   0  0  0  0  0  0  0  0  0  0  0  0
   -6.3904   17.7322  -30.8116 H   0  0  0  0  0  0  0  0  0  0  0  0
   -5.1207   15.6177  -31.1661 H   0  0  0  0  0  0  0  0  0  0  0  0
   -5.6173   12.6039  -33.8020 H   0  0  0  0  0  0  0  0  0  0  0  0
   -5.7605   13.8085  -35.1268 H   0  0  0  0  0  0  0  0  0  0  0  0
   -4.4045   12.6304  -35.1268 H   0  0  0  0  0  0  0  0  0  0  0  0
   -4.9599   16.4200  -35.4135 H   0  0  0  0  0  0  0  0  0  0  0  0
   -6.2286   18.5387  -35.0657 H   0  0  0  0  0  0  0  0  0  0  0  0
  1  2  1  0
  2  3  2  0
  3  4  1  0
  4  5  1  0
  5  6  1  0
  6  7  2  0
  7  8  1  0
  8  9  2  0
  9 10  1  0
  9 11  1  0
 11 12  1  0
 11 13  2  0
  4 14  2  0
 14 15  1  0
 15 16  2  0
 16 17  1  0
 17 18  2  0
 18 19  1  0
 19 20  1  0
 19 21  2  0
 19 22  2  0
 18 23  1  0
 23 24  2  0
 14 25  1  0
 25  2  1  0
 13  6  1  0
 24 15  1  0
  1 26  1  0
  1 27  1  0
  1 28  1  0
  7 29  1  0
  8 30  1  0
 12 31  1  0
 12 32  1  0
 12 33  1  0
 13 34  1  0
 16 35  1  0
 17 36  1  0
 20 37  1  0
 20 38  1  0
 20 39  1  0
 23 40  1  0
 24 41  1  0
M  CHG  1  10  -1
M  END
>  <UniqueID>  (4) 
4

>  <SMILES>  (4) 
Cc1nc(Oc2ccc([O-])c(C)c2)c(-c2ccc(S(C)(=O)=O)cc2)o1

>  <Energy>  (4) 
75.91168195110994

>  <Genealogy>  (4) 
Cc1nc(Oc2ccc([O-])c(C)c2)c(-c2ccc(S(C)(=O)=O)cc2)o1 (protonated)
Cc1nc(Oc2ccc([O-])c(C)c2)c(-c2ccc(S(C)(=O)=O)cc2)o1 (3D coordinates assigned)
Cc1nc(Oc2ccc([O-])c(C)c2)c(-c2ccc(S(C)(=O)=O)cc2)o1 (optimized conformer: 75.91168195110994 kcal/mol)

>  <smiles>  (4) 
Cc1nc(Oc2ccc(O)c(C)c2)c(-c2ccc(S(C)(=O)=O)cc2)o1

>  <score_type>  (4) 
oracle

>  <origin>  (4) 
adgpu

>  <m_score__min__energy>  (4) 
-10.529999999999999

>  <m_primary>  (4) 
energy

$$$$
4:0
     RDKit          3D

 44 46  0  0  0  0  0  0  0  0999 V2000
   -9.6350   21.4200  -31.7770 C   0  0  0  0  0  0  0  0  0  0  0  0
   -8.6440   20.3310  -32.0650 C   0  0  0  0  0  0  0  0  0  0  0  0
   -7.5920   20.5550  -32.9650 C   0  0  0  0  0  0  0  0  0  0  0  0
   -6.6430   19.5560  -33.2050 C   0  0  0  0  0  0  0  0  0  0  0  0
   -6.7310   18.3180  -32.5520 C   0  0  0  0  0  0  0  0  0  0  0  0
   -5.7520   17.3020  -32.8290 N   0  0  0  0  0  0  0  0  0  0  0  0
   -4.6200   17.4030  -34.1410 S   0  0  0  0  0  0  0  0  0  0  0  0
   -5.3200   17.9130  -35.3710 O   0  0  0  0  0  0  0  0  0  0  0  0
   -4.0680   16.0350  -34.4320 O   0  0  0  0  0  0  0  0  0  0  0  0
   -3.2880   18.4610  -33.6850 C   0  0  0  0  0  0  0  0  0  0  0  0
   -2.0240   18.3270  -34.2780 C   0  0  0  0  0  0  0  0  0  0  0  0
   -0.9860   19.1950  -33.9240 C   0  0  0  0  0  0  0  0  0  0  0  0
   -1.2050   20.1990  -32.9760 C   0  0  0  0  0  0  0  0  0  0  0  0
   -2.4660   20.3350  -32.3750 C   0  0  0  0  0  0  0  0  0  0  0  0
   -2.7520   21.5700  -31.1550 S   0  0  0  0  0  0  0  0  0  0  0  0
   -3.4900   21.0000  -29.9720 O   0  0  0  0  0  0  0  0  0  0  0  0
   -1.4250   22.1080  -30.6890 O   0  0  0  0  0  0  0  0  0  0  0  0
   -3.6830   22.8700  -31.8390 N   0  0  0  0  0  0  0  0  0  0  0  0
   -4.8430   23.4720  -31.2380 C   0  0  0  0  0  0  0  0  0  0  0  0
   -6.1130   22.8640  -31.2960 C   0  0  0  0  0  0  0  0  0  0  0  0
   -7.2190   23.4830  -30.6960 C   0  0  0  0  0  0  0  0  0  0  0  0
   -7.0660   24.7020  -30.0330 C   0  0  0  0  0  0  0  0  0  0  0  0
   -5.8060   25.3030  -29.9590 C   0  0  0  0  0  0  0  0  0  0  0  0
   -4.6980   24.6920  -30.5560 C   0  0  0  0  0  0  0  0  0  0  0  0
   -3.4480   25.2970  -30.4670 O   0  0  0  0  0  0  0  0  0  0  0  0
   -3.5040   19.4660  -32.7340 C   0  0  0  0  0  0  0  0  0  0  0  0
   -7.7670   18.1090  -31.6210 C   0  0  0  0  0  0  0  0  0  0  0  0
   -8.7150   19.1080  -31.3800 C   0  0  0  0  0  0  0  0  0  0  0  0
   -9.7432   21.5389  -30.6888 H   0  0  0  0  0  0  0  0  0  0  0  0
   -9.2799   22.3643  -32.2155 H   0  0  0  0  0  0  0  0  0  0  0  0
  -10.6085   21.1553  -32.2155 H   0  0  0  0  0  0  0  0  0  0  0  0
   -7.5128   21.5212  -33.4848 H   0  0  0  0  0  0  0  0  0  0  0  0
   -5.8210   19.7428  -33.9117 H   0  0  0  0  0  0  0  0  0  0  0  0
   -5.6030   16.5370  -32.1330 H   0  0  0  0  0  0  0  0  0  0  0  0
   -1.8486   17.5373  -35.0234 H   0  0  0  0  0  0  0  0  0  0  0  0
    0.0037   19.0876  -34.3919 H   0  0  0  0  0  0  0  0  0  0  0  0
   -0.3884   20.8828  -32.7010 H   0  0  0  0  0  0  0  0  0  0  0  0
   -6.2371   21.9012  -31.8133 H   0  0  0  0  0  0  0  0  0  0  0  0
   -8.2093   23.0070  -30.7479 H   0  0  0  0  0  0  0  0  0  0  0  0
   -7.9363   25.1893  -29.5691 H   0  0  0  0  0  0  0  0  0  0  0  0
   -5.6853   26.2596  -29.4296 H   0  0  0  0  0  0  0  0  0  0  0  0
   -4.4939   19.5734  -32.2666 H   0  0  0  0  0  0  0  0  0  0  0  0
   -7.8307   17.1534  -31.0799 H   0  0  0  0  0  0  0  0  0  0  0  0
   -9.5199   18.9348  -30.6505 H   0  0  0  0  0  0  0  0  0  0  0  0
  1  2  1  0
  2  3  2  0
  3  4  1  0
  4  5  2  0
  5  6  1  0
  6  7  1  0
  7  8  2  0
  7  9  2  0
  7 10  1  0
 10 11  2  0
 11 12  1  0
 12 13  2  0
 13 14  1  0
 14 15  1  0
 15 16  2  0
 15 17  2  0
 15 18  1  0
 18 19  1  0
 19 20  2  0
 20 21  1  0
 21 22  2  0
 22 23  1  0
 23 24  2  0
 24 25  1  0
 14 26  2  0
  5 27  1  0
 27 28  2  0
 28  2  1  0
 26 10  1  0
 24 19  1  0
  1 29  1  0
  1 30  1  0
  1 31  1  0
  3 32  1  0
  4 33  1  0
  6 34  1  0
 11 35  1  0
 12 36  1  0
 13 37  1  0
 20 38  1  0
 21 39  1  0
 22 40  1  0
 23 41  1  0
 26 42  1  0
 27 43  1  0
 28 44  1  0
M  CHG  2  18  -1  25  -1
M  END
>  <UniqueID>  (5) 
5

>  <SMILES>  (5) 
Cc1ccc(NS(=O)(=O)c2cccc(S(=O)(=O)[N-]c3ccccc3[O-])c2)cc1

>  <Energy>  (5) 
51.83123415523671

>  <Genealogy>  (5) 
Cc1ccc(NS(=O)(=O)c2cccc(S(=O)(=O)[N-]c3ccccc3[O-])c2)cc1 (protonated)
Cc1ccc(NS(=O)(=O)c2cccc(S(=O)(=O)[N-]c3ccccc3[O-])c2)cc1 (3D coordinates assigned)
Cc1ccc(NS(=O)(=O)c2cccc(S(=O)(=O)[N-]c3ccccc3[O-])c2)cc1 (optimized conformer: 51.83123415523671 kcal/mol)

>  <smiles>  (5) 
Cc1ccc(NS(=O)(=O)c2cccc(S(=O)(=O)Nc3ccccc3O)c2)cc1

>  <score_type>  (5) 
oracle

>  <origin>  (5) 
adgpu

>  <m_score__min__energy>  (5) 
-14.6

>  <m_primary>  (5) 
energy

$$$$
5:0
     RDKit          3D

 54 56  0  0  0  0  0  0  0  0999 V2000
   -1.5880   25.6330  -29.3320 N   0  0  0  0  0  0  0  0  0  0  0  0
   -0.9190   24.7250  -28.4540 C   0  0  0  0  0  0  0  0  0  0  0  0
    0.3270   24.5600  -28.5480 O   0  0  0  0  0  0  0  0  0  0  0  0
   -1.6910   23.9730  -27.4160 C   0  0  0  0  0  0  0  0  0  0  0  0
   -3.0370   23.6920  -27.8980 N   0  0  0  0  0  0  0  0  0  0  0  0
   -3.4170   22.4450  -28.4970 C   0  0  0  0  0  0  0  0  0  0  0  0
   -3.1380   21.3560  -27.9200 O   0  0  0  0  0  0  0  0  0  0  0  0
   -4.1730   22.4690  -29.8020 C   0  0  2  0  0  0  0  0  0  0  0  0
   -3.9500   21.2080  -30.6650 C   0  0  0  0  0  0  0  0  0  0  0  0
   -2.7670   21.2800  -31.6010 C   0  0  0  0  0  0  0  0  0  0  0  0
   -2.9450   21.1200  -32.9880 C   0  0  0  0  0  0  0  0  0  0  0  0
   -1.8480   21.1820  -33.8520 C   0  0  0  0  0  0  0  0  0  0  0  0
   -0.5650   21.4020  -33.3430 C   0  0  0  0  0  0  0  0  0  0  0  0
    0.5240   21.4680  -34.2040 O   0  0  0  0  0  0  0  0  0  0  0  0
   -0.3770   21.5480  -31.9640 C   0  0  0  0  0  0  0  0  0  0  0  0
   -1.4710   21.4810  -31.0960 C   0  0  0  0  0  0  0  0  0  0  0  0
   -3.9980   23.7130  -30.5640 N   0  0  0  0  0  0  0  0  0  0  0  0
   -4.7960   24.9060  -30.5340 C   0  0  0  0  0  0  0  0  0  0  0  0
   -4.2610   26.0450  -30.4950 O   0  0  0  0  0  0  0  0  0  0  0  0
   -6.2880   24.7810  -30.6060 C   0  0  0  0  0  0  0  0  0  0  0  0
   -6.7020   24.1840  -31.8370 O   0  0  0  0  0  0  0  0  0  0  0  0
   -7.3670   22.9530  -31.9700 C   0  0  0  0  0  0  0  0  0  0  0  0
   -8.7360   22.9130  -31.6880 C   0  0  0  0  0  0  0  0  0  0  0  0
   -9.4550   21.7210  -31.8140 C   0  0  0  0  0  0  0  0  0  0  0  0
   -8.8100   20.5540  -32.2260 C   0  0  0  0  0  0  0  0  0  0  0  0
   -7.4310   20.5670  -32.5060 C   0  0  0  0  0  0  0  0  0  0  0  0
   -6.7460   19.3310  -32.9520 C   0  0  0  0  0  0  0  0  0  0  0  0
   -6.0900   19.2910  -34.1960 C   0  0  0  0  0  0  0  0  0  0  0  0
   -5.4130   18.1370  -34.6010 C   0  0  0  0  0  0  0  0  0  0  0  0
   -5.3830   17.0120  -33.7730 C   0  0  0  0  0  0  0  0  0  0  0  0
   -6.0400   17.0370  -32.5410 C   0  0  0  0  0  0  0  0  0  0  0  0
   -6.7190   18.1900  -32.1280 C   0  0  0  0  0  0  0  0  0  0  0  0
   -6.7140   21.7710  -32.3750 C   0  0  0  0  0  0  0  0  0  0  0  0
   -2.3560   25.3020  -29.9600 H   0  0  0  0  0  0  0  0  0  0  0  0
   -1.1779   23.0250  -27.1968 H   0  0  0  0  0  0  0  0  0  0  0  0
   -1.7559   24.5836  -26.5033 H   0  0  0  0  0  0  0  0  0  0  0  0
   -5.2327   22.4494  -29.5078 H   0  0  0  0  0  0  0  0  0  0  0  0
   -3.7995   20.3534  -29.9890 H   0  0  0  0  0  0  0  0  0  0  0  0
   -4.8416   21.1076  -31.3013 H   0  0  0  0  0  0  0  0  0  0  0  0
   -3.9523   20.9453  -33.3940 H   0  0  0  0  0  0  0  0  0  0  0  0
   -1.9948   21.0574  -34.9350 H   0  0  0  0  0  0  0  0  0  0  0  0
    0.6332   21.7158  -31.5623 H   0  0  0  0  0  0  0  0  0  0  0  0
   -1.3165   21.5862  -30.0120 H   0  0  0  0  0  0  0  0  0  0  0  0
   -6.6356   24.1559  -29.7703 H   0  0  0  0  0  0  0  0  0  0  0  0
   -6.7234   25.7894  -30.5463 H   0  0  0  0  0  0  0  0  0  0  0  0
   -9.2522   23.8287  -31.3638 H   0  0  0  0  0  0  0  0  0  0  0  0
  -10.5314   21.7027  -31.5880 H   0  0  0  0  0  0  0  0  0  0  0  0
   -9.3818   19.6203  -32.3323 H   0  0  0  0  0  0  0  0  0  0  0  0
   -6.1100   20.1726  -34.8535 H   0  0  0  0  0  0  0  0  0  0  0  0
   -4.9021   18.1145  -35.5749 H   0  0  0  0  0  0  0  0  0  0  0  0
   -4.8428   16.1081  -34.0910 H   0  0  0  0  0  0  0  0  0  0  0  0
   -6.0241   16.1483  -31.8930 H   0  0  0  0  0  0  0  0  0  0  0  0
   -7.2333   18.2041  -31.1558 H   0  0  0  0  0  0  0  0  0  0  0  0
   -5.6355   21.7899  -32.5903 H   0  0  0  0  0  0  0  0  0  0  0  0
  1  2  1  0
  2  3  2  0
  2  4  1  0
  4  5  1  0
  5  6  1  0
  6  7  2  0
  6  8  1  0
  8  9  1  0
  9 10  1  0
 10 11  2  0
 11 12  1  0
 12 13  2  0
 13 14  1  0
 13 15  1  0
 15 16  2  0
  8 17  1  0
 17 18  1  0
 18 19  2  0
 18 20  1  0
 20 21  1  0
 21 22  1  0
 22 23  2  0
 23 24  1  0
 24 25  2  0
 25 26  1  0
 26 27  1  0
 27 28  2  0
 28 29  1  0
 29 30  2  0
 30 31  1  0
 31 32  2  0
 26 33  2  0
 16 10  1  0
 33 22  1  0
 32 27  1  0
  1 34  1  0
  4 35  1  0
  4 36  1  0
  8 37  1  1
  9 38  1  0
  9 39  1  0
 11 40  1  0
 12 41  1  0
 15 42  1  0
 16 43  1  0
 20 44  1  0
 20 45  1  0
 23 46  1  0
 24 47  1  0
 25 48  1  0
 28 49  1  0
 29 50  1  0
 30 51  1  0
 31 52  1  0
 32 53  1  0
 33 54  1  0
M  CHG  4   1  -1   5  -1  14  -1  17  -1
M  END
>  <UniqueID>  (6) 
6

>  <SMILES>  (6) 
[NH-]C(=O)C[N-]C(=O)[C@H](Cc1ccc([O-])cc1)[N-]C(=O)COc1cccc(-c2ccccc2)c1

>  <Energy>  (6) 
55.78966531381815

>  <Genealogy>  (6) 
[NH-]C(=O)C[N-]C(=O)C(Cc1ccc([O-])cc1)[N-]C(=O)COc1cccc(-c2ccccc2)c1 (protonated)
[NH-]C(=O)C[N-]C(=O)[C@H](Cc1ccc([O-])cc1)[N-]C(=O)COc1cccc(-c2ccccc2)c1 (chirality)
[NH-]C(=O)C[N-]C(=O)[C@H](Cc1ccc([O-])cc1)[N-]C(=O)COc1cccc(-c2ccccc2)c1 (3D coordinates assigned)
[NH-]C(=O)C[N-]C(=O)[C@H](Cc1ccc([O-])cc1)[N-]C(=O)COc1cccc(-c2ccccc2)c1 (optimized conformer: 55.78966531381815 kcal/mol)

>  <smiles>  (6) 
NC(=O)CNC(=O)C(Cc1ccc(O)cc1)NC(=O)COc1cccc(-c2ccccc2)c1

>  <score_type>  (6) 
oracle

>  <origin>  (6) 
adgpu

>  <m_score__min__energy>  (6) 
-14.039999999999999

>  <m_primary>  (6) 
energy

$$$$
6:0
     RDKit          3D

 61 64  0  0  0  0  0  0  0  0999 V2000
    0.6640   16.6380  -30.6140 C   0  0  0  0  0  0  0  0  0  0  0  0
    0.3350   17.2400  -31.8620 O   0  0  0  0  0  0  0  0  0  0  0  0
   -0.4700   18.3810  -32.0140 C   0  0  0  0  0  0  0  0  0  0  0  0
   -0.1170   19.6090  -31.4210 C   0  0  0  0  0  0  0  0  0  0  0  0
   -0.9050   20.7420  -31.6130 C   0  0  0  0  0  0  0  0  0  0  0  0
   -2.0550   20.6830  -32.4140 C   0  0  0  0  0  0  0  0  0  0  0  0
   -2.9000   21.8850  -32.6150 C   0  0  0  0  0  0  0  0  0  0  0  0
   -3.3730   22.1420  -33.7570 O   0  0  0  0  0  0  0  0  0  0  0  0
   -3.2210   22.7280  -31.5010 N   0  0  0  0  0  0  0  0  0  0  0  0
   -4.5210   23.2380  -31.1680 C   0  0  0  0  0  0  0  0  0  0  0  0
   -5.6910   22.4960  -31.4150 C   0  0  0  0  0  0  0  0  0  0  0  0
   -6.9510   23.0470  -31.1400 C   0  0  0  0  0  0  0  0  0  0  0  0
   -8.4220   22.1280  -31.4600 S   0  0  0  0  0  0  0  0  0  0  0  0
   -9.5050   23.0760  -31.9030 O   0  0  0  0  0  0  0  0  0  0  0  0
   -8.8470   21.4510  -30.1860 O   0  0  0  0  0  0  0  0  0  0  0  0
   -8.1250   20.9310  -32.7070 N   0  0  0  0  0  0  0  0  0  0  0  0
   -9.2800   20.0200  -32.8860 C   0  0  0  0  0  0  0  0  0  0  0  0
   -9.0780   18.6560  -32.2020 C   0  0  0  0  0  0  0  0  0  0  0  0
   -8.3390   18.8180  -31.0110 O   0  0  0  0  0  0  0  0  0  0  0  0
   -6.9980   19.1760  -31.3080 C   0  0  0  0  0  0  0  0  0  0  0  0
   -6.8690   20.1980  -32.4650 C   0  0  0  0  0  0  0  0  0  0  0  0
   -7.0390   24.3310  -30.5910 C   0  0  0  0  0  0  0  0  0  0  0  0
   -5.8810   25.0780  -30.3570 C   0  0  0  0  0  0  0  0  0  0  0  0
   -4.6260   24.5380  -30.6550 C   0  0  0  0  0  0  0  0  0  0  0  0
   -3.4820   25.3000  -30.4350 O   0  0  0  0  0  0  0  0  0  0  0  0
   -2.4070   19.4600  -33.0120 C   0  0  0  0  0  0  0  0  0  0  0  0
   -1.6500   18.2990  -32.7920 C   0  0  0  0  0  0  0  0  0  0  0  0
   -2.1560   16.7640  -33.5500 S   0  0  0  0  0  0  0  0  0  0  0  0
   -1.9070   15.6220  -32.5990 O   0  0  0  0  0  0  0  0  0  0  0  0
   -1.3170   16.5380  -34.7830 O   0  0  0  0  0  0  0  0  0  0  0  0
   -3.8590   16.7050  -33.9600 N   0  0  0  0  0  0  0  0  0  0  0  0
   -4.2370   17.7290  -34.9560 C   0  0  0  0  0  0  0  0  0  0  0  0
   -5.7400   18.0570  -34.8820 C   0  0  0  0  0  0  0  0  0  0  0  0
   -6.4670   16.9000  -34.5120 O   0  0  0  0  0  0  0  0  0  0  0  0
   -6.1890   16.5390  -33.1660 C   0  0  0  0  0  0  0  0  0  0  0  0
   -4.7090   16.7360  -32.7620 C   0  0  0  0  0  0  0  0  0  0  0  0
    0.3129   17.2805  -29.7931 H   0  0  0  0  0  0  0  0  0  0  0  0
    0.1785   15.6535  -30.5425 H   0  0  0  0  0  0  0  0  0  0  0  0
    1.7548   16.5150  -30.5425 H   0  0  0  0  0  0  0  0  0  0  0  0
    0.7891   19.6741  -30.8007 H   0  0  0  0  0  0  0  0  0  0  0  0
   -0.6230   21.6905  -31.1325 H   0  0  0  0  0  0  0  0  0  0  0  0
   -5.6168   21.4784  -31.8260 H   0  0  0  0  0  0  0  0  0  0  0  0
  -10.1738   20.4981  -32.4587 H   0  0  0  0  0  0  0  0  0  0  0  0
   -9.3910   19.8354  -33.9647 H   0  0  0  0  0  0  0  0  0  0  0  0
  -10.0590   18.2184  -31.9653 H   0  0  0  0  0  0  0  0  0  0  0  0
   -8.5263   17.9896  -32.8814 H   0  0  0  0  0  0  0  0  0  0  0  0
   -6.5473   19.6143  -30.4054 H   0  0  0  0  0  0  0  0  0  0  0  0
   -6.4837   18.2585  -31.6301 H   0  0  0  0  0  0  0  0  0  0  0  0
   -6.0804   20.9217  -32.2114 H   0  0  0  0  0  0  0  0  0  0  0  0
   -6.6232   19.6402  -33.3807 H   0  0  0  0  0  0  0  0  0  0  0  0
   -8.0234   24.7543  -30.3426 H   0  0  0  0  0  0  0  0  0  0  0  0
   -5.9570   26.0922  -29.9378 H   0  0  0  0  0  0  0  0  0  0  0  0
   -3.2917   19.4125  -33.6640 H   0  0  0  0  0  0  0  0  0  0  0  0
   -3.6607   18.6459  -34.7631 H   0  0  0  0  0  0  0  0  0  0  0  0
   -4.0178   17.3340  -35.9590 H   0  0  0  0  0  0  0  0  0  0  0  0
   -5.9048   18.8463  -34.1338 H   0  0  0  0  0  0  0  0  0  0  0  0
   -6.0848   18.4020  -35.8679 H   0  0  0  0  0  0  0  0  0  0  0  0
   -6.8146   17.1564  -32.5046 H   0  0  0  0  0  0  0  0  0  0  0  0
   -6.4082   15.4654  -33.0695 H   0  0  0  0  0  0  0  0  0  0  0  0
   -4.5941   17.7067  -32.2574 H   0  0  0  0  0  0  0  0  0  0  0  0
   -4.4071   15.9268  -32.0808 H   0  0  0  0  0  0  0  0  0  0  0  0
  1  2  1  0
  2  3  1  0
  3  4  2  0
  4  5  1  0
  5  6  2  0
  6  7  1  0
  7  8  2  0
  7  9  1  0
  9 10  1  0
 10 11  2  0
 11 12  1  0
 12 13  1  0
 13 14  2  0
 13 15  2  0
 13 16  1  0
 16 17  1  0
 17 18  1  0
 18 19  1  0
 19 20  1  0
 20 21  1  0
 12 22  2  0
 22 23  1  0
 23 24  2  0
 24 25  1  0
  6 26  1  0
 26 27  2  0
 27 28  1  0
 28 29  2  0
 28 30  2  0
 28 31  1  0
 31 32  1  0
 32 33  1  0
 33 34  1  0
 34 35  1  0
 35 36  1  0
 27  3  1  0
 36 31  1  0
 24 10  1  0
 21 16  1  0
  1 37  1  0
  1 38  1  0
  1 39  1  0
  4 40  1  0
  5 41  1  0
 11 42  1  0
 17 43  1  0
 17 44  1  0
 18 45  1  0
 18 46  1  0
 20 47  1  0
 20 48  1  0
 21 49  1  0
 21 50  1  0
 22 51  1  0
 23 52  1  0
 26 53  1  0
 32 54  1  0
 32 55  1  0
 33 56  1  0
 33 57  1  0
 35 58  1  0
 35 59  1  0
 36 60  1  0
 36 61  1  0
M  CHG  2   9  -1  25  -1
M  END
>  <UniqueID>  (7) 
7

>  <SMILES>  (7) 
COc1ccc(C(=O)[N-]c2cc(S(=O)(=O)N3CCOCC3)ccc2[O-])cc1S(=O)(=O)N1CCOCC1

>  <Energy>  (7) 
90.65869033306677

>  <Genealogy>  (7) 
COc1ccc(C(=O)[N-]c2cc(S(=O)(=O)N3CCOCC3)ccc2[O-])cc1S(=O)(=O)N1CCOCC1 (protonated)
COc1ccc(C(=O)[N-]c2cc(S(=O)(=O)N3CCOCC3)ccc2[O-])cc1S(=O)(=O)N1CCOCC1 (3D coordinates assigned)
COc1ccc(C(=O)[N-]c2cc(S(=O)(=O)N3CCOCC3)ccc2[O-])cc1S(=O)(=O)N1CCOCC1 (nonaromatic ring conformer: 90.65869033306677 kcal/mol)

>  <smiles>  (7) 
COc1ccc(C(=O)Nc2cc(S(=O)(=O)N3CCOCC3)ccc2O)cc1S(=O)(=O)N1CCOCC1

>  <score_type>  (7) 
oracle

>  <origin>  (7) 
adgpu

>  <m_score__min__energy>  (7) 
-14.609999999999999

>  <m_primary>  (7) 
energy

$$$$
7:0
     RDKit          3D

 61 64  0  0  0  0  0  0  0  0999 V2000
    0.1740   23.0470  -25.2270 C   0  0  0  0  0  0  0  0  0  0  0  0
   -0.8050   21.9840  -25.6980 C   0  0  0  0  0  0  0  0  0  0  0  0
   -0.2510   21.2850  -26.8080 O   0  0  0  0  0  0  0  0  0  0  0  0
   -0.9200   21.0680  -28.0230 C   0  0  0  0  0  0  0  0  0  0  0  0
   -2.2990   20.8420  -27.9910 C   0  0  0  0  0  0  0  0  0  0  0  0
   -3.0120   20.6180  -29.1710 C   0  0  0  0  0  0  0  0  0  0  0  0
   -2.3510   20.6190  -30.4140 C   0  0  0  0  0  0  0  0  0  0  0  0
   -3.0450   20.3680  -31.6490 N   0  0  0  0  0  0  0  0  0  0  0  0
   -4.2160   21.4450  -32.3440 S   0  0  0  0  0  0  0  0  0  0  0  0
   -3.6830   21.9390  -33.6610 O   0  0  0  0  0  0  0  0  0  0  0  0
   -5.4930   20.6990  -32.6030 O   0  0  0  0  0  0  0  0  0  0  0  0
   -4.5480   22.8040  -31.2600 C   0  0  0  0  0  0  0  0  0  0  0  0
   -3.4620   23.5290  -30.7420 C   0  0  0  0  0  0  0  0  0  0  0  0
   -3.6620   24.6030  -29.8700 C   0  0  0  0  0  0  0  0  0  0  0  0
   -2.5170   25.2920  -29.3450 N   0  0  0  0  0  0  0  0  0  0  0  0
   -1.7880   24.9430  -28.1620 C   0  0  0  0  0  0  0  0  0  0  0  0
   -0.5310   25.0080  -28.1840 O   0  0  0  0  0  0  0  0  0  0  0  0
   -2.4910   24.6540  -26.8940 C   0  0  0  0  0  0  0  0  0  0  0  0
   -2.3710   25.3670  -25.7650 C   0  0  0  0  0  0  0  0  0  0  0  0
   -1.3570   26.4100  -25.5150 C   0  0  0  0  0  0  0  0  0  0  0  0
   -0.5160   26.4390  -24.4100 C   0  0  0  0  0  0  0  0  0  0  0  0
    0.4480   27.4520  -24.4700 C   0  0  0  0  0  0  0  0  0  0  0  0
    0.3920   28.2080  -25.6330 C   0  0  0  0  0  0  0  0  0  0  0  0
   -0.8540   27.6090  -26.5890 S   0  0  0  0  0  0  0  0  0  0  0  0
   -4.9650   24.9350  -29.4750 C   0  0  0  0  0  0  0  0  0  0  0  0
   -6.0540   24.2290  -29.9860 C   0  0  0  0  0  0  0  0  0  0  0  0
   -5.8640   23.1670  -30.8830 C   0  0  0  0  0  0  0  0  0  0  0  0
   -7.0200   22.4850  -31.4000 N   0  0  0  0  0  0  0  0  0  0  0  0
   -7.8870   23.1500  -32.3820 C   0  0  0  0  0  0  0  0  0  0  0  0
   -9.3890   22.9130  -32.0820 C   0  0  0  0  0  0  0  0  0  0  0  0
   -9.6430   21.9340  -31.0880 O   0  0  0  0  0  0  0  0  0  0  0  0
   -8.8100   20.8110  -31.2740 C   0  0  0  0  0  0  0  0  0  0  0  0
   -7.3930   21.1770  -30.8480 C   0  0  0  0  0  0  0  0  0  0  0  0
   -0.9660   20.8450  -30.4440 C   0  0  0  0  0  0  0  0  0  0  0  0
   -0.2550   21.0690  -29.2610 C   0  0  0  0  0  0  0  0  0  0  0  0
    0.1925   23.0670  -24.1273 H   0  0  0  0  0  0  0  0  0  0  0  0
    1.1797   22.8132  -25.6064 H   0  0  0  0  0  0  0  0  0  0  0  0
   -0.1416   24.0301  -25.6064 H   0  0  0  0  0  0  0  0  0  0  0  0
   -0.9991   21.2759  -24.8789 H   0  0  0  0  0  0  0  0  0  0  0  0
   -1.7478   22.4630  -26.0006 H   0  0  0  0  0  0  0  0  0  0  0  0
   -2.8281   20.8405  -27.0266 H   0  0  0  0  0  0  0  0  0  0  0  0
   -4.0966   20.4397  -29.1288 H   0  0  0  0  0  0  0  0  0  0  0  0
   -2.8180   19.5040  -32.1900 H   0  0  0  0  0  0  0  0  0  0  0  0
   -2.4377   23.2470  -31.0272 H   0  0  0  0  0  0  0  0  0  0  0  0
   -3.1658   23.7855  -26.8754 H   0  0  0  0  0  0  0  0  0  0  0  0
   -3.0881   25.1572  -24.9576 H   0  0  0  0  0  0  0  0  0  0  0  0
   -0.5994   25.7344  -23.5694 H   0  0  0  0  0  0  0  0  0  0  0  0
    1.1815   27.6323  -23.6703 H   0  0  0  0  0  0  0  0  0  0  0  0
    1.0495   29.0530  -25.8853 H   0  0  0  0  0  0  0  0  0  0  0  0
   -5.1293   25.7546  -28.7600 H   0  0  0  0  0  0  0  0  0  0  0  0
   -7.0737   24.5081  -29.6822 H   0  0  0  0  0  0  0  0  0  0  0  0
   -7.6862   24.2313  -32.3589 H   0  0  0  0  0  0  0  0  0  0  0  0
   -7.6666   22.7264  -33.3730 H   0  0  0  0  0  0  0  0  0  0  0  0
   -9.8267   23.8648  -31.7465 H   0  0  0  0  0  0  0  0  0  0  0  0
   -9.8384   22.5373  -33.0131 H   0  0  0  0  0  0  0  0  0  0  0  0
   -9.1758   19.9735  -30.6618 H   0  0  0  0  0  0  0  0  0  0  0  0
   -8.8172   20.5105  -32.3321 H   0  0  0  0  0  0  0  0  0  0  0  0
   -7.3429   21.2183  -29.7499 H   0  0  0  0  0  0  0  0  0  0  0  0
   -6.6960   20.4152  -31.2272 H   0  0  0  0  0  0  0  0  0  0  0  0
   -0.4349   20.8459  -31.4073 H   0  0  0  0  0  0  0  0  0  0  0  0
    0.8298   21.2468  -29.2996 H   0  0  0  0  0  0  0  0  0  0  0  0
  1  2  1  0
  2  3  1  0
  3  4  1  0
  4  5  2  0
  5  6  1  0
  6  7  2  0
  7  8  1  0
  8  9  1  0
  9 10  2  0
  9 11  2  0
  9 12  1  0
 12 13  2  0
 13 14  1  0
 14 15  1  0
 15 16  1  0
 16 17  2  0
 16 18  1  0
 18 19  2  3
 19 20  1  0
 20 21  2  0
 21 22  1  0
 22 23  2  0
 23 24  1  0
 14 25  2  0
 25 26  1  0
 26 27  2  0
 27 28  1  0
 28 29  1  0
 29 30  1  0
 30 31  1  0
 31 32  1  0
 32 33  1  0
  7 34  1  0
 34 35  2  0
 35  4  1  0
 27 12  1  0
 33 28  1  0
 24 20  1  0
  1 36  1  0
  1 37  1  0
  1 38  1  0
  2 39  1  0
  2 40  1  0
  5 41  1  0
  6 42  1  0
  8 43  1  0
 13 44  1  0
 18 45  1  0
 19 46  1  0
 21 47  1  0
 22 48  1  0
 23 49  1  0
 25 50  1  0
 26 51  1  0
 29 52  1  0
 29 53  1  0
 30 54  1  0
 30 55  1  0
 32 56  1  0
 32 57  1  0
 33 58  1  0
 33 59  1  0
 34 60  1  0
 35 61  1  0
M  CHG  1  15  -1
M  END
>  <UniqueID>  (8) 
8

>  <SMILES>  (8) 
CCOc1ccc(NS(=O)(=O)c2cc([N-]C(=O)C=Cc3cccs3)ccc2N2CCOCC2)cc1

>  <Energy>  (8) 
111.42760963110806

>  <Genealogy>  (8) 
CCOc1ccc(NS(=O)(=O)c2cc([N-]C(=O)C=Cc3cccs3)ccc2N2CCOCC2)cc1 (protonated)
CCOc1ccc(NS(=O)(=O)c2cc([N-]C(=O)C=Cc3cccs3)ccc2N2CCOCC2)cc1 (3D coordinates assigned)
CCOc1ccc(NS(=O)(=O)c2cc([N-]C(=O)C=Cc3cccs3)ccc2N2CCOCC2)cc1 (nonaromatic ring conformer: 111.42760963110806 kcal/mol)

>  <smiles>  (8) 
CCOc1ccc(NS(=O)(=O)c2cc(NC(=O)C=Cc3cccs3)ccc2N2CCOCC2)cc1

>  <score_type>  (8) 
oracle

>  <origin>  (8) 
adgpu

>  <m_score__min__energy>  (8) 
-10.49

>  <m_primary>  (8) 
energy

$$$$
8:0
     RDKit          3D

 40 42  0  0  0  0  0  0  0  0999 V2000
    4.0740   15.2450  -28.3470 N   0  0  0  0  0  0  0  0  0  0  0  0
    4.6450   15.8080  -27.1220 C   0  0  0  0  0  0  0  0  0  0  0  0
    3.5870   16.0330  -26.0270 C   0  0  0  0  0  0  0  0  0  0  0  0
    2.3090   15.2060  -26.2330 C   0  0  0  0  0  0  0  0  0  0  0  0
    1.7090   15.4740  -27.5010 O   0  0  0  0  0  0  0  0  0  0  0  0
    1.0580   16.6640  -27.8660 C   0  0  0  0  0  0  0  0  0  0  0  0
    1.5780   17.3910  -28.9430 C   0  0  0  0  0  0  0  0  0  0  0  0
    0.9790   18.5840  -29.3540 C   0  0  0  0  0  0  0  0  0  0  0  0
   -0.1540   19.0660  -28.6940 C   0  0  0  0  0  0  0  0  0  0  0  0
   -0.7140   20.2030  -29.0930 O   0  0  0  0  0  0  0  0  0  0  0  0
   -1.7920   20.7280  -28.5130 C   0  0  0  0  0  0  0  0  0  0  0  0
   -2.3360   22.0050  -29.0400 C   0  0  0  0  0  0  0  0  0  0  0  0
   -3.5780   22.0640  -29.7020 C   0  0  0  0  0  0  0  0  0  0  0  0
   -4.0680   23.2830  -30.1780 C   0  0  0  0  0  0  0  0  0  0  0  0
   -3.3360   24.4580  -29.9970 C   0  0  0  0  0  0  0  0  0  0  0  0
   -3.8390   25.6610  -30.4790 O   0  0  0  0  0  0  0  0  0  0  0  0
   -2.1020   24.4170  -29.3280 C   0  0  0  0  0  0  0  0  0  0  0  0
   -1.3500   25.5750  -29.1310 O   0  0  0  0  0  0  0  0  0  0  0  0
   -1.6110   23.1970  -28.8510 C   0  0  0  0  0  0  0  0  0  0  0  0
   -2.3930   20.0570  -27.4320 C   0  0  0  0  0  0  0  0  0  0  0  0
   -1.8410   18.8590  -26.9780 C   0  0  0  0  0  0  0  0  0  0  0  0
   -2.3770   18.2540  -26.0100 O   0  0  0  0  0  0  0  0  0  0  0  0
   -0.6970   18.3440  -27.6090 C   0  0  0  0  0  0  0  0  0  0  0  0
   -0.0890   17.1410  -27.2010 C   0  0  0  0  0  0  0  0  0  0  0  0
    3.5280   14.3840  -28.1120 H   0  0  0  0  0  0  0  0  0  0  0  0
    3.4220   15.9410  -28.7720 H   0  0  0  0  0  0  0  0  0  0  0  0
    5.4082   15.1152  -26.7379 H   0  0  0  0  0  0  0  0  0  0  0  0
    5.0776   16.7873  -27.3746 H   0  0  0  0  0  0  0  0  0  0  0  0
    4.0264   15.7595  -25.0564 H   0  0  0  0  0  0  0  0  0  0  0  0
    3.2974   17.0934  -26.0689 H   0  0  0  0  0  0  0  0  0  0  0  0
    2.5624   14.1371  -26.1766 H   0  0  0  0  0  0  0  0  0  0  0  0
    1.5904   15.4810  -25.4469 H   0  0  0  0  0  0  0  0  0  0  0  0
    2.4680   17.0188  -29.4715 H   0  0  0  0  0  0  0  0  0  0  0  0
    1.4009   19.1460  -30.2003 H   0  0  0  0  0  0  0  0  0  0  0  0
   -4.1656   21.1451  -29.8451 H   0  0  0  0  0  0  0  0  0  0  0  0
   -5.0364   23.3170  -30.6985 H   0  0  0  0  0  0  0  0  0  0  0  0
   -1.7140   26.4960  -29.3450 H   0  0  0  0  0  0  0  0  0  0  0  0
   -0.6470   23.1687  -28.3220 H   0  0  0  0  0  0  0  0  0  0  0  0
   -3.2896   20.4732  -26.9495 H   0  0  0  0  0  0  0  0  0  0  0  0
   -0.5112   16.5715  -26.3599 H   0  0  0  0  0  0  0  0  0  0  0  0
  1  2  1  0
  2  3  1  0
  3  4  1  0
  4  5  1  0
  5  6  1  0
  6  7  2  0
  7  8  1  0
  8  9  2  0
  9 10  1  0
 10 11  1  0
 11 12  1  0
 12 13  2  0
 13 14  1  0
 14 15  2  0
 15 16  1  0
 15 17  1  0
 17 18  1  0
 17 19  2  0
 11 20  2  0
 20 21  1  0
 21 22  2  0
 21 23  1  0
 23 24  2  0
 24  6  1  0
 23  9  1  0
 19 12  1  0
  1 25  1  0
  1 26  1  0
  2 27  1  0
  2 28  1  0
  3 29  1  0
  3 30  1  0
  4 31  1  0
  4 32  1  0
  7 33  1  0
  8 34  1  0
 13 35  1  0
 14 36  1  0
 18 37  1  0
 19 38  1  0
 20 39  1  0
 24 40  1  0
M  CHG  1  16  -1
M  END
>  <UniqueID>  (9) 
9

>  <SMILES>  (9) 
NCCCOc1ccc2oc(-c3ccc([O-])c(O)c3)cc(=O)c2c1

>  <Energy>  (9) 
48.29694034499223

>  <Genealogy>  (9) 
NCCCOc1ccc2oc(-c3ccc([O-])c(O)c3)cc(=O)c2c1 (protonated)
NCCCOc1ccc2oc(-c3ccc([O-])c(O)c3)cc(=O)c2c1 (3D coordinates assigned)
NCCCOc1ccc2oc(-c3ccc([O-])c(O)c3)cc(=O)c2c1 (optimized conformer: 48.29694034499223 kcal/mol)

>  <smiles>  (9) 
NCCCOc1ccc2oc(-c3ccc(O)c(O)c3)cc(=O)c2c1

>  <score_type>  (9) 
oracle

>  <origin>  (9) 
adgpu

>  <m_score__min__energy>  (9) 
-9.8100000000000005

>  <m_primary>  (9) 
energy

$$$$
9:0
     RDKit          3D

 45 48  0  0  0  0  0  0  0  0999 V2000
    0.1950   25.5190  -28.2150 O   0  0  0  0  0  0  0  0  0  0  0  0
   -0.8100   24.9330  -28.6960 C   0  0  0  0  0  0  0  0  0  0  0  0
   -0.7810   23.6270  -29.0650 N   0  0  0  0  0  0  0  0  0  0  0  0
   -2.0330   23.4340  -29.5070 C   0  0  0  0  0  0  0  0  0  0  0  0
   -2.5850   22.2600  -30.0120 C   0  0  0  0  0  0  0  0  0  0  0  0
   -3.9340   22.2920  -30.4140 C   0  0  0  0  0  0  0  0  0  0  0  0
   -4.6900   23.4850  -30.3000 C   0  0  0  0  0  0  0  0  0  0  0  0
   -6.3800   23.5150  -30.7900 S   0  0  0  0  0  0  0  0  0  0  0  0
   -7.2080   22.8900  -29.7030 O   0  0  0  0  0  0  0  0  0  0  0  0
   -6.8470   24.9270  -31.0090 O   0  0  0  0  0  0  0  0  0  0  0  0
   -6.5900   22.6130  -32.2580 N   0  0  0  0  0  0  0  0  0  0  0  0
   -7.2970   21.3630  -32.3390 C   0  0  0  0  0  0  0  0  0  0  0  0
   -8.6830   21.2740  -32.1040 C   0  0  0  0  0  0  0  0  0  0  0  0
   -9.3370   20.0430  -32.1910 C   0  0  0  0  0  0  0  0  0  0  0  0
   -8.6210   18.8880  -32.5100 C   0  0  0  0  0  0  0  0  0  0  0  0
   -7.2430   18.9590  -32.7450 C   0  0  0  0  0  0  0  0  0  0  0  0
   -6.3170   17.5060  -33.1170 S   0  0  0  0  0  0  0  0  0  0  0  0
   -7.2130   16.5340  -33.8350 O   0  0  0  0  0  0  0  0  0  0  0  0
   -5.8340   16.8640  -31.8450 O   0  0  0  0  0  0  0  0  0  0  0  0
   -4.9560   17.9110  -34.1340 N   0  0  0  0  0  0  0  0  0  0  0  0
   -3.9180   18.5920  -33.3360 C   0  0  0  0  0  0  0  0  0  0  0  0
   -2.5500   18.4950  -34.0320 C   0  0  0  0  0  0  0  0  0  0  0  0
   -2.0930   17.1630  -34.2390 O   0  0  0  0  0  0  0  0  0  0  0  0
   -3.1330   16.1950  -34.2380 C   0  0  0  0  0  0  0  0  0  0  0  0
   -4.4480   16.7160  -34.8450 C   0  0  0  0  0  0  0  0  0  0  0  0
   -6.5850   20.1930  -32.6510 C   0  0  0  0  0  0  0  0  0  0  0  0
   -4.0900   24.6530  -29.7840 C   0  0  0  0  0  0  0  0  0  0  0  0
   -2.7550   24.5830  -29.3970 C   0  0  0  0  0  0  0  0  0  0  0  0
   -1.9980   25.5620  -28.8810 N   0  0  0  0  0  0  0  0  0  0  0  0
   -1.9882   21.3396  -30.0941 H   0  0  0  0  0  0  0  0  0  0  0  0
   -4.4045   21.3842  -30.8196 H   0  0  0  0  0  0  0  0  0  0  0  0
   -6.2420   23.0560  -33.1370 H   0  0  0  0  0  0  0  0  0  0  0  0
   -9.2537   22.1795  -31.8504 H   0  0  0  0  0  0  0  0  0  0  0  0
  -10.4200   19.9835  -32.0075 H   0  0  0  0  0  0  0  0  0  0  0  0
   -9.1404   17.9207  -32.5768 H   0  0  0  0  0  0  0  0  0  0  0  0
   -4.1895   19.6515  -33.2183 H   0  0  0  0  0  0  0  0  0  0  0  0
   -3.8507   18.1050  -32.3520 H   0  0  0  0  0  0  0  0  0  0  0  0
   -2.6256   18.9897  -35.0116 H   0  0  0  0  0  0  0  0  0  0  0  0
   -1.8213   18.9787  -33.3649 H   0  0  0  0  0  0  0  0  0  0  0  0
   -2.8000   15.3237  -34.8211 H   0  0  0  0  0  0  0  0  0  0  0  0
   -3.3376   15.9367  -33.1885 H   0  0  0  0  0  0  0  0  0  0  0  0
   -4.2725   16.9784  -35.8987 H   0  0  0  0  0  0  0  0  0  0  0  0
   -5.2022   15.9207  -34.7513 H   0  0  0  0  0  0  0  0  0  0  0  0
   -5.4999   20.2458  -32.8233 H   0  0  0  0  0  0  0  0  0  0  0  0
   -4.6594   25.5895  -29.6905 H   0  0  0  0  0  0  0  0  0  0  0  0
  1  2  2  0
  2  3  1  0
  3  4  1  0
  4  5  2  0
  5  6  1  0
  6  7  2  0
  7  8  1  0
  8  9  2  0
  8 10  2  0
  8 11  1  0
 11 12  1  0
 12 13  2  0
 13 14  1  0
 14 15  2  0
 15 16  1  0
 16 17  1  0
 17 18  2  0
 17 19  2  0
 17 20  1  0
 20 21  1  0
 21 22  1  0
 22 23  1  0
 23 24  1  0
 24 25  1  0
 16 26  2  0
  7 27  1  0
 27 28  2  0
 28 29  1  0
 29  2  1  0
 28  4  1  0
 26 12  1  0
 25 20  1  0
  5 30  1  0
  6 31  1  0
 11 32  1  0
 13 33  1  0
 14 34  1  0
 15 35  1  0
 21 36  1  0
 21 37  1  0
 22 38  1  0
 22 39  1  0
 24 40  1  0
 24 41  1  0
 25 42  1  0
 25 43  1  0
 26 44  1  0
 27 45  1  0
M  CHG  2   3  -1  29  -1
M  END
>  <UniqueID>  (10) 
10

>  <SMILES>  (10) 
O=c1[n-]c2ccc(S(=O)(=O)Nc3cccc(S(=O)(=O)N4CCOCC4)c3)cc2[n-]1

>  <Energy>  (10) 
98.40531014596857

>  <Genealogy>  (10) 
O=c1[n-]c2ccc(S(=O)(=O)Nc3cccc(S(=O)(=O)N4CCOCC4)c3)cc2[n-]1 (protonated)
O=c1[n-]c2ccc(S(=O)(=O)Nc3cccc(S(=O)(=O)N4CCOCC4)c3)cc2[n-]1 (3D coordinates assigned)
O=c1[n-]c2ccc(S(=O)(=O)Nc3cccc(S(=O)(=O)N4CCOCC4)c3)cc2[n-]1 (nonaromatic ring conformer: 98.40531014596857 kcal/mol)

>  <smiles>  (10) 
O=c1[nH]c2ccc(S(=O)(=O)Nc3cccc(S(=O)(=O)N4CCOCC4)c3)cc2[nH]1

>  <score_type>  (10) 
oracle

>  <origin>  (10) 
adgpu

>  <m_score__min__energy>  (10) 
-12.210000000000001

>  <m_primary>  (10) 
energy

$$$$
10:0
     RDKit          3D

 28 29  0  0  1  0  0  0  0  0999 V2000
   -4.1560   15.8360  -33.1970 N   0  0  0  0  0  0  0  0  0  0  0  0
   -4.9480   16.6470  -32.9740 C   0  0  0  0  0  0  0  0  0  0  0  0
   -5.9270   17.6660  -32.7160 C   0  0  0  0  0  0  0  0  0  0  0  0
   -6.3930   18.5280  -33.6840 C   0  0  0  0  0  0  0  0  0  0  0  0
   -7.3040   19.4840  -33.4680 N   0  0  0  0  0  0  0  0  0  0  0  0
   -7.8130   19.6350  -32.2390 C   0  0  0  0  0  0  0  0  0  0  0  0
   -8.8640   20.6180  -32.0820 C   0  0  0  0  0  0  0  0  0  0  0  0
   -8.7220   21.8880  -31.8820 C   0  0  0  0  0  0  0  0  0  0  0  0
   -7.5290   22.6690  -31.7800 C   0  0  0  0  0  0  0  0  0  0  0  0
   -6.3120   22.4860  -32.3580 C   0  0  0  0  0  0  0  0  0  0  0  0
   -5.1860   23.2630  -32.0610 C   0  0  0  0  0  0  0  0  0  0  0  0
   -5.2750   24.2800  -31.1410 C   0  0  0  0  0  0  0  0  0  0  0  0
   -4.1350   25.0180  -30.8820 O   0  0  0  0  0  0  0  0  0  0  0  0
   -6.4890   24.4900  -30.5480 C   0  0  0  0  0  0  0  0  0  0  0  0
   -7.5850   23.7260  -30.8420 C   0  0  0  0  0  0  0  0  0  0  0  0
   -7.3660   18.8030  -31.2970 N   0  0  0  0  0  0  0  0  0  0  0  0
   -6.4660   17.8360  -31.4480 C   0  0  0  0  0  0  0  0  0  0  0  0
   -6.1100   17.0930  -30.4660 N   0  0  0  0  0  0  0  0  0  0  0  0
   -5.9895   18.4236  -34.7020 H   0  0  0  0  0  0  0  0  0  0  0  0
   -7.5980   20.0960  -34.2760 H   0  0  0  0  0  0  0  0  0  0  0  0
   -9.8968   20.2438  -32.1391 H   0  0  0  0  0  0  0  0  0  0  0  0
   -9.6603   22.4519  -31.7742 H   0  0  0  0  0  0  0  0  0  0  0  0
   -6.2062   21.6819  -33.1011 H   0  0  0  0  0  0  0  0  0  0  0  0
   -4.2294   23.0594  -32.5644 H   0  0  0  0  0  0  0  0  0  0  0  0
   -3.8370   25.6690  -31.5930 H   0  0  0  0  0  0  0  0  0  0  0  0
   -6.5876   25.2999  -29.8102 H   0  0  0  0  0  0  0  0  0  0  0  0
   -8.5371   23.9399  -30.3343 H   0  0  0  0  0  0  0  0  0  0  0  0
   -5.3910   16.3380  -30.6370 H   0  0  0  0  0  0  0  0  0  0  0  0
  1  2  3  0
  2  3  1  0
  3  4  2  0
  4  5  1  0
  5  6  1  0
  6  7  1  0
  7  8  2  0
  8  9  1  0
  9 10  2  0
 10 11  1  0
 11 12  2  0
 12 13  1  0
 12 14  1  0
 14 15  2  0
  6 16  2  0
 16 17  1  0
 17 18  2  3
 17  3  1  0
 15  9  1  0
  4 19  1  0
  5 20  1  0
  7 21  1  0
  8 22  1  0
 10 23  1  0
 11 24  1  0
 13 25  1  0
 14 26  1  0
 15 27  1  0
 18 28  1  0
M  END
>  <smiles>  (11) 
N#Cc1c[nH]c(C=Cc2ccc(O)cc2)nc1=N

>  <score_type>  (11) 
oracle

>  <origin>  (11) 
adgpu

>  <m_score__min__energy>  (11) 
-8.5199999999999996

>  <m_primary>  (11) 
energy

$$$$
11:0
     RDKit          3D

 55 58  0  0  0  0  0  0  0  0999 V2000
   -9.5180   20.4290  -32.3420 C   0  0  0  0  0  0  0  0  0  0  0  0
   -8.0870   19.9960  -32.4820 C   0  0  0  0  0  0  0  0  0  0  0  0
   -7.7830   18.6470  -32.7290 C   0  0  0  0  0  0  0  0  0  0  0  0
   -6.4460   18.2270  -32.8340 C   0  0  0  0  0  0  0  0  0  0  0  0
   -6.1220   16.7800  -33.0730 C   0  0  0  0  0  0  0  0  0  0  0  0
   -5.4150   19.1580  -32.6460 C   0  0  0  0  0  0  0  0  0  0  0  0
   -5.7090   20.5060  -32.3880 C   0  0  0  0  0  0  0  0  0  0  0  0
   -4.3950   21.6620  -32.1660 S   0  0  0  0  0  0  0  0  0  0  0  0
   -4.0210   22.2460  -33.5010 O   0  0  0  0  0  0  0  0  0  0  0  0
   -3.1880   20.9570  -31.6110 O   0  0  0  0  0  0  0  0  0  0  0  0
   -4.9090   22.9920  -31.1090 C   0  0  0  0  0  0  0  0  0  0  0  0
   -5.9140   23.8510  -31.5840 C   0  0  0  0  0  0  0  0  0  0  0  0
   -6.3250   24.9530  -30.8330 C   0  0  0  0  0  0  0  0  0  0  0  0
   -5.7390   25.2130  -29.5950 C   0  0  0  0  0  0  0  0  0  0  0  0
   -4.7500   24.3620  -29.0980 C   0  0  0  0  0  0  0  0  0  0  0  0
   -4.3320   23.2400  -29.8350 C   0  0  0  0  0  0  0  0  0  0  0  0
   -3.3090   22.3570  -29.2320 C   0  0  0  0  0  0  0  0  0  0  0  0
   -3.6210   21.6130  -28.2640 O   0  0  0  0  0  0  0  0  0  0  0  0
   -1.9410   22.4010  -29.6570 N   0  0  0  0  0  0  0  0  0  0  0  0
   -0.8000   22.5620  -28.7990 C   0  0  0  0  0  0  0  0  0  0  0  0
   -0.0900   21.4450  -28.3190 C   0  0  0  0  0  0  0  0  0  0  0  0
    1.0100   21.6170  -27.4760 C   0  0  0  0  0  0  0  0  0  0  0  0
    1.4040   22.9000  -27.0930 C   0  0  0  0  0  0  0  0  0  0  0  0
    0.6910   24.0140  -27.5410 C   0  0  0  0  0  0  0  0  0  0  0  0
   -0.4190   23.8500  -28.3820 C   0  0  0  0  0  0  0  0  0  0  0  0
   -1.3240   25.3050  -28.9240 S   0  0  0  0  0  0  0  0  0  0  0  0
   -1.2550   26.0690  -27.3010 C   0  0  0  0  0  0  0  0  0  0  0  0
   -0.4730   27.2140  -27.0970 C   0  0  0  0  0  0  0  0  0  0  0  0
   -0.4370   27.8210  -25.8390 C   0  0  0  0  0  0  0  0  0  0  0  0
   -1.1760   27.2830  -24.7810 C   0  0  0  0  0  0  0  0  0  0  0  0
   -1.9510   26.1350  -24.9800 C   0  0  0  0  0  0  0  0  0  0  0  0
   -1.9860   25.5240  -26.2370 C   0  0  0  0  0  0  0  0  0  0  0  0
   -7.0460   20.9190  -32.3010 C   0  0  0  0  0  0  0  0  0  0  0  0
   -9.7749   20.5067  -31.2752 H   0  0  0  0  0  0  0  0  0  0  0  0
   -9.6536   21.4084  -32.8241 H   0  0  0  0  0  0  0  0  0  0  0  0
  -10.1738   19.6891  -32.8241 H   0  0  0  0  0  0  0  0  0  0  0  0
   -8.5964   17.9149  -32.8409 H   0  0  0  0  0  0  0  0  0  0  0  0
   -6.0068   16.2657  -32.1075 H   0  0  0  0  0  0  0  0  0  0  0  0
   -6.9374   16.3110  -33.6433 H   0  0  0  0  0  0  0  0  0  0  0  0
   -5.1845   16.7035  -33.6433 H   0  0  0  0  0  0  0  0  0  0  0  0
   -4.3667   18.8294  -32.7011 H   0  0  0  0  0  0  0  0  0  0  0  0
   -6.3824   23.6526  -32.5593 H   0  0  0  0  0  0  0  0  0  0  0  0
   -7.1124   25.6174  -31.2183 H   0  0  0  0  0  0  0  0  0  0  0  0
   -6.0559   26.0888  -29.0097 H   0  0  0  0  0  0  0  0  0  0  0  0
   -4.2931   24.5715  -28.1196 H   0  0  0  0  0  0  0  0  0  0  0  0
   -0.4034   20.4314  -28.6095 H   0  0  0  0  0  0  0  0  0  0  0  0
    1.5666   20.7402  -27.1134 H   0  0  0  0  0  0  0  0  0  0  0  0
    2.2772   23.0338  -26.4375 H   0  0  0  0  0  0  0  0  0  0  0  0
    1.0011   25.0235  -27.2332 H   0  0  0  0  0  0  0  0  0  0  0  0
    0.1126   27.6350  -27.9275 H   0  0  0  0  0  0  0  0  0  0  0  0
    0.1730   28.7226  -25.6809 H   0  0  0  0  0  0  0  0  0  0  0  0
   -1.1482   27.7625  -23.7914 H   0  0  0  0  0  0  0  0  0  0  0  0
   -2.5328   25.7132  -24.1472 H   0  0  0  0  0  0  0  0  0  0  0  0
   -2.5872   24.6157  -26.3907 H   0  0  0  0  0  0  0  0  0  0  0  0
   -7.2801   21.9728  -32.0896 H   0  0  0  0  0  0  0  0  0  0  0  0
  1  2  1  0
  2  3  2  0
  3  4  1  0
  4  5  1  0
  4  6  2  0
  6  7  1  0
  7  8  1  0
  8  9  2  0
  8 10  2  0
  8 11  1  0
 11 12  2  0
 12 13  1  0
 13 14  2  0
 14 15  1  0
 15 16  2  0
 16 17  1  0
 17 18  2  0
 17 19  1  0
 19 20  1  0
 20 21  2  0
 21 22  1  0
 22 23  2  0
 23 24  1  0
 24 25  2  0
 25 26  1  0
 26 27  1  0
 27 28  2  0
 28 29  1  0
 29 30  2  0
 30 31  1  0
 31 32  2  0
  7 33  2  0
 33  2  1  0
 16 11  1  0
 25 20  1  0
 32 27  1  0
  1 34  1  0
  1 35  1  0
  1 36  1  0
  3 37  1  0
  5 38  1  0
  5 39  1  0
  5 40  1  0
  6 41  1  0
 12 42  1  0
 13 43  1  0
 14 44  1  0
 15 45  1  0
 21 46  1  0
 22 47  1  0
 23 48  1  0
 24 49  1  0
 28 50  1  0
 29 51  1  0
 30 52  1  0
 31 53  1  0
 32 54  1  0
 33 55  1  0
M  CHG  1  19  -1
M  END
>  <UniqueID>  (12) 
11

>  <SMILES>  (12) 
Cc1cc(C)cc(S(=O)(=O)c2ccccc2C(=O)[N-]c2ccccc2Sc2ccccc2)c1

>  <Energy>  (12) 
66.56876605147163

>  <Genealogy>  (12) 
Cc1cc(C)cc(S(=O)(=O)c2ccccc2C(=O)[N-]c2ccccc2Sc2ccccc2)c1 (protonated)
Cc1cc(C)cc(S(=O)(=O)c2ccccc2C(=O)[N-]c2ccccc2Sc2ccccc2)c1 (3D coordinates assigned)
Cc1cc(C)cc(S(=O)(=O)c2ccccc2C(=O)[N-]c2ccccc2Sc2ccccc2)c1 (optimized conformer: 66.56876605147163 kcal/mol)

>  <smiles>  (12) 
Cc1cc(C)cc(S(=O)(=O)c2ccccc2C(=O)Nc2ccccc2Sc2ccccc2)c1

>  <score_type>  (12) 
oracle

>  <origin>  (12) 
adgpu

>  <m_score__min__energy>  (12) 
-12.220000000000001

>  <m_primary>  (12) 
energy

$$$$
12:0
     RDKit          3D

 56 58  0  0  0  0  0  0  0  0999 V2000
   -3.0070   16.5280  -33.7360 C   0  0  0  0  0  0  0  0  0  0  0  0
   -3.1320   17.9720  -33.3250 C   0  0  0  0  0  0  0  0  0  0  0  0
   -1.9940   18.6190  -32.8150 C   0  0  0  0  0  0  0  0  0  0  0  0
   -2.0380   19.9640  -32.4510 C   0  0  0  0  0  0  0  0  0  0  0  0
   -3.2120   20.7000  -32.6100 C   0  0  0  0  0  0  0  0  0  0  0  0
   -3.2270   22.0760  -32.2010 N   0  0  0  0  0  0  0  0  0  0  0  0
   -4.3570   22.7900  -31.6890 C   0  0  0  0  0  0  0  0  0  0  0  0
   -5.1850   23.2850  -32.4990 O   0  0  0  0  0  0  0  0  0  0  0  0
   -4.5480   22.9370  -30.2760 N   0  0  0  0  0  0  0  0  0  0  0  0
   -3.5090   22.9640  -29.2900 C   0  0  0  0  0  0  0  0  0  0  0  0
   -3.2950   21.8200  -28.5240 C   0  0  0  0  0  0  0  0  0  0  0  0
   -2.2950   21.7930  -27.5570 C   0  0  0  0  0  0  0  0  0  0  0  0
   -1.4800   22.9140  -27.3340 C   0  0  0  0  0  0  0  0  0  0  0  0
   -0.4120   22.8080  -26.2750 C   0  0  0  0  0  0  0  0  0  0  0  0
   -1.7200   24.1090  -28.0680 C   0  0  0  0  0  0  0  0  0  0  0  0
   -0.7390   25.5830  -27.8230 S   0  0  0  0  0  0  0  0  0  0  0  0
    0.7170   25.2120  -27.7620 O   0  0  0  0  0  0  0  0  0  0  0  0
   -0.9020   26.5240  -28.9830 O   0  0  0  0  0  0  0  0  0  0  0  0
   -1.1680   26.4650  -26.3100 C   0  0  0  0  0  0  0  0  0  0  0  0
   -1.9630   25.6500  -25.2910 C   0  0  0  0  0  0  0  0  0  0  0  0
   -0.8050   25.7480  -24.3090 C   0  0  0  0  0  0  0  0  0  0  0  0
   -0.0150   26.5710  -25.3150 C   0  0  0  0  0  0  0  0  0  0  0  0
   -2.7540   24.1230  -29.0330 C   0  0  0  0  0  0  0  0  0  0  0  0
   -3.0600   25.2980  -29.7110 O   0  0  0  0  0  0  0  0  0  0  0  0
   -4.3610   20.0620  -33.1010 C   0  0  0  0  0  0  0  0  0  0  0  0
   -4.3380   18.7070  -33.4690 C   0  0  0  0  0  0  0  0  0  0  0  0
   -5.8530   18.0050  -34.0870 S   0  0  0  0  0  0  0  0  0  0  0  0
   -6.1270   18.5950  -35.4440 O   0  0  0  0  0  0  0  0  0  0  0  0
   -5.7310   16.5160  -34.2660 O   0  0  0  0  0  0  0  0  0  0  0  0
   -7.2100   18.3470  -33.0390 N   0  0  0  0  0  0  0  0  0  0  0  0
   -6.9270   17.8870  -31.6760 C   0  0  0  0  0  0  0  0  0  0  0  0
   -7.5000   19.7860  -33.0380 C   0  0  0  0  0  0  0  0  0  0  0  0
   -2.9522   15.8947  -32.8383 H   0  0  0  0  0  0  0  0  0  0  0  0
   -3.8836   16.2400  -34.3349 H   0  0  0  0  0  0  0  0  0  0  0  0
   -2.0940   16.3949  -34.3349 H   0  0  0  0  0  0  0  0  0  0  0  0
   -1.0555   18.0566  -32.7013 H   0  0  0  0  0  0  0  0  0  0  0  0
   -1.1415   20.4477  -32.0359 H   0  0  0  0  0  0  0  0  0  0  0  0
   -3.9220   20.9306  -28.6851 H   0  0  0  0  0  0  0  0  0  0  0  0
   -2.1411   20.8821  -26.9599 H   0  0  0  0  0  0  0  0  0  0  0  0
   -0.8771   22.8542  -25.2793 H   0  0  0  0  0  0  0  0  0  0  0  0
    0.1214   21.8525  -26.3866 H   0  0  0  0  0  0  0  0  0  0  0  0
    0.2989   23.6400  -26.3866 H   0  0  0  0  0  0  0  0  0  0  0  0
   -1.6137   27.3634  -26.7620 H   0  0  0  0  0  0  0  0  0  0  0  0
   -2.8863   26.1390  -24.9468 H   0  0  0  0  0  0  0  0  0  0  0  0
   -2.3789   24.6693  -25.5652 H   0  0  0  0  0  0  0  0  0  0  0  0
   -1.0482   26.2868  -23.3813 H   0  0  0  0  0  0  0  0  0  0  0  0
   -0.3690   24.8374  -23.8723 H   0  0  0  0  0  0  0  0  0  0  0  0
    0.1998   27.5980  -24.9847 H   0  0  0  0  0  0  0  0  0  0  0  0
    1.0011   26.2668  -25.6067 H   0  0  0  0  0  0  0  0  0  0  0  0
   -5.2960   20.6330  -33.1994 H   0  0  0  0  0  0  0  0  0  0  0  0
   -7.3614   18.5932  -30.9531 H   0  0  0  0  0  0  0  0  0  0  0  0
   -7.3686   16.8907  -31.5261 H   0  0  0  0  0  0  0  0  0  0  0  0
   -5.8386   17.8320  -31.5261 H   0  0  0  0  0  0  0  0  0  0  0  0
   -7.5723   20.1447  -32.0007 H   0  0  0  0  0  0  0  0  0  0  0  0
   -6.6921   20.3232  -33.5563 H   0  0  0  0  0  0  0  0  0  0  0  0
   -8.4530   19.9684  -33.5563 H   0  0  0  0  0  0  0  0  0  0  0  0
  1  2  1  0
  2  3  2  0
  3  4  1  0
  4  5  2  0
  5  6  1  0
  6  7  1  0
  7  8  2  0
  7  9  1  0
  9 10  1  0
 10 11  2  0
 11 12  1  0
 12 13  2  0
 13 14  1  0
 13 15  1  0
 15 16  1  0
 16 17  2  0
 16 18  2  0
 16 19  1  0
 19 20  1  0
 20 21  1  0
 21 22  1  0
 15 23  2  0
 23 24  1  0
  5 25  1  0
 25 26  2  0
 26 27  1  0
 27 28  2  0
 27 29  2  0
 27 30  1  0
 30 31  1  0
 30 32  1  0
 26  2  1  0
 23 10  1  0
 22 19  1  0
  1 33  1  0
  1 34  1  0
  1 35  1  0
  3 36  1  0
  4 37  1  0
 11 38  1  0
 12 39  1  0
 14 40  1  0
 14 41  1  0
 14 42  1  0
 19 43  1  0
 20 44  1  0
 20 45  1  0
 21 46  1  0
 21 47  1  0
 22 48  1  0
 22 49  1  0
 25 50  1  0
 31 51  1  0
 31 52  1  0
 31 53  1  0
 32 54  1  0
 32 55  1  0
 32 56  1  0
M  CHG  3   6  -1   9  -1  24  -1
M  END
>  <UniqueID>  (13) 
12

>  <SMILES>  (13) 
Cc1ccc([N-]C(=O)[N-]c2ccc(C)c(S(=O)(=O)C3CCC3)c2[O-])cc1S(=O)(=O)N(C)C

>  <Energy>  (13) 
128.20652456531425

>  <Genealogy>  (13) 
Cc1ccc([N-]C(=O)[N-]c2ccc(C)c(S(=O)(=O)C3CCC3)c2[O-])cc1S(=O)(=O)N(C)C (protonated)
Cc1ccc([N-]C(=O)[N-]c2ccc(C)c(S(=O)(=O)C3CCC3)c2[O-])cc1S(=O)(=O)N(C)C (3D coordinates assigned)
Cc1ccc([N-]C(=O)[N-]c2ccc(C)c(S(=O)(=O)C3CCC3)c2[O-])cc1S(=O)(=O)N(C)C (nonaromatic ring conformer: 128.20652456531425 kcal/mol)

>  <smiles>  (13) 
Cc1ccc(NC(=O)Nc2ccc(C)c(S(=O)(=O)C3CCC3)c2O)cc1S(=O)(=O)N(C)C

>  <score_type>  (13) 
oracle

>  <origin>  (13) 
adgpu

>  <m_score__min__energy>  (13) 
-16.690000000000001

>  <m_primary>  (13) 
energy

$$$$
13:0
     RDKit          3D

 60 63  0  0  0  0  0  0  0  0999 V2000
    0.2430   18.1720  -27.8170 C   0  0  0  0  0  0  0  0  0  0  0  0
   -1.0290   18.8330  -27.3860 C   0  0  0  0  0  0  0  0  0  0  0  0
   -1.9890   18.1880  -26.6900 N   0  0  0  0  0  0  0  0  0  0  0  0
   -2.9470   19.1190  -26.5040 C   0  0  0  0  0  0  0  0  0  0  0  0
   -2.5590   20.3050  -27.0850 C   0  0  0  0  0  0  0  0  0  0  0  0
   -1.3520   20.1210  -27.6440 N   0  0  0  0  0  0  0  0  0  0  0  0
   -0.5440   21.1470  -28.3100 C   0  0  0  0  0  0  0  0  0  0  0  0
   -1.4210   22.2230  -28.9030 C   0  0  0  0  0  0  0  0  0  0  0  0
   -1.4880   23.4870  -28.3050 C   0  0  0  0  0  0  0  0  0  0  0  0
   -2.3350   24.4700  -28.8230 C   0  0  0  0  0  0  0  0  0  0  0  0
   -3.1330   24.2050  -29.9540 C   0  0  0  0  0  0  0  0  0  0  0  0
   -3.9910   25.1740  -30.5000 O   0  0  0  0  0  0  0  0  0  0  0  0
   -5.3530   25.3850  -30.1240 C   0  0  0  0  0  0  0  0  0  0  0  0
   -6.2170   24.2550  -30.6170 C   0  0  0  0  0  0  0  0  0  0  0  0
   -6.5200   24.1260  -31.9840 C   0  0  0  0  0  0  0  0  0  0  0  0
   -7.3270   23.0740  -32.4290 C   0  0  0  0  0  0  0  0  0  0  0  0
   -7.8430   22.1490  -31.5150 C   0  0  0  0  0  0  0  0  0  0  0  0
   -7.5520   22.2770  -30.1540 C   0  0  0  0  0  0  0  0  0  0  0  0
   -6.7460   23.3270  -29.7040 C   0  0  0  0  0  0  0  0  0  0  0  0
   -3.0690   22.9350  -30.5620 C   0  0  0  0  0  0  0  0  0  0  0  0
   -3.8680   22.6590  -31.7280 N   0  0  0  0  0  0  0  0  0  0  0  0
   -4.0430   21.0650  -32.3990 S   0  0  0  0  0  0  0  0  0  0  0  0
   -4.2670   20.0810  -31.2860 O   0  0  0  0  0  0  0  0  0  0  0  0
   -5.2370   21.0510  -33.3110 O   0  0  0  0  0  0  0  0  0  0  0  0
   -2.5920   20.6110  -33.2870 C   0  0  0  0  0  0  0  0  0  0  0  0
   -1.5540   21.5360  -33.4670 C   0  0  0  0  0  0  0  0  0  0  0  0
   -0.3880   21.1620  -34.1430 C   0  0  0  0  0  0  0  0  0  0  0  0
   -0.2520   19.8600  -34.6440 C   0  0  0  0  0  0  0  0  0  0  0  0
    1.2250   19.3660  -35.4630 S   0  0  0  0  0  0  0  0  0  0  0  0
    1.2730   17.5920  -35.5820 C   0  0  0  0  0  0  0  0  0  0  0  0
    2.4280   19.8470  -34.6980 O   0  0  0  0  0  0  0  0  0  0  0  0
    1.2590   19.9660  -36.8410 O   0  0  0  0  0  0  0  0  0  0  0  0
   -1.2900   18.9360  -34.4630 C   0  0  0  0  0  0  0  0  0  0  0  0
   -2.4570   19.3110  -33.7900 C   0  0  0  0  0  0  0  0  0  0  0  0
   -2.2260   21.9510  -30.0170 C   0  0  0  0  0  0  0  0  0  0  0  0
    0.8195   17.8724  -26.9294 H   0  0  0  0  0  0  0  0  0  0  0  0
    0.0080   17.2820  -28.4192 H   0  0  0  0  0  0  0  0  0  0  0  0
    0.8362   18.8759  -28.4192 H   0  0  0  0  0  0  0  0  0  0  0  0
   -3.8943   18.9554  -25.9693 H   0  0  0  0  0  0  0  0  0  0  0  0
   -3.1371   21.2408  -27.0904 H   0  0  0  0  0  0  0  0  0  0  0  0
    0.1371   21.6017  -27.5756 H   0  0  0  0  0  0  0  0  0  0  0  0
    0.0270   20.6724  -29.1216 H   0  0  0  0  0  0  0  0  0  0  0  0
   -0.8701   23.7076  -27.4221 H   0  0  0  0  0  0  0  0  0  0  0  0
   -2.3794   25.4592  -28.3440 H   0  0  0  0  0  0  0  0  0  0  0  0
   -5.4213   25.4412  -29.0276 H   0  0  0  0  0  0  0  0  0  0  0  0
   -5.7050   26.3248  -30.5745 H   0  0  0  0  0  0  0  0  0  0  0  0
   -6.1212   24.8545  -32.7053 H   0  0  0  0  0  0  0  0  0  0  0  0
   -7.5565   22.9736  -33.5001 H   0  0  0  0  0  0  0  0  0  0  0  0
   -8.4770   21.3219  -31.8671 H   0  0  0  0  0  0  0  0  0  0  0  0
   -7.9580   21.5500  -29.4353 H   0  0  0  0  0  0  0  0  0  0  0  0
   -6.5251   23.4271  -28.6311 H   0  0  0  0  0  0  0  0  0  0  0  0
   -4.2640   23.4490  -32.2840 H   0  0  0  0  0  0  0  0  0  0  0  0
   -1.6568   22.5588  -33.0755 H   0  0  0  0  0  0  0  0  0  0  0  0
    0.4239   21.8911  -34.2817 H   0  0  0  0  0  0  0  0  0  0  0  0
    1.2848   17.1569  -34.5718 H   0  0  0  0  0  0  0  0  0  0  0  0
    0.3841   17.2367  -36.1239 H   0  0  0  0  0  0  0  0  0  0  0  0
    2.1798   17.2853  -36.1239 H   0  0  0  0  0  0  0  0  0  0  0  0
   -1.1864   17.9122  -34.8517 H   0  0  0  0  0  0  0  0  0  0  0  0
   -3.2708   18.5832  -33.6554 H   0  0  0  0  0  0  0  0  0  0  0  0
   -2.1979   20.9503  -30.4729 H   0  0  0  0  0  0  0  0  0  0  0  0
  1  2  1  0
  2  3  2  0
  3  4  1  0
  4  5  2  0
  5  6  1  0
  6  7  1  0
  7  8  1  0
  8  9  2  0
  9 10  1  0
 10 11  2  0
 11 12  1  0
 12 13  1  0
 13 14  1  0
 14 15  2  0
 15 16  1  0
 16 17  2  0
 17 18  1  0
 18 19  2  0
 11 20  1  0
 20 21  1  0
 21 22  1  0
 22 23  2  0
 22 24  2  0
 22 25  1  0
 25 26  2  0
 26 27  1  0
 27 28  2  0
 28 29  1  0
 29 30  1  0
 29 31  2  0
 29 32  2  0
 28 33  1  0
 33 34  2  0
 20 35  2  0
  6  2  1  0
 35  8  1  0
 19 14  1  0
 34 25  1  0
  1 36  1  0
  1 37  1  0
  1 38  1  0
  4 39  1  0
  5 40  1  0
  7 41  1  0
  7 42  1  0
  9 43  1  0
 10 44  1  0
 13 45  1  0
 13 46  1  0
 15 47  1  0
 16 48  1  0
 17 49  1  0
 18 50  1  0
 19 51  1  0
 21 52  1  0
 26 53  1  0
 27 54  1  0
 30 55  1  0
 30 56  1  0
 30 57  1  0
 33 58  1  0
 34 59  1  0
 35 60  1  0
M  END
>  <UniqueID>  (14) 
13

>  <SMILES>  (14) 
Cc1nccn1Cc1ccc(OCc2ccccc2)c(NS(=O)(=O)c2ccc(S(C)(=O)=O)cc2)c1

>  <Energy>  (14) 
88.45077661829791

>  <Genealogy>  (14) 
Cc1nccn1Cc1ccc(OCc2ccccc2)c(NS(=O)(=O)c2ccc(S(C)(=O)=O)cc2)c1 (3D coordinates assigned)
Cc1nccn1Cc1ccc(OCc2ccccc2)c(NS(=O)(=O)c2ccc(S(C)(=O)=O)cc2)c1 (optimized conformer: 88.45077661829791 kcal/mol)

>  <smiles>  (14) 
Cc1nccn1Cc1ccc(OCc2ccccc2)c(NS(=O)(=O)c2ccc(S(C)(=O)=O)cc2)c1

>  <score_type>  (14) 
oracle

>  <origin>  (14) 
adgpu

>  <m_score__min__energy>  (14) 
-11.619999999999999

>  <m_primary>  (14) 
energy

$$$$
14:0
     RDKit          3D

 37 39  0  0  0  0  0  0  0  0999 V2000
    3.9030   22.5780  -37.3370 N   0  0  0  0  0  0  0  0  0  0  0  0
    2.7500   23.4010  -36.3500 S   0  0  0  0  0  0  0  0  0  0  0  0
    3.4690   24.2400  -35.3310 O   0  0  0  0  0  0  0  0  0  0  0  0
    1.9070   24.3030  -37.2080 O   0  0  0  0  0  0  0  0  0  0  0  0
    1.7290   22.2220  -35.5330 C   0  0  0  0  0  0  0  0  0  0  0  0
    2.2740   21.3800  -34.5560 C   0  0  0  0  0  0  0  0  0  0  0  0
    1.4760   20.4190  -33.9300 C   0  0  0  0  0  0  0  0  0  0  0  0
    0.1250   20.2770  -34.2910 C   0  0  0  0  0  0  0  0  0  0  0  0
   -0.7160   19.2870  -33.6830 N   0  0  0  0  0  0  0  0  0  0  0  0
   -2.0040   19.5210  -33.0960 C   0  0  0  0  0  0  0  0  0  0  0  0
   -2.9800   18.8280  -33.4890 O   0  0  0  0  0  0  0  0  0  0  0  0
   -2.2060   20.5150  -32.0140 C   0  0  0  0  0  0  0  0  0  0  0  0
   -1.3050   20.5780  -30.9390 C   0  0  0  0  0  0  0  0  0  0  0  0
   -1.4970   21.5050  -29.9110 C   0  0  0  0  0  0  0  0  0  0  0  0
   -2.5860   22.3790  -29.9470 C   0  0  0  0  0  0  0  0  0  0  0  0
   -3.4890   22.3430  -31.0220 C   0  0  0  0  0  0  0  0  0  0  0  0
   -4.6160   23.2370  -31.0590 N   0  0  0  0  0  0  0  0  0  0  0  0
   -5.8970   22.9230  -31.3490 C   0  0  0  0  0  0  0  0  0  0  0  0
   -6.3420   21.6400  -31.6450 O   0  0  0  0  0  0  0  0  0  0  0  0
   -6.7090   24.0380  -31.2850 C   0  0  0  0  0  0  0  0  0  0  0  0
   -5.8850   25.0920  -30.9360 C   0  0  0  0  0  0  0  0  0  0  0  0
   -4.6160   24.5630  -30.8080 C   0  0  0  0  0  0  0  0  0  0  0  0
   -3.4820   25.3010  -30.4900 O   0  0  0  0  0  0  0  0  0  0  0  0
   -3.2840   21.4180  -32.0580 C   0  0  0  0  0  0  0  0  0  0  0  0
   -0.4240   21.1390  -35.2490 C   0  0  0  0  0  0  0  0  0  0  0  0
    0.3760   22.1000  -35.8760 C   0  0  0  0  0  0  0  0  0  0  0  0
    3.4730   21.6660  -37.6120 H   0  0  0  0  0  0  0  0  0  0  0  0
    3.3346   21.4755  -34.2802 H   0  0  0  0  0  0  0  0  0  0  0  0
    1.9065   19.7714  -33.1520 H   0  0  0  0  0  0  0  0  0  0  0  0
   -0.4438   19.8944  -30.9058 H   0  0  0  0  0  0  0  0  0  0  0  0
   -0.7883   21.5465  -29.0708 H   0  0  0  0  0  0  0  0  0  0  0  0
   -2.7371   23.0991  -29.1293 H   0  0  0  0  0  0  0  0  0  0  0  0
   -7.7919   24.0793  -31.4735 H   0  0  0  0  0  0  0  0  0  0  0  0
   -6.1810   26.1413  -30.7897 H   0  0  0  0  0  0  0  0  0  0  0  0
   -3.9743   21.3990  -32.9142 H   0  0  0  0  0  0  0  0  0  0  0  0
   -1.4897   21.0598  -35.5096 H   0  0  0  0  0  0  0  0  0  0  0  0
   -0.0581   22.7615  -36.6402 H   0  0  0  0  0  0  0  0  0  0  0  0
  1  2  1  0
  2  3  2  0
  2  4  2  0
  2  5  1  0
  5  6  2  0
  6  7  1  0
  7  8  2  0
  8  9  1  0
  9 10  1  0
 10 11  2  0
 10 12  1  0
 12 13  2  0
 13 14  1  0
 14 15  2  0
 15 16  1  0
 16 17  1  0
 17 18  1  0
 18 19  1  0
 18 20  2  0
 20 21  1  0
 21 22  2  0
 22 23  1  0
 16 24  2  0
  8 25  1  0
 25 26  2  0
 26  5  1  0
 24 12  1  0
 22 17  1  0
  1 27  1  0
  6 28  1  0
  7 29  1  0
 13 30  1  0
 14 31  1  0
 15 32  1  0
 20 33  1  0
 21 34  1  0
 24 35  1  0
 25 36  1  0
 26 37  1  0
M  CHG  4   1  -1   9  -1  19  -1  23  -1
M  END
>  <UniqueID>  (15) 
14

>  <SMILES>  (15) 
[NH-]S(=O)(=O)c1ccc([N-]C(=O)c2cccc(-n3c([O-])ccc3[O-])c2)cc1

>  <Energy>  (15) 
78.36256208797379

>  <Genealogy>  (15) 
[NH-]S(=O)(=O)c1ccc([N-]C(=O)c2cccc(-n3c([O-])ccc3[O-])c2)cc1 (protonated)
[NH-]S(=O)(=O)c1ccc([N-]C(=O)c2cccc(-n3c([O-])ccc3[O-])c2)cc1 (3D coordinates assigned)
[NH-]S(=O)(=O)c1ccc([N-]C(=O)c2cccc(-n3c([O-])ccc3[O-])c2)cc1 (optimized conformer: 78.36256208797379 kcal/mol)

>  <smiles>  (15) 
NS(=O)(=O)c1ccc(NC(=O)c2cccc(-n3c(O)ccc3O)c2)cc1

>  <score_type>  (15) 
oracle

>  <origin>  (15) 
adgpu

>  <m_score__min__energy>  (15) 
-10.9

>  <m_primary>  (15) 
energy

$$$$
15:0
     RDKit          3D

 40 41  0  0  0  0  0  0  0  0999 V2000
   -1.8790   24.1140  -30.1920 H   0  0  0  0  0  0  0  0  0  0  0  0
   -2.3940   23.2580  -30.3590 O   0  0  0  0  0  0  0  0  0  0  0  0
   -3.7380   23.2630  -30.7300 C   0  0  0  0  0  0  0  0  0  0  0  0
   -4.3640   22.0520  -31.0430 C   0  0  0  0  0  0  0  0  0  0  0  0
   -3.7942   21.1124  -30.9930 H   0  0  0  0  0  0  0  0  0  0  0  0
   -5.7100   22.0300  -31.4190 C   0  0  0  0  0  0  0  0  0  0  0  0
   -6.1941   21.0734  -31.6651 H   0  0  0  0  0  0  0  0  0  0  0  0
   -6.4470   23.2230  -31.4840 C   0  0  0  0  0  0  0  0  0  0  0  0
   -7.8830   23.2090  -31.9390 C   0  0  0  0  0  0  0  0  0  0  0  0
   -7.9115   23.0043  -33.0194 H   0  0  0  0  0  0  0  0  0  0  0  0
   -8.3224   24.1908  -31.7089 H   0  0  0  0  0  0  0  0  0  0  0  0
   -8.7040   22.1400  -31.2110 C   0  0  0  0  0  0  0  0  0  0  0  0
   -9.4475   22.6337  -30.5679 H   0  0  0  0  0  0  0  0  0  0  0  0
   -8.0206   21.5241  -30.6080 H   0  0  0  0  0  0  0  0  0  0  0  0
   -9.3800   21.2920  -32.1400 O   0  0  0  0  0  0  0  0  0  0  0  0
   -8.9220   20.0220  -32.5070 C   0  0  0  0  0  0  0  0  0  0  0  0
   -9.6940   19.0240  -32.4660 O   0  0  0  0  0  0  0  0  0  0  0  0
   -7.5250   19.8710  -32.9450 C   0  0  0  0  0  0  0  0  0  0  0  0
   -6.9411   20.7735  -33.1786 H   0  0  0  0  0  0  0  0  0  0  0  0
   -6.9400   18.6720  -33.0690 C   0  0  0  0  0  0  0  0  0  0  0  0
   -7.5277   17.7787  -32.8108 H   0  0  0  0  0  0  0  0  0  0  0  0
   -5.5440   18.4810  -33.5350 C   0  0  0  0  0  0  0  0  0  0  0  0
   -5.1900   17.4910  -34.4720 C   0  0  0  0  0  0  0  0  0  0  0  0
   -5.9621   16.8202  -34.8768 H   0  0  0  0  0  0  0  0  0  0  0  0
   -3.8650   17.3560  -34.8900 C   0  0  0  0  0  0  0  0  0  0  0  0
   -3.5973   16.5755  -35.6175 H   0  0  0  0  0  0  0  0  0  0  0  0
   -2.8780   18.2070  -34.3890 C   0  0  0  0  0  0  0  0  0  0  0  0
   -1.5630   18.0580  -34.8140 O   0  0  0  0  0  0  0  0  0  0  0  0
   -3.2090   19.2090  -33.4690 C   0  0  0  0  0  0  0  0  0  0  0  0
   -2.1860   20.0470  -32.9940 O   0  0  0  0  0  0  0  0  0  0  0  0
   -1.3880   20.8900  -33.8190 C   0  0  0  0  0  0  0  0  0  0  0  0
   -0.7695   21.5434  -33.1861 H   0  0  0  0  0  0  0  0  0  0  0  0
   -0.7368   20.2715  -34.4541 H   0  0  0  0  0  0  0  0  0  0  0  0
   -2.0413   21.5063  -34.4541 H   0  0  0  0  0  0  0  0  0  0  0  0
   -4.5470   19.3440  -33.0490 C   0  0  0  0  0  0  0  0  0  0  0  0
   -4.8145   20.1343  -32.3321 H   0  0  0  0  0  0  0  0  0  0  0  0
   -5.8160   24.4390  -31.1730 C   0  0  0  0  0  0  0  0  0  0  0  0
   -6.3844   25.3793  -31.2262 H   0  0  0  0  0  0  0  0  0  0  0  0
   -4.4690   24.4610  -30.7960 C   0  0  0  0  0  0  0  0  0  0  0  0
   -3.8640   25.6750  -30.4910 O   0  0  0  0  0  0  0  0  0  0  0  0
  1  2  1  0
  2  3  1  0
  3  4  2  0
  4  5  1  0
  4  6  1  0
  6  7  1  0
  6  8  2  0
  8  9  1  0
  9 10  1  0
  9 11  1  0
  9 12  1  0
 12 13  1  0
 12 14  1  0
 12 15  1  0
 15 16  1  0
 16 17  2  0
 16 18  1  0
 18 19  1  0
 18 20  2  0
 20 21  1  0
 20 22  1  0
 22 23  2  0
 23 24  1  0
 23 25  1  0
 25 26  1  0
 25 27  2  0
 27 28  1  0
 27 29  1  0
 29 30  1  0
 30 31  1  0
 31 32  1  0
 31 33  1  0
 31 34  1  0
 29 35  2  0
 35 36  1  0
  8 37  1  0
 37 38  1  0
 37 39  2  0
 39 40  1  0
 39  3  1  0
 35 22  1  0
M  CHG  2  28  -1  40  -1
M  END
>  <UniqueID>  (16) 
15

>  <SMILES>  (16) 
COc1cc(/C=C/C(=O)OCCc2ccc(O)c([O-])c2)ccc1[O-]

>  <Energy>  (16) 
37.782654017256704

>  <Genealogy>  (16) 
COc1cc(C=CC(=O)OCCc2ccc(O)c([O-])c2)ccc1[O-] (protonated)
COc1cc(/C=C/C(=O)OCCc2ccc(O)c([O-])c2)ccc1[O-] (cis-trans isomerization)
COc1cc(/C=C/C(=O)OCCc2ccc(O)c([O-])c2)ccc1[O-] (3D coordinates assigned)
COc1cc(/C=C/C(=O)OCCc2ccc(O)c([O-])c2)ccc1[O-] (optimized conformer: 37.782654017256704 kcal/mol)

>  <smiles>  (16) 
COc1cc(C=CC(=O)OCCc2ccc(O)c(O)c2)ccc1O

>  <score_type>  (16) 
oracle

>  <origin>  (16) 
adgpu

>  <m_score__min__energy>  (16) 
-10.949999999999999

>  <m_primary>  (16) 
energy

$$$$
16:0
     RDKit          3D

 30 32  0  0  0  0  0  0  0  0999 V2000
   -9.0724   22.2067  -32.4912 H   0  0  0  0  0  0  0  0  0  0  0  0
   -8.1790   22.5810  -31.9700 C   0  0  0  0  0  0  0  0  0  0  0  0
   -7.2420   23.3540  -32.6580 C   0  0  0  0  0  0  0  0  0  0  0  0
   -7.3981   23.5877  -33.7215 H   0  0  0  0  0  0  0  0  0  0  0  0
   -6.1050   23.8320  -31.9980 C   0  0  0  0  0  0  0  0  0  0  0  0
   -5.3712   24.4412  -32.5461 H   0  0  0  0  0  0  0  0  0  0  0  0
   -5.8930   23.5390  -30.6370 C   0  0  0  0  0  0  0  0  0  0  0  0
   -4.6950   24.0370  -29.9180 C   0  0  0  0  0  0  0  0  0  0  0  0
   -3.7480   24.8100  -30.4910 N   0  0  0  0  0  0  0  0  0  0  0  0
   -2.8250   25.0770  -29.5810 N   0  0  0  0  0  0  0  0  0  0  0  0
   -1.9970   25.6780  -29.7790 H   0  0  0  0  0  0  0  0  0  0  0  0
   -3.1740   24.4780  -28.4250 C   0  0  0  0  0  0  0  0  0  0  0  0
   -2.5180   24.5290  -27.2990 N   0  0  0  0  0  0  0  0  0  0  0  0
   -1.2640   25.1710  -27.0200 C   0  0  0  0  0  0  0  0  0  0  0  0
   -0.3560   25.2380  -27.8900 O   0  0  0  0  0  0  0  0  0  0  0  0
   -1.0340   25.7270  -25.6750 C   0  0  0  0  0  0  0  0  0  0  0  0
   -1.1930   27.3300  -25.2370 S   0  0  0  0  0  0  0  0  0  0  0  0
   -0.7830   27.1800  -23.6370 N   0  0  0  0  0  0  0  0  0  0  0  0
   -0.5160   25.8970  -23.4080 N   0  0  0  0  0  0  0  0  0  0  0  0
   -0.6420   25.0760  -24.4970 C   0  0  0  0  0  0  0  0  0  0  0  0
   -0.3730   23.6080  -24.3930 C   0  0  0  0  0  0  0  0  0  0  0  0
   -0.3201   23.3191  -23.3329 H   0  0  0  0  0  0  0  0  0  0  0  0
   -1.1840   23.0509  -24.8848 H   0  0  0  0  0  0  0  0  0  0  0  0
    0.5829   23.3746  -24.8848 H   0  0  0  0  0  0  0  0  0  0  0  0
   -4.3630   23.8060  -28.5890 C   0  0  0  0  0  0  0  0  0  0  0  0
   -4.9208   23.2220  -27.8421 H   0  0  0  0  0  0  0  0  0  0  0  0
   -6.8470   22.7580  -29.9560 C   0  0  0  0  0  0  0  0  0  0  0  0
   -6.6978   22.5197  -28.8925 H   0  0  0  0  0  0  0  0  0  0  0  0
   -7.9820   22.2830  -30.6200 C   0  0  0  0  0  0  0  0  0  0  0  0
   -8.7207   21.6739  -30.0784 H   0  0  0  0  0  0  0  0  0  0  0  0
  1  2  1  0
  2  3  2  0
  3  4  1  0
  3  5  1  0
  5  6  1  0
  5  7  2  0
  7  8  1  0
  8  9  1  0
  9 10  1  0
 10 11  1  0
 10 12  1  0
 12 13  2  0
 13 14  1  0
 14 15  2  0
 14 16  1  0
 16 17  1  0
 17 18  1  0
 18 19  2  0
 19 20  1  0
 20 21  1  0
 21 22  1  0
 21 23  1  0
 21 24  1  0
 12 25  1  0
 25 26  1  0
  7 27  1  0
 27 28  1  0
 27 29  2  0
 29 30  1  0
 29  2  1  0
 25  8  2  0
 20 16  2  0
M  CHG  1   9  -1
M  END
>  <UniqueID>  (17) 
16

>  <SMILES>  (17) 
Cc1nnsc1C(=O)/N=c1/cc(-c2ccccc2)[n-][nH]1

>  <Energy>  (17) 
105.43108186290397

>  <Genealogy>  (17) 
Cc1nnsc1C(=O)N=c1cc(-c2ccccc2)[n-][nH]1 (protonated)
Cc1nnsc1C(=O)/N=c1/cc(-c2ccccc2)[n-][nH]1 (cis-trans isomerization)
Cc1nnsc1C(=O)/N=c1/cc(-c2ccccc2)[n-][nH]1 (3D coordinates assigned)
Cc1nnsc1C(=O)/N=c1/cc(-c2ccccc2)[n-][nH]1 (optimized conformer: 105.43108186290397 kcal/mol)

>  <smiles>  (17) 
Cc1nnsc1C(=O)N=c1cc(-c2ccccc2)[nH][nH]1

>  <score_type>  (17) 
oracle

>  <origin>  (17) 
adgpu

>  <m_score__min__energy>  (17) 
-9.9000000000000004

>  <m_primary>  (17) 
energy

$$$$
17:0
     RDKit          3D

 42 44  0  0  0  0  0  0  0  0999 V2000
   -7.6130   22.8760  -31.6650 C   0  0  0  0  0  0  0  0  0  0  0  0
   -6.2510   22.3240  -31.9920 C   0  0  0  0  0  0  0  0  0  0  0  0
   -6.1600   21.1520  -32.7620 C   0  0  0  0  0  0  0  0  0  0  0  0
   -4.9150   20.6140  -33.0970 C   0  0  0  0  0  0  0  0  0  0  0  0
   -3.7410   21.2400  -32.6690 C   0  0  0  0  0  0  0  0  0  0  0  0
   -2.1640   20.5710  -33.0790 S   0  0  0  0  0  0  0  0  0  0  0  0
   -1.4220   21.5040  -33.9940 O   0  0  0  0  0  0  0  0  0  0  0  0
   -2.3470   19.2550  -33.7830 O   0  0  0  0  0  0  0  0  0  0  0  0
   -1.2220   20.3480  -31.6080 C   0  0  0  0  0  0  0  0  0  0  0  0
   -0.7150   19.0830  -31.2760 C   0  0  0  0  0  0  0  0  0  0  0  0
    0.0000   18.9030  -30.0880 C   0  0  0  0  0  0  0  0  0  0  0  0
    0.2120   19.9840  -29.2270 C   0  0  0  0  0  0  0  0  0  0  0  0
   -0.2960   21.2450  -29.5520 C   0  0  0  0  0  0  0  0  0  0  0  0
   -1.0150   21.4280  -30.7370 C   0  0  0  0  0  0  0  0  0  0  0  0
   -3.8200   22.4080  -31.9050 C   0  0  0  0  0  0  0  0  0  0  0  0
   -5.0630   22.9730  -31.5750 C   0  0  0  0  0  0  0  0  0  0  0  0
   -5.0910   24.4690  -30.6270 S   0  0  0  0  0  0  0  0  0  0  0  0
   -5.8650   24.2320  -29.3620 O   0  0  0  0  0  0  0  0  0  0  0  0
   -5.7300   25.5650  -31.4310 O   0  0  0  0  0  0  0  0  0  0  0  0
   -3.4690   24.9390  -30.2320 N   0  0  0  0  0  0  0  0  0  0  0  0
   -2.7070   24.4540  -29.1190 C   0  0  0  0  0  0  0  0  0  0  0  0
   -3.0490   23.2670  -28.4450 C   0  0  0  0  0  0  0  0  0  0  0  0
   -2.2770   22.8250  -27.3660 C   0  0  0  0  0  0  0  0  0  0  0  0
   -1.1640   23.5600  -26.9510 C   0  0  0  0  0  0  0  0  0  0  0  0
   -0.8210   24.7410  -27.6120 C   0  0  0  0  0  0  0  0  0  0  0  0
   -1.5890   25.1890  -28.6930 C   0  0  0  0  0  0  0  0  0  0  0  0
   -1.2370   26.3660  -29.3430 O   0  0  0  0  0  0  0  0  0  0  0  0
   -7.7359   22.9258  -30.5730 H   0  0  0  0  0  0  0  0  0  0  0  0
   -7.7117   23.8851  -32.0915 H   0  0  0  0  0  0  0  0  0  0  0  0
   -8.3864   22.2204  -32.0915 H   0  0  0  0  0  0  0  0  0  0  0  0
   -7.0786   20.6530  -33.1045 H   0  0  0  0  0  0  0  0  0  0  0  0
   -4.8586   19.6952  -33.6992 H   0  0  0  0  0  0  0  0  0  0  0  0
   -0.8802   18.2308  -31.9517 H   0  0  0  0  0  0  0  0  0  0  0  0
    0.3962   17.9097  -29.8304 H   0  0  0  0  0  0  0  0  0  0  0  0
    0.7781   19.8422  -28.2946 H   0  0  0  0  0  0  0  0  0  0  0  0
   -0.1297   22.0951  -28.8740 H   0  0  0  0  0  0  0  0  0  0  0  0
   -1.4189   22.4202  -30.9867 H   0  0  0  0  0  0  0  0  0  0  0  0
   -2.8953   22.8917  -31.5572 H   0  0  0  0  0  0  0  0  0  0  0  0
   -3.9254   22.6856  -28.7675 H   0  0  0  0  0  0  0  0  0  0  0  0
   -2.5470   21.8959  -26.8426 H   0  0  0  0  0  0  0  0  0  0  0  0
   -0.5577   23.2083  -26.1033 H   0  0  0  0  0  0  0  0  0  0  0  0
    0.0542   25.3203  -27.2827 H   0  0  0  0  0  0  0  0  0  0  0  0
  1  2  1  0
  2  3  2  0
  3  4  1  0
  4  5  2  0
  5  6  1  0
  6  7  2  0
  6  8  2  0
  6  9  1  0
  9 10  2  0
 10 11  1  0
 11 12  2  0
 12 13  1  0
 13 14  2  0
  5 15  1  0
 15 16  2  0
 16 17  1  0
 17 18  2  0
 17 19  2  0
 17 20  1  0
 20 21  1  0
 21 22  2  0
 22 23  1  0
 23 24  2  0
 24 25  1  0
 25 26  2  0
 26 27  1  0
 16  2  1  0
 26 21  1  0
 14  9  1  0
  1 28  1  0
  1 29  1  0
  1 30  1  0
  3 31  1  0
  4 32  1  0
 10 33  1  0
 11 34  1  0
 12 35  1  0
 13 36  1  0
 14 37  1  0
 15 38  1  0
 22 39  1  0
 23 40  1  0
 24 41  1  0
 25 42  1  0
M  CHG  2  20  -1  27  -1
M  END
>  <UniqueID>  (18) 
17

>  <SMILES>  (18) 
Cc1ccc(S(=O)(=O)c2ccccc2)cc1S(=O)(=O)[N-]c1ccccc1[O-]

>  <Energy>  (18) 
52.00236194008057

>  <Genealogy>  (18) 
Cc1ccc(S(=O)(=O)c2ccccc2)cc1S(=O)(=O)[N-]c1ccccc1[O-] (protonated)
Cc1ccc(S(=O)(=O)c2ccccc2)cc1S(=O)(=O)[N-]c1ccccc1[O-] (3D coordinates assigned)
Cc1ccc(S(=O)(=O)c2ccccc2)cc1S(=O)(=O)[N-]c1ccccc1[O-] (optimized conformer: 52.00236194008057 kcal/mol)

>  <smiles>  (18) 
Cc1ccc(S(=O)(=O)c2ccccc2)cc1S(=O)(=O)Nc1ccccc1O

>  <score_type>  (18) 
oracle

>  <origin>  (18) 
adgpu

>  <m_score__min__energy>  (18) 
-13.23

>  <m_primary>  (18) 
energy

$$$$
18:0
     RDKit          3D

 48 50  0  0  0  0  0  0  0  0999 V2000
   -6.7840   25.6830  -29.3440 C   0  0  0  0  0  0  0  0  0  0  0  0
   -5.7360   25.8370  -30.4420 C   0  0  0  0  0  0  0  0  0  0  0  0
   -5.0660   24.5160  -30.7300 C   0  0  0  0  0  0  0  0  0  0  0  0
   -5.7760   23.5180  -31.4140 C   0  0  0  0  0  0  0  0  0  0  0  0
   -5.1710   22.2930  -31.7290 C   0  0  0  0  0  0  0  0  0  0  0  0
   -5.9370   21.2500  -32.4500 C   0  0  0  0  0  0  0  0  0  0  0  0
   -7.3070   21.2320  -32.6430 C   0  0  0  0  0  0  0  0  0  0  0  0
   -7.6150   20.1990  -33.4450 N   0  0  0  0  0  0  0  0  0  0  0  0
   -6.5120   19.5570  -33.7920 N   0  0  0  0  0  0  0  0  0  0  0  0
   -5.4730   20.1660  -33.1880 C   0  0  0  0  0  0  0  0  0  0  0  0
   -3.7660   19.6940  -33.4930 S   0  0  0  0  0  0  0  0  0  0  0  0
   -4.1440   17.9420  -33.6360 C   0  0  0  0  0  0  0  0  0  0  0  0
   -4.9490   17.3260  -32.6690 C   0  0  0  0  0  0  0  0  0  0  0  0
   -5.2560   15.9660  -32.7700 C   0  0  0  0  0  0  0  0  0  0  0  0
   -4.7690   15.2100  -33.8450 C   0  0  0  0  0  0  0  0  0  0  0  0
   -5.1160   13.7540  -33.9500 C   0  0  0  0  0  0  0  0  0  0  0  0
   -3.9870   15.8350  -34.8290 C   0  0  0  0  0  0  0  0  0  0  0  0
   -3.6790   17.1950  -34.7260 C   0  0  0  0  0  0  0  0  0  0  0  0
   -3.8450   22.0700  -31.3390 C   0  0  0  0  0  0  0  0  0  0  0  0
   -3.1040   23.0600  -30.6710 C   0  0  0  0  0  0  0  0  0  0  0  0
   -1.6580   22.7900  -30.2760 C   0  0  0  0  0  0  0  0  0  0  0  0
   -1.1580   21.4690  -30.8750 C   0  0  0  0  0  0  0  0  0  0  0  0
   -1.4920   22.7990  -28.7520 C   0  0  0  0  0  0  0  0  0  0  0  0
   -3.7230   24.2920  -30.3710 C   0  0  0  0  0  0  0  0  0  0  0  0
   -3.0100   25.2960  -29.7200 O   0  0  0  0  0  0  0  0  0  0  0  0
   -6.2974   25.7545  -28.3601 H   0  0  0  0  0  0  0  0  0  0  0  0
   -7.5357   26.4803  -29.4401 H   0  0  0  0  0  0  0  0  0  0  0  0
   -7.2745   24.7031  -29.4401 H   0  0  0  0  0  0  0  0  0  0  0  0
   -6.2238   26.2016  -31.3580 H   0  0  0  0  0  0  0  0  0  0  0  0
   -4.9731   26.5539  -30.1042 H   0  0  0  0  0  0  0  0  0  0  0  0
   -6.8207   23.6988  -31.7070 H   0  0  0  0  0  0  0  0  0  0  0  0
   -8.0248   21.9451  -32.2115 H   0  0  0  0  0  0  0  0  0  0  0  0
   -8.5720   19.9410  -33.7720 H   0  0  0  0  0  0  0  0  0  0  0  0
   -5.3411   17.9149  -31.8268 H   0  0  0  0  0  0  0  0  0  0  0  0
   -5.8822   15.4873  -32.0028 H   0  0  0  0  0  0  0  0  0  0  0  0
   -5.2176   13.3276  -32.9411 H   0  0  0  0  0  0  0  0  0  0  0  0
   -6.0661   13.6417  -34.4929 H   0  0  0  0  0  0  0  0  0  0  0  0
   -4.3187   13.2253  -34.4929 H   0  0  0  0  0  0  0  0  0  0  0  0
   -3.6150   15.2524  -35.6847 H   0  0  0  0  0  0  0  0  0  0  0  0
   -3.0698   17.6797  -35.5031 H   0  0  0  0  0  0  0  0  0  0  0  0
   -3.3738   21.1008  -31.5597 H   0  0  0  0  0  0  0  0  0  0  0  0
   -1.0410   23.6019  -30.6884 H   0  0  0  0  0  0  0  0  0  0  0  0
   -0.8952   20.7746  -30.0634 H   0  0  0  0  0  0  0  0  0  0  0  0
   -1.9502   21.0247  -31.4955 H   0  0  0  0  0  0  0  0  0  0  0  0
   -0.2702   21.6606  -31.4955 H   0  0  0  0  0  0  0  0  0  0  0  0
   -2.4818   22.7453  -28.2750 H   0  0  0  0  0  0  0  0  0  0  0  0
   -0.8889   21.9322  -28.4437 H   0  0  0  0  0  0  0  0  0  0  0  0
   -0.9862   23.7259  -28.4437 H   0  0  0  0  0  0  0  0  0  0  0  0
  1  2  1  0
  2  3  1  0
  3  4  2  0
  4  5  1  0
  5  6  1  0
  6  7  2  0
  7  8  1  0
  8  9  1  0
  9 10  2  0
 10 11  1  0
 11 12  1  0
 12 13  2  0
 13 14  1  0
 14 15  2  0
 15 16  1  0
 15 17  1  0
 17 18  2  0
  5 19  2  0
 19 20  1  0
 20 21  1  0
 21 22  1  0
 21 23  1  0
 20 24  2  0
 24 25  1  0
 24  3  1  0
 10  6  1  0
 18 12  1  0
  1 26  1  0
  1 27  1  0
  1 28  1  0
  2 29  1  0
  2 30  1  0
  4 31  1  0
  7 32  1  0
  8 33  1  0
 13 34  1  0
 14 35  1  0
 16 36  1  0
 16 37  1  0
 16 38  1  0
 17 39  1  0
 18 40  1  0
 19 41  1  0
 21 42  1  0
 22 43  1  0
 22 44  1  0
 22 45  1  0
 23 46  1  0
 23 47  1  0
 23 48  1  0
M  CHG  1  25  -1
M  END
>  <UniqueID>  (19) 
18

>  <SMILES>  (19) 
CCc1cc(-c2c[nH]nc2Sc2ccc(C)cc2)cc(C(C)C)c1[O-]

>  <Energy>  (19) 
75.34405437453499

>  <Genealogy>  (19) 
CCc1cc(-c2c[nH]nc2Sc2ccc(C)cc2)cc(C(C)C)c1[O-] (protonated)
CCc1cc(-c2c[nH]nc2Sc2ccc(C)cc2)cc(C(C)C)c1[O-] (3D coordinates assigned)
CCc1cc(-c2c[nH]nc2Sc2ccc(C)cc2)cc(C(C)C)c1[O-] (optimized conformer: 75.34405437453499 kcal/mol)

>  <smiles>  (19) 
CCc1cc(-c2c[nH]nc2Sc2ccc(C)cc2)cc(C(C)C)c1O

>  <score_type>  (19) 
oracle

>  <origin>  (19) 
adgpu

>  <m_score__min__energy>  (19) 
-11.52

>  <m_primary>  (19) 
energy

$$$$
19:0
     RDKit          3D

 68 71  0  0  0  0  0  0  0  0999 V2000
    3.1010   24.6370  -35.7360 C   0  0  0  0  0  0  0  0  0  0  0  0
    3.3800   23.1510  -35.9290 C   0  0  0  0  0  0  0  0  0  0  0  0
    2.2460   22.3210  -35.3920 C   0  0  0  0  0  0  0  0  0  0  0  0
    0.9190   22.7140  -35.5910 C   0  0  0  0  0  0  0  0  0  0  0  0
   -0.0980   21.9710  -35.0840 N   0  0  0  0  0  0  0  0  0  0  0  0
    0.1190   20.8390  -34.3590 C   0  0  0  0  0  0  0  0  0  0  0  0
   -1.0550   20.0880  -33.8610 C   0  0  0  0  0  0  0  0  0  0  0  0
   -1.4430   18.9280  -34.5460 C   0  0  0  0  0  0  0  0  0  0  0  0
   -2.5710   18.2160  -34.1490 C   0  0  0  0  0  0  0  0  0  0  0  0
   -3.3420   18.6660  -33.0800 C   0  0  0  0  0  0  0  0  0  0  0  0
   -2.9940   19.8370  -32.3850 C   0  0  0  0  0  0  0  0  0  0  0  0
   -3.8980   20.3040  -31.2670 C   0  0  0  0  0  0  0  0  0  0  0  0
   -4.5000   21.5570  -31.5920 O   0  0  0  0  0  0  0  0  0  0  0  0
   -5.8790   21.8130  -31.6680 C   0  0  0  0  0  0  0  0  0  0  0  0
   -6.8240   20.7720  -31.7650 C   0  0  0  0  0  0  0  0  0  0  0  0
   -8.1840   21.0600  -31.8950 C   0  0  0  0  0  0  0  0  0  0  0  0
   -8.6180   22.3850  -31.9350 C   0  0  0  0  0  0  0  0  0  0  0  0
   -7.6940   23.4260  -31.8280 C   0  0  0  0  0  0  0  0  0  0  0  0
   -6.3300   23.1530  -31.6660 C   0  0  0  0  0  0  0  0  0  0  0  0
   -5.4180   24.2590  -31.5910 N   0  0  0  0  0  0  0  0  0  0  0  0
   -4.4590   24.4890  -30.5520 C   0  0  0  0  0  0  0  0  0  0  0  0
   -3.8950   25.6130  -30.4880 O   0  0  0  0  0  0  0  0  0  0  0  0
   -4.1620   23.4650  -29.5870 N   0  0  0  0  0  0  0  0  0  0  0  0
   -3.0640   23.5350  -28.6650 C   0  0  0  0  0  0  0  0  0  0  0  0
   -2.0250   22.6040  -28.7660 C   0  0  0  0  0  0  0  0  0  0  0  0
   -0.9510   22.6420  -27.8770 C   0  0  0  0  0  0  0  0  0  0  0  0
   -0.9020   23.6060  -26.8560 C   0  0  0  0  0  0  0  0  0  0  0  0
    0.2700   23.6180  -25.9090 C   0  0  0  0  0  0  0  0  0  0  0  0
   -1.9640   24.5320  -26.7240 C   0  0  0  0  0  0  0  0  0  0  0  0
   -1.9650   25.5670  -25.6290 C   0  0  0  0  0  0  0  0  0  0  0  0
   -3.0380   24.4850  -27.6310 C   0  0  0  0  0  0  0  0  0  0  0  0
   -1.8120   20.5400  -32.7480 C   0  0  0  0  0  0  0  0  0  0  0  0
   -1.3870   21.7840  -31.9960 C   0  0  0  0  0  0  0  0  0  0  0  0
    1.4440   20.4220  -34.0960 C   0  0  0  0  0  0  0  0  0  0  0  0
    1.7450   19.1960  -33.2770 C   0  0  0  0  0  0  0  0  0  0  0  0
    2.5020   21.1710  -34.6330 C   0  0  0  0  0  0  0  0  0  0  0  0
    3.0581   24.8654  -34.6608 H   0  0  0  0  0  0  0  0  0  0  0  0
    3.9045   25.2247  -36.2039 H   0  0  0  0  0  0  0  0  0  0  0  0
    2.1390   24.8933  -36.2039 H   0  0  0  0  0  0  0  0  0  0  0  0
    3.5023   22.9433  -37.0023 H   0  0  0  0  0  0  0  0  0  0  0  0
    4.2980   22.8904  -35.3818 H   0  0  0  0  0  0  0  0  0  0  0  0
    0.6981   23.6288  -36.1606 H   0  0  0  0  0  0  0  0  0  0  0  0
   -0.8510   18.5777  -35.4044 H   0  0  0  0  0  0  0  0  0  0  0  0
   -2.8543   17.2957  -34.6808 H   0  0  0  0  0  0  0  0  0  0  0  0
   -4.2338   18.0983  -32.7761 H   0  0  0  0  0  0  0  0  0  0  0  0
   -4.6878   19.5556  -31.1053 H   0  0  0  0  0  0  0  0  0  0  0  0
   -3.2957   20.4281  -30.3550 H   0  0  0  0  0  0  0  0  0  0  0  0
   -6.4877   19.7250  -31.7381 H   0  0  0  0  0  0  0  0  0  0  0  0
   -8.9144   20.2406  -31.9660 H   0  0  0  0  0  0  0  0  0  0  0  0
   -9.6885   22.6097  -32.0509 H   0  0  0  0  0  0  0  0  0  0  0  0
   -8.0401   24.4692  -31.8713 H   0  0  0  0  0  0  0  0  0  0  0  0
   -4.6750   22.5570  -29.6540 H   0  0  0  0  0  0  0  0  0  0  0  0
   -2.0552   21.8358  -29.5528 H   0  0  0  0  0  0  0  0  0  0  0  0
   -0.1352   21.9108  -27.9761 H   0  0  0  0  0  0  0  0  0  0  0  0
   -0.0966   23.6142  -24.8719 H   0  0  0  0  0  0  0  0  0  0  0  0
    0.8903   22.7262  -26.0819 H   0  0  0  0  0  0  0  0  0  0  0  0
    0.8719   24.5224  -26.0819 H   0  0  0  0  0  0  0  0  0  0  0  0
   -1.9645   25.0652  -24.6501 H   0  0  0  0  0  0  0  0  0  0  0  0
   -1.0675   26.1966  -25.7187 H   0  0  0  0  0  0  0  0  0  0  0  0
   -2.8638   26.1948  -25.7187 H   0  0  0  0  0  0  0  0  0  0  0  0
   -3.8672   25.2006  -27.5293 H   0  0  0  0  0  0  0  0  0  0  0  0
   -1.4506   21.5979  -30.9137 H   0  0  0  0  0  0  0  0  0  0  0  0
   -0.3509   22.0385  -32.2640 H   0  0  0  0  0  0  0  0  0  0  0  0
   -2.0508   22.6192  -32.2640 H   0  0  0  0  0  0  0  0  0  0  0  0
    1.6838   19.4454  -32.2074 H   0  0  0  0  0  0  0  0  0  0  0  0
    1.0134   18.4090  -33.5125 H   0  0  0  0  0  0  0  0  0  0  0  0
    2.7579   18.8373  -33.5125 H   0  0  0  0  0  0  0  0  0  0  0  0
    3.5403   20.8532  -34.4569 H   0  0  0  0  0  0  0  0  0  0  0  0
  1  2  1  0
  2  3  1  0
  3  4  2  0
  4  5  1  0
  5  6  2  0
  6  7  1  0
  7  8  2  0
  8  9  1  0
  9 10  2  0
 10 11  1  0
 11 12  1  0
 12 13  1  0
 13 14  1  0
 14 15  2  0
 15 16  1  0
 16 17  2  0
 17 18  1  0
 18 19  2  0
 19 20  1  0
 20 21  1  0
 21 22  2  0
 21 23  1  0
 23 24  1  0
 24 25  2  0
 25 26  1  0
 26 27  2  0
 27 28  1  0
 27 29  1  0
 29 30  1  0
 29 31  2  0
 11 32  2  0
 32 33  1  0
  6 34  1  0
 34 35  1  0
 34 36  2  0
 36  3  1  0
 32  7  1  0
 19 14  1  0
 31 24  1  0
  1 37  1  0
  1 38  1  0
  1 39  1  0
  2 40  1  0
  2 41  1  0
  4 42  1  0
  8 43  1  0
  9 44  1  0
 10 45  1  0
 12 46  1  0
 12 47  1  0
 15 48  1  0
 16 49  1  0
 17 50  1  0
 18 51  1  0
 23 52  1  0
 25 53  1  0
 26 54  1  0
 28 55  1  0
 28 56  1  0
 28 57  1  0
 30 58  1  0
 30 59  1  0
 30 60  1  0
 31 61  1  0
 33 62  1  0
 33 63  1  0
 33 64  1  0
 35 65  1  0
 35 66  1  0
 35 67  1  0
 36 68  1  0
M  CHG  1  20  -1
M  END
>  <UniqueID>  (20) 
19

>  <SMILES>  (20) 
CCc1cnc(-c2cccc(COc3ccccc3[N-]C(=O)Nc3ccc(C)c(C)c3)c2C)c(C)c1

>  <Energy>  (20) 
86.95803605327986

>  <Genealogy>  (20) 
CCc1cnc(-c2cccc(COc3ccccc3[N-]C(=O)Nc3ccc(C)c(C)c3)c2C)c(C)c1 (protonated)
CCc1cnc(-c2cccc(COc3ccccc3[N-]C(=O)Nc3ccc(C)c(C)c3)c2C)c(C)c1 (3D coordinates assigned)
CCc1cnc(-c2cccc(COc3ccccc3[N-]C(=O)Nc3ccc(C)c(C)c3)c2C)c(C)c1 (optimized conformer: 86.95803605327986 kcal/mol)

>  <smiles>  (20) 
CCc1cnc(-c2cccc(COc3ccccc3NC(=O)Nc3ccc(C)c(C)c3)c2C)c(C)c1

>  <score_type>  (20) 
oracle

>  <origin>  (20) 
adgpu

>  <m_score__min__energy>  (20) 
-11.970000000000001

>  <m_primary>  (20) 
energy

$$$$
20:0
     RDKit          3D

 56 60  0  0  0  0  0  0  0  0999 V2000
   -4.2030   24.5270  -30.8500 O   0  0  0  0  0  0  0  0  0  0  0  0
   -3.9190   23.4900  -30.1910 C   0  0  0  0  0  0  0  0  0  0  0  0
   -4.7370   22.3130  -30.3030 N   0  0  0  0  0  0  0  0  0  0  0  0
   -6.0420   22.2930  -30.9080 C   0  0  0  0  0  0  0  0  0  0  0  0
   -6.7770   23.4760  -31.1030 C   0  0  0  0  0  0  0  0  0  0  0  0
   -8.0570   23.4240  -31.6630 C   0  0  0  0  0  0  0  0  0  0  0  0
   -8.6180   22.1960  -32.0210 C   0  0  0  0  0  0  0  0  0  0  0  0
   -7.9020   21.0100  -31.8190 C   0  0  0  0  0  0  0  0  0  0  0  0
   -8.6270   19.4600  -32.2330 S   0  0  0  0  0  0  0  0  0  0  0  0
   -9.0460   18.7570  -30.9720 O   0  0  0  0  0  0  0  0  0  0  0  0
   -9.8480   19.6840  -33.0840 O   0  0  0  0  0  0  0  0  0  0  0  0
   -7.4570   18.4840  -33.0820 N   0  0  0  0  0  0  0  0  0  0  0  0
   -6.6360   17.7080  -32.1530 C   0  0  0  0  0  0  0  0  0  0  0  0
   -5.3090   17.4590  -32.8520 C   0  0  0  0  0  0  0  0  0  0  0  0
   -5.2240   18.5180  -33.9410 C   0  0  0  0  0  0  0  0  0  0  0  0
   -6.5160   19.3140  -33.8340 C   0  0  0  0  0  0  0  0  0  0  0  0
   -6.6210   21.0620  -31.2510 C   0  0  0  0  0  0  0  0  0  0  0  0
   -2.7440   23.4900  -29.2890 C   0  0  0  0  0  0  0  0  0  0  0  0
   -2.5590   24.5990  -28.4490 C   0  0  0  0  0  0  0  0  0  0  0  0
   -1.4320   24.6820  -27.6170 C   0  0  0  0  0  0  0  0  0  0  0  0
   -1.2030   25.8480  -26.7260 C   0  0  0  0  0  0  0  0  0  0  0  0
   -0.7060   27.0680  -27.2260 C   0  0  0  0  0  0  0  0  0  0  0  0
   -0.4900   28.1510  -26.3660 C   0  0  0  0  0  0  0  0  0  0  0  0
   -0.7610   28.0280  -25.0020 C   0  0  0  0  0  0  0  0  0  0  0  0
   -1.2440   26.8210  -24.4930 C   0  0  0  0  0  0  0  0  0  0  0  0
   -1.4590   25.7350  -25.3470 C   0  0  0  0  0  0  0  0  0  0  0  0
   -0.5330   23.6620  -27.6170 N   0  0  0  0  0  0  0  0  0  0  0  0
   -0.6770   22.5600  -28.3970 C   0  0  0  0  0  0  0  0  0  0  0  0
    0.2840   21.5450  -28.3350 C   0  0  0  0  0  0  0  0  0  0  0  0
    0.1360   20.3910  -29.1050 C   0  0  0  0  0  0  0  0  0  0  0  0
   -0.9760   20.2410  -29.9340 C   0  0  0  0  0  0  0  0  0  0  0  0
   -1.9430   21.2490  -30.0070 C   0  0  0  0  0  0  0  0  0  0  0  0
   -1.7980   22.4350  -29.2550 C   0  0  0  0  0  0  0  0  0  0  0  0
   -4.3200   21.4030  -30.0050 H   0  0  0  0  0  0  0  0  0  0  0  0
   -6.3436   24.4449  -30.8141 H   0  0  0  0  0  0  0  0  0  0  0  0
   -8.6240   24.3531  -31.8221 H   0  0  0  0  0  0  0  0  0  0  0  0
   -9.6248   22.1606  -32.4627 H   0  0  0  0  0  0  0  0  0  0  0  0
   -6.4754   18.2745  -31.2238 H   0  0  0  0  0  0  0  0  0  0  0  0
   -7.1273   16.7612  -31.8843 H   0  0  0  0  0  0  0  0  0  0  0  0
   -4.4743   17.5668  -32.1438 H   0  0  0  0  0  0  0  0  0  0  0  0
   -5.2473   16.4410  -33.2642 H   0  0  0  0  0  0  0  0  0  0  0  0
   -4.3548   19.1714  -33.7751 H   0  0  0  0  0  0  0  0  0  0  0  0
   -5.1017   18.0698  -34.9381 H   0  0  0  0  0  0  0  0  0  0  0  0
   -6.3360   20.2602  -33.3027 H   0  0  0  0  0  0  0  0  0  0  0  0
   -6.9131   19.5615  -34.8295 H   0  0  0  0  0  0  0  0  0  0  0  0
   -6.0653   20.1296  -31.0728 H   0  0  0  0  0  0  0  0  0  0  0  0
   -3.3030   25.4092  -28.4428 H   0  0  0  0  0  0  0  0  0  0  0  0
   -0.4864   27.1700  -28.2990 H   0  0  0  0  0  0  0  0  0  0  0  0
   -0.1059   29.1011  -26.7657 H   0  0  0  0  0  0  0  0  0  0  0  0
   -0.5941   28.8817  -24.3286 H   0  0  0  0  0  0  0  0  0  0  0  0
   -1.4558   26.7242  -23.4179 H   0  0  0  0  0  0  0  0  0  0  0  0
   -1.8314   24.7844  -24.9375 H   0  0  0  0  0  0  0  0  0  0  0  0
    1.1586   21.6572  -27.6774 H   0  0  0  0  0  0  0  0  0  0  0  0
    0.8972   19.5983  -29.0584 H   0  0  0  0  0  0  0  0  0  0  0  0
   -1.0929   19.3258  -30.5330 H   0  0  0  0  0  0  0  0  0  0  0  0
   -2.8223   21.1168  -30.6546 H   0  0  0  0  0  0  0  0  0  0  0  0
  1  2  2  0
  2  3  1  0
  3  4  1  0
  4  5  2  0
  5  6  1  0
  6  7  2  0
  7  8  1  0
  8  9  1  0
  9 10  2  0
  9 11  2  0
  9 12  1  0
 12 13  1  0
 13 14  1  0
 14 15  1  0
 15 16  1  0
  8 17  2  0
  2 18  1  0
 18 19  2  0
 19 20  1  0
 20 21  1  0
 21 22  2  0
 22 23  1  0
 23 24  2  0
 24 25  1  0
 25 26  2  0
 20 27  2  0
 27 28  1  0
 28 29  2  0
 29 30  1  0
 30 31  2  0
 31 32  1  0
 32 33  2  0
 17  4  1  0
 33 18  1  0
 16 12  1  0
 26 21  1  0
 33 28  1  0
  3 34  1  0
  5 35  1  0
  6 36  1  0
  7 37  1  0
 13 38  1  0
 13 39  1  0
 14 40  1  0
 14 41  1  0
 15 42  1  0
 15 43  1  0
 16 44  1  0
 16 45  1  0
 17 46  1  0
 19 47  1  0
 22 48  1  0
 23 49  1  0
 24 50  1  0
 25 51  1  0
 26 52  1  0
 29 53  1  0
 30 54  1  0
 31 55  1  0
 32 56  1  0
M  END
>  <UniqueID>  (21) 
20

>  <SMILES>  (21) 
O=C(Nc1cccc(S(=O)(=O)N2CCCC2)c1)c1cc(-c2ccccc2)nc2ccccc12

>  <Energy>  (21) 
79.51422560478468

>  <Genealogy>  (21) 
O=C(Nc1cccc(S(=O)(=O)N2CCCC2)c1)c1cc(-c2ccccc2)nc2ccccc12 (3D coordinates assigned)
O=C(Nc1cccc(S(=O)(=O)N2CCCC2)c1)c1cc(-c2ccccc2)nc2ccccc12 (nonaromatic ring conformer: 79.51422560478468 kcal/mol)

>  <smiles>  (21) 
O=C(Nc1cccc(S(=O)(=O)N2CCCC2)c1)c1cc(-c2ccccc2)nc2ccccc12

>  <score_type>  (21) 
oracle

>  <origin>  (21) 
adgpu

>  <m_score__min__energy>  (21) 
-11.119999999999999

>  <m_primary>  (21) 
energy

$$$$
21:0
     RDKit          3D

 52 55  0  0  0  0  0  0  0  0999 V2000
   -1.1980   30.3710  -25.2540 C   0  0  0  0  0  0  0  0  0  0  0  0
   -0.2820   29.3010  -25.8390 C   0  0  0  0  0  0  0  0  0  0  0  0
   -1.0380   28.1840  -26.3050 O   0  0  0  0  0  0  0  0  0  0  0  0
   -0.5310   26.8960  -26.5470 C   0  0  0  0  0  0  0  0  0  0  0  0
    0.6790   26.5390  -25.9390 C   0  0  0  0  0  0  0  0  0  0  0  0
    1.2270   25.2690  -26.1410 C   0  0  0  0  0  0  0  0  0  0  0  0
    0.5730   24.3460  -26.9580 C   0  0  0  0  0  0  0  0  0  0  0  0
   -0.6330   24.6880  -27.5880 C   0  0  0  0  0  0  0  0  0  0  0  0
   -1.3170   23.7330  -28.4150 N   0  0  0  0  0  0  0  0  0  0  0  0
   -1.1730   22.3870  -28.4140 C   0  0  0  0  0  0  0  0  0  0  0  0
   -0.2760   21.6810  -27.6140 O   0  0  0  0  0  0  0  0  0  0  0  0
   -2.0040   21.7980  -29.3480 C   0  0  0  0  0  0  0  0  0  0  0  0
   -2.6920   22.8400  -29.9450 C   0  0  0  0  0  0  0  0  0  0  0  0
   -3.6360   22.7180  -31.0240 N   0  0  0  0  0  0  0  0  0  0  0  0
   -3.3130   21.9540  -32.2380 C   0  0  0  0  0  0  0  0  0  0  0  0
   -4.4400   20.9570  -32.5340 C   0  0  0  0  0  0  0  0  0  0  0  0
   -5.7630   21.5740  -32.3460 N   0  0  0  0  0  0  0  0  0  0  0  0
   -6.9410   20.7440  -32.3540 C   0  0  0  0  0  0  0  0  0  0  0  0
   -6.8530   19.3830  -32.6950 C   0  0  0  0  0  0  0  0  0  0  0  0
   -7.9990   18.5830  -32.7150 C   0  0  0  0  0  0  0  0  0  0  0  0
   -9.2430   19.1340  -32.3970 C   0  0  0  0  0  0  0  0  0  0  0  0
   -9.3440   20.4870  -32.0640 C   0  0  0  0  0  0  0  0  0  0  0  0
   -8.2000   21.2910  -32.0430 C   0  0  0  0  0  0  0  0  0  0  0  0
   -5.8630   23.0160  -32.0810 C   0  0  0  0  0  0  0  0  0  0  0  0
   -4.9380   23.3950  -30.9190 C   0  0  0  0  0  0  0  0  0  0  0  0
   -2.2340   24.0090  -29.3630 C   0  0  0  0  0  0  0  0  0  0  0  0
   -2.6300   25.2980  -29.7080 O   0  0  0  0  0  0  0  0  0  0  0  0
   -1.1820   25.9630  -27.3780 C   0  0  0  0  0  0  0  0  0  0  0  0
   -1.1595   30.3261  -24.1556 H   0  0  0  0  0  0  0  0  0  0  0  0
   -0.8653   31.3634  -25.5922 H   0  0  0  0  0  0  0  0  0  0  0  0
   -2.2298   30.1952  -25.5922 H   0  0  0  0  0  0  0  0  0  0  0  0
    0.2823   29.7303  -26.6800 H   0  0  0  0  0  0  0  0  0  0  0  0
    0.4050   28.9571  -25.0517 H   0  0  0  0  0  0  0  0  0  0  0  0
    1.2022   27.2635  -25.2976 H   0  0  0  0  0  0  0  0  0  0  0  0
    2.1755   24.9967  -25.6550 H   0  0  0  0  0  0  0  0  0  0  0  0
    1.0050   23.3457  -27.1088 H   0  0  0  0  0  0  0  0  0  0  0  0
    0.6850   21.5300  -27.8920 H   0  0  0  0  0  0  0  0  0  0  0  0
   -2.0988   20.7249  -29.5705 H   0  0  0  0  0  0  0  0  0  0  0  0
   -3.2032   22.6449  -33.0869 H   0  0  0  0  0  0  0  0  0  0  0  0
   -2.3716   21.4060  -32.0849 H   0  0  0  0  0  0  0  0  0  0  0  0
   -4.3498   20.6129  -33.5749 H   0  0  0  0  0  0  0  0  0  0  0  0
   -4.3485   20.1122  -31.8355 H   0  0  0  0  0  0  0  0  0  0  0  0
   -5.8761   18.9449  -32.9477 H   0  0  0  0  0  0  0  0  0  0  0  0
   -7.9214   17.5186  -32.9814 H   0  0  0  0  0  0  0  0  0  0  0  0
  -10.1433   18.5021  -32.4089 H   0  0  0  0  0  0  0  0  0  0  0  0
  -10.3246   20.9204  -31.8180 H   0  0  0  0  0  0  0  0  0  0  0  0
   -8.2845   22.3563  -31.7821 H   0  0  0  0  0  0  0  0  0  0  0  0
   -5.5663   23.5743  -32.9812 H   0  0  0  0  0  0  0  0  0  0  0  0
   -6.9009   23.2657  -31.8157 H   0  0  0  0  0  0  0  0  0  0  0  0
   -4.7771   24.4831  -30.9303 H   0  0  0  0  0  0  0  0  0  0  0  0
   -5.4163   23.0799  -29.9799 H   0  0  0  0  0  0  0  0  0  0  0  0
   -2.1289   26.2359  -27.8667 H   0  0  0  0  0  0  0  0  0  0  0  0
  1  2  1  0
  2  3  1  0
  3  4  1  0
  4  5  2  0
  5  6  1  0
  6  7  2  0
  7  8  1  0
  8  9  1  0
  9 10  1  0
 10 11  1  0
 10 12  2  0
 12 13  1  0
 13 14  1  0
 14 15  1  0
 15 16  1  0
 16 17  1  0
 17 18  1  0
 18 19  2  0
 19 20  1  0
 20 21  2  0
 21 22  1  0
 22 23  2  0
 17 24  1  0
 24 25  1  0
 13 26  2  0
 26 27  1  0
  8 28  2  0
 28  4  1  0
 26  9  1  0
 25 14  1  0
 23 18  1  0
  1 29  1  0
  1 30  1  0
  1 31  1  0
  2 32  1  0
  2 33  1  0
  5 34  1  0
  6 35  1  0
  7 36  1  0
 11 37  1  0
 12 38  1  0
 15 39  1  0
 15 40  1  0
 16 41  1  0
 16 42  1  0
 19 43  1  0
 20 44  1  0
 21 45  1  0
 22 46  1  0
 23 47  1  0
 24 48  1  0
 24 49  1  0
 25 50  1  0
 25 51  1  0
 28 52  1  0
M  CHG  1  27  -1
M  END
>  <UniqueID>  (22) 
21

>  <SMILES>  (22) 
CCOc1cccc(-n2c(O)cc(N3CCN(c4ccccc4)CC3)c2[O-])c1

>  <Energy>  (22) 
95.68412316362141

>  <Genealogy>  (22) 
CCOc1cccc(-n2c(O)cc(N3CCN(c4ccccc4)CC3)c2[O-])c1 (protonated)
CCOc1cccc(-n2c(O)cc(N3CCN(c4ccccc4)CC3)c2[O-])c1 (3D coordinates assigned)
CCOc1cccc(-n2c(O)cc(N3CCN(c4ccccc4)CC3)c2[O-])c1 (nonaromatic ring conformer: 95.68412316362141 kcal/mol)

>  <smiles>  (22) 
CCOc1cccc(-n2c(O)cc(N3CCN(c4ccccc4)CC3)c2O)c1

>  <score_type>  (22) 
oracle

>  <origin>  (22) 
adgpu

>  <m_score__min__energy>  (22) 
-10.51

>  <m_primary>  (22) 
energy

$$$$
22:0
     RDKit          3D

 42 43  0  0  0  0  0  0  0  0999 V2000
   -6.8250   17.1800  -33.2190 C   0  0  0  0  0  0  0  0  0  0  0  0
   -6.9040   18.6380  -32.8740 C   0  0  0  0  0  0  0  0  0  0  0  0
   -5.7850   19.4550  -33.0690 C   0  0  0  0  0  0  0  0  0  0  0  0
   -5.8450   20.8180  -32.7770 C   0  0  0  0  0  0  0  0  0  0  0  0
   -7.0300   21.3940  -32.2920 C   0  0  0  0  0  0  0  0  0  0  0  0
   -7.0730   23.1380  -31.9800 S   0  0  0  0  0  0  0  0  0  0  0  0
   -5.9670   23.8020  -32.7520 O   0  0  0  0  0  0  0  0  0  0  0  0
   -8.3820   23.7170  -32.4520 O   0  0  0  0  0  0  0  0  0  0  0  0
   -6.8430   23.4220  -30.2740 N   0  0  0  0  0  0  0  0  0  0  0  0
   -6.8820   24.8480  -29.9320 C   0  0  0  0  0  0  0  0  0  0  0  0
   -5.4790   25.4630  -29.8920 C   0  0  0  0  0  0  0  0  0  0  0  0
   -4.4480   24.4290  -29.7890 N   0  0  0  0  0  0  0  0  0  0  0  0
   -3.9510   23.8000  -30.8460 N   0  0  0  0  0  0  0  0  0  0  0  0
   -3.0000   22.9540  -30.4070 C   0  0  0  0  0  0  0  0  0  0  0  0
   -2.1350   22.1410  -31.3090 C   0  0  0  0  0  0  0  0  0  0  0  0
   -2.8640   23.0650  -29.0350 C   0  0  0  0  0  0  0  0  0  0  0  0
   -3.8120   24.0000  -28.6740 C   0  0  0  0  0  0  0  0  0  0  0  0
   -3.9990   24.5410  -27.2900 C   0  0  0  0  0  0  0  0  0  0  0  0
   -8.1720   20.5750  -32.0990 C   0  0  0  0  0  0  0  0  0  0  0  0
   -9.4890   21.1400  -31.6210 C   0  0  0  0  0  0  0  0  0  0  0  0
   -8.0910   19.1990  -32.3830 C   0  0  0  0  0  0  0  0  0  0  0  0
   -6.7928   16.5856  -32.2940 H   0  0  0  0  0  0  0  0  0  0  0  0
   -7.7090   16.8942  -33.8080 H   0  0  0  0  0  0  0  0  0  0  0  0
   -5.9153   16.9913  -33.8080 H   0  0  0  0  0  0  0  0  0  0  0  0
   -4.8515   19.0197  -33.4552 H   0  0  0  0  0  0  0  0  0  0  0  0
   -4.9555   21.4472  -32.9282 H   0  0  0  0  0  0  0  0  0  0  0  0
   -5.8900   23.0610  -30.0320 H   0  0  0  0  0  0  0  0  0  0  0  0
   -7.4818   25.3786  -30.6861 H   0  0  0  0  0  0  0  0  0  0  0  0
   -7.3271   24.9471  -28.9310 H   0  0  0  0  0  0  0  0  0  0  0  0
   -5.3151   26.0420  -30.8128 H   0  0  0  0  0  0  0  0  0  0  0  0
   -5.4095   26.1122  -29.0067 H   0  0  0  0  0  0  0  0  0  0  0  0
   -1.4651   21.5113  -30.7051 H   0  0  0  0  0  0  0  0  0  0  0  0
   -2.7660   21.5015  -31.9437 H   0  0  0  0  0  0  0  0  0  0  0  0
   -1.5358   22.8104  -31.9437 H   0  0  0  0  0  0  0  0  0  0  0  0
   -2.1602   22.5297  -28.3807 H   0  0  0  0  0  0  0  0  0  0  0  0
   -3.7317   23.7677  -26.5548 H   0  0  0  0  0  0  0  0  0  0  0  0
   -3.3525   25.4198  -27.1494 H   0  0  0  0  0  0  0  0  0  0  0  0
   -5.0502   24.8329  -27.1494 H   0  0  0  0  0  0  0  0  0  0  0  0
   -9.5071   21.1478  -30.5212 H   0  0  0  0  0  0  0  0  0  0  0  0
   -9.6053   22.1672  -31.9969 H   0  0  0  0  0  0  0  0  0  0  0  0
  -10.3135   20.5164  -31.9969 H   0  0  0  0  0  0  0  0  0  0  0  0
   -8.9687   18.5568  -32.2179 H   0  0  0  0  0  0  0  0  0  0  0  0
  1  2  1  0
  2  3  2  0
  3  4  1  0
  4  5  2  0
  5  6  1  0
  6  7  2  0
  6  8  2  0
  6  9  1  0
  9 10  1  0
 10 11  1  0
 11 12  1  0
 12 13  1  0
 13 14  2  0
 14 15  1  0
 14 16  1  0
 16 17  2  0
 17 18  1  0
  5 19  1  0
 19 20  1  0
 19 21  2  0
 21  2  1  0
 17 12  1  0
  1 22  1  0
  1 23  1  0
  1 24  1  0
  3 25  1  0
  4 26  1  0
  9 27  1  0
 10 28  1  0
 10 29  1  0
 11 30  1  0
 11 31  1  0
 15 32  1  0
 15 33  1  0
 15 34  1  0
 16 35  1  0
 18 36  1  0
 18 37  1  0
 18 38  1  0
 20 39  1  0
 20 40  1  0
 20 41  1  0
 21 42  1  0
M  END
>  <UniqueID>  (23) 
22

>  <SMILES>  (23) 
Cc1ccc(S(=O)(=O)NCCn2nc(C)cc2C)c(C)c1

>  <Energy>  (23) 
63.491485729021875

>  <Genealogy>  (23) 
Cc1ccc(S(=O)(=O)NCCn2nc(C)cc2C)c(C)c1 (3D coordinates assigned)
Cc1ccc(S(=O)(=O)NCCn2nc(C)cc2C)c(C)c1 (optimized conformer: 63.491485729021875 kcal/mol)

>  <smiles>  (23) 
Cc1ccc(S(=O)(=O)NCCn2nc(C)cc2C)c(C)c1

>  <score_type>  (23) 
oracle

>  <origin>  (23) 
adgpu

>  <m_score__min__energy>  (23) 
-8.2699999999999996

>  <m_primary>  (23) 
energy

$$$$
23:0
     RDKit          3D

 59 62  0  0  0  0  0  0  0  0999 V2000
    0.3110   27.0720  -28.2120 H   0  0  0  0  0  0  0  0  0  0  0  0
    0.2510   26.1350  -27.7540 N   0  0  0  0  0  0  0  0  0  0  0  0
   -0.6900   25.3010  -28.0470 C   0  0  0  0  0  0  0  0  0  0  0  0
   -0.7320   24.0920  -27.4330 N   0  0  0  0  0  0  0  0  0  0  0  0
   -1.7230   23.2100  -27.7270 C   0  0  0  0  0  0  0  0  0  0  0  0
   -1.7190   21.8420  -27.1010 C   0  0  0  0  0  0  0  0  0  0  0  0
   -0.7513   21.6824  -26.6028 H   0  0  0  0  0  0  0  0  0  0  0  0
   -2.5499   21.7956  -26.3816 H   0  0  0  0  0  0  0  0  0  0  0  0
   -1.9230   20.7690  -28.1060 N   0  0  0  0  0  0  0  0  0  0  0  0
   -0.7290   20.5960  -28.9810 C   0  0  0  0  0  0  0  0  0  0  0  0
   -0.8724   21.1972  -29.8910 H   0  0  0  0  0  0  0  0  0  0  0  0
    0.1490   20.9223  -28.4042 H   0  0  0  0  0  0  0  0  0  0  0  0
   -0.4870   19.1340  -29.3940 C   0  0  0  0  0  0  0  0  0  0  0  0
   -1.3436   18.7877  -29.9909 H   0  0  0  0  0  0  0  0  0  0  0  0
    0.4461   19.0965  -29.9753 H   0  0  0  0  0  0  0  0  0  0  0  0
   -0.3300   18.2420  -28.2220 N   0  0  0  0  0  0  0  0  0  0  0  0
    1.0850   18.0940  -27.8420 C   0  0  0  0  0  0  0  0  0  0  0  0
    1.1712   18.0850  -26.7454 H   0  0  0  0  0  0  0  0  0  0  0  0
    1.4770   17.1500  -28.2484 H   0  0  0  0  0  0  0  0  0  0  0  0
    1.6638   18.9365  -28.2484 H   0  0  0  0  0  0  0  0  0  0  0  0
   -1.1470   18.6420  -27.0520 C   0  0  0  0  0  0  0  0  0  0  0  0
   -1.5128   17.7357  -26.5471 H   0  0  0  0  0  0  0  0  0  0  0  0
   -0.5126   19.2406  -26.3818 H   0  0  0  0  0  0  0  0  0  0  0  0
   -2.3520   19.5030  -27.4620 C   0  0  0  0  0  0  0  0  0  0  0  0
   -2.9729   18.9345  -28.1701 H   0  0  0  0  0  0  0  0  0  0  0  0
   -2.9213   19.7535  -26.5547 H   0  0  0  0  0  0  0  0  0  0  0  0
   -2.6530   23.5410  -28.6580 N   0  0  0  0  0  0  0  0  0  0  0  0
   -2.6140   24.7460  -29.2850 C   0  0  0  0  0  0  0  0  0  0  0  0
   -3.5280   25.0900  -30.1460 N   0  0  0  0  0  0  0  0  0  0  0  0
   -4.6290   24.2900  -30.6090 C   0  0  0  0  0  0  0  0  0  0  0  0
   -5.9180   24.5960  -30.1510 C   0  0  0  0  0  0  0  0  0  0  0  0
   -6.0647   25.4341  -29.4538 H   0  0  0  0  0  0  0  0  0  0  0  0
   -7.0180   23.8450  -30.5730 C   0  0  0  0  0  0  0  0  0  0  0  0
   -8.0256   24.1002  -30.2130 H   0  0  0  0  0  0  0  0  0  0  0  0
   -6.8440   22.7690  -31.4520 C   0  0  0  0  0  0  0  0  0  0  0  0
   -7.9920   22.0200  -31.8720 N   0  0  0  0  0  0  0  0  0  0  0  0
   -7.9640   20.6670  -32.3380 C   0  0  0  0  0  0  0  0  0  0  0  0
   -8.9970   20.1820  -32.8690 O   0  0  0  0  0  0  0  0  0  0  0  0
   -6.8080   19.8430  -32.1180 N   0  0  0  0  0  0  0  0  0  0  0  0
   -6.1630   20.1080  -31.3390 H   0  0  0  0  0  0  0  0  0  0  0  0
   -6.5570   18.6140  -32.8190 C   0  0  0  0  0  0  0  0  0  0  0  0
   -7.4360   17.5220  -32.7110 C   0  0  0  0  0  0  0  0  0  0  0  0
   -8.3213   17.5926  -32.0620 H   0  0  0  0  0  0  0  0  0  0  0  0
   -7.1880   16.3470  -33.4260 C   0  0  0  0  0  0  0  0  0  0  0  0
   -7.8712   15.4907  -33.3267 H   0  0  0  0  0  0  0  0  0  0  0  0
   -6.0760   16.2560  -34.2660 C   0  0  0  0  0  0  0  0  0  0  0  0
   -5.8796   15.3244  -34.8170 H   0  0  0  0  0  0  0  0  0  0  0  0
   -5.2090   17.3490  -34.4090 C   0  0  0  0  0  0  0  0  0  0  0  0
   -4.0070   17.2540  -35.2990 C   0  0  0  0  0  0  0  0  0  0  0  0
   -3.0989   17.1822  -34.6823 H   0  0  0  0  0  0  0  0  0  0  0  0
   -4.0907   16.3597  -35.9340 H   0  0  0  0  0  0  0  0  0  0  0  0
   -3.9491   18.1504  -35.9340 H   0  0  0  0  0  0  0  0  0  0  0  0
   -5.4480   18.5210  -33.6740 C   0  0  0  0  0  0  0  0  0  0  0  0
   -4.7599   19.3740  -33.7691 H   0  0  0  0  0  0  0  0  0  0  0  0
   -5.5640   22.4960  -31.9600 C   0  0  0  0  0  0  0  0  0  0  0  0
   -5.4246   21.6768  -32.6808 H   0  0  0  0  0  0  0  0  0  0  0  0
   -4.4670   23.2590  -31.5550 C   0  0  0  0  0  0  0  0  0  0  0  0
   -3.4719   23.0541  -31.9766 H   0  0  0  0  0  0  0  0  0  0  0  0
   -1.6330   25.6270  -28.9700 N   0  0  0  0  0  0  0  0  0  0  0  0
  1  2  1  0
  2  3  2  0
  3  4  1  0
  4  5  2  0
  5  6  1  0
  6  7  1  0
  6  8  1  0
  6  9  1  0
  9 10  1  0
 10 11  1  0
 10 12  1  0
 10 13  1  0
 13 14  1  0
 13 15  1  0
 13 16  1  0
 16 17  1  0
 17 18  1  0
 17 19  1  0
 17 20  1  0
 16 21  1  0
 21 22  1  0
 21 23  1  0
 21 24  1  0
 24 25  1  0
 24 26  1  0
  5 27  1  0
 27 28  1  0
 28 29  2  3
 29 30  1  0
 30 31  2  0
 31 32  1  0
 31 33  1  0
 33 34  1  0
 33 35  2  0
 35 36  1  0
 36 37  1  0
 37 38  2  0
 37 39  1  0
 39 40  1  0
 39 41  1  0
 41 42  2  0
 42 43  1  0
 42 44  1  0
 44 45  1  0
 44 46  2  0
 46 47  1  0
 46 48  1  0
 48 49  1  0
 49 50  1  0
 49 51  1  0
 49 52  1  0
 48 53  2  0
 53 54  1  0
 35 55  1  0
 55 56  1  0
 55 57  2  0
 57 58  1  0
 28 59  1  0
 59  3  1  0
 24  9  1  0
 57 30  1  0
 53 41  1  0
M  CHG  3  27  -1  36  -1  59  -1
M  END
>  <UniqueID>  (24) 
23

>  <SMILES>  (24) 
[H]/N=c1/nc(CN2CCN(C)CC2)[n-]c(=Nc2ccc([N-]C(=O)Nc3cccc(C)c3)cc2)[n-]1

>  <Energy>  (24) 
84.41349655350425

>  <Genealogy>  (24) 
Cc1cccc(NC(=O)[N-]c2ccc(N=c3[n-]c(CN4CCN(C)CC4)nc(=N)[n-]3)cc2)c1 (protonated)
[H]/N=c1/nc(CN2CCN(C)CC2)[n-]c(=Nc2ccc([N-]C(=O)Nc3cccc(C)c3)cc2)[n-]1 (cis-trans isomerization)
[H]/N=c1/nc(CN2CCN(C)CC2)[n-]c(=Nc2ccc([N-]C(=O)Nc3cccc(C)c3)cc2)[n-]1 (3D coordinates assigned)
[H]/N=c1/nc(CN2CCN(C)CC2)[n-]c(=Nc2ccc([N-]C(=O)Nc3cccc(C)c3)cc2)[n-]1 (nonaromatic ring conformer: 84.41349655350425 kcal/mol)

>  <smiles>  (24) 
Cc1cccc(NC(=O)Nc2ccc(N=c3[nH]c(CN4CCN(C)CC4)nc(=N)[nH]3)cc2)c1

>  <score_type>  (24) 
oracle

>  <origin>  (24) 
adgpu

>  <m_score__min__energy>  (24) 
-12.369999999999999

>  <m_primary>  (24) 
energy

$$$$
24:0
     RDKit          3D

 66 70  0  0  0  0  0  0  0  0999 V2000
   -7.1230   23.3290  -30.1010 C   0  0  0  0  0  0  0  0  0  0  0  0
   -6.3190   22.2580  -30.7800 C   0  0  0  0  0  0  0  0  0  0  0  0
   -4.9370   22.1650  -30.8080 C   0  0  0  0  0  0  0  0  0  0  0  0
   -4.0040   23.0560  -30.1800 N   0  0  0  0  0  0  0  0  0  0  0  0
   -4.0430   24.4800  -30.3360 C   0  0  0  0  0  0  0  0  0  0  0  0
   -4.8260   25.0130  -31.1670 O   0  0  0  0  0  0  0  0  0  0  0  0
   -3.1760   25.2940  -29.5380 N   0  0  0  0  0  0  0  0  0  0  0  0
   -2.5150   24.8730  -28.3350 C   0  0  0  0  0  0  0  0  0  0  0  0
   -3.1080   25.1570  -27.0990 C   0  0  0  0  0  0  0  0  0  0  0  0
   -2.4480   24.8400  -25.9080 C   0  0  0  0  0  0  0  0  0  0  0  0
   -1.1770   24.2580  -25.9440 C   0  0  0  0  0  0  0  0  0  0  0  0
   -0.5660   23.9810  -27.1740 C   0  0  0  0  0  0  0  0  0  0  0  0
    1.0860   23.3700  -27.2540 S   0  0  0  0  0  0  0  0  0  0  0  0
    1.7320   23.4560  -25.8990 O   0  0  0  0  0  0  0  0  0  0  0  0
    1.8900   24.1850  -28.2290 O   0  0  0  0  0  0  0  0  0  0  0  0
    1.0400   21.7240  -27.7910 N   0  0  0  0  0  0  0  0  0  0  0  0
   -0.1980   21.0110  -27.8420 C   0  0  0  0  0  0  0  0  0  0  0  0
   -0.6400   20.2940  -26.7210 C   0  0  0  0  0  0  0  0  0  0  0  0
   -1.8960   19.6820  -26.7290 C   0  0  0  0  0  0  0  0  0  0  0  0
   -2.7140   19.7760  -27.8580 C   0  0  0  0  0  0  0  0  0  0  0  0
   -2.2780   20.4870  -28.9810 C   0  0  0  0  0  0  0  0  0  0  0  0
   -1.0200   21.1030  -28.9790 C   0  0  0  0  0  0  0  0  0  0  0  0
   -0.5120   22.0810  -30.3970 S   0  0  0  0  0  0  0  0  0  0  0  0
   -0.6180   20.6900  -31.5240 C   0  0  0  0  0  0  0  0  0  0  0  0
   -0.3130   19.3980  -31.0740 C   0  0  0  0  0  0  0  0  0  0  0  0
   -0.3950   18.3140  -31.9530 C   0  0  0  0  0  0  0  0  0  0  0  0
   -0.7840   18.5170  -33.2820 C   0  0  0  0  0  0  0  0  0  0  0  0
   -1.0940   19.8040  -33.7320 C   0  0  0  0  0  0  0  0  0  0  0  0
   -1.0170   20.8910  -32.8550 C   0  0  0  0  0  0  0  0  0  0  0  0
   -1.2410   24.2820  -28.3640 C   0  0  0  0  0  0  0  0  0  0  0  0
   -4.6730   20.9970  -31.4980 C   0  0  0  0  0  0  0  0  0  0  0  0
   -3.5350   20.5070  -31.7260 O   0  0  0  0  0  0  0  0  0  0  0  0
   -5.8370   20.4300  -31.8790 N   0  0  0  0  0  0  0  0  0  0  0  0
   -5.9740   19.2260  -32.6530 C   0  0  0  0  0  0  0  0  0  0  0  0
   -6.4240   18.0420  -32.0490 C   0  0  0  0  0  0  0  0  0  0  0  0
   -6.5530   16.8710  -32.8010 C   0  0  0  0  0  0  0  0  0  0  0  0
   -6.2220   16.8720  -34.1590 C   0  0  0  0  0  0  0  0  0  0  0  0
   -5.7600   18.0430  -34.7650 C   0  0  0  0  0  0  0  0  0  0  0  0
   -5.6340   19.2160  -34.0150 C   0  0  0  0  0  0  0  0  0  0  0  0
   -6.8380   21.1840  -31.4250 N   0  0  0  0  0  0  0  0  0  0  0  0
   -8.2630   20.8820  -31.5830 C   0  0  0  0  0  0  0  0  0  0  0  0
   -7.0378   23.2155  -29.0102 H   0  0  0  0  0  0  0  0  0  0  0  0
   -6.7418   24.3173  -30.3977 H   0  0  0  0  0  0  0  0  0  0  0  0
   -8.1784   23.2389  -30.3977 H   0  0  0  0  0  0  0  0  0  0  0  0
   -3.3710   22.6680  -29.4430 H   0  0  0  0  0  0  0  0  0  0  0  0
   -4.0993   25.6325  -27.0647 H   0  0  0  0  0  0  0  0  0  0  0  0
   -2.9292   25.0487  -24.9411 H   0  0  0  0  0  0  0  0  0  0  0  0
   -0.6563   24.0174  -25.0054 H   0  0  0  0  0  0  0  0  0  0  0  0
    0.0039   20.2131  -25.8328 H   0  0  0  0  0  0  0  0  0  0  0  0
   -2.2414   19.1254  -25.8453 H   0  0  0  0  0  0  0  0  0  0  0  0
   -3.7011   19.2907  -27.8637 H   0  0  0  0  0  0  0  0  0  0  0  0
   -2.9246   20.5625  -29.8677 H   0  0  0  0  0  0  0  0  0  0  0  0
   -0.0091   19.2370  -30.0291 H   0  0  0  0  0  0  0  0  0  0  0  0
   -0.1536   17.3006  -31.5998 H   0  0  0  0  0  0  0  0  0  0  0  0
   -0.8459   17.6634  -33.9730 H   0  0  0  0  0  0  0  0  0  0  0  0
   -1.3988   19.9619  -34.7771 H   0  0  0  0  0  0  0  0  0  0  0  0
   -1.2687   21.9020  -33.2077 H   0  0  0  0  0  0  0  0  0  0  0  0
   -0.7687   24.0533  -29.3308 H   0  0  0  0  0  0  0  0  0  0  0  0
   -6.6765   18.0355  -30.9784 H   0  0  0  0  0  0  0  0  0  0  0  0
   -6.9151   15.9483  -32.3240 H   0  0  0  0  0  0  0  0  0  0  0  0
   -6.3253   15.9505  -34.7508 H   0  0  0  0  0  0  0  0  0  0  0  0
   -5.4953   18.0420  -35.8327 H   0  0  0  0  0  0  0  0  0  0  0  0
   -5.2667   20.1354  -34.4943 H   0  0  0  0  0  0  0  0  0  0  0  0
   -8.7290   20.7832  -30.5915 H   0  0  0  0  0  0  0  0  0  0  0  0
   -8.7511   21.6966  -32.1381 H   0  0  0  0  0  0  0  0  0  0  0  0
   -8.3787   19.9394  -32.1381 H   0  0  0  0  0  0  0  0  0  0  0  0
  1  2  1  0
  2  3  2  0
  3  4  1  0
  4  5  1  0
  5  6  2  0
  5  7  1  0
  7  8  1  0
  8  9  2  0
  9 10  1  0
 10 11  2  0
 11 12  1  0
 12 13  1  0
 13 14  2  0
 13 15  2  0
 13 16  1  0
 16 17  1  0
 17 18  2  0
 18 19  1  0
 19 20  2  0
 20 21  1  0
 21 22  2  0
 22 23  1  0
 23 24  1  0
 24 25  2  0
 25 26  1  0
 26 27  2  0
 27 28  1  0
 28 29  2  0
 12 30  2  0
  3 31  1  0
 31 32  2  0
 31 33  1  0
 33 34  1  0
 34 35  2  0
 35 36  1  0
 36 37  2  0
 37 38  1  0
 38 39  2  0
 33 40  1  0
 40 41  1  0
 40  2  1  0
 30  8  1  0
 39 34  1  0
 22 17  1  0
 29 24  1  0
  1 42  1  0
  1 43  1  0
  1 44  1  0
  4 45  1  0
  9 46  1  0
 10 47  1  0
 11 48  1  0
 18 49  1  0
 19 50  1  0
 20 51  1  0
 21 52  1  0
 25 53  1  0
 26 54  1  0
 27 55  1  0
 28 56  1  0
 29 57  1  0
 30 58  1  0
 35 59  1  0
 36 60  1  0
 37 61  1  0
 38 62  1  0
 39 63  1  0
 41 64  1  0
 41 65  1  0
 41 66  1  0
M  CHG  2   7  -1  16  -1
M  END
>  <UniqueID>  (25) 
24

>  <SMILES>  (25) 
Cc1c(NC(=O)[N-]c2cccc(S(=O)(=O)[N-]c3ccccc3Sc3ccccc3)c2)c(=O)n(-c2ccccc2)n1C

>  <Energy>  (25) 
122.04764273761087

>  <Genealogy>  (25) 
Cc1c(NC(=O)[N-]c2cccc(S(=O)(=O)[N-]c3ccccc3Sc3ccccc3)c2)c(=O)n(-c2ccccc2)n1C (protonated)
Cc1c(NC(=O)[N-]c2cccc(S(=O)(=O)[N-]c3ccccc3Sc3ccccc3)c2)c(=O)n(-c2ccccc2)n1C (3D coordinates assigned)
Cc1c(NC(=O)[N-]c2cccc(S(=O)(=O)[N-]c3ccccc3Sc3ccccc3)c2)c(=O)n(-c2ccccc2)n1C (optimized conformer: 122.04764273761087 kcal/mol)

>  <smiles>  (25) 
Cc1c(NC(=O)Nc2cccc(S(=O)(=O)Nc3ccccc3Sc3ccccc3)c2)c(=O)n(-c2ccccc2)n1C

>  <score_type>  (25) 
oracle

>  <origin>  (25) 
adgpu

>  <m_score__min__energy>  (25) 
-13.369999999999999

>  <m_primary>  (25) 
energy

$$$$
25:0
     RDKit          3D

 29 30  0  0  0  0  0  0  0  0999 V2000
   -5.7670   26.1700  -30.4720 O   0  0  0  0  0  0  0  0  0  0  0  0
   -5.0730   24.8600  -30.2190 S   0  0  0  0  0  0  0  0  0  0  0  0
   -3.6790   24.9530  -30.7740 O   0  0  0  0  0  0  0  0  0  0  0  0
   -4.9810   24.5630  -28.5090 N   0  0  0  0  0  0  0  0  0  0  0  0
   -3.8410   23.6940  -28.2140 C   0  0  0  0  0  0  0  0  0  0  0  0
   -2.6650   24.5310  -27.7950 C   0  0  0  0  0  0  0  0  0  0  0  0
   -2.6470   25.1650  -26.5440 C   0  0  0  0  0  0  0  0  0  0  0  0
   -1.5320   25.9090  -26.1550 C   0  0  0  0  0  0  0  0  0  0  0  0
   -0.4370   26.0020  -27.0160 C   0  0  0  0  0  0  0  0  0  0  0  0
   -0.4610   25.3680  -28.2190 N   0  0  0  0  0  0  0  0  0  0  0  0
   -1.5350   24.6390  -28.6210 C   0  0  0  0  0  0  0  0  0  0  0  0
   -5.9280   23.5440  -31.0290 C   0  0  0  0  0  0  0  0  0  0  0  0
   -7.3260   23.4720  -30.9380 C   0  0  0  0  0  0  0  0  0  0  0  0
   -8.0230   22.4470  -31.5840 C   0  0  0  0  0  0  0  0  0  0  0  0
   -7.3300   21.4900  -32.3300 C   0  0  0  0  0  0  0  0  0  0  0  0
   -5.9380   21.5600  -32.4340 C   0  0  0  0  0  0  0  0  0  0  0  0
   -5.2340   22.5840  -31.7880 C   0  0  0  0  0  0  0  0  0  0  0  0
   -3.8860   22.6410  -31.9190 F   0  0  0  0  0  0  0  0  0  0  0  0
   -4.8140   25.4880  -28.0500 H   0  0  0  0  0  0  0  0  0  0  0  0
   -4.1077   23.0037  -27.4002 H   0  0  0  0  0  0  0  0  0  0  0  0
   -3.5779   23.1181  -29.1135 H   0  0  0  0  0  0  0  0  0  0  0  0
   -3.5114   25.0759  -25.8696 H   0  0  0  0  0  0  0  0  0  0  0  0
   -1.5162   26.4171  -25.1795 H   0  0  0  0  0  0  0  0  0  0  0  0
    0.4457   26.5884  -26.7212 H   0  0  0  0  0  0  0  0  0  0  0  0
   -1.5189   24.1318  -29.5969 H   0  0  0  0  0  0  0  0  0  0  0  0
   -7.8763   24.2257  -30.3556 H   0  0  0  0  0  0  0  0  0  0  0  0
   -9.1189   22.3936  -31.5050 H   0  0  0  0  0  0  0  0  0  0  0  0
   -7.8797   20.6821  -32.8351 H   0  0  0  0  0  0  0  0  0  0  0  0
   -5.3938   20.8086  -33.0250 H   0  0  0  0  0  0  0  0  0  0  0  0
  1  2  2  0
  2  3  2  0
  2  4  1  0
  4  5  1  0
  5  6  1  0
  6  7  2  0
  7  8  1  0
  8  9  2  0
  9 10  1  0
 10 11  2  0
  2 12  1  0
 12 13  2  0
 13 14  1  0
 14 15  2  0
 15 16  1  0
 16 17  2  0
 17 18  1  0
 11  6  1  0
 17 12  1  0
  4 19  1  0
  5 20  1  0
  5 21  1  0
  7 22  1  0
  8 23  1  0
  9 24  1  0
 11 25  1  0
 13 26  1  0
 14 27  1  0
 15 28  1  0
 16 29  1  0
M  END
>  <UniqueID>  (26) 
25

>  <SMILES>  (26) 
O=S(=O)(NCc1cccnc1)c1ccccc1F

>  <Energy>  (26) 
28.208584822877594

>  <Genealogy>  (26) 
O=S(=O)(NCc1cccnc1)c1ccccc1F (3D coordinates assigned)
O=S(=O)(NCc1cccnc1)c1ccccc1F (optimized conformer: 28.208584822877594 kcal/mol)

>  <smiles>  (26) 
O=S(=O)(NCc1cccnc1)c1ccccc1F

>  <score_type>  (26) 
oracle

>  <origin>  (26) 
adgpu

>  <m_score__min__energy>  (26) 
-7.6799999999999997

>  <m_primary>  (26) 
energy

$$$$
26:0
     RDKit          3D

 63 66  0  0  0  0  0  0  0  0999 V2000
   -8.8111   20.2728  -32.7906 H   0  0  0  0  0  0  0  0  0  0  0  0
   -8.1890   21.0520  -32.3260 C   0  0  0  0  0  0  0  0  0  0  0  0
   -8.7770   22.2310  -31.8650 C   0  0  0  0  0  0  0  0  0  0  0  0
   -9.8606   22.3842  -31.9762 H   0  0  0  0  0  0  0  0  0  0  0  0
   -7.9920   23.2160  -31.2630 C   0  0  0  0  0  0  0  0  0  0  0  0
   -8.4623   24.1419  -30.9005 H   0  0  0  0  0  0  0  0  0  0  0  0
   -6.6060   23.0350  -31.1160 C   0  0  0  0  0  0  0  0  0  0  0  0
   -5.6580   24.2830  -30.2930 S   0  0  0  0  0  0  0  0  0  0  0  0
   -4.9710   25.1430  -31.3180 O   0  0  0  0  0  0  0  0  0  0  0  0
   -6.5660   25.1250  -29.4430 O   0  0  0  0  0  0  0  0  0  0  0  0
   -4.4550   23.5470  -29.2870 N   0  0  0  0  0  0  0  0  0  0  0  0
   -3.2720   24.0550  -29.1320 C   0  0  0  0  0  0  0  0  0  0  0  0
   -2.8500   25.1590  -29.7030 O   0  0  0  0  0  0  0  0  0  0  0  0
   -1.6280   25.4260  -29.3370 N   0  0  0  0  0  0  0  0  0  0  0  0
   -1.2450   24.4440  -28.4920 C   0  0  0  0  0  0  0  0  0  0  0  0
    0.0820   24.4080  -27.8040 C   0  0  0  0  0  0  0  0  0  0  0  0
   -0.0696   24.4121  -26.7145 H   0  0  0  0  0  0  0  0  0  0  0  0
    0.6216   23.4949  -28.0957 H   0  0  0  0  0  0  0  0  0  0  0  0
    0.6703   25.2905  -28.0957 H   0  0  0  0  0  0  0  0  0  0  0  0
   -2.2730   23.5310  -28.3420 C   0  0  0  0  0  0  0  0  0  0  0  0
   -2.3430   22.3540  -27.4180 C   0  0  0  0  0  0  0  0  0  0  0  0
   -2.3222   22.7045  -26.3755 H   0  0  0  0  0  0  0  0  0  0  0  0
   -3.2757   21.7999  -27.6000 H   0  0  0  0  0  0  0  0  0  0  0  0
   -1.4826   21.6933  -27.6000 H   0  0  0  0  0  0  0  0  0  0  0  0
   -6.0090   21.8480  -31.6060 C   0  0  0  0  0  0  0  0  0  0  0  0
   -4.5560   21.6150  -31.5210 C   0  0  0  0  0  0  0  0  0  0  0  0
   -4.0220   20.8640  -30.4630 C   0  0  0  0  0  0  0  0  0  0  0  0
   -4.6893   20.4541  -29.6905 H   0  0  0  0  0  0  0  0  0  0  0  0
   -2.6470   20.6350  -30.3870 C   0  0  0  0  0  0  0  0  0  0  0  0
   -2.2359   20.0442  -29.5552 H   0  0  0  0  0  0  0  0  0  0  0  0
   -1.7860   21.1550  -31.3670 C   0  0  0  0  0  0  0  0  0  0  0  0
   -0.2970   20.8910  -31.3040 C   0  0  0  0  0  0  0  0  0  0  0  0
   -0.0690   20.3693  -30.3628 H   0  0  0  0  0  0  0  0  0  0  0  0
    0.2209   21.8599  -31.3596 H   0  0  0  0  0  0  0  0  0  0  0  0
    0.1720   20.0570  -32.4390 N   0  0  2  0  0  0  0  0  0  0  0  0
   -0.6670   19.6100  -32.8810 H   0  0  0  0  0  0  0  0  0  0  0  0
    1.0740   18.9560  -31.9830 C   0  0  0  0  0  0  0  0  0  0  0  0
    0.8374   18.0481  -32.5573 H   0  0  0  0  0  0  0  0  0  0  0  0
    0.9038   18.8152  -30.9054 H   0  0  0  0  0  0  0  0  0  0  0  0
    2.5610   19.2830  -32.1750 C   0  0  0  0  0  0  0  0  0  0  0  0
    3.1643   18.4366  -31.8150 H   0  0  0  0  0  0  0  0  0  0  0  0
    2.7944   20.1945  -31.6052 H   0  0  0  0  0  0  0  0  0  0  0  0
    2.8860   19.5370  -33.6570 C   0  0  0  0  0  0  0  0  0  0  0  0
    3.1579   18.5797  -34.1257 H   0  0  0  0  0  0  0  0  0  0  0  0
    3.7136   20.2607  -33.6941 H   0  0  0  0  0  0  0  0  0  0  0  0
    1.7010   20.1480  -34.4360 C   0  0  1  0  0  0  0  0  0  0  0  0
    2.0913   20.8449  -35.1923 H   0  0  0  0  0  0  0  0  0  0  0  0
    0.9510   19.0880  -35.1080 N   0  0  0  0  0  0  0  0  0  0  0  0
   -0.4630   18.9060  -34.9810 C   0  0  0  0  0  0  0  0  0  0  0  0
   -1.2370   19.9000  -34.9450 O   0  0  0  0  0  0  0  0  0  0  0  0
   -1.0230   17.5300  -34.8520 C   0  0  0  0  0  0  0  0  0  0  0  0
   -1.1269   17.2748  -33.7871 H   0  0  0  0  0  0  0  0  0  0  0  0
   -2.0095   17.4887  -35.3369 H   0  0  0  0  0  0  0  0  0  0  0  0
   -0.3457   16.8115  -35.3369 H   0  0  0  0  0  0  0  0  0  0  0  0
    0.7800   20.9300  -33.4800 C   0  0  0  0  0  0  0  0  0  0  0  0
   -0.0262   21.3943  -34.0669 H   0  0  0  0  0  0  0  0  0  0  0  0
    1.3923   21.6869  -32.9679 H   0  0  0  0  0  0  0  0  0  0  0  0
   -2.3210   21.9220  -32.4150 C   0  0  0  0  0  0  0  0  0  0  0  0
   -1.6533   22.3423  -33.1815 H   0  0  0  0  0  0  0  0  0  0  0  0
   -3.6970   22.1540  -32.4890 C   0  0  0  0  0  0  0  0  0  0  0  0
   -4.1074   22.7613  -33.3092 H   0  0  0  0  0  0  0  0  0  0  0  0
   -6.8130   20.8610  -32.1980 C   0  0  0  0  0  0  0  0  0  0  0  0
   -6.3546   19.9303  -32.5636 H   0  0  0  0  0  0  0  0  0  0  0  0
  1  2  1  0
  2  3  2  0
  3  4  1  0
  3  5  1  0
  5  6  1  0
  5  7  2  0
  7  8  1  0
  8  9  2  0
  8 10  2  0
  8 11  1  0
 11 12  2  0
 12 13  1  0
 13 14  1  0
 14 15  1  0
 15 16  1  0
 16 17  1  0
 16 18  1  0
 16 19  1  0
 15 20  2  0
 20 21  1  0
 21 22  1  0
 21 23  1  0
 21 24  1  0
  7 25  1  0
 25 26  1  0
 26 27  2  0
 27 28  1  0
 27 29  1  0
 29 30  1  0
 29 31  2  0
 31 32  1  0
 32 33  1  0
 32 34  1  0
 32 35  1  0
 35 36  1  6
 35 37  1  0
 37 38  1  0
 37 39  1  0
 37 40  1  0
 40 41  1  0
 40 42  1  0
 40 43  1  0
 43 44  1  0
 43 45  1  0
 43 46  1  0
 46 47  1  6
 46 48  1  0
 48 49  1  0
 49 50  2  0
 49 51  1  0
 51 52  1  0
 51 53  1  0
 51 54  1  0
 46 55  1  0
 55 56  1  0
 55 57  1  0
 31 58  1  0
 58 59  1  0
 58 60  2  0
 60 61  1  0
 25 62  2  0
 62 63  1  0
 62  2  1  0
 20 12  1  0
 60 26  1  0
 55 35  1  0
M  CHG  3  14  -1  35   1  48  -1
M  END
>  <UniqueID>  (27) 
26

>  <SMILES>  (27) 
CC(=O)[N-][C@@H]1CCC[N@@H+](Cc2ccc(-c3ccccc3S(=O)(=O)/N=c3\o[n-]c(C)c3C)cc2)C1

>  <Energy>  (27) 
112.8251949333751

>  <Genealogy>  (27) 
CC(=O)[N-]C1CCC[NH+](Cc2ccc(-c3ccccc3S(=O)(=O)N=c3o[n-]c(C)c3C)cc2)C1 (protonated)
CC(=O)[N-][C@@H]1CCC[N@@H+](Cc2ccc(-c3ccccc3S(=O)(=O)N=c3o[n-]c(C)c3C)cc2)C1 (chirality)
CC(=O)[N-][C@@H]1CCC[N@@H+](Cc2ccc(-c3ccccc3S(=O)(=O)/N=c3\o[n-]c(C)c3C)cc2)C1 (cis-trans isomerization)
CC(=O)[N-][C@@H]1CCC[N@@H+](Cc2ccc(-c3ccccc3S(=O)(=O)/N=c3\o[n-]c(C)c3C)cc2)C1 (3D coordinates assigned)
CC(=O)[N-][C@@H]1CCC[N@@H+](Cc2ccc(-c3ccccc3S(=O)(=O)/N=c3\o[n-]c(C)c3C)cc2)C1 (nonaromatic ring conformer: 112.8251949333751 kcal/mol)

>  <smiles>  (27) 
CC(=O)NC1CCCN(Cc2ccc(-c3ccccc3S(=O)(=O)N=c3o[nH]c(C)c3C)cc2)C1

>  <score_type>  (27) 
oracle

>  <origin>  (27) 
adgpu

>  <m_score__min__energy>  (27) 
-13.470000000000001

>  <m_primary>  (27) 
energy

$$$$
27:0
     RDKit          3D

 33 35  0  0  0  0  0  0  0  0999 V2000
   -9.1000   18.3720  -31.9360 C   0  0  0  0  0  0  0  0  0  0  0  0
   -9.1740   19.7630  -32.2250 O   0  0  0  0  0  0  0  0  0  0  0  0
   -8.1870   20.6980  -31.8740 C   0  0  0  0  0  0  0  0  0  0  0  0
   -8.3050   21.5340  -30.7480 C   0  0  0  0  0  0  0  0  0  0  0  0
   -7.2940   22.4500  -30.4420 C   0  0  0  0  0  0  0  0  0  0  0  0
   -6.1560   22.5470  -31.2540 C   0  0  0  0  0  0  0  0  0  0  0  0
   -5.1240   23.5010  -30.9480 N   0  0  0  0  0  0  0  0  0  0  0  0
   -3.7810   23.3260  -30.9410 C   0  0  0  0  0  0  0  0  0  0  0  0
   -3.0590   22.1280  -31.4250 C   0  0  0  0  0  0  0  0  0  0  0  0
   -2.4160   21.2830  -30.5040 C   0  0  0  0  0  0  0  0  0  0  0  0
   -1.7260   20.1520  -30.9480 C   0  0  0  0  0  0  0  0  0  0  0  0
   -1.6600   19.8600  -32.3120 C   0  0  0  0  0  0  0  0  0  0  0  0
   -2.2760   20.7030  -33.2400 C   0  0  0  0  0  0  0  0  0  0  0  0
   -2.1930   20.4060  -34.5990 O   0  0  0  0  0  0  0  0  0  0  0  0
   -2.9680   21.8400  -32.7990 C   0  0  0  0  0  0  0  0  0  0  0  0
   -3.1500   24.4110  -30.4460 N   0  0  0  0  0  0  0  0  0  0  0  0
   -4.0810   25.2970  -30.1300 N   0  0  0  0  0  0  0  0  0  0  0  0
   -5.2680   24.7430  -30.4370 C   0  0  0  0  0  0  0  0  0  0  0  0
   -6.7010   25.4660  -30.1070 S   0  0  0  0  0  0  0  0  0  0  0  0
   -6.0370   21.7110  -32.3750 C   0  0  0  0  0  0  0  0  0  0  0  0
   -7.0470   20.7960  -32.6810 C   0  0  0  0  0  0  0  0  0  0  0  0
   -9.0921   18.2239  -30.8460 H   0  0  0  0  0  0  0  0  0  0  0  0
   -9.9722   17.8606  -32.3692 H   0  0  0  0  0  0  0  0  0  0  0  0
   -8.1785   17.9560  -32.3692 H   0  0  0  0  0  0  0  0  0  0  0  0
   -9.1959   21.4665  -30.1063 H   0  0  0  0  0  0  0  0  0  0  0  0
   -7.3924   23.0983  -29.5588 H   0  0  0  0  0  0  0  0  0  0  0  0
   -2.4562   21.5131  -29.4291 H   0  0  0  0  0  0  0  0  0  0  0  0
   -1.2333   19.4897  -30.2210 H   0  0  0  0  0  0  0  0  0  0  0  0
   -1.1219   18.9645  -32.6563 H   0  0  0  0  0  0  0  0  0  0  0  0
   -1.9240   21.1080  -35.2790 H   0  0  0  0  0  0  0  0  0  0  0  0
   -3.4421   22.5102  -33.5311 H   0  0  0  0  0  0  0  0  0  0  0  0
   -5.1448   21.7766  -33.0151 H   0  0  0  0  0  0  0  0  0  0  0  0
   -6.9460   20.1470  -33.5634 H   0  0  0  0  0  0  0  0  0  0  0  0
  1  2  1  0
  2  3  1  0
  3  4  2  0
  4  5  1  0
  5  6  2  0
  6  7  1  0
  7  8  1  0
  8  9  1  0
  9 10  2  0
 10 11  1  0
 11 12  2  0
 12 13  1  0
 13 14  1  0
 13 15  2  0
  8 16  2  0
 16 17  1  0
 17 18  1  0
 18 19  2  0
  6 20  1  0
 20 21  2  0
 21  3  1  0
 18  7  1  0
 15  9  1  0
  1 22  1  0
  1 23  1  0
  1 24  1  0
  4 25  1  0
  5 26  1  0
 10 27  1  0
 11 28  1  0
 12 29  1  0
 14 30  1  0
 15 31  1  0
 20 32  1  0
 21 33  1  0
M  CHG  1  17  -1
M  END
>  <UniqueID>  (28) 
27

>  <SMILES>  (28) 
COc1ccc(-n2c(-c3cccc(O)c3)n[n-]c2=S)cc1

>  <Energy>  (28) 
80.02220116333956

>  <Genealogy>  (28) 
COc1ccc(-n2c(-c3cccc(O)c3)n[n-]c2=S)cc1 (protonated)
COc1ccc(-n2c(-c3cccc(O)c3)n[n-]c2=S)cc1 (3D coordinates assigned)
COc1ccc(-n2c(-c3cccc(O)c3)n[n-]c2=S)cc1 (optimized conformer: 80.02220116333956 kcal/mol)

>  <smiles>  (28) 
COc1ccc(-n2c(-c3cccc(O)c3)n[nH]c2=S)cc1

>  <score_type>  (28) 
oracle

>  <origin>  (28) 
adgpu

>  <m_score__min__energy>  (28) 
-8.1899999999999995

>  <m_primary>  (28) 
energy

$$$$
28:0
     RDKit          3D

 55 58  0  0  0  0  0  0  0  0999 V2000
   -7.9910   23.1790  -31.2840 C   0  0  0  0  0  0  0  0  0  0  0  0
   -8.5440   21.8750  -31.1470 O   0  0  0  0  0  0  0  0  0  0  0  0
   -8.0500   20.7300  -31.7900 C   0  0  0  0  0  0  0  0  0  0  0  0
   -8.5210   19.4820  -31.3730 C   0  0  0  0  0  0  0  0  0  0  0  0
   -8.1030   18.3140  -32.0150 C   0  0  0  0  0  0  0  0  0  0  0  0
   -7.2030   18.3790  -33.0890 C   0  0  0  0  0  0  0  0  0  0  0  0
   -6.7990   17.1210  -33.8080 C   0  0  0  0  0  0  0  0  0  0  0  0
   -5.5190   16.6340  -33.3020 N   0  0  0  0  0  0  0  0  0  0  0  0
   -5.3680   15.5080  -32.6280 N   0  0  0  0  0  0  0  0  0  0  0  0
   -4.0830   15.3490  -32.3460 N   0  0  0  0  0  0  0  0  0  0  0  0
   -3.3830   16.3650  -32.8310 N   0  0  0  0  0  0  0  0  0  0  0  0
   -4.2900   17.1750  -33.4110 C   0  0  0  0  0  0  0  0  0  0  0  0
   -3.9400   18.4270  -34.1640 C   0  0  0  0  0  0  0  0  0  0  0  0
   -2.2870   19.0450  -33.6940 S   0  0  0  0  0  0  0  0  0  0  0  0
   -2.9170   20.4620  -32.7880 C   0  0  0  0  0  0  0  0  0  0  0  0
   -3.7960   21.3560  -33.4090 C   0  0  0  0  0  0  0  0  0  0  0  0
   -4.2920   22.4550  -32.7030 C   0  0  0  0  0  0  0  0  0  0  0  0
   -3.9100   22.6670  -31.3710 C   0  0  0  0  0  0  0  0  0  0  0  0
   -4.5340   24.0370  -30.4630 S   0  0  0  0  0  0  0  0  0  0  0  0
   -5.3530   24.9090  -31.3740 O   0  0  0  0  0  0  0  0  0  0  0  0
   -5.3870   23.5420  -29.3290 O   0  0  0  0  0  0  0  0  0  0  0  0
   -3.1890   24.9330  -29.8350 N   0  0  0  0  0  0  0  0  0  0  0  0
   -2.2120   24.4450  -28.9050 C   0  0  0  0  0  0  0  0  0  0  0  0
   -0.9030   24.1330  -29.3160 C   0  0  0  0  0  0  0  0  0  0  0  0
    0.0400   23.6790  -28.3900 C   0  0  0  0  0  0  0  0  0  0  0  0
   -0.3150   23.5180  -27.0510 C   0  0  0  0  0  0  0  0  0  0  0  0
   -1.6140   23.8110  -26.6330 C   0  0  0  0  0  0  0  0  0  0  0  0
   -2.5670   24.2860  -27.5470 C   0  0  0  0  0  0  0  0  0  0  0  0
   -3.9730   24.5430  -27.0730 C   0  0  0  0  0  0  0  0  0  0  0  0
   -3.0240   21.7750  -30.7540 C   0  0  0  0  0  0  0  0  0  0  0  0
   -2.5260   20.6780  -31.4610 C   0  0  0  0  0  0  0  0  0  0  0  0
   -6.6860   19.6250  -33.4770 C   0  0  0  0  0  0  0  0  0  0  0  0
   -7.1090   20.7960  -32.8360 C   0  0  0  0  0  0  0  0  0  0  0  0
   -7.8095   23.6069  -30.2870 H   0  0  0  0  0  0  0  0  0  0  0  0
   -7.0411   23.1184  -31.8354 H   0  0  0  0  0  0  0  0  0  0  0  0
   -8.6949   23.8197  -31.8354 H   0  0  0  0  0  0  0  0  0  0  0  0
   -9.2271   19.4190  -30.5319 H   0  0  0  0  0  0  0  0  0  0  0  0
   -8.4815   17.3382  -31.6766 H   0  0  0  0  0  0  0  0  0  0  0  0
   -7.5680   16.3504  -33.6501 H   0  0  0  0  0  0  0  0  0  0  0  0
   -6.6982   17.3402  -34.8812 H   0  0  0  0  0  0  0  0  0  0  0  0
   -3.9481   18.2104  -35.2424 H   0  0  0  0  0  0  0  0  0  0  0  0
   -4.6826   19.1998  -33.9162 H   0  0  0  0  0  0  0  0  0  0  0  0
   -4.0970   21.1934  -34.4545 H   0  0  0  0  0  0  0  0  0  0  0  0
   -4.9839   23.1555  -33.1935 H   0  0  0  0  0  0  0  0  0  0  0  0
   -0.6201   24.2472  -30.3729 H   0  0  0  0  0  0  0  0  0  0  0  0
    1.0643   23.4482  -28.7179 H   0  0  0  0  0  0  0  0  0  0  0  0
    0.4290   23.1600  -26.3241 H   0  0  0  0  0  0  0  0  0  0  0  0
   -1.8930   23.6684  -25.5786 H   0  0  0  0  0  0  0  0  0  0  0  0
   -3.9942   24.5469  -25.9732 H   0  0  0  0  0  0  0  0  0  0  0  0
   -4.3144   25.5184  -27.4498 H   0  0  0  0  0  0  0  0  0  0  0  0
   -4.6374   23.7514  -27.4498 H   0  0  0  0  0  0  0  0  0  0  0  0
   -2.7194   21.9387  -29.7098 H   0  0  0  0  0  0  0  0  0  0  0  0
   -1.8258   19.9830  -30.9746 H   0  0  0  0  0  0  0  0  0  0  0  0
   -5.9453   19.6819  -34.2882 H   0  0  0  0  0  0  0  0  0  0  0  0
   -6.7054   21.7698  -33.1502 H   0  0  0  0  0  0  0  0  0  0  0  0
  1  2  1  0
  2  3  1  0
  3  4  2  0
  4  5  1  0
  5  6  2  0
  6  7  1  0
  7  8  1  0
  8  9  1  0
  9 10  2  0
 10 11  1  0
 11 12  2  0
 12 13  1  0
 13 14  1  0
 14 15  1  0
 15 16  2  0
 16 17  1  0
 17 18  2  0
 18 19  1  0
 19 20  2  0
 19 21  2  0
 19 22  1  0
 22 23  1  0
 23 24  2  0
 24 25  1  0
 25 26  2  0
 26 27  1  0
 27 28  2  0
 28 29  1  0
 18 30  1  0
 30 31  2  0
  6 32  1  0
 32 33  2  0
 33  3  1  0
 12  8  1  0
 31 15  1  0
 28 23  1  0
  1 34  1  0
  1 35  1  0
  1 36  1  0
  4 37  1  0
  5 38  1  0
  7 39  1  0
  7 40  1  0
 13 41  1  0
 13 42  1  0
 16 43  1  0
 17 44  1  0
 24 45  1  0
 25 46  1  0
 26 47  1  0
 27 48  1  0
 29 49  1  0
 29 50  1  0
 29 51  1  0
 30 52  1  0
 31 53  1  0
 32 54  1  0
 33 55  1  0
M  CHG  1  22  -1
M  END
>  <UniqueID>  (29) 
28

>  <SMILES>  (29) 
COc1ccc(Cn2nnnc2CSc2ccc(S(=O)(=O)[N-]c3ccccc3C)cc2)cc1

>  <Energy>  (29) 
89.8857815936499

>  <Genealogy>  (29) 
COc1ccc(Cn2nnnc2CSc2ccc(S(=O)(=O)[N-]c3ccccc3C)cc2)cc1 (protonated)
COc1ccc(Cn2nnnc2CSc2ccc(S(=O)(=O)[N-]c3ccccc3C)cc2)cc1 (3D coordinates assigned)
COc1ccc(Cn2nnnc2CSc2ccc(S(=O)(=O)[N-]c3ccccc3C)cc2)cc1 (optimized conformer: 89.8857815936499 kcal/mol)

>  <smiles>  (29) 
COc1ccc(Cn2nnnc2CSc2ccc(S(=O)(=O)Nc3ccccc3C)cc2)cc1

>  <score_type>  (29) 
oracle

>  <origin>  (29) 
adgpu

>  <m_score__min__energy>  (29) 
-11.33

>  <m_primary>  (29) 
energy

$$$$
29:0
     RDKit          3D

 40 42  0  0  0  0  0  0  0  0999 V2000
   -9.4880   22.1720  -32.3420 O   0  0  0  0  0  0  0  0  0  0  0  0
   -8.3020   21.4050  -31.8310 S   0  0  0  0  0  0  0  0  0  0  0  0
   -8.6850   20.6950  -30.5630 O   0  0  0  0  0  0  0  0  0  0  0  0
   -7.8290   20.2300  -33.0230 N   0  0  0  0  0  0  0  0  0  0  0  0
   -7.1940   19.1120  -32.8050 C   0  0  0  0  0  0  0  0  0  0  0  0
   -6.8220   18.6930  -31.5090 C   0  0  0  0  0  0  0  0  0  0  0  0
   -6.1170   17.5010  -31.3460 C   0  0  0  0  0  0  0  0  0  0  0  0
   -5.7920   16.7270  -32.4580 C   0  0  0  0  0  0  0  0  0  0  0  0
   -6.1830   17.1580  -33.7270 C   0  0  0  0  0  0  0  0  0  0  0  0
   -6.8680   18.3250  -33.8730 N   0  0  0  0  0  0  0  0  0  0  0  0
   -6.9790   22.5290  -31.5390 C   0  0  0  0  0  0  0  0  0  0  0  0
   -5.6860   22.2070  -31.9690 C   0  0  0  0  0  0  0  0  0  0  0  0
   -4.6100   23.0330  -31.6380 C   0  0  0  0  0  0  0  0  0  0  0  0
   -4.8170   24.1920  -30.8690 C   0  0  0  0  0  0  0  0  0  0  0  0
   -3.7260   25.0040  -30.4190 N   0  0  0  0  0  0  0  0  0  0  0  0
   -2.7210   24.6100  -29.0600 S   0  0  0  0  0  0  0  0  0  0  0  0
   -1.6250   25.6310  -28.9460 O   0  0  0  0  0  0  0  0  0  0  0  0
   -3.5490   24.6300  -27.8070 O   0  0  0  0  0  0  0  0  0  0  0  0
   -2.0490   22.9940  -29.2720 C   0  0  0  0  0  0  0  0  0  0  0  0
   -2.1430   22.0410  -28.2480 C   0  0  0  0  0  0  0  0  0  0  0  0
   -1.5530   20.7830  -28.4030 C   0  0  0  0  0  0  0  0  0  0  0  0
   -0.8660   20.4710  -29.5810 C   0  0  0  0  0  0  0  0  0  0  0  0
   -0.1150   18.8970  -29.7680 Cl  0  0  0  0  0  0  0  0  0  0  0  0
   -0.7780   21.4150  -30.6080 C   0  0  0  0  0  0  0  0  0  0  0  0
   -1.3700   22.6720  -30.4560 C   0  0  0  0  0  0  0  0  0  0  0  0
   -6.1190   24.5430  -30.4960 C   0  0  0  0  0  0  0  0  0  0  0  0
   -7.1960   23.7130  -30.8230 C   0  0  0  0  0  0  0  0  0  0  0  0
   -7.0868   19.3033  -30.6330 H   0  0  0  0  0  0  0  0  0  0  0  0
   -5.8176   17.1719  -30.3400 H   0  0  0  0  0  0  0  0  0  0  0  0
   -5.2336   15.7869  -32.3374 H   0  0  0  0  0  0  0  0  0  0  0  0
   -5.9367   16.5525  -34.6117 H   0  0  0  0  0  0  0  0  0  0  0  0
   -7.1430   18.6220  -34.8370 H   0  0  0  0  0  0  0  0  0  0  0  0
   -5.5174   21.3008  -32.5693 H   0  0  0  0  0  0  0  0  0  0  0  0
   -3.5966   22.7762  -31.9801 H   0  0  0  0  0  0  0  0  0  0  0  0
   -2.6822   22.2836  -27.3204 H   0  0  0  0  0  0  0  0  0  0  0  0
   -1.6291   20.0376  -27.5976 H   0  0  0  0  0  0  0  0  0  0  0  0
   -0.2424   21.1685  -31.5366 H   0  0  0  0  0  0  0  0  0  0  0  0
   -1.3031   23.4112  -31.2679 H   0  0  0  0  0  0  0  0  0  0  0  0
   -6.2965   25.4769  -29.9425 H   0  0  0  0  0  0  0  0  0  0  0  0
   -8.2155   23.9906  -30.5173 H   0  0  0  0  0  0  0  0  0  0  0  0
  1  2  2  0
  2  3  2  0
  2  4  1  0
  4  5  2  3
  5  6  1  0
  6  7  2  0
  7  8  1  0
  8  9  2  0
  9 10  1  0
  2 11  1  0
 11 12  2  0
 12 13  1  0
 13 14  2  0
 14 15  1  0
 15 16  1  0
 16 17  2  0
 16 18  2  0
 16 19  1  0
 19 20  2  0
 20 21  1  0
 21 22  2  0
 22 23  1  0
 22 24  1  0
 24 25  2  0
 14 26  1  0
 26 27  2  0
 10  5  1  0
 27 11  1  0
 25 19  1  0
  6 28  1  0
  7 29  1  0
  8 30  1  0
  9 31  1  0
 10 32  1  0
 12 33  1  0
 13 34  1  0
 20 35  1  0
 21 36  1  0
 24 37  1  0
 25 38  1  0
 26 39  1  0
 27 40  1  0
M  CHG  1  15  -1
M  END
>  <UniqueID>  (30) 
29

>  <SMILES>  (30) 
O=S(=O)(N=c1cccc[nH]1)c1ccc([N-]S(=O)(=O)c2ccc(Cl)cc2)cc1

>  <Energy>  (30) 
50.10684855423954

>  <Genealogy>  (30) 
O=S(=O)(N=c1cccc[nH]1)c1ccc([N-]S(=O)(=O)c2ccc(Cl)cc2)cc1 (protonated)
O=S(=O)(N=c1cccc[nH]1)c1ccc([N-]S(=O)(=O)c2ccc(Cl)cc2)cc1 (3D coordinates assigned)
O=S(=O)(N=c1cccc[nH]1)c1ccc([N-]S(=O)(=O)c2ccc(Cl)cc2)cc1 (optimized conformer: 50.10684855423954 kcal/mol)

>  <smiles>  (30) 
O=S(=O)(N=c1cccc[nH]1)c1ccc(NS(=O)(=O)c2ccc(Cl)cc2)cc1

>  <score_type>  (30) 
oracle

>  <origin>  (30) 
adgpu

>  <m_score__min__energy>  (30) 
-11.43

>  <m_primary>  (30) 
energy

$$$$
30:0
     RDKit          3D

 58 60  0  0  0  0  0  0  0  0999 V2000
   -1.6040   20.8070  -33.4520 C   0  0  0  0  0  0  0  0  0  0  0  0
   -1.4480   19.3340  -33.8120 C   0  0  0  0  0  0  0  0  0  0  0  0
   -2.1630   18.5140  -32.8900 O   0  0  0  0  0  0  0  0  0  0  0  0
   -3.1120   17.5600  -33.2790 C   0  0  0  0  0  0  0  0  0  0  0  0
   -2.8350   16.3310  -33.2150 O   0  0  0  0  0  0  0  0  0  0  0  0
   -4.4030   17.9900  -33.7500 N   0  0  0  0  0  0  0  0  0  0  0  0
   -4.6800   19.4260  -33.8540 C   0  0  0  0  0  0  0  0  0  0  0  0
   -6.1540   19.6800  -34.2060 C   0  0  0  0  0  0  0  0  0  0  0  0
   -7.0550   18.7750  -33.4700 N   0  0  0  0  0  0  0  0  0  0  0  0
   -7.0780   19.1260  -31.7540 S   0  0  0  0  0  0  0  0  0  0  0  0
   -6.2090   18.1500  -31.0090 O   0  0  0  0  0  0  0  0  0  0  0  0
   -8.4800   19.0280  -31.2170 O   0  0  0  0  0  0  0  0  0  0  0  0
   -6.4540   20.7510  -31.4920 C   0  0  0  0  0  0  0  0  0  0  0  0
   -7.3250   21.8450  -31.5220 C   0  0  0  0  0  0  0  0  0  0  0  0
   -6.8420   23.1390  -31.3060 C   0  0  0  0  0  0  0  0  0  0  0  0
   -5.4760   23.3560  -31.0570 C   0  0  0  0  0  0  0  0  0  0  0  0
   -4.9720   24.7310  -30.8260 C   0  0  0  0  0  0  0  0  0  0  0  0
   -5.7780   25.6980  -30.8560 O   0  0  0  0  0  0  0  0  0  0  0  0
   -3.5970   24.9960  -30.5130 N   0  0  0  0  0  0  0  0  0  0  0  0
   -2.8950   24.5560  -29.3420 C   0  0  0  0  0  0  0  0  0  0  0  0
   -3.5460   23.8630  -28.3080 C   0  0  0  0  0  0  0  0  0  0  0  0
   -2.8320   23.4440  -27.1830 C   0  0  0  0  0  0  0  0  0  0  0  0
   -1.4620   23.7130  -27.0720 C   0  0  0  0  0  0  0  0  0  0  0  0
   -0.7630   23.2650  -25.9030 N   0  0  0  0  0  0  0  0  0  0  0  0
    0.0880   24.0740  -25.0800 C   0  0  0  0  0  0  0  0  0  0  0  0
   -0.4660   25.0840  -24.1200 C   0  0  0  0  0  0  0  0  0  0  0  0
    1.3330   23.9120  -25.1460 O   0  0  0  0  0  0  0  0  0  0  0  0
   -0.7920   24.3500  -28.1330 C   0  0  0  0  0  0  0  0  0  0  0  0
    0.5880   24.5350  -28.0840 O   0  0  0  0  0  0  0  0  0  0  0  0
   -1.5160   24.7730  -29.2590 C   0  0  0  0  0  0  0  0  0  0  0  0
   -4.6090   22.2510  -31.0010 C   0  0  0  0  0  0  0  0  0  0  0  0
   -5.0940   20.9580  -31.2230 C   0  0  0  0  0  0  0  0  0  0  0  0
   -6.7980   17.3380  -33.7300 C   0  0  0  0  0  0  0  0  0  0  0  0
   -5.3850   17.0320  -34.2680 C   0  0  0  0  0  0  0  0  0  0  0  0
   -1.6157   20.9177  -32.3577 H   0  0  0  0  0  0  0  0  0  0  0  0
   -0.7613   21.3777  -33.8693 H   0  0  0  0  0  0  0  0  0  0  0  0
   -2.5476   21.1885  -33.8693 H   0  0  0  0  0  0  0  0  0  0  0  0
   -1.8410   19.1659  -34.8256 H   0  0  0  0  0  0  0  0  0  0  0  0
   -0.3812   19.0693  -33.7690 H   0  0  0  0  0  0  0  0  0  0  0  0
   -4.4524   19.9066  -32.8911 H   0  0  0  0  0  0  0  0  0  0  0  0
   -4.0520   19.8464  -34.6533 H   0  0  0  0  0  0  0  0  0  0  0  0
   -6.4072   20.7197  -33.9511 H   0  0  0  0  0  0  0  0  0  0  0  0
   -6.2861   19.4941  -35.2821 H   0  0  0  0  0  0  0  0  0  0  0  0
   -8.3960   21.6863  -31.7166 H   0  0  0  0  0  0  0  0  0  0  0  0
   -7.5354   23.9926  -31.3311 H   0  0  0  0  0  0  0  0  0  0  0  0
   -4.6224   23.6495  -28.3846 H   0  0  0  0  0  0  0  0  0  0  0  0
   -3.3489   22.8993  -26.3792 H   0  0  0  0  0  0  0  0  0  0  0  0
   -0.2822   24.7488  -23.0886 H   0  0  0  0  0  0  0  0  0  0  0  0
    0.0263   26.0540  -24.2836 H   0  0  0  0  0  0  0  0  0  0  0  0
   -1.5486   25.1901  -24.2836 H   0  0  0  0  0  0  0  0  0  0  0  0
    1.1310   24.2730  -27.2690 H   0  0  0  0  0  0  0  0  0  0  0  0
   -0.9936   25.2799  -30.0837 H   0  0  0  0  0  0  0  0  0  0  0  0
   -3.5421   22.4041  -30.7811 H   0  0  0  0  0  0  0  0  0  0  0  0
   -4.4058   20.1006  -31.1864 H   0  0  0  0  0  0  0  0  0  0  0  0
   -6.9341   16.7878  -32.7873 H   0  0  0  0  0  0  0  0  0  0  0  0
   -7.5064   17.0283  -34.5125 H   0  0  0  0  0  0  0  0  0  0  0  0
   -5.0947   16.0172  -33.9581 H   0  0  0  0  0  0  0  0  0  0  0  0
   -5.4046   17.1110  -35.3650 H   0  0  0  0  0  0  0  0  0  0  0  0
  1  2  1  0
  2  3  1  0
  3  4  1  0
  4  5  2  0
  4  6  1  0
  6  7  1  0
  7  8  1  0
  8  9  1  0
  9 10  1  0
 10 11  2  0
 10 12  2  0
 10 13  1  0
 13 14  2  0
 14 15  1  0
 15 16  2  0
 16 17  1  0
 17 18  2  0
 17 19  1  0
 19 20  1  0
 20 21  2  0
 21 22  1  0
 22 23  2  0
 23 24  1  0
 24 25  1  0
 25 26  1  0
 25 27  2  0
 23 28  1  0
 28 29  1  0
 28 30  2  0
 16 31  1  0
 31 32  2  0
  9 33  1  0
 33 34  1  0
 34  6  1  0
 32 13  1  0
 30 20  1  0
  1 35  1  0
  1 36  1  0
  1 37  1  0
  2 38  1  0
  2 39  1  0
  7 40  1  0
  7 41  1  0
  8 42  1  0
  8 43  1  0
 14 44  1  0
 15 45  1  0
 21 46  1  0
 22 47  1  0
 26 48  1  0
 26 49  1  0
 26 50  1  0
 29 51  1  0
 30 52  1  0
 31 53  1  0
 32 54  1  0
 33 55  1  0
 33 56  1  0
 34 57  1  0
 34 58  1  0
M  CHG  2  19  -1  24  -1
M  END
>  <UniqueID>  (31) 
30

>  <SMILES>  (31) 
CCOC(=O)N1CCN(S(=O)(=O)c2ccc(C(=O)[N-]c3ccc([N-]C(C)=O)c(O)c3)cc2)CC1

>  <Energy>  (31) 
72.52505955127846

>  <Genealogy>  (31) 
CCOC(=O)N1CCN(S(=O)(=O)c2ccc(C(=O)[N-]c3ccc([N-]C(C)=O)c(O)c3)cc2)CC1 (protonated)
CCOC(=O)N1CCN(S(=O)(=O)c2ccc(C(=O)[N-]c3ccc([N-]C(C)=O)c(O)c3)cc2)CC1 (3D coordinates assigned)
CCOC(=O)N1CCN(S(=O)(=O)c2ccc(C(=O)[N-]c3ccc([N-]C(C)=O)c(O)c3)cc2)CC1 (nonaromatic ring conformer: 72.52505955127846 kcal/mol)

>  <smiles>  (31) 
CCOC(=O)N1CCN(S(=O)(=O)c2ccc(C(=O)Nc3ccc(NC(C)=O)c(O)c3)cc2)CC1

>  <score_type>  (31) 
oracle

>  <origin>  (31) 
adgpu

>  <m_score__min__energy>  (31) 
-10.75

>  <m_primary>  (31) 
energy

$$$$
31:0
     RDKit          3D

 43 46  0  0  1  0  0  0  0  0999 V2000
    0.3280   22.9380  -27.8040 C   0  0  0  0  0  0  0  0  0  0  0  0
   -0.9120   23.6610  -27.3510 C   0  0  0  0  0  0  0  0  0  0  0  0
   -1.0240   24.5030  -26.2640 C   0  0  0  0  0  0  0  0  0  0  0  0
   -2.2840   24.9620  -26.1740 N   0  0  0  0  0  0  0  0  0  0  0  0
   -2.9850   24.4340  -27.1800 C   0  0  0  0  0  0  0  0  0  0  0  0
   -4.2520   24.5510  -27.5540 N   0  0  0  0  0  0  0  0  0  0  0  0
   -4.7360   23.9050  -28.6280 C   0  0  0  0  0  0  0  0  0  0  0  0
   -3.9260   23.1060  -29.3640 N   0  0  0  0  0  0  0  0  0  0  0  0
   -2.6240   22.9360  -29.0480 C   0  0  0  0  0  0  0  0  0  0  0  0
   -1.8680   22.1640  -29.7690 N   0  0  0  0  0  0  0  0  0  0  0  0
   -2.4760   21.5210  -30.8910 C   0  0  0  0  0  0  0  0  0  0  0  0
   -3.4180   20.5180  -30.6710 C   0  0  0  0  0  0  0  0  0  0  0  0
   -3.9630   19.9430  -31.7940 C   0  0  0  0  0  0  0  0  0  0  0  0
   -3.6400   20.2910  -33.0790 C   0  0  0  0  0  0  0  0  0  0  0  0
   -4.1960   19.7020  -34.0690 N   0  0  0  0  0  0  0  0  0  0  0  0
   -5.3690   18.4560  -33.9710 S   0  0  0  0  0  0  0  0  0  0  0  0
   -5.7390   17.8890  -35.3290 O   0  0  0  0  0  0  0  0  0  0  0  0
   -4.7020   17.2690  -33.2550 O   0  0  0  0  0  0  0  0  0  0  0  0
   -6.7410   18.9730  -33.0550 C   0  0  0  0  0  0  0  0  0  0  0  0
   -7.6850   18.1450  -32.5000 C   0  0  0  0  0  0  0  0  0  0  0  0
   -8.7640   18.6270  -31.7820 C   0  0  0  0  0  0  0  0  0  0  0  0
   -8.9340   19.9800  -31.5960 C   0  0  0  0  0  0  0  0  0  0  0  0
   -7.9890   20.8460  -32.1500 C   0  0  0  0  0  0  0  0  0  0  0  0
   -8.2150   22.5680  -31.9070 Cl  0  0  0  0  0  0  0  0  0  0  0  0
   -6.9130   20.3410  -32.8660 C   0  0  0  0  0  0  0  0  0  0  0  0
   -2.7190   21.2720  -33.2650 N   0  0  0  0  0  0  0  0  0  0  0  0
   -2.1480   21.8760  -32.1830 C   0  0  0  0  0  0  0  0  0  0  0  0
   -2.1500   23.6120  -27.9390 C   0  0  0  0  0  0  0  0  0  0  0  0
    0.8997   22.6047  -26.9253 H   0  0  0  0  0  0  0  0  0  0  0  0
    0.0429   22.0646  -28.4089 H   0  0  0  0  0  0  0  0  0  0  0  0
    0.9476   23.6164  -28.4089 H   0  0  0  0  0  0  0  0  0  0  0  0
   -0.2058   24.7599  -25.5751 H   0  0  0  0  0  0  0  0  0  0  0  0
   -2.7030   25.6130  -25.4730 H   0  0  0  0  0  0  0  0  0  0  0  0
   -5.7923   24.0250  -28.9105 H   0  0  0  0  0  0  0  0  0  0  0  0
   -4.3610   22.6310  -30.1870 H   0  0  0  0  0  0  0  0  0  0  0  0
   -3.7085   20.2047  -29.6574 H   0  0  0  0  0  0  0  0  0  0  0  0
   -4.7102   19.1485  -31.6512 H   0  0  0  0  0  0  0  0  0  0  0  0
   -7.5791   17.0580  -32.6313 H   0  0  0  0  0  0  0  0  0  0  0  0
   -9.4932   17.9225  -31.3555 H   0  0  0  0  0  0  0  0  0  0  0  0
   -9.7910   20.3687  -31.0264 H   0  0  0  0  0  0  0  0  0  0  0  0
   -6.1784   21.0387  -33.2945 H   0  0  0  0  0  0  0  0  0  0  0  0
   -2.4620   21.5470  -34.2430 H   0  0  0  0  0  0  0  0  0  0  0  0
   -1.4040   22.6697  -32.3458 H   0  0  0  0  0  0  0  0  0  0  0  0
  1  2  1  0
  2  3  2  0
  3  4  1  0
  4  5  1  0
  5  6  1  0
  6  7  2  0
  7  8  1  0
  8  9  1  0
  9 10  2  0
 10 11  1  0
 11 12  1  0
 12 13  2  0
 13 14  1  0
 14 15  2  0
 15 16  1  0
 16 17  2  0
 16 18  2  0
 16 19  1  0
 19 20  2  0
 20 21  1  0
 21 22  2  0
 22 23  1  0
 23 24  1  0
 23 25  2  0
 14 26  1  0
 26 27  1  0
  9 28  1  0
 28  2  1  0
 28  5  2  0
 27 11  2  0
 25 19  1  0
  1 29  1  0
  1 30  1  0
  1 31  1  0
  3 32  1  0
  4 33  1  0
  7 34  1  0
  8 35  1  0
 12 36  1  0
 13 37  1  0
 20 38  1  0
 21 39  1  0
 22 40  1  0
 25 41  1  0
 26 42  1  0
 27 43  1  0
M  END
>  <smiles>  (32) 
Cc1c[nH]c2nc[nH]c(=Nc3ccc(=NS(=O)(=O)c4cccc(Cl)c4)[nH]c3)c12

>  <score_type>  (32) 
oracle

>  <origin>  (32) 
adgpu

>  <m_score__min__energy>  (32) 
-10.34

>  <m_primary>  (32) 
energy

$$$$
32:0
     RDKit          3D

 49 52  0  0  0  0  0  0  0  0999 V2000
   -0.3780   24.5400  -29.3030 O   0  0  0  0  0  0  0  0  0  0  0  0
   -1.5510   24.2750  -28.9260 C   0  0  0  0  0  0  0  0  0  0  0  0
   -2.6550   25.0490  -29.3370 N   0  0  0  0  0  0  0  0  0  0  0  0
   -3.8160   24.5310  -28.6400 C   0  0  1  0  0  0  0  0  0  0  0  0
   -4.9180   24.1690  -29.6120 C   0  0  0  0  0  0  0  0  0  0  0  0
   -5.1140   24.9010  -30.7990 C   0  0  0  0  0  0  0  0  0  0  0  0
   -6.1090   24.5240  -31.7060 C   0  0  0  0  0  0  0  0  0  0  0  0
   -6.9060   23.4070  -31.4470 C   0  0  0  0  0  0  0  0  0  0  0  0
   -6.7080   22.6610  -30.2820 C   0  0  0  0  0  0  0  0  0  0  0  0
   -5.7140   23.0360  -29.3710 C   0  0  0  0  0  0  0  0  0  0  0  0
   -3.3120   23.3050  -27.8410 C   0  0  0  0  0  0  0  0  0  0  0  0
   -1.8470   23.2210  -28.0160 N   0  0  1  0  0  0  0  0  0  0  0  0
   -1.3560   21.6860  -28.6860 S   0  0  0  0  0  0  0  0  0  0  0  0
   -1.6120   20.5890  -27.6890 O   0  0  0  0  0  0  0  0  0  0  0  0
    0.1130   21.7080  -29.0090 O   0  0  0  0  0  0  0  0  0  0  0  0
   -2.2860   21.3530  -30.1450 C   0  0  0  0  0  0  0  0  0  0  0  0
   -1.8410   21.8080  -31.3940 C   0  0  0  0  0  0  0  0  0  0  0  0
   -2.5960   21.5550  -32.5430 C   0  0  0  0  0  0  0  0  0  0  0  0
   -3.8000   20.8440  -32.4630 C   0  0  0  0  0  0  0  0  0  0  0  0
   -4.5120   20.6110  -33.6510 O   0  0  0  0  0  0  0  0  0  0  0  0
   -5.2090   19.4050  -33.9710 C   0  0  0  0  0  0  0  0  0  0  0  0
   -6.4380   19.2550  -33.1150 C   0  0  0  0  0  0  0  0  0  0  0  0
   -6.7220   18.0230  -32.5010 C   0  0  0  0  0  0  0  0  0  0  0  0
   -7.8620   17.8790  -31.7070 C   0  0  0  0  0  0  0  0  0  0  0  0
   -8.7340   18.9560  -31.5280 C   0  0  0  0  0  0  0  0  0  0  0  0
   -8.4660   20.1820  -32.1440 C   0  0  0  0  0  0  0  0  0  0  0  0
   -9.5630   21.5330  -31.9220 Cl  0  0  0  0  0  0  0  0  0  0  0  0
   -7.3230   20.3320  -32.9390 C   0  0  0  0  0  0  0  0  0  0  0  0
   -4.2500   20.3970  -31.2060 C   0  0  0  0  0  0  0  0  0  0  0  0
   -3.4950   20.6530  -30.0550 C   0  0  0  0  0  0  0  0  0  0  0  0
   -4.2582   25.2796  -27.9661 H   0  0  0  0  0  0  0  0  0  0  0  0
   -4.4807   25.7743  -31.0138 H   0  0  0  0  0  0  0  0  0  0  0  0
   -6.2642   25.1082  -32.6250 H   0  0  0  0  0  0  0  0  0  0  0  0
   -7.6903   23.1141  -32.1605 H   0  0  0  0  0  0  0  0  0  0  0  0
   -7.3336   21.7788  -30.0810 H   0  0  0  0  0  0  0  0  0  0  0  0
   -5.5546   22.4400  -28.4603 H   0  0  0  0  0  0  0  0  0  0  0  0
   -3.5548   23.4277  -26.7752 H   0  0  0  0  0  0  0  0  0  0  0  0
   -3.7950   22.3857  -28.2039 H   0  0  0  0  0  0  0  0  0  0  0  0
   -1.3520   23.3910  -27.1090 H   0  0  0  0  0  0  0  0  0  0  0  0
   -0.8957   22.3653  -31.4701 H   0  0  0  0  0  0  0  0  0  0  0  0
   -2.2412   21.9177  -33.5190 H   0  0  0  0  0  0  0  0  0  0  0  0
   -5.5076   19.4310  -35.0294 H   0  0  0  0  0  0  0  0  0  0  0  0
   -4.5415   18.5512  -33.7824 H   0  0  0  0  0  0  0  0  0  0  0  0
   -6.0440   17.1691  -32.6463 H   0  0  0  0  0  0  0  0  0  0  0  0
   -8.0739   16.9151  -31.2213 H   0  0  0  0  0  0  0  0  0  0  0  0
   -9.6313   18.8392  -30.9025 H   0  0  0  0  0  0  0  0  0  0  0  0
   -7.1174   21.2960  -33.4272 H   0  0  0  0  0  0  0  0  0  0  0  0
   -5.1981   19.8447  -31.1279 H   0  0  0  0  0  0  0  0  0  0  0  0
   -3.8534   20.3026  -29.0758 H   0  0  0  0  0  0  0  0  0  0  0  0
  1  2  2  0
  2  3  1  0
  3  4  1  0
  4  5  1  0
  5  6  2  0
  6  7  1  0
  7  8  2  0
  8  9  1  0
  9 10  2  0
  4 11  1  0
 11 12  1  0
 12 13  1  0
 13 14  2  0
 13 15  2  0
 13 16  1  0
 16 17  2  0
 17 18  1  0
 18 19  2  0
 19 20  1  0
 20 21  1  0
 21 22  1  0
 22 23  2  0
 23 24  1  0
 24 25  2  0
 25 26  1  0
 26 27  1  0
 26 28  2  0
 19 29  1  0
 29 30  2  0
 12  2  1  0
 30 16  1  0
 10  5  1  0
 28 22  1  0
  4 31  1  1
  6 32  1  0
  7 33  1  0
  8 34  1  0
  9 35  1  0
 10 36  1  0
 11 37  1  0
 11 38  1  0
 12 39  1  1
 17 40  1  0
 18 41  1  0
 21 42  1  0
 21 43  1  0
 23 44  1  0
 24 45  1  0
 25 46  1  0
 28 47  1  0
 29 48  1  0
 30 49  1  0
M  CHG  2   3  -1  12   1
M  END
>  <UniqueID>  (33) 
31

>  <SMILES>  (33) 
O=C1[N-][C@@H](c2ccccc2)C[N@H+]1S(=O)(=O)c1ccc(OCc2cccc(Cl)c2)cc1

>  <Energy>  (33) 
61.90517067015158

>  <Genealogy>  (33) 
O=C1[N-]C(c2ccccc2)C[NH+]1S(=O)(=O)c1ccc(OCc2cccc(Cl)c2)cc1 (protonated)
O=C1[N-][C@@H](c2ccccc2)C[N@H+]1S(=O)(=O)c1ccc(OCc2cccc(Cl)c2)cc1 (chirality)
O=C1[N-][C@@H](c2ccccc2)C[N@H+]1S(=O)(=O)c1ccc(OCc2cccc(Cl)c2)cc1 (3D coordinates assigned)
O=C1[N-][C@@H](c2ccccc2)C[N@H+]1S(=O)(=O)c1ccc(OCc2cccc(Cl)c2)cc1 (nonaromatic ring conformer: 61.90517067015158 kcal/mol)

>  <smiles>  (33) 
O=C1NC(c2ccccc2)CN1S(=O)(=O)c1ccc(OCc2cccc(Cl)c2)cc1

>  <score_type>  (33) 
oracle

>  <origin>  (33) 
adgpu

>  <m_score__min__energy>  (33) 
-10.34

>  <m_primary>  (33) 
energy

$$$$
33:0
     RDKit          3D

 27 28  0  0  0  0  0  0  0  0999 V2000
   -5.9800   25.9680  -31.2550 O   0  0  0  0  0  0  0  0  0  0  0  0
   -5.4260   24.8300  -30.4440 S   0  0  0  0  0  0  0  0  0  0  0  0
   -6.0580   24.7950  -29.0810 O   0  0  0  0  0  0  0  0  0  0  0  0
   -3.7100   25.0280  -30.2760 N   0  0  0  0  0  0  0  0  0  0  0  0
   -2.8470   24.4840  -29.2640 C   0  0  0  0  0  0  0  0  0  0  0  0
   -3.2220   23.2610  -28.6890 C   0  0  0  0  0  0  0  0  0  0  0  0
   -2.4390   22.6650  -27.6980 C   0  0  0  0  0  0  0  0  0  0  0  0
   -1.2650   23.2860  -27.2680 C   0  0  0  0  0  0  0  0  0  0  0  0
   -0.8760   24.5040  -27.8290 C   0  0  0  0  0  0  0  0  0  0  0  0
   -1.6550   25.1100  -28.8220 C   0  0  0  0  0  0  0  0  0  0  0  0
   -1.2230   26.3200  -29.3470 O   0  0  0  0  0  0  0  0  0  0  0  0
   -5.7810   23.3110  -31.2760 C   0  0  0  0  0  0  0  0  0  0  0  0
   -7.1000   22.8250  -31.2890 C   0  0  0  0  0  0  0  0  0  0  0  0
   -7.4100   21.6270  -31.9400 C   0  0  0  0  0  0  0  0  0  0  0  0
   -9.2080   20.9820  -31.9460 Br  0  0  0  0  0  0  0  0  0  0  0  0
   -6.4070   20.9020  -32.5840 C   0  0  0  0  0  0  0  0  0  0  0  0
   -5.0930   21.3720  -32.5780 C   0  0  0  0  0  0  0  0  0  0  0  0
   -4.7670   22.5710  -31.9320 C   0  0  0  0  0  0  0  0  0  0  0  0
   -3.4360   22.9900  -31.9610 O   0  0  0  0  0  0  0  0  0  0  0  0
   -4.1451   22.7646  -29.0230 H   0  0  0  0  0  0  0  0  0  0  0  0
   -2.7474   21.7060  -27.2562 H   0  0  0  0  0  0  0  0  0  0  0  0
   -0.6473   22.8164  -26.4883 H   0  0  0  0  0  0  0  0  0  0  0  0
    0.0495   24.9911  -27.4882 H   0  0  0  0  0  0  0  0  0  0  0  0
   -7.8951   23.3920  -30.7827 H   0  0  0  0  0  0  0  0  0  0  0  0
   -6.6519   19.9600  -33.0965 H   0  0  0  0  0  0  0  0  0  0  0  0
   -4.3058   20.7952  -33.0855 H   0  0  0  0  0  0  0  0  0  0  0  0
   -3.0970   23.8040  -31.4650 H   0  0  0  0  0  0  0  0  0  0  0  0
  1  2  2  0
  2  3  2  0
  2  4  1  0
  4  5  1  0
  5  6  2  0
  6  7  1  0
  7  8  2  0
  8  9  1  0
  9 10  2  0
 10 11  1  0
  2 12  1  0
 12 13  2  0
 13 14  1  0
 14 15  1  0
 14 16  2  0
 16 17  1  0
 17 18  2  0
 18 19  1  0
 10  5  1  0
 18 12  1  0
  6 20  1  0
  7 21  1  0
  8 22  1  0
  9 23  1  0
 13 24  1  0
 16 25  1  0
 17 26  1  0
 19 27  1  0
M  CHG  2   4  -1  11  -1
M  END
>  <UniqueID>  (34) 
32

>  <SMILES>  (34) 
O=S(=O)([N-]c1ccccc1[O-])c1cc(Br)ccc1O

>  <Energy>  (34) 
37.19012567067228

>  <Genealogy>  (34) 
O=S(=O)([N-]c1ccccc1[O-])c1cc(Br)ccc1O (protonated)
O=S(=O)([N-]c1ccccc1[O-])c1cc(Br)ccc1O (3D coordinates assigned)
O=S(=O)([N-]c1ccccc1[O-])c1cc(Br)ccc1O (optimized conformer: 37.19012567067228 kcal/mol)

>  <smiles>  (34) 
O=S(=O)(Nc1ccccc1O)c1cc(Br)ccc1O

>  <score_type>  (34) 
oracle

>  <origin>  (34) 
adgpu

>  <m_score__min__energy>  (34) 
-12.130000000000001

>  <m_primary>  (34) 
energy

$$$$
34:0
     RDKit          3D

 43 44  0  0  0  0  0  0  0  0999 V2000
   -4.1960   24.5640  -26.7200 C   0  0  0  0  0  0  0  0  0  0  0  0
   -2.9390   24.0970  -27.4420 C   0  0  0  0  0  0  0  0  0  0  0  0
   -3.2420   23.0550  -28.4310 N   0  0  0  0  0  0  0  0  0  0  0  0
   -2.9810   21.7300  -28.3670 C   0  0  0  0  0  0  0  0  0  0  0  0
   -2.4690   20.9880  -27.1580 C   0  0  0  0  0  0  0  0  0  0  0  0
   -2.5220   19.5190  -27.3420 N   0  0  0  0  0  0  0  0  0  0  0  0
   -3.4510   18.9240  -26.3670 C   0  0  0  0  0  0  0  0  0  0  0  0
   -1.1870   18.9100  -27.1970 C   0  0  0  0  0  0  0  0  0  0  0  0
   -3.2470   21.1180  -29.5370 N   0  0  0  0  0  0  0  0  0  0  0  0
   -3.6770   22.0500  -30.3740 N   0  0  0  0  0  0  0  0  0  0  0  0
   -3.6800   23.2130  -29.6980 C   0  0  0  0  0  0  0  0  0  0  0  0
   -4.2110   24.7700  -30.4230 S   0  0  0  0  0  0  0  0  0  0  0  0
   -5.9750   24.5790  -29.9670 C   0  0  0  0  0  0  0  0  0  0  0  0
   -6.6060   23.3980  -30.6530 C   0  0  0  0  0  0  0  0  0  0  0  0
   -6.2060   23.0360  -31.9480 C   0  0  0  0  0  0  0  0  0  0  0  0
   -6.8130   21.9570  -32.5980 C   0  0  0  0  0  0  0  0  0  0  0  0
   -7.8350   21.2340  -31.9660 C   0  0  0  0  0  0  0  0  0  0  0  0
   -8.4680   20.0590  -32.6530 C   0  0  0  0  0  0  0  0  0  0  0  0
   -8.2170   21.5770  -30.6620 C   0  0  0  0  0  0  0  0  0  0  0  0
   -7.6110   22.6560  -30.0120 C   0  0  0  0  0  0  0  0  0  0  0  0
   -4.0377   24.5052  -25.6330 H   0  0  0  0  0  0  0  0  0  0  0  0
   -4.4163   25.6040  -27.0027 H   0  0  0  0  0  0  0  0  0  0  0  0
   -5.0419   23.9201  -27.0027 H   0  0  0  0  0  0  0  0  0  0  0  0
   -2.4822   24.9556  -27.9560 H   0  0  0  0  0  0  0  0  0  0  0  0
   -2.2494   23.6748  -26.6962 H   0  0  0  0  0  0  0  0  0  0  0  0
   -1.4258   21.2851  -26.9750 H   0  0  0  0  0  0  0  0  0  0  0  0
   -3.1131   21.2459  -26.3044 H   0  0  0  0  0  0  0  0  0  0  0  0
   -2.8840   19.3000  -28.2990 H   0  0  0  0  0  0  0  0  0  0  0  0
   -3.1040   19.1462  -25.3471 H   0  0  0  0  0  0  0  0  0  0  0  0
   -4.4559   19.3469  -26.5127 H   0  0  0  0  0  0  0  0  0  0  0  0
   -3.4871   17.8343  -26.5127 H   0  0  0  0  0  0  0  0  0  0  0  0
   -0.9478   18.8009  -26.1289 H   0  0  0  0  0  0  0  0  0  0  0  0
   -1.1814   17.9203  -27.6770 H   0  0  0  0  0  0  0  0  0  0  0  0
   -0.4359   19.5545  -27.6770 H   0  0  0  0  0  0  0  0  0  0  0  0
   -6.0480   24.4389  -28.8784 H   0  0  0  0  0  0  0  0  0  0  0  0
   -6.5102   25.4854  -30.2864 H   0  0  0  0  0  0  0  0  0  0  0  0
   -5.4113   23.6035  -32.4543 H   0  0  0  0  0  0  0  0  0  0  0  0
   -6.4873   21.6740  -33.6098 H   0  0  0  0  0  0  0  0  0  0  0  0
   -8.8477   19.3541  -31.8987 H   0  0  0  0  0  0  0  0  0  0  0  0
   -9.3008   20.4069  -33.2819 H   0  0  0  0  0  0  0  0  0  0  0  0
   -7.7194   19.5549  -33.2819 H   0  0  0  0  0  0  0  0  0  0  0  0
   -8.9964   20.9951  -30.1482 H   0  0  0  0  0  0  0  0  0  0  0  0
   -7.9233   22.9254  -28.9923 H   0  0  0  0  0  0  0  0  0  0  0  0
  1  2  1  0
  2  3  1  0
  3  4  1  0
  4  5  1  0
  5  6  1  0
  6  7  1  0
  6  8  1  0
  4  9  2  0
  9 10  1  0
 10 11  2  0
 11 12  1  0
 12 13  1  0
 13 14  1  0
 14 15  2  0
 15 16  1  0
 16 17  2  0
 17 18  1  0
 17 19  1  0
 19 20  2  0
 11  3  1  0
 20 14  1  0
  1 21  1  0
  1 22  1  0
  1 23  1  0
  2 24  1  0
  2 25  1  0
  5 26  1  0
  5 27  1  0
  6 28  1  0
  7 29  1  0
  7 30  1  0
  7 31  1  0
  8 32  1  0
  8 33  1  0
  8 34  1  0
 13 35  1  0
 13 36  1  0
 15 37  1  0
 16 38  1  0
 18 39  1  0
 18 40  1  0
 18 41  1  0
 19 42  1  0
 20 43  1  0
M  CHG  1   6   1
M  END
>  <UniqueID>  (35) 
33

>  <SMILES>  (35) 
CCn1c(C[NH+](C)C)nnc1SCc1ccc(C)cc1

>  <Energy>  (35) 
67.84799344654061

>  <Genealogy>  (35) 
CCn1c(C[NH+](C)C)nnc1SCc1ccc(C)cc1 (protonated)
CCn1c(C[NH+](C)C)nnc1SCc1ccc(C)cc1 (3D coordinates assigned)
CCn1c(C[NH+](C)C)nnc1SCc1ccc(C)cc1 (optimized conformer: 67.84799344654061 kcal/mol)

>  <smiles>  (35) 
CCn1c(CN(C)C)nnc1SCc1ccc(C)cc1

>  <score_type>  (35) 
oracle

>  <origin>  (35) 
adgpu

>  <m_score__min__energy>  (35) 
-6.3899999999999997

>  <m_primary>  (35) 
energy

$$$$
35:0
     RDKit          3D

 37 39  0  0  0  0  0  0  0  0999 V2000
   -4.2310   25.6000  -30.5470 O   0  0  0  0  0  0  0  0  0  0  0  0
   -3.9630   24.3700  -30.4670 C   0  0  0  0  0  0  0  0  0  0  0  0
   -4.4330   23.4730  -31.4820 N   0  0  0  0  0  0  0  0  0  0  0  0
   -3.7460   22.3260  -32.0040 C   0  0  0  0  0  0  0  0  0  0  0  0
   -2.3760   22.1160  -31.7580 C   0  0  0  0  0  0  0  0  0  0  0  0
   -1.7360   20.9760  -32.2500 C   0  0  0  0  0  0  0  0  0  0  0  0
   -2.4530   20.0330  -32.9840 C   0  0  0  0  0  0  0  0  0  0  0  0
   -3.8170   20.2160  -33.2140 C   0  0  0  0  0  0  0  0  0  0  0  0
   -4.4800   21.3500  -32.7080 C   0  0  0  0  0  0  0  0  0  0  0  0
   -5.8810   21.5510  -32.9670 N   0  0  0  0  0  0  0  0  0  0  0  0
   -6.9060   20.5870  -32.6650 C   0  0  0  0  0  0  0  0  0  0  0  0
   -6.7230   19.2180  -32.9300 C   0  0  0  0  0  0  0  0  0  0  0  0
   -7.7230   18.2970  -32.6040 C   0  0  0  0  0  0  0  0  0  0  0  0
   -8.9060   18.7310  -32.0000 C   0  0  0  0  0  0  0  0  0  0  0  0
   -9.0870   20.0870  -31.7150 C   0  0  0  0  0  0  0  0  0  0  0  0
   -8.0890   21.0110  -32.0390 C   0  0  0  0  0  0  0  0  0  0  0  0
   -3.2080   23.8580  -29.2900 C   0  0  0  0  0  0  0  0  0  0  0  0
   -3.6300   22.6680  -28.6630 C   0  0  0  0  0  0  0  0  0  0  0  0
   -2.9440   22.1600  -27.5570 C   0  0  0  0  0  0  0  0  0  0  0  0
   -1.8270   22.8300  -27.0580 C   0  0  0  0  0  0  0  0  0  0  0  0
   -1.3930   24.0090  -27.6640 C   0  0  0  0  0  0  0  0  0  0  0  0
   -2.0720   24.5280  -28.7730 C   0  0  0  0  0  0  0  0  0  0  0  0
   -1.6030   25.7060  -29.3430 O   0  0  0  0  0  0  0  0  0  0  0  0
   -1.8059   22.8541  -31.1748 H   0  0  0  0  0  0  0  0  0  0  0  0
   -0.6639   20.8223  -32.0577 H   0  0  0  0  0  0  0  0  0  0  0  0
   -1.9431   19.1435  -33.3825 H   0  0  0  0  0  0  0  0  0  0  0  0
   -4.3781   19.4690  -33.7947 H   0  0  0  0  0  0  0  0  0  0  0  0
   -6.1730   22.4520  -33.4100 H   0  0  0  0  0  0  0  0  0  0  0  0
   -5.7891   18.8704  -33.3958 H   0  0  0  0  0  0  0  0  0  0  0  0
   -7.5783   17.2288  -32.8233 H   0  0  0  0  0  0  0  0  0  0  0  0
   -9.6941   18.0058  -31.7491 H   0  0  0  0  0  0  0  0  0  0  0  0
  -10.0161   20.4280  -31.2350 H   0  0  0  0  0  0  0  0  0  0  0  0
   -8.2314   22.0757  -31.8022 H   0  0  0  0  0  0  0  0  0  0  0  0
   -4.5101   22.1329  -29.0492 H   0  0  0  0  0  0  0  0  0  0  0  0
   -3.2854   21.2300  -27.0789 H   0  0  0  0  0  0  0  0  0  0  0  0
   -1.2885   22.4287  -26.1868 H   0  0  0  0  0  0  0  0  0  0  0  0
   -0.5115   24.5345  -27.2680 H   0  0  0  0  0  0  0  0  0  0  0  0
  1  2  2  0
  2  3  1  0
  3  4  1  0
  4  5  2  0
  5  6  1  0
  6  7  2  0
  7  8  1  0
  8  9  2  0
  9 10  1  0
 10 11  1  0
 11 12  2  0
 12 13  1  0
 13 14  2  0
 14 15  1  0
 15 16  2  0
  2 17  1  0
 17 18  2  0
 18 19  1  0
 19 20  2  0
 20 21  1  0
 21 22  2  0
 22 23  1  0
  9  4  1  0
 16 11  1  0
 22 17  1  0
  5 24  1  0
  6 25  1  0
  7 26  1  0
  8 27  1  0
 10 28  1  0
 12 29  1  0
 13 30  1  0
 14 31  1  0
 15 32  1  0
 16 33  1  0
 18 34  1  0
 19 35  1  0
 20 36  1  0
 21 37  1  0
M  CHG  2   3  -1  23  -1
M  END
>  <UniqueID>  (36) 
34

>  <SMILES>  (36) 
O=C([N-]c1ccccc1Nc1ccccc1)c1ccccc1[O-]

>  <Energy>  (36) 
52.2862606379996

>  <Genealogy>  (36) 
O=C([N-]c1ccccc1Nc1ccccc1)c1ccccc1[O-] (protonated)
O=C([N-]c1ccccc1Nc1ccccc1)c1ccccc1[O-] (3D coordinates assigned)
O=C([N-]c1ccccc1Nc1ccccc1)c1ccccc1[O-] (optimized conformer: 52.2862606379996 kcal/mol)

>  <smiles>  (36) 
O=C(Nc1ccccc1Nc1ccccc1)c1ccccc1O

>  <score_type>  (36) 
oracle

>  <origin>  (36) 
adgpu

>  <m_score__min__energy>  (36) 
-12.74

>  <m_primary>  (36) 
energy

$$$$
36:0
     RDKit          3D

 41 43  0  0  0  0  0  0  0  0999 V2000
   -1.9560   25.3020  -27.5760 C   0  0  0  0  0  0  0  0  0  0  0  0
   -2.3360   25.2650  -28.9480 O   0  0  0  0  0  0  0  0  0  0  0  0
   -2.4950   24.0900  -29.6980 C   0  0  0  0  0  0  0  0  0  0  0  0
   -1.6460   22.9790  -29.5330 C   0  0  0  0  0  0  0  0  0  0  0  0
   -1.8340   21.8260  -30.2960 C   0  0  0  0  0  0  0  0  0  0  0  0
   -2.8710   21.7590  -31.2370 C   0  0  0  0  0  0  0  0  0  0  0  0
   -3.0490   20.5410  -32.0510 C   0  0  0  0  0  0  0  0  0  0  0  0
   -2.1850   20.1120  -32.9930 N   0  0  0  0  0  0  0  0  0  0  0  0
   -2.6800   18.9780  -33.4650 N   0  0  0  0  0  0  0  0  0  0  0  0
   -3.8280   18.7630  -32.7950 C   0  0  0  0  0  0  0  0  0  0  0  0
   -4.6960   17.5610  -32.9670 C   0  0  0  0  0  0  0  0  0  0  0  0
   -6.1280   17.9840  -33.9440 S   0  0  0  0  0  0  0  0  0  0  0  0
   -5.6870   18.5450  -35.2670 O   0  0  0  0  0  0  0  0  0  0  0  0
   -6.9460   16.7470  -34.1950 O   0  0  0  0  0  0  0  0  0  0  0  0
   -7.0970   19.1830  -33.0900 C   0  0  0  0  0  0  0  0  0  0  0  0
   -6.6870   20.5230  -33.0630 C   0  0  0  0  0  0  0  0  0  0  0  0
   -7.4120   21.4660  -32.3260 C   0  0  0  0  0  0  0  0  0  0  0  0
   -8.5450   21.0720  -31.6070 C   0  0  0  0  0  0  0  0  0  0  0  0
   -9.2410   21.9840  -30.8850 F   0  0  0  0  0  0  0  0  0  0  0  0
   -8.9550   19.7360  -31.6280 C   0  0  0  0  0  0  0  0  0  0  0  0
   -8.2340   18.7920  -32.3670 C   0  0  0  0  0  0  0  0  0  0  0  0
   -4.0620   19.7180  -31.9300 O   0  0  0  0  0  0  0  0  0  0  0  0
   -3.7190   22.8660  -31.4060 C   0  0  0  0  0  0  0  0  0  0  0  0
   -3.5360   24.0330  -30.6380 C   0  0  0  0  0  0  0  0  0  0  0  0
   -4.3650   25.1560  -30.7800 O   0  0  0  0  0  0  0  0  0  0  0  0
   -5.6740   25.2690  -30.2290 C   0  0  0  0  0  0  0  0  0  0  0  0
   -2.8526   25.2147  -26.9447 H   0  0  0  0  0  0  0  0  0  0  0  0
   -1.2739   24.4660  -27.3618 H   0  0  0  0  0  0  0  0  0  0  0  0
   -1.4480   26.2539  -27.3618 H   0  0  0  0  0  0  0  0  0  0  0  0
   -0.8290   23.0203  -28.7976 H   0  0  0  0  0  0  0  0  0  0  0  0
   -1.1644   20.9642  -30.1583 H   0  0  0  0  0  0  0  0  0  0  0  0
   -4.1270   16.7696  -33.4768 H   0  0  0  0  0  0  0  0  0  0  0  0
   -5.0229   17.2048  -31.9789 H   0  0  0  0  0  0  0  0  0  0  0  0
   -5.7927   20.8343  -33.6228 H   0  0  0  0  0  0  0  0  0  0  0  0
   -7.0906   22.5179  -32.3122 H   0  0  0  0  0  0  0  0  0  0  0  0
   -9.8462   19.4262  -31.0625 H   0  0  0  0  0  0  0  0  0  0  0  0
   -8.5591   17.7412  -32.3812 H   0  0  0  0  0  0  0  0  0  0  0  0
   -4.5331   22.8214  -32.1444 H   0  0  0  0  0  0  0  0  0  0  0  0
   -5.6113   25.2636  -29.1308 H   0  0  0  0  0  0  0  0  0  0  0  0
   -6.1334   26.2101  -30.5654 H   0  0  0  0  0  0  0  0  0  0  0  0
   -6.2879   24.4205  -30.5654 H   0  0  0  0  0  0  0  0  0  0  0  0
  1  2  1  0
  2  3  1  0
  3  4  2  0
  4  5  1  0
  5  6  2  0
  6  7  1  0
  7  8  2  0
  8  9  1  0
  9 10  2  0
 10 11  1  0
 11 12  1  0
 12 13  2  0
 12 14  2  0
 12 15  1  0
 15 16  2  0
 16 17  1  0
 17 18  2  0
 18 19  1  0
 18 20  1  0
 20 21  2  0
 10 22  1  0
  6 23  1  0
 23 24  2  0
 24 25  1  0
 25 26  1  0
 24  3  1  0
 22  7  1  0
 21 15  1  0
  1 27  1  0
  1 28  1  0
  1 29  1  0
  4 30  1  0
  5 31  1  0
 11 32  1  0
 11 33  1  0
 16 34  1  0
 17 35  1  0
 20 36  1  0
 21 37  1  0
 23 38  1  0
 26 39  1  0
 26 40  1  0
 26 41  1  0
M  END
>  <UniqueID>  (37) 
35

>  <SMILES>  (37) 
COc1ccc(-c2nnc(CS(=O)(=O)c3ccc(F)cc3)o2)cc1OC

>  <Energy>  (37) 
71.23614545219671

>  <Genealogy>  (37) 
COc1ccc(-c2nnc(CS(=O)(=O)c3ccc(F)cc3)o2)cc1OC (3D coordinates assigned)
COc1ccc(-c2nnc(CS(=O)(=O)c3ccc(F)cc3)o2)cc1OC (optimized conformer: 71.23614545219671 kcal/mol)

>  <smiles>  (37) 
COc1ccc(-c2nnc(CS(=O)(=O)c3ccc(F)cc3)o2)cc1OC

>  <score_type>  (37) 
oracle

>  <origin>  (37) 
adgpu

>  <m_score__min__energy>  (37) 
-8.8599999999999994

>  <m_primary>  (37) 
energy

$$$$
37:0
     RDKit          3D

 34 35  0  0  0  0  0  0  0  0999 V2000
   -0.8270   25.8380  -27.9110 C   0  0  0  0  0  0  0  0  0  0  0  0
   -1.8130   25.6580  -28.9720 N   0  0  0  0  0  0  0  0  0  0  0  0
   -2.1110   23.9650  -29.2180 S   0  0  0  0  0  0  0  0  0  0  0  0
   -1.0130   23.3680  -30.0560 O   0  0  0  0  0  0  0  0  0  0  0  0
   -2.1210   23.2710  -27.8850 O   0  0  0  0  0  0  0  0  0  0  0  0
   -3.6690   23.7240  -30.0050 C   0  0  0  0  0  0  0  0  0  0  0  0
   -4.7570   24.5400  -29.6700 C   0  0  0  0  0  0  0  0  0  0  0  0
   -5.9880   24.3690  -30.3070 C   0  0  0  0  0  0  0  0  0  0  0  0
   -6.1490   23.3840  -31.2890 C   0  0  0  0  0  0  0  0  0  0  0  0
   -7.4250   23.2550  -31.9300 N   0  0  0  0  0  0  0  0  0  0  0  0
   -8.5680   21.9840  -31.6340 S   0  0  0  0  0  0  0  0  0  0  0  0
   -9.8460   22.2940  -32.3600 O   0  0  0  0  0  0  0  0  0  0  0  0
   -8.8470   21.9090  -30.1590 O   0  0  0  0  0  0  0  0  0  0  0  0
   -7.9330   20.4510  -32.2250 C   0  0  0  0  0  0  0  0  0  0  0  0
   -8.4170   19.2400  -31.7120 C   0  0  0  0  0  0  0  0  0  0  0  0
   -7.8990   18.0250  -32.1720 C   0  0  0  0  0  0  0  0  0  0  0  0
   -6.8940   18.0140  -33.1500 C   0  0  0  0  0  0  0  0  0  0  0  0
   -6.3680   16.8110  -33.6140 O   0  0  0  0  0  0  0  0  0  0  0  0
   -6.4150   19.2240  -33.6660 C   0  0  0  0  0  0  0  0  0  0  0  0
   -6.9330   20.4380  -33.2070 C   0  0  0  0  0  0  0  0  0  0  0  0
   -5.0560   22.5630  -31.6240 C   0  0  0  0  0  0  0  0  0  0  0  0
   -3.8250   22.7360  -30.9860 C   0  0  0  0  0  0  0  0  0  0  0  0
   -1.3209   25.7478  -26.9323 H   0  0  0  0  0  0  0  0  0  0  0  0
   -0.0472   25.0674  -28.0005 H   0  0  0  0  0  0  0  0  0  0  0  0
   -0.3698   26.8345  -28.0005 H   0  0  0  0  0  0  0  0  0  0  0  0
   -4.6414   25.3189  -28.9019 H   0  0  0  0  0  0  0  0  0  0  0  0
   -6.8374   25.0129  -30.0352 H   0  0  0  0  0  0  0  0  0  0  0  0
   -9.2062   19.2450  -30.9457 H   0  0  0  0  0  0  0  0  0  0  0  0
   -8.2805   17.0765  -31.7660 H   0  0  0  0  0  0  0  0  0  0  0  0
   -5.6950   16.7840  -34.3710 H   0  0  0  0  0  0  0  0  0  0  0  0
   -5.6285   19.2191  -34.4350 H   0  0  0  0  0  0  0  0  0  0  0  0
   -6.5549   21.3859  -33.6175 H   0  0  0  0  0  0  0  0  0  0  0  0
   -5.1712   21.7826  -32.3906 H   0  0  0  0  0  0  0  0  0  0  0  0
   -2.9740   22.0932  -31.2553 H   0  0  0  0  0  0  0  0  0  0  0  0
  1  2  1  0
  2  3  1  0
  3  4  2  0
  3  5  2  0
  3  6  1  0
  6  7  2  0
  7  8  1  0
  8  9  2  0
  9 10  1  0
 10 11  1  0
 11 12  2  0
 11 13  2  0
 11 14  1  0
 14 15  2  0
 15 16  1  0
 16 17  2  0
 17 18  1  0
 17 19  1  0
 19 20  2  0
  9 21  1  0
 21 22  2  0
 22  6  1  0
 20 14  1  0
  1 23  1  0
  1 24  1  0
  1 25  1  0
  7 26  1  0
  8 27  1  0
 15 28  1  0
 16 29  1  0
 18 30  1  0
 19 31  1  0
 20 32  1  0
 21 33  1  0
 22 34  1  0
M  CHG  2   2  -1  10  -1
M  END
>  <UniqueID>  (38) 
36

>  <SMILES>  (38) 
C[N-]S(=O)(=O)c1ccc([N-]S(=O)(=O)c2ccc(O)cc2)cc1

>  <Energy>  (38) 
35.017133951584995

>  <Genealogy>  (38) 
C[N-]S(=O)(=O)c1ccc([N-]S(=O)(=O)c2ccc(O)cc2)cc1 (protonated)
C[N-]S(=O)(=O)c1ccc([N-]S(=O)(=O)c2ccc(O)cc2)cc1 (3D coordinates assigned)
C[N-]S(=O)(=O)c1ccc([N-]S(=O)(=O)c2ccc(O)cc2)cc1 (optimized conformer: 35.017133951584995 kcal/mol)

>  <smiles>  (38) 
CNS(=O)(=O)c1ccc(NS(=O)(=O)c2ccc(O)cc2)cc1

>  <score_type>  (38) 
oracle

>  <origin>  (38) 
adgpu

>  <m_score__min__energy>  (38) 
-8.7699999999999996

>  <m_primary>  (38) 
energy

$$$$
38:0
     RDKit          3D

 44 46  0  0  0  0  0  0  0  0999 V2000
   -3.1430   18.5010  -25.9090 C   0  0  0  0  0  0  0  0  0  0  0  0
   -2.1100   19.0750  -26.7030 O   0  0  0  0  0  0  0  0  0  0  0  0
   -2.0040   20.4430  -26.9940 C   0  0  0  0  0  0  0  0  0  0  0  0
   -0.7500   21.0540  -26.8750 C   0  0  0  0  0  0  0  0  0  0  0  0
   -0.5930   22.4150  -27.1520 C   0  0  0  0  0  0  0  0  0  0  0  0
   -1.6930   23.1820  -27.5590 C   0  0  0  0  0  0  0  0  0  0  0  0
   -1.5020   24.8920  -27.9300 S   0  0  0  0  0  0  0  0  0  0  0  0
   -2.0240   25.7010  -26.7760 O   0  0  0  0  0  0  0  0  0  0  0  0
   -0.0550   25.2330  -28.1510 O   0  0  0  0  0  0  0  0  0  0  0  0
   -2.4040   25.2910  -29.3580 N   0  0  0  0  0  0  0  0  0  0  0  0
   -3.5330   24.5580  -29.8510 C   0  0  0  0  0  0  0  0  0  0  0  0
   -4.8550   24.9210  -29.5440 C   0  0  0  0  0  0  0  0  0  0  0  0
   -5.9280   24.1830  -30.0530 C   0  0  0  0  0  0  0  0  0  0  0  0
   -5.6990   23.0590  -30.8670 C   0  0  0  0  0  0  0  0  0  0  0  0
   -6.8250   22.2620  -31.4120 C   0  0  0  0  0  0  0  0  0  0  0  0
   -8.0100   22.6540  -31.2170 O   0  0  0  0  0  0  0  0  0  0  0  0
   -6.5890   21.0660  -32.1750 N   0  0  0  0  0  0  0  0  0  0  0  0
   -7.6810   20.2340  -32.6740 C   0  0  0  0  0  0  0  0  0  0  0  0
   -7.1540   18.9040  -33.1100 C   0  0  0  0  0  0  0  0  0  0  0  0
   -7.6000   17.6770  -32.6650 C   0  0  0  0  0  0  0  0  0  0  0  0
   -6.8220   16.7430  -33.3150 C   0  0  0  0  0  0  0  0  0  0  0  0
   -5.9500   17.4590  -34.1120 C   0  0  0  0  0  0  0  0  0  0  0  0
   -6.1730   18.7450  -33.9680 O   0  0  0  0  0  0  0  0  0  0  0  0
   -4.3750   22.7060  -31.1780 C   0  0  0  0  0  0  0  0  0  0  0  0
   -3.3040   23.4460  -30.6690 C   0  0  0  0  0  0  0  0  0  0  0  0
   -2.9510   22.5790  -27.6770 C   0  0  0  0  0  0  0  0  0  0  0  0
   -3.1100   21.2180  -27.3960 C   0  0  0  0  0  0  0  0  0  0  0  0
   -2.9035   18.6341  -24.8437 H   0  0  0  0  0  0  0  0  0  0  0  0
   -4.0981   18.9978  -26.1349 H   0  0  0  0  0  0  0  0  0  0  0  0
   -3.2256   17.4276  -26.1349 H   0  0  0  0  0  0  0  0  0  0  0  0
    0.1193   20.4578  -26.5608 H   0  0  0  0  0  0  0  0  0  0  0  0
    0.3963   22.8851  -27.0503 H   0  0  0  0  0  0  0  0  0  0  0  0
   -5.0472   25.7912  -28.8992 H   0  0  0  0  0  0  0  0  0  0  0  0
   -6.9590   24.4837  -29.8151 H   0  0  0  0  0  0  0  0  0  0  0  0
   -5.6160   20.8070  -32.4530 H   0  0  0  0  0  0  0  0  0  0  0  0
   -8.4220   20.0876  -31.8743 H   0  0  0  0  0  0  0  0  0  0  0  0
   -8.1522   20.7344  -33.5328 H   0  0  0  0  0  0  0  0  0  0  0  0
   -8.4071   17.4842  -31.9429 H   0  0  0  0  0  0  0  0  0  0  0  0
   -6.8832   15.6489  -33.2186 H   0  0  0  0  0  0  0  0  0  0  0  0
   -5.1847   17.0185  -34.7680 H   0  0  0  0  0  0  0  0  0  0  0  0
   -4.1797   21.8400  -31.8275 H   0  0  0  0  0  0  0  0  0  0  0  0
   -2.2726   23.1518  -30.9135 H   0  0  0  0  0  0  0  0  0  0  0  0
   -3.8181   23.1781  -27.9920 H   0  0  0  0  0  0  0  0  0  0  0  0
   -4.1017   20.7512  -27.4891 H   0  0  0  0  0  0  0  0  0  0  0  0
  1  2  1  0
  2  3  1  0
  3  4  2  0
  4  5  1  0
  5  6  2  0
  6  7  1  0
  7  8  2  0
  7  9  2  0
  7 10  1  0
 10 11  1  0
 11 12  2  0
 12 13  1  0
 13 14  2  0
 14 15  1  0
 15 16  2  0
 15 17  1  0
 17 18  1  0
 18 19  1  0
 19 20  2  0
 20 21  1  0
 21 22  2  0
 22 23  1  0
 14 24  1  0
 24 25  2  0
  6 26  1  0
 26 27  2  0
 27  3  1  0
 25 11  1  0
 23 19  1  0
  1 28  1  0
  1 29  1  0
  1 30  1  0
  4 31  1  0
  5 32  1  0
 12 33  1  0
 13 34  1  0
 17 35  1  0
 18 36  1  0
 18 37  1  0
 20 38  1  0
 21 39  1  0
 22 40  1  0
 24 41  1  0
 25 42  1  0
 26 43  1  0
 27 44  1  0
M  CHG  1  10  -1
M  END
>  <UniqueID>  (39) 
37

>  <SMILES>  (39) 
COc1ccc(S(=O)(=O)[N-]c2ccc(C(=O)NCc3ccco3)cc2)cc1

>  <Energy>  (39) 
74.11960995379991

>  <Genealogy>  (39) 
COc1ccc(S(=O)(=O)[N-]c2ccc(C(=O)NCc3ccco3)cc2)cc1 (protonated)
COc1ccc(S(=O)(=O)[N-]c2ccc(C(=O)NCc3ccco3)cc2)cc1 (3D coordinates assigned)
COc1ccc(S(=O)(=O)[N-]c2ccc(C(=O)NCc3ccco3)cc2)cc1 (optimized conformer: 74.11960995379991 kcal/mol)

>  <smiles>  (39) 
COc1ccc(S(=O)(=O)Nc2ccc(C(=O)NCc3ccco3)cc2)cc1

>  <score_type>  (39) 
oracle

>  <origin>  (39) 
adgpu

>  <m_score__min__energy>  (39) 
-9.6400000000000006

>  <m_primary>  (39) 
energy

$$$$
39:0
     RDKit          3D

 62 65  0  0  0  0  0  0  0  0999 V2000
    1.4440   19.1340  -30.9480 C   0  0  0  0  0  0  0  0  0  0  0  0
    0.8450   20.4040  -31.1780 O   0  0  0  0  0  0  0  0  0  0  0  0
   -0.5050   20.5970  -31.5210 C   0  0  0  0  0  0  0  0  0  0  0  0
   -0.8940   21.1530  -32.7580 C   0  0  0  0  0  0  0  0  0  0  0  0
   -2.2500   21.3360  -33.0570 C   0  0  0  0  0  0  0  0  0  0  0  0
   -3.2270   20.9660  -32.1310 C   0  0  0  0  0  0  0  0  0  0  0  0
   -2.8520   20.4190  -30.9000 C   0  0  0  0  0  0  0  0  0  0  0  0
   -1.4950   20.2360  -30.5920 C   0  0  0  0  0  0  0  0  0  0  0  0
   -1.1210   19.7190  -29.3110 N   0  0  0  0  0  0  0  0  0  0  0  0
   -0.4820   20.7660  -28.0850 S   0  0  0  0  0  0  0  0  0  0  0  0
   -0.8590   20.2460  -26.7250 O   0  0  0  0  0  0  0  0  0  0  0  0
    1.0190   20.7930  -28.1950 O   0  0  0  0  0  0  0  0  0  0  0  0
   -1.1280   22.3890  -28.3010 C   0  0  0  0  0  0  0  0  0  0  0  0
   -0.3620   23.5170  -27.9740 C   0  0  0  0  0  0  0  0  0  0  0  0
   -0.8490   24.7970  -28.2460 C   0  0  0  0  0  0  0  0  0  0  0  0
   -2.0930   24.9580  -28.8640 C   0  0  0  0  0  0  0  0  0  0  0  0
   -2.8730   23.8370  -29.1970 C   0  0  0  0  0  0  0  0  0  0  0  0
   -4.1660   24.0020  -29.9000 C   0  0  0  0  0  0  0  0  0  0  0  0
   -4.2580   24.8200  -30.8560 O   0  0  0  0  0  0  0  0  0  0  0  0
   -5.3230   23.2640  -29.4800 N   0  0  0  0  0  0  0  0  0  0  0  0
   -6.4460   22.9950  -30.3360 C   0  0  0  0  0  0  0  0  0  0  0  0
   -7.2530   24.0360  -30.8310 C   0  0  0  0  0  0  0  0  0  0  0  0
   -8.3420   23.7470  -31.6580 C   0  0  0  0  0  0  0  0  0  0  0  0
   -8.6240   22.4220  -32.0140 C   0  0  0  0  0  0  0  0  0  0  0  0
   -7.7980   21.3820  -31.5660 C   0  0  0  0  0  0  0  0  0  0  0  0
   -8.0950   19.7230  -32.0920 S   0  0  0  0  0  0  0  0  0  0  0  0
   -8.9720   19.7410  -33.3130 O   0  0  0  0  0  0  0  0  0  0  0  0
   -8.8260   18.9780  -31.0060 O   0  0  0  0  0  0  0  0  0  0  0  0
   -6.6010   18.8940  -32.4650 N   0  0  0  0  0  0  0  0  0  0  0  0
   -6.0440   19.3860  -33.7460 C   0  0  0  0  0  0  0  0  0  0  0  0
   -4.9940   18.4200  -34.3080 C   0  0  0  0  0  0  0  0  0  0  0  0
   -5.6140   17.0400  -34.6090 C   0  0  0  0  0  0  0  0  0  0  0  0
   -6.8670   16.7560  -33.7660 C   0  0  0  0  0  0  0  0  0  0  0  0
   -6.7600   17.4210  -32.3840 C   0  0  0  0  0  0  0  0  0  0  0  0
   -6.7130   21.6740  -30.7250 C   0  0  0  0  0  0  0  0  0  0  0  0
   -2.3860   22.5540  -28.8950 C   0  0  0  0  0  0  0  0  0  0  0  0
    1.5268   18.9584  -29.8653 H   0  0  0  0  0  0  0  0  0  0  0  0
    0.8218   18.3478  -31.4005 H   0  0  0  0  0  0  0  0  0  0  0  0
    2.4464   19.1141  -31.4005 H   0  0  0  0  0  0  0  0  0  0  0  0
   -0.1280   21.4444  -33.4917 H   0  0  0  0  0  0  0  0  0  0  0  0
   -2.5456   21.7718  -34.0228 H   0  0  0  0  0  0  0  0  0  0  0  0
   -4.2918   21.1048  -32.3698 H   0  0  0  0  0  0  0  0  0  0  0  0
   -3.6233   20.1311  -30.1704 H   0  0  0  0  0  0  0  0  0  0  0  0
    0.6241   23.3933  -27.5025 H   0  0  0  0  0  0  0  0  0  0  0  0
   -0.2529   25.6805  -27.9736 H   0  0  0  0  0  0  0  0  0  0  0  0
   -2.4636   25.9685  -29.0910 H   0  0  0  0  0  0  0  0  0  0  0  0
   -5.4130   23.0390  -28.4650 H   0  0  0  0  0  0  0  0  0  0  0  0
   -7.0263   25.0794  -30.5665 H   0  0  0  0  0  0  0  0  0  0  0  0
   -8.9795   24.5625  -32.0304 H   0  0  0  0  0  0  0  0  0  0  0  0
   -9.4955   22.1972  -32.6464 H   0  0  0  0  0  0  0  0  0  0  0  0
   -6.8611   19.4899  -34.4750 H   0  0  0  0  0  0  0  0  0  0  0  0
   -5.5586   20.3559  -33.5624 H   0  0  0  0  0  0  0  0  0  0  0  0
   -4.5814   18.8390  -35.2376 H   0  0  0  0  0  0  0  0  0  0  0  0
   -4.2008   18.2905  -33.5569 H   0  0  0  0  0  0  0  0  0  0  0  0
   -5.8900   17.0028  -35.6732 H   0  0  0  0  0  0  0  0  0  0  0  0
   -4.8636   16.2764  -34.3563 H   0  0  0  0  0  0  0  0  0  0  0  0
   -7.7502   17.1517  -34.2888 H   0  0  0  0  0  0  0  0  0  0  0  0
   -6.9583   15.6687  -33.6270 H   0  0  0  0  0  0  0  0  0  0  0  0
   -7.6741   17.1970  -31.8146 H   0  0  0  0  0  0  0  0  0  0  0  0
   -5.8630   17.0179  -31.8912 H   0  0  0  0  0  0  0  0  0  0  0  0
   -6.0660   20.8594  -30.3676 H   0  0  0  0  0  0  0  0  0  0  0  0
   -2.9986   21.6704  -29.1273 H   0  0  0  0  0  0  0  0  0  0  0  0
  1  2  1  0
  2  3  1  0
  3  4  2  0
  4  5  1  0
  5  6  2  0
  6  7  1  0
  7  8  2  0
  8  9  1  0
  9 10  1  0
 10 11  2  0
 10 12  2  0
 10 13  1  0
 13 14  2  0
 14 15  1  0
 15 16  2  0
 16 17  1  0
 17 18  1  0
 18 19  2  0
 18 20  1  0
 20 21  1  0
 21 22  2  0
 22 23  1  0
 23 24  2  0
 24 25  1  0
 25 26  1  0
 26 27  2  0
 26 28  2  0
 26 29  1  0
 29 30  1  0
 30 31  1  0
 31 32  1  0
 32 33  1  0
 33 34  1  0
 25 35  2  0
 17 36  2  0
  8  3  1  0
 36 13  1  0
 35 21  1  0
 34 29  1  0
  1 37  1  0
  1 38  1  0
  1 39  1  0
  4 40  1  0
  5 41  1  0
  6 42  1  0
  7 43  1  0
 14 44  1  0
 15 45  1  0
 16 46  1  0
 20 47  1  0
 22 48  1  0
 23 49  1  0
 24 50  1  0
 30 51  1  0
 30 52  1  0
 31 53  1  0
 31 54  1  0
 32 55  1  0
 32 56  1  0
 33 57  1  0
 33 58  1  0
 34 59  1  0
 34 60  1  0
 35 61  1  0
 36 62  1  0
M  CHG  1   9  -1
M  END
>  <UniqueID>  (40) 
38

>  <SMILES>  (40) 
COc1ccccc1[N-]S(=O)(=O)c1cccc(C(=O)Nc2cccc(S(=O)(=O)N3CCCCC3)c2)c1

>  <Energy>  (40) 
80.90210417733957

>  <Genealogy>  (40) 
COc1ccccc1[N-]S(=O)(=O)c1cccc(C(=O)Nc2cccc(S(=O)(=O)N3CCCCC3)c2)c1 (protonated)
COc1ccccc1[N-]S(=O)(=O)c1cccc(C(=O)Nc2cccc(S(=O)(=O)N3CCCCC3)c2)c1 (3D coordinates assigned)
COc1ccccc1[N-]S(=O)(=O)c1cccc(C(=O)Nc2cccc(S(=O)(=O)N3CCCCC3)c2)c1 (nonaromatic ring conformer: 80.90210417733957 kcal/mol)

>  <smiles>  (40) 
COc1ccccc1NS(=O)(=O)c1cccc(C(=O)Nc2cccc(S(=O)(=O)N3CCCCC3)c2)c1

>  <score_type>  (40) 
oracle

>  <origin>  (40) 
adgpu

>  <m_score__min__energy>  (40) 
-12.23

>  <m_primary>  (40) 
energy

$$$$
40:0
     RDKit          3D

 51 53  0  0  0  0  0  0  0  0999 V2000
   -5.9100   25.8320  -30.0850 O   0  0  0  0  0  0  0  0  0  0  0  0
   -5.1680   25.0840  -30.7770 C   0  0  0  0  0  0  0  0  0  0  0  0
   -5.7600   24.2720  -31.8820 C   0  0  0  0  0  0  0  0  0  0  0  0
   -7.4780   23.7890  -31.4890 S   0  0  0  0  0  0  0  0  0  0  0  0
   -7.0890   22.2840  -30.5200 C   0  0  0  0  0  0  0  0  0  0  0  0
   -7.4340   21.0310  -31.2860 C   0  0  0  0  0  0  0  0  0  0  0  0
   -8.7500   20.5350  -31.2420 C   0  0  0  0  0  0  0  0  0  0  0  0
   -9.1000   19.3850  -31.9540 C   0  0  0  0  0  0  0  0  0  0  0  0
   -8.1400   18.7150  -32.7160 C   0  0  0  0  0  0  0  0  0  0  0  0
   -6.8290   19.1930  -32.7650 C   0  0  0  0  0  0  0  0  0  0  0  0
   -6.4680   20.3450  -32.0570 C   0  0  0  0  0  0  0  0  0  0  0  0
   -4.7970   20.8920  -32.1490 Cl  0  0  0  0  0  0  0  0  0  0  0  0
   -3.7740   24.9520  -30.4730 N   0  0  0  0  0  0  0  0  0  0  0  0
   -3.2100   24.2750  -29.3410 C   0  0  0  0  0  0  0  0  0  0  0  0
   -3.9160   23.2010  -28.7800 C   0  0  0  0  0  0  0  0  0  0  0  0
   -3.3920   22.5040  -27.6890 C   0  0  0  0  0  0  0  0  0  0  0  0
   -2.1500   22.8620  -27.1580 C   0  0  0  0  0  0  0  0  0  0  0  0
   -1.4190   23.9130  -27.7260 C   0  0  0  0  0  0  0  0  0  0  0  0
    0.1660   24.3420  -27.0770 S   0  0  0  0  0  0  0  0  0  0  0  0
    0.7950   23.1240  -26.4580 O   0  0  0  0  0  0  0  0  0  0  0  0
    1.0510   24.7990  -28.2050 O   0  0  0  0  0  0  0  0  0  0  0  0
    0.0510   25.6090  -25.8800 N   0  0  0  0  0  0  0  0  0  0  0  0
   -0.9500   26.6130  -26.2890 C   0  0  0  0  0  0  0  0  0  0  0  0
   -0.9140   27.8450  -25.3620 C   0  0  0  0  0  0  0  0  0  0  0  0
   -0.4160   27.5060  -23.9460 C   0  0  0  0  0  0  0  0  0  0  0  0
   -0.8070   26.0810  -23.5490 C   0  0  0  0  0  0  0  0  0  0  0  0
   -0.2620   25.0350  -24.5480 C   0  0  0  0  0  0  0  0  0  0  0  0
   -1.9490   24.6160  -28.8190 C   0  0  0  0  0  0  0  0  0  0  0  0
   -5.7559   24.8663  -32.8076 H   0  0  0  0  0  0  0  0  0  0  0  0
   -5.1588   23.3595  -32.0083 H   0  0  0  0  0  0  0  0  0  0  0  0
   -6.0140   22.2764  -30.2871 H   0  0  0  0  0  0  0  0  0  0  0  0
   -7.6884   22.3018  -29.5978 H   0  0  0  0  0  0  0  0  0  0  0  0
   -9.5098   21.0571  -30.6419 H   0  0  0  0  0  0  0  0  0  0  0  0
  -10.1322   19.0069  -31.9145 H   0  0  0  0  0  0  0  0  0  0  0  0
   -8.4169   17.8106  -33.2776 H   0  0  0  0  0  0  0  0  0  0  0  0
   -6.0752   18.6608  -33.3638 H   0  0  0  0  0  0  0  0  0  0  0  0
   -4.8881   22.9058  -29.2017 H   0  0  0  0  0  0  0  0  0  0  0  0
   -3.9584   21.6712  -27.2466 H   0  0  0  0  0  0  0  0  0  0  0  0
   -1.7456   22.3172  -26.2921 H   0  0  0  0  0  0  0  0  0  0  0  0
    0.9920   26.0680  -25.8400 H   0  0  0  0  0  0  0  0  0  0  0  0
   -0.7371   26.9330  -27.3197 H   0  0  0  0  0  0  0  0  0  0  0  0
   -1.9486   26.1565  -26.2235 H   0  0  0  0  0  0  0  0  0  0  0  0
   -0.2418   28.5968  -25.8012 H   0  0  0  0  0  0  0  0  0  0  0  0
   -1.9427   28.2239  -25.2715 H   0  0  0  0  0  0  0  0  0  0  0  0
    0.6798   27.5982  -23.9193 H   0  0  0  0  0  0  0  0  0  0  0  0
   -0.8812   28.2057  -23.2361 H   0  0  0  0  0  0  0  0  0  0  0  0
   -0.3993   25.8654  -22.5504 H   0  0  0  0  0  0  0  0  0  0  0  0
   -1.9050   26.0153  -23.5513 H   0  0  0  0  0  0  0  0  0  0  0  0
    0.6571   24.5980  -24.1305 H   0  0  0  0  0  0  0  0  0  0  0  0
   -1.0485   24.2798  -24.6933 H   0  0  0  0  0  0  0  0  0  0  0  0
   -1.3749   25.4386  -29.2702 H   0  0  0  0  0  0  0  0  0  0  0  0
  1  2  2  0
  2  3  1  0
  3  4  1  0
  4  5  1  0
  5  6  1  0
  6  7  2  0
  7  8  1  0
  8  9  2  0
  9 10  1  0
 10 11  2  0
 11 12  1  0
  2 13  1  0
 13 14  1  0
 14 15  2  0
 15 16  1  0
 16 17  2  0
 17 18  1  0
 18 19  1  0
 19 20  2  0
 19 21  2  0
 19 22  1  0
 22 23  1  0
 23 24  1  0
 24 25  1  0
 25 26  1  0
 26 27  1  0
 18 28  2  0
 11  6  1  0
 28 14  1  0
 27 22  1  0
  3 29  1  0
  3 30  1  0
  5 31  1  0
  5 32  1  0
  7 33  1  0
  8 34  1  0
  9 35  1  0
 10 36  1  0
 15 37  1  0
 16 38  1  0
 17 39  1  0
 22 40  1  0
 23 41  1  0
 23 42  1  0
 24 43  1  0
 24 44  1  0
 25 45  1  0
 25 46  1  0
 26 47  1  0
 26 48  1  0
 27 49  1  0
 27 50  1  0
 28 51  1  0
M  CHG  2  13  -1  22   1
M  END
>  <UniqueID>  (41) 
39

>  <SMILES>  (41) 
O=C(CSCc1ccccc1Cl)[N-]c1cccc(S(=O)(=O)[NH+]2CCCCC2)c1

>  <Energy>  (41) 
54.85859787830591

>  <Genealogy>  (41) 
O=C(CSCc1ccccc1Cl)[N-]c1cccc(S(=O)(=O)[NH+]2CCCCC2)c1 (protonated)
O=C(CSCc1ccccc1Cl)[N-]c1cccc(S(=O)(=O)[NH+]2CCCCC2)c1 (3D coordinates assigned)
O=C(CSCc1ccccc1Cl)[N-]c1cccc(S(=O)(=O)[NH+]2CCCCC2)c1 (nonaromatic ring conformer: 54.85859787830591 kcal/mol)

>  <smiles>  (41) 
O=C(CSCc1ccccc1Cl)Nc1cccc(S(=O)(=O)N2CCCCC2)c1

>  <score_type>  (41) 
oracle

>  <origin>  (41) 
adgpu

>  <m_score__min__energy>  (41) 
-11.58

>  <m_primary>  (41) 
energy

$$$$
41:0
     RDKit          3D

 46 49  0  0  0  0  0  0  0  0999 V2000
   -2.9770   13.3450  -31.5820 C   0  0  0  0  0  0  0  0  0  0  0  0
   -3.6530   13.1610  -32.8760 N   0  0  0  0  0  0  0  0  0  0  0  0
   -5.1100   12.9970  -32.6760 C   0  0  0  0  0  0  0  0  0  0  0  0
   -5.8820   13.2670  -33.9750 C   0  0  0  0  0  0  0  0  0  0  0  0
   -5.6680   14.6470  -34.4870 N   0  0  0  0  0  0  0  0  0  0  0  0
   -6.8310   15.5220  -34.2370 C   0  0  0  0  0  0  0  0  0  0  0  0
   -6.3810   16.8550  -33.6970 C   0  0  0  0  0  0  0  0  0  0  0  0
   -6.2110   17.0480  -32.3190 C   0  0  0  0  0  0  0  0  0  0  0  0
   -5.8030   18.2900  -31.8260 C   0  0  0  0  0  0  0  0  0  0  0  0
   -5.5540   19.3640  -32.7000 C   0  0  0  0  0  0  0  0  0  0  0  0
   -5.1210   20.6810  -32.1660 C   0  0  0  0  0  0  0  0  0  0  0  0
   -5.7590   21.9110  -32.3490 C   0  0  0  0  0  0  0  0  0  0  0  0
   -5.1110   22.9830  -31.7220 C   0  0  0  0  0  0  0  0  0  0  0  0
   -3.9580   22.6090  -31.0410 C   0  0  0  0  0  0  0  0  0  0  0  0
   -3.0610   23.4980  -30.2890 C   0  0  0  0  0  0  0  0  0  0  0  0
   -1.8390   23.1590  -29.7450 C   0  0  0  0  0  0  0  0  0  0  0  0
   -1.4140   24.3300  -29.1560 C   0  0  0  0  0  0  0  0  0  0  0  0
   -0.1800   24.5100  -28.4440 C   0  0  0  0  0  0  0  0  0  0  0  0
    0.8150   24.6570  -27.8710 N   0  0  0  0  0  0  0  0  0  0  0  0
   -2.3260   25.3010  -29.3390 N   0  0  0  0  0  0  0  0  0  0  0  0
   -3.3330   24.7930  -30.0320 N   0  0  0  0  0  0  0  0  0  0  0  0
   -3.7480   20.9520  -31.2210 S   0  0  0  0  0  0  0  0  0  0  0  0
   -5.7300   19.1630  -34.0820 C   0  0  0  0  0  0  0  0  0  0  0  0
   -6.1390   17.9200  -34.5750 C   0  0  0  0  0  0  0  0  0  0  0  0
   -4.4270   15.2760  -33.9810 C   0  0  0  0  0  0  0  0  0  0  0  0
   -3.3010   14.2440  -33.8290 C   0  0  0  0  0  0  0  0  0  0  0  0
   -3.6885   13.1513  -30.7658 H   0  0  0  0  0  0  0  0  0  0  0  0
   -2.1327   12.6440  -31.5064 H   0  0  0  0  0  0  0  0  0  0  0  0
   -2.6044   14.3772  -31.5064 H   0  0  0  0  0  0  0  0  0  0  0  0
   -5.3132   11.9678  -32.3450 H   0  0  0  0  0  0  0  0  0  0  0  0
   -5.4412   13.7209  -31.9168 H   0  0  0  0  0  0  0  0  0  0  0  0
   -5.5473   12.5508  -34.7399 H   0  0  0  0  0  0  0  0  0  0  0  0
   -6.9542   13.1533  -33.7570 H   0  0  0  0  0  0  0  0  0  0  0  0
   -7.3758   15.6784  -35.1797 H   0  0  0  0  0  0  0  0  0  0  0  0
   -7.4863   15.0405  -33.4962 H   0  0  0  0  0  0  0  0  0  0  0  0
   -6.3997   16.2177  -31.6226 H   0  0  0  0  0  0  0  0  0  0  0  0
   -5.6750   18.4297  -30.7424 H   0  0  0  0  0  0  0  0  0  0  0  0
   -6.6848   22.0266  -32.9317 H   0  0  0  0  0  0  0  0  0  0  0  0
   -5.4783   24.0190  -31.7643 H   0  0  0  0  0  0  0  0  0  0  0  0
   -1.3265   22.1862  -29.7745 H   0  0  0  0  0  0  0  0  0  0  0  0
   -5.5440   19.9918  -34.7810 H   0  0  0  0  0  0  0  0  0  0  0  0
   -6.2715   17.7775  -35.6577 H   0  0  0  0  0  0  0  0  0  0  0  0
   -4.1060   16.0551  -34.6881 H   0  0  0  0  0  0  0  0  0  0  0  0
   -4.6359   15.7103  -32.9922 H   0  0  0  0  0  0  0  0  0  0  0  0
   -3.0963   13.7966  -34.8128 H   0  0  0  0  0  0  0  0  0  0  0  0
   -2.4175   14.7662  -33.4330 H   0  0  0  0  0  0  0  0  0  0  0  0
  1  2  1  0
  2  3  1  0
  3  4  1  0
  4  5  1  0
  5  6  1  0
  6  7  1  0
  7  8  2  0
  8  9  1  0
  9 10  2  0
 10 11  1  0
 11 12  2  0
 12 13  1  0
 13 14  2  0
 14 15  1  0
 15 16  1  0
 16 17  2  0
 17 18  1  0
 18 19  3  0
 17 20  1  0
 20 21  1  0
 14 22  1  0
 10 23  1  0
 23 24  2  0
  5 25  1  0
 25 26  1  0
 26  2  1  0
 24  7  1  0
 22 11  1  0
 21 15  2  0
  1 27  1  0
  1 28  1  0
  1 29  1  0
  3 30  1  0
  3 31  1  0
  4 32  1  0
  4 33  1  0
  6 34  1  0
  6 35  1  0
  8 36  1  0
  9 37  1  0
 12 38  1  0
 13 39  1  0
 16 40  1  0
 23 41  1  0
 24 42  1  0
 25 43  1  0
 25 44  1  0
 26 45  1  0
 26 46  1  0
M  CHG  1  20  -1
M  END
>  <UniqueID>  (42) 
40

>  <SMILES>  (42) 
CN1CCN(Cc2ccc(-c3ccc(-c4cc(C#N)[n-]n4)s3)cc2)CC1

>  <Energy>  (42) 
117.6919078160911

>  <Genealogy>  (42) 
CN1CCN(Cc2ccc(-c3ccc(-c4cc(C#N)[n-]n4)s3)cc2)CC1 (protonated)
CN1CCN(Cc2ccc(-c3ccc(-c4cc(C#N)[n-]n4)s3)cc2)CC1 (3D coordinates assigned)
CN1CCN(Cc2ccc(-c3ccc(-c4cc(C#N)[n-]n4)s3)cc2)CC1 (nonaromatic ring conformer: 117.6919078160911 kcal/mol)

>  <smiles>  (42) 
CN1CCN(Cc2ccc(-c3ccc(-c4cc(C#N)[nH]n4)s3)cc2)CC1

>  <score_type>  (42) 
oracle

>  <origin>  (42) 
adgpu

>  <m_score__min__energy>  (42) 
-10.24

>  <m_primary>  (42) 
energy

$$$$
42:0
     RDKit          3D

 50 52  0  0  0  0  0  0  0  0999 V2000
   -4.2040   21.3780  -33.0790 C   0  0  0  0  0  0  0  0  0  0  0  0
   -5.4100   21.8390  -32.3790 N   0  0  0  0  0  0  0  0  0  0  0  0
   -6.6710   21.1180  -32.5930 C   0  0  0  0  0  0  0  0  0  0  0  0
   -5.3550   22.9800  -31.4840 C   0  0  0  0  0  0  0  0  0  0  0  0
   -6.5320   23.6560  -31.1000 C   0  0  0  0  0  0  0  0  0  0  0  0
   -6.4780   24.7490  -30.2300 C   0  0  0  0  0  0  0  0  0  0  0  0
   -5.2530   25.1920  -29.7350 C   0  0  0  0  0  0  0  0  0  0  0  0
   -4.0650   24.5510  -30.1180 C   0  0  0  0  0  0  0  0  0  0  0  0
   -2.7880   24.9780  -29.6200 N   0  0  0  0  0  0  0  0  0  0  0  0
   -1.7240   24.1190  -29.1890 C   0  0  0  0  0  0  0  0  0  0  0  0
   -1.0970   23.4520  -30.0550 O   0  0  0  0  0  0  0  0  0  0  0  0
   -1.3150   24.0330  -27.7670 C   0  0  0  0  0  0  0  0  0  0  0  0
   -1.1110   22.7860  -27.1520 C   0  0  0  0  0  0  0  0  0  0  0  0
   -0.7080   22.7150  -25.8170 C   0  0  0  0  0  0  0  0  0  0  0  0
   -0.5170   23.8840  -25.0780 C   0  0  0  0  0  0  0  0  0  0  0  0
   -0.7410   25.1340  -25.6690 C   0  0  0  0  0  0  0  0  0  0  0  0
   -0.4760   26.6030  -24.7330 S   0  0  0  0  0  0  0  0  0  0  0  0
   -1.6520   26.8010  -23.8160 O   0  0  0  0  0  0  0  0  0  0  0  0
   -0.3940   27.7830  -25.6610 O   0  0  0  0  0  0  0  0  0  0  0  0
    1.0000   26.4360  -23.8010 N   0  0  0  0  0  0  0  0  0  0  0  0
    1.2560   27.6310  -22.9720 C   0  0  0  0  0  0  0  0  0  0  0  0
    1.7130   28.8430  -23.8190 C   0  0  0  0  0  0  0  0  0  0  0  0
    2.1830   28.4890  -25.1080 O   0  0  0  0  0  0  0  0  0  0  0  0
    3.0000   27.3420  -25.0330 C   0  0  0  0  0  0  0  0  0  0  0  0
    2.1590   26.1050  -24.6650 C   0  0  0  0  0  0  0  0  0  0  0  0
   -1.1420   25.2050  -27.0110 C   0  0  0  0  0  0  0  0  0  0  0  0
   -4.1230   23.4410  -30.9700 C   0  0  0  0  0  0  0  0  0  0  0  0
   -3.4412   21.0864  -32.3420 H   0  0  0  0  0  0  0  0  0  0  0  0
   -4.4545   20.5122  -33.7096 H   0  0  0  0  0  0  0  0  0  0  0  0
   -3.8131   22.1901  -33.7096 H   0  0  0  0  0  0  0  0  0  0  0  0
   -7.1171   20.8629  -31.6204 H   0  0  0  0  0  0  0  0  0  0  0  0
   -7.3661   21.7552  -33.1594 H   0  0  0  0  0  0  0  0  0  0  0  0
   -6.4745   20.1958  -33.1594 H   0  0  0  0  0  0  0  0  0  0  0  0
   -7.5039   23.3191  -31.4897 H   0  0  0  0  0  0  0  0  0  0  0  0
   -7.4058   25.2611  -29.9351 H   0  0  0  0  0  0  0  0  0  0  0  0
   -5.2173   26.0460  -29.0426 H   0  0  0  0  0  0  0  0  0  0  0  0
   -1.2697   21.8608  -27.7254 H   0  0  0  0  0  0  0  0  0  0  0  0
   -0.5405   21.7351  -25.3461 H   0  0  0  0  0  0  0  0  0  0  0  0
   -0.1899   23.8233  -24.0295 H   0  0  0  0  0  0  0  0  0  0  0  0
    0.8420   25.6320  -23.1500 H   0  0  0  0  0  0  0  0  0  0  0  0
    0.3306   27.8987  -22.4410 H   0  0  0  0  0  0  0  0  0  0  0  0
    2.0651   27.3866  -22.2680 H   0  0  0  0  0  0  0  0  0  0  0  0
    0.8597   29.5273  -23.9357 H   0  0  0  0  0  0  0  0  0  0  0  0
    2.5541   29.3104  -23.2860 H   0  0  0  0  0  0  0  0  0  0  0  0
    3.4813   27.1757  -26.0081 H   0  0  0  0  0  0  0  0  0  0  0  0
    3.7627   27.4982  -24.2559 H   0  0  0  0  0  0  0  0  0  0  0  0
    1.7865   25.6445  -25.5919 H   0  0  0  0  0  0  0  0  0  0  0  0
    2.8077   25.4185  -24.1012 H   0  0  0  0  0  0  0  0  0  0  0  0
   -1.3225   26.1856  -27.4755 H   0  0  0  0  0  0  0  0  0  0  0  0
   -3.1937   22.9197  -31.2433 H   0  0  0  0  0  0  0  0  0  0  0  0
  1  2  1  0
  2  3  1  0
  2  4  1  0
  4  5  2  0
  5  6  1  0
  6  7  2  0
  7  8  1  0
  8  9  1  0
  9 10  1  0
 10 11  2  0
 10 12  1  0
 12 13  2  0
 13 14  1  0
 14 15  2  0
 15 16  1  0
 16 17  1  0
 17 18  2  0
 17 19  2  0
 17 20  1  0
 20 21  1  0
 21 22  1  0
 22 23  1  0
 23 24  1  0
 24 25  1  0
 16 26  2  0
  8 27  2  0
 27  4  1  0
 26 12  1  0
 25 20  1  0
  1 28  1  0
  1 29  1  0
  1 30  1  0
  3 31  1  0
  3 32  1  0
  3 33  1  0
  5 34  1  0
  6 35  1  0
  7 36  1  0
 13 37  1  0
 14 38  1  0
 15 39  1  0
 20 40  1  0
 21 41  1  0
 21 42  1  0
 22 43  1  0
 22 44  1  0
 24 45  1  0
 24 46  1  0
 25 47  1  0
 25 48  1  0
 26 49  1  0
 27 50  1  0
M  CHG  2   9  -1  20   1
M  END
>  <UniqueID>  (43) 
41

>  <SMILES>  (43) 
CN(C)c1cccc([N-]C(=O)c2cccc(S(=O)(=O)[NH+]3CCOCC3)c2)c1

>  <Energy>  (43) 
69.72487771293592

>  <Genealogy>  (43) 
CN(C)c1cccc([N-]C(=O)c2cccc(S(=O)(=O)[NH+]3CCOCC3)c2)c1 (protonated)
CN(C)c1cccc([N-]C(=O)c2cccc(S(=O)(=O)[NH+]3CCOCC3)c2)c1 (3D coordinates assigned)
CN(C)c1cccc([N-]C(=O)c2cccc(S(=O)(=O)[NH+]3CCOCC3)c2)c1 (nonaromatic ring conformer: 69.72487771293592 kcal/mol)

>  <smiles>  (43) 
CN(C)c1cccc(NC(=O)c2cccc(S(=O)(=O)N3CCOCC3)c2)c1

>  <score_type>  (43) 
oracle

>  <origin>  (43) 
adgpu

>  <m_score__min__energy>  (43) 
-10.19

>  <m_primary>  (43) 
energy

$$$$
43:0
     RDKit          3D

 41 43  0  0  0  0  0  0  0  0999 V2000
   -1.6100   25.6740  -30.0420 H   0  0  0  0  0  0  0  0  0  0  0  0
   -2.0280   25.0370  -29.3270 N   0  0  0  0  0  0  0  0  0  0  0  0
   -3.5280   24.4720  -29.9700 S   0  0  0  0  0  0  0  0  0  0  0  0
   -4.4810   24.1790  -28.8440 O   0  0  0  0  0  0  0  0  0  0  0  0
   -4.1310   25.5370  -30.8450 O   0  0  0  0  0  0  0  0  0  0  0  0
   -3.2510   23.0130  -30.9160 C   0  0  0  0  0  0  0  0  0  0  0  0
   -4.2830   22.4670  -31.6900 C   0  0  0  0  0  0  0  0  0  0  0  0
   -5.2641   22.9636  -31.7199 H   0  0  0  0  0  0  0  0  0  0  0  0
   -4.0760   21.2970  -32.4240 C   0  0  0  0  0  0  0  0  0  0  0  0
   -5.1320   20.7950  -33.2000 O   0  0  0  0  0  0  0  0  0  0  0  0
   -6.3760   20.3730  -32.7050 C   0  0  0  0  0  0  0  0  0  0  0  0
   -6.6780   19.0120  -32.5190 C   0  0  0  0  0  0  0  0  0  0  0  0
   -5.9310   18.2450  -32.7715 H   0  0  0  0  0  0  0  0  0  0  0  0
   -7.9250   18.6310  -32.0140 C   0  0  0  0  0  0  0  0  0  0  0  0
   -8.1620   17.5650  -31.8817 H   0  0  0  0  0  0  0  0  0  0  0  0
   -8.8710   19.6040  -31.6770 C   0  0  0  0  0  0  0  0  0  0  0  0
   -9.8538   19.3036  -31.2847 H   0  0  0  0  0  0  0  0  0  0  0  0
   -8.5670   20.9580  -31.8390 C   0  0  0  0  0  0  0  0  0  0  0  0
   -9.3087   21.7234  -31.5671 H   0  0  0  0  0  0  0  0  0  0  0  0
   -7.3220   21.3420  -32.3460 C   0  0  0  0  0  0  0  0  0  0  0  0
   -7.0842   22.4095  -32.4635 H   0  0  0  0  0  0  0  0  0  0  0  0
   -2.8110   20.6820  -32.4050 C   0  0  0  0  0  0  0  0  0  0  0  0
   -2.6396   19.7695  -32.9949 H   0  0  0  0  0  0  0  0  0  0  0  0
   -1.7640   21.2230  -31.6390 C   0  0  0  0  0  0  0  0  0  0  0  0
   -0.4300   20.5710  -31.6070 C   0  0  0  0  0  0  0  0  0  0  0  0
    0.5250   21.0840  -32.2500 O   0  0  0  0  0  0  0  0  0  0  0  0
   -0.1680   19.4110  -30.8040 N   0  0  0  0  0  0  0  0  0  0  0  0
   -0.4150   19.2960  -29.5320 C   0  0  0  0  0  0  0  0  0  0  0  0
   -0.0860   18.1940  -28.7680 C   0  0  0  0  0  0  0  0  0  0  0  0
    0.4231   17.2744  -29.0922 H   0  0  0  0  0  0  0  0  0  0  0  0
   -0.5430   18.5110  -27.5020 C   0  0  0  0  0  0  0  0  0  0  0  0
   -0.4470   17.8763  -26.6087 H   0  0  0  0  0  0  0  0  0  0  0  0
   -1.1260   19.7270  -27.5430 N   0  0  0  0  0  0  0  0  0  0  0  0
   -1.6750   20.4530  -26.4050 C   0  0  0  0  0  0  0  0  0  0  0  0
   -1.3246   19.9897  -25.4709 H   0  0  0  0  0  0  0  0  0  0  0  0
   -1.3410   21.5004  -26.4425 H   0  0  0  0  0  0  0  0  0  0  0  0
   -2.7738   20.4169  -26.4425 H   0  0  0  0  0  0  0  0  0  0  0  0
   -1.0470   20.2130  -28.7700 N   0  0  0  0  0  0  0  0  0  0  0  0
   -1.4330   21.1380  -29.0670 H   0  0  0  0  0  0  0  0  0  0  0  0
   -1.9990   22.3820  -30.8820 C   0  0  0  0  0  0  0  0  0  0  0  0
   -1.1949   22.7983  -30.2574 H   0  0  0  0  0  0  0  0  0  0  0  0
  1  2  1  0
  2  3  1  0
  3  4  2  0
  3  5  2  0
  3  6  1  0
  6  7  2  0
  7  8  1  0
  7  9  1  0
  9 10  1  0
 10 11  1  0
 11 12  2  0
 12 13  1  0
 12 14  1  0
 14 15  1  0
 14 16  2  0
 16 17  1  0
 16 18  1  0
 18 19  1  0
 18 20  2  0
 20 21  1  0
  9 22  2  0
 22 23  1  0
 22 24  1  0
 24 25  1  0
 25 26  2  0
 25 27  1  0
 27 28  2  0
 28 29  1  0
 29 30  1  0
 29 31  2  0
 31 32  1  0
 31 33  1  0
 33 34  1  0
 34 35  1  0
 34 36  1  0
 34 37  1  0
 33 38  1  0
 38 39  1  0
 24 40  2  0
 40 41  1  0
 40  6  1  0
 20 11  1  0
 38 28  1  0
M  CHG  1   2  -1
M  END
>  <UniqueID>  (44) 
42

>  <SMILES>  (44) 
Cn1cc/c(=N/C(=O)c2cc(Oc3ccccc3)cc(S([NH-])(=O)=O)c2)[nH]1

>  <Energy>  (44) 
87.46083928403455

>  <Genealogy>  (44) 
Cn1ccc(=NC(=O)c2cc(Oc3ccccc3)cc(S([NH-])(=O)=O)c2)[nH]1 (protonated)
Cn1cc/c(=N/C(=O)c2cc(Oc3ccccc3)cc(S([NH-])(=O)=O)c2)[nH]1 (cis-trans isomerization)
Cn1cc/c(=N/C(=O)c2cc(Oc3ccccc3)cc(S([NH-])(=O)=O)c2)[nH]1 (3D coordinates assigned)
Cn1cc/c(=N/C(=O)c2cc(Oc3ccccc3)cc(S([NH-])(=O)=O)c2)[nH]1 (optimized conformer: 87.46083928403455 kcal/mol)

>  <smiles>  (44) 
Cn1ccc(=NC(=O)c2cc(Oc3ccccc3)cc(S(N)(=O)=O)c2)[nH]1

>  <score_type>  (44) 
oracle

>  <origin>  (44) 
adgpu

>  <m_score__min__energy>  (44) 
-10.59

>  <m_primary>  (44) 
energy

$$$$
44:0
     RDKit          3D

 41 43  0  0  0  0  0  0  0  0999 V2000
   -2.9470   23.8140  -27.3050 C   0  0  0  0  0  0  0  0  0  0  0  0
   -3.4300   24.2440  -28.6540 C   0  0  0  0  0  0  0  0  0  0  0  0
   -2.8160   25.1870  -29.3930 N   0  0  0  0  0  0  0  0  0  0  0  0
   -3.4840   25.2990  -30.5030 O   0  0  0  0  0  0  0  0  0  0  0  0
   -4.5070   24.4770  -30.5320 C   0  0  0  0  0  0  0  0  0  0  0  0
   -5.3050   24.4220  -31.5600 N   0  0  0  0  0  0  0  0  0  0  0  0
   -6.7090   23.4340  -31.8140 S   0  0  0  0  0  0  0  0  0  0  0  0
   -7.4780   23.9130  -33.0130 O   0  0  0  0  0  0  0  0  0  0  0  0
   -7.5950   23.4430  -30.6010 O   0  0  0  0  0  0  0  0  0  0  0  0
   -6.1680   21.7850  -32.1050 C   0  0  0  0  0  0  0  0  0  0  0  0
   -4.9590   21.5470  -32.7720 C   0  0  0  0  0  0  0  0  0  0  0  0
   -4.5360   20.2380  -33.0170 C   0  0  0  0  0  0  0  0  0  0  0  0
   -5.3100   19.1480  -32.5900 C   0  0  0  0  0  0  0  0  0  0  0  0
   -4.8630   17.8120  -32.8790 N   0  0  0  0  0  0  0  0  0  0  0  0
   -5.6110   16.8720  -33.6730 C   0  0  0  0  0  0  0  0  0  0  0  0
   -6.7710   17.1680  -34.0720 O   0  0  0  0  0  0  0  0  0  0  0  0
   -5.0480   15.5470  -34.0320 C   0  0  0  0  0  0  0  0  0  0  0  0
   -3.7610   15.4600  -34.5920 C   0  0  0  0  0  0  0  0  0  0  0  0
   -3.2260   14.2180  -34.9350 C   0  0  0  0  0  0  0  0  0  0  0  0
   -3.9820   13.0660  -34.7240 C   0  0  0  0  0  0  0  0  0  0  0  0
   -5.2310   13.1600  -34.1990 N   0  0  0  0  0  0  0  0  0  0  0  0
   -5.7760   14.3570  -33.8520 C   0  0  0  0  0  0  0  0  0  0  0  0
   -6.5380   19.3900  -31.9500 C   0  0  0  0  0  0  0  0  0  0  0  0
   -6.9610   20.7010  -31.7060 C   0  0  0  0  0  0  0  0  0  0  0  0
   -4.5330   23.7540  -29.3380 C   0  0  0  0  0  0  0  0  0  0  0  0
   -5.4400   22.6560  -28.8680 C   0  0  0  0  0  0  0  0  0  0  0  0
   -3.5271   24.3305  -26.5261 H   0  0  0  0  0  0  0  0  0  0  0  0
   -3.0766   22.7269  -27.1985 H   0  0  0  0  0  0  0  0  0  0  0  0
   -1.8822   24.0685  -27.1985 H   0  0  0  0  0  0  0  0  0  0  0  0
   -4.3405   22.3939  -33.1040 H   0  0  0  0  0  0  0  0  0  0  0  0
   -3.5894   20.0606  -33.5485 H   0  0  0  0  0  0  0  0  0  0  0  0
   -3.9670   17.5100  -32.4370 H   0  0  0  0  0  0  0  0  0  0  0  0
   -3.1738   16.3748  -34.7603 H   0  0  0  0  0  0  0  0  0  0  0  0
   -2.2171   14.1485  -35.3679 H   0  0  0  0  0  0  0  0  0  0  0  0
   -3.5669   12.0807  -34.9827 H   0  0  0  0  0  0  0  0  0  0  0  0
   -6.7906   14.3945  -33.4287 H   0  0  0  0  0  0  0  0  0  0  0  0
   -7.1694   18.5444  -31.6395 H   0  0  0  0  0  0  0  0  0  0  0  0
   -7.9202   20.8815  -31.1988 H   0  0  0  0  0  0  0  0  0  0  0  0
   -5.4548   22.6381  -27.7682 H   0  0  0  0  0  0  0  0  0  0  0  0
   -6.4577   22.8343  -29.2455 H   0  0  0  0  0  0  0  0  0  0  0  0
   -5.0728   21.6903  -29.2455 H   0  0  0  0  0  0  0  0  0  0  0  0
  1  2  1  0
  2  3  1  0
  3  4  1  0
  4  5  1  0
  5  6  2  3
  6  7  1  0
  7  8  2  0
  7  9  2  0
  7 10  1  0
 10 11  2  0
 11 12  1  0
 12 13  2  0
 13 14  1  0
 14 15  1  0
 15 16  2  0
 15 17  1  0
 17 18  2  0
 18 19  1  0
 19 20  2  0
 20 21  1  0
 21 22  2  0
 13 23  1  0
 23 24  2  0
  5 25  1  0
 25 26  1  0
 25  2  2  0
 24 10  1  0
 22 17  1  0
  1 27  1  0
  1 28  1  0
  1 29  1  0
 11 30  1  0
 12 31  1  0
 14 32  1  0
 18 33  1  0
 19 34  1  0
 20 35  1  0
 22 36  1  0
 23 37  1  0
 24 38  1  0
 26 39  1  0
 26 40  1  0
 26 41  1  0
M  CHG  1   3  -1
M  END
>  <UniqueID>  (45) 
43

>  <SMILES>  (45) 
Cc1[n-]oc(=NS(=O)(=O)c2ccc(NC(=O)c3cccnc3)cc2)c1C

>  <Energy>  (45) 
91.3757623027235

>  <Genealogy>  (45) 
Cc1[n-]oc(=NS(=O)(=O)c2ccc(NC(=O)c3cccnc3)cc2)c1C (protonated)
Cc1[n-]oc(=NS(=O)(=O)c2ccc(NC(=O)c3cccnc3)cc2)c1C (3D coordinates assigned)
Cc1[n-]oc(=NS(=O)(=O)c2ccc(NC(=O)c3cccnc3)cc2)c1C (optimized conformer: 91.3757623027235 kcal/mol)

>  <smiles>  (45) 
Cc1[nH]oc(=NS(=O)(=O)c2ccc(NC(=O)c3cccnc3)cc2)c1C

>  <score_type>  (45) 
oracle

>  <origin>  (45) 
adgpu

>  <m_score__min__energy>  (45) 
-10.539999999999999

>  <m_primary>  (45) 
energy

$$$$
45:0
     RDKit          3D

 40 43  0  0  0  0  0  0  0  0999 V2000
   -8.4060   19.1341  -32.1963 H   0  0  0  0  0  0  0  0  0  0  0  0
   -7.6150   19.8870  -32.3280 C   0  0  0  0  0  0  0  0  0  0  0  0
   -7.8950   21.2340  -32.0830 C   0  0  0  0  0  0  0  0  0  0  0  0
   -8.9027   21.5330  -31.7589 H   0  0  0  0  0  0  0  0  0  0  0  0
   -6.8990   22.2060  -32.2480 C   0  0  0  0  0  0  0  0  0  0  0  0
   -7.1870   23.6570  -31.9620 C   0  0  0  0  0  0  0  0  0  0  0  0
   -7.8484   23.7288  -31.0860 H   0  0  0  0  0  0  0  0  0  0  0  0
   -7.6730   24.1030  -32.8423 H   0  0  0  0  0  0  0  0  0  0  0  0
   -5.9470   24.3820  -31.6890 N   0  0  0  0  0  0  0  0  0  0  0  0
   -5.1610   24.1570  -30.6780 C   0  0  0  0  0  0  0  0  0  0  0  0
   -4.0210   24.9000  -30.5410 N   0  0  0  0  0  0  0  0  0  0  0  0
   -3.2110   24.6510  -29.4850 C   0  0  0  0  0  0  0  0  0  0  0  0
   -3.4970   23.6920  -28.5630 C   0  0  0  0  0  0  0  0  0  0  0  0
   -4.6490   22.9320  -28.6880 C   0  0  0  0  0  0  0  0  0  0  0  0
   -4.8980   22.1511  -27.9544 H   0  0  0  0  0  0  0  0  0  0  0  0
   -5.4640   23.1860  -29.7530 N   0  0  0  0  0  0  0  0  0  0  0  0
   -2.4830   23.6940  -27.6310 C   0  0  0  0  0  0  0  0  0  0  0  0
   -2.3825   23.0510  -26.7442 H   0  0  0  0  0  0  0  0  0  0  0  0
   -1.6130   24.6930  -28.0630 C   0  0  0  0  0  0  0  0  0  0  0  0
    0.0050   25.1880  -27.1830 Br  0  0  0  0  0  0  0  0  0  0  0  0
   -2.0600   25.2790  -29.1990 N   0  0  0  0  0  0  0  0  0  0  0  0
   -1.6080   26.0520  -29.7370 H   0  0  0  0  0  0  0  0  0  0  0  0
   -5.6180   21.8130  -32.6580 C   0  0  0  0  0  0  0  0  0  0  0  0
   -4.8297   22.5693  -32.7872 H   0  0  0  0  0  0  0  0  0  0  0  0
   -5.3350   20.4660  -32.9040 C   0  0  0  0  0  0  0  0  0  0  0  0
   -4.3256   20.1715  -33.2271 H   0  0  0  0  0  0  0  0  0  0  0  0
   -6.3300   19.4830  -32.7420 C   0  0  0  0  0  0  0  0  0  0  0  0
   -6.0400   18.0870  -32.9950 N   0  0  0  0  0  0  0  0  0  0  0  0
   -5.7850   17.1070  -31.9490 C   0  0  0  0  0  0  0  0  0  0  0  0
   -4.9824   17.4578  -31.2836 H   0  0  0  0  0  0  0  0  0  0  0  0
   -6.6757   16.9415  -31.3251 H   0  0  0  0  0  0  0  0  0  0  0  0
   -5.3600   15.8330  -32.6650 C   0  0  0  0  0  0  0  0  0  0  0  0
   -4.2678   15.7118  -32.6158 H   0  0  0  0  0  0  0  0  0  0  0  0
   -5.8056   14.9400  -32.2024 H   0  0  0  0  0  0  0  0  0  0  0  0
   -5.8110   16.0010  -34.1110 C   0  0  0  0  0  0  0  0  0  0  0  0
   -5.0558   15.5914  -34.7980 H   0  0  0  0  0  0  0  0  0  0  0  0
   -6.7514   15.4650  -34.3071 H   0  0  0  0  0  0  0  0  0  0  0  0
   -5.9650   17.5010  -34.3250 C   0  0  0  0  0  0  0  0  0  0  0  0
   -5.0979   17.9008  -34.8711 H   0  0  0  0  0  0  0  0  0  0  0  0
   -6.8597   17.7346  -34.9208 H   0  0  0  0  0  0  0  0  0  0  0  0
  1  2  1  0
  2  3  2  0
  3  4  1  0
  3  5  1  0
  5  6  1  0
  6  7  1  0
  6  8  1  0
  6  9  1  0
  9 10  2  0
 10 11  1  0
 11 12  2  0
 12 13  1  0
 13 14  2  0
 14 15  1  0
 14 16  1  0
 13 17  1  0
 17 18  1  0
 17 19  2  0
 19 20  1  0
 19 21  1  0
 21 22  1  0
  5 23  2  0
 23 24  1  0
 23 25  1  0
 25 26  1  0
 25 27  2  0
 27 28  1  0
 28 29  1  0
 29 30  1  0
 29 31  1  0
 29 32  1  0
 32 33  1  0
 32 34  1  0
 32 35  1  0
 35 36  1  0
 35 37  1  0
 35 38  1  0
 38 39  1  0
 38 40  1  0
 27  2  1  0
 38 28  1  0
 16 10  1  0
 21 12  1  0
M  CHG  1  16  -1
M  END
>  <UniqueID>  (46) 
44

>  <SMILES>  (46) 
Brc1cc2c[n-]/c(=N\Cc3ccc(N4CCCC4)cc3)nc2[nH]1

>  <Energy>  (46) 
79.28100964116527

>  <Genealogy>  (46) 
Brc1cc2c[n-]c(=NCc3ccc(N4CCCC4)cc3)nc2[nH]1 (protonated)
Brc1cc2c[n-]/c(=N\Cc3ccc(N4CCCC4)cc3)nc2[nH]1 (cis-trans isomerization)
Brc1cc2c[n-]/c(=N\Cc3ccc(N4CCCC4)cc3)nc2[nH]1 (3D coordinates assigned)
Brc1cc2c[n-]/c(=N\Cc3ccc(N4CCCC4)cc3)nc2[nH]1 (nonaromatic ring conformer: 79.28100964116527 kcal/mol)

>  <smiles>  (46) 
Brc1cc2c[nH]c(=NCc3ccc(N4CCCC4)cc3)nc2[nH]1

>  <score_type>  (46) 
oracle

>  <origin>  (46) 
adgpu

>  <m_score__min__energy>  (46) 
-10.390000000000001

>  <m_primary>  (46) 
energy

$$$$
46:0
     RDKit          3D

 41 43  0  0  0  0  0  0  0  0999 V2000
   -4.5780   25.5180  -30.8650 O   0  0  0  0  0  0  0  0  0  0  0  0
   -3.8310   24.5920  -30.4520 C   0  0  0  0  0  0  0  0  0  0  0  0
   -2.7460   24.9210  -29.5740 N   0  0  0  0  0  0  0  0  0  0  0  0
   -2.1520   24.0930  -28.5170 C   0  0  1  0  0  0  0  0  0  0  0  0
   -3.1880   23.7530  -27.4290 C   0  0  0  0  0  0  0  0  0  0  0  0
   -4.0060   22.5050  -27.7580 C   0  0  0  0  0  0  0  0  0  0  0  0
   -3.0880   21.3010  -27.9590 C   0  0  0  0  0  0  0  0  0  0  0  0
   -2.0740   21.5700  -28.9870 N   0  0  0  0  0  0  0  0  0  0  0  0
   -1.5290   20.4440  -29.7540 C   0  0  0  0  0  0  0  0  0  0  0  0
   -1.8190   20.6250  -31.2100 C   0  0  0  0  0  0  0  0  0  0  0  0
   -2.5610   19.7690  -31.9990 C   0  0  0  0  0  0  0  0  0  0  0  0
   -2.5900   20.3520  -33.2480 C   0  0  0  0  0  0  0  0  0  0  0  0
   -1.8700   21.5250  -33.1420 C   0  0  0  0  0  0  0  0  0  0  0  0
   -1.4250   21.6600  -31.9140 O   0  0  0  0  0  0  0  0  0  0  0  0
   -1.4630   22.8740  -29.0740 C   0  0  0  0  0  0  0  0  0  0  0  0
   -0.3630   23.0210  -29.6760 O   0  0  0  0  0  0  0  0  0  0  0  0
   -4.0200   23.2560  -30.9380 N   0  0  0  0  0  0  0  0  0  0  0  0
   -5.3060   22.6770  -31.2250 C   0  0  0  0  0  0  0  0  0  0  0  0
   -5.4810   21.7480  -32.2700 C   0  0  0  0  0  0  0  0  0  0  0  0
   -6.7500   21.2250  -32.5440 C   0  0  0  0  0  0  0  0  0  0  0  0
   -7.8530   21.6310  -31.7900 C   0  0  0  0  0  0  0  0  0  0  0  0
   -7.6920   22.5650  -30.7630 C   0  0  0  0  0  0  0  0  0  0  0  0
   -6.4260   23.0900  -30.4860 C   0  0  0  0  0  0  0  0  0  0  0  0
   -1.3635   24.6853  -28.0296 H   0  0  0  0  0  0  0  0  0  0  0  0
   -2.6582   23.5855  -26.4796 H   0  0  0  0  0  0  0  0  0  0  0  0
   -3.8878   24.5991  -27.3628 H   0  0  0  0  0  0  0  0  0  0  0  0
   -4.6989   22.2975  -26.9292 H   0  0  0  0  0  0  0  0  0  0  0  0
   -4.5679   22.6827  -28.6868 H   0  0  0  0  0  0  0  0  0  0  0  0
   -2.5833   21.0724  -27.0087 H   0  0  0  0  0  0  0  0  0  0  0  0
   -3.6999   20.4485  -28.2890 H   0  0  0  0  0  0  0  0  0  0  0  0
   -0.4405   20.3942  -29.6034 H   0  0  0  0  0  0  0  0  0  0  0  0
   -1.9982   19.5116  -29.4069 H   0  0  0  0  0  0  0  0  0  0  0  0
   -3.0302   18.8216  -31.6952 H   0  0  0  0  0  0  0  0  0  0  0  0
   -3.0870   19.9610  -34.1481 H   0  0  0  0  0  0  0  0  0  0  0  0
   -1.6956   22.2379  -33.9613 H   0  0  0  0  0  0  0  0  0  0  0  0
   -3.1700   22.7240  -31.2230 H   0  0  0  0  0  0  0  0  0  0  0  0
   -4.6167   21.4325  -32.8729 H   0  0  0  0  0  0  0  0  0  0  0  0
   -6.8787   20.4928  -33.3548 H   0  0  0  0  0  0  0  0  0  0  0  0
   -8.8487   21.2156  -32.0044 H   0  0  0  0  0  0  0  0  0  0  0  0
   -8.5620   22.8874  -30.1721 H   0  0  0  0  0  0  0  0  0  0  0  0
   -6.3067   23.8322  -29.6830 H   0  0  0  0  0  0  0  0  0  0  0  0
  1  2  2  0
  2  3  1  0
  3  4  1  0
  4  5  1  0
  5  6  1  0
  6  7  1  0
  7  8  1  0
  8  9  1  0
  9 10  1  0
 10 11  2  0
 11 12  1  0
 12 13  2  0
 13 14  1  0
  8 15  1  0
 15 16  2  0
  2 17  1  0
 17 18  1  0
 18 19  2  0
 19 20  1  0
 20 21  2  0
 21 22  1  0
 22 23  2  0
 15  4  1  0
 23 18  1  0
 14 10  1  0
  4 24  1  1
  5 25  1  0
  5 26  1  0
  6 27  1  0
  6 28  1  0
  7 29  1  0
  7 30  1  0
  9 31  1  0
  9 32  1  0
 11 33  1  0
 12 34  1  0
 13 35  1  0
 17 36  1  0
 19 37  1  0
 20 38  1  0
 21 39  1  0
 22 40  1  0
 23 41  1  0
M  CHG  1   3  -1
M  END
>  <UniqueID>  (47) 
45

>  <SMILES>  (47) 
O=C([N-][C@H]1CCCN(Cc2ccco2)C1=O)Nc1ccccc1

>  <Energy>  (47) 
70.19824582787034

>  <Genealogy>  (47) 
O=C([N-]C1CCCN(Cc2ccco2)C1=O)Nc1ccccc1 (protonated)
O=C([N-][C@H]1CCCN(Cc2ccco2)C1=O)Nc1ccccc1 (chirality)
O=C([N-][C@H]1CCCN(Cc2ccco2)C1=O)Nc1ccccc1 (3D coordinates assigned)
O=C([N-][C@H]1CCCN(Cc2ccco2)C1=O)Nc1ccccc1 (nonaromatic ring conformer: 70.19824582787034 kcal/mol)

>  <smiles>  (47) 
O=C(Nc1ccccc1)NC1CCCN(Cc2ccco2)C1=O

>  <score_type>  (47) 
oracle

>  <origin>  (47) 
adgpu

>  <m_score__min__energy>  (47) 
-8.2200000000000006

>  <m_primary>  (47) 
energy

$$$$
47:0
     RDKit          3D

 52 54  0  0  0  0  0  0  0  0999 V2000
   -2.1080   21.5070  -28.1750 C   0  0  0  0  0  0  0  0  0  0  0  0
   -2.1850   22.5580  -29.3070 C   0  0  0  0  0  0  0  0  0  0  0  0
   -1.2720   22.0630  -30.4520 C   0  0  0  0  0  0  0  0  0  0  0  0
   -3.6180   22.7740  -29.8320 C   0  0  0  0  0  0  0  0  0  0  0  0
   -3.8420   22.9410  -31.2160 C   0  0  0  0  0  0  0  0  0  0  0  0
   -5.1260   23.1590  -31.7210 C   0  0  0  0  0  0  0  0  0  0  0  0
   -6.2300   23.2020  -30.8580 C   0  0  0  0  0  0  0  0  0  0  0  0
   -7.5990   23.4500  -31.3640 C   0  0  0  0  0  0  0  0  0  0  0  0
   -8.3780   22.5400  -31.9710 C   0  0  0  0  0  0  0  0  0  0  0  0
   -8.0740   21.0970  -32.0910 C   0  0  0  0  0  0  0  0  0  0  0  0
   -8.8390   20.1270  -31.4200 C   0  0  0  0  0  0  0  0  0  0  0  0
   -8.5330   18.7710  -31.5580 C   0  0  0  0  0  0  0  0  0  0  0  0
   -7.4840   18.3700  -32.3880 C   0  0  0  0  0  0  0  0  0  0  0  0
   -6.7460   19.3180  -33.1040 C   0  0  0  0  0  0  0  0  0  0  0  0
   -5.7000   18.8760  -33.9260 O   0  0  0  0  0  0  0  0  0  0  0  0
   -4.3410   19.1790  -33.7480 C   0  0  0  0  0  0  0  0  0  0  0  0
   -3.9000   20.4850  -33.4630 C   0  0  0  0  0  0  0  0  0  0  0  0
   -2.5350   20.7490  -33.3080 C   0  0  0  0  0  0  0  0  0  0  0  0
   -1.6030   19.7170  -33.4470 C   0  0  0  0  0  0  0  0  0  0  0  0
   -2.0330   18.4220  -33.7490 C   0  0  0  0  0  0  0  0  0  0  0  0
   -3.3970   18.1560  -33.9050 C   0  0  0  0  0  0  0  0  0  0  0  0
   -7.0410   20.6850  -32.9460 C   0  0  0  0  0  0  0  0  0  0  0  0
   -6.0220   23.0840  -29.4810 C   0  0  0  0  0  0  0  0  0  0  0  0
   -4.7390   22.8680  -28.9720 C   0  0  0  0  0  0  0  0  0  0  0  0
   -1.5400   24.1210  -28.6670 S   0  0  0  0  0  0  0  0  0  0  0  0
   -1.7740   24.2270  -26.9030 C   0  0  0  0  0  0  0  0  0  0  0  0
   -2.2440   25.2820  -29.3120 O   0  0  0  0  0  0  0  0  0  0  0  0
   -0.0700   24.2260  -28.9650 O   0  0  0  0  0  0  0  0  0  0  0  0
   -2.1452   22.0149  -27.2000 H   0  0  0  0  0  0  0  0  0  0  0  0
   -2.9578   20.8137  -28.2599 H   0  0  0  0  0  0  0  0  0  0  0  0
   -1.1663   20.9449  -28.2599 H   0  0  0  0  0  0  0  0  0  0  0  0
   -0.3801   21.5795  -30.0268 H   0  0  0  0  0  0  0  0  0  0  0  0
   -1.8212   21.3391  -31.0720 H   0  0  0  0  0  0  0  0  0  0  0  0
   -0.9650   22.9182  -31.0720 H   0  0  0  0  0  0  0  0  0  0  0  0
   -2.9893   22.8986  -31.9096 H   0  0  0  0  0  0  0  0  0  0  0  0
   -5.2718   23.2978  -32.8024 H   0  0  0  0  0  0  0  0  0  0  0  0
   -8.0114   24.4612  -31.2321 H   0  0  0  0  0  0  0  0  0  0  0  0
   -9.3190   22.8966  -32.4153 H   0  0  0  0  0  0  0  0  0  0  0  0
   -9.6814   20.4368  -30.7841 H   0  0  0  0  0  0  0  0  0  0  0  0
   -9.1195   18.0176  -31.0118 H   0  0  0  0  0  0  0  0  0  0  0  0
   -7.2367   17.3021  -32.4792 H   0  0  0  0  0  0  0  0  0  0  0  0
   -4.6311   21.3007  -33.3618 H   0  0  0  0  0  0  0  0  0  0  0  0
   -2.1951   21.7693  -33.0766 H   0  0  0  0  0  0  0  0  0  0  0  0
   -0.5303   19.9241  -33.3186 H   0  0  0  0  0  0  0  0  0  0  0  0
   -1.2982   17.6116  -33.8641 H   0  0  0  0  0  0  0  0  0  0  0  0
   -3.7306   17.1374  -34.1525 H   0  0  0  0  0  0  0  0  0  0  0  0
   -6.4568   21.4365  -33.4974 H   0  0  0  0  0  0  0  0  0  0  0  0
   -6.8759   23.1619  -28.7920 H   0  0  0  0  0  0  0  0  0  0  0  0
   -4.5974   22.7694  -27.8856 H   0  0  0  0  0  0  0  0  0  0  0  0
   -0.8873   23.8253  -26.3907 H   0  0  0  0  0  0  0  0  0  0  0  0
   -1.9189   25.2787  -26.6149 H   0  0  0  0  0  0  0  0  0  0  0  0
   -2.6601   23.6424  -26.6149 H   0  0  0  0  0  0  0  0  0  0  0  0
  1  2  1  0
  2  3  1  0
  2  4  1  0
  4  5  2  0
  5  6  1  0
  6  7  2  0
  7  8  1  0
  8  9  2  3
  9 10  1  0
 10 11  2  0
 11 12  1  0
 12 13  2  0
 13 14  1  0
 14 15  1  0
 15 16  1  0
 16 17  2  0
 17 18  1  0
 18 19  2  0
 19 20  1  0
 20 21  2  0
 14 22  2  0
  7 23  1  0
 23 24  2  0
  2 25  1  0
 25 26  1  0
 25 27  2  0
 25 28  2  0
 24  4  1  0
 22 10  1  0
 21 16  1  0
  1 29  1  0
  1 30  1  0
  1 31  1  0
  3 32  1  0
  3 33  1  0
  3 34  1  0
  5 35  1  0
  6 36  1  0
  8 37  1  0
  9 38  1  0
 11 39  1  0
 12 40  1  0
 13 41  1  0
 17 42  1  0
 18 43  1  0
 19 44  1  0
 20 45  1  0
 21 46  1  0
 22 47  1  0
 23 48  1  0
 24 49  1  0
 26 50  1  0
 26 51  1  0
 26 52  1  0
M  END
>  <UniqueID>  (48) 
46

>  <SMILES>  (48) 
CC(C)(c1ccc(C=Cc2cccc(Oc3ccccc3)c2)cc1)S(C)(=O)=O

>  <Energy>  (48) 
65.7176575144599

>  <Genealogy>  (48) 
CC(C)(c1ccc(C=Cc2cccc(Oc3ccccc3)c2)cc1)S(C)(=O)=O (3D coordinates assigned)
CC(C)(c1ccc(C=Cc2cccc(Oc3ccccc3)c2)cc1)S(C)(=O)=O (optimized conformer: 65.7176575144599 kcal/mol)

>  <smiles>  (48) 
CC(C)(c1ccc(C=Cc2cccc(Oc3ccccc3)c2)cc1)S(C)(=O)=O

>  <score_type>  (48) 
oracle

>  <origin>  (48) 
adgpu

>  <m_score__min__energy>  (48) 
-10.18

>  <m_primary>  (48) 
energy

$$$$
48:0
     RDKit          3D

 58 61  0  0  0  0  0  0  0  0999 V2000
   -0.5540   25.0910  -24.4290 C   0  0  0  0  0  0  0  0  0  0  0  0
   -1.1200   24.7620  -25.7490 N   0  0  0  0  0  0  0  0  0  0  0  0
   -2.5000   25.2810  -25.8580 C   0  0  0  0  0  0  0  0  0  0  0  0
   -3.1660   24.7340  -27.1280 C   0  0  0  0  0  0  0  0  0  0  0  0
   -2.2020   24.6840  -28.2350 N   0  0  0  0  0  0  0  0  0  0  0  0
   -2.3620   23.7040  -29.2770 C   0  0  0  0  0  0  0  0  0  0  0  0
   -1.7210   22.4620  -29.1510 C   0  0  0  0  0  0  0  0  0  0  0  0
   -1.9540   21.4460  -30.0810 C   0  0  0  0  0  0  0  0  0  0  0  0
   -2.8430   21.6520  -31.1420 C   0  0  0  0  0  0  0  0  0  0  0  0
   -3.1690   20.3570  -32.2960 S   0  0  0  0  0  0  0  0  0  0  0  0
   -2.2720   19.1880  -31.9990 O   0  0  0  0  0  0  0  0  0  0  0  0
   -2.8550   20.8440  -33.6840 O   0  0  0  0  0  0  0  0  0  0  0  0
   -4.8370   19.8430  -32.2280 N   0  0  0  0  0  0  0  0  0  0  0  0
   -4.9280   18.3800  -32.3610 C   0  0  0  0  0  0  0  0  0  0  0  0
   -6.3590   17.9030  -32.0520 C   0  0  0  0  0  0  0  0  0  0  0  0
   -7.4070   19.0060  -32.2750 C   0  0  0  0  0  0  0  0  0  0  0  0
   -7.0260   19.8980  -33.4600 C   0  0  0  0  0  0  0  0  0  0  0  0
   -5.6230   20.5210  -33.2800 C   0  0  0  0  0  0  0  0  0  0  0  0
   -3.4780   22.8930  -31.2800 C   0  0  0  0  0  0  0  0  0  0  0  0
   -3.2260   23.9290  -30.3720 C   0  0  0  0  0  0  0  0  0  0  0  0
   -3.8710   25.1910  -30.5810 N   0  0  0  0  0  0  0  0  0  0  0  0
   -5.2800   25.4060  -30.4550 C   0  0  0  0  0  0  0  0  0  0  0  0
   -5.7250   26.5430  -30.1390 O   0  0  0  0  0  0  0  0  0  0  0  0
   -6.2130   24.3030  -30.7190 C   0  0  0  0  0  0  0  0  0  0  0  0
   -6.7980   23.4790  -29.7630 C   0  0  0  0  0  0  0  0  0  0  0  0
   -7.6330   22.5010  -30.3160 C   0  0  0  0  0  0  0  0  0  0  0  0
   -7.7070   22.5490  -31.7020 C   0  0  0  0  0  0  0  0  0  0  0  0
   -6.7320   23.8090  -32.2400 S   0  0  0  0  0  0  0  0  0  0  0  0
   -0.9880   25.5020  -28.1670 C   0  0  0  0  0  0  0  0  0  0  0  0
   -0.2440   25.2780  -26.8320 C   0  0  0  0  0  0  0  0  0  0  0  0
   -1.2164   24.7060  -23.6397 H   0  0  0  0  0  0  0  0  0  0  0  0
    0.4398   24.6298  -24.3309 H   0  0  0  0  0  0  0  0  0  0  0  0
   -0.4629   26.1828  -24.3309 H   0  0  0  0  0  0  0  0  0  0  0  0
   -1.1530   23.7160  -25.8180 H   0  0  0  0  0  0  0  0  0  0  0  0
   -3.0789   24.9650  -24.9777 H   0  0  0  0  0  0  0  0  0  0  0  0
   -2.4704   26.3794  -25.9094 H   0  0  0  0  0  0  0  0  0  0  0  0
   -3.5431   23.7197  -26.9306 H   0  0  0  0  0  0  0  0  0  0  0  0
   -3.9955   25.3996  -27.4090 H   0  0  0  0  0  0  0  0  0  0  0  0
   -1.0297   22.2871  -28.3134 H   0  0  0  0  0  0  0  0  0  0  0  0
   -1.4368   20.4805  -29.9790 H   0  0  0  0  0  0  0  0  0  0  0  0
   -4.6636   18.0920  -33.3892 H   0  0  0  0  0  0  0  0  0  0  0  0
   -4.2332   17.9121  -31.6480 H   0  0  0  0  0  0  0  0  0  0  0  0
   -6.5968   17.0523  -32.7076 H   0  0  0  0  0  0  0  0  0  0  0  0
   -6.3947   17.6170  -30.9904 H   0  0  0  0  0  0  0  0  0  0  0  0
   -8.3825   18.5392  -32.4760 H   0  0  0  0  0  0  0  0  0  0  0  0
   -7.4555   19.6296  -31.3701 H   0  0  0  0  0  0  0  0  0  0  0  0
   -7.0318   19.2923  -34.3782 H   0  0  0  0  0  0  0  0  0  0  0  0
   -7.7586   20.7162  -33.5222 H   0  0  0  0  0  0  0  0  0  0  0  0
   -5.0779   20.4454  -34.2325 H   0  0  0  0  0  0  0  0  0  0  0  0
   -5.7578   21.5693  -32.9753 H   0  0  0  0  0  0  0  0  0  0  0  0
   -4.1816   23.0554  -32.1098 H   0  0  0  0  0  0  0  0  0  0  0  0
   -6.6223   23.5852  -28.6823 H   0  0  0  0  0  0  0  0  0  0  0  0
   -8.1793   21.7636  -29.7096 H   0  0  0  0  0  0  0  0  0  0  0  0
   -8.3017   21.8776  -32.3389 H   0  0  0  0  0  0  0  0  0  0  0  0
   -0.3231   25.2289  -28.9997 H   0  0  0  0  0  0  0  0  0  0  0  0
   -1.2751   26.5617  -28.2348 H   0  0  0  0  0  0  0  0  0  0  0  0
    0.5656   24.5528  -27.0012 H   0  0  0  0  0  0  0  0  0  0  0  0
    0.1368   26.2564  -26.5038 H   0  0  0  0  0  0  0  0  0  0  0  0
  1  2  1  0
  2  3  1  0
  3  4  1  0
  4  5  1  0
  5  6  1  0
  6  7  2  0
  7  8  1  0
  8  9  2  0
  9 10  1  0
 10 11  2  0
 10 12  2  0
 10 13  1  0
 13 14  1  0
 14 15  1  0
 15 16  1  0
 16 17  1  0
 17 18  1  0
  9 19  1  0
 19 20  2  0
 20 21  1  0
 21 22  1  0
 22 23  2  0
 22 24  1  0
 24 25  2  0
 25 26  1  0
 26 27  2  0
 27 28  1  0
  5 29  1  0
 29 30  1  0
 30  2  1  0
 20  6  1  0
 28 24  1  0
 18 13  1  0
  1 31  1  0
  1 32  1  0
  1 33  1  0
  2 34  1  0
  3 35  1  0
  3 36  1  0
  4 37  1  0
  4 38  1  0
  7 39  1  0
  8 40  1  0
 14 41  1  0
 14 42  1  0
 15 43  1  0
 15 44  1  0
 16 45  1  0
 16 46  1  0
 17 47  1  0
 17 48  1  0
 18 49  1  0
 18 50  1  0
 19 51  1  0
 25 52  1  0
 26 53  1  0
 27 54  1  0
 29 55  1  0
 29 56  1  0
 30 57  1  0
 30 58  1  0
M  CHG  2   2   1  21  -1
M  END
>  <UniqueID>  (49) 
47

>  <SMILES>  (49) 
C[NH+]1CCN(c2ccc(S(=O)(=O)N3CCCCC3)cc2[N-]C(=O)c2cccs2)CC1

>  <Energy>  (49) 
102.49448901022252

>  <Genealogy>  (49) 
C[NH+]1CCN(c2ccc(S(=O)(=O)N3CCCCC3)cc2[N-]C(=O)c2cccs2)CC1 (protonated)
C[NH+]1CCN(c2ccc(S(=O)(=O)N3CCCCC3)cc2[N-]C(=O)c2cccs2)CC1 (3D coordinates assigned)
C[NH+]1CCN(c2ccc(S(=O)(=O)N3CCCCC3)cc2[N-]C(=O)c2cccs2)CC1 (nonaromatic ring conformer: 102.49448901022252 kcal/mol)

>  <smiles>  (49) 
CN1CCN(c2ccc(S(=O)(=O)N3CCCCC3)cc2NC(=O)c2cccs2)CC1

>  <score_type>  (49) 
oracle

>  <origin>  (49) 
adgpu

>  <m_score__min__energy>  (49) 
-10.73

>  <m_primary>  (49) 
energy

$$$$
