0:0
     RDKit          3D

 36 38  0  0  0  0  0  0  0  0999 V2000
   -3.4670   24.9860  -30.4260 O   0  0  0  0  0  0  0  0  0  0  0  0
   -3.2590   23.9010  -29.8160 C   0  0  0  0  0  0  0  0  0  0  0  0
   -4.0770   22.7640  -30.1110 N   0  0  0  0  0  0  0  0  0  0  0  0
   -5.3170   22.8140  -30.8280 C   0  0  0  0  0  0  0  0  0  0  0  0
   -6.3920   23.5020  -30.2520 C   0  0  0  0  0  0  0  0  0  0  0  0
   -7.6240   23.5670  -30.9060 C   0  0  0  0  0  0  0  0  0  0  0  0
   -7.7970   22.9280  -32.1350 C   0  0  0  0  0  0  0  0  0  0  0  0
   -6.7440   22.2090  -32.7040 C   0  0  0  0  0  0  0  0  0  0  0  0
   -5.5040   22.1330  -32.0540 C   0  0  0  0  0  0  0  0  0  0  0  0
   -4.2240   21.0990  -32.7820 S   0  0  0  0  0  0  0  0  0  0  0  0
   -5.2930   19.6630  -32.8800 C   0  0  0  0  0  0  0  0  0  0  0  0
   -6.0260   19.2570  -31.7560 C   0  0  0  0  0  0  0  0  0  0  0  0
   -6.8630   18.1400  -31.8330 C   0  0  0  0  0  0  0  0  0  0  0  0
   -6.9670   17.4230  -33.0300 C   0  0  0  0  0  0  0  0  0  0  0  0
   -6.2300   17.8220  -34.1490 C   0  0  0  0  0  0  0  0  0  0  0  0
   -5.3910   18.9390  -34.0750 C   0  0  0  0  0  0  0  0  0  0  0  0
   -2.1880   23.8250  -28.7850 C   0  0  0  0  0  0  0  0  0  0  0  0
   -2.0890   22.6730  -27.9770 C   0  0  0  0  0  0  0  0  0  0  0  0
   -1.1020   22.5740  -26.9930 C   0  0  0  0  0  0  0  0  0  0  0  0
   -0.2010   23.6210  -26.7980 C   0  0  0  0  0  0  0  0  0  0  0  0
   -0.2820   24.7670  -27.5870 C   0  0  0  0  0  0  0  0  0  0  0  0
   -1.2660   24.8790  -28.5770 C   0  0  0  0  0  0  0  0  0  0  0  0
   -1.3060   26.0410  -29.3410 O   0  0  0  0  0  0  0  0  0  0  0  0
   -6.2650   23.9950  -29.2769 H   0  0  0  0  0  0  0  0  0  0  0  0
   -8.4585   24.1219  -30.4526 H   0  0  0  0  0  0  0  0  0  0  0  0
   -8.7639   22.9910  -32.6557 H   0  0  0  0  0  0  0  0  0  0  0  0
   -6.8881   21.6991  -33.6680 H   0  0  0  0  0  0  0  0  0  0  0  0
   -5.9425   19.8176  -30.8132 H   0  0  0  0  0  0  0  0  0  0  0  0
   -7.4405   17.8244  -30.9516 H   0  0  0  0  0  0  0  0  0  0  0  0
   -7.6282   16.5460  -33.0906 H   0  0  0  0  0  0  0  0  0  0  0  0
   -6.3100   17.2567  -35.0892 H   0  0  0  0  0  0  0  0  0  0  0  0
   -4.8084   19.2486  -34.9551 H   0  0  0  0  0  0  0  0  0  0  0  0
   -2.7966   21.8435  -28.1232 H   0  0  0  0  0  0  0  0  0  0  0  0
   -1.0353   21.6691  -26.3711 H   0  0  0  0  0  0  0  0  0  0  0  0
    0.5738   23.5421  -26.0211 H   0  0  0  0  0  0  0  0  0  0  0  0
    0.4319   25.5892  -27.4310 H   0  0  0  0  0  0  0  0  0  0  0  0
  1  2  2  0
  2  3  1  0
  3  4  1  0
  4  5  2  0
  5  6  1  0
  6  7  2  0
  7  8  1  0
  8  9  2  0
  9 10  1  0
 10 11  1  0
 11 12  2  0
 12 13  1  0
 13 14  2  0
 14 15  1  0
 15 16  2  0
  2 17  1  0
 17 18  2  0
 18 19  1  0
 19 20  2  0
 20 21  1  0
 21 22  2  0
 22 23  1  0
  9  4  1  0
 16 11  1  0
 22 17  1  0
  5 24  1  0
  6 25  1  0
  7 26  1  0
  8 27  1  0
 12 28  1  0
 13 29  1  0
 14 30  1  0
 15 31  1  0
 16 32  1  0
 18 33  1  0
 19 34  1  0
 20 35  1  0
 21 36  1  0
M  CHG  2   3  -1  23  -1
M  END
>  <UniqueID>  (1) 
1

>  <SMILES>  (1) 
O=C([N-]c1ccccc1Sc1ccccc1)c1ccccc1[O-]

>  <Energy>  (1) 
43.20934649893912

>  <Genealogy>  (1) 
O=C([N-]c1ccccc1Sc1ccccc1)c1ccccc1[O-] (protonated)
O=C([N-]c1ccccc1Sc1ccccc1)c1ccccc1[O-] (3D coordinates assigned)
O=C([N-]c1ccccc1Sc1ccccc1)c1ccccc1[O-] (optimized conformer: 43.20934649893912 kcal/mol)

>  <smiles>  (1) 
O=C(Nc1ccccc1Sc1ccccc1)c1ccccc1O

>  <score_type>  (1) 
oracle

>  <origin>  (1) 
adgpu

>  <m_score__min__energy>  (1) 
-13.07

>  <m_primary>  (1) 
energy

$$$$
1:0
     RDKit          3D

 54 57  0  0  0  0  0  0  0  0999 V2000
   -0.0720   22.4980  -23.8350 C   0  0  0  0  0  0  0  0  0  0  0  0
   -0.0060   22.0650  -25.2410 N   0  0  0  0  0  0  0  0  0  0  0  0
   -1.2880   21.4330  -25.6420 C   0  0  0  0  0  0  0  0  0  0  0  0
   -1.4300   21.3410  -27.1630 C   0  0  0  0  0  0  0  0  0  0  0  0
   -1.3930   22.7320  -27.7150 C   0  0  0  0  0  0  0  0  0  0  0  0
   -2.2600   23.1360  -28.7380 C   0  0  0  0  0  0  0  0  0  0  0  0
   -2.2640   24.4720  -29.1750 C   0  0  0  0  0  0  0  0  0  0  0  0
   -3.1230   24.9230  -30.2300 N   0  0  0  0  0  0  0  0  0  0  0  0
   -4.8560   24.8650  -30.1800 S   0  0  0  0  0  0  0  0  0  0  0  0
   -5.4130   26.0380  -30.9320 O   0  0  0  0  0  0  0  0  0  0  0  0
   -5.3190   24.9380  -28.7530 O   0  0  0  0  0  0  0  0  0  0  0  0
   -5.3960   23.3780  -30.9490 C   0  0  0  0  0  0  0  0  0  0  0  0
   -4.6020   22.7310  -31.9050 C   0  0  0  0  0  0  0  0  0  0  0  0
   -5.0780   21.5890  -32.5590 C   0  0  0  0  0  0  0  0  0  0  0  0
   -6.3540   21.0890  -32.2660 C   0  0  0  0  0  0  0  0  0  0  0  0
   -6.9840   19.6850  -33.1290 S   0  0  0  0  0  0  0  0  0  0  0  0
   -6.5610   19.7770  -34.5700 O   0  0  0  0  0  0  0  0  0  0  0  0
   -8.4860   19.7120  -33.0880 O   0  0  0  0  0  0  0  0  0  0  0  0
   -6.4170   18.1700  -32.4580 N   0  0  0  0  0  0  0  0  0  0  0  0
   -4.9460   18.0810  -32.4170 C   0  0  0  0  0  0  0  0  0  0  0  0
   -4.3320   17.6530  -33.7700 C   0  0  0  0  0  0  0  0  0  0  0  0
   -5.2900   17.1920  -34.7060 O   0  0  0  0  0  0  0  0  0  0  0  0
   -6.1580   16.2720  -34.0880 C   0  0  0  0  0  0  0  0  0  0  0  0
   -7.0620   16.9870  -33.0690 C   0  0  0  0  0  0  0  0  0  0  0  0
   -7.1360   21.7220  -31.2900 C   0  0  0  0  0  0  0  0  0  0  0  0
   -6.6600   22.8640  -30.6380 C   0  0  0  0  0  0  0  0  0  0  0  0
   -1.3990   25.3950  -28.5690 C   0  0  0  0  0  0  0  0  0  0  0  0
   -1.4070   26.7260  -28.9680 O   0  0  0  0  0  0  0  0  0  0  0  0
   -0.5140   24.9810  -27.5660 C   0  0  0  0  0  0  0  0  0  0  0  0
   -0.5070   23.6480  -27.1380 C   0  0  0  0  0  0  0  0  0  0  0  0
    0.4990   23.1570  -26.1230 C   0  0  0  0  0  0  0  0  0  0  0  0
    0.0608   21.6270  -23.1765 H   0  0  0  0  0  0  0  0  0  0  0  0
    0.7249   23.2306  -23.6392 H   0  0  0  0  0  0  0  0  0  0  0  0
   -1.0509   22.9599  -23.6392 H   0  0  0  0  0  0  0  0  0  0  0  0
   -1.3315   20.4185  -25.2191 H   0  0  0  0  0  0  0  0  0  0  0  0
   -2.1091   22.0581  -25.2610 H   0  0  0  0  0  0  0  0  0  0  0  0
   -0.6006   20.7513  -27.5805 H   0  0  0  0  0  0  0  0  0  0  0  0
   -2.3768   20.8486  -27.4297 H   0  0  0  0  0  0  0  0  0  0  0  0
   -2.9399   22.4056  -29.2009 H   0  0  0  0  0  0  0  0  0  0  0  0
   -3.6015   23.1218  -32.1422 H   0  0  0  0  0  0  0  0  0  0  0  0
   -4.4486   21.0822  -33.3054 H   0  0  0  0  0  0  0  0  0  0  0  0
   -4.5420   19.0671  -32.1443 H   0  0  0  0  0  0  0  0  0  0  0  0
   -4.6820   17.3119  -31.6762 H   0  0  0  0  0  0  0  0  0  0  0  0
   -3.8096   18.5182  -34.2042 H   0  0  0  0  0  0  0  0  0  0  0  0
   -3.6512   16.8137  -33.5647 H   0  0  0  0  0  0  0  0  0  0  0  0
   -6.7846   15.7936  -34.8551 H   0  0  0  0  0  0  0  0  0  0  0  0
   -5.5585   15.5142  -33.5624 H   0  0  0  0  0  0  0  0  0  0  0  0
   -7.9793   17.3127  -33.5813 H   0  0  0  0  0  0  0  0  0  0  0  0
   -7.2766   16.2732  -32.2600 H   0  0  0  0  0  0  0  0  0  0  0  0
   -8.1275   21.3191  -31.0360 H   0  0  0  0  0  0  0  0  0  0  0  0
   -7.2814   23.3601  -29.8779 H   0  0  0  0  0  0  0  0  0  0  0  0
    0.1783   25.7057  -27.1127 H   0  0  0  0  0  0  0  0  0  0  0  0
    1.3809   22.7835  -26.6641 H   0  0  0  0  0  0  0  0  0  0  0  0
    0.7305   24.0104  -25.4688 H   0  0  0  0  0  0  0  0  0  0  0  0
  1  2  1  0
  2  3  1  0
  3  4  1  0
  4  5  1  0
  5  6  2  0
  6  7  1  0
  7  8  1  0
  8  9  1  0
  9 10  2  0
  9 11  2  0
  9 12  1  0
 12 13  2  0
 13 14  1  0
 14 15  2  0
 15 16  1  0
 16 17  2  0
 16 18  2  0
 16 19  1  0
 19 20  1  0
 20 21  1  0
 21 22  1  0
 22 23  1  0
 23 24  1  0
 15 25  1  0
 25 26  2  0
  7 27  2  0
 27 28  1  0
 27 29  1  0
 29 30  2  0
 30 31  1  0
 31  2  1  0
 30  5  1  0
 26 12  1  0
 24 19  1  0
  1 32  1  0
  1 33  1  0
  1 34  1  0
  3 35  1  0
  3 36  1  0
  4 37  1  0
  4 38  1  0
  6 39  1  0
 13 40  1  0
 14 41  1  0
 20 42  1  0
 20 43  1  0
 21 44  1  0
 21 45  1  0
 23 46  1  0
 23 47  1  0
 24 48  1  0
 24 49  1  0
 25 50  1  0
 26 51  1  0
 29 52  1  0
 31 53  1  0
 31 54  1  0
M  CHG  2   8  -1  28  -1
M  END
>  <UniqueID>  (2) 
2

>  <SMILES>  (2) 
CN1CCc2cc([N-]S(=O)(=O)c3ccc(S(=O)(=O)N4CCOCC4)cc3)c([O-])cc2C1

>  <Energy>  (2) 
78.56385139908848

>  <Genealogy>  (2) 
CN1CCc2cc([N-]S(=O)(=O)c3ccc(S(=O)(=O)N4CCOCC4)cc3)c([O-])cc2C1 (protonated)
CN1CCc2cc([N-]S(=O)(=O)c3ccc(S(=O)(=O)N4CCOCC4)cc3)c([O-])cc2C1 (3D coordinates assigned)
CN1CCc2cc([N-]S(=O)(=O)c3ccc(S(=O)(=O)N4CCOCC4)cc3)c([O-])cc2C1 (nonaromatic ring conformer: 78.56385139908848 kcal/mol)

>  <smiles>  (2) 
CN1CCc2cc(NS(=O)(=O)c3ccc(S(=O)(=O)N4CCOCC4)cc3)c(O)cc2C1

>  <score_type>  (2) 
oracle

>  <origin>  (2) 
adgpu

>  <m_score__min__energy>  (2) 
-14.210000000000001

>  <m_primary>  (2) 
energy

$$$$
2:0
     RDKit          3D

 60 63  0  0  0  0  0  0  0  0999 V2000
   -1.7220   23.1440  -29.6780 O   0  0  0  0  0  0  0  0  0  0  0  0
   -2.6620   23.9710  -29.8310 C   0  0  0  0  0  0  0  0  0  0  0  0
   -2.5540   25.2830  -29.2640 N   0  0  0  0  0  0  0  0  0  0  0  0
   -1.9030   25.6410  -28.0350 C   0  0  0  0  0  0  0  0  0  0  0  0
   -0.7690   26.4730  -28.0030 C   0  0  0  0  0  0  0  0  0  0  0  0
   -0.1520   26.7750  -26.7860 C   0  0  0  0  0  0  0  0  0  0  0  0
   -0.6480   26.2390  -25.5900 C   0  0  0  0  0  0  0  0  0  0  0  0
    0.1310   26.6030  -24.0520 S   0  0  0  0  0  0  0  0  0  0  0  0
   -0.8740   26.4240  -22.9490 O   0  0  0  0  0  0  0  0  0  0  0  0
    0.6060   28.0310  -24.0410 O   0  0  0  0  0  0  0  0  0  0  0  0
    1.4820   25.5220  -23.8050 N   0  0  0  0  0  0  0  0  0  0  0  0
    1.4370   24.3830  -24.7520 C   0  0  0  0  0  0  0  0  0  0  0  0
    2.4450   24.5450  -25.9040 C   0  0  0  0  0  0  0  0  0  0  0  0
    3.7900   24.6760  -25.4640 O   0  0  0  0  0  0  0  0  0  0  0  0
    3.9210   25.3390  -24.2110 C   0  0  0  0  0  0  0  0  0  0  0  0
    2.7480   26.2760  -23.8750 C   0  0  0  0  0  0  0  0  0  0  0  0
   -1.7560   25.3840  -25.6230 C   0  0  0  0  0  0  0  0  0  0  0  0
   -2.3770   25.0860  -26.8390 C   0  0  0  0  0  0  0  0  0  0  0  0
   -3.8570   23.5840  -30.6270 C   0  0  0  0  0  0  0  0  0  0  0  0
   -3.9160   22.2960  -31.1960 C   0  0  0  0  0  0  0  0  0  0  0  0
   -5.0230   21.8910  -31.9510 C   0  0  0  0  0  0  0  0  0  0  0  0
   -5.0960   20.2610  -32.6260 S   0  0  0  0  0  0  0  0  0  0  0  0
   -4.0600   20.1370  -33.7090 O   0  0  0  0  0  0  0  0  0  0  0  0
   -4.7350   19.2840  -31.5420 O   0  0  0  0  0  0  0  0  0  0  0  0
   -6.6700   19.8290  -33.2630 N   0  0  0  0  0  0  0  0  0  0  0  0
   -6.8400   18.3850  -33.5270 C   0  0  0  0  0  0  0  0  0  0  0  0
   -7.3550   17.5970  -32.3120 C   0  0  0  0  0  0  0  0  0  0  0  0
   -8.5940   18.2530  -31.7130 C   0  0  0  0  0  0  0  0  0  0  0  0
   -8.2940   19.7040  -31.3510 C   0  0  0  0  0  0  0  0  0  0  0  0
   -7.8100   20.4770  -32.5840 C   0  0  0  0  0  0  0  0  0  0  0  0
   -6.1010   22.7660  -32.1220 C   0  0  0  0  0  0  0  0  0  0  0  0
   -6.0580   24.0460  -31.5690 C   0  0  0  0  0  0  0  0  0  0  0  0
   -4.9460   24.4650  -30.8260 C   0  0  0  0  0  0  0  0  0  0  0  0
   -4.9300   25.7550  -30.2960 O   0  0  0  0  0  0  0  0  0  0  0  0
   -0.3666   26.8873  -28.9392 H   0  0  0  0  0  0  0  0  0  0  0  0
    0.7268   27.4363  -26.7668 H   0  0  0  0  0  0  0  0  0  0  0  0
    1.6701   23.4577  -24.2047 H   0  0  0  0  0  0  0  0  0  0  0  0
    0.4280   24.3462  -25.1886 H   0  0  0  0  0  0  0  0  0  0  0  0
    2.3757   23.6608  -26.5546 H   0  0  0  0  0  0  0  0  0  0  0  0
    2.1853   25.4732  -26.4341 H   0  0  0  0  0  0  0  0  0  0  0  0
    3.9920   24.5763  -23.4215 H   0  0  0  0  0  0  0  0  0  0  0  0
    4.8222   25.9665  -24.2749 H   0  0  0  0  0  0  0  0  0  0  0  0
    2.9364   26.7564  -22.9035 H   0  0  0  0  0  0  0  0  0  0  0  0
    2.6641   27.0354  -24.6663 H   0  0  0  0  0  0  0  0  0  0  0  0
   -2.1388   24.9457  -24.6895 H   0  0  0  0  0  0  0  0  0  0  0  0
   -3.2448   24.4103  -26.8573 H   0  0  0  0  0  0  0  0  0  0  0  0
   -3.0793   21.5982  -31.0445 H   0  0  0  0  0  0  0  0  0  0  0  0
   -7.5587   18.2638  -34.3509 H   0  0  0  0  0  0  0  0  0  0  0  0
   -5.8474   17.9824  -33.7772 H   0  0  0  0  0  0  0  0  0  0  0  0
   -7.6083   16.5745  -32.6288 H   0  0  0  0  0  0  0  0  0  0  0  0
   -6.5649   17.5820  -31.5468 H   0  0  0  0  0  0  0  0  0  0  0  0
   -9.4128   18.2227  -32.4469 H   0  0  0  0  0  0  0  0  0  0  0  0
   -8.8869   17.7076  -30.8037 H   0  0  0  0  0  0  0  0  0  0  0  0
   -9.2085   20.1768  -30.9635 H   0  0  0  0  0  0  0  0  0  0  0  0
   -7.5034   19.7234  -30.5864 H   0  0  0  0  0  0  0  0  0  0  0  0
   -8.6436   20.5558  -33.2973 H   0  0  0  0  0  0  0  0  0  0  0  0
   -7.4685   21.4641  -32.2392 H   0  0  0  0  0  0  0  0  0  0  0  0
   -6.9841   22.4442  -32.6935 H   0  0  0  0  0  0  0  0  0  0  0  0
   -6.9045   24.7326  -31.7174 H   0  0  0  0  0  0  0  0  0  0  0  0
   -4.6230   25.9390  -29.3480 H   0  0  0  0  0  0  0  0  0  0  0  0
  1  2  2  0
  2  3  1  0
  3  4  1  0
  4  5  2  0
  5  6  1  0
  6  7  2  0
  7  8  1  0
  8  9  2  0
  8 10  2  0
  8 11  1  0
 11 12  1  0
 12 13  1  0
 13 14  1  0
 14 15  1  0
 15 16  1  0
  7 17  1  0
 17 18  2  0
  2 19  1  0
 19 20  2  0
 20 21  1  0
 21 22  1  0
 22 23  2  0
 22 24  2  0
 22 25  1  0
 25 26  1  0
 26 27  1  0
 27 28  1  0
 28 29  1  0
 29 30  1  0
 21 31  2  0
 31 32  1  0
 32 33  2  0
 33 34  1  0
 18  4  1  0
 33 19  1  0
 16 11  1  0
 30 25  1  0
  5 35  1  0
  6 36  1  0
 12 37  1  0
 12 38  1  0
 13 39  1  0
 13 40  1  0
 15 41  1  0
 15 42  1  0
 16 43  1  0
 16 44  1  0
 17 45  1  0
 18 46  1  0
 20 47  1  0
 26 48  1  0
 26 49  1  0
 27 50  1  0
 27 51  1  0
 28 52  1  0
 28 53  1  0
 29 54  1  0
 29 55  1  0
 30 56  1  0
 30 57  1  0
 31 58  1  0
 32 59  1  0
 34 60  1  0
M  CHG  1   3  -1
M  END
>  <UniqueID>  (3) 
3

>  <SMILES>  (3) 
O=C([N-]c1ccc(S(=O)(=O)N2CCOCC2)cc1)c1cc(S(=O)(=O)N2CCCCC2)ccc1O

>  <Energy>  (3) 
81.63341195164439

>  <Genealogy>  (3) 
O=C([N-]c1ccc(S(=O)(=O)N2CCOCC2)cc1)c1cc(S(=O)(=O)N2CCCCC2)ccc1O (protonated)
O=C([N-]c1ccc(S(=O)(=O)N2CCOCC2)cc1)c1cc(S(=O)(=O)N2CCCCC2)ccc1O (3D coordinates assigned)
O=C([N-]c1ccc(S(=O)(=O)N2CCOCC2)cc1)c1cc(S(=O)(=O)N2CCCCC2)ccc1O (nonaromatic ring conformer: 81.63341195164439 kcal/mol)

>  <smiles>  (3) 
O=C(Nc1ccc(S(=O)(=O)N2CCOCC2)cc1)c1cc(S(=O)(=O)N2CCCCC2)ccc1O

>  <score_type>  (3) 
oracle

>  <origin>  (3) 
adgpu

>  <m_score__min__energy>  (3) 
-11.390000000000001

>  <m_primary>  (3) 
energy

$$$$
3:0
     RDKit          3D

 64 67  0  0  0  0  0  0  0  0999 V2000
   -5.3800   16.3470  -34.5200 O   0  0  0  0  0  0  0  0  0  0  0  0
   -5.0610   16.9320  -33.1710 S   0  0  0  0  0  0  0  0  0  0  0  0
   -5.1030   15.8380  -32.1390 O   0  0  0  0  0  0  0  0  0  0  0  0
   -3.4760   17.6430  -33.1930 N   0  0  0  0  0  0  0  0  0  0  0  0
   -3.3920   18.6530  -34.2530 C   0  0  0  0  0  0  0  0  0  0  0  0
   -2.1880   19.5790  -34.0270 C   0  0  0  0  0  0  0  0  0  0  0  0
   -2.3900   20.4480  -32.8110 C   0  0  0  0  0  0  0  0  0  0  0  0
   -1.2810   20.9250  -32.0960 C   0  0  0  0  0  0  0  0  0  0  0  0
   -1.4480   21.8790  -31.0920 C   0  0  0  0  0  0  0  0  0  0  0  0
   -2.7230   22.3870  -30.8060 C   0  0  0  0  0  0  0  0  0  0  0  0
   -2.8950   23.7560  -29.7060 S   0  0  0  0  0  0  0  0  0  0  0  0
   -3.8360   23.3810  -28.5950 O   0  0  0  0  0  0  0  0  0  0  0  0
   -3.4880   24.9230  -30.4480 O   0  0  0  0  0  0  0  0  0  0  0  0
   -1.3490   24.2140  -29.0270 N   0  0  0  0  0  0  0  0  0  0  0  0
   -1.5180   25.3110  -28.0630 C   0  0  0  0  0  0  0  0  0  0  0  0
   -0.1460   25.7280  -27.4940 C   0  0  0  0  0  0  0  0  0  0  0  0
    0.8880   24.8320  -27.8640 O   0  0  0  0  0  0  0  0  0  0  0  0
    0.5130   23.5050  -27.5440 C   0  0  0  0  0  0  0  0  0  0  0  0
   -0.7120   23.0590  -28.3720 C   0  0  0  0  0  0  0  0  0  0  0  0
   -3.8390   21.8720  -31.4790 C   0  0  0  0  0  0  0  0  0  0  0  0
   -3.6750   20.9030  -32.4730 C   0  0  0  0  0  0  0  0  0  0  0  0
   -6.2610   18.1600  -32.7780 C   0  0  0  0  0  0  0  0  0  0  0  0
   -6.3960   19.3100  -33.5700 C   0  0  0  0  0  0  0  0  0  0  0  0
   -7.2690   20.3330  -33.1860 C   0  0  0  0  0  0  0  0  0  0  0  0
   -8.0250   20.2120  -32.0120 C   0  0  0  0  0  0  0  0  0  0  0  0
   -8.9840   21.5780  -31.4270 S   0  0  0  0  0  0  0  0  0  0  0  0
  -10.1090   21.8290  -32.3910 O   0  0  0  0  0  0  0  0  0  0  0  0
   -9.5860   21.2080  -30.1000 O   0  0  0  0  0  0  0  0  0  0  0  0
   -8.0680   23.0530  -31.2420 N   0  0  0  0  0  0  0  0  0  0  0  0
   -7.2420   23.0450  -30.0400 C   0  0  0  0  0  0  0  0  0  0  0  0
   -6.1710   24.0900  -30.2790 C   0  0  0  0  0  0  0  0  0  0  0  0
   -6.0110   24.1400  -31.7940 C   0  0  0  0  0  0  0  0  0  0  0  0
   -7.1430   23.2810  -32.3500 C   0  0  0  0  0  0  0  0  0  0  0  0
   -7.9230   19.0410  -31.2460 C   0  0  0  0  0  0  0  0  0  0  0  0
   -7.0450   18.0220  -31.6260 C   0  0  0  0  0  0  0  0  0  0  0  0
   -3.3290   18.1210  -32.2720 H   0  0  0  0  0  0  0  0  0  0  0  0
   -3.2822   18.1486  -35.2243 H   0  0  0  0  0  0  0  0  0  0  0  0
   -4.3107   19.2578  -34.2385 H   0  0  0  0  0  0  0  0  0  0  0  0
   -1.2857   18.9662  -33.8844 H   0  0  0  0  0  0  0  0  0  0  0  0
   -2.0790   20.2303  -34.9068 H   0  0  0  0  0  0  0  0  0  0  0  0
   -0.2752   20.5449  -32.3282 H   0  0  0  0  0  0  0  0  0  0  0  0
   -0.5762   22.2339  -30.5227 H   0  0  0  0  0  0  0  0  0  0  0  0
   -1.9801   26.1721  -28.5680 H   0  0  0  0  0  0  0  0  0  0  0  0
   -2.1632   24.9721  -27.2391 H   0  0  0  0  0  0  0  0  0  0  0  0
    0.1033   26.7304  -27.8722 H   0  0  0  0  0  0  0  0  0  0  0  0
   -0.2213   25.7181  -26.3966 H   0  0  0  0  0  0  0  0  0  0  0  0
    1.3561   22.8317  -27.7583 H   0  0  0  0  0  0  0  0  0  0  0  0
    0.2476   23.4643  -26.4773 H   0  0  0  0  0  0  0  0  0  0  0  0
   -0.3863   22.3428  -29.1408 H   0  0  0  0  0  0  0  0  0  0  0  0
   -1.4423   22.5897  -27.6964 H   0  0  0  0  0  0  0  0  0  0  0  0
   -4.8470   22.2313  -31.2244 H   0  0  0  0  0  0  0  0  0  0  0  0
   -4.5551   20.4956  -32.9921 H   0  0  0  0  0  0  0  0  0  0  0  0
   -5.8125   19.4076  -34.4974 H   0  0  0  0  0  0  0  0  0  0  0  0
   -7.3626   21.2357  -33.8076 H   0  0  0  0  0  0  0  0  0  0  0  0
   -7.8445   23.3066  -29.1576 H   0  0  0  0  0  0  0  0  0  0  0  0
   -6.8086   22.0522  -29.8488 H   0  0  0  0  0  0  0  0  0  0  0  0
   -6.4898   25.0683  -29.8900 H   0  0  0  0  0  0  0  0  0  0  0  0
   -5.2281   23.8441  -29.7686 H   0  0  0  0  0  0  0  0  0  0  0  0
   -6.0996   25.1748  -32.1563 H   0  0  0  0  0  0  0  0  0  0  0  0
   -5.0244   23.7730  -32.1133 H   0  0  0  0  0  0  0  0  0  0  0  0
   -7.6533   23.8078  -33.1698 H   0  0  0  0  0  0  0  0  0  0  0  0
   -6.7624   22.3315  -32.7545 H   0  0  0  0  0  0  0  0  0  0  0  0
   -8.5375   18.9242  -30.3412 H   0  0  0  0  0  0  0  0  0  0  0  0
   -6.9696   17.1084  -31.0180 H   0  0  0  0  0  0  0  0  0  0  0  0
  1  2  2  0
  2  3  2  0
  2  4  1  0
  4  5  1  0
  5  6  1  0
  6  7  1  0
  7  8  2  0
  8  9  1  0
  9 10  2  0
 10 11  1  0
 11 12  2  0
 11 13  2  0
 11 14  1  0
 14 15  1  0
 15 16  1  0
 16 17  1  0
 17 18  1  0
 18 19  1  0
 10 20  1  0
 20 21  2  0
  2 22  1  0
 22 23  2  0
 23 24  1  0
 24 25  2  0
 25 26  1  0
 26 27  2  0
 26 28  2  0
 26 29  1  0
 29 30  1  0
 30 31  1  0
 31 32  1  0
 32 33  1  0
 25 34  1  0
 34 35  2  0
 21  7  1  0
 35 22  1  0
 19 14  1  0
 33 29  1  0
  4 36  1  0
  5 37  1  0
  5 38  1  0
  6 39  1  0
  6 40  1  0
  8 41  1  0
  9 42  1  0
 15 43  1  0
 15 44  1  0
 16 45  1  0
 16 46  1  0
 18 47  1  0
 18 48  1  0
 19 49  1  0
 19 50  1  0
 20 51  1  0
 21 52  1  0
 23 53  1  0
 24 54  1  0
 30 55  1  0
 30 56  1  0
 31 57  1  0
 31 58  1  0
 32 59  1  0
 32 60  1  0
 33 61  1  0
 33 62  1  0
 34 63  1  0
 35 64  1  0
M  END
>  <UniqueID>  (4) 
4

>  <SMILES>  (4) 
O=S(=O)(NCCc1ccc(S(=O)(=O)N2CCOCC2)cc1)c1ccc(S(=O)(=O)N2CCCC2)cc1

>  <Energy>  (4) 
67.40434813023705

>  <Genealogy>  (4) 
O=S(=O)(NCCc1ccc(S(=O)(=O)N2CCOCC2)cc1)c1ccc(S(=O)(=O)N2CCCC2)cc1 (3D coordinates assigned)
O=S(=O)(NCCc1ccc(S(=O)(=O)N2CCOCC2)cc1)c1ccc(S(=O)(=O)N2CCCC2)cc1 (nonaromatic ring conformer: 67.40434813023705 kcal/mol)

>  <smiles>  (4) 
O=S(=O)(NCCc1ccc(S(=O)(=O)N2CCOCC2)cc1)c1ccc(S(=O)(=O)N2CCCC2)cc1

>  <score_type>  (4) 
oracle

>  <origin>  (4) 
adgpu

>  <m_score__min__energy>  (4) 
-11.289999999999999

>  <m_primary>  (4) 
energy

$$$$
4:0
     RDKit          3D

 49 52  0  0  0  0  0  0  0  0999 V2000
   -8.9300   18.9290  -33.6360 H   0  0  0  0  0  0  0  0  0  0  0  0
   -8.5760   19.0600  -32.6960 O   0  0  0  0  0  0  0  0  0  0  0  0
   -8.0570   20.2830  -32.2770 C   0  0  0  0  0  0  0  0  0  0  0  0
   -8.7380   21.0630  -31.3350 C   0  0  0  0  0  0  0  0  0  0  0  0
   -9.6984   20.7155  -30.9266 H   0  0  0  0  0  0  0  0  0  0  0  0
   -8.2010   22.2820  -30.9120 C   0  0  0  0  0  0  0  0  0  0  0  0
   -8.7383   22.8881  -30.1677 H   0  0  0  0  0  0  0  0  0  0  0  0
   -6.9780   22.7370  -31.4330 C   0  0  0  0  0  0  0  0  0  0  0  0
   -6.3410   23.9860  -30.8860 C   0  0  0  0  0  0  0  0  0  0  0  0
   -7.0157   24.4513  -30.1524 H   0  0  0  0  0  0  0  0  0  0  0  0
   -6.1516   24.6926  -31.7075 H   0  0  0  0  0  0  0  0  0  0  0  0
   -5.0780   23.6410  -30.2370 N   0  0  0  0  0  0  0  0  0  0  0  0
   -4.7440   22.4170  -29.7850 C   0  0  0  0  0  0  0  0  0  0  0  0
   -5.4421   21.5764  -29.6583 H   0  0  0  0  0  0  0  0  0  0  0  0
   -3.3890   22.3770  -29.5040 C   0  0  0  0  0  0  0  0  0  0  0  0
   -2.5880   21.1380  -29.2180 C   0  0  1  0  0  0  0  0  0  0  0  0
   -3.2143   20.2541  -29.4090 H   0  0  0  0  0  0  0  0  0  0  0  0
   -1.4040   21.1080  -30.0800 N   0  0  0  0  0  0  0  0  0  0  0  0
   -1.4180   21.0570  -31.3790 C   0  0  0  0  0  0  0  0  0  0  0  0
   -0.2880   21.0910  -32.1140 N   0  0  0  0  0  0  0  0  0  0  0  0
   -0.5440   21.0620  -33.4530 C   0  0  0  0  0  0  0  0  0  0  0  0
    0.5540   21.1000  -34.4520 C   0  0  0  0  0  0  0  0  0  0  0  0
    0.6510   22.1830  -35.3430 C   0  0  0  0  0  0  0  0  0  0  0  0
   -0.0871   22.9972  -35.2942 H   0  0  0  0  0  0  0  0  0  0  0  0
    1.6780   22.2340  -36.2910 C   0  0  0  0  0  0  0  0  0  0  0  0
    1.7437   23.0908  -36.9777 H   0  0  0  0  0  0  0  0  0  0  0  0
    2.6220   21.2060  -36.3740 C   0  0  0  0  0  0  0  0  0  0  0  0
    3.6330   21.3050  -37.3410 O   0  0  0  0  0  0  0  0  0  0  0  0
    4.8220   20.5220  -37.3440 C   0  0  0  0  0  0  0  0  0  0  0  0
    5.1301   20.3191  -36.3077 H   0  0  0  0  0  0  0  0  0  0  0  0
    4.6333   19.5708  -37.8633 H   0  0  0  0  0  0  0  0  0  0  0  0
    5.6213   21.0710  -37.8633 H   0  0  0  0  0  0  0  0  0  0  0  0
    2.5250   20.1140  -35.4920 C   0  0  0  0  0  0  0  0  0  0  0  0
    3.2592   19.2969  -35.5500 H   0  0  0  0  0  0  0  0  0  0  0  0
    1.5000   20.0620  -34.5420 C   0  0  0  0  0  0  0  0  0  0  0  0
    1.4326   19.2022  -33.8592 H   0  0  0  0  0  0  0  0  0  0  0  0
   -1.9030   20.9950  -33.7820 C   0  0  0  0  0  0  0  0  0  0  0  0
   -2.3191   20.9613  -34.7997 H   0  0  0  0  0  0  0  0  0  0  0  0
   -2.7890   20.9750  -32.3550 S   0  0  0  0  0  0  0  0  0  0  0  0
   -2.1680   21.1480  -27.8800 O   0  0  0  0  0  0  0  0  0  0  0  0
   -2.9870   21.2390  -27.3240 H   0  0  0  0  0  0  0  0  0  0  0  0
   -2.8760   23.6320  -29.7870 C   0  0  0  0  0  0  0  0  0  0  0  0
   -1.8350   23.9679  -29.6707 H   0  0  0  0  0  0  0  0  0  0  0  0
   -3.9450   24.3710  -30.2450 C   0  0  0  0  0  0  0  0  0  0  0  0
   -3.8640   25.6780  -30.7110 O   0  0  0  0  0  0  0  0  0  0  0  0
   -6.2980   21.9500  -32.3750 C   0  0  0  0  0  0  0  0  0  0  0  0
   -5.3351   22.2926  -32.7818 H   0  0  0  0  0  0  0  0  0  0  0  0
   -6.8390   20.7320  -32.7990 C   0  0  0  0  0  0  0  0  0  0  0  0
   -6.3053   20.1251  -33.5452 H   0  0  0  0  0  0  0  0  0  0  0  0
  1  2  1  0
  2  3  1  0
  3  4  2  0
  4  5  1  0
  4  6  1  0
  6  7  1  0
  6  8  2  0
  8  9  1  0
  9 10  1  0
  9 11  1  0
  9 12  1  0
 12 13  1  0
 13 14  1  0
 13 15  2  0
 15 16  1  0
 16 17  1  1
 16 18  1  0
 18 19  2  0
 19 20  1  0
 20 21  1  0
 21 22  1  0
 22 23  2  0
 23 24  1  0
 23 25  1  0
 25 26  1  0
 25 27  2  0
 27 28  1  0
 28 29  1  0
 29 30  1  0
 29 31  1  0
 29 32  1  0
 27 33  1  0
 33 34  1  0
 33 35  2  0
 35 36  1  0
 21 37  2  0
 37 38  1  0
 37 39  1  0
 16 40  1  0
 40 41  1  0
 15 42  1  0
 42 43  1  0
 42 44  2  0
 44 45  1  0
  8 46  1  0
 46 47  1  0
 46 48  2  0
 48 49  1  0
 48  3  1  0
 44 12  1  0
 39 19  1  0
 35 22  1  0
M  CHG  2  20  -1  45  -1
M  END
>  <UniqueID>  (5) 
5

>  <SMILES>  (5) 
COc1ccc(-c2cs/c(=N\[C@@H](O)c3cc([O-])n(Cc4ccc(O)cc4)c3)[n-]2)cc1

>  <Energy>  (5) 
108.02017359214393

>  <Genealogy>  (5) 
COc1ccc(-c2csc(=NC(O)c3cc([O-])n(Cc4ccc(O)cc4)c3)[n-]2)cc1 (protonated)
COc1ccc(-c2csc(=N[C@@H](O)c3cc([O-])n(Cc4ccc(O)cc4)c3)[n-]2)cc1 (chirality)
COc1ccc(-c2cs/c(=N\[C@@H](O)c3cc([O-])n(Cc4ccc(O)cc4)c3)[n-]2)cc1 (cis-trans isomerization)
COc1ccc(-c2cs/c(=N\[C@@H](O)c3cc([O-])n(Cc4ccc(O)cc4)c3)[n-]2)cc1 (3D coordinates assigned)
COc1ccc(-c2cs/c(=N\[C@@H](O)c3cc([O-])n(Cc4ccc(O)cc4)c3)[n-]2)cc1 (optimized conformer: 108.02017359214393 kcal/mol)

>  <smiles>  (5) 
COc1ccc(-c2csc(=NC(O)c3cc(O)n(Cc4ccc(O)cc4)c3)[nH]2)cc1

>  <score_type>  (5) 
oracle

>  <origin>  (5) 
adgpu

>  <m_score__min__energy>  (5) 
-10.99

>  <m_primary>  (5) 
energy

$$$$
5:0
     RDKit          3D

 59 62  0  0  0  0  0  0  0  0999 V2000
   -0.4900   25.8740  -23.7170 N   0  0  0  0  0  0  0  0  0  0  0  0
   -0.8380   25.5410  -25.0640 C   0  0  0  0  0  0  0  0  0  0  0  0
   -2.1750   25.5660  -25.4740 C   0  0  0  0  0  0  0  0  0  0  0  0
   -2.5120   25.2580  -26.7930 C   0  0  0  0  0  0  0  0  0  0  0  0
   -1.5180   24.9130  -27.7230 C   0  0  0  0  0  0  0  0  0  0  0  0
   -1.9300   24.5430  -29.0960 C   0  0  0  0  0  0  0  0  0  0  0  0
   -1.2370   23.7130  -29.7420 O   0  0  0  0  0  0  0  0  0  0  0  0
   -3.1040   25.0880  -29.7140 N   0  0  0  0  0  0  0  0  0  0  0  0
   -4.2900   24.3590  -30.0620 C   0  0  0  0  0  0  0  0  0  0  0  0
   -5.3030   25.0130  -30.7730 C   0  0  0  0  0  0  0  0  0  0  0  0
   -6.4700   24.3310  -31.1300 C   0  0  0  0  0  0  0  0  0  0  0  0
   -6.6450   22.9920  -30.7560 C   0  0  0  0  0  0  0  0  0  0  0  0
   -8.0940   22.1090  -31.2210 S   0  0  0  0  0  0  0  0  0  0  0  0
   -9.0020   21.9690  -30.0320 O   0  0  0  0  0  0  0  0  0  0  0  0
   -8.8390   22.8500  -32.2980 O   0  0  0  0  0  0  0  0  0  0  0  0
   -7.6260   20.5190  -31.8120 C   0  0  0  0  0  0  0  0  0  0  0  0
   -8.5440   19.4610  -31.8050 C   0  0  0  0  0  0  0  0  0  0  0  0
   -8.1750   18.2100  -32.3080 C   0  0  0  0  0  0  0  0  0  0  0  0
   -6.8930   18.0120  -32.8270 C   0  0  0  0  0  0  0  0  0  0  0  0
   -5.9720   19.0680  -32.8450 C   0  0  0  0  0  0  0  0  0  0  0  0
   -4.3620   18.8560  -33.5240 S   0  0  0  0  0  0  0  0  0  0  0  0
   -3.6550   17.7750  -32.7540 O   0  0  0  0  0  0  0  0  0  0  0  0
   -4.4540   18.4430  -34.9680 O   0  0  0  0  0  0  0  0  0  0  0  0
   -3.4800   20.3590  -33.3930 N   0  0  0  0  0  0  0  0  0  0  0  0
   -2.2290   20.3160  -34.1920 C   0  0  0  0  0  0  0  0  0  0  0  0
   -0.9830   20.0540  -33.3340 C   0  0  0  0  0  0  0  0  0  0  0  0
   -0.8130   21.1380  -32.2550 C   0  0  0  0  0  0  0  0  0  0  0  0
   -2.1570   21.7190  -31.7810 C   0  0  0  0  0  0  0  0  0  0  0  0
   -3.2890   20.7050  -31.9660 C   0  0  0  0  0  0  0  0  0  0  0  0
   -6.3420   20.3200  -32.3370 C   0  0  0  0  0  0  0  0  0  0  0  0
   -5.6450   22.3430  -30.0200 C   0  0  0  0  0  0  0  0  0  0  0  0
   -4.4760   23.0230  -29.6670 C   0  0  0  0  0  0  0  0  0  0  0  0
   -0.1620   24.9190  -27.3170 C   0  0  0  0  0  0  0  0  0  0  0  0
    0.8850   24.6740  -28.2090 O   0  0  0  0  0  0  0  0  0  0  0  0
    0.1620   25.2110  -25.9870 C   0  0  0  0  0  0  0  0  0  0  0  0
    0.2200   25.3140  -23.1950 H   0  0  0  0  0  0  0  0  0  0  0  0
   -0.9640   26.6620  -23.2230 H   0  0  0  0  0  0  0  0  0  0  0  0
   -2.9640   25.8294  -24.7542 H   0  0  0  0  0  0  0  0  0  0  0  0
   -3.5659   25.2858  -27.1069 H   0  0  0  0  0  0  0  0  0  0  0  0
   -5.1801   26.0698  -31.0525 H   0  0  0  0  0  0  0  0  0  0  0  0
   -7.2526   24.8467  -31.7058 H   0  0  0  0  0  0  0  0  0  0  0  0
   -9.5564   19.6147  -31.4032 H   0  0  0  0  0  0  0  0  0  0  0  0
   -8.8959   17.3793  -32.2952 H   0  0  0  0  0  0  0  0  0  0  0  0
   -6.6063   17.0262  -33.2219 H   0  0  0  0  0  0  0  0  0  0  0  0
   -2.3165   19.5131  -34.9388 H   0  0  0  0  0  0  0  0  0  0  0  0
   -2.1041   21.3014  -34.6646 H   0  0  0  0  0  0  0  0  0  0  0  0
   -1.0835   19.0737  -32.8452 H   0  0  0  0  0  0  0  0  0  0  0  0
   -0.0991   20.0720  -33.9885 H   0  0  0  0  0  0  0  0  0  0  0  0
   -0.2960   20.6962  -31.3905 H   0  0  0  0  0  0  0  0  0  0  0  0
   -0.2329   21.9607  -32.6985 H   0  0  0  0  0  0  0  0  0  0  0  0
   -2.0797   21.9814  -30.7156 H   0  0  0  0  0  0  0  0  0  0  0  0
   -2.3844   22.6116  -32.3823 H   0  0  0  0  0  0  0  0  0  0  0  0
   -3.0445   19.7903  -31.4061 H   0  0  0  0  0  0  0  0  0  0  0  0
   -4.2204   21.1557  -31.5926 H   0  0  0  0  0  0  0  0  0  0  0  0
   -5.6212   21.1509  -32.3503 H   0  0  0  0  0  0  0  0  0  0  0  0
   -5.7805   21.2938  -29.7187 H   0  0  0  0  0  0  0  0  0  0  0  0
   -3.6999   22.5115  -29.0788 H   0  0  0  0  0  0  0  0  0  0  0  0
    0.7410   24.5100  -29.1970 H   0  0  0  0  0  0  0  0  0  0  0  0
    1.2129   25.1809  -25.6635 H   0  0  0  0  0  0  0  0  0  0  0  0
  1  2  1  0
  2  3  2  0
  3  4  1  0
  4  5  2  0
  5  6  1  0
  6  7  2  0
  6  8  1  0
  8  9  1  0
  9 10  2  0
 10 11  1  0
 11 12  2  0
 12 13  1  0
 13 14  2  0
 13 15  2  0
 13 16  1  0
 16 17  2  0
 17 18  1  0
 18 19  2  0
 19 20  1  0
 20 21  1  0
 21 22  2  0
 21 23  2  0
 21 24  1  0
 24 25  1  0
 25 26  1  0
 26 27  1  0
 27 28  1  0
 28 29  1  0
 20 30  2  0
 12 31  1  0
 31 32  2  0
  5 33  1  0
 33 34  1  0
 33 35  2  0
 35  2  1  0
 32  9  1  0
 30 16  1  0
 29 24  1  0
  1 36  1  0
  1 37  1  0
  3 38  1  0
  4 39  1  0
 10 40  1  0
 11 41  1  0
 17 42  1  0
 18 43  1  0
 19 44  1  0
 25 45  1  0
 25 46  1  0
 26 47  1  0
 26 48  1  0
 27 49  1  0
 27 50  1  0
 28 51  1  0
 28 52  1  0
 29 53  1  0
 29 54  1  0
 30 55  1  0
 31 56  1  0
 32 57  1  0
 34 58  1  0
 35 59  1  0
M  CHG  1   8  -1
M  END
>  <UniqueID>  (6) 
6

>  <SMILES>  (6) 
Nc1ccc(C(=O)[N-]c2ccc(S(=O)(=O)c3cccc(S(=O)(=O)N4CCCCC4)c3)cc2)c(O)c1

>  <Energy>  (6) 
74.93473273509319

>  <Genealogy>  (6) 
Nc1ccc(C(=O)[N-]c2ccc(S(=O)(=O)c3cccc(S(=O)(=O)N4CCCCC4)c3)cc2)c(O)c1 (protonated)
Nc1ccc(C(=O)[N-]c2ccc(S(=O)(=O)c3cccc(S(=O)(=O)N4CCCCC4)c3)cc2)c(O)c1 (3D coordinates assigned)
Nc1ccc(C(=O)[N-]c2ccc(S(=O)(=O)c3cccc(S(=O)(=O)N4CCCCC4)c3)cc2)c(O)c1 (nonaromatic ring conformer: 74.93473273509319 kcal/mol)

>  <smiles>  (6) 
Nc1ccc(C(=O)Nc2ccc(S(=O)(=O)c3cccc(S(=O)(=O)N4CCCCC4)c3)cc2)c(O)c1

>  <score_type>  (6) 
oracle

>  <origin>  (6) 
adgpu

>  <m_score__min__energy>  (6) 
-12.76

>  <m_primary>  (6) 
energy

$$$$
6:0
     RDKit          3D

 58 61  0  0  0  0  0  0  0  0999 V2000
   -7.6470   23.9060  -31.0730 O   0  0  0  0  0  0  0  0  0  0  0  0
   -6.9020   23.0360  -31.5970 C   0  0  0  0  0  0  0  0  0  0  0  0
   -5.5190   23.3510  -31.8090 N   0  0  0  0  0  0  0  0  0  0  0  0
   -4.4500   23.1060  -30.8820 C   0  0  0  0  0  0  0  0  0  0  0  0
   -4.1750   21.7840  -30.5130 C   0  0  0  0  0  0  0  0  0  0  0  0
   -3.1590   21.5010  -29.5980 C   0  0  0  0  0  0  0  0  0  0  0  0
   -2.3880   22.5360  -29.0570 C   0  0  0  0  0  0  0  0  0  0  0  0
   -1.0970   22.1750  -27.9120 S   0  0  0  0  0  0  0  0  0  0  0  0
   -1.6450   21.2860  -26.8300 O   0  0  0  0  0  0  0  0  0  0  0  0
   -0.6400   23.4530  -27.2640 O   0  0  0  0  0  0  0  0  0  0  0  0
    0.2740   21.3870  -28.6660 N   0  0  0  0  0  0  0  0  0  0  0  0
   -0.0680   20.7740  -29.9640 C   0  0  0  0  0  0  0  0  0  0  0  0
   -0.7120   19.3750  -29.8230 C   0  0  0  0  0  0  0  0  0  0  0  0
   -0.6640   18.8660  -28.5050 O   0  0  0  0  0  0  0  0  0  0  0  0
    0.6430   18.9910  -27.9950 C   0  0  0  0  0  0  0  0  0  0  0  0
    0.9850   20.4700  -27.7500 C   0  0  0  0  0  0  0  0  0  0  0  0
   -2.6410   23.8590  -29.4430 C   0  0  0  0  0  0  0  0  0  0  0  0
   -3.6540   24.1500  -30.3660 C   0  0  0  0  0  0  0  0  0  0  0  0
   -3.8500   25.4630  -30.7880 O   0  0  0  0  0  0  0  0  0  0  0  0
   -7.4830   21.7380  -32.0160 C   0  0  0  0  0  0  0  0  0  0  0  0
   -8.8410   21.4510  -31.7970 C   0  0  0  0  0  0  0  0  0  0  0  0
   -9.3790   20.2270  -32.2020 C   0  0  0  0  0  0  0  0  0  0  0  0
   -8.5690   19.2760  -32.8230 C   0  0  0  0  0  0  0  0  0  0  0  0
   -7.2110   19.5420  -33.0390 C   0  0  0  0  0  0  0  0  0  0  0  0
   -6.1670   18.3480  -33.8060 S   0  0  0  0  0  0  0  0  0  0  0  0
   -6.7230   16.9650  -33.5970 O   0  0  0  0  0  0  0  0  0  0  0  0
   -6.1180   18.6310  -35.2800 O   0  0  0  0  0  0  0  0  0  0  0  0
   -4.5620   18.4540  -33.1290 N   0  0  0  0  0  0  0  0  0  0  0  0
   -3.9330   19.7210  -33.5350 C   0  0  0  0  0  0  0  0  0  0  0  0
   -2.4910   19.8000  -32.9880 C   0  0  0  0  0  0  0  0  0  0  0  0
   -2.1120   18.6130  -32.3140 O   0  0  0  0  0  0  0  0  0  0  0  0
   -2.2700   17.5050  -33.1780 C   0  0  0  0  0  0  0  0  0  0  0  0
   -3.7470   17.3150  -33.5800 C   0  0  0  0  0  0  0  0  0  0  0  0
   -6.6700   20.7680  -32.6270 C   0  0  0  0  0  0  0  0  0  0  0  0
   -4.7635   20.9622  -30.9470 H   0  0  0  0  0  0  0  0  0  0  0  0
   -2.9638   20.4600  -29.3011 H   0  0  0  0  0  0  0  0  0  0  0  0
   -0.7755   21.4340  -30.4873 H   0  0  0  0  0  0  0  0  0  0  0  0
    0.8699   20.6485  -30.5249 H   0  0  0  0  0  0  0  0  0  0  0  0
   -1.7654   19.4431  -30.1325 H   0  0  0  0  0  0  0  0  0  0  0  0
   -0.1360   18.6864  -30.4586 H   0  0  0  0  0  0  0  0  0  0  0  0
    0.7155   18.4404  -27.0455 H   0  0  0  0  0  0  0  0  0  0  0  0
    1.3522   18.5779  -28.7274 H   0  0  0  0  0  0  0  0  0  0  0  0
    0.7117   20.7262  -26.7158 H   0  0  0  0  0  0  0  0  0  0  0  0
    2.0627   20.5930  -27.9326 H   0  0  0  0  0  0  0  0  0  0  0  0
   -2.0393   24.6758  -29.0178 H   0  0  0  0  0  0  0  0  0  0  0  0
   -4.2610   25.6780  -31.6880 H   0  0  0  0  0  0  0  0  0  0  0  0
   -9.4843   22.1945  -31.3037 H   0  0  0  0  0  0  0  0  0  0  0  0
  -10.4442   20.0125  -32.0308 H   0  0  0  0  0  0  0  0  0  0  0  0
   -8.9978   18.3151  -33.1437 H   0  0  0  0  0  0  0  0  0  0  0  0
   -3.9087   19.7790  -34.6332 H   0  0  0  0  0  0  0  0  0  0  0  0
   -4.5178   20.5588  -33.1274 H   0  0  0  0  0  0  0  0  0  0  0  0
   -1.8012   19.9665  -33.8285 H   0  0  0  0  0  0  0  0  0  0  0  0
   -2.4470   20.6288  -32.2661 H   0  0  0  0  0  0  0  0  0  0  0  0
   -1.6699   17.6693  -34.0851 H   0  0  0  0  0  0  0  0  0  0  0  0
   -1.9348   16.6009  -32.6486 H   0  0  0  0  0  0  0  0  0  0  0  0
   -3.8152   17.2339  -34.6749 H   0  0  0  0  0  0  0  0  0  0  0  0
   -4.1270   16.3991  -33.1038 H   0  0  0  0  0  0  0  0  0  0  0  0
   -5.6005   20.9724  -32.7832 H   0  0  0  0  0  0  0  0  0  0  0  0
  1  2  2  0
  2  3  1  0
  3  4  1  0
  4  5  2  0
  5  6  1  0
  6  7  2  0
  7  8  1  0
  8  9  2  0
  8 10  2  0
  8 11  1  0
 11 12  1  0
 12 13  1  0
 13 14  1  0
 14 15  1  0
 15 16  1  0
  7 17  1  0
 17 18  2  0
 18 19  1  0
  2 20  1  0
 20 21  2  0
 21 22  1  0
 22 23  2  0
 23 24  1  0
 24 25  1  0
 25 26  2  0
 25 27  2  0
 25 28  1  0
 28 29  1  0
 29 30  1  0
 30 31  1  0
 31 32  1  0
 32 33  1  0
 24 34  2  0
 18  4  1  0
 34 20  1  0
 16 11  1  0
 33 28  1  0
  5 35  1  0
  6 36  1  0
 12 37  1  0
 12 38  1  0
 13 39  1  0
 13 40  1  0
 15 41  1  0
 15 42  1  0
 16 43  1  0
 16 44  1  0
 17 45  1  0
 19 46  1  0
 21 47  1  0
 22 48  1  0
 23 49  1  0
 29 50  1  0
 29 51  1  0
 30 52  1  0
 30 53  1  0
 32 54  1  0
 32 55  1  0
 33 56  1  0
 33 57  1  0
 34 58  1  0
M  CHG  1   3  -1
M  END
>  <UniqueID>  (7) 
7

>  <SMILES>  (7) 
O=C([N-]c1ccc(S(=O)(=O)N2CCOCC2)cc1O)c1cccc(S(=O)(=O)N2CCOCC2)c1

>  <Energy>  (7) 
85.90309048763139

>  <Genealogy>  (7) 
O=C([N-]c1ccc(S(=O)(=O)N2CCOCC2)cc1O)c1cccc(S(=O)(=O)N2CCOCC2)c1 (protonated)
O=C([N-]c1ccc(S(=O)(=O)N2CCOCC2)cc1O)c1cccc(S(=O)(=O)N2CCOCC2)c1 (3D coordinates assigned)
O=C([N-]c1ccc(S(=O)(=O)N2CCOCC2)cc1O)c1cccc(S(=O)(=O)N2CCOCC2)c1 (nonaromatic ring conformer: 85.90309048763139 kcal/mol)

>  <smiles>  (7) 
O=C(Nc1ccc(S(=O)(=O)N2CCOCC2)cc1O)c1cccc(S(=O)(=O)N2CCOCC2)c1

>  <score_type>  (7) 
oracle

>  <origin>  (7) 
adgpu

>  <m_score__min__energy>  (7) 
-12.220000000000001

>  <m_primary>  (7) 
energy

$$$$
7:0
     RDKit          3D

 51 53  0  0  0  0  0  0  0  0999 V2000
   -9.4830   19.2820  -32.7090 C   0  0  0  0  0  0  0  0  0  0  0  0
   -7.9870   19.1790  -32.6670 C   0  0  0  0  0  0  0  0  0  0  0  0
   -7.2010   19.9590  -33.5290 C   0  0  0  0  0  0  0  0  0  0  0  0
   -5.8070   19.8920  -33.4650 C   0  0  0  0  0  0  0  0  0  0  0  0
   -5.1800   19.0460  -32.5360 C   0  0  0  0  0  0  0  0  0  0  0  0
   -3.6800   19.0040  -32.4400 C   0  0  0  0  0  0  0  0  0  0  0  0
   -3.0970   19.7690  -33.5440 N   0  0  0  0  0  0  0  0  0  0  0  0
   -2.7620   21.3920  -33.0190 S   0  0  0  0  0  0  0  0  0  0  0  0
   -1.4560   21.8450  -33.6080 O   0  0  0  0  0  0  0  0  0  0  0  0
   -3.8550   22.3050  -33.4990 O   0  0  0  0  0  0  0  0  0  0  0  0
   -2.7040   21.4450  -31.2550 C   0  0  0  0  0  0  0  0  0  0  0  0
   -1.8710   20.6830  -30.4500 C   0  0  0  0  0  0  0  0  0  0  0  0
   -0.9050   19.6410  -30.9170 C   0  0  0  0  0  0  0  0  0  0  0  0
   -1.9540   21.0970  -29.1700 N   0  0  0  0  0  0  0  0  0  0  0  0
   -2.8480   22.1050  -29.1400 C   0  0  0  0  0  0  0  0  0  0  0  0
   -3.1820   22.8800  -27.9060 C   0  0  0  0  0  0  0  0  0  0  0  0
   -3.3370   22.3490  -30.4130 C   0  0  0  0  0  0  0  0  0  0  0  0
   -4.2750   23.4180  -30.7910 C   0  0  0  0  0  0  0  0  0  0  0  0
   -3.8580   24.6070  -30.8290 O   0  0  0  0  0  0  0  0  0  0  0  0
   -5.6510   23.1310  -31.0890 N   0  0  0  0  0  0  0  0  0  0  0  0
   -6.5490   24.1040  -31.6870 C   0  0  0  0  0  0  0  0  0  0  0  0
   -7.9420   23.4960  -31.5820 C   0  0  0  0  0  0  0  0  0  0  0  0
   -7.7340   22.0160  -31.2650 C   0  0  0  0  0  0  0  0  0  0  0  0
   -6.3240   21.9030  -30.7020 C   0  0  0  0  0  0  0  0  0  0  0  0
   -5.9660   18.2910  -31.6530 C   0  0  0  0  0  0  0  0  0  0  0  0
   -7.3620   18.3580  -31.7170 C   0  0  0  0  0  0  0  0  0  0  0  0
   -9.8776   19.3092  -31.6826 H   0  0  0  0  0  0  0  0  0  0  0  0
   -9.7725   20.2022  -33.2376 H   0  0  0  0  0  0  0  0  0  0  0  0
   -9.8959   18.4102  -33.2376 H   0  0  0  0  0  0  0  0  0  0  0  0
   -7.6844   20.6259  -34.2581 H   0  0  0  0  0  0  0  0  0  0  0  0
   -5.1977   20.5049  -34.1456 H   0  0  0  0  0  0  0  0  0  0  0  0
   -3.3618   19.4421  -31.4825 H   0  0  0  0  0  0  0  0  0  0  0  0
   -3.3387   17.9599  -32.4979 H   0  0  0  0  0  0  0  0  0  0  0  0
   -2.1770   19.3360  -33.7910 H   0  0  0  0  0  0  0  0  0  0  0  0
   -0.4480   19.1481  -30.0462 H   0  0  0  0  0  0  0  0  0  0  0  0
   -1.4369   18.8937  -31.5241 H   0  0  0  0  0  0  0  0  0  0  0  0
   -0.1196   20.1149  -31.5241 H   0  0  0  0  0  0  0  0  0  0  0  0
   -1.4060   20.7290  -28.3610 H   0  0  0  0  0  0  0  0  0  0  0  0
   -2.9251   22.2839  -27.0179 H   0  0  0  0  0  0  0  0  0  0  0  0
   -2.6085   23.8186  -27.8961 H   0  0  0  0  0  0  0  0  0  0  0  0
   -4.2581   23.1077  -27.8961 H   0  0  0  0  0  0  0  0  0  0  0  0
   -6.5035   25.0563  -31.1383 H   0  0  0  0  0  0  0  0  0  0  0  0
   -6.2774   24.3204  -32.7307 H   0  0  0  0  0  0  0  0  0  0  0  0
   -8.5116   23.9828  -30.7766 H   0  0  0  0  0  0  0  0  0  0  0  0
   -8.5116   23.6319  -32.5131 H   0  0  0  0  0  0  0  0  0  0  0  0
   -8.4708   21.6768  -30.5220 H   0  0  0  0  0  0  0  0  0  0  0  0
   -7.8624   21.3897  -32.1602 H   0  0  0  0  0  0  0  0  0  0  0  0
   -6.3540   21.8101  -29.6063 H   0  0  0  0  0  0  0  0  0  0  0  0
   -5.8020   21.0138  -31.0852 H   0  0  0  0  0  0  0  0  0  0  0  0
   -5.4826   17.6433  -30.9068 H   0  0  0  0  0  0  0  0  0  0  0  0
   -7.9716   17.7646  -31.0197 H   0  0  0  0  0  0  0  0  0  0  0  0
  1  2  1  0
  2  3  2  0
  3  4  1  0
  4  5  2  0
  5  6  1  0
  6  7  1  0
  7  8  1  0
  8  9  2  0
  8 10  2  0
  8 11  1  0
 11 12  2  0
 12 13  1  0
 12 14  1  0
 14 15  1  0
 15 16  1  0
 15 17  2  0
 17 18  1  0
 18 19  2  0
 18 20  1  0
 20 21  1  0
 21 22  1  0
 22 23  1  0
 23 24  1  0
  5 25  1  0
 25 26  2  0
 26  2  1  0
 17 11  1  0
 24 20  1  0
  1 27  1  0
  1 28  1  0
  1 29  1  0
  3 30  1  0
  4 31  1  0
  6 32  1  0
  6 33  1  0
  7 34  1  0
 13 35  1  0
 13 36  1  0
 13 37  1  0
 14 38  1  0
 16 39  1  0
 16 40  1  0
 16 41  1  0
 21 42  1  0
 21 43  1  0
 22 44  1  0
 22 45  1  0
 23 46  1  0
 23 47  1  0
 24 48  1  0
 24 49  1  0
 25 50  1  0
 26 51  1  0
M  END
>  <UniqueID>  (8) 
8

>  <SMILES>  (8) 
Cc1ccc(CNS(=O)(=O)c2c(C)[nH]c(C)c2C(=O)N2CCCC2)cc1

>  <Energy>  (8) 
75.00252557578386

>  <Genealogy>  (8) 
Cc1ccc(CNS(=O)(=O)c2c(C)[nH]c(C)c2C(=O)N2CCCC2)cc1 (3D coordinates assigned)
Cc1ccc(CNS(=O)(=O)c2c(C)[nH]c(C)c2C(=O)N2CCCC2)cc1 (nonaromatic ring conformer: 75.00252557578386 kcal/mol)

>  <smiles>  (8) 
Cc1ccc(CNS(=O)(=O)c2c(C)[nH]c(C)c2C(=O)N2CCCC2)cc1

>  <score_type>  (8) 
oracle

>  <origin>  (8) 
adgpu

>  <m_score__min__energy>  (8) 
-9.1899999999999995

>  <m_primary>  (8) 
energy

$$$$
8:0
     RDKit          3D

 60 63  0  0  0  0  0  0  0  0999 V2000
   -2.1760   19.6920  -27.0930 C   0  0  0  0  0  0  0  0  0  0  0  0
   -1.5910   20.1410  -28.4070 C   0  0  0  0  0  0  0  0  0  0  0  0
   -0.6950   19.2740  -29.0550 C   0  0  0  0  0  0  0  0  0  0  0  0
   -0.0920   19.6340  -30.2560 C   0  0  0  0  0  0  0  0  0  0  0  0
   -0.3670   20.8740  -30.8420 C   0  0  0  0  0  0  0  0  0  0  0  0
    0.2530   21.2720  -32.0750 N   0  0  0  0  0  0  0  0  0  0  0  0
   -0.2710   21.0400  -33.3860 C   0  0  0  0  0  0  0  0  0  0  0  0
   -0.1330   21.9320  -34.2650 O   0  0  0  0  0  0  0  0  0  0  0  0
   -1.0350   19.8580  -33.6610 N   0  0  0  0  0  0  0  0  0  0  0  0
   -2.4340   19.6520  -33.4200 C   0  0  0  0  0  0  0  0  0  0  0  0
   -3.1620   18.6260  -34.0470 C   0  0  0  0  0  0  0  0  0  0  0  0
   -4.5190   18.4480  -33.7600 C   0  0  0  0  0  0  0  0  0  0  0  0
   -5.1660   19.2840  -32.8350 C   0  0  0  0  0  0  0  0  0  0  0  0
   -6.5970   19.0950  -32.5150 C   0  0  0  0  0  0  0  0  0  0  0  0
   -6.9950   17.9480  -32.1720 O   0  0  0  0  0  0  0  0  0  0  0  0
   -7.5360   20.1900  -32.5610 N   0  0  0  0  0  0  0  0  0  0  0  0
   -8.9440   19.9530  -32.9040 C   0  0  0  0  0  0  0  0  0  0  0  0
   -9.8400   20.8020  -31.9960 C   0  0  0  0  0  0  0  0  0  0  0  0
   -9.4510   22.1640  -32.0360 O   0  0  0  0  0  0  0  0  0  0  0  0
   -8.1510   22.3100  -31.4970 C   0  0  0  0  0  0  0  0  0  0  0  0
   -7.1150   21.5810  -32.3590 C   0  0  0  0  0  0  0  0  0  0  0  0
   -4.4260   20.2780  -32.1780 C   0  0  0  0  0  0  0  0  0  0  0  0
   -3.0720   20.4600  -32.4720 C   0  0  0  0  0  0  0  0  0  0  0  0
   -1.2190   21.7730  -30.1870 C   0  0  0  0  0  0  0  0  0  0  0  0
   -1.4340   23.0240  -30.7590 O   0  0  0  0  0  0  0  0  0  0  0  0
   -1.8540   21.4200  -28.9740 C   0  0  0  0  0  0  0  0  0  0  0  0
   -2.9710   22.5950  -28.2170 S   0  0  0  0  0  0  0  0  0  0  0  0
   -2.1990   23.4460  -27.2470 O   0  0  0  0  0  0  0  0  0  0  0  0
   -4.0370   21.8910  -27.4250 O   0  0  0  0  0  0  0  0  0  0  0  0
   -3.7400   23.6320  -29.3970 N   0  0  0  0  0  0  0  0  0  0  0  0
   -4.4200   22.8430  -30.4320 C   0  0  0  0  0  0  0  0  0  0  0  0
   -5.0270   23.7870  -31.4940 C   0  0  0  0  0  0  0  0  0  0  0  0
   -4.9740   25.1480  -31.0990 O   0  0  0  0  0  0  0  0  0  0  0  0
   -5.5360   25.2970  -29.8110 C   0  0  0  0  0  0  0  0  0  0  0  0
   -4.6960   24.5490  -28.7530 C   0  0  0  0  0  0  0  0  0  0  0  0
   -1.6009   20.1334  -26.2657 H   0  0  0  0  0  0  0  0  0  0  0  0
   -3.2239   20.0199  -27.0270 H   0  0  0  0  0  0  0  0  0  0  0  0
   -2.1302   18.5949  -27.0270 H   0  0  0  0  0  0  0  0  0  0  0  0
   -0.4669   18.2960  -28.6060 H   0  0  0  0  0  0  0  0  0  0  0  0
    0.6051   18.9395  -30.7476 H   0  0  0  0  0  0  0  0  0  0  0  0
   -2.6623   17.9605  -34.7663 H   0  0  0  0  0  0  0  0  0  0  0  0
   -5.0834   17.6482  -34.2618 H   0  0  0  0  0  0  0  0  0  0  0  0
   -9.1175   20.2309  -33.9541 H   0  0  0  0  0  0  0  0  0  0  0  0
   -9.1820   18.8884  -32.7627 H   0  0  0  0  0  0  0  0  0  0  0  0
  -10.8828   20.7147  -32.3350 H   0  0  0  0  0  0  0  0  0  0  0  0
   -9.7413   20.4374  -30.9629 H   0  0  0  0  0  0  0  0  0  0  0  0
   -7.8965   23.3794  -31.4558 H   0  0  0  0  0  0  0  0  0  0  0  0
   -8.1384   21.8721  -30.4880 H   0  0  0  0  0  0  0  0  0  0  0  0
   -7.0307   22.0835  -33.3339 H   0  0  0  0  0  0  0  0  0  0  0  0
   -6.1394   21.5980  -31.8512 H   0  0  0  0  0  0  0  0  0  0  0  0
   -4.9139   20.9175  -31.4276 H   0  0  0  0  0  0  0  0  0  0  0  0
   -2.5025   21.2455  -31.9536 H   0  0  0  0  0  0  0  0  0  0  0  0
   -3.6953   22.1697  -30.9131 H   0  0  0  0  0  0  0  0  0  0  0  0
   -5.2238   22.2518  -29.9690 H   0  0  0  0  0  0  0  0  0  0  0  0
   -4.4666   23.6694  -32.4332 H   0  0  0  0  0  0  0  0  0  0  0  0
   -6.0853   23.5147  -31.6202 H   0  0  0  0  0  0  0  0  0  0  0  0
   -5.5694   26.3661  -29.5542 H   0  0  0  0  0  0  0  0  0  0  0  0
   -6.5504   24.8717  -29.8190 H   0  0  0  0  0  0  0  0  0  0  0  0
   -4.1415   25.2820  -28.1487 H   0  0  0  0  0  0  0  0  0  0  0  0
   -5.3734   23.9616  -28.1158 H   0  0  0  0  0  0  0  0  0  0  0  0
  1  2  1  0
  2  3  2  0
  3  4  1  0
  4  5  2  0
  5  6  1  0
  6  7  1  0
  7  8  2  0
  7  9  1  0
  9 10  1  0
 10 11  2  0
 11 12  1  0
 12 13  2  0
 13 14  1  0
 14 15  2  0
 14 16  1  0
 16 17  1  0
 17 18  1  0
 18 19  1  0
 19 20  1  0
 20 21  1  0
 13 22  1  0
 22 23  2  0
  5 24  1  0
 24 25  1  0
 24 26  2  0
 26 27  1  0
 27 28  2  0
 27 29  2  0
 27 30  1  0
 30 31  1  0
 31 32  1  0
 32 33  1  0
 33 34  1  0
 34 35  1  0
 26  2  1  0
 35 30  1  0
 23 10  1  0
 21 16  1  0
  1 36  1  0
  1 37  1  0
  1 38  1  0
  3 39  1  0
  4 40  1  0
 11 41  1  0
 12 42  1  0
 17 43  1  0
 17 44  1  0
 18 45  1  0
 18 46  1  0
 20 47  1  0
 20 48  1  0
 21 49  1  0
 21 50  1  0
 22 51  1  0
 23 52  1  0
 31 53  1  0
 31 54  1  0
 32 55  1  0
 32 56  1  0
 34 57  1  0
 34 58  1  0
 35 59  1  0
 35 60  1  0
M  CHG  3   6  -1   9  -1  25  -1
M  END
>  <UniqueID>  (9) 
9

>  <SMILES>  (9) 
Cc1ccc([N-]C(=O)[N-]c2ccc(C(=O)N3CCOCC3)cc2)c([O-])c1S(=O)(=O)N1CCOCC1

>  <Energy>  (9) 
88.23310417469996

>  <Genealogy>  (9) 
Cc1ccc([N-]C(=O)[N-]c2ccc(C(=O)N3CCOCC3)cc2)c([O-])c1S(=O)(=O)N1CCOCC1 (protonated)
Cc1ccc([N-]C(=O)[N-]c2ccc(C(=O)N3CCOCC3)cc2)c([O-])c1S(=O)(=O)N1CCOCC1 (3D coordinates assigned)
Cc1ccc([N-]C(=O)[N-]c2ccc(C(=O)N3CCOCC3)cc2)c([O-])c1S(=O)(=O)N1CCOCC1 (nonaromatic ring conformer: 88.23310417469996 kcal/mol)

>  <smiles>  (9) 
Cc1ccc(NC(=O)Nc2ccc(C(=O)N3CCOCC3)cc2)c(O)c1S(=O)(=O)N1CCOCC1

>  <score_type>  (9) 
oracle

>  <origin>  (9) 
adgpu

>  <m_score__min__energy>  (9) 
-16.710000000000001

>  <m_primary>  (9) 
energy

$$$$
9:0
     RDKit          3D

 59 62  0  0  0  0  0  0  0  0999 V2000
    3.0270   16.1930  -29.7010 C   0  0  0  0  0  0  0  0  0  0  0  0
    3.2050   17.8550  -29.0920 S   0  0  0  0  0  0  0  0  0  0  0  0
    3.9980   18.6650  -30.0800 O   0  0  0  0  0  0  0  0  0  0  0  0
    3.9490   17.8060  -27.7850 O   0  0  0  0  0  0  0  0  0  0  0  0
    1.6350   18.5790  -28.8450 N   0  0  0  0  0  0  0  0  0  0  0  0
    0.7450   18.2320  -29.9610 C   0  0  0  0  0  0  0  0  0  0  0  0
   -0.5130   19.0990  -29.8780 C   0  0  0  0  0  0  0  0  0  0  0  0
   -0.9470   19.2590  -28.4850 N   0  0  0  0  0  0  0  0  0  0  0  0
   -2.0700   20.1040  -28.1950 C   0  0  0  0  0  0  0  0  0  0  0  0
   -3.0860   19.6080  -27.6350 O   0  0  0  0  0  0  0  0  0  0  0  0
   -2.0400   21.5490  -28.5130 C   0  0  0  0  0  0  0  0  0  0  0  0
   -0.8200   22.1980  -28.7690 C   0  0  0  0  0  0  0  0  0  0  0  0
   -0.7900   23.5690  -29.0340 C   0  0  0  0  0  0  0  0  0  0  0  0
   -1.9730   24.3110  -29.0310 C   0  0  0  0  0  0  0  0  0  0  0  0
   -1.9240   25.6710  -29.3130 O   0  0  0  0  0  0  0  0  0  0  0  0
   -3.1960   23.6810  -28.7540 C   0  0  0  0  0  0  0  0  0  0  0  0
   -4.4080   24.4370  -28.6740 N   0  0  0  0  0  0  0  0  0  0  0  0
   -5.2230   24.9110  -30.1270 S   0  0  0  0  0  0  0  0  0  0  0  0
   -6.3630   25.8350  -29.8040 O   0  0  0  0  0  0  0  0  0  0  0  0
   -4.2590   25.6370  -31.0220 O   0  0  0  0  0  0  0  0  0  0  0  0
   -5.8150   23.4710  -30.9510 C   0  0  0  0  0  0  0  0  0  0  0  0
   -7.1550   23.0940  -30.8260 C   0  0  0  0  0  0  0  0  0  0  0  0
   -7.6160   21.9240  -31.4320 C   0  0  0  0  0  0  0  0  0  0  0  0
   -6.7450   21.1170  -32.1780 C   0  0  0  0  0  0  0  0  0  0  0  0
   -5.3810   21.4790  -32.2800 C   0  0  0  0  0  0  0  0  0  0  0  0
   -4.9330   22.6640  -31.6750 C   0  0  0  0  0  0  0  0  0  0  0  0
   -4.4120   20.6730  -33.1130 C   0  0  0  0  0  0  0  0  0  0  0  0
   -4.8990   19.2440  -33.3680 C   0  0  0  0  0  0  0  0  0  0  0  0
   -6.3520   19.2510  -33.8420 C   0  0  0  0  0  0  0  0  0  0  0  0
   -7.2650   19.8200  -32.7530 C   0  0  0  0  0  0  0  0  0  0  0  0
   -3.2270   22.3020  -28.5070 C   0  0  0  0  0  0  0  0  0  0  0  0
   -0.4590   18.3360  -27.4550 C   0  0  0  0  0  0  0  0  0  0  0  0
    1.0710   18.1350  -27.5530 C   0  0  0  0  0  0  0  0  0  0  0  0
    2.9525   15.4974  -28.8521 H   0  0  0  0  0  0  0  0  0  0  0  0
    2.1162   16.1226  -30.3137 H   0  0  0  0  0  0  0  0  0  0  0  0
    3.9023   15.9313  -30.3137 H   0  0  0  0  0  0  0  0  0  0  0  0
    1.2594   18.4178  -30.9154 H   0  0  0  0  0  0  0  0  0  0  0  0
    0.4699   17.1686  -29.9023 H   0  0  0  0  0  0  0  0  0  0  0  0
   -0.2965   20.0898  -30.3040 H   0  0  0  0  0  0  0  0  0  0  0  0
   -1.3179   18.6059  -30.4428 H   0  0  0  0  0  0  0  0  0  0  0  0
    0.1174   21.6225  -28.7606 H   0  0  0  0  0  0  0  0  0  0  0  0
    0.1683   24.0658  -29.2457 H   0  0  0  0  0  0  0  0  0  0  0  0
   -4.5670   25.0280  -27.8300 H   0  0  0  0  0  0  0  0  0  0  0  0
   -7.8491   23.7217  -30.2478 H   0  0  0  0  0  0  0  0  0  0  0  0
   -8.6712   21.6327  -31.3234 H   0  0  0  0  0  0  0  0  0  0  0  0
   -3.8780   22.9601  -31.7717 H   0  0  0  0  0  0  0  0  0  0  0  0
   -4.2767   21.1768  -34.0814 H   0  0  0  0  0  0  0  0  0  0  0  0
   -3.4673   20.6073  -32.5533 H   0  0  0  0  0  0  0  0  0  0  0  0
   -4.2685   18.7789  -34.1401 H   0  0  0  0  0  0  0  0  0  0  0  0
   -4.8331   18.6727  -32.4303 H   0  0  0  0  0  0  0  0  0  0  0  0
   -6.4355   19.8720  -34.7461 H   0  0  0  0  0  0  0  0  0  0  0  0
   -6.6605   18.2186  -34.0632 H   0  0  0  0  0  0  0  0  0  0  0  0
   -8.2599   20.0005  -33.1862 H   0  0  0  0  0  0  0  0  0  0  0  0
   -7.3058   19.0856  -31.9351 H   0  0  0  0  0  0  0  0  0  0  0  0
   -4.1876   21.8049  -28.3069 H   0  0  0  0  0  0  0  0  0  0  0  0
   -0.7029   18.7454  -26.4636 H   0  0  0  0  0  0  0  0  0  0  0  0
   -0.9455   17.3612  -27.6067 H   0  0  0  0  0  0  0  0  0  0  0  0
    1.5513   18.7083  -26.7464 H   0  0  0  0  0  0  0  0  0  0  0  0
    1.2652   17.0559  -27.4651 H   0  0  0  0  0  0  0  0  0  0  0  0
  1  2  1  0
  2  3  2  0
  2  4  2  0
  2  5  1  0
  5  6  1  0
  6  7  1  0
  7  8  1  0
  8  9  1  0
  9 10  2  0
  9 11  1  0
 11 12  2  0
 12 13  1  0
 13 14  2  0
 14 15  1  0
 14 16  1  0
 16 17  1  0
 17 18  1  0
 18 19  2  0
 18 20  2  0
 18 21  1  0
 21 22  2  0
 22 23  1  0
 23 24  2  0
 24 25  1  0
 25 26  2  0
 25 27  1  0
 27 28  1  0
 28 29  1  0
 29 30  1  0
 16 31  2  0
  8 32  1  0
 32 33  1  0
 33  5  1  0
 31 11  1  0
 26 21  1  0
 30 24  1  0
  1 34  1  0
  1 35  1  0
  1 36  1  0
  6 37  1  0
  6 38  1  0
  7 39  1  0
  7 40  1  0
 12 41  1  0
 13 42  1  0
 17 43  1  0
 22 44  1  0
 23 45  1  0
 26 46  1  0
 27 47  1  0
 27 48  1  0
 28 49  1  0
 28 50  1  0
 29 51  1  0
 29 52  1  0
 30 53  1  0
 30 54  1  0
 31 55  1  0
 32 56  1  0
 32 57  1  0
 33 58  1  0
 33 59  1  0
M  CHG  1  15  -1
M  END
>  <UniqueID>  (10) 
10

>  <SMILES>  (10) 
CS(=O)(=O)N1CCN(C(=O)c2ccc([O-])c(NS(=O)(=O)c3ccc4c(c3)CCCC4)c2)CC1

>  <Energy>  (10) 
70.54912160741266

>  <Genealogy>  (10) 
CS(=O)(=O)N1CCN(C(=O)c2ccc([O-])c(NS(=O)(=O)c3ccc4c(c3)CCCC4)c2)CC1 (protonated)
CS(=O)(=O)N1CCN(C(=O)c2ccc([O-])c(NS(=O)(=O)c3ccc4c(c3)CCCC4)c2)CC1 (3D coordinates assigned)
CS(=O)(=O)N1CCN(C(=O)c2ccc([O-])c(NS(=O)(=O)c3ccc4c(c3)CCCC4)c2)CC1 (nonaromatic ring conformer: 70.54912160741266 kcal/mol)

>  <smiles>  (10) 
CS(=O)(=O)N1CCN(C(=O)c2ccc(O)c(NS(=O)(=O)c3ccc4c(c3)CCCC4)c2)CC1

>  <score_type>  (10) 
oracle

>  <origin>  (10) 
adgpu

>  <m_score__min__energy>  (10) 
-14.460000000000001

>  <m_primary>  (10) 
energy

$$$$
10:0
     RDKit          3D

 68 72  0  0  0  0  0  0  0  0999 V2000
   -4.5460   17.2610  -34.6020 O   0  0  0  0  0  0  0  0  0  0  0  0
   -4.2360   18.0940  -33.7070 C   0  0  0  0  0  0  0  0  0  0  0  0
   -2.8980   18.1270  -33.1890 N   0  0  0  0  0  0  0  0  0  0  0  0
   -1.7630   17.6030  -33.8990 C   0  0  0  0  0  0  0  0  0  0  0  0
   -1.5570   16.2130  -33.9750 C   0  0  0  0  0  0  0  0  0  0  0  0
   -0.4600   15.6940  -34.6660 C   0  0  0  0  0  0  0  0  0  0  0  0
    0.4450   16.5550  -35.2870 C   0  0  0  0  0  0  0  0  0  0  0  0
    0.2500   17.9360  -35.2260 C   0  0  0  0  0  0  0  0  0  0  0  0
   -0.8580   18.4680  -34.5510 C   0  0  0  0  0  0  0  0  0  0  0  0
   -1.0470   20.2570  -34.4740 S   0  0  0  0  0  0  0  0  0  0  0  0
   -1.2330   20.2800  -32.6880 C   0  0  0  0  0  0  0  0  0  0  0  0
   -0.2640   19.6750  -31.8790 C   0  0  0  0  0  0  0  0  0  0  0  0
   -0.3910   19.7050  -30.4870 C   0  0  0  0  0  0  0  0  0  0  0  0
   -1.4910   20.3390  -29.8950 C   0  0  0  0  0  0  0  0  0  0  0  0
   -1.6230   20.4300  -28.1370 S   0  0  0  0  0  0  0  0  0  0  0  0
   -0.5510   19.5780  -27.5150 O   0  0  0  0  0  0  0  0  0  0  0  0
   -2.9570   19.8820  -27.7130 O   0  0  0  0  0  0  0  0  0  0  0  0
   -1.4600   22.0740  -27.5580 N   0  0  0  0  0  0  0  0  0  0  0  0
   -0.6450   22.8800  -28.4740 C   0  0  0  0  0  0  0  0  0  0  0  0
   -1.5790   23.6650  -29.3810 C   0  0  0  0  0  0  0  0  0  0  0  0
   -2.9360   23.6220  -28.7080 C   0  0  0  0  0  0  0  0  0  0  0  0
   -2.7660   22.7380  -27.4790 C   0  0  0  0  0  0  0  0  0  0  0  0
   -2.4780   20.9150  -30.7070 C   0  0  0  0  0  0  0  0  0  0  0  0
   -2.3490   20.8850  -32.0990 C   0  0  0  0  0  0  0  0  0  0  0  0
   -5.2730   18.9880  -33.1510 C   0  0  0  0  0  0  0  0  0  0  0  0
   -5.2670   19.3160  -31.7840 C   0  0  0  0  0  0  0  0  0  0  0  0
   -6.2330   20.1820  -31.2620 C   0  0  0  0  0  0  0  0  0  0  0  0
   -7.2250   20.7190  -32.0940 C   0  0  0  0  0  0  0  0  0  0  0  0
   -8.4210   21.8440  -31.4400 S   0  0  0  0  0  0  0  0  0  0  0  0
   -8.8840   21.3510  -30.0960 O   0  0  0  0  0  0  0  0  0  0  0  0
   -9.6140   21.8830  -32.3540 O   0  0  0  0  0  0  0  0  0  0  0  0
   -7.7620   23.4550  -31.2610 N   0  0  0  0  0  0  0  0  0  0  0  0
   -7.1220   23.6080  -29.9400 C   0  0  0  0  0  0  0  0  0  0  0  0
   -6.1360   24.7890  -29.9520 C   0  0  0  0  0  0  0  0  0  0  0  0
   -5.0760   24.6510  -30.8930 O   0  0  0  0  0  0  0  0  0  0  0  0
   -5.3810   23.7810  -31.9750 C   0  0  0  0  0  0  0  0  0  0  0  0
   -6.8660   23.8130  -32.3840 C   0  0  0  0  0  0  0  0  0  0  0  0
   -7.2550   20.3670  -33.4510 C   0  0  0  0  0  0  0  0  0  0  0  0
   -6.2790   19.5160  -33.9790 C   0  0  0  0  0  0  0  0  0  0  0  0
   -2.7590   18.5010  -32.2250 H   0  0  0  0  0  0  0  0  0  0  0  0
   -2.2663   15.5292  -33.4858 H   0  0  0  0  0  0  0  0  0  0  0  0
   -0.3095   14.6057  -34.7206 H   0  0  0  0  0  0  0  0  0  0  0  0
    1.3127   16.1456  -35.8250 H   0  0  0  0  0  0  0  0  0  0  0  0
    0.9704   18.6114  -35.7107 H   0  0  0  0  0  0  0  0  0  0  0  0
    0.6002   19.1743  -32.3400 H   0  0  0  0  0  0  0  0  0  0  0  0
    0.3742   19.2299  -29.8555 H   0  0  0  0  0  0  0  0  0  0  0  0
   -0.0154   23.5744  -27.8983 H   0  0  0  0  0  0  0  0  0  0  0  0
    0.0062   22.2279  -29.0746 H   0  0  0  0  0  0  0  0  0  0  0  0
   -1.2330   24.7044  -29.4806 H   0  0  0  0  0  0  0  0  0  0  0  0
   -1.6146   23.2383  -30.3942 H   0  0  0  0  0  0  0  0  0  0  0  0
   -3.2477   24.6342  -28.4109 H   0  0  0  0  0  0  0  0  0  0  0  0
   -3.7093   23.2285  -29.3841 H   0  0  0  0  0  0  0  0  0  0  0  0
   -2.8140   23.3546  -26.5693 H   0  0  0  0  0  0  0  0  0  0  0  0
   -3.5684   21.9865  -27.4423 H   0  0  0  0  0  0  0  0  0  0  0  0
   -3.3564   21.3919  -30.2478 H   0  0  0  0  0  0  0  0  0  0  0  0
   -3.1262   21.3378  -32.7322 H   0  0  0  0  0  0  0  0  0  0  0  0
   -4.4990   18.8895  -31.1220 H   0  0  0  0  0  0  0  0  0  0  0  0
   -6.2143   20.4430  -30.1936 H   0  0  0  0  0  0  0  0  0  0  0  0
   -7.8971   23.7914  -29.1814 H   0  0  0  0  0  0  0  0  0  0  0  0
   -6.5701   22.6864  -29.7034 H   0  0  0  0  0  0  0  0  0  0  0  0
   -6.6960   25.7043  -30.1941 H   0  0  0  0  0  0  0  0  0  0  0  0
   -5.6727   24.8260  -28.9550 H   0  0  0  0  0  0  0  0  0  0  0  0
   -4.7736   24.0773  -32.8429 H   0  0  0  0  0  0  0  0  0  0  0  0
   -5.1572   22.7568  -31.6420 H   0  0  0  0  0  0  0  0  0  0  0  0
   -7.1171   24.8271  -32.7284 H   0  0  0  0  0  0  0  0  0  0  0  0
   -7.0127   23.0717  -33.1833 H   0  0  0  0  0  0  0  0  0  0  0  0
   -8.0488   20.7615  -34.1023 H   0  0  0  0  0  0  0  0  0  0  0  0
   -6.2985   19.2583  -35.0482 H   0  0  0  0  0  0  0  0  0  0  0  0
  1  2  2  0
  2  3  1  0
  3  4  1  0
  4  5  2  0
  5  6  1  0
  6  7  2  0
  7  8  1  0
  8  9  2  0
  9 10  1  0
 10 11  1  0
 11 12  2  0
 12 13  1  0
 13 14  2  0
 14 15  1  0
 15 16  2  0
 15 17  2  0
 15 18  1  0
 18 19  1  0
 19 20  1  0
 20 21  1  0
 21 22  1  0
 14 23  1  0
 23 24  2  0
  2 25  1  0
 25 26  2  0
 26 27  1  0
 27 28  2  0
 28 29  1  0
 29 30  2  0
 29 31  2  0
 29 32  1  0
 32 33  1  0
 33 34  1  0
 34 35  1  0
 35 36  1  0
 36 37  1  0
 28 38  1  0
 38 39  2  0
  9  4  1  0
 24 11  1  0
 39 25  1  0
 22 18  1  0
 37 32  1  0
  3 40  1  0
  5 41  1  0
  6 42  1  0
  7 43  1  0
  8 44  1  0
 12 45  1  0
 13 46  1  0
 19 47  1  0
 19 48  1  0
 20 49  1  0
 20 50  1  0
 21 51  1  0
 21 52  1  0
 22 53  1  0
 22 54  1  0
 23 55  1  0
 24 56  1  0
 26 57  1  0
 27 58  1  0
 33 59  1  0
 33 60  1  0
 34 61  1  0
 34 62  1  0
 36 63  1  0
 36 64  1  0
 37 65  1  0
 37 66  1  0
 38 67  1  0
 39 68  1  0
M  END
>  <UniqueID>  (11) 
11

>  <SMILES>  (11) 
O=C(Nc1ccccc1Sc1ccc(S(=O)(=O)N2CCCC2)cc1)c1ccc(S(=O)(=O)N2CCOCC2)cc1

>  <Energy>  (11) 
86.15953507716294

>  <Genealogy>  (11) 
O=C(Nc1ccccc1Sc1ccc(S(=O)(=O)N2CCCC2)cc1)c1ccc(S(=O)(=O)N2CCOCC2)cc1 (3D coordinates assigned)
O=C(Nc1ccccc1Sc1ccc(S(=O)(=O)N2CCCC2)cc1)c1ccc(S(=O)(=O)N2CCOCC2)cc1 (nonaromatic ring conformer: 86.15953507716294 kcal/mol)

>  <smiles>  (11) 
O=C(Nc1ccccc1Sc1ccc(S(=O)(=O)N2CCCC2)cc1)c1ccc(S(=O)(=O)N2CCOCC2)cc1

>  <score_type>  (11) 
oracle

>  <origin>  (11) 
adgpu

>  <m_score__min__energy>  (11) 
-10.69

>  <m_primary>  (11) 
energy

$$$$
11:0
     RDKit          3D

 57 61  0  0  0  0  0  0  0  0999 V2000
   -2.2080   24.8190  -28.7230 C   0  0  0  0  0  0  0  0  0  0  0  0
   -3.1100   25.2990  -29.7130 O   0  0  0  0  0  0  0  0  0  0  0  0
   -4.2550   24.6120  -30.1410 C   0  0  0  0  0  0  0  0  0  0  0  0
   -4.0880   23.4320  -30.8740 C   0  0  0  0  0  0  0  0  0  0  0  0
   -5.1980   22.7090  -31.3220 C   0  0  0  0  0  0  0  0  0  0  0  0
   -6.4970   23.1510  -31.0290 C   0  0  0  0  0  0  0  0  0  0  0  0
   -7.6810   22.4120  -31.5110 C   0  0  0  0  0  0  0  0  0  0  0  0
   -8.8790   22.9980  -31.7460 N   0  0  0  0  0  0  0  0  0  0  0  0
   -9.7110   22.0540  -32.1780 N   0  0  0  0  0  0  0  0  0  0  0  0
   -9.0040   20.9100  -32.1920 C   0  0  0  0  0  0  0  0  0  0  0  0
   -9.4750   19.6480  -32.5460 C   0  0  0  0  0  0  0  0  0  0  0  0
   -8.5820   18.5710  -32.4400 C   0  0  0  0  0  0  0  0  0  0  0  0
   -7.2660   18.7790  -31.9740 C   0  0  0  0  0  0  0  0  0  0  0  0
   -6.1350   17.3960  -31.8120 S   0  0  0  0  0  0  0  0  0  0  0  0
   -5.5410   17.5240  -33.5300 C   0  0  0  0  0  0  0  0  0  0  0  0
   -4.2740   18.3270  -33.5620 C   0  0  0  0  0  0  0  0  0  0  0  0
   -3.0270   17.6830  -33.5830 C   0  0  0  0  0  0  0  0  0  0  0  0
   -1.8470   18.4320  -33.5770 C   0  0  0  0  0  0  0  0  0  0  0  0
   -1.8990   19.8320  -33.5410 C   0  0  0  0  0  0  0  0  0  0  0  0
   -0.4020   20.7590  -33.5140 S   0  0  0  0  0  0  0  0  0  0  0  0
    0.7170   19.8700  -33.9830 O   0  0  0  0  0  0  0  0  0  0  0  0
   -0.5060   21.9340  -34.4460 O   0  0  0  0  0  0  0  0  0  0  0  0
   -0.0770   21.3060  -31.8820 N   0  0  0  0  0  0  0  0  0  0  0  0
    0.3620   20.1870  -31.0400 C   0  0  0  0  0  0  0  0  0  0  0  0
   -0.8610   19.6150  -30.3380 C   0  0  0  0  0  0  0  0  0  0  0  0
   -1.9440   20.6660  -30.4830 C   0  0  0  0  0  0  0  0  0  0  0  0
   -1.3040   21.8090  -31.2570 C   0  0  0  0  0  0  0  0  0  0  0  0
   -3.1420   20.4770  -33.5020 C   0  0  0  0  0  0  0  0  0  0  0  0
   -4.3240   19.7290  -33.5070 C   0  0  0  0  0  0  0  0  0  0  0  0
   -6.8510   20.0760  -31.6320 C   0  0  0  0  0  0  0  0  0  0  0  0
   -7.7420   21.0920  -31.7800 N   0  0  0  0  0  0  0  0  0  0  0  0
   -6.6680   24.3460  -30.3120 C   0  0  0  0  0  0  0  0  0  0  0  0
   -5.5580   25.0690  -29.8630 C   0  0  0  0  0  0  0  0  0  0  0  0
   -2.6126   25.0343  -27.7230 H   0  0  0  0  0  0  0  0  0  0  0  0
   -2.0789   23.7329  -28.8403 H   0  0  0  0  0  0  0  0  0  0  0  0
   -1.2351   25.3187  -28.8403 H   0  0  0  0  0  0  0  0  0  0  0  0
   -3.0743   23.0697  -31.1000 H   0  0  0  0  0  0  0  0  0  0  0  0
   -5.0520   21.7890  -31.9071 H   0  0  0  0  0  0  0  0  0  0  0  0
  -10.5077   19.5012  -32.8954 H   0  0  0  0  0  0  0  0  0  0  0  0
   -8.9092   17.5592  -32.7215 H   0  0  0  0  0  0  0  0  0  0  0  0
   -5.3469   16.5167  -33.9270 H   0  0  0  0  0  0  0  0  0  0  0  0
   -6.3053   18.0198  -34.1465 H   0  0  0  0  0  0  0  0  0  0  0  0
   -2.9782   16.5843  -33.6043 H   0  0  0  0  0  0  0  0  0  0  0  0
   -0.8735   17.9205  -33.6006 H   0  0  0  0  0  0  0  0  0  0  0  0
    0.8300   19.4118  -31.6645 H   0  0  0  0  0  0  0  0  0  0  0  0
    1.0988   20.5331  -30.3002 H   0  0  0  0  0  0  0  0  0  0  0  0
   -1.1727   18.6743  -30.8154 H   0  0  0  0  0  0  0  0  0  0  0  0
   -0.6543   19.3870  -29.2819 H   0  0  0  0  0  0  0  0  0  0  0  0
   -2.8019   20.2592  -31.0384 H   0  0  0  0  0  0  0  0  0  0  0  0
   -2.3223   20.9983  -29.5050 H   0  0  0  0  0  0  0  0  0  0  0  0
   -1.9969   22.1682  -32.0322 H   0  0  0  0  0  0  0  0  0  0  0  0
   -1.0717   22.6443  -30.5800 H   0  0  0  0  0  0  0  0  0  0  0  0
   -3.1887   21.5755  -33.4673 H   0  0  0  0  0  0  0  0  0  0  0  0
   -5.2966   20.2413  -33.4677 H   0  0  0  0  0  0  0  0  0  0  0  0
   -5.8348   20.2645  -31.2554 H   0  0  0  0  0  0  0  0  0  0  0  0
   -7.6823   24.7163  -30.1019 H   0  0  0  0  0  0  0  0  0  0  0  0
   -5.7031   25.9973  -29.2910 H   0  0  0  0  0  0  0  0  0  0  0  0
  1  2  1  0
  2  3  1  0
  3  4  2  0
  4  5  1  0
  5  6  2  0
  6  7  1  0
  7  8  2  0
  8  9  1  0
  9 10  2  0
 10 11  1  0
 11 12  2  0
 12 13  1  0
 13 14  1  0
 14 15  1  0
 15 16  1  0
 16 17  2  0
 17 18  1  0
 18 19  2  0
 19 20  1  0
 20 21  2  0
 20 22  2  0
 20 23  1  0
 23 24  1  0
 24 25  1  0
 25 26  1  0
 26 27  1  0
 19 28  1  0
 28 29  2  0
 13 30  2  0
 30 31  1  0
  6 32  1  0
 32 33  2  0
 33  3  1  0
 31  7  1  0
 31 10  1  0
 29 16  1  0
 27 23  1  0
  1 34  1  0
  1 35  1  0
  1 36  1  0
  4 37  1  0
  5 38  1  0
 11 39  1  0
 12 40  1  0
 15 41  1  0
 15 42  1  0
 17 43  1  0
 18 44  1  0
 24 45  1  0
 24 46  1  0
 25 47  1  0
 25 48  1  0
 26 49  1  0
 26 50  1  0
 27 51  1  0
 27 52  1  0
 28 53  1  0
 29 54  1  0
 30 55  1  0
 32 56  1  0
 33 57  1  0
M  END
>  <UniqueID>  (12) 
12

>  <SMILES>  (12) 
COc1ccc(-c2nnc3ccc(SCc4ccc(S(=O)(=O)N5CCCC5)cc4)cn23)cc1

>  <Energy>  (12) 
103.48828488859255

>  <Genealogy>  (12) 
COc1ccc(-c2nnc3ccc(SCc4ccc(S(=O)(=O)N5CCCC5)cc4)cn23)cc1 (3D coordinates assigned)
COc1ccc(-c2nnc3ccc(SCc4ccc(S(=O)(=O)N5CCCC5)cc4)cn23)cc1 (nonaromatic ring conformer: 103.48828488859255 kcal/mol)

>  <smiles>  (12) 
COc1ccc(-c2nnc3ccc(SCc4ccc(S(=O)(=O)N5CCCC5)cc4)cn23)cc1

>  <score_type>  (12) 
oracle

>  <origin>  (12) 
adgpu

>  <m_score__min__energy>  (12) 
-11.130000000000001

>  <m_primary>  (12) 
energy

$$$$
12:0
     RDKit          3D

 64 68  0  0  0  0  0  0  0  0999 V2000
    0.3890   23.8720  -28.9560 O   0  0  0  0  0  0  0  0  0  0  0  0
   -0.7940   22.9500  -29.0490 S   0  0  0  0  0  0  0  0  0  0  0  0
   -0.9100   22.1860  -27.7600 O   0  0  0  0  0  0  0  0  0  0  0  0
   -2.2310   23.8890  -29.2840 N   0  0  0  0  0  0  0  0  0  0  0  0
   -3.3370   23.4030  -30.0470 C   0  0  0  0  0  0  0  0  0  0  0  0
   -3.6190   22.0310  -30.0970 C   0  0  0  0  0  0  0  0  0  0  0  0
   -4.7210   21.5570  -30.8240 C   0  0  0  0  0  0  0  0  0  0  0  0
   -5.5220   22.4670  -31.5430 C   0  0  0  0  0  0  0  0  0  0  0  0
   -5.2280   23.8380  -31.4970 C   0  0  0  0  0  0  0  0  0  0  0  0
   -4.1380   24.3030  -30.7580 C   0  0  0  0  0  0  0  0  0  0  0  0
   -3.8660   25.6650  -30.7190 O   0  0  0  0  0  0  0  0  0  0  0  0
   -6.7510   21.9940  -32.2790 C   0  0  0  0  0  0  0  0  0  0  0  0
   -6.6500   20.5790  -32.6900 N   0  0  0  0  0  0  0  0  0  0  0  0
   -5.7270   20.3920  -33.8330 C   0  0  0  0  0  0  0  0  0  0  0  0
   -5.2580   18.9630  -33.9090 C   0  0  0  0  0  0  0  0  0  0  0  0
   -3.9440   18.6310  -33.5350 C   0  0  0  0  0  0  0  0  0  0  0  0
   -3.4950   17.3120  -33.6370 C   0  0  0  0  0  0  0  0  0  0  0  0
   -4.3500   16.3150  -34.1170 C   0  0  0  0  0  0  0  0  0  0  0  0
   -5.6560   16.6390  -34.4980 C   0  0  0  0  0  0  0  0  0  0  0  0
   -6.1120   17.9560  -34.3940 C   0  0  0  0  0  0  0  0  0  0  0  0
   -6.3370   19.7230  -31.5240 C   0  0  0  0  0  0  0  0  0  0  0  0
   -4.9850   20.0710  -30.8750 C   0  0  0  0  0  0  0  0  0  0  0  0
   -0.5440   21.8230  -30.3800 C   0  0  0  0  0  0  0  0  0  0  0  0
    0.2580   20.6890  -30.2010 C   0  0  0  0  0  0  0  0  0  0  0  0
    0.4530   19.7960  -31.2570 C   0  0  0  0  0  0  0  0  0  0  0  0
   -0.1500   20.0290  -32.5030 C   0  0  0  0  0  0  0  0  0  0  0  0
    0.0550   18.8740  -33.8200 S   0  0  0  0  0  0  0  0  0  0  0  0
    0.4070   17.5340  -33.2370 O   0  0  0  0  0  0  0  0  0  0  0  0
   -1.2500   18.7260  -34.5520 O   0  0  0  0  0  0  0  0  0  0  0  0
    1.2950   19.3630  -34.9580 N   0  0  0  0  0  0  0  0  0  0  0  0
    0.7320   19.8920  -36.2140 C   0  0  0  0  0  0  0  0  0  0  0  0
    0.3160   21.3800  -36.1120 C   0  0  0  0  0  0  0  0  0  0  0  0
    0.7650   22.0100  -34.9290 O   0  0  0  0  0  0  0  0  0  0  0  0
    2.1280   21.7240  -34.7260 C   0  0  0  0  0  0  0  0  0  0  0  0
    2.3190   20.2430  -34.3560 C   0  0  0  0  0  0  0  0  0  0  0  0
   -0.9290   21.1780  -32.6890 C   0  0  0  0  0  0  0  0  0  0  0  0
   -1.1270   22.0690  -31.6300 C   0  0  0  0  0  0  0  0  0  0  0  0
   -2.9714   21.3207  -29.5622 H   0  0  0  0  0  0  0  0  0  0  0  0
   -5.8600   24.5512  -32.0465 H   0  0  0  0  0  0  0  0  0  0  0  0
   -7.6240   22.1092  -31.6198 H   0  0  0  0  0  0  0  0  0  0  0  0
   -6.8517   22.6021  -33.1901 H   0  0  0  0  0  0  0  0  0  0  0  0
   -6.2498   20.6507  -34.7656 H   0  0  0  0  0  0  0  0  0  0  0  0
   -4.8527   21.0446  -33.6925 H   0  0  0  0  0  0  0  0  0  0  0  0
   -3.2668   19.4128  -33.1606 H   0  0  0  0  0  0  0  0  0  0  0  0
   -2.4672   17.0573  -33.3392 H   0  0  0  0  0  0  0  0  0  0  0  0
   -3.9956   15.2766  -34.1948 H   0  0  0  0  0  0  0  0  0  0  0  0
   -6.3262   15.8551  -34.8806 H   0  0  0  0  0  0  0  0  0  0  0  0
   -7.1410   18.2056  -34.6921 H   0  0  0  0  0  0  0  0  0  0  0  0
   -7.1304   19.8487  -30.7725 H   0  0  0  0  0  0  0  0  0  0  0  0
   -6.2753   18.6847  -31.8821 H   0  0  0  0  0  0  0  0  0  0  0  0
   -4.9777   19.6781  -29.8476 H   0  0  0  0  0  0  0  0  0  0  0  0
   -4.1964   19.6174  -31.4933 H   0  0  0  0  0  0  0  0  0  0  0  0
    0.7349   20.5014  -29.2277 H   0  0  0  0  0  0  0  0  0  0  0  0
    1.0823   18.9056  -31.1116 H   0  0  0  0  0  0  0  0  0  0  0  0
    1.4888   19.7933  -37.0062 H   0  0  0  0  0  0  0  0  0  0  0  0
   -0.1753   19.3116  -36.4377 H   0  0  0  0  0  0  0  0  0  0  0  0
    0.7353   21.9189  -36.9744 H   0  0  0  0  0  0  0  0  0  0  0  0
   -0.7835   21.4088  -36.0973 H   0  0  0  0  0  0  0  0  0  0  0  0
    2.6848   21.9410  -35.6495 H   0  0  0  0  0  0  0  0  0  0  0  0
    2.5032   22.3478  -33.9013 H   0  0  0  0  0  0  0  0  0  0  0  0
    3.3101   19.9188  -34.7060 H   0  0  0  0  0  0  0  0  0  0  0  0
    2.2238   20.1608  -33.2632 H   0  0  0  0  0  0  0  0  0  0  0  0
   -1.3855   21.3796  -33.6693 H   0  0  0  0  0  0  0  0  0  0  0  0
   -1.7436   22.9677  -31.7789 H   0  0  0  0  0  0  0  0  0  0  0  0
  1  2  2  0
  2  3  2  0
  2  4  1  0
  4  5  1  0
  5  6  2  0
  6  7  1  0
  7  8  2  0
  8  9  1  0
  9 10  2  0
 10 11  1  0
  8 12  1  0
 12 13  1  0
 13 14  1  0
 14 15  1  0
 15 16  2  0
 16 17  1  0
 17 18  2  0
 18 19  1  0
 19 20  2  0
 13 21  1  0
 21 22  1  0
  2 23  1  0
 23 24  2  0
 24 25  1  0
 25 26  2  0
 26 27  1  0
 27 28  2  0
 27 29  2  0
 27 30  1  0
 30 31  1  0
 31 32  1  0
 32 33  1  0
 33 34  1  0
 34 35  1  0
 26 36  1  0
 36 37  2  0
 10  5  1  0
 20 15  1  0
 37 23  1  0
 22  7  1  0
 35 30  1  0
  6 38  1  0
  9 39  1  0
 12 40  1  0
 12 41  1  0
 14 42  1  0
 14 43  1  0
 16 44  1  0
 17 45  1  0
 18 46  1  0
 19 47  1  0
 20 48  1  0
 21 49  1  0
 21 50  1  0
 22 51  1  0
 22 52  1  0
 24 53  1  0
 25 54  1  0
 31 55  1  0
 31 56  1  0
 32 57  1  0
 32 58  1  0
 34 59  1  0
 34 60  1  0
 35 61  1  0
 35 62  1  0
 36 63  1  0
 37 64  1  0
M  CHG  2   4  -1  11  -1
M  END
>  <UniqueID>  (13) 
13

>  <SMILES>  (13) 
O=S(=O)([N-]c1cc2c(cc1[O-])CN(Cc1ccccc1)CC2)c1ccc(S(=O)(=O)N2CCOCC2)cc1

>  <Energy>  (13) 
93.6115258466344

>  <Genealogy>  (13) 
O=S(=O)([N-]c1cc2c(cc1[O-])CN(Cc1ccccc1)CC2)c1ccc(S(=O)(=O)N2CCOCC2)cc1 (protonated)
O=S(=O)([N-]c1cc2c(cc1[O-])CN(Cc1ccccc1)CC2)c1ccc(S(=O)(=O)N2CCOCC2)cc1 (3D coordinates assigned)
O=S(=O)([N-]c1cc2c(cc1[O-])CN(Cc1ccccc1)CC2)c1ccc(S(=O)(=O)N2CCOCC2)cc1 (nonaromatic ring conformer: 93.6115258466344 kcal/mol)

>  <smiles>  (13) 
O=S(=O)(Nc1cc2c(cc1O)CN(Cc1ccccc1)CC2)c1ccc(S(=O)(=O)N2CCOCC2)cc1

>  <score_type>  (13) 
oracle

>  <origin>  (13) 
adgpu

>  <m_score__min__energy>  (13) 
-14.02

>  <m_primary>  (13) 
energy

$$$$
13:0
     RDKit          3D

 42 45  0  0  0  0  0  0  0  0999 V2000
   -0.1080   22.0670  -29.7550 O   0  0  0  0  0  0  0  0  0  0  0  0
   -0.9650   22.0180  -30.6780 C   0  0  0  0  0  0  0  0  0  0  0  0
   -2.1850   22.5820  -30.4830 N   0  0  0  0  0  0  0  0  0  0  0  0
   -3.1500   22.5590  -31.4430 C   0  0  0  0  0  0  0  0  0  0  0  0
   -4.4800   23.1890  -31.2050 C   0  0  0  0  0  0  0  0  0  0  0  0
   -5.6540   22.4480  -31.4550 C   0  0  0  0  0  0  0  0  0  0  0  0
   -6.9190   23.0110  -31.2420 C   0  0  0  0  0  0  0  0  0  0  0  0
   -8.3820   22.0710  -31.5380 S   0  0  0  0  0  0  0  0  0  0  0  0
   -8.8950   21.5610  -30.2210 O   0  0  0  0  0  0  0  0  0  0  0  0
   -9.4390   22.9450  -32.1560 O   0  0  0  0  0  0  0  0  0  0  0  0
   -8.0170   20.7230  -32.5930 N   0  0  0  0  0  0  0  0  0  0  0  0
   -6.9780   19.8640  -32.0110 C   0  0  0  0  0  0  0  0  0  0  0  0
   -7.6760   18.7500  -31.2440 C   0  0  0  0  0  0  0  0  0  0  0  0
   -9.1120   18.7490  -31.7380 C   0  0  0  0  0  0  0  0  0  0  0  0
   -9.1890   19.8590  -32.7770 C   0  0  0  0  0  0  0  0  0  0  0  0
   -7.0250   24.3210  -30.7690 C   0  0  0  0  0  0  0  0  0  0  0  0
   -5.8750   25.0690  -30.5170 C   0  0  0  0  0  0  0  0  0  0  0  0
   -4.6080   24.5170  -30.7290 C   0  0  0  0  0  0  0  0  0  0  0  0
   -3.4920   25.2990  -30.4530 O   0  0  0  0  0  0  0  0  0  0  0  0
   -2.8860   21.9560  -32.6340 N   0  0  0  0  0  0  0  0  0  0  0  0
   -1.6850   21.3750  -32.8860 C   0  0  0  0  0  0  0  0  0  0  0  0
   -1.4470   20.7620  -34.1220 C   0  0  0  0  0  0  0  0  0  0  0  0
   -0.2100   20.1640  -34.3790 C   0  0  0  0  0  0  0  0  0  0  0  0
    0.7950   20.1760  -33.4050 C   0  0  0  0  0  0  0  0  0  0  0  0
    2.4820   19.3570  -33.7660 Br  0  0  0  0  0  0  0  0  0  0  0  0
    0.5640   20.7860  -32.1660 C   0  0  0  0  0  0  0  0  0  0  0  0
   -0.6770   21.3900  -31.9000 C   0  0  0  0  0  0  0  0  0  0  0  0
   -5.5751   21.4141  -31.8222 H   0  0  0  0  0  0  0  0  0  0  0  0
   -7.6980   21.1030  -33.5160 H   0  0  0  0  0  0  0  0  0  0  0  0
   -6.3550   19.4356  -32.8099 H   0  0  0  0  0  0  0  0  0  0  0  0
   -6.3280   20.4453  -31.3405 H   0  0  0  0  0  0  0  0  0  0  0  0
   -7.1976   17.7819  -31.4534 H   0  0  0  0  0  0  0  0  0  0  0  0
   -7.6205   18.9087  -30.1569 H   0  0  0  0  0  0  0  0  0  0  0  0
   -9.3606   17.7790  -32.1934 H   0  0  0  0  0  0  0  0  0  0  0  0
   -9.8250   18.9110  -30.9162 H   0  0  0  0  0  0  0  0  0  0  0  0
   -9.1810   19.4268  -33.7885 H   0  0  0  0  0  0  0  0  0  0  0  0
  -10.1171   20.4369  -32.6560 H   0  0  0  0  0  0  0  0  0  0  0  0
   -8.0170   24.7634  -30.5950 H   0  0  0  0  0  0  0  0  0  0  0  0
   -5.9656   26.1015  -30.1485 H   0  0  0  0  0  0  0  0  0  0  0  0
   -2.2335   20.7510  -34.8909 H   0  0  0  0  0  0  0  0  0  0  0  0
   -0.0257   19.6821  -35.3505 H   0  0  0  0  0  0  0  0  0  0  0  0
    1.3540   20.7925  -31.4006 H   0  0  0  0  0  0  0  0  0  0  0  0
  1  2  2  0
  2  3  1  0
  3  4  2  0
  4  5  1  0
  5  6  2  0
  6  7  1  0
  7  8  1  0
  8  9  2  0
  8 10  2  0
  8 11  1  0
 11 12  1  0
 12 13  1  0
 13 14  1  0
 14 15  1  0
  7 16  2  0
 16 17  1  0
 17 18  2  0
 18 19  1  0
  4 20  1  0
 20 21  1  0
 21 22  2  0
 22 23  1  0
 23 24  2  0
 24 25  1  0
 24 26  1  0
 26 27  2  0
 27  2  1  0
 18  5  1  0
 27 21  1  0
 15 11  1  0
  6 28  1  0
 11 29  1  0
 12 30  1  0
 12 31  1  0
 13 32  1  0
 13 33  1  0
 14 34  1  0
 14 35  1  0
 15 36  1  0
 15 37  1  0
 16 38  1  0
 17 39  1  0
 22 40  1  0
 23 41  1  0
 26 42  1  0
M  CHG  3  11   1  19  -1  20  -1
M  END
>  <UniqueID>  (14) 
14

>  <SMILES>  (14) 
O=c1nc(-c2cc(S(=O)(=O)[NH+]3CCCC3)ccc2[O-])[n-]c2ccc(Br)cc12

>  <Energy>  (14) 
54.75158553880775

>  <Genealogy>  (14) 
O=c1nc(-c2cc(S(=O)(=O)[NH+]3CCCC3)ccc2[O-])[n-]c2ccc(Br)cc12 (protonated)
O=c1nc(-c2cc(S(=O)(=O)[NH+]3CCCC3)ccc2[O-])[n-]c2ccc(Br)cc12 (3D coordinates assigned)
O=c1nc(-c2cc(S(=O)(=O)[NH+]3CCCC3)ccc2[O-])[n-]c2ccc(Br)cc12 (nonaromatic ring conformer: 54.75158553880775 kcal/mol)

>  <smiles>  (14) 
O=c1nc(-c2cc(S(=O)(=O)N3CCCC3)ccc2O)[nH]c2ccc(Br)cc12

>  <score_type>  (14) 
oracle

>  <origin>  (14) 
adgpu

>  <m_score__min__energy>  (14) 
-12.18

>  <m_primary>  (14) 
energy

$$$$
14:0
     RDKit          3D

 34 36  0  0  0  0  0  0  0  0999 V2000
   -4.9900   23.1670  -28.3420 N   0  0  0  0  0  0  0  0  0  0  0  0
   -3.6450   23.6110  -28.1280 C   0  0  0  0  0  0  0  0  0  0  0  0
   -2.8670   22.9950  -27.1360 C   0  0  0  0  0  0  0  0  0  0  0  0
   -1.5540   23.4090  -26.9090 C   0  0  0  0  0  0  0  0  0  0  0  0
   -1.0090   24.4500  -27.6610 C   0  0  0  0  0  0  0  0  0  0  0  0
   -1.7720   25.0790  -28.6500 C   0  0  0  0  0  0  0  0  0  0  0  0
   -1.2240   26.1560  -29.3380 O   0  0  0  0  0  0  0  0  0  0  0  0
   -3.0880   24.6420  -28.9140 C   0  0  0  0  0  0  0  0  0  0  0  0
   -3.8930   25.2730  -29.9220 N   0  0  0  0  0  0  0  0  0  0  0  0
   -5.0180   24.6780  -30.5770 C   0  0  0  0  0  0  0  0  0  0  0  0
   -6.1410   25.2520  -30.5690 O   0  0  0  0  0  0  0  0  0  0  0  0
   -4.8470   23.4150  -31.3050 C   0  0  0  0  0  0  0  0  0  0  0  0
   -5.8130   22.4500  -31.5000 C   0  0  0  0  0  0  0  0  0  0  0  0
   -5.1620   21.4670  -32.2230 C   0  0  0  0  0  0  0  0  0  0  0  0
   -5.7190   20.1700  -32.6790 C   0  0  0  0  0  0  0  0  0  0  0  0
   -6.9910   19.7780  -32.2210 C   0  0  0  0  0  0  0  0  0  0  0  0
   -7.5560   18.5690  -32.6350 C   0  0  0  0  0  0  0  0  0  0  0  0
   -6.8590   17.7320  -33.5060 C   0  0  0  0  0  0  0  0  0  0  0  0
   -5.5900   18.0970  -33.9570 C   0  0  0  0  0  0  0  0  0  0  0  0
   -5.0080   19.3050  -33.5430 C   0  0  0  0  0  0  0  0  0  0  0  0
   -3.7210   19.6270  -33.9730 O   0  0  0  0  0  0  0  0  0  0  0  0
   -3.8820   21.8370  -32.4250 N   0  0  0  0  0  0  0  0  0  0  0  0
   -3.6910   23.0240  -31.8700 N   0  0  0  0  0  0  0  0  0  0  0  0
   -5.2630   22.1660  -28.2220 H   0  0  0  0  0  0  0  0  0  0  0  0
   -5.7340   23.8430  -28.6260 H   0  0  0  0  0  0  0  0  0  0  0  0
   -3.2950   22.1804  -26.5333 H   0  0  0  0  0  0  0  0  0  0  0  0
   -0.9478   22.9139  -26.1361 H   0  0  0  0  0  0  0  0  0  0  0  0
    0.0246   24.7773  -27.4754 H   0  0  0  0  0  0  0  0  0  0  0  0
   -6.8589   22.4599  -31.1594 H   0  0  0  0  0  0  0  0  0  0  0  0
   -7.5458   20.4300  -31.5303 H   0  0  0  0  0  0  0  0  0  0  0  0
   -8.5528   18.2767  -32.2731 H   0  0  0  0  0  0  0  0  0  0  0  0
   -7.3094   16.7847  -33.8372 H   0  0  0  0  0  0  0  0  0  0  0  0
   -5.0420   17.4332  -34.6419 H   0  0  0  0  0  0  0  0  0  0  0  0
   -3.2680   20.4910  -33.6970 H   0  0  0  0  0  0  0  0  0  0  0  0
  1  2  1  0
  2  3  2  0
  3  4  1  0
  4  5  2  0
  5  6  1  0
  6  7  1  0
  6  8  2  0
  8  9  1  0
  9 10  1  0
 10 11  2  0
 10 12  1  0
 12 13  1  0
 13 14  2  0
 14 15  1  0
 15 16  2  0
 16 17  1  0
 17 18  2  0
 18 19  1  0
 19 20  2  0
 20 21  1  0
 14 22  1  0
 22 23  1  0
  8  2  1  0
 23 12  2  0
 20 15  1  0
  1 24  1  0
  1 25  1  0
  3 26  1  0
  4 27  1  0
  5 28  1  0
 13 29  1  0
 16 30  1  0
 17 31  1  0
 18 32  1  0
 19 33  1  0
 21 34  1  0
M  CHG  3   7  -1   9  -1  22  -1
M  END
>  <UniqueID>  (15) 
15

>  <SMILES>  (15) 
Nc1cccc([O-])c1[N-]C(=O)c1cc(-c2ccccc2O)[n-]n1

>  <Energy>  (15) 
74.65641499148747

>  <Genealogy>  (15) 
Nc1cccc([O-])c1[N-]C(=O)c1cc(-c2ccccc2O)[n-]n1 (protonated)
Nc1cccc([O-])c1[N-]C(=O)c1cc(-c2ccccc2O)[n-]n1 (3D coordinates assigned)
Nc1cccc([O-])c1[N-]C(=O)c1cc(-c2ccccc2O)[n-]n1 (optimized conformer: 74.65641499148747 kcal/mol)

>  <smiles>  (15) 
Nc1cccc(O)c1NC(=O)c1cc(-c2ccccc2O)[nH]n1

>  <score_type>  (15) 
oracle

>  <origin>  (15) 
adgpu

>  <m_score__min__energy>  (15) 
-12.15

>  <m_primary>  (15) 
energy

$$$$
15:0
     RDKit          3D

 72 77  0  0  0  0  0  0  0  0999 V2000
   -2.4280   19.2530  -25.6130 C   0  0  0  0  0  0  0  0  0  0  0  0
   -2.0580   19.4940  -27.0170 N   0  0  0  0  0  0  0  0  0  0  0  0
   -1.9800   20.9470  -27.2880 C   0  0  0  0  0  0  0  0  0  0  0  0
   -1.1900   21.2870  -28.5730 C   0  0  0  0  0  0  0  0  0  0  0  0
   -0.9980   20.1100  -29.4260 N   0  0  0  0  0  0  0  0  0  0  0  0
   -1.0930   20.2540  -30.8480 C   0  0  0  0  0  0  0  0  0  0  0  0
   -0.0330   19.8800  -31.6100 N   0  0  0  0  0  0  0  0  0  0  0  0
   -0.0730   19.9390  -32.9620 C   0  0  0  0  0  0  0  0  0  0  0  0
    1.3640   19.3980  -33.9040 S   0  0  0  0  0  0  0  0  0  0  0  0
    1.5970   20.9210  -34.8260 C   0  0  0  0  0  0  0  0  0  0  0  0
    2.8720   21.4800  -34.9640 C   0  0  0  0  0  0  0  0  0  0  0  0
    3.0370   22.6800  -35.6640 C   0  0  0  0  0  0  0  0  0  0  0  0
    1.9350   23.3190  -36.2500 C   0  0  0  0  0  0  0  0  0  0  0  0
    2.1380   24.5660  -36.9300 N   0  0  0  0  0  0  0  0  0  0  0  0
    1.1210   25.3720  -37.5450 C   0  0  0  0  0  0  0  0  0  0  0  0
    0.9730   25.3600  -38.7970 O   0  0  0  0  0  0  0  0  0  0  0  0
    0.2480   26.2820  -36.7280 C   0  0  0  0  0  0  0  0  0  0  0  0
   -1.1550   26.4810  -37.2820 C   0  0  0  0  0  0  0  0  0  0  0  0
   -0.1410   27.6120  -37.3590 C   0  0  0  0  0  0  0  0  0  0  0  0
    0.6540   22.7570  -36.0970 C   0  0  0  0  0  0  0  0  0  0  0  0
    0.4900   21.5610  -35.3940 C   0  0  0  0  0  0  0  0  0  0  0  0
   -1.1970   20.3830  -33.5800 N   0  0  0  0  0  0  0  0  0  0  0  0
   -2.2890   20.7840  -32.8800 C   0  0  0  0  0  0  0  0  0  0  0  0
   -2.2740   20.7240  -31.4680 C   0  0  0  0  0  0  0  0  0  0  0  0
   -3.4740   21.1700  -30.6570 C   0  0  0  0  0  0  0  0  0  0  0  0
   -4.6920   20.2780  -30.9270 C   0  0  0  0  0  0  0  0  0  0  0  0
   -5.3540   20.6670  -32.1760 N   0  0  0  0  0  0  0  0  0  0  0  0
   -6.7550   20.9760  -32.1510 C   0  0  0  0  0  0  0  0  0  0  0  0
   -7.6480   20.0190  -32.5240 N   0  0  0  0  0  0  0  0  0  0  0  0
   -8.9890   20.2310  -32.4950 C   0  0  0  0  0  0  0  0  0  0  0  0
   -9.4920   21.4560  -32.0610 C   0  0  0  0  0  0  0  0  0  0  0  0
   -8.6050   22.4620  -31.6750 C   0  0  0  0  0  0  0  0  0  0  0  0
   -7.2150   22.2460  -31.7320 C   0  0  0  0  0  0  0  0  0  0  0  0
   -6.2530   23.3320  -31.2980 C   0  0  0  0  0  0  0  0  0  0  0  0
   -5.7020   22.9970  -30.0760 F   0  0  0  0  0  0  0  0  0  0  0  0
   -6.8950   24.5520  -31.1750 F   0  0  0  0  0  0  0  0  0  0  0  0
   -5.2400   23.4780  -32.2290 F   0  0  0  0  0  0  0  0  0  0  0  0
   -4.7050   20.4120  -33.4660 C   0  0  0  0  0  0  0  0  0  0  0  0
   -3.4730   21.3080  -33.6490 C   0  0  0  0  0  0  0  0  0  0  0  0
   -0.6170   18.8150  -28.8590 C   0  0  0  0  0  0  0  0  0  0  0  0
   -0.7900   18.8190  -27.3410 C   0  0  0  0  0  0  0  0  0  0  0  0
   -1.6912   19.7329  -24.9521 H   0  0  0  0  0  0  0  0  0  0  0  0
   -3.4249   19.6756  -25.4188 H   0  0  0  0  0  0  0  0  0  0  0  0
   -2.4445   18.1704  -25.4188 H   0  0  0  0  0  0  0  0  0  0  0  0
   -3.0027   21.3382  -27.3929 H   0  0  0  0  0  0  0  0  0  0  0  0
   -1.4450   21.4079  -26.4446 H   0  0  0  0  0  0  0  0  0  0  0  0
   -1.7442   22.0498  -29.1395 H   0  0  0  0  0  0  0  0  0  0  0  0
   -0.1978   21.6565  -28.2747 H   0  0  0  0  0  0  0  0  0  0  0  0
    3.7444   20.9762  -34.5223 H   0  0  0  0  0  0  0  0  0  0  0  0
    4.0386   23.1255  -35.7554 H   0  0  0  0  0  0  0  0  0  0  0  0
    0.6842   25.9905  -35.7612 H   0  0  0  0  0  0  0  0  0  0  0  0
   -1.4640   25.9562  -38.1981 H   0  0  0  0  0  0  0  0  0  0  0  0
   -2.1726   26.3754  -36.8780 H   0  0  0  0  0  0  0  0  0  0  0  0
    0.2835   27.9049  -38.3306 H   0  0  0  0  0  0  0  0  0  0  0  0
   -0.1213   28.6626  -37.0337 H   0  0  0  0  0  0  0  0  0  0  0  0
   -0.2213   23.2612  -36.5325 H   0  0  0  0  0  0  0  0  0  0  0  0
   -0.5125   21.1211  -35.2867 H   0  0  0  0  0  0  0  0  0  0  0  0
   -3.2226   21.1189  -29.5873 H   0  0  0  0  0  0  0  0  0  0  0  0
   -3.7267   22.2001  -30.9487 H   0  0  0  0  0  0  0  0  0  0  0  0
   -4.3628   19.2313  -31.0039 H   0  0  0  0  0  0  0  0  0  0  0  0
   -5.4056   20.3943  -30.0980 H   0  0  0  0  0  0  0  0  0  0  0  0
   -9.6784   19.4355  -32.8142 H   0  0  0  0  0  0  0  0  0  0  0  0
  -10.5777   21.6284  -32.0230 H   0  0  0  0  0  0  0  0  0  0  0  0
   -8.9942   23.4292  -31.3242 H   0  0  0  0  0  0  0  0  0  0  0  0
   -4.3928   19.3581  -33.5094 H   0  0  0  0  0  0  0  0  0  0  0  0
   -5.4227   20.6351  -34.2692 H   0  0  0  0  0  0  0  0  0  0  0  0
   -3.2157   21.3476  -34.7177 H   0  0  0  0  0  0  0  0  0  0  0  0
   -3.7160   22.3104  -33.2667 H   0  0  0  0  0  0  0  0  0  0  0  0
   -1.2531   18.0295  -29.2930 H   0  0  0  0  0  0  0  0  0  0  0  0
    0.4402   18.6229  -29.0943 H   0  0  0  0  0  0  0  0  0  0  0  0
   -0.8143   17.7846  -26.9676 H   0  0  0  0  0  0  0  0  0  0  0  0
    0.0502   19.3478  -26.8673 H   0  0  0  0  0  0  0  0  0  0  0  0
  1  2  1  0
  2  3  1  0
  3  4  1  0
  4  5  1  0
  5  6  1  0
  6  7  2  0
  7  8  1  0
  8  9  1  0
  9 10  1  0
 10 11  2  0
 11 12  1  0
 12 13  2  0
 13 14  1  0
 14 15  1  0
 15 16  2  0
 15 17  1  0
 17 18  1  0
 18 19  1  0
 13 20  1  0
 20 21  2  0
  8 22  2  0
 22 23  1  0
 23 24  2  0
 24 25  1  0
 25 26  1  0
 26 27  1  0
 27 28  1  0
 28 29  2  0
 29 30  1  0
 30 31  2  0
 31 32  1  0
 32 33  2  0
 33 34  1  0
 34 35  1  0
 34 36  1  0
 34 37  1  0
 27 38  1  0
 38 39  1  0
  5 40  1  0
 40 41  1  0
 41  2  1  0
 24  6  1  0
 33 28  1  0
 21 10  1  0
 39 23  1  0
 19 17  1  0
  1 42  1  0
  1 43  1  0
  1 44  1  0
  3 45  1  0
  3 46  1  0
  4 47  1  0
  4 48  1  0
 11 49  1  0
 12 50  1  0
 17 51  1  0
 18 52  1  0
 18 53  1  0
 19 54  1  0
 19 55  1  0
 20 56  1  0
 21 57  1  0
 25 58  1  0
 25 59  1  0
 26 60  1  0
 26 61  1  0
 30 62  1  0
 31 63  1  0
 32 64  1  0
 38 65  1  0
 38 66  1  0
 39 67  1  0
 39 68  1  0
 40 69  1  0
 40 70  1  0
 41 71  1  0
 41 72  1  0
M  CHG  1  14  -1
M  END
>  <UniqueID>  (16) 
16

>  <SMILES>  (16) 
CN1CCN(c2nc(Sc3ccc([N-]C(=O)C4CC4)cc3)nc3c2CCN(c2ncccc2C(F)(F)F)CC3)CC1

>  <Energy>  (16) 
371.10002330174893

>  <Genealogy>  (16) 
CN1CCN(c2nc(Sc3ccc([N-]C(=O)C4CC4)cc3)nc3c2CCN(c2ncccc2C(F)(F)F)CC3)CC1 (protonated)
CN1CCN(c2nc(Sc3ccc([N-]C(=O)C4CC4)cc3)nc3c2CCN(c2ncccc2C(F)(F)F)CC3)CC1 (3D coordinates assigned)
CN1CCN(c2nc(Sc3ccc([N-]C(=O)C4CC4)cc3)nc3c2CCN(c2ncccc2C(F)(F)F)CC3)CC1 (nonaromatic ring conformer: 371.10002330174893 kcal/mol)

>  <smiles>  (16) 
CN1CCN(c2nc(Sc3ccc(NC(=O)C4CC4)cc3)nc3c2CCN(c2ncccc2C(F)(F)F)CC3)CC1

>  <score_type>  (16) 
oracle

>  <origin>  (16) 
adgpu

>  <m_score__min__energy>  (16) 
-8.6799999999999997

>  <m_primary>  (16) 
energy

$$$$
16:0
     RDKit          3D

 47 50  0  0  0  0  0  0  0  0999 V2000
   -2.0150   23.4640  -30.3410 O   0  0  0  0  0  0  0  0  0  0  0  0
   -3.0180   22.8750  -30.8300 C   0  0  0  0  0  0  0  0  0  0  0  0
   -4.3760   23.3360  -30.4690 C   0  0  0  0  0  0  0  0  0  0  0  0
   -5.3610   22.3960  -30.1170 C   0  0  0  0  0  0  0  0  0  0  0  0
   -6.6530   22.8150  -29.7860 C   0  0  0  0  0  0  0  0  0  0  0  0
   -6.9750   24.1730  -29.8090 C   0  0  0  0  0  0  0  0  0  0  0  0
   -6.0080   25.1160  -30.1670 C   0  0  0  0  0  0  0  0  0  0  0  0
   -4.7120   24.7040  -30.4990 C   0  0  0  0  0  0  0  0  0  0  0  0
   -3.7630   25.6640  -30.8370 O   0  0  0  0  0  0  0  0  0  0  0  0
   -2.8190   21.7880  -31.7540 N   0  0  0  0  0  0  0  0  0  0  0  0
   -3.5730   21.7730  -33.0130 C   0  0  0  0  0  0  0  0  0  0  0  0
   -4.7410   20.8490  -32.8860 C   0  0  0  0  0  0  0  0  0  0  0  0
   -4.5830   19.5160  -33.1050 N   0  0  0  0  0  0  0  0  0  0  0  0
   -5.6370   18.6610  -33.0550 C   0  0  0  0  0  0  0  0  0  0  0  0
   -5.4430   17.4310  -33.2570 O   0  0  0  0  0  0  0  0  0  0  0  0
   -6.9230   19.1550  -32.7820 C   0  0  0  0  0  0  0  0  0  0  0  0
   -8.0560   18.3240  -32.7170 C   0  0  0  0  0  0  0  0  0  0  0  0
   -9.3130   18.8740  -32.4450 C   0  0  0  0  0  0  0  0  0  0  0  0
   -9.4500   20.2500  -32.2420 C   0  0  0  0  0  0  0  0  0  0  0  0
   -8.3300   21.0850  -32.3070 C   0  0  0  0  0  0  0  0  0  0  0  0
   -7.0660   20.5440  -32.5730 C   0  0  0  0  0  0  0  0  0  0  0  0
   -5.9780   21.3530  -32.6330 N   0  0  0  0  0  0  0  0  0  0  0  0
   -1.8160   20.7490  -31.4740 C   0  0  0  0  0  0  0  0  0  0  0  0
   -1.1720   20.2910  -32.7570 C   0  0  0  0  0  0  0  0  0  0  0  0
   -0.2170   21.1160  -33.3780 C   0  0  0  0  0  0  0  0  0  0  0  0
    0.4250   20.6990  -34.5450 C   0  0  0  0  0  0  0  0  0  0  0  0
    0.1280   19.4550  -35.1030 C   0  0  0  0  0  0  0  0  0  0  0  0
   -0.8130   18.6220  -34.4930 C   0  0  0  0  0  0  0  0  0  0  0  0
   -1.4660   19.0310  -33.3210 C   0  0  0  0  0  0  0  0  0  0  0  0
   -2.4030   18.1910  -32.7190 O   0  0  0  0  0  0  0  0  0  0  0  0
   -5.1133   21.3244  -30.1020 H   0  0  0  0  0  0  0  0  0  0  0  0
   -7.4165   22.0739  -29.5072 H   0  0  0  0  0  0  0  0  0  0  0  0
   -7.9912   24.5012  -29.5450 H   0  0  0  0  0  0  0  0  0  0  0  0
   -6.2659   26.1851  -30.1880 H   0  0  0  0  0  0  0  0  0  0  0  0
   -3.9319   22.7884  -33.2370 H   0  0  0  0  0  0  0  0  0  0  0  0
   -2.9191   21.4261  -33.8267 H   0  0  0  0  0  0  0  0  0  0  0  0
   -7.9535   17.2410  -32.8802 H   0  0  0  0  0  0  0  0  0  0  0  0
  -10.1967   18.2213  -32.3907 H   0  0  0  0  0  0  0  0  0  0  0  0
  -10.4413   20.6773  -32.0306 H   0  0  0  0  0  0  0  0  0  0  0  0
   -8.4420   22.1678  -32.1490 H   0  0  0  0  0  0  0  0  0  0  0  0
   -1.0443   21.1590  -30.8059 H   0  0  0  0  0  0  0  0  0  0  0  0
   -2.3104   19.8918  -30.9936 H   0  0  0  0  0  0  0  0  0  0  0  0
    0.0254   22.0960  -32.9412 H   0  0  0  0  0  0  0  0  0  0  0  0
    1.1672   21.3529  -35.0262 H   0  0  0  0  0  0  0  0  0  0  0  0
    0.6350   19.1302  -36.0235 H   0  0  0  0  0  0  0  0  0  0  0  0
   -1.0429   17.6408  -34.9339 H   0  0  0  0  0  0  0  0  0  0  0  0
   -3.3920   18.2610  -32.9290 H   0  0  0  0  0  0  0  0  0  0  0  0
  1  2  2  0
  2  3  1  0
  3  4  2  0
  4  5  1  0
  5  6  2  0
  6  7  1  0
  7  8  2  0
  8  9  1  0
  2 10  1  0
 10 11  1  0
 11 12  1  0
 12 13  2  0
 13 14  1  0
 14 15  2  0
 14 16  1  0
 16 17  2  0
 17 18  1  0
 18 19  2  0
 19 20  1  0
 20 21  2  0
 21 22  1  0
 10 23  1  0
 23 24  1  0
 24 25  2  0
 25 26  1  0
 26 27  2  0
 27 28  1  0
 28 29  2  0
 29 30  1  0
  8  3  1  0
 22 12  1  0
 29 24  1  0
 21 16  1  0
  4 31  1  0
  5 32  1  0
  6 33  1  0
  7 34  1  0
 11 35  1  0
 11 36  1  0
 17 37  1  0
 18 38  1  0
 19 39  1  0
 20 40  1  0
 23 41  1  0
 23 42  1  0
 25 43  1  0
 26 44  1  0
 27 45  1  0
 28 46  1  0
 30 47  1  0
M  CHG  2   9  -1  22  -1
M  END
>  <UniqueID>  (17) 
17

>  <SMILES>  (17) 
O=C(c1ccccc1[O-])N(Cc1nc(=O)c2ccccc2[n-]1)Cc1ccccc1O

>  <Energy>  (17) 
58.3223864205302

>  <Genealogy>  (17) 
O=C(c1ccccc1[O-])N(Cc1nc(=O)c2ccccc2[n-]1)Cc1ccccc1O (protonated)
O=C(c1ccccc1[O-])N(Cc1nc(=O)c2ccccc2[n-]1)Cc1ccccc1O (3D coordinates assigned)
O=C(c1ccccc1[O-])N(Cc1nc(=O)c2ccccc2[n-]1)Cc1ccccc1O (optimized conformer: 58.3223864205302 kcal/mol)

>  <smiles>  (17) 
O=C(c1ccccc1O)N(Cc1nc(=O)c2ccccc2[nH]1)Cc1ccccc1O

>  <score_type>  (17) 
oracle

>  <origin>  (17) 
adgpu

>  <m_score__min__energy>  (17) 
-12.85

>  <m_primary>  (17) 
energy

$$$$
17:0
     RDKit          3D

 51 55  0  0  0  0  0  0  0  0999 V2000
   -9.4560   21.8820  -31.2770 C   0  0  0  0  0  0  0  0  0  0  0  0
   -8.0740   21.5520  -31.7550 C   0  0  0  0  0  0  0  0  0  0  0  0
   -7.0240   22.4900  -31.5840 C   0  0  0  0  0  0  0  0  0  0  0  0
   -5.7110   22.1950  -32.0200 C   0  0  0  0  0  0  0  0  0  0  0  0
   -4.6380   23.1400  -31.9110 N   0  0  0  0  0  0  0  0  0  0  0  0
   -4.2600   24.0340  -30.4730 S   0  0  0  0  0  0  0  0  0  0  0  0
   -4.0690   25.4910  -30.7930 O   0  0  0  0  0  0  0  0  0  0  0  0
   -5.4040   23.9080  -29.5050 O   0  0  0  0  0  0  0  0  0  0  0  0
   -2.8080   23.3580  -29.7400 C   0  0  0  0  0  0  0  0  0  0  0  0
   -1.8980   22.6360  -30.5230 C   0  0  0  0  0  0  0  0  0  0  0  0
   -0.7160   22.1480  -29.9590 C   0  0  0  0  0  0  0  0  0  0  0  0
   -0.4290   22.3960  -28.6150 C   0  0  0  0  0  0  0  0  0  0  0  0
   -1.3300   23.1250  -27.8240 C   0  0  0  0  0  0  0  0  0  0  0  0
   -1.0060   23.4470  -26.4590 N   0  0  0  0  0  0  0  0  0  0  0  0
   -0.8520   22.3800  -25.5010 C   0  0  0  0  0  0  0  0  0  0  0  0
   -1.0820   21.1810  -25.8270 O   0  0  0  0  0  0  0  0  0  0  0  0
   -0.3700   22.6860  -24.1140 C   0  0  0  0  0  0  0  0  0  0  0  0
   -0.7800   23.9920  -23.7100 O   0  0  0  0  0  0  0  0  0  0  0  0
   -0.8540   25.0630  -24.6070 C   0  0  0  0  0  0  0  0  0  0  0  0
   -0.8630   26.3750  -24.1210 C   0  0  0  0  0  0  0  0  0  0  0  0
   -0.9020   27.4520  -25.0100 C   0  0  0  0  0  0  0  0  0  0  0  0
   -0.9390   27.2190  -26.3890 C   0  0  0  0  0  0  0  0  0  0  0  0
   -0.9540   25.9100  -26.8820 C   0  0  0  0  0  0  0  0  0  0  0  0
   -0.9320   24.8160  -25.9930 C   0  0  0  0  0  0  0  0  0  0  0  0
   -2.5230   23.5950  -28.3890 C   0  0  0  0  0  0  0  0  0  0  0  0
   -5.4880   20.9280  -32.5700 C   0  0  0  0  0  0  0  0  0  0  0  0
   -4.3670   20.3170  -33.1100 C   0  0  0  0  0  0  0  0  0  0  0  0
   -2.6080   21.0420  -33.2680 Br  0  0  0  0  0  0  0  0  0  0  0  0
   -4.7130   19.0870  -33.5590 N   0  0  0  0  0  0  0  0  0  0  0  0
   -6.0040   18.9030  -33.3050 N   0  0  0  0  0  0  0  0  0  0  0  0
   -6.7480   17.7180  -33.7140 C   0  0  0  0  0  0  0  0  0  0  0  0
   -6.4950   20.0140  -32.7190 C   0  0  0  0  0  0  0  0  0  0  0  0
   -7.8060   20.2890  -32.3260 C   0  0  0  0  0  0  0  0  0  0  0  0
   -9.4724   21.8859  -30.1771 H   0  0  0  0  0  0  0  0  0  0  0  0
   -9.7462   22.8747  -31.6516 H   0  0  0  0  0  0  0  0  0  0  0  0
  -10.1634   21.1275  -31.6516 H   0  0  0  0  0  0  0  0  0  0  0  0
   -7.2332   23.4586  -31.1065 H   0  0  0  0  0  0  0  0  0  0  0  0
   -2.1146   22.4525  -31.5857 H   0  0  0  0  0  0  0  0  0  0  0  0
   -0.0117   21.5685  -30.5739 H   0  0  0  0  0  0  0  0  0  0  0  0
    0.5060   22.0188  -28.1752 H   0  0  0  0  0  0  0  0  0  0  0  0
   -0.7872   21.9453  -23.4159 H   0  0  0  0  0  0  0  0  0  0  0  0
    0.7292   22.6441  -24.1062 H   0  0  0  0  0  0  0  0  0  0  0  0
   -0.8393   26.5589  -23.0367 H   0  0  0  0  0  0  0  0  0  0  0  0
   -0.9036   28.4828  -24.6259 H   0  0  0  0  0  0  0  0  0  0  0  0
   -0.9564   28.0681  -27.0880 H   0  0  0  0  0  0  0  0  0  0  0  0
   -0.9831   25.7336  -27.9674 H   0  0  0  0  0  0  0  0  0  0  0  0
   -3.2396   24.1530  -27.7684 H   0  0  0  0  0  0  0  0  0  0  0  0
   -7.0899   17.1735  -32.8214 H   0  0  0  0  0  0  0  0  0  0  0  0
   -7.6184   18.0207  -34.3146 H   0  0  0  0  0  0  0  0  0  0  0  0
   -6.0971   17.0656  -34.3146 H   0  0  0  0  0  0  0  0  0  0  0  0
   -8.6053   19.5448  -32.4572 H   0  0  0  0  0  0  0  0  0  0  0  0
  1  2  1  0
  2  3  2  0
  3  4  1  0
  4  5  1  0
  5  6  1  0
  6  7  2  0
  6  8  2  0
  6  9  1  0
  9 10  2  0
 10 11  1  0
 11 12  2  0
 12 13  1  0
 13 14  1  0
 14 15  1  0
 15 16  2  0
 15 17  1  0
 17 18  1  0
 18 19  1  0
 19 20  2  0
 20 21  1  0
 21 22  2  0
 22 23  1  0
 23 24  2  0
 13 25  2  0
  4 26  2  0
 26 27  1  0
 27 28  1  0
 27 29  2  0
 29 30  1  0
 30 31  1  0
 30 32  1  0
 32 33  2  0
 33  2  1  0
 25  9  1  0
 32 26  1  0
 24 14  1  0
 24 19  1  0
  1 34  1  0
  1 35  1  0
  1 36  1  0
  3 37  1  0
 10 38  1  0
 11 39  1  0
 12 40  1  0
 17 41  1  0
 17 42  1  0
 20 43  1  0
 21 44  1  0
 22 45  1  0
 23 46  1  0
 25 47  1  0
 31 48  1  0
 31 49  1  0
 31 50  1  0
 33 51  1  0
M  CHG  1   5  -1
M  END
>  <UniqueID>  (18) 
18

>  <SMILES>  (18) 
Cc1cc([N-]S(=O)(=O)c2cccc(N3C(=O)COc4ccccc43)c2)c2c(Br)nn(C)c2c1

>  <Energy>  (18) 
108.3075676078728

>  <Genealogy>  (18) 
Cc1cc([N-]S(=O)(=O)c2cccc(N3C(=O)COc4ccccc43)c2)c2c(Br)nn(C)c2c1 (protonated)
Cc1cc([N-]S(=O)(=O)c2cccc(N3C(=O)COc4ccccc43)c2)c2c(Br)nn(C)c2c1 (3D coordinates assigned)
Cc1cc([N-]S(=O)(=O)c2cccc(N3C(=O)COc4ccccc43)c2)c2c(Br)nn(C)c2c1 (nonaromatic ring conformer: 108.3075676078728 kcal/mol)

>  <smiles>  (18) 
Cc1cc(NS(=O)(=O)c2cccc(N3C(=O)COc4ccccc43)c2)c2c(Br)nn(C)c2c1

>  <score_type>  (18) 
oracle

>  <origin>  (18) 
adgpu

>  <m_score__min__energy>  (18) 
-11.48

>  <m_primary>  (18) 
energy

$$$$
18:0
     RDKit          3D

 61 64  0  0  0  0  0  0  0  0999 V2000
   -5.7190   17.8960  -35.0110 C   0  0  0  0  0  0  0  0  0  0  0  0
   -4.4670   18.3550  -34.3210 C   0  0  0  0  0  0  0  0  0  0  0  0
   -4.3860   19.6530  -33.8050 C   0  0  0  0  0  0  0  0  0  0  0  0
   -3.2350   20.0780  -33.1340 C   0  0  0  0  0  0  0  0  0  0  0  0
   -2.1430   19.2030  -32.9490 C   0  0  0  0  0  0  0  0  0  0  0  0
   -0.8690   19.6430  -32.2270 C   0  0  2  0  0  0  0  0  0  0  0  0
    0.0870   20.4000  -33.1610 C   0  0  0  0  0  0  0  0  0  0  0  0
   -0.1520   18.5080  -31.6350 N   0  0  0  0  0  0  0  0  0  0  0  0
   -0.1050   18.6890  -30.2270 C   0  0  0  0  0  0  0  0  0  0  0  0
    0.4970   17.9040  -29.4490 O   0  0  0  0  0  0  0  0  0  0  0  0
   -0.7730   19.8620  -29.7990 N   0  0  0  0  0  0  0  0  0  0  0  0
   -0.6400   20.5120  -28.4950 C   0  0  0  0  0  0  0  0  0  0  0  0
   -1.8270   20.2380  -27.6210 C   0  0  0  0  0  0  0  0  0  0  0  0
   -1.9530   19.1210  -27.0480 O   0  0  0  0  0  0  0  0  0  0  0  0
   -2.8120   21.2660  -27.4510 N   0  0  0  0  0  0  0  0  0  0  0  0
   -3.0360   22.3960  -28.3080 C   0  0  0  0  0  0  0  0  0  0  0  0
   -2.4210   23.6400  -28.0830 C   0  0  0  0  0  0  0  0  0  0  0  0
   -2.6960   24.7210  -28.9240 C   0  0  0  0  0  0  0  0  0  0  0  0
   -3.5950   24.5820  -29.9850 C   0  0  0  0  0  0  0  0  0  0  0  0
   -3.8560   25.6800  -30.7960 O   0  0  0  0  0  0  0  0  0  0  0  0
   -4.2310   23.3470  -30.2100 C   0  0  0  0  0  0  0  0  0  0  0  0
   -5.4130   23.1320  -31.5080 S   0  0  0  0  0  0  0  0  0  0  0  0
   -6.0080   24.4550  -31.9030 O   0  0  0  0  0  0  0  0  0  0  0  0
   -4.7100   22.5550  -32.7050 O   0  0  0  0  0  0  0  0  0  0  0  0
   -6.6750   22.0380  -30.9930 N   0  0  0  0  0  0  0  0  0  0  0  0
   -8.0020   22.6520  -31.2200 C   0  0  0  0  0  0  0  0  0  0  0  0
   -9.1160   21.6010  -31.2000 C   0  0  0  0  0  0  0  0  0  0  0  0
   -8.9300   20.5790  -32.3340 C   0  0  0  0  0  0  0  0  0  0  0  0
   -7.4630   20.4410  -32.7760 C   0  0  0  0  0  0  0  0  0  0  0  0
   -6.5020   20.6960  -31.6060 C   0  0  0  0  0  0  0  0  0  0  0  0
   -3.9540   22.2670  -29.3580 C   0  0  0  0  0  0  0  0  0  0  0  0
   -1.2030   20.4740  -31.0100 C   0  0  0  0  0  0  0  0  0  0  0  0
   -1.7630   21.6030  -31.0450 O   0  0  0  0  0  0  0  0  0  0  0  0
   -2.2420   17.8970  -33.4690 C   0  0  0  0  0  0  0  0  0  0  0  0
   -3.3940   17.4750  -34.1370 C   0  0  0  0  0  0  0  0  0  0  0  0
   -6.4722   17.6199  -34.2584 H   0  0  0  0  0  0  0  0  0  0  0  0
   -6.1102   18.7092  -35.6401 H   0  0  0  0  0  0  0  0  0  0  0  0
   -5.4919   17.0227  -35.6401 H   0  0  0  0  0  0  0  0  0  0  0  0
   -5.2332   20.3437  -33.9279 H   0  0  0  0  0  0  0  0  0  0  0  0
   -3.1800   21.1058  -32.7460 H   0  0  0  0  0  0  0  0  0  0  0  0
    0.8096   20.9722  -32.5606 H   0  0  0  0  0  0  0  0  0  0  0  0
    0.6256   19.6808  -33.7956 H   0  0  0  0  0  0  0  0  0  0  0  0
   -0.4895   21.0891  -33.7956 H   0  0  0  0  0  0  0  0  0  0  0  0
    0.3440   17.7540  -32.1610 H   0  0  0  0  0  0  0  0  0  0  0  0
    0.2651   20.1335  -27.9976 H   0  0  0  0  0  0  0  0  0  0  0  0
   -0.5732   21.5981  -28.6559 H   0  0  0  0  0  0  0  0  0  0  0  0
   -1.7217   23.7624  -27.2428 H   0  0  0  0  0  0  0  0  0  0  0  0
   -2.2016   25.6881  -28.7500 H   0  0  0  0  0  0  0  0  0  0  0  0
   -8.1939   23.3918  -30.4288 H   0  0  0  0  0  0  0  0  0  0  0  0
   -7.9965   23.1312  -32.2101 H   0  0  0  0  0  0  0  0  0  0  0  0
   -9.0964   21.0744  -30.2344 H   0  0  0  0  0  0  0  0  0  0  0  0
  -10.0807   22.1101  -31.3419 H   0  0  0  0  0  0  0  0  0  0  0  0
   -9.2860   19.5983  -31.9854 H   0  0  0  0  0  0  0  0  0  0  0  0
   -9.5052   20.9369  -33.2006 H   0  0  0  0  0  0  0  0  0  0  0  0
   -7.2985   19.4233  -33.1597 H   0  0  0  0  0  0  0  0  0  0  0  0
   -7.2641   21.1884  -33.5582 H   0  0  0  0  0  0  0  0  0  0  0  0
   -6.6797   19.9328  -30.8341 H   0  0  0  0  0  0  0  0  0  0  0  0
   -5.4782   20.6468  -32.0052 H   0  0  0  0  0  0  0  0  0  0  0  0
   -4.4648   21.3059  -29.5169 H   0  0  0  0  0  0  0  0  0  0  0  0
   -1.4000   17.1998  -33.3471 H   0  0  0  0  0  0  0  0  0  0  0  0
   -3.4583   16.4460  -34.5204 H   0  0  0  0  0  0  0  0  0  0  0  0
  1  2  1  0
  2  3  2  0
  3  4  1  0
  4  5  2  0
  5  6  1  0
  6  7  1  6
  6  8  1  0
  8  9  1  0
  9 10  2  0
  9 11  1  0
 11 12  1  0
 12 13  1  0
 13 14  2  0
 13 15  1  0
 15 16  1  0
 16 17  2  0
 17 18  1  0
 18 19  2  0
 19 20  1  0
 19 21  1  0
 21 22  1  0
 22 23  2  0
 22 24  2  0
 22 25  1  0
 25 26  1  0
 26 27  1  0
 27 28  1  0
 28 29  1  0
 29 30  1  0
 21 31  2  0
 11 32  1  0
 32 33  2  0
  5 34  1  0
 34 35  2  0
 35  2  1  0
 32  6  1  0
 31 16  1  0
 30 25  1  0
  1 36  1  0
  1 37  1  0
  1 38  1  0
  3 39  1  0
  4 40  1  0
  7 41  1  0
  7 42  1  0
  7 43  1  0
  8 44  1  0
 12 45  1  0
 12 46  1  0
 17 47  1  0
 18 48  1  0
 26 49  1  0
 26 50  1  0
 27 51  1  0
 27 52  1  0
 28 53  1  0
 28 54  1  0
 29 55  1  0
 29 56  1  0
 30 57  1  0
 30 58  1  0
 31 59  1  0
 34 60  1  0
 35 61  1  0
M  CHG  2  15  -1  20  -1
M  END
>  <UniqueID>  (19) 
19

>  <SMILES>  (19) 
Cc1ccc([C@]2(C)NC(=O)N(CC(=O)[N-]c3ccc([O-])c(S(=O)(=O)N4CCCCC4)c3)C2=O)cc1

>  <Energy>  (19) 
91.87750520915189

>  <Genealogy>  (19) 
Cc1ccc(C2(C)NC(=O)N(CC(=O)[N-]c3ccc([O-])c(S(=O)(=O)N4CCCCC4)c3)C2=O)cc1 (protonated)
Cc1ccc([C@]2(C)NC(=O)N(CC(=O)[N-]c3ccc([O-])c(S(=O)(=O)N4CCCCC4)c3)C2=O)cc1 (chirality)
Cc1ccc([C@]2(C)NC(=O)N(CC(=O)[N-]c3ccc([O-])c(S(=O)(=O)N4CCCCC4)c3)C2=O)cc1 (3D coordinates assigned)
Cc1ccc([C@]2(C)NC(=O)N(CC(=O)[N-]c3ccc([O-])c(S(=O)(=O)N4CCCCC4)c3)C2=O)cc1 (nonaromatic ring conformer: 91.87750520915189 kcal/mol)

>  <smiles>  (19) 
Cc1ccc(C2(C)NC(=O)N(CC(=O)Nc3ccc(O)c(S(=O)(=O)N4CCCCC4)c3)C2=O)cc1

>  <score_type>  (19) 
oracle

>  <origin>  (19) 
adgpu

>  <m_score__min__energy>  (19) 
-13.65

>  <m_primary>  (19) 
energy

$$$$
19:0
     RDKit          3D

 63 66  0  0  0  0  0  0  0  0999 V2000
   -6.9580   22.6670  -29.9540 C   0  0  0  0  0  0  0  0  0  0  0  0
   -7.6740   22.3680  -31.2050 N   0  0  0  0  0  0  0  0  0  0  0  0
   -8.3090   21.0270  -31.2070 C   0  0  0  0  0  0  0  0  0  0  0  0
   -7.6600   20.0470  -32.2020 C   0  0  0  0  0  0  0  0  0  0  0  0
   -6.1990   20.1990  -32.1730 N   0  0  0  0  0  0  0  0  0  0  0  0
   -5.4240   18.9370  -33.1030 S   0  0  0  0  0  0  0  0  0  0  0  0
   -6.0080   18.9000  -34.4880 O   0  0  0  0  0  0  0  0  0  0  0  0
   -5.7050   17.6120  -32.4490 O   0  0  0  0  0  0  0  0  0  0  0  0
   -3.6750   19.1650  -33.2330 C   0  0  0  0  0  0  0  0  0  0  0  0
   -3.0330   20.1390  -32.4510 C   0  0  0  0  0  0  0  0  0  0  0  0
   -1.6660   20.3930  -32.6190 C   0  0  0  0  0  0  0  0  0  0  0  0
   -0.9360   19.7150  -33.6030 C   0  0  0  0  0  0  0  0  0  0  0  0
    0.4130   20.0470  -33.7870 O   0  0  0  0  0  0  0  0  0  0  0  0
    0.8330   21.1870  -34.4750 C   0  0  0  0  0  0  0  0  0  0  0  0
   -0.1170   22.0350  -35.0520 C   0  0  0  0  0  0  0  0  0  0  0  0
    0.2910   23.1720  -35.7560 C   0  0  0  0  0  0  0  0  0  0  0  0
    1.6550   23.4720  -35.8890 C   0  0  0  0  0  0  0  0  0  0  0  0
    2.1660   24.9150  -36.7710 S   0  0  0  0  0  0  0  0  0  0  0  0
    3.6480   24.8460  -37.0280 O   0  0  0  0  0  0  0  0  0  0  0  0
    1.4640   24.9500  -38.1040 O   0  0  0  0  0  0  0  0  0  0  0  0
    1.7770   26.3780  -35.8930 N   0  0  0  0  0  0  0  0  0  0  0  0
    0.4030   26.3140  -35.3450 C   0  0  0  0  0  0  0  0  0  0  0  0
   -0.1140   27.7080  -34.9700 C   0  0  0  0  0  0  0  0  0  0  0  0
   -0.2060   28.6230  -36.2110 C   0  0  0  0  0  0  0  0  0  0  0  0
   -1.5090   28.5690  -36.7330 O   0  0  0  0  0  0  0  0  0  0  0  0
    0.8140   28.2270  -37.3020 C   0  0  0  0  0  0  0  0  0  0  0  0
    2.0740   27.5920  -36.6920 C   0  0  0  0  0  0  0  0  0  0  0  0
    2.6060   22.6180  -35.3120 C   0  0  0  0  0  0  0  0  0  0  0  0
    2.1960   21.4900  -34.5930 C   0  0  0  0  0  0  0  0  0  0  0  0
   -1.5790   18.7300  -34.3790 C   0  0  0  0  0  0  0  0  0  0  0  0
   -2.9340   18.4520  -34.1850 C   0  0  0  0  0  0  0  0  0  0  0  0
   -5.7770   21.5400  -32.6510 C   0  0  0  0  0  0  0  0  0  0  0  0
   -6.8380   22.6390  -32.3950 C   0  0  0  0  0  0  0  0  0  0  0  0
   -7.5929   22.4019  -29.0958 H   0  0  0  0  0  0  0  0  0  0  0  0
   -6.0269   22.0825  -29.9157 H   0  0  0  0  0  0  0  0  0  0  0  0
   -6.7191   23.7401  -29.9157 H   0  0  0  0  0  0  0  0  0  0  0  0
   -8.2294   20.6015  -30.1957 H   0  0  0  0  0  0  0  0  0  0  0  0
   -9.3552   21.1625  -31.5187 H   0  0  0  0  0  0  0  0  0  0  0  0
   -7.9250   19.0162  -31.9241 H   0  0  0  0  0  0  0  0  0  0  0  0
   -8.0266   20.2648  -33.2160 H   0  0  0  0  0  0  0  0  0  0  0  0
   -5.8790   20.0720  -31.1830 H   0  0  0  0  0  0  0  0  0  0  0  0
   -3.6068   20.7053  -31.7027 H   0  0  0  0  0  0  0  0  0  0  0  0
   -1.1631   21.1290  -31.9745 H   0  0  0  0  0  0  0  0  0  0  0  0
   -1.1885   21.8070  -34.9518 H   0  0  0  0  0  0  0  0  0  0  0  0
   -0.4615   23.8349  -36.2080 H   0  0  0  0  0  0  0  0  0  0  0  0
   -0.2644   25.8762  -36.1019 H   0  0  0  0  0  0  0  0  0  0  0  0
    0.4208   25.6947  -34.4361 H   0  0  0  0  0  0  0  0  0  0  0  0
   -1.1135   27.6110  -34.5210 H   0  0  0  0  0  0  0  0  0  0  0  0
    0.5902   28.1599  -34.2559 H   0  0  0  0  0  0  0  0  0  0  0  0
    0.0343   29.6485  -35.8940 H   0  0  0  0  0  0  0  0  0  0  0  0
   -1.6110   29.3550  -37.3350 H   0  0  0  0  0  0  0  0  0  0  0  0
    0.3442   27.5038  -37.9849 H   0  0  0  0  0  0  0  0  0  0  0  0
    1.1133   29.1378  -37.8413 H   0  0  0  0  0  0  0  0  0  0  0  0
    2.7590   27.3170  -37.5076 H   0  0  0  0  0  0  0  0  0  0  0  0
    2.5230   28.3328  -36.0141 H   0  0  0  0  0  0  0  0  0  0  0  0
    3.6783   22.8358  -35.4251 H   0  0  0  0  0  0  0  0  0  0  0  0
    2.9456   20.8393  -34.1191 H   0  0  0  0  0  0  0  0  0  0  0  0
   -1.0108   18.1771  -35.1416 H   0  0  0  0  0  0  0  0  0  0  0  0
   -3.4224   17.6686  -34.7831 H   0  0  0  0  0  0  0  0  0  0  0  0
   -4.8495   21.8211  -32.1306 H   0  0  0  0  0  0  0  0  0  0  0  0
   -5.6341   21.4698  -33.7394 H   0  0  0  0  0  0  0  0  0  0  0  0
   -6.3207   23.5987  -32.2490 H   0  0  0  0  0  0  0  0  0  0  0  0
   -7.5060   22.6619  -33.2686 H   0  0  0  0  0  0  0  0  0  0  0  0
  1  2  1  0
  2  3  1  0
  3  4  1  0
  4  5  1  0
  5  6  1  0
  6  7  2  0
  6  8  2  0
  6  9  1  0
  9 10  2  0
 10 11  1  0
 11 12  2  0
 12 13  1  0
 13 14  1  0
 14 15  2  0
 15 16  1  0
 16 17  2  0
 17 18  1  0
 18 19  2  0
 18 20  2  0
 18 21  1  0
 21 22  1  0
 22 23  1  0
 23 24  1  0
 24 25  1  0
 24 26  1  0
 26 27  1  0
 17 28  1  0
 28 29  2  0
 12 30  1  0
 30 31  2  0
  5 32  1  0
 32 33  1  0
 33  2  1  0
 31  9  1  0
 29 14  1  0
 27 21  1  0
  1 34  1  0
  1 35  1  0
  1 36  1  0
  3 37  1  0
  3 38  1  0
  4 39  1  0
  4 40  1  0
  5 41  1  0
 10 42  1  0
 11 43  1  0
 15 44  1  0
 16 45  1  0
 22 46  1  0
 22 47  1  0
 23 48  1  0
 23 49  1  0
 24 50  1  0
 25 51  1  0
 26 52  1  0
 26 53  1  0
 27 54  1  0
 27 55  1  0
 28 56  1  0
 29 57  1  0
 30 58  1  0
 31 59  1  0
 32 60  1  0
 32 61  1  0
 33 62  1  0
 33 63  1  0
M  CHG  1   5   1
M  END
>  <UniqueID>  (20) 
20

>  <SMILES>  (20) 
CN1CC[NH+](S(=O)(=O)c2ccc(Oc3ccc(S(=O)(=O)N4CCC(O)CC4)cc3)cc2)CC1

>  <Energy>  (20) 
91.9162758281146

>  <Genealogy>  (20) 
CN1CC[NH+](S(=O)(=O)c2ccc(Oc3ccc(S(=O)(=O)N4CCC(O)CC4)cc3)cc2)CC1 (protonated)
CN1CC[NH+](S(=O)(=O)c2ccc(Oc3ccc(S(=O)(=O)N4CCC(O)CC4)cc3)cc2)CC1 (3D coordinates assigned)
CN1CC[NH+](S(=O)(=O)c2ccc(Oc3ccc(S(=O)(=O)N4CCC(O)CC4)cc3)cc2)CC1 (nonaromatic ring conformer: 91.9162758281146 kcal/mol)

>  <smiles>  (20) 
CN1CCN(S(=O)(=O)c2ccc(Oc3ccc(S(=O)(=O)N4CCC(O)CC4)cc3)cc2)CC1

>  <score_type>  (20) 
oracle

>  <origin>  (20) 
adgpu

>  <m_score__min__energy>  (20) 
-10.890000000000001

>  <m_primary>  (20) 
energy

$$$$
20:0
     RDKit          3D

 46 49  0  0  0  0  0  0  0  0999 V2000
   -2.8660   16.7660  -33.1370 C   0  0  0  0  0  0  0  0  0  0  0  0
   -4.2510   17.1550  -33.4370 N   0  0  0  0  0  0  0  0  0  0  0  0
   -4.3000   18.0740  -34.5810 C   0  0  0  0  0  0  0  0  0  0  0  0
   -5.7160   18.6570  -34.7250 C   0  0  0  0  0  0  0  0  0  0  0  0
   -6.7780   17.7670  -34.2040 N   0  0  0  0  0  0  0  0  0  0  0  0
   -7.3550   18.2370  -32.6170 S   0  0  0  0  0  0  0  0  0  0  0  0
   -8.8150   18.5850  -32.7110 O   0  0  0  0  0  0  0  0  0  0  0  0
   -7.2220   17.0730  -31.6740 O   0  0  0  0  0  0  0  0  0  0  0  0
   -6.4870   19.6220  -31.9550 C   0  0  0  0  0  0  0  0  0  0  0  0
   -7.1580   20.8280  -31.7190 C   0  0  0  0  0  0  0  0  0  0  0  0
   -6.4620   21.9430  -31.2460 C   0  0  0  0  0  0  0  0  0  0  0  0
   -5.0810   21.8650  -30.9930 C   0  0  0  0  0  0  0  0  0  0  0  0
   -4.3400   23.0480  -30.5070 C   0  0  0  0  0  0  0  0  0  0  0  0
   -4.2330   24.2030  -31.1950 N   0  0  0  0  0  0  0  0  0  0  0  0
   -3.5120   24.9760  -30.4420 O   0  0  0  0  0  0  0  0  0  0  0  0
   -3.1840   24.3430  -29.3420 C   0  0  0  0  0  0  0  0  0  0  0  0
   -2.3660   24.9240  -28.2600 C   0  0  0  0  0  0  0  0  0  0  0  0
   -1.1330   25.5340  -28.5410 C   0  0  0  0  0  0  0  0  0  0  0  0
   -0.3780   26.0760  -27.4970 C   0  0  0  0  0  0  0  0  0  0  0  0
   -0.8370   26.0120  -26.2200 N   0  0  0  0  0  0  0  0  0  0  0  0
   -2.0270   25.4290  -25.9170 C   0  0  0  0  0  0  0  0  0  0  0  0
   -2.8130   24.8740  -26.9310 C   0  0  0  0  0  0  0  0  0  0  0  0
   -3.6880   23.0930  -29.3260 N   0  0  0  0  0  0  0  0  0  0  0  0
   -4.4150   20.6480  -31.2130 C   0  0  0  0  0  0  0  0  0  0  0  0
   -5.1140   19.5340  -31.6860 C   0  0  0  0  0  0  0  0  0  0  0  0
   -6.4550   16.3310  -34.3010 C   0  0  0  0  0  0  0  0  0  0  0  0
   -5.0780   15.9640  -33.7010 C   0  0  0  0  0  0  0  0  0  0  0  0
   -2.7243   16.7262  -32.0469 H   0  0  0  0  0  0  0  0  0  0  0  0
   -2.6614   15.7756  -33.5698 H   0  0  0  0  0  0  0  0  0  0  0  0
   -2.1756   17.5050  -33.5698 H   0  0  0  0  0  0  0  0  0  0  0  0
   -3.5830   18.8929  -34.4218 H   0  0  0  0  0  0  0  0  0  0  0  0
   -4.0400   17.5246  -35.4978 H   0  0  0  0  0  0  0  0  0  0  0  0
   -5.7582   19.6084  -34.1745 H   0  0  0  0  0  0  0  0  0  0  0  0
   -5.9035   18.7882  -35.8009 H   0  0  0  0  0  0  0  0  0  0  0  0
   -8.2395   20.8979  -31.9071 H   0  0  0  0  0  0  0  0  0  0  0  0
   -6.9975   22.8877  -31.0704 H   0  0  0  0  0  0  0  0  0  0  0  0
   -0.7636   25.5850  -29.5759 H   0  0  0  0  0  0  0  0  0  0  0  0
    0.5891   26.5550  -27.7097 H   0  0  0  0  0  0  0  0  0  0  0  0
   -2.3717   25.3939  -24.8730 H   0  0  0  0  0  0  0  0  0  0  0  0
   -3.7760   24.4010  -26.6885 H   0  0  0  0  0  0  0  0  0  0  0  0
   -3.3363   20.5712  -31.0117 H   0  0  0  0  0  0  0  0  0  0  0  0
   -4.5843   18.5837  -31.8480 H   0  0  0  0  0  0  0  0  0  0  0  0
   -7.2301   15.7633  -33.7653 H   0  0  0  0  0  0  0  0  0  0  0  0
   -6.4174   16.0806  -35.3715 H   0  0  0  0  0  0  0  0  0  0  0  0
   -5.2359   15.4254  -32.7549 H   0  0  0  0  0  0  0  0  0  0  0  0
   -4.5461   15.3388  -34.4333 H   0  0  0  0  0  0  0  0  0  0  0  0
  1  2  1  0
  2  3  1  0
  3  4  1  0
  4  5  1  0
  5  6  1  0
  6  7  2  0
  6  8  2  0
  6  9  1  0
  9 10  2  0
 10 11  1  0
 11 12  2  0
 12 13  1  0
 13 14  2  0
 14 15  1  0
 15 16  1  0
 16 17  1  0
 17 18  2  0
 18 19  1  0
 19 20  2  0
 20 21  1  0
 21 22  2  0
 16 23  2  0
 12 24  1  0
 24 25  2  0
  5 26  1  0
 26 27  1  0
 27  2  1  0
 25  9  1  0
 23 13  1  0
 22 17  1  0
  1 28  1  0
  1 29  1  0
  1 30  1  0
  3 31  1  0
  3 32  1  0
  4 33  1  0
  4 34  1  0
 10 35  1  0
 11 36  1  0
 18 37  1  0
 19 38  1  0
 21 39  1  0
 22 40  1  0
 24 41  1  0
 25 42  1  0
 26 43  1  0
 26 44  1  0
 27 45  1  0
 27 46  1  0
M  END
>  <UniqueID>  (21) 
21

>  <SMILES>  (21) 
CN1CCN(S(=O)(=O)c2ccc(-c3noc(-c4ccncc4)n3)cc2)CC1

>  <Energy>  (21) 
92.2132937182349

>  <Genealogy>  (21) 
CN1CCN(S(=O)(=O)c2ccc(-c3noc(-c4ccncc4)n3)cc2)CC1 (3D coordinates assigned)
CN1CCN(S(=O)(=O)c2ccc(-c3noc(-c4ccncc4)n3)cc2)CC1 (nonaromatic ring conformer: 92.2132937182349 kcal/mol)

>  <smiles>  (21) 
CN1CCN(S(=O)(=O)c2ccc(-c3noc(-c4ccncc4)n3)cc2)CC1

>  <score_type>  (21) 
oracle

>  <origin>  (21) 
adgpu

>  <m_score__min__energy>  (21) 
-9.0800000000000001

>  <m_primary>  (21) 
energy

$$$$
21:0
     RDKit          3D

 72 76  0  0  0  0  0  0  0  0999 V2000
   -6.8870   16.6640  -33.7970 C   0  0  0  0  0  0  0  0  0  0  0  0
   -6.6610   17.8620  -32.9330 C   0  0  0  0  0  0  0  0  0  0  0  0
   -5.8110   17.8010  -32.0050 O   0  0  0  0  0  0  0  0  0  0  0  0
   -7.3430   19.0930  -33.2200 N   0  0  0  0  0  0  0  0  0  0  0  0
   -7.3110   20.2460  -32.3620 C   0  0  0  0  0  0  0  0  0  0  0  0
   -8.5140   20.8630  -31.9900 C   0  0  0  0  0  0  0  0  0  0  0  0
   -8.5050   21.9810  -31.1530 C   0  0  0  0  0  0  0  0  0  0  0  0
   -7.2950   22.4900  -30.6730 C   0  0  0  0  0  0  0  0  0  0  0  0
   -6.0840   21.8850  -31.0300 C   0  0  0  0  0  0  0  0  0  0  0  0
   -4.8890   22.4210  -30.5290 O   0  0  0  0  0  0  0  0  0  0  0  0
   -3.6070   21.9840  -30.8910 C   0  0  0  0  0  0  0  0  0  0  0  0
   -3.2510   21.8850  -32.2000 N   0  0  0  0  0  0  0  0  0  0  0  0
   -2.0150   21.4690  -32.5740 C   0  0  0  0  0  0  0  0  0  0  0  0
   -1.7460   21.3500  -33.8410 N   0  0  0  0  0  0  0  0  0  0  0  0
   -0.4940   20.9630  -34.4290 C   0  0  0  0  0  0  0  0  0  0  0  0
   -0.0490   19.6290  -34.4280 C   0  0  0  0  0  0  0  0  0  0  0  0
    1.2010   19.3060  -34.9650 C   0  0  0  0  0  0  0  0  0  0  0  0
    2.0200   20.3070  -35.4900 C   0  0  0  0  0  0  0  0  0  0  0  0
    1.5940   21.6420  -35.4840 C   0  0  0  0  0  0  0  0  0  0  0  0
    2.6360   22.9160  -36.1310 S   0  0  0  0  0  0  0  0  0  0  0  0
    3.6000   22.3070  -37.1120 O   0  0  0  0  0  0  0  0  0  0  0  0
    3.4350   23.5150  -35.0060 O   0  0  0  0  0  0  0  0  0  0  0  0
    1.7380   24.1870  -36.9270 N   0  0  0  0  0  0  0  0  0  0  0  0
    2.5790   25.3370  -37.2530 C   0  0  0  0  0  0  0  0  0  0  0  0
    1.6530   26.5420  -37.3160 C   0  0  0  0  0  0  0  0  0  0  0  0
    0.4000   26.1300  -36.5580 C   0  0  0  0  0  0  0  0  0  0  0  0
    0.6670   24.7100  -36.0830 C   0  0  0  0  0  0  0  0  0  0  0  0
    0.3450   21.9650  -34.9340 C   0  0  0  0  0  0  0  0  0  0  0  0
   -1.1040   21.1360  -31.6190 N   0  0  0  0  0  0  0  0  0  0  0  0
   -1.4060   21.2290  -30.2980 C   0  0  0  0  0  0  0  0  0  0  0  0
   -2.6800   21.6630  -29.8970 C   0  0  0  0  0  0  0  0  0  0  0  0
   -3.0540   21.7720  -28.5500 O   0  0  0  0  0  0  0  0  0  0  0  0
   -2.5960   22.7820  -27.6960 C   0  0  0  0  0  0  0  0  0  0  0  0
   -1.3940   22.6060  -26.9840 C   0  0  0  0  0  0  0  0  0  0  0  0
   -0.6110   21.3290  -27.1140 C   0  0  0  0  0  0  0  0  0  0  0  0
   -0.9490   23.6160  -26.1170 C   0  0  0  0  0  0  0  0  0  0  0  0
   -1.6830   24.7980  -25.9720 C   0  0  0  0  0  0  0  0  0  0  0  0
   -1.2160   25.8310  -25.0850 C   0  0  0  0  0  0  0  0  0  0  0  0
   -0.8410   26.6610  -24.3720 N   0  0  0  0  0  0  0  0  0  0  0  0
   -2.8730   24.9740  -26.6850 C   0  0  0  0  0  0  0  0  0  0  0  0
   -3.3440   23.9650  -27.5400 C   0  0  0  0  0  0  0  0  0  0  0  0
   -4.6170   24.1660  -28.3120 C   0  0  0  0  0  0  0  0  0  0  0  0
   -6.0990   20.7430  -31.8510 C   0  0  0  0  0  0  0  0  0  0  0  0
   -7.0536   15.7808  -33.1629 H   0  0  0  0  0  0  0  0  0  0  0  0
   -7.7695   16.8312  -34.4321 H   0  0  0  0  0  0  0  0  0  0  0  0
   -6.0043   16.4982  -34.4321 H   0  0  0  0  0  0  0  0  0  0  0  0
   -7.8190   19.1840  -34.1490 H   0  0  0  0  0  0  0  0  0  0  0  0
   -9.4702   20.4642  -32.3595 H   0  0  0  0  0  0  0  0  0  0  0  0
   -9.4529   22.4624  -30.8707 H   0  0  0  0  0  0  0  0  0  0  0  0
   -7.2942   23.3694  -30.0122 H   0  0  0  0  0  0  0  0  0  0  0  0
   -0.6854   18.8382  -34.0040 H   0  0  0  0  0  0  0  0  0  0  0  0
    1.5401   18.2596  -34.9737 H   0  0  0  0  0  0  0  0  0  0  0  0
    3.0030   20.0471  -35.9098 H   0  0  0  0  0  0  0  0  0  0  0  0
    3.3417   25.4836  -36.4740 H   0  0  0  0  0  0  0  0  0  0  0  0
    3.1055   25.1883  -38.2073 H   0  0  0  0  0  0  0  0  0  0  0  0
    2.1230   27.4138  -36.8373 H   0  0  0  0  0  0  0  0  0  0  0  0
    1.4270   26.8299  -38.3533 H   0  0  0  0  0  0  0  0  0  0  0  0
    0.2314   26.7979  -35.7004 H   0  0  0  0  0  0  0  0  0  0  0  0
   -0.4991   26.1891  -37.1890 H   0  0  0  0  0  0  0  0  0  0  0  0
    0.9812   24.7143  -35.0288 H   0  0  0  0  0  0  0  0  0  0  0  0
   -0.2377   24.0885  -36.1561 H   0  0  0  0  0  0  0  0  0  0  0  0
    0.0208   23.0156  -34.8987 H   0  0  0  0  0  0  0  0  0  0  0  0
   -0.6523   20.9642  -29.5418 H   0  0  0  0  0  0  0  0  0  0  0  0
   -0.3732   20.9411  -26.1125 H   0  0  0  0  0  0  0  0  0  0  0  0
   -1.2092   20.5863  -27.6623 H   0  0  0  0  0  0  0  0  0  0  0  0
    0.3222   21.5253  -27.6623 H   0  0  0  0  0  0  0  0  0  0  0  0
   -0.0177   23.4773  -25.5482 H   0  0  0  0  0  0  0  0  0  0  0  0
   -3.4432   25.9082  -26.5753 H   0  0  0  0  0  0  0  0  0  0  0  0
   -5.4541   24.2982  -27.6107 H   0  0  0  0  0  0  0  0  0  0  0  0
   -4.5244   25.0607  -28.9453 H   0  0  0  0  0  0  0  0  0  0  0  0
   -4.8046   23.2863  -28.9453 H   0  0  0  0  0  0  0  0  0  0  0  0
   -5.1547   20.2345  -32.0953 H   0  0  0  0  0  0  0  0  0  0  0  0
  1  2  1  0
  2  3  2  0
  2  4  1  0
  4  5  1  0
  5  6  2  0
  6  7  1  0
  7  8  2  0
  8  9  1  0
  9 10  1  0
 10 11  1  0
 11 12  1  0
 12 13  1  0
 13 14  2  3
 14 15  1  0
 15 16  2  0
 16 17  1  0
 17 18  2  0
 18 19  1  0
 19 20  1  0
 20 21  2  0
 20 22  2  0
 20 23  1  0
 23 24  1  0
 24 25  1  0
 25 26  1  0
 26 27  1  0
 19 28  2  0
 13 29  1  0
 29 30  2  0
 30 31  1  0
 31 32  1  0
 32 33  1  0
 33 34  2  0
 34 35  1  0
 34 36  1  0
 36 37  2  0
 37 38  1  0
 38 39  3  0
 37 40  1  0
 40 41  2  0
 41 42  1  0
  9 43  2  0
 43  5  1  0
 31 11  2  0
 41 33  1  0
 28 15  1  0
 27 23  1  0
  1 44  1  0
  1 45  1  0
  1 46  1  0
  4 47  1  0
  6 48  1  0
  7 49  1  0
  8 50  1  0
 16 51  1  0
 17 52  1  0
 18 53  1  0
 24 54  1  0
 24 55  1  0
 25 56  1  0
 25 57  1  0
 26 58  1  0
 26 59  1  0
 27 60  1  0
 27 61  1  0
 28 62  1  0
 30 63  1  0
 35 64  1  0
 35 65  1  0
 35 66  1  0
 36 67  1  0
 40 68  1  0
 42 69  1  0
 42 70  1  0
 42 71  1  0
 43 72  1  0
M  CHG  1  12  -1
M  END
>  <UniqueID>  (22) 
22

>  <SMILES>  (22) 
CC(=O)Nc1cccc(Oc2[n-]c(=Nc3cccc(S(=O)(=O)N4CCCC4)c3)ncc2Oc2c(C)cc(C#N)cc2C)c1

>  <Energy>  (22) 
97.7517760021884

>  <Genealogy>  (22) 
CC(=O)Nc1cccc(Oc2[n-]c(=Nc3cccc(S(=O)(=O)N4CCCC4)c3)ncc2Oc2c(C)cc(C#N)cc2C)c1 (protonated)
CC(=O)Nc1cccc(Oc2[n-]c(=Nc3cccc(S(=O)(=O)N4CCCC4)c3)ncc2Oc2c(C)cc(C#N)cc2C)c1 (3D coordinates assigned)
CC(=O)Nc1cccc(Oc2[n-]c(=Nc3cccc(S(=O)(=O)N4CCCC4)c3)ncc2Oc2c(C)cc(C#N)cc2C)c1 (nonaromatic ring conformer: 97.7517760021884 kcal/mol)

>  <smiles>  (22) 
CC(=O)Nc1cccc(Oc2[nH]c(=Nc3cccc(S(=O)(=O)N4CCCC4)c3)ncc2Oc2c(C)cc(C#N)cc2C)c1

>  <score_type>  (22) 
oracle

>  <origin>  (22) 
adgpu

>  <m_score__min__energy>  (22) 
-12.25

>  <m_primary>  (22) 
energy

$$$$
22:0
     RDKit          3D

 47 49  0  0  0  0  0  0  0  0999 V2000
   -3.6720   23.7310  -28.3740 O   0  0  0  0  0  0  0  0  0  0  0  0
   -3.4810   24.5970  -29.2700 C   0  0  0  0  0  0  0  0  0  0  0  0
   -2.2360   25.2990  -29.3390 N   0  0  0  0  0  0  0  0  0  0  0  0
   -1.0820   24.9810  -28.5050 C   0  0  0  0  0  0  0  0  0  0  0  0
   -1.0800   25.8370  -27.2680 C   0  0  0  0  0  0  0  0  0  0  0  0
   -0.4870   27.1110  -27.2950 C   0  0  0  0  0  0  0  0  0  0  0  0
   -0.4640   27.9020  -26.1430 C   0  0  0  0  0  0  0  0  0  0  0  0
   -1.0290   27.4280  -24.9560 C   0  0  0  0  0  0  0  0  0  0  0  0
   -1.6160   26.1600  -24.9180 C   0  0  0  0  0  0  0  0  0  0  0  0
   -1.6410   25.3650  -26.0690 C   0  0  0  0  0  0  0  0  0  0  0  0
   -4.5270   24.8700  -30.2710 C   0  0  0  0  0  0  0  0  0  0  0  0
   -5.2930   25.8550  -30.1040 O   0  0  0  0  0  0  0  0  0  0  0  0
   -4.6570   24.0900  -31.4670 N   0  0  0  0  0  0  0  0  0  0  0  0
   -5.5050   22.9470  -31.6460 C   0  0  0  0  0  0  0  0  0  0  0  0
   -6.8580   23.0830  -32.0040 C   0  0  0  0  0  0  0  0  0  0  0  0
   -7.6510   21.9490  -32.1990 C   0  0  0  0  0  0  0  0  0  0  0  0
   -7.1010   20.6700  -32.0530 C   0  0  0  0  0  0  0  0  0  0  0  0
   -8.1050   19.2480  -32.3300 S   0  0  0  0  0  0  0  0  0  0  0  0
   -8.5310   18.6590  -31.0130 O   0  0  0  0  0  0  0  0  0  0  0  0
   -9.3360   19.6660  -33.0870 O   0  0  0  0  0  0  0  0  0  0  0  0
   -7.2150   18.0710  -33.2600 N   0  0  0  0  0  0  0  0  0  0  0  0
   -6.2920   18.7520  -34.1850 C   0  0  0  0  0  0  0  0  0  0  0  0
   -5.3080   17.7480  -34.8180 C   0  0  0  0  0  0  0  0  0  0  0  0
   -5.7110   16.4150  -34.5700 O   0  0  0  0  0  0  0  0  0  0  0  0
   -5.6600   16.1520  -33.1780 C   0  0  0  0  0  0  0  0  0  0  0  0
   -6.4680   17.1820  -32.3590 C   0  0  0  0  0  0  0  0  0  0  0  0
   -5.7450   20.5320  -31.7300 C   0  0  0  0  0  0  0  0  0  0  0  0
   -4.9500   21.6660  -31.5350 C   0  0  0  0  0  0  0  0  0  0  0  0
   -1.1263   23.9214  -28.2130 H   0  0  0  0  0  0  0  0  0  0  0  0
   -0.1627   25.1762  -29.0767 H   0  0  0  0  0  0  0  0  0  0  0  0
   -0.0392   27.4871  -28.2267 H   0  0  0  0  0  0  0  0  0  0  0  0
   -0.0005   28.8992  -26.1707 H   0  0  0  0  0  0  0  0  0  0  0  0
   -1.0118   28.0531  -24.0510 H   0  0  0  0  0  0  0  0  0  0  0  0
   -2.0586   25.7870  -23.9826 H   0  0  0  0  0  0  0  0  0  0  0  0
   -2.1015   24.3666  -26.0354 H   0  0  0  0  0  0  0  0  0  0  0  0
   -7.2935   24.0851  -32.1310 H   0  0  0  0  0  0  0  0  0  0  0  0
   -8.7115   22.0618  -32.4683 H   0  0  0  0  0  0  0  0  0  0  0  0
   -6.8740   19.2374  -34.9823 H   0  0  0  0  0  0  0  0  0  0  0  0
   -5.7163   19.5000  -33.6201 H   0  0  0  0  0  0  0  0  0  0  0  0
   -5.2722   17.9163  -35.9045 H   0  0  0  0  0  0  0  0  0  0  0  0
   -4.3152   17.9020  -34.3701 H   0  0  0  0  0  0  0  0  0  0  0  0
   -6.0725   15.1494  -32.9917 H   0  0  0  0  0  0  0  0  0  0  0  0
   -4.6089   16.2183  -32.8604 H   0  0  0  0  0  0  0  0  0  0  0  0
   -7.1744   16.6517  -31.7034 H   0  0  0  0  0  0  0  0  0  0  0  0
   -5.7743   17.7839  -31.7536 H   0  0  0  0  0  0  0  0  0  0  0  0
   -5.3043   19.5292  -31.6295 H   0  0  0  0  0  0  0  0  0  0  0  0
   -3.8831   21.5511  -31.2931 H   0  0  0  0  0  0  0  0  0  0  0  0
  1  2  2  0
  2  3  1  0
  3  4  1  0
  4  5  1  0
  5  6  2  0
  6  7  1  0
  7  8  2  0
  8  9  1  0
  9 10  2  0
  2 11  1  0
 11 12  2  0
 11 13  1  0
 13 14  1  0
 14 15  2  0
 15 16  1  0
 16 17  2  0
 17 18  1  0
 18 19  2  0
 18 20  2  0
 18 21  1  0
 21 22  1  0
 22 23  1  0
 23 24  1  0
 24 25  1  0
 25 26  1  0
 17 27  1  0
 27 28  2  0
 10  5  1  0
 28 14  1  0
 26 21  1  0
  4 29  1  0
  4 30  1  0
  6 31  1  0
  7 32  1  0
  8 33  1  0
  9 34  1  0
 10 35  1  0
 15 36  1  0
 16 37  1  0
 22 38  1  0
 22 39  1  0
 23 40  1  0
 23 41  1  0
 25 42  1  0
 25 43  1  0
 26 44  1  0
 26 45  1  0
 27 46  1  0
 28 47  1  0
M  CHG  2   3  -1  13  -1
M  END
>  <UniqueID>  (23) 
23

>  <SMILES>  (23) 
O=C([N-]Cc1ccccc1)C(=O)[N-]c1ccc(S(=O)(=O)N2CCOCC2)cc1

>  <Energy>  (23) 
57.786954112957574

>  <Genealogy>  (23) 
O=C([N-]Cc1ccccc1)C(=O)[N-]c1ccc(S(=O)(=O)N2CCOCC2)cc1 (protonated)
O=C([N-]Cc1ccccc1)C(=O)[N-]c1ccc(S(=O)(=O)N2CCOCC2)cc1 (3D coordinates assigned)
O=C([N-]Cc1ccccc1)C(=O)[N-]c1ccc(S(=O)(=O)N2CCOCC2)cc1 (nonaromatic ring conformer: 57.786954112957574 kcal/mol)

>  <smiles>  (23) 
O=C(NCc1ccccc1)C(=O)Nc1ccc(S(=O)(=O)N2CCOCC2)cc1

>  <score_type>  (23) 
oracle

>  <origin>  (23) 
adgpu

>  <m_score__min__energy>  (23) 
-11.630000000000001

>  <m_primary>  (23) 
energy

$$$$
23:0
     RDKit          3D

 52 55  0  0  0  0  0  0  0  0999 V2000
   -0.2300   21.7530  -29.2960 C   0  0  0  0  0  0  0  0  0  0  0  0
   -0.8950   23.0660  -29.2110 N   0  0  0  0  0  0  0  0  0  0  0  0
   -0.2360   24.1330  -28.6400 C   0  0  0  0  0  0  0  0  0  0  0  0
    0.9490   24.0130  -28.2200 O   0  0  0  0  0  0  0  0  0  0  0  0
   -0.8760   25.3710  -28.5160 C   0  0  0  0  0  0  0  0  0  0  0  0
   -0.2850   26.3500  -27.9870 O   0  0  0  0  0  0  0  0  0  0  0  0
   -2.1450   25.5180  -28.9610 N   0  0  0  0  0  0  0  0  0  0  0  0
   -2.8120   24.4940  -29.5440 C   0  0  0  0  0  0  0  0  0  0  0  0
   -4.1280   24.6840  -29.9750 C   0  0  0  0  0  0  0  0  0  0  0  0
   -4.8360   23.6350  -30.5690 C   0  0  0  0  0  0  0  0  0  0  0  0
   -6.5290   23.8670  -30.9980 S   0  0  0  0  0  0  0  0  0  0  0  0
   -7.0010   25.1770  -30.4390 O   0  0  0  0  0  0  0  0  0  0  0  0
   -6.7130   23.8760  -32.4910 O   0  0  0  0  0  0  0  0  0  0  0  0
   -7.4680   22.5830  -30.3110 N   0  0  0  0  0  0  0  0  0  0  0  0
   -8.0420   21.5030  -31.0560 C   0  0  0  0  0  0  0  0  0  0  0  0
   -9.3490   21.5680  -31.5770 C   0  0  0  0  0  0  0  0  0  0  0  0
   -9.8550   20.5130  -32.3460 C   0  0  0  0  0  0  0  0  0  0  0  0
   -9.0630   19.3920  -32.6010 C   0  0  0  0  0  0  0  0  0  0  0  0
   -7.7670   19.3070  -32.0720 C   0  0  0  0  0  0  0  0  0  0  0  0
   -6.7770   17.8950  -32.4270 S   0  0  0  0  0  0  0  0  0  0  0  0
   -6.2150   17.3760  -31.1340 O   0  0  0  0  0  0  0  0  0  0  0  0
   -7.6110   16.8180  -33.0620 O   0  0  0  0  0  0  0  0  0  0  0  0
   -5.4720   18.3350  -33.5020 N   0  0  0  0  0  0  0  0  0  0  0  0
   -4.1740   18.1790  -32.8080 C   0  0  0  0  0  0  0  0  0  0  0  0
   -3.0610   18.9570  -33.5170 C   0  0  0  0  0  0  0  0  0  0  0  0
   -3.3570   20.4680  -33.5180 C   0  0  0  0  0  0  0  0  0  0  0  0
   -4.8610   20.7770  -33.4220 C   0  0  0  0  0  0  0  0  0  0  0  0
   -5.6970   19.6780  -34.0920 C   0  0  0  0  0  0  0  0  0  0  0  0
   -7.2680   20.3590  -31.2900 C   0  0  0  0  0  0  0  0  0  0  0  0
   -4.2110   22.3990  -30.7570 C   0  0  0  0  0  0  0  0  0  0  0  0
   -2.8980   22.1980  -30.3260 C   0  0  0  0  0  0  0  0  0  0  0  0
   -2.1780   23.2380  -29.6920 C   0  0  0  0  0  0  0  0  0  0  0  0
   -0.0376   21.3731  -28.2818 H   0  0  0  0  0  0  0  0  0  0  0  0
   -0.8794   21.0473  -29.8348 H   0  0  0  0  0  0  0  0  0  0  0  0
    0.7231   21.8589  -29.8348 H   0  0  0  0  0  0  0  0  0  0  0  0
   -4.6094   25.6646  -29.8461 H   0  0  0  0  0  0  0  0  0  0  0  0
   -9.9745   22.4509  -31.3790 H   0  0  0  0  0  0  0  0  0  0  0  0
  -10.8769   20.5675  -32.7494 H   0  0  0  0  0  0  0  0  0  0  0  0
   -9.4571   18.5721  -33.2194 H   0  0  0  0  0  0  0  0  0  0  0  0
   -4.2719   18.5536  -31.7784 H   0  0  0  0  0  0  0  0  0  0  0  0
   -3.9062   17.1121  -32.8128 H   0  0  0  0  0  0  0  0  0  0  0  0
   -2.1089   18.7775  -32.9962 H   0  0  0  0  0  0  0  0  0  0  0  0
   -3.0017   18.6113  -34.5596 H   0  0  0  0  0  0  0  0  0  0  0  0
   -2.8475   20.9272  -32.6580 H   0  0  0  0  0  0  0  0  0  0  0  0
   -2.9932   20.8778  -34.4718 H   0  0  0  0  0  0  0  0  0  0  0  0
   -5.1457   20.8484  -32.3619 H   0  0  0  0  0  0  0  0  0  0  0  0
   -5.0552   21.7275  -33.9405 H   0  0  0  0  0  0  0  0  0  0  0  0
   -6.7615   19.9336  -33.9851 H   0  0  0  0  0  0  0  0  0  0  0  0
   -5.3895   19.6288  -35.1470 H   0  0  0  0  0  0  0  0  0  0  0  0
   -6.2597   20.2851  -30.8565 H   0  0  0  0  0  0  0  0  0  0  0  0
   -4.7568   21.5795  -31.2475 H   0  0  0  0  0  0  0  0  0  0  0  0
   -2.4182   21.2204  -30.4811 H   0  0  0  0  0  0  0  0  0  0  0  0
  1  2  1  0
  2  3  1  0
  3  4  2  0
  3  5  1  0
  5  6  2  0
  5  7  1  0
  7  8  1  0
  8  9  2  0
  9 10  1  0
 10 11  1  0
 11 12  2  0
 11 13  2  0
 11 14  1  0
 14 15  1  0
 15 16  2  0
 16 17  1  0
 17 18  2  0
 18 19  1  0
 19 20  1  0
 20 21  2  0
 20 22  2  0
 20 23  1  0
 23 24  1  0
 24 25  1  0
 25 26  1  0
 26 27  1  0
 27 28  1  0
 19 29  2  0
 10 30  2  0
 30 31  1  0
 31 32  2  0
 32  2  1  0
 32  8  1  0
 29 15  1  0
 28 23  1  0
  1 33  1  0
  1 34  1  0
  1 35  1  0
  9 36  1  0
 16 37  1  0
 17 38  1  0
 18 39  1  0
 24 40  1  0
 24 41  1  0
 25 42  1  0
 25 43  1  0
 26 44  1  0
 26 45  1  0
 27 46  1  0
 27 47  1  0
 28 48  1  0
 28 49  1  0
 29 50  1  0
 30 51  1  0
 31 52  1  0
M  CHG  2   7  -1  14  -1
M  END
>  <UniqueID>  (24) 
24

>  <SMILES>  (24) 
Cn1c(=O)c(=O)[n-]c2cc(S(=O)(=O)[N-]c3cccc(S(=O)(=O)N4CCCCC4)c3)ccc21

>  <Energy>  (24) 
74.63800267562685

>  <Genealogy>  (24) 
Cn1c(=O)c(=O)[n-]c2cc(S(=O)(=O)[N-]c3cccc(S(=O)(=O)N4CCCCC4)c3)ccc21 (protonated)
Cn1c(=O)c(=O)[n-]c2cc(S(=O)(=O)[N-]c3cccc(S(=O)(=O)N4CCCCC4)c3)ccc21 (3D coordinates assigned)
Cn1c(=O)c(=O)[n-]c2cc(S(=O)(=O)[N-]c3cccc(S(=O)(=O)N4CCCCC4)c3)ccc21 (nonaromatic ring conformer: 74.63800267562685 kcal/mol)

>  <smiles>  (24) 
Cn1c(=O)c(=O)[nH]c2cc(S(=O)(=O)Nc3cccc(S(=O)(=O)N4CCCCC4)c3)ccc21

>  <score_type>  (24) 
oracle

>  <origin>  (24) 
adgpu

>  <m_score__min__energy>  (24) 
-12.52

>  <m_primary>  (24) 
energy

$$$$
24:0
     RDKit          3D

 57 60  0  0  0  0  0  0  0  0999 V2000
   -6.1150   16.9980  -31.9210 C   0  0  0  0  0  0  0  0  0  0  0  0
   -5.6510   17.2310  -33.3000 N   0  0  0  0  0  0  0  0  0  0  0  0
   -6.4890   18.2110  -34.0190 C   0  0  0  0  0  0  0  0  0  0  0  0
   -6.3990   19.6240  -33.4160 C   0  0  0  0  0  0  0  0  0  0  0  0
   -4.9870   20.0110  -33.0540 C   0  0  0  0  0  0  0  0  0  0  0  0
   -4.7090   21.3440  -32.7150 C   0  0  0  0  0  0  0  0  0  0  0  0
   -3.4310   21.7200  -32.2790 C   0  0  0  0  0  0  0  0  0  0  0  0
   -3.1590   23.0750  -31.9050 N   0  0  0  0  0  0  0  0  0  0  0  0
   -3.7690   23.7580  -30.4330 S   0  0  0  0  0  0  0  0  0  0  0  0
   -5.1150   23.1590  -30.1380 O   0  0  0  0  0  0  0  0  0  0  0  0
   -3.9360   25.2420  -30.6040 O   0  0  0  0  0  0  0  0  0  0  0  0
   -2.6570   23.4550  -29.0960 C   0  0  0  0  0  0  0  0  0  0  0  0
   -2.6580   22.2050  -28.4640 C   0  0  0  0  0  0  0  0  0  0  0  0
   -1.7390   21.9230  -27.4480 C   0  0  0  0  0  0  0  0  0  0  0  0
   -1.7520   20.3360  -26.6840 S   0  0  0  0  0  0  0  0  0  0  0  0
   -1.5750   20.4750  -25.1920 O   0  0  0  0  0  0  0  0  0  0  0  0
   -3.0800   19.6850  -26.9630 O   0  0  0  0  0  0  0  0  0  0  0  0
   -0.4620   19.3580  -27.3410 N   0  0  0  0  0  0  0  0  0  0  0  0
   -0.7330   17.9310  -27.0940 C   0  0  0  0  0  0  0  0  0  0  0  0
    0.4750   17.0620  -27.5000 C   0  0  0  0  0  0  0  0  0  0  0  0
    1.3870   17.7640  -28.5180 C   0  0  0  0  0  0  0  0  0  0  0  0
    0.5540   18.5790  -29.5090 C   0  0  0  0  0  0  0  0  0  0  0  0
   -0.3140   19.6380  -28.7860 C   0  0  0  0  0  0  0  0  0  0  0  0
   -0.8180   22.9040  -27.0520 C   0  0  0  0  0  0  0  0  0  0  0  0
   -0.8150   24.1540  -27.6740 C   0  0  0  0  0  0  0  0  0  0  0  0
   -1.7270   24.4310  -28.6980 C   0  0  0  0  0  0  0  0  0  0  0  0
   -1.6890   25.6710  -29.3250 O   0  0  0  0  0  0  0  0  0  0  0  0
   -2.4270   20.7510  -32.1520 C   0  0  0  0  0  0  0  0  0  0  0  0
   -1.1630   21.1210  -31.6890 O   0  0  0  0  0  0  0  0  0  0  0  0
   -2.6950   19.4180  -32.4960 C   0  0  0  0  0  0  0  0  0  0  0  0
   -3.9740   19.0370  -32.9330 C   0  0  0  0  0  0  0  0  0  0  0  0
   -4.2230   17.6030  -33.3450 C   0  0  0  0  0  0  0  0  0  0  0  0
   -5.3631   17.3756  -31.2124 H   0  0  0  0  0  0  0  0  0  0  0  0
   -7.0672   17.5249  -31.7606 H   0  0  0  0  0  0  0  0  0  0  0  0
   -6.2611   15.9196  -31.7606 H   0  0  0  0  0  0  0  0  0  0  0  0
   -6.1592   18.2540  -35.0675 H   0  0  0  0  0  0  0  0  0  0  0  0
   -7.5345   17.8796  -33.9350 H   0  0  0  0  0  0  0  0  0  0  0  0
   -6.7848   20.3459  -34.1508 H   0  0  0  0  0  0  0  0  0  0  0  0
   -6.9938   19.6300  -32.4907 H   0  0  0  0  0  0  0  0  0  0  0  0
   -5.5025   22.1019  -32.7922 H   0  0  0  0  0  0  0  0  0  0  0  0
   -3.3868   21.4396  -28.7689 H   0  0  0  0  0  0  0  0  0  0  0  0
   -0.9388   17.7837  -26.0235 H   0  0  0  0  0  0  0  0  0  0  0  0
   -1.6014   17.6290  -27.6978 H   0  0  0  0  0  0  0  0  0  0  0  0
    1.0629   16.8317  -26.5993 H   0  0  0  0  0  0  0  0  0  0  0  0
    0.0863   16.1480  -27.9729 H   0  0  0  0  0  0  0  0  0  0  0  0
    2.0753   18.4361  -27.9846 H   0  0  0  0  0  0  0  0  0  0  0  0
    1.9552   17.0023  -29.0720 H   0  0  0  0  0  0  0  0  0  0  0  0
    1.2310   19.0898  -30.2095 H   0  0  0  0  0  0  0  0  0  0  0  0
   -0.1167   17.8903  -30.0437 H   0  0  0  0  0  0  0  0  0  0  0  0
    0.1582   20.6240  -28.9078 H   0  0  0  0  0  0  0  0  0  0  0  0
   -1.3173   19.6119  -29.2361 H   0  0  0  0  0  0  0  0  0  0  0  0
   -0.0968   22.6881  -26.2500 H   0  0  0  0  0  0  0  0  0  0  0  0
   -0.0941   24.9225  -27.3582 H   0  0  0  0  0  0  0  0  0  0  0  0
   -0.9550   22.0730  -31.4060 H   0  0  0  0  0  0  0  0  0  0  0  0
   -1.8967   18.6647  -32.4229 H   0  0  0  0  0  0  0  0  0  0  0  0
   -3.8567   17.4647  -34.3730 H   0  0  0  0  0  0  0  0  0  0  0  0
   -3.6915   16.9576  -32.6302 H   0  0  0  0  0  0  0  0  0  0  0  0
  1  2  1  0
  2  3  1  0
  3  4  1  0
  4  5  1  0
  5  6  2  0
  6  7  1  0
  7  8  1  0
  8  9  1  0
  9 10  2  0
  9 11  2  0
  9 12  1  0
 12 13  2  0
 13 14  1  0
 14 15  1  0
 15 16  2  0
 15 17  2  0
 15 18  1  0
 18 19  1  0
 19 20  1  0
 20 21  1  0
 21 22  1  0
 22 23  1  0
 14 24  2  0
 24 25  1  0
 25 26  2  0
 26 27  1  0
  7 28  2  0
 28 29  1  0
 28 30  1  0
 30 31  2  0
 31 32  1  0
 32  2  1  0
 31  5  1  0
 26 12  1  0
 23 18  1  0
  1 33  1  0
  1 34  1  0
  1 35  1  0
  3 36  1  0
  3 37  1  0
  4 38  1  0
  4 39  1  0
  6 40  1  0
 13 41  1  0
 19 42  1  0
 19 43  1  0
 20 44  1  0
 20 45  1  0
 21 46  1  0
 21 47  1  0
 22 48  1  0
 22 49  1  0
 23 50  1  0
 23 51  1  0
 24 52  1  0
 25 53  1  0
 29 54  1  0
 30 55  1  0
 32 56  1  0
 32 57  1  0
M  CHG  2   8  -1  27  -1
M  END
>  <UniqueID>  (25) 
25

>  <SMILES>  (25) 
CN1CCc2cc([N-]S(=O)(=O)c3cc(S(=O)(=O)N4CCCCC4)ccc3[O-])c(O)cc2C1

>  <Energy>  (25) 
71.80888222110883

>  <Genealogy>  (25) 
CN1CCc2cc([N-]S(=O)(=O)c3cc(S(=O)(=O)N4CCCCC4)ccc3[O-])c(O)cc2C1 (protonated)
CN1CCc2cc([N-]S(=O)(=O)c3cc(S(=O)(=O)N4CCCCC4)ccc3[O-])c(O)cc2C1 (3D coordinates assigned)
CN1CCc2cc([N-]S(=O)(=O)c3cc(S(=O)(=O)N4CCCCC4)ccc3[O-])c(O)cc2C1 (nonaromatic ring conformer: 71.80888222110883 kcal/mol)

>  <smiles>  (25) 
CN1CCc2cc(NS(=O)(=O)c3cc(S(=O)(=O)N4CCCCC4)ccc3O)c(O)cc2C1

>  <score_type>  (25) 
oracle

>  <origin>  (25) 
adgpu

>  <m_score__min__energy>  (25) 
-13.94

>  <m_primary>  (25) 
energy

$$$$
25:0
     RDKit          3D

 55 58  0  0  0  0  0  0  0  0999 V2000
    0.2670   24.9300  -27.9470 N   0  0  0  0  0  0  0  0  0  0  0  0
   -1.3070   24.3320  -28.3370 S   0  0  0  0  0  0  0  0  0  0  0  0
   -2.1240   24.2220  -27.0790 O   0  0  0  0  0  0  0  0  0  0  0  0
   -1.9900   25.2850  -29.2780 O   0  0  0  0  0  0  0  0  0  0  0  0
   -1.1600   22.7560  -29.1080 C   0  0  0  0  0  0  0  0  0  0  0  0
   -1.2270   22.6570  -30.5050 C   0  0  0  0  0  0  0  0  0  0  0  0
   -1.1050   21.4120  -31.1290 C   0  0  0  0  0  0  0  0  0  0  0  0
   -0.9390   20.2510  -30.3620 C   0  0  0  0  0  0  0  0  0  0  0  0
   -0.8110   18.9880  -31.0250 N   0  0  0  0  0  0  0  0  0  0  0  0
   -0.0470   18.7410  -32.2120 C   0  0  0  0  0  0  0  0  0  0  0  0
    1.2060   18.8590  -32.1640 O   0  0  0  0  0  0  0  0  0  0  0  0
   -0.6990   18.4330  -33.5330 C   0  0  0  0  0  0  0  0  0  0  0  0
   -1.5310   19.9090  -34.2150 S   0  0  0  0  0  0  0  0  0  0  0  0
   -3.1970   19.3000  -33.9210 C   0  0  0  0  0  0  0  0  0  0  0  0
   -3.5870   18.0520  -34.2330 N   0  0  0  0  0  0  0  0  0  0  0  0
   -4.8600   17.9460  -33.8810 N   0  0  0  0  0  0  0  0  0  0  0  0
   -5.2340   19.1400  -33.3770 C   0  0  0  0  0  0  0  0  0  0  0  0
   -6.5820   19.3830  -32.8380 C   0  0  0  0  0  0  0  0  0  0  0  0
   -7.3560   18.3430  -32.3000 C   0  0  0  0  0  0  0  0  0  0  0  0
   -8.6280   18.6240  -31.7990 C   0  0  0  0  0  0  0  0  0  0  0  0
   -9.1120   19.9320  -31.8220 C   0  0  0  0  0  0  0  0  0  0  0  0
   -8.3050   20.9490  -32.3400 C   0  0  0  0  0  0  0  0  0  0  0  0
   -7.0690   20.6550  -32.8270 N   0  0  0  0  0  0  0  0  0  0  0  0
   -4.2050   20.0200  -33.3810 N   0  0  0  0  0  0  0  0  0  0  0  0
   -4.1290   21.3660  -32.8000 C   0  0  0  0  0  0  0  0  0  0  0  0
   -4.3990   21.3260  -31.2930 C   0  0  0  0  0  0  0  0  0  0  0  0
   -4.8450   22.6760  -30.8010 C   0  0  0  0  0  0  0  0  0  0  0  0
   -5.6390   23.5010  -31.6150 C   0  0  0  0  0  0  0  0  0  0  0  0
   -6.0810   24.7400  -31.1440 C   0  0  0  0  0  0  0  0  0  0  0  0
   -5.7450   25.1590  -29.8530 C   0  0  0  0  0  0  0  0  0  0  0  0
   -4.9690   24.3360  -29.0310 C   0  0  0  0  0  0  0  0  0  0  0  0
   -4.5230   23.0960  -29.4990 C   0  0  0  0  0  0  0  0  0  0  0  0
   -0.8370   20.3540  -28.9650 C   0  0  0  0  0  0  0  0  0  0  0  0
   -0.9550   21.6000  -28.3420 C   0  0  0  0  0  0  0  0  0  0  0  0
    0.2090   25.3390  -26.9890 H   0  0  0  0  0  0  0  0  0  0  0  0
    0.8990   24.1020  -27.8830 H   0  0  0  0  0  0  0  0  0  0  0  0
   -1.3761   23.5621  -31.1121 H   0  0  0  0  0  0  0  0  0  0  0  0
   -1.1394   21.3434  -32.2263 H   0  0  0  0  0  0  0  0  0  0  0  0
    0.0699   18.0938  -34.2428 H   0  0  0  0  0  0  0  0  0  0  0  0
   -1.4532   17.6479  -33.3759 H   0  0  0  0  0  0  0  0  0  0  0  0
   -6.9636   17.3157  -32.2735 H   0  0  0  0  0  0  0  0  0  0  0  0
   -9.2483   17.8147  -31.3864 H   0  0  0  0  0  0  0  0  0  0  0  0
  -10.1168   20.1605  -31.4371 H   0  0  0  0  0  0  0  0  0  0  0  0
   -8.6691   21.9869  -32.3539 H   0  0  0  0  0  0  0  0  0  0  0  0
   -3.1242   21.7778  -32.9752 H   0  0  0  0  0  0  0  0  0  0  0  0
   -4.8917   21.9988  -33.2773 H   0  0  0  0  0  0  0  0  0  0  0  0
   -5.1870   20.5869  -31.0860 H   0  0  0  0  0  0  0  0  0  0  0  0
   -3.4708   21.0469  -30.7728 H   0  0  0  0  0  0  0  0  0  0  0  0
   -5.9139   23.1702  -32.6274 H   0  0  0  0  0  0  0  0  0  0  0  0
   -6.6939   25.3864  -31.7894 H   0  0  0  0  0  0  0  0  0  0  0  0
   -6.0911   26.1358  -29.4841 H   0  0  0  0  0  0  0  0  0  0  0  0
   -4.7088   24.6647  -28.0140 H   0  0  0  0  0  0  0  0  0  0  0  0
   -3.9190   22.4481  -28.8468 H   0  0  0  0  0  0  0  0  0  0  0  0
   -0.6638   19.4521  -28.3596 H   0  0  0  0  0  0  0  0  0  0  0  0
   -0.8867   21.6735  -27.2466 H   0  0  0  0  0  0  0  0  0  0  0  0
  1  2  1  0
  2  3  2  0
  2  4  2  0
  2  5  1  0
  5  6  2  0
  6  7  1  0
  7  8  2  0
  8  9  1  0
  9 10  1  0
 10 11  2  0
 10 12  1  0
 12 13  1  0
 13 14  1  0
 14 15  2  0
 15 16  1  0
 16 17  2  0
 17 18  1  0
 18 19  2  0
 19 20  1  0
 20 21  2  0
 21 22  1  0
 22 23  2  0
 17 24  1  0
 24 25  1  0
 25 26  1  0
 26 27  1  0
 27 28  2  0
 28 29  1  0
 29 30  2  0
 30 31  1  0
 31 32  2  0
  8 33  1  0
 33 34  2  0
 34  5  1  0
 24 14  1  0
 32 27  1  0
 23 18  1  0
  1 35  1  0
  1 36  1  0
  6 37  1  0
  7 38  1  0
 12 39  1  0
 12 40  1  0
 19 41  1  0
 20 42  1  0
 21 43  1  0
 22 44  1  0
 25 45  1  0
 25 46  1  0
 26 47  1  0
 26 48  1  0
 28 49  1  0
 29 50  1  0
 30 51  1  0
 31 52  1  0
 32 53  1  0
 33 54  1  0
 34 55  1  0
M  CHG  1   9  -1
M  END
>  <UniqueID>  (26) 
26

>  <SMILES>  (26) 
NS(=O)(=O)c1ccc([N-]C(=O)CSc2nnc(-c3ccccn3)n2CCc2ccccc2)cc1

>  <Energy>  (26) 
96.09720044283823

>  <Genealogy>  (26) 
NS(=O)(=O)c1ccc([N-]C(=O)CSc2nnc(-c3ccccn3)n2CCc2ccccc2)cc1 (protonated)
NS(=O)(=O)c1ccc([N-]C(=O)CSc2nnc(-c3ccccn3)n2CCc2ccccc2)cc1 (3D coordinates assigned)
NS(=O)(=O)c1ccc([N-]C(=O)CSc2nnc(-c3ccccn3)n2CCc2ccccc2)cc1 (optimized conformer: 96.09720044283823 kcal/mol)

>  <smiles>  (26) 
NS(=O)(=O)c1ccc(NC(=O)CSc2nnc(-c3ccccn3)n2CCc2ccccc2)cc1

>  <score_type>  (26) 
oracle

>  <origin>  (26) 
adgpu

>  <m_score__min__energy>  (26) 
-11.83

>  <m_primary>  (26) 
energy

$$$$
26:0
     RDKit          3D

 40 43  0  0  0  0  0  0  0  0999 V2000
   -8.9050   20.1170  -31.5740 O   0  0  0  0  0  0  0  0  0  0  0  0
   -7.8940   20.8630  -31.4850 C   0  0  0  0  0  0  0  0  0  0  0  0
   -8.0400   22.0840  -30.9770 O   0  0  0  0  0  0  0  0  0  0  0  0
   -7.0330   22.9450  -30.8700 C   0  0  0  0  0  0  0  0  0  0  0  0
   -7.2530   24.2140  -30.3230 C   0  0  0  0  0  0  0  0  0  0  0  0
   -6.1950   25.1220  -30.2110 C   0  0  0  0  0  0  0  0  0  0  0  0
   -4.9130   24.7660  -30.6450 C   0  0  0  0  0  0  0  0  0  0  0  0
   -3.8660   25.6720  -30.5300 O   0  0  0  0  0  0  0  0  0  0  0  0
   -4.6830   23.4990  -31.1920 C   0  0  0  0  0  0  0  0  0  0  0  0
   -5.7410   22.5850  -31.3070 C   0  0  0  0  0  0  0  0  0  0  0  0
   -5.5500   21.3100  -31.8450 C   0  0  0  0  0  0  0  0  0  0  0  0
   -6.6320   20.4210  -31.9360 C   0  0  0  0  0  0  0  0  0  0  0  0
   -6.4300   19.0630  -32.4990 C   0  0  0  0  0  0  0  0  0  0  0  0
   -6.2930   18.8820  -33.8850 C   0  0  0  0  0  0  0  0  0  0  0  0
   -6.0950   17.6060  -34.4170 C   0  0  0  0  0  0  0  0  0  0  0  0
   -6.0270   16.4850  -33.5740 C   0  0  0  0  0  0  0  0  0  0  0  0
   -5.8110   15.1730  -34.1270 N   0  0  0  0  0  0  0  0  0  0  0  0
   -6.9600   14.3240  -34.4670 C   0  0  0  0  0  0  0  0  0  0  0  0
   -6.4990   12.8940  -34.7540 C   0  0  0  0  0  0  0  0  0  0  0  0
   -5.4630   12.5480  -33.8620 O   0  0  0  0  0  0  0  0  0  0  0  0
   -4.2670   13.2190  -34.2190 C   0  0  0  0  0  0  0  0  0  0  0  0
   -4.4560   14.7320  -34.4860 C   0  0  0  0  0  0  0  0  0  0  0  0
   -6.1480   16.6660  -32.1870 C   0  0  0  0  0  0  0  0  0  0  0  0
   -6.3480   17.9420  -31.6540 C   0  0  0  0  0  0  0  0  0  0  0  0
   -8.2591   24.4978  -29.9807 H   0  0  0  0  0  0  0  0  0  0  0  0
   -6.3711   26.1188  -29.7805 H   0  0  0  0  0  0  0  0  0  0  0  0
   -3.6745   23.2201  -31.5313 H   0  0  0  0  0  0  0  0  0  0  0  0
   -4.5537   21.0036  -32.1965 H   0  0  0  0  0  0  0  0  0  0  0  0
   -6.3420   19.7518  -34.5566 H   0  0  0  0  0  0  0  0  0  0  0  0
   -5.9915   17.4781  -35.5046 H   0  0  0  0  0  0  0  0  0  0  0  0
   -7.6662   14.3149  -33.6237 H   0  0  0  0  0  0  0  0  0  0  0  0
   -7.4495   14.7285  -35.3652 H   0  0  0  0  0  0  0  0  0  0  0  0
   -7.3440   12.2024  -34.6211 H   0  0  0  0  0  0  0  0  0  0  0  0
   -6.1309   12.8272  -35.7884 H   0  0  0  0  0  0  0  0  0  0  0  0
   -3.5439   13.0991  -33.3988 H   0  0  0  0  0  0  0  0  0  0  0  0
   -3.9153   12.7690  -35.1591 H   0  0  0  0  0  0  0  0  0  0  0  0
   -3.7254   15.2954  -33.8870 H   0  0  0  0  0  0  0  0  0  0  0  0
   -4.3043   14.9164  -35.5598 H   0  0  0  0  0  0  0  0  0  0  0  0
   -6.0849   15.7972  -31.5153 H   0  0  0  0  0  0  0  0  0  0  0  0
   -6.4420   18.0706  -30.5656 H   0  0  0  0  0  0  0  0  0  0  0  0
  1  2  2  0
  2  3  1  0
  3  4  1  0
  4  5  2  0
  5  6  1  0
  6  7  2  0
  7  8  1  0
  7  9  1  0
  9 10  2  0
 10 11  1  0
 11 12  2  0
 12 13  1  0
 13 14  2  0
 14 15  1  0
 15 16  2  0
 16 17  1  0
 17 18  1  0
 18 19  1  0
 19 20  1  0
 20 21  1  0
 21 22  1  0
 16 23  1  0
 23 24  2  0
 12  2  1  0
 24 13  1  0
 10  4  1  0
 22 17  1  0
  5 25  1  0
  6 26  1  0
  9 27  1  0
 11 28  1  0
 14 29  1  0
 15 30  1  0
 18 31  1  0
 18 32  1  0
 19 33  1  0
 19 34  1  0
 21 35  1  0
 21 36  1  0
 22 37  1  0
 22 38  1  0
 23 39  1  0
 24 40  1  0
M  CHG  1   8  -1
M  END
>  <UniqueID>  (27) 
27

>  <SMILES>  (27) 
O=c1oc2ccc([O-])cc2cc1-c1ccc(N2CCOCC2)cc1

>  <Energy>  (27) 
65.44481041091443

>  <Genealogy>  (27) 
O=c1oc2ccc([O-])cc2cc1-c1ccc(N2CCOCC2)cc1 (protonated)
O=c1oc2ccc([O-])cc2cc1-c1ccc(N2CCOCC2)cc1 (3D coordinates assigned)
O=c1oc2ccc([O-])cc2cc1-c1ccc(N2CCOCC2)cc1 (nonaromatic ring conformer: 65.44481041091443 kcal/mol)

>  <smiles>  (27) 
O=c1oc2ccc(O)cc2cc1-c1ccc(N2CCOCC2)cc1

>  <score_type>  (27) 
oracle

>  <origin>  (27) 
adgpu

>  <m_score__min__energy>  (27) 
-11.279999999999999

>  <m_primary>  (27) 
energy

$$$$
27:0
     RDKit          3D

 43 45  0  0  0  0  0  0  0  0999 V2000
   -4.0140   23.7970  -28.6270 O   0  0  0  0  0  0  0  0  0  0  0  0
   -3.3270   23.8870  -29.9620 S   0  0  0  0  0  0  0  0  0  0  0  0
   -1.8460   23.9980  -29.7290 O   0  0  0  0  0  0  0  0  0  0  0  0
   -3.8780   25.2980  -30.8110 N   0  0  0  0  0  0  0  0  0  0  0  0
   -5.2370   25.6280  -30.3920 C   0  0  0  0  0  0  0  0  0  0  0  0
   -6.1480   24.4840  -30.7340 C   0  0  0  0  0  0  0  0  0  0  0  0
   -6.7260   23.7120  -29.7160 C   0  0  0  0  0  0  0  0  0  0  0  0
   -7.5420   22.6300  -30.0540 C   0  0  0  0  0  0  0  0  0  0  0  0
   -7.7630   22.3230  -31.3600 N   0  0  0  0  0  0  0  0  0  0  0  0
   -7.2030   23.0460  -32.3660 C   0  0  0  0  0  0  0  0  0  0  0  0
   -6.3800   24.1370  -32.0720 C   0  0  0  0  0  0  0  0  0  0  0  0
   -3.6510   22.4420  -30.9150 C   0  0  0  0  0  0  0  0  0  0  0  0
   -3.6300   22.5140  -32.3140 C   0  0  0  0  0  0  0  0  0  0  0  0
   -3.9020   21.3790  -33.0820 C   0  0  0  0  0  0  0  0  0  0  0  0
   -4.1960   20.1590  -32.4570 C   0  0  0  0  0  0  0  0  0  0  0  0
   -4.5170   18.7180  -33.4250 S   0  0  0  0  0  0  0  0  0  0  0  0
   -4.1960   17.4960  -32.6120 O   0  0  0  0  0  0  0  0  0  0  0  0
   -3.6170   18.7220  -34.6290 O   0  0  0  0  0  0  0  0  0  0  0  0
   -6.1860   18.6390  -33.9520 N   0  0  0  0  0  0  0  0  0  0  0  0
   -6.8540   17.4460  -33.4220 C   0  0  0  0  0  0  0  0  0  0  0  0
   -7.6490   17.8480  -32.1880 C   0  0  0  0  0  0  0  0  0  0  0  0
   -7.7120   19.3620  -32.2120 C   0  0  0  0  0  0  0  0  0  0  0  0
   -6.9520   19.7900  -33.4590 C   0  0  0  0  0  0  0  0  0  0  0  0
   -4.2320   20.0900  -31.0580 C   0  0  0  0  0  0  0  0  0  0  0  0
   -3.9600   21.2270  -30.2900 C   0  0  0  0  0  0  0  0  0  0  0  0
   -5.2557   25.8018  -29.3060 H   0  0  0  0  0  0  0  0  0  0  0  0
   -5.5740   26.5379  -30.9102 H   0  0  0  0  0  0  0  0  0  0  0  0
   -6.5383   23.9565  -28.6601 H   0  0  0  0  0  0  0  0  0  0  0  0
   -8.0069   22.0248  -29.2618 H   0  0  0  0  0  0  0  0  0  0  0  0
   -7.3979   22.7719  -33.4133 H   0  0  0  0  0  0  0  0  0  0  0  0
   -5.9184   24.7182  -32.8838 H   0  0  0  0  0  0  0  0  0  0  0  0
   -3.3984   23.4682  -32.8099 H   0  0  0  0  0  0  0  0  0  0  0  0
   -3.8854   21.4428  -34.1800 H   0  0  0  0  0  0  0  0  0  0  0  0
   -7.5325   17.0317  -34.1822 H   0  0  0  0  0  0  0  0  0  0  0  0
   -6.1084   16.6814  -33.1584 H   0  0  0  0  0  0  0  0  0  0  0  0
   -8.6622   17.4218  -32.2296 H   0  0  0  0  0  0  0  0  0  0  0  0
   -7.1790   17.4771  -31.2652 H   0  0  0  0  0  0  0  0  0  0  0  0
   -8.7571   19.7009  -32.2654 H   0  0  0  0  0  0  0  0  0  0  0  0
   -7.2752   19.7994  -31.3021 H   0  0  0  0  0  0  0  0  0  0  0  0
   -7.6617   20.1222  -34.2310 H   0  0  0  0  0  0  0  0  0  0  0  0
   -6.2731   20.6222  -33.2211 H   0  0  0  0  0  0  0  0  0  0  0  0
   -4.4749   19.1387  -30.5621 H   0  0  0  0  0  0  0  0  0  0  0  0
   -3.9888   21.1669  -29.1920 H   0  0  0  0  0  0  0  0  0  0  0  0
  1  2  2  0
  2  3  2  0
  2  4  1  0
  4  5  1  0
  5  6  1  0
  6  7  2  0
  7  8  1  0
  8  9  2  0
  9 10  1  0
 10 11  2  0
  2 12  1  0
 12 13  2  0
 13 14  1  0
 14 15  2  0
 15 16  1  0
 16 17  2  0
 16 18  2  0
 16 19  1  0
 19 20  1  0
 20 21  1  0
 21 22  1  0
 22 23  1  0
 15 24  1  0
 24 25  2  0
 11  6  1  0
 25 12  1  0
 23 19  1  0
  5 26  1  0
  5 27  1  0
  7 28  1  0
  8 29  1  0
 10 30  1  0
 11 31  1  0
 13 32  1  0
 14 33  1  0
 20 34  1  0
 20 35  1  0
 21 36  1  0
 21 37  1  0
 22 38  1  0
 22 39  1  0
 23 40  1  0
 23 41  1  0
 24 42  1  0
 25 43  1  0
M  CHG  1   4  -1
M  END
>  <UniqueID>  (28) 
28

>  <SMILES>  (28) 
O=S(=O)([N-]Cc1ccncc1)c1ccc(S(=O)(=O)N2CCCC2)cc1

>  <Energy>  (28) 
42.607765598510596

>  <Genealogy>  (28) 
O=S(=O)([N-]Cc1ccncc1)c1ccc(S(=O)(=O)N2CCCC2)cc1 (protonated)
O=S(=O)([N-]Cc1ccncc1)c1ccc(S(=O)(=O)N2CCCC2)cc1 (3D coordinates assigned)
O=S(=O)([N-]Cc1ccncc1)c1ccc(S(=O)(=O)N2CCCC2)cc1 (nonaromatic ring conformer: 42.607765598510596 kcal/mol)

>  <smiles>  (28) 
O=S(=O)(NCc1ccncc1)c1ccc(S(=O)(=O)N2CCCC2)cc1

>  <score_type>  (28) 
oracle

>  <origin>  (28) 
adgpu

>  <m_score__min__energy>  (28) 
-10.390000000000001

>  <m_primary>  (28) 
energy

$$$$
28:0
     RDKit          3D

 68 72  0  0  0  0  0  0  0  0999 V2000
    0.2193   25.0897  -26.5866 H   0  0  0  0  0  0  0  0  0  0  0  0
   -0.7060   25.0170  -27.1770 C   0  0  0  0  0  0  0  0  0  0  0  0
   -2.1270   24.2520  -26.6950 S   0  0  0  0  0  0  0  0  0  0  0  0
   -2.9300   24.6200  -28.1230 C   0  0  0  0  0  0  0  0  0  0  0  0
   -4.1550   24.2660  -28.3680 N   0  0  0  0  0  0  0  0  0  0  0  0
   -5.0110   24.6280  -29.8330 S   0  0  0  0  0  0  0  0  0  0  0  0
   -4.0770   25.2630  -30.8260 O   0  0  0  0  0  0  0  0  0  0  0  0
   -6.1450   25.5720  -29.5450 O   0  0  0  0  0  0  0  0  0  0  0  0
   -5.6510   23.1310  -30.5000 C   0  0  0  0  0  0  0  0  0  0  0  0
   -4.7960   22.0550  -30.7710 C   0  0  0  0  0  0  0  0  0  0  0  0
   -3.7178   22.1506  -30.5752 H   0  0  0  0  0  0  0  0  0  0  0  0
   -5.3050   20.8600  -31.2890 C   0  0  0  0  0  0  0  0  0  0  0  0
   -4.6258   20.0215  -31.5026 H   0  0  0  0  0  0  0  0  0  0  0  0
   -6.6850   20.7270  -31.5380 C   0  0  0  0  0  0  0  0  0  0  0  0
   -7.5360   21.8140  -31.2790 C   0  0  0  0  0  0  0  0  0  0  0  0
   -7.0250   23.0030  -30.7490 C   0  0  0  0  0  0  0  0  0  0  0  0
   -7.7029   23.8403  -30.5268 H   0  0  0  0  0  0  0  0  0  0  0  0
   -8.9040   21.7010  -31.5450 O   0  0  0  0  0  0  0  0  0  0  0  0
   -9.4220   20.6370  -32.3420 C   0  0  0  0  0  0  0  0  0  0  0  0
   -9.2598   20.8687  -33.4050 H   0  0  0  0  0  0  0  0  0  0  0  0
  -10.4975   20.5299  -32.1376 H   0  0  0  0  0  0  0  0  0  0  0  0
   -8.7190   19.3210  -32.0000 C   0  0  0  0  0  0  0  0  0  0  0  0
   -9.0093   18.5532  -32.7323 H   0  0  0  0  0  0  0  0  0  0  0  0
   -9.0170   19.0077  -30.9885 H   0  0  0  0  0  0  0  0  0  0  0  0
   -7.2620   19.4990  -32.0360 N   0  0  0  0  0  0  0  0  0  0  0  0
   -6.4440   18.3710  -32.3830 C   0  0  0  0  0  0  0  0  0  0  0  0
   -6.2070   17.3730  -31.4300 C   0  0  0  0  0  0  0  0  0  0  0  0
   -6.6425   17.4637  -30.4240 H   0  0  0  0  0  0  0  0  0  0  0  0
   -5.4220   16.2640  -31.7480 C   0  0  0  0  0  0  0  0  0  0  0  0
   -5.2307   15.4919  -30.9883 H   0  0  0  0  0  0  0  0  0  0  0  0
   -4.8740   16.1300  -33.0380 C   0  0  0  0  0  0  0  0  0  0  0  0
   -4.0880   15.0280  -33.4190 O   0  0  0  0  0  0  0  0  0  0  0  0
   -2.7390   15.0910  -33.8840 C   0  0  0  0  0  0  0  0  0  0  0  0
   -2.3122   14.0772  -33.8803 H   0  0  0  0  0  0  0  0  0  0  0  0
   -2.7444   15.5108  -34.9007 H   0  0  0  0  0  0  0  0  0  0  0  0
   -1.8770   15.9980  -32.9940 C   0  0  0  0  0  0  0  0  0  0  0  0
   -2.3549   16.0861  -32.0072 H   0  0  0  0  0  0  0  0  0  0  0  0
   -0.8780   15.5451  -32.9114 H   0  0  0  0  0  0  0  0  0  0  0  0
   -1.7150   17.4050  -33.5960 C   0  0  0  0  0  0  0  0  0  0  0  0
   -0.7607   17.4547  -34.1408 H   0  0  0  0  0  0  0  0  0  0  0  0
   -2.5592   17.5929  -34.2757 H   0  0  0  0  0  0  0  0  0  0  0  0
   -1.7230   18.4450  -32.5370 N   0  0  0  0  0  0  0  0  0  0  0  0
   -0.4210   19.1560  -32.4060 C   0  0  0  0  0  0  0  0  0  0  0  0
   -0.1614   19.2044  -31.3382 H   0  0  0  0  0  0  0  0  0  0  0  0
    0.3091   18.5860  -32.9994 H   0  0  0  0  0  0  0  0  0  0  0  0
   -0.4200   20.5940  -32.9690 C   0  0  0  0  0  0  0  0  0  0  0  0
   -0.7774   21.2846  -32.1909 H   0  0  0  0  0  0  0  0  0  0  0  0
    0.6062   20.8497  -33.2717 H   0  0  0  0  0  0  0  0  0  0  0  0
   -1.3280   20.7070  -34.1910 C   0  0  0  0  0  0  0  0  0  0  0  0
   -1.3130   21.7455  -34.5534 H   0  0  0  0  0  0  0  0  0  0  0  0
   -0.9557   20.0188  -34.9641 H   0  0  0  0  0  0  0  0  0  0  0  0
   -2.7770   20.3160  -33.8510 C   0  0  0  0  0  0  0  0  0  0  0  0
   -3.3463   21.2317  -33.6333 H   0  0  0  0  0  0  0  0  0  0  0  0
   -3.1868   19.7772  -34.7180 H   0  0  0  0  0  0  0  0  0  0  0  0
   -2.8720   19.3750  -32.6320 C   0  0  0  0  0  0  0  0  0  0  0  0
   -2.9069   19.9858  -31.7178 H   0  0  0  0  0  0  0  0  0  0  0  0
   -3.7818   18.7682  -32.7507 H   0  0  0  0  0  0  0  0  0  0  0  0
   -5.1100   17.1300  -33.9880 C   0  0  0  0  0  0  0  0  0  0  0  0
   -4.6828   17.0315  -34.9969 H   0  0  0  0  0  0  0  0  0  0  0  0
   -5.8850   18.2580  -33.6710 C   0  0  0  0  0  0  0  0  0  0  0  0
   -6.1430   19.3110  -34.7130 C   0  0  0  0  0  0  0  0  0  0  0  0
   -6.3769   20.2658  -34.2194 H   0  0  0  0  0  0  0  0  0  0  0  0
   -5.2481   19.4325  -35.3409 H   0  0  0  0  0  0  0  0  0  0  0  0
   -6.9927   19.0050  -35.3409 H   0  0  0  0  0  0  0  0  0  0  0  0
   -2.1400   25.3190  -28.9720 N   0  0  0  0  0  0  0  0  0  0  0  0
   -2.4180   25.6570  -29.9190 H   0  0  0  0  0  0  0  0  0  0  0  0
   -0.9040   25.5410  -28.4500 C   0  0  0  0  0  0  0  0  0  0  0  0
   -0.1217   26.0921  -28.9924 H   0  0  0  0  0  0  0  0  0  0  0  0
  1  2  1  0
  2  3  1  0
  3  4  1  0
  4  5  2  0
  5  6  1  0
  6  7  2  0
  6  8  2  0
  6  9  1  0
  9 10  2  0
 10 11  1  0
 10 12  1  0
 12 13  1  0
 12 14  2  0
 14 15  1  0
 15 16  2  0
 16 17  1  0
 15 18  1  0
 18 19  1  0
 19 20  1  0
 19 21  1  0
 19 22  1  0
 22 23  1  0
 22 24  1  0
 22 25  1  0
 25 26  1  0
 26 27  2  0
 27 28  1  0
 27 29  1  0
 29 30  1  0
 29 31  2  0
 31 32  1  0
 32 33  1  0
 33 34  1  0
 33 35  1  0
 33 36  1  0
 36 37  1  0
 36 38  1  0
 36 39  1  0
 39 40  1  0
 39 41  1  0
 39 42  1  0
 42 43  1  0
 43 44  1  0
 43 45  1  0
 43 46  1  0
 46 47  1  0
 46 48  1  0
 46 49  1  0
 49 50  1  0
 49 51  1  0
 49 52  1  0
 52 53  1  0
 52 54  1  0
 52 55  1  0
 55 56  1  0
 55 57  1  0
 31 58  1  0
 58 59  1  0
 58 60  2  0
 60 61  1  0
 61 62  1  0
 61 63  1  0
 61 64  1  0
  4 65  1  0
 65 66  1  0
 65 67  1  0
 67 68  1  0
 67  2  2  0
 16  9  1  0
 60 26  1  0
 25 14  1  0
 55 42  1  0
M  END
>  <UniqueID>  (29) 
29

>  <SMILES>  (29) 
Cc1cc(OCCCN2CCCCC2)ccc1N1CCOc2cc(S(=O)(=O)/N=c3\[nH]ccs3)ccc21

>  <Energy>  (29) 
120.72808401593926

>  <Genealogy>  (29) 
Cc1cc(OCCCN2CCCCC2)ccc1N1CCOc2cc(S(=O)(=O)/N=c3\[nH]ccs3)ccc21 (cis-trans isomerization)
Cc1cc(OCCCN2CCCCC2)ccc1N1CCOc2cc(S(=O)(=O)/N=c3\[nH]ccs3)ccc21 (3D coordinates assigned)
Cc1cc(OCCCN2CCCCC2)ccc1N1CCOc2cc(S(=O)(=O)/N=c3\[nH]ccs3)ccc21 (nonaromatic ring conformer: 120.72808401593926 kcal/mol)

>  <smiles>  (29) 
Cc1cc(OCCCN2CCCCC2)ccc1N1CCOc2cc(S(=O)(=O)N=c3[nH]ccs3)ccc21

>  <score_type>  (29) 
oracle

>  <origin>  (29) 
adgpu

>  <m_score__min__energy>  (29) 
-11.44

>  <m_primary>  (29) 
energy

$$$$
29:0
     RDKit          3D

 54 56  0  0  0  0  0  0  0  0999 V2000
   -6.3850   17.6520  -31.2750 C   0  0  0  0  0  0  0  0  0  0  0  0
   -7.5120   17.4560  -32.1020 O   0  0  0  0  0  0  0  0  0  0  0  0
   -8.5670   18.3160  -31.7090 C   0  0  0  0  0  0  0  0  0  0  0  0
   -8.7300   19.4720  -32.7060 C   0  0  0  0  0  0  0  0  0  0  0  0
   -7.4690   20.2100  -32.8990 N   0  0  0  0  0  0  0  0  0  0  0  0
   -6.5030   19.6990  -33.8800 C   0  0  0  0  0  0  0  0  0  0  0  0
   -7.1450   21.3810  -32.1030 C   0  0  0  0  0  0  0  0  0  0  0  0
   -6.1000   22.2460  -32.4910 C   0  0  0  0  0  0  0  0  0  0  0  0
   -5.7980   23.3840  -31.7400 C   0  0  0  0  0  0  0  0  0  0  0  0
   -6.5350   23.6920  -30.5950 C   0  0  0  0  0  0  0  0  0  0  0  0
   -6.1390   25.1390  -29.6720 S   0  0  0  0  0  0  0  0  0  0  0  0
   -7.3690   25.7340  -29.0440 O   0  0  0  0  0  0  0  0  0  0  0  0
   -5.5310   26.1500  -30.6030 O   0  0  0  0  0  0  0  0  0  0  0  0
   -4.9960   24.7370  -28.4310 N   0  0  0  0  0  0  0  0  0  0  0  0
   -3.8640   23.8740  -28.6530 C   0  0  0  0  0  0  0  0  0  0  0  0
   -3.6490   22.7360  -27.8550 C   0  0  0  0  0  0  0  0  0  0  0  0
   -2.5410   21.9050  -28.0720 C   0  0  0  0  0  0  0  0  0  0  0  0
   -1.6130   22.2300  -29.0810 C   0  0  0  0  0  0  0  0  0  0  0  0
   -1.8320   23.3560  -29.8850 C   0  0  0  0  0  0  0  0  0  0  0  0
   -2.9410   24.1790  -29.6690 C   0  0  0  0  0  0  0  0  0  0  0  0
   -3.1260   25.2930  -30.4810 O   0  0  0  0  0  0  0  0  0  0  0  0
   -0.4370   21.3270  -29.3750 C   0  0  0  0  0  0  0  0  0  0  0  0
   -0.0640   20.4750  -28.2270 N   0  0  0  0  0  0  0  0  0  0  0  0
    0.6900   21.2230  -27.2050 C   0  0  0  0  0  0  0  0  0  0  0  0
   -1.2380   19.7760  -27.6700 C   0  0  0  0  0  0  0  0  0  0  0  0
   -2.3020   20.7480  -27.1390 C   0  0  0  0  0  0  0  0  0  0  0  0
   -7.5760   22.8460  -30.1960 C   0  0  0  0  0  0  0  0  0  0  0  0
   -7.8750   21.7000  -30.9390 C   0  0  0  0  0  0  0  0  0  0  0  0
   -6.6909   17.5988  -30.2197 H   0  0  0  0  0  0  0  0  0  0  0  0
   -5.6390   16.8701  -31.4804 H   0  0  0  0  0  0  0  0  0  0  0  0
   -5.9468   18.6398  -31.4804 H   0  0  0  0  0  0  0  0  0  0  0  0
   -9.5040   17.7412  -31.6673 H   0  0  0  0  0  0  0  0  0  0  0  0
   -8.3297   18.7350  -30.7200 H   0  0  0  0  0  0  0  0  0  0  0  0
   -9.0555   19.0639  -33.6742 H   0  0  0  0  0  0  0  0  0  0  0  0
   -9.4765   20.1707  -32.3004 H   0  0  0  0  0  0  0  0  0  0  0  0
   -5.6494   19.2475  -33.3532 H   0  0  0  0  0  0  0  0  0  0  0  0
   -6.9880   18.9395  -34.5108 H   0  0  0  0  0  0  0  0  0  0  0  0
   -6.1480   20.5273  -34.5108 H   0  0  0  0  0  0  0  0  0  0  0  0
   -5.5162   22.0213  -33.3958 H   0  0  0  0  0  0  0  0  0  0  0  0
   -4.9739   24.0421  -32.0527 H   0  0  0  0  0  0  0  0  0  0  0  0
   -5.0760   25.2610  -27.5320 H   0  0  0  0  0  0  0  0  0  0  0  0
   -4.3593   22.4949  -27.0504 H   0  0  0  0  0  0  0  0  0  0  0  0
   -1.1251   23.5946  -30.6933 H   0  0  0  0  0  0  0  0  0  0  0  0
   -0.6970   20.6776  -30.2240 H   0  0  0  0  0  0  0  0  0  0  0  0
    0.4252   21.9716  -29.6010 H   0  0  0  0  0  0  0  0  0  0  0  0
    0.3671   20.9026  -26.2035 H   0  0  0  0  0  0  0  0  0  0  0  0
    1.7654   21.0247  -27.3244 H   0  0  0  0  0  0  0  0  0  0  0  0
    0.5003   22.2999  -27.3244 H   0  0  0  0  0  0  0  0  0  0  0  0
   -1.6881   19.1571  -28.4602 H   0  0  0  0  0  0  0  0  0  0  0  0
   -0.8927   19.1629  -26.8245 H   0  0  0  0  0  0  0  0  0  0  0  0
   -3.2465   20.1998  -27.0072 H   0  0  0  0  0  0  0  0  0  0  0  0
   -1.9360   21.1568  -26.1856 H   0  0  0  0  0  0  0  0  0  0  0  0
   -8.1608   23.0834  -29.2951 H   0  0  0  0  0  0  0  0  0  0  0  0
   -8.6904   21.0383  -30.6114 H   0  0  0  0  0  0  0  0  0  0  0  0
  1  2  1  0
  2  3  1  0
  3  4  1  0
  4  5  1  0
  5  6  1  0
  5  7  1  0
  7  8  2  0
  8  9  1  0
  9 10  2  0
 10 11  1  0
 11 12  2  0
 11 13  2  0
 11 14  1  0
 14 15  1  0
 15 16  2  0
 16 17  1  0
 17 18  2  0
 18 19  1  0
 19 20  2  0
 20 21  1  0
 18 22  1  0
 22 23  1  0
 23 24  1  0
 23 25  1  0
 25 26  1  0
 10 27  1  0
 27 28  2  0
 28  7  1  0
 20 15  1  0
 26 17  1  0
  1 29  1  0
  1 30  1  0
  1 31  1  0
  3 32  1  0
  3 33  1  0
  4 34  1  0
  4 35  1  0
  6 36  1  0
  6 37  1  0
  6 38  1  0
  8 39  1  0
  9 40  1  0
 14 41  1  0
 16 42  1  0
 19 43  1  0
 22 44  1  0
 22 45  1  0
 24 46  1  0
 24 47  1  0
 24 48  1  0
 25 49  1  0
 25 50  1  0
 26 51  1  0
 26 52  1  0
 27 53  1  0
 28 54  1  0
M  CHG  1  21  -1
M  END
>  <UniqueID>  (30) 
30

>  <SMILES>  (30) 
COCCN(C)c1ccc(S(=O)(=O)Nc2cc3c(cc2[O-])CN(C)CC3)cc1

>  <Energy>  (30) 
66.65085818494077

>  <Genealogy>  (30) 
COCCN(C)c1ccc(S(=O)(=O)Nc2cc3c(cc2[O-])CN(C)CC3)cc1 (protonated)
COCCN(C)c1ccc(S(=O)(=O)Nc2cc3c(cc2[O-])CN(C)CC3)cc1 (3D coordinates assigned)
COCCN(C)c1ccc(S(=O)(=O)Nc2cc3c(cc2[O-])CN(C)CC3)cc1 (nonaromatic ring conformer: 66.65085818494077 kcal/mol)

>  <smiles>  (30) 
COCCN(C)c1ccc(S(=O)(=O)Nc2cc3c(cc2O)CN(C)CC3)cc1

>  <score_type>  (30) 
oracle

>  <origin>  (30) 
adgpu

>  <m_score__min__energy>  (30) 
-11.880000000000001

>  <m_primary>  (30) 
energy

$$$$
30:0
     RDKit          3D

 59 62  0  0  0  0  0  0  0  0999 V2000
   -6.0890   26.1260  -30.3090 O   0  0  0  0  0  0  0  0  0  0  0  0
   -5.2830   25.1930  -30.5700 C   0  0  0  0  0  0  0  0  0  0  0  0
   -3.8700   25.3900  -30.4050 N   0  0  0  0  0  0  0  0  0  0  0  0
   -2.9130   24.4230  -29.9450 C   0  0  0  0  0  0  0  0  0  0  0  0
   -3.0880   23.0430  -30.1590 C   0  0  0  0  0  0  0  0  0  0  0  0
   -2.1240   22.1280  -29.7090 C   0  0  0  0  0  0  0  0  0  0  0  0
   -2.3120   20.4020  -30.0060 S   0  0  0  0  0  0  0  0  0  0  0  0
   -3.7610   20.1280  -30.3020 O   0  0  0  0  0  0  0  0  0  0  0  0
   -1.9050   19.6180  -28.7890 O   0  0  0  0  0  0  0  0  0  0  0  0
   -1.3290   19.9180  -31.3670 N   0  0  0  0  0  0  0  0  0  0  0  0
   -2.1350   19.1060  -32.3080 C   0  0  0  0  0  0  0  0  0  0  0  0
   -1.4620   19.0110  -33.6810 C   0  0  0  0  0  0  0  0  0  0  0  0
   -1.3220   20.3980  -34.3310 C   0  0  0  0  0  0  0  0  0  0  0  0
   -1.3090   21.5390  -33.3000 C   0  0  0  0  0  0  0  0  0  0  0  0
   -0.6560   21.0910  -31.9840 C   0  0  0  0  0  0  0  0  0  0  0  0
   -0.9990   22.5920  -29.0170 C   0  0  0  0  0  0  0  0  0  0  0  0
   -0.8430   23.9550  -28.7630 C   0  0  0  0  0  0  0  0  0  0  0  0
   -1.7980   24.8690  -29.2200 C   0  0  0  0  0  0  0  0  0  0  0  0
   -1.6290   26.2240  -28.9590 O   0  0  0  0  0  0  0  0  0  0  0  0
   -5.8030   23.8650  -30.9680 C   0  0  0  0  0  0  0  0  0  0  0  0
   -5.3640   23.2490  -32.1550 C   0  0  0  0  0  0  0  0  0  0  0  0
   -5.8220   21.9750  -32.5020 C   0  0  0  0  0  0  0  0  0  0  0  0
   -6.7290   21.2990  -31.6770 C   0  0  0  0  0  0  0  0  0  0  0  0
   -7.2510   19.6730  -32.1090 S   0  0  0  0  0  0  0  0  0  0  0  0
   -8.2360   19.1630  -31.0930 O   0  0  0  0  0  0  0  0  0  0  0  0
   -7.9250   19.7280  -33.4530 O   0  0  0  0  0  0  0  0  0  0  0  0
   -5.8480   18.6270  -32.1760 N   0  0  0  0  0  0  0  0  0  0  0  0
   -5.0640   18.8470  -33.4040 C   0  0  0  0  0  0  0  0  0  0  0  0
   -5.7350   18.2250  -34.6520 C   0  0  0  0  0  0  0  0  0  0  0  0
   -6.7330   17.2670  -34.3420 O   0  0  0  0  0  0  0  0  0  0  0  0
   -6.2890   16.4240  -33.3030 C   0  0  0  0  0  0  0  0  0  0  0  0
   -6.2080   17.2050  -31.9800 C   0  0  0  0  0  0  0  0  0  0  0  0
   -7.1880   21.9150  -30.5070 C   0  0  0  0  0  0  0  0  0  0  0  0
   -6.7270   23.1850  -30.1510 C   0  0  0  0  0  0  0  0  0  0  0  0
   -3.9851   22.6798  -30.6817 H   0  0  0  0  0  0  0  0  0  0  0  0
   -2.2531   18.0928  -31.8962 H   0  0  0  0  0  0  0  0  0  0  0  0
   -3.1137   19.5919  -32.4346 H   0  0  0  0  0  0  0  0  0  0  0  0
   -0.4619   18.5691  -33.5602 H   0  0  0  0  0  0  0  0  0  0  0  0
   -2.0882   18.3835  -34.3323 H   0  0  0  0  0  0  0  0  0  0  0  0
   -0.3806   20.4267  -34.8993 H   0  0  0  0  0  0  0  0  0  0  0  0
   -2.1956   20.5490  -34.9822 H   0  0  0  0  0  0  0  0  0  0  0  0
   -0.7424   22.3876  -33.7110 H   0  0  0  0  0  0  0  0  0  0  0  0
   -2.3486   21.8316  -33.0911 H   0  0  0  0  0  0  0  0  0  0  0  0
    0.3924   20.8264  -32.1861 H   0  0  0  0  0  0  0  0  0  0  0  0
   -0.7412   21.9276  -31.2749 H   0  0  0  0  0  0  0  0  0  0  0  0
   -0.2352   21.8794  -28.6723 H   0  0  0  0  0  0  0  0  0  0  0  0
    0.0333   24.3117  -28.2019 H   0  0  0  0  0  0  0  0  0  0  0  0
   -4.6561   23.7735  -32.8136 H   0  0  0  0  0  0  0  0  0  0  0  0
   -5.4677   21.5005  -33.4290 H   0  0  0  0  0  0  0  0  0  0  0  0
   -4.9551   19.9298  -33.5643 H   0  0  0  0  0  0  0  0  0  0  0  0
   -4.0873   18.3589  -33.2702 H   0  0  0  0  0  0  0  0  0  0  0  0
   -6.1985   19.0332  -35.2367 H   0  0  0  0  0  0  0  0  0  0  0  0
   -4.9479   17.7005  -35.2136 H   0  0  0  0  0  0  0  0  0  0  0  0
   -6.9940   15.5874  -33.1881 H   0  0  0  0  0  0  0  0  0  0  0  0
   -5.2888   16.0418  -33.5549 H   0  0  0  0  0  0  0  0  0  0  0  0
   -7.1875   17.1556  -31.4819 H   0  0  0  0  0  0  0  0  0  0  0  0
   -5.4172   16.7436  -31.3703 H   0  0  0  0  0  0  0  0  0  0  0  0
   -7.9152   21.3968  -29.8647 H   0  0  0  0  0  0  0  0  0  0  0  0
   -7.0884   23.6573  -29.2257 H   0  0  0  0  0  0  0  0  0  0  0  0
  1  2  2  0
  2  3  1  0
  3  4  1  0
  4  5  2  0
  5  6  1  0
  6  7  1  0
  7  8  2  0
  7  9  2  0
  7 10  1  0
 10 11  1  0
 11 12  1  0
 12 13  1  0
 13 14  1  0
 14 15  1  0
  6 16  2  0
 16 17  1  0
 17 18  2  0
 18 19  1  0
  2 20  1  0
 20 21  2  0
 21 22  1  0
 22 23  2  0
 23 24  1  0
 24 25  2  0
 24 26  2  0
 24 27  1  0
 27 28  1  0
 28 29  1  0
 29 30  1  0
 30 31  1  0
 31 32  1  0
 23 33  1  0
 33 34  2  0
 18  4  1  0
 34 20  1  0
 15 10  1  0
 32 27  1  0
  5 35  1  0
 11 36  1  0
 11 37  1  0
 12 38  1  0
 12 39  1  0
 13 40  1  0
 13 41  1  0
 14 42  1  0
 14 43  1  0
 15 44  1  0
 15 45  1  0
 16 46  1  0
 17 47  1  0
 21 48  1  0
 22 49  1  0
 28 50  1  0
 28 51  1  0
 29 52  1  0
 29 53  1  0
 31 54  1  0
 31 55  1  0
 32 56  1  0
 32 57  1  0
 33 58  1  0
 34 59  1  0
M  CHG  2   3  -1  19  -1
M  END
>  <UniqueID>  (31) 
31

>  <SMILES>  (31) 
O=C([N-]c1cc(S(=O)(=O)N2CCCCC2)ccc1[O-])c1ccc(S(=O)(=O)N2CCOCC2)cc1

>  <Energy>  (31) 
82.3243697572178

>  <Genealogy>  (31) 
O=C([N-]c1cc(S(=O)(=O)N2CCCCC2)ccc1[O-])c1ccc(S(=O)(=O)N2CCOCC2)cc1 (protonated)
O=C([N-]c1cc(S(=O)(=O)N2CCCCC2)ccc1[O-])c1ccc(S(=O)(=O)N2CCOCC2)cc1 (3D coordinates assigned)
O=C([N-]c1cc(S(=O)(=O)N2CCCCC2)ccc1[O-])c1ccc(S(=O)(=O)N2CCOCC2)cc1 (nonaromatic ring conformer: 82.3243697572178 kcal/mol)

>  <smiles>  (31) 
O=C(Nc1cc(S(=O)(=O)N2CCCCC2)ccc1O)c1ccc(S(=O)(=O)N2CCOCC2)cc1

>  <score_type>  (31) 
oracle

>  <origin>  (31) 
adgpu

>  <m_score__min__energy>  (31) 
-15.66

>  <m_primary>  (31) 
energy

$$$$
31:0
     RDKit          3D

 54 57  0  0  0  0  0  0  0  0999 V2000
    1.0410   24.7400  -25.7230 C   0  0  0  0  0  0  0  0  0  0  0  0
    0.4170   24.2070  -26.9750 C   0  0  0  0  0  0  0  0  0  0  0  0
    0.8660   24.5870  -28.0900 O   0  0  0  0  0  0  0  0  0  0  0  0
   -0.6330   23.2190  -26.9190 N   0  0  0  0  0  0  0  0  0  0  0  0
   -0.5060   22.0910  -25.9880 C   0  0  0  0  0  0  0  0  0  0  0  0
   -0.9080   20.7930  -26.6850 C   0  0  0  0  0  0  0  0  0  0  0  0
   -2.3500   20.8800  -27.1860 C   0  0  0  0  0  0  0  0  0  0  0  0
   -2.6130   22.1510  -27.9570 C   0  0  0  0  0  0  0  0  0  0  0  0
   -3.7430   22.2200  -28.7870 C   0  0  0  0  0  0  0  0  0  0  0  0
   -4.0690   23.4100  -29.4480 C   0  0  0  0  0  0  0  0  0  0  0  0
   -5.4650   23.4840  -30.5210 S   0  0  0  0  0  0  0  0  0  0  0  0
   -5.3360   24.6960  -31.4020 O   0  0  0  0  0  0  0  0  0  0  0  0
   -6.7280   23.6120  -29.7140 O   0  0  0  0  0  0  0  0  0  0  0  0
   -5.5270   22.0440  -31.5050 N   0  0  0  0  0  0  0  0  0  0  0  0
   -6.9350   21.7100  -31.8340 C   0  0  0  0  0  0  0  0  0  0  0  0
   -7.0710   20.8240  -33.0900 C   0  0  0  0  0  0  0  0  0  0  0  0
   -5.8180   20.1150  -33.3700 N   0  0  0  0  0  0  0  0  0  0  0  0
   -5.8070   18.6940  -33.6170 C   0  0  0  0  0  0  0  0  0  0  0  0
   -4.7300   18.0960  -34.2950 C   0  0  0  0  0  0  0  0  0  0  0  0
   -4.7170   16.7160  -34.5220 C   0  0  0  0  0  0  0  0  0  0  0  0
   -5.7730   15.9220  -34.0690 C   0  0  0  0  0  0  0  0  0  0  0  0
   -6.8420   16.5050  -33.3850 C   0  0  0  0  0  0  0  0  0  0  0  0
   -6.8610   17.8840  -33.1570 C   0  0  0  0  0  0  0  0  0  0  0  0
   -4.5750   20.8900  -33.4660 C   0  0  0  0  0  0  0  0  0  0  0  0
   -4.7070   22.2250  -32.7170 C   0  0  0  0  0  0  0  0  0  0  0  0
   -3.2700   24.5410  -29.2670 C   0  0  0  0  0  0  0  0  0  0  0  0
   -2.1520   24.4900  -28.4330 C   0  0  0  0  0  0  0  0  0  0  0  0
   -1.7970   23.2930  -27.7800 C   0  0  0  0  0  0  0  0  0  0  0  0
    0.5343   24.3072  -24.8478 H   0  0  0  0  0  0  0  0  0  0  0  0
    2.1069   24.4693  -25.7006 H   0  0  0  0  0  0  0  0  0  0  0  0
    0.9403   25.8351  -25.7006 H   0  0  0  0  0  0  0  0  0  0  0  0
    0.5374   22.0144  -25.6482 H   0  0  0  0  0  0  0  0  0  0  0  0
   -1.1672   22.2580  -25.1249 H   0  0  0  0  0  0  0  0  0  0  0  0
   -0.2376   20.6180  -27.5394 H   0  0  0  0  0  0  0  0  0  0  0  0
   -0.8299   19.9638  -25.9664 H   0  0  0  0  0  0  0  0  0  0  0  0
   -2.5488   20.0203  -27.8428 H   0  0  0  0  0  0  0  0  0  0  0  0
   -3.0122   20.8761  -26.3077 H   0  0  0  0  0  0  0  0  0  0  0  0
   -4.3777   21.3313  -28.9191 H   0  0  0  0  0  0  0  0  0  0  0  0
   -5.1200   21.2660  -30.9330 H   0  0  0  0  0  0  0  0  0  0  0  0
   -7.3766   21.1759  -30.9797 H   0  0  0  0  0  0  0  0  0  0  0  0
   -7.4556   22.6562  -32.0430 H   0  0  0  0  0  0  0  0  0  0  0  0
   -7.8721   20.0882  -32.9264 H   0  0  0  0  0  0  0  0  0  0  0  0
   -7.3095   21.4678  -33.9494 H   0  0  0  0  0  0  0  0  0  0  0  0
   -3.8935   18.7167  -34.6486 H   0  0  0  0  0  0  0  0  0  0  0  0
   -3.8740   16.2554  -35.0580 H   0  0  0  0  0  0  0  0  0  0  0  0
   -5.7627   14.8372  -34.2510 H   0  0  0  0  0  0  0  0  0  0  0  0
   -7.6708   15.8777  -33.0249 H   0  0  0  0  0  0  0  0  0  0  0  0
   -7.7040   18.3378  -32.6154 H   0  0  0  0  0  0  0  0  0  0  0  0
   -3.7521   20.3085  -33.0248 H   0  0  0  0  0  0  0  0  0  0  0  0
   -4.3698   21.0987  -34.5264 H   0  0  0  0  0  0  0  0  0  0  0  0
   -3.7069   22.5823  -32.4303 H   0  0  0  0  0  0  0  0  0  0  0  0
   -5.1919   22.9616  -33.3745 H   0  0  0  0  0  0  0  0  0  0  0  0
   -3.5233   25.4778  -29.7849 H   0  0  0  0  0  0  0  0  0  0  0  0
   -1.5420   25.3932  -28.2840 H   0  0  0  0  0  0  0  0  0  0  0  0
  1  2  1  0
  2  3  2  0
  2  4  1  0
  4  5  1  0
  5  6  1  0
  6  7  1  0
  7  8  1  0
  8  9  2  0
  9 10  1  0
 10 11  1  0
 11 12  2  0
 11 13  2  0
 11 14  1  0
 14 15  1  0
 15 16  1  0
 16 17  1  0
 17 18  1  0
 18 19  2  0
 19 20  1  0
 20 21  2  0
 21 22  1  0
 22 23  2  0
 17 24  1  0
 24 25  1  0
 10 26  2  0
 26 27  1  0
 27 28  2  0
 28  4  1  0
 28  8  1  0
 25 14  1  0
 23 18  1  0
  1 29  1  0
  1 30  1  0
  1 31  1  0
  5 32  1  0
  5 33  1  0
  6 34  1  0
  6 35  1  0
  7 36  1  0
  7 37  1  0
  9 38  1  0
 14 39  1  0
 15 40  1  0
 15 41  1  0
 16 42  1  0
 16 43  1  0
 19 44  1  0
 20 45  1  0
 21 46  1  0
 22 47  1  0
 23 48  1  0
 24 49  1  0
 24 50  1  0
 25 51  1  0
 25 52  1  0
 26 53  1  0
 27 54  1  0
M  CHG  1  14   1
M  END
>  <UniqueID>  (32) 
32

>  <SMILES>  (32) 
CC(=O)N1CCCc2cc(S(=O)(=O)[NH+]3CCN(c4ccccc4)CC3)ccc21

>  <Energy>  (32) 
68.49877518072154

>  <Genealogy>  (32) 
CC(=O)N1CCCc2cc(S(=O)(=O)[NH+]3CCN(c4ccccc4)CC3)ccc21 (protonated)
CC(=O)N1CCCc2cc(S(=O)(=O)[NH+]3CCN(c4ccccc4)CC3)ccc21 (3D coordinates assigned)
CC(=O)N1CCCc2cc(S(=O)(=O)[NH+]3CCN(c4ccccc4)CC3)ccc21 (nonaromatic ring conformer: 68.49877518072154 kcal/mol)

>  <smiles>  (32) 
CC(=O)N1CCCc2cc(S(=O)(=O)N3CCN(c4ccccc4)CC3)ccc21

>  <score_type>  (32) 
oracle

>  <origin>  (32) 
adgpu

>  <m_score__min__energy>  (32) 
-9.0899999999999999

>  <m_primary>  (32) 
energy

$$$$
32:0
     RDKit          3D

 71 75  0  0  0  0  0  0  0  0999 V2000
    0.6940   20.4490  -31.5200 O   0  0  0  0  0  0  0  0  0  0  0  0
   -0.4700   20.9330  -31.4540 C   0  0  0  0  0  0  0  0  0  0  0  0
   -0.6910   22.0780  -30.6220 N   0  0  0  0  0  0  0  0  0  0  0  0
   -1.8640   22.2820  -29.8250 C   0  0  0  0  0  0  0  0  0  0  0  0
   -2.8510   23.1640  -30.2840 C   0  0  0  0  0  0  0  0  0  0  0  0
   -3.9940   23.4210  -29.5150 C   0  0  0  0  0  0  0  0  0  0  0  0
   -5.1970   24.5970  -30.0660 S   0  0  0  0  0  0  0  0  0  0  0  0
   -4.5090   25.6410  -30.9000 O   0  0  0  0  0  0  0  0  0  0  0  0
   -5.7910   25.2840  -28.8650 O   0  0  0  0  0  0  0  0  0  0  0  0
   -6.4950   23.8750  -30.9900 N   0  0  0  0  0  0  0  0  0  0  0  0
   -5.9950   23.0280  -32.0710 C   0  0  0  0  0  0  0  0  0  0  0  0
   -7.0750   22.0070  -32.3500 C   0  0  0  0  0  0  0  0  0  0  0  0
   -7.7790   21.8290  -31.0190 C   0  0  0  0  0  0  0  0  0  0  0  0
   -7.3690   23.0300  -30.1690 C   0  0  0  0  0  0  0  0  0  0  0  0
   -4.1510   22.7770  -28.2810 C   0  0  0  0  0  0  0  0  0  0  0  0
   -3.1810   21.8840  -27.8210 C   0  0  0  0  0  0  0  0  0  0  0  0
   -2.0350   21.6210  -28.5890 C   0  0  0  0  0  0  0  0  0  0  0  0
   -1.0920   20.6400  -28.1250 N   0  0  0  0  0  0  0  0  0  0  0  0
   -1.5690   19.2930  -27.8030 C   0  0  0  0  0  0  0  0  0  0  0  0
   -0.3970   18.3820  -27.4460 C   0  0  0  0  0  0  0  0  0  0  0  0
    0.6480   18.6000  -28.3710 O   0  0  0  0  0  0  0  0  0  0  0  0
    1.2870   19.8350  -28.1010 C   0  0  0  0  0  0  0  0  0  0  0  0
    0.3110   21.0240  -27.9120 C   0  0  0  0  0  0  0  0  0  0  0  0
   -1.5730   20.2780  -32.1930 C   0  0  0  0  0  0  0  0  0  0  0  0
   -2.7770   20.9630  -32.4170 C   0  0  0  0  0  0  0  0  0  0  0  0
   -3.8270   20.3420  -33.0960 C   0  0  0  0  0  0  0  0  0  0  0  0
   -3.6780   19.0400  -33.5910 C   0  0  0  0  0  0  0  0  0  0  0  0
   -5.0010   18.2430  -34.4370 S   0  0  0  0  0  0  0  0  0  0  0  0
   -5.9880   19.2730  -34.9070 O   0  0  0  0  0  0  0  0  0  0  0  0
   -4.4400   17.5450  -35.6450 O   0  0  0  0  0  0  0  0  0  0  0  0
   -5.7560   17.0690  -33.3780 N   0  0  0  0  0  0  0  0  0  0  0  0
   -5.2830   17.1560  -31.9820 C   0  0  0  0  0  0  0  0  0  0  0  0
   -5.9130   18.3200  -31.2040 C   0  0  0  0  0  0  0  0  0  0  0  0
   -7.4380   18.2750  -31.2920 C   0  0  0  0  0  0  0  0  0  0  0  0
   -7.8950   18.2260  -32.7480 C   0  0  0  0  0  0  0  0  0  0  0  0
   -7.2280   17.0600  -33.4900 C   0  0  0  0  0  0  0  0  0  0  0  0
   -2.4660   18.3700  -33.4080 C   0  0  0  0  0  0  0  0  0  0  0  0
   -1.4180   18.9850  -32.7210 C   0  0  0  0  0  0  0  0  0  0  0  0
   -2.7275   23.6599  -31.2581 H   0  0  0  0  0  0  0  0  0  0  0  0
   -5.8022   23.6326  -32.9695 H   0  0  0  0  0  0  0  0  0  0  0  0
   -5.0496   22.5408  -31.7902 H   0  0  0  0  0  0  0  0  0  0  0  0
   -7.7742   22.3788  -33.1134 H   0  0  0  0  0  0  0  0  0  0  0  0
   -6.6680   21.0618  -32.7386 H   0  0  0  0  0  0  0  0  0  0  0  0
   -8.8697   21.8145  -31.1612 H   0  0  0  0  0  0  0  0  0  0  0  0
   -7.5029   20.8789  -30.5382 H   0  0  0  0  0  0  0  0  0  0  0  0
   -8.2614   23.5968  -29.8649 H   0  0  0  0  0  0  0  0  0  0  0  0
   -6.8451   22.6998  -29.2599 H   0  0  0  0  0  0  0  0  0  0  0  0
   -5.0441   22.9760  -27.6704 H   0  0  0  0  0  0  0  0  0  0  0  0
   -3.3154   21.3833  -26.8508 H   0  0  0  0  0  0  0  0  0  0  0  0
   -2.2584   19.3479  -26.9476 H   0  0  0  0  0  0  0  0  0  0  0  0
   -2.0865   18.8794  -28.6811 H   0  0  0  0  0  0  0  0  0  0  0  0
   -0.0453   18.6134  -26.4298 H   0  0  0  0  0  0  0  0  0  0  0  0
   -0.7164   17.3301  -27.4845 H   0  0  0  0  0  0  0  0  0  0  0  0
    1.8786   19.7239  -27.1803 H   0  0  0  0  0  0  0  0  0  0  0  0
    1.9072   20.0699  -28.9786 H   0  0  0  0  0  0  0  0  0  0  0  0
    0.4195   21.4100  -26.8877 H   0  0  0  0  0  0  0  0  0  0  0  0
    0.5659   21.7880  -28.6612 H   0  0  0  0  0  0  0  0  0  0  0  0
   -2.8942   21.9953  -32.0555 H   0  0  0  0  0  0  0  0  0  0  0  0
   -4.7763   20.8779  -33.2431 H   0  0  0  0  0  0  0  0  0  0  0  0
   -5.5328   16.2158  -31.4685 H   0  0  0  0  0  0  0  0  0  0  0  0
   -4.1977   17.3321  -32.0138 H   0  0  0  0  0  0  0  0  0  0  0  0
   -5.6113   18.2523  -30.1483 H   0  0  0  0  0  0  0  0  0  0  0  0
   -5.5641   19.2657  -31.6443 H   0  0  0  0  0  0  0  0  0  0  0  0
   -7.8033   17.3790  -30.7689 H   0  0  0  0  0  0  0  0  0  0  0  0
   -7.8455   19.1836  -30.8246 H   0  0  0  0  0  0  0  0  0  0  0  0
   -8.9868   18.0957  -32.7790 H   0  0  0  0  0  0  0  0  0  0  0  0
   -7.6074   19.1671  -33.2395 H   0  0  0  0  0  0  0  0  0  0  0  0
   -7.6054   16.1160  -33.0699 H   0  0  0  0  0  0  0  0  0  0  0  0
   -7.4766   17.1646  -34.5564 H   0  0  0  0  0  0  0  0  0  0  0  0
   -2.3369   17.3531  -33.8071 H   0  0  0  0  0  0  0  0  0  0  0  0
   -0.4636   18.4535  -32.5920 H   0  0  0  0  0  0  0  0  0  0  0  0
  1  2  2  0
  2  3  1  0
  3  4  1  0
  4  5  2  0
  5  6  1  0
  6  7  1  0
  7  8  2  0
  7  9  2  0
  7 10  1  0
 10 11  1  0
 11 12  1  0
 12 13  1  0
 13 14  1  0
  6 15  2  0
 15 16  1  0
 16 17  2  0
 17 18  1  0
 18 19  1  0
 19 20  1  0
 20 21  1  0
 21 22  1  0
 22 23  1  0
  2 24  1  0
 24 25  2  0
 25 26  1  0
 26 27  2  0
 27 28  1  0
 28 29  2  0
 28 30  2  0
 28 31  1  0
 31 32  1  0
 32 33  1  0
 33 34  1  0
 34 35  1  0
 35 36  1  0
 27 37  1  0
 37 38  2  0
 17  4  1  0
 23 18  1  0
 38 24  1  0
 14 10  1  0
 36 31  1  0
  5 39  1  0
 11 40  1  0
 11 41  1  0
 12 42  1  0
 12 43  1  0
 13 44  1  0
 13 45  1  0
 14 46  1  0
 14 47  1  0
 15 48  1  0
 16 49  1  0
 19 50  1  0
 19 51  1  0
 20 52  1  0
 20 53  1  0
 22 54  1  0
 22 55  1  0
 23 56  1  0
 23 57  1  0
 25 58  1  0
 26 59  1  0
 32 60  1  0
 32 61  1  0
 33 62  1  0
 33 63  1  0
 34 64  1  0
 34 65  1  0
 35 66  1  0
 35 67  1  0
 36 68  1  0
 36 69  1  0
 37 70  1  0
 38 71  1  0
M  CHG  1   3  -1
M  END
>  <UniqueID>  (33) 
33

>  <SMILES>  (33) 
O=C([N-]c1cc(S(=O)(=O)N2CCCC2)ccc1N1CCOCC1)c1ccc(S(=O)(=O)N2CCCCC2)cc1

>  <Energy>  (33) 
95.24287774908444

>  <Genealogy>  (33) 
O=C([N-]c1cc(S(=O)(=O)N2CCCC2)ccc1N1CCOCC1)c1ccc(S(=O)(=O)N2CCCCC2)cc1 (protonated)
O=C([N-]c1cc(S(=O)(=O)N2CCCC2)ccc1N1CCOCC1)c1ccc(S(=O)(=O)N2CCCCC2)cc1 (3D coordinates assigned)
O=C([N-]c1cc(S(=O)(=O)N2CCCC2)ccc1N1CCOCC1)c1ccc(S(=O)(=O)N2CCCCC2)cc1 (nonaromatic ring conformer: 95.24287774908444 kcal/mol)

>  <smiles>  (33) 
O=C(Nc1cc(S(=O)(=O)N2CCCC2)ccc1N1CCOCC1)c1ccc(S(=O)(=O)N2CCCCC2)cc1

>  <score_type>  (33) 
oracle

>  <origin>  (33) 
adgpu

>  <m_score__min__energy>  (33) 
-13.17

>  <m_primary>  (33) 
energy

$$$$
33:0
     RDKit          3D

 46 48  0  0  0  0  0  0  0  0999 V2000
   -9.5600   19.3300  -32.3470 O   0  0  0  0  0  0  0  0  0  0  0  0
   -8.0770   19.3780  -32.1090 S   0  0  0  0  0  0  0  0  0  0  0  0
   -7.7440   18.5390  -30.9060 O   0  0  0  0  0  0  0  0  0  0  0  0
   -7.6000   21.0520  -31.8420 C   0  0  0  0  0  0  0  0  0  0  0  0
   -8.5180   22.0950  -31.9900 C   0  0  0  0  0  0  0  0  0  0  0  0
   -8.1350   23.4060  -31.7050 C   0  0  0  0  0  0  0  0  0  0  0  0
   -6.8410   23.6910  -31.2530 C   0  0  0  0  0  0  0  0  0  0  0  0
   -6.5440   25.0140  -30.9190 O   0  0  0  0  0  0  0  0  0  0  0  0
   -5.8950   22.6440  -31.1220 C   0  0  0  0  0  0  0  0  0  0  0  0
   -4.5470   22.9110  -30.6850 N   0  0  0  0  0  0  0  0  0  0  0  0
   -3.9320   22.2920  -29.5080 C   0  0  0  0  0  0  0  0  0  0  0  0
   -2.6900   23.0420  -29.0850 C   0  0  0  0  0  0  0  0  0  0  0  0
   -1.6820   22.3820  -28.3620 C   0  0  0  0  0  0  0  0  0  0  0  0
   -0.5380   23.0710  -27.9540 C   0  0  0  0  0  0  0  0  0  0  0  0
   -0.3870   24.4250  -28.2630 C   0  0  0  0  0  0  0  0  0  0  0  0
    0.7510   25.1060  -27.8450 O   0  0  0  0  0  0  0  0  0  0  0  0
   -1.3790   25.0910  -28.9910 C   0  0  0  0  0  0  0  0  0  0  0  0
   -1.2240   26.4380  -29.3030 O   0  0  0  0  0  0  0  0  0  0  0  0
   -2.5270   24.4040  -29.4080 C   0  0  0  0  0  0  0  0  0  0  0  0
   -3.5030   25.0770  -30.1360 O   0  0  0  0  0  0  0  0  0  0  0  0
   -6.2930   21.3300  -31.4310 C   0  0  0  0  0  0  0  0  0  0  0  0
   -7.2220   18.7720  -33.5070 N   0  0  0  0  0  0  0  0  0  0  0  0
   -6.1150   19.6830  -33.8940 C   0  0  0  0  0  0  0  0  0  0  0  0
   -4.7320   19.1530  -33.4900 C   0  0  0  0  0  0  0  0  0  0  0  0
   -4.4620   17.7740  -34.1170 C   0  0  0  0  0  0  0  0  0  0  0  0
   -5.7400   16.9330  -34.2790 C   0  0  0  0  0  0  0  0  0  0  0  0
   -6.8180   17.3680  -33.2790 C   0  0  0  0  0  0  0  0  0  0  0  0
   -9.5420   21.8826  -32.3310 H   0  0  0  0  0  0  0  0  0  0  0  0
   -8.8577   24.2247  -31.8369 H   0  0  0  0  0  0  0  0  0  0  0  0
   -5.6440   25.3160  -30.5730 H   0  0  0  0  0  0  0  0  0  0  0  0
   -3.9500   23.5720  -31.2300 H   0  0  0  0  0  0  0  0  0  0  0  0
   -4.6554   22.2987  -28.6793 H   0  0  0  0  0  0  0  0  0  0  0  0
   -3.6471   21.2609  -29.7643 H   0  0  0  0  0  0  0  0  0  0  0  0
   -1.7948   21.3158  -28.1158 H   0  0  0  0  0  0  0  0  0  0  0  0
    0.2460   22.5465  -27.3881 H   0  0  0  0  0  0  0  0  0  0  0  0
   -5.5650   20.5096  -31.3479 H   0  0  0  0  0  0  0  0  0  0  0  0
   -6.1347   19.8142  -34.9860 H   0  0  0  0  0  0  0  0  0  0  0  0
   -6.2707   20.6336  -33.3629 H   0  0  0  0  0  0  0  0  0  0  0  0
   -3.9622   19.8602  -33.8325 H   0  0  0  0  0  0  0  0  0  0  0  0
   -4.7035   19.0505  -32.3952 H   0  0  0  0  0  0  0  0  0  0  0  0
   -4.0099   17.9212  -35.1089 H   0  0  0  0  0  0  0  0  0  0  0  0
   -3.7894   17.2277  -33.4394 H   0  0  0  0  0  0  0  0  0  0  0  0
   -6.1262   17.0597  -35.3012 H   0  0  0  0  0  0  0  0  0  0  0  0
   -5.4910   15.8788  -34.0875 H   0  0  0  0  0  0  0  0  0  0  0  0
   -7.6979   16.7180  -33.3943 H   0  0  0  0  0  0  0  0  0  0  0  0
   -6.4052   17.2844  -32.2628 H   0  0  0  0  0  0  0  0  0  0  0  0
  1  2  2  0
  2  3  2  0
  2  4  1  0
  4  5  2  0
  5  6  1  0
  6  7  2  0
  7  8  1  0
  7  9  1  0
  9 10  1  0
 10 11  1  0
 11 12  1  0
 12 13  2  0
 13 14  1  0
 14 15  2  0
 15 16  1  0
 15 17  1  0
 17 18  1  0
 17 19  2  0
 19 20  1  0
  9 21  2  0
  2 22  1  0
 22 23  1  0
 23 24  1  0
 24 25  1  0
 25 26  1  0
 26 27  1  0
 21  4  1  0
 27 22  1  0
 19 12  1  0
  5 28  1  0
  6 29  1  0
  8 30  1  0
 10 31  1  0
 11 32  1  0
 11 33  1  0
 13 34  1  0
 14 35  1  0
 21 36  1  0
 23 37  1  0
 23 38  1  0
 24 39  1  0
 24 40  1  0
 25 41  1  0
 25 42  1  0
 26 43  1  0
 26 44  1  0
 27 45  1  0
 27 46  1  0
M  CHG  3  16  -1  18  -1  20  -1
M  END
>  <UniqueID>  (34) 
34

>  <SMILES>  (34) 
O=S(=O)(c1ccc(O)c(NCc2ccc([O-])c([O-])c2[O-])c1)N1CCCCC1

>  <Energy>  (34) 
53.3241119488979

>  <Genealogy>  (34) 
O=S(=O)(c1ccc(O)c(NCc2ccc([O-])c([O-])c2[O-])c1)N1CCCCC1 (protonated)
O=S(=O)(c1ccc(O)c(NCc2ccc([O-])c([O-])c2[O-])c1)N1CCCCC1 (3D coordinates assigned)
O=S(=O)(c1ccc(O)c(NCc2ccc([O-])c([O-])c2[O-])c1)N1CCCCC1 (nonaromatic ring conformer: 53.3241119488979 kcal/mol)

>  <smiles>  (34) 
O=S(=O)(c1ccc(O)c(NCc2ccc(O)c(O)c2O)c1)N1CCCCC1

>  <score_type>  (34) 
oracle

>  <origin>  (34) 
adgpu

>  <m_score__min__energy>  (34) 
-15.41

>  <m_primary>  (34) 
energy

$$$$
34:0
     RDKit          3D

 33 35  0  0  0  0  0  0  0  0999 V2000
   -8.6560   17.8440  -32.0200 O   0  0  0  0  0  0  0  0  0  0  0  0
   -7.1820   17.9680  -32.2880 S   0  0  0  0  0  0  0  0  0  0  0  0
   -6.4540   17.0380  -31.3580 O   0  0  0  0  0  0  0  0  0  0  0  0
   -6.6990   19.6320  -31.9670 C   0  0  0  0  0  0  0  0  0  0  0  0
   -5.3870   19.9120  -31.5720 C   0  0  0  0  0  0  0  0  0  0  0  0
   -4.9990   21.2260  -31.2950 C   0  0  0  0  0  0  0  0  0  0  0  0
   -5.9200   22.2840  -31.4070 C   0  0  0  0  0  0  0  0  0  0  0  0
   -5.5050   23.6340  -31.1180 N   0  0  0  0  0  0  0  0  0  0  0  0
   -6.2550   24.6940  -30.7610 C   0  0  0  0  0  0  0  0  0  0  0  0
   -5.4660   25.7710  -30.5850 N   0  0  0  0  0  0  0  0  0  0  0  0
   -4.2360   25.3500  -30.8400 N   0  0  0  0  0  0  0  0  0  0  0  0
   -4.2560   24.0650  -31.1610 N   0  0  0  0  0  0  0  0  0  0  0  0
   -7.2400   21.9920  -31.8000 C   0  0  0  0  0  0  0  0  0  0  0  0
   -7.6250   20.6770  -32.0770 C   0  0  0  0  0  0  0  0  0  0  0  0
   -6.8620   17.5460  -33.9590 N   0  0  0  0  0  0  0  0  0  0  0  0
   -5.8680   18.4440  -34.5740 C   0  0  0  0  0  0  0  0  0  0  0  0
   -4.4330   18.1640  -34.0700 C   0  0  0  0  0  0  0  0  0  0  0  0
   -4.2810   16.8890  -33.4690 O   0  0  0  0  0  0  0  0  0  0  0  0
   -4.9670   15.9110  -34.2170 C   0  0  0  0  0  0  0  0  0  0  0  0
   -6.4900   16.1210  -34.1020 C   0  0  0  0  0  0  0  0  0  0  0  0
   -4.6570   19.0944  -31.4789 H   0  0  0  0  0  0  0  0  0  0  0  0
   -3.9640   21.4350  -30.9866 H   0  0  0  0  0  0  0  0  0  0  0  0
   -7.3474   24.6819  -30.6325 H   0  0  0  0  0  0  0  0  0  0  0  0
   -7.9748   22.8057  -31.8899 H   0  0  0  0  0  0  0  0  0  0  0  0
   -8.6596   20.4621  -32.3827 H   0  0  0  0  0  0  0  0  0  0  0  0
   -5.8931   18.3053  -35.6649 H   0  0  0  0  0  0  0  0  0  0  0  0
   -6.1277   19.4756  -34.2941 H   0  0  0  0  0  0  0  0  0  0  0  0
   -3.7450   18.2293  -34.9258 H   0  0  0  0  0  0  0  0  0  0  0  0
   -4.2109   18.9137  -33.2963 H   0  0  0  0  0  0  0  0  0  0  0  0
   -4.6689   15.9866  -35.2731 H   0  0  0  0  0  0  0  0  0  0  0  0
   -4.7121   14.9157  -33.8241 H   0  0  0  0  0  0  0  0  0  0  0  0
   -6.9695   15.7216  -35.0079 H   0  0  0  0  0  0  0  0  0  0  0  0
   -6.8296   15.5970  -33.1964 H   0  0  0  0  0  0  0  0  0  0  0  0
  1  2  2  0
  2  3  2  0
  2  4  1  0
  4  5  2  0
  5  6  1  0
  6  7  2  0
  7  8  1  0
  8  9  1  0
  9 10  2  0
 10 11  1  0
 11 12  2  0
  7 13  1  0
 13 14  2  0
  2 15  1  0
 15 16  1  0
 16 17  1  0
 17 18  1  0
 18 19  1  0
 19 20  1  0
 14  4  1  0
 20 15  1  0
 12  8  1  0
  5 21  1  0
  6 22  1  0
  9 23  1  0
 13 24  1  0
 14 25  1  0
 16 26  1  0
 16 27  1  0
 17 28  1  0
 17 29  1  0
 19 30  1  0
 19 31  1  0
 20 32  1  0
 20 33  1  0
M  END
>  <UniqueID>  (35) 
35

>  <SMILES>  (35) 
O=S(=O)(c1ccc(-n2cnnn2)cc1)N1CCOCC1

>  <Energy>  (35) 
86.99290536399687

>  <Genealogy>  (35) 
O=S(=O)(c1ccc(-n2cnnn2)cc1)N1CCOCC1 (3D coordinates assigned)
O=S(=O)(c1ccc(-n2cnnn2)cc1)N1CCOCC1 (nonaromatic ring conformer: 86.99290536399687 kcal/mol)

>  <smiles>  (35) 
O=S(=O)(c1ccc(-n2cnnn2)cc1)N1CCOCC1

>  <score_type>  (35) 
oracle

>  <origin>  (35) 
adgpu

>  <m_score__min__energy>  (35) 
-8.3300000000000001

>  <m_primary>  (35) 
energy

$$$$
35:0
     RDKit          3D

 40 42  0  0  0  0  0  0  0  0999 V2000
   -3.4410   18.5880  -26.0660 C   0  0  0  0  0  0  0  0  0  0  0  0
   -2.9720   19.0870  -27.3150 O   0  0  0  0  0  0  0  0  0  0  0  0
   -2.3930   20.3520  -27.4970 C   0  0  0  0  0  0  0  0  0  0  0  0
   -1.0160   20.4790  -27.3290 C   0  0  0  0  0  0  0  0  0  0  0  0
   -0.3940   21.7160  -27.4920 C   0  0  0  0  0  0  0  0  0  0  0  0
   -1.1360   22.8590  -27.8290 C   0  0  0  0  0  0  0  0  0  0  0  0
   -0.2480   24.3840  -28.0210 S   0  0  0  0  0  0  0  0  0  0  0  0
   -0.5970   25.0180  -29.3400 O   0  0  0  0  0  0  0  0  0  0  0  0
    1.2310   24.1270  -28.0010 O   0  0  0  0  0  0  0  0  0  0  0  0
   -0.6880   25.4960  -26.7380 C   0  0  0  0  0  0  0  0  0  0  0  0
    0.1850   26.0290  -25.8120 C   0  0  0  0  0  0  0  0  0  0  0  0
   -0.5790   26.8350  -24.9900 C   0  0  0  0  0  0  0  0  0  0  0  0
   -1.8790   26.7570  -25.4540 C   0  0  0  0  0  0  0  0  0  0  0  0
   -1.9390   25.9390  -26.5210 N   0  0  0  0  0  0  0  0  0  0  0  0
   -2.5390   22.7390  -28.0280 C   0  0  0  0  0  0  0  0  0  0  0  0
   -3.5720   24.1150  -28.4770 S   0  0  0  0  0  0  0  0  0  0  0  0
   -2.7360   25.2670  -28.9580 O   0  0  0  0  0  0  0  0  0  0  0  0
   -4.3660   24.5600  -27.2810 O   0  0  0  0  0  0  0  0  0  0  0  0
   -4.6800   23.6850  -29.7860 C   0  0  0  0  0  0  0  0  0  0  0  0
   -6.0090   24.1330  -29.7420 C   0  0  0  0  0  0  0  0  0  0  0  0
   -6.8930   23.8230  -30.7790 C   0  0  0  0  0  0  0  0  0  0  0  0
   -6.4540   23.0700  -31.8700 C   0  0  0  0  0  0  0  0  0  0  0  0
   -5.1300   22.6280  -31.9280 C   0  0  0  0  0  0  0  0  0  0  0  0
   -4.2410   22.9350  -30.8920 C   0  0  0  0  0  0  0  0  0  0  0  0
   -2.9530   22.5180  -30.9830 F   0  0  0  0  0  0  0  0  0  0  0  0
   -3.1500   21.4850  -27.8430 C   0  0  0  0  0  0  0  0  0  0  0  0
   -2.9389   19.1222  -25.2459 H   0  0  0  0  0  0  0  0  0  0  0  0
   -4.5276   18.7433  -25.9938 H   0  0  0  0  0  0  0  0  0  0  0  0
   -3.2187   17.5131  -25.9938 H   0  0  0  0  0  0  0  0  0  0  0  0
   -0.4147   19.5963  -27.0657 H   0  0  0  0  0  0  0  0  0  0  0  0
    0.6943   21.7976  -27.3545 H   0  0  0  0  0  0  0  0  0  0  0  0
    1.2679   25.8490  -25.7424 H   0  0  0  0  0  0  0  0  0  0  0  0
   -0.2221   27.4245  -24.1326 H   0  0  0  0  0  0  0  0  0  0  0  0
   -2.7381   27.2858  -25.0155 H   0  0  0  0  0  0  0  0  0  0  0  0
   -2.7950   25.6970  -27.0680 H   0  0  0  0  0  0  0  0  0  0  0  0
   -6.3568   24.7312  -28.8869 H   0  0  0  0  0  0  0  0  0  0  0  0
   -7.9352   24.1723  -30.7358 H   0  0  0  0  0  0  0  0  0  0  0  0
   -7.1514   22.8246  -32.6845 H   0  0  0  0  0  0  0  0  0  0  0  0
   -4.7857   22.0375  -32.7898 H   0  0  0  0  0  0  0  0  0  0  0  0
   -4.2383   21.3896  -27.9713 H   0  0  0  0  0  0  0  0  0  0  0  0
  1  2  1  0
  2  3  1  0
  3  4  2  0
  4  5  1  0
  5  6  2  0
  6  7  1  0
  7  8  2  0
  7  9  2  0
  7 10  1  0
 10 11  2  0
 11 12  1  0
 12 13  2  0
 13 14  1  0
  6 15  1  0
 15 16  1  0
 16 17  2  0
 16 18  2  0
 16 19  1  0
 19 20  2  0
 20 21  1  0
 21 22  2  0
 22 23  1  0
 23 24  2  0
 24 25  1  0
 15 26  2  0
 26  3  1  0
 14 10  1  0
 24 19  1  0
  1 27  1  0
  1 28  1  0
  1 29  1  0
  4 30  1  0
  5 31  1  0
 11 32  1  0
 12 33  1  0
 13 34  1  0
 14 35  1  0
 20 36  1  0
 21 37  1  0
 22 38  1  0
 23 39  1  0
 26 40  1  0
M  END
>  <UniqueID>  (36) 
36

>  <SMILES>  (36) 
COc1ccc(S(=O)(=O)c2ccc[nH]2)c(S(=O)(=O)c2ccccc2F)c1

>  <Energy>  (36) 
75.32424459941335

>  <Genealogy>  (36) 
COc1ccc(S(=O)(=O)c2ccc[nH]2)c(S(=O)(=O)c2ccccc2F)c1 (3D coordinates assigned)
COc1ccc(S(=O)(=O)c2ccc[nH]2)c(S(=O)(=O)c2ccccc2F)c1 (optimized conformer: 75.32424459941335 kcal/mol)

>  <smiles>  (36) 
COc1ccc(S(=O)(=O)c2ccc[nH]2)c(S(=O)(=O)c2ccccc2F)c1

>  <score_type>  (36) 
oracle

>  <origin>  (36) 
adgpu

>  <m_score__min__energy>  (36) 
-8.3800000000000008

>  <m_primary>  (36) 
energy

$$$$
36:0
     RDKit          3D

 46 48  0  0  0  0  0  0  0  0999 V2000
   -0.3308   22.8157  -30.9843 H   0  0  0  0  0  0  0  0  0  0  0  0
   -1.2210   22.2540  -30.6650 C   0  0  0  0  0  0  0  0  0  0  0  0
   -2.1150   21.7630  -31.6220 C   0  0  0  0  0  0  0  0  0  0  0  0
   -1.9268   21.9425  -32.6908 H   0  0  0  0  0  0  0  0  0  0  0  0
   -3.2500   21.0430  -31.2240 C   0  0  0  0  0  0  0  0  0  0  0  0
   -4.3840   20.4270  -32.4300 S   0  0  0  0  0  0  0  0  0  0  0  0
   -3.7030   19.3700  -33.2540 O   0  0  0  0  0  0  0  0  0  0  0  0
   -4.7840   21.5480  -33.3510 O   0  0  0  0  0  0  0  0  0  0  0  0
   -5.8150   19.7540  -31.6870 N   0  0  0  0  0  0  0  0  0  0  0  0
   -6.9400   20.7160  -31.6880 C   0  0  0  0  0  0  0  0  0  0  0  0
   -7.3894   20.7371  -30.6842 H   0  0  0  0  0  0  0  0  0  0  0  0
   -6.5418   21.7024  -31.9680 H   0  0  0  0  0  0  0  0  0  0  0  0
   -8.0260   20.3360  -32.7100 C   0  0  0  0  0  0  0  0  0  0  0  0
   -8.8385   21.0751  -32.6500 H   0  0  0  0  0  0  0  0  0  0  0  0
   -7.5547   20.3255  -33.7039 H   0  0  0  0  0  0  0  0  0  0  0  0
   -8.5710   19.0440  -32.4830 O   0  0  0  0  0  0  0  0  0  0  0  0
   -7.6210   18.0950  -32.0120 C   0  0  0  0  0  0  0  0  0  0  0  0
   -7.7373   18.0028  -30.9221 H   0  0  0  0  0  0  0  0  0  0  0  0
   -7.8246   17.1542  -32.5445 H   0  0  0  0  0  0  0  0  0  0  0  0
   -6.1580   18.4630  -32.3110 C   0  0  0  0  0  0  0  0  0  0  0  0
   -5.4980   17.6798  -31.9098 H   0  0  0  0  0  0  0  0  0  0  0  0
   -6.0265   18.5469  -33.3999 H   0  0  0  0  0  0  0  0  0  0  0  0
   -3.4790   20.8130  -29.8600 C   0  0  0  0  0  0  0  0  0  0  0  0
   -4.3607   20.2373  -29.5418 H   0  0  0  0  0  0  0  0  0  0  0  0
   -2.5920   21.3120  -28.9040 C   0  0  0  0  0  0  0  0  0  0  0  0
   -2.7857   21.1389  -27.8351 H   0  0  0  0  0  0  0  0  0  0  0  0
   -1.4550   22.0330  -29.2990 C   0  0  0  0  0  0  0  0  0  0  0  0
   -0.5140   22.5960  -28.2650 C   0  0  0  0  0  0  0  0  0  0  0  0
    0.4121   22.0024  -28.2682 H   0  0  0  0  0  0  0  0  0  0  0  0
   -1.0172   22.5473  -27.2881 H   0  0  0  0  0  0  0  0  0  0  0  0
   -0.1610   24.0650  -28.5410 C   0  0  0  0  0  0  0  0  0  0  0  0
    0.3888   24.1237  -29.4919 H   0  0  0  0  0  0  0  0  0  0  0  0
    0.4487   24.4274  -27.7002 H   0  0  0  0  0  0  0  0  0  0  0  0
   -1.3860   24.9430  -28.6340 C   0  0  0  0  0  0  0  0  0  0  0  0
   -1.2320   26.1530  -28.9490 O   0  0  0  0  0  0  0  0  0  0  0  0
   -2.7270   24.4410  -28.4980 N   0  0  0  0  0  0  0  0  0  0  0  0
   -3.6880   24.4760  -29.3740 C   0  0  0  0  0  0  0  0  0  0  0  0
   -3.5730   24.9240  -30.6390 N   0  0  0  0  0  0  0  0  0  0  0  0
   -4.7450   24.7800  -31.1870 O   0  0  0  0  0  0  0  0  0  0  0  0
   -5.6020   24.2580  -30.3390 C   0  0  0  0  0  0  0  0  0  0  0  0
   -7.0370   23.9880  -30.6400 C   0  0  0  0  0  0  0  0  0  0  0  0
   -7.5957   23.8829  -29.6983 H   0  0  0  0  0  0  0  0  0  0  0  0
   -7.4531   24.8236  -31.2219 H   0  0  0  0  0  0  0  0  0  0  0  0
   -7.1210   23.0583  -31.2219 H   0  0  0  0  0  0  0  0  0  0  0  0
   -4.9670   24.0250  -29.1370 C   0  0  0  0  0  0  0  0  0  0  0  0
   -5.3803   23.5871  -28.2165 H   0  0  0  0  0  0  0  0  0  0  0  0
  1  2  1  0
  2  3  2  0
  3  4  1  0
  3  5  1  0
  5  6  1  0
  6  7  2  0
  6  8  2  0
  6  9  1  0
  9 10  1  0
 10 11  1  0
 10 12  1  0
 10 13  1  0
 13 14  1  0
 13 15  1  0
 13 16  1  0
 16 17  1  0
 17 18  1  0
 17 19  1  0
 17 20  1  0
 20 21  1  0
 20 22  1  0
  5 23  2  0
 23 24  1  0
 23 25  1  0
 25 26  1  0
 25 27  2  0
 27 28  1  0
 28 29  1  0
 28 30  1  0
 28 31  1  0
 31 32  1  0
 31 33  1  0
 31 34  1  0
 34 35  2  0
 34 36  1  0
 36 37  2  0
 37 38  1  0
 38 39  1  0
 39 40  1  0
 40 41  1  0
 41 42  1  0
 41 43  1  0
 41 44  1  0
 40 45  2  0
 45 46  1  0
 27  2  1  0
 45 37  1  0
 20  9  1  0
M  CHG  1  38  -1
M  END
>  <UniqueID>  (37) 
37

>  <SMILES>  (37) 
Cc1c/c(=N/C(=O)CCc2ccc(S(=O)(=O)N3CCOCC3)cc2)[n-]o1

>  <Energy>  (37) 
86.33594365947509

>  <Genealogy>  (37) 
Cc1cc(=NC(=O)CCc2ccc(S(=O)(=O)N3CCOCC3)cc2)[n-]o1 (protonated)
Cc1c/c(=N/C(=O)CCc2ccc(S(=O)(=O)N3CCOCC3)cc2)[n-]o1 (cis-trans isomerization)
Cc1c/c(=N/C(=O)CCc2ccc(S(=O)(=O)N3CCOCC3)cc2)[n-]o1 (3D coordinates assigned)
Cc1c/c(=N/C(=O)CCc2ccc(S(=O)(=O)N3CCOCC3)cc2)[n-]o1 (nonaromatic ring conformer: 86.33594365947509 kcal/mol)

>  <smiles>  (37) 
Cc1cc(=NC(=O)CCc2ccc(S(=O)(=O)N3CCOCC3)cc2)[nH]o1

>  <score_type>  (37) 
oracle

>  <origin>  (37) 
adgpu

>  <m_score__min__energy>  (37) 
-11.56

>  <m_primary>  (37) 
energy

$$$$
37:0
     RDKit          3D

 44 48  0  0  0  0  0  0  0  0999 V2000
   -7.0972   17.6898  -31.8507 H   0  0  0  0  0  0  0  0  0  0  0  0
   -6.3530   17.7560  -32.6580 C   0  0  0  0  0  0  0  0  0  0  0  0
   -5.8970   18.9730  -32.9930 C   0  0  0  0  0  0  0  0  0  0  0  0
   -5.1559   19.0524  -33.8020 H   0  0  0  0  0  0  0  0  0  0  0  0
   -6.3480   20.2150  -32.3210 C   0  0  0  0  0  0  0  0  0  0  0  0
   -5.4530   21.0900  -31.6520 C   0  0  0  0  0  0  0  0  0  0  0  0
   -4.3830   20.8384  -31.6092 H   0  0  0  0  0  0  0  0  0  0  0  0
   -5.9140   22.2860  -31.0360 C   0  0  0  0  0  0  0  0  0  0  0  0
   -4.9830   23.1990  -30.3340 C   0  0  0  0  0  0  0  0  0  0  0  0
   -4.4490   22.9490  -29.1640 O   0  0  0  0  0  0  0  0  0  0  0  0
   -3.6850   23.9740  -28.8680 C   0  0  0  0  0  0  0  0  0  0  0  0
   -3.0050   24.0410  -27.7610 N   0  0  0  0  0  0  0  0  0  0  0  0
   -2.1440   25.1150  -27.3470 C   0  0  0  0  0  0  0  0  0  0  0  0
   -1.3030   25.7300  -28.2250 N   0  0  0  0  0  0  0  0  0  0  0  0
   -0.4840   26.7470  -27.8440 C   0  0  0  0  0  0  0  0  0  0  0  0
    0.1830   27.2202  -28.5796 H   0  0  0  0  0  0  0  0  0  0  0  0
   -0.4890   27.1910  -26.5200 C   0  0  0  0  0  0  0  0  0  0  0  0
    0.1707   28.0132  -26.2058 H   0  0  0  0  0  0  0  0  0  0  0  0
   -1.3420   26.5780  -25.6000 C   0  0  0  0  0  0  0  0  0  0  0  0
   -1.3575   26.9153  -24.5531 H   0  0  0  0  0  0  0  0  0  0  0  0
   -2.1760   25.5350  -26.0120 C   0  0  0  0  0  0  0  0  0  0  0  0
   -2.8518   25.0483  -25.2934 H   0  0  0  0  0  0  0  0  0  0  0  0
   -3.6850   24.9300  -29.8220 N   0  0  0  0  0  0  0  0  0  0  0  0
   -4.5150   24.4300  -30.7580 C   0  0  0  0  0  0  0  0  0  0  0  0
   -4.7782   24.9212  -31.7064 H   0  0  0  0  0  0  0  0  0  0  0  0
   -7.2850   22.6180  -31.1000 C   0  0  0  0  0  0  0  0  0  0  0  0
   -7.6682   23.5363  -30.6310 H   0  0  0  0  0  0  0  0  0  0  0  0
   -8.1350   21.7500  -31.7730 C   0  0  0  0  0  0  0  0  0  0  0  0
   -9.4930   21.7910  -32.0000 C   0  0  0  0  0  0  0  0  0  0  0  0
  -10.1790   22.5842  -31.6679 H   0  0  0  0  0  0  0  0  0  0  0  0
   -9.8370   20.6870  -32.7020 N   0  0  0  0  0  0  0  0  0  0  0  0
   -8.7420   19.9680  -32.9200 N   0  0  0  0  0  0  0  0  0  0  0  0
   -8.7320   19.0590  -33.4320 H   0  0  0  0  0  0  0  0  0  0  0  0
   -7.6950   20.6030  -32.3630 C   0  0  0  0  0  0  0  0  0  0  0  0
   -5.9190   16.4960  -33.3050 C   0  0  0  0  0  0  0  0  0  0  0  0
   -6.8810   15.6850  -33.8290 N   0  0  0  0  0  0  0  0  0  0  0  0
   -6.5850   14.5130  -34.4510 C   0  0  0  0  0  0  0  0  0  0  0  0
   -7.3928   13.8850  -34.8548 H   0  0  0  0  0  0  0  0  0  0  0  0
   -5.2560   14.1070  -34.5770 C   0  0  0  0  0  0  0  0  0  0  0  0
   -5.0093   13.1584  -35.0763 H   0  0  0  0  0  0  0  0  0  0  0  0
   -4.2440   14.9170  -34.0630 C   0  0  0  0  0  0  0  0  0  0  0  0
   -3.1920   14.6099  -34.1574 H   0  0  0  0  0  0  0  0  0  0  0  0
   -4.5670   16.1190  -33.4280 C   0  0  0  0  0  0  0  0  0  0  0  0
   -3.7723   16.7656  -33.0274 H   0  0  0  0  0  0  0  0  0  0  0  0
  1  2  1  0
  2  3  2  0
  3  4  1  0
  3  5  1  0
  5  6  2  0
  6  7  1  0
  6  8  1  0
  8  9  1  0
  9 10  1  0
 10 11  1  0
 11 12  2  0
 12 13  1  0
 13 14  2  0
 14 15  1  0
 15 16  1  0
 15 17  2  0
 17 18  1  0
 17 19  1  0
 19 20  1  0
 19 21  2  0
 21 22  1  0
 11 23  1  0
 23 24  1  0
 24 25  1  0
  8 26  2  0
 26 27  1  0
 26 28  1  0
 28 29  1  0
 29 30  1  0
 29 31  2  0
 31 32  1  0
 32 33  1  0
 32 34  1  0
  2 35  1  0
 35 36  2  0
 36 37  1  0
 37 38  1  0
 37 39  2  0
 39 40  1  0
 39 41  1  0
 41 42  1  0
 41 43  2  0
 43 44  1  0
 34  5  1  0
 43 35  1  0
 24  9  2  0
 34 28  2  0
 21 13  1  0
M  CHG  1  23  -1
M  END
>  <UniqueID>  (38) 
38

>  <SMILES>  (38) 
C(=C/c1cc(-c2c[n-]/c(=N\c3ccccn3)o2)cc2cn[nH]c12)\c1ccccn1

>  <Energy>  (38) 
128.93420856703537

>  <Genealogy>  (38) 
C(=Cc1cc(-c2c[n-]c(=Nc3ccccn3)o2)cc2cn[nH]c12)c1ccccn1 (protonated)
C(=C/c1cc(-c2c[n-]/c(=N\c3ccccn3)o2)cc2cn[nH]c12)\c1ccccn1 (cis-trans isomerization)
C(=C/c1cc(-c2c[n-]/c(=N\c3ccccn3)o2)cc2cn[nH]c12)\c1ccccn1 (3D coordinates assigned)
C(=C/c1cc(-c2c[n-]/c(=N\c3ccccn3)o2)cc2cn[nH]c12)\c1ccccn1 (optimized conformer: 128.93420856703537 kcal/mol)

>  <smiles>  (38) 
C(=Cc1cc(-c2c[nH]c(=Nc3ccccn3)o2)cc2cn[nH]c12)c1ccccn1

>  <score_type>  (38) 
oracle

>  <origin>  (38) 
adgpu

>  <m_score__min__energy>  (38) 
-10.17

>  <m_primary>  (38) 
energy

$$$$
38:0
     RDKit          3D

 67 70  0  0  0  0  0  0  0  0999 V2000
   -6.7200   24.0230  -30.1050 C   0  0  0  0  0  0  0  0  0  0  0  0
   -5.5960   24.6020  -29.2500 C   0  0  0  0  0  0  0  0  0  0  0  0
   -4.4830   25.1150  -30.1120 C   0  0  0  0  0  0  0  0  0  0  0  0
   -4.7510   25.6330  -31.2320 O   0  0  0  0  0  0  0  0  0  0  0  0
   -3.1240   24.9080  -29.7110 N   0  0  0  0  0  0  0  0  0  0  0  0
   -2.5070   23.6180  -29.6420 C   0  0  0  0  0  0  0  0  0  0  0  0
   -1.1470   23.4820  -29.3150 C   0  0  0  0  0  0  0  0  0  0  0  0
   -0.5670   22.2110  -29.2600 C   0  0  0  0  0  0  0  0  0  0  0  0
   -1.3240   21.0750  -29.5710 C   0  0  0  0  0  0  0  0  0  0  0  0
   -0.5320   19.4640  -29.5630 S   0  0  0  0  0  0  0  0  0  0  0  0
   -0.3090   19.3970  -31.3480 C   0  0  0  0  0  0  0  0  0  0  0  0
   -1.4310   19.4680  -32.1110 N   0  0  0  0  0  0  0  0  0  0  0  0
   -1.3820   19.3990  -33.4660 C   0  0  0  0  0  0  0  0  0  0  0  0
   -2.4560   19.5290  -34.1890 N   0  0  0  0  0  0  0  0  0  0  0  0
   -3.7970   19.6500  -33.6980 C   0  0  0  0  0  0  0  0  0  0  0  0
   -4.2080   20.7650  -32.9460 C   0  0  0  0  0  0  0  0  0  0  0  0
   -5.5080   20.8310  -32.4350 C   0  0  0  0  0  0  0  0  0  0  0  0
   -6.4070   19.7770  -32.6540 C   0  0  0  0  0  0  0  0  0  0  0  0
   -8.0390   19.8540  -31.9890 S   0  0  0  0  0  0  0  0  0  0  0  0
   -8.1600   21.1790  -30.8900 N   0  0  0  0  0  0  0  0  0  0  0  0
   -8.3470   18.5720  -31.2690 O   0  0  0  0  0  0  0  0  0  0  0  0
   -9.0370   20.0370  -33.0960 O   0  0  0  0  0  0  0  0  0  0  0  0
   -5.9910   18.6590  -33.3910 C   0  0  0  0  0  0  0  0  0  0  0  0
   -4.6920   18.5920  -33.9000 C   0  0  0  0  0  0  0  0  0  0  0  0
   -0.1840   19.2560  -34.0820 N   0  0  0  0  0  0  0  0  0  0  0  0
    0.9800   19.1720  -33.3810 C   0  0  0  0  0  0  0  0  0  0  0  0
    2.2200   19.0840  -34.1030 N   0  0  0  0  0  0  0  0  0  0  0  0
    2.7140   20.1710  -34.9040 C   0  0  0  0  0  0  0  0  0  0  0  0
    3.9490   20.0520  -35.5480 C   0  0  0  0  0  0  0  0  0  0  0  0
    4.4530   21.1120  -36.3010 C   0  0  0  0  0  0  0  0  0  0  0  0
    3.7210   22.3020  -36.4560 C   0  0  0  0  0  0  0  0  0  0  0  0
    4.3560   23.4470  -37.2050 C   0  0  0  0  0  0  0  0  0  0  0  0
    2.4550   22.4200  -35.8300 C   0  0  0  0  0  0  0  0  0  0  0  0
    1.4710   23.8880  -35.9780 S   0  0  0  0  0  0  0  0  0  0  0  0
    1.6400   24.5500  -37.5670 N   0  0  0  0  0  0  0  0  0  0  0  0
    1.9170   24.9170  -34.9790 O   0  0  0  0  0  0  0  0  0  0  0  0
    0.0290   23.5610  -35.7180 O   0  0  0  0  0  0  0  0  0  0  0  0
    1.9700   21.3520  -35.0540 C   0  0  0  0  0  0  0  0  0  0  0  0
    0.9520   19.2570  -31.9690 C   0  0  0  0  0  0  0  0  0  0  0  0
    2.1580   19.1410  -31.1920 N   0  0  0  0  0  0  0  0  0  0  0  0
    2.2010   19.5730  -30.0230 O   0  0  0  0  0  0  0  0  0  0  0  0
    3.2750   18.5400  -31.7180 O   0  0  0  0  0  0  0  0  0  0  0  0
   -2.6740   21.2130  -29.9120 C   0  0  0  0  0  0  0  0  0  0  0  0
   -3.2730   22.4770  -29.9060 C   0  0  0  0  0  0  0  0  0  0  0  0
   -7.5065   23.6179  -29.4513 H   0  0  0  0  0  0  0  0  0  0  0  0
   -7.1431   24.8154  -30.7399 H   0  0  0  0  0  0  0  0  0  0  0  0
   -6.3205   23.2185  -30.7399 H   0  0  0  0  0  0  0  0  0  0  0  0
   -5.9935   25.4293  -28.6437 H   0  0  0  0  0  0  0  0  0  0  0  0
   -5.2014   23.8069  -28.6003 H   0  0  0  0  0  0  0  0  0  0  0  0
   -0.5397   24.3742  -29.1026 H   0  0  0  0  0  0  0  0  0  0  0  0
    0.4889   22.1031  -28.9711 H   0  0  0  0  0  0  0  0  0  0  0  0
   -3.5037   21.5890  -32.7589 H   0  0  0  0  0  0  0  0  0  0  0  0
   -5.8266   21.7125  -31.8593 H   0  0  0  0  0  0  0  0  0  0  0  0
   -9.1740   21.3110  -30.6750 H   0  0  0  0  0  0  0  0  0  0  0  0
   -7.8490   22.0320  -31.4090 H   0  0  0  0  0  0  0  0  0  0  0  0
   -6.6917   17.8300  -33.5693 H   0  0  0  0  0  0  0  0  0  0  0  0
   -4.3702   17.7033  -34.4627 H   0  0  0  0  0  0  0  0  0  0  0  0
    2.8550   18.2770  -33.9020 H   0  0  0  0  0  0  0  0  0  0  0  0
    4.5252   19.1191  -35.4605 H   0  0  0  0  0  0  0  0  0  0  0  0
    5.4381   21.0155  -36.7809 H   0  0  0  0  0  0  0  0  0  0  0  0
    4.7601   24.1757  -36.4869 H   0  0  0  0  0  0  0  0  0  0  0  0
    5.1709   23.0646  -37.8372 H   0  0  0  0  0  0  0  0  0  0  0  0
    3.6000   23.9358  -37.8372 H   0  0  0  0  0  0  0  0  0  0  0  0
    2.6370   24.8530  -37.6660 H   0  0  0  0  0  0  0  0  0  0  0  0
    0.9929   21.4435  -34.5571 H   0  0  0  0  0  0  0  0  0  0  0  0
   -3.2650   20.3264  -30.1851 H   0  0  0  0  0  0  0  0  0  0  0  0
   -4.3496   22.5745  -30.1094 H   0  0  0  0  0  0  0  0  0  0  0  0
  1  2  1  0
  2  3  1  0
  3  4  2  0
  3  5  1  0
  5  6  1  0
  6  7  2  0
  7  8  1  0
  8  9  2  0
  9 10  1  0
 10 11  1  0
 11 12  1  0
 12 13  1  0
 13 14  2  3
 14 15  1  0
 15 16  2  0
 16 17  1  0
 17 18  2  0
 18 19  1  0
 19 20  1  0
 19 21  2  0
 19 22  2  0
 18 23  1  0
 23 24  2  0
 13 25  1  0
 25 26  2  0
 26 27  1  0
 27 28  1  0
 28 29  2  0
 29 30  1  0
 30 31  2  0
 31 32  1  0
 31 33  1  0
 33 34  1  0
 34 35  1  0
 34 36  2  0
 34 37  2  0
 33 38  2  0
 26 39  1  0
 39 40  1  0
 40 41  2  0
 40 42  1  0
  9 43  1  0
 43 44  2  0
 44  6  1  0
 39 11  2  0
 24 15  1  0
 38 28  1  0
  1 45  1  0
  1 46  1  0
  1 47  1  0
  2 48  1  0
  2 49  1  0
  7 50  1  0
  8 51  1  0
 16 52  1  0
 17 53  1  0
 20 54  1  0
 20 55  1  0
 23 56  1  0
 24 57  1  0
 27 58  1  0
 29 59  1  0
 30 60  1  0
 32 61  1  0
 32 62  1  0
 32 63  1  0
 35 64  1  0
 38 65  1  0
 43 66  1  0
 44 67  1  0
M  CHG  5   5  -1  12  -1  35  -1  40   1  42  -1
M  END
>  <UniqueID>  (39) 
39

>  <SMILES>  (39) 
CCC(=O)[N-]c1ccc(Sc2[n-]c(=Nc3ccc(S(N)(=O)=O)cc3)nc(Nc3ccc(C)c(S([NH-])(=O)=O)c3)c2[N+](=O)[O-])cc1

>  <Energy>  (39) 
88.43958196490152

>  <Genealogy>  (39) 
CCC(=O)[N-]c1ccc(Sc2[n-]c(=Nc3ccc(S(N)(=O)=O)cc3)nc(Nc3ccc(C)c(S([NH-])(=O)=O)c3)c2[N+](=O)[O-])cc1 (protonated)
CCC(=O)[N-]c1ccc(Sc2[n-]c(=Nc3ccc(S(N)(=O)=O)cc3)nc(Nc3ccc(C)c(S([NH-])(=O)=O)c3)c2[N+](=O)[O-])cc1 (3D coordinates assigned)
CCC(=O)[N-]c1ccc(Sc2[n-]c(=Nc3ccc(S(N)(=O)=O)cc3)nc(Nc3ccc(C)c(S([NH-])(=O)=O)c3)c2[N+](=O)[O-])cc1 (optimized conformer: 88.43958196490152 kcal/mol)

>  <smiles>  (39) 
CCC(=O)Nc1ccc(Sc2[nH]c(=Nc3ccc(S(N)(=O)=O)cc3)nc(Nc3ccc(C)c(S(N)(=O)=O)c3)c2[N+](=O)[O-])cc1

>  <score_type>  (39) 
oracle

>  <origin>  (39) 
adgpu

>  <m_score__min__energy>  (39) 
-13.25

>  <m_primary>  (39) 
energy

$$$$
39:0
     RDKit          3D

 34 35  0  0  0  0  0  0  0  0999 V2000
   -4.2917   23.7357  -31.9613 H   0  0  0  0  0  0  0  0  0  0  0  0
   -4.8760   22.9970  -31.3930 C   0  0  0  0  0  0  0  0  0  0  0  0
   -6.1470   22.5080  -31.9670 C   0  0  0  0  0  0  0  0  0  0  0  0
   -7.0820   23.3360  -32.1400 O   0  0  0  0  0  0  0  0  0  0  0  0
   -6.3680   21.0950  -32.3520 C   0  0  0  0  0  0  0  0  0  0  0  0
   -7.5480   20.4520  -31.9540 C   0  0  0  0  0  0  0  0  0  0  0  0
   -8.2947   21.0051  -31.3654 H   0  0  0  0  0  0  0  0  0  0  0  0
   -7.7910   19.1110  -32.2960 C   0  0  0  0  0  0  0  0  0  0  0  0
   -9.0810   18.4620  -31.8660 C   0  0  0  0  0  0  0  0  0  0  0  0
   -9.1305   18.4371  -30.7674 H   0  0  0  0  0  0  0  0  0  0  0  0
   -9.9308   19.0399  -32.2583 H   0  0  0  0  0  0  0  0  0  0  0  0
   -9.1235   17.4352  -32.2583 H   0  0  0  0  0  0  0  0  0  0  0  0
   -6.8320   18.4030  -33.0580 C   0  0  0  0  0  0  0  0  0  0  0  0
   -7.0500   16.9660  -33.4520 C   0  0  0  0  0  0  0  0  0  0  0  0
   -7.1438   16.3478  -32.5470 H   0  0  0  0  0  0  0  0  0  0  0  0
   -7.9707   16.8850  -34.0484 H   0  0  0  0  0  0  0  0  0  0  0  0
   -6.1947   16.6155  -34.0484 H   0  0  0  0  0  0  0  0  0  0  0  0
   -5.6370   19.0430  -33.4270 C   0  0  0  0  0  0  0  0  0  0  0  0
   -4.8795   18.4899  -34.0017 H   0  0  0  0  0  0  0  0  0  0  0  0
   -5.3990   20.3730  -33.0730 C   0  0  0  0  0  0  0  0  0  0  0  0
   -4.1890   20.9610  -33.4250 O   0  0  0  0  0  0  0  0  0  0  0  0
   -4.4040   22.5790  -30.2090 C   0  0  0  0  0  0  0  0  0  0  0  0
   -4.9927   21.8411  -29.6443 H   0  0  0  0  0  0  0  0  0  0  0  0
   -3.1290   23.0600  -29.6210 C   0  0  0  0  0  0  0  0  0  0  0  0
   -2.2770   22.2000  -28.8970 C   0  0  0  0  0  0  0  0  0  0  0  0
   -2.5504   21.1421  -28.7702 H   0  0  0  0  0  0  0  0  0  0  0  0
   -1.0880   22.6800  -28.3390 C   0  0  0  0  0  0  0  0  0  0  0  0
    0.0410   21.4820  -27.3640 Br  0  0  0  0  0  0  0  0  0  0  0  0
   -0.7390   24.0270  -28.4870 C   0  0  0  0  0  0  0  0  0  0  0  0
    0.4430   24.5090  -27.9340 O   0  0  0  0  0  0  0  0  0  0  0  0
   -1.5830   24.8950  -29.1900 C   0  0  0  0  0  0  0  0  0  0  0  0
   -1.2360   26.2340  -29.3310 O   0  0  0  0  0  0  0  0  0  0  0  0
   -2.7730   24.4170  -29.7510 C   0  0  0  0  0  0  0  0  0  0  0  0
   -3.5950   25.2980  -30.4490 O   0  0  0  0  0  0  0  0  0  0  0  0
  1  2  1  0
  2  3  1  0
  3  4  2  0
  3  5  1  0
  5  6  2  0
  6  7  1  0
  6  8  1  0
  8  9  1  0
  9 10  1  0
  9 11  1  0
  9 12  1  0
  8 13  2  0
 13 14  1  0
 14 15  1  0
 14 16  1  0
 14 17  1  0
 13 18  1  0
 18 19  1  0
 18 20  2  0
 20 21  1  0
  2 22  2  0
 22 23  1  0
 22 24  1  0
 24 25  2  0
 25 26  1  0
 25 27  1  0
 27 28  1  0
 27 29  2  0
 29 30  1  0
 29 31  1  0
 31 32  1  0
 31 33  2  0
 33 34  1  0
 20  5  1  0
 33 24  1  0
M  CHG  4  21  -1  30  -1  32  -1  34  -1
M  END
>  <UniqueID>  (40) 
40

>  <SMILES>  (40) 
Cc1cc([O-])c(C(=O)/C=C/c2cc(Br)c([O-])c([O-])c2[O-])cc1C

>  <Energy>  (40) 
45.26783476347196

>  <Genealogy>  (40) 
Cc1cc([O-])c(C(=O)C=Cc2cc(Br)c([O-])c([O-])c2[O-])cc1C (protonated)
Cc1cc([O-])c(C(=O)/C=C/c2cc(Br)c([O-])c([O-])c2[O-])cc1C (cis-trans isomerization)
Cc1cc([O-])c(C(=O)/C=C/c2cc(Br)c([O-])c([O-])c2[O-])cc1C (3D coordinates assigned)
Cc1cc([O-])c(C(=O)/C=C/c2cc(Br)c([O-])c([O-])c2[O-])cc1C (optimized conformer: 45.26783476347196 kcal/mol)

>  <smiles>  (40) 
Cc1cc(O)c(C(=O)C=Cc2cc(Br)c(O)c(O)c2O)cc1C

>  <score_type>  (40) 
oracle

>  <origin>  (40) 
adgpu

>  <m_score__min__energy>  (40) 
-15.630000000000001

>  <m_primary>  (40) 
energy

$$$$
40:0
     RDKit          3D

 46 48  0  0  0  0  0  0  0  0999 V2000
   -0.9100   23.4730  -29.2790 O   0  0  0  0  0  0  0  0  0  0  0  0
   -1.7900   24.3700  -29.3640 C   0  0  0  0  0  0  0  0  0  0  0  0
   -3.1320   24.0220  -29.9340 C   0  0  0  0  0  0  0  0  0  0  0  0
   -3.7700   25.2250  -30.4590 N   0  0  0  0  0  0  0  0  0  0  0  0
   -5.1870   25.4470  -30.5170 C   0  0  0  0  0  0  0  0  0  0  0  0
   -5.6230   26.6200  -30.3800 O   0  0  0  0  0  0  0  0  0  0  0  0
   -6.1360   24.3560  -30.8060 C   0  0  0  0  0  0  0  0  0  0  0  0
   -6.4690   24.0550  -32.1350 C   0  0  0  0  0  0  0  0  0  0  0  0
   -7.3030   22.9730  -32.4240 C   0  0  0  0  0  0  0  0  0  0  0  0
   -7.8180   22.1830  -31.3870 C   0  0  0  0  0  0  0  0  0  0  0  0
   -8.7850   20.7530  -31.7550 S   0  0  0  0  0  0  0  0  0  0  0  0
   -9.0740   20.0110  -30.4810 O   0  0  0  0  0  0  0  0  0  0  0  0
  -10.0970   21.1820  -32.3500 O   0  0  0  0  0  0  0  0  0  0  0  0
   -7.9610   19.6840  -32.8720 N   0  0  0  0  0  0  0  0  0  0  0  0
   -8.0420   18.2880  -32.4280 C   0  0  0  0  0  0  0  0  0  0  0  0
   -6.7460   17.9350  -31.7130 C   0  0  0  0  0  0  0  0  0  0  0  0
   -5.7700   19.0410  -32.0590 C   0  0  0  0  0  0  0  0  0  0  0  0
   -6.5320   20.0040  -32.9580 C   0  0  0  0  0  0  0  0  0  0  0  0
   -7.5300   22.5150  -30.0570 C   0  0  0  0  0  0  0  0  0  0  0  0
   -6.6940   23.5960  -29.7670 C   0  0  0  0  0  0  0  0  0  0  0  0
   -1.4590   25.7090  -28.9700 N   0  0  0  0  0  0  0  0  0  0  0  0
   -1.2520   26.1700  -27.6270 C   0  0  0  0  0  0  0  0  0  0  0  0
   -0.4470   27.2890  -27.3500 C   0  0  0  0  0  0  0  0  0  0  0  0
   -0.2760   27.7240  -26.0330 C   0  0  0  0  0  0  0  0  0  0  0  0
   -0.9230   27.0600  -24.9860 C   0  0  0  0  0  0  0  0  0  0  0  0
   -0.7560   27.4830  -23.7100 F   0  0  0  0  0  0  0  0  0  0  0  0
   -1.7480   25.9640  -25.2590 C   0  0  0  0  0  0  0  0  0  0  0  0
   -1.9190   25.5270  -26.5760 C   0  0  0  0  0  0  0  0  0  0  0  0
   -3.0060   23.2908  -30.7461 H   0  0  0  0  0  0  0  0  0  0  0  0
   -3.7630   23.5904  -29.1431 H   0  0  0  0  0  0  0  0  0  0  0  0
   -6.0715   24.6739  -32.9529 H   0  0  0  0  0  0  0  0  0  0  0  0
   -7.5566   22.7399  -33.4687 H   0  0  0  0  0  0  0  0  0  0  0  0
   -8.8912   18.1659  -31.7395 H   0  0  0  0  0  0  0  0  0  0  0  0
   -8.1891   17.6244  -33.2929 H   0  0  0  0  0  0  0  0  0  0  0  0
   -6.9075   17.8927  -30.6257 H   0  0  0  0  0  0  0  0  0  0  0  0
   -6.3679   16.9495  -32.0226 H   0  0  0  0  0  0  0  0  0  0  0  0
   -5.4343   19.5544  -31.1459 H   0  0  0  0  0  0  0  0  0  0  0  0
   -4.8730   18.6462  -32.5586 H   0  0  0  0  0  0  0  0  0  0  0  0
   -6.3619   21.0381  -32.6237 H   0  0  0  0  0  0  0  0  0  0  0  0
   -6.1844   19.9068  -33.9971 H   0  0  0  0  0  0  0  0  0  0  0  0
   -7.9637   21.9224  -29.2380 H   0  0  0  0  0  0  0  0  0  0  0  0
   -6.4724   23.8522  -28.7205 H   0  0  0  0  0  0  0  0  0  0  0  0
    0.0499   27.8239  -28.1728 H   0  0  0  0  0  0  0  0  0  0  0  0
    0.3683   28.5897  -25.8196 H   0  0  0  0  0  0  0  0  0  0  0  0
   -2.2628   25.4454  -24.4368 H   0  0  0  0  0  0  0  0  0  0  0  0
   -2.5805   24.6741  -26.7881 H   0  0  0  0  0  0  0  0  0  0  0  0
  1  2  2  0
  2  3  1  0
  3  4  1  0
  4  5  1  0
  5  6  2  0
  5  7  1  0
  7  8  2  0
  8  9  1  0
  9 10  2  0
 10 11  1  0
 11 12  2  0
 11 13  2  0
 11 14  1  0
 14 15  1  0
 15 16  1  0
 16 17  1  0
 17 18  1  0
 10 19  1  0
 19 20  2  0
  2 21  1  0
 21 22  1  0
 22 23  2  0
 23 24  1  0
 24 25  2  0
 25 26  1  0
 25 27  1  0
 27 28  2  0
 20  7  1  0
 28 22  1  0
 18 14  1  0
  3 29  1  0
  3 30  1  0
  8 31  1  0
  9 32  1  0
 15 33  1  0
 15 34  1  0
 16 35  1  0
 16 36  1  0
 17 37  1  0
 17 38  1  0
 18 39  1  0
 18 40  1  0
 19 41  1  0
 20 42  1  0
 23 43  1  0
 24 44  1  0
 27 45  1  0
 28 46  1  0
M  CHG  2   4  -1  21  -1
M  END
>  <UniqueID>  (41) 
41

>  <SMILES>  (41) 
O=C(C[N-]C(=O)c1ccc(S(=O)(=O)N2CCCC2)cc1)[N-]c1ccc(F)cc1

>  <Energy>  (41) 
51.77176418062984

>  <Genealogy>  (41) 
O=C(C[N-]C(=O)c1ccc(S(=O)(=O)N2CCCC2)cc1)[N-]c1ccc(F)cc1 (protonated)
O=C(C[N-]C(=O)c1ccc(S(=O)(=O)N2CCCC2)cc1)[N-]c1ccc(F)cc1 (3D coordinates assigned)
O=C(C[N-]C(=O)c1ccc(S(=O)(=O)N2CCCC2)cc1)[N-]c1ccc(F)cc1 (nonaromatic ring conformer: 51.77176418062984 kcal/mol)

>  <smiles>  (41) 
O=C(CNC(=O)c1ccc(S(=O)(=O)N2CCCC2)cc1)Nc1ccc(F)cc1

>  <score_type>  (41) 
oracle

>  <origin>  (41) 
adgpu

>  <m_score__min__energy>  (41) 
-13.15

>  <m_primary>  (41) 
energy

$$$$
41:0
     RDKit          3D

 35 38  0  0  0  0  0  0  0  0999 V2000
   -1.6210   19.6770  -33.9590 O   0  0  0  0  0  0  0  0  0  0  0  0
   -2.7640   19.9340  -33.4940 C   0  0  0  0  0  0  0  0  0  0  0  0
   -3.0170   21.1900  -32.9410 C   0  0  0  0  0  0  0  0  0  0  0  0
   -4.2930   21.4740  -32.4280 C   0  0  0  0  0  0  0  0  0  0  0  0
   -4.5900   22.7910  -31.8250 C   0  0  0  0  0  0  0  0  0  0  0  0
   -3.5930   23.4470  -31.0780 C   0  0  0  0  0  0  0  0  0  0  0  0
   -3.8640   24.6610  -30.4430 C   0  0  0  0  0  0  0  0  0  0  0  0
   -2.8720   25.2950  -29.7050 O   0  0  0  0  0  0  0  0  0  0  0  0
   -5.1320   25.2360  -30.5440 C   0  0  0  0  0  0  0  0  0  0  0  0
   -6.1290   24.6010  -31.2870 C   0  0  0  0  0  0  0  0  0  0  0  0
   -5.8690   23.3910  -31.9400 C   0  0  0  0  0  0  0  0  0  0  0  0
   -6.8880   22.8300  -32.7120 O   0  0  0  0  0  0  0  0  0  0  0  0
   -5.2460   20.5450  -32.4690 O   0  0  0  0  0  0  0  0  0  0  0  0
   -5.0560   19.3350  -32.9860 C   0  0  0  0  0  0  0  0  0  0  0  0
   -6.1110   18.4100  -32.9960 C   0  0  0  0  0  0  0  0  0  0  0  0
   -5.8930   17.1440  -33.5420 C   0  0  0  0  0  0  0  0  0  0  0  0
   -4.6740   16.7940  -34.0640 C   0  0  0  0  0  0  0  0  0  0  0  0
   -3.6030   17.6900  -34.0700 C   0  0  0  0  0  0  0  0  0  0  0  0
   -3.7910   18.9770  -33.5250 C   0  0  0  0  0  0  0  0  0  0  0  0
   -4.6690   15.4090  -34.5880 C   0  0  0  0  0  0  0  0  0  0  0  0
   -6.1000   14.9020  -34.3210 C   0  0  0  0  0  0  0  0  0  0  0  0
   -6.8790   16.0440  -33.6410 C   0  0  0  0  0  0  0  0  0  0  0  0
   -2.2236   21.9512  -32.9072 H   0  0  0  0  0  0  0  0  0  0  0  0
   -2.5917   22.9994  -30.9938 H   0  0  0  0  0  0  0  0  0  0  0  0
   -5.3456   26.1892  -30.0383 H   0  0  0  0  0  0  0  0  0  0  0  0
   -7.1279   25.0560  -31.3597 H   0  0  0  0  0  0  0  0  0  0  0  0
   -6.7950   21.9460  -33.1960 H   0  0  0  0  0  0  0  0  0  0  0  0
   -7.0936   18.6781  -32.5805 H   0  0  0  0  0  0  0  0  0  0  0  0
   -2.6303   17.3973  -34.4922 H   0  0  0  0  0  0  0  0  0  0  0  0
   -4.4458   15.3996  -35.6651 H   0  0  0  0  0  0  0  0  0  0  0  0
   -3.9022   14.7800  -34.1123 H   0  0  0  0  0  0  0  0  0  0  0  0
   -6.5850   14.6303  -35.2702 H   0  0  0  0  0  0  0  0  0  0  0  0
   -6.0803   14.0105  -33.6769 H   0  0  0  0  0  0  0  0  0  0  0  0
   -7.7417   16.3466  -34.2527 H   0  0  0  0  0  0  0  0  0  0  0  0
   -7.2866   15.7527  -32.6617 H   0  0  0  0  0  0  0  0  0  0  0  0
  1  2  2  0
  2  3  1  0
  3  4  2  0
  4  5  1  0
  5  6  2  0
  6  7  1  0
  7  8  1  0
  7  9  2  0
  9 10  1  0
 10 11  2  0
 11 12  1  0
  4 13  1  0
 13 14  1  0
 14 15  2  0
 15 16  1  0
 16 17  2  0
 17 18  1  0
 18 19  2  0
 17 20  1  0
 20 21  1  0
 21 22  1  0
 19  2  1  0
 11  5  1  0
 19 14  1  0
 22 16  1  0
  3 23  1  0
  6 24  1  0
  9 25  1  0
 10 26  1  0
 12 27  1  0
 15 28  1  0
 18 29  1  0
 20 30  1  0
 20 31  1  0
 21 32  1  0
 21 33  1  0
 22 34  1  0
 22 35  1  0
M  CHG  1   8  -1
M  END
>  <UniqueID>  (42) 
42

>  <SMILES>  (42) 
O=c1cc(-c2cc([O-])ccc2O)oc2cc3c(cc12)CCC3

>  <Energy>  (42) 
57.61994472692359

>  <Genealogy>  (42) 
O=c1cc(-c2cc([O-])ccc2O)oc2cc3c(cc12)CCC3 (protonated)
O=c1cc(-c2cc([O-])ccc2O)oc2cc3c(cc12)CCC3 (3D coordinates assigned)
O=c1cc(-c2cc([O-])ccc2O)oc2cc3c(cc12)CCC3 (nonaromatic ring conformer: 57.61994472692359 kcal/mol)

>  <smiles>  (42) 
O=c1cc(-c2cc(O)ccc2O)oc2cc3c(cc12)CCC3

>  <score_type>  (42) 
oracle

>  <origin>  (42) 
adgpu

>  <m_score__min__energy>  (42) 
-9.8699999999999992

>  <m_primary>  (42) 
energy

$$$$
42:0
     RDKit          3D

 42 44  0  0  0  0  0  0  0  0999 V2000
   -4.4857   25.4541  -29.7629 H   0  0  0  0  0  0  0  0  0  0  0  0
   -4.1760   24.4340  -30.0340 C   0  0  0  0  0  0  0  0  0  0  0  0
   -4.7290   23.8840  -31.0790 N   0  0  0  0  0  0  0  0  0  0  0  0
   -4.3790   22.6320  -31.6910 C   0  0  0  0  0  0  0  0  0  0  0  0
   -5.4020   21.7630  -32.0890 C   0  0  0  0  0  0  0  0  0  0  0  0
   -6.4530   22.0466  -31.9310 H   0  0  0  0  0  0  0  0  0  0  0  0
   -5.0950   20.5370  -32.6860 C   0  0  0  0  0  0  0  0  0  0  0  0
   -5.9044   19.8526  -32.9801 H   0  0  0  0  0  0  0  0  0  0  0  0
   -3.7600   20.1770  -32.9110 C   0  0  0  0  0  0  0  0  0  0  0  0
   -3.3520   18.6120  -33.6060 S   0  0  0  0  0  0  0  0  0  0  0  0
   -3.9970   18.4920  -34.9580 O   0  0  0  0  0  0  0  0  0  0  0  0
   -3.8380   17.4930  -32.7290 O   0  0  0  0  0  0  0  0  0  0  0  0
   -1.6320   18.4920  -33.7770 N   0  0  0  0  0  0  0  0  0  0  0  0
   -0.9350   19.3880  -34.4050 C   0  0  0  0  0  0  0  0  0  0  0  0
   -1.4320   20.4700  -34.9580 O   0  0  0  0  0  0  0  0  0  0  0  0
   -0.4780   21.1690  -35.4980 N   0  0  0  0  0  0  0  0  0  0  0  0
   -0.6140   22.0740  -36.0010 H   0  0  0  0  0  0  0  0  0  0  0  0
    0.6880   20.5280  -35.2860 C   0  0  0  0  0  0  0  0  0  0  0  0
    2.0200   21.0100  -35.7620 C   0  0  0  0  0  0  0  0  0  0  0  0
    2.6575   21.2407  -34.8957 H   0  0  0  0  0  0  0  0  0  0  0  0
    2.4971   20.2275  -36.3703 H   0  0  0  0  0  0  0  0  0  0  0  0
    1.8859   21.9166  -36.3703 H   0  0  0  0  0  0  0  0  0  0  0  0
    0.4310   19.3540  -34.5960 C   0  0  0  0  0  0  0  0  0  0  0  0
    1.4140   18.3510  -34.0810 C   0  0  0  0  0  0  0  0  0  0  0  0
    1.4050   18.3602  -32.9811 H   0  0  0  0  0  0  0  0  0  0  0  0
    1.1385   17.3490  -34.4416 H   0  0  0  0  0  0  0  0  0  0  0  0
    2.4214   18.6063  -34.4416 H   0  0  0  0  0  0  0  0  0  0  0  0
   -2.7360   21.0650  -32.5570 C   0  0  0  0  0  0  0  0  0  0  0  0
   -1.6869   20.7956  -32.7489 H   0  0  0  0  0  0  0  0  0  0  0  0
   -3.0410   22.2900  -31.9620 C   0  0  0  0  0  0  0  0  0  0  0  0
   -2.2330   22.9905  -31.7040 H   0  0  0  0  0  0  0  0  0  0  0  0
   -3.1570   23.7700  -29.1900 C   0  0  0  0  0  0  0  0  0  0  0  0
   -3.3920   22.4580  -28.7560 C   0  0  0  0  0  0  0  0  0  0  0  0
   -4.3178   21.9418  -29.0500 H   0  0  0  0  0  0  0  0  0  0  0  0
   -2.4550   21.8020  -27.9510 C   0  0  0  0  0  0  0  0  0  0  0  0
   -2.7990   20.0260  -27.3390 Br  0  0  0  0  0  0  0  0  0  0  0  0
   -1.2710   22.4480  -27.5890 C   0  0  0  0  0  0  0  0  0  0  0  0
   -0.5416   21.9348  -26.9451 H   0  0  0  0  0  0  0  0  0  0  0  0
   -1.0090   23.7450  -28.0420 C   0  0  0  0  0  0  0  0  0  0  0  0
    0.6340   24.5920  -27.5580 Br  0  0  0  0  0  0  0  0  0  0  0  0
   -1.9430   24.4050  -28.8550 C   0  0  0  0  0  0  0  0  0  0  0  0
   -1.6540   25.6760  -29.3410 O   0  0  0  0  0  0  0  0  0  0  0  0
  1  2  1  0
  2  3  2  3
  3  4  1  0
  4  5  2  0
  5  6  1  0
  5  7  1  0
  7  8  1  0
  7  9  2  0
  9 10  1  0
 10 11  2  0
 10 12  2  0
 10 13  1  0
 13 14  2  0
 14 15  1  0
 15 16  1  0
 16 17  1  0
 16 18  1  0
 18 19  1  0
 19 20  1  0
 19 21  1  0
 19 22  1  0
 18 23  2  0
 23 24  1  0
 24 25  1  0
 24 26  1  0
 24 27  1  0
  9 28  1  0
 28 29  1  0
 28 30  2  0
 30 31  1  0
  2 32  1  0
 32 33  2  0
 33 34  1  0
 33 35  1  0
 35 36  1  0
 35 37  2  0
 37 38  1  0
 37 39  1  0
 39 40  1  0
 39 41  2  0
 41 42  1  0
 30  4  1  0
 41 32  1  0
 23 14  1  0
M  CHG  1  42  -1
M  END
>  <UniqueID>  (43) 
43

>  <SMILES>  (43) 
Cc1[nH]o/c(=N\S(=O)(=O)c2ccc(N=Cc3cc(Br)cc(Br)c3[O-])cc2)c1C

>  <Energy>  (43) 
87.81194994844664

>  <Genealogy>  (43) 
Cc1[nH]oc(=NS(=O)(=O)c2ccc(N=Cc3cc(Br)cc(Br)c3[O-])cc2)c1C (protonated)
Cc1[nH]o/c(=N\S(=O)(=O)c2ccc(N=Cc3cc(Br)cc(Br)c3[O-])cc2)c1C (cis-trans isomerization)
Cc1[nH]o/c(=N\S(=O)(=O)c2ccc(N=Cc3cc(Br)cc(Br)c3[O-])cc2)c1C (3D coordinates assigned)
Cc1[nH]o/c(=N\S(=O)(=O)c2ccc(N=Cc3cc(Br)cc(Br)c3[O-])cc2)c1C (optimized conformer: 87.81194994844664 kcal/mol)

>  <smiles>  (43) 
Cc1[nH]oc(=NS(=O)(=O)c2ccc(N=Cc3cc(Br)cc(Br)c3O)cc2)c1C

>  <score_type>  (43) 
oracle

>  <origin>  (43) 
adgpu

>  <m_score__min__energy>  (43) 
-13.23

>  <m_primary>  (43) 
energy

$$$$
43:0
     RDKit          3D

 47 49  0  0  0  0  0  0  0  0999 V2000
   -7.4990   24.1360  -30.9900 H   0  0  0  0  0  0  0  0  0  0  0  0
   -7.3320   23.1180  -31.1520 N   0  0  0  0  0  0  0  0  0  0  0  0
   -6.1500   22.5880  -31.1100 C   0  0  0  0  0  0  0  0  0  0  0  0
   -4.9600   23.2650  -30.8980 C   0  0  0  0  0  0  0  0  0  0  0  0
   -4.7720   24.6970  -30.5830 C   0  0  0  0  0  0  0  0  0  0  0  0
   -5.7730   25.4620  -30.5830 O   0  0  0  0  0  0  0  0  0  0  0  0
   -3.4930   25.2340  -30.2230 N   0  0  0  0  0  0  0  0  0  0  0  0
   -2.7460   24.9150  -29.0410 C   0  0  0  0  0  0  0  0  0  0  0  0
   -1.3940   25.2710  -28.9780 C   0  0  0  0  0  0  0  0  0  0  0  0
   -0.9203   25.7726  -29.8347 H   0  0  0  0  0  0  0  0  0  0  0  0
   -0.6420   24.9930  -27.8330 C   0  0  0  0  0  0  0  0  0  0  0  0
    0.4156   25.2916  -27.7853 H   0  0  0  0  0  0  0  0  0  0  0  0
   -1.2320   24.3350  -26.7460 C   0  0  0  0  0  0  0  0  0  0  0  0
   -0.2890   24.0330  -25.2890 S   0  0  0  0  0  0  0  0  0  0  0  0
   -0.7820   22.7830  -24.6110 O   0  0  0  0  0  0  0  0  0  0  0  0
    1.1490   23.8310  -25.6800 O   0  0  0  0  0  0  0  0  0  0  0  0
   -0.4200   25.3970  -24.2060 N   0  0  0  0  0  0  0  0  0  0  0  0
    0.8790   26.0740  -24.1120 C   0  0  0  0  0  0  0  0  0  0  0  0
    1.1446   26.2124  -23.0536 H   0  0  0  0  0  0  0  0  0  0  0  0
    1.6480   25.4620  -24.6060 H   0  0  0  0  0  0  0  0  0  0  0  0
    0.8178   27.0549  -24.6060 H   0  0  0  0  0  0  0  0  0  0  0  0
   -1.4360   26.3250  -24.7160 C   0  0  0  0  0  0  0  0  0  0  0  0
   -1.9560   26.7999  -23.8710 H   0  0  0  0  0  0  0  0  0  0  0  0
   -0.9511   27.0985  -25.3297 H   0  0  0  0  0  0  0  0  0  0  0  0
   -2.1625   25.7722  -25.3297 H   0  0  0  0  0  0  0  0  0  0  0  0
   -2.5780   23.9520  -26.8160 C   0  0  0  0  0  0  0  0  0  0  0  0
   -3.0444   23.4302  -25.9674 H   0  0  0  0  0  0  0  0  0  0  0  0
   -3.3300   24.2310  -27.9610 C   0  0  0  0  0  0  0  0  0  0  0  0
   -4.3819   23.9142  -28.0168 H   0  0  0  0  0  0  0  0  0  0  0  0
   -3.9900   22.2780  -31.0460 C   0  0  0  0  0  0  0  0  0  0  0  0
   -2.5080   22.4350  -30.9170 C   0  0  0  0  0  0  0  0  0  0  0  0
   -2.2337   22.4641  -29.8522 H   0  0  0  0  0  0  0  0  0  0  0  0
   -2.0056   21.5850  -31.4020 H   0  0  0  0  0  0  0  0  0  0  0  0
   -2.1949   23.3713  -31.4020 H   0  0  0  0  0  0  0  0  0  0  0  0
   -4.5780   21.1010  -31.3480 N   0  0  0  0  0  0  0  0  0  0  0  0
   -5.8900   21.2890  -31.3750 N   0  0  0  0  0  0  0  0  0  0  0  0
   -6.8280   20.2420  -31.6900 C   0  0  0  0  0  0  0  0  0  0  0  0
   -8.1750   20.3750  -31.3140 C   0  0  0  0  0  0  0  0  0  0  0  0
   -8.5048   21.2736  -30.7720 H   0  0  0  0  0  0  0  0  0  0  0  0
   -9.0990   19.3730  -31.6240 C   0  0  0  0  0  0  0  0  0  0  0  0
  -10.1498   19.4809  -31.3170 H   0  0  0  0  0  0  0  0  0  0  0  0
   -8.6900   18.2350  -32.3230 C   0  0  0  0  0  0  0  0  0  0  0  0
   -9.4174   17.4453  -32.5624 H   0  0  0  0  0  0  0  0  0  0  0  0
   -7.3570   18.1000  -32.7180 C   0  0  0  0  0  0  0  0  0  0  0  0
   -7.0368   17.2064  -33.2738 H   0  0  0  0  0  0  0  0  0  0  0  0
   -6.4290   19.0990  -32.4080 C   0  0  0  0  0  0  0  0  0  0  0  0
   -5.3818   18.9911  -32.7269 H   0  0  0  0  0  0  0  0  0  0  0  0
  1  2  1  0
  2  3  2  0
  3  4  1  0
  4  5  1  0
  5  6  2  0
  5  7  1  0
  7  8  1  0
  8  9  2  0
  9 10  1  0
  9 11  1  0
 11 12  1  0
 11 13  2  0
 13 14  1  0
 14 15  2  0
 14 16  2  0
 14 17  1  0
 17 18  1  0
 18 19  1  0
 18 20  1  0
 18 21  1  0
 17 22  1  0
 22 23  1  0
 22 24  1  0
 22 25  1  0
 13 26  1  0
 26 27  1  0
 26 28  2  0
 28 29  1  0
  4 30  2  0
 30 31  1  0
 31 32  1  0
 31 33  1  0
 31 34  1  0
 30 35  1  0
 35 36  1  0
 36 37  1  0
 37 38  2  0
 38 39  1  0
 38 40  1  0
 40 41  1  0
 40 42  2  0
 42 43  1  0
 42 44  1  0
 44 45  1  0
 44 46  2  0
 46 47  1  0
 36  3  1  0
 46 37  1  0
 28  8  1  0
M  CHG  2   7  -1  35  -1
M  END
>  <UniqueID>  (44) 
44

>  <SMILES>  (44) 
[H]/N=c1\c(C(=O)[N-]c2ccc(S(=O)(=O)N(C)C)cc2)c(C)[n-]n1-c1ccccc1

>  <Energy>  (44) 
89.97033904100847

>  <Genealogy>  (44) 
Cc1[n-]n(-c2ccccc2)c(=N)c1C(=O)[N-]c1ccc(S(=O)(=O)N(C)C)cc1 (protonated)
[H]/N=c1\c(C(=O)[N-]c2ccc(S(=O)(=O)N(C)C)cc2)c(C)[n-]n1-c1ccccc1 (cis-trans isomerization)
[H]/N=c1\c(C(=O)[N-]c2ccc(S(=O)(=O)N(C)C)cc2)c(C)[n-]n1-c1ccccc1 (3D coordinates assigned)
[H]/N=c1\c(C(=O)[N-]c2ccc(S(=O)(=O)N(C)C)cc2)c(C)[n-]n1-c1ccccc1 (optimized conformer: 89.97033904100847 kcal/mol)

>  <smiles>  (44) 
Cc1[nH]n(-c2ccccc2)c(=N)c1C(=O)Nc1ccc(S(=O)(=O)N(C)C)cc1

>  <score_type>  (44) 
oracle

>  <origin>  (44) 
adgpu

>  <m_score__min__energy>  (44) 
-10.17

>  <m_primary>  (44) 
energy

$$$$
44:0
     RDKit          3D

 41 43  0  0  0  0  0  0  0  0999 V2000
   -1.7260   20.2270  -33.8370 C   0  0  0  0  0  0  0  0  0  0  0  0
   -3.0720   19.7640  -33.8790 O   0  0  0  0  0  0  0  0  0  0  0  0
   -4.1680   20.4450  -33.3250 C   0  0  0  0  0  0  0  0  0  0  0  0
   -4.0170   21.6740  -32.6540 C   0  0  0  0  0  0  0  0  0  0  0  0
   -5.1280   22.3440  -32.1100 C   0  0  0  0  0  0  0  0  0  0  0  0
   -4.9430   23.6350  -31.4040 C   0  0  0  0  0  0  0  0  0  0  0  0
   -5.9320   24.4950  -30.9580 C   0  0  0  0  0  0  0  0  0  0  0  0
   -5.2430   25.5350  -30.3770 C   0  0  0  0  0  0  0  0  0  0  0  0
   -3.9200   25.3070  -30.4700 N   0  0  0  0  0  0  0  0  0  0  0  0
   -3.7360   24.1540  -31.0930 N   0  0  0  0  0  0  0  0  0  0  0  0
   -6.4020   21.7680  -32.2520 C   0  0  0  0  0  0  0  0  0  0  0  0
   -6.5590   20.5510  -32.9160 C   0  0  0  0  0  0  0  0  0  0  0  0
   -5.4500   19.8830  -33.4510 C   0  0  0  0  0  0  0  0  0  0  0  0
   -5.6670   18.3290  -34.2620 S   0  0  0  0  0  0  0  0  0  0  0  0
   -6.0470   18.5830  -35.6930 O   0  0  0  0  0  0  0  0  0  0  0  0
   -6.7610   17.5290  -33.6110 O   0  0  0  0  0  0  0  0  0  0  0  0
   -4.1870   17.4210  -34.2140 N   0  0  0  0  0  0  0  0  0  0  0  0
   -4.0250   16.2060  -33.4550 C   0  0  0  0  0  0  0  0  0  0  0  0
   -4.9700   15.8540  -32.4720 C   0  0  0  0  0  0  0  0  0  0  0  0
   -4.8280   14.6800  -31.7320 C   0  0  0  0  0  0  0  0  0  0  0  0
   -3.7480   13.8320  -31.9660 C   0  0  0  0  0  0  0  0  0  0  0  0
   -2.8080   14.1540  -32.9450 C   0  0  0  0  0  0  0  0  0  0  0  0
   -2.9330   15.3340  -33.6990 C   0  0  0  0  0  0  0  0  0  0  0  0
   -1.7010   15.6970  -34.9160 S   0  0  0  0  0  0  0  0  0  0  0  0
   -1.2690   17.3680  -34.8320 N   0  0  0  0  0  0  0  0  0  0  0  0
   -2.2340   15.3790  -36.2840 O   0  0  0  0  0  0  0  0  0  0  0  0
   -0.4670   14.8730  -34.6760 O   0  0  0  0  0  0  0  0  0  0  0  0
   -1.4084   20.3363  -32.7895 H   0  0  0  0  0  0  0  0  0  0  0  0
   -1.0728   19.5019  -34.3445 H   0  0  0  0  0  0  0  0  0  0  0  0
   -1.6571   21.2005  -34.3445 H   0  0  0  0  0  0  0  0  0  0  0  0
   -3.0151   22.1168  -32.5537 H   0  0  0  0  0  0  0  0  0  0  0  0
   -7.0217   24.3744  -31.0477 H   0  0  0  0  0  0  0  0  0  0  0  0
   -5.7032   26.4174  -29.9084 H   0  0  0  0  0  0  0  0  0  0  0  0
   -7.2821   22.2806  -31.8365 H   0  0  0  0  0  0  0  0  0  0  0  0
   -7.5623   20.1123  -33.0203 H   0  0  0  0  0  0  0  0  0  0  0  0
   -3.3780   17.8370  -34.7230 H   0  0  0  0  0  0  0  0  0  0  0  0
   -5.8308   16.5130  -32.2854 H   0  0  0  0  0  0  0  0  0  0  0  0
   -5.5705   14.4234  -30.9620 H   0  0  0  0  0  0  0  0  0  0  0  0
   -3.6364   12.9085  -31.3788 H   0  0  0  0  0  0  0  0  0  0  0  0
   -1.9602   13.4777  -33.1290 H   0  0  0  0  0  0  0  0  0  0  0  0
   -2.0760   17.8670  -34.3930 H   0  0  0  0  0  0  0  0  0  0  0  0
  1  2  1  0
  2  3  1  0
  3  4  2  0
  4  5  1  0
  5  6  1  0
  6  7  1  0
  7  8  2  0
  8  9  1  0
  9 10  1  0
  5 11  2  0
 11 12  1  0
 12 13  2  0
 13 14  1  0
 14 15  2  0
 14 16  2  0
 14 17  1  0
 17 18  1  0
 18 19  2  0
 19 20  1  0
 20 21  2  0
 21 22  1  0
 22 23  2  0
 23 24  1  0
 24 25  1  0
 24 26  2  0
 24 27  2  0
 13  3  1  0
 23 18  1  0
 10  6  2  0
  1 28  1  0
  1 29  1  0
  1 30  1  0
  4 31  1  0
  7 32  1  0
  8 33  1  0
 11 34  1  0
 12 35  1  0
 17 36  1  0
 19 37  1  0
 20 38  1  0
 21 39  1  0
 22 40  1  0
 25 41  1  0
M  CHG  2   9  -1  25  -1
M  END
>  <UniqueID>  (45) 
45

>  <SMILES>  (45) 
COc1cc(-c2cc[n-]n2)ccc1S(=O)(=O)Nc1ccccc1S([NH-])(=O)=O

>  <Energy>  (45) 
77.98181069219189

>  <Genealogy>  (45) 
COc1cc(-c2cc[n-]n2)ccc1S(=O)(=O)Nc1ccccc1S([NH-])(=O)=O (protonated)
COc1cc(-c2cc[n-]n2)ccc1S(=O)(=O)Nc1ccccc1S([NH-])(=O)=O (3D coordinates assigned)
COc1cc(-c2cc[n-]n2)ccc1S(=O)(=O)Nc1ccccc1S([NH-])(=O)=O (optimized conformer: 77.98181069219189 kcal/mol)

>  <smiles>  (45) 
COc1cc(-c2cc[nH]n2)ccc1S(=O)(=O)Nc1ccccc1S(N)(=O)=O

>  <score_type>  (45) 
oracle

>  <origin>  (45) 
adgpu

>  <m_score__min__energy>  (45) 
-11.27

>  <m_primary>  (45) 
energy

$$$$
45:0
     RDKit          3D

 56 59  0  0  0  0  0  0  0  0999 V2000
   -3.0870   22.0930  -32.2330 O   0  0  0  0  0  0  0  0  0  0  0  0
   -3.2940   22.9310  -31.3140 C   0  0  0  0  0  0  0  0  0  0  0  0
   -2.1920   23.4490  -30.5550 N   0  0  0  0  0  0  0  0  0  0  0  0
   -1.8990   23.1960  -29.1730 C   0  0  0  0  0  0  0  0  0  0  0  0
   -1.6550   24.2880  -28.3320 C   0  0  0  0  0  0  0  0  0  0  0  0
   -1.3740   24.0900  -26.9790 C   0  0  0  0  0  0  0  0  0  0  0  0
   -1.3560   22.7980  -26.4490 C   0  0  0  0  0  0  0  0  0  0  0  0
   -1.6340   21.6970  -27.2700 C   0  0  0  0  0  0  0  0  0  0  0  0
   -1.6210   20.0640  -26.6100 S   0  0  0  0  0  0  0  0  0  0  0  0
   -2.8250   19.3200  -27.1140 O   0  0  0  0  0  0  0  0  0  0  0  0
   -1.6850   20.1220  -25.1090 O   0  0  0  0  0  0  0  0  0  0  0  0
   -0.1680   19.2460  -27.1250 N   0  0  0  0  0  0  0  0  0  0  0  0
    0.7220   20.1470  -27.8610 C   0  0  0  0  0  0  0  0  0  0  0  0
    1.4900   19.2930  -28.8630 C   0  0  0  0  0  0  0  0  0  0  0  0
    0.7590   17.9610  -28.9090 C   0  0  0  0  0  0  0  0  0  0  0  0
   -0.4780   18.1580  -28.0510 C   0  0  0  0  0  0  0  0  0  0  0  0
   -1.9070   21.8970  -28.6310 C   0  0  0  0  0  0  0  0  0  0  0  0
   -4.6690   23.4350  -31.0550 C   0  0  0  0  0  0  0  0  0  0  0  0
   -5.7690   22.5690  -31.2080 C   0  0  0  0  0  0  0  0  0  0  0  0
   -7.0750   23.0140  -30.9660 C   0  0  0  0  0  0  0  0  0  0  0  0
   -8.4380   21.9080  -31.1660 S   0  0  0  0  0  0  0  0  0  0  0  0
   -9.2500   21.8950  -29.9010 O   0  0  0  0  0  0  0  0  0  0  0  0
   -9.3200   22.4050  -32.2780 O   0  0  0  0  0  0  0  0  0  0  0  0
   -7.9100   20.2830  -31.5260 N   0  0  0  0  0  0  0  0  0  0  0  0
   -7.2660   20.2310  -32.8470 C   0  0  0  0  0  0  0  0  0  0  0  0
   -6.8130   18.7890  -33.1560 C   0  0  0  0  0  0  0  0  0  0  0  0
   -7.2130   17.8770  -32.1490 O   0  0  0  0  0  0  0  0  0  0  0  0
   -8.6150   17.9490  -31.9670 C   0  0  0  0  0  0  0  0  0  0  0  0
   -9.0470   19.3490  -31.4820 C   0  0  0  0  0  0  0  0  0  0  0  0
   -7.2930   24.3360  -30.5680 C   0  0  0  0  0  0  0  0  0  0  0  0
   -6.2140   25.2090  -30.4170 C   0  0  0  0  0  0  0  0  0  0  0  0
   -4.9080   24.7710  -30.6580 C   0  0  0  0  0  0  0  0  0  0  0  0
   -3.8630   25.6760  -30.5050 O   0  0  0  0  0  0  0  0  0  0  0  0
   -1.6849   25.3091  -28.7400 H   0  0  0  0  0  0  0  0  0  0  0  0
   -1.1664   24.9530  -26.3293 H   0  0  0  0  0  0  0  0  0  0  0  0
   -1.1231   22.6444  -25.3850 H   0  0  0  0  0  0  0  0  0  0  0  0
    0.1333   20.9116  -28.3890 H   0  0  0  0  0  0  0  0  0  0  0  0
    1.4105   20.6646  -27.1768 H   0  0  0  0  0  0  0  0  0  0  0  0
    1.4858   19.7679  -29.8552 H   0  0  0  0  0  0  0  0  0  0  0  0
    2.5431   19.1697  -28.5702 H   0  0  0  0  0  0  0  0  0  0  0  0
    0.4763   17.7112  -29.9423 H   0  0  0  0  0  0  0  0  0  0  0  0
    1.3861   17.1343  -28.5439 H   0  0  0  0  0  0  0  0  0  0  0  0
   -1.3388   18.4276  -28.6805 H   0  0  0  0  0  0  0  0  0  0  0  0
   -0.7399   17.2364  -27.5106 H   0  0  0  0  0  0  0  0  0  0  0  0
   -2.1283   21.0351  -29.2776 H   0  0  0  0  0  0  0  0  0  0  0  0
   -5.6002   21.5284  -31.5220 H   0  0  0  0  0  0  0  0  0  0  0  0
   -7.9818   20.5605  -33.6146 H   0  0  0  0  0  0  0  0  0  0  0  0
   -6.3879   20.8935  -32.8473 H   0  0  0  0  0  0  0  0  0  0  0  0
   -7.2547   18.4761  -34.1136 H   0  0  0  0  0  0  0  0  0  0  0  0
   -5.7140   18.7820  -33.2019 H   0  0  0  0  0  0  0  0  0  0  0  0
   -9.1120   17.7323  -32.9241 H   0  0  0  0  0  0  0  0  0  0  0  0
   -8.9039   17.2126  -31.2026 H   0  0  0  0  0  0  0  0  0  0  0  0
   -9.8503   19.7256  -32.1323 H   0  0  0  0  0  0  0  0  0  0  0  0
   -9.4042   19.2717  -30.4445 H   0  0  0  0  0  0  0  0  0  0  0  0
   -8.3164   24.6892  -30.3734 H   0  0  0  0  0  0  0  0  0  0  0  0
   -6.3925   26.2490  -30.1062 H   0  0  0  0  0  0  0  0  0  0  0  0
  1  2  2  0
  2  3  1  0
  3  4  1  0
  4  5  2  0
  5  6  1  0
  6  7  2  0
  7  8  1  0
  8  9  1  0
  9 10  2  0
  9 11  2  0
  9 12  1  0
 12 13  1  0
 13 14  1  0
 14 15  1  0
 15 16  1  0
  8 17  2  0
  2 18  1  0
 18 19  2  0
 19 20  1  0
 20 21  1  0
 21 22  2  0
 21 23  2  0
 21 24  1  0
 24 25  1  0
 25 26  1  0
 26 27  1  0
 27 28  1  0
 28 29  1  0
 20 30  2  0
 30 31  1  0
 31 32  2  0
 32 33  1  0
 17  4  1  0
 32 18  1  0
 16 12  1  0
 29 24  1  0
  5 34  1  0
  6 35  1  0
  7 36  1  0
 13 37  1  0
 13 38  1  0
 14 39  1  0
 14 40  1  0
 15 41  1  0
 15 42  1  0
 16 43  1  0
 16 44  1  0
 17 45  1  0
 19 46  1  0
 25 47  1  0
 25 48  1  0
 26 49  1  0
 26 50  1  0
 28 51  1  0
 28 52  1  0
 29 53  1  0
 29 54  1  0
 30 55  1  0
 31 56  1  0
M  CHG  2   3  -1  33  -1
M  END
>  <UniqueID>  (46) 
46

>  <SMILES>  (46) 
O=C([N-]c1cccc(S(=O)(=O)N2CCCC2)c1)c1cc(S(=O)(=O)N2CCOCC2)ccc1[O-]

>  <Energy>  (46) 
71.72966562690992

>  <Genealogy>  (46) 
O=C([N-]c1cccc(S(=O)(=O)N2CCCC2)c1)c1cc(S(=O)(=O)N2CCOCC2)ccc1[O-] (protonated)
O=C([N-]c1cccc(S(=O)(=O)N2CCCC2)c1)c1cc(S(=O)(=O)N2CCOCC2)ccc1[O-] (3D coordinates assigned)
O=C([N-]c1cccc(S(=O)(=O)N2CCCC2)c1)c1cc(S(=O)(=O)N2CCOCC2)ccc1[O-] (nonaromatic ring conformer: 71.72966562690992 kcal/mol)

>  <smiles>  (46) 
O=C(Nc1cccc(S(=O)(=O)N2CCCC2)c1)c1cc(S(=O)(=O)N2CCOCC2)ccc1O

>  <score_type>  (46) 
oracle

>  <origin>  (46) 
adgpu

>  <m_score__min__energy>  (46) 
-15.16

>  <m_primary>  (46) 
energy

$$$$
46:0
     RDKit          3D

 40 42  0  0  0  0  0  0  0  0999 V2000
   -5.3600   21.0590  -33.0330 C   0  0  0  0  0  0  0  0  0  0  0  0
   -5.7300   22.2960  -32.2860 C   0  0  0  0  0  0  0  0  0  0  0  0
   -7.0080   22.6620  -31.9150 C   0  0  0  0  0  0  0  0  0  0  0  0
   -6.8710   23.8510  -31.2300 C   0  0  0  0  0  0  0  0  0  0  0  0
   -5.5160   24.1280  -31.2220 C   0  0  0  0  0  0  0  0  0  0  0  0
   -4.8810   25.3080  -30.6080 C   0  0  0  0  0  0  0  0  0  0  0  0
   -5.5420   26.3710  -30.4790 O   0  0  0  0  0  0  0  0  0  0  0  0
   -3.5010   25.2970  -30.2150 N   0  0  0  0  0  0  0  0  0  0  0  0
   -2.9230   24.4680  -29.1990 C   0  0  0  0  0  0  0  0  0  0  0  0
   -3.6040   23.3490  -28.6890 C   0  0  0  0  0  0  0  0  0  0  0  0
   -3.0200   22.5650  -27.6910 C   0  0  0  0  0  0  0  0  0  0  0  0
   -1.7630   22.9020  -27.1810 C   0  0  0  0  0  0  0  0  0  0  0  0
   -1.0910   24.0350  -27.6580 C   0  0  0  0  0  0  0  0  0  0  0  0
    0.5030   24.4410  -27.0320 S   0  0  0  0  0  0  0  0  0  0  0  0
    1.1380   23.2180  -26.4270 O   0  0  0  0  0  0  0  0  0  0  0  0
    1.3710   24.9210  -28.1620 O   0  0  0  0  0  0  0  0  0  0  0  0
    0.3470   25.7060  -25.8400 N   0  0  0  0  0  0  0  0  0  0  0  0
   -0.0130   25.1630  -24.5310 C   0  0  0  0  0  0  0  0  0  0  0  0
   -0.7630   26.2630  -23.7960 C   0  0  0  0  0  0  0  0  0  0  0  0
   -1.2330   27.2230  -24.8780 C   0  0  0  0  0  0  0  0  0  0  0  0
   -0.7310   26.6320  -26.1860 C   0  0  0  0  0  0  0  0  0  0  0  0
   -1.6770   24.8170  -28.6640 C   0  0  0  0  0  0  0  0  0  0  0  0
   -4.8630   23.1840  -31.8610 O   0  0  0  0  0  0  0  0  0  0  0  0
   -5.1202   20.2574  -32.3189 H   0  0  0  0  0  0  0  0  0  0  0  0
   -6.2039   20.7463  -33.6655 H   0  0  0  0  0  0  0  0  0  0  0  0
   -4.4830   21.2611  -33.6655 H   0  0  0  0  0  0  0  0  0  0  0  0
   -7.9415   22.1184  -32.1225 H   0  0  0  0  0  0  0  0  0  0  0  0
   -7.6741   24.4548  -30.7822 H   0  0  0  0  0  0  0  0  0  0  0  0
   -4.6001   23.0898  -29.0770 H   0  0  0  0  0  0  0  0  0  0  0  0
   -3.5501   21.6814  -27.3061 H   0  0  0  0  0  0  0  0  0  0  0  0
   -1.3004   22.2763  -26.4035 H   0  0  0  0  0  0  0  0  0  0  0  0
   -0.6569   24.2792  -24.6507 H   0  0  0  0  0  0  0  0  0  0  0  0
    0.8810   24.8502  -23.9716 H   0  0  0  0  0  0  0  0  0  0  0  0
   -1.6229   25.8453  -23.2519 H   0  0  0  0  0  0  0  0  0  0  0  0
   -0.1274   26.7648  -23.0515 H   0  0  0  0  0  0  0  0  0  0  0  0
   -2.3309   27.2908  -24.8823 H   0  0  0  0  0  0  0  0  0  0  0  0
   -0.8514   28.2418  -24.7157 H   0  0  0  0  0  0  0  0  0  0  0  0
   -1.5438   26.0945  -26.6963 H   0  0  0  0  0  0  0  0  0  0  0  0
   -0.3742   27.4196  -26.8660 H   0  0  0  0  0  0  0  0  0  0  0  0
   -1.1541   25.7107  -29.0353 H   0  0  0  0  0  0  0  0  0  0  0  0
  1  2  1  0
  2  3  2  0
  3  4  1  0
  4  5  2  0
  5  6  1  0
  6  7  2  0
  6  8  1  0
  8  9  1  0
  9 10  2  0
 10 11  1  0
 11 12  2  0
 12 13  1  0
 13 14  1  0
 14 15  2  0
 14 16  2  0
 14 17  1  0
 17 18  1  0
 18 19  1  0
 19 20  1  0
 20 21  1  0
 13 22  2  0
  5 23  1  0
 23  2  1  0
 22  9  1  0
 21 17  1  0
  1 24  1  0
  1 25  1  0
  1 26  1  0
  3 27  1  0
  4 28  1  0
 10 29  1  0
 11 30  1  0
 12 31  1  0
 18 32  1  0
 18 33  1  0
 19 34  1  0
 19 35  1  0
 20 36  1  0
 20 37  1  0
 21 38  1  0
 21 39  1  0
 22 40  1  0
M  CHG  1   8  -1
M  END
>  <UniqueID>  (47) 
47

>  <SMILES>  (47) 
Cc1ccc(C(=O)[N-]c2cccc(S(=O)(=O)N3CCCC3)c2)o1

>  <Energy>  (47) 
69.89164351015526

>  <Genealogy>  (47) 
Cc1ccc(C(=O)[N-]c2cccc(S(=O)(=O)N3CCCC3)c2)o1 (protonated)
Cc1ccc(C(=O)[N-]c2cccc(S(=O)(=O)N3CCCC3)c2)o1 (3D coordinates assigned)
Cc1ccc(C(=O)[N-]c2cccc(S(=O)(=O)N3CCCC3)c2)o1 (nonaromatic ring conformer: 69.89164351015526 kcal/mol)

>  <smiles>  (47) 
Cc1ccc(C(=O)Nc2cccc(S(=O)(=O)N3CCCC3)c2)o1

>  <score_type>  (47) 
oracle

>  <origin>  (47) 
adgpu

>  <m_score__min__energy>  (47) 
-10.300000000000001

>  <m_primary>  (47) 
energy

$$$$
47:0
     RDKit          3D

 34 36  0  0  0  0  0  0  0  0999 V2000
   -5.8430   18.5620  -31.7280 C   0  0  0  0  0  0  0  0  0  0  0  0
   -6.5560   19.8020  -32.7850 S   0  0  0  0  0  0  0  0  0  0  0  0
   -8.0010   19.4750  -33.0390 O   0  0  0  0  0  0  0  0  0  0  0  0
   -5.8280   19.8240  -34.0990 O   0  0  0  0  0  0  0  0  0  0  0  0
   -6.4270   21.3760  -32.0080 C   0  0  0  0  0  0  0  0  0  0  0  0
   -7.4910   22.2850  -32.0720 C   0  0  0  0  0  0  0  0  0  0  0  0
   -7.3910   23.5270  -31.4410 C   0  0  0  0  0  0  0  0  0  0  0  0
   -6.2340   23.8660  -30.7360 C   0  0  0  0  0  0  0  0  0  0  0  0
   -5.1610   22.9610  -30.6550 C   0  0  0  0  0  0  0  0  0  0  0  0
   -3.9690   23.3050  -29.9280 N   0  0  0  0  0  0  0  0  0  0  0  0
   -3.3820   24.5240  -29.8560 C   0  0  0  0  0  0  0  0  0  0  0  0
   -3.8700   25.6710  -30.4740 O   0  0  0  0  0  0  0  0  0  0  0  0
   -2.2660   24.4690  -29.0510 C   0  0  0  0  0  0  0  0  0  0  0  0
   -2.1530   23.1770  -28.6120 C   0  0  0  0  0  0  0  0  0  0  0  0
   -3.2200   22.4860  -29.1490 C   0  0  0  0  0  0  0  0  0  0  0  0
   -3.4920   21.1390  -28.9320 O   0  0  0  0  0  0  0  0  0  0  0  0
   -1.1510   22.7660  -27.5770 C   0  0  0  0  0  0  0  0  0  0  0  0
    0.0670   23.7230  -27.6050 C   0  0  0  0  0  0  0  0  0  0  0  0
   -0.3020   25.1800  -27.8470 C   0  0  0  0  0  0  0  0  0  0  0  0
   -1.3570   25.5240  -28.6000 C   0  0  0  0  0  0  0  0  0  0  0  0
   -5.2680   21.7140  -31.2950 C   0  0  0  0  0  0  0  0  0  0  0  0
   -6.0032   18.8407  -30.6760 H   0  0  0  0  0  0  0  0  0  0  0  0
   -6.3210   17.5915  -31.9271 H   0  0  0  0  0  0  0  0  0  0  0  0
   -4.7638   18.4869  -31.9271 H   0  0  0  0  0  0  0  0  0  0  0  0
   -8.4071   22.0201  -32.6203 H   0  0  0  0  0  0  0  0  0  0  0  0
   -8.2262   24.2405  -31.4995 H   0  0  0  0  0  0  0  0  0  0  0  0
   -6.1618   24.8460  -30.2416 H   0  0  0  0  0  0  0  0  0  0  0  0
   -1.6195   22.8025  -26.5824 H   0  0  0  0  0  0  0  0  0  0  0  0
   -0.8097   21.7428  -27.7928 H   0  0  0  0  0  0  0  0  0  0  0  0
    0.5857   23.6527  -26.6375 H   0  0  0  0  0  0  0  0  0  0  0  0
    0.7018   23.4092  -28.4467 H   0  0  0  0  0  0  0  0  0  0  0  0
    0.3126   25.9710  -27.3925 H   0  0  0  0  0  0  0  0  0  0  0  0
   -1.5352   26.5747  -28.8725 H   0  0  0  0  0  0  0  0  0  0  0  0
   -4.4355   20.9974  -31.2359 H   0  0  0  0  0  0  0  0  0  0  0  0
  1  2  1  0
  2  3  2  0
  2  4  2  0
  2  5  1  0
  5  6  2  0
  6  7  1  0
  7  8  2  0
  8  9  1  0
  9 10  1  0
 10 11  1  0
 11 12  1  0
 11 13  2  0
 13 14  1  0
 14 15  2  0
 15 16  1  0
 14 17  1  0
 17 18  1  0
 18 19  1  0
 19 20  2  0
  9 21  2  0
 21  5  1  0
 15 10  1  0
 20 13  1  0
  1 22  1  0
  1 23  1  0
  1 24  1  0
  6 25  1  0
  7 26  1  0
  8 27  1  0
 17 28  1  0
 17 29  1  0
 18 30  1  0
 18 31  1  0
 19 32  1  0
 20 33  1  0
 21 34  1  0
M  CHG  2  12  -1  16  -1
M  END
>  <UniqueID>  (48) 
48

>  <SMILES>  (48) 
CS(=O)(=O)c1cccc(-n2c([O-])c3c(c2[O-])CCC=C3)c1

>  <Energy>  (48) 
72.23459817874337

>  <Genealogy>  (48) 
CS(=O)(=O)c1cccc(-n2c([O-])c3c(c2[O-])CCC=C3)c1 (protonated)
CS(=O)(=O)c1cccc(-n2c([O-])c3c(c2[O-])CCC=C3)c1 (3D coordinates assigned)
CS(=O)(=O)c1cccc(-n2c([O-])c3c(c2[O-])CCC=C3)c1 (nonaromatic ring conformer: 72.23459817874337 kcal/mol)

>  <smiles>  (48) 
CS(=O)(=O)c1cccc(-n2c(O)c3c(c2O)CCC=C3)c1

>  <score_type>  (48) 
oracle

>  <origin>  (48) 
adgpu

>  <m_score__min__energy>  (48) 
-10.57

>  <m_primary>  (48) 
energy

$$$$
48:0
     RDKit          3D

 51 54  0  0  0  0  0  0  0  0999 V2000
   -8.5770   19.3320  -32.9940 N   0  0  0  0  0  0  0  0  0  0  0  0
   -7.2290   18.3080  -32.6370 S   0  0  0  0  0  0  0  0  0  0  0  0
   -7.2600   17.1180  -33.5580 O   0  0  0  0  0  0  0  0  0  0  0  0
   -7.3370   17.8420  -31.2110 O   0  0  0  0  0  0  0  0  0  0  0  0
   -5.7020   19.1730  -32.8560 C   0  0  0  0  0  0  0  0  0  0  0  0
   -4.4880   18.4670  -32.8490 C   0  0  0  0  0  0  0  0  0  0  0  0
   -3.2770   19.1450  -33.0210 C   0  0  0  0  0  0  0  0  0  0  0  0
   -3.2700   20.5310  -33.1940 C   0  0  0  0  0  0  0  0  0  0  0  0
   -4.4710   21.2420  -33.2120 C   0  0  0  0  0  0  0  0  0  0  0  0
   -5.6970   20.5700  -33.0590 C   0  0  0  0  0  0  0  0  0  0  0  0
   -6.9420   21.2850  -33.0970 N   0  0  0  0  0  0  0  0  0  0  0  0
   -7.5970   22.1750  -31.7610 S   0  0  0  0  0  0  0  0  0  0  0  0
   -8.4730   23.2770  -32.2870 O   0  0  0  0  0  0  0  0  0  0  0  0
   -8.4330   21.2800  -30.8880 O   0  0  0  0  0  0  0  0  0  0  0  0
   -6.2670   22.8860  -30.8490 C   0  0  0  0  0  0  0  0  0  0  0  0
   -6.2430   24.2600  -30.5760 C   0  0  0  0  0  0  0  0  0  0  0  0
   -5.2290   24.8050  -29.7820 C   0  0  0  0  0  0  0  0  0  0  0  0
   -4.2120   23.9820  -29.2560 C   0  0  0  0  0  0  0  0  0  0  0  0
   -3.1440   24.5290  -28.3770 C   0  0  0  0  0  0  0  0  0  0  0  0
   -3.2360   24.4990  -26.9760 C   0  0  0  0  0  0  0  0  0  0  0  0
   -2.1910   25.0090  -26.2080 C   0  0  0  0  0  0  0  0  0  0  0  0
   -1.0670   25.5530  -26.8470 C   0  0  0  0  0  0  0  0  0  0  0  0
    0.0420   26.0870  -26.0980 N   0  0  0  0  0  0  0  0  0  0  0  0
    1.3890   26.2570  -26.6230 C   0  0  0  0  0  0  0  0  0  0  0  0
    2.1580   27.0080  -25.5440 C   0  0  0  0  0  0  0  0  0  0  0  0
    1.3280   26.8760  -24.2690 C   0  0  0  0  0  0  0  0  0  0  0  0
   -0.0880   26.5510  -24.7250 C   0  0  0  0  0  0  0  0  0  0  0  0
   -1.0360   25.5760  -28.2080 N   0  0  0  0  0  0  0  0  0  0  0  0
   -2.0340   25.0840  -28.9430 N   0  0  0  0  0  0  0  0  0  0  0  0
   -4.2470   22.6020  -29.5380 C   0  0  0  0  0  0  0  0  0  0  0  0
   -5.2680   22.0600  -30.3250 C   0  0  0  0  0  0  0  0  0  0  0  0
   -8.3750   19.7980  -33.9080 H   0  0  0  0  0  0  0  0  0  0  0  0
   -8.5890   20.0850  -32.2670 H   0  0  0  0  0  0  0  0  0  0  0  0
   -4.4896   17.3761  -32.7076 H   0  0  0  0  0  0  0  0  0  0  0  0
   -2.3294   18.5864  -33.0200 H   0  0  0  0  0  0  0  0  0  0  0  0
   -2.3154   21.0637  -33.3164 H   0  0  0  0  0  0  0  0  0  0  0  0
   -4.4585   22.3337  -33.3466 H   0  0  0  0  0  0  0  0  0  0  0  0
   -7.0259   24.9135  -30.9884 H   0  0  0  0  0  0  0  0  0  0  0  0
   -5.2247   25.8836  -29.5662 H   0  0  0  0  0  0  0  0  0  0  0  0
   -4.1266   24.0759  -26.4883 H   0  0  0  0  0  0  0  0  0  0  0  0
   -2.2471   24.9852  -25.1097 H   0  0  0  0  0  0  0  0  0  0  0  0
    1.8529   25.2781  -26.8141 H   0  0  0  0  0  0  0  0  0  0  0  0
    1.3876   26.8043  -27.5772 H   0  0  0  0  0  0  0  0  0  0  0  0
    3.1525   26.5601  -25.4011 H   0  0  0  0  0  0  0  0  0  0  0  0
    2.3122   28.0621  -25.8179 H   0  0  0  0  0  0  0  0  0  0  0  0
    1.7222   26.0659  -23.6379 H   0  0  0  0  0  0  0  0  0  0  0  0
    1.3579   27.7982  -23.6702 H   0  0  0  0  0  0  0  0  0  0  0  0
   -0.5241   25.7635  -24.0928 H   0  0  0  0  0  0  0  0  0  0  0  0
   -0.7511   27.4255  -24.6511 H   0  0  0  0  0  0  0  0  0  0  0  0
   -3.4630   21.9441  -29.1349 H   0  0  0  0  0  0  0  0  0  0  0  0
   -5.2852   20.9799  -30.5326 H   0  0  0  0  0  0  0  0  0  0  0  0
  1  2  1  0
  2  3  2  0
  2  4  2  0
  2  5  1  0
  5  6  2  0
  6  7  1  0
  7  8  2  0
  8  9  1  0
  9 10  2  0
 10 11  1  0
 11 12  1  0
 12 13  2  0
 12 14  2  0
 12 15  1  0
 15 16  2  0
 16 17  1  0
 17 18  2  0
 18 19  1  0
 19 20  2  0
 20 21  1  0
 21 22  2  0
 22 23  1  0
 23 24  1  0
 24 25  1  0
 25 26  1  0
 26 27  1  0
 22 28  1  0
 28 29  2  0
 18 30  1  0
 30 31  2  0
 10  5  1  0
 31 15  1  0
 29 19  1  0
 27 23  1  0
  1 32  1  0
  1 33  1  0
  6 34  1  0
  7 35  1  0
  8 36  1  0
  9 37  1  0
 16 38  1  0
 17 39  1  0
 20 40  1  0
 21 41  1  0
 24 42  1  0
 24 43  1  0
 25 44  1  0
 25 45  1  0
 26 46  1  0
 26 47  1  0
 27 48  1  0
 27 49  1  0
 30 50  1  0
 31 51  1  0
M  CHG  1  11  -1
M  END
>  <UniqueID>  (49) 
49

>  <SMILES>  (49) 
NS(=O)(=O)c1ccccc1[N-]S(=O)(=O)c1ccc(-c2ccc(N3CCCC3)nn2)cc1

>  <Energy>  (49) 
64.02338343379569

>  <Genealogy>  (49) 
NS(=O)(=O)c1ccccc1[N-]S(=O)(=O)c1ccc(-c2ccc(N3CCCC3)nn2)cc1 (protonated)
NS(=O)(=O)c1ccccc1[N-]S(=O)(=O)c1ccc(-c2ccc(N3CCCC3)nn2)cc1 (3D coordinates assigned)
NS(=O)(=O)c1ccccc1[N-]S(=O)(=O)c1ccc(-c2ccc(N3CCCC3)nn2)cc1 (nonaromatic ring conformer: 64.02338343379569 kcal/mol)

>  <smiles>  (49) 
NS(=O)(=O)c1ccccc1NS(=O)(=O)c1ccc(-c2ccc(N3CCCC3)nn2)cc1

>  <score_type>  (49) 
oracle

>  <origin>  (49) 
adgpu

>  <m_score__min__energy>  (49) 
-10.49

>  <m_primary>  (49) 
energy

$$$$
49:0
     RDKit          3D

 45 46  0  0  0  0  0  0  0  0999 V2000
   -7.8620   23.1900  -31.9800 C   0  0  0  0  0  0  0  0  0  0  0  0
   -6.6540   23.4600  -31.1860 N   0  0  0  0  0  0  0  0  0  0  0  0
   -6.8490   23.0920  -29.7740 C   0  0  0  0  0  0  0  0  0  0  0  0
   -6.1260   24.8340  -31.3630 C   0  0  0  0  0  0  0  0  0  0  0  0
   -5.3000   25.3730  -30.1800 C   0  0  0  0  0  0  0  0  0  0  0  0
   -3.8700   25.2890  -30.4770 N   0  0  0  0  0  0  0  0  0  0  0  0
   -3.2090   23.8330  -29.8000 S   0  0  0  0  0  0  0  0  0  0  0  0
   -3.7080   23.6570  -28.3920 O   0  0  0  0  0  0  0  0  0  0  0  0
   -1.7110   23.9440  -29.7620 O   0  0  0  0  0  0  0  0  0  0  0  0
   -3.6580   22.4420  -30.7820 C   0  0  0  0  0  0  0  0  0  0  0  0
   -3.8660   21.1960  -30.1740 C   0  0  0  0  0  0  0  0  0  0  0  0
   -4.2020   20.0820  -30.9480 C   0  0  0  0  0  0  0  0  0  0  0  0
   -4.3320   20.2040  -32.3390 C   0  0  0  0  0  0  0  0  0  0  0  0
   -4.7610   18.8110  -33.3290 S   0  0  0  0  0  0  0  0  0  0  0  0
   -3.9540   18.8630  -34.5970 O   0  0  0  0  0  0  0  0  0  0  0  0
   -4.4410   17.5380  -32.5950 O   0  0  0  0  0  0  0  0  0  0  0  0
   -6.4700   18.8670  -33.7120 N   0  0  0  0  0  0  0  0  0  0  0  0
   -7.0790   20.0880  -33.1730 C   0  0  0  0  0  0  0  0  0  0  0  0
   -7.6620   19.7660  -31.8040 C   0  0  0  0  0  0  0  0  0  0  0  0
   -7.7120   18.2510  -31.7290 C   0  0  0  0  0  0  0  0  0  0  0  0
   -7.1760   17.7560  -33.0650 C   0  0  0  0  0  0  0  0  0  0  0  0
   -4.1170   21.4470  -32.9490 C   0  0  0  0  0  0  0  0  0  0  0  0
   -3.7800   22.5610  -32.1740 C   0  0  0  0  0  0  0  0  0  0  0  0
   -8.7097   23.0005  -31.3050 H   0  0  0  0  0  0  0  0  0  0  0  0
   -8.0859   24.0603  -32.6144 H   0  0  0  0  0  0  0  0  0  0  0  0
   -7.6941   22.3072  -32.6144 H   0  0  0  0  0  0  0  0  0  0  0  0
   -6.4318   23.8793  -29.1289 H   0  0  0  0  0  0  0  0  0  0  0  0
   -7.9241   22.9814  -29.5690 H   0  0  0  0  0  0  0  0  0  0  0  0
   -6.3368   22.1403  -29.5690 H   0  0  0  0  0  0  0  0  0  0  0  0
   -5.4854   24.8405  -32.2572 H   0  0  0  0  0  0  0  0  0  0  0  0
   -7.0039   25.4913  -31.4489 H   0  0  0  0  0  0  0  0  0  0  0  0
   -5.5712   26.4232  -29.9971 H   0  0  0  0  0  0  0  0  0  0  0  0
   -5.5157   24.7664  -29.2881 H   0  0  0  0  0  0  0  0  0  0  0  0
   -3.7643   21.0948  -29.0834 H   0  0  0  0  0  0  0  0  0  0  0  0
   -4.3649   19.1072  -30.4651 H   0  0  0  0  0  0  0  0  0  0  0  0
   -6.3151   20.8736  -33.0767 H   0  0  0  0  0  0  0  0  0  0  0  0
   -7.8703   20.4469  -33.8475 H   0  0  0  0  0  0  0  0  0  0  0  0
   -7.0186   20.1690  -31.0080 H   0  0  0  0  0  0  0  0  0  0  0  0
   -8.6577   20.2137  -31.6696 H   0  0  0  0  0  0  0  0  0  0  0  0
   -7.0822   17.8866  -30.9040 H   0  0  0  0  0  0  0  0  0  0  0  0
   -8.7326   17.8867  -31.5402 H   0  0  0  0  0  0  0  0  0  0  0  0
   -6.4823   16.9182  -32.9012 H   0  0  0  0  0  0  0  0  0  0  0  0
   -8.0023   17.4069  -33.7017 H   0  0  0  0  0  0  0  0  0  0  0  0
   -4.2136   21.5467  -34.0402 H   0  0  0  0  0  0  0  0  0  0  0  0
   -3.6100   23.5341  -32.6579 H   0  0  0  0  0  0  0  0  0  0  0  0
  1  2  1  0
  2  3  1  0
  2  4  1  0
  4  5  1  0
  5  6  1  0
  6  7  1  0
  7  8  2  0
  7  9  2  0
  7 10  1  0
 10 11  2  0
 11 12  1  0
 12 13  2  0
 13 14  1  0
 14 15  2  0
 14 16  2  0
 14 17  1  0
 17 18  1  0
 18 19  1  0
 19 20  1  0
 20 21  1  0
 13 22  1  0
 22 23  2  0
 23 10  1  0
 21 17  1  0
  1 24  1  0
  1 25  1  0
  1 26  1  0
  3 27  1  0
  3 28  1  0
  3 29  1  0
  4 30  1  0
  4 31  1  0
  5 32  1  0
  5 33  1  0
 11 34  1  0
 12 35  1  0
 18 36  1  0
 18 37  1  0
 19 38  1  0
 19 39  1  0
 20 40  1  0
 20 41  1  0
 21 42  1  0
 21 43  1  0
 22 44  1  0
 23 45  1  0
M  CHG  1   6  -1
M  END
>  <UniqueID>  (50) 
50

>  <SMILES>  (50) 
CN(C)CC[N-]S(=O)(=O)c1ccc(S(=O)(=O)N2CCCC2)cc1

>  <Energy>  (50) 
45.15023941681049

>  <Genealogy>  (50) 
CN(C)CC[N-]S(=O)(=O)c1ccc(S(=O)(=O)N2CCCC2)cc1 (protonated)
CN(C)CC[N-]S(=O)(=O)c1ccc(S(=O)(=O)N2CCCC2)cc1 (3D coordinates assigned)
CN(C)CC[N-]S(=O)(=O)c1ccc(S(=O)(=O)N2CCCC2)cc1 (nonaromatic ring conformer: 45.15023941681049 kcal/mol)

>  <smiles>  (50) 
CN(C)CCNS(=O)(=O)c1ccc(S(=O)(=O)N2CCCC2)cc1

>  <score_type>  (50) 
oracle

>  <origin>  (50) 
adgpu

>  <m_score__min__energy>  (50) 
-9.6400000000000006

>  <m_primary>  (50) 
energy

$$$$
