0:0
     RDKit          3D

 40 41  0  0  0  0  0  0  0  0999 V2000
   -7.7170   19.4180  -31.5080 C   0  0  0  0  0  0  0  0  0  0  0  0
   -8.3330   20.7450  -31.6320 N   0  0  0  0  0  0  0  0  0  0  0  0
   -9.7630   20.8370  -31.9530 C   0  0  0  0  0  0  0  0  0  0  0  0
   -7.5410   21.9460  -31.4340 C   0  0  0  0  0  0  0  0  0  0  0  0
   -7.0310   22.6640  -32.5350 C   0  0  0  0  0  0  0  0  0  0  0  0
   -6.2610   23.8150  -32.3440 C   0  0  0  0  0  0  0  0  0  0  0  0
   -5.9730   24.2700  -31.0500 C   0  0  0  0  0  0  0  0  0  0  0  0
   -5.1380   25.5090  -30.8430 C   0  0  0  0  0  0  0  0  0  0  0  0
   -4.0950   25.2810  -29.8410 N   0  0  0  0  0  0  0  0  0  0  0  0
   -3.1880   24.3450  -29.8480 C   0  0  0  0  0  0  0  0  0  0  0  0
   -2.3070   24.2890  -28.8150 N   0  0  0  0  0  0  0  0  0  0  0  0
   -1.3430   23.3360  -28.7590 C   0  0  0  0  0  0  0  0  0  0  0  0
   -0.5400   23.3110  -27.7900 O   0  0  0  0  0  0  0  0  0  0  0  0
   -1.2480   22.3860  -29.7740 C   0  0  0  0  0  0  0  0  0  0  0  0
   -2.1540   22.4410  -30.8320 C   0  0  0  0  0  0  0  0  0  0  0  0
   -2.0640   21.4530  -31.8680 N   0  0  0  0  0  0  0  0  0  0  0  0
   -3.3410   21.0460  -32.9660 S   0  0  0  0  0  0  0  0  0  0  0  0
   -4.5380   20.0470  -32.1130 C   0  0  0  0  0  0  0  0  0  0  0  0
   -4.0090   22.2990  -33.4580 O   0  0  0  0  0  0  0  0  0  0  0  0
   -2.7890   20.2690  -34.1280 O   0  0  0  0  0  0  0  0  0  0  0  0
   -3.1030   23.4250  -30.8590 N   0  0  0  0  0  0  0  0  0  0  0  0
   -6.4920   23.5750  -29.9490 C   0  0  0  0  0  0  0  0  0  0  0  0
   -7.2640   22.4250  -30.1370 C   0  0  0  0  0  0  0  0  0  0  0  0
   -7.6000   19.1661  -30.4436 H   0  0  0  0  0  0  0  0  0  0  0  0
   -8.3594   18.6687  -31.9937 H   0  0  0  0  0  0  0  0  0  0  0  0
   -6.7301   19.4250  -31.9937 H   0  0  0  0  0  0  0  0  0  0  0  0
  -10.3463   20.8745  -31.0211 H   0  0  0  0  0  0  0  0  0  0  0  0
   -9.9493   21.7490  -32.5392 H   0  0  0  0  0  0  0  0  0  0  0  0
  -10.0646   19.9564  -32.5392 H   0  0  0  0  0  0  0  0  0  0  0  0
   -7.2415   22.3143  -33.5565 H   0  0  0  0  0  0  0  0  0  0  0  0
   -5.8786   24.3673  -33.2151 H   0  0  0  0  0  0  0  0  0  0  0  0
   -4.6653   25.7870  -31.7966 H   0  0  0  0  0  0  0  0  0  0  0  0
   -5.7941   26.3167  -30.4865 H   0  0  0  0  0  0  0  0  0  0  0  0
   -0.4722   21.6069  -29.7410 H   0  0  0  0  0  0  0  0  0  0  0  0
   -4.4028   20.1598  -31.0272 H   0  0  0  0  0  0  0  0  0  0  0  0
   -5.5515   20.3710  -32.3919 H   0  0  0  0  0  0  0  0  0  0  0  0
   -4.4006   18.9919  -32.3919 H   0  0  0  0  0  0  0  0  0  0  0  0
   -3.7580   23.4700  -31.6660 H   0  0  0  0  0  0  0  0  0  0  0  0
   -6.2904   23.9370  -28.9300 H   0  0  0  0  0  0  0  0  0  0  0  0
   -7.6601   21.8873  -29.2629 H   0  0  0  0  0  0  0  0  0  0  0  0
  1  2  1  0
  2  3  1  0
  2  4  1  0
  4  5  2  0
  5  6  1  0
  6  7  2  0
  7  8  1  0
  8  9  1  0
  9 10  2  3
 10 11  1  0
 11 12  1  0
 12 13  2  0
 12 14  1  0
 14 15  2  0
 15 16  1  0
 16 17  1  0
 17 18  1  0
 17 19  2  0
 17 20  2  0
 15 21  1  0
  7 22  1  0
 22 23  2  0
 23  4  1  0
 21 10  1  0
  1 24  1  0
  1 25  1  0
  1 26  1  0
  3 27  1  0
  3 28  1  0
  3 29  1  0
  5 30  1  0
  6 31  1  0
  8 32  1  0
  8 33  1  0
 14 34  1  0
 18 35  1  0
 18 36  1  0
 18 37  1  0
 21 38  1  0
 22 39  1  0
 23 40  1  0
M  CHG  2  11  -1  16  -1
M  END
>  <UniqueID>  (1) 
1

>  <SMILES>  (1) 
CN(C)c1ccc(CN=c2[n-]c(=O)cc([N-]S(C)(=O)=O)[nH]2)cc1

>  <Energy>  (1) 
40.54841332782041

>  <Genealogy>  (1) 
CN(C)c1ccc(CN=c2[n-]c(=O)cc([N-]S(C)(=O)=O)[nH]2)cc1 (protonated)
CN(C)c1ccc(CN=c2[n-]c(=O)cc([N-]S(C)(=O)=O)[nH]2)cc1 (3D coordinates assigned)
CN(C)c1ccc(CN=c2[n-]c(=O)cc([N-]S(C)(=O)=O)[nH]2)cc1 (optimized conformer: 40.54841332782041 kcal/mol)

>  <smiles>  (1) 
CN(C)c1ccc(CN=c2[nH]c(NS(C)(=O)=O)cc(=O)[nH]2)cc1

>  <score_type>  (1) 
oracle

>  <origin>  (1) 
adgpu

>  <m_score__min__energy>  (1) 
-9.4900000000000002

>  <m_primary>  (1) 
energy

$$$$
1:0
     RDKit          3D

 35 36  0  0  1  0  0  0  0  0999 V2000
   -2.8860   25.3600  -25.9640 C   0  0  0  0  0  0  0  0  0  0  0  0
   -1.5710   24.8860  -26.6000 C   0  0  0  0  0  0  0  0  0  0  0  0
   -1.8250   23.6680  -27.2290 N   0  0  0  0  0  0  0  0  0  0  0  0
   -2.4390   23.4980  -28.3430 C   0  0  0  0  0  0  0  0  0  0  0  0
   -2.5910   22.2410  -28.7980 N   0  0  0  0  0  0  0  0  0  0  0  0
   -3.2390   22.0960  -29.9670 C   0  0  0  0  0  0  0  0  0  0  0  0
   -3.7300   23.1750  -30.6830 C   0  0  0  0  0  0  0  0  0  0  0  0
   -4.3750   22.9030  -31.8670 O   0  0  0  0  0  0  0  0  0  0  0  0
   -5.4200   22.0570  -32.0680 C   0  0  0  0  0  0  0  0  0  0  0  0
   -5.3560   20.8030  -32.6290 C   0  0  0  0  0  0  0  0  0  0  0  0
   -6.4860   20.0080  -32.7940 C   0  0  0  0  0  0  0  0  0  0  0  0
   -7.7240   20.4570  -32.3950 C   0  0  0  0  0  0  0  0  0  0  0  0
   -8.8770   19.6130  -32.5780 C   0  0  0  0  0  0  0  0  0  0  0  0
   -9.8060   18.9350  -32.7120 N   0  0  0  0  0  0  0  0  0  0  0  0
   -7.8110   21.7070  -31.8330 C   0  0  0  0  0  0  0  0  0  0  0  0
   -6.6860   22.4860  -31.6730 C   0  0  0  0  0  0  0  0  0  0  0  0
   -6.8520   23.8320  -31.0560 C   0  0  0  0  0  0  0  0  0  0  0  0
   -3.5430   24.4370  -30.1660 C   0  0  0  0  0  0  0  0  0  0  0  0
   -3.9850   25.4530  -30.7860 N   0  0  0  0  0  0  0  0  0  0  0  0
   -2.8930   24.5830  -28.9930 N   0  0  0  0  0  0  0  0  0  0  0  0
   -2.7959   25.3275  -24.8682 H   0  0  0  0  0  0  0  0  0  0  0  0
   -3.0974   26.3909  -26.2841 H   0  0  0  0  0  0  0  0  0  0  0  0
   -3.7066   24.7011  -26.2841 H   0  0  0  0  0  0  0  0  0  0  0  0
   -1.2230   25.6242  -27.3375 H   0  0  0  0  0  0  0  0  0  0  0  0
   -0.7896   24.7712  -25.8344 H   0  0  0  0  0  0  0  0  0  0  0  0
   -2.2190   21.4270  -28.2550 H   0  0  0  0  0  0  0  0  0  0  0  0
   -3.3846   21.0828  -30.3697 H   0  0  0  0  0  0  0  0  0  0  0  0
   -4.3802   20.4161  -32.9578 H   0  0  0  0  0  0  0  0  0  0  0  0
   -6.3887   19.0107  -33.2479 H   0  0  0  0  0  0  0  0  0  0  0  0
   -8.7892   22.0903  -31.5072 H   0  0  0  0  0  0  0  0  0  0  0  0
   -6.8403   23.7370  -29.9602 H   0  0  0  0  0  0  0  0  0  0  0  0
   -6.0277   24.4863  -31.3762 H   0  0  0  0  0  0  0  0  0  0  0  0
   -7.8105   24.2664  -31.3762 H   0  0  0  0  0  0  0  0  0  0  0  0
   -3.8630   26.4200  -30.4260 H   0  0  0  0  0  0  0  0  0  0  0  0
   -2.7440   25.5120  -28.5910 H   0  0  0  0  0  0  0  0  0  0  0  0
  1  2  1  0
  2  3  1  0
  3  4  2  0
  4  5  1  0
  5  6  1  0
  6  7  2  0
  7  8  1  0
  8  9  1  0
  9 10  2  0
 10 11  1  0
 11 12  2  0
 12 13  1  0
 13 14  3  0
 12 15  1  0
 15 16  2  0
 16 17  1  0
  7 18  1  0
 18 19  2  3
 18 20  1  0
 20  4  1  0
 16  9  1  0
  1 21  1  0
  1 22  1  0
  1 23  1  0
  2 24  1  0
  2 25  1  0
  5 26  1  0
  6 27  1  0
 10 28  1  0
 11 29  1  0
 15 30  1  0
 17 31  1  0
 17 32  1  0
 17 33  1  0
 19 34  1  0
 20 35  1  0
M  END
>  <smiles>  (2) 
CCN=c1[nH]cc(Oc2ccc(C#N)cc2C)c(=N)[nH]1

>  <score_type>  (2) 
oracle

>  <origin>  (2) 
adgpu

>  <m_score__min__energy>  (2) 
-7.3899999999999997

>  <m_primary>  (2) 
energy

$$$$
2:0
     RDKit          3D

 42 44  0  0  0  0  0  0  0  0999 V2000
   -4.9490   14.9680  -33.4050 C   0  0  0  0  0  0  0  0  0  0  0  0
   -5.0720   16.0330  -32.3210 C   0  0  0  0  0  0  0  0  0  0  0  0
   -5.7030   17.2720  -32.8680 C   0  0  0  0  0  0  0  0  0  0  0  0
   -5.8460   17.5150  -34.1910 N   0  0  0  0  0  0  0  0  0  0  0  0
   -6.4820   18.6590  -34.4450 N   0  0  0  0  0  0  0  0  0  0  0  0
   -6.8600   19.3250  -33.3340 C   0  0  0  0  0  0  0  0  0  0  0  0
   -7.4960   20.4570  -33.3780 N   0  0  0  0  0  0  0  0  0  0  0  0
   -8.0030   21.3450  -31.9770 S   0  0  0  0  0  0  0  0  0  0  0  0
   -8.3510   20.3850  -30.8720 O   0  0  0  0  0  0  0  0  0  0  0  0
   -9.2050   22.1850  -32.3050 O   0  0  0  0  0  0  0  0  0  0  0  0
   -6.6890   22.3990  -31.4680 C   0  0  0  0  0  0  0  0  0  0  0  0
   -5.3650   22.0290  -31.7330 C   0  0  0  0  0  0  0  0  0  0  0  0
   -4.3080   22.8540  -31.3360 C   0  0  0  0  0  0  0  0  0  0  0  0
   -4.5680   24.0650  -30.6680 C   0  0  0  0  0  0  0  0  0  0  0  0
   -3.5170   24.9500  -30.2540 N   0  0  0  0  0  0  0  0  0  0  0  0
   -2.3500   24.6050  -29.0190 S   0  0  0  0  0  0  0  0  0  0  0  0
   -1.1420   25.4710  -29.2280 O   0  0  0  0  0  0  0  0  0  0  0  0
   -2.9500   24.9150  -27.6760 O   0  0  0  0  0  0  0  0  0  0  0  0
   -1.8610   22.9150  -29.1050 C   0  0  0  0  0  0  0  0  0  0  0  0
   -0.9860   22.4790  -30.1100 C   0  0  0  0  0  0  0  0  0  0  0  0
   -0.5910   21.1380  -30.1640 C   0  0  0  0  0  0  0  0  0  0  0  0
   -1.0720   20.2270  -29.2190 C   0  0  0  0  0  0  0  0  0  0  0  0
   -1.9500   20.6570  -28.2190 C   0  0  0  0  0  0  0  0  0  0  0  0
   -2.3460   21.9960  -28.1620 C   0  0  0  0  0  0  0  0  0  0  0  0
   -5.8930   24.4260  -30.3990 C   0  0  0  0  0  0  0  0  0  0  0  0
   -6.9490   23.6010  -30.7950 C   0  0  0  0  0  0  0  0  0  0  0  0
   -6.4040   18.4930  -31.9360 S   0  0  0  0  0  0  0  0  0  0  0  0
   -4.8348   13.9794  -32.9364 H   0  0  0  0  0  0  0  0  0  0  0  0
   -5.8539   14.9751  -34.0303 H   0  0  0  0  0  0  0  0  0  0  0  0
   -4.0695   15.1812  -34.0303 H   0  0  0  0  0  0  0  0  0  0  0  0
   -5.6927   15.6434  -31.5007 H   0  0  0  0  0  0  0  0  0  0  0  0
   -4.0656   16.2812  -31.9529 H   0  0  0  0  0  0  0  0  0  0  0  0
   -6.6690   18.9900  -35.4170 H   0  0  0  0  0  0  0  0  0  0  0  0
   -5.1551   21.0844  -32.2562 H   0  0  0  0  0  0  0  0  0  0  0  0
   -3.2704   22.5555  -31.5465 H   0  0  0  0  0  0  0  0  0  0  0  0
   -0.6093   23.1927  -30.8575 H   0  0  0  0  0  0  0  0  0  0  0  0
    0.0990   20.8000  -30.9511 H   0  0  0  0  0  0  0  0  0  0  0  0
   -0.7602   19.1730  -29.2619 H   0  0  0  0  0  0  0  0  0  0  0  0
   -2.3295   19.9401  -27.4761 H   0  0  0  0  0  0  0  0  0  0  0  0
   -3.0394   22.3303  -27.3762 H   0  0  0  0  0  0  0  0  0  0  0  0
   -6.1051   25.3675  -29.8712 H   0  0  0  0  0  0  0  0  0  0  0  0
   -7.9865   23.8953  -30.5782 H   0  0  0  0  0  0  0  0  0  0  0  0
  1  2  1  0
  2  3  1  0
  3  4  2  0
  4  5  1  0
  5  6  1  0
  6  7  2  3
  7  8  1  0
  8  9  2  0
  8 10  2  0
  8 11  1  0
 11 12  2  0
 12 13  1  0
 13 14  2  0
 14 15  1  0
 15 16  1  0
 16 17  2  0
 16 18  2  0
 16 19  1  0
 19 20  2  0
 20 21  1  0
 21 22  2  0
 22 23  1  0
 23 24  2  0
 14 25  1  0
 25 26  2  0
  6 27  1  0
 27  3  1  0
 26 11  1  0
 24 19  1  0
  1 28  1  0
  1 29  1  0
  1 30  1  0
  2 31  1  0
  2 32  1  0
  5 33  1  0
 12 34  1  0
 13 35  1  0
 20 36  1  0
 21 37  1  0
 22 38  1  0
 23 39  1  0
 24 40  1  0
 25 41  1  0
 26 42  1  0
M  CHG  1  15  -1
M  END
>  <UniqueID>  (3) 
2

>  <SMILES>  (3) 
CCc1n[nH]c(=NS(=O)(=O)c2ccc([N-]S(=O)(=O)c3ccccc3)cc2)s1

>  <Energy>  (3) 
81.30051591362755

>  <Genealogy>  (3) 
CCc1n[nH]c(=NS(=O)(=O)c2ccc([N-]S(=O)(=O)c3ccccc3)cc2)s1 (protonated)
CCc1n[nH]c(=NS(=O)(=O)c2ccc([N-]S(=O)(=O)c3ccccc3)cc2)s1 (3D coordinates assigned)
CCc1n[nH]c(=NS(=O)(=O)c2ccc([N-]S(=O)(=O)c3ccccc3)cc2)s1 (optimized conformer: 81.30051591362755 kcal/mol)

>  <smiles>  (3) 
CCc1n[nH]c(=NS(=O)(=O)c2ccc(NS(=O)(=O)c3ccccc3)cc2)s1

>  <score_type>  (3) 
oracle

>  <origin>  (3) 
adgpu

>  <m_score__min__energy>  (3) 
-10.970000000000001

>  <m_primary>  (3) 
energy

$$$$
3:0
     RDKit          3D

 37 38  0  0  0  0  0  0  0  0999 V2000
   -2.7300   19.8710  -27.4420 C   0  0  0  0  0  0  0  0  0  0  0  0
   -3.0930   20.6840  -28.5530 O   0  0  0  0  0  0  0  0  0  0  0  0
   -2.7110   22.0240  -28.7160 C   0  0  0  0  0  0  0  0  0  0  0  0
   -1.6090   22.4900  -28.0000 C   0  0  0  0  0  0  0  0  0  0  0  0
   -1.2090   23.8210  -28.1020 C   0  0  0  0  0  0  0  0  0  0  0  0
   -1.8920   24.7180  -28.9320 C   0  0  0  0  0  0  0  0  0  0  0  0
   -1.4310   26.0480  -28.9290 O   0  0  0  0  0  0  0  0  0  0  0  0
   -0.7700   26.7190  -27.8620 C   0  0  0  0  0  0  0  0  0  0  0  0
   -2.9840   24.2470  -29.7090 C   0  0  0  0  0  0  0  0  0  0  0  0
   -3.6980   25.1420  -30.5740 N   0  0  0  0  0  0  0  0  0  0  0  0
   -5.1180   25.3000  -30.6930 C   0  0  0  0  0  0  0  0  0  0  0  0
   -5.6900   26.3520  -30.3000 O   0  0  0  0  0  0  0  0  0  0  0  0
   -5.9270   24.1910  -31.2850 C   0  0  0  0  0  0  0  0  0  0  0  0
   -6.9050   23.3350  -29.9980 S   0  0  0  0  0  0  0  0  0  0  0  0
   -7.5410   22.0580  -31.0930 C   0  0  0  0  0  0  0  0  0  0  0  0
   -6.6570   21.2990  -31.8700 C   0  0  0  0  0  0  0  0  0  0  0  0
   -7.1440   20.2770  -32.6900 C   0  0  0  0  0  0  0  0  0  0  0  0
   -8.5180   20.0220  -32.7470 C   0  0  0  0  0  0  0  0  0  0  0  0
   -9.4050   20.7920  -31.9880 C   0  0  0  0  0  0  0  0  0  0  0  0
   -8.9190   21.8130  -31.1630 C   0  0  0  0  0  0  0  0  0  0  0  0
   -3.3990   22.9080  -29.5670 C   0  0  0  0  0  0  0  0  0  0  0  0
   -2.9665   20.4006  -26.5073 H   0  0  0  0  0  0  0  0  0  0  0  0
   -3.2917   18.9260  -27.4802 H   0  0  0  0  0  0  0  0  0  0  0  0
   -1.6514   19.6583  -27.4802 H   0  0  0  0  0  0  0  0  0  0  0  0
   -1.0506   21.8011  -27.3491 H   0  0  0  0  0  0  0  0  0  0  0  0
   -0.3432   24.1723  -27.5214 H   0  0  0  0  0  0  0  0  0  0  0  0
   -1.1453   26.3380  -26.9008 H   0  0  0  0  0  0  0  0  0  0  0  0
    0.3129   26.5385  -27.9303 H   0  0  0  0  0  0  0  0  0  0  0  0
   -0.9667   27.7991  -27.9303 H   0  0  0  0  0  0  0  0  0  0  0  0
   -6.6109   24.6074  -32.0392 H   0  0  0  0  0  0  0  0  0  0  0  0
   -5.2418   23.4644  -31.7461 H   0  0  0  0  0  0  0  0  0  0  0  0
   -5.5775   21.5074  -31.8350 H   0  0  0  0  0  0  0  0  0  0  0  0
   -6.4470   19.6737  -33.2901 H   0  0  0  0  0  0  0  0  0  0  0  0
   -8.9012   19.2153  -33.3892 H   0  0  0  0  0  0  0  0  0  0  0  0
  -10.4860   20.5950  -32.0394 H   0  0  0  0  0  0  0  0  0  0  0  0
   -9.6176   22.4221  -30.5706 H   0  0  0  0  0  0  0  0  0  0  0  0
   -4.2734   22.5488  -30.1295 H   0  0  0  0  0  0  0  0  0  0  0  0
  1  2  1  0
  2  3  1  0
  3  4  2  0
  4  5  1  0
  5  6  2  0
  6  7  1  0
  7  8  1  0
  6  9  1  0
  9 10  1  0
 10 11  1  0
 11 12  2  0
 11 13  1  0
 13 14  1  0
 14 15  1  0
 15 16  2  0
 16 17  1  0
 17 18  2  0
 18 19  1  0
 19 20  2  0
  9 21  2  0
 21  3  1  0
 20 15  1  0
  1 22  1  0
  1 23  1  0
  1 24  1  0
  4 25  1  0
  5 26  1  0
  8 27  1  0
  8 28  1  0
  8 29  1  0
 13 30  1  0
 13 31  1  0
 16 32  1  0
 17 33  1  0
 18 34  1  0
 19 35  1  0
 20 36  1  0
 21 37  1  0
M  CHG  1  10  -1
M  END
>  <UniqueID>  (4) 
3

>  <SMILES>  (4) 
COc1ccc(OC)c([N-]C(=O)CSc2ccccc2)c1

>  <Energy>  (4) 
35.705455222114196

>  <Genealogy>  (4) 
COc1ccc(OC)c([N-]C(=O)CSc2ccccc2)c1 (protonated)
COc1ccc(OC)c([N-]C(=O)CSc2ccccc2)c1 (3D coordinates assigned)
COc1ccc(OC)c([N-]C(=O)CSc2ccccc2)c1 (optimized conformer: 35.705455222114196 kcal/mol)

>  <smiles>  (4) 
COc1ccc(OC)c(NC(=O)CSc2ccccc2)c1

>  <score_type>  (4) 
oracle

>  <origin>  (4) 
adgpu

>  <m_score__min__energy>  (4) 
-9.75

>  <m_primary>  (4) 
energy

$$$$
4:0
     RDKit          3D

 61 64  0  0  0  0  0  0  0  0999 V2000
   -0.0230   20.9370  -28.0810 C   0  0  0  0  0  0  0  0  0  0  0  0
   -0.0940   22.1660  -28.8870 N   0  0  0  0  0  0  0  0  0  0  0  0
   -0.4850   21.8710  -30.2870 C   0  0  0  0  0  0  0  0  0  0  0  0
   -2.0030   21.9400  -30.5110 C   0  0  0  0  0  0  0  0  0  0  0  0
   -2.5500   23.2190  -30.0380 N   0  0  0  0  0  0  0  0  0  0  0  0
   -3.8640   23.6650  -30.4470 C   0  0  0  0  0  0  0  0  0  0  0  0
   -4.8700   22.7490  -30.8080 C   0  0  0  0  0  0  0  0  0  0  0  0
   -6.1410   23.2110  -31.1830 C   0  0  0  0  0  0  0  0  0  0  0  0
   -7.2060   22.2530  -31.5700 C   0  0  0  0  0  0  0  0  0  0  0  0
   -8.5560   22.5510  -31.3120 C   0  0  0  0  0  0  0  0  0  0  0  0
   -9.5590   21.6450  -31.6590 C   0  0  0  0  0  0  0  0  0  0  0  0
   -9.2300   20.4400  -32.2830 C   0  0  0  0  0  0  0  0  0  0  0  0
   -7.8930   20.1340  -32.5780 C   0  0  0  0  0  0  0  0  0  0  0  0
   -7.5840   18.8840  -33.2180 N   0  0  0  0  0  0  0  0  0  0  0  0
   -6.2740   18.5030  -33.6600 C   0  0  0  0  0  0  0  0  0  0  0  0
   -5.3300   19.3370  -33.6540 O   0  0  0  0  0  0  0  0  0  0  0  0
   -6.0780   17.1890  -34.1990 N   0  0  0  0  0  0  0  0  0  0  0  0
   -4.9030   16.3770  -34.0570 C   0  0  0  0  0  0  0  0  0  0  0  0
   -3.8750   16.5230  -34.9900 C   0  0  0  0  0  0  0  0  0  0  0  0
   -2.7190   15.7490  -34.8930 C   0  0  0  0  0  0  0  0  0  0  0  0
   -2.5870   14.8090  -33.8720 C   0  0  0  0  0  0  0  0  0  0  0  0
   -3.6190   14.6200  -32.9280 C   0  0  0  0  0  0  0  0  0  0  0  0
   -3.4890   13.6370  -31.8700 N   0  0  0  0  0  0  0  0  0  0  0  0
   -4.6380   13.2930  -31.0250 C   0  0  0  0  0  0  0  0  0  0  0  0
   -2.1960   12.9920  -31.6010 C   0  0  0  0  0  0  0  0  0  0  0  0
   -4.7820   15.4100  -33.0410 C   0  0  0  0  0  0  0  0  0  0  0  0
   -6.8810   21.0350  -32.1960 C   0  0  0  0  0  0  0  0  0  0  0  0
   -6.3870   24.5930  -31.1880 C   0  0  0  0  0  0  0  0  0  0  0  0
   -5.3680   25.4740  -30.8280 C   0  0  0  0  0  0  0  0  0  0  0  0
   -4.1480   24.9980  -30.4700 N   0  0  0  0  0  0  0  0  0  0  0  0
   -1.7080   24.0710  -29.1900 C   0  0  0  0  0  0  0  0  0  0  0  0
   -0.9240   23.1920  -28.2110 C   0  0  0  0  0  0  0  0  0  0  0  0
   -0.0381   21.1979  -27.0125 H   0  0  0  0  0  0  0  0  0  0  0  0
   -0.8856   20.2954  -28.3140 H   0  0  0  0  0  0  0  0  0  0  0  0
    0.9077   20.3990  -28.3140 H   0  0  0  0  0  0  0  0  0  0  0  0
    0.0010   22.6030  -30.9488 H   0  0  0  0  0  0  0  0  0  0  0  0
   -0.1650   20.8423  -30.5092 H   0  0  0  0  0  0  0  0  0  0  0  0
   -2.2127   21.8351  -31.5857 H   0  0  0  0  0  0  0  0  0  0  0  0
   -2.4772   21.1259  -29.9432 H   0  0  0  0  0  0  0  0  0  0  0  0
   -4.6596   21.6694  -30.7962 H   0  0  0  0  0  0  0  0  0  0  0  0
   -8.8231   23.5047  -30.8334 H   0  0  0  0  0  0  0  0  0  0  0  0
  -10.6110   21.8806  -31.4405 H   0  0  0  0  0  0  0  0  0  0  0  0
  -10.0245   19.7258  -32.5451 H   0  0  0  0  0  0  0  0  0  0  0  0
   -8.3770   18.2500  -33.4700 H   0  0  0  0  0  0  0  0  0  0  0  0
   -3.9774   17.2529  -35.8066 H   0  0  0  0  0  0  0  0  0  0  0  0
   -1.9084   15.8807  -35.6248 H   0  0  0  0  0  0  0  0  0  0  0  0
   -1.6684   14.2080  -33.8014 H   0  0  0  0  0  0  0  0  0  0  0  0
   -4.3529   13.3783  -29.9660 H   0  0  0  0  0  0  0  0  0  0  0  0
   -5.4689   13.9818  -31.2377 H   0  0  0  0  0  0  0  0  0  0  0  0
   -4.9537   12.2610  -31.2377 H   0  0  0  0  0  0  0  0  0  0  0  0
   -2.0433   12.9158  -30.5143 H   0  0  0  0  0  0  0  0  0  0  0  0
   -2.1894   11.9850  -32.0437 H   0  0  0  0  0  0  0  0  0  0  0  0
   -1.3876   13.5924  -32.0437 H   0  0  0  0  0  0  0  0  0  0  0  0
   -5.6056   15.2686  -32.3256 H   0  0  0  0  0  0  0  0  0  0  0  0
   -5.8272   20.7850  -32.3884 H   0  0  0  0  0  0  0  0  0  0  0  0
   -7.3768   24.9783  -31.4740 H   0  0  0  0  0  0  0  0  0  0  0  0
   -5.5532   26.5583  -30.8341 H   0  0  0  0  0  0  0  0  0  0  0  0
   -1.0056   24.6368  -29.8197 H   0  0  0  0  0  0  0  0  0  0  0  0
   -2.3413   24.7739  -28.6289 H   0  0  0  0  0  0  0  0  0  0  0  0
   -0.2642   23.8372  -27.6123 H   0  0  0  0  0  0  0  0  0  0  0  0
   -1.6579   22.6611  -27.5868 H   0  0  0  0  0  0  0  0  0  0  0  0
  1  2  1  0
  2  3  1  0
  3  4  1  0
  4  5  1  0
  5  6  1  0
  6  7  2  0
  7  8  1  0
  8  9  1  0
  9 10  2  0
 10 11  1  0
 11 12  2  0
 12 13  1  0
 13 14  1  0
 14 15  1  0
 15 16  2  0
 15 17  1  0
 17 18  1  0
 18 19  2  0
 19 20  1  0
 20 21  2  0
 21 22  1  0
 22 23  1  0
 23 24  1  0
 23 25  1  0
 22 26  2  0
 13 27  2  0
  8 28  2  0
 28 29  1  0
 29 30  2  0
  5 31  1  0
 31 32  1  0
 32  2  1  0
 30  6  1  0
 27  9  1  0
 26 18  1  0
  1 33  1  0
  1 34  1  0
  1 35  1  0
  3 36  1  0
  3 37  1  0
  4 38  1  0
  4 39  1  0
  7 40  1  0
 10 41  1  0
 11 42  1  0
 12 43  1  0
 14 44  1  0
 19 45  1  0
 20 46  1  0
 21 47  1  0
 24 48  1  0
 24 49  1  0
 24 50  1  0
 25 51  1  0
 25 52  1  0
 25 53  1  0
 26 54  1  0
 27 55  1  0
 28 56  1  0
 29 57  1  0
 31 58  1  0
 31 59  1  0
 32 60  1  0
 32 61  1  0
M  CHG  1  17  -1
M  END
>  <UniqueID>  (5) 
4

>  <SMILES>  (5) 
CN1CCN(c2cc(-c3cccc(NC(=O)[N-]c4cccc(N(C)C)c4)c3)ccn2)CC1

>  <Energy>  (5) 
86.42117475185343

>  <Genealogy>  (5) 
CN1CCN(c2cc(-c3cccc(NC(=O)[N-]c4cccc(N(C)C)c4)c3)ccn2)CC1 (protonated)
CN1CCN(c2cc(-c3cccc(NC(=O)[N-]c4cccc(N(C)C)c4)c3)ccn2)CC1 (3D coordinates assigned)
CN1CCN(c2cc(-c3cccc(NC(=O)[N-]c4cccc(N(C)C)c4)c3)ccn2)CC1 (nonaromatic ring conformer: 86.42117475185343 kcal/mol)

>  <smiles>  (5) 
CN1CCN(c2cc(-c3cccc(NC(=O)Nc4cccc(N(C)C)c4)c3)ccn2)CC1

>  <score_type>  (5) 
oracle

>  <origin>  (5) 
adgpu

>  <m_score__min__energy>  (5) 
-11.06

>  <m_primary>  (5) 
energy

$$$$
5:0
     RDKit          3D

 59 62  0  0  0  0  0  0  0  0999 V2000
   -4.1070   23.8820  -27.6220 C   0  0  0  0  0  0  0  0  0  0  0  0
   -3.3720   22.7550  -28.2890 C   0  0  0  0  0  0  0  0  0  0  0  0
   -3.0450   21.6000  -27.5550 C   0  0  0  0  0  0  0  0  0  0  0  0
   -2.3520   20.5320  -28.1530 C   0  0  0  0  0  0  0  0  0  0  0  0
   -1.9760   19.3620  -27.3840 N   0  0  0  0  0  0  0  0  0  0  0  0
   -2.8480   18.8710  -26.3060 C   0  0  0  0  0  0  0  0  0  0  0  0
   -0.7160   18.6610  -27.6520 C   0  0  0  0  0  0  0  0  0  0  0  0
   -1.9870   20.6480  -29.5080 C   0  0  0  0  0  0  0  0  0  0  0  0
   -2.3230   21.7850  -30.2450 C   0  0  0  0  0  0  0  0  0  0  0  0
   -3.0230   22.8430  -29.6510 C   0  0  0  0  0  0  0  0  0  0  0  0
   -3.3340   24.0390  -30.3840 N   0  0  0  0  0  0  0  0  0  0  0  0
   -4.6260   24.4450  -30.8560 C   0  0  0  0  0  0  0  0  0  0  0  0
   -4.8360   25.6460  -31.1590 O   0  0  0  0  0  0  0  0  0  0  0  0
   -5.6930   23.4380  -31.0470 C   0  0  0  0  0  0  0  0  0  0  0  0
   -6.9860   23.6590  -30.5290 C   0  0  0  0  0  0  0  0  0  0  0  0
   -7.9870   22.6980  -30.6960 C   0  0  0  0  0  0  0  0  0  0  0  0
   -7.7150   21.5120  -31.3790 C   0  0  0  0  0  0  0  0  0  0  0  0
   -6.4500   21.2940  -31.9290 C   0  0  0  0  0  0  0  0  0  0  0  0
   -6.0900   19.7480  -32.6890 S   0  0  0  0  0  0  0  0  0  0  0  0
   -6.8040   18.6650  -31.9290 O   0  0  0  0  0  0  0  0  0  0  0  0
   -6.5840   19.7460  -34.1120 O   0  0  0  0  0  0  0  0  0  0  0  0
   -4.3660   19.4630  -32.6470 N   0  0  1  0  0  0  0  0  0  0  0  0
   -4.0720   18.0890  -33.1070 C   0  0  0  0  0  0  0  0  0  0  0  0
   -2.5510   17.7770  -33.1650 C   0  0  0  0  0  0  0  0  0  0  0  0
   -1.6570   18.9980  -33.1630 C   0  0  0  0  0  0  0  0  0  0  0  0
   -0.2700   18.8360  -33.0200 C   0  0  0  0  0  0  0  0  0  0  0  0
    0.5820   19.9440  -33.0610 C   0  0  0  0  0  0  0  0  0  0  0  0
    0.0580   21.2210  -33.2690 C   0  0  0  0  0  0  0  0  0  0  0  0
   -1.3220   21.3940  -33.4210 C   0  0  0  0  0  0  0  0  0  0  0  0
   -2.1850   20.2860  -33.3460 C   0  0  0  0  0  0  0  0  0  0  0  0
   -3.6680   20.4560  -33.4870 C   0  0  0  0  0  0  0  0  0  0  0  0
   -5.4400   22.2560  -31.7610 C   0  0  0  0  0  0  0  0  0  0  0  0
   -4.0348   23.7713  -26.5300 H   0  0  0  0  0  0  0  0  0  0  0  0
   -3.6600   24.8407  -27.9237 H   0  0  0  0  0  0  0  0  0  0  0  0
   -5.1646   23.8595  -27.9237 H   0  0  0  0  0  0  0  0  0  0  0  0
   -3.3360   21.5311  -26.4964 H   0  0  0  0  0  0  0  0  0  0  0  0
   -2.4031   19.1215  -25.3317 H   0  0  0  0  0  0  0  0  0  0  0  0
   -3.8372   19.3448  -26.3901 H   0  0  0  0  0  0  0  0  0  0  0  0
   -2.9559   17.7795  -26.3901 H   0  0  0  0  0  0  0  0  0  0  0  0
   -0.2354   18.3936  -26.6994 H   0  0  0  0  0  0  0  0  0  0  0  0
   -0.9204   17.7470  -28.2288 H   0  0  0  0  0  0  0  0  0  0  0  0
   -0.0471   19.3167  -28.2288 H   0  0  0  0  0  0  0  0  0  0  0  0
   -1.4300   19.8322  -29.9920 H   0  0  0  0  0  0  0  0  0  0  0  0
   -2.0347   21.8509  -31.3045 H   0  0  0  0  0  0  0  0  0  0  0  0
   -7.2078   24.5924  -29.9908 H   0  0  0  0  0  0  0  0  0  0  0  0
   -8.9926   22.8772  -30.2877 H   0  0  0  0  0  0  0  0  0  0  0  0
   -8.4986   20.7472  -31.4844 H   0  0  0  0  0  0  0  0  0  0  0  0
   -4.0600   19.5680  -31.6480 H   0  0  0  0  0  0  0  0  0  0  0  0
   -4.5487   17.3789  -32.4153 H   0  0  0  0  0  0  0  0  0  0  0  0
   -4.4649   17.9949  -34.1301 H   0  0  0  0  0  0  0  0  0  0  0  0
   -2.2934   17.1617  -32.2904 H   0  0  0  0  0  0  0  0  0  0  0  0
   -2.3744   17.2629  -34.1213 H   0  0  0  0  0  0  0  0  0  0  0  0
    0.1499   17.8297  -32.8746 H   0  0  0  0  0  0  0  0  0  0  0  0
    1.6657   19.8093  -32.9293 H   0  0  0  0  0  0  0  0  0  0  0  0
    0.7298   22.0909  -33.3134 H   0  0  0  0  0  0  0  0  0  0  0  0
   -1.7329   22.3986  -33.5995 H   0  0  0  0  0  0  0  0  0  0  0  0
   -3.9517   21.4694  -33.1668 H   0  0  0  0  0  0  0  0  0  0  0  0
   -3.9528   20.3070  -34.5390 H   0  0  0  0  0  0  0  0  0  0  0  0
   -4.4432   22.0817  -32.1923 H   0  0  0  0  0  0  0  0  0  0  0  0
  1  2  1  0
  2  3  2  0
  3  4  1  0
  4  5  1  0
  5  6  1  0
  5  7  1  0
  4  8  2  0
  8  9  1  0
  9 10  2  0
 10 11  1  0
 11 12  1  0
 12 13  2  0
 12 14  1  0
 14 15  2  0
 15 16  1  0
 16 17  2  0
 17 18  1  0
 18 19  1  0
 19 20  2  0
 19 21  2  0
 19 22  1  0
 22 23  1  0
 23 24  1  0
 24 25  1  0
 25 26  2  0
 26 27  1  0
 27 28  2  0
 28 29  1  0
 29 30  2  0
 30 31  1  0
 18 32  2  0
 10  2  1  0
 32 14  1  0
 31 22  1  0
 30 25  1  0
  1 33  1  0
  1 34  1  0
  1 35  1  0
  3 36  1  0
  6 37  1  0
  6 38  1  0
  6 39  1  0
  7 40  1  0
  7 41  1  0
  7 42  1  0
  8 43  1  0
  9 44  1  0
 15 45  1  0
 16 46  1  0
 17 47  1  0
 22 48  1  1
 23 49  1  0
 23 50  1  0
 24 51  1  0
 24 52  1  0
 26 53  1  0
 27 54  1  0
 28 55  1  0
 29 56  1  0
 31 57  1  0
 31 58  1  0
 32 59  1  0
M  CHG  2  11  -1  22   1
M  END
>  <UniqueID>  (6) 
5

>  <SMILES>  (6) 
Cc1cc(N(C)C)ccc1[N-]C(=O)c1cccc(S(=O)(=O)[N@H+]2CCc3ccccc3C2)c1

>  <Energy>  (6) 
73.62721155401049

>  <Genealogy>  (6) 
Cc1cc(N(C)C)ccc1[N-]C(=O)c1cccc(S(=O)(=O)[NH+]2CCc3ccccc3C2)c1 (protonated)
Cc1cc(N(C)C)ccc1[N-]C(=O)c1cccc(S(=O)(=O)[N@H+]2CCc3ccccc3C2)c1 (chirality)
Cc1cc(N(C)C)ccc1[N-]C(=O)c1cccc(S(=O)(=O)[N@H+]2CCc3ccccc3C2)c1 (3D coordinates assigned)
Cc1cc(N(C)C)ccc1[N-]C(=O)c1cccc(S(=O)(=O)[N@H+]2CCc3ccccc3C2)c1 (nonaromatic ring conformer: 73.62721155401049 kcal/mol)

>  <smiles>  (6) 
Cc1cc(N(C)C)ccc1NC(=O)c1cccc(S(=O)(=O)N2CCc3ccccc3C2)c1

>  <score_type>  (6) 
oracle

>  <origin>  (6) 
adgpu

>  <m_score__min__energy>  (6) 
-11.17

>  <m_primary>  (6) 
energy

$$$$
6:0
     RDKit          3D

 37 39  0  0  0  0  0  0  0  0999 V2000
   -0.4270   20.2060  -34.3480 C   0  0  0  0  0  0  0  0  0  0  0  0
   -1.7960   20.1760  -33.7490 C   0  0  0  0  0  0  0  0  0  0  0  0
   -2.3120   21.3040  -33.1010 C   0  0  0  0  0  0  0  0  0  0  0  0
   -3.5940   21.2330  -32.5330 C   0  0  0  0  0  0  0  0  0  0  0  0
   -4.2040   22.3900  -31.8280 C   0  0  0  0  0  0  0  0  0  0  0  0
   -5.6000   22.5830  -31.8030 C   0  0  0  0  0  0  0  0  0  0  0  0
   -6.1520   23.6750  -31.1260 C   0  0  0  0  0  0  0  0  0  0  0  0
   -5.3220   24.5810  -30.4620 C   0  0  0  0  0  0  0  0  0  0  0  0
   -3.9380   24.3960  -30.4680 C   0  0  0  0  0  0  0  0  0  0  0  0
   -3.1140   25.2960  -29.8030 O   0  0  0  0  0  0  0  0  0  0  0  0
   -3.3800   23.3040  -31.1440 C   0  0  0  0  0  0  0  0  0  0  0  0
   -4.2860   20.0630  -32.6160 N   0  0  0  0  0  0  0  0  0  0  0  0
   -3.7680   18.9740  -33.2400 C   0  0  0  0  0  0  0  0  0  0  0  0
   -4.7110   17.4580  -33.3170 S   0  0  0  0  0  0  0  0  0  0  0  0
   -6.0870   18.2240  -34.2300 C   0  0  0  0  0  0  0  0  0  0  0  0
   -7.0600   18.8260  -33.2590 C   0  0  0  0  0  0  0  0  0  0  0  0
   -7.6790   18.0230  -32.2860 C   0  0  0  0  0  0  0  0  0  0  0  0
   -8.5600   18.5900  -31.3600 C   0  0  0  0  0  0  0  0  0  0  0  0
   -8.8210   19.9630  -31.3930 C   0  0  0  0  0  0  0  0  0  0  0  0
   -8.1980   20.7710  -32.3480 C   0  0  0  0  0  0  0  0  0  0  0  0
   -7.3160   20.2080  -33.2750 C   0  0  0  0  0  0  0  0  0  0  0  0
   -2.5330   19.0360  -33.8010 N   0  0  0  0  0  0  0  0  0  0  0  0
    0.3244   20.2225  -33.5448 H   0  0  0  0  0  0  0  0  0  0  0  0
   -0.2792   19.3109  -34.9700 H   0  0  0  0  0  0  0  0  0  0  0  0
   -0.3186   21.1067  -34.9700 H   0  0  0  0  0  0  0  0  0  0  0  0
   -1.7230   22.2308  -33.0377 H   0  0  0  0  0  0  0  0  0  0  0  0
   -6.2595   21.8700  -32.3194 H   0  0  0  0  0  0  0  0  0  0  0  0
   -7.2423   23.8207  -31.1164 H   0  0  0  0  0  0  0  0  0  0  0  0
   -5.7590   25.4412  -29.9338 H   0  0  0  0  0  0  0  0  0  0  0  0
   -2.2896   23.1592  -31.1406 H   0  0  0  0  0  0  0  0  0  0  0  0
   -5.6950   19.0108  -34.8912 H   0  0  0  0  0  0  0  0  0  0  0  0
   -6.5976   17.4584  -34.8326 H   0  0  0  0  0  0  0  0  0  0  0  0
   -7.4695   16.9436  -32.2527 H   0  0  0  0  0  0  0  0  0  0  0  0
   -9.0478   17.9555  -30.6054 H   0  0  0  0  0  0  0  0  0  0  0  0
   -9.5173   20.4077  -30.6667 H   0  0  0  0  0  0  0  0  0  0  0  0
   -8.4020   21.8517  -32.3703 H   0  0  0  0  0  0  0  0  0  0  0  0
   -6.8207   20.8487  -34.0194 H   0  0  0  0  0  0  0  0  0  0  0  0
  1  2  1  0
  2  3  2  0
  3  4  1  0
  4  5  1  0
  5  6  2  0
  6  7  1  0
  7  8  2  0
  8  9  1  0
  9 10  1  0
  9 11  2  0
  4 12  2  0
 12 13  1  0
 13 14  1  0
 14 15  1  0
 15 16  1  0
 16 17  2  0
 17 18  1  0
 18 19  2  0
 19 20  1  0
 20 21  2  0
 13 22  2  0
 22  2  1  0
 11  5  1  0
 21 16  1  0
  1 23  1  0
  1 24  1  0
  1 25  1  0
  3 26  1  0
  6 27  1  0
  7 28  1  0
  8 29  1  0
 11 30  1  0
 15 31  1  0
 15 32  1  0
 17 33  1  0
 18 34  1  0
 19 35  1  0
 20 36  1  0
 21 37  1  0
M  CHG  1  10  -1
M  END
>  <UniqueID>  (7) 
6

>  <SMILES>  (7) 
Cc1cc(-c2cccc([O-])c2)nc(SCc2ccccc2)n1

>  <Energy>  (7) 
38.554601049299414

>  <Genealogy>  (7) 
Cc1cc(-c2cccc([O-])c2)nc(SCc2ccccc2)n1 (protonated)
Cc1cc(-c2cccc([O-])c2)nc(SCc2ccccc2)n1 (3D coordinates assigned)
Cc1cc(-c2cccc([O-])c2)nc(SCc2ccccc2)n1 (optimized conformer: 38.554601049299414 kcal/mol)

>  <smiles>  (7) 
Cc1cc(-c2cccc(O)c2)nc(SCc2ccccc2)n1

>  <score_type>  (7) 
oracle

>  <origin>  (7) 
adgpu

>  <m_score__min__energy>  (7) 
-11.470000000000001

>  <m_primary>  (7) 
energy

$$$$
7:0
     RDKit          3D

 29 30  0  0  0  0  0  0  0  0999 V2000
   -5.5830   26.1070  -30.6160 O   0  0  0  0  0  0  0  0  0  0  0  0
   -4.9540   25.0210  -30.7210 C   0  0  0  0  0  0  0  0  0  0  0  0
   -3.5460   25.0100  -30.4460 N   0  0  0  0  0  0  0  0  0  0  0  0
   -2.9040   24.4000  -29.3170 C   0  0  0  0  0  0  0  0  0  0  0  0
   -3.3810   23.2000  -28.7580 C   0  0  0  0  0  0  0  0  0  0  0  0
   -2.7270   22.6220  -27.6670 C   0  0  0  0  0  0  0  0  0  0  0  0
   -1.5850   23.2250  -27.1350 C   0  0  0  0  0  0  0  0  0  0  0  0
   -1.0900   24.4020  -27.7000 C   0  0  0  0  0  0  0  0  0  0  0  0
   -1.7420   24.9860  -28.7910 C   0  0  0  0  0  0  0  0  0  0  0  0
   -1.2360   26.1560  -29.3470 O   0  0  0  0  0  0  0  0  0  0  0  0
   -5.6910   23.7980  -31.1110 C   0  0  0  0  0  0  0  0  0  0  0  0
   -7.0690   23.7360  -30.8580 C   0  0  0  0  0  0  0  0  0  0  0  0
   -7.8200   22.6330  -31.2720 C   0  0  0  0  0  0  0  0  0  0  0  0
   -7.2010   21.5560  -31.9250 C   0  0  0  0  0  0  0  0  0  0  0  0
   -8.0210   20.3930  -32.4260 C   0  0  0  0  0  0  0  0  0  0  0  0
   -8.0440   19.4050  -31.4600 F   0  0  0  0  0  0  0  0  0  0  0  0
   -9.3190   20.7910  -32.6960 F   0  0  0  0  0  0  0  0  0  0  0  0
   -7.4770   19.8750  -33.5890 F   0  0  0  0  0  0  0  0  0  0  0  0
   -5.8210   21.6150  -32.1800 C   0  0  0  0  0  0  0  0  0  0  0  0
   -5.0580   22.7100  -31.7550 C   0  0  0  0  0  0  0  0  0  0  0  0
   -3.6780   22.6680  -31.9650 O   0  0  0  0  0  0  0  0  0  0  0  0
   -4.2727   22.7149  -29.1818 H   0  0  0  0  0  0  0  0  0  0  0  0
   -3.1121   21.6906  -27.2263 H   0  0  0  0  0  0  0  0  0  0  0  0
   -1.0757   22.7728  -26.2712 H   0  0  0  0  0  0  0  0  0  0  0  0
   -0.1852   24.8711  -27.2862 H   0  0  0  0  0  0  0  0  0  0  0  0
   -7.5634   24.5638  -30.3285 H   0  0  0  0  0  0  0  0  0  0  0  0
   -8.9037   22.6086  -31.0849 H   0  0  0  0  0  0  0  0  0  0  0  0
   -5.3331   20.7905  -32.7205 H   0  0  0  0  0  0  0  0  0  0  0  0
   -3.0280   23.2730  -31.4790 H   0  0  0  0  0  0  0  0  0  0  0  0
  1  2  2  0
  2  3  1  0
  3  4  1  0
  4  5  2  0
  5  6  1  0
  6  7  2  0
  7  8  1  0
  8  9  2  0
  9 10  1  0
  2 11  1  0
 11 12  2  0
 12 13  1  0
 13 14  2  0
 14 15  1  0
 15 16  1  0
 15 17  1  0
 15 18  1  0
 14 19  1  0
 19 20  2  0
 20 21  1  0
  9  4  1  0
 20 11  1  0
  5 22  1  0
  6 23  1  0
  7 24  1  0
  8 25  1  0
 12 26  1  0
 13 27  1  0
 19 28  1  0
 21 29  1  0
M  CHG  2   3  -1  10  -1
M  END
>  <UniqueID>  (8) 
7

>  <SMILES>  (8) 
O=C([N-]c1ccccc1[O-])c1ccc(C(F)(F)F)cc1O

>  <Energy>  (8) 
40.364486860348634

>  <Genealogy>  (8) 
O=C([N-]c1ccccc1[O-])c1ccc(C(F)(F)F)cc1O (protonated)
O=C([N-]c1ccccc1[O-])c1ccc(C(F)(F)F)cc1O (3D coordinates assigned)
O=C([N-]c1ccccc1[O-])c1ccc(C(F)(F)F)cc1O (optimized conformer: 40.364486860348634 kcal/mol)

>  <smiles>  (8) 
O=C(Nc1ccccc1O)c1ccc(C(F)(F)F)cc1O

>  <score_type>  (8) 
oracle

>  <origin>  (8) 
adgpu

>  <m_score__min__energy>  (8) 
-11.75

>  <m_primary>  (8) 
energy

$$$$
8:0
     RDKit          3D

 49 52  0  0  0  0  0  0  0  0999 V2000
   -6.3877   23.1527  -30.8820 H   0  0  0  0  0  0  0  0  0  0  0  0
   -5.6860   22.5180  -31.4430 C   0  0  0  0  0  0  0  0  0  0  0  0
   -4.3120   22.7540  -31.3790 C   0  0  0  0  0  0  0  0  0  0  0  0
   -3.8380   23.8900  -30.6350 N   0  0  0  0  0  0  0  0  0  0  0  0
   -2.7340   24.0010  -29.9530 C   0  0  0  0  0  0  0  0  0  0  0  0
   -1.7960   23.0170  -29.6840 C   0  0  0  0  0  0  0  0  0  0  0  0
   -1.7917   21.9705  -30.0228 H   0  0  0  0  0  0  0  0  0  0  0  0
   -0.8670   23.6620  -28.8890 C   0  0  0  0  0  0  0  0  0  0  0  0
    0.3080   23.0170  -28.2270 C   0  0  0  0  0  0  0  0  0  0  0  0
    0.1936   23.0798  -27.1348 H   0  0  0  0  0  0  0  0  0  0  0  0
    0.3653   21.9610  -28.5296 H   0  0  0  0  0  0  0  0  0  0  0  0
    1.2297   23.5356  -28.5296 H   0  0  0  0  0  0  0  0  0  0  0  0
   -1.2410   24.9420  -28.6780 N   0  0  0  0  0  0  0  0  0  0  0  0
   -2.3740   25.1410  -29.3360 N   0  0  0  0  0  0  0  0  0  0  0  0
   -2.8990   26.0430  -29.3420 H   0  0  0  0  0  0  0  0  0  0  0  0
   -3.4640   21.9610  -32.0880 N   0  0  0  0  0  0  0  0  0  0  0  0
   -3.9290   20.9300  -32.8500 C   0  0  0  0  0  0  0  0  0  0  0  0
   -3.1190   20.1920  -33.5510 N   0  0  0  0  0  0  0  0  0  0  0  0
   -1.6880   20.2740  -33.5120 C   0  0  0  0  0  0  0  0  0  0  0  0
   -0.9900   20.7260  -34.6370 C   0  0  0  0  0  0  0  0  0  0  0  0
   -1.5427   21.0334  -35.5370 H   0  0  0  0  0  0  0  0  0  0  0  0
    0.4080   20.7890  -34.6230 C   0  0  0  0  0  0  0  0  0  0  0  0
    0.9492   21.1619  -35.5051 H   0  0  0  0  0  0  0  0  0  0  0  0
    1.1240   20.3760  -33.4820 C   0  0  0  0  0  0  0  0  0  0  0  0
    2.5260   20.4200  -33.4180 O   0  0  0  0  0  0  0  0  0  0  0  0
    3.3510   19.2990  -33.1170 C   0  0  0  0  0  0  0  0  0  0  0  0
    3.4335   19.1869  -32.0258 H   0  0  0  0  0  0  0  0  0  0  0  0
    2.9050   18.3897  -33.5463 H   0  0  0  0  0  0  0  0  0  0  0  0
    4.3518   19.4544  -33.5463 H   0  0  0  0  0  0  0  0  0  0  0  0
    0.4220   19.8970  -32.3700 C   0  0  0  0  0  0  0  0  0  0  0  0
    0.9724   19.5704  -31.4754 H   0  0  0  0  0  0  0  0  0  0  0  0
   -0.9750   19.8310  -32.3890 C   0  0  0  0  0  0  0  0  0  0  0  0
   -1.5164   19.4300  -31.5195 H   0  0  0  0  0  0  0  0  0  0  0  0
   -5.2650   20.6960  -32.9170 N   0  0  0  0  0  0  0  0  0  0  0  0
   -6.1590   21.4610  -32.2320 C   0  0  0  0  0  0  0  0  0  0  0  0
   -7.5630   21.1490  -32.2980 N   0  0  0  0  0  0  0  0  0  0  0  0
   -8.0060   19.9810  -33.0650 C   0  0  0  0  0  0  0  0  0  0  0  0
   -8.1495   20.2674  -34.1173 H   0  0  0  0  0  0  0  0  0  0  0  0
   -7.2439   19.1905  -32.9984 H   0  0  0  0  0  0  0  0  0  0  0  0
   -9.3280   19.4610  -32.4940 C   0  0  0  0  0  0  0  0  0  0  0  0
   -9.7140   18.6638  -33.1463 H   0  0  0  0  0  0  0  0  0  0  0  0
   -9.1462   19.0722  -31.4812 H   0  0  0  0  0  0  0  0  0  0  0  0
  -10.2850   20.5010  -32.4160 O   0  0  0  0  0  0  0  0  0  0  0  0
   -9.8540   21.4780  -31.4860 C   0  0  0  0  0  0  0  0  0  0  0  0
  -10.6442   22.2334  -31.3638 H   0  0  0  0  0  0  0  0  0  0  0  0
   -9.6459   20.9839  -30.5255 H   0  0  0  0  0  0  0  0  0  0  0  0
   -8.5740   22.1640  -31.9740 C   0  0  0  0  0  0  0  0  0  0  0  0
   -8.7970   22.7582  -32.8724 H   0  0  0  0  0  0  0  0  0  0  0  0
   -8.1886   22.8233  -31.1823 H   0  0  0  0  0  0  0  0  0  0  0  0
  1  2  1  0
  2  3  1  0
  3  4  1  0
  4  5  2  0
  5  6  1  0
  6  7  1  0
  6  8  2  0
  8  9  1  0
  9 10  1  0
  9 11  1  0
  9 12  1  0
  8 13  1  0
 13 14  1  0
 14 15  1  0
  3 16  2  0
 16 17  1  0
 17 18  2  0
 18 19  1  0
 19 20  2  0
 20 21  1  0
 20 22  1  0
 22 23  1  0
 22 24  2  0
 24 25  1  0
 25 26  1  0
 26 27  1  0
 26 28  1  0
 26 29  1  0
 24 30  1  0
 30 31  1  0
 30 32  2  0
 32 33  1  0
 17 34  1  0
 34 35  1  0
 35 36  1  0
 36 37  1  0
 37 38  1  0
 37 39  1  0
 37 40  1  0
 40 41  1  0
 40 42  1  0
 40 43  1  0
 43 44  1  0
 44 45  1  0
 44 46  1  0
 44 47  1  0
 47 48  1  0
 47 49  1  0
 35  2  2  0
 47 36  1  0
 14  5  1  0
 32 19  1  0
M  CHG  2  13  -1  34  -1
M  END
>  <UniqueID>  (9) 
8

>  <SMILES>  (9) 
COc1ccc(/N=c2\nc(/N=c3\cc(C)[n-][nH]3)cc(N3CCOCC3)[n-]2)cc1

>  <Energy>  (9) 
96.71453923013776

>  <Genealogy>  (9) 
COc1ccc(N=c2nc(N=c3cc(C)[n-][nH]3)cc(N3CCOCC3)[n-]2)cc1 (protonated)
COc1ccc(/N=c2\nc(/N=c3\cc(C)[n-][nH]3)cc(N3CCOCC3)[n-]2)cc1 (cis-trans isomerization)
COc1ccc(/N=c2\nc(/N=c3\cc(C)[n-][nH]3)cc(N3CCOCC3)[n-]2)cc1 (3D coordinates assigned)
COc1ccc(/N=c2\nc(/N=c3\cc(C)[n-][nH]3)cc(N3CCOCC3)[n-]2)cc1 (nonaromatic ring conformer: 96.71453923013776 kcal/mol)

>  <smiles>  (9) 
COc1ccc(N=c2nc(N=c3cc(C)[nH][nH]3)cc(N3CCOCC3)[nH]2)cc1

>  <score_type>  (9) 
oracle

>  <origin>  (9) 
adgpu

>  <m_score__min__energy>  (9) 
-9.4100000000000001

>  <m_primary>  (9) 
energy

$$$$
9:0
     RDKit          3D

 30 31  0  0  0  0  0  0  0  0999 V2000
   -9.0440   20.9870  -31.1970 C   0  0  0  0  0  0  0  0  0  0  0  0
   -8.0810   22.1260  -31.2090 C   0  0  0  0  0  0  0  0  0  0  0  0
   -7.6150   22.7800  -32.3430 C   0  0  0  0  0  0  0  0  0  0  0  0
   -6.6560   23.7600  -32.0580 C   0  0  0  0  0  0  0  0  0  0  0  0
   -6.3690   23.8590  -30.7050 C   0  0  0  0  0  0  0  0  0  0  0  0
   -5.2130   24.9670  -29.9880 S   0  0  0  0  0  0  0  0  0  0  0  0
   -5.7410   26.3660  -30.1240 O   0  0  0  0  0  0  0  0  0  0  0  0
   -3.9030   24.8730  -30.7210 O   0  0  0  0  0  0  0  0  0  0  0  0
   -4.9670   24.6120  -28.3000 N   0  0  0  0  0  0  0  0  0  0  0  0
   -3.6950   23.9170  -28.0570 C   0  0  0  0  0  0  0  0  0  0  0  0
   -2.6380   24.8260  -27.4730 C   0  0  0  0  0  0  0  0  0  0  0  0
   -1.5330   25.2200  -28.2450 C   0  0  0  0  0  0  0  0  0  0  0  0
   -0.5640   26.0720  -27.7060 C   0  0  0  0  0  0  0  0  0  0  0  0
   -0.6880   26.5310  -26.3920 C   0  0  0  0  0  0  0  0  0  0  0  0
   -1.7810   26.1360  -25.6150 C   0  0  0  0  0  0  0  0  0  0  0  0
   -2.7520   25.2860  -26.1510 C   0  0  0  0  0  0  0  0  0  0  0  0
   -7.2860   22.7340  -29.8560 S   0  0  0  0  0  0  0  0  0  0  0  0
   -9.2753   20.7134  -30.1570 H   0  0  0  0  0  0  0  0  0  0  0  0
   -9.9693   21.2837  -31.7126 H   0  0  0  0  0  0  0  0  0  0  0  0
   -8.5976   20.1239  -31.7126 H   0  0  0  0  0  0  0  0  0  0  0  0
   -7.9638   22.5513  -33.3608 H   0  0  0  0  0  0  0  0  0  0  0  0
   -6.1801   24.3859  -32.8272 H   0  0  0  0  0  0  0  0  0  0  0  0
   -4.9810   25.5170  -27.7740 H   0  0  0  0  0  0  0  0  0  0  0  0
   -3.8744   23.0891  -27.3553 H   0  0  0  0  0  0  0  0  0  0  0  0
   -3.3233   23.5539  -29.0266 H   0  0  0  0  0  0  0  0  0  0  0  0
   -1.4293   24.8568  -29.2781 H   0  0  0  0  0  0  0  0  0  0  0  0
    0.2968   26.3812  -28.3170 H   0  0  0  0  0  0  0  0  0  0  0  0
    0.0738   27.2026  -25.9693 H   0  0  0  0  0  0  0  0  0  0  0  0
   -1.8768   26.4950  -24.5797 H   0  0  0  0  0  0  0  0  0  0  0  0
   -3.6090   24.9760  -25.5350 H   0  0  0  0  0  0  0  0  0  0  0  0
  1  2  1  0
  2  3  2  0
  3  4  1  0
  4  5  2  0
  5  6  1  0
  6  7  2  0
  6  8  2  0
  6  9  1  0
  9 10  1  0
 10 11  1  0
 11 12  2  0
 12 13  1  0
 13 14  2  0
 14 15  1  0
 15 16  2  0
  5 17  1  0
 17  2  1  0
 16 11  1  0
  1 18  1  0
  1 19  1  0
  1 20  1  0
  3 21  1  0
  4 22  1  0
  9 23  1  0
 10 24  1  0
 10 25  1  0
 12 26  1  0
 13 27  1  0
 14 28  1  0
 15 29  1  0
 16 30  1  0
M  END
>  <UniqueID>  (10) 
9

>  <SMILES>  (10) 
Cc1ccc(S(=O)(=O)NCc2ccccc2)s1

>  <Energy>  (10) 
53.40811873741363

>  <Genealogy>  (10) 
Cc1ccc(S(=O)(=O)NCc2ccccc2)s1 (3D coordinates assigned)
Cc1ccc(S(=O)(=O)NCc2ccccc2)s1 (optimized conformer: 53.40811873741363 kcal/mol)

>  <smiles>  (10) 
Cc1ccc(S(=O)(=O)NCc2ccccc2)s1

>  <score_type>  (10) 
oracle

>  <origin>  (10) 
adgpu

>  <m_score__min__energy>  (10) 
-7.7300000000000004

>  <m_primary>  (10) 
energy

$$$$
10:0
     RDKit          3D

 51 53  0  0  0  0  0  0  0  0999 V2000
   -0.1210   20.2340  -30.6450 C   0  0  0  0  0  0  0  0  0  0  0  0
    0.0470   19.3850  -31.9060 C   0  0  0  0  0  0  0  0  0  0  0  0
   -0.8630   19.8360  -32.9830 N   0  0  0  0  0  0  0  0  0  0  0  0
   -2.0010   18.8970  -33.1620 C   0  0  0  0  0  0  0  0  0  0  0  0
   -3.2420   19.3010  -32.3550 C   0  0  0  0  0  0  0  0  0  0  0  0
   -3.6210   20.6840  -32.6590 N   0  0  0  0  0  0  0  0  0  0  0  0
   -4.9740   21.1150  -32.4540 C   0  0  0  0  0  0  0  0  0  0  0  0
   -6.0170   20.4470  -33.1100 C   0  0  0  0  0  0  0  0  0  0  0  0
   -7.3430   20.8230  -32.8970 C   0  0  0  0  0  0  0  0  0  0  0  0
   -7.6530   21.8840  -32.0300 C   0  0  0  0  0  0  0  0  0  0  0  0
   -9.0200   22.2830  -31.8180 N   0  0  0  0  0  0  0  0  0  0  0  0
   -9.7960   21.5670  -31.1510 O   0  0  0  0  0  0  0  0  0  0  0  0
   -9.4950   23.4640  -32.3410 O   0  0  0  0  0  0  0  0  0  0  0  0
   -6.6060   22.5620  -31.3820 C   0  0  0  0  0  0  0  0  0  0  0  0
   -5.2670   22.1790  -31.5770 C   0  0  0  0  0  0  0  0  0  0  0  0
   -4.2000   22.9320  -30.9770 N   0  0  0  0  0  0  0  0  0  0  0  0
   -3.3160   22.3930  -29.9780 C   0  0  0  0  0  0  0  0  0  0  0  0
   -3.3440   21.1610  -29.7100 O   0  0  0  0  0  0  0  0  0  0  0  0
   -2.3830   23.2670  -29.2310 C   0  0  0  0  0  0  0  0  0  0  0  0
   -1.4000   22.6760  -28.4180 C   0  0  0  0  0  0  0  0  0  0  0  0
   -0.5120   23.4690  -27.6770 C   0  0  0  0  0  0  0  0  0  0  0  0
    0.5500   22.8270  -26.8330 C   0  0  0  0  0  0  0  0  0  0  0  0
   -0.5810   24.8650  -27.7820 C   0  0  0  0  0  0  0  0  0  0  0  0
   -1.5390   25.4610  -28.6030 C   0  0  0  0  0  0  0  0  0  0  0  0
   -2.4340   24.6730  -29.3330 C   0  0  0  0  0  0  0  0  0  0  0  0
   -3.3420   25.2990  -30.1790 O   0  0  0  0  0  0  0  0  0  0  0  0
   -2.6660   21.5630  -33.3360 C   0  0  0  0  0  0  0  0  0  0  0  0
   -1.2570   21.2620  -32.8150 C   0  0  0  0  0  0  0  0  0  0  0  0
    0.0047   19.5987  -29.7558 H   0  0  0  0  0  0  0  0  0  0  0  0
    0.6368   21.0313  -30.6361 H   0  0  0  0  0  0  0  0  0  0  0  0
   -1.1253   20.6826  -30.6361 H   0  0  0  0  0  0  0  0  0  0  0  0
    1.0862   19.4668  -32.2572 H   0  0  0  0  0  0  0  0  0  0  0  0
   -0.1988   18.3420  -31.6577 H   0  0  0  0  0  0  0  0  0  0  0  0
   -2.2694   18.8702  -34.2284 H   0  0  0  0  0  0  0  0  0  0  0  0
   -1.6762   17.9117  -32.7964 H   0  0  0  0  0  0  0  0  0  0  0  0
   -4.0759   18.6316  -32.6129 H   0  0  0  0  0  0  0  0  0  0  0  0
   -3.0116   19.2216  -31.2823 H   0  0  0  0  0  0  0  0  0  0  0  0
   -5.7880   19.6199  -33.7981 H   0  0  0  0  0  0  0  0  0  0  0  0
   -8.1524   20.2846  -33.4118 H   0  0  0  0  0  0  0  0  0  0  0  0
   -6.8373   23.4040  -30.7130 H   0  0  0  0  0  0  0  0  0  0  0  0
   -4.0860   23.9260  -31.2740 H   0  0  0  0  0  0  0  0  0  0  0  0
   -1.3267   21.5798  -28.3626 H   0  0  0  0  0  0  0  0  0  0  0  0
    0.3103   22.9719  -25.7692 H   0  0  0  0  0  0  0  0  0  0  0  0
    0.5944   21.7507  -27.0556 H   0  0  0  0  0  0  0  0  0  0  0  0
    1.5237   23.2879  -27.0556 H   0  0  0  0  0  0  0  0  0  0  0  0
    0.1224   25.4928  -27.2153 H   0  0  0  0  0  0  0  0  0  0  0  0
   -1.5904   26.5573  -28.6763 H   0  0  0  0  0  0  0  0  0  0  0  0
   -2.7044   21.3840  -34.4206 H   0  0  0  0  0  0  0  0  0  0  0  0
   -2.9205   22.6141  -33.1350 H   0  0  0  0  0  0  0  0  0  0  0  0
   -0.5396   21.8901  -33.3635 H   0  0  0  0  0  0  0  0  0  0  0  0
   -1.2538   21.4777  -31.7364 H   0  0  0  0  0  0  0  0  0  0  0  0
  1  2  1  0
  2  3  1  0
  3  4  1  0
  4  5  1  0
  5  6  1  0
  6  7  1  0
  7  8  2  0
  8  9  1  0
  9 10  2  0
 10 11  1  0
 11 12  2  0
 11 13  1  0
 10 14  1  0
 14 15  2  0
 15 16  1  0
 16 17  1  0
 17 18  2  0
 17 19  1  0
 19 20  2  0
 20 21  1  0
 21 22  1  0
 21 23  2  0
 23 24  1  0
 24 25  2  0
 25 26  1  0
  6 27  1  0
 27 28  1  0
 28  3  1  0
 15  7  1  0
 25 19  1  0
  1 29  1  0
  1 30  1  0
  1 31  1  0
  2 32  1  0
  2 33  1  0
  4 34  1  0
  4 35  1  0
  5 36  1  0
  5 37  1  0
  8 38  1  0
  9 39  1  0
 14 40  1  0
 16 41  1  0
 20 42  1  0
 22 43  1  0
 22 44  1  0
 22 45  1  0
 23 46  1  0
 24 47  1  0
 27 48  1  0
 27 49  1  0
 28 50  1  0
 28 51  1  0
M  CHG  3  11   1  13  -1  26  -1
M  END
>  <UniqueID>  (11) 
10

>  <SMILES>  (11) 
CCN1CCN(c2ccc([N+](=O)[O-])cc2NC(=O)c2cc(C)ccc2[O-])CC1

>  <Energy>  (11) 
71.74156794811087

>  <Genealogy>  (11) 
CCN1CCN(c2ccc([N+](=O)[O-])cc2NC(=O)c2cc(C)ccc2[O-])CC1 (protonated)
CCN1CCN(c2ccc([N+](=O)[O-])cc2NC(=O)c2cc(C)ccc2[O-])CC1 (3D coordinates assigned)
CCN1CCN(c2ccc([N+](=O)[O-])cc2NC(=O)c2cc(C)ccc2[O-])CC1 (nonaromatic ring conformer: 71.74156794811087 kcal/mol)

>  <smiles>  (11) 
CCN1CCN(c2ccc([N+](=O)[O-])cc2NC(=O)c2cc(C)ccc2O)CC1

>  <score_type>  (11) 
oracle

>  <origin>  (11) 
adgpu

>  <m_score__min__energy>  (11) 
-12.529999999999999

>  <m_primary>  (11) 
energy

$$$$
11:0
     RDKit          3D

 27 28  0  0  0  0  0  0  0  0999 V2000
   -0.1288   21.8962  -24.7205 H   0  0  0  0  0  0  0  0  0  0  0  0
   -0.4690   22.6080  -25.4870 C   0  0  0  0  0  0  0  0  0  0  0  0
   -1.0630   22.1030  -26.5850 C   0  0  0  0  0  0  0  0  0  0  0  0
   -1.1230   20.6690  -26.7360 C   0  0  0  0  0  0  0  0  0  0  0  0
   -1.1710   19.5190  -26.8580 N   0  0  0  0  0  0  0  0  0  0  0  0
   -1.7170   22.9400  -27.6200 C   0  0  0  0  0  0  0  0  0  0  0  0
   -2.9230   22.5210  -28.2060 C   0  0  0  0  0  0  0  0  0  0  0  0
   -3.3785   21.5679  -27.8991 H   0  0  0  0  0  0  0  0  0  0  0  0
   -3.5470   23.3090  -29.1770 C   0  0  0  0  0  0  0  0  0  0  0  0
   -4.4868   22.9700  -29.6373 H   0  0  0  0  0  0  0  0  0  0  0  0
   -2.9810   24.5260  -29.5650 C   0  0  0  0  0  0  0  0  0  0  0  0
   -3.6060   25.3030  -30.5340 O   0  0  0  0  0  0  0  0  0  0  0  0
   -1.7880   24.9620  -28.9750 C   0  0  0  0  0  0  0  0  0  0  0  0
   -1.2230   26.1750  -29.3510 O   0  0  0  0  0  0  0  0  0  0  0  0
   -1.1620   24.1760  -28.0020 C   0  0  0  0  0  0  0  0  0  0  0  0
   -0.2307   24.5257  -27.5326 H   0  0  0  0  0  0  0  0  0  0  0  0
   -0.2390   24.0480  -25.2330 C   0  0  0  0  0  0  0  0  0  0  0  0
    1.0490   24.5770  -25.4160 C   0  0  0  0  0  0  0  0  0  0  0  0
    1.8718   23.9178  -25.7300 H   0  0  0  0  0  0  0  0  0  0  0  0
    1.2910   25.9380  -25.2010 C   0  0  0  0  0  0  0  0  0  0  0  0
    2.3059   26.3423  -25.3296 H   0  0  0  0  0  0  0  0  0  0  0  0
    0.2450   26.7850  -24.8230 C   0  0  0  0  0  0  0  0  0  0  0  0
    0.5780   28.6420  -24.5310 Br  0  0  0  0  0  0  0  0  0  0  0  0
   -1.0470   26.2720  -24.6690 C   0  0  0  0  0  0  0  0  0  0  0  0
   -1.8719   26.9397  -24.3796 H   0  0  0  0  0  0  0  0  0  0  0  0
   -1.2920   24.9130  -24.8820 C   0  0  0  0  0  0  0  0  0  0  0  0
   -2.3128   24.5174  -24.7748 H   0  0  0  0  0  0  0  0  0  0  0  0
  1  2  1  0
  2  3  2  0
  3  4  1  0
  4  5  3  0
  3  6  1  0
  6  7  2  0
  7  8  1  0
  7  9  1  0
  9 10  1  0
  9 11  2  0
 11 12  1  0
 11 13  1  0
 13 14  1  0
 13 15  2  0
 15 16  1  0
  2 17  1  0
 17 18  2  0
 18 19  1  0
 18 20  1  0
 20 21  1  0
 20 22  2  0
 22 23  1  0
 22 24  1  0
 24 25  1  0
 24 26  2  0
 26 27  1  0
 15  6  1  0
 26 17  1  0
M  CHG  2  12  -1  14  -1
M  END
>  <UniqueID>  (12) 
11

>  <SMILES>  (12) 
N#C/C(=C/c1ccc(Br)cc1)c1ccc([O-])c([O-])c1

>  <Energy>  (12) 
37.78647083404067

>  <Genealogy>  (12) 
N#CC(=Cc1ccc(Br)cc1)c1ccc([O-])c([O-])c1 (protonated)
N#C/C(=C/c1ccc(Br)cc1)c1ccc([O-])c([O-])c1 (cis-trans isomerization)
N#C/C(=C/c1ccc(Br)cc1)c1ccc([O-])c([O-])c1 (3D coordinates assigned)
N#C/C(=C/c1ccc(Br)cc1)c1ccc([O-])c([O-])c1 (optimized conformer: 37.78647083404067 kcal/mol)

>  <smiles>  (12) 
N#CC(=Cc1ccc(Br)cc1)c1ccc(O)c(O)c1

>  <score_type>  (12) 
oracle

>  <origin>  (12) 
adgpu

>  <m_score__min__energy>  (12) 
-12.85

>  <m_primary>  (12) 
energy

$$$$
12:0
     RDKit          3D

 36 38  0  0  0  0  0  0  0  0999 V2000
   -1.6510   25.6300  -28.9450 O   0  0  0  0  0  0  0  0  0  0  0  0
   -2.5140   24.7980  -29.3320 C   0  0  0  0  0  0  0  0  0  0  0  0
   -3.5690   25.2530  -30.1920 N   0  0  0  0  0  0  0  0  0  0  0  0
   -4.6500   24.4580  -30.6990 C   0  0  0  0  0  0  0  0  0  0  0  0
   -4.4200   23.3110  -31.4790 C   0  0  0  0  0  0  0  0  0  0  0  0
   -5.4970   22.5500  -31.9460 C   0  0  0  0  0  0  0  0  0  0  0  0
   -6.8120   22.9210  -31.6420 C   0  0  0  0  0  0  0  0  0  0  0  0
   -7.8630   22.1250  -32.1210 O   0  0  0  0  0  0  0  0  0  0  0  0
   -7.8350   20.7290  -32.2420 C   0  0  0  0  0  0  0  0  0  0  0  0
   -8.7320   19.9690  -31.4800 C   0  0  0  0  0  0  0  0  0  0  0  0
   -8.7250   18.5730  -31.5620 C   0  0  0  0  0  0  0  0  0  0  0  0
   -7.8080   17.9260  -32.3970 C   0  0  0  0  0  0  0  0  0  0  0  0
   -6.8960   18.6740  -33.1450 C   0  0  0  0  0  0  0  0  0  0  0  0
   -6.9020   20.0710  -33.0660 C   0  0  0  0  0  0  0  0  0  0  0  0
   -7.0390   24.0420  -30.8260 C   0  0  0  0  0  0  0  0  0  0  0  0
   -5.9630   24.8020  -30.3580 C   0  0  0  0  0  0  0  0  0  0  0  0
   -2.3820   23.3760  -28.9340 C   0  0  0  0  0  0  0  0  0  0  0  0
   -1.4080   22.5620  -29.5390 C   0  0  0  0  0  0  0  0  0  0  0  0
   -1.2810   21.2190  -29.1710 C   0  0  0  0  0  0  0  0  0  0  0  0
   -2.1300   20.6740  -28.2050 C   0  0  0  0  0  0  0  0  0  0  0  0
   -3.1120   21.4690  -27.6090 C   0  0  0  0  0  0  0  0  0  0  0  0
   -3.2430   22.8120  -27.9730 C   0  0  0  0  0  0  0  0  0  0  0  0
   -3.3901   23.0111  -31.7228 H   0  0  0  0  0  0  0  0  0  0  0  0
   -5.3092   21.6542  -32.5561 H   0  0  0  0  0  0  0  0  0  0  0  0
   -9.4464   20.4736  -30.8129 H   0  0  0  0  0  0  0  0  0  0  0  0
   -9.4406   17.9837  -30.9699 H   0  0  0  0  0  0  0  0  0  0  0  0
   -7.8052   16.8281  -32.4645 H   0  0  0  0  0  0  0  0  0  0  0  0
   -6.1718   18.1640  -33.7973 H   0  0  0  0  0  0  0  0  0  0  0  0
   -6.1760   20.6566  -33.6491 H   0  0  0  0  0  0  0  0  0  0  0  0
   -8.0673   24.3227  -30.5543 H   0  0  0  0  0  0  0  0  0  0  0  0
   -6.1497   25.6764  -29.7173 H   0  0  0  0  0  0  0  0  0  0  0  0
   -0.7422   22.9841  -30.3061 H   0  0  0  0  0  0  0  0  0  0  0  0
   -0.5113   20.5907  -29.6430 H   0  0  0  0  0  0  0  0  0  0  0  0
   -2.0253   19.6185  -27.9135 H   0  0  0  0  0  0  0  0  0  0  0  0
   -3.7832   21.0373  -26.8520 H   0  0  0  0  0  0  0  0  0  0  0  0
   -4.0228   23.4317  -27.5063 H   0  0  0  0  0  0  0  0  0  0  0  0
  1  2  2  0
  2  3  1  0
  3  4  1  0
  4  5  2  0
  5  6  1  0
  6  7  2  0
  7  8  1  0
  8  9  1  0
  9 10  2  0
 10 11  1  0
 11 12  2  0
 12 13  1  0
 13 14  2  0
  7 15  1  0
 15 16  2  0
  2 17  1  0
 17 18  2  0
 18 19  1  0
 19 20  2  0
 20 21  1  0
 21 22  2  0
 16  4  1  0
 22 17  1  0
 14  9  1  0
  5 23  1  0
  6 24  1  0
 10 25  1  0
 11 26  1  0
 12 27  1  0
 13 28  1  0
 14 29  1  0
 15 30  1  0
 16 31  1  0
 18 32  1  0
 19 33  1  0
 20 34  1  0
 21 35  1  0
 22 36  1  0
M  CHG  1   3  -1
M  END
>  <UniqueID>  (13) 
12

>  <SMILES>  (13) 
O=C([N-]c1ccc(Oc2ccccc2)cc1)c1ccccc1

>  <Energy>  (13) 
52.29270649019685

>  <Genealogy>  (13) 
O=C([N-]c1ccc(Oc2ccccc2)cc1)c1ccccc1 (protonated)
O=C([N-]c1ccc(Oc2ccccc2)cc1)c1ccccc1 (3D coordinates assigned)
O=C([N-]c1ccc(Oc2ccccc2)cc1)c1ccccc1 (optimized conformer: 52.29270649019685 kcal/mol)

>  <smiles>  (13) 
O=C(Nc1ccc(Oc2ccccc2)cc1)c1ccccc1

>  <score_type>  (13) 
oracle

>  <origin>  (13) 
adgpu

>  <m_score__min__energy>  (13) 
-10.01

>  <m_primary>  (13) 
energy

$$$$
13:0
     RDKit          3D

 57 60  0  0  0  0  0  0  0  0999 V2000
    0.6090   16.0470  -30.8750 C   0  0  0  0  0  0  0  0  0  0  0  0
    1.6360   16.8340  -30.2840 O   0  0  0  0  0  0  0  0  0  0  0  0
    1.3700   17.9330  -29.4630 C   0  0  0  0  0  0  0  0  0  0  0  0
    0.0660   18.1700  -29.0300 C   0  0  0  0  0  0  0  0  0  0  0  0
   -0.1940   19.2720  -28.2190 C   0  0  0  0  0  0  0  0  0  0  0  0
    0.8660   20.1240  -27.8520 C   0  0  0  0  0  0  0  0  0  0  0  0
    0.6980   21.1810  -27.1110 N   0  0  0  0  0  0  0  0  0  0  0  0
   -0.8030   21.7530  -26.4450 S   0  0  0  0  0  0  0  0  0  0  0  0
   -1.6510   20.5790  -26.0410 O   0  0  0  0  0  0  0  0  0  0  0  0
   -0.5140   22.5790  -25.2250 O   0  0  0  0  0  0  0  0  0  0  0  0
   -1.6370   22.7590  -27.6250 C   0  0  0  0  0  0  0  0  0  0  0  0
   -0.9710   23.8130  -28.2680 C   0  0  0  0  0  0  0  0  0  0  0  0
   -1.6570   24.6320  -29.1700 C   0  0  0  0  0  0  0  0  0  0  0  0
   -3.0070   24.3960  -29.4570 C   0  0  0  0  0  0  0  0  0  0  0  0
   -3.6890   25.2770  -30.3590 N   0  0  0  0  0  0  0  0  0  0  0  0
   -5.0930   25.2580  -30.6470 C   0  0  0  0  0  0  0  0  0  0  0  0
   -5.7130   26.3510  -30.7000 O   0  0  0  0  0  0  0  0  0  0  0  0
   -5.8120   24.0010  -30.9480 C   0  0  0  0  0  0  0  0  0  0  0  0
   -6.8230   23.5290  -30.0930 C   0  0  0  0  0  0  0  0  0  0  0  0
   -7.4790   22.3260  -30.3700 C   0  0  0  0  0  0  0  0  0  0  0  0
   -7.1310   21.5760  -31.5010 C   0  0  0  0  0  0  0  0  0  0  0  0
   -7.9400   20.0450  -31.8400 S   0  0  0  0  0  0  0  0  0  0  0  0
   -8.5140   20.1010  -33.2290 O   0  0  0  0  0  0  0  0  0  0  0  0
   -9.0820   19.8650  -30.8810 O   0  0  0  0  0  0  0  0  0  0  0  0
   -6.8610   18.6690  -31.7160 N   0  0  0  0  0  0  0  0  0  0  0  0
   -7.2960   17.5240  -32.5440 C   0  0  0  0  0  0  0  0  0  0  0  0
   -6.4800   17.3780  -33.8380 C   0  0  0  0  0  0  0  0  0  0  0  0
   -6.0440   18.6380  -34.2880 O   0  0  0  0  0  0  0  0  0  0  0  0
   -5.0570   19.1430  -33.4100 C   0  0  0  0  0  0  0  0  0  0  0  0
   -5.4490   19.0400  -31.9170 C   0  0  0  0  0  0  0  0  0  0  0  0
   -6.1290   22.0460  -32.3590 C   0  0  0  0  0  0  0  0  0  0  0  0
   -5.4640   23.2440  -32.0780 C   0  0  0  0  0  0  0  0  0  0  0  0
   -3.6750   23.3410  -28.8090 C   0  0  0  0  0  0  0  0  0  0  0  0
   -2.9900   22.5280  -27.9000 C   0  0  0  0  0  0  0  0  0  0  0  0
    2.1180   19.8350  -28.2990 N   0  0  0  0  0  0  0  0  0  0  0  0
    2.3630   18.7790  -29.0760 N   0  0  0  0  0  0  0  0  0  0  0  0
    0.0023   15.5820  -30.0840 H   0  0  0  0  0  0  0  0  0  0  0  0
   -0.0310   16.6881  -31.4990 H   0  0  0  0  0  0  0  0  0  0  0  0
    1.0616   15.2623  -31.4990 H   0  0  0  0  0  0  0  0  0  0  0  0
   -0.7492   17.4934  -29.3260 H   0  0  0  0  0  0  0  0  0  0  0  0
   -1.2168   19.4750  -27.8686 H   0  0  0  0  0  0  0  0  0  0  0  0
    0.0940   23.9957  -28.0620 H   0  0  0  0  0  0  0  0  0  0  0  0
   -1.1327   25.4672  -29.6574 H   0  0  0  0  0  0  0  0  0  0  0  0
   -7.0996   24.1097  -29.2007 H   0  0  0  0  0  0  0  0  0  0  0  0
   -8.2717   21.9668  -29.6972 H   0  0  0  0  0  0  0  0  0  0  0  0
   -7.1862   16.6022  -31.9538 H   0  0  0  0  0  0  0  0  0  0  0  0
   -8.3424   17.7033  -32.8319 H   0  0  0  0  0  0  0  0  0  0  0  0
   -5.6053   16.7396  -33.6448 H   0  0  0  0  0  0  0  0  0  0  0  0
   -7.1163   16.9235  -34.6116 H   0  0  0  0  0  0  0  0  0  0  0  0
   -4.1282   18.5747  -33.5662 H   0  0  0  0  0  0  0  0  0  0  0  0
   -4.9354   20.2118  -33.6399 H   0  0  0  0  0  0  0  0  0  0  0  0
   -4.8152   18.2779  -31.4401 H   0  0  0  0  0  0  0  0  0  0  0  0
   -5.3034   20.0343  -31.4696 H   0  0  0  0  0  0  0  0  0  0  0  0
   -5.8637   21.4704  -33.2581 H   0  0  0  0  0  0  0  0  0  0  0  0
   -4.6638   23.5950  -32.7462 H   0  0  0  0  0  0  0  0  0  0  0  0
   -4.7389   23.1550  -29.0177 H   0  0  0  0  0  0  0  0  0  0  0  0
   -3.5172   21.7029  -27.3987 H   0  0  0  0  0  0  0  0  0  0  0  0
  1  2  1  0
  2  3  1  0
  3  4  1  0
  4  5  2  0
  5  6  1  0
  6  7  2  3
  7  8  1  0
  8  9  2  0
  8 10  2  0
  8 11  1  0
 11 12  2  0
 12 13  1  0
 13 14  2  0
 14 15  1  0
 15 16  1  0
 16 17  2  0
 16 18  1  0
 18 19  2  0
 19 20  1  0
 20 21  2  0
 21 22  1  0
 22 23  2  0
 22 24  2  0
 22 25  1  0
 25 26  1  0
 26 27  1  0
 27 28  1  0
 28 29  1  0
 29 30  1  0
 21 31  1  0
 31 32  2  0
 14 33  1  0
 33 34  2  0
  6 35  1  0
 35 36  1  0
 36  3  2  0
 34 11  1  0
 32 18  1  0
 30 25  1  0
  1 37  1  0
  1 38  1  0
  1 39  1  0
  4 40  1  0
  5 41  1  0
 12 42  1  0
 13 43  1  0
 19 44  1  0
 20 45  1  0
 26 46  1  0
 26 47  1  0
 27 48  1  0
 27 49  1  0
 29 50  1  0
 29 51  1  0
 30 52  1  0
 30 53  1  0
 31 54  1  0
 32 55  1  0
 33 56  1  0
 34 57  1  0
M  CHG  2  15  -1  35  -1
M  END
>  <UniqueID>  (14) 
13

>  <SMILES>  (14) 
COc1ccc(=NS(=O)(=O)c2ccc([N-]C(=O)c3ccc(S(=O)(=O)N4CCOCC4)cc3)cc2)[n-]n1

>  <Energy>  (14) 
82.48304658458568

>  <Genealogy>  (14) 
COc1ccc(=NS(=O)(=O)c2ccc([N-]C(=O)c3ccc(S(=O)(=O)N4CCOCC4)cc3)cc2)[n-]n1 (protonated)
COc1ccc(=NS(=O)(=O)c2ccc([N-]C(=O)c3ccc(S(=O)(=O)N4CCOCC4)cc3)cc2)[n-]n1 (3D coordinates assigned)
COc1ccc(=NS(=O)(=O)c2ccc([N-]C(=O)c3ccc(S(=O)(=O)N4CCOCC4)cc3)cc2)[n-]n1 (nonaromatic ring conformer: 82.48304658458568 kcal/mol)

>  <smiles>  (14) 
COc1ccc(=NS(=O)(=O)c2ccc(NC(=O)c3ccc(S(=O)(=O)N4CCOCC4)cc3)cc2)[nH]n1

>  <score_type>  (14) 
oracle

>  <origin>  (14) 
adgpu

>  <m_score__min__energy>  (14) 
-12.27

>  <m_primary>  (14) 
energy

$$$$
14:0
     RDKit          3D

 44 46  0  0  0  0  0  0  0  0999 V2000
   -3.1220   17.6700  -34.0500 O   0  0  0  0  0  0  0  0  0  0  0  0
   -3.5640   18.5080  -33.2200 C   0  0  0  0  0  0  0  0  0  0  0  0
   -2.6270   19.2140  -32.3970 N   0  0  0  0  0  0  0  0  0  0  0  0
   -2.8510   20.4380  -31.6810 C   0  0  0  0  0  0  0  0  0  0  0  0
   -4.1060   20.7690  -31.1400 C   0  0  0  0  0  0  0  0  0  0  0  0
   -4.3090   22.0180  -30.5430 C   0  0  0  0  0  0  0  0  0  0  0  0
   -3.2740   22.9620  -30.5070 C   0  0  0  0  0  0  0  0  0  0  0  0
   -3.5550   24.5680  -29.8290 S   0  0  0  0  0  0  0  0  0  0  0  0
   -4.4550   24.4510  -28.6320 O   0  0  0  0  0  0  0  0  0  0  0  0
   -4.2370   25.4400  -30.8470 O   0  0  0  0  0  0  0  0  0  0  0  0
   -2.0470   25.2730  -29.3310 N   0  0  0  0  0  0  0  0  0  0  0  0
   -1.7510   24.9740  -27.9280 C   0  0  0  0  0  0  0  0  0  0  0  0
   -0.5620   24.0170  -27.8410 C   0  0  0  0  0  0  0  0  0  0  0  0
   -1.0250   22.5840  -27.8760 C   0  0  0  0  0  0  0  0  0  0  0  0
   -0.1280   21.5590  -28.2150 C   0  0  0  0  0  0  0  0  0  0  0  0
   -0.5400   20.2240  -28.1820 C   0  0  0  0  0  0  0  0  0  0  0  0
   -1.8500   19.9040  -27.8120 C   0  0  0  0  0  0  0  0  0  0  0  0
   -2.7460   20.9180  -27.4650 C   0  0  0  0  0  0  0  0  0  0  0  0
   -2.3350   22.2540  -27.4890 C   0  0  0  0  0  0  0  0  0  0  0  0
   -2.0230   22.6320  -31.0440 C   0  0  0  0  0  0  0  0  0  0  0  0
   -1.8140   21.3770  -31.6240 C   0  0  0  0  0  0  0  0  0  0  0  0
   -5.0230   18.6780  -33.0630 C   0  0  0  0  0  0  0  0  0  0  0  0
   -5.7780   17.7520  -32.3240 C   0  0  0  0  0  0  0  0  0  0  0  0
   -7.1510   17.9530  -32.1700 C   0  0  0  0  0  0  0  0  0  0  0  0
   -7.7590   19.0720  -32.7400 C   0  0  0  0  0  0  0  0  0  0  0  0
   -9.4810   19.3430  -32.5500 Cl  0  0  0  0  0  0  0  0  0  0  0  0
   -6.9770   19.9780  -33.4600 C   0  0  0  0  0  0  0  0  0  0  0  0
   -5.6420   19.7630  -33.6060 N   0  0  0  0  0  0  0  0  0  0  0  0
   -4.9313   20.0432  -31.1863 H   0  0  0  0  0  0  0  0  0  0  0  0
   -5.2861   22.2602  -30.0996 H   0  0  0  0  0  0  0  0  0  0  0  0
   -1.5076   25.9075  -27.3994 H   0  0  0  0  0  0  0  0  0  0  0  0
   -2.6303   24.5032  -27.4642 H   0  0  0  0  0  0  0  0  0  0  0  0
    0.1108   24.1995  -28.6919 H   0  0  0  0  0  0  0  0  0  0  0  0
   -0.0355   24.1943  -26.8916 H   0  0  0  0  0  0  0  0  0  0  0  0
    0.9029   21.8074  -28.5077 H   0  0  0  0  0  0  0  0  0  0  0  0
    0.1669   19.4241  -28.4474 H   0  0  0  0  0  0  0  0  0  0  0  0
   -2.1751   18.8533  -27.7942 H   0  0  0  0  0  0  0  0  0  0  0  0
   -3.7758   20.6650  -27.1726 H   0  0  0  0  0  0  0  0  0  0  0  0
   -3.0393   23.0495  -27.2040 H   0  0  0  0  0  0  0  0  0  0  0  0
   -1.2018   23.3631  -31.0093 H   0  0  0  0  0  0  0  0  0  0  0  0
   -0.8268   21.1254  -32.0389 H   0  0  0  0  0  0  0  0  0  0  0  0
   -5.2915   16.8759  -31.8705 H   0  0  0  0  0  0  0  0  0  0  0  0
   -7.7528   17.2299  -31.5999 H   0  0  0  0  0  0  0  0  0  0  0  0
   -7.4420   20.8675  -33.9100 H   0  0  0  0  0  0  0  0  0  0  0  0
  1  2  2  0
  2  3  1  0
  3  4  1  0
  4  5  2  0
  5  6  1  0
  6  7  2  0
  7  8  1  0
  8  9  2  0
  8 10  2  0
  8 11  1  0
 11 12  1  0
 12 13  1  0
 13 14  1  0
 14 15  2  0
 15 16  1  0
 16 17  2  0
 17 18  1  0
 18 19  2  0
  7 20  1  0
 20 21  2  0
  2 22  1  0
 22 23  2  0
 23 24  1  0
 24 25  2  0
 25 26  1  0
 25 27  1  0
 27 28  2  0
 21  4  1  0
 28 22  1  0
 19 14  1  0
  5 29  1  0
  6 30  1  0
 12 31  1  0
 12 32  1  0
 13 33  1  0
 13 34  1  0
 15 35  1  0
 16 36  1  0
 17 37  1  0
 18 38  1  0
 19 39  1  0
 20 40  1  0
 21 41  1  0
 23 42  1  0
 24 43  1  0
 27 44  1  0
M  CHG  2   3  -1  11  -1
M  END
>  <UniqueID>  (15) 
14

>  <SMILES>  (15) 
O=C([N-]c1ccc(S(=O)(=O)[N-]CCc2ccccc2)cc1)c1ccc(Cl)cn1

>  <Energy>  (15) 
46.336041321077154

>  <Genealogy>  (15) 
O=C([N-]c1ccc(S(=O)(=O)[N-]CCc2ccccc2)cc1)c1ccc(Cl)cn1 (protonated)
O=C([N-]c1ccc(S(=O)(=O)[N-]CCc2ccccc2)cc1)c1ccc(Cl)cn1 (3D coordinates assigned)
O=C([N-]c1ccc(S(=O)(=O)[N-]CCc2ccccc2)cc1)c1ccc(Cl)cn1 (optimized conformer: 46.336041321077154 kcal/mol)

>  <smiles>  (15) 
O=C(Nc1ccc(S(=O)(=O)NCCc2ccccc2)cc1)c1ccc(Cl)cn1

>  <score_type>  (15) 
oracle

>  <origin>  (15) 
adgpu

>  <m_score__min__energy>  (15) 
-11.69

>  <m_primary>  (15) 
energy

$$$$
15:0
     RDKit          3D

 48 49  0  0  0  0  0  0  0  0999 V2000
   -8.7850   21.7630  -30.9300 C   0  0  0  0  0  0  0  0  0  0  0  0
   -8.1100   22.8160  -31.6100 O   0  0  0  0  0  0  0  0  0  0  0  0
   -6.8660   23.3390  -31.2260 C   0  0  0  0  0  0  0  0  0  0  0  0
   -6.8450   24.5170  -30.4760 C   0  0  0  0  0  0  0  0  0  0  0  0
   -5.6340   25.0760  -30.0660 C   0  0  0  0  0  0  0  0  0  0  0  0
   -4.4120   24.4700  -30.4140 C   0  0  0  0  0  0  0  0  0  0  0  0
   -3.1810   25.0030  -29.9960 O   0  0  0  0  0  0  0  0  0  0  0  0
   -2.3860   24.4780  -28.9390 C   0  0  0  0  0  0  0  0  0  0  0  0
   -4.4260   23.2900  -31.1870 C   0  0  0  0  0  0  0  0  0  0  0  0
   -3.2110   22.6320  -31.5770 N   0  0  0  0  0  0  0  0  0  0  0  0
   -3.1560   21.5000  -32.4530 C   0  0  0  0  0  0  0  0  0  0  0  0
   -3.9340   20.3760  -32.7180 C   0  0  0  0  0  0  0  0  0  0  0  0
   -5.1340   19.7800  -32.2110 N   0  0  0  0  0  0  0  0  0  0  0  0
   -6.1860   19.2540  -33.0880 C   0  0  2  0  0  0  0  0  0  0  0  0
   -7.1490   20.3970  -33.4510 C   0  0  0  0  0  0  0  0  0  0  0  0
   -6.8890   17.9880  -32.4680 C   0  0  0  0  0  0  0  0  0  0  0  0
   -6.8640   16.8180  -33.4810 C   0  0  0  0  0  0  0  0  0  0  0  0
   -8.3580   18.2640  -32.0740 C   0  0  0  0  0  0  0  0  0  0  0  0
   -6.1200   17.5280  -31.2080 C   0  0  0  0  0  0  0  0  0  0  0  0
   -3.0400   20.0010  -33.7010 C   0  0  0  0  0  0  0  0  0  0  0  0
   -2.9690   19.0460  -34.5180 O   0  0  0  0  0  0  0  0  0  0  0  0
   -2.2400   21.0800  -33.3960 C   0  0  0  0  0  0  0  0  0  0  0  0
   -1.1390   21.5180  -33.8200 O   0  0  0  0  0  0  0  0  0  0  0  0
   -5.6500   22.7200  -31.5670 C   0  0  0  0  0  0  0  0  0  0  0  0
   -8.6915   21.9088  -29.8437 H   0  0  0  0  0  0  0  0  0  0  0  0
   -9.8486   21.7680  -31.2104 H   0  0  0  0  0  0  0  0  0  0  0  0
   -8.3364   20.7986  -31.2104 H   0  0  0  0  0  0  0  0  0  0  0  0
   -7.7914   25.0084  -30.2061 H   0  0  0  0  0  0  0  0  0  0  0  0
   -5.6342   25.9979  -29.4659 H   0  0  0  0  0  0  0  0  0  0  0  0
   -2.8240   24.7672  -27.9723 H   0  0  0  0  0  0  0  0  0  0  0  0
   -2.3547   23.3810  -29.0138 H   0  0  0  0  0  0  0  0  0  0  0  0
   -1.3648   24.8799  -29.0138 H   0  0  0  0  0  0  0  0  0  0  0  0
   -2.3040   23.0150  -31.2270 H   0  0  0  0  0  0  0  0  0  0  0  0
   -5.3780   20.0240  -31.2260 H   0  0  0  0  0  0  0  0  0  0  0  0
   -5.7450   18.8842  -34.0254 H   0  0  0  0  0  0  0  0  0  0  0  0
   -7.5363   20.8567  -32.5297 H   0  0  0  0  0  0  0  0  0  0  0  0
   -6.6129   21.1546  -34.0414 H   0  0  0  0  0  0  0  0  0  0  0  0
   -7.9866   19.9972  -34.0414 H   0  0  0  0  0  0  0  0  0  0  0  0
   -6.8436   15.8622  -32.9368 H   0  0  0  0  0  0  0  0  0  0  0  0
   -7.7633   16.8609  -34.1130 H   0  0  0  0  0  0  0  0  0  0  0  0
   -5.9674   16.8993  -34.1130 H   0  0  0  0  0  0  0  0  0  0  0  0
   -8.4467   18.2807  -30.9777 H   0  0  0  0  0  0  0  0  0  0  0  0
   -8.6705   19.2366  -32.4820 H   0  0  0  0  0  0  0  0  0  0  0  0
   -9.0022   17.4712  -32.4820 H   0  0  0  0  0  0  0  0  0  0  0  0
   -6.6629   17.8528  -30.3081 H   0  0  0  0  0  0  0  0  0  0  0  0
   -6.0360   16.4312  -31.2097 H   0  0  0  0  0  0  0  0  0  0  0  0
   -5.1139   17.9728  -31.2097 H   0  0  0  0  0  0  0  0  0  0  0  0
   -5.6589   21.7795  -32.1374 H   0  0  0  0  0  0  0  0  0  0  0  0
  1  2  1  0
  2  3  1  0
  3  4  2  0
  4  5  1  0
  5  6  2  0
  6  7  1  0
  7  8  1  0
  6  9  1  0
  9 10  1  0
 10 11  1  0
 11 12  2  0
 12 13  1  0
 13 14  1  0
 14 15  1  0
 14 16  1  0
 16 17  1  0
 16 18  1  0
 16 19  1  0
 12 20  1  0
 20 21  2  0
 20 22  1  0
 22 23  2  0
  9 24  2  0
 24  3  1  0
 22 11  1  0
  1 25  1  0
  1 26  1  0
  1 27  1  0
  4 28  1  0
  5 29  1  0
  8 30  1  0
  8 31  1  0
  8 32  1  0
 10 33  1  0
 13 34  1  0
 14 35  1  6
 15 36  1  0
 15 37  1  0
 15 38  1  0
 17 39  1  0
 17 40  1  0
 17 41  1  0
 18 42  1  0
 18 43  1  0
 18 44  1  0
 19 45  1  0
 19 46  1  0
 19 47  1  0
 24 48  1  0
M  END
>  <UniqueID>  (16) 
15

>  <SMILES>  (16) 
COc1ccc(OC)c(Nc2c(N[C@H](C)C(C)(C)C)c(=O)c2=O)c1

>  <Energy>  (16) 
36.81154006611404

>  <Genealogy>  (16) 
COc1ccc(OC)c(Nc2c(N[C@H](C)C(C)(C)C)c(=O)c2=O)c1 (chirality)
COc1ccc(OC)c(Nc2c(N[C@H](C)C(C)(C)C)c(=O)c2=O)c1 (3D coordinates assigned)
COc1ccc(OC)c(Nc2c(N[C@H](C)C(C)(C)C)c(=O)c2=O)c1 (optimized conformer: 36.81154006611404 kcal/mol)

>  <smiles>  (16) 
COc1ccc(OC)c(Nc2c(NC(C)C(C)(C)C)c(=O)c2=O)c1

>  <score_type>  (16) 
oracle

>  <origin>  (16) 
adgpu

>  <m_score__min__energy>  (16) 
-8.1699999999999999

>  <m_primary>  (16) 
energy

$$$$
16:0
     RDKit          3D

 45 48  0  0  0  0  0  0  0  0999 V2000
   -2.9250   21.0550  -32.7630 O   0  0  0  0  0  0  0  0  0  0  0  0
   -4.1710   20.9380  -32.6280 C   0  0  0  0  0  0  0  0  0  0  0  0
   -4.9850   22.0690  -32.6680 C   0  0  0  0  0  0  0  0  0  0  0  0
   -6.3720   21.9430  -32.5020 C   0  0  0  0  0  0  0  0  0  0  0  0
   -7.2130   23.2130  -32.4940 C   0  0  0  0  0  0  0  0  0  0  0  0
   -7.1070   24.0010  -31.2410 N   0  0  0  0  0  0  0  0  0  0  0  0
   -7.3800   23.2780  -29.9800 C   0  0  0  0  0  0  0  0  0  0  0  0
   -6.1080   22.6730  -29.3590 C   0  0  0  0  0  0  0  0  0  0  0  0
   -4.9560   23.5700  -29.5130 N   0  0  0  0  0  0  0  0  0  0  0  0
   -3.6140   23.0380  -29.4740 C   0  0  0  0  0  0  0  0  0  0  0  0
   -3.4100   21.6470  -29.4540 C   0  0  0  0  0  0  0  0  0  0  0  0
   -2.1200   21.1180  -29.3750 C   0  0  0  0  0  0  0  0  0  0  0  0
   -1.0170   21.9720  -29.3200 C   0  0  0  0  0  0  0  0  0  0  0  0
   -1.2020   23.3550  -29.3480 C   0  0  0  0  0  0  0  0  0  0  0  0
   -2.4940   23.8960  -29.4300 C   0  0  0  0  0  0  0  0  0  0  0  0
   -2.6620   25.2790  -29.4870 O   0  0  0  0  0  0  0  0  0  0  0  0
   -5.2040   24.9620  -29.8970 C   0  0  0  0  0  0  0  0  0  0  0  0
   -6.0070   24.9980  -31.2040 C   0  0  0  0  0  0  0  0  0  0  0  0
   -6.9120   20.6340  -32.3570 C   0  0  0  0  0  0  0  0  0  0  0  0
   -8.2940   20.3640  -32.2450 C   0  0  0  0  0  0  0  0  0  0  0  0
   -8.7510   19.0530  -32.0790 C   0  0  0  0  0  0  0  0  0  0  0  0
   -7.8470   17.9930  -32.0290 C   0  0  0  0  0  0  0  0  0  0  0  0
   -6.4800   18.2340  -32.1520 C   0  0  0  0  0  0  0  0  0  0  0  0
   -6.0060   19.5400  -32.3210 C   0  0  0  0  0  0  0  0  0  0  0  0
   -4.7000   19.7360  -32.4510 O   0  0  0  0  0  0  0  0  0  0  0  0
   -4.5390   23.0614  -32.8299 H   0  0  0  0  0  0  0  0  0  0  0  0
   -6.8871   23.8486  -33.3306 H   0  0  0  0  0  0  0  0  0  0  0  0
   -8.2634   22.8989  -32.5837 H   0  0  0  0  0  0  0  0  0  0  0  0
   -7.8241   23.9808  -29.2597 H   0  0  0  0  0  0  0  0  0  0  0  0
   -8.0650   22.4491  -30.2120 H   0  0  0  0  0  0  0  0  0  0  0  0
   -6.2826   22.4959  -28.2875 H   0  0  0  0  0  0  0  0  0  0  0  0
   -5.8840   21.7304  -29.8798 H   0  0  0  0  0  0  0  0  0  0  0  0
   -4.2749   20.9689  -29.5010 H   0  0  0  0  0  0  0  0  0  0  0  0
   -1.9729   20.0280  -29.3561 H   0  0  0  0  0  0  0  0  0  0  0  0
   -0.0014   21.5545  -29.2545 H   0  0  0  0  0  0  0  0  0  0  0  0
   -0.3302   24.0245  -29.3056 H   0  0  0  0  0  0  0  0  0  0  0  0
   -1.8950   25.8980  -29.7200 H   0  0  0  0  0  0  0  0  0  0  0  0
   -5.7745   25.4653  -29.1025 H   0  0  0  0  0  0  0  0  0  0  0  0
   -4.2437   25.4782  -30.0429 H   0  0  0  0  0  0  0  0  0  0  0  0
   -6.4409   26.0021  -31.3205 H   0  0  0  0  0  0  0  0  0  0  0  0
   -5.3135   24.7509  -32.0213 H   0  0  0  0  0  0  0  0  0  0  0  0
   -9.0168   21.1921  -32.2887 H   0  0  0  0  0  0  0  0  0  0  0  0
   -9.8295   18.8570  -31.9874 H   0  0  0  0  0  0  0  0  0  0  0  0
   -8.2133   16.9648  -31.8923 H   0  0  0  0  0  0  0  0  0  0  0  0
   -5.7704   17.3942  -32.1161 H   0  0  0  0  0  0  0  0  0  0  0  0
  1  2  2  0
  2  3  1  0
  3  4  2  0
  4  5  1  0
  5  6  1  0
  6  7  1  0
  7  8  1  0
  8  9  1  0
  9 10  1  0
 10 11  2  0
 11 12  1  0
 12 13  2  0
 13 14  1  0
 14 15  2  0
 15 16  1  0
  9 17  1  0
 17 18  1  0
  4 19  1  0
 19 20  2  0
 20 21  1  0
 21 22  2  0
 22 23  1  0
 23 24  2  0
 24 25  1  0
 25  2  1  0
 18  6  1  0
 24 19  1  0
 15 10  1  0
  3 26  1  0
  5 27  1  0
  5 28  1  0
  7 29  1  0
  7 30  1  0
  8 31  1  0
  8 32  1  0
 11 33  1  0
 12 34  1  0
 13 35  1  0
 14 36  1  0
 16 37  1  0
 17 38  1  0
 17 39  1  0
 18 40  1  0
 18 41  1  0
 20 42  1  0
 21 43  1  0
 22 44  1  0
 23 45  1  0
M  END
>  <UniqueID>  (17) 
16

>  <SMILES>  (17) 
O=c1cc(CN2CCN(c3ccccc3O)CC2)c2ccccc2o1

>  <Energy>  (17) 
71.65182486833862

>  <Genealogy>  (17) 
O=c1cc(CN2CCN(c3ccccc3O)CC2)c2ccccc2o1 (3D coordinates assigned)
O=c1cc(CN2CCN(c3ccccc3O)CC2)c2ccccc2o1 (nonaromatic ring conformer: 71.65182486833862 kcal/mol)

>  <smiles>  (17) 
O=c1cc(CN2CCN(c3ccccc3O)CC2)c2ccccc2o1

>  <score_type>  (17) 
oracle

>  <origin>  (17) 
adgpu

>  <m_score__min__energy>  (17) 
-9.0500000000000007

>  <m_primary>  (17) 
energy

$$$$
17:0
     RDKit          3D

 47 49  0  0  0  0  0  0  0  0999 V2000
   -0.1010   22.6700  -23.8610 C   0  0  0  0  0  0  0  0  0  0  0  0
    0.4100   23.1630  -25.0950 O   0  0  0  0  0  0  0  0  0  0  0  0
   -0.3830   23.6670  -26.1360 C   0  0  0  0  0  0  0  0  0  0  0  0
    0.0150   24.8530  -26.7610 C   0  0  0  0  0  0  0  0  0  0  0  0
   -0.7460   25.4090  -27.7930 C   0  0  0  0  0  0  0  0  0  0  0  0
   -1.9020   24.7520  -28.2480 C   0  0  0  0  0  0  0  0  0  0  0  0
   -2.6810   25.2370  -29.3500 N   0  0  0  0  0  0  0  0  0  0  0  0
   -3.9850   24.4100  -30.1420 S   0  0  0  0  0  0  0  0  0  0  0  0
   -5.0600   24.0490  -29.1550 O   0  0  0  0  0  0  0  0  0  0  0  0
   -4.5920   25.3350  -31.1590 O   0  0  0  0  0  0  0  0  0  0  0  0
   -3.3740   22.9810  -30.9680 C   0  0  0  0  0  0  0  0  0  0  0  0
   -2.0850   22.5180  -30.6730 C   0  0  0  0  0  0  0  0  0  0  0  0
   -1.5550   21.4260  -31.3610 C   0  0  0  0  0  0  0  0  0  0  0  0
   -2.3080   20.7880  -32.3490 C   0  0  0  0  0  0  0  0  0  0  0  0
   -3.6100   21.2190  -32.6320 C   0  0  0  0  0  0  0  0  0  0  0  0
   -4.3400   20.5580  -33.6750 N   0  0  0  0  0  0  0  0  0  0  0  0
   -5.2140   19.4360  -33.5080 C   0  0  0  0  0  0  0  0  0  0  0  0
   -4.8130   18.3020  -33.8820 O   0  0  0  0  0  0  0  0  0  0  0  0
   -6.5410   19.5550  -32.8550 C   0  0  0  0  0  0  0  0  0  0  0  0
   -7.0430   20.8330  -32.5520 C   0  0  0  0  0  0  0  0  0  0  0  0
   -8.3160   20.9900  -31.9860 C   0  0  0  0  0  0  0  0  0  0  0  0
   -8.8320   22.3680  -31.6900 C   0  0  0  0  0  0  0  0  0  0  0  0
   -9.0990   19.8590  -31.7250 C   0  0  0  0  0  0  0  0  0  0  0  0
   -8.6140   18.5850  -32.0220 C   0  0  0  0  0  0  0  0  0  0  0  0
   -7.3490   18.4240  -32.6020 C   0  0  0  0  0  0  0  0  0  0  0  0
   -6.9140   17.1470  -32.9570 O   0  0  0  0  0  0  0  0  0  0  0  0
   -4.1440   22.3210  -31.9390 C   0  0  0  0  0  0  0  0  0  0  0  0
   -2.3050   23.5670  -27.6200 C   0  0  0  0  0  0  0  0  0  0  0  0
   -1.5580   23.0270  -26.5700 C   0  0  0  0  0  0  0  0  0  0  0  0
    0.4143   23.1672  -23.0260 H   0  0  0  0  0  0  0  0  0  0  0  0
   -1.1797   22.8773  -23.8018 H   0  0  0  0  0  0  0  0  0  0  0  0
    0.0675   21.5846  -23.8018 H   0  0  0  0  0  0  0  0  0  0  0  0
    0.9386   25.3546  -26.4363 H   0  0  0  0  0  0  0  0  0  0  0  0
   -0.4398   26.3618  -28.2496 H   0  0  0  0  0  0  0  0  0  0  0  0
   -1.4882   23.0176  -29.8956 H   0  0  0  0  0  0  0  0  0  0  0  0
   -0.5424   21.0670  -31.1248 H   0  0  0  0  0  0  0  0  0  0  0  0
   -1.8768   19.9438  -32.9070 H   0  0  0  0  0  0  0  0  0  0  0  0
   -6.4289   21.7212  -32.7618 H   0  0  0  0  0  0  0  0  0  0  0  0
   -8.8863   22.5131  -30.6010 H   0  0  0  0  0  0  0  0  0  0  0  0
   -8.1528   23.1154  -32.1261 H   0  0  0  0  0  0  0  0  0  0  0  0
   -9.8350   22.4855  -32.1261 H   0  0  0  0  0  0  0  0  0  0  0  0
  -10.1001   19.9753  -31.2842 H   0  0  0  0  0  0  0  0  0  0  0  0
   -9.2292   17.7008  -31.7992 H   0  0  0  0  0  0  0  0  0  0  0  0
   -6.0270   16.9950  -33.4240 H   0  0  0  0  0  0  0  0  0  0  0  0
   -5.1654   22.6657  -32.1581 H   0  0  0  0  0  0  0  0  0  0  0  0
   -3.2191   23.0561  -27.9568 H   0  0  0  0  0  0  0  0  0  0  0  0
   -1.8896   22.0989  -26.0814 H   0  0  0  0  0  0  0  0  0  0  0  0
  1  2  1  0
  2  3  1  0
  3  4  2  0
  4  5  1  0
  5  6  2  0
  6  7  1  0
  7  8  1  0
  8  9  2  0
  8 10  2  0
  8 11  1  0
 11 12  2  0
 12 13  1  0
 13 14  2  0
 14 15  1  0
 15 16  1  0
 16 17  1  0
 17 18  2  0
 17 19  1  0
 19 20  2  0
 20 21  1  0
 21 22  1  0
 21 23  2  0
 23 24  1  0
 24 25  2  0
 25 26  1  0
 15 27  2  0
  6 28  1  0
 28 29  2  0
 29  3  1  0
 27 11  1  0
 25 19  1  0
  1 30  1  0
  1 31  1  0
  1 32  1  0
  4 33  1  0
  5 34  1  0
 12 35  1  0
 13 36  1  0
 14 37  1  0
 20 38  1  0
 22 39  1  0
 22 40  1  0
 22 41  1  0
 23 42  1  0
 24 43  1  0
 26 44  1  0
 27 45  1  0
 28 46  1  0
 29 47  1  0
M  CHG  2   7  -1  16  -1
M  END
>  <UniqueID>  (18) 
17

>  <SMILES>  (18) 
COc1ccc([N-]S(=O)(=O)c2cccc([N-]C(=O)c3cc(C)ccc3O)c2)cc1

>  <Energy>  (18) 
57.91606596384802

>  <Genealogy>  (18) 
COc1ccc([N-]S(=O)(=O)c2cccc([N-]C(=O)c3cc(C)ccc3O)c2)cc1 (protonated)
COc1ccc([N-]S(=O)(=O)c2cccc([N-]C(=O)c3cc(C)ccc3O)c2)cc1 (3D coordinates assigned)
COc1ccc([N-]S(=O)(=O)c2cccc([N-]C(=O)c3cc(C)ccc3O)c2)cc1 (optimized conformer: 57.91606596384802 kcal/mol)

>  <smiles>  (18) 
COc1ccc(NS(=O)(=O)c2cccc(NC(=O)c3cc(C)ccc3O)c2)cc1

>  <score_type>  (18) 
oracle

>  <origin>  (18) 
adgpu

>  <m_score__min__energy>  (18) 
-10.65

>  <m_primary>  (18) 
energy

$$$$
18:0
     RDKit          3D

 45 46  0  0  0  0  0  0  0  0999 V2000
   -9.0580   19.0940  -31.9980 C   0  0  0  0  0  0  0  0  0  0  0  0
   -8.3350   19.8220  -32.9840 O   0  0  0  0  0  0  0  0  0  0  0  0
   -6.9740   20.1560  -32.8880 C   0  0  0  0  0  0  0  0  0  0  0  0
   -6.5420   21.4820  -32.6950 C   0  0  0  0  0  0  0  0  0  0  0  0
   -5.1800   21.7750  -32.6050 C   0  0  0  0  0  0  0  0  0  0  0  0
   -4.2270   20.7540  -32.7170 C   0  0  0  0  0  0  0  0  0  0  0  0
   -2.7610   21.0660  -32.5830 C   0  0  0  0  0  0  0  0  0  0  0  0
   -2.4110   21.2790  -31.1430 C   0  0  0  0  0  0  0  0  0  0  0  0
   -1.2340   21.6120  -30.8340 O   0  0  0  0  0  0  0  0  0  0  0  0
   -3.3930   21.0540  -30.1220 N   0  0  0  0  0  0  0  0  0  0  0  0
   -3.1000   21.2190  -28.7010 C   0  0  0  0  0  0  0  0  0  0  0  0
   -3.8310   22.4420  -28.1430 C   0  0  0  0  0  0  0  0  0  0  0  0
   -3.9370   23.5170  -29.1870 C   0  0  0  0  0  0  0  0  0  0  0  0
   -5.0430   23.8660  -29.9380 C   0  0  0  0  0  0  0  0  0  0  0  0
   -6.3760   23.1910  -29.9270 C   0  0  0  0  0  0  0  0  0  0  0  0
   -4.7430   24.9240  -30.7160 N   0  0  0  0  0  0  0  0  0  0  0  0
   -3.4870   25.2760  -30.4800 N   0  0  0  0  0  0  0  0  0  0  0  0
   -2.9790   24.4440  -29.5490 C   0  0  0  0  0  0  0  0  0  0  0  0
   -1.5820   24.5310  -29.0280 C   0  0  0  0  0  0  0  0  0  0  0  0
   -4.6530   19.4300  -32.8980 C   0  0  0  0  0  0  0  0  0  0  0  0
   -6.0260   19.1250  -32.9890 C   0  0  0  0  0  0  0  0  0  0  0  0
   -6.4870   17.8120  -33.1760 O   0  0  0  0  0  0  0  0  0  0  0  0
   -6.0750   16.9560  -34.2370 C   0  0  0  0  0  0  0  0  0  0  0  0
   -8.7379   19.4163  -30.9962 H   0  0  0  0  0  0  0  0  0  0  0  0
  -10.1348   19.2844  -32.1178 H   0  0  0  0  0  0  0  0  0  0  0  0
   -8.8602   18.0186  -32.1178 H   0  0  0  0  0  0  0  0  0  0  0  0
   -7.2820   22.2919  -32.6146 H   0  0  0  0  0  0  0  0  0  0  0  0
   -4.8532   22.8131  -32.4453 H   0  0  0  0  0  0  0  0  0  0  0  0
   -2.1723   20.2261  -32.9803 H   0  0  0  0  0  0  0  0  0  0  0  0
   -2.5342   21.9819  -33.1484 H   0  0  0  0  0  0  0  0  0  0  0  0
   -4.3370   20.6990  -30.3980 H   0  0  0  0  0  0  0  0  0  0  0  0
   -3.4284   20.3212  -28.1568 H   0  0  0  0  0  0  0  0  0  0  0  0
   -2.0168   21.3631  -28.5749 H   0  0  0  0  0  0  0  0  0  0  0  0
   -4.8416   22.1454  -27.8257 H   0  0  0  0  0  0  0  0  0  0  0  0
   -3.2629   22.8343  -27.2866 H   0  0  0  0  0  0  0  0  0  0  0  0
   -6.6963   23.0288  -28.8872 H   0  0  0  0  0  0  0  0  0  0  0  0
   -7.1123   23.8249  -30.4428 H   0  0  0  0  0  0  0  0  0  0  0  0
   -6.3008   22.2224  -30.4428 H   0  0  0  0  0  0  0  0  0  0  0  0
   -1.6001   24.5299  -27.9281 H   0  0  0  0  0  0  0  0  0  0  0  0
   -1.0027   23.6672  -29.3861 H   0  0  0  0  0  0  0  0  0  0  0  0
   -1.1143   25.4600  -29.3861 H   0  0  0  0  0  0  0  0  0  0  0  0
   -3.9092   18.6228  -32.9695 H   0  0  0  0  0  0  0  0  0  0  0  0
   -5.6338   16.0394  -33.8184 H   0  0  0  0  0  0  0  0  0  0  0  0
   -6.9458   16.6942  -34.8561 H   0  0  0  0  0  0  0  0  0  0  0  0
   -5.3272   17.4732  -34.8561 H   0  0  0  0  0  0  0  0  0  0  0  0
  1  2  1  0
  2  3  1  0
  3  4  2  0
  4  5  1  0
  5  6  2  0
  6  7  1  0
  7  8  1  0
  8  9  2  0
  8 10  1  0
 10 11  1  0
 11 12  1  0
 12 13  1  0
 13 14  1  0
 14 15  1  0
 14 16  2  0
 16 17  1  0
 17 18  1  0
 18 19  1  0
  6 20  1  0
 20 21  2  0
 21 22  1  0
 22 23  1  0
 21  3  1  0
 18 13  2  0
  1 24  1  0
  1 25  1  0
  1 26  1  0
  4 27  1  0
  5 28  1  0
  7 29  1  0
  7 30  1  0
 10 31  1  0
 11 32  1  0
 11 33  1  0
 12 34  1  0
 12 35  1  0
 15 36  1  0
 15 37  1  0
 15 38  1  0
 19 39  1  0
 19 40  1  0
 19 41  1  0
 20 42  1  0
 23 43  1  0
 23 44  1  0
 23 45  1  0
M  CHG  1  17  -1
M  END
>  <UniqueID>  (19) 
18

>  <SMILES>  (19) 
COc1ccc(CC(=O)NCCc2c(C)n[n-]c2C)cc1OC

>  <Energy>  (19) 
62.8528750868429

>  <Genealogy>  (19) 
COc1ccc(CC(=O)NCCc2c(C)n[n-]c2C)cc1OC (protonated)
COc1ccc(CC(=O)NCCc2c(C)n[n-]c2C)cc1OC (3D coordinates assigned)
COc1ccc(CC(=O)NCCc2c(C)n[n-]c2C)cc1OC (optimized conformer: 62.8528750868429 kcal/mol)

>  <smiles>  (19) 
COc1ccc(CC(=O)NCCc2c(C)n[nH]c2C)cc1OC

>  <score_type>  (19) 
oracle

>  <origin>  (19) 
adgpu

>  <m_score__min__energy>  (19) 
-9.0999999999999996

>  <m_primary>  (19) 
energy

$$$$
19:0
     RDKit          3D

 33 34  0  0  0  0  0  0  0  0999 V2000
   -8.5080   22.8660  -31.6880 C   0  0  0  0  0  0  0  0  0  0  0  0
   -7.0110   23.0410  -31.6610 C   0  0  0  0  0  0  0  0  0  0  0  0
   -6.4700   24.2590  -31.2330 C   0  0  0  0  0  0  0  0  0  0  0  0
   -5.0840   24.4130  -31.1970 C   0  0  0  0  0  0  0  0  0  0  0  0
   -4.5820   25.4990  -30.8030 O   0  0  0  0  0  0  0  0  0  0  0  0
   -4.2870   23.4220  -31.5770 O   0  0  0  0  0  0  0  0  0  0  0  0
   -4.7440   22.2490  -32.0100 C   0  0  0  0  0  0  0  0  0  0  0  0
   -3.7410   21.2150  -32.4310 C   0  0  0  0  0  0  0  0  0  0  0  0
   -6.1370   22.0080  -32.0620 C   0  0  0  0  0  0  0  0  0  0  0  0
   -6.6690   20.7110  -32.5300 C   0  0  0  0  0  0  0  0  0  0  0  0
   -6.5130   20.3760  -33.7350 O   0  0  0  0  0  0  0  0  0  0  0  0
   -7.3830   19.8550  -31.6270 N   0  0  0  0  0  0  0  0  0  0  0  0
   -8.0190   18.6150  -32.0640 C   0  0  0  0  0  0  0  0  0  0  0  0
   -6.9750   17.6230  -32.4970 C   0  0  0  0  0  0  0  0  0  0  0  0
   -6.8600   17.2370  -33.8410 C   0  0  0  0  0  0  0  0  0  0  0  0
   -5.9060   16.2890  -34.2160 C   0  0  0  0  0  0  0  0  0  0  0  0
   -5.0770   15.7310  -33.2410 C   0  0  0  0  0  0  0  0  0  0  0  0
   -5.2030   16.1090  -31.9410 N   0  0  0  0  0  0  0  0  0  0  0  0
   -6.1250   17.0310  -31.5520 C   0  0  0  0  0  0  0  0  0  0  0  0
   -8.8906   22.8213  -30.6576 H   0  0  0  0  0  0  0  0  0  0  0  0
   -8.9672   23.7166  -32.2130 H   0  0  0  0  0  0  0  0  0  0  0  0
   -8.7586   21.9324  -32.2130 H   0  0  0  0  0  0  0  0  0  0  0  0
   -7.1299   25.0848  -30.9287 H   0  0  0  0  0  0  0  0  0  0  0  0
   -3.2934   20.7536  -31.5384 H   0  0  0  0  0  0  0  0  0  0  0  0
   -4.2419   20.4414  -33.0316 H   0  0  0  0  0  0  0  0  0  0  0  0
   -2.9526   21.6921  -33.0316 H   0  0  0  0  0  0  0  0  0  0  0  0
   -7.5190   20.1600  -30.6370 H   0  0  0  0  0  0  0  0  0  0  0  0
   -8.6003   18.1914  -31.2317 H   0  0  0  0  0  0  0  0  0  0  0  0
   -8.6839   18.8314  -32.9132 H   0  0  0  0  0  0  0  0  0  0  0  0
   -7.5215   17.6813  -34.5993 H   0  0  0  0  0  0  0  0  0  0  0  0
   -5.8086   15.9849  -35.2686 H   0  0  0  0  0  0  0  0  0  0  0  0
   -4.3207   14.9844  -33.5250 H   0  0  0  0  0  0  0  0  0  0  0  0
   -6.2038   17.3131  -30.4917 H   0  0  0  0  0  0  0  0  0  0  0  0
  1  2  1  0
  2  3  2  0
  3  4  1  0
  4  5  2  0
  4  6  1  0
  6  7  1  0
  7  8  1  0
  7  9  2  0
  9 10  1  0
 10 11  2  0
 10 12  1  0
 12 13  1  0
 13 14  1  0
 14 15  2  0
 15 16  1  0
 16 17  2  0
 17 18  1  0
 18 19  2  0
  9  2  1  0
 19 14  1  0
  1 20  1  0
  1 21  1  0
  1 22  1  0
  3 23  1  0
  8 24  1  0
  8 25  1  0
  8 26  1  0
 12 27  1  0
 13 28  1  0
 13 29  1  0
 15 30  1  0
 16 31  1  0
 17 32  1  0
 19 33  1  0
M  END
>  <UniqueID>  (20) 
19

>  <SMILES>  (20) 
Cc1cc(=O)oc(C)c1C(=O)NCc1cccnc1

>  <Energy>  (20) 
39.17249449135601

>  <Genealogy>  (20) 
Cc1cc(=O)oc(C)c1C(=O)NCc1cccnc1 (3D coordinates assigned)
Cc1cc(=O)oc(C)c1C(=O)NCc1cccnc1 (optimized conformer: 39.17249449135601 kcal/mol)

>  <smiles>  (20) 
Cc1cc(=O)oc(C)c1C(=O)NCc1cccnc1

>  <score_type>  (20) 
oracle

>  <origin>  (20) 
adgpu

>  <m_score__min__energy>  (20) 
-7.2599999999999998

>  <m_primary>  (20) 
energy

$$$$
20:0
     RDKit          3D

 39 41  0  0  0  0  0  0  0  0999 V2000
   -4.2681   21.9832  -31.0659 H   0  0  0  0  0  0  0  0  0  0  0  0
   -5.1740   22.3190  -30.5400 C   0  0  0  0  0  0  0  0  0  0  0  0
   -5.0210   23.0570  -29.4320 C   0  0  0  0  0  0  0  0  0  0  0  0
   -5.9184   23.3908  -28.8904 H   0  0  0  0  0  0  0  0  0  0  0  0
   -3.6870   23.4410  -28.9080 C   0  0  0  0  0  0  0  0  0  0  0  0
   -2.9770   24.5410  -29.4250 C   0  0  0  0  0  0  0  0  0  0  0  0
   -3.4890   25.3010  -30.4730 O   0  0  0  0  0  0  0  0  0  0  0  0
   -1.7250   24.8620  -28.9100 C   0  0  0  0  0  0  0  0  0  0  0  0
   -1.1742   25.7312  -29.2987 H   0  0  0  0  0  0  0  0  0  0  0  0
   -1.1720   24.0780  -27.9000 C   0  0  0  0  0  0  0  0  0  0  0  0
   -0.1816   24.3334  -27.4951 H   0  0  0  0  0  0  0  0  0  0  0  0
   -1.8440   22.9960  -27.4060 N   0  0  0  0  0  0  0  0  0  0  0  0
   -1.1970   22.1720  -26.3710 C   0  0  0  0  0  0  0  0  0  0  0  0
   -0.2822   22.6758  -26.0255 H   0  0  0  0  0  0  0  0  0  0  0  0
   -1.8947   22.0399  -25.5309 H   0  0  0  0  0  0  0  0  0  0  0  0
   -0.8390   20.8190  -26.9280 C   0  0  0  0  0  0  0  0  0  0  0  0
    0.2590   20.6710  -27.7910 C   0  0  0  0  0  0  0  0  0  0  0  0
    0.8485   21.5524  -28.0836 H   0  0  0  0  0  0  0  0  0  0  0  0
    0.6060   19.4070  -28.2800 C   0  0  0  0  0  0  0  0  0  0  0  0
    1.4639   19.2973  -28.9596 H   0  0  0  0  0  0  0  0  0  0  0  0
   -0.1360   18.2840  -27.9060 C   0  0  0  0  0  0  0  0  0  0  0  0
    0.1377   17.2908  -28.2916 H   0  0  0  0  0  0  0  0  0  0  0  0
   -1.2260   18.4220  -27.0420 C   0  0  0  0  0  0  0  0  0  0  0  0
   -1.8097   17.5372  -26.7480 H   0  0  0  0  0  0  0  0  0  0  0  0
   -1.5750   19.6840  -26.5510 C   0  0  0  0  0  0  0  0  0  0  0  0
   -2.4298   19.7881  -25.8665 H   0  0  0  0  0  0  0  0  0  0  0  0
   -3.0820   22.6600  -27.9010 C   0  0  0  0  0  0  0  0  0  0  0  0
   -3.6940   21.6520  -27.4470 O   0  0  0  0  0  0  0  0  0  0  0  0
   -6.4910   21.9270  -31.1010 C   0  0  0  0  0  0  0  0  0  0  0  0
   -6.6020   20.6820  -31.7460 C   0  0  0  0  0  0  0  0  0  0  0  0
   -5.7229   20.0246  -31.8172 H   0  0  0  0  0  0  0  0  0  0  0  0
   -7.8190   20.2730  -32.2970 C   0  0  0  0  0  0  0  0  0  0  0  0
   -7.8956   19.2940  -32.7926 H   0  0  0  0  0  0  0  0  0  0  0  0
   -8.9380   21.1040  -32.2200 C   0  0  0  0  0  0  0  0  0  0  0  0
   -9.8968   20.7774  -32.6490 H   0  0  0  0  0  0  0  0  0  0  0  0
   -8.8390   22.3500  -31.5980 C   0  0  0  0  0  0  0  0  0  0  0  0
   -9.7196   23.0071  -31.5441 H   0  0  0  0  0  0  0  0  0  0  0  0
   -7.6240   22.7660  -31.0430 C   0  0  0  0  0  0  0  0  0  0  0  0
   -7.5517   23.7513  -30.5594 H   0  0  0  0  0  0  0  0  0  0  0  0
  1  2  1  0
  2  3  2  0
  3  4  1  0
  3  5  1  0
  5  6  2  0
  6  7  1  0
  6  8  1  0
  8  9  1  0
  8 10  2  0
 10 11  1  0
 10 12  1  0
 12 13  1  0
 13 14  1  0
 13 15  1  0
 13 16  1  0
 16 17  2  0
 17 18  1  0
 17 19  1  0
 19 20  1  0
 19 21  2  0
 21 22  1  0
 21 23  1  0
 23 24  1  0
 23 25  2  0
 25 26  1  0
 12 27  1  0
 27 28  2  0
  2 29  1  0
 29 30  2  0
 30 31  1  0
 30 32  1  0
 32 33  1  0
 32 34  2  0
 34 35  1  0
 34 36  1  0
 36 37  1  0
 36 38  2  0
 38 39  1  0
 27  5  1  0
 38 29  1  0
 25 16  1  0
M  CHG  1   7  -1
M  END
>  <UniqueID>  (21) 
20

>  <SMILES>  (21) 
O=c1c(/C=C/c2ccccc2)c([O-])ccn1Cc1ccccc1

>  <Energy>  (21) 
51.82116934785053

>  <Genealogy>  (21) 
O=c1c(C=Cc2ccccc2)c([O-])ccn1Cc1ccccc1 (protonated)
O=c1c(/C=C/c2ccccc2)c([O-])ccn1Cc1ccccc1 (cis-trans isomerization)
O=c1c(/C=C/c2ccccc2)c([O-])ccn1Cc1ccccc1 (3D coordinates assigned)
O=c1c(/C=C/c2ccccc2)c([O-])ccn1Cc1ccccc1 (optimized conformer: 51.82116934785053 kcal/mol)

>  <smiles>  (21) 
O=c1c(C=Cc2ccccc2)c(O)ccn1Cc1ccccc1

>  <score_type>  (21) 
oracle

>  <origin>  (21) 
adgpu

>  <m_score__min__energy>  (21) 
-10.890000000000001

>  <m_primary>  (21) 
energy

$$$$
21:0
     RDKit          3D

 37 39  0  0  0  0  0  0  0  0999 V2000
   -2.1430   25.2930  -29.2810 N   0  0  0  0  0  0  0  0  0  0  0  0
   -3.5820   24.5910  -29.9290 S   0  0  0  0  0  0  0  0  0  0  0  0
   -4.5210   24.2410  -28.8090 O   0  0  0  0  0  0  0  0  0  0  0  0
   -4.2590   25.5860  -30.8310 O   0  0  0  0  0  0  0  0  0  0  0  0
   -3.1710   23.1410  -30.8390 C   0  0  0  0  0  0  0  0  0  0  0  0
   -4.0240   22.6810  -31.8500 C   0  0  0  0  0  0  0  0  0  0  0  0
   -3.7070   21.5240  -32.5650 C   0  0  0  0  0  0  0  0  0  0  0  0
   -2.5340   20.8050  -32.2780 C   0  0  0  0  0  0  0  0  0  0  0  0
   -2.2240   19.5790  -33.0480 C   0  0  0  0  0  0  0  0  0  0  0  0
   -0.9840   18.9830  -33.2200 C   0  0  0  0  0  0  0  0  0  0  0  0
   -1.2050   17.8670  -33.9990 C   0  0  0  0  0  0  0  0  0  0  0  0
   -2.5610   17.8450  -34.2520 C   0  0  0  0  0  0  0  0  0  0  0  0
   -3.2570   16.8300  -35.0660 C   0  0  0  0  0  0  0  0  0  0  0  0
   -4.5530   16.7170  -35.1380 N   0  0  0  0  0  0  0  0  0  0  0  0
   -5.5200   17.4160  -34.3410 C   0  0  0  0  0  0  0  0  0  0  0  0
   -5.8370   18.7600  -34.6100 C   0  0  0  0  0  0  0  0  0  0  0  0
   -6.7620   19.4390  -33.8130 C   0  0  0  0  0  0  0  0  0  0  0  0
   -7.3580   18.7920  -32.7280 C   0  0  0  0  0  0  0  0  0  0  0  0
   -7.0200   17.4680  -32.4320 C   0  0  0  0  0  0  0  0  0  0  0  0
   -6.0960   16.7800  -33.2290 C   0  0  0  0  0  0  0  0  0  0  0  0
   -5.7510   15.4620  -32.9320 O   0  0  0  0  0  0  0  0  0  0  0  0
   -3.1370   18.8780  -33.6820 O   0  0  0  0  0  0  0  0  0  0  0  0
   -1.6850   21.2680  -31.2570 C   0  0  0  0  0  0  0  0  0  0  0  0
   -2.0040   22.4280  -30.5430 C   0  0  0  0  0  0  0  0  0  0  0  0
   -1.6000   25.6750  -30.0880 H   0  0  0  0  0  0  0  0  0  0  0  0
   -4.9469   23.2329  -32.0817 H   0  0  0  0  0  0  0  0  0  0  0  0
   -4.3813   21.1723  -33.3598 H   0  0  0  0  0  0  0  0  0  0  0  0
   -0.0208   19.3296  -32.8173 H   0  0  0  0  0  0  0  0  0  0  0  0
   -0.4540   17.1427  -34.3474 H   0  0  0  0  0  0  0  0  0  0  0  0
   -2.6442   16.1256  -35.6476 H   0  0  0  0  0  0  0  0  0  0  0  0
   -5.3544   19.2786  -35.4516 H   0  0  0  0  0  0  0  0  0  0  0  0
   -7.0211   20.4837  -34.0401 H   0  0  0  0  0  0  0  0  0  0  0  0
   -8.0932   19.3241  -32.1065 H   0  0  0  0  0  0  0  0  0  0  0  0
   -7.4815   16.9645  -31.5697 H   0  0  0  0  0  0  0  0  0  0  0  0
   -5.0700   14.9550  -33.4840 H   0  0  0  0  0  0  0  0  0  0  0  0
   -0.7647   20.7148  -31.0184 H   0  0  0  0  0  0  0  0  0  0  0  0
   -1.3342   22.7812  -29.7451 H   0  0  0  0  0  0  0  0  0  0  0  0
  1  2  1  0
  2  3  2  0
  2  4  2  0
  2  5  1  0
  5  6  2  0
  6  7  1  0
  7  8  2  0
  8  9  1  0
  9 10  2  0
 10 11  1  0
 11 12  2  0
 12 13  1  0
 13 14  2  3
 14 15  1  0
 15 16  2  0
 16 17  1  0
 17 18  2  0
 18 19  1  0
 19 20  2  0
 20 21  1  0
 12 22  1  0
  8 23  1  0
 23 24  2  0
 24  5  1  0
 22  9  1  0
 20 15  1  0
  1 25  1  0
  6 26  1  0
  7 27  1  0
 10 28  1  0
 11 29  1  0
 13 30  1  0
 16 31  1  0
 17 32  1  0
 18 33  1  0
 19 34  1  0
 21 35  1  0
 23 36  1  0
 24 37  1  0
M  CHG  1   1  -1
M  END
>  <UniqueID>  (22) 
21

>  <SMILES>  (22) 
[NH-]S(=O)(=O)c1ccc(-c2ccc(C=Nc3ccccc3O)o2)cc1

>  <Energy>  (22) 
73.24154615998683

>  <Genealogy>  (22) 
[NH-]S(=O)(=O)c1ccc(-c2ccc(C=Nc3ccccc3O)o2)cc1 (protonated)
[NH-]S(=O)(=O)c1ccc(-c2ccc(C=Nc3ccccc3O)o2)cc1 (3D coordinates assigned)
[NH-]S(=O)(=O)c1ccc(-c2ccc(C=Nc3ccccc3O)o2)cc1 (optimized conformer: 73.24154615998683 kcal/mol)

>  <smiles>  (22) 
NS(=O)(=O)c1ccc(-c2ccc(C=Nc3ccccc3O)o2)cc1

>  <score_type>  (22) 
oracle

>  <origin>  (22) 
adgpu

>  <m_score__min__energy>  (22) 
-10.220000000000001

>  <m_primary>  (22) 
energy

$$$$
22:0
     RDKit          3D

 54 57  0  0  0  0  0  0  0  0999 V2000
   -1.6170   25.7200  -28.9930 N   0  0  0  0  0  0  0  0  0  0  0  0
   -2.7780   24.4790  -29.3060 S   0  0  0  0  0  0  0  0  0  0  0  0
   -3.5770   24.8310  -30.5290 O   0  0  0  0  0  0  0  0  0  0  0  0
   -3.7120   24.3680  -28.1330 O   0  0  0  0  0  0  0  0  0  0  0  0
   -1.9470   22.9480  -29.5660 C   0  0  0  0  0  0  0  0  0  0  0  0
   -1.7320   22.4870  -30.8720 C   0  0  0  0  0  0  0  0  0  0  0  0
   -1.0610   21.2810  -31.0910 C   0  0  0  0  0  0  0  0  0  0  0  0
   -0.6020   20.5180  -30.0060 C   0  0  0  0  0  0  0  0  0  0  0  0
    0.1560   19.2390  -30.2390 C   0  0  0  0  0  0  0  0  0  0  0  0
    0.1170   18.8350  -31.7120 C   0  0  0  0  0  0  0  0  0  0  0  0
   -1.2640   18.7040  -32.1650 N   0  0  0  0  0  0  0  0  0  0  0  0
   -1.7910   17.6290  -32.9590 C   0  0  0  0  0  0  0  0  0  0  0  0
   -1.0890   16.5940  -33.1060 O   0  0  0  0  0  0  0  0  0  0  0  0
   -3.1450   17.6650  -33.5510 C   0  0  0  0  0  0  0  0  0  0  0  0
   -3.3100   17.4370  -34.9270 C   0  0  0  0  0  0  0  0  0  0  0  0
   -4.5880   17.4280  -35.4930 C   0  0  0  0  0  0  0  0  0  0  0  0
   -5.7120   17.6390  -34.6910 C   0  0  0  0  0  0  0  0  0  0  0  0
   -5.5600   17.8910  -33.3210 C   0  0  0  0  0  0  0  0  0  0  0  0
   -6.9660   18.0680  -32.2750 S   0  0  0  0  0  0  0  0  0  0  0  0
   -6.5700   17.8670  -30.8390 O   0  0  0  0  0  0  0  0  0  0  0  0
   -8.0040   17.0400  -32.6260 O   0  0  0  0  0  0  0  0  0  0  0  0
   -7.5950   19.6770  -32.4540 N   0  0  0  0  0  0  0  0  0  0  0  0
   -9.0050   19.9800  -32.2090 C   0  0  0  0  0  0  0  0  0  0  0  0
   -9.0850   21.5030  -31.9490 C   0  0  0  0  0  0  0  0  0  0  0  0
   -7.6680   21.9420  -32.0450 C   0  0  0  0  0  0  0  0  0  0  0  0
   -7.1570   23.2280  -31.8640 C   0  0  0  0  0  0  0  0  0  0  0  0
   -5.7730   23.4230  -31.9850 C   0  0  0  0  0  0  0  0  0  0  0  0
   -4.9300   22.3370  -32.2850 C   0  0  0  0  0  0  0  0  0  0  0  0
   -5.4660   21.0510  -32.4620 C   0  0  0  0  0  0  0  0  0  0  0  0
   -6.8500   20.8800  -32.3300 C   0  0  0  0  0  0  0  0  0  0  0  0
   -4.2770   17.9350  -32.7640 C   0  0  0  0  0  0  0  0  0  0  0  0
   -0.8060   20.9890  -28.6990 C   0  0  0  0  0  0  0  0  0  0  0  0
   -1.4750   22.1970  -28.4800 C   0  0  0  0  0  0  0  0  0  0  0  0
   -1.2270   26.0120  -29.9160 H   0  0  0  0  0  0  0  0  0  0  0  0
   -2.0928   23.0767  -31.7277 H   0  0  0  0  0  0  0  0  0  0  0  0
   -0.8917   20.9278  -32.1189 H   0  0  0  0  0  0  0  0  0  0  0  0
    1.2031   19.3816  -29.9335 H   0  0  0  0  0  0  0  0  0  0  0  0
   -0.3155   18.4414  -29.6461 H   0  0  0  0  0  0  0  0  0  0  0  0
    0.6245   19.6041  -32.3127 H   0  0  0  0  0  0  0  0  0  0  0  0
    0.6259   17.8671  -31.8311 H   0  0  0  0  0  0  0  0  0  0  0  0
   -2.4289   17.2646  -35.5626 H   0  0  0  0  0  0  0  0  0  0  0  0
   -4.7089   17.2544  -36.5725 H   0  0  0  0  0  0  0  0  0  0  0  0
   -6.7177   17.6073  -35.1354 H   0  0  0  0  0  0  0  0  0  0  0  0
   -9.6101   19.7116  -33.0875 H   0  0  0  0  0  0  0  0  0  0  0  0
   -9.3932   19.4082  -31.3533 H   0  0  0  0  0  0  0  0  0  0  0  0
   -9.7040   22.0006  -32.7101 H   0  0  0  0  0  0  0  0  0  0  0  0
   -9.5475   21.7506  -30.9821 H   0  0  0  0  0  0  0  0  0  0  0  0
   -7.8250   24.0705  -31.6315 H   0  0  0  0  0  0  0  0  0  0  0  0
   -5.3459   24.4270  -31.8451 H   0  0  0  0  0  0  0  0  0  0  0  0
   -3.8458   22.4961  -32.3814 H   0  0  0  0  0  0  0  0  0  0  0  0
   -4.8138   20.1975  -32.6989 H   0  0  0  0  0  0  0  0  0  0  0  0
   -4.1536   18.1834  -31.6995 H   0  0  0  0  0  0  0  0  0  0  0  0
   -0.4376   20.4046  -27.8430 H   0  0  0  0  0  0  0  0  0  0  0  0
   -1.6315   22.5592  -27.4532 H   0  0  0  0  0  0  0  0  0  0  0  0
  1  2  1  0
  2  3  2  0
  2  4  2  0
  2  5  1  0
  5  6  2  0
  6  7  1  0
  7  8  2  0
  8  9  1  0
  9 10  1  0
 10 11  1  0
 11 12  1  0
 12 13  2  0
 12 14  1  0
 14 15  2  0
 15 16  1  0
 16 17  2  0
 17 18  1  0
 18 19  1  0
 19 20  2  0
 19 21  2  0
 19 22  1  0
 22 23  1  0
 23 24  1  0
 24 25  1  0
 25 26  2  0
 26 27  1  0
 27 28  2  0
 28 29  1  0
 29 30  2  0
 18 31  2  0
  8 32  1  0
 32 33  2  0
 33  5  1  0
 31 14  1  0
 30 22  1  0
 30 25  1  0
  1 34  1  0
  6 35  1  0
  7 36  1  0
  9 37  1  0
  9 38  1  0
 10 39  1  0
 10 40  1  0
 15 41  1  0
 16 42  1  0
 17 43  1  0
 23 44  1  0
 23 45  1  0
 24 46  1  0
 24 47  1  0
 26 48  1  0
 27 49  1  0
 28 50  1  0
 29 51  1  0
 31 52  1  0
 32 53  1  0
 33 54  1  0
M  CHG  2   1  -1  11  -1
M  END
>  <UniqueID>  (23) 
22

>  <SMILES>  (23) 
[NH-]S(=O)(=O)c1ccc(CC[N-]C(=O)c2cccc(S(=O)(=O)N3CCc4ccccc43)c2)cc1

>  <Energy>  (23) 
72.27034996465622

>  <Genealogy>  (23) 
[NH-]S(=O)(=O)c1ccc(CC[N-]C(=O)c2cccc(S(=O)(=O)N3CCc4ccccc43)c2)cc1 (protonated)
[NH-]S(=O)(=O)c1ccc(CC[N-]C(=O)c2cccc(S(=O)(=O)N3CCc4ccccc43)c2)cc1 (3D coordinates assigned)
[NH-]S(=O)(=O)c1ccc(CC[N-]C(=O)c2cccc(S(=O)(=O)N3CCc4ccccc43)c2)cc1 (nonaromatic ring conformer: 72.27034996465622 kcal/mol)

>  <smiles>  (23) 
NS(=O)(=O)c1ccc(CCNC(=O)c2cccc(S(=O)(=O)N3CCc4ccccc43)c2)cc1

>  <score_type>  (23) 
oracle

>  <origin>  (23) 
adgpu

>  <m_score__min__energy>  (23) 
-12.390000000000001

>  <m_primary>  (23) 
energy

$$$$
23:0
     RDKit          3D

 45 47  0  0  0  0  0  0  0  0999 V2000
   -6.0460   16.4720  -34.2350 C   0  0  0  0  0  0  0  0  0  0  0  0
   -5.3910   17.6660  -33.5920 C   0  0  0  0  0  0  0  0  0  0  0  0
   -4.3050   18.2820  -34.2330 C   0  0  0  0  0  0  0  0  0  0  0  0
   -3.6710   19.3850  -33.6600 C   0  0  0  0  0  0  0  0  0  0  0  0
   -4.1060   19.8990  -32.4270 C   0  0  0  0  0  0  0  0  0  0  0  0
   -3.4430   21.0710  -31.8050 C   0  0  0  0  0  0  0  0  0  0  0  0
   -4.0570   22.1430  -31.1800 C   0  0  0  0  0  0  0  0  0  0  0  0
   -3.0060   22.9430  -30.7820 C   0  0  0  0  0  0  0  0  0  0  0  0
   -3.1130   24.2190  -30.0650 C   0  0  0  0  0  0  0  0  0  0  0  0
   -2.5210   24.3650  -28.9600 O   0  0  0  0  0  0  0  0  0  0  0  0
   -3.8860   25.2890  -30.6180 N   0  0  0  0  0  0  0  0  0  0  0  0
   -5.2940   25.5140  -30.3090 C   0  0  0  0  0  0  0  0  0  0  0  0
   -6.1180   24.3300  -30.7360 C   0  0  0  0  0  0  0  0  0  0  0  0
   -6.6940   23.4900  -29.7710 C   0  0  0  0  0  0  0  0  0  0  0  0
   -7.4810   22.4020  -30.1610 C   0  0  0  0  0  0  0  0  0  0  0  0
   -7.7020   22.1430  -31.5190 C   0  0  0  0  0  0  0  0  0  0  0  0
   -8.7070   20.7780  -31.9970 S   0  0  0  0  0  0  0  0  0  0  0  0
   -8.0390   20.0300  -33.4060 N   0  0  0  0  0  0  0  0  0  0  0  0
  -10.0990   21.2590  -32.2940 O   0  0  0  0  0  0  0  0  0  0  0  0
   -8.7720   19.7700  -30.8840 O   0  0  0  0  0  0  0  0  0  0  0  0
   -7.1380   22.9870  -32.4850 C   0  0  0  0  0  0  0  0  0  0  0  0
   -6.3500   24.0730  -32.0970 C   0  0  0  0  0  0  0  0  0  0  0  0
   -1.8400   22.3810  -31.1470 N   0  0  0  0  0  0  0  0  0  0  0  0
   -2.1050   21.2420  -31.7680 N   0  0  0  0  0  0  0  0  0  0  0  0
   -5.1890   19.2800  -31.7790 C   0  0  0  0  0  0  0  0  0  0  0  0
   -5.8330   18.1650  -32.3450 C   0  0  0  0  0  0  0  0  0  0  0  0
   -6.9900   17.5320  -31.6180 C   0  0  0  0  0  0  0  0  0  0  0  0
   -6.4184   15.7931  -33.4537 H   0  0  0  0  0  0  0  0  0  0  0  0
   -6.8864   16.8074  -34.8605 H   0  0  0  0  0  0  0  0  0  0  0  0
   -5.3115   15.9434  -34.8605 H   0  0  0  0  0  0  0  0  0  0  0  0
   -3.9497   17.8909  -35.1978 H   0  0  0  0  0  0  0  0  0  0  0  0
   -2.8230   19.8563  -34.1783 H   0  0  0  0  0  0  0  0  0  0  0  0
   -5.1334   22.3166  -31.0345 H   0  0  0  0  0  0  0  0  0  0  0  0
   -5.4082   25.6637  -29.2252 H   0  0  0  0  0  0  0  0  0  0  0  0
   -5.6412   26.4058  -30.8513 H   0  0  0  0  0  0  0  0  0  0  0  0
   -6.5256   23.6884  -28.7022 H   0  0  0  0  0  0  0  0  0  0  0  0
   -7.9280   21.7474  -29.3983 H   0  0  0  0  0  0  0  0  0  0  0  0
   -8.5470   20.4220  -34.2300 H   0  0  0  0  0  0  0  0  0  0  0  0
   -8.2820   19.0150  -33.3570 H   0  0  0  0  0  0  0  0  0  0  0  0
   -7.3165   22.7935  -33.5530 H   0  0  0  0  0  0  0  0  0  0  0  0
   -5.9091   24.7301  -32.8611 H   0  0  0  0  0  0  0  0  0  0  0  0
   -5.5386   19.6741  -30.8134 H   0  0  0  0  0  0  0  0  0  0  0  0
   -6.8325   17.6182  -30.5328 H   0  0  0  0  0  0  0  0  0  0  0  0
   -7.9224   18.0457  -31.8951 H   0  0  0  0  0  0  0  0  0  0  0  0
   -7.0602   16.4698  -31.8951 H   0  0  0  0  0  0  0  0  0  0  0  0
  1  2  1  0
  2  3  2  0
  3  4  1  0
  4  5  2  0
  5  6  1  0
  6  7  1  0
  7  8  2  0
  8  9  1  0
  9 10  2  0
  9 11  1  0
 11 12  1  0
 12 13  1  0
 13 14  2  0
 14 15  1  0
 15 16  2  0
 16 17  1  0
 17 18  1  0
 17 19  2  0
 17 20  2  0
 16 21  1  0
 21 22  2  0
  8 23  1  0
 23 24  1  0
  5 25  1  0
 25 26  2  0
 26 27  1  0
 26  2  1  0
 24  6  2  0
 22 13  1  0
  1 28  1  0
  1 29  1  0
  1 30  1  0
  3 31  1  0
  4 32  1  0
  7 33  1  0
 12 34  1  0
 12 35  1  0
 14 36  1  0
 15 37  1  0
 18 38  1  0
 18 39  1  0
 21 40  1  0
 22 41  1  0
 25 42  1  0
 27 43  1  0
 27 44  1  0
 27 45  1  0
M  CHG  2  11  -1  23  -1
M  END
>  <UniqueID>  (24) 
23

>  <SMILES>  (24) 
Cc1ccc(-c2cc(C(=O)[N-]Cc3ccc(S(N)(=O)=O)cc3)[n-]n2)cc1C

>  <Energy>  (24) 
73.36599562450941

>  <Genealogy>  (24) 
Cc1ccc(-c2cc(C(=O)[N-]Cc3ccc(S(N)(=O)=O)cc3)[n-]n2)cc1C (protonated)
Cc1ccc(-c2cc(C(=O)[N-]Cc3ccc(S(N)(=O)=O)cc3)[n-]n2)cc1C (3D coordinates assigned)
Cc1ccc(-c2cc(C(=O)[N-]Cc3ccc(S(N)(=O)=O)cc3)[n-]n2)cc1C (optimized conformer: 73.36599562450941 kcal/mol)

>  <smiles>  (24) 
Cc1ccc(-c2cc(C(=O)NCc3ccc(S(N)(=O)=O)cc3)[nH]n2)cc1C

>  <score_type>  (24) 
oracle

>  <origin>  (24) 
adgpu

>  <m_score__min__energy>  (24) 
-12.6

>  <m_primary>  (24) 
energy

$$$$
24:0
     RDKit          3D

 39 41  0  0  0  0  0  0  0  0999 V2000
   -9.0610   18.5090  -31.5800 C   0  0  0  0  0  0  0  0  0  0  0  0
   -9.0040   19.5810  -32.5160 O   0  0  0  0  0  0  0  0  0  0  0  0
   -8.2090   20.7280  -32.3630 C   0  0  0  0  0  0  0  0  0  0  0  0
   -8.6990   21.9030  -31.7620 C   0  0  0  0  0  0  0  0  0  0  0  0
   -7.8790   23.0250  -31.6330 C   0  0  0  0  0  0  0  0  0  0  0  0
   -6.5620   23.0000  -32.0960 C   0  0  0  0  0  0  0  0  0  0  0  0
   -5.7620   24.1830  -31.9590 N   0  0  0  0  0  0  0  0  0  0  0  0
   -4.9790   24.6950  -30.4990 S   0  0  0  0  0  0  0  0  0  0  0  0
   -5.9880   25.3720  -29.6140 O   0  0  0  0  0  0  0  0  0  0  0  0
   -3.8910   25.6730  -30.8380 O   0  0  0  0  0  0  0  0  0  0  0  0
   -4.2640   23.3060  -29.6850 C   0  0  0  0  0  0  0  0  0  0  0  0
   -4.2230   23.2650  -28.2860 C   0  0  0  0  0  0  0  0  0  0  0  0
   -3.6270   22.1840  -27.6300 C   0  0  0  0  0  0  0  0  0  0  0  0
   -3.0640   21.1300  -28.3680 C   0  0  0  0  0  0  0  0  0  0  0  0
   -2.4260   19.9890  -27.6830 C   0  0  0  0  0  0  0  0  0  0  0  0
   -3.0040   19.2660  -26.7030 N   0  0  0  0  0  0  0  0  0  0  0  0
   -2.1220   18.3430  -26.3520 N   0  0  0  0  0  0  0  0  0  0  0  0
   -1.0390   18.5340  -27.1290 C   0  0  0  0  0  0  0  0  0  0  0  0
   -1.2210   19.5430  -27.9470 O   0  0  0  0  0  0  0  0  0  0  0  0
   -3.1120   21.1720  -29.7710 C   0  0  0  0  0  0  0  0  0  0  0  0
   -3.7110   22.2530  -30.4250 C   0  0  0  0  0  0  0  0  0  0  0  0
   -6.0630   21.8250  -32.6850 C   0  0  0  0  0  0  0  0  0  0  0  0
   -6.8860   20.6900  -32.8290 C   0  0  0  0  0  0  0  0  0  0  0  0
   -6.4240   19.5100  -33.4330 O   0  0  0  0  0  0  0  0  0  0  0  0
   -5.0600   19.2360  -33.7350 C   0  0  0  0  0  0  0  0  0  0  0  0
   -9.0395   18.9136  -30.5573 H   0  0  0  0  0  0  0  0  0  0  0  0
   -9.9906   17.9404  -31.7299 H   0  0  0  0  0  0  0  0  0  0  0  0
   -8.1969   17.8450  -31.7299 H   0  0  0  0  0  0  0  0  0  0  0  0
   -9.7343   21.9370  -31.3919 H   0  0  0  0  0  0  0  0  0  0  0  0
   -8.2739   23.9374  -31.1622 H   0  0  0  0  0  0  0  0  0  0  0  0
   -4.6615   24.0867  -27.7008 H   0  0  0  0  0  0  0  0  0  0  0  0
   -3.5988   22.1588  -26.5306 H   0  0  0  0  0  0  0  0  0  0  0  0
   -0.1239   17.9252  -27.0838 H   0  0  0  0  0  0  0  0  0  0  0  0
   -2.6762   20.3503  -30.3583 H   0  0  0  0  0  0  0  0  0  0  0  0
   -3.7481   22.2766  -31.5241 H   0  0  0  0  0  0  0  0  0  0  0  0
   -5.0212   21.7912  -33.0365 H   0  0  0  0  0  0  0  0  0  0  0  0
   -4.4930   19.1221  -32.7993 H   0  0  0  0  0  0  0  0  0  0  0  0
   -4.9934   18.3065  -34.3195 H   0  0  0  0  0  0  0  0  0  0  0  0
   -4.6397   20.0676  -34.3195 H   0  0  0  0  0  0  0  0  0  0  0  0
  1  2  1  0
  2  3  1  0
  3  4  2  0
  4  5  1  0
  5  6  2  0
  6  7  1  0
  7  8  1  0
  8  9  2  0
  8 10  2  0
  8 11  1  0
 11 12  2  0
 12 13  1  0
 13 14  2  0
 14 15  1  0
 15 16  2  0
 16 17  1  0
 17 18  2  0
 18 19  1  0
 14 20  1  0
 20 21  2  0
  6 22  1  0
 22 23  2  0
 23 24  1  0
 24 25  1  0
 23  3  1  0
 21 11  1  0
 19 15  1  0
  1 26  1  0
  1 27  1  0
  1 28  1  0
  4 29  1  0
  5 30  1  0
 12 31  1  0
 13 32  1  0
 18 33  1  0
 20 34  1  0
 21 35  1  0
 22 36  1  0
 25 37  1  0
 25 38  1  0
 25 39  1  0
M  CHG  1   7  -1
M  END
>  <UniqueID>  (25) 
24

>  <SMILES>  (25) 
COc1ccc([N-]S(=O)(=O)c2ccc(-c3nnco3)cc2)cc1OC

>  <Energy>  (25) 
77.26300346881871

>  <Genealogy>  (25) 
COc1ccc([N-]S(=O)(=O)c2ccc(-c3nnco3)cc2)cc1OC (protonated)
COc1ccc([N-]S(=O)(=O)c2ccc(-c3nnco3)cc2)cc1OC (3D coordinates assigned)
COc1ccc([N-]S(=O)(=O)c2ccc(-c3nnco3)cc2)cc1OC (optimized conformer: 77.26300346881871 kcal/mol)

>  <smiles>  (25) 
COc1ccc(NS(=O)(=O)c2ccc(-c3nnco3)cc2)cc1OC

>  <score_type>  (25) 
oracle

>  <origin>  (25) 
adgpu

>  <m_score__min__energy>  (25) 
-8.9900000000000002

>  <m_primary>  (25) 
energy

$$$$
25:0
     RDKit          3D

 63 66  0  0  0  0  0  0  0  0999 V2000
   -0.7240   17.7240  -34.0770 C   0  0  0  0  0  0  0  0  0  0  0  0
   -2.2160   17.9380  -34.1210 C   0  0  0  0  0  0  0  0  0  0  0  0
   -3.0560   16.8750  -34.4990 C   0  0  0  0  0  0  0  0  0  0  0  0
   -4.4420   17.0410  -34.5360 C   0  0  0  0  0  0  0  0  0  0  0  0
   -5.0170   18.2640  -34.1800 C   0  0  0  0  0  0  0  0  0  0  0  0
   -6.4480   18.3900  -34.1920 N   0  0  0  0  0  0  0  0  0  0  0  0
   -7.2960   18.5140  -33.0390 C   0  0  0  0  0  0  0  0  0  0  0  0
   -7.5910   17.4710  -32.3940 O   0  0  0  0  0  0  0  0  0  0  0  0
   -7.7990   19.8280  -32.5660 C   0  0  0  0  0  0  0  0  0  0  0  0
   -9.0920   19.9550  -32.0270 C   0  0  0  0  0  0  0  0  0  0  0  0
   -9.5290   21.1810  -31.5200 C   0  0  0  0  0  0  0  0  0  0  0  0
   -8.6900   22.2930  -31.5570 C   0  0  0  0  0  0  0  0  0  0  0  0
   -7.4090   22.1970  -32.1330 C   0  0  0  0  0  0  0  0  0  0  0  0
   -6.5170   23.2810  -32.1690 O   0  0  0  0  0  0  0  0  0  0  0  0
   -5.2830   23.3450  -31.5080 C   0  0  0  0  0  0  0  0  0  0  0  0
   -5.0660   24.2260  -30.4340 C   0  0  0  0  0  0  0  0  0  0  0  0
   -3.8350   24.2420  -29.7700 C   0  0  0  0  0  0  0  0  0  0  0  0
   -2.8040   23.3710  -30.1720 C   0  0  0  0  0  0  0  0  0  0  0  0
   -1.5360   23.3420  -29.4960 N   0  0  0  0  0  0  0  0  0  0  0  0
   -0.8610   24.5070  -29.0020 C   0  0  0  0  0  0  0  0  0  0  0  0
   -1.3040   25.6620  -29.2520 O   0  0  0  0  0  0  0  0  0  0  0  0
    0.3290   24.3390  -28.2190 N   0  0  0  0  0  0  0  0  0  0  0  0
    0.6900   25.0690  -27.0360 C   0  0  0  0  0  0  0  0  0  0  0  0
    2.0430   25.1950  -26.7150 C   0  0  0  0  0  0  0  0  0  0  0  0
    2.4380   25.8660  -25.5580 C   0  0  0  0  0  0  0  0  0  0  0  0
    1.4870   26.4230  -24.6880 C   0  0  0  0  0  0  0  0  0  0  0  0
    1.9740   27.1570  -23.4630 C   0  0  0  0  0  0  0  0  0  0  0  0
    0.1050   26.3060  -25.0010 C   0  0  0  0  0  0  0  0  0  0  0  0
   -0.9610   26.9070  -24.1030 C   0  0  0  0  0  0  0  0  0  0  0  0
   -0.9010   28.2900  -24.0860 F   0  0  0  0  0  0  0  0  0  0  0  0
   -0.7870   26.4600  -22.8060 F   0  0  0  0  0  0  0  0  0  0  0  0
   -2.2160   26.5370  -24.5510 F   0  0  0  0  0  0  0  0  0  0  0  0
   -0.2730   25.5960  -26.1610 C   0  0  0  0  0  0  0  0  0  0  0  0
   -3.0070   22.5430  -31.2870 C   0  0  0  0  0  0  0  0  0  0  0  0
   -4.2350   22.5340  -31.9510 C   0  0  0  0  0  0  0  0  0  0  0  0
   -6.9750   20.9640  -32.6360 C   0  0  0  0  0  0  0  0  0  0  0  0
   -4.1840   19.3460  -33.8470 C   0  0  0  0  0  0  0  0  0  0  0  0
   -2.7870   19.1930  -33.8050 C   0  0  0  0  0  0  0  0  0  0  0  0
   -1.9250   20.3660  -33.4110 C   0  0  0  0  0  0  0  0  0  0  0  0
   -0.3912   17.6763  -33.0297 H   0  0  0  0  0  0  0  0  0  0  0  0
   -0.4737   16.7808  -34.5846 H   0  0  0  0  0  0  0  0  0  0  0  0
   -0.2187   18.5589  -34.5846 H   0  0  0  0  0  0  0  0  0  0  0  0
   -2.6167   15.9031  -34.7682 H   0  0  0  0  0  0  0  0  0  0  0  0
   -5.0849   16.2044  -34.8471 H   0  0  0  0  0  0  0  0  0  0  0  0
   -9.7630   19.0837  -32.0046 H   0  0  0  0  0  0  0  0  0  0  0  0
  -10.5379   21.2689  -31.0905 H   0  0  0  0  0  0  0  0  0  0  0  0
   -9.0301   23.2499  -31.1343 H   0  0  0  0  0  0  0  0  0  0  0  0
   -5.8688   24.9065  -30.1141 H   0  0  0  0  0  0  0  0  0  0  0  0
   -3.6720   24.9361  -28.9324 H   0  0  0  0  0  0  0  0  0  0  0  0
   -1.1750   22.4140  -29.1750 H   0  0  0  0  0  0  0  0  0  0  0  0
    2.8039   24.7613  -27.3805 H   0  0  0  0  0  0  0  0  0  0  0  0
    3.5087   25.9601  -25.3239 H   0  0  0  0  0  0  0  0  0  0  0  0
    1.6268   26.6338  -22.5598 H   0  0  0  0  0  0  0  0  0  0  0  0
    3.0735   27.1896  -23.4680 H   0  0  0  0  0  0  0  0  0  0  0  0
    1.5767   28.1827  -23.4680 H   0  0  0  0  0  0  0  0  0  0  0  0
   -1.3408   25.4532  -26.3832 H   0  0  0  0  0  0  0  0  0  0  0  0
   -2.1912   21.8954  -31.6408 H   0  0  0  0  0  0  0  0  0  0  0  0
   -4.3783   21.8850  -32.8275 H   0  0  0  0  0  0  0  0  0  0  0  0
   -5.9769   20.8840  -33.0914 H   0  0  0  0  0  0  0  0  0  0  0  0
   -4.6305   20.3245  -33.6164 H   0  0  0  0  0  0  0  0  0  0  0  0
   -1.8759   20.4329  -32.3141 H   0  0  0  0  0  0  0  0  0  0  0  0
   -0.9114   20.2285  -33.8157 H   0  0  0  0  0  0  0  0  0  0  0  0
   -2.3589   21.2922  -33.8157 H   0  0  0  0  0  0  0  0  0  0  0  0
  1  2  1  0
  2  3  2  0
  3  4  1  0
  4  5  2  0
  5  6  1  0
  6  7  1  0
  7  8  2  0
  7  9  1  0
  9 10  2  0
 10 11  1  0
 11 12  2  0
 12 13  1  0
 13 14  1  0
 14 15  1  0
 15 16  2  0
 16 17  1  0
 17 18  2  0
 18 19  1  0
 19 20  1  0
 20 21  2  0
 20 22  1  0
 22 23  1  0
 23 24  2  0
 24 25  1  0
 25 26  2  0
 26 27  1  0
 26 28  1  0
 28 29  1  0
 29 30  1  0
 29 31  1  0
 29 32  1  0
 28 33  2  0
 18 34  1  0
 34 35  2  0
 13 36  2  0
  5 37  1  0
 37 38  2  0
 38 39  1  0
 38  2  1  0
 36  9  1  0
 35 15  1  0
 33 23  1  0
  1 40  1  0
  1 41  1  0
  1 42  1  0
  3 43  1  0
  4 44  1  0
 10 45  1  0
 11 46  1  0
 12 47  1  0
 16 48  1  0
 17 49  1  0
 19 50  1  0
 24 51  1  0
 25 52  1  0
 27 53  1  0
 27 54  1  0
 27 55  1  0
 33 56  1  0
 34 57  1  0
 35 58  1  0
 36 59  1  0
 37 60  1  0
 39 61  1  0
 39 62  1  0
 39 63  1  0
M  CHG  2   6  -1  22  -1
M  END
>  <UniqueID>  (26) 
25

>  <SMILES>  (26) 
Cc1ccc([N-]C(=O)c2cccc(Oc3ccc(NC(=O)[N-]c4ccc(C)c(C(F)(F)F)c4)cc3)c2)cc1C

>  <Energy>  (26) 
91.45949740602447

>  <Genealogy>  (26) 
Cc1ccc([N-]C(=O)c2cccc(Oc3ccc(NC(=O)[N-]c4ccc(C)c(C(F)(F)F)c4)cc3)c2)cc1C (protonated)
Cc1ccc([N-]C(=O)c2cccc(Oc3ccc(NC(=O)[N-]c4ccc(C)c(C(F)(F)F)c4)cc3)c2)cc1C (3D coordinates assigned)
Cc1ccc([N-]C(=O)c2cccc(Oc3ccc(NC(=O)[N-]c4ccc(C)c(C(F)(F)F)c4)cc3)c2)cc1C (optimized conformer: 91.45949740602447 kcal/mol)

>  <smiles>  (26) 
Cc1ccc(NC(=O)c2cccc(Oc3ccc(NC(=O)Nc4ccc(C)c(C(F)(F)F)c4)cc3)c2)cc1C

>  <score_type>  (26) 
oracle

>  <origin>  (26) 
adgpu

>  <m_score__min__energy>  (26) 
-12.619999999999999

>  <m_primary>  (26) 
energy

$$$$
26:0
     RDKit          3D

 29 30  0  0  0  0  0  0  0  0999 V2000
   -6.5890   16.3560  -33.5000 N   0  0  0  0  0  0  0  0  0  0  0  0
   -6.9680   17.6740  -33.0940 C   0  0  0  0  0  0  0  0  0  0  0  0
   -6.3520   18.7940  -33.6680 C   0  0  0  0  0  0  0  0  0  0  0  0
   -6.7250   20.0830  -33.2730 C   0  0  0  0  0  0  0  0  0  0  0  0
   -7.7180   20.2620  -32.3020 C   0  0  0  0  0  0  0  0  0  0  0  0
   -8.2030   21.8820  -31.8070 S   0  0  0  0  0  0  0  0  0  0  0  0
   -9.5860   22.1520  -32.3280 O   0  0  0  0  0  0  0  0  0  0  0  0
   -8.2130   21.9990  -30.3090 O   0  0  0  0  0  0  0  0  0  0  0  0
   -7.1060   23.0570  -32.4610 N   0  0  0  0  0  0  0  0  0  0  0  0
   -5.9870   23.6030  -31.7390 C   0  0  0  0  0  0  0  0  0  0  0  0
   -4.7820   22.8910  -31.5780 C   0  0  0  0  0  0  0  0  0  0  0  0
   -3.7150   23.4570  -30.8730 C   0  0  0  0  0  0  0  0  0  0  0  0
   -3.8380   24.7330  -30.3200 C   0  0  0  0  0  0  0  0  0  0  0  0
   -2.7750   25.2940  -29.6210 O   0  0  0  0  0  0  0  0  0  0  0  0
   -5.0310   25.4450  -30.4670 C   0  0  0  0  0  0  0  0  0  0  0  0
   -6.0990   24.8840  -31.1710 C   0  0  0  0  0  0  0  0  0  0  0  0
   -8.3310   19.1420  -31.7220 C   0  0  0  0  0  0  0  0  0  0  0  0
   -7.9580   17.8540  -32.1180 C   0  0  0  0  0  0  0  0  0  0  0  0
   -7.1400   15.8400  -34.2210 H   0  0  0  0  0  0  0  0  0  0  0  0
   -5.7540   15.8870  -33.0810 H   0  0  0  0  0  0  0  0  0  0  0  0
   -5.5722   18.6591  -34.4320 H   0  0  0  0  0  0  0  0  0  0  0  0
   -6.2370   20.9584  -33.7263 H   0  0  0  0  0  0  0  0  0  0  0  0
   -7.2420   23.3240  -33.4620 H   0  0  0  0  0  0  0  0  0  0  0  0
   -4.6798   21.8842  -32.0092 H   0  0  0  0  0  0  0  0  0  0  0  0
   -2.7766   22.8955  -30.7539 H   0  0  0  0  0  0  0  0  0  0  0  0
   -5.1294   26.4487  -30.0278 H   0  0  0  0  0  0  0  0  0  0  0  0
   -7.0359   25.4495  -31.2819 H   0  0  0  0  0  0  0  0  0  0  0  0
   -9.1068   19.2771  -30.9540 H   0  0  0  0  0  0  0  0  0  0  0  0
   -8.4433   16.9785  -31.6619 H   0  0  0  0  0  0  0  0  0  0  0  0
  1  2  1  0
  2  3  2  0
  3  4  1  0
  4  5  2  0
  5  6  1  0
  6  7  2  0
  6  8  2  0
  6  9  1  0
  9 10  1  0
 10 11  2  0
 11 12  1  0
 12 13  2  0
 13 14  1  0
 13 15  1  0
 15 16  2  0
  5 17  1  0
 17 18  2  0
 18  2  1  0
 16 10  1  0
  1 19  1  0
  1 20  1  0
  3 21  1  0
  4 22  1  0
  9 23  1  0
 11 24  1  0
 12 25  1  0
 15 26  1  0
 16 27  1  0
 17 28  1  0
 18 29  1  0
M  CHG  1  14  -1
M  END
>  <UniqueID>  (27) 
26

>  <SMILES>  (27) 
Nc1ccc(S(=O)(=O)Nc2ccc([O-])cc2)cc1

>  <Energy>  (27) 
31.4088800515378

>  <Genealogy>  (27) 
Nc1ccc(S(=O)(=O)Nc2ccc([O-])cc2)cc1 (protonated)
Nc1ccc(S(=O)(=O)Nc2ccc([O-])cc2)cc1 (3D coordinates assigned)
Nc1ccc(S(=O)(=O)Nc2ccc([O-])cc2)cc1 (optimized conformer: 31.4088800515378 kcal/mol)

>  <smiles>  (27) 
Nc1ccc(S(=O)(=O)Nc2ccc(O)cc2)cc1

>  <score_type>  (27) 
oracle

>  <origin>  (27) 
adgpu

>  <m_score__min__energy>  (27) 
-10.41

>  <m_primary>  (27) 
energy

$$$$
27:0
     RDKit          3D

 47 49  0  0  0  0  0  0  0  0999 V2000
    0.2150   24.4350  -28.4990 O   0  0  0  0  0  0  0  0  0  0  0  0
   -0.8620   24.7890  -29.0480 C   0  0  0  0  0  0  0  0  0  0  0  0
   -1.2530   26.1180  -28.9540 O   0  0  0  0  0  0  0  0  0  0  0  0
   -1.6890   23.8000  -29.7830 C   0  0  0  0  0  0  0  0  0  0  0  0
   -1.1240   22.5590  -30.1410 C   0  0  0  0  0  0  0  0  0  0  0  0
   -1.8730   21.5990  -30.8340 C   0  0  0  0  0  0  0  0  0  0  0  0
   -1.2340   20.3660  -31.2000 N   0  0  0  0  0  0  0  0  0  0  0  0
   -1.2400   19.6600  -32.7840 S   0  0  0  0  0  0  0  0  0  0  0  0
   -0.1990   18.5800  -32.8630 O   0  0  0  0  0  0  0  0  0  0  0  0
   -0.8970   20.7210  -33.7890 O   0  0  0  0  0  0  0  0  0  0  0  0
   -2.8420   19.0270  -33.1530 C   0  0  0  0  0  0  0  0  0  0  0  0
   -3.8720   19.9140  -33.4800 C   0  0  0  0  0  0  0  0  0  0  0  0
   -5.1610   19.4320  -33.7370 C   0  0  0  0  0  0  0  0  0  0  0  0
   -5.4430   18.0590  -33.6270 C   0  0  0  0  0  0  0  0  0  0  0  0
   -6.8440   17.5400  -33.8080 C   0  0  0  0  0  0  0  0  0  0  0  0
   -7.6070   17.6730  -32.5550 N   0  0  0  0  0  0  0  0  0  0  0  0
   -8.7020   18.6560  -32.6570 C   0  0  0  0  0  0  0  0  0  0  0  0
   -8.2720   20.0180  -32.1730 C   0  0  0  0  0  0  0  0  0  0  0  0
   -7.0070   20.1940  -31.5880 C   0  0  0  0  0  0  0  0  0  0  0  0
   -6.5910   21.4670  -31.1770 C   0  0  0  0  0  0  0  0  0  0  0  0
   -7.4360   22.5710  -31.3400 C   0  0  0  0  0  0  0  0  0  0  0  0
   -6.9090   24.1700  -30.8480 Cl  0  0  0  0  0  0  0  0  0  0  0  0
   -8.7050   22.3980  -31.9030 C   0  0  0  0  0  0  0  0  0  0  0  0
   -9.1260   21.1270  -32.3090 C   0  0  0  0  0  0  0  0  0  0  0  0
   -4.4030   17.1710  -33.3090 C   0  0  0  0  0  0  0  0  0  0  0  0
   -3.1080   17.6530  -33.0910 C   0  0  0  0  0  0  0  0  0  0  0  0
   -3.2110   21.8730  -31.1630 C   0  0  0  0  0  0  0  0  0  0  0  0
   -3.7860   23.0950  -30.8150 C   0  0  0  0  0  0  0  0  0  0  0  0
   -3.0400   24.0650  -30.1300 C   0  0  0  0  0  0  0  0  0  0  0  0
   -3.6430   25.2820  -29.7910 O   0  0  0  0  0  0  0  0  0  0  0  0
   -0.0798   22.3412  -29.8723 H   0  0  0  0  0  0  0  0  0  0  0  0
   -3.6690   20.9937  -33.5355 H   0  0  0  0  0  0  0  0  0  0  0  0
   -5.9584   20.1321  -34.0269 H   0  0  0  0  0  0  0  0  0  0  0  0
   -7.3445   18.1164  -34.6000 H   0  0  0  0  0  0  0  0  0  0  0  0
   -6.7974   16.4768  -34.0861 H   0  0  0  0  0  0  0  0  0  0  0  0
   -8.0500   16.7430  -32.3500 H   0  0  0  0  0  0  0  0  0  0  0  0
   -9.0155   18.7334  -33.7085 H   0  0  0  0  0  0  0  0  0  0  0  0
   -9.5331   18.3123  -32.0236 H   0  0  0  0  0  0  0  0  0  0  0  0
   -6.3408   19.3293  -31.4522 H   0  0  0  0  0  0  0  0  0  0  0  0
   -5.5971   21.5994  -30.7247 H   0  0  0  0  0  0  0  0  0  0  0  0
   -9.3731   23.2630  -32.0267 H   0  0  0  0  0  0  0  0  0  0  0  0
  -10.1306   20.9944  -32.7370 H   0  0  0  0  0  0  0  0  0  0  0  0
   -4.6071   16.0929  -33.2310 H   0  0  0  0  0  0  0  0  0  0  0  0
   -2.2930   16.9483  -32.8694 H   0  0  0  0  0  0  0  0  0  0  0  0
   -3.8082   21.1198  -31.6978 H   0  0  0  0  0  0  0  0  0  0  0  0
   -4.8338   23.2998  -31.0801 H   0  0  0  0  0  0  0  0  0  0  0  0
   -3.1170   26.0460  -29.3720 H   0  0  0  0  0  0  0  0  0  0  0  0
  1  2  2  0
  2  3  1  0
  2  4  1  0
  4  5  2  0
  5  6  1  0
  6  7  1  0
  7  8  1  0
  8  9  2  0
  8 10  2  0
  8 11  1  0
 11 12  2  0
 12 13  1  0
 13 14  2  0
 14 15  1  0
 15 16  1  0
 16 17  1  0
 17 18  1  0
 18 19  2  0
 19 20  1  0
 20 21  2  0
 21 22  1  0
 21 23  1  0
 23 24  2  0
 14 25  1  0
 25 26  2  0
  6 27  2  0
 27 28  1  0
 28 29  2  0
 29 30  1  0
 29  4  1  0
 26 11  1  0
 24 18  1  0
  5 31  1  0
 12 32  1  0
 13 33  1  0
 15 34  1  0
 15 35  1  0
 16 36  1  0
 17 37  1  0
 17 38  1  0
 19 39  1  0
 20 40  1  0
 23 41  1  0
 24 42  1  0
 25 43  1  0
 26 44  1  0
 27 45  1  0
 28 46  1  0
 30 47  1  0
M  CHG  2   3  -1   7  -1
M  END
>  <UniqueID>  (28) 
27

>  <SMILES>  (28) 
O=C([O-])c1cc([N-]S(=O)(=O)c2ccc(CNCc3ccc(Cl)cc3)cc2)ccc1O

>  <Energy>  (28) 
49.45376779188007

>  <Genealogy>  (28) 
O=C([O-])c1cc([N-]S(=O)(=O)c2ccc(CNCc3ccc(Cl)cc3)cc2)ccc1O (protonated)
O=C([O-])c1cc([N-]S(=O)(=O)c2ccc(CNCc3ccc(Cl)cc3)cc2)ccc1O (3D coordinates assigned)
O=C([O-])c1cc([N-]S(=O)(=O)c2ccc(CNCc3ccc(Cl)cc3)cc2)ccc1O (optimized conformer: 49.45376779188007 kcal/mol)

>  <smiles>  (28) 
O=C(O)c1cc(NS(=O)(=O)c2ccc(CNCc3ccc(Cl)cc3)cc2)ccc1O

>  <score_type>  (28) 
oracle

>  <origin>  (28) 
adgpu

>  <m_score__min__energy>  (28) 
-11.449999999999999

>  <m_primary>  (28) 
energy

$$$$
28:0
     RDKit          3D

 48 50  0  0  0  0  0  0  0  0999 V2000
   -5.8250   18.4820  -31.6070 C   0  0  0  0  0  0  0  0  0  0  0  0
   -6.5400   18.4270  -32.9750 C   0  0  0  0  0  0  0  0  0  0  0  0
   -7.2750   17.0760  -33.1050 C   0  0  0  0  0  0  0  0  0  0  0  0
   -5.4960   18.5690  -34.1090 C   0  0  0  0  0  0  0  0  0  0  0  0
   -6.1130   18.9430  -35.3120 O   0  0  0  0  0  0  0  0  0  0  0  0
   -7.5700   19.5890  -33.0340 C   0  0  0  0  0  0  0  0  0  0  0  0
   -6.9420   20.8560  -33.2530 O   0  0  0  0  0  0  0  0  0  0  0  0
   -6.1420   21.5710  -32.3450 C   0  0  0  0  0  0  0  0  0  0  0  0
   -6.6600   22.2330  -31.2140 C   0  0  0  0  0  0  0  0  0  0  0  0
   -5.8080   22.9290  -30.3510 C   0  0  0  0  0  0  0  0  0  0  0  0
   -4.4280   22.9790  -30.6000 C   0  0  0  0  0  0  0  0  0  0  0  0
   -3.5250   23.7180  -29.6950 C   0  0  0  0  0  0  0  0  0  0  0  0
   -3.0580   23.2370  -28.5260 N   0  0  0  0  0  0  0  0  0  0  0  0
   -2.3010   24.2680  -28.0920 C   0  0  0  0  0  0  0  0  0  0  0  0
   -1.5460   24.2580  -26.8200 C   0  0  0  0  0  0  0  0  0  0  0  0
   -0.8260   23.1170  -26.4300 C   0  0  0  0  0  0  0  0  0  0  0  0
   -0.1180   23.1060  -25.2250 C   0  0  0  0  0  0  0  0  0  0  0  0
   -0.1180   24.2330  -24.4000 C   0  0  0  0  0  0  0  0  0  0  0  0
   -0.8210   25.3850  -24.7790 C   0  0  0  0  0  0  0  0  0  0  0  0
   -0.8510   26.5820  -23.8690 C   0  0  0  0  0  0  0  0  0  0  0  0
    0.4460   26.8830  -23.4310 O   0  0  0  0  0  0  0  0  0  0  0  0
   -1.5430   25.3900  -25.9830 C   0  0  0  0  0  0  0  0  0  0  0  0
   -2.3130   25.3080  -28.9500 N   0  0  0  0  0  0  0  0  0  0  0  0
   -3.0800   24.9300  -29.9250 O   0  0  0  0  0  0  0  0  0  0  0  0
   -3.9130   22.3200  -31.7250 C   0  0  0  0  0  0  0  0  0  0  0  0
   -4.7640   21.6240  -32.5890 C   0  0  0  0  0  0  0  0  0  0  0  0
   -4.2440   20.9950  -33.6730 F   0  0  0  0  0  0  0  0  0  0  0  0
   -6.5711   18.4246  -30.8007 H   0  0  0  0  0  0  0  0  0  0  0  0
   -5.1285   17.6348  -31.5230 H   0  0  0  0  0  0  0  0  0  0  0  0
   -5.2662   19.4258  -31.5230 H   0  0  0  0  0  0  0  0  0  0  0  0
   -7.4913   16.6783  -32.1025 H   0  0  0  0  0  0  0  0  0  0  0  0
   -8.2177   17.2226  -33.6526 H   0  0  0  0  0  0  0  0  0  0  0  0
   -6.6398   16.3642  -33.6526 H   0  0  0  0  0  0  0  0  0  0  0  0
   -4.7603   19.3368  -33.8274 H   0  0  0  0  0  0  0  0  0  0  0  0
   -5.0004   17.5979  -34.2547 H   0  0  0  0  0  0  0  0  0  0  0  0
   -6.7880   19.6310  -35.0750 H   0  0  0  0  0  0  0  0  0  0  0  0
   -8.2752   19.3962  -33.8559 H   0  0  0  0  0  0  0  0  0  0  0  0
   -8.0879   19.6314  -32.0645 H   0  0  0  0  0  0  0  0  0  0  0  0
   -7.7403   22.2021  -31.0090 H   0  0  0  0  0  0  0  0  0  0  0  0
   -6.2227   23.4412  -29.4703 H   0  0  0  0  0  0  0  0  0  0  0  0
   -0.8192   22.2271  -27.0765 H   0  0  0  0  0  0  0  0  0  0  0  0
    0.4409   22.2071  -24.9255 H   0  0  0  0  0  0  0  0  0  0  0  0
    0.4356   24.2165  -23.4496 H   0  0  0  0  0  0  0  0  0  0  0  0
   -1.2606   27.4446  -24.4150 H   0  0  0  0  0  0  0  0  0  0  0  0
   -1.4838   26.3577  -22.9976 H   0  0  0  0  0  0  0  0  0  0  0  0
    0.6290   26.2880  -22.6560 H   0  0  0  0  0  0  0  0  0  0  0  0
   -2.1110   26.2857  -26.2748 H   0  0  0  0  0  0  0  0  0  0  0  0
   -2.8326   22.3506  -31.9294 H   0  0  0  0  0  0  0  0  0  0  0  0
  1  2  1  0
  2  3  1  0
  2  4  1  0
  4  5  1  0
  2  6  1  0
  6  7  1  0
  7  8  1  0
  8  9  2  0
  9 10  1  0
 10 11  2  0
 11 12  1  0
 12 13  2  0
 13 14  1  0
 14 15  1  0
 15 16  2  0
 16 17  1  0
 17 18  2  0
 18 19  1  0
 19 20  1  0
 20 21  1  0
 19 22  2  0
 14 23  2  0
 23 24  1  0
 11 25  1  0
 25 26  2  0
 26 27  1  0
 26  8  1  0
 24 12  1  0
 22 15  1  0
  1 28  1  0
  1 29  1  0
  1 30  1  0
  3 31  1  0
  3 32  1  0
  3 33  1  0
  4 34  1  0
  4 35  1  0
  5 36  1  0
  6 37  1  0
  6 38  1  0
  9 39  1  0
 10 40  1  0
 16 41  1  0
 17 42  1  0
 18 43  1  0
 20 44  1  0
 20 45  1  0
 21 46  1  0
 22 47  1  0
 25 48  1  0
M  END
>  <UniqueID>  (29) 
28

>  <SMILES>  (29) 
CC(C)(CO)COc1ccc(-c2nc(-c3cccc(CO)c3)no2)cc1F

>  <Energy>  (29) 
80.84795509121408

>  <Genealogy>  (29) 
CC(C)(CO)COc1ccc(-c2nc(-c3cccc(CO)c3)no2)cc1F (3D coordinates assigned)
CC(C)(CO)COc1ccc(-c2nc(-c3cccc(CO)c3)no2)cc1F (optimized conformer: 80.84795509121408 kcal/mol)

>  <smiles>  (29) 
CC(C)(CO)COc1ccc(-c2nc(-c3cccc(CO)c3)no2)cc1F

>  <score_type>  (29) 
oracle

>  <origin>  (29) 
adgpu

>  <m_score__min__energy>  (29) 
-8.9000000000000004

>  <m_primary>  (29) 
energy

$$$$
29:0
     RDKit          3D

 60 65  0  0  0  0  0  0  0  0999 V2000
   -1.9674   22.1267  -33.1933 H   0  0  0  0  0  0  0  0  0  0  0  0
   -1.5710   21.1400  -33.4750 C   0  0  0  0  0  0  0  0  0  0  0  0
   -2.3430   20.0600  -33.2990 C   0  0  0  0  0  0  0  0  0  0  0  0
   -1.9510   19.0713  -33.5797 H   0  0  0  0  0  0  0  0  0  0  0  0
   -3.7050   20.1590  -32.7390 C   0  0  0  0  0  0  0  0  0  0  0  0
   -4.1520   21.2390  -32.0470 N   0  0  0  0  0  0  0  0  0  0  0  0
   -5.4510   20.9590  -31.8190 C   0  0  0  0  0  0  0  0  0  0  0  0
   -6.3700   21.7440  -31.1170 C   0  0  0  0  0  0  0  0  0  0  0  0
   -6.0180   23.0280  -30.5680 N   0  0  0  0  0  0  0  0  0  0  0  0
   -5.0120   23.1200  -29.5030 C   0  0  0  0  0  0  0  0  0  0  0  0
   -5.4544   22.7792  -28.5553 H   0  0  0  0  0  0  0  0  0  0  0  0
   -4.1524   22.4862  -29.7666 H   0  0  0  0  0  0  0  0  0  0  0  0
   -4.5360   24.5650  -29.3470 C   0  0  0  0  0  0  0  0  0  0  0  0
   -5.2551   25.1234  -28.7297 H   0  0  0  0  0  0  0  0  0  0  0  0
   -3.5495   24.5758  -28.8605 H   0  0  0  0  0  0  0  0  0  0  0  0
   -4.4400   25.1680  -30.6190 O   0  0  0  0  0  0  0  0  0  0  0  0
   -5.7360   25.4390  -31.1270 C   0  0  0  0  0  0  0  0  0  0  0  0
   -6.1625   26.2791  -30.5593 H   0  0  0  0  0  0  0  0  0  0  0  0
   -5.6195   25.6698  -32.1962 H   0  0  0  0  0  0  0  0  0  0  0  0
   -6.7080   24.2400  -31.0280 C   0  0  0  0  0  0  0  0  0  0  0  0
   -7.5100   24.4871  -30.3168 H   0  0  0  0  0  0  0  0  0  0  0  0
   -7.1206   24.0450  -32.0289 H   0  0  0  0  0  0  0  0  0  0  0  0
   -7.6720   21.2270  -30.9750 C   0  0  0  0  0  0  0  0  0  0  0  0
   -8.4363   21.8023  -30.4320 H   0  0  0  0  0  0  0  0  0  0  0  0
   -7.9950   19.9740  -31.5280 C   0  0  0  0  0  0  0  0  0  0  0  0
   -9.0119   19.5688  -31.4198 H   0  0  0  0  0  0  0  0  0  0  0  0
   -7.0440   19.2640  -32.1980 N   0  0  0  0  0  0  0  0  0  0  0  0
   -5.8230   19.7760  -32.3270 N   0  0  0  0  0  0  0  0  0  0  0  0
   -4.7410   19.2400  -32.9080 C   0  0  0  0  0  0  0  0  0  0  0  0
   -4.7150   17.9210  -33.5730 C   0  0  0  0  0  0  0  0  0  0  0  0
   -3.6060   17.5460  -34.2650 N   0  0  0  0  0  0  0  0  0  0  0  0
   -3.5410   16.3490  -34.9030 C   0  0  0  0  0  0  0  0  0  0  0  0
   -2.3220   15.9820  -35.6810 C   0  0  0  0  0  0  0  0  0  0  0  0
   -1.5046   15.7359  -34.9873 H   0  0  0  0  0  0  0  0  0  0  0  0
   -2.5403   15.1097  -36.3147 H   0  0  0  0  0  0  0  0  0  0  0  0
   -2.0224   16.8298  -36.3147 H   0  0  0  0  0  0  0  0  0  0  0  0
   -4.6120   15.5120  -34.8830 N   0  0  0  0  0  0  0  0  0  0  0  0
   -5.7490   15.8420  -34.2150 C   0  0  0  0  0  0  0  0  0  0  0  0
   -6.9180   14.9120  -34.2270 C   0  0  0  0  0  0  0  0  0  0  0  0
   -7.2114   14.6785  -33.1929 H   0  0  0  0  0  0  0  0  0  0  0  0
   -7.7608   15.3892  -34.7485 H   0  0  0  0  0  0  0  0  0  0  0  0
   -6.6425   13.9835  -34.7485 H   0  0  0  0  0  0  0  0  0  0  0  0
   -5.8290   17.0700  -33.5500 C   0  0  0  0  0  0  0  0  0  0  0  0
   -6.7474   17.3621  -33.0197 H   0  0  0  0  0  0  0  0  0  0  0  0
   -0.2060   21.0540  -34.0340 C   0  0  0  0  0  0  0  0  0  0  0  0
    0.3420   22.1140  -34.6940 N   0  0  0  0  0  0  0  0  0  0  0  0
    1.5930   22.0660  -35.2250 C   0  0  0  0  0  0  0  0  0  0  0  0
    2.1150   23.1780  -35.8960 C   0  0  0  0  0  0  0  0  0  0  0  0
    1.5137   24.0939  -35.9937 H   0  0  0  0  0  0  0  0  0  0  0  0
    3.4010   23.1240  -36.4420 C   0  0  0  0  0  0  0  0  0  0  0  0
    3.8100   23.9982  -36.9697 H   0  0  0  0  0  0  0  0  0  0  0  0
    4.1690   21.9610  -36.3190 C   0  0  0  0  0  0  0  0  0  0  0  0
    5.1801   21.9239  -36.7507 H   0  0  0  0  0  0  0  0  0  0  0  0
    3.6560   20.8450  -35.6490 C   0  0  0  0  0  0  0  0  0  0  0  0
    4.2628   19.9325  -35.5536 H   0  0  0  0  0  0  0  0  0  0  0  0
    2.3660   20.8920  -35.0990 C   0  0  0  0  0  0  0  0  0  0  0  0
    1.8230   19.7920  -34.4250 C   0  0  0  0  0  0  0  0  0  0  0  0
    2.4090   18.8675  -34.3160 H   0  0  0  0  0  0  0  0  0  0  0  0
    0.5340   19.8720  -33.8910 C   0  0  0  0  0  0  0  0  0  0  0  0
    0.1017   19.0108  -33.3605 H   0  0  0  0  0  0  0  0  0  0  0  0
  1  2  1  0
  2  3  2  0
  3  4  1  0
  3  5  1  0
  5  6  1  0
  6  7  2  0
  7  8  1  0
  8  9  1  0
  9 10  1  0
 10 11  1  0
 10 12  1  0
 10 13  1  0
 13 14  1  0
 13 15  1  0
 13 16  1  0
 16 17  1  0
 17 18  1  0
 17 19  1  0
 17 20  1  0
 20 21  1  0
 20 22  1  0
  8 23  2  0
 23 24  1  0
 23 25  1  0
 25 26  1  0
 25 27  2  0
 27 28  1  0
 28 29  1  0
 29 30  1  0
 30 31  2  0
 31 32  1  0
 32 33  1  0
 33 34  1  0
 33 35  1  0
 33 36  1  0
 32 37  2  0
 37 38  1  0
 38 39  1  0
 39 40  1  0
 39 41  1  0
 39 42  1  0
 38 43  2  0
 43 44  1  0
  2 45  1  0
 45 46  2  0
 46 47  1  0
 47 48  2  0
 48 49  1  0
 48 50  1  0
 50 51  1  0
 50 52  2  0
 52 53  1  0
 52 54  1  0
 54 55  1  0
 54 56  2  0
 56 57  1  0
 57 58  1  0
 57 59  2  0
 59 60  1  0
 29  5  2  0
 43 30  1  0
 59 45  1  0
 28  7  1  0
 56 47  1  0
 20  9  1  0
M  END
>  <UniqueID>  (30) 
29

>  <SMILES>  (30) 
Cc1cc(-c2c(/C=C/c3ccc4ccccc4n3)nc3c(N4CCOCC4)ccnn23)nc(C)n1

>  <Energy>  (30) 
119.38745770471547

>  <Genealogy>  (30) 
Cc1cc(-c2c(/C=C/c3ccc4ccccc4n3)nc3c(N4CCOCC4)ccnn23)nc(C)n1 (cis-trans isomerization)
Cc1cc(-c2c(/C=C/c3ccc4ccccc4n3)nc3c(N4CCOCC4)ccnn23)nc(C)n1 (3D coordinates assigned)
Cc1cc(-c2c(/C=C/c3ccc4ccccc4n3)nc3c(N4CCOCC4)ccnn23)nc(C)n1 (nonaromatic ring conformer: 119.38745770471547 kcal/mol)

>  <smiles>  (30) 
Cc1cc(-c2c(C=Cc3ccc4ccccc4n3)nc3c(N4CCOCC4)ccnn23)nc(C)n1

>  <score_type>  (30) 
oracle

>  <origin>  (30) 
adgpu

>  <m_score__min__energy>  (30) 
-9.9399999999999995

>  <m_primary>  (30) 
energy

$$$$
30:0
     RDKit          3D

 27 29  0  0  0  0  0  0  0  0999 V2000
   -3.6410   20.9310  -31.4550 O   0  0  0  0  0  0  0  0  0  0  0  0
   -4.6590   21.5530  -31.0410 C   0  0  0  0  0  0  0  0  0  0  0  0
   -4.5200   22.6030  -30.1170 C   0  0  0  0  0  0  0  0  0  0  0  0
   -3.1940   23.0330  -29.6150 C   0  0  0  0  0  0  0  0  0  0  0  0
   -2.3810   22.1180  -28.9250 C   0  0  0  0  0  0  0  0  0  0  0  0
   -1.1260   22.5060  -28.4470 C   0  0  0  0  0  0  0  0  0  0  0  0
   -0.6730   23.8120  -28.6470 C   0  0  0  0  0  0  0  0  0  0  0  0
    0.5750   24.1940  -28.1730 O   0  0  0  0  0  0  0  0  0  0  0  0
   -1.4780   24.7350  -29.3200 C   0  0  0  0  0  0  0  0  0  0  0  0
   -2.7370   24.3550  -29.7990 C   0  0  0  0  0  0  0  0  0  0  0  0
   -3.5340   25.3000  -30.4370 O   0  0  0  0  0  0  0  0  0  0  0  0
   -5.6810   23.2370  -29.6500 C   0  0  0  0  0  0  0  0  0  0  0  0
   -6.8820   22.8680  -30.0840 O   0  0  0  0  0  0  0  0  0  0  0  0
   -7.0550   21.8920  -30.9680 C   0  0  0  0  0  0  0  0  0  0  0  0
   -8.3480   21.5570  -31.3840 C   0  0  0  0  0  0  0  0  0  0  0  0
   -8.5440   20.5280  -32.3110 C   0  0  0  0  0  0  0  0  0  0  0  0
   -9.8300   20.2000  -32.7220 O   0  0  0  0  0  0  0  0  0  0  0  0
   -7.4460   19.8300  -32.8260 C   0  0  0  0  0  0  0  0  0  0  0  0
   -6.1500   20.1550  -32.4160 C   0  0  0  0  0  0  0  0  0  0  0  0
   -5.9420   21.1900  -31.4850 C   0  0  0  0  0  0  0  0  0  0  0  0
   -2.7345   21.0895  -28.7599 H   0  0  0  0  0  0  0  0  0  0  0  0
   -0.4941   21.7815  -27.9124 H   0  0  0  0  0  0  0  0  0  0  0  0
   -1.1209   25.7640  -29.4739 H   0  0  0  0  0  0  0  0  0  0  0  0
   -5.5963   24.0506  -28.9146 H   0  0  0  0  0  0  0  0  0  0  0  0
   -9.2129   22.1043  -30.9810 H   0  0  0  0  0  0  0  0  0  0  0  0
   -7.6035   19.0225  -33.5562 H   0  0  0  0  0  0  0  0  0  0  0  0
   -5.2908   19.6008  -32.8217 H   0  0  0  0  0  0  0  0  0  0  0  0
  1  2  2  0
  2  3  1  0
  3  4  1  0
  4  5  2  0
  5  6  1  0
  6  7  2  0
  7  8  1  0
  7  9  1  0
  9 10  2  0
 10 11  1  0
  3 12  2  0
 12 13  1  0
 13 14  1  0
 14 15  2  0
 15 16  1  0
 16 17  1  0
 16 18  2  0
 18 19  1  0
 19 20  2  0
 20  2  1  0
 10  4  1  0
 20 14  1  0
  5 21  1  0
  6 22  1  0
  9 23  1  0
 12 24  1  0
 15 25  1  0
 18 26  1  0
 19 27  1  0
M  CHG  3   8  -1  11  -1  17  -1
M  END
>  <UniqueID>  (31) 
30

>  <SMILES>  (31) 
O=c1c(-c2ccc([O-])cc2[O-])coc2cc([O-])ccc12

>  <Energy>  (31) 
43.717984680124694

>  <Genealogy>  (31) 
O=c1c(-c2ccc([O-])cc2[O-])coc2cc([O-])ccc12 (protonated)
O=c1c(-c2ccc([O-])cc2[O-])coc2cc([O-])ccc12 (3D coordinates assigned)
O=c1c(-c2ccc([O-])cc2[O-])coc2cc([O-])ccc12 (optimized conformer: 43.717984680124694 kcal/mol)

>  <smiles>  (31) 
O=c1c(-c2ccc(O)cc2O)coc2cc(O)ccc12

>  <score_type>  (31) 
oracle

>  <origin>  (31) 
adgpu

>  <m_score__min__energy>  (31) 
-9.7300000000000004

>  <m_primary>  (31) 
energy

$$$$
31:0
     RDKit          3D

 52 54  0  0  0  0  0  0  0  0999 V2000
   -3.0270   18.5470  -25.6470 C   0  0  0  0  0  0  0  0  0  0  0  0
   -1.8390   18.7900  -26.3760 O   0  0  0  0  0  0  0  0  0  0  0  0
   -1.8370   19.7460  -27.3800 C   0  0  0  0  0  0  0  0  0  0  0  0
   -2.9730   20.4040  -27.8030 C   0  0  0  0  0  0  0  0  0  0  0  0
   -2.9340   21.3520  -28.8080 C   0  0  0  0  0  0  0  0  0  0  0  0
   -1.7100   21.6570  -29.4170 C   0  0  0  0  0  0  0  0  0  0  0  0
   -1.7540   22.6870  -30.4800 C   0  0  0  0  0  0  0  0  0  0  0  0
   -3.0810   22.9340  -31.0450 C   0  0  0  0  0  0  0  0  0  0  0  0
   -3.6170   22.2850  -32.1370 C   0  0  0  0  0  0  0  0  0  0  0  0
   -2.8570   21.3060  -32.8020 N   0  0  0  0  0  0  0  0  0  0  0  0
   -4.8490   22.5650  -32.5920 N   0  0  0  0  0  0  0  0  0  0  0  0
   -5.6500   23.5030  -32.0090 C   0  0  0  0  0  0  0  0  0  0  0  0
   -7.2410   23.7630  -32.7080 S   0  0  0  0  0  0  0  0  0  0  0  0
   -8.5410   22.9390  -31.7770 C   0  0  0  0  0  0  0  0  0  0  0  0
   -8.4670   21.4880  -31.9640 C   0  0  0  0  0  0  0  0  0  0  0  0
   -9.5040   20.6650  -32.3110 C   0  0  0  0  0  0  0  0  0  0  0  0
   -9.3820   19.2990  -32.4910 C   0  0  0  0  0  0  0  0  0  0  0  0
   -8.1600   18.7230  -32.3140 C   0  0  0  0  0  0  0  0  0  0  0  0
   -7.1020   19.5290  -31.9630 C   0  0  0  0  0  0  0  0  0  0  0  0
   -5.7770   18.8890  -31.7740 C   0  0  0  0  0  0  0  0  0  0  0  0
   -7.2260   20.8830  -31.7870 C   0  0  0  0  0  0  0  0  0  0  0  0
   -5.1370   24.1350  -30.9500 N   0  0  0  0  0  0  0  0  0  0  0  0
   -3.9140   23.8950  -30.4560 C   0  0  0  0  0  0  0  0  0  0  0  0
   -3.5000   24.5560  -29.4280 N   0  0  0  0  0  0  0  0  0  0  0  0
   -0.5820   21.0070  -29.0010 C   0  0  0  0  0  0  0  0  0  0  0  0
   -0.6240   20.0630  -27.9990 C   0  0  0  0  0  0  0  0  0  0  0  0
    0.5250   19.3900  -27.5640 O   0  0  0  0  0  0  0  0  0  0  0  0
    0.6540   18.0120  -27.9130 C   0  0  0  0  0  0  0  0  0  0  0  0
   -2.8114   18.5911  -24.5692 H   0  0  0  0  0  0  0  0  0  0  0  0
   -3.7766   19.3104  -25.9025 H   0  0  0  0  0  0  0  0  0  0  0  0
   -3.4166   17.5506  -25.9025 H   0  0  0  0  0  0  0  0  0  0  0  0
   -3.9364   20.1678  -27.3275 H   0  0  0  0  0  0  0  0  0  0  0  0
   -3.8551   21.8620  -29.1265 H   0  0  0  0  0  0  0  0  0  0  0  0
   -1.3821   23.6314  -30.0561 H   0  0  0  0  0  0  0  0  0  0  0  0
   -1.1341   22.3054  -31.3047 H   0  0  0  0  0  0  0  0  0  0  0  0
   -2.5730   20.4570  -32.2700 H   0  0  0  0  0  0  0  0  0  0  0  0
   -2.5590   21.3760  -33.7980 H   0  0  0  0  0  0  0  0  0  0  0  0
   -5.2030   22.0310  -33.4370 H   0  0  0  0  0  0  0  0  0  0  0  0
   -8.4242   23.1724  -30.7084 H   0  0  0  0  0  0  0  0  0  0  0  0
   -9.5170   23.2944  -32.1391 H   0  0  0  0  0  0  0  0  0  0  0  0
  -10.4959   21.1179  -32.4557 H   0  0  0  0  0  0  0  0  0  0  0  0
  -10.2540   18.6899  -32.7714 H   0  0  0  0  0  0  0  0  0  0  0  0
   -8.0228   17.6399  -32.4485 H   0  0  0  0  0  0  0  0  0  0  0  0
   -5.5685   18.7883  -30.6986 H   0  0  0  0  0  0  0  0  0  0  0  0
   -5.7807   17.8933  -32.2416 H   0  0  0  0  0  0  0  0  0  0  0  0
   -4.9994   19.5108  -32.2416 H   0  0  0  0  0  0  0  0  0  0  0  0
   -6.3504   21.4874  -31.5077 H   0  0  0  0  0  0  0  0  0  0  0  0
   -4.1030   25.2670  -28.9820 H   0  0  0  0  0  0  0  0  0  0  0  0
    0.3811   21.2431  -29.4772 H   0  0  0  0  0  0  0  0  0  0  0  0
    0.7108   17.4055  -26.9970 H   0  0  0  0  0  0  0  0  0  0  0  0
   -0.2189   17.7005  -28.5055 H   0  0  0  0  0  0  0  0  0  0  0  0
    1.5696   17.8680  -28.5055 H   0  0  0  0  0  0  0  0  0  0  0  0
  1  2  1  0
  2  3  1  0
  3  4  2  0
  4  5  1  0
  5  6  2  0
  6  7  1  0
  7  8  1  0
  8  9  2  0
  9 10  1  0
  9 11  1  0
 11 12  1  0
 12 13  1  0
 13 14  1  0
 14 15  1  0
 15 16  2  0
 16 17  1  0
 17 18  2  0
 18 19  1  0
 19 20  1  0
 19 21  2  0
 12 22  2  0
 22 23  1  0
 23 24  2  3
  6 25  1  0
 25 26  2  0
 26 27  1  0
 27 28  1  0
 26  3  1  0
 23  8  1  0
 21 15  1  0
  1 29  1  0
  1 30  1  0
  1 31  1  0
  4 32  1  0
  5 33  1  0
  7 34  1  0
  7 35  1  0
 10 36  1  0
 10 37  1  0
 11 38  1  0
 14 39  1  0
 14 40  1  0
 16 41  1  0
 17 42  1  0
 18 43  1  0
 20 44  1  0
 20 45  1  0
 20 46  1  0
 21 47  1  0
 24 48  1  0
 25 49  1  0
 28 50  1  0
 28 51  1  0
 28 52  1  0
M  END
>  <smiles>  (32) 
COc1ccc(Cc2c(N)[nH]c(SCc3cccc(C)c3)nc2=N)cc1OC

>  <score_type>  (32) 
oracle

>  <origin>  (32) 
adgpu

>  <m_score__min__energy>  (32) 
-8.8100000000000005

>  <m_primary>  (32) 
energy

$$$$
32:0
     RDKit          3D

 36 38  0  0  0  0  0  0  0  0999 V2000
   -5.0520   19.6940  -33.8360 C   0  0  0  0  0  0  0  0  0  0  0  0
   -4.9330   21.0620  -33.4620 O   0  0  0  0  0  0  0  0  0  0  0  0
   -4.5990   21.5130  -32.1740 C   0  0  0  0  0  0  0  0  0  0  0  0
   -3.2580   21.6780  -31.7750 C   0  0  0  0  0  0  0  0  0  0  0  0
   -2.9490   22.0960  -30.4790 C   0  0  0  0  0  0  0  0  0  0  0  0
   -3.9700   22.3470  -29.5530 C   0  0  0  0  0  0  0  0  0  0  0  0
   -3.6350   22.8350  -28.1710 C   0  0  0  0  0  0  0  0  0  0  0  0
   -2.5270   23.8380  -28.2330 C   0  0  0  0  0  0  0  0  0  0  0  0
   -1.0820   23.7400  -27.3700 S   0  0  0  0  0  0  0  0  0  0  0  0
   -0.4610   25.1240  -28.0950 C   0  0  0  0  0  0  0  0  0  0  0  0
    0.6710   25.6100  -27.8420 O   0  0  0  0  0  0  0  0  0  0  0  0
   -1.3090   25.6670  -28.9930 N   0  0  0  0  0  0  0  0  0  0  0  0
   -2.4590   24.9460  -29.0750 C   0  0  0  0  0  0  0  0  0  0  0  0
   -3.4870   25.2960  -29.9450 O   0  0  0  0  0  0  0  0  0  0  0  0
   -5.3070   22.2000  -29.9470 C   0  0  0  0  0  0  0  0  0  0  0  0
   -5.6320   21.7910  -31.2530 C   0  0  0  0  0  0  0  0  0  0  0  0
   -7.0580   21.6570  -31.6390 C   0  0  0  0  0  0  0  0  0  0  0  0
   -7.5830   20.3990  -31.9850 C   0  0  0  0  0  0  0  0  0  0  0  0
   -8.9310   20.2700  -32.3390 C   0  0  0  0  0  0  0  0  0  0  0  0
   -9.7640   21.3910  -32.3440 C   0  0  0  0  0  0  0  0  0  0  0  0
   -9.2530   22.6430  -31.9930 C   0  0  0  0  0  0  0  0  0  0  0  0
   -7.9080   22.7770  -31.6390 C   0  0  0  0  0  0  0  0  0  0  0  0
   -5.1063   19.0700  -32.9317 H   0  0  0  0  0  0  0  0  0  0  0  0
   -5.9656   19.5551  -34.4327 H   0  0  0  0  0  0  0  0  0  0  0  0
   -4.1761   19.3995  -34.4327 H   0  0  0  0  0  0  0  0  0  0  0  0
   -2.4474   21.4758  -32.4906 H   0  0  0  0  0  0  0  0  0  0  0  0
   -1.8978   22.2290  -30.1834 H   0  0  0  0  0  0  0  0  0  0  0  0
   -4.5249   23.3034  -27.7252 H   0  0  0  0  0  0  0  0  0  0  0  0
   -3.3130   21.9813  -27.5566 H   0  0  0  0  0  0  0  0  0  0  0  0
   -4.3760   25.6250  -29.5890 H   0  0  0  0  0  0  0  0  0  0  0  0
   -6.1118   22.4070  -29.2263 H   0  0  0  0  0  0  0  0  0  0  0  0
   -6.9315   19.5127  -31.9774 H   0  0  0  0  0  0  0  0  0  0  0  0
   -9.3349   19.2844  -32.6136 H   0  0  0  0  0  0  0  0  0  0  0  0
  -10.8227   21.2881  -32.6244 H   0  0  0  0  0  0  0  0  0  0  0  0
   -9.9106   23.5248  -31.9953 H   0  0  0  0  0  0  0  0  0  0  0  0
   -7.5119   23.7642  -31.3588 H   0  0  0  0  0  0  0  0  0  0  0  0
  1  2  1  0
  2  3  1  0
  3  4  2  0
  4  5  1  0
  5  6  2  0
  6  7  1  0
  7  8  1  0
  8  9  1  0
  9 10  1  0
 10 11  2  0
 10 12  1  0
 12 13  1  0
 13 14  1  0
  6 15  1  0
 15 16  2  0
 16 17  1  0
 17 18  2  0
 18 19  1  0
 19 20  2  0
 20 21  1  0
 21 22  2  0
 16  3  1  0
 22 17  1  0
 13  8  2  0
  1 23  1  0
  1 24  1  0
  1 25  1  0
  4 26  1  0
  5 27  1  0
  7 28  1  0
  7 29  1  0
 14 30  1  0
 15 31  1  0
 18 32  1  0
 19 33  1  0
 20 34  1  0
 21 35  1  0
 22 36  1  0
M  CHG  1  12  -1
M  END
>  <UniqueID>  (33) 
31

>  <SMILES>  (33) 
COc1ccc(Cc2sc(=O)[n-]c2O)cc1-c1ccccc1

>  <Energy>  (33) 
72.39715593816102

>  <Genealogy>  (33) 
COc1ccc(Cc2sc(=O)[n-]c2O)cc1-c1ccccc1 (protonated)
COc1ccc(Cc2sc(=O)[n-]c2O)cc1-c1ccccc1 (3D coordinates assigned)
COc1ccc(Cc2sc(=O)[n-]c2O)cc1-c1ccccc1 (optimized conformer: 72.39715593816102 kcal/mol)

>  <smiles>  (33) 
COc1ccc(Cc2sc(=O)[nH]c2O)cc1-c1ccccc1

>  <score_type>  (33) 
oracle

>  <origin>  (33) 
adgpu

>  <m_score__min__energy>  (33) 
-9.8499999999999996

>  <m_primary>  (33) 
energy

$$$$
33:0
     RDKit          3D

 28 30  0  0  0  0  0  0  0  0999 V2000
   -6.0990   25.3440  -29.7850 C   0  0  0  0  0  0  0  0  0  0  0  0
   -4.8150   25.2910  -30.3260 C   0  0  0  0  0  0  0  0  0  0  0  0
   -4.4900   24.3120  -31.2120 N   0  0  0  0  0  0  0  0  0  0  0  0
   -5.3890   23.3660  -31.5950 C   0  0  0  0  0  0  0  0  0  0  0  0
   -6.6960   23.3790  -31.0780 C   0  0  0  0  0  0  0  0  0  0  0  0
   -7.6810   22.3560  -31.4870 C   0  0  0  0  0  0  0  0  0  0  0  0
   -8.9760   22.6270  -31.7550 N   0  0  0  0  0  0  0  0  0  0  0  0
   -9.5270   21.4720  -32.0770 N   0  0  0  0  0  0  0  0  0  0  0  0
   -8.5740   20.5310  -31.9990 C   0  0  0  0  0  0  0  0  0  0  0  0
   -8.8480   18.7950  -32.3480 S   0  0  0  0  0  0  0  0  0  0  0  0
   -7.3120   18.2310  -31.5410 C   0  0  0  0  0  0  0  0  0  0  0  0
   -6.1670   18.1640  -32.5600 C   0  0  0  0  0  0  0  0  0  0  0  0
   -6.4940   17.4250  -33.8480 C   0  0  0  0  0  0  0  0  0  0  0  0
   -6.3890   18.9430  -33.8460 C   0  0  0  0  0  0  0  0  0  0  0  0
   -7.3850   21.0440  -31.6310 N   0  0  0  0  0  0  0  0  0  0  0  0
   -7.0420   24.3860  -30.1620 C   0  0  0  0  0  0  0  0  0  0  0  0
   -6.3666   26.1337  -29.0675 H   0  0  0  0  0  0  0  0  0  0  0  0
   -4.0647   26.0413  -30.0360 H   0  0  0  0  0  0  0  0  0  0  0  0
   -5.0919   22.5871  -32.3127 H   0  0  0  0  0  0  0  0  0  0  0  0
  -10.5280   21.3380  -32.3390 H   0  0  0  0  0  0  0  0  0  0  0  0
   -7.0436   18.9353  -30.7398 H   0  0  0  0  0  0  0  0  0  0  0  0
   -7.4764   17.2273  -31.1220 H   0  0  0  0  0  0  0  0  0  0  0  0
   -5.3621   18.1130  -31.8120 H   0  0  0  0  0  0  0  0  0  0  0  0
   -5.7219   16.8208  -34.3468 H   0  0  0  0  0  0  0  0  0  0  0  0
   -7.2607   16.6984  -34.1551 H   0  0  0  0  0  0  0  0  0  0  0  0
   -5.5410   19.4363  -34.3436 H   0  0  0  0  0  0  0  0  0  0  0  0
   -7.0485   19.7688  -34.1513 H   0  0  0  0  0  0  0  0  0  0  0  0
   -8.0577   24.4199  -29.7410 H   0  0  0  0  0  0  0  0  0  0  0  0
  1  2  2  0
  2  3  1  0
  3  4  2  0
  4  5  1  0
  5  6  1  0
  6  7  2  0
  7  8  1  0
  8  9  1  0
  9 10  1  0
 10 11  1  0
 11 12  1  0
 12 13  1  0
 13 14  1  0
  9 15  2  0
  5 16  2  0
 16  1  1  0
 15  6  1  0
 14 12  1  0
  1 17  1  0
  2 18  1  0
  4 19  1  0
  8 20  1  0
 11 21  1  0
 11 22  1  0
 12 23  1  0
 13 24  1  0
 13 25  1  0
 14 26  1  0
 14 27  1  0
 16 28  1  0
M  END
>  <UniqueID>  (34) 
32

>  <SMILES>  (34) 
c1cncc(-c2n[nH]c(SCC3CC3)n2)c1

>  <Energy>  (34) 
322.1540557593848

>  <Genealogy>  (34) 
c1cncc(-c2n[nH]c(SCC3CC3)n2)c1 (3D coordinates assigned)
c1cncc(-c2n[nH]c(SCC3CC3)n2)c1 (nonaromatic ring conformer: 322.1540557593848 kcal/mol)

>  <smiles>  (34) 
c1cncc(-c2n[nH]c(SCC3CC3)n2)c1

>  <score_type>  (34) 
oracle

>  <origin>  (34) 
adgpu

>  <m_score__min__energy>  (34) 
-6.8600000000000003

>  <m_primary>  (34) 
energy

$$$$
34:0
     RDKit          3D

 51 54  0  0  0  0  0  0  0  0999 V2000
   -3.4110   19.7610  -34.2360 O   0  0  0  0  0  0  0  0  0  0  0  0
   -2.7720   18.8980  -33.5740 C   0  0  0  0  0  0  0  0  0  0  0  0
   -2.3230   19.1900  -32.2410 N   0  0  0  0  0  0  0  0  0  0  0  0
   -2.5460   20.4500  -31.5930 C   0  0  0  0  0  0  0  0  0  0  0  0
   -3.7200   21.1670  -31.8630 C   0  0  0  0  0  0  0  0  0  0  0  0
   -3.9470   22.4070  -31.2610 C   0  0  0  0  0  0  0  0  0  0  0  0
   -3.0120   22.9330  -30.3610 C   0  0  0  0  0  0  0  0  0  0  0  0
   -3.2350   24.5330  -29.6610 S   0  0  0  0  0  0  0  0  0  0  0  0
   -4.0330   24.4430  -28.3890 O   0  0  0  0  0  0  0  0  0  0  0  0
   -1.8880   25.1170  -29.3430 O   0  0  0  0  0  0  0  0  0  0  0  0
   -4.0580   25.5740  -30.7880 N   0  0  0  0  0  0  0  0  0  0  0  0
   -5.4770   25.7020  -30.4500 C   0  0  0  0  0  0  0  0  0  0  0  0
   -6.2360   24.5070  -30.9330 C   0  0  0  0  0  0  0  0  0  0  0  0
   -6.9370   23.6170  -30.1420 C   0  0  0  0  0  0  0  0  0  0  0  0
   -7.4690   22.6890  -31.0100 C   0  0  0  0  0  0  0  0  0  0  0  0
   -7.0670   23.0740  -32.2740 C   0  0  0  0  0  0  0  0  0  0  0  0
   -6.3360   24.1620  -32.1950 O   0  0  0  0  0  0  0  0  0  0  0  0
   -1.8600   22.1990  -30.0520 C   0  0  0  0  0  0  0  0  0  0  0  0
   -1.6280   20.9640  -30.6620 C   0  0  0  0  0  0  0  0  0  0  0  0
   -2.5270   17.5650  -34.1590 C   0  0  0  0  0  0  0  0  0  0  0  0
   -1.3710   16.8600  -33.7850 C   0  0  0  0  0  0  0  0  0  0  0  0
   -1.1050   15.5980  -34.3220 C   0  0  0  0  0  0  0  0  0  0  0  0
   -1.9920   15.0250  -35.2330 C   0  0  0  0  0  0  0  0  0  0  0  0
   -3.1510   15.7060  -35.6040 C   0  0  0  0  0  0  0  0  0  0  0  0
   -3.4330   16.9710  -35.0680 C   0  0  0  0  0  0  0  0  0  0  0  0
   -4.9940   17.7550  -35.5110 S   0  0  0  0  0  0  0  0  0  0  0  0
   -5.5810   17.7740  -33.8150 C   0  0  0  0  0  0  0  0  0  0  0  0
   -6.2860   18.8820  -33.3270 C   0  0  0  0  0  0  0  0  0  0  0  0
   -6.7640   18.8840  -32.0130 C   0  0  0  0  0  0  0  0  0  0  0  0
   -6.5300   17.7860  -31.1800 C   0  0  0  0  0  0  0  0  0  0  0  0
   -5.8150   16.6840  -31.6600 C   0  0  0  0  0  0  0  0  0  0  0  0
   -5.3400   16.6780  -32.9750 C   0  0  0  0  0  0  0  0  0  0  0  0
   -1.9910   18.3910  -31.6540 H   0  0  0  0  0  0  0  0  0  0  0  0
   -4.4678   20.7502  -32.5538 H   0  0  0  0  0  0  0  0  0  0  0  0
   -4.8619   22.9713  -31.4944 H   0  0  0  0  0  0  0  0  0  0  0  0
   -5.5840   25.7828  -29.3582 H   0  0  0  0  0  0  0  0  0  0  0  0
   -5.8806   26.6025  -30.9361 H   0  0  0  0  0  0  0  0  0  0  0  0
   -7.0472   23.6439  -29.0479 H   0  0  0  0  0  0  0  0  0  0  0  0
   -8.0883   21.8181  -30.7493 H   0  0  0  0  0  0  0  0  0  0  0  0
   -7.3209   22.5484  -33.2064 H   0  0  0  0  0  0  0  0  0  0  0  0
   -1.1352   22.5965  -29.3263 H   0  0  0  0  0  0  0  0  0  0  0  0
   -0.7226   20.3914  -30.4123 H   0  0  0  0  0  0  0  0  0  0  0  0
   -0.6698   17.3050  -33.0637 H   0  0  0  0  0  0  0  0  0  0  0  0
   -0.1949   15.0557  -34.0259 H   0  0  0  0  0  0  0  0  0  0  0  0
   -1.7770   14.0342  -35.6596 H   0  0  0  0  0  0  0  0  0  0  0  0
   -3.8482   15.2483  -36.3213 H   0  0  0  0  0  0  0  0  0  0  0  0
   -6.4636   19.7508  -33.9779 H   0  0  0  0  0  0  0  0  0  0  0  0
   -7.3251   19.7510  -31.6341 H   0  0  0  0  0  0  0  0  0  0  0  0
   -6.9082   17.7888  -30.1471 H   0  0  0  0  0  0  0  0  0  0  0  0
   -5.6264   15.8221  -31.0031 H   0  0  0  0  0  0  0  0  0  0  0  0
   -4.7761   15.8116  -33.3511 H   0  0  0  0  0  0  0  0  0  0  0  0
  1  2  2  0
  2  3  1  0
  3  4  1  0
  4  5  2  0
  5  6  1  0
  6  7  2  0
  7  8  1  0
  8  9  2  0
  8 10  2  0
  8 11  1  0
 11 12  1  0
 12 13  1  0
 13 14  2  0
 14 15  1  0
 15 16  2  0
 16 17  1  0
  7 18  1  0
 18 19  2  0
  2 20  1  0
 20 21  2  0
 21 22  1  0
 22 23  2  0
 23 24  1  0
 24 25  2  0
 25 26  1  0
 26 27  1  0
 27 28  2  0
 28 29  1  0
 29 30  2  0
 30 31  1  0
 31 32  2  0
 19  4  1  0
 25 20  1  0
 32 27  1  0
 17 13  1  0
  3 33  1  0
  5 34  1  0
  6 35  1  0
 12 36  1  0
 12 37  1  0
 14 38  1  0
 15 39  1  0
 16 40  1  0
 18 41  1  0
 19 42  1  0
 21 43  1  0
 22 44  1  0
 23 45  1  0
 24 46  1  0
 28 47  1  0
 29 48  1  0
 30 49  1  0
 31 50  1  0
 32 51  1  0
M  CHG  1  11  -1
M  END
>  <UniqueID>  (35) 
33

>  <SMILES>  (35) 
O=C(Nc1ccc(S(=O)(=O)[N-]Cc2ccco2)cc1)c1ccccc1Sc1ccccc1

>  <Energy>  (35) 
79.08910801846415

>  <Genealogy>  (35) 
O=C(Nc1ccc(S(=O)(=O)[N-]Cc2ccco2)cc1)c1ccccc1Sc1ccccc1 (protonated)
O=C(Nc1ccc(S(=O)(=O)[N-]Cc2ccco2)cc1)c1ccccc1Sc1ccccc1 (3D coordinates assigned)
O=C(Nc1ccc(S(=O)(=O)[N-]Cc2ccco2)cc1)c1ccccc1Sc1ccccc1 (optimized conformer: 79.08910801846415 kcal/mol)

>  <smiles>  (35) 
O=C(Nc1ccc(S(=O)(=O)NCc2ccco2)cc1)c1ccccc1Sc1ccccc1

>  <score_type>  (35) 
oracle

>  <origin>  (35) 
adgpu

>  <m_score__min__energy>  (35) 
-10.43

>  <m_primary>  (35) 
energy

$$$$
35:0
     RDKit          3D

 38 40  0  0  0  0  0  0  0  0999 V2000
   -3.8630   25.2950  -30.5370 O   0  0  0  0  0  0  0  0  0  0  0  0
   -3.5190   24.1000  -30.3200 C   0  0  0  0  0  0  0  0  0  0  0  0
   -2.3350   23.8130  -29.4760 C   0  0  0  0  0  0  0  0  0  0  0  0
   -1.5870   24.8620  -28.9110 C   0  0  0  0  0  0  0  0  0  0  0  0
   -0.4720   24.5870  -28.1150 C   0  0  0  0  0  0  0  0  0  0  0  0
   -0.0920   23.2660  -27.8760 C   0  0  0  0  0  0  0  0  0  0  0  0
   -0.8250   22.2150  -28.4310 C   0  0  0  0  0  0  0  0  0  0  0  0
   -1.9500   22.4770  -29.2340 C   0  0  0  0  0  0  0  0  0  0  0  0
   -2.7310   21.3640  -29.8250 C   0  0  0  0  0  0  0  0  0  0  0  0
   -2.3860   20.1690  -29.6080 O   0  0  0  0  0  0  0  0  0  0  0  0
   -3.9140   21.6520  -30.6700 C   0  0  0  0  0  0  0  0  0  0  0  0
   -4.6620   20.6020  -31.2350 C   0  0  0  0  0  0  0  0  0  0  0  0
   -5.7810   20.8690  -32.0390 C   0  0  0  0  0  0  0  0  0  0  0  0
   -6.5430   19.7910  -32.6200 N   0  0  0  0  0  0  0  0  0  0  0  0
   -6.0300   18.4140  -32.5510 C   0  0  0  0  0  0  0  0  0  0  0  0
   -6.3870   17.6490  -33.8230 C   0  0  0  0  0  0  0  0  0  0  0  0
   -5.0120   17.6650  -34.9550 Cl  0  0  0  0  0  0  0  0  0  0  0  0
   -7.9240   20.0450  -33.0650 C   0  0  0  0  0  0  0  0  0  0  0  0
   -8.9310   19.9930  -31.9090 C   0  0  0  0  0  0  0  0  0  0  0  0
   -9.4250   21.6240  -31.3880 Cl  0  0  0  0  0  0  0  0  0  0  0  0
   -6.1620   22.1990  -32.2610 C   0  0  0  0  0  0  0  0  0  0  0  0
   -5.4280   23.2490  -31.7050 C   0  0  0  0  0  0  0  0  0  0  0  0
   -4.3000   22.9870  -30.9100 C   0  0  0  0  0  0  0  0  0  0  0  0
   -1.8818   25.9053  -29.0970 H   0  0  0  0  0  0  0  0  0  0  0  0
    0.1069   25.4131  -27.6762 H   0  0  0  0  0  0  0  0  0  0  0  0
    0.7864   23.0521  -27.2494 H   0  0  0  0  0  0  0  0  0  0  0  0
   -0.5208   21.1755  -28.2391 H   0  0  0  0  0  0  0  0  0  0  0  0
   -4.3661   19.5599  -31.0442 H   0  0  0  0  0  0  0  0  0  0  0  0
   -4.9361   18.4399  -32.4385 H   0  0  0  0  0  0  0  0  0  0  0  0
   -6.4865   17.9058  -31.6888 H   0  0  0  0  0  0  0  0  0  0  0  0
   -6.6331   16.6085  -33.5645 H   0  0  0  0  0  0  0  0  0  0  0  0
   -7.2522   18.1311  -34.3015 H   0  0  0  0  0  0  0  0  0  0  0  0
   -7.9682   21.0422  -33.5271 H   0  0  0  0  0  0  0  0  0  0  0  0
   -8.1955   19.2557  -33.7814 H   0  0  0  0  0  0  0  0  0  0  0  0
   -9.8225   19.4390  -32.2380 H   0  0  0  0  0  0  0  0  0  0  0  0
   -8.4475   19.4935  -31.0565 H   0  0  0  0  0  0  0  0  0  0  0  0
   -7.0460   22.4178  -32.8780 H   0  0  0  0  0  0  0  0  0  0  0  0
   -5.7354   24.2887  -31.8910 H   0  0  0  0  0  0  0  0  0  0  0  0
  1  2  2  0
  2  3  1  0
  3  4  2  0
  4  5  1  0
  5  6  2  0
  6  7  1  0
  7  8  2  0
  8  9  1  0
  9 10  2  0
  9 11  1  0
 11 12  2  0
 12 13  1  0
 13 14  1  0
 14 15  1  0
 15 16  1  0
 16 17  1  0
 14 18  1  0
 18 19  1  0
 19 20  1  0
 13 21  2  0
 21 22  1  0
 22 23  2  0
 23  2  1  0
  8  3  1  0
 23 11  1  0
  4 24  1  0
  5 25  1  0
  6 26  1  0
  7 27  1  0
 12 28  1  0
 15 29  1  0
 15 30  1  0
 16 31  1  0
 16 32  1  0
 18 33  1  0
 18 34  1  0
 19 35  1  0
 19 36  1  0
 21 37  1  0
 22 38  1  0
M  END
>  <UniqueID>  (36) 
34

>  <SMILES>  (36) 
O=C1c2ccccc2C(=O)c2cc(N(CCCl)CCCl)ccc21

>  <Energy>  (36) 
43.90207651058287

>  <Genealogy>  (36) 
O=C1c2ccccc2C(=O)c2cc(N(CCCl)CCCl)ccc21 (3D coordinates assigned)
O=C1c2ccccc2C(=O)c2cc(N(CCCl)CCCl)ccc21 (nonaromatic ring conformer: 43.90207651058287 kcal/mol)

>  <smiles>  (36) 
O=C1c2ccccc2C(=O)c2cc(N(CCCl)CCCl)ccc21

>  <score_type>  (36) 
oracle

>  <origin>  (36) 
adgpu

>  <m_score__min__energy>  (36) 
-8.0399999999999991

>  <m_primary>  (36) 
energy

$$$$
36:0
     RDKit          3D

 46 47  0  0  0  0  0  0  0  0999 V2000
   -3.8540   24.1660  -27.3980 C   0  0  0  0  0  0  0  0  0  0  0  0
   -2.7000   23.6240  -27.7960 C   0  0  0  0  0  0  0  0  0  0  0  0
   -2.0690   23.9870  -29.1120 C   0  0  0  0  0  0  0  0  0  0  0  0
   -2.7320   23.2700  -30.2210 N   0  0  0  0  0  0  0  0  0  0  0  0
   -2.2140   22.0820  -30.6600 C   0  0  0  0  0  0  0  0  0  0  0  0
   -1.1710   21.6000  -30.1370 O   0  0  0  0  0  0  0  0  0  0  0  0
   -2.8300   21.3840  -31.6860 C   0  0  0  0  0  0  0  0  0  0  0  0
   -3.9940   21.8950  -32.2610 C   0  0  0  0  0  0  0  0  0  0  0  0
   -4.6360   21.1570  -33.3170 N   0  0  0  0  0  0  0  0  0  0  0  0
   -4.8020   19.7050  -33.2770 C   0  0  0  0  0  0  0  0  0  0  0  0
   -6.1210   19.2730  -33.9350 C   0  0  0  0  0  0  0  0  0  0  0  0
   -7.0620   18.4830  -33.0100 C   0  0  0  0  0  0  0  0  0  0  0  0
   -6.3940   18.0530  -31.7040 C   0  0  0  0  0  0  0  0  0  0  0  0
   -4.5160   23.0850  -31.8070 N   0  0  0  0  0  0  0  0  0  0  0  0
   -5.7190   23.6610  -32.4480 C   0  0  0  0  0  0  0  0  0  0  0  0
   -6.9610   22.9120  -32.0300 C   0  0  0  0  0  0  0  0  0  0  0  0
   -8.2370   23.4060  -32.3540 C   0  0  0  0  0  0  0  0  0  0  0  0
   -9.3830   22.7160  -31.9480 C   0  0  0  0  0  0  0  0  0  0  0  0
   -9.2650   21.5270  -31.2240 C   0  0  0  0  0  0  0  0  0  0  0  0
   -8.0010   21.0220  -30.9090 C   0  0  0  0  0  0  0  0  0  0  0  0
   -6.8510   21.7090  -31.3130 C   0  0  0  0  0  0  0  0  0  0  0  0
   -3.8790   23.7680  -30.7920 C   0  0  0  0  0  0  0  0  0  0  0  0
   -4.3510   24.8660  -30.3830 O   0  0  0  0  0  0  0  0  0  0  0  0
   -4.2908   23.8803  -26.4297 H   0  0  0  0  0  0  0  0  0  0  0  0
   -4.3676   24.8981  -28.0385 H   0  0  0  0  0  0  0  0  0  0  0  0
   -2.1982   22.8934  -27.1445 H   0  0  0  0  0  0  0  0  0  0  0  0
   -2.1660   25.0708  -29.2729 H   0  0  0  0  0  0  0  0  0  0  0  0
   -1.0074   23.6998  -29.0879 H   0  0  0  0  0  0  0  0  0  0  0  0
   -2.4049   20.4348  -32.0443 H   0  0  0  0  0  0  0  0  0  0  0  0
   -4.9320   21.6540  -34.1850 H   0  0  0  0  0  0  0  0  0  0  0  0
   -3.9642   19.2342  -33.8121 H   0  0  0  0  0  0  0  0  0  0  0  0
   -4.8205   19.3877  -32.2239 H   0  0  0  0  0  0  0  0  0  0  0  0
   -6.6493   20.1767  -34.2730 H   0  0  0  0  0  0  0  0  0  0  0  0
   -5.8538   18.5987  -34.7620 H   0  0  0  0  0  0  0  0  0  0  0  0
   -7.9287   19.1159  -32.7685 H   0  0  0  0  0  0  0  0  0  0  0  0
   -7.3575   17.5684  -33.5449 H   0  0  0  0  0  0  0  0  0  0  0  0
   -6.9788   18.4294  -30.8518 H   0  0  0  0  0  0  0  0  0  0  0  0
   -6.3474   16.9549  -31.6602 H   0  0  0  0  0  0  0  0  0  0  0  0
   -5.3751   18.4653  -31.6602 H   0  0  0  0  0  0  0  0  0  0  0  0
   -5.8164   24.7153  -32.1498 H   0  0  0  0  0  0  0  0  0  0  0  0
   -5.6094   23.5798  -33.5395 H   0  0  0  0  0  0  0  0  0  0  0  0
   -8.3338   24.3387  -32.9290 H   0  0  0  0  0  0  0  0  0  0  0  0
  -10.3790   23.1098  -32.1989 H   0  0  0  0  0  0  0  0  0  0  0  0
  -10.1681   20.9880  -30.9017 H   0  0  0  0  0  0  0  0  0  0  0  0
   -7.9098   20.0833  -30.3428 H   0  0  0  0  0  0  0  0  0  0  0  0
   -5.8573   21.3057  -31.0683 H   0  0  0  0  0  0  0  0  0  0  0  0
  1  2  2  0
  2  3  1  0
  3  4  1  0
  4  5  1  0
  5  6  2  0
  5  7  1  0
  7  8  2  0
  8  9  1  0
  9 10  1  0
 10 11  1  0
 11 12  1  0
 12 13  1  0
  8 14  1  0
 14 15  1  0
 15 16  1  0
 16 17  2  0
 17 18  1  0
 18 19  2  0
 19 20  1  0
 20 21  2  0
 14 22  1  0
 22 23  2  0
 22  4  1  0
 21 16  1  0
  1 24  1  0
  1 25  1  0
  2 26  1  0
  3 27  1  0
  3 28  1  0
  7 29  1  0
  9 30  1  0
 10 31  1  0
 10 32  1  0
 11 33  1  0
 11 34  1  0
 12 35  1  0
 12 36  1  0
 13 37  1  0
 13 38  1  0
 13 39  1  0
 15 40  1  0
 15 41  1  0
 17 42  1  0
 18 43  1  0
 19 44  1  0
 20 45  1  0
 21 46  1  0
M  END
>  <UniqueID>  (37) 
35

>  <SMILES>  (37) 
C=CCn1c(=O)cc(NCCCC)n(Cc2ccccc2)c1=O

>  <Energy>  (37) 
47.63290764269125

>  <Genealogy>  (37) 
C=CCn1c(=O)cc(NCCCC)n(Cc2ccccc2)c1=O (3D coordinates assigned)
C=CCn1c(=O)cc(NCCCC)n(Cc2ccccc2)c1=O (optimized conformer: 47.63290764269125 kcal/mol)

>  <smiles>  (37) 
C=CCn1c(=O)cc(NCCCC)n(Cc2ccccc2)c1=O

>  <score_type>  (37) 
oracle

>  <origin>  (37) 
adgpu

>  <m_score__min__energy>  (37) 
-7.2699999999999996

>  <m_primary>  (37) 
energy

$$$$
37:0
     RDKit          3D

 40 42  0  0  0  0  0  0  0  0999 V2000
   -5.4760   26.5810  -30.4190 O   0  0  0  0  0  0  0  0  0  0  0  0
   -5.0300   25.4100  -30.5410 C   0  0  0  0  0  0  0  0  0  0  0  0
   -3.6130   25.2040  -30.4670 N   0  0  0  0  0  0  0  0  0  0  0  0
   -2.9480   24.1210  -29.8000 C   0  0  0  0  0  0  0  0  0  0  0  0
   -3.4670   22.8190  -29.8130 C   0  0  0  0  0  0  0  0  0  0  0  0
   -2.8050   21.7920  -29.1420 C   0  0  0  0  0  0  0  0  0  0  0  0
   -1.6190   22.0460  -28.4380 C   0  0  0  0  0  0  0  0  0  0  0  0
   -1.0130   20.9760  -27.6950 N   0  0  0  0  0  0  0  0  0  0  0  0
   -1.6630   20.4450  -26.4970 C   0  0  0  0  0  0  0  0  0  0  0  0
   -1.9500   18.9560  -26.7090 C   0  0  0  0  0  0  0  0  0  0  0  0
   -0.7700   18.2660  -27.0840 O   0  0  0  0  0  0  0  0  0  0  0  0
   -0.3090   18.7320  -28.3400 C   0  0  0  0  0  0  0  0  0  0  0  0
    0.0970   20.2080  -28.2580 C   0  0  0  0  0  0  0  0  0  0  0  0
   -1.0880   23.3590  -28.4110 C   0  0  0  0  0  0  0  0  0  0  0  0
    0.1890   23.6750  -27.7260 C   0  0  0  0  0  0  0  0  0  0  0  0
    0.9850   24.5160  -28.2220 O   0  0  0  0  0  0  0  0  0  0  0  0
    0.5500   23.0250  -26.5520 O   0  0  0  0  0  0  0  0  0  0  0  0
   -1.7770   24.3870  -29.0830 C   0  0  0  0  0  0  0  0  0  0  0  0
   -5.9740   24.2980  -30.8080 C   0  0  0  0  0  0  0  0  0  0  0  0
   -6.1120   23.7880  -32.1110 C   0  0  0  0  0  0  0  0  0  0  0  0
   -6.9990   22.7370  -32.3690 C   0  0  0  0  0  0  0  0  0  0  0  0
   -7.7470   22.1800  -31.3280 C   0  0  0  0  0  0  0  0  0  0  0  0
   -7.6050   22.6680  -30.0270 C   0  0  0  0  0  0  0  0  0  0  0  0
   -6.7190   23.7170  -29.7640 C   0  0  0  0  0  0  0  0  0  0  0  0
   -4.4005   22.6068  -30.3549 H   0  0  0  0  0  0  0  0  0  0  0  0
   -3.2169   20.7723  -29.1649 H   0  0  0  0  0  0  0  0  0  0  0  0
   -0.9997   20.5735  -25.6290 H   0  0  0  0  0  0  0  0  0  0  0  0
   -2.6040   20.9840  -26.3128 H   0  0  0  0  0  0  0  0  0  0  0  0
   -2.3375   18.5263  -25.7735 H   0  0  0  0  0  0  0  0  0  0  0  0
   -2.6921   18.8503  -27.5141 H   0  0  0  0  0  0  0  0  0  0  0  0
    0.5620   18.1351  -28.6485 H   0  0  0  0  0  0  0  0  0  0  0  0
   -1.1223   18.6305  -29.0736 H   0  0  0  0  0  0  0  0  0  0  0  0
    0.9820   20.3119  -27.6131 H   0  0  0  0  0  0  0  0  0  0  0  0
    0.3372   20.5840  -29.2634 H   0  0  0  0  0  0  0  0  0  0  0  0
   -1.3882   25.4152  -29.0434 H   0  0  0  0  0  0  0  0  0  0  0  0
   -5.5194   24.2176  -32.9321 H   0  0  0  0  0  0  0  0  0  0  0  0
   -7.1077   22.3487  -33.3924 H   0  0  0  0  0  0  0  0  0  0  0  0
   -8.4476   21.3572  -31.5333 H   0  0  0  0  0  0  0  0  0  0  0  0
   -8.1913   22.2262  -29.2079 H   0  0  0  0  0  0  0  0  0  0  0  0
   -6.6033   24.0905  -28.7358 H   0  0  0  0  0  0  0  0  0  0  0  0
  1  2  2  0
  2  3  1  0
  3  4  1  0
  4  5  2  0
  5  6  1  0
  6  7  2  0
  7  8  1  0
  8  9  1  0
  9 10  1  0
 10 11  1  0
 11 12  1  0
 12 13  1  0
  7 14  1  0
 14 15  1  0
 15 16  2  0
 15 17  1  0
 14 18  2  0
  2 19  1  0
 19 20  2  0
 20 21  1  0
 21 22  2  0
 22 23  1  0
 23 24  2  0
 18  4  1  0
 24 19  1  0
 13  8  1  0
  5 25  1  0
  6 26  1  0
  9 27  1  0
  9 28  1  0
 10 29  1  0
 10 30  1  0
 12 31  1  0
 12 32  1  0
 13 33  1  0
 13 34  1  0
 18 35  1  0
 20 36  1  0
 21 37  1  0
 22 38  1  0
 23 39  1  0
 24 40  1  0
M  CHG  2   3  -1  17  -1
M  END
>  <UniqueID>  (38) 
36

>  <SMILES>  (38) 
O=C([N-]c1ccc(N2CCOCC2)c(C(=O)[O-])c1)c1ccccc1

>  <Energy>  (38) 
59.07677088303621

>  <Genealogy>  (38) 
O=C([N-]c1ccc(N2CCOCC2)c(C(=O)[O-])c1)c1ccccc1 (protonated)
O=C([N-]c1ccc(N2CCOCC2)c(C(=O)[O-])c1)c1ccccc1 (3D coordinates assigned)
O=C([N-]c1ccc(N2CCOCC2)c(C(=O)[O-])c1)c1ccccc1 (nonaromatic ring conformer: 59.07677088303621 kcal/mol)

>  <smiles>  (38) 
O=C(Nc1ccc(N2CCOCC2)c(C(=O)O)c1)c1ccccc1

>  <score_type>  (38) 
oracle

>  <origin>  (38) 
adgpu

>  <m_score__min__energy>  (38) 
-10.199999999999999

>  <m_primary>  (38) 
energy

$$$$
38:0
     RDKit          3D

 54 56  0  0  0  0  0  0  0  0999 V2000
   -9.3425   22.9482  -31.8176 H   0  0  0  0  0  0  0  0  0  0  0  0
   -8.2530   22.8270  -31.7260 C   0  0  0  0  0  0  0  0  0  0  0  0
   -7.6220   21.7250  -32.3100 C   0  0  0  0  0  0  0  0  0  0  0  0
   -8.2181   20.9839  -32.8627 H   0  0  0  0  0  0  0  0  0  0  0  0
   -6.2310   21.5570  -32.1960 C   0  0  0  0  0  0  0  0  0  0  0  0
   -5.5580   20.3820  -32.8060 C   0  0  0  0  0  0  0  0  0  0  0  0
   -6.3040   19.2550  -33.1800 C   0  0  0  0  0  0  0  0  0  0  0  0
   -7.3918   19.2353  -33.0180 H   0  0  0  0  0  0  0  0  0  0  0  0
   -5.6620   18.1570  -33.7590 C   0  0  0  0  0  0  0  0  0  0  0  0
   -6.4590   16.9710  -34.2190 C   0  0  0  0  0  0  0  0  0  0  0  0
   -6.8309   16.4175  -33.3442 H   0  0  0  0  0  0  0  0  0  0  0  0
   -7.3105   17.3141  -34.8250 H   0  0  0  0  0  0  0  0  0  0  0  0
   -5.8196   16.3122  -34.8250 H   0  0  0  0  0  0  0  0  0  0  0  0
   -4.2820   18.2060  -33.9780 C   0  0  0  0  0  0  0  0  0  0  0  0
   -3.7713   17.3623  -34.4652 H   0  0  0  0  0  0  0  0  0  0  0  0
   -3.5470   19.3370  -33.5740 C   0  0  0  0  0  0  0  0  0  0  0  0
   -2.2550   19.4290  -33.7470 N   0  0  0  0  0  0  0  0  0  0  0  0
   -1.3590   18.4100  -34.2180 C   0  0  0  0  0  0  0  0  0  0  0  0
   -0.4360   18.7250  -35.2130 C   0  0  0  0  0  0  0  0  0  0  0  0
   -0.4299   19.7341  -35.6507 H   0  0  0  0  0  0  0  0  0  0  0  0
    0.4880   17.7650  -35.6630 C   0  0  0  0  0  0  0  0  0  0  0  0
    1.4160   18.0500  -36.6790 O   0  0  0  0  0  0  0  0  0  0  0  0
    1.3430   17.5410  -38.0080 C   0  0  0  0  0  0  0  0  0  0  0  0
    1.1869   16.4526  -37.9757 H   0  0  0  0  0  0  0  0  0  0  0  0
    0.5038   18.0162  -38.5371 H   0  0  0  0  0  0  0  0  0  0  0  0
    2.2819   17.7612  -38.5371 H   0  0  0  0  0  0  0  0  0  0  0  0
    0.5000   16.4790  -35.0960 C   0  0  0  0  0  0  0  0  0  0  0  0
    1.4440   15.5700  -35.6100 O   0  0  0  0  0  0  0  0  0  0  0  0
    2.3480   14.7690  -34.8570 C   0  0  0  0  0  0  0  0  0  0  0  0
    2.1702   14.9265  -33.7829 H   0  0  0  0  0  0  0  0  0  0  0  0
    2.1906   13.7085  -35.1030 H   0  0  0  0  0  0  0  0  0  0  0  0
    3.3818   15.0529  -35.1030 H   0  0  0  0  0  0  0  0  0  0  0  0
   -0.4120   16.1640  -34.0530 C   0  0  0  0  0  0  0  0  0  0  0  0
   -0.3960   14.8880  -33.4680 O   0  0  0  0  0  0  0  0  0  0  0  0
   -1.3110   14.4320  -32.4760 C   0  0  0  0  0  0  0  0  0  0  0  0
   -0.9001   14.6368  -31.4764 H   0  0  0  0  0  0  0  0  0  0  0  0
   -2.2703   14.9574  -32.5928 H   0  0  0  0  0  0  0  0  0  0  0  0
   -1.4691   13.3497  -32.5928 H   0  0  0  0  0  0  0  0  0  0  0  0
   -1.3220   17.1450  -33.6180 C   0  0  0  0  0  0  0  0  0  0  0  0
   -2.0144   16.9151  -32.7948 H   0  0  0  0  0  0  0  0  0  0  0  0
   -4.2070   20.3940  -33.0150 N   0  0  0  0  0  0  0  0  0  0  0  0
   -3.6500   21.2260  -32.7150 H   0  0  0  0  0  0  0  0  0  0  0  0
   -5.4840   22.5170  -31.4900 C   0  0  0  0  0  0  0  0  0  0  0  0
   -4.3953   22.3953  -31.3903 H   0  0  0  0  0  0  0  0  0  0  0  0
   -6.1150   23.6280  -30.9120 C   0  0  0  0  0  0  0  0  0  0  0  0
   -5.1770   24.8200  -30.0190 S   0  0  0  0  0  0  0  0  0  0  0  0
   -6.0400   26.0080  -29.7030 O   0  0  0  0  0  0  0  0  0  0  0  0
   -4.0090   25.2800  -30.8460 O   0  0  0  0  0  0  0  0  0  0  0  0
   -4.5830   24.0940  -28.5090 C   0  0  0  0  0  0  0  0  0  0  0  0
   -5.0183   24.6261  -27.6503 H   0  0  0  0  0  0  0  0  0  0  0  0
   -4.8767   23.0346  -28.4712 H   0  0  0  0  0  0  0  0  0  0  0  0
   -3.4864   24.1721  -28.4712 H   0  0  0  0  0  0  0  0  0  0  0  0
   -7.5020   23.7750  -31.0260 C   0  0  0  0  0  0  0  0  0  0  0  0
   -8.0022   24.6387  -30.5636 H   0  0  0  0  0  0  0  0  0  0  0  0
  1  2  1  0
  2  3  2  0
  3  4  1  0
  3  5  1  0
  5  6  1  0
  6  7  2  0
  7  8  1  0
  7  9  1  0
  9 10  1  0
 10 11  1  0
 10 12  1  0
 10 13  1  0
  9 14  2  0
 14 15  1  0
 14 16  1  0
 16 17  2  0
 17 18  1  0
 18 19  2  0
 19 20  1  0
 19 21  1  0
 21 22  1  0
 22 23  1  0
 23 24  1  0
 23 25  1  0
 23 26  1  0
 21 27  2  0
 27 28  1  0
 28 29  1  0
 29 30  1  0
 29 31  1  0
 29 32  1  0
 27 33  1  0
 33 34  1  0
 34 35  1  0
 35 36  1  0
 35 37  1  0
 35 38  1  0
 33 39  2  0
 39 40  1  0
 16 41  1  0
 41 42  1  0
  5 43  2  0
 43 44  1  0
 43 45  1  0
 45 46  1  0
 46 47  2  0
 46 48  2  0
 46 49  1  0
 49 50  1  0
 49 51  1  0
 49 52  1  0
 45 53  2  0
 53 54  1  0
 53  2  1  0
 41  6  1  0
 39 18  1  0
M  END
>  <UniqueID>  (39) 
37

>  <SMILES>  (39) 
COc1cc(/N=c2\cc(C)cc(-c3cccc(S(C)(=O)=O)c3)[nH]2)cc(OC)c1OC

>  <Energy>  (39) 
68.65101883874964

>  <Genealogy>  (39) 
COc1cc(/N=c2\cc(C)cc(-c3cccc(S(C)(=O)=O)c3)[nH]2)cc(OC)c1OC (cis-trans isomerization)
COc1cc(/N=c2\cc(C)cc(-c3cccc(S(C)(=O)=O)c3)[nH]2)cc(OC)c1OC (3D coordinates assigned)
COc1cc(/N=c2\cc(C)cc(-c3cccc(S(C)(=O)=O)c3)[nH]2)cc(OC)c1OC (optimized conformer: 68.65101883874964 kcal/mol)

>  <smiles>  (39) 
COc1cc(N=c2cc(C)cc(-c3cccc(S(C)(=O)=O)c3)[nH]2)cc(OC)c1OC

>  <score_type>  (39) 
oracle

>  <origin>  (39) 
adgpu

>  <m_score__min__energy>  (39) 
-8.6400000000000006

>  <m_primary>  (39) 
energy

$$$$
39:0
     RDKit          3D

 60 63  0  0  0  0  0  0  0  0999 V2000
   -3.6320   21.2100  -32.3960 C   0  0  0  0  0  0  0  0  0  0  0  0
   -5.1130   21.3470  -32.2610 C   0  0  0  0  0  0  0  0  0  0  0  0
   -5.9840   20.3360  -32.4590 N   0  0  0  0  0  0  0  0  0  0  0  0
   -7.2100   20.8350  -32.3470 N   0  0  0  0  0  0  0  0  0  0  0  0
   -8.4220   20.0430  -32.5280 C   0  0  0  0  0  0  0  0  0  0  0  0
   -7.1470   22.1590  -32.0860 C   0  0  0  0  0  0  0  0  0  0  0  0
   -8.3280   23.0750  -31.9730 C   0  0  0  0  0  0  0  0  0  0  0  0
   -5.8170   22.5120  -32.0350 C   0  0  0  0  0  0  0  0  0  0  0  0
   -5.2800   23.8280  -31.9130 N   0  0  0  0  0  0  0  0  0  0  0  0
   -5.5660   24.7580  -30.4840 S   0  0  0  0  0  0  0  0  0  0  0  0
   -6.9160   24.4180  -29.9190 O   0  0  0  0  0  0  0  0  0  0  0  0
   -5.5480   26.2200  -30.8310 O   0  0  0  0  0  0  0  0  0  0  0  0
   -4.3050   24.4140  -29.3080 C   0  0  0  0  0  0  0  0  0  0  0  0
   -4.5800   24.5120  -27.9400 C   0  0  0  0  0  0  0  0  0  0  0  0
   -3.5680   24.2930  -27.0010 C   0  0  0  0  0  0  0  0  0  0  0  0
   -2.2620   23.9790  -27.4190 C   0  0  0  0  0  0  0  0  0  0  0  0
   -1.1860   23.7490  -26.4220 C   0  0  0  0  0  0  0  0  0  0  0  0
   -1.1220   22.5380  -25.7090 C   0  0  0  0  0  0  0  0  0  0  0  0
   -0.1110   22.3250  -24.7710 C   0  0  0  0  0  0  0  0  0  0  0  0
    0.8450   23.3130  -24.5290 C   0  0  0  0  0  0  0  0  0  0  0  0
    0.7970   24.5290  -25.2280 C   0  0  0  0  0  0  0  0  0  0  0  0
    1.8250   25.6050  -24.9490 C   0  0  0  0  0  0  0  0  0  0  0  0
    1.5150   26.3650  -23.7120 N   0  0  0  0  0  0  0  0  0  0  0  0
    2.6980   27.1690  -23.3100 C   0  0  0  0  0  0  0  0  0  0  0  0
    2.2990   28.3260  -22.3830 C   0  0  0  0  0  0  0  0  0  0  0  0
    1.3910   29.2770  -23.0540 N   0  0  0  0  0  0  0  0  0  0  0  0
    0.5860   28.6720  -24.1300 C   0  0  0  0  0  0  0  0  0  0  0  0
    0.2800   27.1890  -23.8570 C   0  0  0  0  0  0  0  0  0  0  0  0
   -0.2170   24.7390  -26.1770 C   0  0  0  0  0  0  0  0  0  0  0  0
   -1.9930   23.8880  -28.7980 C   0  0  0  0  0  0  0  0  0  0  0  0
   -3.0070   24.1070  -29.7340 C   0  0  0  0  0  0  0  0  0  0  0  0
   -3.1750   21.1677  -31.3963 H   0  0  0  0  0  0  0  0  0  0  0  0
   -3.3978   20.2864  -32.9456 H   0  0  0  0  0  0  0  0  0  0  0  0
   -3.2323   22.0750  -32.9456 H   0  0  0  0  0  0  0  0  0  0  0  0
   -8.8343   19.7736  -31.5444 H   0  0  0  0  0  0  0  0  0  0  0  0
   -9.1640   20.6310  -33.0880 H   0  0  0  0  0  0  0  0  0  0  0  0
   -8.1814   19.1273  -33.0880 H   0  0  0  0  0  0  0  0  0  0  0  0
   -8.5551   23.2512  -30.9112 H   0  0  0  0  0  0  0  0  0  0  0  0
   -8.0973   24.0327  -32.4624 H   0  0  0  0  0  0  0  0  0  0  0  0
   -9.1983   22.6133  -32.4624 H   0  0  0  0  0  0  0  0  0  0  0  0
   -5.5964   24.7623  -27.6019 H   0  0  0  0  0  0  0  0  0  0  0  0
   -3.7945   24.3667  -25.9271 H   0  0  0  0  0  0  0  0  0  0  0  0
   -1.8727   21.7550  -25.8918 H   0  0  0  0  0  0  0  0  0  0  0  0
   -0.0672   21.3741  -24.2197 H   0  0  0  0  0  0  0  0  0  0  0  0
    1.6387   23.1378  -23.7878 H   0  0  0  0  0  0  0  0  0  0  0  0
    2.8120   25.1324  -24.8372 H   0  0  0  0  0  0  0  0  0  0  0  0
    1.8144   26.3110  -25.7924 H   0  0  0  0  0  0  0  0  0  0  0  0
    1.3460   25.6770  -22.9410 H   0  0  0  0  0  0  0  0  0  0  0  0
    3.4113   26.5179  -22.7834 H   0  0  0  0  0  0  0  0  0  0  0  0
    3.1535   27.5929  -24.2171 H   0  0  0  0  0  0  0  0  0  0  0  0
    1.7926   27.9145  -21.4974 H   0  0  0  0  0  0  0  0  0  0  0  0
    3.2132   28.8679  -22.0991 H   0  0  0  0  0  0  0  0  0  0  0  0
    0.7440   29.6720  -22.3310 H   0  0  0  0  0  0  0  0  0  0  0  0
   -0.3636   29.2208  -24.2145 H   0  0  0  0  0  0  0  0  0  0  0  0
    1.1654   28.7331  -25.0630 H   0  0  0  0  0  0  0  0  0  0  0  0
   -0.3038   27.1152  -22.9276 H   0  0  0  0  0  0  0  0  0  0  0  0
   -0.2800   26.8003  -24.7203 H   0  0  0  0  0  0  0  0  0  0  0  0
   -0.2538   25.6868  -26.7341 H   0  0  0  0  0  0  0  0  0  0  0  0
   -0.9771   23.6427  -29.1410 H   0  0  0  0  0  0  0  0  0  0  0  0
   -2.7848   24.0380  -30.8091 H   0  0  0  0  0  0  0  0  0  0  0  0
  1  2  1  0
  2  3  2  0
  3  4  1  0
  4  5  1  0
  4  6  1  0
  6  7  1  0
  6  8  2  0
  8  9  1  0
  9 10  1  0
 10 11  2  0
 10 12  2  0
 10 13  1  0
 13 14  2  0
 14 15  1  0
 15 16  2  0
 16 17  1  0
 17 18  2  0
 18 19  1  0
 19 20  2  0
 20 21  1  0
 21 22  1  0
 22 23  1  0
 23 24  1  0
 24 25  1  0
 25 26  1  0
 26 27  1  0
 27 28  1  0
 21 29  2  0
 16 30  1  0
 30 31  2  0
  8  2  1  0
 31 13  1  0
 29 17  1  0
 28 23  1  0
  1 32  1  0
  1 33  1  0
  1 34  1  0
  5 35  1  0
  5 36  1  0
  5 37  1  0
  7 38  1  0
  7 39  1  0
  7 40  1  0
 14 41  1  0
 15 42  1  0
 18 43  1  0
 19 44  1  0
 20 45  1  0
 22 46  1  0
 22 47  1  0
 23 48  1  0
 24 49  1  0
 24 50  1  0
 25 51  1  0
 25 52  1  0
 26 53  1  0
 27 54  1  0
 27 55  1  0
 28 56  1  0
 28 57  1  0
 29 58  1  0
 30 59  1  0
 31 60  1  0
M  CHG  2   9  -1  23   1
M  END
>  <UniqueID>  (40) 
38

>  <SMILES>  (40) 
Cc1nn(C)c(C)c1[N-]S(=O)(=O)c1ccc(-c2cccc(C[NH+]3CCNCC3)c2)cc1

>  <Energy>  (40) 
116.21972589215272

>  <Genealogy>  (40) 
Cc1nn(C)c(C)c1[N-]S(=O)(=O)c1ccc(-c2cccc(C[NH+]3CCNCC3)c2)cc1 (protonated)
Cc1nn(C)c(C)c1[N-]S(=O)(=O)c1ccc(-c2cccc(C[NH+]3CCNCC3)c2)cc1 (3D coordinates assigned)
Cc1nn(C)c(C)c1[N-]S(=O)(=O)c1ccc(-c2cccc(C[NH+]3CCNCC3)c2)cc1 (nonaromatic ring conformer: 116.21972589215272 kcal/mol)

>  <smiles>  (40) 
Cc1nn(C)c(C)c1NS(=O)(=O)c1ccc(-c2cccc(CN3CCNCC3)c2)cc1

>  <score_type>  (40) 
oracle

>  <origin>  (40) 
adgpu

>  <m_score__min__energy>  (40) 
-10.050000000000001

>  <m_primary>  (40) 
energy

$$$$
40:0
     RDKit          3D

 33 34  0  0  0  0  0  0  0  0999 V2000
   -8.7250   21.2220  -31.1450 C   0  0  0  0  0  0  0  0  0  0  0  0
   -8.4250   22.5490  -31.5670 O   0  0  0  0  0  0  0  0  0  0  0  0
   -7.2410   23.2350  -31.2530 C   0  0  0  0  0  0  0  0  0  0  0  0
   -7.2440   24.4200  -30.4920 C   0  0  0  0  0  0  0  0  0  0  0  0
   -6.0460   25.0770  -30.2030 C   0  0  0  0  0  0  0  0  0  0  0  0
   -4.8270   24.5720  -30.6830 C   0  0  0  0  0  0  0  0  0  0  0  0
   -3.5760   25.2070  -30.3860 N   0  0  0  0  0  0  0  0  0  0  0  0
   -2.6300   24.7850  -29.3980 C   0  0  0  0  0  0  0  0  0  0  0  0
   -2.6740   23.5990  -28.9790 O   0  0  0  0  0  0  0  0  0  0  0  0
   -1.5800   25.6650  -28.9740 N   0  0  0  0  0  0  0  0  0  0  0  0
   -1.2970   26.0760  -27.6300 C   0  0  0  0  0  0  0  0  0  0  0  0
   -1.8720   25.3670  -26.5700 C   0  0  0  0  0  0  0  0  0  0  0  0
   -1.5960   25.7310  -25.2500 C   0  0  0  0  0  0  0  0  0  0  0  0
   -0.7300   26.7970  -25.0030 C   0  0  0  0  0  0  0  0  0  0  0  0
   -0.1560   27.4620  -26.0410 N   0  0  0  0  0  0  0  0  0  0  0  0
   -0.4110   27.1290  -27.3340 C   0  0  0  0  0  0  0  0  0  0  0  0
   -4.8200   23.3800  -31.4150 C   0  0  0  0  0  0  0  0  0  0  0  0
   -6.0240   22.7100  -31.7130 C   0  0  0  0  0  0  0  0  0  0  0  0
   -6.0510   21.5220  -32.4610 O   0  0  0  0  0  0  0  0  0  0  0  0
   -4.9120   20.9350  -33.0830 C   0  0  0  0  0  0  0  0  0  0  0  0
   -8.7345   21.1801  -30.0458 H   0  0  0  0  0  0  0  0  0  0  0  0
   -9.7121   20.9286  -31.5316 H   0  0  0  0  0  0  0  0  0  0  0  0
   -7.9601   20.5325  -31.5316 H   0  0  0  0  0  0  0  0  0  0  0  0
   -8.1955   24.8305  -30.1231 H   0  0  0  0  0  0  0  0  0  0  0  0
   -6.0575   25.9945  -29.5964 H   0  0  0  0  0  0  0  0  0  0  0  0
   -2.5434   24.5205  -26.7766 H   0  0  0  0  0  0  0  0  0  0  0  0
   -2.0562   25.1834  -24.4144 H   0  0  0  0  0  0  0  0  0  0  0  0
   -0.5116   27.0995  -23.9682 H   0  0  0  0  0  0  0  0  0  0  0  0
    0.0757   27.6832  -28.1501 H   0  0  0  0  0  0  0  0  0  0  0  0
   -3.8641   22.9607  -31.7621 H   0  0  0  0  0  0  0  0  0  0  0  0
   -4.2162   20.5764  -32.3101 H   0  0  0  0  0  0  0  0  0  0  0  0
   -5.2315   20.0893  -33.7096 H   0  0  0  0  0  0  0  0  0  0  0  0
   -4.4086   21.6860  -33.7096 H   0  0  0  0  0  0  0  0  0  0  0  0
  1  2  1  0
  2  3  1  0
  3  4  2  0
  4  5  1  0
  5  6  2  0
  6  7  1  0
  7  8  1  0
  8  9  2  0
  8 10  1  0
 10 11  1  0
 11 12  2  0
 12 13  1  0
 13 14  2  0
 14 15  1  0
 15 16  2  0
  6 17  1  0
 17 18  2  0
 18 19  1  0
 19 20  1  0
 18  3  1  0
 16 11  1  0
  1 21  1  0
  1 22  1  0
  1 23  1  0
  4 24  1  0
  5 25  1  0
 12 26  1  0
 13 27  1  0
 14 28  1  0
 16 29  1  0
 17 30  1  0
 20 31  1  0
 20 32  1  0
 20 33  1  0
M  CHG  2   7  -1  10  -1
M  END
>  <UniqueID>  (41) 
39

>  <SMILES>  (41) 
COc1ccc([N-]C(=O)[N-]c2cccnc2)cc1OC

>  <Energy>  (41) 
39.94747387179111

>  <Genealogy>  (41) 
COc1ccc([N-]C(=O)[N-]c2cccnc2)cc1OC (protonated)
COc1ccc([N-]C(=O)[N-]c2cccnc2)cc1OC (3D coordinates assigned)
COc1ccc([N-]C(=O)[N-]c2cccnc2)cc1OC (optimized conformer: 39.94747387179111 kcal/mol)

>  <smiles>  (41) 
COc1ccc(NC(=O)Nc2cccnc2)cc1OC

>  <score_type>  (41) 
oracle

>  <origin>  (41) 
adgpu

>  <m_score__min__energy>  (41) 
-8.8499999999999996

>  <m_primary>  (41) 
energy

$$$$
41:0
     RDKit          3D

 56 59  0  0  0  0  0  0  0  0999 V2000
   -7.3950   21.1930  -32.0620 C   0  0  0  0  0  0  0  0  0  0  0  0
   -6.8430   21.6320  -30.8260 O   0  0  0  0  0  0  0  0  0  0  0  0
   -6.3610   22.9290  -30.5760 C   0  0  0  0  0  0  0  0  0  0  0  0
   -7.2460   24.0070  -30.3680 C   0  0  0  0  0  0  0  0  0  0  0  0
   -6.7570   25.2860  -30.1100 C   0  0  0  0  0  0  0  0  0  0  0  0
   -5.3860   25.5130  -30.0610 C   0  0  0  0  0  0  0  0  0  0  0  0
   -4.4880   24.4640  -30.2700 C   0  0  0  0  0  0  0  0  0  0  0  0
   -3.1260   24.7410  -30.2240 O   0  0  0  0  0  0  0  0  0  0  0  0
   -4.9610   23.1540  -30.5280 C   0  0  0  0  0  0  0  0  0  0  0  0
   -3.9810   21.9850  -30.7250 C   0  0  1  0  0  0  0  0  0  0  0  0
   -3.5160   21.9180  -32.2190 C   0  0  0  0  0  0  0  0  0  0  0  0
   -1.9920   21.9260  -32.3850 C   0  0  0  0  0  0  0  0  0  0  0  0
   -1.3470   20.8790  -31.4810 C   0  0  0  0  0  0  0  0  0  0  0  0
   -1.8820   20.9900  -30.0810 C   0  0  0  0  0  0  0  0  0  0  0  0
   -1.4830   20.1920  -29.2430 O   0  0  0  0  0  0  0  0  0  0  0  0
   -2.8490   22.0320  -29.7480 N   0  0  2  0  0  0  0  0  0  0  0  0
   -3.3420   21.9100  -28.3470 C   0  0  0  0  0  0  0  0  0  0  0  0
   -2.3210   22.3970  -27.3490 C   0  0  0  0  0  0  0  0  0  0  0  0
   -1.6370   21.5030  -26.5160 C   0  0  0  0  0  0  0  0  0  0  0  0
   -0.7180   21.9980  -25.5920 C   0  0  0  0  0  0  0  0  0  0  0  0
   -0.4860   23.3720  -25.5030 C   0  0  0  0  0  0  0  0  0  0  0  0
   -1.1840   24.2480  -26.3530 C   0  0  0  0  0  0  0  0  0  0  0  0
   -0.9870   25.7200  -26.2980 C   0  0  0  0  0  0  0  0  0  0  0  0
   -0.6560   26.4620  -27.4490 C   0  0  0  0  0  0  0  0  0  0  0  0
   -0.4830   27.8470  -27.3750 C   0  0  0  0  0  0  0  0  0  0  0  0
   -0.6280   28.5170  -26.1520 C   0  0  0  0  0  0  0  0  0  0  0  0
   -0.4770   30.0080  -26.0820 C   0  0  0  0  0  0  0  0  0  0  0  0
   -0.9890   27.7890  -25.0090 C   0  0  0  0  0  0  0  0  0  0  0  0
   -1.1640   26.4030  -25.0810 C   0  0  0  0  0  0  0  0  0  0  0  0
   -2.0820   23.7310  -27.2390 N   0  0  0  0  0  0  0  0  0  0  0  0
   -8.2422   20.5192  -31.8665 H   0  0  0  0  0  0  0  0  0  0  0  0
   -7.7438   22.0632  -32.6375 H   0  0  0  0  0  0  0  0  0  0  0  0
   -6.6257   20.6573  -32.6375 H   0  0  0  0  0  0  0  0  0  0  0  0
   -8.3319   23.8367  -30.4098 H   0  0  0  0  0  0  0  0  0  0  0  0
   -7.4572   26.1181  -29.9447 H   0  0  0  0  0  0  0  0  0  0  0  0
   -5.0064   26.5250  -29.8564 H   0  0  0  0  0  0  0  0  0  0  0  0
   -4.5051   21.0427  -30.5075 H   0  0  0  0  0  0  0  0  0  0  0  0
   -3.9102   20.9932  -32.6654 H   0  0  0  0  0  0  0  0  0  0  0  0
   -3.9011   22.8190  -32.7189 H   0  0  0  0  0  0  0  0  0  0  0  0
   -1.7414   21.7027  -33.4325 H   0  0  0  0  0  0  0  0  0  0  0  0
   -1.6103   22.9191  -32.1054 H   0  0  0  0  0  0  0  0  0  0  0  0
   -1.5679   19.8758  -31.8743 H   0  0  0  0  0  0  0  0  0  0  0  0
   -0.2602   21.0479  -31.4607 H   0  0  0  0  0  0  0  0  0  0  0  0
   -2.3550   22.9490  -29.8430 H   0  0  0  0  0  0  0  0  0  0  0  0
   -4.2589   22.5081  -28.2389 H   0  0  0  0  0  0  0  0  0  0  0  0
   -3.5373   20.8465  -28.1448 H   0  0  0  0  0  0  0  0  0  0  0  0
   -1.8229   20.4214  -26.5900 H   0  0  0  0  0  0  0  0  0  0  0  0
   -0.1750   21.3053  -24.9322 H   0  0  0  0  0  0  0  0  0  0  0  0
    0.2371   23.7660  -24.7737 H   0  0  0  0  0  0  0  0  0  0  0  0
   -0.5328   25.9474  -28.4133 H   0  0  0  0  0  0  0  0  0  0  0  0
   -0.2313   28.4153  -28.2826 H   0  0  0  0  0  0  0  0  0  0  0  0
   -0.4450   30.3243  -25.0289 H   0  0  0  0  0  0  0  0  0  0  0  0
    0.4559   30.3060  -26.5829 H   0  0  0  0  0  0  0  0  0  0  0  0
   -1.3312   30.4870  -26.5829 H   0  0  0  0  0  0  0  0  0  0  0  0
   -1.1352   28.3103  -24.0515 H   0  0  0  0  0  0  0  0  0  0  0  0
   -1.4428   25.8416  -24.1770 H   0  0  0  0  0  0  0  0  0  0  0  0
  1  2  1  0
  2  3  1  0
  3  4  2  0
  4  5  1  0
  5  6  2  0
  6  7  1  0
  7  8  1  0
  7  9  2  0
  9 10  1  0
 10 11  1  0
 11 12  1  0
 12 13  1  0
 13 14  1  0
 14 15  2  0
 14 16  1  0
 16 17  1  0
 17 18  1  0
 18 19  2  0
 19 20  1  0
 20 21  2  0
 21 22  1  0
 22 23  1  0
 23 24  2  0
 24 25  1  0
 25 26  2  0
 26 27  1  0
 26 28  1  0
 28 29  2  0
 22 30  2  0
  9  3  1  0
 16 10  1  0
 30 18  1  0
 29 23  1  0
  1 31  1  0
  1 32  1  0
  1 33  1  0
  4 34  1  0
  5 35  1  0
  6 36  1  0
 10 37  1  1
 11 38  1  0
 11 39  1  0
 12 40  1  0
 12 41  1  0
 13 42  1  0
 13 43  1  0
 16 44  1  1
 17 45  1  0
 17 46  1  0
 19 47  1  0
 20 48  1  0
 21 49  1  0
 24 50  1  0
 25 51  1  0
 27 52  1  0
 27 53  1  0
 27 54  1  0
 28 55  1  0
 29 56  1  0
M  CHG  2   8  -1  16   1
M  END
>  <UniqueID>  (42) 
40

>  <SMILES>  (42) 
COc1cccc([O-])c1[C@H]1CCCC(=O)[N@@H+]1Cc1cccc(-c2ccc(C)cc2)n1

>  <Energy>  (42) 
75.69222380408812

>  <Genealogy>  (42) 
COc1cccc([O-])c1C1CCCC(=O)[NH+]1Cc1cccc(-c2ccc(C)cc2)n1 (protonated)
COc1cccc([O-])c1[C@H]1CCCC(=O)[N@@H+]1Cc1cccc(-c2ccc(C)cc2)n1 (chirality)
COc1cccc([O-])c1[C@H]1CCCC(=O)[N@@H+]1Cc1cccc(-c2ccc(C)cc2)n1 (3D coordinates assigned)
COc1cccc([O-])c1[C@H]1CCCC(=O)[N@@H+]1Cc1cccc(-c2ccc(C)cc2)n1 (nonaromatic ring conformer: 75.69222380408812 kcal/mol)

>  <smiles>  (42) 
COc1cccc(O)c1C1CCCC(=O)N1Cc1cccc(-c2ccc(C)cc2)n1

>  <score_type>  (42) 
oracle

>  <origin>  (42) 
adgpu

>  <m_score__min__energy>  (42) 
-10.93

>  <m_primary>  (42) 
energy

$$$$
42:0
     RDKit          3D

 54 56  0  0  0  0  0  0  0  0999 V2000
   -5.8180   16.9090  -34.5650 C   0  0  0  0  0  0  0  0  0  0  0  0
   -5.7330   18.4030  -34.8530 C   0  0  0  0  0  0  0  0  0  0  0  0
   -5.5540   19.1650  -33.6150 N   0  0  0  0  0  0  0  0  0  0  0  0
   -4.2630   19.6850  -33.2700 C   0  0  0  0  0  0  0  0  0  0  0  0
   -3.9980   21.0560  -33.3780 C   0  0  0  0  0  0  0  0  0  0  0  0
   -2.7400   21.5580  -33.0330 C   0  0  0  0  0  0  0  0  0  0  0  0
   -1.7330   20.7010  -32.5730 C   0  0  0  0  0  0  0  0  0  0  0  0
   -0.4870   21.2530  -32.2390 O   0  0  0  0  0  0  0  0  0  0  0  0
    0.2480   20.9290  -31.0640 C   0  0  0  0  0  0  0  0  0  0  0  0
   -2.0030   19.3230  -32.4600 C   0  0  0  0  0  0  0  0  0  0  0  0
   -3.2610   18.8220  -32.8050 C   0  0  0  0  0  0  0  0  0  0  0  0
   -6.7900   19.1120  -32.3960 S   0  0  0  0  0  0  0  0  0  0  0  0
   -6.4000   18.1550  -31.3040 O   0  0  0  0  0  0  0  0  0  0  0  0
   -8.0690   18.6230  -33.0170 O   0  0  0  0  0  0  0  0  0  0  0  0
   -7.0120   20.7310  -31.7110 C   0  0  0  0  0  0  0  0  0  0  0  0
   -5.9440   21.3160  -31.0100 C   0  0  0  0  0  0  0  0  0  0  0  0
   -6.0740   22.5850  -30.4250 C   0  0  0  0  0  0  0  0  0  0  0  0
   -4.9820   23.1970  -29.7160 N   0  0  0  0  0  0  0  0  0  0  0  0
   -3.7840   22.4980  -29.3380 C   0  0  0  0  0  0  0  0  0  0  0  0
   -3.7850   21.2370  -29.2900 O   0  0  0  0  0  0  0  0  0  0  0  0
   -2.5560   23.2490  -28.9710 C   0  0  0  0  0  0  0  0  0  0  0  0
   -1.5310   22.6070  -28.2500 C   0  0  0  0  0  0  0  0  0  0  0  0
   -0.3750   23.3010  -27.8860 C   0  0  0  0  0  0  0  0  0  0  0  0
   -0.2260   24.6440  -28.2340 C   0  0  0  0  0  0  0  0  0  0  0  0
   -1.2340   25.2970  -28.9460 C   0  0  0  0  0  0  0  0  0  0  0  0
   -2.3960   24.6100  -29.3160 C   0  0  0  0  0  0  0  0  0  0  0  0
   -3.3730   25.2870  -30.0380 O   0  0  0  0  0  0  0  0  0  0  0  0
   -7.2720   23.2900  -30.5830 C   0  0  0  0  0  0  0  0  0  0  0  0
   -8.3440   22.7180  -31.2690 C   0  0  0  0  0  0  0  0  0  0  0  0
   -8.2380   21.4310  -31.8210 C   0  0  0  0  0  0  0  0  0  0  0  0
   -9.4220   20.8570  -32.5520 C   0  0  0  0  0  0  0  0  0  0  0  0
   -5.8273   16.7452  -33.4773 H   0  0  0  0  0  0  0  0  0  0  0  0
   -6.7407   16.5027  -35.0049 H   0  0  0  0  0  0  0  0  0  0  0  0
   -4.9473   16.4007  -35.0049 H   0  0  0  0  0  0  0  0  0  0  0  0
   -4.8789   18.5932  -35.5196 H   0  0  0  0  0  0  0  0  0  0  0  0
   -6.6713   18.7228  -35.3297 H   0  0  0  0  0  0  0  0  0  0  0  0
   -4.7822   21.7397  -33.7354 H   0  0  0  0  0  0  0  0  0  0  0  0
   -2.5394   22.6357  -33.1237 H   0  0  0  0  0  0  0  0  0  0  0  0
   -0.3461   21.1909  -30.1760 H   0  0  0  0  0  0  0  0  0  0  0  0
    0.4668   19.8510  -31.0539 H   0  0  0  0  0  0  0  0  0  0  0  0
    1.1913   21.4947  -31.0539 H   0  0  0  0  0  0  0  0  0  0  0  0
   -1.2208   18.6390  -32.0989 H   0  0  0  0  0  0  0  0  0  0  0  0
   -3.4660   17.7453  -32.7113 H   0  0  0  0  0  0  0  0  0  0  0  0
   -4.9925   20.7716  -30.9184 H   0  0  0  0  0  0  0  0  0  0  0  0
   -5.1160   24.1690  -29.3550 H   0  0  0  0  0  0  0  0  0  0  0  0
   -1.6418   21.5488  -27.9708 H   0  0  0  0  0  0  0  0  0  0  0  0
    0.4194   22.7880  -27.3240 H   0  0  0  0  0  0  0  0  0  0  0  0
    0.6858   25.1884  -27.9473 H   0  0  0  0  0  0  0  0  0  0  0  0
   -1.1144   26.3563  -29.2174 H   0  0  0  0  0  0  0  0  0  0  0  0
   -7.3695   24.3022  -30.1636 H   0  0  0  0  0  0  0  0  0  0  0  0
   -9.2824   23.2813  -31.3786 H   0  0  0  0  0  0  0  0  0  0  0  0
  -10.1636   20.4975  -31.8235 H   0  0  0  0  0  0  0  0  0  0  0  0
   -9.8756   21.6352  -33.1834 H   0  0  0  0  0  0  0  0  0  0  0  0
   -9.0920   20.0189  -33.1834 H   0  0  0  0  0  0  0  0  0  0  0  0
  1  2  1  0
  2  3  1  0
  3  4  1  0
  4  5  2  0
  5  6  1  0
  6  7  2  0
  7  8  1  0
  8  9  1  0
  7 10  1  0
 10 11  2  0
  3 12  1  0
 12 13  2  0
 12 14  2  0
 12 15  1  0
 15 16  2  0
 16 17  1  0
 17 18  1  0
 18 19  1  0
 19 20  2  0
 19 21  1  0
 21 22  2  0
 22 23  1  0
 23 24  2  0
 24 25  1  0
 25 26  2  0
 26 27  1  0
 17 28  2  0
 28 29  1  0
 29 30  2  0
 30 31  1  0
 11  4  1  0
 30 15  1  0
 26 21  1  0
  1 32  1  0
  1 33  1  0
  1 34  1  0
  2 35  1  0
  2 36  1  0
  5 37  1  0
  6 38  1  0
  9 39  1  0
  9 40  1  0
  9 41  1  0
 10 42  1  0
 11 43  1  0
 16 44  1  0
 18 45  1  0
 22 46  1  0
 23 47  1  0
 24 48  1  0
 25 49  1  0
 28 50  1  0
 29 51  1  0
 31 52  1  0
 31 53  1  0
 31 54  1  0
M  CHG  1  27  -1
M  END
>  <UniqueID>  (43) 
41

>  <SMILES>  (43) 
CCN(c1ccc(OC)cc1)S(=O)(=O)c1cc(NC(=O)c2ccccc2[O-])ccc1C

>  <Energy>  (43) 
66.51362437649675

>  <Genealogy>  (43) 
CCN(c1ccc(OC)cc1)S(=O)(=O)c1cc(NC(=O)c2ccccc2[O-])ccc1C (protonated)
CCN(c1ccc(OC)cc1)S(=O)(=O)c1cc(NC(=O)c2ccccc2[O-])ccc1C (3D coordinates assigned)
CCN(c1ccc(OC)cc1)S(=O)(=O)c1cc(NC(=O)c2ccccc2[O-])ccc1C (optimized conformer: 66.51362437649675 kcal/mol)

>  <smiles>  (43) 
CCN(c1ccc(OC)cc1)S(=O)(=O)c1cc(NC(=O)c2ccccc2O)ccc1C

>  <score_type>  (43) 
oracle

>  <origin>  (43) 
adgpu

>  <m_score__min__energy>  (43) 
-11.76

>  <m_primary>  (43) 
energy

$$$$
43:0
     RDKit          3D

 36 37  0  0  0  0  0  0  0  0999 V2000
   -2.6240   19.3770  -27.0460 C   0  0  0  0  0  0  0  0  0  0  0  0
   -2.5140   20.5350  -27.9950 C   0  0  0  0  0  0  0  0  0  0  0  0
   -1.5330   20.5350  -28.9970 C   0  0  0  0  0  0  0  0  0  0  0  0
   -1.4070   21.6280  -29.8570 C   0  0  0  0  0  0  0  0  0  0  0  0
   -2.2510   22.7320  -29.7170 C   0  0  0  0  0  0  0  0  0  0  0  0
   -3.2320   22.7540  -28.7110 C   0  0  0  0  0  0  0  0  0  0  0  0
   -4.0900   23.9000  -28.5560 N   0  0  0  0  0  0  0  0  0  0  0  0
   -4.2340   24.5410  -27.2500 C   0  0  0  0  0  0  0  0  0  0  0  0
   -4.9220   24.5760  -29.9290 S   0  0  0  0  0  0  0  0  0  0  0  0
   -3.9510   25.2950  -30.8220 O   0  0  0  0  0  0  0  0  0  0  0  0
   -5.9590   25.5480  -29.4400 O   0  0  0  0  0  0  0  0  0  0  0  0
   -5.6720   23.2820  -30.8590 C   0  0  0  0  0  0  0  0  0  0  0  0
   -4.9110   22.5000  -31.7390 C   0  0  0  0  0  0  0  0  0  0  0  0
   -5.5220   21.4860  -32.4810 C   0  0  0  0  0  0  0  0  0  0  0  0
   -6.8910   21.2430  -32.3450 C   0  0  0  0  0  0  0  0  0  0  0  0
   -7.6580   22.0050  -31.4490 C   0  0  0  0  0  0  0  0  0  0  0  0
   -9.1340   21.7730  -31.3300 C   0  0  0  0  0  0  0  0  0  0  0  0
   -7.0430   23.0340  -30.7180 C   0  0  0  0  0  0  0  0  0  0  0  0
   -3.3500   21.6530  -27.8440 C   0  0  0  0  0  0  0  0  0  0  0  0
   -2.5889   19.7468  -26.0106 H   0  0  0  0  0  0  0  0  0  0  0  0
   -3.5760   18.8528  -27.2160 H   0  0  0  0  0  0  0  0  0  0  0  0
   -1.7877   18.6829  -27.2160 H   0  0  0  0  0  0  0  0  0  0  0  0
   -0.8606   19.6713  -29.1059 H   0  0  0  0  0  0  0  0  0  0  0  0
   -0.6412   21.6195  -30.6466 H   0  0  0  0  0  0  0  0  0  0  0  0
   -2.1472   23.5894  -30.3983 H   0  0  0  0  0  0  0  0  0  0  0  0
   -4.0670   23.7978  -26.4564 H   0  0  0  0  0  0  0  0  0  0  0  0
   -3.4953   25.3506  -27.1555 H   0  0  0  0  0  0  0  0  0  0  0  0
   -5.2480   24.9569  -27.1555 H   0  0  0  0  0  0  0  0  0  0  0  0
   -3.8319   22.6848  -31.8455 H   0  0  0  0  0  0  0  0  0  0  0  0
   -4.9233   20.8771  -33.1744 H   0  0  0  0  0  0  0  0  0  0  0  0
   -7.3695   20.4524  -32.9416 H   0  0  0  0  0  0  0  0  0  0  0  0
   -9.4137   21.7290  -30.2671 H   0  0  0  0  0  0  0  0  0  0  0  0
   -9.6752   22.5971  -31.8178 H   0  0  0  0  0  0  0  0  0  0  0  0
   -9.3963   20.8226  -31.8178 H   0  0  0  0  0  0  0  0  0  0  0  0
   -7.6418   23.6492  -30.0303 H   0  0  0  0  0  0  0  0  0  0  0  0
   -4.1026   21.6678  -27.0419 H   0  0  0  0  0  0  0  0  0  0  0  0
  1  2  1  0
  2  3  2  0
  3  4  1  0
  4  5  2  0
  5  6  1  0
  6  7  1  0
  7  8  1  0
  7  9  1  0
  9 10  2  0
  9 11  2  0
  9 12  1  0
 12 13  2  0
 13 14  1  0
 14 15  2  0
 15 16  1  0
 16 17  1  0
 16 18  2  0
  6 19  2  0
 19  2  1  0
 18 12  1  0
  1 20  1  0
  1 21  1  0
  1 22  1  0
  3 23  1  0
  4 24  1  0
  5 25  1  0
  8 26  1  0
  8 27  1  0
  8 28  1  0
 13 29  1  0
 14 30  1  0
 15 31  1  0
 17 32  1  0
 17 33  1  0
 17 34  1  0
 18 35  1  0
 19 36  1  0
M  END
>  <UniqueID>  (44) 
42

>  <SMILES>  (44) 
Cc1cccc(N(C)S(=O)(=O)c2cccc(C)c2)c1

>  <Energy>  (44) 
38.95123098040206

>  <Genealogy>  (44) 
Cc1cccc(N(C)S(=O)(=O)c2cccc(C)c2)c1 (3D coordinates assigned)
Cc1cccc(N(C)S(=O)(=O)c2cccc(C)c2)c1 (optimized conformer: 38.95123098040206 kcal/mol)

>  <smiles>  (44) 
Cc1cccc(N(C)S(=O)(=O)c2cccc(C)c2)c1

>  <score_type>  (44) 
oracle

>  <origin>  (44) 
adgpu

>  <m_score__min__energy>  (44) 
-7.7999999999999998

>  <m_primary>  (44) 
energy

$$$$
44:0
     RDKit          3D

 36 38  0  0  0  0  0  0  0  0999 V2000
   -5.3670   25.4100  -30.0900 C   0  0  0  0  0  0  0  0  0  0  0  0
   -5.9560   24.2810  -30.8740 C   0  0  0  0  0  0  0  0  0  0  0  0
   -5.7360   24.2090  -32.1120 O   0  0  0  0  0  0  0  0  0  0  0  0
   -6.8190   23.3360  -30.2230 N   0  0  0  0  0  0  0  0  0  0  0  0
   -7.3260   22.1450  -30.8480 C   0  0  0  0  0  0  0  0  0  0  0  0
   -8.9520   21.7390  -31.0020 S   0  0  0  0  0  0  0  0  0  0  0  0
   -8.7180   20.3740  -31.9520 C   0  0  0  0  0  0  0  0  0  0  0  0
   -7.3510   20.2120  -32.1710 C   0  0  0  0  0  0  0  0  0  0  0  0
   -6.8160   19.0650  -32.9410 C   0  0  0  0  0  0  0  0  0  0  0  0
   -6.8580   17.7690  -32.3990 C   0  0  0  0  0  0  0  0  0  0  0  0
   -6.3530   16.6840  -33.1220 C   0  0  0  0  0  0  0  0  0  0  0  0
   -5.7940   16.8840  -34.3870 C   0  0  0  0  0  0  0  0  0  0  0  0
   -5.7350   18.1700  -34.9290 C   0  0  0  0  0  0  0  0  0  0  0  0
   -6.2370   19.2580  -34.2090 C   0  0  0  0  0  0  0  0  0  0  0  0
   -6.5610   21.2190  -31.5630 C   0  0  0  0  0  0  0  0  0  0  0  0
   -5.0910   21.3180  -31.7010 C   0  0  0  0  0  0  0  0  0  0  0  0
   -4.5070   21.4830  -32.9690 C   0  0  0  0  0  0  0  0  0  0  0  0
   -3.1170   21.5610  -33.0990 C   0  0  0  0  0  0  0  0  0  0  0  0
   -2.3010   21.4770  -31.9660 C   0  0  0  0  0  0  0  0  0  0  0  0
   -2.8750   21.3140  -30.7020 C   0  0  0  0  0  0  0  0  0  0  0  0
   -4.2650   21.2340  -30.5690 C   0  0  0  0  0  0  0  0  0  0  0  0
   -5.4741   25.2048  -29.0146 H   0  0  0  0  0  0  0  0  0  0  0  0
   -4.3005   25.5124  -30.3393 H   0  0  0  0  0  0  0  0  0  0  0  0
   -5.8931   26.3433  -30.3393 H   0  0  0  0  0  0  0  0  0  0  0  0
   -7.0920   23.5330  -29.2340 H   0  0  0  0  0  0  0  0  0  0  0  0
   -9.5116   19.7170  -32.3374 H   0  0  0  0  0  0  0  0  0  0  0  0
   -7.2905   17.6073  -31.4006 H   0  0  0  0  0  0  0  0  0  0  0  0
   -6.3958   15.6714  -32.6944 H   0  0  0  0  0  0  0  0  0  0  0  0
   -5.4005   16.0287  -34.9559 H   0  0  0  0  0  0  0  0  0  0  0  0
   -5.2928   18.3269  -35.9239 H   0  0  0  0  0  0  0  0  0  0  0  0
   -6.1791   20.2702  -34.6358 H   0  0  0  0  0  0  0  0  0  0  0  0
   -5.1457   21.5510  -33.8620 H   0  0  0  0  0  0  0  0  0  0  0  0
   -2.6646   21.6886  -34.0935 H   0  0  0  0  0  0  0  0  0  0  0  0
   -1.2077   21.5392  -32.0697 H   0  0  0  0  0  0  0  0  0  0  0  0
   -2.2330   21.2486  -29.8112 H   0  0  0  0  0  0  0  0  0  0  0  0
   -4.7131   21.1047  -29.5728 H   0  0  0  0  0  0  0  0  0  0  0  0
  1  2  1  0
  2  3  2  0
  2  4  1  0
  4  5  1  0
  5  6  1  0
  6  7  1  0
  7  8  2  0
  8  9  1  0
  9 10  2  0
 10 11  1  0
 11 12  2  0
 12 13  1  0
 13 14  2  0
  8 15  1  0
 15 16  1  0
 16 17  2  0
 17 18  1  0
 18 19  2  0
 19 20  1  0
 20 21  2  0
 15  5  2  0
 21 16  1  0
 14  9  1  0
  1 22  1  0
  1 23  1  0
  1 24  1  0
  4 25  1  0
  7 26  1  0
 10 27  1  0
 11 28  1  0
 12 29  1  0
 13 30  1  0
 14 31  1  0
 17 32  1  0
 18 33  1  0
 19 34  1  0
 20 35  1  0
 21 36  1  0
M  END
>  <UniqueID>  (45) 
43

>  <SMILES>  (45) 
CC(=O)Nc1scc(-c2ccccc2)c1-c1ccccc1

>  <Energy>  (45) 
74.93027364425843

>  <Genealogy>  (45) 
CC(=O)Nc1scc(-c2ccccc2)c1-c1ccccc1 (3D coordinates assigned)
CC(=O)Nc1scc(-c2ccccc2)c1-c1ccccc1 (optimized conformer: 74.93027364425843 kcal/mol)

>  <smiles>  (45) 
CC(=O)Nc1scc(-c2ccccc2)c1-c1ccccc1

>  <score_type>  (45) 
oracle

>  <origin>  (45) 
adgpu

>  <m_score__min__energy>  (45) 
-8.8000000000000007

>  <m_primary>  (45) 
energy

$$$$
45:0
     RDKit          3D

 47 49  0  0  0  0  0  0  0  0999 V2000
   -0.5490   21.5870  -29.6170 C   0  0  0  0  0  0  0  0  0  0  0  0
   -1.4770   21.2190  -30.7380 C   0  0  0  0  0  0  0  0  0  0  0  0
   -2.5250   22.0710  -31.1100 C   0  0  0  0  0  0  0  0  0  0  0  0
   -3.3960   21.7130  -32.1410 C   0  0  0  0  0  0  0  0  0  0  0  0
   -3.2440   20.4860  -32.8100 C   0  0  0  0  0  0  0  0  0  0  0  0
   -4.1320   20.0940  -33.8700 N   0  0  0  0  0  0  0  0  0  0  0  0
   -5.5480   19.1120  -33.6810 S   0  0  0  0  0  0  0  0  0  0  0  0
   -6.0870   18.7470  -35.0370 O   0  0  0  0  0  0  0  0  0  0  0  0
   -5.1790   17.8490  -32.9560 O   0  0  0  0  0  0  0  0  0  0  0  0
   -6.7510   19.9770  -32.7320 C   0  0  0  0  0  0  0  0  0  0  0  0
   -7.8830   19.3160  -32.2380 C   0  0  0  0  0  0  0  0  0  0  0  0
   -8.8270   20.0160  -31.4830 C   0  0  0  0  0  0  0  0  0  0  0  0
   -8.6410   21.3750  -31.2120 C   0  0  0  0  0  0  0  0  0  0  0  0
   -7.5080   22.0500  -31.6920 C   0  0  0  0  0  0  0  0  0  0  0  0
   -7.3350   23.4440  -31.3750 N   0  0  0  0  0  0  0  0  0  0  0  0
   -6.1130   24.2050  -31.6450 C   0  0  0  0  0  0  0  0  0  0  0  0
   -5.1660   24.1390  -30.4730 C   0  0  0  0  0  0  0  0  0  0  0  0
   -5.4150   23.2570  -29.4070 C   0  0  0  0  0  0  0  0  0  0  0  0
   -4.5310   23.1930  -28.3250 C   0  0  0  0  0  0  0  0  0  0  0  0
   -3.3900   23.9990  -28.3020 C   0  0  0  0  0  0  0  0  0  0  0  0
   -3.1260   24.8680  -29.3650 C   0  0  0  0  0  0  0  0  0  0  0  0
   -1.9890   25.6680  -29.3430 O   0  0  0  0  0  0  0  0  0  0  0  0
   -4.0070   24.9340  -30.4500 C   0  0  0  0  0  0  0  0  0  0  0  0
   -6.5710   21.3410  -32.4680 C   0  0  0  0  0  0  0  0  0  0  0  0
   -2.1930   19.6220  -32.4360 C   0  0  0  0  0  0  0  0  0  0  0  0
   -2.0130   18.2980  -33.1270 C   0  0  0  0  0  0  0  0  0  0  0  0
   -1.3200   19.9930  -31.3980 C   0  0  0  0  0  0  0  0  0  0  0  0
   -1.0423   21.3914  -28.6535 H   0  0  0  0  0  0  0  0  0  0  0  0
    0.3687   20.9847  -29.6880 H   0  0  0  0  0  0  0  0  0  0  0  0
   -0.2934   22.6545  -29.6880 H   0  0  0  0  0  0  0  0  0  0  0  0
   -2.6627   23.0285  -30.5863 H   0  0  0  0  0  0  0  0  0  0  0  0
   -4.2074   22.3964  -32.4320 H   0  0  0  0  0  0  0  0  0  0  0  0
   -8.0285   18.2454  -32.4447 H   0  0  0  0  0  0  0  0  0  0  0  0
   -9.7185   19.4971  -31.1009 H   0  0  0  0  0  0  0  0  0  0  0  0
   -9.3891   21.9198  -30.6175 H   0  0  0  0  0  0  0  0  0  0  0  0
   -8.1050   23.9410  -30.8730 H   0  0  0  0  0  0  0  0  0  0  0  0
   -5.6167   23.7858  -32.5327 H   0  0  0  0  0  0  0  0  0  0  0  0
   -6.3855   25.2567  -31.8170 H   0  0  0  0  0  0  0  0  0  0  0  0
   -6.3081   22.6150  -29.4239 H   0  0  0  0  0  0  0  0  0  0  0  0
   -4.7346   22.5064  -27.4901 H   0  0  0  0  0  0  0  0  0  0  0  0
   -2.6992   23.9499  -27.4474 H   0  0  0  0  0  0  0  0  0  0  0  0
   -3.7915   25.6115  -31.2893 H   0  0  0  0  0  0  0  0  0  0  0  0
   -5.6901   21.8626  -32.8704 H   0  0  0  0  0  0  0  0  0  0  0  0
   -1.9049   17.5032  -32.3742 H   0  0  0  0  0  0  0  0  0  0  0  0
   -2.8912   18.0903  -33.7560 H   0  0  0  0  0  0  0  0  0  0  0  0
   -1.1113   18.3323  -33.7560 H   0  0  0  0  0  0  0  0  0  0  0  0
   -0.5065   19.3146  -31.1014 H   0  0  0  0  0  0  0  0  0  0  0  0
  1  2  1  0
  2  3  2  0
  3  4  1  0
  4  5  2  0
  5  6  1  0
  6  7  1  0
  7  8  2  0
  7  9  2  0
  7 10  1  0
 10 11  2  0
 11 12  1  0
 12 13  2  0
 13 14  1  0
 14 15  1  0
 15 16  1  0
 16 17  1  0
 17 18  2  0
 18 19  1  0
 19 20  2  0
 20 21  1  0
 21 22  1  0
 21 23  2  0
 14 24  2  0
  5 25  1  0
 25 26  1  0
 25 27  2  0
 27  2  1  0
 24 10  1  0
 23 17  1  0
  1 28  1  0
  1 29  1  0
  1 30  1  0
  3 31  1  0
  4 32  1  0
 11 33  1  0
 12 34  1  0
 13 35  1  0
 15 36  1  0
 16 37  1  0
 16 38  1  0
 18 39  1  0
 19 40  1  0
 20 41  1  0
 23 42  1  0
 24 43  1  0
 26 44  1  0
 26 45  1  0
 26 46  1  0
 27 47  1  0
M  CHG  2   6  -1  22  -1
M  END
>  <UniqueID>  (46) 
44

>  <SMILES>  (46) 
Cc1ccc([N-]S(=O)(=O)c2cccc(NCc3cccc([O-])c3)c2)c(C)c1

>  <Energy>  (46) 
50.624607809249554

>  <Genealogy>  (46) 
Cc1ccc([N-]S(=O)(=O)c2cccc(NCc3cccc([O-])c3)c2)c(C)c1 (protonated)
Cc1ccc([N-]S(=O)(=O)c2cccc(NCc3cccc([O-])c3)c2)c(C)c1 (3D coordinates assigned)
Cc1ccc([N-]S(=O)(=O)c2cccc(NCc3cccc([O-])c3)c2)c(C)c1 (optimized conformer: 50.624607809249554 kcal/mol)

>  <smiles>  (46) 
Cc1ccc(NS(=O)(=O)c2cccc(NCc3cccc(O)c3)c2)c(C)c1

>  <score_type>  (46) 
oracle

>  <origin>  (46) 
adgpu

>  <m_score__min__energy>  (46) 
-12.449999999999999

>  <m_primary>  (46) 
energy

$$$$
46:0
     RDKit          3D

 37 40  0  0  0  0  0  0  0  0999 V2000
   -4.2080   18.2540  -33.9660 O   0  0  0  0  0  0  0  0  0  0  0  0
   -3.8220   19.3900  -33.5710 C   0  0  0  0  0  0  0  0  0  0  0  0
   -2.5130   19.8190  -33.8530 C   0  0  0  0  0  0  0  0  0  0  0  0
   -1.6030   19.0290  -34.5810 C   0  0  0  0  0  0  0  0  0  0  0  0
   -0.3090   19.5010  -34.8290 C   0  0  0  0  0  0  0  0  0  0  0  0
    0.9250   18.4290  -35.8170 Br  0  0  0  0  0  0  0  0  0  0  0  0
    0.0840   20.7570  -34.3540 C   0  0  0  0  0  0  0  0  0  0  0  0
   -0.8150   21.5450  -33.6300 C   0  0  0  0  0  0  0  0  0  0  0  0
   -2.1110   21.0800  -33.3790 C   0  0  0  0  0  0  0  0  0  0  0  0
   -2.9810   21.8460  -32.6810 N   0  0  0  0  0  0  0  0  0  0  0  0
   -4.2460   21.4290  -32.4150 C   0  0  0  0  0  0  0  0  0  0  0  0
   -5.1410   22.3500  -31.6800 C   0  0  0  0  0  0  0  0  0  0  0  0
   -6.2400   22.9210  -32.3420 C   0  0  0  0  0  0  0  0  0  0  0  0
   -7.0970   23.7950  -31.6690 C   0  0  0  0  0  0  0  0  0  0  0  0
   -6.8600   24.1110  -30.3290 C   0  0  0  0  0  0  0  0  0  0  0  0
   -5.7670   23.5540  -29.6620 C   0  0  0  0  0  0  0  0  0  0  0  0
   -4.9030   22.6770  -30.3290 C   0  0  0  0  0  0  0  0  0  0  0  0
   -3.4470   21.9070  -29.3430 Br  0  0  0  0  0  0  0  0  0  0  0  0
   -4.6730   20.1960  -32.8550 N   0  0  0  0  0  0  0  0  0  0  0  0
   -5.9960   19.7200  -32.5340 C   0  0  0  0  0  0  0  0  0  0  0  0
   -7.1190   20.2490  -33.1920 C   0  0  0  0  0  0  0  0  0  0  0  0
   -8.3980   19.7730  -32.8930 C   0  0  0  0  0  0  0  0  0  0  0  0
   -8.5660   18.7700  -31.9340 C   0  0  0  0  0  0  0  0  0  0  0  0
   -7.4540   18.2420  -31.2720 C   0  0  0  0  0  0  0  0  0  0  0  0
   -6.1720   18.7150  -31.5680 C   0  0  0  0  0  0  0  0  0  0  0  0
   -1.9091   18.0408  -34.9549 H   0  0  0  0  0  0  0  0  0  0  0  0
    1.1019   21.1247  -34.5506 H   0  0  0  0  0  0  0  0  0  0  0  0
   -0.5036   22.5319  -33.2570 H   0  0  0  0  0  0  0  0  0  0  0  0
   -6.4274   22.6782  -33.3984 H   0  0  0  0  0  0  0  0  0  0  0  0
   -7.9581   24.2342  -32.1939 H   0  0  0  0  0  0  0  0  0  0  0  0
   -7.5349   24.7991  -29.7989 H   0  0  0  0  0  0  0  0  0  0  0  0
   -5.5838   23.8055  -28.6069 H   0  0  0  0  0  0  0  0  0  0  0  0
   -6.9908   21.0405  -33.9450 H   0  0  0  0  0  0  0  0  0  0  0  0
   -9.2740   20.1881  -33.4129 H   0  0  0  0  0  0  0  0  0  0  0  0
   -9.5737   18.3961  -31.7002 H   0  0  0  0  0  0  0  0  0  0  0  0
   -7.5876   17.4532  -30.5171 H   0  0  0  0  0  0  0  0  0  0  0  0
   -5.2991   18.2993  -31.0434 H   0  0  0  0  0  0  0  0  0  0  0  0
  1  2  2  0
  2  3  1  0
  3  4  2  0
  4  5  1  0
  5  6  1  0
  5  7  2  0
  7  8  1  0
  8  9  2  0
  9 10  1  0
 10 11  2  0
 11 12  1  0
 12 13  2  0
 13 14  1  0
 14 15  2  0
 15 16  1  0
 16 17  2  0
 17 18  1  0
 11 19  1  0
 19 20  1  0
 20 21  2  0
 21 22  1  0
 22 23  2  0
 23 24  1  0
 24 25  2  0
 19  2  1  0
 25 20  1  0
  9  3  1  0
 17 12  1  0
  4 26  1  0
  7 27  1  0
  8 28  1  0
 13 29  1  0
 14 30  1  0
 15 31  1  0
 16 32  1  0
 21 33  1  0
 22 34  1  0
 23 35  1  0
 24 36  1  0
 25 37  1  0
M  END
>  <UniqueID>  (47) 
45

>  <SMILES>  (47) 
O=c1c2cc(Br)ccc2nc(-c2ccccc2Br)n1-c1ccccc1

>  <Energy>  (47) 
62.62100929981568

>  <Genealogy>  (47) 
O=c1c2cc(Br)ccc2nc(-c2ccccc2Br)n1-c1ccccc1 (3D coordinates assigned)
O=c1c2cc(Br)ccc2nc(-c2ccccc2Br)n1-c1ccccc1 (optimized conformer: 62.62100929981568 kcal/mol)

>  <smiles>  (47) 
O=c1c2cc(Br)ccc2nc(-c2ccccc2Br)n1-c1ccccc1

>  <score_type>  (47) 
oracle

>  <origin>  (47) 
adgpu

>  <m_score__min__energy>  (47) 
-8.4499999999999993

>  <m_primary>  (47) 
energy

$$$$
47:0
     RDKit          3D

 39 41  0  0  0  0  0  0  0  0999 V2000
   -8.5314   21.2799  -31.2282 H   0  0  0  0  0  0  0  0  0  0  0  0
   -7.8940   22.1730  -31.1500 C   0  0  0  0  0  0  0  0  0  0  0  0
   -7.4120   22.7910  -32.3070 C   0  0  0  0  0  0  0  0  0  0  0  0
   -7.6706   22.3833  -33.2954 H   0  0  0  0  0  0  0  0  0  0  0  0
   -6.6020   23.9260  -32.2110 C   0  0  0  0  0  0  0  0  0  0  0  0
   -6.2247   24.4092  -33.1243 H   0  0  0  0  0  0  0  0  0  0  0  0
   -6.2680   24.4520  -30.9510 C   0  0  0  0  0  0  0  0  0  0  0  0
   -5.3640   25.6520  -30.8370 C   0  0  0  0  0  0  0  0  0  0  0  0
   -5.8623   26.4235  -30.2316 H   0  0  0  0  0  0  0  0  0  0  0  0
   -5.1555   26.0356  -31.8466 H   0  0  0  0  0  0  0  0  0  0  0  0
   -4.0990   25.2860  -30.2020 N   0  0  0  0  0  0  0  0  0  0  0  0
   -3.4540   24.1840  -30.4440 C   0  0  0  0  0  0  0  0  0  0  0  0
   -3.8770   23.2400  -31.3130 N   0  0  0  0  0  0  0  0  0  0  0  0
   -3.0240   22.1810  -31.3690 C   0  0  0  0  0  0  0  0  0  0  0  0
   -3.3170   21.0280  -32.2460 C   0  0  0  0  0  0  0  0  0  0  0  0
   -2.2910   20.4760  -33.0300 C   0  0  0  0  0  0  0  0  0  0  0  0
   -1.2831   20.9154  -32.9980 H   0  0  0  0  0  0  0  0  0  0  0  0
   -2.5410   19.3720  -33.8510 C   0  0  0  0  0  0  0  0  0  0  0  0
   -1.7322   18.9552  -34.4692 H   0  0  0  0  0  0  0  0  0  0  0  0
   -3.8220   18.7920  -33.8900 C   0  0  0  0  0  0  0  0  0  0  0  0
   -4.1240   17.6860  -34.6980 O   0  0  0  0  0  0  0  0  0  0  0  0
   -5.3090   16.9040  -34.5790 C   0  0  0  0  0  0  0  0  0  0  0  0
   -5.5417   16.7505  -33.5149 H   0  0  0  0  0  0  0  0  0  0  0  0
   -6.1448   17.4285  -35.0651 H   0  0  0  0  0  0  0  0  0  0  0  0
   -5.1554   15.9293  -35.0651 H   0  0  0  0  0  0  0  0  0  0  0  0
   -4.8390   19.3310  -33.0930 C   0  0  0  0  0  0  0  0  0  0  0  0
   -5.8431   18.8822  -33.1133 H   0  0  0  0  0  0  0  0  0  0  0  0
   -4.5900   20.4340  -32.2720 C   0  0  0  0  0  0  0  0  0  0  0  0
   -5.3955   20.8397  -31.6423 H   0  0  0  0  0  0  0  0  0  0  0  0
   -1.9190   22.2880  -30.5100 C   0  0  0  0  0  0  0  0  0  0  0  0
   -0.8310   21.2860  -30.2920 C   0  0  0  0  0  0  0  0  0  0  0  0
   -0.6754   21.1427  -29.2125 H   0  0  0  0  0  0  0  0  0  0  0  0
   -1.1170   20.3284  -30.7515 H   0  0  0  0  0  0  0  0  0  0  0  0
    0.0999   21.6497  -30.7515 H   0  0  0  0  0  0  0  0  0  0  0  0
   -2.0140   23.7620  -29.6970 S   0  0  0  0  0  0  0  0  0  0  0  0
   -6.7530   23.8240  -29.7930 C   0  0  0  0  0  0  0  0  0  0  0  0
   -6.4926   24.2254  -28.8025 H   0  0  0  0  0  0  0  0  0  0  0  0
   -7.5660   22.6900  -29.8930 C   0  0  0  0  0  0  0  0  0  0  0  0
   -7.9474   22.2049  -28.9824 H   0  0  0  0  0  0  0  0  0  0  0  0
  1  2  1  0
  2  3  2  0
  3  4  1  0
  3  5  1  0
  5  6  1  0
  5  7  2  0
  7  8  1  0
  8  9  1  0
  8 10  1  0
  8 11  1  0
 11 12  2  0
 12 13  1  0
 13 14  1  0
 14 15  1  0
 15 16  2  0
 16 17  1  0
 16 18  1  0
 18 19  1  0
 18 20  2  0
 20 21  1  0
 21 22  1  0
 22 23  1  0
 22 24  1  0
 22 25  1  0
 20 26  1  0
 26 27  1  0
 26 28  2  0
 28 29  1  0
 14 30  2  0
 30 31  1  0
 31 32  1  0
 31 33  1  0
 31 34  1  0
 30 35  1  0
  7 36  1  0
 36 37  1  0
 36 38  2  0
 38 39  1  0
 38  2  1  0
 35 12  1  0
 28 15  1  0
M  CHG  1  13  -1
M  END
>  <UniqueID>  (48) 
46

>  <SMILES>  (48) 
COc1ccc(-c2[n-]/c(=N\Cc3ccccc3)sc2C)cc1

>  <Energy>  (48) 
72.52573305733884

>  <Genealogy>  (48) 
COc1ccc(-c2[n-]c(=NCc3ccccc3)sc2C)cc1 (protonated)
COc1ccc(-c2[n-]/c(=N\Cc3ccccc3)sc2C)cc1 (cis-trans isomerization)
COc1ccc(-c2[n-]/c(=N\Cc3ccccc3)sc2C)cc1 (3D coordinates assigned)
COc1ccc(-c2[n-]/c(=N\Cc3ccccc3)sc2C)cc1 (optimized conformer: 72.52573305733884 kcal/mol)

>  <smiles>  (48) 
COc1ccc(-c2[nH]c(=NCc3ccccc3)sc2C)cc1

>  <score_type>  (48) 
oracle

>  <origin>  (48) 
adgpu

>  <m_score__min__energy>  (48) 
-8.4800000000000004

>  <m_primary>  (48) 
energy

$$$$
48:0
     RDKit          3D

 41 43  0  0  0  0  0  0  0  0999 V2000
   -2.0570   24.8580  -28.1980 C   0  0  0  0  0  0  0  0  0  0  0  0
   -2.7590   25.2910  -29.3600 O   0  0  0  0  0  0  0  0  0  0  0  0
   -3.9060   24.6680  -29.8700 C   0  0  0  0  0  0  0  0  0  0  0  0
   -4.9010   25.4700  -30.4410 C   0  0  0  0  0  0  0  0  0  0  0  0
   -6.0660   24.8980  -30.9590 C   0  0  0  0  0  0  0  0  0  0  0  0
   -6.2530   23.5070  -30.9140 C   0  0  0  0  0  0  0  0  0  0  0  0
   -7.5220   22.8880  -31.4330 C   0  0  0  0  0  0  0  0  0  0  0  0
   -7.2210   21.5890  -32.1210 C   0  0  0  0  0  0  0  0  0  0  0  0
   -6.1170   21.3890  -32.8680 N   0  0  0  0  0  0  0  0  0  0  0  0
   -6.1050   20.1090  -33.2090 N   0  0  0  0  0  0  0  0  0  0  0  0
   -7.1970   19.5470  -32.6590 C   0  0  0  0  0  0  0  0  0  0  0  0
   -7.5620   17.7940  -32.7710 S   0  0  0  0  0  0  0  0  0  0  0  0
   -5.8790   17.3870  -33.2610 C   0  0  0  0  0  0  0  0  0  0  0  0
   -5.1010   16.6070  -32.3940 C   0  0  0  0  0  0  0  0  0  0  0  0
   -3.7840   16.2820  -32.7240 C   0  0  0  0  0  0  0  0  0  0  0  0
   -3.2360   16.7270  -33.9280 C   0  0  0  0  0  0  0  0  0  0  0  0
   -4.0050   17.4940  -34.8070 C   0  0  0  0  0  0  0  0  0  0  0  0
   -5.3310   17.8290  -34.4860 C   0  0  0  0  0  0  0  0  0  0  0  0
   -6.0960   18.6150  -35.4100 N   0  0  0  0  0  0  0  0  0  0  0  0
   -7.9310   20.4490  -31.9800 N   0  0  0  0  0  0  0  0  0  0  0  0
   -9.1140   20.2140  -31.1570 C   0  0  0  0  0  0  0  0  0  0  0  0
   -5.2560   22.7000  -30.3450 C   0  0  0  0  0  0  0  0  0  0  0  0
   -4.0920   23.2730  -29.8250 C   0  0  0  0  0  0  0  0  0  0  0  0
   -2.5962   25.1906  -27.2987 H   0  0  0  0  0  0  0  0  0  0  0  0
   -1.9880   23.7602  -28.1991 H   0  0  0  0  0  0  0  0  0  0  0  0
   -1.0450   25.2890  -28.1991 H   0  0  0  0  0  0  0  0  0  0  0  0
   -4.7646   26.5607  -30.4824 H   0  0  0  0  0  0  0  0  0  0  0  0
   -6.8402   25.5403  -31.4041 H   0  0  0  0  0  0  0  0  0  0  0  0
   -8.2068   22.7037  -30.5921 H   0  0  0  0  0  0  0  0  0  0  0  0
   -7.9886   23.5761  -32.1533 H   0  0  0  0  0  0  0  0  0  0  0  0
   -5.5312   16.2486  -31.4472 H   0  0  0  0  0  0  0  0  0  0  0  0
   -3.1782   15.6751  -32.0350 H   0  0  0  0  0  0  0  0  0  0  0  0
   -2.1970   16.4735  -34.1853 H   0  0  0  0  0  0  0  0  0  0  0  0
   -3.5692   17.8378  -35.7567 H   0  0  0  0  0  0  0  0  0  0  0  0
   -5.9430   18.5660  -36.4410 H   0  0  0  0  0  0  0  0  0  0  0  0
   -6.8440   19.2570  -35.0650 H   0  0  0  0  0  0  0  0  0  0  0  0
   -8.8377   20.2689  -30.0937 H   0  0  0  0  0  0  0  0  0  0  0  0
   -9.8727   20.9790  -31.3787 H   0  0  0  0  0  0  0  0  0  0  0  0
   -9.5227   19.2171  -31.3787 H   0  0  0  0  0  0  0  0  0  0  0  0
   -5.3914   21.6090  -30.3079 H   0  0  0  0  0  0  0  0  0  0  0  0
   -3.3179   22.6314  -29.3787 H   0  0  0  0  0  0  0  0  0  0  0  0
  1  2  1  0
  2  3  1  0
  3  4  2  0
  4  5  1  0
  5  6  2  0
  6  7  1  0
  7  8  1  0
  8  9  2  0
  9 10  1  0
 10 11  2  0
 11 12  1  0
 12 13  1  0
 13 14  2  0
 14 15  1  0
 15 16  2  0
 16 17  1  0
 17 18  2  0
 18 19  1  0
 11 20  1  0
 20 21  1  0
  6 22  1  0
 22 23  2  0
 23  3  1  0
 20  8  1  0
 18 13  1  0
  1 24  1  0
  1 25  1  0
  1 26  1  0
  4 27  1  0
  5 28  1  0
  7 29  1  0
  7 30  1  0
 14 31  1  0
 15 32  1  0
 16 33  1  0
 17 34  1  0
 19 35  1  0
 19 36  1  0
 21 37  1  0
 21 38  1  0
 21 39  1  0
 22 40  1  0
 23 41  1  0
M  END
>  <UniqueID>  (49) 
47

>  <SMILES>  (49) 
COc1ccc(Cc2nnc(Sc3ccccc3N)n2C)cc1

>  <Energy>  (49) 
70.36518769600129

>  <Genealogy>  (49) 
COc1ccc(Cc2nnc(Sc3ccccc3N)n2C)cc1 (3D coordinates assigned)
COc1ccc(Cc2nnc(Sc3ccccc3N)n2C)cc1 (optimized conformer: 70.36518769600129 kcal/mol)

>  <smiles>  (49) 
COc1ccc(Cc2nnc(Sc3ccccc3N)n2C)cc1

>  <score_type>  (49) 
oracle

>  <origin>  (49) 
adgpu

>  <m_score__min__energy>  (49) 
-8.1799999999999997

>  <m_primary>  (49) 
energy

$$$$
