0:0
     RDKit          3D

 37 39  0  0  0  0  0  0  0  0999 V2000
   -0.1100   25.6550  -28.9670 H   0  0  0  0  0  0  0  0  0  0  0  0
   -0.1890   24.6180  -28.8750 N   0  0  0  0  0  0  0  0  0  0  0  0
   -1.3400   24.0340  -28.7860 C   0  0  0  0  0  0  0  0  0  0  0  0
   -2.4820   24.7650  -28.8130 N   0  0  0  0  0  0  0  0  0  0  0  0
   -3.6910   24.1510  -28.7180 C   0  0  0  0  0  0  0  0  0  0  0  0
   -4.8990   24.9150  -28.7400 N   0  0  0  0  0  0  0  0  0  0  0  0
   -5.1920   25.4370  -27.8840 H   0  0  0  0  0  0  0  0  0  0  0  0
   -5.8900   25.0240  -30.1560 S   0  0  0  0  0  0  0  0  0  0  0  0
   -7.2380   25.5760  -29.7790 O   0  0  0  0  0  0  0  0  0  0  0  0
   -5.2490   25.9560  -31.1460 O   0  0  0  0  0  0  0  0  0  0  0  0
   -6.0500   23.4320  -30.8890 C   0  0  0  0  0  0  0  0  0  0  0  0
   -4.9830   22.8580  -31.5980 C   0  0  0  0  0  0  0  0  0  0  0  0
   -4.0268   23.3955  -31.6799 H   0  0  0  0  0  0  0  0  0  0  0  0
   -5.1320   21.6060  -32.2000 C   0  0  0  0  0  0  0  0  0  0  0  0
   -4.2934   21.1598  -32.7547 H   0  0  0  0  0  0  0  0  0  0  0  0
   -6.3470   20.9190  -32.0980 C   0  0  0  0  0  0  0  0  0  0  0  0
   -6.5500   19.2090  -32.9230 Br  0  0  0  0  0  0  0  0  0  0  0  0
   -7.4140   21.4890  -31.3950 C   0  0  0  0  0  0  0  0  0  0  0  0
   -8.3696   20.9503  -31.3144 H   0  0  0  0  0  0  0  0  0  0  0  0
   -7.2660   22.7430  -30.7950 C   0  0  0  0  0  0  0  0  0  0  0  0
   -8.1081   23.1906  -30.2467 H   0  0  0  0  0  0  0  0  0  0  0  0
   -3.7480   22.8000  -28.5970 N   0  0  0  0  0  0  0  0  0  0  0  0
   -2.6100   22.0620  -28.5610 C   0  0  0  0  0  0  0  0  0  0  0  0
   -2.6960   20.7660  -28.4690 N   0  0  0  0  0  0  0  0  0  0  0  0
   -1.6090   19.8330  -28.3690 C   0  0  0  0  0  0  0  0  0  0  0  0
   -0.5500   19.8160  -29.2980 C   0  0  0  0  0  0  0  0  0  0  0  0
   -0.5567   20.5141  -30.1481 H   0  0  0  0  0  0  0  0  0  0  0  0
    0.5100   18.9160  -29.1450 C   0  0  0  0  0  0  0  0  0  0  0  0
    1.3265   18.8987  -29.8819 H   0  0  0  0  0  0  0  0  0  0  0  0
    0.5330   18.0370  -28.0550 C   0  0  0  0  0  0  0  0  0  0  0  0
    1.6250   17.1120  -27.8960 C   0  0  0  0  0  0  0  0  0  0  0  0
    2.5010   16.3690  -27.7700 N   0  0  0  0  0  0  0  0  0  0  0  0
   -0.5010   18.0720  -27.1110 C   0  0  0  0  0  0  0  0  0  0  0  0
   -0.4806   17.3895  -26.2486 H   0  0  0  0  0  0  0  0  0  0  0  0
   -1.5590   18.9730  -27.2630 C   0  0  0  0  0  0  0  0  0  0  0  0
   -2.3588   19.0074  -26.5086 H   0  0  0  0  0  0  0  0  0  0  0  0
   -1.4050   22.6850  -28.6650 N   0  0  0  0  0  0  0  0  0  0  0  0
  1  2  1  0
  2  3  2  0
  3  4  1  0
  4  5  2  0
  5  6  1  0
  6  7  1  0
  6  8  1  0
  8  9  2  0
  8 10  2  0
  8 11  1  0
 11 12  2  0
 12 13  1  0
 12 14  1  0
 14 15  1  0
 14 16  2  0
 16 17  1  0
 16 18  1  0
 18 19  1  0
 18 20  2  0
 20 21  1  0
  5 22  1  0
 22 23  1  0
 23 24  2  3
 24 25  1  0
 25 26  2  0
 26 27  1  0
 26 28  1  0
 28 29  1  0
 28 30  2  0
 30 31  1  0
 31 32  3  0
 30 33  1  0
 33 34  1  0
 33 35  2  0
 35 36  1  0
 23 37  1  0
 37  3  1  0
 20 11  1  0
 35 25  1  0
M  CHG  2  22  -1  37  -1
M  END
>  <UniqueID>  (1) 
1

>  <SMILES>  (1) 
[H]/N=c1\nc(NS(=O)(=O)c2ccc(Br)cc2)[n-]c(=Nc2ccc(C#N)cc2)[n-]1

>  <Energy>  (1) 
46.20603127321294

>  <Genealogy>  (1) 
N#Cc1ccc(N=c2[n-]c(NS(=O)(=O)c3ccc(Br)cc3)nc(=N)[n-]2)cc1 (protonated)
[H]/N=c1\nc(NS(=O)(=O)c2ccc(Br)cc2)[n-]c(=Nc2ccc(C#N)cc2)[n-]1 (cis-trans isomerization)
[H]/N=c1\nc(NS(=O)(=O)c2ccc(Br)cc2)[n-]c(=Nc2ccc(C#N)cc2)[n-]1 (3D coordinates assigned)
[H]/N=c1\nc(NS(=O)(=O)c2ccc(Br)cc2)[n-]c(=Nc2ccc(C#N)cc2)[n-]1 (optimized conformer: 46.20603127321294 kcal/mol)

>  <smiles>  (1) 
N#Cc1ccc(N=c2[nH]c(NS(=O)(=O)c3ccc(Br)cc3)nc(=N)[nH]2)cc1

>  <score_type>  (1) 
oracle

>  <origin>  (1) 
adgpu

>  <m_score__min__energy>  (1) 
-10.710000000000001

>  <m_primary>  (1) 
energy

$$$$
1:0
     RDKit          3D

 64 67  0  0  0  0  0  0  0  0999 V2000
   -4.5430   16.1230  -34.5810 C   0  0  0  0  0  0  0  0  0  0  0  0
   -5.5920   16.9790  -34.0070 N   0  0  0  0  0  0  0  0  0  0  0  0
   -5.5300   18.3320  -34.5970 C   0  0  0  0  0  0  0  0  0  0  0  0
   -6.4390   19.3320  -33.8470 C   0  0  0  0  0  0  0  0  0  0  0  0
   -7.3600   18.6370  -32.9270 N   0  0  0  0  0  0  0  0  0  0  0  0
   -8.3860   19.7970  -32.1190 S   0  0  0  0  0  0  0  0  0  0  0  0
   -9.4380   20.2940  -33.0730 O   0  0  0  0  0  0  0  0  0  0  0  0
   -9.0760   19.1500  -30.9490 O   0  0  0  0  0  0  0  0  0  0  0  0
   -7.4380   21.1710  -31.5570 C   0  0  0  0  0  0  0  0  0  0  0  0
   -6.0400   21.1110  -31.5460 C   0  0  0  0  0  0  0  0  0  0  0  0
   -5.2950   22.1820  -31.0480 C   0  0  0  0  0  0  0  0  0  0  0  0
   -5.9380   23.3100  -30.5200 C   0  0  0  0  0  0  0  0  0  0  0  0
   -4.9970   24.6260  -29.8020 S   0  0  0  0  0  0  0  0  0  0  0  0
   -5.9400   25.6450  -29.2240 O   0  0  0  0  0  0  0  0  0  0  0  0
   -4.2170   25.2960  -30.8990 O   0  0  0  0  0  0  0  0  0  0  0  0
   -3.8950   24.1060  -28.5370 N   0  0  0  0  0  0  0  0  0  0  0  0
   -2.4870   24.4650  -28.7840 C   0  0  0  0  0  0  0  0  0  0  0  0
   -1.9520   25.2930  -27.6470 C   0  0  0  0  0  0  0  0  0  0  0  0
   -2.5450   25.2400  -26.3720 C   0  0  0  0  0  0  0  0  0  0  0  0
   -2.0300   26.0060  -25.3230 C   0  0  0  0  0  0  0  0  0  0  0  0
   -0.9280   26.8390  -25.5380 C   0  0  0  0  0  0  0  0  0  0  0  0
   -0.3420   26.9100  -26.8060 C   0  0  0  0  0  0  0  0  0  0  0  0
   -0.8520   26.1440  -27.8580 C   0  0  0  0  0  0  0  0  0  0  0  0
   -4.1090   22.7180  -28.0690 C   0  0  0  0  0  0  0  0  0  0  0  0
   -2.8990   21.8150  -28.1850 C   0  0  0  0  0  0  0  0  0  0  0  0
   -2.0550   21.6350  -27.0740 C   0  0  0  0  0  0  0  0  0  0  0  0
   -0.9220   20.8210  -27.1680 C   0  0  0  0  0  0  0  0  0  0  0  0
   -0.6170   20.1820  -28.3720 C   0  0  0  0  0  0  0  0  0  0  0  0
    0.4710   19.3780  -28.4560 F   0  0  0  0  0  0  0  0  0  0  0  0
   -1.4330   20.3750  -29.4880 C   0  0  0  0  0  0  0  0  0  0  0  0
   -2.5590   21.2020  -29.4020 C   0  0  0  0  0  0  0  0  0  0  0  0
   -7.3360   23.3970  -30.5990 C   0  0  0  0  0  0  0  0  0  0  0  0
   -8.0830   22.3300  -31.1070 C   0  0  0  0  0  0  0  0  0  0  0  0
   -6.6190   17.8450  -31.9220 C   0  0  0  0  0  0  0  0  0  0  0  0
   -5.4490   17.0510  -32.5420 C   0  0  0  0  0  0  0  0  0  0  0  0
   -3.9678   15.6536  -33.7693 H   0  0  0  0  0  0  0  0  0  0  0  0
   -5.0061   15.3417  -35.2015 H   0  0  0  0  0  0  0  0  0  0  0  0
   -3.8704   16.7334  -35.2015 H   0  0  0  0  0  0  0  0  0  0  0  0
   -4.4917   18.6923  -34.5512 H   0  0  0  0  0  0  0  0  0  0  0  0
   -5.8823   18.2660  -35.6370 H   0  0  0  0  0  0  0  0  0  0  0  0
   -5.8092   20.0235  -33.2681 H   0  0  0  0  0  0  0  0  0  0  0  0
   -7.0387   19.8788  -34.5895 H   0  0  0  0  0  0  0  0  0  0  0  0
   -7.9830   18.0010  -33.4790 H   0  0  0  0  0  0  0  0  0  0  0  0
   -5.5264   20.2176  -31.9308 H   0  0  0  0  0  0  0  0  0  0  0  0
   -4.1960   22.1401  -31.0702 H   0  0  0  0  0  0  0  0  0  0  0  0
   -1.8891   23.5463  -28.8766 H   0  0  0  0  0  0  0  0  0  0  0  0
   -2.4247   25.0504  -29.7132 H   0  0  0  0  0  0  0  0  0  0  0  0
   -3.4177   24.5928  -26.2004 H   0  0  0  0  0  0  0  0  0  0  0  0
   -2.4924   25.9535  -24.3263 H   0  0  0  0  0  0  0  0  0  0  0  0
   -0.5218   27.4385  -24.7100 H   0  0  0  0  0  0  0  0  0  0  0  0
    0.5217   27.5698  -26.9756 H   0  0  0  0  0  0  0  0  0  0  0  0
   -0.3913   26.2069  -28.8549 H   0  0  0  0  0  0  0  0  0  0  0  0
   -4.4076   22.7558  -27.0110 H   0  0  0  0  0  0  0  0  0  0  0  0
   -4.8812   22.2864  -28.7228 H   0  0  0  0  0  0  0  0  0  0  0  0
   -2.2881   22.1384  -26.1242 H   0  0  0  0  0  0  0  0  0  0  0  0
   -0.2701   20.6837  -26.2927 H   0  0  0  0  0  0  0  0  0  0  0  0
   -1.1904   19.8758  -30.4377 H   0  0  0  0  0  0  0  0  0  0  0  0
   -3.1813   21.3728  -30.2929 H   0  0  0  0  0  0  0  0  0  0  0  0
   -7.8472   24.3098  -30.2593 H   0  0  0  0  0  0  0  0  0  0  0  0
   -9.1797   22.4009  -31.1534 H   0  0  0  0  0  0  0  0  0  0  0  0
   -6.2168   18.5290  -31.1602 H   0  0  0  0  0  0  0  0  0  0  0  0
   -7.3205   17.1199  -31.4838 H   0  0  0  0  0  0  0  0  0  0  0  0
   -4.5011   17.5515  -32.2951 H   0  0  0  0  0  0  0  0  0  0  0  0
   -5.4567   16.0297  -32.1335 H   0  0  0  0  0  0  0  0  0  0  0  0
  1  2  1  0
  2  3  1  0
  3  4  1  0
  4  5  1  0
  5  6  1  0
  6  7  2  0
  6  8  2  0
  6  9  1  0
  9 10  2  0
 10 11  1  0
 11 12  2  0
 12 13  1  0
 13 14  2  0
 13 15  2  0
 13 16  1  0
 16 17  1  0
 17 18  1  0
 18 19  2  0
 19 20  1  0
 20 21  2  0
 21 22  1  0
 22 23  2  0
 16 24  1  0
 24 25  1  0
 25 26  2  0
 26 27  1  0
 27 28  2  0
 28 29  1  0
 28 30  1  0
 30 31  2  0
 12 32  1  0
 32 33  2  0
  5 34  1  0
 34 35  1  0
 35  2  1  0
 33  9  1  0
 23 18  1  0
 31 25  1  0
  1 36  1  0
  1 37  1  0
  1 38  1  0
  3 39  1  0
  3 40  1  0
  4 41  1  0
  4 42  1  0
  5 43  1  0
 10 44  1  0
 11 45  1  0
 17 46  1  0
 17 47  1  0
 19 48  1  0
 20 49  1  0
 21 50  1  0
 22 51  1  0
 23 52  1  0
 24 53  1  0
 24 54  1  0
 26 55  1  0
 27 56  1  0
 30 57  1  0
 31 58  1  0
 32 59  1  0
 33 60  1  0
 34 61  1  0
 34 62  1  0
 35 63  1  0
 35 64  1  0
M  CHG  1   5   1
M  END
>  <UniqueID>  (2) 
2

>  <SMILES>  (2) 
CN1CC[NH+](S(=O)(=O)c2ccc(S(=O)(=O)N(Cc3ccccc3)Cc3ccc(F)cc3)cc2)CC1

>  <Energy>  (2) 
75.71625224474528

>  <Genealogy>  (2) 
CN1CC[NH+](S(=O)(=O)c2ccc(S(=O)(=O)N(Cc3ccccc3)Cc3ccc(F)cc3)cc2)CC1 (protonated)
CN1CC[NH+](S(=O)(=O)c2ccc(S(=O)(=O)N(Cc3ccccc3)Cc3ccc(F)cc3)cc2)CC1 (3D coordinates assigned)
CN1CC[NH+](S(=O)(=O)c2ccc(S(=O)(=O)N(Cc3ccccc3)Cc3ccc(F)cc3)cc2)CC1 (nonaromatic ring conformer: 75.71625224474528 kcal/mol)

>  <smiles>  (2) 
CN1CCN(S(=O)(=O)c2ccc(S(=O)(=O)N(Cc3ccccc3)Cc3ccc(F)cc3)cc2)CC1

>  <score_type>  (2) 
oracle

>  <origin>  (2) 
adgpu

>  <m_score__min__energy>  (2) 
-10.99

>  <m_primary>  (2) 
energy

$$$$
2:0
     RDKit          3D

 34 36  0  0  1  0  0  0  0  0999 V2000
   -9.3280   18.1830  -31.3070 O   0  0  0  0  0  0  0  0  0  0  0  0
   -8.7900   18.9660  -32.1650 C   0  0  0  0  0  0  0  0  0  0  0  0
   -9.4480   20.2060  -32.3450 N   0  0  0  0  0  0  0  0  0  0  0  0
   -8.7940   21.2620  -31.9900 C   0  0  0  0  0  0  0  0  0  0  0  0
   -7.5230   21.3680  -31.4480 C   0  0  0  0  0  0  0  0  0  0  0  0
   -7.3370   22.7440  -31.3110 C   0  0  0  0  0  0  0  0  0  0  0  0
   -6.0960   23.3530  -30.8080 C   0  0  0  0  0  0  0  0  0  0  0  0
   -4.9770   22.5580  -30.5160 C   0  0  0  0  0  0  0  0  0  0  0  0
   -3.8380   23.1760  -30.0380 C   0  0  0  0  0  0  0  0  0  0  0  0
   -3.8110   24.5430  -29.8570 C   0  0  0  0  0  0  0  0  0  0  0  0
   -2.6520   25.1470  -29.3710 O   0  0  0  0  0  0  0  0  0  0  0  0
   -4.9000   25.3600  -30.1360 C   0  0  0  0  0  0  0  0  0  0  0  0
   -6.0490   24.7230  -30.6200 C   0  0  0  0  0  0  0  0  0  0  0  0
   -8.4140   23.4010  -31.7350 N   0  0  0  0  0  0  0  0  0  0  0  0
   -9.3280   22.5030  -32.1600 N   0  0  0  0  0  0  0  0  0  0  0  0
   -7.5980   18.5380  -32.8520 C   0  0  0  0  0  0  0  0  0  0  0  0
   -6.8070   19.3350  -33.6390 C   0  0  0  0  0  0  0  0  0  0  0  0
   -5.6680   18.8130  -34.2500 C   0  0  0  0  0  0  0  0  0  0  0  0
   -5.2650   17.5200  -34.1200 C   0  0  0  0  0  0  0  0  0  0  0  0
   -6.0810   16.7080  -33.3110 C   0  0  0  0  0  0  0  0  0  0  0  0
   -7.1920   17.2040  -32.7130 C   0  0  0  0  0  0  0  0  0  0  0  0
   -6.8254   20.5584  -31.1873 H   0  0  0  0  0  0  0  0  0  0  0  0
   -5.0063   21.4684  -30.6643 H   0  0  0  0  0  0  0  0  0  0  0  0
   -2.9479   22.5749  -29.8005 H   0  0  0  0  0  0  0  0  0  0  0  0
   -2.0420   25.6710  -29.9710 H   0  0  0  0  0  0  0  0  0  0  0  0
   -4.8613   26.4489  -29.9847 H   0  0  0  0  0  0  0  0  0  0  0  0
   -6.9372   25.3272  -30.8569 H   0  0  0  0  0  0  0  0  0  0  0  0
   -8.6120   24.4340  -31.7730 H   0  0  0  0  0  0  0  0  0  0  0  0
  -10.2680   22.7570  -32.5460 H   0  0  0  0  0  0  0  0  0  0  0  0
   -7.0727   20.3918  -33.7890 H   0  0  0  0  0  0  0  0  0  0  0  0
   -5.0599   19.4852  -34.8732 H   0  0  0  0  0  0  0  0  0  0  0  0
   -4.3611   17.1349  -34.6146 H   0  0  0  0  0  0  0  0  0  0  0  0
   -5.8127   15.6518  -33.1610 H   0  0  0  0  0  0  0  0  0  0  0  0
   -7.8009   16.5304  -32.0921 H   0  0  0  0  0  0  0  0  0  0  0  0
  1  2  2  0
  2  3  1  0
  3  4  2  0
  4  5  1  0
  5  6  2  0
  6  7  1  0
  7  8  2  0
  8  9  1  0
  9 10  2  0
 10 11  1  0
 10 12  1  0
 12 13  2  0
  6 14  1  0
 14 15  1  0
  2 16  1  0
 16 17  2  0
 17 18  1  0
 18 19  2  0
 19 20  1  0
 20 21  2  0
 15  4  1  0
 21 16  1  0
 13  7  1  0
  5 22  1  0
  8 23  1  0
  9 24  1  0
 11 25  1  0
 12 26  1  0
 13 27  1  0
 14 28  1  0
 15 29  1  0
 17 30  1  0
 18 31  1  0
 19 32  1  0
 20 33  1  0
 21 34  1  0
M  END
>  <smiles>  (3) 
O=C(N=c1cc(-c2ccc(O)cc2)[nH][nH]1)c1ccccc1

>  <score_type>  (3) 
oracle

>  <origin>  (3) 
adgpu

>  <m_score__min__energy>  (3) 
-9.0999999999999996

>  <m_primary>  (3) 
energy

$$$$
3:0
     RDKit          3D

 48 51  0  0  0  0  0  0  0  0999 V2000
   -8.3620   18.4460  -31.9700 O   0  0  0  0  0  0  0  0  0  0  0  0
   -7.4010   19.2350  -32.1790 C   0  0  0  0  0  0  0  0  0  0  0  0
   -6.1350   18.7210  -32.6330 N   0  0  0  0  0  0  0  0  0  0  0  0
   -5.9010   17.3410  -32.9610 C   0  0  0  0  0  0  0  0  0  0  0  0
   -4.8620   16.6080  -32.3580 C   0  0  0  0  0  0  0  0  0  0  0  0
   -4.6730   15.2590  -32.6760 C   0  0  0  0  0  0  0  0  0  0  0  0
   -5.5270   14.6270  -33.5840 C   0  0  0  0  0  0  0  0  0  0  0  0
   -6.5750   15.3410  -34.1690 C   0  0  0  0  0  0  0  0  0  0  0  0
   -6.7680   16.6900  -33.8530 C   0  0  0  0  0  0  0  0  0  0  0  0
   -7.6010   20.6850  -31.9400 C   0  0  0  0  0  0  0  0  0  0  0  0
   -8.8540   21.2670  -32.1990 C   0  0  0  0  0  0  0  0  0  0  0  0
   -9.0650   22.6290  -31.9680 C   0  0  0  0  0  0  0  0  0  0  0  0
   -8.0310   23.4240  -31.4710 C   0  0  0  0  0  0  0  0  0  0  0  0
   -6.7790   22.8600  -31.2000 C   0  0  0  0  0  0  0  0  0  0  0  0
   -5.4820   23.8490  -30.5270 S   0  0  0  0  0  0  0  0  0  0  0  0
   -6.0050   24.6180  -29.3470 O   0  0  0  0  0  0  0  0  0  0  0  0
   -5.0360   24.8200  -31.5860 O   0  0  0  0  0  0  0  0  0  0  0  0
   -4.1340   22.8600  -30.0260 N   0  0  0  0  0  0  0  0  0  0  0  0
   -3.8570   22.7790  -28.5840 C   0  0  0  0  0  0  0  0  0  0  0  0
   -2.4950   22.1480  -28.2940 C   0  0  0  0  0  0  0  0  0  0  0  0
   -2.3750   20.8030  -29.0030 C   0  0  0  0  0  0  0  0  0  0  0  0
   -2.5920   20.9700  -30.4810 C   0  0  0  0  0  0  0  0  0  0  0  0
   -1.9640   20.0920  -31.3790 C   0  0  0  0  0  0  0  0  0  0  0  0
   -2.1580   20.2320  -32.7530 C   0  0  0  0  0  0  0  0  0  0  0  0
   -2.9810   21.2450  -33.2410 C   0  0  0  0  0  0  0  0  0  0  0  0
   -3.6280   22.1140  -32.3580 C   0  0  0  0  0  0  0  0  0  0  0  0
   -3.4620   21.9760  -30.9630 C   0  0  0  0  0  0  0  0  0  0  0  0
   -6.5690   21.4920  -31.4260 C   0  0  0  0  0  0  0  0  0  0  0  0
   -5.3130   19.3630  -32.6870 H   0  0  0  0  0  0  0  0  0  0  0  0
   -4.1954   17.0982  -31.6332 H   0  0  0  0  0  0  0  0  0  0  0  0
   -3.8512   14.6949  -32.2108 H   0  0  0  0  0  0  0  0  0  0  0  0
   -5.3738   13.5677  -33.8378 H   0  0  0  0  0  0  0  0  0  0  0  0
   -7.2500   14.8417  -34.8796 H   0  0  0  0  0  0  0  0  0  0  0  0
   -7.6036   17.2438  -34.3059 H   0  0  0  0  0  0  0  0  0  0  0  0
   -9.6748   20.6456  -32.5865 H   0  0  0  0  0  0  0  0  0  0  0  0
  -10.0481   23.0755  -32.1783 H   0  0  0  0  0  0  0  0  0  0  0  0
   -8.2004   24.4960  -31.2919 H   0  0  0  0  0  0  0  0  0  0  0  0
   -3.8743   23.7947  -28.1620 H   0  0  0  0  0  0  0  0  0  0  0  0
   -4.6290   22.1431  -28.1262 H   0  0  0  0  0  0  0  0  0  0  0  0
   -1.7002   22.8192  -28.6515 H   0  0  0  0  0  0  0  0  0  0  0  0
   -2.3957   21.9919  -27.2097 H   0  0  0  0  0  0  0  0  0  0  0  0
   -1.3709   20.3893  -28.8283 H   0  0  0  0  0  0  0  0  0  0  0  0
   -3.1393   20.1196  -28.6046 H   0  0  0  0  0  0  0  0  0  0  0  0
   -1.3157   19.2897  -30.9968 H   0  0  0  0  0  0  0  0  0  0  0  0
   -1.6612   19.5426  -33.4516 H   0  0  0  0  0  0  0  0  0  0  0  0
   -3.1221   21.3612  -34.3257 H   0  0  0  0  0  0  0  0  0  0  0  0
   -4.2725   22.9128  -32.7537 H   0  0  0  0  0  0  0  0  0  0  0  0
   -5.5893   21.0460  -31.1996 H   0  0  0  0  0  0  0  0  0  0  0  0
  1  2  2  0
  2  3  1  0
  3  4  1  0
  4  5  2  0
  5  6  1  0
  6  7  2  0
  7  8  1  0
  8  9  2  0
  2 10  1  0
 10 11  2  0
 11 12  1  0
 12 13  2  0
 13 14  1  0
 14 15  1  0
 15 16  2  0
 15 17  2  0
 15 18  1  0
 18 19  1  0
 19 20  1  0
 20 21  1  0
 21 22  1  0
 22 23  2  0
 23 24  1  0
 24 25  2  0
 25 26  1  0
 26 27  2  0
 14 28  2  0
  9  4  1  0
 28 10  1  0
 27 18  1  0
 27 22  1  0
  3 29  1  0
  5 30  1  0
  6 31  1  0
  7 32  1  0
  8 33  1  0
  9 34  1  0
 11 35  1  0
 12 36  1  0
 13 37  1  0
 19 38  1  0
 19 39  1  0
 20 40  1  0
 20 41  1  0
 21 42  1  0
 21 43  1  0
 23 44  1  0
 24 45  1  0
 25 46  1  0
 26 47  1  0
 28 48  1  0
M  END
>  <UniqueID>  (4) 
3

>  <SMILES>  (4) 
O=C(Nc1ccccc1)c1cccc(S(=O)(=O)N2CCCc3ccccc32)c1

>  <Energy>  (4) 
62.929014506671244

>  <Genealogy>  (4) 
O=C(Nc1ccccc1)c1cccc(S(=O)(=O)N2CCCc3ccccc32)c1 (3D coordinates assigned)
O=C(Nc1ccccc1)c1cccc(S(=O)(=O)N2CCCc3ccccc32)c1 (nonaromatic ring conformer: 62.929014506671244 kcal/mol)

>  <smiles>  (4) 
O=C(Nc1ccccc1)c1cccc(S(=O)(=O)N2CCCc3ccccc32)c1

>  <score_type>  (4) 
oracle

>  <origin>  (4) 
adgpu

>  <m_score__min__energy>  (4) 
-10.18

>  <m_primary>  (4) 
energy

$$$$
4:0
     RDKit          3D

 49 52  0  0  0  0  0  0  0  0999 V2000
   -8.8750   18.5320  -31.6380 C   0  0  0  0  0  0  0  0  0  0  0  0
   -8.5740   19.5260  -32.7550 C   0  0  0  0  0  0  0  0  0  0  0  0
   -7.3560   20.3540  -32.4220 C   0  0  0  0  0  0  0  0  0  0  0  0
   -7.4940   21.2410  -31.4010 N   0  0  0  0  0  0  0  0  0  0  0  0
   -6.5260   22.1260  -31.0800 C   0  0  0  0  0  0  0  0  0  0  0  0
   -6.7080   23.0040  -30.0070 C   0  0  0  0  0  0  0  0  0  0  0  0
   -5.7180   23.9360  -29.6880 C   0  0  0  0  0  0  0  0  0  0  0  0
   -4.5430   24.0110  -30.4560 C   0  0  0  0  0  0  0  0  0  0  0  0
   -3.5020   24.9500  -30.1490 N   0  0  0  0  0  0  0  0  0  0  0  0
   -2.3420   24.6940  -29.3460 C   0  0  0  0  0  0  0  0  0  0  0  0
   -1.6420   25.6720  -28.9710 O   0  0  0  0  0  0  0  0  0  0  0  0
   -1.9770   23.3270  -28.9040 C   0  0  0  0  0  0  0  0  0  0  0  0
   -1.3580   22.4240  -29.7880 C   0  0  0  0  0  0  0  0  0  0  0  0
   -1.0200   21.1360  -29.3620 C   0  0  0  0  0  0  0  0  0  0  0  0
   -1.3070   20.7330  -28.0560 C   0  0  0  0  0  0  0  0  0  0  0  0
   -1.9360   21.6150  -27.1740 C   0  0  0  0  0  0  0  0  0  0  0  0
   -2.2760   22.9050  -27.5970 C   0  0  0  0  0  0  0  0  0  0  0  0
   -4.3560   23.1180  -31.5190 C   0  0  0  0  0  0  0  0  0  0  0  0
   -5.3500   22.1740  -31.8410 C   0  0  0  0  0  0  0  0  0  0  0  0
   -5.2100   21.2650  -32.9050 C   0  0  0  0  0  0  0  0  0  0  0  0
   -4.1690   21.3190  -33.6200 O   0  0  0  0  0  0  0  0  0  0  0  0
   -6.1880   20.3270  -33.1630 N   0  0  0  0  0  0  0  0  0  0  0  0
   -5.9910   19.3500  -34.2640 C   0  0  0  0  0  0  0  0  0  0  0  0
   -5.6190   17.9570  -33.7770 C   0  0  0  0  0  0  0  0  0  0  0  0
   -6.5800   16.9310  -33.8890 C   0  0  0  0  0  0  0  0  0  0  0  0
   -6.2910   15.6300  -33.4780 C   0  0  0  0  0  0  0  0  0  0  0  0
   -5.0300   15.3200  -32.9710 C   0  0  0  0  0  0  0  0  0  0  0  0
   -4.6690   13.6820  -32.4560 Cl  0  0  0  0  0  0  0  0  0  0  0  0
   -4.0510   16.3110  -32.8910 C   0  0  0  0  0  0  0  0  0  0  0  0
   -4.3270   17.6210  -33.3010 C   0  0  0  0  0  0  0  0  0  0  0  0
   -3.0020   18.7730  -33.2390 Cl  0  0  0  0  0  0  0  0  0  0  0  0
   -8.7272   19.0200  -30.6633 H   0  0  0  0  0  0  0  0  0  0  0  0
   -9.9170   18.1899  -31.7226 H   0  0  0  0  0  0  0  0  0  0  0  0
   -8.1978   17.6693  -31.7226 H   0  0  0  0  0  0  0  0  0  0  0  0
   -8.3908   18.9744  -33.6889 H   0  0  0  0  0  0  0  0  0  0  0  0
   -9.4368   20.1985  -32.8705 H   0  0  0  0  0  0  0  0  0  0  0  0
   -7.6328   22.9605  -29.4130 H   0  0  0  0  0  0  0  0  0  0  0  0
   -5.8582   24.6136  -28.8329 H   0  0  0  0  0  0  0  0  0  0  0  0
   -1.1387   22.7334  -30.8206 H   0  0  0  0  0  0  0  0  0  0  0  0
   -0.5275   20.4393  -30.0563 H   0  0  0  0  0  0  0  0  0  0  0  0
   -1.0376   19.7203  -27.7216 H   0  0  0  0  0  0  0  0  0  0  0  0
   -2.1642   21.2954  -26.1465 H   0  0  0  0  0  0  0  0  0  0  0  0
   -2.7803   23.5929  -26.9024 H   0  0  0  0  0  0  0  0  0  0  0  0
   -3.4265   23.1545  -32.1061 H   0  0  0  0  0  0  0  0  0  0  0  0
   -6.9259   19.2800  -34.8394 H   0  0  0  0  0  0  0  0  0  0  0  0
   -5.1525   19.7148  -34.8755 H   0  0  0  0  0  0  0  0  0  0  0  0
   -7.5716   17.1601  -34.3064 H   0  0  0  0  0  0  0  0  0  0  0  0
   -7.0597   14.8469  -33.5541 H   0  0  0  0  0  0  0  0  0  0  0  0
   -3.0529   16.0607  -32.5021 H   0  0  0  0  0  0  0  0  0  0  0  0
  1  2  1  0
  2  3  1  0
  3  4  2  0
  4  5  1  0
  5  6  2  0
  6  7  1  0
  7  8  2  0
  8  9  1  0
  9 10  1  0
 10 11  2  0
 10 12  1  0
 12 13  2  0
 13 14  1  0
 14 15  2  0
 15 16  1  0
 16 17  2  0
  8 18  1  0
 18 19  2  0
 19 20  1  0
 20 21  2  0
 20 22  1  0
 22 23  1  0
 23 24  1  0
 24 25  2  0
 25 26  1  0
 26 27  2  0
 27 28  1  0
 27 29  1  0
 29 30  2  0
 30 31  1  0
 22  3  1  0
 30 24  1  0
 19  5  1  0
 17 12  1  0
  1 32  1  0
  1 33  1  0
  1 34  1  0
  2 35  1  0
  2 36  1  0
  6 37  1  0
  7 38  1  0
 13 39  1  0
 14 40  1  0
 15 41  1  0
 16 42  1  0
 17 43  1  0
 18 44  1  0
 23 45  1  0
 23 46  1  0
 25 47  1  0
 26 48  1  0
 29 49  1  0
M  CHG  1   9  -1
M  END
>  <UniqueID>  (5) 
4

>  <SMILES>  (5) 
CCc1nc2ccc([N-]C(=O)c3ccccc3)cc2c(=O)n1Cc1ccc(Cl)cc1Cl

>  <Energy>  (5) 
71.70932493537245

>  <Genealogy>  (5) 
CCc1nc2ccc([N-]C(=O)c3ccccc3)cc2c(=O)n1Cc1ccc(Cl)cc1Cl (protonated)
CCc1nc2ccc([N-]C(=O)c3ccccc3)cc2c(=O)n1Cc1ccc(Cl)cc1Cl (3D coordinates assigned)
CCc1nc2ccc([N-]C(=O)c3ccccc3)cc2c(=O)n1Cc1ccc(Cl)cc1Cl (optimized conformer: 71.70932493537245 kcal/mol)

>  <smiles>  (5) 
CCc1nc2ccc(NC(=O)c3ccccc3)cc2c(=O)n1Cc1ccc(Cl)cc1Cl

>  <score_type>  (5) 
oracle

>  <origin>  (5) 
adgpu

>  <m_score__min__energy>  (5) 
-11.949999999999999

>  <m_primary>  (5) 
energy

$$$$
5:0
     RDKit          3D

 50 52  0  0  0  0  0  0  0  0999 V2000
   -2.3430   19.3000  -26.3510 C   0  0  0  0  0  0  0  0  0  0  0  0
   -1.8980   20.6310  -26.9540 C   0  0  0  0  0  0  0  0  0  0  0  0
   -2.7400   21.0360  -28.1700 C   0  0  0  0  0  0  0  0  0  0  0  0
   -2.5470   22.4550  -28.5220 N   0  0  0  0  0  0  0  0  0  0  0  0
   -1.2700   23.1200  -28.3890 C   0  0  0  0  0  0  0  0  0  0  0  0
   -0.3140   22.7920  -29.1440 O   0  0  0  0  0  0  0  0  0  0  0  0
   -1.0380   24.1760  -27.3850 C   0  0  0  0  0  0  0  0  0  0  0  0
   -0.6970   23.8210  -26.0690 C   0  0  0  0  0  0  0  0  0  0  0  0
   -0.4900   24.8100  -25.1040 C   0  0  0  0  0  0  0  0  0  0  0  0
   -0.6370   26.1590  -25.4400 C   0  0  0  0  0  0  0  0  0  0  0  0
   -1.0000   26.5200  -26.7390 C   0  0  0  0  0  0  0  0  0  0  0  0
   -1.2090   25.5350  -27.7110 C   0  0  0  0  0  0  0  0  0  0  0  0
   -1.5950   25.9030  -28.9580 F   0  0  0  0  0  0  0  0  0  0  0  0
   -3.6680   23.1900  -29.0510 C   0  0  0  0  0  0  0  0  0  0  0  0
   -4.1660   22.9580  -30.3520 C   0  0  0  0  0  0  0  0  0  0  0  0
   -3.5360   21.9600  -31.1780 N   0  0  0  0  0  0  0  0  0  0  0  0
   -5.2450   23.6880  -30.8120 N   0  0  0  0  0  0  0  0  0  0  0  0
   -5.8030   23.4550  -32.1630 C   0  0  0  0  0  0  0  0  0  0  0  0
   -6.8570   22.3730  -32.1410 C   0  0  0  0  0  0  0  0  0  0  0  0
   -8.1370   22.6310  -31.6210 C   0  0  0  0  0  0  0  0  0  0  0  0
   -9.1150   21.6330  -31.6240 C   0  0  0  0  0  0  0  0  0  0  0  0
   -8.8310   20.3750  -32.1600 C   0  0  0  0  0  0  0  0  0  0  0  0
   -7.5690   20.1140  -32.6990 C   0  0  0  0  0  0  0  0  0  0  0  0
   -6.5870   21.1100  -32.6970 C   0  0  0  0  0  0  0  0  0  0  0  0
   -5.8280   24.6280  -29.9920 C   0  0  0  0  0  0  0  0  0  0  0  0
   -6.8240   25.2970  -30.3840 O   0  0  0  0  0  0  0  0  0  0  0  0
   -5.3460   24.8520  -28.7430 N   0  0  0  0  0  0  0  0  0  0  0  0
   -4.2900   24.1570  -28.2600 C   0  0  0  0  0  0  0  0  0  0  0  0
   -3.8770   24.3820  -27.0890 O   0  0  0  0  0  0  0  0  0  0  0  0
   -2.3200   19.3688  -25.2534 H   0  0  0  0  0  0  0  0  0  0  0  0
   -3.3665   19.0711  -26.6827 H   0  0  0  0  0  0  0  0  0  0  0  0
   -1.6629   18.5016  -26.6827 H   0  0  0  0  0  0  0  0  0  0  0  0
   -1.9879   21.4136  -26.1863 H   0  0  0  0  0  0  0  0  0  0  0  0
   -0.8579   20.5135  -27.2921 H   0  0  0  0  0  0  0  0  0  0  0  0
   -2.4480   20.4133  -29.0285 H   0  0  0  0  0  0  0  0  0  0  0  0
   -3.8001   20.8879  -27.9163 H   0  0  0  0  0  0  0  0  0  0  0  0
   -0.5926   22.7602  -25.7974 H   0  0  0  0  0  0  0  0  0  0  0  0
   -0.2110   24.5267  -24.0784 H   0  0  0  0  0  0  0  0  0  0  0  0
   -0.4666   26.9364  -24.6807 H   0  0  0  0  0  0  0  0  0  0  0  0
   -1.1221   27.5818  -26.9992 H   0  0  0  0  0  0  0  0  0  0  0  0
   -4.0950   21.2830  -31.7380 H   0  0  0  0  0  0  0  0  0  0  0  0
   -2.5050   21.8590  -31.2670 H   0  0  0  0  0  0  0  0  0  0  0  0
   -6.2548   24.3883  -32.5302 H   0  0  0  0  0  0  0  0  0  0  0  0
   -4.9865   23.1317  -32.8255 H   0  0  0  0  0  0  0  0  0  0  0  0
   -8.3702   23.6241  -31.2094 H   0  0  0  0  0  0  0  0  0  0  0  0
  -10.1104   21.8386  -31.2034 H   0  0  0  0  0  0  0  0  0  0  0  0
   -9.6012   19.5896  -32.1577 H   0  0  0  0  0  0  0  0  0  0  0  0
   -7.3474   19.1245  -33.1253 H   0  0  0  0  0  0  0  0  0  0  0  0
   -5.5982   20.9042  -33.1327 H   0  0  0  0  0  0  0  0  0  0  0  0
   -5.8050   25.5710  -28.1370 H   0  0  0  0  0  0  0  0  0  0  0  0
  1  2  1  0
  2  3  1  0
  3  4  1  0
  4  5  1  0
  5  6  2  0
  5  7  1  0
  7  8  2  0
  8  9  1  0
  9 10  2  0
 10 11  1  0
 11 12  2  0
 12 13  1  0
  4 14  1  0
 14 15  2  0
 15 16  1  0
 15 17  1  0
 17 18  1  0
 18 19  1  0
 19 20  2  0
 20 21  1  0
 21 22  2  0
 22 23  1  0
 23 24  2  0
 17 25  1  0
 25 26  2  0
 25 27  1  0
 27 28  1  0
 28 29  2  0
 12  7  1  0
 28 14  1  0
 24 19  1  0
  1 30  1  0
  1 31  1  0
  1 32  1  0
  2 33  1  0
  2 34  1  0
  3 35  1  0
  3 36  1  0
  8 37  1  0
  9 38  1  0
 10 39  1  0
 11 40  1  0
 16 41  1  0
 16 42  1  0
 18 43  1  0
 18 44  1  0
 20 45  1  0
 21 46  1  0
 22 47  1  0
 23 48  1  0
 24 49  1  0
 27 50  1  0
M  END
>  <UniqueID>  (6) 
5

>  <SMILES>  (6) 
CCCN(C(=O)c1ccccc1F)c1c(N)n(Cc2ccccc2)c(=O)[nH]c1=O

>  <Energy>  (6) 
68.08087561095485

>  <Genealogy>  (6) 
CCCN(C(=O)c1ccccc1F)c1c(N)n(Cc2ccccc2)c(=O)[nH]c1=O (3D coordinates assigned)
CCCN(C(=O)c1ccccc1F)c1c(N)n(Cc2ccccc2)c(=O)[nH]c1=O (optimized conformer: 68.08087561095485 kcal/mol)

>  <smiles>  (6) 
CCCN(C(=O)c1ccccc1F)c1c(N)n(Cc2ccccc2)c(=O)[nH]c1=O

>  <score_type>  (6) 
oracle

>  <origin>  (6) 
adgpu

>  <m_score__min__energy>  (6) 
-8.4100000000000001

>  <m_primary>  (6) 
energy

$$$$
6:0
     RDKit          3D

 47 49  0  0  0  0  0  0  0  0999 V2000
   -3.7490   25.1510  -26.2630 C   0  0  0  0  0  0  0  0  0  0  0  0
   -2.3870   25.0640  -26.9600 C   0  0  0  0  0  0  0  0  0  0  0  0
   -2.3370   24.1160  -28.1820 C   0  0  2  0  0  0  0  0  0  0  0  0
   -3.6870   23.7610  -28.6380 N   0  0  0  0  0  0  0  0  0  0  0  0
   -4.2370   24.2560  -29.8690 C   0  0  0  0  0  0  0  0  0  0  0  0
   -3.7020   25.2370  -30.4510 O   0  0  0  0  0  0  0  0  0  0  0  0
   -5.4380   23.6440  -30.4580 C   0  0  0  0  0  0  0  0  0  0  0  0
   -5.6000   22.3060  -30.8070 C   0  0  0  0  0  0  0  0  0  0  0  0
   -6.8560   22.0210  -31.3720 C   0  0  0  0  0  0  0  0  0  0  0  0
   -7.2250   20.6670  -31.8420 C   0  0  0  0  0  0  0  0  0  0  0  0
   -8.2620   19.9500  -31.2210 C   0  0  0  0  0  0  0  0  0  0  0  0
   -8.6070   18.6730  -31.6770 C   0  0  0  0  0  0  0  0  0  0  0  0
   -7.9160   18.0990  -32.7460 C   0  0  0  0  0  0  0  0  0  0  0  0
   -6.8700   18.7990  -33.3660 C   0  0  0  0  0  0  0  0  0  0  0  0
   -6.1620   18.2120  -34.4610 N   0  0  0  0  0  0  0  0  0  0  0  0
   -6.5280   20.0790  -32.9110 C   0  0  0  0  0  0  0  0  0  0  0  0
   -7.6730   23.1520  -31.4810 C   0  0  0  0  0  0  0  0  0  0  0  0
   -9.0560   23.2200  -32.0490 C   0  0  0  0  0  0  0  0  0  0  0  0
   -6.8400   24.4770  -30.8670 S   0  0  0  0  0  0  0  0  0  0  0  0
   -1.4980   22.8790  -27.9150 C   0  0  0  0  0  0  0  0  0  0  0  0
   -0.0920   22.9080  -28.0040 C   0  0  0  0  0  0  0  0  0  0  0  0
    0.6540   21.7410  -27.8110 C   0  0  0  0  0  0  0  0  0  0  0  0
    0.0070   20.5340  -27.5330 C   0  0  0  0  0  0  0  0  0  0  0  0
   -1.3870   20.4920  -27.4430 C   0  0  0  0  0  0  0  0  0  0  0  0
   -2.1360   21.6570  -27.6370 C   0  0  0  0  0  0  0  0  0  0  0  0
   -3.6041   25.1417  -25.1726 H   0  0  0  0  0  0  0  0  0  0  0  0
   -4.2530   26.0832  -26.5580 H   0  0  0  0  0  0  0  0  0  0  0  0
   -4.3675   24.2905  -26.5580 H   0  0  0  0  0  0  0  0  0  0  0  0
   -2.1125   26.0735  -27.2999 H   0  0  0  0  0  0  0  0  0  0  0  0
   -1.6886   24.6476  -26.2191 H   0  0  0  0  0  0  0  0  0  0  0  0
   -1.8417   24.6669  -28.9951 H   0  0  0  0  0  0  0  0  0  0  0  0
   -4.2270   23.0430  -28.1100 H   0  0  0  0  0  0  0  0  0  0  0  0
   -4.8205   21.5448  -30.6554 H   0  0  0  0  0  0  0  0  0  0  0  0
   -8.8044   20.3943  -30.3734 H   0  0  0  0  0  0  0  0  0  0  0  0
   -9.4248   18.1198  -31.1921 H   0  0  0  0  0  0  0  0  0  0  0  0
   -8.1923   17.0958  -33.1028 H   0  0  0  0  0  0  0  0  0  0  0  0
   -6.4860   18.3500  -35.4440 H   0  0  0  0  0  0  0  0  0  0  0  0
   -5.3060   17.6350  -34.2960 H   0  0  0  0  0  0  0  0  0  0  0  0
   -5.7069   20.6284  -33.3947 H   0  0  0  0  0  0  0  0  0  0  0  0
   -9.7879   23.2560  -31.2287 H   0  0  0  0  0  0  0  0  0  0  0  0
   -9.1542   24.1241  -32.6679 H   0  0  0  0  0  0  0  0  0  0  0  0
   -9.2424   22.3299  -32.6679 H   0  0  0  0  0  0  0  0  0  0  0  0
    0.4221   23.8546  -28.2267 H   0  0  0  0  0  0  0  0  0  0  0  0
    1.7515   21.7732  -27.8781 H   0  0  0  0  0  0  0  0  0  0  0  0
    0.5953   19.6164  -27.3849 H   0  0  0  0  0  0  0  0  0  0  0  0
   -1.8952   19.5424  -27.2195 H   0  0  0  0  0  0  0  0  0  0  0  0
   -3.2333   21.6171  -27.5716 H   0  0  0  0  0  0  0  0  0  0  0  0
  1  2  1  0
  2  3  1  0
  3  4  1  0
  4  5  1  0
  5  6  2  0
  5  7  1  0
  7  8  2  0
  8  9  1  0
  9 10  1  0
 10 11  2  0
 11 12  1  0
 12 13  2  0
 13 14  1  0
 14 15  1  0
 14 16  2  0
  9 17  2  0
 17 18  1  0
 17 19  1  0
  3 20  1  0
 20 21  2  0
 21 22  1  0
 22 23  2  0
 23 24  1  0
 24 25  2  0
 19  7  1  0
 25 20  1  0
 16 10  1  0
  1 26  1  0
  1 27  1  0
  1 28  1  0
  2 29  1  0
  2 30  1  0
  3 31  1  6
  4 32  1  0
  8 33  1  0
 11 34  1  0
 12 35  1  0
 13 36  1  0
 15 37  1  0
 15 38  1  0
 16 39  1  0
 18 40  1  0
 18 41  1  0
 18 42  1  0
 21 43  1  0
 22 44  1  0
 23 45  1  0
 24 46  1  0
 25 47  1  0
M  END
>  <UniqueID>  (7) 
6

>  <SMILES>  (7) 
CC[C@H](NC(=O)c1cc(-c2cccc(N)c2)c(C)s1)c1ccccc1

>  <Energy>  (7) 
76.39475085802701

>  <Genealogy>  (7) 
CC[C@H](NC(=O)c1cc(-c2cccc(N)c2)c(C)s1)c1ccccc1 (chirality)
CC[C@H](NC(=O)c1cc(-c2cccc(N)c2)c(C)s1)c1ccccc1 (3D coordinates assigned)
CC[C@H](NC(=O)c1cc(-c2cccc(N)c2)c(C)s1)c1ccccc1 (optimized conformer: 76.39475085802701 kcal/mol)

>  <smiles>  (7) 
CCC(NC(=O)c1cc(-c2cccc(N)c2)c(C)s1)c1ccccc1

>  <score_type>  (7) 
oracle

>  <origin>  (7) 
adgpu

>  <m_score__min__energy>  (7) 
-9.4000000000000004

>  <m_primary>  (7) 
energy

$$$$
7:0
     RDKit          3D

 51 53  0  0  0  0  0  0  0  0999 V2000
   -2.2550   12.8840  -31.2560 C   0  0  0  0  0  0  0  0  0  0  0  0
   -3.5420   12.6280  -31.9140 N   0  0  0  0  0  0  0  0  0  0  0  0
   -4.6460   13.1140  -31.0740 C   0  0  0  0  0  0  0  0  0  0  0  0
   -3.5810   13.4280  -33.4690 S   0  0  0  0  0  0  0  0  0  0  0  0
   -3.8250   12.4100  -34.5490 O   0  0  0  0  0  0  0  0  0  0  0  0
   -2.2500   14.0750  -33.7310 O   0  0  0  0  0  0  0  0  0  0  0  0
   -4.8470   14.6590  -33.5290 C   0  0  0  0  0  0  0  0  0  0  0  0
   -6.0510   14.3990  -34.1980 C   0  0  0  0  0  0  0  0  0  0  0  0
   -7.0490   15.3750  -34.2530 C   0  0  0  0  0  0  0  0  0  0  0  0
   -6.8440   16.6210  -33.6550 C   0  0  0  0  0  0  0  0  0  0  0  0
   -5.6330   16.9090  -33.0070 C   0  0  0  0  0  0  0  0  0  0  0  0
   -5.4550   18.1990  -32.3950 N   0  0  0  0  0  0  0  0  0  0  0  0
   -4.8050   19.3150  -33.0340 C   0  0  0  0  0  0  0  0  0  0  0  0
   -4.3340   19.1920  -34.1970 O   0  0  0  0  0  0  0  0  0  0  0  0
   -4.6900   20.6250  -32.3520 C   0  0  0  0  0  0  0  0  0  0  0  0
   -3.4910   21.0160  -31.7270 C   0  0  0  0  0  0  0  0  0  0  0  0
   -3.4090   22.2430  -31.0640 C   0  0  0  0  0  0  0  0  0  0  0  0
   -4.5150   23.0970  -31.0160 C   0  0  0  0  0  0  0  0  0  0  0  0
   -4.3940   24.6300  -30.1570 S   0  0  0  0  0  0  0  0  0  0  0  0
   -5.2510   24.6290  -28.9200 O   0  0  0  0  0  0  0  0  0  0  0  0
   -4.8650   25.7320  -31.0630 O   0  0  0  0  0  0  0  0  0  0  0  0
   -2.7420   24.9230  -29.7180 N   0  0  0  0  0  0  0  0  0  0  0  0
   -2.1060   24.4600  -28.5180 C   0  0  0  0  0  0  0  0  0  0  0  0
   -1.5890   23.1550  -28.3960 C   0  0  0  0  0  0  0  0  0  0  0  0
   -0.9750   22.7480  -27.2070 C   0  0  0  0  0  0  0  0  0  0  0  0
   -0.8850   23.6320  -26.1260 C   0  0  0  0  0  0  0  0  0  0  0  0
   -0.1240   23.1140  -24.6330 Cl  0  0  0  0  0  0  0  0  0  0  0  0
   -1.3910   24.9300  -26.2430 C   0  0  0  0  0  0  0  0  0  0  0  0
   -1.9940   25.3440  -27.4350 C   0  0  0  0  0  0  0  0  0  0  0  0
   -5.7130   22.7130  -31.6340 C   0  0  0  0  0  0  0  0  0  0  0  0
   -5.8030   21.4820  -32.2890 C   0  0  0  0  0  0  0  0  0  0  0  0
   -4.6460   15.9080  -32.9220 C   0  0  0  0  0  0  0  0  0  0  0  0
   -2.3895   12.8573  -30.1646 H   0  0  0  0  0  0  0  0  0  0  0  0
   -1.5303   12.1124  -31.5552 H   0  0  0  0  0  0  0  0  0  0  0  0
   -1.8808   13.8742  -31.5552 H   0  0  0  0  0  0  0  0  0  0  0  0
   -4.3790   12.9964  -30.0134 H   0  0  0  0  0  0  0  0  0  0  0  0
   -4.8307   14.1766  -31.2900 H   0  0  0  0  0  0  0  0  0  0  0  0
   -5.5545   12.5326  -31.2900 H   0  0  0  0  0  0  0  0  0  0  0  0
   -6.2105   13.4237  -34.6811 H   0  0  0  0  0  0  0  0  0  0  0  0
   -7.9975   15.1622  -34.7678 H   0  0  0  0  0  0  0  0  0  0  0  0
   -7.6376   17.3818  -33.6924 H   0  0  0  0  0  0  0  0  0  0  0  0
   -5.8930   18.3420  -31.4580 H   0  0  0  0  0  0  0  0  0  0  0  0
   -2.6144   20.3524  -31.7607 H   0  0  0  0  0  0  0  0  0  0  0  0
   -2.4683   22.5391  -30.5767 H   0  0  0  0  0  0  0  0  0  0  0  0
   -1.6686   22.4533  -29.2394 H   0  0  0  0  0  0  0  0  0  0  0  0
   -0.5624   21.7319  -27.1216 H   0  0  0  0  0  0  0  0  0  0  0  0
   -1.3147   25.6272  -25.3956 H   0  0  0  0  0  0  0  0  0  0  0  0
   -2.3828   26.3692  -27.5237 H   0  0  0  0  0  0  0  0  0  0  0  0
   -6.5850   23.3828  -31.6033 H   0  0  0  0  0  0  0  0  0  0  0  0
   -6.7512   21.1813  -32.7586 H   0  0  0  0  0  0  0  0  0  0  0  0
   -3.7117   16.1065  -32.3764 H   0  0  0  0  0  0  0  0  0  0  0  0
  1  2  1  0
  2  3  1  0
  2  4  1  0
  4  5  2  0
  4  6  2  0
  4  7  1  0
  7  8  2  0
  8  9  1  0
  9 10  2  0
 10 11  1  0
 11 12  1  0
 12 13  1  0
 13 14  2  0
 13 15  1  0
 15 16  2  0
 16 17  1  0
 17 18  2  0
 18 19  1  0
 19 20  2  0
 19 21  2  0
 19 22  1  0
 22 23  1  0
 23 24  2  0
 24 25  1  0
 25 26  2  0
 26 27  1  0
 26 28  1  0
 28 29  2  0
 18 30  1  0
 30 31  2  0
 11 32  2  0
 32  7  1  0
 31 15  1  0
 29 23  1  0
  1 33  1  0
  1 34  1  0
  1 35  1  0
  3 36  1  0
  3 37  1  0
  3 38  1  0
  8 39  1  0
  9 40  1  0
 10 41  1  0
 12 42  1  0
 16 43  1  0
 17 44  1  0
 24 45  1  0
 25 46  1  0
 28 47  1  0
 29 48  1  0
 30 49  1  0
 31 50  1  0
 32 51  1  0
M  CHG  1  22  -1
M  END
>  <UniqueID>  (8) 
7

>  <SMILES>  (8) 
CN(C)S(=O)(=O)c1cccc(NC(=O)c2ccc(S(=O)(=O)[N-]c3ccc(Cl)cc3)cc2)c1

>  <Energy>  (8) 
60.956366948694175

>  <Genealogy>  (8) 
CN(C)S(=O)(=O)c1cccc(NC(=O)c2ccc(S(=O)(=O)[N-]c3ccc(Cl)cc3)cc2)c1 (protonated)
CN(C)S(=O)(=O)c1cccc(NC(=O)c2ccc(S(=O)(=O)[N-]c3ccc(Cl)cc3)cc2)c1 (3D coordinates assigned)
CN(C)S(=O)(=O)c1cccc(NC(=O)c2ccc(S(=O)(=O)[N-]c3ccc(Cl)cc3)cc2)c1 (optimized conformer: 60.956366948694175 kcal/mol)

>  <smiles>  (8) 
CN(C)S(=O)(=O)c1cccc(NC(=O)c2ccc(S(=O)(=O)Nc3ccc(Cl)cc3)cc2)c1

>  <score_type>  (8) 
oracle

>  <origin>  (8) 
adgpu

>  <m_score__min__energy>  (8) 
-10.210000000000001

>  <m_primary>  (8) 
energy

$$$$
8:0
     RDKit          3D

 57 62  0  0  0  0  0  0  0  0999 V2000
   -7.3440   12.7050  -35.2310 C   0  0  0  0  0  0  0  0  0  0  0  0
   -6.6220   13.8530  -34.6110 C   0  0  0  0  0  0  0  0  0  0  0  0
   -5.2950   13.8620  -34.3820 N   0  0  0  0  0  0  0  0  0  0  0  0
   -5.0500   15.0410  -33.8980 O   0  0  0  0  0  0  0  0  0  0  0  0
   -6.1620   15.7320  -33.8380 C   0  0  0  0  0  0  0  0  0  0  0  0
   -6.2480   17.1110  -33.3440 C   0  0  0  0  0  0  0  0  0  0  0  0
   -5.2120   17.8110  -32.7290 C   0  0  0  0  0  0  0  0  0  0  0  0
   -5.7480   19.0460  -32.4320 C   0  0  0  0  0  0  0  0  0  0  0  0
   -5.1790   20.1530  -31.8080 C   0  0  0  0  0  0  0  0  0  0  0  0
   -5.9820   21.3040  -31.6230 C   0  0  0  0  0  0  0  0  0  0  0  0
   -5.4420   22.5120  -30.9550 C   0  0  0  0  0  0  0  0  0  0  0  0
   -4.4770   22.5530  -29.9590 C   0  0  0  0  0  0  0  0  0  0  0  0
   -4.3230   23.8970  -29.6770 C   0  0  0  0  0  0  0  0  0  0  0  0
   -3.4010   24.4540  -28.6620 C   0  0  0  0  0  0  0  0  0  0  0  0
   -3.7990   24.5440  -27.3220 C   0  0  0  0  0  0  0  0  0  0  0  0
   -2.9280   25.0590  -26.3610 C   0  0  0  0  0  0  0  0  0  0  0  0
   -1.6410   25.4790  -26.7390 C   0  0  0  0  0  0  0  0  0  0  0  0
   -0.7100   26.0320  -25.7770 N   0  0  0  0  0  0  0  0  0  0  0  0
   -1.1840   26.4990  -24.4650 C   0  0  0  0  0  0  0  0  0  0  0  0
   -0.0730   27.2240  -23.7010 C   0  0  0  0  0  0  0  0  0  0  0  0
    1.1490   26.4130  -23.6900 N   0  0  0  0  0  0  0  0  0  0  0  0
    1.6700   26.1150  -25.0390 C   0  0  0  0  0  0  0  0  0  0  0  0
    0.6660   26.3540  -26.1880 C   0  0  0  0  0  0  0  0  0  0  0  0
   -1.2720   25.3580  -28.0460 N   0  0  0  0  0  0  0  0  0  0  0  0
   -2.1030   24.8600  -28.9990 C   0  0  0  0  0  0  0  0  0  0  0  0
   -5.1760   24.5990  -30.4580 N   0  0  0  0  0  0  0  0  0  0  0  0
   -5.3980   26.0410  -30.4690 C   0  0  0  0  0  0  0  0  0  0  0  0
   -5.8460   23.7660  -31.2390 N   0  0  0  0  0  0  0  0  0  0  0  0
   -7.3300   21.2920  -32.0760 C   0  0  0  0  0  0  0  0  0  0  0  0
   -7.8700   20.1560  -32.7040 C   0  0  0  0  0  0  0  0  0  0  0  0
   -7.0470   19.0460  -32.8660 C   0  0  0  0  0  0  0  0  0  0  0  0
   -7.3670   17.8680  -33.4260 N   0  0  0  0  0  0  0  0  0  0  0  0
   -7.2140   15.0230  -34.2920 N   0  0  0  0  0  0  0  0  0  0  0  0
   -7.7511   12.0577  -34.4403 H   0  0  0  0  0  0  0  0  0  0  0  0
   -8.1670   13.0834  -35.8551 H   0  0  0  0  0  0  0  0  0  0  0  0
   -6.6465   12.1271  -35.8551 H   0  0  0  0  0  0  0  0  0  0  0  0
   -4.1909   17.4562  -32.5252 H   0  0  0  0  0  0  0  0  0  0  0  0
   -4.1331   20.1337  -31.4678 H   0  0  0  0  0  0  0  0  0  0  0  0
   -3.9514   21.7045  -29.4967 H   0  0  0  0  0  0  0  0  0  0  0  0
   -4.8033   24.2070  -27.0257 H   0  0  0  0  0  0  0  0  0  0  0  0
   -3.2475   25.1360  -25.3113 H   0  0  0  0  0  0  0  0  0  0  0  0
   -2.0272   27.1897  -24.6132 H   0  0  0  0  0  0  0  0  0  0  0  0
   -1.4979   25.6243  -23.8765 H   0  0  0  0  0  0  0  0  0  0  0  0
    0.1349   28.1872  -24.1899 H   0  0  0  0  0  0  0  0  0  0  0  0
   -0.4013   27.3911  -22.6645 H   0  0  0  0  0  0  0  0  0  0  0  0
    0.9380   25.5110  -23.2010 H   0  0  0  0  0  0  0  0  0  0  0  0
    2.5493   26.7521  -25.2148 H   0  0  0  0  0  0  0  0  0  0  0  0
    1.9038   25.0402  -25.0504 H   0  0  0  0  0  0  0  0  0  0  0  0
    0.7113   27.4113  -26.4882 H   0  0  0  0  0  0  0  0  0  0  0  0
    0.9385   25.6969  -27.0270 H   0  0  0  0  0  0  0  0  0  0  0  0
   -1.7552   24.7753  -30.0391 H   0  0  0  0  0  0  0  0  0  0  0  0
   -5.4550   26.4111  -29.4347 H   0  0  0  0  0  0  0  0  0  0  0  0
   -4.5655   26.5362  -30.9903 H   0  0  0  0  0  0  0  0  0  0  0  0
   -6.3409   26.2629  -30.9903 H   0  0  0  0  0  0  0  0  0  0  0  0
   -7.9585   22.1834  -31.9331 H   0  0  0  0  0  0  0  0  0  0  0  0
   -8.9119   20.1451  -33.0567 H   0  0  0  0  0  0  0  0  0  0  0  0
   -8.2890   17.5950  -33.8350 H   0  0  0  0  0  0  0  0  0  0  0  0
  1  2  1  0
  2  3  2  0
  3  4  1  0
  4  5  1  0
  5  6  1  0
  6  7  2  0
  7  8  1  0
  8  9  2  0
  9 10  1  0
 10 11  1  0
 11 12  1  0
 12 13  2  0
 13 14  1  0
 14 15  2  0
 15 16  1  0
 16 17  2  0
 17 18  1  0
 18 19  1  0
 19 20  1  0
 20 21  1  0
 21 22  1  0
 22 23  1  0
 17 24  1  0
 24 25  2  0
 13 26  1  0
 26 27  1  0
 26 28  1  0
 10 29  2  0
 29 30  1  0
 30 31  2  0
 31 32  1  0
  5 33  2  0
 33  2  1  0
 32  6  1  0
 31  8  1  0
 28 11  2  0
 25 14  1  0
 23 18  1  0
  1 34  1  0
  1 35  1  0
  1 36  1  0
  7 37  1  0
  9 38  1  0
 12 39  1  0
 15 40  1  0
 16 41  1  0
 19 42  1  0
 19 43  1  0
 20 44  1  0
 20 45  1  0
 21 46  1  0
 22 47  1  0
 22 48  1  0
 23 49  1  0
 23 50  1  0
 25 51  1  0
 27 52  1  0
 27 53  1  0
 27 54  1  0
 29 55  1  0
 30 56  1  0
 32 57  1  0
M  END
>  <UniqueID>  (9) 
8

>  <SMILES>  (9) 
Cc1noc(-c2cc3cc(-c4cc(-c5ccc(N6CCNCC6)nc5)n(C)n4)ccc3[nH]2)n1

>  <Energy>  (9) 
169.8319414839149

>  <Genealogy>  (9) 
Cc1noc(-c2cc3cc(-c4cc(-c5ccc(N6CCNCC6)nc5)n(C)n4)ccc3[nH]2)n1 (3D coordinates assigned)
Cc1noc(-c2cc3cc(-c4cc(-c5ccc(N6CCNCC6)nc5)n(C)n4)ccc3[nH]2)n1 (nonaromatic ring conformer: 169.8319414839149 kcal/mol)

>  <smiles>  (9) 
Cc1noc(-c2cc3cc(-c4cc(-c5ccc(N6CCNCC6)nc5)n(C)n4)ccc3[nH]2)n1

>  <score_type>  (9) 
oracle

>  <origin>  (9) 
adgpu

>  <m_score__min__energy>  (9) 
-9.4100000000000001

>  <m_primary>  (9) 
energy

$$$$
9:0
     RDKit          3D

 54 58  0  0  0  0  0  0  0  0999 V2000
   -9.4970   19.7720  -32.5370 C   0  0  0  0  0  0  0  0  0  0  0  0
   -8.9100   21.0400  -32.2600 O   0  0  0  0  0  0  0  0  0  0  0  0
   -7.5320   21.3020  -32.3000 C   0  0  0  0  0  0  0  0  0  0  0  0
   -6.6840   20.3020  -32.7810 C   0  0  0  0  0  0  0  0  0  0  0  0
   -5.3050   20.5090  -32.8410 C   0  0  0  0  0  0  0  0  0  0  0  0
   -4.7480   21.7230  -32.4090 C   0  0  0  0  0  0  0  0  0  0  0  0
   -3.2540   21.9250  -32.4720 C   0  0  0  0  0  0  0  0  0  0  0  0
   -2.6120   21.3220  -31.3470 O   0  0  0  0  0  0  0  0  0  0  0  0
   -1.9610   22.0220  -30.3190 C   0  0  0  0  0  0  0  0  0  0  0  0
   -2.1200   23.4130  -30.1020 C   0  0  0  0  0  0  0  0  0  0  0  0
   -1.4170   24.0690  -29.0530 C   0  0  0  0  0  0  0  0  0  0  0  0
   -1.5420   25.4470  -28.8180 O   0  0  0  0  0  0  0  0  0  0  0  0
   -1.1770   26.0910  -27.6030 C   0  0  0  0  0  0  0  0  0  0  0  0
   -0.5640   23.3270  -28.2150 C   0  0  0  0  0  0  0  0  0  0  0  0
   -0.4320   21.9630  -28.4480 C   0  0  0  0  0  0  0  0  0  0  0  0
    0.3130   21.1070  -27.7920 O   0  0  0  0  0  0  0  0  0  0  0  0
    0.1450   19.9240  -28.3530 C   0  0  0  0  0  0  0  0  0  0  0  0
    0.8230   18.7060  -27.8900 C   0  0  0  0  0  0  0  0  0  0  0  0
    0.1950   17.4960  -27.5680 C   0  0  0  0  0  0  0  0  0  0  0  0
    1.1940   16.6910  -27.2050 N   0  0  0  0  0  0  0  0  0  0  0  0
    1.2660   15.4350  -26.7950 N   0  0  0  0  0  0  0  0  0  0  0  0
    2.5720   15.1230  -26.5580 C   0  0  0  0  0  0  0  0  0  0  0  0
    2.9980   13.8710  -26.1120 O   0  0  0  0  0  0  0  0  0  0  0  0
    2.0910   12.8070  -25.8520 C   0  0  0  0  0  0  0  0  0  0  0  0
    3.6470   16.4330  -26.8660 S   0  0  0  0  0  0  0  0  0  0  0  0
    2.3180   17.3560  -27.3020 C   0  0  0  0  0  0  0  0  0  0  0  0
    2.1780   18.6260  -27.7230 N   0  0  0  0  0  0  0  0  0  0  0  0
   -0.7460   20.0080  -29.4210 C   0  0  0  0  0  0  0  0  0  0  0  0
   -1.1060   21.3360  -29.4590 C   0  0  0  0  0  0  0  0  0  0  0  0
   -5.5920   22.7460  -31.9320 C   0  0  0  0  0  0  0  0  0  0  0  0
   -5.0170   23.9620  -31.5220 O   0  0  0  0  0  0  0  0  0  0  0  0
   -5.5000   24.7660  -30.4520 C   0  0  0  0  0  0  0  0  0  0  0  0
   -6.9830   22.5270  -31.8770 C   0  0  0  0  0  0  0  0  0  0  0  0
   -9.7328   19.2626  -31.5910 H   0  0  0  0  0  0  0  0  0  0  0  0
  -10.4208   19.9144  -33.1169 H   0  0  0  0  0  0  0  0  0  0  0  0
   -8.7907   19.1598  -33.1169 H   0  0  0  0  0  0  0  0  0  0  0  0
   -7.1065   19.3430  -33.1154 H   0  0  0  0  0  0  0  0  0  0  0  0
   -4.6500   19.7153  -33.2295 H   0  0  0  0  0  0  0  0  0  0  0  0
   -2.8671   21.4688  -33.3952 H   0  0  0  0  0  0  0  0  0  0  0  0
   -3.0437   23.0046  -32.4608 H   0  0  0  0  0  0  0  0  0  0  0  0
   -2.7937   23.9918  -30.7510 H   0  0  0  0  0  0  0  0  0  0  0  0
   -1.5196   25.4865  -26.7503 H   0  0  0  0  0  0  0  0  0  0  0  0
   -0.0832   26.1994  -27.5597 H   0  0  0  0  0  0  0  0  0  0  0  0
   -1.6460   27.0851  -27.5597 H   0  0  0  0  0  0  0  0  0  0  0  0
   -0.0152   23.8144  -27.3957 H   0  0  0  0  0  0  0  0  0  0  0  0
   -0.8793   17.2627  -27.6060 H   0  0  0  0  0  0  0  0  0  0  0  0
    1.9802   12.6770  -24.7654 H   0  0  0  0  0  0  0  0  0  0  0  0
    1.1121   13.0432  -26.2948 H   0  0  0  0  0  0  0  0  0  0  0  0
    2.4791   11.8779  -26.2948 H   0  0  0  0  0  0  0  0  0  0  0  0
   -1.0846   19.1975  -30.0831 H   0  0  0  0  0  0  0  0  0  0  0  0
   -5.2229   24.3047  -29.4927 H   0  0  0  0  0  0  0  0  0  0  0  0
   -5.0554   25.7700  -30.5181 H   0  0  0  0  0  0  0  0  0  0  0  0
   -6.5952   24.8449  -30.5181 H   0  0  0  0  0  0  0  0  0  0  0  0
   -7.6454   23.3203  -31.5002 H   0  0  0  0  0  0  0  0  0  0  0  0
  1  2  1  0
  2  3  1  0
  3  4  2  0
  4  5  1  0
  5  6  2  0
  6  7  1  0
  7  8  1  0
  8  9  1  0
  9 10  2  0
 10 11  1  0
 11 12  1  0
 12 13  1  0
 11 14  2  0
 14 15  1  0
 15 16  1  0
 16 17  1  0
 17 18  1  0
 18 19  2  0
 19 20  1  0
 20 21  1  0
 21 22  2  0
 22 23  1  0
 23 24  1  0
 22 25  1  0
 25 26  1  0
 26 27  2  0
 17 28  2  0
 28 29  1  0
  6 30  1  0
 30 31  1  0
 31 32  1  0
 30 33  2  0
 33  3  1  0
 29  9  1  0
 29 15  2  0
 27 18  1  0
 26 20  1  0
  1 34  1  0
  1 35  1  0
  1 36  1  0
  4 37  1  0
  5 38  1  0
  7 39  1  0
  7 40  1  0
 10 41  1  0
 13 42  1  0
 13 43  1  0
 13 44  1  0
 14 45  1  0
 19 46  1  0
 24 47  1  0
 24 48  1  0
 24 49  1  0
 28 50  1  0
 32 51  1  0
 32 52  1  0
 32 53  1  0
 33 54  1  0
M  END
>  <UniqueID>  (10) 
9

>  <SMILES>  (10) 
COc1ccc(COc2cc(OC)cc3oc(-c4cn5nc(OC)sc5n4)cc23)c(OC)c1

>  <Energy>  (10) 
171.9271654030487

>  <Genealogy>  (10) 
COc1ccc(COc2cc(OC)cc3oc(-c4cn5nc(OC)sc5n4)cc23)c(OC)c1 (3D coordinates assigned)
COc1ccc(COc2cc(OC)cc3oc(-c4cn5nc(OC)sc5n4)cc23)c(OC)c1 (optimized conformer: 171.9271654030487 kcal/mol)

>  <smiles>  (10) 
COc1ccc(COc2cc(OC)cc3oc(-c4cn5nc(OC)sc5n4)cc23)c(OC)c1

>  <score_type>  (10) 
oracle

>  <origin>  (10) 
adgpu

>  <m_score__min__energy>  (10) 
-7.6799999999999997

>  <m_primary>  (10) 
energy

$$$$
10:0
     RDKit          3D

 43 45  0  0  0  0  0  0  0  0999 V2000
   -5.7910   16.2040  -33.8610 C   0  0  0  0  0  0  0  0  0  0  0  0
   -6.3820   17.5300  -33.4820 C   0  0  0  0  0  0  0  0  0  0  0  0
   -6.0590   18.6820  -34.2140 C   0  0  0  0  0  0  0  0  0  0  0  0
   -6.5800   19.9250  -33.8400 C   0  0  0  0  0  0  0  0  0  0  0  0
   -7.4300   20.0330  -32.7280 C   0  0  0  0  0  0  0  0  0  0  0  0
   -7.9790   21.3000  -32.3340 N   0  0  0  0  0  0  0  0  0  0  0  0
   -9.2680   21.5870  -32.3400 N   0  0  0  0  0  0  0  0  0  0  0  0
   -9.4250   22.8640  -32.0200 N   0  0  0  0  0  0  0  0  0  0  0  0
   -8.2420   23.4290  -31.8180 N   0  0  0  0  0  0  0  0  0  0  0  0
   -7.3450   22.4470  -32.0190 C   0  0  0  0  0  0  0  0  0  0  0  0
   -5.5660   22.7080  -31.9750 S   0  0  0  0  0  0  0  0  0  0  0  0
   -5.5840   23.7770  -30.4940 C   0  0  0  0  0  0  0  0  0  0  0  0
   -4.2970   24.5430  -30.3610 C   0  0  0  0  0  0  0  0  0  0  0  0
   -4.2100   25.6840  -30.8850 O   0  0  0  0  0  0  0  0  0  0  0  0
   -3.1600   24.0150  -29.6650 N   0  0  0  0  0  0  0  0  0  0  0  0
   -2.1840   23.1030  -30.2470 C   0  0  0  0  0  0  0  0  0  0  0  0
   -2.7780   21.7010  -30.3510 C   0  0  0  0  0  0  0  0  0  0  0  0
   -2.5180   21.1300  -31.7200 C   0  0  0  0  0  0  0  0  0  0  0  0
   -1.3970   21.5400  -32.4590 C   0  0  0  0  0  0  0  0  0  0  0  0
   -1.1260   20.9640  -33.7050 C   0  0  0  0  0  0  0  0  0  0  0  0
   -1.9650   19.9680  -34.2140 C   0  0  0  0  0  0  0  0  0  0  0  0
   -3.0750   19.5460  -33.4780 C   0  0  0  0  0  0  0  0  0  0  0  0
   -3.3510   20.1210  -32.2330 C   0  0  0  0  0  0  0  0  0  0  0  0
   -7.7200   18.8830  -31.9750 C   0  0  0  0  0  0  0  0  0  0  0  0
   -7.2000   17.6420  -32.3490 C   0  0  0  0  0  0  0  0  0  0  0  0
   -5.5399   15.6407  -32.9502 H   0  0  0  0  0  0  0  0  0  0  0  0
   -6.5202   15.6340  -34.4554 H   0  0  0  0  0  0  0  0  0  0  0  0
   -4.8795   16.3652  -34.4554 H   0  0  0  0  0  0  0  0  0  0  0  0
   -5.3929   18.6076  -35.0862 H   0  0  0  0  0  0  0  0  0  0  0  0
   -6.3222   20.8231  -34.4205 H   0  0  0  0  0  0  0  0  0  0  0  0
   -6.4186   24.4889  -30.5754 H   0  0  0  0  0  0  0  0  0  0  0  0
   -5.7035   23.1395  -29.6056 H   0  0  0  0  0  0  0  0  0  0  0  0
   -1.9078   23.4572  -31.2511 H   0  0  0  0  0  0  0  0  0  0  0  0
   -1.2916   23.0707  -29.6047 H   0  0  0  0  0  0  0  0  0  0  0  0
   -2.3155   21.0525  -29.5923 H   0  0  0  0  0  0  0  0  0  0  0  0
   -3.8638   21.7563  -30.1838 H   0  0  0  0  0  0  0  0  0  0  0  0
   -0.7296   22.3166  -32.0572 H   0  0  0  0  0  0  0  0  0  0  0  0
   -0.2518   21.2951  -34.2848 H   0  0  0  0  0  0  0  0  0  0  0  0
   -1.7511   19.5166  -35.1941 H   0  0  0  0  0  0  0  0  0  0  0  0
   -3.7329   18.7604  -33.8781 H   0  0  0  0  0  0  0  0  0  0  0  0
   -4.2227   19.7824  -31.6538 H   0  0  0  0  0  0  0  0  0  0  0  0
   -8.3612   18.9606  -31.0846 H   0  0  0  0  0  0  0  0  0  0  0  0
   -7.4334   16.7482  -31.7518 H   0  0  0  0  0  0  0  0  0  0  0  0
  1  2  1  0
  2  3  2  0
  3  4  1  0
  4  5  2  0
  5  6  1  0
  6  7  1  0
  7  8  2  0
  8  9  1  0
  9 10  2  0
 10 11  1  0
 11 12  1  0
 12 13  1  0
 13 14  2  0
 13 15  1  0
 15 16  1  0
 16 17  1  0
 17 18  1  0
 18 19  2  0
 19 20  1  0
 20 21  2  0
 21 22  1  0
 22 23  2  0
  5 24  1  0
 24 25  2  0
 25  2  1  0
 10  6  1  0
 23 18  1  0
  1 26  1  0
  1 27  1  0
  1 28  1  0
  3 29  1  0
  4 30  1  0
 12 31  1  0
 12 32  1  0
 16 33  1  0
 16 34  1  0
 17 35  1  0
 17 36  1  0
 19 37  1  0
 20 38  1  0
 21 39  1  0
 22 40  1  0
 23 41  1  0
 24 42  1  0
 25 43  1  0
M  CHG  1  15  -1
M  END
>  <UniqueID>  (11) 
10

>  <SMILES>  (11) 
Cc1ccc(-n2nnnc2SCC(=O)[N-]CCc2ccccc2)cc1

>  <Energy>  (11) 
77.47188941565084

>  <Genealogy>  (11) 
Cc1ccc(-n2nnnc2SCC(=O)[N-]CCc2ccccc2)cc1 (protonated)
Cc1ccc(-n2nnnc2SCC(=O)[N-]CCc2ccccc2)cc1 (3D coordinates assigned)
Cc1ccc(-n2nnnc2SCC(=O)[N-]CCc2ccccc2)cc1 (optimized conformer: 77.47188941565084 kcal/mol)

>  <smiles>  (11) 
Cc1ccc(-n2nnnc2SCC(=O)NCCc2ccccc2)cc1

>  <score_type>  (11) 
oracle

>  <origin>  (11) 
adgpu

>  <m_score__min__energy>  (11) 
-11.199999999999999

>  <m_primary>  (11) 
energy

$$$$
11:0
     RDKit          3D

 41 44  0  0  1  0  0  0  0  0999 V2000
   -2.5190   24.6410  -28.9090 C   0  0  0  0  0  0  0  0  0  0  0  0
   -3.4830   25.2440  -29.7600 O   0  0  0  0  0  0  0  0  0  0  0  0
   -4.6340   24.5480  -30.0960 C   0  0  0  0  0  0  0  0  0  0  0  0
   -5.1070   23.4690  -29.3750 C   0  0  0  0  0  0  0  0  0  0  0  0
   -6.2580   22.7850  -29.7230 C   0  0  0  0  0  0  0  0  0  0  0  0
   -6.9570   23.2100  -30.8480 C   0  0  0  0  0  0  0  0  0  0  0  0
   -8.1470   22.5320  -31.2420 N   0  0  0  0  0  0  0  0  0  0  0  0
   -8.0520   21.4470  -31.9330 C   0  0  0  0  0  0  0  0  0  0  0  0
   -9.1250   20.7510  -32.3420 N   0  0  0  0  0  0  0  0  0  0  0  0
   -8.7030   19.6860  -33.0290 N   0  0  0  0  0  0  0  0  0  0  0  0
   -7.3610   19.6940  -33.0640 C   0  0  0  0  0  0  0  0  0  0  0  0
   -6.4440   18.8400  -33.6320 C   0  0  0  0  0  0  0  0  0  0  0  0
   -5.0900   19.1350  -33.4850 C   0  0  0  0  0  0  0  0  0  0  0  0
   -4.1490   18.2030  -34.1040 C   0  0  0  0  0  0  0  0  0  0  0  0
   -2.8540   18.1470  -33.6220 C   0  0  0  0  0  0  0  0  0  0  0  0
   -1.9910   17.2570  -34.2270 C   0  0  0  0  0  0  0  0  0  0  0  0
   -2.3750   16.4410  -35.2740 C   0  0  0  0  0  0  0  0  0  0  0  0
   -1.5990   15.6120  -35.8490 N   0  0  0  0  0  0  0  0  0  0  0  0
   -3.6450   16.5260  -35.7130 N   0  0  0  0  0  0  0  0  0  0  0  0
   -4.5230   17.3870  -35.1450 C   0  0  0  0  0  0  0  0  0  0  0  0
   -4.6730   20.2540  -32.7880 C   0  0  0  0  0  0  0  0  0  0  0  0
   -5.5960   21.0880  -32.2320 N   0  0  0  0  0  0  0  0  0  0  0  0
   -6.9070   20.8020  -32.3740 C   0  0  0  0  0  0  0  0  0  0  0  0
   -6.5200   24.2880  -31.6030 C   0  0  0  0  0  0  0  0  0  0  0  0
   -5.3610   24.9340  -31.2060 C   0  0  0  0  0  0  0  0  0  0  0  0
   -2.7970   24.8149  -27.8590 H   0  0  0  0  0  0  0  0  0  0  0  0
   -2.4830   23.5591  -29.1044 H   0  0  0  0  0  0  0  0  0  0  0  0
   -1.5304   25.0820  -29.1044 H   0  0  0  0  0  0  0  0  0  0  0  0
   -4.5456   23.1402  -28.4880 H   0  0  0  0  0  0  0  0  0  0  0  0
   -6.6102   21.9299  -29.1274 H   0  0  0  0  0  0  0  0  0  0  0  0
  -10.1210   20.9530  -32.1850 H   0  0  0  0  0  0  0  0  0  0  0  0
   -9.3350   18.9670  -33.4660 H   0  0  0  0  0  0  0  0  0  0  0  0
   -6.7708   17.9484  -34.1872 H   0  0  0  0  0  0  0  0  0  0  0  0
   -2.5253   18.7865  -32.7896 H   0  0  0  0  0  0  0  0  0  0  0  0
   -0.9555   17.1943  -33.8613 H   0  0  0  0  0  0  0  0  0  0  0  0
   -0.6080   15.4300  -35.6330 H   0  0  0  0  0  0  0  0  0  0  0  0
   -3.9520   15.9120  -36.5080 H   0  0  0  0  0  0  0  0  0  0  0  0
   -5.5546   17.4341  -35.5239 H   0  0  0  0  0  0  0  0  0  0  0  0
   -3.5996   20.4702  -32.6827 H   0  0  0  0  0  0  0  0  0  0  0  0
   -7.0775   24.6203  -32.4911 H   0  0  0  0  0  0  0  0  0  0  0  0
   -5.0046   25.7894  -31.7986 H   0  0  0  0  0  0  0  0  0  0  0  0
  1  2  1  0
  2  3  1  0
  3  4  2  0
  4  5  1  0
  5  6  2  0
  6  7  1  0
  7  8  2  0
  8  9  1  0
  9 10  1  0
 10 11  1  0
 11 12  2  0
 12 13  1  0
 13 14  1  0
 14 15  1  0
 15 16  2  0
 16 17  1  0
 17 18  2  3
 17 19  1  0
 19 20  1  0
 13 21  2  0
 21 22  1  0
 22 23  2  0
  6 24  1  0
 24 25  2  0
 25  3  1  0
 23  8  1  0
 23 11  1  0
 20 14  2  0
  1 26  1  0
  1 27  1  0
  1 28  1  0
  4 29  1  0
  5 30  1  0
  9 31  1  0
 10 32  1  0
 12 33  1  0
 15 34  1  0
 16 35  1  0
 18 36  1  0
 19 37  1  0
 20 38  1  0
 21 39  1  0
 24 40  1  0
 25 41  1  0
M  END
>  <smiles>  (12) 
COc1ccc(N=c2[nH][nH]c3cc(-c4ccc(=N)[nH]c4)cnc23)cc1

>  <score_type>  (12) 
oracle

>  <origin>  (12) 
adgpu

>  <m_score__min__energy>  (12) 
-8.2899999999999991

>  <m_primary>  (12) 
energy

$$$$
12:0
     RDKit          3D

 36 38  0  0  0  0  0  0  0  0999 V2000
   -3.7980   25.2970  -30.8000 N   0  0  0  0  0  0  0  0  0  0  0  0
   -5.2710   24.7760  -30.0620 S   0  0  0  0  0  0  0  0  0  0  0  0
   -6.2280   25.9340  -29.9870 O   0  0  0  0  0  0  0  0  0  0  0  0
   -4.9920   24.2920  -28.6670 O   0  0  0  0  0  0  0  0  0  0  0  0
   -5.9780   23.4760  -31.0140 C   0  0  0  0  0  0  0  0  0  0  0  0
   -7.3630   23.4180  -31.2140 C   0  0  0  0  0  0  0  0  0  0  0  0
   -7.9200   22.3870  -31.9740 C   0  0  0  0  0  0  0  0  0  0  0  0
   -7.1030   21.4060  -32.5470 C   0  0  0  0  0  0  0  0  0  0  0  0
   -7.7040   20.3690  -33.2620 O   0  0  0  0  0  0  0  0  0  0  0  0
   -5.7030   21.4780  -32.3770 C   0  0  0  0  0  0  0  0  0  0  0  0
   -4.8300   20.5080  -32.9740 N   0  0  0  0  0  0  0  0  0  0  0  0
   -5.2930   19.2680  -33.1560 N   0  0  0  0  0  0  0  0  0  0  0  0
   -4.5340   18.2740  -33.6960 C   0  0  0  0  0  0  0  0  0  0  0  0
   -5.1230   16.9230  -33.8760 C   0  0  0  0  0  0  0  0  0  0  0  0
   -6.5120   16.7840  -34.0570 C   0  0  0  0  0  0  0  0  0  0  0  0
   -7.0850   15.5190  -34.2210 C   0  0  0  0  0  0  0  0  0  0  0  0
   -6.2810   14.3770  -34.2000 C   0  0  0  0  0  0  0  0  0  0  0  0
   -7.0030   12.7900  -34.4030 Cl  0  0  0  0  0  0  0  0  0  0  0  0
   -4.9030   14.4990  -34.0080 C   0  0  0  0  0  0  0  0  0  0  0  0
   -4.3250   15.7610  -33.8440 C   0  0  0  0  0  0  0  0  0  0  0  0
   -3.2180   18.5700  -34.0810 C   0  0  0  0  0  0  0  0  0  0  0  0
   -2.7210   19.8540  -33.8810 C   0  0  0  0  0  0  0  0  0  0  0  0
   -3.5420   20.8260  -33.3120 C   0  0  0  0  0  0  0  0  0  0  0  0
   -3.0870   21.9860  -33.1110 O   0  0  0  0  0  0  0  0  0  0  0  0
   -5.1530   22.5070  -31.5980 C   0  0  0  0  0  0  0  0  0  0  0  0
   -3.9790   26.2410  -31.2070 H   0  0  0  0  0  0  0  0  0  0  0  0
   -8.0138   24.1864  -30.7714 H   0  0  0  0  0  0  0  0  0  0  0  0
   -9.0091   22.3459  -32.1232 H   0  0  0  0  0  0  0  0  0  0  0  0
   -7.2150   19.8480  -33.9800 H   0  0  0  0  0  0  0  0  0  0  0  0
   -7.1523   17.6783  -34.0695 H   0  0  0  0  0  0  0  0  0  0  0  0
   -8.1711   15.4231  -34.3668 H   0  0  0  0  0  0  0  0  0  0  0  0
   -4.2707   13.5992  -33.9858 H   0  0  0  0  0  0  0  0  0  0  0  0
   -3.2395   15.8483  -33.6888 H   0  0  0  0  0  0  0  0  0  0  0  0
   -2.5850   17.7943  -34.5367 H   0  0  0  0  0  0  0  0  0  0  0  0
   -1.6884   20.1001  -34.1696 H   0  0  0  0  0  0  0  0  0  0  0  0
   -4.0647   22.5530  -31.4447 H   0  0  0  0  0  0  0  0  0  0  0  0
  1  2  1  0
  2  3  2  0
  2  4  2  0
  2  5  1  0
  5  6  2  0
  6  7  1  0
  7  8  2  0
  8  9  1  0
  8 10  1  0
 10 11  1  0
 11 12  1  0
 12 13  2  0
 13 14  1  0
 14 15  2  0
 15 16  1  0
 16 17  2  0
 17 18  1  0
 17 19  1  0
 19 20  2  0
 13 21  1  0
 21 22  2  0
 22 23  1  0
 23 24  2  0
 10 25  2  0
 25  5  1  0
 23 11  1  0
 20 14  1  0
  1 26  1  0
  6 27  1  0
  7 28  1  0
  9 29  1  0
 15 30  1  0
 16 31  1  0
 19 32  1  0
 20 33  1  0
 21 34  1  0
 22 35  1  0
 25 36  1  0
M  CHG  1   1  -1
M  END
>  <UniqueID>  (13) 
11

>  <SMILES>  (13) 
[NH-]S(=O)(=O)c1ccc(O)c(-n2nc(-c3ccc(Cl)cc3)ccc2=O)c1

>  <Energy>  (13) 
51.527803666634824

>  <Genealogy>  (13) 
[NH-]S(=O)(=O)c1ccc(O)c(-n2nc(-c3ccc(Cl)cc3)ccc2=O)c1 (protonated)
[NH-]S(=O)(=O)c1ccc(O)c(-n2nc(-c3ccc(Cl)cc3)ccc2=O)c1 (3D coordinates assigned)
[NH-]S(=O)(=O)c1ccc(O)c(-n2nc(-c3ccc(Cl)cc3)ccc2=O)c1 (optimized conformer: 51.527803666634824 kcal/mol)

>  <smiles>  (13) 
NS(=O)(=O)c1ccc(O)c(-n2nc(-c3ccc(Cl)cc3)ccc2=O)c1

>  <score_type>  (13) 
oracle

>  <origin>  (13) 
adgpu

>  <m_score__min__energy>  (13) 
-10.710000000000001

>  <m_primary>  (13) 
energy

$$$$
13:0
     RDKit          3D

 22 23  0  0  0  0  0  0  0  0999 V2000
   -4.7080   21.3680  -32.7120 C   0  0  0  0  0  0  0  0  0  0  0  0
   -6.0130   21.7650  -32.1930 N   0  0  0  0  0  0  0  0  0  0  0  0
   -6.1770   22.5880  -31.0270 C   0  0  0  0  0  0  0  0  0  0  0  0
   -7.5470   22.4360  -30.1390 S   0  0  0  0  0  0  0  0  0  0  0  0
   -5.1430   23.5440  -30.5830 C   0  0  0  0  0  0  0  0  0  0  0  0
   -4.2650   23.3820  -29.5300 C   0  0  0  0  0  0  0  0  0  0  0  0
   -3.4850   24.5170  -29.5730 C   0  0  0  0  0  0  0  0  0  0  0  0
   -2.3780   24.8340  -28.6630 C   0  0  0  0  0  0  0  0  0  0  0  0
   -2.1310   24.2260  -27.4480 C   0  0  0  0  0  0  0  0  0  0  0  0
   -1.0000   24.8380  -26.9520 C   0  0  0  0  0  0  0  0  0  0  0  0
   -0.6290   25.7790  -27.8930 C   0  0  0  0  0  0  0  0  0  0  0  0
   -1.4700   25.7510  -28.9010 O   0  0  0  0  0  0  0  0  0  0  0  0
   -3.8710   25.3020  -30.5980 N   0  0  0  0  0  0  0  0  0  0  0  0
   -4.8770   24.7040  -31.2170 N   0  0  0  0  0  0  0  0  0  0  0  0
   -4.0273   21.1609  -31.8731 H   0  0  0  0  0  0  0  0  0  0  0  0
   -4.8180   20.4627  -33.3270 H   0  0  0  0  0  0  0  0  0  0  0  0
   -4.2952   22.1812  -33.3270 H   0  0  0  0  0  0  0  0  0  0  0  0
   -6.8480   21.2520  -32.5570 H   0  0  0  0  0  0  0  0  0  0  0  0
   -4.2027   22.5426  -28.8218 H   0  0  0  0  0  0  0  0  0  0  0  0
   -2.7144   23.4221  -26.9753 H   0  0  0  0  0  0  0  0  0  0  0  0
   -0.4948   24.6210  -25.9993 H   0  0  0  0  0  0  0  0  0  0  0  0
    0.2389   26.4497  -27.8104 H   0  0  0  0  0  0  0  0  0  0  0  0
  1  2  1  0
  2  3  1  0
  3  4  2  0
  3  5  1  0
  5  6  1  0
  6  7  2  0
  7  8  1  0
  8  9  2  0
  9 10  1  0
 10 11  2  0
 11 12  1  0
  7 13  1  0
 13 14  1  0
 14  5  2  0
 12  8  1  0
  1 15  1  0
  1 16  1  0
  1 17  1  0
  2 18  1  0
  6 19  1  0
  9 20  1  0
 10 21  1  0
 11 22  1  0
M  CHG  1  13  -1
M  END
>  <UniqueID>  (14) 
12

>  <SMILES>  (14) 
CNC(=S)c1cc(-c2ccco2)[n-]n1

>  <Energy>  (14) 
77.89497418067664

>  <Genealogy>  (14) 
CNC(=S)c1cc(-c2ccco2)[n-]n1 (protonated)
CNC(=S)c1cc(-c2ccco2)[n-]n1 (3D coordinates assigned)
CNC(=S)c1cc(-c2ccco2)[n-]n1 (optimized conformer: 77.89497418067664 kcal/mol)

>  <smiles>  (14) 
CNC(=S)c1cc(-c2ccco2)[nH]n1

>  <score_type>  (14) 
oracle

>  <origin>  (14) 
adgpu

>  <m_score__min__energy>  (14) 
-8.0899999999999999

>  <m_primary>  (14) 
energy

$$$$
14:0
     RDKit          3D

 53 55  0  0  0  0  0  0  0  0999 V2000
   -5.4232   25.8187  -30.4610 H   0  0  0  0  0  0  0  0  0  0  0  0
   -4.7620   24.9400  -30.4350 C   0  0  0  0  0  0  0  0  0  0  0  0
   -3.6890   24.9240  -29.6040 N   0  0  0  0  0  0  0  0  0  0  0  0
   -2.8480   23.8550  -29.5280 C   0  0  0  0  0  0  0  0  0  0  0  0
   -1.8090   23.8650  -28.7440 N   0  0  0  0  0  0  0  0  0  0  0  0
   -1.4450   24.8990  -27.8140 C   0  0  0  0  0  0  0  0  0  0  0  0
   -0.8680   26.1110  -28.2350 C   0  0  0  0  0  0  0  0  0  0  0  0
   -0.6629   26.2770  -29.3029 H   0  0  0  0  0  0  0  0  0  0  0  0
   -0.5540   27.1050  -27.3050 C   0  0  0  0  0  0  0  0  0  0  0  0
   -0.0914   28.0442  -27.6425 H   0  0  0  0  0  0  0  0  0  0  0  0
   -0.8270   26.9100  -25.9380 C   0  0  0  0  0  0  0  0  0  0  0  0
   -0.5230   27.8720  -24.9640 O   0  0  0  0  0  0  0  0  0  0  0  0
    0.1420   27.5930  -23.7370 C   0  0  0  0  0  0  0  0  0  0  0  0
   -0.5112   27.8670  -22.8954 H   0  0  0  0  0  0  0  0  0  0  0  0
    0.3781   26.5200  -23.6836 H   0  0  0  0  0  0  0  0  0  0  0  0
    1.0730   28.1764  -23.6836 H   0  0  0  0  0  0  0  0  0  0  0  0
   -1.4280   25.7140  -25.5270 C   0  0  0  0  0  0  0  0  0  0  0  0
   -1.6526   25.5543  -24.4621 H   0  0  0  0  0  0  0  0  0  0  0  0
   -1.7450   24.7210  -26.4590 C   0  0  0  0  0  0  0  0  0  0  0  0
   -2.2334   23.7938  -26.1247 H   0  0  0  0  0  0  0  0  0  0  0  0
   -3.0790   22.7390  -30.3430 C   0  0  0  0  0  0  0  0  0  0  0  0
   -2.3997   21.8750  -30.2976 H   0  0  0  0  0  0  0  0  0  0  0  0
   -4.1790   22.7230  -31.2190 C   0  0  0  0  0  0  0  0  0  0  0  0
   -4.4380   21.5510  -32.0930 C   0  0  0  0  0  0  0  0  0  0  0  0
   -3.4500   21.0880  -32.9830 C   0  0  0  0  0  0  0  0  0  0  0  0
   -2.4748   21.5948  -33.0285 H   0  0  0  0  0  0  0  0  0  0  0  0
   -3.7000   19.9900  -33.8080 C   0  0  0  0  0  0  0  0  0  0  0  0
   -2.9190   19.6317  -34.4947 H   0  0  0  0  0  0  0  0  0  0  0  0
   -4.9370   19.3450  -33.7650 C   0  0  0  0  0  0  0  0  0  0  0  0
   -5.1273   18.4780  -34.4147 H   0  0  0  0  0  0  0  0  0  0  0  0
   -5.9360   19.8000  -32.8960 C   0  0  0  0  0  0  0  0  0  0  0  0
   -7.2100   19.1320  -32.8510 N   0  0  0  0  0  0  0  0  0  0  0  0
   -8.4240   19.9260  -33.0780 C   0  0  0  0  0  0  0  0  0  0  0  0
   -9.1562   19.3187  -33.6303 H   0  0  0  0  0  0  0  0  0  0  0  0
   -8.1606   20.8220  -33.6592 H   0  0  0  0  0  0  0  0  0  0  0  0
   -9.0320   20.3600  -31.7490 C   0  0  0  0  0  0  0  0  0  0  0  0
   -8.4424   19.9391  -30.9212 H   0  0  0  0  0  0  0  0  0  0  0  0
   -9.0243   21.4580  -31.6834 H   0  0  0  0  0  0  0  0  0  0  0  0
  -10.0680   19.9960  -31.6834 H   0  0  0  0  0  0  0  0  0  0  0  0
   -7.3030   17.7070  -32.4770 C   0  0  0  0  0  0  0  0  0  0  0  0
   -8.3553   17.4851  -32.2457 H   0  0  0  0  0  0  0  0  0  0  0  0
   -6.8780   16.8040  -33.6400 C   0  0  0  0  0  0  0  0  0  0  0  0
   -6.4412   15.8759  -33.2429 H   0  0  0  0  0  0  0  0  0  0  0  0
   -7.7565   16.5615  -34.2559 H   0  0  0  0  0  0  0  0  0  0  0  0
   -6.1313   17.3265  -34.2559 H   0  0  0  0  0  0  0  0  0  0  0  0
   -6.4710   17.4160  -31.2230 C   0  0  0  0  0  0  0  0  0  0  0  0
   -7.0729   17.6265  -30.3266 H   0  0  0  0  0  0  0  0  0  0  0  0
   -6.1680   16.3585  -31.2212 H   0  0  0  0  0  0  0  0  0  0  0  0
   -5.5750   18.0541  -31.2212 H   0  0  0  0  0  0  0  0  0  0  0  0
   -5.6790   20.8900  -32.0530 C   0  0  0  0  0  0  0  0  0  0  0  0
   -6.4557   21.2319  -31.3531 H   0  0  0  0  0  0  0  0  0  0  0  0
   -5.0280   23.8430  -31.2570 C   0  0  0  0  0  0  0  0  0  0  0  0
   -5.8974   23.8551  -31.9308 H   0  0  0  0  0  0  0  0  0  0  0  0
  1  2  1  0
  2  3  1  0
  3  4  1  0
  4  5  2  0
  5  6  1  0
  6  7  2  0
  7  8  1  0
  7  9  1  0
  9 10  1  0
  9 11  2  0
 11 12  1  0
 12 13  1  0
 13 14  1  0
 13 15  1  0
 13 16  1  0
 11 17  1  0
 17 18  1  0
 17 19  2  0
 19 20  1  0
  4 21  1  0
 21 22  1  0
 21 23  2  0
 23 24  1  0
 24 25  2  0
 25 26  1  0
 25 27  1  0
 27 28  1  0
 27 29  2  0
 29 30  1  0
 29 31  1  0
 31 32  1  0
 32 33  1  0
 33 34  1  0
 33 35  1  0
 33 36  1  0
 36 37  1  0
 36 38  1  0
 36 39  1  0
 32 40  1  0
 40 41  1  0
 40 42  1  0
 42 43  1  0
 42 44  1  0
 42 45  1  0
 40 46  1  0
 46 47  1  0
 46 48  1  0
 46 49  1  0
 31 50  2  0
 50 51  1  0
 23 52  1  0
 52 53  1  0
 52  2  2  0
 19  6  1  0
 50 24  1  0
M  CHG  1   3  -1
M  END
>  <UniqueID>  (15) 
13

>  <SMILES>  (15) 
CCN(c1cccc(-c2cc[n-]/c(=N\c3ccc(OC)cc3)c2)c1)C(C)C

>  <Energy>  (15) 
63.806698412833605

>  <Genealogy>  (15) 
CCN(c1cccc(-c2cc[n-]c(=Nc3ccc(OC)cc3)c2)c1)C(C)C (protonated)
CCN(c1cccc(-c2cc[n-]/c(=N\c3ccc(OC)cc3)c2)c1)C(C)C (cis-trans isomerization)
CCN(c1cccc(-c2cc[n-]/c(=N\c3ccc(OC)cc3)c2)c1)C(C)C (3D coordinates assigned)
CCN(c1cccc(-c2cc[n-]/c(=N\c3ccc(OC)cc3)c2)c1)C(C)C (optimized conformer: 63.806698412833605 kcal/mol)

>  <smiles>  (15) 
CCN(c1cccc(-c2cc[nH]c(=Nc3ccc(OC)cc3)c2)c1)C(C)C

>  <score_type>  (15) 
oracle

>  <origin>  (15) 
adgpu

>  <m_score__min__energy>  (15) 
-9.7699999999999996

>  <m_primary>  (15) 
energy

$$$$
15:0
     RDKit          3D

 51 53  0  0  0  0  0  0  0  0999 V2000
   -6.3500   19.2510  -33.8810 C   0  0  0  0  0  0  0  0  0  0  0  0
   -4.9430   19.5660  -33.4700 C   0  0  0  0  0  0  0  0  0  0  0  0
   -3.9490   18.5810  -33.5360 C   0  0  0  0  0  0  0  0  0  0  0  0
   -2.6510   18.8570  -33.1020 C   0  0  0  0  0  0  0  0  0  0  0  0
   -2.3380   20.1200  -32.5880 C   0  0  0  0  0  0  0  0  0  0  0  0
   -0.6720   20.4680  -32.0210 S   0  0  0  0  0  0  0  0  0  0  0  0
   -1.1610   21.7400  -30.7970 C   0  0  0  0  0  0  0  0  0  0  0  0
   -1.5970   21.1400  -29.4610 C   0  0  0  0  0  0  0  0  0  0  0  0
   -3.2700   21.7060  -28.9970 S   0  0  0  0  0  0  0  0  0  0  0  0
   -2.6570   23.0030  -27.9090 C   0  0  0  0  0  0  0  0  0  0  0  0
   -1.3980   22.8260  -27.3200 C   0  0  0  0  0  0  0  0  0  0  0  0
   -0.8650   23.8090  -26.4880 C   0  0  0  0  0  0  0  0  0  0  0  0
   -1.5880   24.9720  -26.2290 C   0  0  0  0  0  0  0  0  0  0  0  0
   -2.8470   25.1580  -26.8020 C   0  0  0  0  0  0  0  0  0  0  0  0
   -3.4000   24.1800  -27.6530 C   0  0  0  0  0  0  0  0  0  0  0  0
   -4.7020   24.3660  -28.2440 N   0  0  0  0  0  0  0  0  0  0  0  0
   -4.9530   24.6970  -29.9310 S   0  0  0  0  0  0  0  0  0  0  0  0
   -5.4350   26.1100  -30.0930 O   0  0  0  0  0  0  0  0  0  0  0  0
   -3.6480   24.5440  -30.6620 O   0  0  0  0  0  0  0  0  0  0  0  0
   -6.1730   23.6060  -30.5860 C   0  0  0  0  0  0  0  0  0  0  0  0
   -7.0010   22.8860  -29.7160 C   0  0  0  0  0  0  0  0  0  0  0  0
   -7.9730   22.0200  -30.2220 C   0  0  0  0  0  0  0  0  0  0  0  0
   -8.1290   21.8640  -31.6080 C   0  0  0  0  0  0  0  0  0  0  0  0
   -9.1390   20.8970  -32.1500 C   0  0  0  0  0  0  0  0  0  0  0  0
   -7.2820   22.5660  -32.4800 C   0  0  0  0  0  0  0  0  0  0  0  0
   -6.3160   23.4400  -31.9710 C   0  0  0  0  0  0  0  0  0  0  0  0
   -3.3220   21.1160  -32.5450 C   0  0  0  0  0  0  0  0  0  0  0  0
   -4.6210   20.8360  -32.9700 C   0  0  0  0  0  0  0  0  0  0  0  0
   -6.9715   19.1119  -32.9842 H   0  0  0  0  0  0  0  0  0  0  0  0
   -6.7516   20.0815  -34.4802 H   0  0  0  0  0  0  0  0  0  0  0  0
   -6.3592   18.3286  -34.4802 H   0  0  0  0  0  0  0  0  0  0  0  0
   -4.1926   17.5841  -33.9321 H   0  0  0  0  0  0  0  0  0  0  0  0
   -1.8739   18.0809  -33.1642 H   0  0  0  0  0  0  0  0  0  0  0  0
   -0.3032   22.4055  -30.6201 H   0  0  0  0  0  0  0  0  0  0  0  0
   -2.0218   22.2850  -31.2118 H   0  0  0  0  0  0  0  0  0  0  0  0
   -1.5996   20.0431  -29.5441 H   0  0  0  0  0  0  0  0  0  0  0  0
   -0.8905   21.4687  -28.6846 H   0  0  0  0  0  0  0  0  0  0  0  0
   -0.8272   21.9062  -27.5153 H   0  0  0  0  0  0  0  0  0  0  0  0
    0.1274   23.6667  -26.0353 H   0  0  0  0  0  0  0  0  0  0  0  0
   -1.1652   25.7455  -25.5711 H   0  0  0  0  0  0  0  0  0  0  0  0
   -3.4130   26.0765  -26.5874 H   0  0  0  0  0  0  0  0  0  0  0  0
   -5.5610   24.2430  -27.6670 H   0  0  0  0  0  0  0  0  0  0  0  0
   -6.8853   23.0031  -28.6284 H   0  0  0  0  0  0  0  0  0  0  0  0
   -8.6189   21.4580  -29.5314 H   0  0  0  0  0  0  0  0  0  0  0  0
   -9.6567   20.4014  -31.3155 H   0  0  0  0  0  0  0  0  0  0  0  0
   -9.8717   21.4389  -32.7660 H   0  0  0  0  0  0  0  0  0  0  0  0
   -8.6295   20.1414  -32.7660 H   0  0  0  0  0  0  0  0  0  0  0  0
   -7.3784   22.4283  -33.5671 H   0  0  0  0  0  0  0  0  0  0  0  0
   -5.6659   23.9993  -32.6598 H   0  0  0  0  0  0  0  0  0  0  0  0
   -3.0700   22.1209  -32.1754 H   0  0  0  0  0  0  0  0  0  0  0  0
   -5.3958   21.6147  -32.9127 H   0  0  0  0  0  0  0  0  0  0  0  0
  1  2  1  0
  2  3  2  0
  3  4  1  0
  4  5  2  0
  5  6  1  0
  6  7  1  0
  7  8  1  0
  8  9  1  0
  9 10  1  0
 10 11  2  0
 11 12  1  0
 12 13  2  0
 13 14  1  0
 14 15  2  0
 15 16  1  0
 16 17  1  0
 17 18  2  0
 17 19  2  0
 17 20  1  0
 20 21  2  0
 21 22  1  0
 22 23  2  0
 23 24  1  0
 23 25  1  0
 25 26  2  0
  5 27  1  0
 27 28  2  0
 28  2  1  0
 15 10  1  0
 26 20  1  0
  1 29  1  0
  1 30  1  0
  1 31  1  0
  3 32  1  0
  4 33  1  0
  7 34  1  0
  7 35  1  0
  8 36  1  0
  8 37  1  0
 11 38  1  0
 12 39  1  0
 13 40  1  0
 14 41  1  0
 16 42  1  0
 21 43  1  0
 22 44  1  0
 24 45  1  0
 24 46  1  0
 24 47  1  0
 25 48  1  0
 26 49  1  0
 27 50  1  0
 28 51  1  0
M  END
>  <UniqueID>  (16) 
14

>  <SMILES>  (16) 
Cc1ccc(SCCSc2ccccc2NS(=O)(=O)c2ccc(C)cc2)cc1

>  <Energy>  (16) 
42.34165512068574

>  <Genealogy>  (16) 
Cc1ccc(SCCSc2ccccc2NS(=O)(=O)c2ccc(C)cc2)cc1 (3D coordinates assigned)
Cc1ccc(SCCSc2ccccc2NS(=O)(=O)c2ccc(C)cc2)cc1 (optimized conformer: 42.34165512068574 kcal/mol)

>  <smiles>  (16) 
Cc1ccc(SCCSc2ccccc2NS(=O)(=O)c2ccc(C)cc2)cc1

>  <score_type>  (16) 
oracle

>  <origin>  (16) 
adgpu

>  <m_score__min__energy>  (16) 
-10.300000000000001

>  <m_primary>  (16) 
energy

$$$$
16:0
     RDKit          3D

 45 46  0  0  0  0  0  0  0  0999 V2000
    0.3770   22.3350  -35.7140 C   0  0  0  0  0  0  0  0  0  0  0  0
    0.8430   21.2100  -34.7800 C   0  0  0  0  0  0  0  0  0  0  0  0
   -0.3170   20.2920  -34.3530 C   0  0  0  0  0  0  0  0  0  0  0  0
   -0.9860   20.7930  -33.1030 C   0  0  0  0  0  0  0  0  0  0  0  0
   -2.0360   21.4890  -33.2070 O   0  0  0  0  0  0  0  0  0  0  0  0
   -0.3710   20.5720  -31.8200 N   0  0  0  0  0  0  0  0  0  0  0  0
   -0.9310   21.0490  -30.5860 C   0  0  0  0  0  0  0  0  0  0  0  0
   -1.0620   20.2000  -29.4740 C   0  0  0  0  0  0  0  0  0  0  0  0
   -1.6010   20.6840  -28.2850 C   0  0  0  0  0  0  0  0  0  0  0  0
   -2.0160   22.0140  -28.1960 C   0  0  0  0  0  0  0  0  0  0  0  0
   -1.8750   22.8750  -29.2890 C   0  0  0  0  0  0  0  0  0  0  0  0
   -2.4070   24.5530  -29.1800 S   0  0  0  0  0  0  0  0  0  0  0  0
   -3.0570   24.7700  -27.8450 O   0  0  0  0  0  0  0  0  0  0  0  0
   -1.2340   25.4840  -29.2890 O   0  0  0  0  0  0  0  0  0  0  0  0
   -3.5440   24.9350  -30.4370 N   0  0  0  0  0  0  0  0  0  0  0  0
   -4.6390   24.0990  -30.8440 C   0  0  0  0  0  0  0  0  0  0  0  0
   -4.4260   22.9350  -31.6130 C   0  0  0  0  0  0  0  0  0  0  0  0
   -5.4920   22.1140  -31.9920 C   0  0  0  0  0  0  0  0  0  0  0  0
   -5.2420   20.8290  -32.7230 C   0  0  0  0  0  0  0  0  0  0  0  0
   -6.7940   22.4590  -31.5910 C   0  0  0  0  0  0  0  0  0  0  0  0
   -7.0230   23.6260  -30.8480 C   0  0  0  0  0  0  0  0  0  0  0  0
   -5.9470   24.4440  -30.4600 C   0  0  0  0  0  0  0  0  0  0  0  0
   -6.2060   25.7040  -29.6680 C   0  0  0  0  0  0  0  0  0  0  0  0
   -1.3200   22.3940  -30.4770 C   0  0  0  0  0  0  0  0  0  0  0  0
    0.0241   23.1869  -35.1143 H   0  0  0  0  0  0  0  0  0  0  0  0
    1.2162   22.6559  -36.3486 H   0  0  0  0  0  0  0  0  0  0  0  0
   -0.4433   21.9685  -36.3486 H   0  0  0  0  0  0  0  0  0  0  0  0
    1.5992   20.6058  -35.3026 H   0  0  0  0  0  0  0  0  0  0  0  0
    1.2586   21.6737  -33.8732 H   0  0  0  0  0  0  0  0  0  0  0  0
   -1.0589   20.2530  -35.1642 H   0  0  0  0  0  0  0  0  0  0  0  0
    0.0925   19.2919  -34.1477 H   0  0  0  0  0  0  0  0  0  0  0  0
    0.6320   20.2680  -31.8130 H   0  0  0  0  0  0  0  0  0  0  0  0
   -0.7381   19.1510  -29.5430 H   0  0  0  0  0  0  0  0  0  0  0  0
   -1.6999   20.0180  -27.4151 H   0  0  0  0  0  0  0  0  0  0  0  0
   -2.4569   22.3872  -27.2599 H   0  0  0  0  0  0  0  0  0  0  0  0
   -3.4035   22.6692  -31.9194 H   0  0  0  0  0  0  0  0  0  0  0  0
   -5.0843   20.0184  -31.9963 H   0  0  0  0  0  0  0  0  0  0  0  0
   -6.1108   20.5914  -33.3545 H   0  0  0  0  0  0  0  0  0  0  0  0
   -4.3475   20.9344  -33.3545 H   0  0  0  0  0  0  0  0  0  0  0  0
   -7.6392   21.8092  -31.8618 H   0  0  0  0  0  0  0  0  0  0  0  0
   -8.0498   23.9031  -30.5672 H   0  0  0  0  0  0  0  0  0  0  0  0
   -6.1594   25.4772  -28.5926 H   0  0  0  0  0  0  0  0  0  0  0  0
   -5.4439   26.4570  -29.9173 H   0  0  0  0  0  0  0  0  0  0  0  0
   -7.2034   26.0953  -29.9173 H   0  0  0  0  0  0  0  0  0  0  0  0
   -1.1868   23.0727  -31.3323 H   0  0  0  0  0  0  0  0  0  0  0  0
  1  2  1  0
  2  3  1  0
  3  4  1  0
  4  5  2  0
  4  6  1  0
  6  7  1  0
  7  8  2  0
  8  9  1  0
  9 10  2  0
 10 11  1  0
 11 12  1  0
 12 13  2  0
 12 14  2  0
 12 15  1  0
 15 16  1  0
 16 17  2  0
 17 18  1  0
 18 19  1  0
 18 20  2  0
 20 21  1  0
 21 22  2  0
 22 23  1  0
 11 24  2  0
 24  7  1  0
 22 16  1  0
  1 25  1  0
  1 26  1  0
  1 27  1  0
  2 28  1  0
  2 29  1  0
  3 30  1  0
  3 31  1  0
  6 32  1  0
  8 33  1  0
  9 34  1  0
 10 35  1  0
 17 36  1  0
 19 37  1  0
 19 38  1  0
 19 39  1  0
 20 40  1  0
 21 41  1  0
 23 42  1  0
 23 43  1  0
 23 44  1  0
 24 45  1  0
M  CHG  1  15  -1
M  END
>  <UniqueID>  (17) 
15

>  <SMILES>  (17) 
CCCC(=O)Nc1cccc(S(=O)(=O)[N-]c2cc(C)ccc2C)c1

>  <Energy>  (17) 
46.770048683285864

>  <Genealogy>  (17) 
CCCC(=O)Nc1cccc(S(=O)(=O)[N-]c2cc(C)ccc2C)c1 (protonated)
CCCC(=O)Nc1cccc(S(=O)(=O)[N-]c2cc(C)ccc2C)c1 (3D coordinates assigned)
CCCC(=O)Nc1cccc(S(=O)(=O)[N-]c2cc(C)ccc2C)c1 (optimized conformer: 46.770048683285864 kcal/mol)

>  <smiles>  (17) 
CCCC(=O)Nc1cccc(S(=O)(=O)Nc2cc(C)ccc2C)c1

>  <score_type>  (17) 
oracle

>  <origin>  (17) 
adgpu

>  <m_score__min__energy>  (17) 
-9.6099999999999994

>  <m_primary>  (17) 
energy

$$$$
17:0
     RDKit          3D

 47 50  0  0  0  0  0  0  0  0999 V2000
   -6.3300   24.8290  -29.7870 C   0  0  0  0  0  0  0  0  0  0  0  0
   -5.2310   25.0960  -30.8070 C   0  0  0  0  0  0  0  0  0  0  0  0
   -4.0030   24.4110  -30.4180 N   0  0  0  0  0  0  0  0  0  0  0  0
   -3.6610   23.1530  -30.7550 C   0  0  0  0  0  0  0  0  0  0  0  0
   -2.4610   22.8570  -30.1360 C   0  0  0  0  0  0  0  0  0  0  0  0
   -1.7270   21.5700  -30.1300 C   0  0  0  0  0  0  0  0  0  0  0  0
   -1.1820   21.1280  -28.9120 C   0  0  0  0  0  0  0  0  0  0  0  0
   -0.4930   19.9180  -28.8530 C   0  0  0  0  0  0  0  0  0  0  0  0
   -0.3350   19.1690  -29.9710 N   0  0  0  0  0  0  0  0  0  0  0  0
   -0.8310   19.5650  -31.1710 C   0  0  0  0  0  0  0  0  0  0  0  0
   -1.5350   20.7760  -31.2920 C   0  0  0  0  0  0  0  0  0  0  0  0
   -2.0100   21.1860  -32.6720 C   0  0  0  0  0  0  0  0  0  0  0  0
   -3.2570   20.4450  -33.1030 C   0  0  0  0  0  0  0  0  0  0  0  0
   -3.1850   19.2610  -33.8600 C   0  0  0  0  0  0  0  0  0  0  0  0
   -4.3480   18.5760  -34.2120 C   0  0  0  0  0  0  0  0  0  0  0  0
   -5.5950   19.0510  -33.8040 C   0  0  0  0  0  0  0  0  0  0  0  0
   -5.6930   20.2200  -33.0300 C   0  0  0  0  0  0  0  0  0  0  0  0
   -7.0200   20.7200  -32.5860 C   0  0  0  0  0  0  0  0  0  0  0  0
   -8.1650   19.9110  -32.7060 C   0  0  0  0  0  0  0  0  0  0  0  0
   -9.4140   20.3840  -32.2870 C   0  0  0  0  0  0  0  0  0  0  0  0
   -9.5310   21.6660  -31.7460 C   0  0  0  0  0  0  0  0  0  0  0  0
   -8.4020   22.4780  -31.6220 C   0  0  0  0  0  0  0  0  0  0  0  0
   -7.1520   22.0100  -32.0380 C   0  0  0  0  0  0  0  0  0  0  0  0
   -4.5160   20.9060  -32.6790 C   0  0  0  0  0  0  0  0  0  0  0  0
   -2.1510   23.9890  -29.4020 C   0  0  0  0  0  0  0  0  0  0  0  0
   -3.1040   24.9220  -29.5920 N   0  0  0  0  0  0  0  0  0  0  0  0
   -5.9196   24.9287  -28.7713 H   0  0  0  0  0  0  0  0  0  0  0  0
   -7.1441   25.5555  -29.9265 H   0  0  0  0  0  0  0  0  0  0  0  0
   -6.7200   23.8100  -29.9265 H   0  0  0  0  0  0  0  0  0  0  0  0
   -5.5540   24.7303  -31.7928 H   0  0  0  0  0  0  0  0  0  0  0  0
   -5.0388   26.1782  -30.8515 H   0  0  0  0  0  0  0  0  0  0  0  0
   -4.2354   22.4794  -31.4079 H   0  0  0  0  0  0  0  0  0  0  0  0
   -1.2995   21.7380  -28.0042 H   0  0  0  0  0  0  0  0  0  0  0  0
   -0.0763   19.5701  -27.8963 H   0  0  0  0  0  0  0  0  0  0  0  0
   -0.6806   18.9319  -32.0579 H   0  0  0  0  0  0  0  0  0  0  0  0
   -2.2263   22.2645  -32.6640 H   0  0  0  0  0  0  0  0  0  0  0  0
   -1.2114   20.9373  -33.3864 H   0  0  0  0  0  0  0  0  0  0  0  0
   -2.2054   18.8732  -34.1762 H   0  0  0  0  0  0  0  0  0  0  0  0
   -4.2818   17.6575  -34.8137 H   0  0  0  0  0  0  0  0  0  0  0  0
   -6.5073   18.5070  -34.0900 H   0  0  0  0  0  0  0  0  0  0  0  0
   -8.0780   18.9005  -33.1318 H   0  0  0  0  0  0  0  0  0  0  0  0
  -10.3042   19.7452  -32.3840 H   0  0  0  0  0  0  0  0  0  0  0  0
  -10.5132   22.0364  -31.4173 H   0  0  0  0  0  0  0  0  0  0  0  0
   -8.4962   23.4879  -31.1962 H   0  0  0  0  0  0  0  0  0  0  0  0
   -6.2659   22.6539  -31.9365 H   0  0  0  0  0  0  0  0  0  0  0  0
   -4.5815   21.8158  -32.0642 H   0  0  0  0  0  0  0  0  0  0  0  0
   -1.2639   24.1082  -28.7626 H   0  0  0  0  0  0  0  0  0  0  0  0
  1  2  1  0
  2  3  1  0
  3  4  1  0
  4  5  2  0
  5  6  1  0
  6  7  2  0
  7  8  1  0
  8  9  2  0
  9 10  1  0
 10 11  2  0
 11 12  1  0
 12 13  1  0
 13 14  2  0
 14 15  1  0
 15 16  2  0
 16 17  1  0
 17 18  1  0
 18 19  2  0
 19 20  1  0
 20 21  2  0
 21 22  1  0
 22 23  2  0
 17 24  2  0
  5 25  1  0
 25 26  2  0
 26  3  1  0
 11  6  1  0
 24 13  1  0
 23 18  1  0
  1 27  1  0
  1 28  1  0
  1 29  1  0
  2 30  1  0
  2 31  1  0
  4 32  1  0
  7 33  1  0
  8 34  1  0
 10 35  1  0
 12 36  1  0
 12 37  1  0
 14 38  1  0
 15 39  1  0
 16 40  1  0
 19 41  1  0
 20 42  1  0
 21 43  1  0
 22 44  1  0
 23 45  1  0
 24 46  1  0
 25 47  1  0
M  END
>  <UniqueID>  (18) 
16

>  <SMILES>  (18) 
CCn1cc(-c2ccncc2Cc2cccc(-c3ccccc3)c2)cn1

>  <Energy>  (18) 
91.36096033911365

>  <Genealogy>  (18) 
CCn1cc(-c2ccncc2Cc2cccc(-c3ccccc3)c2)cn1 (3D coordinates assigned)
CCn1cc(-c2ccncc2Cc2cccc(-c3ccccc3)c2)cn1 (optimized conformer: 91.36096033911365 kcal/mol)

>  <smiles>  (18) 
CCn1cc(-c2ccncc2Cc2cccc(-c3ccccc3)c2)cn1

>  <score_type>  (18) 
oracle

>  <origin>  (18) 
adgpu

>  <m_score__min__energy>  (18) 
-8.9800000000000004

>  <m_primary>  (18) 
energy

$$$$
18:0
     RDKit          3D

 45 47  0  0  0  0  0  0  0  0999 V2000
   -0.9670   18.8210  -27.5120 C   0  0  0  0  0  0  0  0  0  0  0  0
   -2.1370   19.6830  -27.2830 N   0  0  0  0  0  0  0  0  0  0  0  0
   -3.0360   19.0420  -26.3060 C   0  0  0  0  0  0  0  0  0  0  0  0
   -1.6990   21.0110  -26.8030 C   0  0  0  0  0  0  0  0  0  0  0  0
   -2.2600   22.1020  -27.6780 C   0  0  0  0  0  0  0  0  0  0  0  0
   -3.6460   22.2800  -27.7980 C   0  0  0  0  0  0  0  0  0  0  0  0
   -4.1610   23.2740  -28.6340 C   0  0  0  0  0  0  0  0  0  0  0  0
   -3.2960   24.1060  -29.3710 C   0  0  0  0  0  0  0  0  0  0  0  0
   -3.7930   25.1270  -30.2580 N   0  0  0  0  0  0  0  0  0  0  0  0
   -5.2120   25.4130  -30.4710 C   0  0  0  0  0  0  0  0  0  0  0  0
   -5.9020   24.2230  -31.0630 C   0  0  0  0  0  0  0  0  0  0  0  0
   -7.2640   24.0790  -31.2250 C   0  0  0  0  0  0  0  0  0  0  0  0
   -7.4420   22.8420  -31.8090 C   0  0  0  0  0  0  0  0  0  0  0  0
   -6.1720   22.3100  -31.9640 C   0  0  0  0  0  0  0  0  0  0  0  0
   -5.8220   21.0080  -32.5720 C   0  0  0  0  0  0  0  0  0  0  0  0
   -4.4780   20.7710  -32.9040 C   0  0  0  0  0  0  0  0  0  0  0  0
   -4.0910   19.5640  -33.4940 C   0  0  0  0  0  0  0  0  0  0  0  0
   -2.4110   19.2920  -33.9170 Cl  0  0  0  0  0  0  0  0  0  0  0  0
   -5.0440   18.5750  -33.7470 C   0  0  0  0  0  0  0  0  0  0  0  0
   -6.3790   18.7860  -33.4000 C   0  0  0  0  0  0  0  0  0  0  0  0
   -6.7780   19.9920  -32.8080 C   0  0  0  0  0  0  0  0  0  0  0  0
   -8.4560   20.1330  -32.2960 Cl  0  0  0  0  0  0  0  0  0  0  0  0
   -5.2770   23.1630  -31.5220 O   0  0  0  0  0  0  0  0  0  0  0  0
   -1.9090   23.9270  -29.2410 C   0  0  0  0  0  0  0  0  0  0  0  0
   -1.3950   22.9310  -28.4060 C   0  0  0  0  0  0  0  0  0  0  0  0
   -0.5454   18.5104  -26.5446 H   0  0  0  0  0  0  0  0  0  0  0  0
   -1.2731   17.9309  -28.0813 H   0  0  0  0  0  0  0  0  0  0  0  0
   -0.2076   19.3771  -28.0813 H   0  0  0  0  0  0  0  0  0  0  0  0
   -2.7000   19.2816  -25.2863 H   0  0  0  0  0  0  0  0  0  0  0  0
   -4.0608   19.4144  -26.4514 H   0  0  0  0  0  0  0  0  0  0  0  0
   -3.0180   17.9518  -26.4514 H   0  0  0  0  0  0  0  0  0  0  0  0
   -2.0521   21.1572  -25.7715 H   0  0  0  0  0  0  0  0  0  0  0  0
   -0.6005   21.0568  -26.8389 H   0  0  0  0  0  0  0  0  0  0  0  0
   -4.3315   21.6333  -27.2307 H   0  0  0  0  0  0  0  0  0  0  0  0
   -5.2497   23.4077  -28.7171 H   0  0  0  0  0  0  0  0  0  0  0  0
   -3.1060   25.6770  -30.8220 H   0  0  0  0  0  0  0  0  0  0  0  0
   -5.6803   25.6609  -29.5070 H   0  0  0  0  0  0  0  0  0  0  0  0
   -5.3044   26.2608  -31.1657 H   0  0  0  0  0  0  0  0  0  0  0  0
   -8.0460   24.8007  -30.9464 H   0  0  0  0  0  0  0  0  0  0  0  0
   -8.3961   22.3741  -32.0932 H   0  0  0  0  0  0  0  0  0  0  0  0
   -3.7221   21.5430  -32.6977 H   0  0  0  0  0  0  0  0  0  0  0  0
   -4.7420   17.6290  -34.2202 H   0  0  0  0  0  0  0  0  0  0  0  0
   -7.1238   17.9998  -33.5926 H   0  0  0  0  0  0  0  0  0  0  0  0
   -1.2208   24.5768  -29.8016 H   0  0  0  0  0  0  0  0  0  0  0  0
   -0.3066   22.7969  -28.3196 H   0  0  0  0  0  0  0  0  0  0  0  0
  1  2  1  0
  2  3  1  0
  2  4  1  0
  4  5  1  0
  5  6  2  0
  6  7  1  0
  7  8  2  0
  8  9  1  0
  9 10  1  0
 10 11  1  0
 11 12  2  0
 12 13  1  0
 13 14  2  0
 14 15  1  0
 15 16  2  0
 16 17  1  0
 17 18  1  0
 17 19  2  0
 19 20  1  0
 20 21  2  0
 21 22  1  0
 14 23  1  0
  8 24  1  0
 24 25  2  0
 25  5  1  0
 23 11  1  0
 21 15  1  0
  1 26  1  0
  1 27  1  0
  1 28  1  0
  3 29  1  0
  3 30  1  0
  3 31  1  0
  4 32  1  0
  4 33  1  0
  6 34  1  0
  7 35  1  0
  9 36  1  0
 10 37  1  0
 10 38  1  0
 12 39  1  0
 13 40  1  0
 16 41  1  0
 19 42  1  0
 20 43  1  0
 24 44  1  0
 25 45  1  0
M  END
>  <UniqueID>  (19) 
17

>  <SMILES>  (19) 
CN(C)Cc1ccc(NCc2ccc(-c3cc(Cl)ccc3Cl)o2)cc1

>  <Energy>  (19) 
76.31914386481836

>  <Genealogy>  (19) 
CN(C)Cc1ccc(NCc2ccc(-c3cc(Cl)ccc3Cl)o2)cc1 (3D coordinates assigned)
CN(C)Cc1ccc(NCc2ccc(-c3cc(Cl)ccc3Cl)o2)cc1 (optimized conformer: 76.31914386481836 kcal/mol)

>  <smiles>  (19) 
CN(C)Cc1ccc(NCc2ccc(-c3cc(Cl)ccc3Cl)o2)cc1

>  <score_type>  (19) 
oracle

>  <origin>  (19) 
adgpu

>  <m_score__min__energy>  (19) 
-9.3499999999999996

>  <m_primary>  (19) 
energy

$$$$
19:0
     RDKit          3D

 39 40  0  0  0  0  0  0  0  0999 V2000
   -6.1550   25.6820  -29.4980 C   0  0  0  0  0  0  0  0  0  0  0  0
   -5.9590   24.4980  -30.4080 C   0  0  0  0  0  0  0  0  0  0  0  0
   -7.0910   23.7860  -30.8340 C   0  0  0  0  0  0  0  0  0  0  0  0
   -6.9530   22.6440  -31.6200 C   0  0  0  0  0  0  0  0  0  0  0  0
   -5.6840   22.1850  -31.9730 C   0  0  0  0  0  0  0  0  0  0  0  0
   -4.5370   22.8770  -31.5610 C   0  0  0  0  0  0  0  0  0  0  0  0
   -3.1840   22.3550  -31.9660 C   0  0  0  0  0  0  0  0  0  0  0  0
   -4.6730   24.0820  -30.8340 C   0  0  0  0  0  0  0  0  0  0  0  0
   -3.4980   24.8290  -30.4840 N   0  0  0  0  0  0  0  0  0  0  0  0
   -2.8030   24.7510  -29.2310 C   0  0  0  0  0  0  0  0  0  0  0  0
   -1.9810   25.6590  -28.9390 O   0  0  0  0  0  0  0  0  0  0  0  0
   -3.0730   23.6490  -28.2260 C   0  0  0  0  0  0  0  0  0  0  0  0
   -2.1270   22.5160  -28.3260 N   0  0  0  0  0  0  0  0  0  0  0  0
   -2.7710   21.2990  -28.8570 C   0  0  0  0  0  0  0  0  0  0  0  0
   -0.9140   22.8720  -29.0860 C   0  0  0  0  0  0  0  0  0  0  0  0
    0.1190   23.4680  -28.1800 C   0  0  0  0  0  0  0  0  0  0  0  0
    0.4640   23.0010  -26.9280 C   0  0  0  0  0  0  0  0  0  0  0  0
    1.4360   23.8630  -26.4670 C   0  0  0  0  0  0  0  0  0  0  0  0
    1.6230   24.7990  -27.4650 C   0  0  0  0  0  0  0  0  0  0  0  0
    0.8210   24.5370  -28.4720 O   0  0  0  0  0  0  0  0  0  0  0  0
   -6.1004   25.3520  -28.4501 H   0  0  0  0  0  0  0  0  0  0  0  0
   -5.3678   26.4260  -29.6896 H   0  0  0  0  0  0  0  0  0  0  0  0
   -7.1400   26.1327  -29.6896 H   0  0  0  0  0  0  0  0  0  0  0  0
   -8.0944   24.1321  -30.5452 H   0  0  0  0  0  0  0  0  0  0  0  0
   -7.8471   22.1029  -31.9631 H   0  0  0  0  0  0  0  0  0  0  0  0
   -5.5827   21.2729  -32.5794 H   0  0  0  0  0  0  0  0  0  0  0  0
   -2.5943   22.1275  -31.0658 H   0  0  0  0  0  0  0  0  0  0  0  0
   -3.3079   21.4401  -32.5641 H   0  0  0  0  0  0  0  0  0  0  0  0
   -2.6614   23.1160  -32.5641 H   0  0  0  0  0  0  0  0  0  0  0  0
   -3.0009   24.0748  -27.2143 H   0  0  0  0  0  0  0  0  0  0  0  0
   -4.0766   23.2532  -28.4409 H   0  0  0  0  0  0  0  0  0  0  0  0
   -3.1055   20.6668  -28.0213 H   0  0  0  0  0  0  0  0  0  0  0  0
   -3.6376   21.5816  -29.4727 H   0  0  0  0  0  0  0  0  0  0  0  0
   -2.0499   20.7415  -29.4727 H   0  0  0  0  0  0  0  0  0  0  0  0
   -0.5033   21.9665  -29.5564 H   0  0  0  0  0  0  0  0  0  0  0  0
   -1.1813   23.6120  -29.8547 H   0  0  0  0  0  0  0  0  0  0  0  0
    0.0502   22.1249  -26.4073 H   0  0  0  0  0  0  0  0  0  0  0  0
    1.9574   23.8150  -25.4996 H   0  0  0  0  0  0  0  0  0  0  0  0
    2.3350   25.6364  -27.4232 H   0  0  0  0  0  0  0  0  0  0  0  0
  1  2  1  0
  2  3  2  0
  3  4  1  0
  4  5  2  0
  5  6  1  0
  6  7  1  0
  6  8  2  0
  8  9  1  0
  9 10  1  0
 10 11  2  0
 10 12  1  0
 12 13  1  0
 13 14  1  0
 13 15  1  0
 15 16  1  0
 16 17  2  0
 17 18  1  0
 18 19  2  0
 19 20  1  0
  8  2  1  0
 20 16  1  0
  1 21  1  0
  1 22  1  0
  1 23  1  0
  3 24  1  0
  4 25  1  0
  5 26  1  0
  7 27  1  0
  7 28  1  0
  7 29  1  0
 12 30  1  0
 12 31  1  0
 14 32  1  0
 14 33  1  0
 14 34  1  0
 15 35  1  0
 15 36  1  0
 17 37  1  0
 18 38  1  0
 19 39  1  0
M  CHG  1   9  -1
M  END
>  <UniqueID>  (20) 
18

>  <SMILES>  (20) 
Cc1cccc(C)c1[N-]C(=O)CN(C)Cc1ccco1

>  <Energy>  (20) 
73.02883990506939

>  <Genealogy>  (20) 
Cc1cccc(C)c1[N-]C(=O)CN(C)Cc1ccco1 (protonated)
Cc1cccc(C)c1[N-]C(=O)CN(C)Cc1ccco1 (3D coordinates assigned)
Cc1cccc(C)c1[N-]C(=O)CN(C)Cc1ccco1 (optimized conformer: 73.02883990506939 kcal/mol)

>  <smiles>  (20) 
Cc1cccc(C)c1NC(=O)CN(C)Cc1ccco1

>  <score_type>  (20) 
oracle

>  <origin>  (20) 
adgpu

>  <m_score__min__energy>  (20) 
-8.2899999999999991

>  <m_primary>  (20) 
energy

$$$$
20:0
     RDKit          3D

 27 28  0  0  0  0  0  0  0  0999 V2000
   -3.1470   25.6740  -31.5950 H   0  0  0  0  0  0  0  0  0  0  0  0
   -3.8740   25.6340  -30.8910 O   0  0  0  0  0  0  0  0  0  0  0  0
   -5.0250   24.9210  -31.1330 N   0  0  0  0  0  0  0  0  0  0  0  0
   -5.0530   23.6410  -30.9580 C   0  0  0  0  0  0  0  0  0  0  0  0
   -4.1488   23.1171  -30.6146 H   0  0  0  0  0  0  0  0  0  0  0  0
   -6.2870   22.8780  -31.2150 C   0  0  0  0  0  0  0  0  0  0  0  0
   -7.5680   23.2930  -30.8960 C   0  0  0  0  0  0  0  0  0  0  0  0
   -7.8526   24.2410  -30.4161 H   0  0  0  0  0  0  0  0  0  0  0  0
   -8.4190   22.2820  -31.2990 C   0  0  0  0  0  0  0  0  0  0  0  0
   -9.5147   22.2696  -31.2027 H   0  0  0  0  0  0  0  0  0  0  0  0
   -7.6290   21.2900  -31.8460 C   0  0  0  0  0  0  0  0  0  0  0  0
   -8.0008   20.3421  -32.2622 H   0  0  0  0  0  0  0  0  0  0  0  0
   -6.3360   21.6580  -31.7930 N   0  0  0  0  0  0  0  0  0  0  0  0
   -4.9960   20.7030  -32.3490 S   0  0  0  0  0  0  0  0  0  0  0  0
   -4.2650   21.4350  -33.4380 O   0  0  0  0  0  0  0  0  0  0  0  0
   -4.0560   20.4690  -31.2000 O   0  0  0  0  0  0  0  0  0  0  0  0
   -5.5850   19.1720  -32.9860 C   0  0  0  0  0  0  0  0  0  0  0  0
   -6.3840   18.3430  -32.1870 C   0  0  0  0  0  0  0  0  0  0  0  0
   -6.6470   18.6538  -31.1651 H   0  0  0  0  0  0  0  0  0  0  0  0
   -6.8480   17.1210  -32.6860 C   0  0  0  0  0  0  0  0  0  0  0  0
   -7.4725   16.4710  -32.0555 H   0  0  0  0  0  0  0  0  0  0  0  0
   -6.5180   16.7260  -33.9860 C   0  0  0  0  0  0  0  0  0  0  0  0
   -6.8820   15.7647  -34.3776 H   0  0  0  0  0  0  0  0  0  0  0  0
   -5.7260   17.5520  -34.7880 C   0  0  0  0  0  0  0  0  0  0  0  0
   -5.4680   17.2409  -35.8111 H   0  0  0  0  0  0  0  0  0  0  0  0
   -5.2610   18.7740  -34.2910 C   0  0  0  0  0  0  0  0  0  0  0  0
   -4.6400   19.4240  -34.9250 H   0  0  0  0  0  0  0  0  0  0  0  0
  1  2  1  0
  2  3  1  0
  3  4  2  0
  4  5  1  0
  4  6  1  0
  6  7  2  0
  7  8  1  0
  7  9  1  0
  9 10  1  0
  9 11  2  0
 11 12  1  0
 11 13  1  0
 13 14  1  0
 14 15  2  0
 14 16  2  0
 14 17  1  0
 17 18  2  0
 18 19  1  0
 18 20  1  0
 20 21  1  0
 20 22  2  0
 22 23  1  0
 22 24  1  0
 24 25  1  0
 24 26  2  0
 26 27  1  0
 13  6  1  0
 26 17  1  0
M  END
>  <UniqueID>  (21) 
19

>  <SMILES>  (21) 
O=S(=O)(c1ccccc1)n1cccc1/C=N/O

>  <Energy>  (21) 
52.72427738346322

>  <Genealogy>  (21) 
O=S(=O)(c1ccccc1)n1cccc1/C=N/O (cis-trans isomerization)
O=S(=O)(c1ccccc1)n1cccc1/C=N/O (3D coordinates assigned)
O=S(=O)(c1ccccc1)n1cccc1/C=N/O (optimized conformer: 52.72427738346322 kcal/mol)

>  <smiles>  (21) 
O=S(=O)(c1ccccc1)n1cccc1C=NO

>  <score_type>  (21) 
oracle

>  <origin>  (21) 
adgpu

>  <m_score__min__energy>  (21) 
-8.4499999999999993

>  <m_primary>  (21) 
energy

$$$$
21:0
     RDKit          3D

 33 35  0  0  0  0  0  0  0  0999 V2000
   -3.8960   25.5520  -30.4830 N   0  0  0  0  0  0  0  0  0  0  0  0
   -4.0900   24.1390  -30.5210 C   0  0  0  0  0  0  0  0  0  0  0  0
   -4.9320   23.6540  -31.3230 O   0  0  0  0  0  0  0  0  0  0  0  0
   -3.3540   23.2490  -29.5900 C   0  0  0  0  0  0  0  0  0  0  0  0
   -2.9680   23.7670  -28.3400 C   0  0  0  0  0  0  0  0  0  0  0  0
   -2.2040   23.0050  -27.4550 C   0  0  0  0  0  0  0  0  0  0  0  0
   -1.8170   21.7120  -27.8010 C   0  0  0  0  0  0  0  0  0  0  0  0
   -2.2070   21.1700  -29.0270 C   0  0  0  0  0  0  0  0  0  0  0  0
   -2.9850   21.9180  -29.9290 C   0  0  0  0  0  0  0  0  0  0  0  0
   -3.4660   21.2570  -31.1660 C   0  0  0  0  0  0  0  0  0  0  0  0
   -2.6070   21.0390  -32.2520 C   0  0  0  0  0  0  0  0  0  0  0  0
   -3.0960   20.4100  -33.3960 C   0  0  0  0  0  0  0  0  0  0  0  0
   -4.4270   19.9940  -33.4490 C   0  0  0  0  0  0  0  0  0  0  0  0
   -5.2660   20.2100  -32.3420 C   0  0  0  0  0  0  0  0  0  0  0  0
   -6.6940   19.8040  -32.3470 C   0  0  0  0  0  0  0  0  0  0  0  0
   -7.7040   20.7810  -32.3730 C   0  0  0  0  0  0  0  0  0  0  0  0
   -9.0480   20.4050  -32.3750 C   0  0  0  0  0  0  0  0  0  0  0  0
   -9.3790   19.0500  -32.3420 C   0  0  0  0  0  0  0  0  0  0  0  0
   -8.3980   18.1120  -32.3030 N   0  0  0  0  0  0  0  0  0  0  0  0
   -7.0810   18.4500  -32.3060 C   0  0  0  0  0  0  0  0  0  0  0  0
   -4.7580   20.8330  -31.2420 N   0  0  0  0  0  0  0  0  0  0  0  0
   -3.4850   26.0590  -31.2980 H   0  0  0  0  0  0  0  0  0  0  0  0
   -3.2723   24.7854  -28.0568 H   0  0  0  0  0  0  0  0  0  0  0  0
   -1.9069   23.4257  -26.4830 H   0  0  0  0  0  0  0  0  0  0  0  0
   -1.2037   21.1178  -27.1076 H   0  0  0  0  0  0  0  0  0  0  0  0
   -1.9024   20.1464  -29.2906 H   0  0  0  0  0  0  0  0  0  0  0  0
   -1.5565   21.3613  -32.2020 H   0  0  0  0  0  0  0  0  0  0  0  0
   -2.4325   20.2416  -34.2571 H   0  0  0  0  0  0  0  0  0  0  0  0
   -4.8171   19.5002  -34.3512 H   0  0  0  0  0  0  0  0  0  0  0  0
   -7.4339   21.8471  -32.3919 H   0  0  0  0  0  0  0  0  0  0  0  0
   -9.8386   21.1694  -32.4023 H   0  0  0  0  0  0  0  0  0  0  0  0
  -10.4349   18.7416  -32.3476 H   0  0  0  0  0  0  0  0  0  0  0  0
   -6.3138   17.6623  -32.2763 H   0  0  0  0  0  0  0  0  0  0  0  0
  1  2  1  0
  2  3  2  0
  2  4  1  0
  4  5  2  0
  5  6  1  0
  6  7  2  0
  7  8  1  0
  8  9  2  0
  9 10  1  0
 10 11  2  0
 11 12  1  0
 12 13  2  0
 13 14  1  0
 14 15  1  0
 15 16  2  0
 16 17  1  0
 17 18  2  0
 18 19  1  0
 19 20  2  0
 14 21  2  0
  9  4  1  0
 21 10  1  0
 20 15  1  0
  1 22  1  0
  5 23  1  0
  6 24  1  0
  7 25  1  0
  8 26  1  0
 11 27  1  0
 12 28  1  0
 13 29  1  0
 16 30  1  0
 17 31  1  0
 18 32  1  0
 20 33  1  0
M  CHG  1   1  -1
M  END
>  <UniqueID>  (22) 
20

>  <SMILES>  (22) 
[NH-]C(=O)c1ccccc1-c1cccc(-c2cccnc2)n1

>  <Energy>  (22) 
50.71524653923607

>  <Genealogy>  (22) 
[NH-]C(=O)c1ccccc1-c1cccc(-c2cccnc2)n1 (protonated)
[NH-]C(=O)c1ccccc1-c1cccc(-c2cccnc2)n1 (3D coordinates assigned)
[NH-]C(=O)c1ccccc1-c1cccc(-c2cccnc2)n1 (optimized conformer: 50.71524653923607 kcal/mol)

>  <smiles>  (22) 
NC(=O)c1ccccc1-c1cccc(-c2cccnc2)n1

>  <score_type>  (22) 
oracle

>  <origin>  (22) 
adgpu

>  <m_score__min__energy>  (22) 
-10.16

>  <m_primary>  (22) 
energy

$$$$
22:0
     RDKit          3D

 33 34  0  0  0  0  0  0  0  0999 V2000
   -6.7830   25.0830  -30.0940 C   0  0  0  0  0  0  0  0  0  0  0  0
   -6.2050   23.8450  -30.6340 N   0  0  0  0  0  0  0  0  0  0  0  0
   -6.7690   22.6750  -29.9310 C   0  0  0  0  0  0  0  0  0  0  0  0
   -7.4900   21.7720  -30.8960 C   0  0  0  0  0  0  0  0  0  0  0  0
   -8.8700   21.9200  -31.1190 C   0  0  0  0  0  0  0  0  0  0  0  0
   -9.5320   21.0780  -32.0180 C   0  0  0  0  0  0  0  0  0  0  0  0
   -8.8220   20.0870  -32.7030 C   0  0  0  0  0  0  0  0  0  0  0  0
   -7.4490   19.9380  -32.4910 C   0  0  0  0  0  0  0  0  0  0  0  0
   -6.7830   20.7780  -31.5940 C   0  0  0  0  0  0  0  0  0  0  0  0
   -4.4670   23.8950  -30.4420 S   0  0  0  0  0  0  0  0  0  0  0  0
   -4.0930   23.6470  -29.0080 O   0  0  0  0  0  0  0  0  0  0  0  0
   -3.9410   25.2450  -30.8490 O   0  0  0  0  0  0  0  0  0  0  0  0
   -3.7250   22.6390  -31.4290 C   0  0  0  0  0  0  0  0  0  0  0  0
   -2.5870   21.9680  -30.9550 C   0  0  0  0  0  0  0  0  0  0  0  0
   -1.9970   20.9570  -31.7210 C   0  0  0  0  0  0  0  0  0  0  0  0
   -2.5410   20.6110  -32.9610 C   0  0  0  0  0  0  0  0  0  0  0  0
   -3.6780   21.2730  -33.4360 C   0  0  0  0  0  0  0  0  0  0  0  0
   -4.2700   22.2850  -32.6720 C   0  0  0  0  0  0  0  0  0  0  0  0
   -6.7660   25.0466  -28.9947 H   0  0  0  0  0  0  0  0  0  0  0  0
   -6.1941   25.9446  -30.4415 H   0  0  0  0  0  0  0  0  0  0  0  0
   -7.8217   25.1847  -30.4415 H   0  0  0  0  0  0  0  0  0  0  0  0
   -5.9533   22.1138  -29.4517 H   0  0  0  0  0  0  0  0  0  0  0  0
   -7.4850   23.0280  -29.1742 H   0  0  0  0  0  0  0  0  0  0  0  0
   -9.4310   22.7008  -30.5845 H   0  0  0  0  0  0  0  0  0  0  0  0
  -10.6127   21.1954  -32.1866 H   0  0  0  0  0  0  0  0  0  0  0  0
   -9.3445   19.4246  -33.4089 H   0  0  0  0  0  0  0  0  0  0  0  0
   -6.8914   19.1585  -33.0308 H   0  0  0  0  0  0  0  0  0  0  0  0
   -5.7011   20.6606  -31.4338 H   0  0  0  0  0  0  0  0  0  0  0  0
   -2.1580   22.2378  -29.9787 H   0  0  0  0  0  0  0  0  0  0  0  0
   -1.1044   20.4341  -31.3471 H   0  0  0  0  0  0  0  0  0  0  0  0
   -2.0748   19.8177  -33.5637 H   0  0  0  0  0  0  0  0  0  0  0  0
   -4.1071   20.9979  -34.4108 H   0  0  0  0  0  0  0  0  0  0  0  0
   -5.1645   22.8039  -33.0470 H   0  0  0  0  0  0  0  0  0  0  0  0
  1  2  1  0
  2  3  1  0
  3  4  1  0
  4  5  2  0
  5  6  1  0
  6  7  2  0
  7  8  1  0
  8  9  2  0
  2 10  1  0
 10 11  2  0
 10 12  2  0
 10 13  1  0
 13 14  2  0
 14 15  1  0
 15 16  2  0
 16 17  1  0
 17 18  2  0
  9  4  1  0
 18 13  1  0
  1 19  1  0
  1 20  1  0
  1 21  1  0
  3 22  1  0
  3 23  1  0
  5 24  1  0
  6 25  1  0
  7 26  1  0
  8 27  1  0
  9 28  1  0
 14 29  1  0
 15 30  1  0
 16 31  1  0
 17 32  1  0
 18 33  1  0
M  END
>  <UniqueID>  (23) 
21

>  <SMILES>  (23) 
CN(Cc1ccccc1)S(=O)(=O)c1ccccc1

>  <Energy>  (23) 
32.188323129416005

>  <Genealogy>  (23) 
CN(Cc1ccccc1)S(=O)(=O)c1ccccc1 (3D coordinates assigned)
CN(Cc1ccccc1)S(=O)(=O)c1ccccc1 (optimized conformer: 32.188323129416005 kcal/mol)

>  <smiles>  (23) 
CN(Cc1ccccc1)S(=O)(=O)c1ccccc1

>  <score_type>  (23) 
oracle

>  <origin>  (23) 
adgpu

>  <m_score__min__energy>  (23) 
-7.4299999999999997

>  <m_primary>  (23) 
energy

$$$$
23:0
     RDKit          3D

 43 45  0  0  0  0  0  0  0  0999 V2000
    1.2560   25.2390  -27.4870 O   0  0  0  0  0  0  0  0  0  0  0  0
   -0.1030   24.9780  -27.6520 C   0  0  0  0  0  0  0  0  0  0  0  0
   -0.5620   24.3120  -28.7970 C   0  0  0  0  0  0  0  0  0  0  0  0
   -1.9250   24.0510  -28.9610 C   0  0  0  0  0  0  0  0  0  0  0  0
   -2.8460   24.4550  -27.9810 C   0  0  0  0  0  0  0  0  0  0  0  0
   -4.3120   24.1580  -28.1610 C   0  0  0  0  0  0  0  0  0  0  0  0
   -4.6510   24.0850  -29.5970 N   0  0  0  0  0  0  0  0  0  0  0  0
   -5.7790   24.9940  -29.9150 C   0  0  0  0  0  0  0  0  0  0  0  0
   -6.4770   24.5760  -31.2120 C   0  0  0  0  0  0  0  0  0  0  0  0
   -7.0910   23.2400  -31.0610 N   0  0  0  0  0  0  0  0  0  0  0  0
   -7.5450   22.6340  -32.3350 C   0  0  0  0  0  0  0  0  0  0  0  0
   -7.7010   21.1230  -32.2810 C   0  0  0  0  0  0  0  0  0  0  0  0
   -8.9510   20.5680  -31.9490 C   0  0  0  0  0  0  0  0  0  0  0  0
   -9.1200   19.1840  -31.8750 C   0  0  0  0  0  0  0  0  0  0  0  0
   -8.0510   18.3320  -32.1500 C   0  0  0  0  0  0  0  0  0  0  0  0
   -6.8120   18.8630  -32.5090 C   0  0  0  0  0  0  0  0  0  0  0  0
   -6.6280   20.2490  -32.5870 C   0  0  0  0  0  0  0  0  0  0  0  0
   -5.0440   20.8390  -33.0850 Cl  0  0  0  0  0  0  0  0  0  0  0  0
   -6.3520   22.3210  -30.1630 C   0  0  0  0  0  0  0  0  0  0  0  0
   -4.8620   22.6870  -30.0560 C   0  0  0  0  0  0  0  0  0  0  0  0
   -2.3850   25.1230  -26.8360 C   0  0  0  0  0  0  0  0  0  0  0  0
   -1.0190   25.3830  -26.6710 C   0  0  0  0  0  0  0  0  0  0  0  0
   -0.4680   26.2180  -25.2260 Cl  0  0  0  0  0  0  0  0  0  0  0  0
    1.5950   25.8310  -26.7380 H   0  0  0  0  0  0  0  0  0  0  0  0
    0.1536   23.9936  -29.5694 H   0  0  0  0  0  0  0  0  0  0  0  0
   -2.2779   23.5269  -29.8615 H   0  0  0  0  0  0  0  0  0  0  0  0
   -4.5479   23.1954  -27.6837 H   0  0  0  0  0  0  0  0  0  0  0  0
   -4.8987   24.9644  -27.6968 H   0  0  0  0  0  0  0  0  0  0  0  0
   -6.5065   24.9653  -29.0905 H   0  0  0  0  0  0  0  0  0  0  0  0
   -5.3811   26.0112  -30.0453 H   0  0  0  0  0  0  0  0  0  0  0  0
   -7.2603   25.3093  -31.4543 H   0  0  0  0  0  0  0  0  0  0  0  0
   -5.7322   24.5363  -32.0205 H   0  0  0  0  0  0  0  0  0  0  0  0
   -8.5185   23.0728  -32.5990 H   0  0  0  0  0  0  0  0  0  0  0  0
   -6.7671   22.8467  -33.0831 H   0  0  0  0  0  0  0  0  0  0  0  0
   -9.8042   21.2318  -31.7456 H   0  0  0  0  0  0  0  0  0  0  0  0
  -10.0988   18.7648  -31.5991 H   0  0  0  0  0  0  0  0  0  0  0  0
   -8.1846   17.2421  -32.0839 H   0  0  0  0  0  0  0  0  0  0  0  0
   -5.9730   18.1877  -32.7326 H   0  0  0  0  0  0  0  0  0  0  0  0
   -6.8013   22.3683  -29.1601 H   0  0  0  0  0  0  0  0  0  0  0  0
   -6.4214   21.3077  -30.5853 H   0  0  0  0  0  0  0  0  0  0  0  0
   -4.3815   22.0042  -29.3398 H   0  0  0  0  0  0  0  0  0  0  0  0
   -4.4221   22.5948  -31.0600 H   0  0  0  0  0  0  0  0  0  0  0  0
   -3.1003   25.4439  -26.0644 H   0  0  0  0  0  0  0  0  0  0  0  0
  1  2  1  0
  2  3  2  0
  3  4  1  0
  4  5  2  0
  5  6  1  0
  6  7  1  0
  7  8  1  0
  8  9  1  0
  9 10  1  0
 10 11  1  0
 11 12  1  0
 12 13  2  0
 13 14  1  0
 14 15  2  0
 15 16  1  0
 16 17  2  0
 17 18  1  0
 10 19  1  0
 19 20  1  0
  5 21  1  0
 21 22  2  0
 22 23  1  0
 22  2  1  0
 20  7  1  0
 17 12  1  0
  1 24  1  0
  3 25  1  0
  4 26  1  0
  6 27  1  0
  6 28  1  0
  8 29  1  0
  8 30  1  0
  9 31  1  0
  9 32  1  0
 11 33  1  0
 11 34  1  0
 13 35  1  0
 14 36  1  0
 15 37  1  0
 16 38  1  0
 19 39  1  0
 19 40  1  0
 20 41  1  0
 20 42  1  0
 21 43  1  0
M  END
>  <UniqueID>  (24) 
22

>  <SMILES>  (24) 
Oc1ccc(CN2CCN(Cc3ccccc3Cl)CC2)cc1Cl

>  <Energy>  (24) 
61.56696221978166

>  <Genealogy>  (24) 
Oc1ccc(CN2CCN(Cc3ccccc3Cl)CC2)cc1Cl (3D coordinates assigned)
Oc1ccc(CN2CCN(Cc3ccccc3Cl)CC2)cc1Cl (nonaromatic ring conformer: 61.56696221978166 kcal/mol)

>  <smiles>  (24) 
Oc1ccc(CN2CCN(Cc3ccccc3Cl)CC2)cc1Cl

>  <score_type>  (24) 
oracle

>  <origin>  (24) 
adgpu

>  <m_score__min__energy>  (24) 
-9.4499999999999993

>  <m_primary>  (24) 
energy

$$$$
24:0
     RDKit          3D

 37 39  0  0  0  0  0  0  0  0999 V2000
   -3.1361   16.6749  -33.8581 H   0  0  0  0  0  0  0  0  0  0  0  0
   -4.1140   17.1490  -33.6880 C   0  0  0  0  0  0  0  0  0  0  0  0
   -4.5830   18.1210  -34.5750 C   0  0  0  0  0  0  0  0  0  0  0  0
   -3.9719   18.4155  -35.4409 H   0  0  0  0  0  0  0  0  0  0  0  0
   -5.8290   18.7200  -34.3630 C   0  0  0  0  0  0  0  0  0  0  0  0
   -6.1900   19.4922  -35.0583 H   0  0  0  0  0  0  0  0  0  0  0  0
   -6.6200   18.3420  -33.2700 C   0  0  0  0  0  0  0  0  0  0  0  0
   -7.8570   18.9770  -33.0830 O   0  0  0  0  0  0  0  0  0  0  0  0
   -8.0390   20.2680  -32.5660 C   0  0  0  0  0  0  0  0  0  0  0  0
   -9.2480   20.6640  -31.9650 C   0  0  0  0  0  0  0  0  0  0  0  0
  -10.0777   19.9472  -31.8770 H   0  0  0  0  0  0  0  0  0  0  0  0
   -9.3970   21.9650  -31.4800 C   0  0  0  0  0  0  0  0  0  0  0  0
  -10.3417   22.2681  -31.0051 H   0  0  0  0  0  0  0  0  0  0  0  0
   -8.3500   22.8830  -31.5960 C   0  0  0  0  0  0  0  0  0  0  0  0
   -8.4740   23.9073  -31.2146 H   0  0  0  0  0  0  0  0  0  0  0  0
   -7.1400   22.5020  -32.1980 C   0  0  0  0  0  0  0  0  0  0  0  0
   -6.0130   23.4920  -32.3430 C   0  0  0  0  0  0  0  0  0  0  0  0
   -5.7239   23.5561  -33.4024 H   0  0  0  0  0  0  0  0  0  0  0  0
   -6.3564   24.4714  -31.9787 H   0  0  0  0  0  0  0  0  0  0  0  0
   -4.8510   23.0800  -31.5530 N   0  0  0  0  0  0  0  0  0  0  0  0
   -3.8780   22.3010  -31.9370 C   0  0  0  0  0  0  0  0  0  0  0  0
   -2.8350   22.0400  -31.0370 C   0  0  0  0  0  0  0  0  0  0  0  0
   -2.8509   22.4821  -30.0299 H   0  0  0  0  0  0  0  0  0  0  0  0
   -1.7780   21.2180  -31.4240 C   0  0  0  0  0  0  0  0  0  0  0  0
   -0.9555   21.0109  -30.7236 H   0  0  0  0  0  0  0  0  0  0  0  0
   -1.7660   20.6590  -32.7010 C   0  0  0  0  0  0  0  0  0  0  0  0
   -0.9356   20.0102  -33.0165 H   0  0  0  0  0  0  0  0  0  0  0  0
   -2.8200   20.9320  -33.5750 C   0  0  0  0  0  0  0  0  0  0  0  0
   -2.8204   20.4946  -34.5843 H   0  0  0  0  0  0  0  0  0  0  0  0
   -3.8470   21.7360  -33.1860 N   0  0  0  0  0  0  0  0  0  0  0  0
   -4.6110   21.9000  -33.8750 H   0  0  0  0  0  0  0  0  0  0  0  0
   -7.0020   21.1970  -32.6980 C   0  0  0  0  0  0  0  0  0  0  0  0
   -6.0681   20.9023  -33.1989 H   0  0  0  0  0  0  0  0  0  0  0  0
   -6.1340   17.3760  -32.3700 C   0  0  0  0  0  0  0  0  0  0  0  0
   -6.7362   17.0895  -31.4952 H   0  0  0  0  0  0  0  0  0  0  0  0
   -4.8880   16.7790  -32.5840 C   0  0  0  0  0  0  0  0  0  0  0  0
   -4.5162   16.0173  -31.8829 H   0  0  0  0  0  0  0  0  0  0  0  0
  1  2  1  0
  2  3  2  0
  3  4  1  0
  3  5  1  0
  5  6  1  0
  5  7  2  0
  7  8  1  0
  8  9  1  0
  9 10  2  0
 10 11  1  0
 10 12  1  0
 12 13  1  0
 12 14  2  0
 14 15  1  0
 14 16  1  0
 16 17  1  0
 17 18  1  0
 17 19  1  0
 17 20  1  0
 20 21  2  0
 21 22  1  0
 22 23  1  0
 22 24  2  0
 24 25  1  0
 24 26  1  0
 26 27  1  0
 26 28  2  0
 28 29  1  0
 28 30  1  0
 30 31  1  0
 16 32  2  0
 32 33  1  0
  7 34  1  0
 34 35  1  0
 34 36  2  0
 36 37  1  0
 36  2  1  0
 32  9  1  0
 30 21  1  0
M  END
>  <UniqueID>  (25) 
23

>  <SMILES>  (25) 
c1ccc(Oc2cccc(C/N=c3/cccc[nH]3)c2)cc1

>  <Energy>  (25) 
47.5193367138472

>  <Genealogy>  (25) 
c1ccc(Oc2cccc(C/N=c3/cccc[nH]3)c2)cc1 (cis-trans isomerization)
c1ccc(Oc2cccc(C/N=c3/cccc[nH]3)c2)cc1 (3D coordinates assigned)
c1ccc(Oc2cccc(C/N=c3/cccc[nH]3)c2)cc1 (optimized conformer: 47.5193367138472 kcal/mol)

>  <smiles>  (25) 
c1ccc(Oc2cccc(CN=c3cccc[nH]3)c2)cc1

>  <score_type>  (25) 
oracle

>  <origin>  (25) 
adgpu

>  <m_score__min__energy>  (25) 
-7.9900000000000002

>  <m_primary>  (25) 
energy

$$$$
25:0
     RDKit          3D

 41 43  0  0  0  0  0  0  0  0999 V2000
   -1.4520   25.6770  -28.9240 O   0  0  0  0  0  0  0  0  0  0  0  0
   -2.5770   24.6810  -28.9570 S   0  0  0  0  0  0  0  0  0  0  0  0
   -3.4660   24.9220  -27.7700 O   0  0  0  0  0  0  0  0  0  0  0  0
   -1.9090   23.0610  -28.8570 C   0  0  0  0  0  0  0  0  0  0  0  0
   -2.3460   22.1980  -27.9360 C   0  0  0  0  0  0  0  0  0  0  0  0
   -1.7830   20.8390  -27.7660 C   0  0  0  0  0  0  0  0  0  0  0  0
   -2.3370   19.9030  -26.8690 C   0  0  0  0  0  0  0  0  0  0  0  0
   -1.7830   18.6250  -26.7520 C   0  0  0  0  0  0  0  0  0  0  0  0
   -0.6690   18.2700  -27.5140 C   0  0  0  0  0  0  0  0  0  0  0  0
   -0.1000   19.1970  -28.3920 C   0  0  0  0  0  0  0  0  0  0  0  0
   -0.6510   20.4770  -28.5130 C   0  0  0  0  0  0  0  0  0  0  0  0
   -3.4960   24.9060  -30.4080 N   0  0  0  0  0  0  0  0  0  0  0  0
   -4.5760   24.0440  -30.7670 C   0  0  0  0  0  0  0  0  0  0  0  0
   -5.8480   24.2680  -30.2230 C   0  0  0  0  0  0  0  0  0  0  0  0
   -6.9110   23.4210  -30.5500 C   0  0  0  0  0  0  0  0  0  0  0  0
   -6.7130   22.3550  -31.4330 C   0  0  0  0  0  0  0  0  0  0  0  0
   -5.4520   22.1450  -32.0040 C   0  0  0  0  0  0  0  0  0  0  0  0
   -5.2020   20.7940  -33.1550 S   0  0  0  0  0  0  0  0  0  0  0  0
   -6.6740   19.9330  -32.6050 C   0  0  0  0  0  0  0  0  0  0  0  0
   -7.9330   20.3070  -33.0900 C   0  0  0  0  0  0  0  0  0  0  0  0
   -9.0800   19.6400  -32.6470 C   0  0  0  0  0  0  0  0  0  0  0  0
   -8.9700   18.5960  -31.7240 C   0  0  0  0  0  0  0  0  0  0  0  0
   -7.7120   18.2170  -31.2430 C   0  0  0  0  0  0  0  0  0  0  0  0
   -6.5650   18.8820  -31.6860 C   0  0  0  0  0  0  0  0  0  0  0  0
   -4.3880   22.9950  -31.6780 C   0  0  0  0  0  0  0  0  0  0  0  0
   -1.1216   22.7530  -29.5607 H   0  0  0  0  0  0  0  0  0  0  0  0
   -3.1642   22.5122  -27.2712 H   0  0  0  0  0  0  0  0  0  0  0  0
   -3.2092   20.1797  -26.2584 H   0  0  0  0  0  0  0  0  0  0  0  0
   -2.2265   17.8967  -26.0571 H   0  0  0  0  0  0  0  0  0  0  0  0
   -0.2391   17.2615  -27.4238 H   0  0  0  0  0  0  0  0  0  0  0  0
    0.7818   18.9197  -28.9883 H   0  0  0  0  0  0  0  0  0  0  0  0
   -0.1937   21.2055  -29.1988 H   0  0  0  0  0  0  0  0  0  0  0  0
   -6.0104   25.1124  -29.5370 H   0  0  0  0  0  0  0  0  0  0  0  0
   -7.9051   23.5935  -30.1118 H   0  0  0  0  0  0  0  0  0  0  0  0
   -7.5475   21.6818  -31.6789 H   0  0  0  0  0  0  0  0  0  0  0  0
   -8.0202   21.1256  -33.8196 H   0  0  0  0  0  0  0  0  0  0  0  0
  -10.0692   19.9373  -33.0252 H   0  0  0  0  0  0  0  0  0  0  0  0
   -9.8725   18.0724  -31.3758 H   0  0  0  0  0  0  0  0  0  0  0  0
   -7.6255   17.3958  -30.5163 H   0  0  0  0  0  0  0  0  0  0  0  0
   -5.5757   18.5794  -31.3123 H   0  0  0  0  0  0  0  0  0  0  0  0
   -3.4012   22.8391  -32.1383 H   0  0  0  0  0  0  0  0  0  0  0  0
  1  2  2  0
  2  3  2  0
  2  4  1  0
  4  5  2  3
  5  6  1  0
  6  7  2  0
  7  8  1  0
  8  9  2  0
  9 10  1  0
 10 11  2  0
  2 12  1  0
 12 13  1  0
 13 14  2  0
 14 15  1  0
 15 16  2  0
 16 17  1  0
 17 18  1  0
 18 19  1  0
 19 20  2  0
 20 21  1  0
 21 22  2  0
 22 23  1  0
 23 24  2  0
 17 25  2  0
 11  6  1  0
 25 13  1  0
 24 19  1  0
  4 26  1  0
  5 27  1  0
  7 28  1  0
  8 29  1  0
  9 30  1  0
 10 31  1  0
 11 32  1  0
 14 33  1  0
 15 34  1  0
 16 35  1  0
 20 36  1  0
 21 37  1  0
 22 38  1  0
 23 39  1  0
 24 40  1  0
 25 41  1  0
M  CHG  1  12  -1
M  END
>  <UniqueID>  (26) 
24

>  <SMILES>  (26) 
O=S(=O)(C=Cc1ccccc1)[N-]c1cccc(Sc2ccccc2)c1

>  <Energy>  (26) 
46.29333454111541

>  <Genealogy>  (26) 
O=S(=O)(C=Cc1ccccc1)[N-]c1cccc(Sc2ccccc2)c1 (protonated)
O=S(=O)(C=Cc1ccccc1)[N-]c1cccc(Sc2ccccc2)c1 (3D coordinates assigned)
O=S(=O)(C=Cc1ccccc1)[N-]c1cccc(Sc2ccccc2)c1 (optimized conformer: 46.29333454111541 kcal/mol)

>  <smiles>  (26) 
O=S(=O)(C=Cc1ccccc1)Nc1cccc(Sc2ccccc2)c1

>  <score_type>  (26) 
oracle

>  <origin>  (26) 
adgpu

>  <m_score__min__energy>  (26) 
-11.18

>  <m_primary>  (26) 
energy

$$$$
26:0
     RDKit          3D

 39 41  0  0  0  0  0  0  0  0999 V2000
   -5.5950   17.5120  -34.6400 C   0  0  0  0  0  0  0  0  0  0  0  0
   -5.6710   18.1590  -33.3730 O   0  0  0  0  0  0  0  0  0  0  0  0
   -6.7910   18.8630  -32.9030 C   0  0  0  0  0  0  0  0  0  0  0  0
   -7.9730   18.1990  -32.5170 C   0  0  0  0  0  0  0  0  0  0  0  0
   -9.0690   18.9220  -32.0460 C   0  0  0  0  0  0  0  0  0  0  0  0
   -9.0050   20.3110  -31.9590 C   0  0  0  0  0  0  0  0  0  0  0  0
   -7.8440   20.9840  -32.3410 C   0  0  0  0  0  0  0  0  0  0  0  0
   -6.7240   20.2710  -32.8130 C   0  0  0  0  0  0  0  0  0  0  0  0
   -5.5160   20.9540  -33.2080 N   0  0  0  0  0  0  0  0  0  0  0  0
   -4.1730   21.2430  -32.1450 S   0  0  0  0  0  0  0  0  0  0  0  0
   -3.9870   20.0520  -31.2480 O   0  0  0  0  0  0  0  0  0  0  0  0
   -2.9290   21.4370  -32.9660 O   0  0  0  0  0  0  0  0  0  0  0  0
   -4.4880   22.6590  -31.1450 C   0  0  0  0  0  0  0  0  0  0  0  0
   -5.8070   23.0340  -30.8630 C   0  0  0  0  0  0  0  0  0  0  0  0
   -6.0620   24.1670  -30.0870 C   0  0  0  0  0  0  0  0  0  0  0  0
   -5.0020   24.9230  -29.5780 C   0  0  0  0  0  0  0  0  0  0  0  0
   -3.6730   24.5380  -29.8310 C   0  0  0  0  0  0  0  0  0  0  0  0
   -2.5550   25.2940  -29.3440 N   0  0  0  0  0  0  0  0  0  0  0  0
   -1.4020   24.7770  -28.6650 C   0  0  0  0  0  0  0  0  0  0  0  0
   -0.4570   25.5420  -28.3340 O   0  0  0  0  0  0  0  0  0  0  0  0
   -1.3420   23.3550  -28.3010 C   0  0  0  0  0  0  0  0  0  0  0  0
   -1.9630   22.8280  -27.1650 C   0  0  0  0  0  0  0  0  0  0  0  0
   -1.5970   21.2030  -27.2170 S   0  0  0  0  0  0  0  0  0  0  0  0
   -0.7030   21.1950  -28.6120 N   0  0  0  0  0  0  0  0  0  0  0  0
   -0.6660   22.4440  -29.0670 N   0  0  0  0  0  0  0  0  0  0  0  0
   -3.4260   23.4140  -30.6310 C   0  0  0  0  0  0  0  0  0  0  0  0
   -5.4678   16.4295  -34.4919 H   0  0  0  0  0  0  0  0  0  0  0  0
   -6.5213   17.6987  -35.2032 H   0  0  0  0  0  0  0  0  0  0  0  0
   -4.7372   17.9083  -35.2032 H   0  0  0  0  0  0  0  0  0  0  0  0
   -8.0315   17.1028  -32.5877 H   0  0  0  0  0  0  0  0  0  0  0  0
   -9.9854   18.3945  -31.7427 H   0  0  0  0  0  0  0  0  0  0  0  0
   -9.8715   20.8783  -31.5884 H   0  0  0  0  0  0  0  0  0  0  0  0
   -7.8026   22.0811  -32.2731 H   0  0  0  0  0  0  0  0  0  0  0  0
   -5.3860   21.2400  -34.2040 H   0  0  0  0  0  0  0  0  0  0  0  0
   -6.6436   22.4356  -31.2530 H   0  0  0  0  0  0  0  0  0  0  0  0
   -7.0995   24.4652  -29.8758 H   0  0  0  0  0  0  0  0  0  0  0  0
   -5.2078   25.8216  -28.9779 H   0  0  0  0  0  0  0  0  0  0  0  0
   -2.5572   23.3633  -26.4097 H   0  0  0  0  0  0  0  0  0  0  0  0
   -2.3897   23.1224  -30.8571 H   0  0  0  0  0  0  0  0  0  0  0  0
  1  2  1  0
  2  3  1  0
  3  4  2  0
  4  5  1  0
  5  6  2  0
  6  7  1  0
  7  8  2  0
  8  9  1  0
  9 10  1  0
 10 11  2  0
 10 12  2  0
 10 13  1  0
 13 14  2  0
 14 15  1  0
 15 16  2  0
 16 17  1  0
 17 18  1  0
 18 19  1  0
 19 20  2  0
 19 21  1  0
 21 22  2  0
 22 23  1  0
 23 24  1  0
 24 25  2  0
 17 26  2  0
  8  3  1  0
 26 13  1  0
 25 21  1  0
  1 27  1  0
  1 28  1  0
  1 29  1  0
  4 30  1  0
  5 31  1  0
  6 32  1  0
  7 33  1  0
  9 34  1  0
 14 35  1  0
 15 36  1  0
 16 37  1  0
 22 38  1  0
 26 39  1  0
M  CHG  1  18  -1
M  END
>  <UniqueID>  (27) 
25

>  <SMILES>  (27) 
COc1ccccc1NS(=O)(=O)c1cccc([N-]C(=O)c2csnn2)c1

>  <Energy>  (27) 
83.61092714414987

>  <Genealogy>  (27) 
COc1ccccc1NS(=O)(=O)c1cccc([N-]C(=O)c2csnn2)c1 (protonated)
COc1ccccc1NS(=O)(=O)c1cccc([N-]C(=O)c2csnn2)c1 (3D coordinates assigned)
COc1ccccc1NS(=O)(=O)c1cccc([N-]C(=O)c2csnn2)c1 (optimized conformer: 83.61092714414987 kcal/mol)

>  <smiles>  (27) 
COc1ccccc1NS(=O)(=O)c1cccc(NC(=O)c2csnn2)c1

>  <score_type>  (27) 
oracle

>  <origin>  (27) 
adgpu

>  <m_score__min__energy>  (27) 
-10.49

>  <m_primary>  (27) 
energy

$$$$
27:0
     RDKit          3D

 41 43  0  0  0  0  0  0  0  0999 V2000
   -5.6900   25.2720  -30.6800 C   0  0  0  0  0  0  0  0  0  0  0  0
   -4.4780   24.5510  -30.8680 O   0  0  0  0  0  0  0  0  0  0  0  0
   -3.9960   23.5580  -29.9990 C   0  0  0  0  0  0  0  0  0  0  0  0
   -3.4970   23.8740  -28.7210 C   0  0  0  0  0  0  0  0  0  0  0  0
   -2.9820   22.8740  -27.8940 C   0  0  0  0  0  0  0  0  0  0  0  0
   -2.9420   21.5460  -28.3320 C   0  0  0  0  0  0  0  0  0  0  0  0
   -2.4180   20.4680  -27.4290 C   0  0  0  0  0  0  0  0  0  0  0  0
   -3.4600   21.2190  -29.5910 C   0  0  0  0  0  0  0  0  0  0  0  0
   -3.9910   22.2140  -30.4310 C   0  0  0  0  0  0  0  0  0  0  0  0
   -4.5090   21.8500  -31.7290 N   0  0  0  0  0  0  0  0  0  0  0  0
   -3.6680   21.9500  -32.9250 C   0  0  0  0  0  0  0  0  0  0  0  0
   -5.9020   21.5240  -31.8910 C   0  0  0  0  0  0  0  0  0  0  0  0
   -6.8170   22.5310  -31.8770 N   0  0  0  0  0  0  0  0  0  0  0  0
   -8.1500   22.2870  -31.9680 C   0  0  0  0  0  0  0  0  0  0  0  0
   -9.1170   23.4230  -31.9820 C   0  0  0  0  0  0  0  0  0  0  0  0
   -8.5990   21.0120  -32.0970 N   0  0  0  0  0  0  0  0  0  0  0  0
   -7.7370   19.9640  -32.1270 C   0  0  0  0  0  0  0  0  0  0  0  0
   -8.2280   18.6610  -32.2660 C   0  0  0  0  0  0  0  0  0  0  0  0
   -7.3440   17.5810  -32.3240 C   0  0  0  0  0  0  0  0  0  0  0  0
   -5.9660   17.7990  -32.2550 C   0  0  0  0  0  0  0  0  0  0  0  0
   -5.4630   19.0970  -32.1170 C   0  0  0  0  0  0  0  0  0  0  0  0
   -6.3440   20.1920  -32.0330 C   0  0  0  0  0  0  0  0  0  0  0  0
   -5.8846   25.3878  -29.6036 H   0  0  0  0  0  0  0  0  0  0  0  0
   -5.6021   26.2647  -31.1455 H   0  0  0  0  0  0  0  0  0  0  0  0
   -6.5204   24.7210  -31.1455 H   0  0  0  0  0  0  0  0  0  0  0  0
   -3.5130   24.9168  -28.3714 H   0  0  0  0  0  0  0  0  0  0  0  0
   -2.6058   23.1316  -26.8930 H   0  0  0  0  0  0  0  0  0  0  0  0
   -2.5628   20.7659  -26.3800 H   0  0  0  0  0  0  0  0  0  0  0  0
   -2.9613   19.5313  -27.6225 H   0  0  0  0  0  0  0  0  0  0  0  0
   -1.3458   20.3166  -27.6225 H   0  0  0  0  0  0  0  0  0  0  0  0
   -3.4515   20.1716  -29.9270 H   0  0  0  0  0  0  0  0  0  0  0  0
   -2.6171   22.0750  -32.6249 H   0  0  0  0  0  0  0  0  0  0  0  0
   -3.7718   21.0332  -33.5239 H   0  0  0  0  0  0  0  0  0  0  0  0
   -3.9839   22.8169  -33.5239 H   0  0  0  0  0  0  0  0  0  0  0  0
   -9.3610   23.7096  -30.9484 H   0  0  0  0  0  0  0  0  0  0  0  0
   -8.6676   24.2807  -32.5040 H   0  0  0  0  0  0  0  0  0  0  0  0
  -10.0354   23.1163  -32.5040 H   0  0  0  0  0  0  0  0  0  0  0  0
   -9.3123   18.4869  -32.3297 H   0  0  0  0  0  0  0  0  0  0  0  0
   -7.7337   16.5572  -32.4242 H   0  0  0  0  0  0  0  0  0  0  0  0
   -5.2733   16.9462  -32.3094 H   0  0  0  0  0  0  0  0  0  0  0  0
   -4.3764   19.2626  -32.0740 H   0  0  0  0  0  0  0  0  0  0  0  0
  1  2  1  0
  2  3  1  0
  3  4  2  0
  4  5  1  0
  5  6  2  0
  6  7  1  0
  6  8  1  0
  8  9  2  0
  9 10  1  0
 10 11  1  0
 10 12  1  0
 12 13  2  0
 13 14  1  0
 14 15  1  0
 14 16  2  0
 16 17  1  0
 17 18  2  0
 18 19  1  0
 19 20  2  0
 20 21  1  0
 21 22  2  0
  9  3  1  0
 22 12  1  0
 22 17  1  0
  1 23  1  0
  1 24  1  0
  1 25  1  0
  4 26  1  0
  5 27  1  0
  7 28  1  0
  7 29  1  0
  7 30  1  0
  8 31  1  0
 11 32  1  0
 11 33  1  0
 11 34  1  0
 15 35  1  0
 15 36  1  0
 15 37  1  0
 18 38  1  0
 19 39  1  0
 20 40  1  0
 21 41  1  0
M  END
>  <UniqueID>  (28) 
26

>  <SMILES>  (28) 
COc1ccc(C)cc1N(C)c1nc(C)nc2ccccc12

>  <Energy>  (28) 
54.55210984204644

>  <Genealogy>  (28) 
COc1ccc(C)cc1N(C)c1nc(C)nc2ccccc12 (3D coordinates assigned)
COc1ccc(C)cc1N(C)c1nc(C)nc2ccccc12 (optimized conformer: 54.55210984204644 kcal/mol)

>  <smiles>  (28) 
COc1ccc(C)cc1N(C)c1nc(C)nc2ccccc12

>  <score_type>  (28) 
oracle

>  <origin>  (28) 
adgpu

>  <m_score__min__energy>  (28) 
-7.8499999999999996

>  <m_primary>  (28) 
energy

$$$$
28:0
     RDKit          3D

 51 54  0  0  0  0  0  0  0  0999 V2000
   -5.3060   26.6540  -30.2050 H   0  0  0  0  0  0  0  0  0  0  0  0
   -5.3370   25.8090  -30.8180 N   0  0  0  0  0  0  0  0  0  0  0  0
   -4.4750   24.8530  -30.6960 C   0  0  0  0  0  0  0  0  0  0  0  0
   -3.4970   24.9280  -29.7540 N   0  0  0  0  0  0  0  0  0  0  0  0
   -2.5700   23.9410  -29.6110 C   0  0  0  0  0  0  0  0  0  0  0  0
   -1.5150   24.0650  -28.5720 C   0  0  0  0  0  0  0  0  0  0  0  0
   -1.1270   22.9420  -27.8180 C   0  0  0  0  0  0  0  0  0  0  0  0
   -1.5979   21.9668  -28.0112 H   0  0  0  0  0  0  0  0  0  0  0  0
   -0.1500   23.0540  -26.8270 C   0  0  0  0  0  0  0  0  0  0  0  0
    0.1416   22.1658  -26.2473 H   0  0  0  0  0  0  0  0  0  0  0  0
    0.4610   24.2820  -26.5640 C   0  0  0  0  0  0  0  0  0  0  0  0
    1.4370   24.3400  -25.5570 O   0  0  0  0  0  0  0  0  0  0  0  0
    1.4450   25.2940  -24.5010 C   0  0  0  0  0  0  0  0  0  0  0  0
    1.4406   24.7703  -23.5337 H   0  0  0  0  0  0  0  0  0  0  0  0
    2.3484   25.9170  -24.5765 H   0  0  0  0  0  0  0  0  0  0  0  0
    0.5522   25.9321  -24.5765 H   0  0  0  0  0  0  0  0  0  0  0  0
    0.0780   25.4110  -27.3110 C   0  0  0  0  0  0  0  0  0  0  0  0
    0.5511   26.3836  -27.1107 H   0  0  0  0  0  0  0  0  0  0  0  0
   -0.9000   25.3070  -28.3070 C   0  0  0  0  0  0  0  0  0  0  0  0
   -1.2370   26.4420  -29.0370 O   0  0  0  0  0  0  0  0  0  0  0  0
   -2.6310   22.8240  -30.4580 C   0  0  0  0  0  0  0  0  0  0  0  0
   -1.8805   22.0233  -30.3820 H   0  0  0  0  0  0  0  0  0  0  0  0
   -3.6620   22.7450  -31.4010 C   0  0  0  0  0  0  0  0  0  0  0  0
   -3.7570   21.6070  -32.3310 C   0  0  0  0  0  0  0  0  0  0  0  0
   -2.7560   21.2140  -33.2100 C   0  0  0  0  0  0  0  0  0  0  0  0
   -1.7982   21.7376  -33.3456 H   0  0  0  0  0  0  0  0  0  0  0  0
   -3.1250   20.0990  -33.8740 N   0  0  0  0  0  0  0  0  0  0  0  0
   -2.5640   19.5830  -34.5870 H   0  0  0  0  0  0  0  0  0  0  0  0
   -4.3570   19.7920  -33.4310 C   0  0  0  0  0  0  0  0  0  0  0  0
   -5.1410   18.7280  -33.8460 C   0  0  0  0  0  0  0  0  0  0  0  0
   -4.7664   18.0152  -34.5954 H   0  0  0  0  0  0  0  0  0  0  0  0
   -6.4310   18.5750  -33.2890 C   0  0  0  0  0  0  0  0  0  0  0  0
   -7.2440   17.4960  -33.6730 O   0  0  0  0  0  0  0  0  0  0  0  0
   -6.7910   16.1600  -33.8680 C   0  0  0  0  0  0  0  0  0  0  0  0
   -6.6288   15.6815  -32.8909 H   0  0  0  0  0  0  0  0  0  0  0  0
   -7.5477   15.5949  -34.4319 H   0  0  0  0  0  0  0  0  0  0  0  0
   -5.8466   16.1717  -34.4319 H   0  0  0  0  0  0  0  0  0  0  0  0
   -6.9130   19.5300  -32.3320 C   0  0  0  0  0  0  0  0  0  0  0  0
   -8.1910   19.4340  -31.7500 O   0  0  0  0  0  0  0  0  0  0  0  0
   -9.4470   19.6400  -32.3860 C   0  0  0  0  0  0  0  0  0  0  0  0
  -10.2281   19.7681  -31.6222 H   0  0  0  0  0  0  0  0  0  0  0  0
   -9.3966   20.5419  -33.0138 H   0  0  0  0  0  0  0  0  0  0  0  0
   -9.6873   18.7693  -33.0138 H   0  0  0  0  0  0  0  0  0  0  0  0
   -6.0790   20.6270  -31.9490 C   0  0  0  0  0  0  0  0  0  0  0  0
   -6.4820   21.6590  -31.0810 O   0  0  0  0  0  0  0  0  0  0  0  0
   -7.4990   22.6260  -31.3160 C   0  0  0  0  0  0  0  0  0  0  0  0
   -7.8852   22.9932  -30.3537 H   0  0  0  0  0  0  0  0  0  0  0  0
   -7.0801   23.4671  -31.8880 H   0  0  0  0  0  0  0  0  0  0  0  0
   -8.3179   22.1653  -31.8880 H   0  0  0  0  0  0  0  0  0  0  0  0
   -4.7910   20.6910  -32.4940 C   0  0  0  0  0  0  0  0  0  0  0  0
   -4.5480   23.7710  -31.5120 N   0  0  0  0  0  0  0  0  0  0  0  0
  1  2  1  0
  2  3  2  0
  3  4  1  0
  4  5  2  0
  5  6  1  0
  6  7  2  0
  7  8  1  0
  7  9  1  0
  9 10  1  0
  9 11  2  0
 11 12  1  0
 12 13  1  0
 13 14  1  0
 13 15  1  0
 13 16  1  0
 11 17  1  0
 17 18  1  0
 17 19  2  0
 19 20  1  0
  5 21  1  0
 21 22  1  0
 21 23  2  0
 23 24  1  0
 24 25  2  0
 25 26  1  0
 25 27  1  0
 27 28  1  0
 27 29  1  0
 29 30  2  0
 30 31  1  0
 30 32  1  0
 32 33  1  0
 33 34  1  0
 34 35  1  0
 34 36  1  0
 34 37  1  0
 32 38  2  0
 38 39  1  0
 39 40  1  0
 40 41  1  0
 40 42  1  0
 40 43  1  0
 38 44  1  0
 44 45  1  0
 45 46  1  0
 46 47  1  0
 46 48  1  0
 46 49  1  0
 44 50  2  0
 23 51  1  0
 51  3  1  0
 19  6  1  0
 50 24  1  0
 50 29  1  0
M  CHG  2  20  -1  51  -1
M  END
>  <UniqueID>  (29) 
27

>  <SMILES>  (29) 
[H]/N=c1\nc(-c2ccc(OC)cc2[O-])cc(-c2c[nH]c3cc(OC)c(OC)c(OC)c23)[n-]1

>  <Energy>  (29) 
102.41183661747144

>  <Genealogy>  (29) 
COc1ccc(-c2cc(-c3c[nH]c4cc(OC)c(OC)c(OC)c34)[n-]c(=N)n2)c([O-])c1 (protonated)
[H]/N=c1\nc(-c2ccc(OC)cc2[O-])cc(-c2c[nH]c3cc(OC)c(OC)c(OC)c23)[n-]1 (cis-trans isomerization)
[H]/N=c1\nc(-c2ccc(OC)cc2[O-])cc(-c2c[nH]c3cc(OC)c(OC)c(OC)c23)[n-]1 (3D coordinates assigned)
[H]/N=c1\nc(-c2ccc(OC)cc2[O-])cc(-c2c[nH]c3cc(OC)c(OC)c(OC)c23)[n-]1 (optimized conformer: 102.41183661747144 kcal/mol)

>  <smiles>  (29) 
COc1ccc(-c2cc(-c3c[nH]c4cc(OC)c(OC)c(OC)c34)[nH]c(=N)n2)c(O)c1

>  <score_type>  (29) 
oracle

>  <origin>  (29) 
adgpu

>  <m_score__min__energy>  (29) 
-12.390000000000001

>  <m_primary>  (29) 
energy

$$$$
29:0
     RDKit          3D

 50 52  0  0  0  0  0  0  0  0999 V2000
    0.3190   22.4860  -27.3650 C   0  0  0  0  0  0  0  0  0  0  0  0
   -0.7760   21.5830  -27.7080 N   0  0  0  0  0  0  0  0  0  0  0  0
   -1.1990   21.3290  -29.0600 C   0  0  0  0  0  0  0  0  0  0  0  0
   -2.3810   20.6190  -29.3430 C   0  0  0  0  0  0  0  0  0  0  0  0
   -2.7630   20.3820  -30.6670 C   0  0  0  0  0  0  0  0  0  0  0  0
   -1.9740   20.8470  -31.7260 C   0  0  0  0  0  0  0  0  0  0  0  0
   -2.4910   20.5670  -33.3870 S   0  0  0  0  0  0  0  0  0  0  0  0
   -1.2990   20.4780  -34.2980 O   0  0  0  0  0  0  0  0  0  0  0  0
   -3.3490   21.7120  -33.8480 O   0  0  0  0  0  0  0  0  0  0  0  0
   -3.4350   19.1130  -33.4490 N   0  0  0  0  0  0  0  0  0  0  0  0
   -4.8200   19.0310  -33.0960 C   0  0  0  0  0  0  0  0  0  0  0  0
   -5.4280   17.7730  -33.0540 C   0  0  0  0  0  0  0  0  0  0  0  0
   -6.7780   17.6530  -32.7250 C   0  0  0  0  0  0  0  0  0  0  0  0
   -7.5300   18.7860  -32.3960 C   0  0  0  0  0  0  0  0  0  0  0  0
   -9.2330   18.5660  -32.0020 Cl  0  0  0  0  0  0  0  0  0  0  0  0
   -6.9170   20.0560  -32.3810 C   0  0  0  0  0  0  0  0  0  0  0  0
   -7.8170   21.4940  -31.8760 S   0  0  0  0  0  0  0  0  0  0  0  0
   -8.0310   21.5110  -30.3880 O   0  0  0  0  0  0  0  0  0  0  0  0
   -9.1660   21.4740  -32.5400 O   0  0  0  0  0  0  0  0  0  0  0  0
   -6.9630   22.9230  -32.3660 N   0  0  0  0  0  0  0  0  0  0  0  0
   -5.9170   23.5290  -31.5860 C   0  0  0  0  0  0  0  0  0  0  0  0
   -6.0080   24.8560  -31.1320 C   0  0  0  0  0  0  0  0  0  0  0  0
   -4.9600   25.4280  -30.4060 C   0  0  0  0  0  0  0  0  0  0  0  0
   -3.8150   24.6850  -30.1020 C   0  0  0  0  0  0  0  0  0  0  0  0
   -2.8030   25.2990  -29.3510 O   0  0  0  0  0  0  0  0  0  0  0  0
   -2.2130   24.7340  -28.1850 C   0  0  0  0  0  0  0  0  0  0  0  0
   -3.7190   23.3570  -30.5550 C   0  0  0  0  0  0  0  0  0  0  0  0
   -4.7600   22.7900  -31.3000 C   0  0  0  0  0  0  0  0  0  0  0  0
   -5.5660   20.1720  -32.7490 C   0  0  0  0  0  0  0  0  0  0  0  0
   -0.8040   21.5680  -31.4510 C   0  0  0  0  0  0  0  0  0  0  0  0
   -0.4190   21.8060  -30.1280 C   0  0  0  0  0  0  0  0  0  0  0  0
    0.4060   22.5578  -26.2708 H   0  0  0  0  0  0  0  0  0  0  0  0
    1.2594   22.0973  -27.7829 H   0  0  0  0  0  0  0  0  0  0  0  0
    0.1165   23.4832  -27.7829 H   0  0  0  0  0  0  0  0  0  0  0  0
   -1.2970   21.1310  -26.9220 H   0  0  0  0  0  0  0  0  0  0  0  0
   -3.0075   20.2486  -28.5182 H   0  0  0  0  0  0  0  0  0  0  0  0
   -3.6890   19.8269  -30.8778 H   0  0  0  0  0  0  0  0  0  0  0  0
   -4.8384   16.8727  -33.2817 H   0  0  0  0  0  0  0  0  0  0  0  0
   -7.2544   16.6615  -32.7242 H   0  0  0  0  0  0  0  0  0  0  0  0
   -7.1140   23.2490  -33.3470 H   0  0  0  0  0  0  0  0  0  0  0  0
   -6.9094   25.4477  -31.3494 H   0  0  0  0  0  0  0  0  0  0  0  0
   -5.0364   26.4728  -30.0704 H   0  0  0  0  0  0  0  0  0  0  0  0
   -2.6745   25.1760  -27.2896 H   0  0  0  0  0  0  0  0  0  0  0  0
   -2.3755   23.6461  -28.1822 H   0  0  0  0  0  0  0  0  0  0  0  0
   -1.1331   24.9434  -28.1822 H   0  0  0  0  0  0  0  0  0  0  0  0
   -2.8233   22.7620  -30.3233 H   0  0  0  0  0  0  0  0  0  0  0  0
   -4.6696   21.7560  -31.6641 H   0  0  0  0  0  0  0  0  0  0  0  0
   -5.0880   21.1626  -32.7659 H   0  0  0  0  0  0  0  0  0  0  0  0
   -0.1867   21.9478  -32.2785 H   0  0  0  0  0  0  0  0  0  0  0  0
    0.5018   22.3711  -29.9211 H   0  0  0  0  0  0  0  0  0  0  0  0
  1  2  1  0
  2  3  1  0
  3  4  2  0
  4  5  1  0
  5  6  2  0
  6  7  1  0
  7  8  2  0
  7  9  2  0
  7 10  1  0
 10 11  1  0
 11 12  2  0
 12 13  1  0
 13 14  2  0
 14 15  1  0
 14 16  1  0
 16 17  1  0
 17 18  2  0
 17 19  2  0
 17 20  1  0
 20 21  1  0
 21 22  2  0
 22 23  1  0
 23 24  2  0
 24 25  1  0
 25 26  1  0
 24 27  1  0
 27 28  2  0
 16 29  2  0
  6 30  1  0
 30 31  2  0
 31  3  1  0
 29 11  1  0
 28 21  1  0
  1 32  1  0
  1 33  1  0
  1 34  1  0
  2 35  1  0
  4 36  1  0
  5 37  1  0
 12 38  1  0
 13 39  1  0
 20 40  1  0
 22 41  1  0
 23 42  1  0
 26 43  1  0
 26 44  1  0
 26 45  1  0
 27 46  1  0
 28 47  1  0
 29 48  1  0
 30 49  1  0
 31 50  1  0
M  CHG  1  10  -1
M  END
>  <UniqueID>  (30) 
28

>  <SMILES>  (30) 
CNc1ccc(S(=O)(=O)[N-]c2ccc(Cl)c(S(=O)(=O)Nc3ccc(OC)cc3)c2)cc1

>  <Energy>  (30) 
58.147542719254346

>  <Genealogy>  (30) 
CNc1ccc(S(=O)(=O)[N-]c2ccc(Cl)c(S(=O)(=O)Nc3ccc(OC)cc3)c2)cc1 (protonated)
CNc1ccc(S(=O)(=O)[N-]c2ccc(Cl)c(S(=O)(=O)Nc3ccc(OC)cc3)c2)cc1 (3D coordinates assigned)
CNc1ccc(S(=O)(=O)[N-]c2ccc(Cl)c(S(=O)(=O)Nc3ccc(OC)cc3)c2)cc1 (optimized conformer: 58.147542719254346 kcal/mol)

>  <smiles>  (30) 
CNc1ccc(S(=O)(=O)Nc2ccc(Cl)c(S(=O)(=O)Nc3ccc(OC)cc3)c2)cc1

>  <score_type>  (30) 
oracle

>  <origin>  (30) 
adgpu

>  <m_score__min__energy>  (30) 
-10.18

>  <m_primary>  (30) 
energy

$$$$
30:0
     RDKit          3D

 73 77  0  0  0  0  0  0  0  0999 V2000
    0.1739   19.2629  -27.1585 H   0  0  0  0  0  0  0  0  0  0  0  0
   -0.0170   19.2220  -28.2410 C   0  0  0  0  0  0  0  0  0  0  0  0
   -1.1170   19.7150  -28.9140 C   0  0  0  0  0  0  0  0  0  0  0  0
   -2.2880   20.3910  -28.2860 C   0  0  0  0  0  0  0  0  0  0  0  0
   -2.1977   20.3388  -27.1910 H   0  0  0  0  0  0  0  0  0  0  0  0
   -2.3161   21.4443  -28.6018 H   0  0  0  0  0  0  0  0  0  0  0  0
   -3.2142   19.8886  -28.6018 H   0  0  0  0  0  0  0  0  0  0  0  0
   -1.0060   19.4810  -30.2010 O   0  0  0  0  0  0  0  0  0  0  0  0
    0.1320   18.8610  -30.4080 C   0  0  0  0  0  0  0  0  0  0  0  0
    0.6060   18.4110  -31.7560 C   0  0  0  0  0  0  0  0  0  0  0  0
    1.6938   18.5589  -31.8256 H   0  0  0  0  0  0  0  0  0  0  0  0
    0.3603   17.3464  -31.8835 H   0  0  0  0  0  0  0  0  0  0  0  0
   -0.0570   19.1840  -32.8170 N   0  0  0  0  0  0  0  0  0  0  0  0
   -0.7550   19.8240  -32.3720 H   0  0  0  0  0  0  0  0  0  0  0  0
   -0.5710   18.5430  -33.4640 H   0  0  0  0  0  0  0  0  0  0  0  0
    0.8900   20.0210  -33.5790 C   0  0  0  0  0  0  0  0  0  0  0  0
    1.5279   20.5641  -32.8661 H   0  0  0  0  0  0  0  0  0  0  0  0
    1.4718   19.3483  -34.2263 H   0  0  0  0  0  0  0  0  0  0  0  0
    0.1970   21.0450  -34.4920 C   0  0  0  0  0  0  0  0  0  0  0  0
    0.8863   21.8792  -34.6895 H   0  0  0  0  0  0  0  0  0  0  0  0
   -0.0800   20.5517  -35.4353 H   0  0  0  0  0  0  0  0  0  0  0  0
   -1.0110   21.5600  -33.8550 N   0  0  0  0  0  0  0  0  0  0  0  0
   -2.1010   20.8710  -33.6970 C   0  0  0  0  0  0  0  0  0  0  0  0
   -3.1800   21.4510  -33.1150 N   0  0  0  0  0  0  0  0  0  0  0  0
   -4.3340   20.7520  -32.9720 C   0  0  0  0  0  0  0  0  0  0  0  0
   -5.7660   21.5340  -32.2400 S   0  0  0  0  0  0  0  0  0  0  0  0
   -4.7740   22.6470  -31.2440 C   0  0  0  0  0  0  0  0  0  0  0  0
   -5.1210   24.0000  -31.1670 C   0  0  0  0  0  0  0  0  0  0  0  0
   -6.0160   24.3666  -31.6909 H   0  0  0  0  0  0  0  0  0  0  0  0
   -4.3350   24.8880  -30.4270 C   0  0  0  0  0  0  0  0  0  0  0  0
   -4.6143   25.9504  -30.3690 H   0  0  0  0  0  0  0  0  0  0  0  0
   -3.1890   24.4270  -29.7570 C   0  0  0  0  0  0  0  0  0  0  0  0
   -2.3600   25.3110  -28.9880 N   0  0  0  0  0  0  0  0  0  0  0  0
   -1.2850   24.9090  -28.1310 C   0  0  0  0  0  0  0  0  0  0  0  0
   -0.1020   24.8610  -28.5680 O   0  0  0  0  0  0  0  0  0  0  0  0
   -1.5830   24.4610  -26.7250 C   0  0  0  0  0  0  0  0  0  0  0  0
   -2.6599   24.5779  -26.5335 H   0  0  0  0  0  0  0  0  0  0  0  0
   -0.8450   25.3590  -25.7010 C   0  0  0  0  0  0  0  0  0  0  0  0
    0.1647   25.5792  -26.0780 H   0  0  0  0  0  0  0  0  0  0  0  0
   -1.4199   26.2879  -25.5719 H   0  0  0  0  0  0  0  0  0  0  0  0
   -0.7310   24.6640  -24.3420 C   0  0  0  0  0  0  0  0  0  0  0  0
   -0.2315   25.3441  -23.6363 H   0  0  0  0  0  0  0  0  0  0  0  0
   -1.7470   24.4136  -24.0027 H   0  0  0  0  0  0  0  0  0  0  0  0
    0.0800   23.3510  -24.4280 C   0  0  0  0  0  0  0  0  0  0  0  0
    1.1223   23.5662  -24.1501 H   0  0  0  0  0  0  0  0  0  0  0  0
   -0.3930   22.6319  -23.7431 H   0  0  0  0  0  0  0  0  0  0  0  0
    0.0700   22.7160  -25.8320 C   0  0  0  0  0  0  0  0  0  0  0  0
    0.8763   23.1626  -26.4324 H   0  0  0  0  0  0  0  0  0  0  0  0
    0.2192   21.6317  -25.7222 H   0  0  0  0  0  0  0  0  0  0  0  0
   -1.2690   22.9490  -26.5430 C   0  0  0  0  0  0  0  0  0  0  0  0
   -1.2311   22.4734  -27.5341 H   0  0  0  0  0  0  0  0  0  0  0  0
   -2.0627   22.5123  -25.9191 H   0  0  0  0  0  0  0  0  0  0  0  0
   -2.8690   23.0630  -29.8030 C   0  0  0  0  0  0  0  0  0  0  0  0
   -2.0007   22.6862  -29.2427 H   0  0  0  0  0  0  0  0  0  0  0  0
   -3.6470   22.1780  -30.5570 C   0  0  0  0  0  0  0  0  0  0  0  0
   -3.3737   21.1138  -30.6104 H   0  0  0  0  0  0  0  0  0  0  0  0
   -4.4090   19.4670  -33.4050 N   0  0  0  0  0  0  0  0  0  0  0  0
   -3.3330   18.8750  -33.9800 C   0  0  0  0  0  0  0  0  0  0  0  0
   -3.3570   17.6280  -34.3460 N   0  0  0  0  0  0  0  0  0  0  0  0
   -4.4600   16.7040  -34.2830 C   0  0  0  0  0  0  0  0  0  0  0  0
   -4.1730   15.3320  -34.2780 C   0  0  0  0  0  0  0  0  0  0  0  0
   -3.1274   14.9931  -34.3201 H   0  0  0  0  0  0  0  0  0  0  0  0
   -5.2040   14.3920  -34.2200 C   0  0  0  0  0  0  0  0  0  0  0  0
   -4.9678   13.3179  -34.1979 H   0  0  0  0  0  0  0  0  0  0  0  0
   -6.5360   14.8150  -34.1900 C   0  0  0  0  0  0  0  0  0  0  0  0
   -7.3476   14.0741  -34.1412 H   0  0  0  0  0  0  0  0  0  0  0  0
   -6.8360   16.1790  -34.2220 C   0  0  0  0  0  0  0  0  0  0  0  0
   -7.8844   16.5112  -34.1984 H   0  0  0  0  0  0  0  0  0  0  0  0
   -5.8060   17.1230  -34.2840 C   0  0  0  0  0  0  0  0  0  0  0  0
   -6.0468   18.1952  -34.3337 H   0  0  0  0  0  0  0  0  0  0  0  0
   -2.1810   19.5820  -34.1230 N   0  0  0  0  0  0  0  0  0  0  0  0
    0.7930   18.6670  -29.2110 C   0  0  0  0  0  0  0  0  0  0  0  0
    1.7641   18.1725  -29.0616 H   0  0  0  0  0  0  0  0  0  0  0  0
  1  2  1  0
  2  3  2  0
  3  4  1  0
  4  5  1  0
  4  6  1  0
  4  7  1  0
  3  8  1  0
  8  9  1  0
  9 10  1  0
 10 11  1  0
 10 12  1  0
 10 13  1  0
 13 14  1  0
 13 15  1  0
 13 16  1  0
 16 17  1  0
 16 18  1  0
 16 19  1  0
 19 20  1  0
 19 21  1  0
 19 22  1  0
 22 23  2  0
 23 24  1  0
 24 25  2  0
 25 26  1  0
 26 27  1  0
 27 28  2  0
 28 29  1  0
 28 30  1  0
 30 31  1  0
 30 32  2  0
 32 33  1  0
 33 34  1  0
 34 35  2  0
 34 36  1  0
 36 37  1  0
 36 38  1  0
 38 39  1  0
 38 40  1  0
 38 41  1  0
 41 42  1  0
 41 43  1  0
 41 44  1  0
 44 45  1  0
 44 46  1  0
 44 47  1  0
 47 48  1  0
 47 49  1  0
 47 50  1  0
 50 51  1  0
 50 52  1  0
 32 53  1  0
 53 54  1  0
 53 55  2  0
 55 56  1  0
 25 57  1  0
 57 58  1  0
 58 59  2  3
 59 60  1  0
 60 61  2  0
 61 62  1  0
 61 63  1  0
 63 64  1  0
 63 65  2  0
 65 66  1  0
 65 67  1  0
 67 68  1  0
 67 69  2  0
 69 70  1  0
 58 71  1  0
  9 72  2  0
 72 73  1  0
 72  2  1  0
 71 23  1  0
 55 27  1  0
 69 60  1  0
 50 36  1  0
M  CHG  4  13   1  33  -1  57  -1  71  -1
M  END
>  <UniqueID>  (31) 
29

>  <SMILES>  (31) 
Cc1ccc(C[NH2+]CC/N=c2/nc(Sc3ccc([N-]C(=O)C4CCCCC4)cc3)[n-]c(=Nc3ccccc3)[n-]2)o1

>  <Energy>  (31) 
107.36736075448758

>  <Genealogy>  (31) 
Cc1ccc(C[NH2+]CCN=c2nc(Sc3ccc([N-]C(=O)C4CCCCC4)cc3)[n-]c(=Nc3ccccc3)[n-]2)o1 (protonated)
Cc1ccc(C[NH2+]CC/N=c2/nc(Sc3ccc([N-]C(=O)C4CCCCC4)cc3)[n-]c(=Nc3ccccc3)[n-]2)o1 (cis-trans isomerization)
Cc1ccc(C[NH2+]CC/N=c2/nc(Sc3ccc([N-]C(=O)C4CCCCC4)cc3)[n-]c(=Nc3ccccc3)[n-]2)o1 (3D coordinates assigned)
Cc1ccc(C[NH2+]CC/N=c2/nc(Sc3ccc([N-]C(=O)C4CCCCC4)cc3)[n-]c(=Nc3ccccc3)[n-]2)o1 (nonaromatic ring conformer: 107.36736075448758 kcal/mol)

>  <smiles>  (31) 
Cc1ccc(CNCCN=c2nc(Sc3ccc(NC(=O)C4CCCCC4)cc3)[nH]c(=Nc3ccccc3)[nH]2)o1

>  <score_type>  (31) 
oracle

>  <origin>  (31) 
adgpu

>  <m_score__min__energy>  (31) 
-12.029999999999999

>  <m_primary>  (31) 
energy

$$$$
31:0
     RDKit          3D

 50 53  0  0  0  0  0  0  0  0999 V2000
    1.0340   16.2730  -27.4580 C   0  0  0  0  0  0  0  0  0  0  0  0
    1.5910   17.5830  -27.5020 O   0  0  0  0  0  0  0  0  0  0  0  0
    0.8710   18.7390  -27.8320 C   0  0  0  0  0  0  0  0  0  0  0  0
    1.4710   20.0110  -27.8920 C   0  0  0  0  0  0  0  0  0  0  0  0
    0.7100   21.1360  -28.2260 C   0  0  0  0  0  0  0  0  0  0  0  0
   -0.6630   21.0130  -28.5070 C   0  0  0  0  0  0  0  0  0  0  0  0
   -1.4480   22.1730  -28.8510 N   0  0  0  0  0  0  0  0  0  0  0  0
   -1.0230   23.4550  -28.8690 C   0  0  0  0  0  0  0  0  0  0  0  0
   -2.0630   24.2760  -29.2410 C   0  0  0  0  0  0  0  0  0  0  0  0
   -1.9890   25.6580  -29.3390 O   0  0  0  0  0  0  0  0  0  0  0  0
   -3.1730   23.4770  -29.4670 C   0  0  0  0  0  0  0  0  0  0  0  0
   -4.5460   23.8640  -29.8640 C   0  0  0  0  0  0  0  0  0  0  0  0
   -5.1950   24.9910  -29.3380 C   0  0  0  0  0  0  0  0  0  0  0  0
   -6.4860   25.2850  -29.7760 C   0  0  0  0  0  0  0  0  0  0  0  0
   -7.0910   24.4930  -30.6960 N   0  0  0  0  0  0  0  0  0  0  0  0
   -6.4570   23.4020  -31.2010 C   0  0  0  0  0  0  0  0  0  0  0  0
   -7.1340   22.5500  -32.2440 C   0  0  0  0  0  0  0  0  0  0  0  0
   -6.3530   21.2340  -32.4480 C   0  0  0  0  0  0  0  0  0  0  0  0
   -7.2770   20.1420  -32.9970 C   0  0  0  0  0  0  0  0  0  0  0  0
   -8.3530   19.8000  -32.0330 N   0  0  0  0  0  0  0  0  0  0  0  0
   -9.4700   19.1420  -32.7270 C   0  0  0  0  0  0  0  0  0  0  0  0
   -8.8240   20.9410  -31.2060 C   0  0  0  0  0  0  0  0  0  0  0  0
   -8.6230   22.3010  -31.8950 C   0  0  0  0  0  0  0  0  0  0  0  0
   -5.1940   23.1060  -30.7900 N   0  0  0  0  0  0  0  0  0  0  0  0
   -2.7530   22.1820  -29.2100 C   0  0  0  0  0  0  0  0  0  0  0  0
   -1.2560   19.7390  -28.4460 C   0  0  0  0  0  0  0  0  0  0  0  0
   -0.4930   18.6170  -28.1120 C   0  0  0  0  0  0  0  0  0  0  0  0
    0.9031   15.9652  -26.4101 H   0  0  0  0  0  0  0  0  0  0  0  0
    0.0578   16.2724  -27.9650 H   0  0  0  0  0  0  0  0  0  0  0  0
    1.7109   15.5696  -27.9650 H   0  0  0  0  0  0  0  0  0  0  0  0
    2.5438   20.1208  -27.6751 H   0  0  0  0  0  0  0  0  0  0  0  0
    1.1891   22.1252  -28.2693 H   0  0  0  0  0  0  0  0  0  0  0  0
   -0.0044   23.7905  -28.6244 H   0  0  0  0  0  0  0  0  0  0  0  0
   -4.6956   25.6301  -28.5949 H   0  0  0  0  0  0  0  0  0  0  0  0
   -7.0151   26.1617  -29.3742 H   0  0  0  0  0  0  0  0  0  0  0  0
   -7.1268   23.0951  -33.1994 H   0  0  0  0  0  0  0  0  0  0  0  0
   -5.5329   21.4064  -33.1605 H   0  0  0  0  0  0  0  0  0  0  0  0
   -5.9500   20.9052  -31.4787 H   0  0  0  0  0  0  0  0  0  0  0  0
   -7.7351   20.4987  -33.9313 H   0  0  0  0  0  0  0  0  0  0  0  0
   -6.6744   19.2389  -33.1742 H   0  0  0  0  0  0  0  0  0  0  0  0
  -10.1703   18.7295  -31.9857 H   0  0  0  0  0  0  0  0  0  0  0  0
   -9.9935   19.8760  -33.3572 H   0  0  0  0  0  0  0  0  0  0  0  0
   -9.0818   18.3283  -33.3572 H   0  0  0  0  0  0  0  0  0  0  0  0
   -9.8962   20.8066  -31.0002 H   0  0  0  0  0  0  0  0  0  0  0  0
   -8.2280   20.9475  -30.2815 H   0  0  0  0  0  0  0  0  0  0  0  0
   -9.2151   22.3225  -32.8218 H   0  0  0  0  0  0  0  0  0  0  0  0
   -8.9499   23.0895  -31.2011 H   0  0  0  0  0  0  0  0  0  0  0  0
   -3.3896   21.2882  -29.2868 H   0  0  0  0  0  0  0  0  0  0  0  0
   -2.3284   19.6251  -28.6628 H   0  0  0  0  0  0  0  0  0  0  0  0
   -0.9709   17.6272  -28.0690 H   0  0  0  0  0  0  0  0  0  0  0  0
  1  2  1  0
  2  3  1  0
  3  4  2  0
  4  5  1  0
  5  6  2  0
  6  7  1  0
  7  8  1  0
  8  9  2  0
  9 10  1  0
  9 11  1  0
 11 12  1  0
 12 13  2  0
 13 14  1  0
 14 15  2  0
 15 16  1  0
 16 17  1  0
 17 18  1  0
 18 19  1  0
 19 20  1  0
 20 21  1  0
 20 22  1  0
 22 23  1  0
 16 24  2  0
 11 25  2  0
  6 26  1  0
 26 27  2  0
 27  3  1  0
 25  7  1  0
 24 12  1  0
 23 17  1  0
  1 28  1  0
  1 29  1  0
  1 30  1  0
  4 31  1  0
  5 32  1  0
  8 33  1  0
 13 34  1  0
 14 35  1  0
 17 36  1  0
 18 37  1  0
 18 38  1  0
 19 39  1  0
 19 40  1  0
 21 41  1  0
 21 42  1  0
 21 43  1  0
 22 44  1  0
 22 45  1  0
 23 46  1  0
 23 47  1  0
 25 48  1  0
 26 49  1  0
 27 50  1  0
M  CHG  1  10  -1
M  END
>  <UniqueID>  (32) 
30

>  <SMILES>  (32) 
COc1ccc(-n2cc([O-])c(-c3ccnc(C4CCN(C)CC4)n3)c2)cc1

>  <Energy>  (32) 
93.78575809613648

>  <Genealogy>  (32) 
COc1ccc(-n2cc([O-])c(-c3ccnc(C4CCN(C)CC4)n3)c2)cc1 (protonated)
COc1ccc(-n2cc([O-])c(-c3ccnc(C4CCN(C)CC4)n3)c2)cc1 (3D coordinates assigned)
COc1ccc(-n2cc([O-])c(-c3ccnc(C4CCN(C)CC4)n3)c2)cc1 (nonaromatic ring conformer: 93.78575809613648 kcal/mol)

>  <smiles>  (32) 
COc1ccc(-n2cc(O)c(-c3ccnc(C4CCN(C)CC4)n3)c2)cc1

>  <score_type>  (32) 
oracle

>  <origin>  (32) 
adgpu

>  <m_score__min__energy>  (32) 
-11.449999999999999

>  <m_primary>  (32) 
energy

$$$$
32:0
     RDKit          3D

 60 63  0  0  0  0  0  0  0  0999 V2000
   -5.6610   25.7720  -30.4570 C   0  0  0  0  0  0  0  0  0  0  0  0
   -4.2520   25.5520  -30.4500 O   0  0  0  0  0  0  0  0  0  0  0  0
   -3.6440   24.3180  -30.1780 C   0  0  0  0  0  0  0  0  0  0  0  0
   -4.2870   23.0900  -30.4280 C   0  0  0  0  0  0  0  0  0  0  0  0
   -3.6450   21.8840  -30.1350 C   0  0  0  0  0  0  0  0  0  0  0  0
   -2.3560   21.8870  -29.5900 C   0  0  0  0  0  0  0  0  0  0  0  0
   -1.7350   20.7090  -29.3130 N   0  0  0  0  0  0  0  0  0  0  0  0
   -0.4800   20.6590  -28.7860 C   0  0  0  0  0  0  0  0  0  0  0  0
    0.1760   19.3230  -28.5780 C   0  0  0  0  0  0  0  0  0  0  0  0
    1.3710   19.1940  -29.4210 N   0  0  0  0  0  0  0  0  0  0  0  0
    1.1750   18.1770  -30.4630 C   0  0  0  0  0  0  0  0  0  0  0  0
   -0.2470   18.2750  -31.0310 C   0  0  0  0  0  0  0  0  0  0  0  0
   -0.4320   19.5030  -31.9640 C   0  0  0  0  0  0  0  0  0  0  0  0
   -1.8550   19.8430  -32.2160 N   0  0  0  0  0  0  0  0  0  0  0  0
   -2.5640   18.6450  -32.7490 C   0  0  0  0  0  0  0  0  0  0  0  0
   -3.8330   18.9830  -33.5610 C   0  0  0  0  0  0  0  0  0  0  0  0
   -4.3610   20.2940  -33.1760 N   0  0  0  0  0  0  0  0  0  0  0  0
   -5.7570   20.4720  -32.8600 C   0  0  0  0  0  0  0  0  0  0  0  0
   -6.2330   21.7190  -32.4140 C   0  0  0  0  0  0  0  0  0  0  0  0
   -7.5800   21.8860  -32.0740 C   0  0  0  0  0  0  0  0  0  0  0  0
   -8.4700   20.8170  -32.1970 C   0  0  0  0  0  0  0  0  0  0  0  0
   -9.7750   20.9770  -31.8630 F   0  0  0  0  0  0  0  0  0  0  0  0
   -8.0140   19.5800  -32.6670 C   0  0  0  0  0  0  0  0  0  0  0  0
   -6.6650   19.4060  -32.9930 C   0  0  0  0  0  0  0  0  0  0  0  0
   -3.4540   21.4490  -33.2140 C   0  0  0  0  0  0  0  0  0  0  0  0
   -1.9870   20.9960  -33.1360 C   0  0  0  0  0  0  0  0  0  0  0  0
    0.2220   21.8530  -28.5520 C   0  0  0  0  0  0  0  0  0  0  0  0
   -0.3880   23.0800  -28.8200 C   0  0  0  0  0  0  0  0  0  0  0  0
    0.2450   24.1460  -28.5940 O   0  0  0  0  0  0  0  0  0  0  0  0
   -1.6950   23.1110  -29.3440 C   0  0  0  0  0  0  0  0  0  0  0  0
   -2.3510   24.3210  -29.6370 C   0  0  0  0  0  0  0  0  0  0  0  0
   -6.0283   25.8293  -29.4217 H   0  0  0  0  0  0  0  0  0  0  0  0
   -5.8822   26.7156  -30.9773 H   0  0  0  0  0  0  0  0  0  0  0  0
   -6.1593   24.9408  -30.9773 H   0  0  0  0  0  0  0  0  0  0  0  0
   -5.3002   23.0803  -30.8563 H   0  0  0  0  0  0  0  0  0  0  0  0
   -4.1543   20.9294  -30.3333 H   0  0  0  0  0  0  0  0  0  0  0  0
    0.4670   19.2243  -27.5218 H   0  0  0  0  0  0  0  0  0  0  0  0
   -0.5375   18.5323  -28.8532 H   0  0  0  0  0  0  0  0  0  0  0  0
    2.1710   18.8910  -28.8150 H   0  0  0  0  0  0  0  0  0  0  0  0
    1.9024   18.3394  -31.2720 H   0  0  0  0  0  0  0  0  0  0  0  0
    1.3209   17.1785  -30.0251 H   0  0  0  0  0  0  0  0  0  0  0  0
   -0.4616   17.3610  -31.6043 H   0  0  0  0  0  0  0  0  0  0  0  0
   -0.9380   18.3925  -30.1832 H   0  0  0  0  0  0  0  0  0  0  0  0
    0.0568   20.3715  -31.4983 H   0  0  0  0  0  0  0  0  0  0  0  0
    0.0167   19.2441  -32.9344 H   0  0  0  0  0  0  0  0  0  0  0  0
   -2.2950   20.0930  -31.2970 H   0  0  0  0  0  0  0  0  0  0  0  0
   -1.8711   18.0936  -33.4016 H   0  0  0  0  0  0  0  0  0  0  0  0
   -2.8871   18.0511  -31.8813 H   0  0  0  0  0  0  0  0  0  0  0  0
   -3.5836   18.9948  -34.6323 H   0  0  0  0  0  0  0  0  0  0  0  0
   -4.5979   18.2197  -33.3552 H   0  0  0  0  0  0  0  0  0  0  0  0
   -5.5403   22.5696  -32.3320 H   0  0  0  0  0  0  0  0  0  0  0  0
   -7.9381   22.8601  -31.7095 H   0  0  0  0  0  0  0  0  0  0  0  0
   -8.7183   18.7426  -32.7803 H   0  0  0  0  0  0  0  0  0  0  0  0
   -6.3119   18.4294  -33.3557 H   0  0  0  0  0  0  0  0  0  0  0  0
   -3.6115   22.0001  -34.1529 H   0  0  0  0  0  0  0  0  0  0  0  0
   -3.6695   22.0942  -32.3496 H   0  0  0  0  0  0  0  0  0  0  0  0
   -1.6440   20.7016  -34.1388 H   0  0  0  0  0  0  0  0  0  0  0  0
   -1.3745   21.8280  -32.7583 H   0  0  0  0  0  0  0  0  0  0  0  0
    1.2489   21.8214  -28.1589 H   0  0  0  0  0  0  0  0  0  0  0  0
   -1.8447   25.2774  -29.4398 H   0  0  0  0  0  0  0  0  0  0  0  0
  1  2  1  0
  2  3  1  0
  3  4  2  0
  4  5  1  0
  5  6  2  0
  6  7  1  0
  7  8  1  0
  8  9  1  0
  9 10  1  0
 10 11  1  0
 11 12  1  0
 12 13  1  0
 13 14  1  0
 14 15  1  0
 15 16  1  0
 16 17  1  0
 17 18  1  0
 18 19  2  0
 19 20  1  0
 20 21  2  0
 21 22  1  0
 21 23  1  0
 23 24  2  0
 17 25  1  0
 25 26  1  0
  8 27  2  0
 27 28  1  0
 28 29  2  0
 28 30  1  0
 30 31  2  0
 31  3  1  0
 30  6  1  0
 26 14  1  0
 24 18  1  0
  1 32  1  0
  1 33  1  0
  1 34  1  0
  4 35  1  0
  5 36  1  0
  9 37  1  0
  9 38  1  0
 10 39  1  0
 11 40  1  0
 11 41  1  0
 12 42  1  0
 12 43  1  0
 13 44  1  0
 13 45  1  0
 14 46  1  0
 15 47  1  0
 15 48  1  0
 16 49  1  0
 16 50  1  0
 19 51  1  0
 20 52  1  0
 23 53  1  0
 24 54  1  0
 25 55  1  0
 25 56  1  0
 26 57  1  0
 26 58  1  0
 27 59  1  0
 31 60  1  0
M  CHG  2   7  -1  14   1
M  END
>  <UniqueID>  (33) 
31

>  <SMILES>  (33) 
COc1ccc2[n-]c(CNCCC[NH+]3CCN(c4ccc(F)cc4)CC3)cc(=O)c2c1

>  <Energy>  (33) 
77.75651346955911

>  <Genealogy>  (33) 
COc1ccc2[n-]c(CNCCC[NH+]3CCN(c4ccc(F)cc4)CC3)cc(=O)c2c1 (protonated)
COc1ccc2[n-]c(CNCCC[NH+]3CCN(c4ccc(F)cc4)CC3)cc(=O)c2c1 (3D coordinates assigned)
COc1ccc2[n-]c(CNCCC[NH+]3CCN(c4ccc(F)cc4)CC3)cc(=O)c2c1 (nonaromatic ring conformer: 77.75651346955911 kcal/mol)

>  <smiles>  (33) 
COc1ccc2[nH]c(CNCCCN3CCN(c4ccc(F)cc4)CC3)cc(=O)c2c1

>  <score_type>  (33) 
oracle

>  <origin>  (33) 
adgpu

>  <m_score__min__energy>  (33) 
-10.130000000000001

>  <m_primary>  (33) 
energy

$$$$
33:0
     RDKit          3D

 38 40  0  0  0  0  0  0  0  0999 V2000
   -3.0530   23.7600  -29.9420 C   0  0  0  0  0  0  0  0  0  0  0  0
   -3.5700   24.9710  -30.4790 O   0  0  0  0  0  0  0  0  0  0  0  0
   -4.9410   25.2380  -30.5570 C   0  0  0  0  0  0  0  0  0  0  0  0
   -5.3600   26.4250  -30.4450 O   0  0  0  0  0  0  0  0  0  0  0  0
   -5.8990   24.1300  -30.7700 C   0  0  0  0  0  0  0  0  0  0  0  0
   -6.7400   23.6980  -29.7290 C   0  0  0  0  0  0  0  0  0  0  0  0
   -7.6410   22.6500  -29.9350 C   0  0  0  0  0  0  0  0  0  0  0  0
   -7.7120   22.0090  -31.1820 C   0  0  0  0  0  0  0  0  0  0  0  0
   -8.6860   20.8850  -31.4110 C   0  0  0  0  0  0  0  0  0  0  0  0
   -8.4860   20.2930  -32.6950 O   0  0  0  0  0  0  0  0  0  0  0  0
   -7.5010   19.3400  -33.0040 C   0  0  0  0  0  0  0  0  0  0  0  0
   -7.6260   18.0590  -32.4560 C   0  0  0  0  0  0  0  0  0  0  0  0
   -6.6790   17.0700  -32.7340 C   0  0  0  0  0  0  0  0  0  0  0  0
   -5.5840   17.3500  -33.5690 C   0  0  0  0  0  0  0  0  0  0  0  0
   -4.5790   16.3100  -33.8700 C   0  0  0  0  0  0  0  0  0  0  0  0
   -4.1350   15.4100  -32.9650 N   0  0  0  0  0  0  0  0  0  0  0  0
   -3.2480   14.6760  -33.6640 C   0  0  0  0  0  0  0  0  0  0  0  0
   -3.1860   15.1510  -34.9530 C   0  0  0  0  0  0  0  0  0  0  0  0
   -4.0180   16.1570  -35.0490 O   0  0  0  0  0  0  0  0  0  0  0  0
   -5.4550   18.6360  -34.1160 C   0  0  0  0  0  0  0  0  0  0  0  0
   -6.4020   19.6250  -33.8360 C   0  0  0  0  0  0  0  0  0  0  0  0
   -6.8830   22.4470  -32.2250 C   0  0  0  0  0  0  0  0  0  0  0  0
   -5.9820   23.4950  -32.0200 C   0  0  0  0  0  0  0  0  0  0  0  0
   -3.0735   23.8079  -28.8432 H   0  0  0  0  0  0  0  0  0  0  0  0
   -3.6688   22.9150  -30.2837 H   0  0  0  0  0  0  0  0  0  0  0  0
   -2.0168   23.6203  -30.2837 H   0  0  0  0  0  0  0  0  0  0  0  0
   -6.6882   24.1885  -28.7458 H   0  0  0  0  0  0  0  0  0  0  0  0
   -8.2986   22.3253  -29.1152 H   0  0  0  0  0  0  0  0  0  0  0  0
   -8.5417   20.1192  -30.6346 H   0  0  0  0  0  0  0  0  0  0  0  0
   -9.7078   21.2897  -31.3652 H   0  0  0  0  0  0  0  0  0  0  0  0
   -8.4781   17.8281  -31.7998 H   0  0  0  0  0  0  0  0  0  0  0  0
   -6.7912   16.0668  -32.2969 H   0  0  0  0  0  0  0  0  0  0  0  0
   -2.6660   13.8312  -33.2670 H   0  0  0  0  0  0  0  0  0  0  0  0
   -2.5507   14.7561  -35.7595 H   0  0  0  0  0  0  0  0  0  0  0  0
   -4.6017   18.8674  -34.7704 H   0  0  0  0  0  0  0  0  0  0  0  0
   -6.2880   20.6303  -34.2676 H   0  0  0  0  0  0  0  0  0  0  0  0
   -6.9425   21.9624  -33.2107 H   0  0  0  0  0  0  0  0  0  0  0  0
   -5.3326   23.8254  -32.8441 H   0  0  0  0  0  0  0  0  0  0  0  0
  1  2  1  0
  2  3  1  0
  3  4  2  0
  3  5  1  0
  5  6  2  0
  6  7  1  0
  7  8  2  0
  8  9  1  0
  9 10  1  0
 10 11  1  0
 11 12  2  0
 12 13  1  0
 13 14  2  0
 14 15  1  0
 15 16  2  0
 16 17  1  0
 17 18  2  0
 18 19  1  0
 14 20  1  0
 20 21  2  0
  8 22  1  0
 22 23  2  0
 23  5  1  0
 21 11  1  0
 19 15  1  0
  1 24  1  0
  1 25  1  0
  1 26  1  0
  6 27  1  0
  7 28  1  0
  9 29  1  0
  9 30  1  0
 12 31  1  0
 13 32  1  0
 17 33  1  0
 18 34  1  0
 20 35  1  0
 21 36  1  0
 22 37  1  0
 23 38  1  0
M  END
>  <UniqueID>  (34) 
32

>  <SMILES>  (34) 
COC(=O)c1ccc(COc2ccc(-c3ncco3)cc2)cc1

>  <Energy>  (34) 
67.96139750271811

>  <Genealogy>  (34) 
COC(=O)c1ccc(COc2ccc(-c3ncco3)cc2)cc1 (3D coordinates assigned)
COC(=O)c1ccc(COc2ccc(-c3ncco3)cc2)cc1 (optimized conformer: 67.96139750271811 kcal/mol)

>  <smiles>  (34) 
COC(=O)c1ccc(COc2ccc(-c3ncco3)cc2)cc1

>  <score_type>  (34) 
oracle

>  <origin>  (34) 
adgpu

>  <m_score__min__energy>  (34) 
-8.0199999999999996

>  <m_primary>  (34) 
energy

$$$$
34:0
     RDKit          3D

 54 56  0  0  1  0  0  0  0  0999 V2000
    0.0210   20.1260  -32.5190 C   0  0  0  0  0  0  0  0  0  0  0  0
   -0.6020   19.9500  -33.8860 C   0  0  0  0  0  0  0  0  0  0  0  0
   -1.8070   20.7270  -34.0560 N   0  0  0  0  0  0  0  0  0  0  0  0
   -3.0620   20.3490  -33.5560 C   0  0  0  0  0  0  0  0  0  0  0  0
   -3.1560   19.2650  -32.9180 O   0  0  0  0  0  0  0  0  0  0  0  0
   -4.2560   21.1090  -33.7160 N   0  0  0  0  0  0  0  0  0  0  0  0
   -5.4620   20.6020  -33.1550 C   0  0  0  0  0  0  0  0  0  0  0  0
   -6.5530   20.3130  -33.9840 C   0  0  0  0  0  0  0  0  0  0  0  0
   -7.7290   19.8180  -33.4240 C   0  0  0  0  0  0  0  0  0  0  0  0
   -7.8380   19.6060  -32.0470 C   0  0  0  0  0  0  0  0  0  0  0  0
   -6.7470   19.8940  -31.2190 C   0  0  0  0  0  0  0  0  0  0  0  0
   -5.5560   20.3930  -31.7700 C   0  0  0  0  0  0  0  0  0  0  0  0
   -4.4640   20.6510  -30.9050 N   0  0  0  0  0  0  0  0  0  0  0  0
   -4.2030   21.7460  -30.3340 C   0  0  0  0  0  0  0  0  0  0  0  0
   -3.1170   21.8730  -29.5200 N   0  0  0  0  0  0  0  0  0  0  0  0
   -2.8520   23.0450  -28.9200 C   0  0  0  0  0  0  0  0  0  0  0  0
   -1.8180   23.2060  -28.1310 N   0  0  0  0  0  0  0  0  0  0  0  0
   -1.5980   24.4950  -27.5200 C   0  0  0  0  0  0  0  0  0  0  0  0
   -0.7020   25.3700  -28.1390 C   0  0  0  0  0  0  0  0  0  0  0  0
   -0.4640   26.6200  -27.5820 C   0  0  0  0  0  0  0  0  0  0  0  0
   -1.1110   26.9890  -26.4240 C   0  0  0  0  0  0  0  0  0  0  0  0
   -0.8500   28.2610  -25.8820 N   0  0  0  0  0  0  0  0  0  0  0  0
   -0.5630   28.3760  -24.4650 C   0  0  0  0  0  0  0  0  0  0  0  0
   -0.8550   29.4630  -26.6840 C   0  0  0  0  0  0  0  0  0  0  0  0
   -1.9890   26.1040  -25.8370 C   0  0  0  0  0  0  0  0  0  0  0  0
   -2.2570   24.8570  -26.3520 C   0  0  0  0  0  0  0  0  0  0  0  0
   -3.6450   24.1160  -29.1030 N   0  0  0  0  0  0  0  0  0  0  0  0
   -4.7180   24.0080  -29.9010 C   0  0  0  0  0  0  0  0  0  0  0  0
   -5.0270   22.8260  -30.5370 C   0  0  0  0  0  0  0  0  0  0  0  0
   -6.4390   22.7890  -31.5500 Cl  0  0  0  0  0  0  0  0  0  0  0  0
   -0.7300   19.9138  -31.7437 H   0  0  0  0  0  0  0  0  0  0  0  0
    0.8672   19.4318  -32.4096 H   0  0  0  0  0  0  0  0  0  0  0  0
    0.3789   21.1604  -32.4096 H   0  0  0  0  0  0  0  0  0  0  0  0
    0.1278   20.2621  -34.6476 H   0  0  0  0  0  0  0  0  0  0  0  0
   -0.8741   18.8895  -33.9919 H   0  0  0  0  0  0  0  0  0  0  0  0
   -1.7670   21.6480  -34.5870 H   0  0  0  0  0  0  0  0  0  0  0  0
   -4.1930   22.0060  -34.2420 H   0  0  0  0  0  0  0  0  0  0  0  0
   -6.4821   20.4756  -35.0696 H   0  0  0  0  0  0  0  0  0  0  0  0
   -8.5851   19.5905  -34.0761 H   0  0  0  0  0  0  0  0  0  0  0  0
   -8.7728   19.2163  -31.6178 H   0  0  0  0  0  0  0  0  0  0  0  0
   -6.8228   19.7290  -30.1341 H   0  0  0  0  0  0  0  0  0  0  0  0
   -2.4930   21.0490  -29.3700 H   0  0  0  0  0  0  0  0  0  0  0  0
   -0.1871   25.0703  -29.0637 H   0  0  0  0  0  0  0  0  0  0  0  0
    0.2399   27.3137  -28.0650 H   0  0  0  0  0  0  0  0  0  0  0  0
   -1.4310   28.0282  -23.8857 H   0  0  0  0  0  0  0  0  0  0  0  0
    0.3139   27.7598  -24.2173 H   0  0  0  0  0  0  0  0  0  0  0  0
   -0.3542   29.4272  -24.2173 H   0  0  0  0  0  0  0  0  0  0  0  0
   -0.8587   30.3436  -26.0248 H   0  0  0  0  0  0  0  0  0  0  0  0
    0.0431   29.4839  -27.3189 H   0  0  0  0  0  0  0  0  0  0  0  0
   -1.7532   29.4765  -27.3189 H   0  0  0  0  0  0  0  0  0  0  0  0
   -2.5002   26.4094  -24.9121 H   0  0  0  0  0  0  0  0  0  0  0  0
   -2.9645   24.1741  -25.8589 H   0  0  0  0  0  0  0  0  0  0  0  0
   -3.4610   25.0400  -28.6470 H   0  0  0  0  0  0  0  0  0  0  0  0
   -5.3662   24.8840  -30.0509 H   0  0  0  0  0  0  0  0  0  0  0  0
  1  2  1  0
  2  3  1  0
  3  4  1  0
  4  5  2  0
  4  6  1  0
  6  7  1  0
  7  8  2  0
  8  9  1  0
  9 10  2  0
 10 11  1  0
 11 12  2  0
 12 13  1  0
 13 14  2  0
 14 15  1  0
 15 16  1  0
 16 17  2  0
 17 18  1  0
 18 19  2  0
 19 20  1  0
 20 21  2  0
 21 22  1  0
 22 23  1  0
 22 24  1  0
 21 25  1  0
 25 26  2  0
 16 27  1  0
 27 28  1  0
 28 29  2  0
 29 30  1  0
 12  7  1  0
 29 14  1  0
 26 18  1  0
  1 31  1  0
  1 32  1  0
  1 33  1  0
  2 34  1  0
  2 35  1  0
  3 36  1  0
  6 37  1  0
  8 38  1  0
  9 39  1  0
 10 40  1  0
 11 41  1  0
 15 42  1  0
 19 43  1  0
 20 44  1  0
 23 45  1  0
 23 46  1  0
 23 47  1  0
 24 48  1  0
 24 49  1  0
 24 50  1  0
 25 51  1  0
 26 52  1  0
 27 53  1  0
 28 54  1  0
M  END
>  <smiles>  (35) 
CCNC(=O)Nc1ccccc1N=c1[nH]c(=Nc2ccc(N(C)C)cc2)[nH]cc1Cl

>  <score_type>  (35) 
oracle

>  <origin>  (35) 
adgpu

>  <m_score__min__energy>  (35) 
-8.8699999999999992

>  <m_primary>  (35) 
energy

$$$$
35:0
     RDKit          3D

 38 39  0  0  0  0  0  0  0  0999 V2000
   -7.8988   20.5243  -32.4359 H   0  0  0  0  0  0  0  0  0  0  0  0
   -6.9230   21.0320  -32.4400 C   0  0  0  0  0  0  0  0  0  0  0  0
   -6.7850   22.2780  -31.8220 C   0  0  0  0  0  0  0  0  0  0  0  0
   -7.6550   22.7439  -31.3361 H   0  0  0  0  0  0  0  0  0  0  0  0
   -5.5460   22.9420  -31.8150 C   0  0  0  0  0  0  0  0  0  0  0  0
   -5.4010   24.2610  -31.1570 C   0  0  0  0  0  0  0  0  0  0  0  0
   -6.3820   25.0550  -31.1260 O   0  0  0  0  0  0  0  0  0  0  0  0
   -4.1210   24.6670  -30.6410 N   0  0  0  0  0  0  0  0  0  0  0  0
   -3.3750   24.0930  -29.7340 C   0  0  0  0  0  0  0  0  0  0  0  0
   -3.6830   22.8310  -29.1810 C   0  0  0  0  0  0  0  0  0  0  0  0
   -4.5839   22.2904  -29.5068 H   0  0  0  0  0  0  0  0  0  0  0  0
   -2.8370   22.2700  -28.2160 C   0  0  0  0  0  0  0  0  0  0  0  0
   -3.1790   20.9510  -27.5860 C   0  0  0  0  0  0  0  0  0  0  0  0
   -3.1533   21.0501  -26.4908 H   0  0  0  0  0  0  0  0  0  0  0  0
   -4.1865   20.6436  -27.9028 H   0  0  0  0  0  0  0  0  0  0  0  0
   -2.4478   20.1928  -27.9028 H   0  0  0  0  0  0  0  0  0  0  0  0
   -1.7030   22.9750  -27.8020 C   0  0  0  0  0  0  0  0  0  0  0  0
   -1.0534   22.5645  -27.0149 H   0  0  0  0  0  0  0  0  0  0  0  0
   -1.3990   24.2050  -28.3940 C   0  0  0  0  0  0  0  0  0  0  0  0
   -0.1920   24.9750  -27.9450 C   0  0  0  0  0  0  0  0  0  0  0  0
   -0.1587   24.9963  -26.8457 H   0  0  0  0  0  0  0  0  0  0  0  0
    0.7168   24.4894  -28.3301 H   0  0  0  0  0  0  0  0  0  0  0  0
   -0.2493   26.0038  -28.3301 H   0  0  0  0  0  0  0  0  0  0  0  0
   -2.2370   24.7310  -29.3340 N   0  0  0  0  0  0  0  0  0  0  0  0
   -2.0080   25.6620  -29.7510 H   0  0  0  0  0  0  0  0  0  0  0  0
   -4.4450   22.3270  -32.4380 C   0  0  0  0  0  0  0  0  0  0  0  0
   -3.4673   22.8311  -32.4391 H   0  0  0  0  0  0  0  0  0  0  0  0
   -4.5830   21.0800  -33.0560 C   0  0  0  0  0  0  0  0  0  0  0  0
   -3.5070   20.5080  -33.6510 F   0  0  0  0  0  0  0  0  0  0  0  0
   -5.8190   20.4230  -33.0680 C   0  0  0  0  0  0  0  0  0  0  0  0
   -5.9010   19.1730  -33.7030 O   0  0  0  0  0  0  0  0  0  0  0  0
   -5.4710   17.9280  -33.1490 C   0  0  0  0  0  0  0  0  0  0  0  0
   -4.5292   18.0824  -32.6021 H   0  0  0  0  0  0  0  0  0  0  0  0
   -5.3236   17.2089  -33.9682 H   0  0  0  0  0  0  0  0  0  0  0  0
   -6.5200   17.3720  -32.1920 C   0  0  0  0  0  0  0  0  0  0  0  0
   -6.1972   17.5431  -31.1545 H   0  0  0  0  0  0  0  0  0  0  0  0
   -7.4804   17.8795  -32.3656 H   0  0  0  0  0  0  0  0  0  0  0  0
   -6.6392   16.2923  -32.3656 H   0  0  0  0  0  0  0  0  0  0  0  0
  1  2  1  0
  2  3  2  0
  3  4  1  0
  3  5  1  0
  5  6  1  0
  6  7  2  0
  6  8  1  0
  8  9  2  0
  9 10  1  0
 10 11  1  0
 10 12  2  0
 12 13  1  0
 13 14  1  0
 13 15  1  0
 13 16  1  0
 12 17  1  0
 17 18  1  0
 17 19  2  0
 19 20  1  0
 20 21  1  0
 20 22  1  0
 20 23  1  0
 19 24  1  0
 24 25  1  0
  5 26  2  0
 26 27  1  0
 26 28  1  0
 28 29  1  0
 28 30  2  0
 30 31  1  0
 31 32  1  0
 32 33  1  0
 32 34  1  0
 32 35  1  0
 35 36  1  0
 35 37  1  0
 35 38  1  0
 30  2  1  0
 24  9  1  0
M  END
>  <UniqueID>  (36) 
33

>  <SMILES>  (36) 
CCOc1ccc(C(=O)/N=c2\cc(C)cc(C)[nH]2)cc1F

>  <Energy>  (36) 
43.65944231170228

>  <Genealogy>  (36) 
CCOc1ccc(C(=O)/N=c2\cc(C)cc(C)[nH]2)cc1F (cis-trans isomerization)
CCOc1ccc(C(=O)/N=c2\cc(C)cc(C)[nH]2)cc1F (3D coordinates assigned)
CCOc1ccc(C(=O)/N=c2\cc(C)cc(C)[nH]2)cc1F (optimized conformer: 43.65944231170228 kcal/mol)

>  <smiles>  (36) 
CCOc1ccc(C(=O)N=c2cc(C)cc(C)[nH]2)cc1F

>  <score_type>  (36) 
oracle

>  <origin>  (36) 
adgpu

>  <m_score__min__energy>  (36) 
-7.46

>  <m_primary>  (36) 
energy

$$$$
36:0
     RDKit          3D

 39 41  0  0  0  0  0  0  0  0999 V2000
   -1.9160   19.0570  -33.8750 C   0  0  0  0  0  0  0  0  0  0  0  0
   -3.2510   18.3990  -34.0630 C   0  0  0  0  0  0  0  0  0  0  0  0
   -3.3560   17.2160  -34.8080 C   0  0  0  0  0  0  0  0  0  0  0  0
   -4.5930   16.5850  -34.9540 C   0  0  0  0  0  0  0  0  0  0  0  0
   -5.7310   17.1220  -34.3470 C   0  0  0  0  0  0  0  0  0  0  0  0
   -5.6430   18.2970  -33.5800 C   0  0  0  0  0  0  0  0  0  0  0  0
   -6.8490   18.8570  -32.9170 C   0  0  0  0  0  0  0  0  0  0  0  0
   -7.9350   18.0270  -32.5860 C   0  0  0  0  0  0  0  0  0  0  0  0
   -9.0640   18.5560  -31.9540 C   0  0  0  0  0  0  0  0  0  0  0  0
   -9.1180   19.9150  -31.6350 C   0  0  0  0  0  0  0  0  0  0  0  0
   -8.0400   20.7530  -31.9480 C   0  0  0  0  0  0  0  0  0  0  0  0
   -8.0860   22.4630  -31.5250 S   0  0  0  0  0  0  0  0  0  0  0  0
   -9.4020   23.0280  -31.9750 O   0  0  0  0  0  0  0  0  0  0  0  0
   -7.9550   22.6500  -30.0390 O   0  0  0  0  0  0  0  0  0  0  0  0
   -6.8010   23.3120  -32.3210 N   0  0  0  0  0  0  0  0  0  0  0  0
   -5.5450   23.5970  -31.6900 C   0  0  0  0  0  0  0  0  0  0  0  0
   -4.3350   23.0030  -31.9740 C   0  0  0  0  0  0  0  0  0  0  0  0
   -4.0850   21.9210  -32.9730 C   0  0  0  0  0  0  0  0  0  0  0  0
   -3.3880   23.5250  -31.1710 N   0  0  0  0  0  0  0  0  0  0  0  0
   -3.9730   24.4180  -30.4220 O   0  0  0  0  0  0  0  0  0  0  0  0
   -5.2560   24.5060  -30.6900 C   0  0  0  0  0  0  0  0  0  0  0  0
   -6.3350   25.6420  -29.9020 Cl  0  0  0  0  0  0  0  0  0  0  0  0
   -6.9160   20.2250  -32.5980 C   0  0  0  0  0  0  0  0  0  0  0  0
   -4.3920   18.9270  -33.4380 C   0  0  0  0  0  0  0  0  0  0  0  0
   -1.7063   19.1604  -32.8001 H   0  0  0  0  0  0  0  0  0  0  0  0
   -1.1343   18.4409  -34.3435 H   0  0  0  0  0  0  0  0  0  0  0  0
   -1.9285   20.0522  -34.3435 H   0  0  0  0  0  0  0  0  0  0  0  0
   -2.4610   16.7835  -35.2790 H   0  0  0  0  0  0  0  0  0  0  0  0
   -4.6717   15.6628  -35.5484 H   0  0  0  0  0  0  0  0  0  0  0  0
   -6.7030   16.6218  -34.4701 H   0  0  0  0  0  0  0  0  0  0  0  0
   -7.8957   16.9542  -32.8261 H   0  0  0  0  0  0  0  0  0  0  0  0
   -9.9122   17.9005  -31.7072 H   0  0  0  0  0  0  0  0  0  0  0  0
  -10.0081   20.3275  -31.1374 H   0  0  0  0  0  0  0  0  0  0  0  0
   -6.8590   23.3850  -33.3620 H   0  0  0  0  0  0  0  0  0  0  0  0
   -3.8675   20.9796  -32.4472 H   0  0  0  0  0  0  0  0  0  0  0  0
   -4.9768   21.7911  -33.6037 H   0  0  0  0  0  0  0  0  0  0  0  0
   -3.2266   22.1955  -33.6037 H   0  0  0  0  0  0  0  0  0  0  0  0
   -6.0780   20.8872  -32.8612 H   0  0  0  0  0  0  0  0  0  0  0  0
   -4.3077   19.8411  -32.8319 H   0  0  0  0  0  0  0  0  0  0  0  0
  1  2  1  0
  2  3  2  0
  3  4  1  0
  4  5  2  0
  5  6  1  0
  6  7  1  0
  7  8  2  0
  8  9  1  0
  9 10  2  0
 10 11  1  0
 11 12  1  0
 12 13  2  0
 12 14  2  0
 12 15  1  0
 15 16  1  0
 16 17  1  0
 17 18  1  0
 17 19  2  0
 19 20  1  0
 20 21  1  0
 21 22  1  0
 11 23  2  0
  6 24  2  0
 24  2  1  0
 23  7  1  0
 21 16  2  0
  1 25  1  0
  1 26  1  0
  1 27  1  0
  3 28  1  0
  4 29  1  0
  5 30  1  0
  8 31  1  0
  9 32  1  0
 10 33  1  0
 15 34  1  0
 18 35  1  0
 18 36  1  0
 18 37  1  0
 23 38  1  0
 24 39  1  0
M  END
>  <UniqueID>  (37) 
34

>  <SMILES>  (37) 
Cc1cccc(-c2cccc(S(=O)(=O)Nc3c(C)noc3Cl)c2)c1

>  <Energy>  (37) 
80.30884370518895

>  <Genealogy>  (37) 
Cc1cccc(-c2cccc(S(=O)(=O)Nc3c(C)noc3Cl)c2)c1 (3D coordinates assigned)
Cc1cccc(-c2cccc(S(=O)(=O)Nc3c(C)noc3Cl)c2)c1 (optimized conformer: 80.30884370518895 kcal/mol)

>  <smiles>  (37) 
Cc1cccc(-c2cccc(S(=O)(=O)Nc3c(C)noc3Cl)c2)c1

>  <score_type>  (37) 
oracle

>  <origin>  (37) 
adgpu

>  <m_score__min__energy>  (37) 
-10.15

>  <m_primary>  (37) 
energy

$$$$
37:0
     RDKit          3D

 41 43  0  0  0  0  0  0  0  0999 V2000
   -5.9750   25.0590  -29.4210 C   0  0  0  0  0  0  0  0  0  0  0  0
   -6.4870   24.9240  -30.8520 C   0  0  0  0  0  0  0  0  0  0  0  0
   -6.3510   23.5290  -31.3200 N   0  0  0  0  0  0  0  0  0  0  0  0
   -5.1070   22.9870  -31.4960 C   0  0  0  0  0  0  0  0  0  0  0  0
   -4.0750   23.6740  -31.2470 O   0  0  0  0  0  0  0  0  0  0  0  0
   -4.9610   21.6800  -31.9750 C   0  0  0  0  0  0  0  0  0  0  0  0
   -3.6050   21.1170  -32.1920 C   0  0  0  0  0  0  0  0  0  0  0  0
   -3.0300   21.1380  -33.4730 C   0  0  0  0  0  0  0  0  0  0  0  0
   -1.7450   20.6230  -33.6750 C   0  0  0  0  0  0  0  0  0  0  0  0
   -1.0300   20.0820  -32.6020 C   0  0  0  0  0  0  0  0  0  0  0  0
   -1.6000   20.0520  -31.3260 C   0  0  0  0  0  0  0  0  0  0  0  0
   -2.8840   20.5660  -31.1210 C   0  0  0  0  0  0  0  0  0  0  0  0
   -6.1230   20.9370  -32.2640 C   0  0  0  0  0  0  0  0  0  0  0  0
   -5.9880   19.5460  -32.7730 C   0  0  0  0  0  0  0  0  0  0  0  0
   -6.0220   18.4620  -31.8820 C   0  0  0  0  0  0  0  0  0  0  0  0
   -5.9180   17.1540  -32.3640 C   0  0  0  0  0  0  0  0  0  0  0  0
   -5.7800   16.9220  -33.7350 C   0  0  0  0  0  0  0  0  0  0  0  0
   -5.7470   17.9970  -34.6270 C   0  0  0  0  0  0  0  0  0  0  0  0
   -5.8520   19.3070  -34.1490 C   0  0  0  0  0  0  0  0  0  0  0  0
   -7.3630   21.4970  -32.0620 N   0  0  0  0  0  0  0  0  0  0  0  0
   -8.5880   20.7230  -32.3460 C   0  0  0  0  0  0  0  0  0  0  0  0
   -7.4690   22.7980  -31.6340 C   0  0  0  0  0  0  0  0  0  0  0  0
   -8.6100   23.3300  -31.5280 O   0  0  0  0  0  0  0  0  0  0  0  0
   -6.7925   24.8435  -28.7172 H   0  0  0  0  0  0  0  0  0  0  0  0
   -5.1527   24.3470  -29.2571 H   0  0  0  0  0  0  0  0  0  0  0  0
   -5.6107   26.0839  -29.2571 H   0  0  0  0  0  0  0  0  0  0  0  0
   -7.5470   25.2158  -30.8864 H   0  0  0  0  0  0  0  0  0  0  0  0
   -5.8925   25.5787  -31.5062 H   0  0  0  0  0  0  0  0  0  0  0  0
   -3.5912   21.5603  -34.3195 H   0  0  0  0  0  0  0  0  0  0  0  0
   -1.2965   20.6437  -34.6792 H   0  0  0  0  0  0  0  0  0  0  0  0
   -0.0187   19.6799  -32.7621 H   0  0  0  0  0  0  0  0  0  0  0  0
   -1.0381   19.6238  -30.4828 H   0  0  0  0  0  0  0  0  0  0  0  0
   -3.3310   20.5385  -30.1163 H   0  0  0  0  0  0  0  0  0  0  0  0
   -6.1307   18.6421  -30.8023 H   0  0  0  0  0  0  0  0  0  0  0  0
   -5.9448   16.3065  -31.6633 H   0  0  0  0  0  0  0  0  0  0  0  0
   -5.6973   15.8921  -34.1124 H   0  0  0  0  0  0  0  0  0  0  0  0
   -5.6383   17.8127  -35.7060 H   0  0  0  0  0  0  0  0  0  0  0  0
   -5.8279   20.1518  -34.8531 H   0  0  0  0  0  0  0  0  0  0  0  0
   -9.0608   20.4243  -31.3988 H   0  0  0  0  0  0  0  0  0  0  0  0
   -9.2876   21.3434  -32.9254 H   0  0  0  0  0  0  0  0  0  0  0  0
   -8.3281   19.8248  -32.9254 H   0  0  0  0  0  0  0  0  0  0  0  0
  1  2  1  0
  2  3  1  0
  3  4  1  0
  4  5  2  0
  4  6  1  0
  6  7  1  0
  7  8  2  0
  8  9  1  0
  9 10  2  0
 10 11  1  0
 11 12  2  0
  6 13  2  0
 13 14  1  0
 14 15  2  0
 15 16  1  0
 16 17  2  0
 17 18  1  0
 18 19  2  0
 13 20  1  0
 20 21  1  0
 20 22  1  0
 22 23  2  0
 22  3  1  0
 12  7  1  0
 19 14  1  0
  1 24  1  0
  1 25  1  0
  1 26  1  0
  2 27  1  0
  2 28  1  0
  8 29  1  0
  9 30  1  0
 10 31  1  0
 11 32  1  0
 12 33  1  0
 15 34  1  0
 16 35  1  0
 17 36  1  0
 18 37  1  0
 19 38  1  0
 21 39  1  0
 21 40  1  0
 21 41  1  0
M  END
>  <UniqueID>  (38) 
35

>  <SMILES>  (38) 
CCn1c(=O)c(-c2ccccc2)c(-c2ccccc2)n(C)c1=O

>  <Energy>  (38) 
64.11282014607487

>  <Genealogy>  (38) 
CCn1c(=O)c(-c2ccccc2)c(-c2ccccc2)n(C)c1=O (3D coordinates assigned)
CCn1c(=O)c(-c2ccccc2)c(-c2ccccc2)n(C)c1=O (optimized conformer: 64.11282014607487 kcal/mol)

>  <smiles>  (38) 
CCn1c(=O)c(-c2ccccc2)c(-c2ccccc2)n(C)c1=O

>  <score_type>  (38) 
oracle

>  <origin>  (38) 
adgpu

>  <m_score__min__energy>  (38) 
-8.1099999999999994

>  <m_primary>  (38) 
energy

$$$$
38:0
     RDKit          3D

 28 29  0  0  0  0  0  0  0  0999 V2000
   -6.3090   24.1540  -31.9950 F   0  0  0  0  0  0  0  0  0  0  0  0
   -7.1940   23.1250  -31.9510 C   0  0  0  0  0  0  0  0  0  0  0  0
   -8.5630   23.3990  -31.9890 C   0  0  0  0  0  0  0  0  0  0  0  0
   -9.4850   22.3540  -31.9690 C   0  0  0  0  0  0  0  0  0  0  0  0
   -9.0420   21.0310  -31.8980 C   0  0  0  0  0  0  0  0  0  0  0  0
   -7.6690   20.7350  -31.8240 C   0  0  0  0  0  0  0  0  0  0  0  0
   -7.2260   19.2800  -31.7590 C   0  0  0  0  0  0  0  0  0  0  0  0
   -7.0850   18.5990  -33.0720 N   0  0  0  0  0  0  0  0  0  0  0  0
   -6.8870   17.1470  -32.9960 C   0  0  0  0  0  0  0  0  0  0  0  0
   -6.3110   16.7260  -34.3430 C   0  0  0  0  0  0  0  0  0  0  0  0
   -5.7460   18.0010  -34.9590 C   0  0  0  0  0  0  0  0  0  0  0  0
   -6.0000   19.0920  -33.9270 C   0  0  0  0  0  0  0  0  0  0  0  0
   -6.7370   21.8010  -31.8810 C   0  0  0  0  0  0  0  0  0  0  0  0
   -4.9960   21.5190  -31.8900 Cl  0  0  0  0  0  0  0  0  0  0  0  0
   -8.9139   24.4405  -32.0348 H   0  0  0  0  0  0  0  0  0  0  0  0
  -10.5626   22.5712  -32.0092 H   0  0  0  0  0  0  0  0  0  0  0  0
   -9.7755   20.2113  -31.9000 H   0  0  0  0  0  0  0  0  0  0  0  0
   -6.2508   19.2442  -31.2514 H   0  0  0  0  0  0  0  0  0  0  0  0
   -8.0226   18.7436  -31.2226 H   0  0  0  0  0  0  0  0  0  0  0  0
   -7.9840   18.7600  -33.5890 H   0  0  0  0  0  0  0  0  0  0  0  0
   -6.1844   16.8997  -32.1866 H   0  0  0  0  0  0  0  0  0  0  0  0
   -7.8309   16.6241  -32.7823 H   0  0  0  0  0  0  0  0  0  0  0  0
   -5.5146   15.9799  -34.2046 H   0  0  0  0  0  0  0  0  0  0  0  0
   -7.0736   16.2639  -34.9872 H   0  0  0  0  0  0  0  0  0  0  0  0
   -4.6678   17.8927  -35.1480 H   0  0  0  0  0  0  0  0  0  0  0  0
   -6.2166   18.2331  -35.9258 H   0  0  0  0  0  0  0  0  0  0  0  0
   -5.0940   19.2703  -33.3292 H   0  0  0  0  0  0  0  0  0  0  0  0
   -6.2682   20.0446  -34.4072 H   0  0  0  0  0  0  0  0  0  0  0  0
  1  2  1  0
  2  3  2  0
  3  4  1  0
  4  5  2  0
  5  6  1  0
  6  7  1  0
  7  8  1  0
  8  9  1  0
  9 10  1  0
 10 11  1  0
 11 12  1  0
  6 13  2  0
 13 14  1  0
 13  2  1  0
 12  8  1  0
  3 15  1  0
  4 16  1  0
  5 17  1  0
  7 18  1  0
  7 19  1  0
  8 20  1  0
  9 21  1  0
  9 22  1  0
 10 23  1  0
 10 24  1  0
 11 25  1  0
 11 26  1  0
 12 27  1  0
 12 28  1  0
M  CHG  1   8   1
M  END
>  <UniqueID>  (39) 
36

>  <SMILES>  (39) 
Fc1cccc(C[NH+]2CCCC2)c1Cl

>  <Energy>  (39) 
36.69605263012489

>  <Genealogy>  (39) 
Fc1cccc(C[NH+]2CCCC2)c1Cl (protonated)
Fc1cccc(C[NH+]2CCCC2)c1Cl (3D coordinates assigned)
Fc1cccc(C[NH+]2CCCC2)c1Cl (nonaromatic ring conformer: 36.69605263012489 kcal/mol)

>  <smiles>  (39) 
Fc1cccc(CN2CCCC2)c1Cl

>  <score_type>  (39) 
oracle

>  <origin>  (39) 
adgpu

>  <m_score__min__energy>  (39) 
-5.4800000000000004

>  <m_primary>  (39) 
energy

$$$$
39:0
     RDKit          3D

 51 54  0  0  0  0  0  0  0  0999 V2000
    2.4340   20.7435  -37.0289 H   0  0  0  0  0  0  0  0  0  0  0  0
    1.5930   20.7290  -36.3200 C   0  0  0  0  0  0  0  0  0  0  0  0
    1.0720   19.5100  -35.8780 C   0  0  0  0  0  0  0  0  0  0  0  0
    1.5066   18.5651  -36.2362 H   0  0  0  0  0  0  0  0  0  0  0  0
   -0.0010   19.4890  -34.9810 C   0  0  0  0  0  0  0  0  0  0  0  0
   -0.4039   18.5260  -34.6342 H   0  0  0  0  0  0  0  0  0  0  0  0
   -0.5700   20.6930  -34.5180 C   0  0  0  0  0  0  0  0  0  0  0  0
   -1.7040   20.6940  -33.5580 C   0  0  0  0  0  0  0  0  0  0  0  0
   -2.9380   20.3210  -33.9870 N   0  0  0  0  0  0  0  0  0  0  0  0
   -4.0110   20.2890  -33.1560 C   0  0  0  0  0  0  0  0  0  0  0  0
   -5.1650   19.9260  -33.6430 N   0  0  0  0  0  0  0  0  0  0  0  0
   -6.3880   19.7210  -32.9200 C   0  0  0  0  0  0  0  0  0  0  0  0
   -6.8560   18.4260  -32.6360 C   0  0  0  0  0  0  0  0  0  0  0  0
   -6.2570   17.5506  -32.9275 H   0  0  0  0  0  0  0  0  0  0  0  0
   -8.0790   18.2470  -31.9850 C   0  0  0  0  0  0  0  0  0  0  0  0
   -8.4335   17.2322  -31.7514 H   0  0  0  0  0  0  0  0  0  0  0  0
   -8.8530   19.3560  -31.6300 C   0  0  0  0  0  0  0  0  0  0  0  0
   -9.8160   19.2119  -31.1183 H   0  0  0  0  0  0  0  0  0  0  0  0
   -8.4040   20.6530  -31.9250 C   0  0  0  0  0  0  0  0  0  0  0  0
   -9.2610   21.8400  -31.5970 C   0  0  0  0  0  0  0  0  0  0  0  0
   -9.3377   21.9463  -30.5048 H   0  0  0  0  0  0  0  0  0  0  0  0
   -8.8086   22.7477  -32.0228 H   0  0  0  0  0  0  0  0  0  0  0  0
  -10.2650   21.6963  -32.0228 H   0  0  0  0  0  0  0  0  0  0  0  0
   -7.1830   20.8260  -32.5950 C   0  0  0  0  0  0  0  0  0  0  0  0
   -6.8483   21.8380  -32.8668 H   0  0  0  0  0  0  0  0  0  0  0  0
   -3.8630   20.6740  -31.8510 N   0  0  0  0  0  0  0  0  0  0  0  0
   -4.6930   20.7490  -31.2230 H   0  0  0  0  0  0  0  0  0  0  0  0
   -2.6420   21.0370  -31.3590 C   0  0  0  0  0  0  0  0  0  0  0  0
   -2.4930   21.4130  -29.9300 C   0  0  0  0  0  0  0  0  0  0  0  0
   -2.4630   22.7660  -29.5560 C   0  0  0  0  0  0  0  0  0  0  0  0
   -2.5557   23.5450  -30.3271 H   0  0  0  0  0  0  0  0  0  0  0  0
   -2.3160   23.1370  -28.2090 C   0  0  0  0  0  0  0  0  0  0  0  0
   -2.2220   24.5930  -27.8260 C   0  0  0  0  0  0  0  0  0  0  0  0
   -3.2490   24.9410  -26.9660 F   0  0  0  0  0  0  0  0  0  0  0  0
   -2.3090   25.3690  -28.9680 F   0  0  0  0  0  0  0  0  0  0  0  0
   -1.0210   24.8570  -27.1920 F   0  0  0  0  0  0  0  0  0  0  0  0
   -2.1590   22.1350  -27.2370 C   0  0  0  0  0  0  0  0  0  0  0  0
   -1.9893   22.4182  -26.1877 H   0  0  0  0  0  0  0  0  0  0  0  0
   -2.2160   20.7760  -27.5880 C   0  0  0  0  0  0  0  0  0  0  0  0
   -2.0100   19.7090  -26.5420 C   0  0  0  0  0  0  0  0  0  0  0  0
   -1.0690   18.7860  -26.9640 F   0  0  0  0  0  0  0  0  0  0  0  0
   -1.5700   20.2980  -25.3720 F   0  0  0  0  0  0  0  0  0  0  0  0
   -3.1930   19.0360  -26.2900 F   0  0  0  0  0  0  0  0  0  0  0  0
   -2.3640   20.4240  -28.9390 C   0  0  0  0  0  0  0  0  0  0  0  0
   -2.3792   19.3621  -29.2255 H   0  0  0  0  0  0  0  0  0  0  0  0
   -1.5310   21.0450  -32.2140 C   0  0  0  0  0  0  0  0  0  0  0  0
   -0.5370   21.3233  -31.8339 H   0  0  0  0  0  0  0  0  0  0  0  0
   -0.0260   21.9130  -34.9630 C   0  0  0  0  0  0  0  0  0  0  0  0
   -0.4477   22.8622  -34.6007 H   0  0  0  0  0  0  0  0  0  0  0  0
    1.0450   21.9290  -35.8610 C   0  0  0  0  0  0  0  0  0  0  0  0
    1.4571   22.8885  -36.2069 H   0  0  0  0  0  0  0  0  0  0  0  0
  1  2  1  0
  2  3  2  0
  3  4  1  0
  3  5  1  0
  5  6  1  0
  5  7  2  0
  7  8  1  0
  8  9  2  0
  9 10  1  0
 10 11  2  0
 11 12  1  0
 12 13  2  0
 13 14  1  0
 13 15  1  0
 15 16  1  0
 15 17  2  0
 17 18  1  0
 17 19  1  0
 19 20  1  0
 20 21  1  0
 20 22  1  0
 20 23  1  0
 19 24  2  0
 24 25  1  0
 10 26  1  0
 26 27  1  0
 26 28  1  0
 28 29  1  0
 29 30  2  0
 30 31  1  0
 30 32  1  0
 32 33  1  0
 33 34  1  0
 33 35  1  0
 33 36  1  0
 32 37  2  0
 37 38  1  0
 37 39  1  0
 39 40  1  0
 40 41  1  0
 40 42  1  0
 40 43  1  0
 39 44  2  0
 44 45  1  0
 28 46  2  0
 46 47  1  0
  7 48  1  0
 48 49  1  0
 48 50  2  0
 50 51  1  0
 50  2  1  0
 46  8  1  0
 24 12  1  0
 44 29  1  0
M  END
>  <UniqueID>  (40) 
37

>  <SMILES>  (40) 
Cc1cccc(/N=c2/nc(-c3ccccc3)cc(-c3cc(C(F)(F)F)cc(C(F)(F)F)c3)[nH]2)c1

>  <Energy>  (40) 
73.60407199918072

>  <Genealogy>  (40) 
Cc1cccc(/N=c2/nc(-c3ccccc3)cc(-c3cc(C(F)(F)F)cc(C(F)(F)F)c3)[nH]2)c1 (cis-trans isomerization)
Cc1cccc(/N=c2/nc(-c3ccccc3)cc(-c3cc(C(F)(F)F)cc(C(F)(F)F)c3)[nH]2)c1 (3D coordinates assigned)
Cc1cccc(/N=c2/nc(-c3ccccc3)cc(-c3cc(C(F)(F)F)cc(C(F)(F)F)c3)[nH]2)c1 (optimized conformer: 73.60407199918072 kcal/mol)

>  <smiles>  (40) 
Cc1cccc(N=c2nc(-c3ccccc3)cc(-c3cc(C(F)(F)F)cc(C(F)(F)F)c3)[nH]2)c1

>  <score_type>  (40) 
oracle

>  <origin>  (40) 
adgpu

>  <m_score__min__energy>  (40) 
-8.9000000000000004

>  <m_primary>  (40) 
energy

$$$$
40:0
     RDKit          3D

 38 40  0  0  0  0  0  0  0  0999 V2000
   -1.6100   25.3690  -27.6930 C   0  0  0  0  0  0  0  0  0  0  0  0
   -1.9890   25.2990  -29.0640 O   0  0  0  0  0  0  0  0  0  0  0  0
   -2.4600   24.1390  -29.6990 C   0  0  0  0  0  0  0  0  0  0  0  0
   -1.8100   22.8980  -29.5670 C   0  0  0  0  0  0  0  0  0  0  0  0
   -2.3090   21.7660  -30.2140 C   0  0  0  0  0  0  0  0  0  0  0  0
   -3.4640   21.8500  -31.0040 C   0  0  0  0  0  0  0  0  0  0  0  0
   -3.9870   20.6450  -31.6730 C   0  0  0  0  0  0  0  0  0  0  0  0
   -3.5170   20.1490  -32.8360 N   0  0  0  0  0  0  0  0  0  0  0  0
   -4.2560   19.0860  -33.1170 N   0  0  0  0  0  0  0  0  0  0  0  0
   -5.1450   18.9770  -32.1130 C   0  0  0  0  0  0  0  0  0  0  0  0
   -6.4120   17.7150  -32.0210 S   0  0  0  0  0  0  0  0  0  0  0  0
   -7.6090   18.6410  -33.0460 C   0  0  0  0  0  0  0  0  0  0  0  0
   -7.8540   20.0080  -32.4780 C   0  0  0  0  0  0  0  0  0  0  0  0
   -8.8330   20.2110  -31.4940 C   0  0  0  0  0  0  0  0  0  0  0  0
   -8.9980   21.4840  -30.9440 C   0  0  0  0  0  0  0  0  0  0  0  0
   -8.1880   22.5370  -31.3740 C   0  0  0  0  0  0  0  0  0  0  0  0
   -7.2220   22.2990  -32.3540 C   0  0  0  0  0  0  0  0  0  0  0  0
   -7.0760   21.0520  -32.8780 N   0  0  0  0  0  0  0  0  0  0  0  0
   -4.9850   19.9230  -31.2230 O   0  0  0  0  0  0  0  0  0  0  0  0
   -4.1160   23.0860  -31.1360 C   0  0  0  0  0  0  0  0  0  0  0  0
   -3.6180   24.2330  -30.4870 C   0  0  0  0  0  0  0  0  0  0  0  0
   -4.2460   25.4850  -30.5990 O   0  0  0  0  0  0  0  0  0  0  0  0
   -5.6440   25.7040  -30.4430 C   0  0  0  0  0  0  0  0  0  0  0  0
   -2.4942   25.2057  -27.0594 H   0  0  0  0  0  0  0  0  0  0  0  0
   -0.8584   24.5945  -27.4803 H   0  0  0  0  0  0  0  0  0  0  0  0
   -1.1847   26.3609  -27.4803 H   0  0  0  0  0  0  0  0  0  0  0  0
   -0.9028   22.8193  -28.9500 H   0  0  0  0  0  0  0  0  0  0  0  0
   -1.7922   20.8013  -30.1031 H   0  0  0  0  0  0  0  0  0  0  0  0
   -7.2087   18.7409  -34.0657 H   0  0  0  0  0  0  0  0  0  0  0  0
   -8.5609   18.0899  -33.0597 H   0  0  0  0  0  0  0  0  0  0  0  0
   -9.4648   19.3753  -31.1588 H   0  0  0  0  0  0  0  0  0  0  0  0
   -9.7642   21.6568  -30.1739 H   0  0  0  0  0  0  0  0  0  0  0  0
   -8.3095   23.5428  -30.9456 H   0  0  0  0  0  0  0  0  0  0  0  0
   -6.5787   23.1204  -32.7025 H   0  0  0  0  0  0  0  0  0  0  0  0
   -5.0244   23.1598  -31.7520 H   0  0  0  0  0  0  0  0  0  0  0  0
   -5.8918   25.7428  -29.3720 H   0  0  0  0  0  0  0  0  0  0  0  0
   -5.9212   26.6565  -30.9182 H   0  0  0  0  0  0  0  0  0  0  0  0
   -6.1992   24.8819  -30.9182 H   0  0  0  0  0  0  0  0  0  0  0  0
  1  2  1  0
  2  3  1  0
  3  4  2  0
  4  5  1  0
  5  6  2  0
  6  7  1  0
  7  8  2  0
  8  9  1  0
  9 10  2  0
 10 11  1  0
 11 12  1  0
 12 13  1  0
 13 14  2  0
 14 15  1  0
 15 16  2  0
 16 17  1  0
 17 18  2  0
 10 19  1  0
  6 20  1  0
 20 21  2  0
 21 22  1  0
 22 23  1  0
 21  3  1  0
 19  7  1  0
 18 13  1  0
  1 24  1  0
  1 25  1  0
  1 26  1  0
  4 27  1  0
  5 28  1  0
 12 29  1  0
 12 30  1  0
 14 31  1  0
 15 32  1  0
 16 33  1  0
 17 34  1  0
 20 35  1  0
 23 36  1  0
 23 37  1  0
 23 38  1  0
M  END
>  <UniqueID>  (41) 
38

>  <SMILES>  (41) 
COc1ccc(-c2nnc(SCc3ccccn3)o2)cc1OC

>  <Energy>  (41) 
69.46013451246968

>  <Genealogy>  (41) 
COc1ccc(-c2nnc(SCc3ccccn3)o2)cc1OC (3D coordinates assigned)
COc1ccc(-c2nnc(SCc3ccccn3)o2)cc1OC (optimized conformer: 69.46013451246968 kcal/mol)

>  <smiles>  (41) 
COc1ccc(-c2nnc(SCc3ccccn3)o2)cc1OC

>  <score_type>  (41) 
oracle

>  <origin>  (41) 
adgpu

>  <m_score__min__energy>  (41) 
-8.4000000000000004

>  <m_primary>  (41) 
energy

$$$$
41:0
     RDKit          3D

 27 28  0  0  0  0  0  0  0  0999 V2000
   -2.8840   23.3010  -30.9960 O   0  0  0  0  0  0  0  0  0  0  0  0
   -3.7600   24.0610  -30.5050 C   0  0  0  0  0  0  0  0  0  0  0  0
   -4.9890   24.2490  -31.2150 N   0  0  0  0  0  0  0  0  0  0  0  0
   -5.9750   23.2380  -31.4690 C   0  0  0  0  0  0  0  0  0  0  0  0
   -7.2850   23.4400  -31.0150 C   0  0  0  0  0  0  0  0  0  0  0  0
   -8.2750   22.4870  -31.2670 C   0  0  0  0  0  0  0  0  0  0  0  0
   -7.9670   21.3310  -31.9890 C   0  0  0  0  0  0  0  0  0  0  0  0
   -6.6690   21.1320  -32.4700 C   0  0  0  0  0  0  0  0  0  0  0  0
   -6.2880   19.6940  -33.3980 Cl  0  0  0  0  0  0  0  0  0  0  0  0
   -5.6760   22.0860  -32.2190 C   0  0  0  0  0  0  0  0  0  0  0  0
   -3.4850   24.7930  -29.3010 N   0  0  0  0  0  0  0  0  0  0  0  0
   -2.4090   24.4590  -28.4080 C   0  0  0  0  0  0  0  0  0  0  0  0
   -1.3060   25.3240  -28.2590 C   0  0  0  0  0  0  0  0  0  0  0  0
   -1.2260   26.4750  -28.9720 F   0  0  0  0  0  0  0  0  0  0  0  0
   -0.2540   24.9820  -27.4040 C   0  0  0  0  0  0  0  0  0  0  0  0
   -0.2840   23.7760  -26.7010 C   0  0  0  0  0  0  0  0  0  0  0  0
   -1.3640   22.9040  -26.8540 C   0  0  0  0  0  0  0  0  0  0  0  0
   -2.4220   23.2350  -27.7090 C   0  0  0  0  0  0  0  0  0  0  0  0
   -3.7700   22.1140  -27.8550 Cl  0  0  0  0  0  0  0  0  0  0  0  0
   -7.5355   24.3542  -30.4569 H   0  0  0  0  0  0  0  0  0  0  0  0
   -9.2983   22.6469  -30.8965 H   0  0  0  0  0  0  0  0  0  0  0  0
   -8.7455   20.5775  -32.1790 H   0  0  0  0  0  0  0  0  0  0  0  0
   -4.6588   21.9345  -32.6094 H   0  0  0  0  0  0  0  0  0  0  0  0
   -4.0250   25.6710  -29.1260 H   0  0  0  0  0  0  0  0  0  0  0  0
    0.5999   25.6651  -27.2848 H   0  0  0  0  0  0  0  0  0  0  0  0
    0.5437   23.5125  -26.0261 H   0  0  0  0  0  0  0  0  0  0  0  0
   -1.3835   21.9535  -26.3007 H   0  0  0  0  0  0  0  0  0  0  0  0
  1  2  2  0
  2  3  1  0
  3  4  1  0
  4  5  2  0
  5  6  1  0
  6  7  2  0
  7  8  1  0
  8  9  1  0
  8 10  2  0
  2 11  1  0
 11 12  1  0
 12 13  2  0
 13 14  1  0
 13 15  1  0
 15 16  2  0
 16 17  1  0
 17 18  2  0
 18 19  1  0
 10  4  1  0
 18 12  1  0
  5 20  1  0
  6 21  1  0
  7 22  1  0
 10 23  1  0
 11 24  1  0
 15 25  1  0
 16 26  1  0
 17 27  1  0
M  CHG  1   3  -1
M  END
>  <UniqueID>  (42) 
39

>  <SMILES>  (42) 
O=C([N-]c1cccc(Cl)c1)Nc1c(F)cccc1Cl

>  <Energy>  (42) 
36.579444249330926

>  <Genealogy>  (42) 
O=C([N-]c1cccc(Cl)c1)Nc1c(F)cccc1Cl (protonated)
O=C([N-]c1cccc(Cl)c1)Nc1c(F)cccc1Cl (3D coordinates assigned)
O=C([N-]c1cccc(Cl)c1)Nc1c(F)cccc1Cl (optimized conformer: 36.579444249330926 kcal/mol)

>  <smiles>  (42) 
O=C(Nc1cccc(Cl)c1)Nc1c(F)cccc1Cl

>  <score_type>  (42) 
oracle

>  <origin>  (42) 
adgpu

>  <m_score__min__energy>  (42) 
-8.6500000000000004

>  <m_primary>  (42) 
energy

$$$$
42:0
     RDKit          3D

 51 53  0  0  0  0  0  0  0  0999 V2000
   -1.1950   26.5240  -24.3700 C   0  0  0  0  0  0  0  0  0  0  0  0
   -1.9750   25.8750  -25.5070 C   0  0  0  0  0  0  0  0  0  0  0  0
   -1.1650   25.7630  -26.6750 O   0  0  0  0  0  0  0  0  0  0  0  0
   -1.5980   25.1640  -27.8630 C   0  0  0  0  0  0  0  0  0  0  0  0
   -1.6050   25.8250  -28.9360 O   0  0  0  0  0  0  0  0  0  0  0  0
   -2.0680   23.7590  -27.8490 C   0  0  0  0  0  0  0  0  0  0  0  0
   -3.3900   23.3830  -28.1140 C   0  0  0  0  0  0  0  0  0  0  0  0
   -4.4560   24.2640  -28.4890 N   0  0  0  0  0  0  0  0  0  0  0  0
   -4.5050   24.9100  -29.7690 C   0  0  0  0  0  0  0  0  0  0  0  0
   -3.4900   24.9220  -30.5190 O   0  0  0  0  0  0  0  0  0  0  0  0
   -5.7770   25.5440  -30.2460 C   0  0  0  0  0  0  0  0  0  0  0  0
   -7.1800   24.3730  -30.1580 S   0  0  0  0  0  0  0  0  0  0  0  0
   -6.4450   23.1620  -31.2550 C   0  0  0  0  0  0  0  0  0  0  0  0
   -5.3540   23.4020  -32.0120 N   0  0  0  0  0  0  0  0  0  0  0  0
   -5.1870   22.2230  -32.6450 C   0  0  0  0  0  0  0  0  0  0  0  0
   -6.1290   21.3300  -32.2800 N   0  0  0  0  0  0  0  0  0  0  0  0
   -6.2710   19.9660  -32.7170 C   0  0  0  0  0  0  0  0  0  0  0  0
   -7.1370   19.0960  -32.0320 C   0  0  0  0  0  0  0  0  0  0  0  0
   -7.2940   17.7730  -32.4500 C   0  0  0  0  0  0  0  0  0  0  0  0
   -6.5810   17.2930  -33.5580 C   0  0  0  0  0  0  0  0  0  0  0  0
   -6.7800   15.8830  -34.0320 C   0  0  0  0  0  0  0  0  0  0  0  0
   -5.7320   18.1610  -34.2580 C   0  0  0  0  0  0  0  0  0  0  0  0
   -5.5720   19.4850  -33.8390 C   0  0  0  0  0  0  0  0  0  0  0  0
   -6.9240   21.9140  -31.4030 N   0  0  0  0  0  0  0  0  0  0  0  0
   -3.5750   21.7370  -27.8250 S   0  0  0  0  0  0  0  0  0  0  0  0
   -1.9820   21.4610  -27.3690 C   0  0  0  0  0  0  0  0  0  0  0  0
   -1.4470   20.1270  -26.9560 C   0  0  0  0  0  0  0  0  0  0  0  0
   -1.2670   22.6620  -27.4450 C   0  0  0  0  0  0  0  0  0  0  0  0
    0.1910   22.7710  -27.0920 C   0  0  0  0  0  0  0  0  0  0  0  0
   -1.6021   26.1852  -23.4059 H   0  0  0  0  0  0  0  0  0  0  0  0
   -0.1355   26.2372  -24.4417 H   0  0  0  0  0  0  0  0  0  0  0  0
   -1.2844   27.6180  -24.4417 H   0  0  0  0  0  0  0  0  0  0  0  0
   -2.2996   24.8713  -25.1952 H   0  0  0  0  0  0  0  0  0  0  0  0
   -2.8473   26.5031  -25.7408 H   0  0  0  0  0  0  0  0  0  0  0  0
   -5.2940   24.3300  -27.8710 H   0  0  0  0  0  0  0  0  0  0  0  0
   -5.9998   26.4176  -29.6157 H   0  0  0  0  0  0  0  0  0  0  0  0
   -5.6419   25.8443  -31.2955 H   0  0  0  0  0  0  0  0  0  0  0  0
   -4.3839   22.0160  -33.3676 H   0  0  0  0  0  0  0  0  0  0  0  0
   -7.6965   19.4611  -31.1581 H   0  0  0  0  0  0  0  0  0  0  0  0
   -7.9795   17.1048  -31.9081 H   0  0  0  0  0  0  0  0  0  0  0  0
   -6.8744   15.2142  -33.1638 H   0  0  0  0  0  0  0  0  0  0  0  0
   -7.6951   15.8262  -34.6398 H   0  0  0  0  0  0  0  0  0  0  0  0
   -5.9164   15.5752  -34.6398 H   0  0  0  0  0  0  0  0  0  0  0  0
   -5.1882   17.7982  -35.1426 H   0  0  0  0  0  0  0  0  0  0  0  0
   -4.8954   20.1548  -34.3900 H   0  0  0  0  0  0  0  0  0  0  0  0
   -1.4224   20.0658  -25.8580 H   0  0  0  0  0  0  0  0  0  0  0  0
   -2.0961   19.3327  -27.3531 H   0  0  0  0  0  0  0  0  0  0  0  0
   -0.4289   20.0013  -27.3531 H   0  0  0  0  0  0  0  0  0  0  0  0
    0.3037   22.7794  -25.9978 H   0  0  0  0  0  0  0  0  0  0  0  0
    0.7348   21.9110  -27.5100 H   0  0  0  0  0  0  0  0  0  0  0  0
    0.6008   23.7023  -27.5100 H   0  0  0  0  0  0  0  0  0  0  0  0
  1  2  1  0
  2  3  1  0
  3  4  1  0
  4  5  2  0
  4  6  1  0
  6  7  2  0
  7  8  1  0
  8  9  1  0
  9 10  2  0
  9 11  1  0
 11 12  1  0
 12 13  1  0
 13 14  1  0
 14 15  2  0
 15 16  1  0
 16 17  1  0
 17 18  2  0
 18 19  1  0
 19 20  2  0
 20 21  1  0
 20 22  1  0
 22 23  2  0
 16 24  1  0
  7 25  1  0
 25 26  1  0
 26 27  1  0
 26 28  2  0
 28 29  1  0
 28  6  1  0
 24 13  2  0
 23 17  1  0
  1 30  1  0
  1 31  1  0
  1 32  1  0
  2 33  1  0
  2 34  1  0
  8 35  1  0
 11 36  1  0
 11 37  1  0
 15 38  1  0
 18 39  1  0
 19 40  1  0
 21 41  1  0
 21 42  1  0
 21 43  1  0
 22 44  1  0
 23 45  1  0
 27 46  1  0
 27 47  1  0
 27 48  1  0
 29 49  1  0
 29 50  1  0
 29 51  1  0
M  END
>  <UniqueID>  (43) 
40

>  <SMILES>  (43) 
CCOC(=O)c1c(NC(=O)CSc2ncn(-c3ccc(C)cc3)n2)sc(C)c1C

>  <Energy>  (43) 
105.37194247614246

>  <Genealogy>  (43) 
CCOC(=O)c1c(NC(=O)CSc2ncn(-c3ccc(C)cc3)n2)sc(C)c1C (3D coordinates assigned)
CCOC(=O)c1c(NC(=O)CSc2ncn(-c3ccc(C)cc3)n2)sc(C)c1C (optimized conformer: 105.37194247614246 kcal/mol)

>  <smiles>  (43) 
CCOC(=O)c1c(NC(=O)CSc2ncn(-c3ccc(C)cc3)n2)sc(C)c1C

>  <score_type>  (43) 
oracle

>  <origin>  (43) 
adgpu

>  <m_score__min__energy>  (43) 
-10.039999999999999

>  <m_primary>  (43) 
energy

$$$$
43:0
     RDKit          3D

 43 45  0  0  0  0  0  0  0  0999 V2000
   -4.7630   15.8090  -32.9920 C   0  0  0  0  0  0  0  0  0  0  0  0
   -4.7780   17.2070  -33.2580 O   0  0  0  0  0  0  0  0  0  0  0  0
   -5.8660   18.0510  -32.9910 C   0  0  0  0  0  0  0  0  0  0  0  0
   -6.1220   19.2140  -33.7400 C   0  0  0  0  0  0  0  0  0  0  0  0
   -7.2350   20.0100  -33.4510 C   0  0  0  0  0  0  0  0  0  0  0  0
   -8.1290   19.6420  -32.4290 C   0  0  0  0  0  0  0  0  0  0  0  0
   -9.3460   20.4790  -32.0990 C   0  0  0  0  0  0  0  0  0  0  0  0
   -9.0350   21.7960  -31.3620 C   0  0  0  0  0  0  0  0  0  0  0  0
   -7.9310   22.5480  -31.9790 N   0  0  0  0  0  0  0  0  0  0  0  0
   -7.6140   23.7970  -31.2640 C   0  0  0  0  0  0  0  0  0  0  0  0
   -6.1360   23.9030  -31.0710 C   0  0  0  0  0  0  0  0  0  0  0  0
   -5.4240   25.0560  -30.8400 C   0  0  0  0  0  0  0  0  0  0  0  0
   -4.1640   24.7180  -30.7250 O   0  0  0  0  0  0  0  0  0  0  0  0
   -4.0860   23.4110  -30.8710 C   0  0  0  0  0  0  0  0  0  0  0  0
   -2.8010   22.6630  -30.8490 C   0  0  0  0  0  0  0  0  0  0  0  0
   -1.9030   22.9350  -29.8000 C   0  0  0  0  0  0  0  0  0  0  0  0
   -0.6650   22.3000  -29.7340 C   0  0  0  0  0  0  0  0  0  0  0  0
   -0.2980   21.3790  -30.7110 C   0  0  0  0  0  0  0  0  0  0  0  0
   -1.1690   21.0830  -31.7620 C   0  0  0  0  0  0  0  0  0  0  0  0
   -0.6520   19.9050  -32.9630 Cl  0  0  0  0  0  0  0  0  0  0  0  0
   -2.4240   21.7200  -31.8450 C   0  0  0  0  0  0  0  0  0  0  0  0
   -3.4810   21.3060  -33.1990 Cl  0  0  0  0  0  0  0  0  0  0  0  0
   -5.2970   22.8510  -31.0770 N   0  0  0  0  0  0  0  0  0  0  0  0
   -7.8420   18.5050  -31.6560 C   0  0  0  0  0  0  0  0  0  0  0  0
   -6.7250   17.7150  -31.9400 C   0  0  0  0  0  0  0  0  0  0  0  0
   -4.7612   15.6426  -31.9047 H   0  0  0  0  0  0  0  0  0  0  0  0
   -5.6562   15.3423  -33.4329 H   0  0  0  0  0  0  0  0  0  0  0  0
   -3.8600   15.3615  -33.4329 H   0  0  0  0  0  0  0  0  0  0  0  0
   -5.4431   19.4988  -34.5573 H   0  0  0  0  0  0  0  0  0  0  0  0
   -7.4126   20.9303  -34.0268 H   0  0  0  0  0  0  0  0  0  0  0  0
   -9.8593   20.7250  -33.0403 H   0  0  0  0  0  0  0  0  0  0  0  0
   -9.9640   19.8770  -31.4166 H   0  0  0  0  0  0  0  0  0  0  0  0
   -9.9371   22.4253  -31.3712 H   0  0  0  0  0  0  0  0  0  0  0  0
   -8.7279   21.5377  -30.3378 H   0  0  0  0  0  0  0  0  0  0  0  0
   -7.0850   21.9330  -31.9470 H   0  0  0  0  0  0  0  0  0  0  0  0
   -7.9688   24.6559  -31.8526 H   0  0  0  0  0  0  0  0  0  0  0  0
   -8.1111   23.7924  -30.2827 H   0  0  0  0  0  0  0  0  0  0  0  0
   -5.8359   26.0732  -30.7656 H   0  0  0  0  0  0  0  0  0  0  0  0
   -2.1828   23.6595  -29.0210 H   0  0  0  0  0  0  0  0  0  0  0  0
    0.0245   22.5270  -28.9075 H   0  0  0  0  0  0  0  0  0  0  0  0
    0.6819   20.8823  -30.6552 H   0  0  0  0  0  0  0  0  0  0  0  0
   -8.5027   18.2339  -30.8193 H   0  0  0  0  0  0  0  0  0  0  0  0
   -6.5197   16.8216  -31.3319 H   0  0  0  0  0  0  0  0  0  0  0  0
  1  2  1  0
  2  3  1  0
  3  4  2  0
  4  5  1  0
  5  6  2  0
  6  7  1  0
  7  8  1  0
  8  9  1  0
  9 10  1  0
 10 11  1  0
 11 12  2  0
 12 13  1  0
 13 14  1  0
 14 15  1  0
 15 16  2  0
 16 17  1  0
 17 18  2  0
 18 19  1  0
 19 20  1  0
 19 21  2  0
 21 22  1  0
 14 23  2  0
  6 24  1  0
 24 25  2  0
 25  3  1  0
 23 11  1  0
 21 15  1  0
  1 26  1  0
  1 27  1  0
  1 28  1  0
  4 29  1  0
  5 30  1  0
  7 31  1  0
  7 32  1  0
  8 33  1  0
  8 34  1  0
  9 35  1  0
 10 36  1  0
 10 37  1  0
 12 38  1  0
 16 39  1  0
 17 40  1  0
 18 41  1  0
 24 42  1  0
 25 43  1  0
M  END
>  <UniqueID>  (44) 
41

>  <SMILES>  (44) 
COc1ccc(CCNCc2coc(-c3cccc(Cl)c3Cl)n2)cc1

>  <Energy>  (44) 
72.6318862899379

>  <Genealogy>  (44) 
COc1ccc(CCNCc2coc(-c3cccc(Cl)c3Cl)n2)cc1 (3D coordinates assigned)
COc1ccc(CCNCc2coc(-c3cccc(Cl)c3Cl)n2)cc1 (optimized conformer: 72.6318862899379 kcal/mol)

>  <smiles>  (44) 
COc1ccc(CCNCc2coc(-c3cccc(Cl)c3Cl)n2)cc1

>  <score_type>  (44) 
oracle

>  <origin>  (44) 
adgpu

>  <m_score__min__energy>  (44) 
-8.6500000000000004

>  <m_primary>  (44) 
energy

$$$$
44:0
     RDKit          3D

 34 36  0  0  0  0  0  0  0  0999 V2000
   -2.0260   25.3290  -29.1380 O   0  0  0  0  0  0  0  0  0  0  0  0
   -2.7590   24.3890  -29.8520 C   0  0  0  0  0  0  0  0  0  0  0  0
   -2.3000   23.0780  -29.9470 C   0  0  0  0  0  0  0  0  0  0  0  0
   -3.0170   22.1050  -30.6710 C   0  0  0  0  0  0  0  0  0  0  0  0
   -4.2860   22.4480  -31.2380 C   0  0  0  0  0  0  0  0  0  0  0  0
   -4.6850   23.8060  -31.1820 C   0  0  0  0  0  0  0  0  0  0  0  0
   -3.9430   24.7570  -30.4840 C   0  0  0  0  0  0  0  0  0  0  0  0
   -4.3870   26.0730  -30.4240 O   0  0  0  0  0  0  0  0  0  0  0  0
   -5.1780   21.4610  -32.0140 C   0  0  2  0  0  0  0  0  0  0  0  0
   -6.6580   21.7690  -31.8170 C   0  0  0  0  0  0  0  0  0  0  0  0
   -7.1990   22.9840  -32.2710 C   0  0  0  0  0  0  0  0  0  0  0  0
   -8.5580   23.2620  -32.0950 C   0  0  0  0  0  0  0  0  0  0  0  0
   -9.3890   22.3310  -31.4680 C   0  0  0  0  0  0  0  0  0  0  0  0
   -8.8630   21.1170  -31.0180 C   0  0  0  0  0  0  0  0  0  0  0  0
   -7.5060   20.8330  -31.1930 C   0  0  0  0  0  0  0  0  0  0  0  0
   -4.9540   19.9750  -31.6490 C   0  0  0  0  0  0  0  0  0  0  0  0
   -3.8000   19.3780  -32.3410 N   0  0  0  0  0  0  0  0  0  0  0  0
   -2.5430   20.1220  -32.1850 C   0  0  0  0  0  0  0  0  0  0  0  0
   -2.3750   20.7360  -30.7880 C   0  0  0  0  0  0  0  0  0  0  0  0
   -1.3609   22.7969  -29.4479 H   0  0  0  0  0  0  0  0  0  0  0  0
   -5.6029   24.1175  -31.7021 H   0  0  0  0  0  0  0  0  0  0  0  0
   -4.8800   21.6035  -33.0632 H   0  0  0  0  0  0  0  0  0  0  0  0
   -6.5498   23.7203  -32.7675 H   0  0  0  0  0  0  0  0  0  0  0  0
   -8.9735   24.2162  -32.4512 H   0  0  0  0  0  0  0  0  0  0  0  0
  -10.4572   22.5532  -31.3284 H   0  0  0  0  0  0  0  0  0  0  0  0
   -9.5183   20.3837  -30.5252 H   0  0  0  0  0  0  0  0  0  0  0  0
   -7.0979   19.8738  -30.8418 H   0  0  0  0  0  0  0  0  0  0  0  0
   -4.7876   19.9022  -30.5641 H   0  0  0  0  0  0  0  0  0  0  0  0
   -5.8495   19.4207  -31.9665 H   0  0  0  0  0  0  0  0  0  0  0  0
   -3.6620   18.4160  -31.9530 H   0  0  0  0  0  0  0  0  0  0  0  0
   -1.7043   19.4343  -32.3681 H   0  0  0  0  0  0  0  0  0  0  0  0
   -2.5614   20.9514  -32.9073 H   0  0  0  0  0  0  0  0  0  0  0  0
   -2.8393   20.0651  -30.0502 H   0  0  0  0  0  0  0  0  0  0  0  0
   -1.2971   20.8570  -30.6050 H   0  0  0  0  0  0  0  0  0  0  0  0
  1  2  1  0
  2  3  2  0
  3  4  1  0
  4  5  2  0
  5  6  1  0
  6  7  2  0
  7  8  1  0
  5  9  1  0
  9 10  1  0
 10 11  2  0
 11 12  1  0
 12 13  2  0
 13 14  1  0
 14 15  2  0
  9 16  1  0
 16 17  1  0
 17 18  1  0
 18 19  1  0
  7  2  1  0
 15 10  1  0
 19  4  1  0
  3 20  1  0
  6 21  1  0
  9 22  1  6
 11 23  1  0
 12 24  1  0
 13 25  1  0
 14 26  1  0
 15 27  1  0
 16 28  1  0
 16 29  1  0
 17 30  1  0
 18 31  1  0
 18 32  1  0
 19 33  1  0
 19 34  1  0
M  CHG  2   1  -1   8  -1
M  END
>  <UniqueID>  (45) 
42

>  <SMILES>  (45) 
[O-]c1cc2c(cc1[O-])[C@H](c1ccccc1)CNCC2

>  <Energy>  (45) 
51.86157359260597

>  <Genealogy>  (45) 
[O-]c1cc2c(cc1[O-])C(c1ccccc1)CNCC2 (protonated)
[O-]c1cc2c(cc1[O-])[C@H](c1ccccc1)CNCC2 (chirality)
[O-]c1cc2c(cc1[O-])[C@H](c1ccccc1)CNCC2 (3D coordinates assigned)
[O-]c1cc2c(cc1[O-])[C@H](c1ccccc1)CNCC2 (nonaromatic ring conformer: 51.86157359260597 kcal/mol)

>  <smiles>  (45) 
Oc1cc2c(cc1O)C(c1ccccc1)CNCC2

>  <score_type>  (45) 
oracle

>  <origin>  (45) 
adgpu

>  <m_score__min__energy>  (45) 
-9.9299999999999997

>  <m_primary>  (45) 
energy

$$$$
45:0
     RDKit          3D

 61 64  0  0  0  0  0  0  0  0999 V2000
   -0.7880   26.8870  -27.8880 C   0  0  0  0  0  0  0  0  0  0  0  0
   -1.4110   26.0290  -28.8360 O   0  0  0  0  0  0  0  0  0  0  0  0
   -1.7900   24.7030  -28.5830 C   0  0  0  0  0  0  0  0  0  0  0  0
   -1.1640   23.9230  -27.5880 C   0  0  0  0  0  0  0  0  0  0  0  0
   -1.5610   22.6010  -27.3780 C   0  0  0  0  0  0  0  0  0  0  0  0
   -2.5770   22.0440  -28.1570 C   0  0  0  0  0  0  0  0  0  0  0  0
   -3.2000   22.8070  -29.1480 C   0  0  0  0  0  0  0  0  0  0  0  0
   -2.8190   24.1350  -29.3540 C   0  0  0  0  0  0  0  0  0  0  0  0
   -3.5030   24.9090  -30.3360 N   0  0  0  0  0  0  0  0  0  0  0  0
   -5.2330   24.9660  -30.3650 S   0  0  0  0  0  0  0  0  0  0  0  0
   -5.7680   25.1640  -28.9750 O   0  0  0  0  0  0  0  0  0  0  0  0
   -5.6780   26.1160  -31.2210 O   0  0  0  0  0  0  0  0  0  0  0  0
   -5.8400   23.4620  -31.0510 C   0  0  0  0  0  0  0  0  0  0  0  0
   -7.1650   23.0700  -30.8280 C   0  0  0  0  0  0  0  0  0  0  0  0
   -7.6280   21.8500  -31.3240 C   0  0  0  0  0  0  0  0  0  0  0  0
   -6.7680   20.9920  -32.0340 C   0  0  0  0  0  0  0  0  0  0  0  0
   -7.2600   19.6960  -32.5540 C   0  0  0  0  0  0  0  0  0  0  0  0
   -8.3830   19.6360  -33.1260 O   0  0  0  0  0  0  0  0  0  0  0  0
   -6.4980   18.5000  -32.3420 N   0  0  0  0  0  0  0  0  0  0  0  0
   -5.3830   18.0600  -33.1300 C   0  0  0  0  0  0  0  0  0  0  0  0
   -5.4790   16.9530  -33.9930 C   0  0  0  0  0  0  0  0  0  0  0  0
   -4.3790   16.5670  -34.7650 C   0  0  0  0  0  0  0  0  0  0  0  0
   -3.1850   17.2920  -34.6970 C   0  0  0  0  0  0  0  0  0  0  0  0
   -3.0890   18.4140  -33.8600 C   0  0  0  0  0  0  0  0  0  0  0  0
   -1.6050   19.3550  -33.7860 S   0  0  0  0  0  0  0  0  0  0  0  0
   -0.4480   18.4210  -34.0050 O   0  0  0  0  0  0  0  0  0  0  0  0
   -1.5970   20.4130  -34.8540 O   0  0  0  0  0  0  0  0  0  0  0  0
   -1.4740   20.1210  -32.2270 N   0  0  0  0  0  0  0  0  0  0  0  0
   -1.9450   21.4950  -32.0670 C   0  0  0  0  0  0  0  0  0  0  0  0
   -0.8890   19.4200  -31.1130 C   0  0  0  0  0  0  0  0  0  0  0  0
   -0.9110   19.9830  -29.8260 C   0  0  0  0  0  0  0  0  0  0  0  0
   -0.3500   19.2990  -28.7450 C   0  0  0  0  0  0  0  0  0  0  0  0
    0.2360   18.0470  -28.9360 C   0  0  0  0  0  0  0  0  0  0  0  0
    0.2550   17.4720  -30.2090 C   0  0  0  0  0  0  0  0  0  0  0  0
   -0.3060   18.1520  -31.2930 C   0  0  0  0  0  0  0  0  0  0  0  0
   -4.1910   18.7960  -33.0830 C   0  0  0  0  0  0  0  0  0  0  0  0
   -5.4360   21.3880  -32.2450 C   0  0  0  0  0  0  0  0  0  0  0  0
   -4.9770   22.6160  -31.7580 C   0  0  0  0  0  0  0  0  0  0  0  0
   -1.0335   26.5488  -26.8705 H   0  0  0  0  0  0  0  0  0  0  0  0
    0.3024   26.8601  -28.0302 H   0  0  0  0  0  0  0  0  0  0  0  0
   -1.1511   27.9156  -28.0302 H   0  0  0  0  0  0  0  0  0  0  0  0
   -0.3604   24.3578  -26.9755 H   0  0  0  0  0  0  0  0  0  0  0  0
   -1.0730   21.9979  -26.5982 H   0  0  0  0  0  0  0  0  0  0  0  0
   -2.8877   21.0021  -27.9902 H   0  0  0  0  0  0  0  0  0  0  0  0
   -3.9922   22.3609  -29.7673 H   0  0  0  0  0  0  0  0  0  0  0  0
   -7.8429   23.7246  -30.2607 H   0  0  0  0  0  0  0  0  0  0  0  0
   -8.6751   21.5566  -31.1582 H   0  0  0  0  0  0  0  0  0  0  0  0
   -6.4215   16.3899  -34.0605 H   0  0  0  0  0  0  0  0  0  0  0  0
   -4.4529   15.6916  -35.4270 H   0  0  0  0  0  0  0  0  0  0  0  0
   -2.3194   16.9820  -35.3009 H   0  0  0  0  0  0  0  0  0  0  0  0
   -2.0264   21.7323  -30.9960 H   0  0  0  0  0  0  0  0  0  0  0  0
   -1.2320   22.1847  -32.5423 H   0  0  0  0  0  0  0  0  0  0  0  0
   -2.9312   21.6022  -32.5423 H   0  0  0  0  0  0  0  0  0  0  0  0
   -1.3730   20.9688  -29.6686 H   0  0  0  0  0  0  0  0  0  0  0  0
   -0.3702   19.7482  -27.7411 H   0  0  0  0  0  0  0  0  0  0  0  0
    0.6828   17.5130  -28.0844 H   0  0  0  0  0  0  0  0  0  0  0  0
    0.7122   16.4827  -30.3581 H   0  0  0  0  0  0  0  0  0  0  0  0
   -0.2918   17.6935  -32.2928 H   0  0  0  0  0  0  0  0  0  0  0  0
   -4.1200   19.6796  -32.4317 H   0  0  0  0  0  0  0  0  0  0  0  0
   -4.7504   20.7280  -32.7966 H   0  0  0  0  0  0  0  0  0  0  0  0
   -3.9337   22.9185  -31.9311 H   0  0  0  0  0  0  0  0  0  0  0  0
  1  2  1  0
  2  3  1  0
  3  4  2  0
  4  5  1  0
  5  6  2  0
  6  7  1  0
  7  8  2  0
  8  9  1  0
  9 10  1  0
 10 11  2  0
 10 12  2  0
 10 13  1  0
 13 14  2  0
 14 15  1  0
 15 16  2  0
 16 17  1  0
 17 18  2  0
 17 19  1  0
 19 20  1  0
 20 21  2  0
 21 22  1  0
 22 23  2  0
 23 24  1  0
 24 25  1  0
 25 26  2  0
 25 27  2  0
 25 28  1  0
 28 29  1  0
 28 30  1  0
 30 31  2  0
 31 32  1  0
 32 33  2  0
 33 34  1  0
 34 35  2  0
 24 36  2  0
 16 37  1  0
 37 38  2  0
  8  3  1  0
 38 13  1  0
 36 20  1  0
 35 30  1  0
  1 39  1  0
  1 40  1  0
  1 41  1  0
  4 42  1  0
  5 43  1  0
  6 44  1  0
  7 45  1  0
 14 46  1  0
 15 47  1  0
 21 48  1  0
 22 49  1  0
 23 50  1  0
 29 51  1  0
 29 52  1  0
 29 53  1  0
 31 54  1  0
 32 55  1  0
 33 56  1  0
 34 57  1  0
 35 58  1  0
 36 59  1  0
 37 60  1  0
 38 61  1  0
M  CHG  2   9  -1  19  -1
M  END
>  <UniqueID>  (46) 
43

>  <SMILES>  (46) 
COc1ccccc1[N-]S(=O)(=O)c1ccc(C(=O)[N-]c2cccc(S(=O)(=O)N(C)c3ccccc3)c2)cc1

>  <Energy>  (46) 
83.0738812056529

>  <Genealogy>  (46) 
COc1ccccc1[N-]S(=O)(=O)c1ccc(C(=O)[N-]c2cccc(S(=O)(=O)N(C)c3ccccc3)c2)cc1 (protonated)
COc1ccccc1[N-]S(=O)(=O)c1ccc(C(=O)[N-]c2cccc(S(=O)(=O)N(C)c3ccccc3)c2)cc1 (3D coordinates assigned)
COc1ccccc1[N-]S(=O)(=O)c1ccc(C(=O)[N-]c2cccc(S(=O)(=O)N(C)c3ccccc3)c2)cc1 (optimized conformer: 83.0738812056529 kcal/mol)

>  <smiles>  (46) 
COc1ccccc1NS(=O)(=O)c1ccc(C(=O)Nc2cccc(S(=O)(=O)N(C)c3ccccc3)c2)cc1

>  <score_type>  (46) 
oracle

>  <origin>  (46) 
adgpu

>  <m_score__min__energy>  (46) 
-12.73

>  <m_primary>  (46) 
energy

$$$$
46:0
     RDKit          3D

 56 59  0  0  0  0  0  0  0  0999 V2000
   -9.0970   18.5430  -31.6230 C   0  0  0  0  0  0  0  0  0  0  0  0
   -9.3160   19.6640  -32.6390 C   0  0  0  0  0  0  0  0  0  0  0  0
   -9.6730   21.0080  -31.9800 C   0  0  0  0  0  0  0  0  0  0  0  0
   -8.4630   21.8060  -31.4560 C   0  0  0  0  0  0  0  0  0  0  0  0
   -7.3290   21.9910  -32.4810 C   0  0  0  0  0  0  0  0  0  0  0  0
   -5.9580   21.7970  -31.8730 C   0  0  0  0  0  0  0  0  0  0  0  0
   -5.1870   20.7010  -31.9800 C   0  0  0  0  0  0  0  0  0  0  0  0
   -5.5830   19.4270  -32.6130 C   0  0  0  0  0  0  0  0  0  0  0  0
   -5.7280   19.3340  -34.0060 C   0  0  0  0  0  0  0  0  0  0  0  0
   -6.1080   18.1240  -34.5950 C   0  0  0  0  0  0  0  0  0  0  0  0
   -6.3560   17.0040  -33.7960 C   0  0  0  0  0  0  0  0  0  0  0  0
   -6.2310   17.0940  -32.4070 C   0  0  0  0  0  0  0  0  0  0  0  0
   -5.8520   18.3030  -31.8150 C   0  0  0  0  0  0  0  0  0  0  0  0
   -3.8090   20.9290  -31.4120 C   0  0  0  0  0  0  0  0  0  0  0  0
   -3.9250   22.3350  -30.9390 C   0  0  0  0  0  0  0  0  0  0  0  0
   -2.9530   23.1090  -30.3070 C   0  0  0  0  0  0  0  0  0  0  0  0
   -3.2770   24.4360  -29.9390 C   0  0  0  0  0  0  0  0  0  0  0  0
   -2.3550   25.2900  -29.3110 O   0  0  0  0  0  0  0  0  0  0  0  0
   -1.3280   24.8740  -28.4110 C   0  0  0  0  0  0  0  0  0  0  0  0
   -1.1960   25.8410  -27.2640 C   0  0  0  0  0  0  0  0  0  0  0  0
   -1.7370   25.5200  -26.0080 C   0  0  0  0  0  0  0  0  0  0  0  0
   -1.6100   26.4120  -24.9380 C   0  0  0  0  0  0  0  0  0  0  0  0
   -0.9390   27.6250  -25.1130 C   0  0  0  0  0  0  0  0  0  0  0  0
   -0.3890   27.9470  -26.3570 C   0  0  0  0  0  0  0  0  0  0  0  0
   -0.5120   27.0570  -27.4280 C   0  0  0  0  0  0  0  0  0  0  0  0
   -4.5690   24.9320  -30.2040 C   0  0  0  0  0  0  0  0  0  0  0  0
   -5.5310   24.1320  -30.8400 C   0  0  0  0  0  0  0  0  0  0  0  0
   -5.1760   22.8320  -31.2090 C   0  0  0  0  0  0  0  0  0  0  0  0
   -9.1766   18.9506  -30.6044 H   0  0  0  0  0  0  0  0  0  0  0  0
   -9.8599   17.7637  -31.7667 H   0  0  0  0  0  0  0  0  0  0  0  0
   -8.0969   18.1081  -31.7667 H   0  0  0  0  0  0  0  0  0  0  0  0
   -8.3929   19.7937  -33.2230 H   0  0  0  0  0  0  0  0  0  0  0  0
  -10.1650   19.3722  -33.2747 H   0  0  0  0  0  0  0  0  0  0  0  0
  -10.1962   21.6268  -32.7239 H   0  0  0  0  0  0  0  0  0  0  0  0
  -10.2938   20.7707  -31.1034 H   0  0  0  0  0  0  0  0  0  0  0  0
   -8.8149   22.8020  -31.1492 H   0  0  0  0  0  0  0  0  0  0  0  0
   -8.0408   21.2242  -30.6234 H   0  0  0  0  0  0  0  0  0  0  0  0
   -7.4625   21.2579  -33.2902 H   0  0  0  0  0  0  0  0  0  0  0  0
   -7.3840   23.0237  -32.8559 H   0  0  0  0  0  0  0  0  0  0  0  0
   -5.5421   20.2160  -34.6365 H   0  0  0  0  0  0  0  0  0  0  0  0
   -6.2119   18.0534  -35.6878 H   0  0  0  0  0  0  0  0  0  0  0  0
   -6.6497   16.0513  -34.2609 H   0  0  0  0  0  0  0  0  0  0  0  0
   -6.4308   16.2133  -31.7789 H   0  0  0  0  0  0  0  0  0  0  0  0
   -5.7643   18.3738  -30.7208 H   0  0  0  0  0  0  0  0  0  0  0  0
   -3.5954   20.2399  -30.5816 H   0  0  0  0  0  0  0  0  0  0  0  0
   -2.9903   20.7573  -32.1264 H   0  0  0  0  0  0  0  0  0  0  0  0
   -1.9548   22.6965  -30.0988 H   0  0  0  0  0  0  0  0  0  0  0  0
   -1.5768   23.8780  -28.0158 H   0  0  0  0  0  0  0  0  0  0  0  0
   -0.3734   24.8428  -28.9566 H   0  0  0  0  0  0  0  0  0  0  0  0
   -2.2622   24.5641  -25.8654 H   0  0  0  0  0  0  0  0  0  0  0  0
   -2.0390   26.1581  -23.9574 H   0  0  0  0  0  0  0  0  0  0  0  0
   -0.8435   28.3269  -24.2714 H   0  0  0  0  0  0  0  0  0  0  0  0
    0.1409   28.9013  -26.4933 H   0  0  0  0  0  0  0  0  0  0  0  0
   -0.0712   27.3100  -28.4035 H   0  0  0  0  0  0  0  0  0  0  0  0
   -4.8270   25.9597  -29.9085 H   0  0  0  0  0  0  0  0  0  0  0  0
   -6.5404   24.5192  -31.0431 H   0  0  0  0  0  0  0  0  0  0  0  0
  1  2  1  0
  2  3  1  0
  3  4  1  0
  4  5  1  0
  5  6  1  0
  6  7  2  0
  7  8  1  0
  8  9  2  0
  9 10  1  0
 10 11  2  0
 11 12  1  0
 12 13  2  0
  7 14  1  0
 14 15  1  0
 15 16  2  0
 16 17  1  0
 17 18  1  0
 18 19  1  0
 19 20  1  0
 20 21  2  0
 21 22  1  0
 22 23  2  0
 23 24  1  0
 24 25  2  0
 17 26  2  0
 26 27  1  0
 27 28  2  0
 28  6  1  0
 13  8  1  0
 28 15  1  0
 25 20  1  0
  1 29  1  0
  1 30  1  0
  1 31  1  0
  2 32  1  0
  2 33  1  0
  3 34  1  0
  3 35  1  0
  4 36  1  0
  4 37  1  0
  5 38  1  0
  5 39  1  0
  9 40  1  0
 10 41  1  0
 11 42  1  0
 12 43  1  0
 13 44  1  0
 14 45  1  0
 14 46  1  0
 16 47  1  0
 19 48  1  0
 19 49  1  0
 21 50  1  0
 22 51  1  0
 23 52  1  0
 24 53  1  0
 25 54  1  0
 26 55  1  0
 27 56  1  0
M  END
>  <UniqueID>  (47) 
44

>  <SMILES>  (47) 
CCCCCC1=C(c2ccccc2)Cc2cc(OCc3ccccc3)ccc21

>  <Energy>  (47) 
75.26629151250411

>  <Genealogy>  (47) 
CCCCCC1=C(c2ccccc2)Cc2cc(OCc3ccccc3)ccc21 (3D coordinates assigned)
CCCCCC1=C(c2ccccc2)Cc2cc(OCc3ccccc3)ccc21 (nonaromatic ring conformer: 75.26629151250411 kcal/mol)

>  <smiles>  (47) 
CCCCCC1=C(c2ccccc2)Cc2cc(OCc3ccccc3)ccc21

>  <score_type>  (47) 
oracle

>  <origin>  (47) 
adgpu

>  <m_score__min__energy>  (47) 
-10.699999999999999

>  <m_primary>  (47) 
energy

$$$$
47:0
     RDKit          3D

 46 48  0  0  0  0  0  0  0  0999 V2000
   -6.7860   14.7260  -34.2750 C   0  0  0  0  0  0  0  0  0  0  0  0
   -6.7500   16.0190  -34.8700 O   0  0  0  0  0  0  0  0  0  0  0  0
   -6.5100   17.2080  -34.1670 C   0  0  0  0  0  0  0  0  0  0  0  0
   -7.2060   17.4260  -32.9740 C   0  0  0  0  0  0  0  0  0  0  0  0
   -7.0040   18.5960  -32.2350 C   0  0  0  0  0  0  0  0  0  0  0  0
   -6.0990   19.5760  -32.6780 C   0  0  0  0  0  0  0  0  0  0  0  0
   -5.8900   20.8170  -31.8870 C   0  0  0  0  0  0  0  0  0  0  0  0
   -4.9760   21.0010  -30.8450 C   0  0  0  0  0  0  0  0  0  0  0  0
   -5.0040   22.2910  -30.2810 C   0  0  0  0  0  0  0  0  0  0  0  0
   -4.1260   22.7060  -29.1610 C   0  0  0  0  0  0  0  0  0  0  0  0
   -3.1630   21.9670  -28.8180 O   0  0  0  0  0  0  0  0  0  0  0  0
   -4.3850   23.9210  -28.4400 N   0  0  0  0  0  0  0  0  0  0  0  0
   -3.4070   24.5940  -27.6290 C   0  0  0  0  0  0  0  0  0  0  0  0
   -3.7490   25.0020  -26.3310 C   0  0  0  0  0  0  0  0  0  0  0  0
   -2.8220   25.6760  -25.5310 C   0  0  0  0  0  0  0  0  0  0  0  0
   -1.5450   25.9760  -26.0280 C   0  0  0  0  0  0  0  0  0  0  0  0
   -0.5370   26.6710  -25.1540 C   0  0  0  0  0  0  0  0  0  0  0  0
   -1.1870   27.7250  -24.3850 N   0  0  0  0  0  0  0  0  0  0  0  0
   -1.2010   25.5760  -27.3280 C   0  0  0  0  0  0  0  0  0  0  0  0
   -2.1280   24.9010  -28.1270 C   0  0  0  0  0  0  0  0  0  0  0  0
   -5.9550   23.1190  -30.8790 C   0  0  0  0  0  0  0  0  0  0  0  0
   -6.1880   24.4880  -30.5190 N   0  0  0  0  0  0  0  0  0  0  0  0
   -5.2310   25.5540  -30.5000 C   0  0  0  0  0  0  0  0  0  0  0  0
   -3.8720   25.3390  -30.8730 N   0  0  0  0  0  0  0  0  0  0  0  0
   -5.6020   26.7050  -30.1520 O   0  0  0  0  0  0  0  0  0  0  0  0
   -6.7310   22.2620  -32.1010 S   0  0  0  0  0  0  0  0  0  0  0  0
   -5.3960   19.3530  -33.8780 C   0  0  0  0  0  0  0  0  0  0  0  0
   -5.6000   18.1820  -34.6160 C   0  0  0  0  0  0  0  0  0  0  0  0
   -6.7832   14.8262  -33.1796 H   0  0  0  0  0  0  0  0  0  0  0  0
   -7.6991   14.2014  -34.5929 H   0  0  0  0  0  0  0  0  0  0  0  0
   -5.9035   14.1514  -34.5929 H   0  0  0  0  0  0  0  0  0  0  0  0
   -7.9191   16.6701  -32.6134 H   0  0  0  0  0  0  0  0  0  0  0  0
   -7.5588   18.7508  -31.2979 H   0  0  0  0  0  0  0  0  0  0  0  0
   -4.2962   20.2093  -30.4971 H   0  0  0  0  0  0  0  0  0  0  0  0
   -5.3680   24.2750  -28.4110 H   0  0  0  0  0  0  0  0  0  0  0  0
   -4.7549   24.7897  -25.9397 H   0  0  0  0  0  0  0  0  0  0  0  0
   -3.0950   25.9724  -24.5075 H   0  0  0  0  0  0  0  0  0  0  0  0
   -0.0878   25.9411  -24.4645 H   0  0  0  0  0  0  0  0  0  0  0  0
    0.2447   27.1156  -25.7874 H   0  0  0  0  0  0  0  0  0  0  0  0
   -1.9650   28.1190  -24.9640 H   0  0  0  0  0  0  0  0  0  0  0  0
   -1.6340   27.2810  -23.5510 H   0  0  0  0  0  0  0  0  0  0  0  0
   -0.1969   25.7947  -27.7203 H   0  0  0  0  0  0  0  0  0  0  0  0
   -1.8556   24.6080  -29.1517 H   0  0  0  0  0  0  0  0  0  0  0  0
   -3.1170   25.2970  -30.1530 H   0  0  0  0  0  0  0  0  0  0  0  0
   -4.6800   20.1064  -34.2382 H   0  0  0  0  0  0  0  0  0  0  0  0
   -5.0456   18.0222  -35.5526 H   0  0  0  0  0  0  0  0  0  0  0  0
  1  2  1  0
  2  3  1  0
  3  4  2  0
  4  5  1  0
  5  6  2  0
  6  7  1  0
  7  8  2  0
  8  9  1  0
  9 10  1  0
 10 11  2  0
 10 12  1  0
 12 13  1  0
 13 14  2  0
 14 15  1  0
 15 16  2  0
 16 17  1  0
 17 18  1  0
 16 19  1  0
 19 20  2  0
  9 21  2  0
 21 22  1  0
 22 23  1  0
 23 24  1  0
 23 25  2  0
 21 26  1  0
  6 27  1  0
 27 28  2  0
 28  3  1  0
 26  7  1  0
 20 13  1  0
  1 29  1  0
  1 30  1  0
  1 31  1  0
  4 32  1  0
  5 33  1  0
  8 34  1  0
 12 35  1  0
 14 36  1  0
 15 37  1  0
 17 38  1  0
 17 39  1  0
 18 40  1  0
 18 41  1  0
 19 42  1  0
 20 43  1  0
 24 44  1  0
 27 45  1  0
 28 46  1  0
M  CHG  2  22  -1  24  -1
M  END
>  <UniqueID>  (48) 
45

>  <SMILES>  (48) 
COc1ccc(-c2cc(C(=O)Nc3ccc(CN)cc3)c([N-]C([NH-])=O)s2)cc1

>  <Energy>  (48) 
80.48763972146902

>  <Genealogy>  (48) 
COc1ccc(-c2cc(C(=O)Nc3ccc(CN)cc3)c([N-]C([NH-])=O)s2)cc1 (protonated)
COc1ccc(-c2cc(C(=O)Nc3ccc(CN)cc3)c([N-]C([NH-])=O)s2)cc1 (3D coordinates assigned)
COc1ccc(-c2cc(C(=O)Nc3ccc(CN)cc3)c([N-]C([NH-])=O)s2)cc1 (optimized conformer: 80.48763972146902 kcal/mol)

>  <smiles>  (48) 
COc1ccc(-c2cc(C(=O)Nc3ccc(CN)cc3)c(NC(N)=O)s2)cc1

>  <score_type>  (48) 
oracle

>  <origin>  (48) 
adgpu

>  <m_score__min__energy>  (48) 
-11.32

>  <m_primary>  (48) 
energy

$$$$
48:0
     RDKit          3D

 38 40  0  0  0  0  0  0  0  0999 V2000
   -0.7360   16.9080  -26.3610 H   0  0  0  0  0  0  0  0  0  0  0  0
   -0.1830   17.3810  -27.0650 O   0  0  0  0  0  0  0  0  0  0  0  0
   -0.4360   18.6980  -27.4560 C   0  0  0  0  0  0  0  0  0  0  0  0
   -1.5920   19.3330  -26.9830 C   0  0  0  0  0  0  0  0  0  0  0  0
   -2.4480   18.6140  -26.1330 O   0  0  0  0  0  0  0  0  0  0  0  0
   -3.8680   18.6020  -26.2390 C   0  0  0  0  0  0  0  0  0  0  0  0
   -4.3108   18.5983  -25.2321 H   0  0  0  0  0  0  0  0  0  0  0  0
   -4.2026   19.4973  -26.7834 H   0  0  0  0  0  0  0  0  0  0  0  0
   -4.1874   17.7011  -26.7834 H   0  0  0  0  0  0  0  0  0  0  0  0
   -1.8600   20.6580  -27.3670 C   0  0  0  0  0  0  0  0  0  0  0  0
   -2.7685   21.1565  -26.9981 H   0  0  0  0  0  0  0  0  0  0  0  0
   -0.9830   21.3550  -28.2160 C   0  0  0  0  0  0  0  0  0  0  0  0
   -1.2980   22.7550  -28.6030 C   0  0  0  0  0  0  0  0  0  0  0  0
   -2.4620   23.0660  -29.2380 N   0  0  0  0  0  0  0  0  0  0  0  0
   -2.5750   24.3880  -29.4790 C   0  0  0  0  0  0  0  0  0  0  0  0
   -3.5780   24.9380  -30.0990 N   0  0  0  0  0  0  0  0  0  0  0  0
   -4.7680   24.2710  -30.5540 C   0  0  0  0  0  0  0  0  0  0  0  0
   -6.0120   24.7830  -30.1660 C   0  0  0  0  0  0  0  0  0  0  0  0
   -6.0601   25.6819  -29.5338 H   0  0  0  0  0  0  0  0  0  0  0  0
   -7.1930   24.1590  -30.5770 C   0  0  0  0  0  0  0  0  0  0  0  0
   -8.1654   24.5772  -30.2779 H   0  0  0  0  0  0  0  0  0  0  0  0
   -7.1450   23.0050  -31.3670 C   0  0  0  0  0  0  0  0  0  0  0  0
   -8.6530   22.2520  -31.8690 Cl  0  0  0  0  0  0  0  0  0  0  0  0
   -5.9010   22.4650  -31.7350 C   0  0  0  0  0  0  0  0  0  0  0  0
   -5.7940   21.0040  -32.7070 Cl  0  0  0  0  0  0  0  0  0  0  0  0
   -4.7200   23.0890  -31.3180 C   0  0  0  0  0  0  0  0  0  0  0  0
   -3.7471   22.6531  -31.5889 H   0  0  0  0  0  0  0  0  0  0  0  0
   -1.2360   25.2380  -28.9400 S   0  0  0  0  0  0  0  0  0  0  0  0
   -0.4730   23.8580  -28.3470 C   0  0  0  0  0  0  0  0  0  0  0  0
    0.5053   23.8281  -27.8449 H   0  0  0  0  0  0  0  0  0  0  0  0
    0.1680   20.7030  -28.6880 C   0  0  0  0  0  0  0  0  0  0  0  0
    0.8581   21.2360  -29.3585 H   0  0  0  0  0  0  0  0  0  0  0  0
    0.4490   19.3750  -28.3130 C   0  0  0  0  0  0  0  0  0  0  0  0
    1.5940   18.7010  -28.7700 O   0  0  0  0  0  0  0  0  0  0  0  0
    1.5770   17.5410  -29.5980 C   0  0  0  0  0  0  0  0  0  0  0  0
    1.5638   16.6402  -28.9669 H   0  0  0  0  0  0  0  0  0  0  0  0
    0.6790   17.5569  -30.2331 H   0  0  0  0  0  0  0  0  0  0  0  0
    2.4751   17.5306  -30.2331 H   0  0  0  0  0  0  0  0  0  0  0  0
  1  2  1  0
  2  3  1  0
  3  4  2  0
  4  5  1  0
  5  6  1  0
  6  7  1  0
  6  8  1  0
  6  9  1  0
  4 10  1  0
 10 11  1  0
 10 12  2  0
 12 13  1  0
 13 14  1  0
 14 15  1  0
 15 16  2  0
 16 17  1  0
 17 18  2  0
 18 19  1  0
 18 20  1  0
 20 21  1  0
 20 22  2  0
 22 23  1  0
 22 24  1  0
 24 25  1  0
 24 26  2  0
 26 27  1  0
 15 28  1  0
 28 29  1  0
 29 30  1  0
 12 31  1  0
 31 32  1  0
 31 33  2  0
 33 34  1  0
 34 35  1  0
 35 36  1  0
 35 37  1  0
 35 38  1  0
 33  3  1  0
 29 13  2  0
 26 17  1  0
M  CHG  1  14  -1
M  END
>  <UniqueID>  (49) 
46

>  <SMILES>  (49) 
COc1cc(-c2cs/c(=N/c3ccc(Cl)c(Cl)c3)[n-]2)cc(OC)c1O

>  <Energy>  (49) 
77.90514653270534

>  <Genealogy>  (49) 
COc1cc(-c2csc(=Nc3ccc(Cl)c(Cl)c3)[n-]2)cc(OC)c1O (protonated)
COc1cc(-c2cs/c(=N/c3ccc(Cl)c(Cl)c3)[n-]2)cc(OC)c1O (cis-trans isomerization)
COc1cc(-c2cs/c(=N/c3ccc(Cl)c(Cl)c3)[n-]2)cc(OC)c1O (3D coordinates assigned)
COc1cc(-c2cs/c(=N/c3ccc(Cl)c(Cl)c3)[n-]2)cc(OC)c1O (optimized conformer: 77.90514653270534 kcal/mol)

>  <smiles>  (49) 
COc1cc(-c2csc(=Nc3ccc(Cl)c(Cl)c3)[nH]2)cc(OC)c1O

>  <score_type>  (49) 
oracle

>  <origin>  (49) 
adgpu

>  <m_score__min__energy>  (49) 
-9.3000000000000007

>  <m_primary>  (49) 
energy

$$$$
