0:0
     RDKit          3D

 44 46  0  0  0  0  0  0  0  0999 V2000
   -4.5250   23.7890  -30.6300 C   0  0  0  0  0  0  0  0  0  0  0  0
   -3.6790   23.7910  -29.4110 C   0  0  0  0  0  0  0  0  0  0  0  0
   -3.9900   24.5980  -28.3590 N   0  0  0  0  0  0  0  0  0  0  0  0
   -3.1830   24.5520  -27.2830 C   0  0  0  0  0  0  0  0  0  0  0  0
   -3.4700   25.3110  -26.2840 N   0  0  0  0  0  0  0  0  0  0  0  0
   -2.1050   23.7500  -27.2280 N   0  0  0  0  0  0  0  0  0  0  0  0
   -1.7660   22.9380  -28.2510 C   0  0  0  0  0  0  0  0  0  0  0  0
   -0.7280   22.1580  -28.2110 N   0  0  0  0  0  0  0  0  0  0  0  0
   -2.5720   22.9560  -29.3730 C   0  0  0  0  0  0  0  0  0  0  0  0
   -2.2180   22.1000  -30.4580 C   0  0  0  0  0  0  0  0  0  0  0  0
   -1.9130   21.3570  -31.3660 C   0  0  0  0  0  0  0  0  0  0  0  0
   -1.5400   20.4650  -32.4210 C   0  0  0  0  0  0  0  0  0  0  0  0
   -0.1940   20.2780  -32.6950 C   0  0  0  0  0  0  0  0  0  0  0  0
    0.2010   19.4230  -33.7030 C   0  0  0  0  0  0  0  0  0  0  0  0
   -0.7630   18.7600  -34.4350 C   0  0  0  0  0  0  0  0  0  0  0  0
   -0.2480   17.6730  -35.7160 Cl  0  0  0  0  0  0  0  0  0  0  0  0
   -2.1000   18.9550  -34.1540 C   0  0  0  0  0  0  0  0  0  0  0  0
   -2.5160   19.8120  -33.1410 C   0  0  0  0  0  0  0  0  0  0  0  0
   -3.9430   19.9780  -32.8960 C   0  0  0  0  0  0  0  0  0  0  0  0
   -4.5840   21.1980  -32.9340 C   0  0  0  0  0  0  0  0  0  0  0  0
   -5.9360   21.3470  -32.6990 C   0  0  0  0  0  0  0  0  0  0  0  0
   -6.6680   20.2290  -32.4160 C   0  0  0  0  0  0  0  0  0  0  0  0
   -8.3750   20.4030  -32.1170 S   0  0  0  0  0  0  0  0  0  0  0  0
   -9.2560   19.6800  -33.4190 N   0  0  0  0  0  0  0  0  0  0  0  0
   -8.7850   19.7540  -30.8470 O   0  0  0  0  0  0  0  0  0  0  0  0
   -8.6660   21.8820  -31.9980 O   0  0  0  0  0  0  0  0  0  0  0  0
   -6.0860   18.9920  -32.3640 C   0  0  0  0  0  0  0  0  0  0  0  0
   -7.0580   17.5670  -31.9970 Cl  0  0  0  0  0  0  0  0  0  0  0  0
   -4.7180   18.8680  -32.6070 C   0  0  0  0  0  0  0  0  0  0  0  0
   -5.5861   23.7865  -30.3399 H   0  0  0  0  0  0  0  0  0  0  0  0
   -4.3102   24.6877  -31.2269 H   0  0  0  0  0  0  0  0  0  0  0  0
   -4.3059   22.8914  -31.2269 H   0  0  0  0  0  0  0  0  0  0  0  0
   -4.8310   25.2140  -28.4220 H   0  0  0  0  0  0  0  0  0  0  0  0
   -4.3150   25.9220  -26.3630 H   0  0  0  0  0  0  0  0  0  0  0  0
   -1.4750   23.7150  -26.3880 H   0  0  0  0  0  0  0  0  0  0  0  0
   -0.5080   21.5480  -29.0280 H   0  0  0  0  0  0  0  0  0  0  0  0
    0.5637   20.8146  -32.1051 H   0  0  0  0  0  0  0  0  0  0  0  0
    1.2687   19.2719  -33.9201 H   0  0  0  0  0  0  0  0  0  0  0  0
   -2.8559   18.4188  -34.7465 H   0  0  0  0  0  0  0  0  0  0  0  0
   -3.9899   22.0951  -33.1624 H   0  0  0  0  0  0  0  0  0  0  0  0
   -6.4107   22.3385  -32.7385 H   0  0  0  0  0  0  0  0  0  0  0  0
   -8.8340   20.0580  -34.3000 H   0  0  0  0  0  0  0  0  0  0  0  0
   -9.0760   18.6550  -33.4490 H   0  0  0  0  0  0  0  0  0  0  0  0
   -4.2484   17.8740  -32.5684 H   0  0  0  0  0  0  0  0  0  0  0  0
  1  2  1  0
  2  3  1  0
  3  4  1  0
  4  5  2  3
  4  6  1  0
  6  7  1  0
  7  8  2  3
  7  9  1  0
  9 10  1  0
 10 11  3  0
 11 12  1  0
 12 13  2  0
 13 14  1  0
 14 15  2  0
 15 16  1  0
 15 17  1  0
 17 18  2  0
 18 19  1  0
 19 20  2  0
 20 21  1  0
 21 22  2  0
 22 23  1  0
 23 24  1  0
 23 25  2  0
 23 26  2  0
 22 27  1  0
 27 28  1  0
 27 29  2  0
  9  2  2  0
 18 12  1  0
 29 19  1  0
  1 30  1  0
  1 31  1  0
  1 32  1  0
  3 33  1  0
  5 34  1  0
  6 35  1  0
  8 36  1  0
 13 37  1  0
 14 38  1  0
 17 39  1  0
 20 40  1  0
 21 41  1  0
 24 42  1  0
 24 43  1  0
 29 44  1  0
M  END
>  <smiles>  (1) 
Cc1[nH]c(=N)[nH]c(=N)c1C#Cc1ccc(Cl)cc1-c1ccc(S(N)(=O)=O)c(Cl)c1

>  <score_type>  (1) 
oracle

>  <origin>  (1) 
adgpu

>  <m_score__min__energy>  (1) 
-9.3399999999999999

>  <m_primary>  (1) 
energy

$$$$
1:0
     RDKit          3D

 72 76  0  0  0  0  0  0  0  0999 V2000
   -3.1840   24.9260  -30.4040 O   0  0  0  0  0  0  0  0  0  0  0  0
   -3.0030   23.7230  -30.0640 C   0  0  0  0  0  0  0  0  0  0  0  0
   -3.9720   22.7420  -30.4340 N   0  0  0  0  0  0  0  0  0  0  0  0
   -3.7850   21.6730  -31.3750 C   0  0  0  0  0  0  0  0  0  0  0  0
   -4.8420   20.7750  -31.5640 C   0  0  0  0  0  0  0  0  0  0  0  0
   -4.7570   19.7560  -32.5230 C   0  0  0  0  0  0  0  0  0  0  0  0
   -6.1170   18.6580  -32.7710 S   0  0  0  0  0  0  0  0  0  0  0  0
   -6.4970   18.6580  -34.2280 O   0  0  0  0  0  0  0  0  0  0  0  0
   -5.6930   17.2650  -32.4020 O   0  0  0  0  0  0  0  0  0  0  0  0
   -7.5110   19.1140  -31.8180 N   0  0  0  0  0  0  0  0  0  0  0  0
   -7.6650   20.5810  -31.7860 C   0  0  0  0  0  0  0  0  0  0  0  0
   -9.1070   20.9680  -31.4200 C   0  0  0  0  0  0  0  0  0  0  0  0
  -10.0790   20.4980  -32.3460 O   0  0  0  0  0  0  0  0  0  0  0  0
   -9.6800   19.3340  -33.0580 C   0  0  0  0  0  0  0  0  0  0  0  0
   -8.7320   18.4120  -32.2670 C   0  0  0  0  0  0  0  0  0  0  0  0
   -3.5810   19.6110  -33.2720 C   0  0  0  0  0  0  0  0  0  0  0  0
   -2.5030   20.4690  -33.0520 C   0  0  0  0  0  0  0  0  0  0  0  0
   -2.5910   21.4940  -32.1070 C   0  0  0  0  0  0  0  0  0  0  0  0
   -1.4850   22.3120  -31.9070 O   0  0  0  0  0  0  0  0  0  0  0  0
   -1.7740   23.3320  -29.3360 C   0  0  0  0  0  0  0  0  0  0  0  0
   -1.4770   21.9650  -29.1690 C   0  0  0  0  0  0  0  0  0  0  0  0
   -0.3720   21.5630  -28.4060 C   0  0  0  0  0  0  0  0  0  0  0  0
   -0.0350   19.8560  -28.1190 S   0  0  0  0  0  0  0  0  0  0  0  0
    1.4520   19.6550  -28.0340 O   0  0  0  0  0  0  0  0  0  0  0  0
   -0.6540   19.4400  -26.8130 O   0  0  0  0  0  0  0  0  0  0  0  0
   -0.6440   18.8480  -29.3960 N   0  0  0  0  0  0  0  0  0  0  0  0
   -0.1690   18.9140  -30.7430 C   0  0  0  0  0  0  0  0  0  0  0  0
   -0.4680   17.8670  -31.6210 C   0  0  0  0  0  0  0  0  0  0  0  0
   -0.0300   17.9070  -32.9450 C   0  0  0  0  0  0  0  0  0  0  0  0
    0.7260   18.9910  -33.4080 C   0  0  0  0  0  0  0  0  0  0  0  0
    1.2500   19.0430  -35.0950 S   0  0  0  0  0  0  0  0  0  0  0  0
    2.5980   18.3860  -35.2030 O   0  0  0  0  0  0  0  0  0  0  0  0
    0.2840   18.2590  -35.9420 O   0  0  0  0  0  0  0  0  0  0  0  0
    1.3630   20.6790  -35.7000 N   0  0  0  0  0  0  0  0  0  0  0  0
    2.4690   21.3960  -35.0490 C   0  0  0  0  0  0  0  0  0  0  0  0
    2.5700   22.8330  -35.6010 C   0  0  0  0  0  0  0  0  0  0  0  0
    1.4690   23.1730  -36.4260 O   0  0  0  0  0  0  0  0  0  0  0  0
    0.2600   22.9060  -35.7410 C   0  0  0  0  0  0  0  0  0  0  0  0
    0.0950   21.3920  -35.4820 C   0  0  0  0  0  0  0  0  0  0  0  0
    1.0360   20.0400  -32.5280 C   0  0  0  0  0  0  0  0  0  0  0  0
    0.5890   20.0040  -31.2010 C   0  0  0  0  0  0  0  0  0  0  0  0
    0.4590   22.5300  -27.8270 C   0  0  0  0  0  0  0  0  0  0  0  0
    0.1970   23.8870  -28.0140 C   0  0  0  0  0  0  0  0  0  0  0  0
   -0.9030   24.3000  -28.7720 C   0  0  0  0  0  0  0  0  0  0  0  0
   -1.0810   25.6730  -28.9690 O   0  0  0  0  0  0  0  0  0  0  0  0
   -5.7511   20.8701  -30.9521 H   0  0  0  0  0  0  0  0  0  0  0  0
   -6.9774   21.0000  -31.0366 H   0  0  0  0  0  0  0  0  0  0  0  0
   -7.4333   20.9828  -32.7834 H   0  0  0  0  0  0  0  0  0  0  0  0
   -9.3386   20.5474  -30.4303 H   0  0  0  0  0  0  0  0  0  0  0  0
   -9.1572   22.0668  -31.4321 H   0  0  0  0  0  0  0  0  0  0  0  0
  -10.5822   18.7613  -33.3187 H   0  0  0  0  0  0  0  0  0  0  0  0
   -9.1260   19.6764  -33.9445 H   0  0  0  0  0  0  0  0  0  0  0  0
   -9.2653   18.0302  -31.3839 H   0  0  0  0  0  0  0  0  0  0  0  0
   -8.4234   17.5943  -32.9350 H   0  0  0  0  0  0  0  0  0  0  0  0
   -3.5081   18.8205  -34.0334 H   0  0  0  0  0  0  0  0  0  0  0  0
   -1.5752   20.3371  -33.6280 H   0  0  0  0  0  0  0  0  0  0  0  0
   -2.1180   21.2063  -29.6416 H   0  0  0  0  0  0  0  0  0  0  0  0
   -1.0527   17.0059  -31.2650 H   0  0  0  0  0  0  0  0  0  0  0  0
   -0.2799   17.0825  -33.6290 H   0  0  0  0  0  0  0  0  0  0  0  0
    2.2884   21.4351  -33.9646 H   0  0  0  0  0  0  0  0  0  0  0  0
    3.4107   20.8656  -35.2539 H   0  0  0  0  0  0  0  0  0  0  0  0
    2.6074   23.5348  -34.7548 H   0  0  0  0  0  0  0  0  0  0  0  0
    3.4807   22.8934  -36.2150 H   0  0  0  0  0  0  0  0  0  0  0  0
    0.2670   23.4373  -34.7779 H   0  0  0  0  0  0  0  0  0  0  0  0
   -0.5794   23.2493  -36.3635 H   0  0  0  0  0  0  0  0  0  0  0  0
   -0.2302   21.2382  -34.4425 H   0  0  0  0  0  0  0  0  0  0  0  0
   -0.6548   20.9961  -36.1827 H   0  0  0  0  0  0  0  0  0  0  0  0
    1.6324   20.8938  -32.8821 H   0  0  0  0  0  0  0  0  0  0  0  0
    0.8319   20.8304  -30.5168 H   0  0  0  0  0  0  0  0  0  0  0  0
    1.3227   22.2178  -27.2217 H   0  0  0  0  0  0  0  0  0  0  0  0
    0.8610   24.6383  -27.5616 H   0  0  0  0  0  0  0  0  0  0  0  0
   -1.6050   26.0590  -29.7420 H   0  0  0  0  0  0  0  0  0  0  0  0
  1  2  2  0
  2  3  1  0
  3  4  1  0
  4  5  2  0
  5  6  1  0
  6  7  1  0
  7  8  2  0
  7  9  2  0
  7 10  1  0
 10 11  1  0
 11 12  1  0
 12 13  1  0
 13 14  1  0
 14 15  1  0
  6 16  2  0
 16 17  1  0
 17 18  2  0
 18 19  1  0
  2 20  1  0
 20 21  2  0
 21 22  1  0
 22 23  1  0
 23 24  2  0
 23 25  2  0
 23 26  1  0
 26 27  1  0
 27 28  2  0
 28 29  1  0
 29 30  2  0
 30 31  1  0
 31 32  2  0
 31 33  2  0
 31 34  1  0
 34 35  1  0
 35 36  1  0
 36 37  1  0
 37 38  1  0
 38 39  1  0
 30 40  1  0
 40 41  2  0
 22 42  2  0
 42 43  1  0
 43 44  2  0
 44 45  1  0
 18  4  1  0
 44 20  1  0
 15 10  1  0
 41 27  1  0
 39 34  1  0
  5 46  1  0
 11 47  1  0
 11 48  1  0
 12 49  1  0
 12 50  1  0
 14 51  1  0
 14 52  1  0
 15 53  1  0
 15 54  1  0
 16 55  1  0
 17 56  1  0
 21 57  1  0
 28 58  1  0
 29 59  1  0
 35 60  1  0
 35 61  1  0
 36 62  1  0
 36 63  1  0
 38 64  1  0
 38 65  1  0
 39 66  1  0
 39 67  1  0
 40 68  1  0
 41 69  1  0
 42 70  1  0
 43 71  1  0
 45 72  1  0
M  CHG  3   3  -1  19  -1  26  -1
M  END
>  <UniqueID>  (2) 
1

>  <SMILES>  (2) 
O=C([N-]c1cc(S(=O)(=O)N2CCOCC2)ccc1[O-])c1cc(S(=O)(=O)[N-]c2ccc(S(=O)(=O)N3CCOCC3)cc2)ccc1O

>  <Energy>  (2) 
112.42525195928658

>  <Genealogy>  (2) 
O=C([N-]c1cc(S(=O)(=O)N2CCOCC2)ccc1[O-])c1cc(S(=O)(=O)[N-]c2ccc(S(=O)(=O)N3CCOCC3)cc2)ccc1O (protonated)
O=C([N-]c1cc(S(=O)(=O)N2CCOCC2)ccc1[O-])c1cc(S(=O)(=O)[N-]c2ccc(S(=O)(=O)N3CCOCC3)cc2)ccc1O (3D coordinates assigned)
O=C([N-]c1cc(S(=O)(=O)N2CCOCC2)ccc1[O-])c1cc(S(=O)(=O)[N-]c2ccc(S(=O)(=O)N3CCOCC3)cc2)ccc1O (nonaromatic ring conformer: 112.42525195928658 kcal/mol)

>  <smiles>  (2) 
O=C(Nc1cc(S(=O)(=O)N2CCOCC2)ccc1O)c1cc(S(=O)(=O)Nc2ccc(S(=O)(=O)N3CCOCC3)cc2)ccc1O

>  <score_type>  (2) 
oracle

>  <origin>  (2) 
adgpu

>  <m_score__min__energy>  (2) 
-15.640000000000001

>  <m_primary>  (2) 
energy

$$$$
2:0
     RDKit          3D

 57 60  0  0  0  0  0  0  0  0999 V2000
   -5.6040   18.9060  -33.4980 O   0  0  0  0  0  0  0  0  0  0  0  0
   -4.9140   19.9520  -33.3490 C   0  0  0  0  0  0  0  0  0  0  0  0
   -5.5710   21.1920  -33.0470 N   0  0  0  0  0  0  0  0  0  0  0  0
   -6.8670   21.2490  -32.4330 C   0  0  0  0  0  0  0  0  0  0  0  0
   -7.8960   20.4420  -32.9410 C   0  0  0  0  0  0  0  0  0  0  0  0
   -9.1580   20.4410  -32.3410 C   0  0  0  0  0  0  0  0  0  0  0  0
   -9.4080   21.2570  -31.2370 C   0  0  0  0  0  0  0  0  0  0  0  0
   -8.4020   22.0890  -30.7390 C   0  0  0  0  0  0  0  0  0  0  0  0
   -7.1320   22.1050  -31.3370 C   0  0  0  0  0  0  0  0  0  0  0  0
   -6.1390   23.0290  -30.8610 N   0  0  0  0  0  0  0  0  0  0  0  0
   -4.8130   22.5250  -30.4790 C   0  0  0  0  0  0  0  0  0  0  0  0
   -3.7330   23.6300  -30.5340 C   0  0  0  0  0  0  0  0  0  0  0  0
   -4.2330   24.8750  -30.9870 O   0  0  0  0  0  0  0  0  0  0  0  0
   -5.3300   25.2600  -30.1870 C   0  0  0  0  0  0  0  0  0  0  0  0
   -6.5460   24.4000  -30.5320 C   0  0  0  0  0  0  0  0  0  0  0  0
   -3.4420   19.8860  -33.5070 C   0  0  0  0  0  0  0  0  0  0  0  0
   -2.6180   20.9260  -33.0390 C   0  0  0  0  0  0  0  0  0  0  0  0
   -1.2290   20.8470  -33.1780 C   0  0  0  0  0  0  0  0  0  0  0  0
   -0.6430   19.7290  -33.7840 C   0  0  0  0  0  0  0  0  0  0  0  0
    1.1040   19.6250  -33.9910 S   0  0  0  0  0  0  0  0  0  0  0  0
    1.8040   20.1320  -32.7600 O   0  0  0  0  0  0  0  0  0  0  0  0
    1.4770   18.1830  -34.1990 O   0  0  0  0  0  0  0  0  0  0  0  0
    1.5840   20.5710  -35.3790 N   0  0  0  0  0  0  0  0  0  0  0  0
    0.4050   21.1840  -36.0440 C   0  0  0  0  0  0  0  0  0  0  0  0
    0.2650   22.6870  -35.7590 C   0  0  0  0  0  0  0  0  0  0  0  0
    1.5230   23.4560  -36.1970 C   0  0  0  0  0  0  0  0  0  0  0  0
    2.8120   22.6290  -36.0400 C   0  0  0  0  0  0  0  0  0  0  0  0
    2.6390   21.5300  -34.9860 C   0  0  0  0  0  0  0  0  0  0  0  0
   -1.4560   18.6880  -34.2470 C   0  0  0  0  0  0  0  0  0  0  0  0
   -2.8440   18.7620  -34.1060 C   0  0  0  0  0  0  0  0  0  0  0  0
   -5.1700   22.0740  -33.4370 H   0  0  0  0  0  0  0  0  0  0  0  0
   -7.7080   19.8053  -33.8181 H   0  0  0  0  0  0  0  0  0  0  0  0
   -9.9552   19.7963  -32.7394 H   0  0  0  0  0  0  0  0  0  0  0  0
  -10.3983   21.2452  -30.7582 H   0  0  0  0  0  0  0  0  0  0  0  0
   -8.6064   22.7356  -29.8729 H   0  0  0  0  0  0  0  0  0  0  0  0
   -4.8653   22.1308  -29.4534 H   0  0  0  0  0  0  0  0  0  0  0  0
   -4.5302   21.7389  -31.1947 H   0  0  0  0  0  0  0  0  0  0  0  0
   -3.3196   23.7657  -29.5237 H   0  0  0  0  0  0  0  0  0  0  0  0
   -2.9670   23.3037  -31.2528 H   0  0  0  0  0  0  0  0  0  0  0  0
   -5.0746   25.1232  -29.1258 H   0  0  0  0  0  0  0  0  0  0  0  0
   -5.5660   26.3175  -30.3767 H   0  0  0  0  0  0  0  0  0  0  0  0
   -7.2275   24.3764  -29.6689 H   0  0  0  0  0  0  0  0  0  0  0  0
   -7.0501   24.8373  -31.4064 H   0  0  0  0  0  0  0  0  0  0  0  0
   -3.0697   21.8074  -32.5604 H   0  0  0  0  0  0  0  0  0  0  0  0
   -0.5941   21.6664  -32.8098 H   0  0  0  0  0  0  0  0  0  0  0  0
    0.5026   21.0415  -37.1303 H   0  0  0  0  0  0  0  0  0  0  0  0
   -0.4916   20.6895  -35.6421 H   0  0  0  0  0  0  0  0  0  0  0  0
   -0.6038   23.0771  -36.3095 H   0  0  0  0  0  0  0  0  0  0  0  0
    0.1320   22.8251  -34.6758 H   0  0  0  0  0  0  0  0  0  0  0  0
    1.4125   23.7375  -37.2546 H   0  0  0  0  0  0  0  0  0  0  0  0
    1.6146   24.3390  -35.5474 H   0  0  0  0  0  0  0  0  0  0  0  0
    3.0604   22.1644  -37.0057 H   0  0  0  0  0  0  0  0  0  0  0  0
    3.6199   23.3007  -35.7142 H   0  0  0  0  0  0  0  0  0  0  0  0
    3.5903   20.9896  -34.8721 H   0  0  0  0  0  0  0  0  0  0  0  0
    2.3439   22.0018  -34.0371 H   0  0  0  0  0  0  0  0  0  0  0  0
   -1.0002   17.8078  -34.7239 H   0  0  0  0  0  0  0  0  0  0  0  0
   -3.4741   17.9353  -34.4660 H   0  0  0  0  0  0  0  0  0  0  0  0
  1  2  2  0
  2  3  1  0
  3  4  1  0
  4  5  2  0
  5  6  1  0
  6  7  2  0
  7  8  1  0
  8  9  2  0
  9 10  1  0
 10 11  1  0
 11 12  1  0
 12 13  1  0
 13 14  1  0
 14 15  1  0
  2 16  1  0
 16 17  2  0
 17 18  1  0
 18 19  2  0
 19 20  1  0
 20 21  2  0
 20 22  2  0
 20 23  1  0
 23 24  1  0
 24 25  1  0
 25 26  1  0
 26 27  1  0
 27 28  1  0
 19 29  1  0
 29 30  2  0
  9  4  1  0
 15 10  1  0
 30 16  1  0
 28 23  1  0
  3 31  1  0
  5 32  1  0
  6 33  1  0
  7 34  1  0
  8 35  1  0
 11 36  1  0
 11 37  1  0
 12 38  1  0
 12 39  1  0
 14 40  1  0
 14 41  1  0
 15 42  1  0
 15 43  1  0
 17 44  1  0
 18 45  1  0
 24 46  1  0
 24 47  1  0
 25 48  1  0
 25 49  1  0
 26 50  1  0
 26 51  1  0
 27 52  1  0
 27 53  1  0
 28 54  1  0
 28 55  1  0
 29 56  1  0
 30 57  1  0
M  END
>  <UniqueID>  (3) 
2

>  <SMILES>  (3) 
O=C(Nc1ccccc1N1CCOCC1)c1ccc(S(=O)(=O)N2CCCCC2)cc1

>  <Energy>  (3) 
80.09001469354239

>  <Genealogy>  (3) 
O=C(Nc1ccccc1N1CCOCC1)c1ccc(S(=O)(=O)N2CCCCC2)cc1 (3D coordinates assigned)
O=C(Nc1ccccc1N1CCOCC1)c1ccc(S(=O)(=O)N2CCCCC2)cc1 (nonaromatic ring conformer: 80.09001469354239 kcal/mol)

>  <smiles>  (3) 
O=C(Nc1ccccc1N1CCOCC1)c1ccc(S(=O)(=O)N2CCCCC2)cc1

>  <score_type>  (3) 
oracle

>  <origin>  (3) 
adgpu

>  <m_score__min__energy>  (3) 
-9.5

>  <m_primary>  (3) 
energy

$$$$
3:0
     RDKit          3D

 50 52  0  0  0  0  0  0  0  0999 V2000
   -6.1130   25.6860  -29.6150 C   0  0  0  0  0  0  0  0  0  0  0  0
   -5.1380   24.8990  -30.4380 C   0  0  0  0  0  0  0  0  0  0  0  0
   -3.9640   25.3450  -30.5630 O   0  0  0  0  0  0  0  0  0  0  0  0
   -5.5170   23.6220  -31.1010 C   0  0  0  0  0  0  0  0  0  0  0  0
   -6.7040   22.9500  -30.7690 C   0  0  0  0  0  0  0  0  0  0  0  0
   -7.0430   21.7460  -31.3930 C   0  0  0  0  0  0  0  0  0  0  0  0
   -6.2030   21.1630  -32.3700 C   0  0  0  0  0  0  0  0  0  0  0  0
   -6.5310   19.8780  -32.9880 N   0  0  0  0  0  0  0  0  0  0  0  0
   -5.8470   19.4940  -34.2400 C   0  0  0  0  0  0  0  0  0  0  0  0
   -6.1150   18.0670  -34.7360 C   0  0  0  0  0  0  0  0  0  0  0  0
   -6.4950   17.1360  -33.6740 N   0  0  0  0  0  0  0  0  0  0  0  0
   -5.1750   16.5610  -32.6710 S   0  0  0  0  0  0  0  0  0  0  0  0
   -5.2560   15.0640  -32.5670 O   0  0  0  0  0  0  0  0  0  0  0  0
   -5.3580   17.1080  -31.2830 O   0  0  0  0  0  0  0  0  0  0  0  0
   -3.5610   17.0150  -33.2470 C   0  0  0  0  0  0  0  0  0  0  0  0
   -2.7620   16.3190  -34.1520 C   0  0  0  0  0  0  0  0  0  0  0  0
   -3.1250   15.0890  -34.9210 C   0  0  0  0  0  0  0  0  0  0  0  0
   -1.6390   17.0210  -34.3950 N   0  0  0  0  0  0  0  0  0  0  0  0
   -1.6930   18.1320  -33.6790 N   0  0  0  0  0  0  0  0  0  0  0  0
   -0.6550   19.1570  -33.7140 C   0  0  0  0  0  0  0  0  0  0  0  0
   -2.8500   18.1810  -32.9850 C   0  0  0  0  0  0  0  0  0  0  0  0
   -3.3410   19.4040  -32.2650 C   0  0  0  0  0  0  0  0  0  0  0  0
   -7.6740   17.6020  -32.9440 C   0  0  0  0  0  0  0  0  0  0  0  0
   -7.4960   18.9870  -32.3110 C   0  0  0  0  0  0  0  0  0  0  0  0
   -5.0230   21.8650  -32.7120 C   0  0  0  0  0  0  0  0  0  0  0  0
   -4.6860   23.0670  -32.0850 C   0  0  0  0  0  0  0  0  0  0  0  0
   -5.9084   25.5209  -28.5469 H   0  0  0  0  0  0  0  0  0  0  0  0
   -6.0089   26.7562  -29.8471 H   0  0  0  0  0  0  0  0  0  0  0  0
   -7.1371   25.3584  -29.8471 H   0  0  0  0  0  0  0  0  0  0  0  0
   -7.3753   23.3760  -30.0088 H   0  0  0  0  0  0  0  0  0  0  0  0
   -7.9816   21.2421  -31.1187 H   0  0  0  0  0  0  0  0  0  0  0  0
   -6.1684   20.1912  -35.0278 H   0  0  0  0  0  0  0  0  0  0  0  0
   -4.7705   19.5361  -34.0177 H   0  0  0  0  0  0  0  0  0  0  0  0
   -6.9301   18.1033  -35.4738 H   0  0  0  0  0  0  0  0  0  0  0  0
   -5.1739   17.6951  -35.1674 H   0  0  0  0  0  0  0  0  0  0  0  0
   -3.3650   14.2759  -34.2201 H   0  0  0  0  0  0  0  0  0  0  0  0
   -3.9999   15.2974  -35.5543 H   0  0  0  0  0  0  0  0  0  0  0  0
   -2.2771   14.7889  -35.5543 H   0  0  0  0  0  0  0  0  0  0  0  0
   -0.3765   19.4320  -32.6860 H   0  0  0  0  0  0  0  0  0  0  0  0
    0.2280   18.7667  -34.2412 H   0  0  0  0  0  0  0  0  0  0  0  0
   -1.0341   20.0449  -34.2412 H   0  0  0  0  0  0  0  0  0  0  0  0
   -3.2756   19.2412  -31.1791 H   0  0  0  0  0  0  0  0  0  0  0  0
   -2.7200   20.2679  -32.5443 H   0  0  0  0  0  0  0  0  0  0  0  0
   -4.3870   19.5987  -32.5443 H   0  0  0  0  0  0  0  0  0  0  0  0
   -8.5215   17.6458  -33.6438 H   0  0  0  0  0  0  0  0  0  0  0  0
   -7.8464   16.8914  -32.1222 H   0  0  0  0  0  0  0  0  0  0  0  0
   -8.4757   19.4873  -32.3099 H   0  0  0  0  0  0  0  0  0  0  0  0
   -7.0873   18.8085  -31.3055 H   0  0  0  0  0  0  0  0  0  0  0  0
   -4.3579   21.4562  -33.4869 H   0  0  0  0  0  0  0  0  0  0  0  0
   -3.7572   23.5847  -32.3666 H   0  0  0  0  0  0  0  0  0  0  0  0
  1  2  1  0
  2  3  2  0
  2  4  1  0
  4  5  2  0
  5  6  1  0
  6  7  2  0
  7  8  1  0
  8  9  1  0
  9 10  1  0
 10 11  1  0
 11 12  1  0
 12 13  2  0
 12 14  2  0
 12 15  1  0
 15 16  1  0
 16 17  1  0
 16 18  2  0
 18 19  1  0
 19 20  1  0
 19 21  1  0
 21 22  1  0
 11 23  1  0
 23 24  1  0
  7 25  1  0
 25 26  2  0
 26  4  1  0
 24  8  1  0
 21 15  2  0
  1 27  1  0
  1 28  1  0
  1 29  1  0
  5 30  1  0
  6 31  1  0
  9 32  1  0
  9 33  1  0
 10 34  1  0
 10 35  1  0
 17 36  1  0
 17 37  1  0
 17 38  1  0
 20 39  1  0
 20 40  1  0
 20 41  1  0
 22 42  1  0
 22 43  1  0
 22 44  1  0
 23 45  1  0
 23 46  1  0
 24 47  1  0
 24 48  1  0
 25 49  1  0
 26 50  1  0
M  END
>  <UniqueID>  (4) 
3

>  <SMILES>  (4) 
CC(=O)c1ccc(N2CCN(S(=O)(=O)c3c(C)nn(C)c3C)CC2)cc1

>  <Energy>  (4) 
91.72219172179899

>  <Genealogy>  (4) 
CC(=O)c1ccc(N2CCN(S(=O)(=O)c3c(C)nn(C)c3C)CC2)cc1 (3D coordinates assigned)
CC(=O)c1ccc(N2CCN(S(=O)(=O)c3c(C)nn(C)c3C)CC2)cc1 (nonaromatic ring conformer: 91.72219172179899 kcal/mol)

>  <smiles>  (4) 
CC(=O)c1ccc(N2CCN(S(=O)(=O)c3c(C)nn(C)c3C)CC2)cc1

>  <score_type>  (4) 
oracle

>  <origin>  (4) 
adgpu

>  <m_score__min__energy>  (4) 
-8.7300000000000004

>  <m_primary>  (4) 
energy

$$$$
4:0
     RDKit          3D

 46 48  0  0  0  0  0  0  0  0999 V2000
   -4.9670   25.1300  -31.2110 O   0  0  0  0  0  0  0  0  0  0  0  0
   -5.7110   24.3170  -30.5970 C   0  0  0  0  0  0  0  0  0  0  0  0
   -7.0470   24.0820  -31.0540 N   0  0  0  0  0  0  0  0  0  0  0  0
   -7.3660   23.4440  -32.3260 C   0  0  0  0  0  0  0  0  0  0  0  0
   -7.5880   21.9680  -32.1300 C   0  0  0  0  0  0  0  0  0  0  0  0
   -8.8860   21.4560  -31.9590 C   0  0  0  0  0  0  0  0  0  0  0  0
   -9.0840   20.0810  -31.7970 C   0  0  0  0  0  0  0  0  0  0  0  0
   -7.9920   19.2090  -31.8120 C   0  0  0  0  0  0  0  0  0  0  0  0
   -6.6990   19.7110  -31.9880 C   0  0  0  0  0  0  0  0  0  0  0  0
   -6.4970   21.0840  -32.1490 C   0  0  0  0  0  0  0  0  0  0  0  0
   -5.2210   23.5910  -29.4620 N   0  0  0  0  0  0  0  0  0  0  0  0
   -3.9670   23.8570  -28.8100 C   0  0  0  0  0  0  0  0  0  0  0  0
   -2.7740   23.7290  -29.5360 C   0  0  0  0  0  0  0  0  0  0  0  0
   -1.5410   23.9650  -28.9220 C   0  0  0  0  0  0  0  0  0  0  0  0
   -1.4830   24.3220  -27.5690 C   0  0  0  0  0  0  0  0  0  0  0  0
    0.0750   24.6290  -26.7970 S   0  0  0  0  0  0  0  0  0  0  0  0
    0.5120   23.3970  -26.0560 O   0  0  0  0  0  0  0  0  0  0  0  0
    1.1000   24.9220  -27.8580 O   0  0  0  0  0  0  0  0  0  0  0  0
   -0.0050   25.9750  -25.6870 N   0  0  0  0  0  0  0  0  0  0  0  0
   -0.5370   25.5390  -24.3850 C   0  0  0  0  0  0  0  0  0  0  0  0
   -0.8220   26.7540  -23.4790 C   0  0  0  0  0  0  0  0  0  0  0  0
   -0.2600   27.9350  -24.0170 O   0  0  0  0  0  0  0  0  0  0  0  0
   -0.8800   28.2410  -25.2550 C   0  0  0  0  0  0  0  0  0  0  0  0
   -0.8360   27.0530  -26.2400 C   0  0  0  0  0  0  0  0  0  0  0  0
   -2.6700   24.4250  -26.8320 C   0  0  0  0  0  0  0  0  0  0  0  0
   -3.9040   24.1900  -27.4450 C   0  0  0  0  0  0  0  0  0  0  0  0
   -8.2793   23.8964  -32.7397 H   0  0  0  0  0  0  0  0  0  0  0  0
   -6.5251   23.5899  -33.0199 H   0  0  0  0  0  0  0  0  0  0  0  0
   -9.7484   22.1388  -31.9526 H   0  0  0  0  0  0  0  0  0  0  0  0
  -10.1008   19.6853  -31.6576 H   0  0  0  0  0  0  0  0  0  0  0  0
   -8.1497   18.1278  -31.6853 H   0  0  0  0  0  0  0  0  0  0  0  0
   -5.8399   19.0242  -31.9997 H   0  0  0  0  0  0  0  0  0  0  0  0
   -5.4785   21.4745  -32.2913 H   0  0  0  0  0  0  0  0  0  0  0  0
   -5.7720   22.7590  -29.1510 H   0  0  0  0  0  0  0  0  0  0  0  0
   -2.8090   23.4406  -30.5969 H   0  0  0  0  0  0  0  0  0  0  0  0
   -0.6123   23.8700  -29.5037 H   0  0  0  0  0  0  0  0  0  0  0  0
   -1.4712   24.9808  -24.5451 H   0  0  0  0  0  0  0  0  0  0  0  0
    0.2104   24.8986  -23.8937 H   0  0  0  0  0  0  0  0  0  0  0  0
   -1.9102   26.8846  -23.3854 H   0  0  0  0  0  0  0  0  0  0  0  0
   -0.3680   26.5689  -22.4943 H   0  0  0  0  0  0  0  0  0  0  0  0
   -1.9308   28.5074  -25.0684 H   0  0  0  0  0  0  0  0  0  0  0  0
   -0.3291   29.0772  -25.7104 H   0  0  0  0  0  0  0  0  0  0  0  0
   -1.8569   26.6783  -26.4052 H   0  0  0  0  0  0  0  0  0  0  0  0
   -0.4044   27.3896  -27.1941 H   0  0  0  0  0  0  0  0  0  0  0  0
   -2.6307   24.6921  -25.7657 H   0  0  0  0  0  0  0  0  0  0  0  0
   -4.8305   24.2659  -26.8569 H   0  0  0  0  0  0  0  0  0  0  0  0
  1  2  2  0
  2  3  1  0
  3  4  1  0
  4  5  1  0
  5  6  2  0
  6  7  1  0
  7  8  2  0
  8  9  1  0
  9 10  2  0
  2 11  1  0
 11 12  1  0
 12 13  2  0
 13 14  1  0
 14 15  2  0
 15 16  1  0
 16 17  2  0
 16 18  2  0
 16 19  1  0
 19 20  1  0
 20 21  1  0
 21 22  1  0
 22 23  1  0
 23 24  1  0
 15 25  1  0
 25 26  2  0
 10  5  1  0
 26 12  1  0
 24 19  1  0
  4 27  1  0
  4 28  1  0
  6 29  1  0
  7 30  1  0
  8 31  1  0
  9 32  1  0
 10 33  1  0
 11 34  1  0
 13 35  1  0
 14 36  1  0
 20 37  1  0
 20 38  1  0
 21 39  1  0
 21 40  1  0
 23 41  1  0
 23 42  1  0
 24 43  1  0
 24 44  1  0
 25 45  1  0
 26 46  1  0
M  CHG  1   3  -1
M  END
>  <UniqueID>  (5) 
4

>  <SMILES>  (5) 
O=C([N-]Cc1ccccc1)Nc1ccc(S(=O)(=O)N2CCOCC2)cc1

>  <Energy>  (5) 
55.10586857651991

>  <Genealogy>  (5) 
O=C([N-]Cc1ccccc1)Nc1ccc(S(=O)(=O)N2CCOCC2)cc1 (protonated)
O=C([N-]Cc1ccccc1)Nc1ccc(S(=O)(=O)N2CCOCC2)cc1 (3D coordinates assigned)
O=C([N-]Cc1ccccc1)Nc1ccc(S(=O)(=O)N2CCOCC2)cc1 (nonaromatic ring conformer: 55.10586857651991 kcal/mol)

>  <smiles>  (5) 
O=C(NCc1ccccc1)Nc1ccc(S(=O)(=O)N2CCOCC2)cc1

>  <score_type>  (5) 
oracle

>  <origin>  (5) 
adgpu

>  <m_score__min__energy>  (5) 
-10.710000000000001

>  <m_primary>  (5) 
energy

$$$$
5:0
     RDKit          3D

 32 33  0  0  0  0  0  0  0  0999 V2000
   -1.5980   25.6670  -29.3130 N   0  0  0  0  0  0  0  0  0  0  0  0
   -0.9820   25.0050  -27.8390 S   0  0  0  0  0  0  0  0  0  0  0  0
    0.5160   25.1100  -27.8470 O   0  0  0  0  0  0  0  0  0  0  0  0
   -1.5360   25.7950  -26.6880 O   0  0  0  0  0  0  0  0  0  0  0  0
   -1.4480   23.3070  -27.6700 C   0  0  0  0  0  0  0  0  0  0  0  0
   -1.0080   22.5710  -26.5580 C   0  0  0  0  0  0  0  0  0  0  0  0
   -1.3620   21.2290  -26.4140 C   0  0  0  0  0  0  0  0  0  0  0  0
   -2.1610   20.6100  -27.3750 C   0  0  0  0  0  0  0  0  0  0  0  0
   -2.6110   21.3320  -28.4830 C   0  0  0  0  0  0  0  0  0  0  0  0
   -2.2620   22.6880  -28.6410 C   0  0  0  0  0  0  0  0  0  0  0  0
   -2.7160   23.4510  -29.7700 N   0  0  0  0  0  0  0  0  0  0  0  0
   -4.2320   24.2860  -29.8780 S   0  0  0  0  0  0  0  0  0  0  0  0
   -4.5780   24.8270  -28.5180 O   0  0  0  0  0  0  0  0  0  0  0  0
   -4.0830   25.4290  -30.8420 O   0  0  0  0  0  0  0  0  0  0  0  0
   -5.4980   23.1970  -30.4660 C   0  0  0  0  0  0  0  0  0  0  0  0
   -6.8280   23.4530  -30.0950 C   0  0  0  0  0  0  0  0  0  0  0  0
   -7.8710   22.6790  -30.6060 C   0  0  0  0  0  0  0  0  0  0  0  0
   -7.5990   21.6390  -31.4930 C   0  0  0  0  0  0  0  0  0  0  0  0
   -6.2820   21.3590  -31.8590 C   0  0  0  0  0  0  0  0  0  0  0  0
   -5.2160   22.1160  -31.3400 C   0  0  0  0  0  0  0  0  0  0  0  0
   -3.8700   21.7640  -31.6970 N   0  0  0  0  0  0  0  0  0  0  0  0
   -3.3530   20.7240  -31.2400 O   0  0  0  0  0  0  0  0  0  0  0  0
   -3.0670   22.6740  -32.3450 O   0  0  0  0  0  0  0  0  0  0  0  0
   -2.6400   25.6440  -29.2480 H   0  0  0  0  0  0  0  0  0  0  0  0
   -0.3803   23.0555  -25.7956 H   0  0  0  0  0  0  0  0  0  0  0  0
   -1.0105   20.6587  -25.5416 H   0  0  0  0  0  0  0  0  0  0  0  0
   -2.4373   19.5515  -27.2603 H   0  0  0  0  0  0  0  0  0  0  0  0
   -3.2419   20.8387  -29.2371 H   0  0  0  0  0  0  0  0  0  0  0  0
   -7.0500   24.2717  -29.3947 H   0  0  0  0  0  0  0  0  0  0  0  0
   -8.9087   22.8901  -30.3084 H   0  0  0  0  0  0  0  0  0  0  0  0
   -8.4233   21.0383  -31.9049 H   0  0  0  0  0  0  0  0  0  0  0  0
   -6.0751   20.5376  -32.5608 H   0  0  0  0  0  0  0  0  0  0  0  0
  1  2  1  0
  2  3  2  0
  2  4  2  0
  2  5  1  0
  5  6  2  0
  6  7  1  0
  7  8  2  0
  8  9  1  0
  9 10  2  0
 10 11  1  0
 11 12  1  0
 12 13  2  0
 12 14  2  0
 12 15  1  0
 15 16  2  0
 16 17  1  0
 17 18  2  0
 18 19  1  0
 19 20  2  0
 20 21  1  0
 21 22  2  0
 21 23  1  0
 10  5  1  0
 20 15  1  0
  1 24  1  0
  6 25  1  0
  7 26  1  0
  8 27  1  0
  9 28  1  0
 16 29  1  0
 17 30  1  0
 18 31  1  0
 19 32  1  0
M  CHG  4   1  -1  11  -1  21   1  23  -1
M  END
>  <UniqueID>  (6) 
5

>  <SMILES>  (6) 
[NH-]S(=O)(=O)c1ccccc1[N-]S(=O)(=O)c1ccccc1[N+](=O)[O-]

>  <Energy>  (6) 
43.04063905423145

>  <Genealogy>  (6) 
[NH-]S(=O)(=O)c1ccccc1[N-]S(=O)(=O)c1ccccc1[N+](=O)[O-] (protonated)
[NH-]S(=O)(=O)c1ccccc1[N-]S(=O)(=O)c1ccccc1[N+](=O)[O-] (3D coordinates assigned)
[NH-]S(=O)(=O)c1ccccc1[N-]S(=O)(=O)c1ccccc1[N+](=O)[O-] (optimized conformer: 43.04063905423145 kcal/mol)

>  <smiles>  (6) 
NS(=O)(=O)c1ccccc1NS(=O)(=O)c1ccccc1[N+](=O)[O-]

>  <score_type>  (6) 
oracle

>  <origin>  (6) 
adgpu

>  <m_score__min__energy>  (6) 
-11.300000000000001

>  <m_primary>  (6) 
energy

$$$$
6:0
     RDKit          3D

 49 51  0  0  0  0  0  0  0  0999 V2000
    1.4740   22.7320  -34.9770 O   0  0  0  0  0  0  0  0  0  0  0  0
    0.8910   21.7190  -35.4440 C   0  0  0  0  0  0  0  0  0  0  0  0
    1.5690   20.8990  -36.3390 O   0  0  0  0  0  0  0  0  0  0  0  0
   -0.4660   21.3860  -34.9730 C   0  0  0  0  0  0  0  0  0  0  0  0
   -0.7630   20.8150  -33.7960 C   0  0  0  0  0  0  0  0  0  0  0  0
    0.2170   20.2440  -32.8500 C   0  0  0  0  0  0  0  0  0  0  0  0
    1.4880   19.8230  -33.2800 C   0  0  0  0  0  0  0  0  0  0  0  0
    2.3800   19.2380  -32.3770 C   0  0  0  0  0  0  0  0  0  0  0  0
    2.0030   19.0430  -31.0460 C   0  0  0  0  0  0  0  0  0  0  0  0
    0.7250   19.4220  -30.6150 C   0  0  0  0  0  0  0  0  0  0  0  0
    0.2280   19.1380  -28.9480 S   0  0  0  0  0  0  0  0  0  0  0  0
   -0.1120   17.6890  -28.7370 O   0  0  0  0  0  0  0  0  0  0  0  0
    1.3570   19.5190  -28.0330 O   0  0  0  0  0  0  0  0  0  0  0  0
   -1.1610   20.1050  -28.5720 N   0  0  0  0  0  0  0  0  0  0  0  0
   -1.2550   21.5230  -28.7660 C   0  0  0  0  0  0  0  0  0  0  0  0
   -0.2160   22.3980  -28.4040 C   0  0  0  0  0  0  0  0  0  0  0  0
   -0.3570   23.7730  -28.5990 C   0  0  0  0  0  0  0  0  0  0  0  0
   -1.5300   24.2930  -29.1540 C   0  0  0  0  0  0  0  0  0  0  0  0
   -1.6360   25.6680  -29.3290 O   0  0  0  0  0  0  0  0  0  0  0  0
   -2.5770   23.4270  -29.5200 C   0  0  0  0  0  0  0  0  0  0  0  0
   -4.1040   24.0190  -30.1880 S   0  0  0  0  0  0  0  0  0  0  0  0
   -3.8630   25.3730  -30.7920 O   0  0  0  0  0  0  0  0  0  0  0  0
   -5.1530   24.1580  -29.1190 O   0  0  0  0  0  0  0  0  0  0  0  0
   -4.6930   22.9460  -31.4280 N   0  0  0  0  0  0  0  0  0  0  0  0
   -5.9950   23.3770  -31.9430 C   0  0  0  0  0  0  0  0  0  0  0  0
   -6.9280   22.2090  -32.1220 C   0  0  0  0  0  0  0  0  0  0  0  0
   -6.4600   20.9990  -32.6580 C   0  0  0  0  0  0  0  0  0  0  0  0
   -7.3270   19.9130  -32.8070 C   0  0  0  0  0  0  0  0  0  0  0  0
   -8.6670   20.0290  -32.4230 C   0  0  0  0  0  0  0  0  0  0  0  0
   -9.1400   21.2310  -31.8920 C   0  0  0  0  0  0  0  0  0  0  0  0
   -8.2750   22.3190  -31.7390 C   0  0  0  0  0  0  0  0  0  0  0  0
   -2.4250   22.0460  -29.3280 C   0  0  0  0  0  0  0  0  0  0  0  0
   -0.1660   20.0180  -31.5190 C   0  0  0  0  0  0  0  0  0  0  0  0
   -1.3050   21.6259  -35.6428 H   0  0  0  0  0  0  0  0  0  0  0  0
   -1.8246   20.7682  -33.5118 H   0  0  0  0  0  0  0  0  0  0  0  0
    1.7815   19.9547  -34.3319 H   0  0  0  0  0  0  0  0  0  0  0  0
    3.3807   18.9306  -32.7149 H   0  0  0  0  0  0  0  0  0  0  0  0
    2.7107   18.5912  -30.3353 H   0  0  0  0  0  0  0  0  0  0  0  0
    0.7104   21.9982  -27.9660 H   0  0  0  0  0  0  0  0  0  0  0  0
    0.4603   24.4519  -28.3141 H   0  0  0  0  0  0  0  0  0  0  0  0
   -6.4433   24.0879  -31.2333 H   0  0  0  0  0  0  0  0  0  0  0  0
   -5.8403   23.8504  -32.9238 H   0  0  0  0  0  0  0  0  0  0  0  0
   -5.4070   20.9052  -32.9619 H   0  0  0  0  0  0  0  0  0  0  0  0
   -6.9554   18.9665  -33.2265 H   0  0  0  0  0  0  0  0  0  0  0  0
   -9.3484   19.1733  -32.5393 H   0  0  0  0  0  0  0  0  0  0  0  0
  -10.1948   21.3220  -31.5936 H   0  0  0  0  0  0  0  0  0  0  0  0
   -8.6503   23.2633  -31.3177 H   0  0  0  0  0  0  0  0  0  0  0  0
   -3.2366   21.3647  -29.6232 H   0  0  0  0  0  0  0  0  0  0  0  0
   -1.1717   20.3103  -31.1826 H   0  0  0  0  0  0  0  0  0  0  0  0
  1  2  2  0
  2  3  1  0
  2  4  1  0
  4  5  2  3
  5  6  1  0
  6  7  2  0
  7  8  1  0
  8  9  2  0
  9 10  1  0
 10 11  1  0
 11 12  2  0
 11 13  2  0
 11 14  1  0
 14 15  1  0
 15 16  2  0
 16 17  1  0
 17 18  2  0
 18 19  1  0
 18 20  1  0
 20 21  1  0
 21 22  2  0
 21 23  2  0
 21 24  1  0
 24 25  1  0
 25 26  1  0
 26 27  2  0
 27 28  1  0
 28 29  2  0
 29 30  1  0
 30 31  2  0
 20 32  2  0
 10 33  2  0
 33  6  1  0
 32 15  1  0
 31 26  1  0
  4 34  1  0
  5 35  1  0
  7 36  1  0
  8 37  1  0
  9 38  1  0
 16 39  1  0
 17 40  1  0
 25 41  1  0
 25 42  1  0
 27 43  1  0
 28 44  1  0
 29 45  1  0
 30 46  1  0
 31 47  1  0
 32 48  1  0
 33 49  1  0
M  CHG  4   3  -1  14  -1  19  -1  24  -1
M  END
>  <UniqueID>  (7) 
6

>  <SMILES>  (7) 
O=C([O-])C=Cc1cccc(S(=O)(=O)[N-]c2ccc([O-])c(S(=O)(=O)[N-]Cc3ccccc3)c2)c1

>  <Energy>  (7) 
61.45802854675828

>  <Genealogy>  (7) 
O=C([O-])C=Cc1cccc(S(=O)(=O)[N-]c2ccc([O-])c(S(=O)(=O)[N-]Cc3ccccc3)c2)c1 (protonated)
O=C([O-])C=Cc1cccc(S(=O)(=O)[N-]c2ccc([O-])c(S(=O)(=O)[N-]Cc3ccccc3)c2)c1 (3D coordinates assigned)
O=C([O-])C=Cc1cccc(S(=O)(=O)[N-]c2ccc([O-])c(S(=O)(=O)[N-]Cc3ccccc3)c2)c1 (optimized conformer: 61.45802854675828 kcal/mol)

>  <smiles>  (7) 
O=C(O)C=Cc1cccc(S(=O)(=O)Nc2ccc(O)c(S(=O)(=O)NCc3ccccc3)c2)c1

>  <score_type>  (7) 
oracle

>  <origin>  (7) 
adgpu

>  <m_score__min__energy>  (7) 
-14.34

>  <m_primary>  (7) 
energy

$$$$
7:0
     RDKit          3D

 39 41  0  0  0  0  0  0  0  0999 V2000
   -2.5920   20.0970  -28.9990 O   0  0  0  0  0  0  0  0  0  0  0  0
   -2.2040   20.8560  -29.9290 C   0  0  0  0  0  0  0  0  0  0  0  0
   -1.9820   20.3250  -31.2430 N   0  0  0  0  0  0  0  0  0  0  0  0
   -2.9440   19.6520  -32.0680 C   0  0  0  0  0  0  0  0  0  0  0  0
   -2.5720   18.9510  -33.2270 C   0  0  0  0  0  0  0  0  0  0  0  0
   -3.5440   18.3410  -34.0230 C   0  0  0  0  0  0  0  0  0  0  0  0
   -4.8960   18.4180  -33.6740 C   0  0  0  0  0  0  0  0  0  0  0  0
   -6.0780   17.7290  -34.7810 Cl  0  0  0  0  0  0  0  0  0  0  0  0
   -5.2790   19.1100  -32.5040 C   0  0  0  0  0  0  0  0  0  0  0  0
   -6.6480   19.2160  -32.0920 N   0  0  0  0  0  0  0  0  0  0  0  0
   -7.4830   20.3740  -32.2350 C   0  0  0  0  0  0  0  0  0  0  0  0
   -8.5670   20.2590  -32.8650 O   0  0  0  0  0  0  0  0  0  0  0  0
   -7.0960   21.6980  -31.6930 C   0  0  0  0  0  0  0  0  0  0  0  0
   -7.6020   22.1240  -30.4520 C   0  0  0  0  0  0  0  0  0  0  0  0
   -7.2420   23.3710  -29.9310 C   0  0  0  0  0  0  0  0  0  0  0  0
   -6.3830   24.2080  -30.6470 C   0  0  0  0  0  0  0  0  0  0  0  0
   -5.8890   23.8030  -31.8890 C   0  0  0  0  0  0  0  0  0  0  0  0
   -6.2470   22.5580  -32.4150 C   0  0  0  0  0  0  0  0  0  0  0  0
   -4.3000   19.7510  -31.7350 C   0  0  0  0  0  0  0  0  0  0  0  0
   -2.0290   22.3060  -29.6750 C   0  0  0  0  0  0  0  0  0  0  0  0
   -3.0310   23.2230  -30.0420 C   0  0  0  0  0  0  0  0  0  0  0  0
   -2.8640   24.5910  -29.8020 C   0  0  0  0  0  0  0  0  0  0  0  0
   -3.8630   25.4840  -30.1710 O   0  0  0  0  0  0  0  0  0  0  0  0
   -1.6940   25.0590  -29.1930 C   0  0  0  0  0  0  0  0  0  0  0  0
   -1.5320   26.4200  -28.9550 O   0  0  0  0  0  0  0  0  0  0  0  0
   -0.6890   24.1580  -28.8230 C   0  0  0  0  0  0  0  0  0  0  0  0
    0.4730   24.6330  -28.2170 O   0  0  0  0  0  0  0  0  0  0  0  0
   -0.8570   22.7880  -29.0630 C   0  0  0  0  0  0  0  0  0  0  0  0
   -1.5109   18.8822  -33.5088 H   0  0  0  0  0  0  0  0  0  0  0  0
   -3.2441   17.7964  -34.9305 H   0  0  0  0  0  0  0  0  0  0  0  0
   -8.2852   21.4724  -29.8875 H   0  0  0  0  0  0  0  0  0  0  0  0
   -7.6360   23.6932  -28.9558 H   0  0  0  0  0  0  0  0  0  0  0  0
   -6.0957   25.1857  -30.2328 H   0  0  0  0  0  0  0  0  0  0  0  0
   -5.2168   24.4650  -32.4546 H   0  0  0  0  0  0  0  0  0  0  0  0
   -5.8631   22.2488  -33.3984 H   0  0  0  0  0  0  0  0  0  0  0  0
   -4.6008   20.3408  -30.8566 H   0  0  0  0  0  0  0  0  0  0  0  0
   -3.9527   22.8615  -30.5213 H   0  0  0  0  0  0  0  0  0  0  0  0
    0.6910   25.6220  -28.1890 H   0  0  0  0  0  0  0  0  0  0  0  0
   -0.0654   22.0825  -28.7703 H   0  0  0  0  0  0  0  0  0  0  0  0
  1  2  2  0
  2  3  1  0
  3  4  1  0
  4  5  2  0
  5  6  1  0
  6  7  2  0
  7  8  1  0
  7  9  1  0
  9 10  1  0
 10 11  1  0
 11 12  2  0
 11 13  1  0
 13 14  2  0
 14 15  1  0
 15 16  2  0
 16 17  1  0
 17 18  2  0
  9 19  2  0
  2 20  1  0
 20 21  2  0
 21 22  1  0
 22 23  1  0
 22 24  2  0
 24 25  1  0
 24 26  1  0
 26 27  1  0
 26 28  2  0
 19  4  1  0
 28 20  1  0
 18 13  1  0
  5 29  1  0
  6 30  1  0
 14 31  1  0
 15 32  1  0
 16 33  1  0
 17 34  1  0
 18 35  1  0
 19 36  1  0
 21 37  1  0
 27 38  1  0
 28 39  1  0
M  CHG  4   3  -1  10  -1  23  -1  25  -1
M  END
>  <UniqueID>  (8) 
7

>  <SMILES>  (8) 
O=C([N-]c1ccc(Cl)c([N-]C(=O)c2ccccc2)c1)c1cc([O-])c([O-])c(O)c1

>  <Energy>  (8) 
56.737213690807614

>  <Genealogy>  (8) 
O=C([N-]c1ccc(Cl)c([N-]C(=O)c2ccccc2)c1)c1cc([O-])c([O-])c(O)c1 (protonated)
O=C([N-]c1ccc(Cl)c([N-]C(=O)c2ccccc2)c1)c1cc([O-])c([O-])c(O)c1 (3D coordinates assigned)
O=C([N-]c1ccc(Cl)c([N-]C(=O)c2ccccc2)c1)c1cc([O-])c([O-])c(O)c1 (optimized conformer: 56.737213690807614 kcal/mol)

>  <smiles>  (8) 
O=C(Nc1ccc(Cl)c(NC(=O)c2ccccc2)c1)c1cc(O)c(O)c(O)c1

>  <score_type>  (8) 
oracle

>  <origin>  (8) 
adgpu

>  <m_score__min__energy>  (8) 
-13.99

>  <m_primary>  (8) 
energy

$$$$
8:0
     RDKit          3D

 58 61  0  0  0  0  0  0  0  0999 V2000
   -5.4820   26.4480  -30.4350 O   0  0  0  0  0  0  0  0  0  0  0  0
   -4.9500   25.3130  -30.5690 C   0  0  0  0  0  0  0  0  0  0  0  0
   -3.5380   25.1820  -30.3660 N   0  0  0  0  0  0  0  0  0  0  0  0
   -2.9150   23.9910  -29.8690 C   0  0  0  0  0  0  0  0  0  0  0  0
   -2.5480   22.9630  -30.7520 C   0  0  0  0  0  0  0  0  0  0  0  0
   -1.9460   21.7930  -30.2730 C   0  0  0  0  0  0  0  0  0  0  0  0
   -1.4440   20.5140  -31.3770 S   0  0  0  0  0  0  0  0  0  0  0  0
   -2.6630   19.8920  -32.0020 O   0  0  0  0  0  0  0  0  0  0  0  0
   -0.7110   19.4700  -30.5810 O   0  0  0  0  0  0  0  0  0  0  0  0
   -0.3890   21.1500  -32.6190 N   0  0  0  0  0  0  0  0  0  0  0  0
   -1.0680   21.1490  -33.9230 C   0  0  0  0  0  0  0  0  0  0  0  0
   -0.1440   21.7700  -34.9900 C   0  0  0  0  0  0  0  0  0  0  0  0
    1.1930   21.9110  -34.5370 O   0  0  0  0  0  0  0  0  0  0  0  0
    1.6420   20.6930  -33.9760 C   0  0  0  0  0  0  0  0  0  0  0  0
    0.8490   20.3520  -32.6970 C   0  0  0  0  0  0  0  0  0  0  0  0
   -1.6960   21.6590  -28.9020 C   0  0  0  0  0  0  0  0  0  0  0  0
   -2.0330   22.6890  -28.0200 C   0  0  0  0  0  0  0  0  0  0  0  0
   -2.6350   23.8590  -28.4960 C   0  0  0  0  0  0  0  0  0  0  0  0
   -2.9580   24.8680  -27.5890 O   0  0  0  0  0  0  0  0  0  0  0  0
   -5.7980   24.1350  -30.8700 C   0  0  0  0  0  0  0  0  0  0  0  0
   -6.1120   23.8040  -32.1990 C   0  0  0  0  0  0  0  0  0  0  0  0
   -6.9820   22.7450  -32.4790 C   0  0  0  0  0  0  0  0  0  0  0  0
   -7.5580   22.0060  -31.4350 C   0  0  0  0  0  0  0  0  0  0  0  0
   -8.7430   20.7400  -31.7780 S   0  0  0  0  0  0  0  0  0  0  0  0
   -9.9850   21.3720  -32.3440 O   0  0  0  0  0  0  0  0  0  0  0  0
   -9.1200   20.0770  -30.4820 O   0  0  0  0  0  0  0  0  0  0  0  0
   -8.1570   19.5200  -32.8900 N   0  0  0  0  0  0  0  0  0  0  0  0
   -6.8580   19.8790  -33.4870 C   0  0  0  0  0  0  0  0  0  0  0  0
   -5.6680   19.5880  -32.5450 C   0  0  0  0  0  0  0  0  0  0  0  0
   -6.0180   18.7930  -31.4280 O   0  0  0  0  0  0  0  0  0  0  0  0
   -6.7900   17.6920  -31.8430 C   0  0  0  0  0  0  0  0  0  0  0  0
   -8.1770   18.1600  -32.3140 C   0  0  0  0  0  0  0  0  0  0  0  0
   -7.2360   22.3260  -30.1090 C   0  0  0  0  0  0  0  0  0  0  0  0
   -6.3600   23.3780  -29.8290 C   0  0  0  0  0  0  0  0  0  0  0  0
   -2.7351   23.0777  -31.8299 H   0  0  0  0  0  0  0  0  0  0  0  0
   -1.3119   20.1148  -34.2076 H   0  0  0  0  0  0  0  0  0  0  0  0
   -1.9928   21.7405  -33.8529 H   0  0  0  0  0  0  0  0  0  0  0  0
   -0.1484   21.1232  -35.8797 H   0  0  0  0  0  0  0  0  0  0  0  0
   -0.5267   22.7757  -35.2184 H   0  0  0  0  0  0  0  0  0  0  0  0
    1.5054   19.8858  -34.7107 H   0  0  0  0  0  0  0  0  0  0  0  0
    2.7052   20.7970  -33.7137 H   0  0  0  0  0  0  0  0  0  0  0  0
    0.5889   19.2833  -32.7083 H   0  0  0  0  0  0  0  0  0  0  0  0
    1.4740   20.5851  -31.8224 H   0  0  0  0  0  0  0  0  0  0  0  0
   -1.2322   20.7387  -28.5174 H   0  0  0  0  0  0  0  0  0  0  0  0
   -1.8239   22.5795  -26.9456 H   0  0  0  0  0  0  0  0  0  0  0  0
   -3.6040   25.6140  -27.8170 H   0  0  0  0  0  0  0  0  0  0  0  0
   -5.6707   24.3815  -33.0247 H   0  0  0  0  0  0  0  0  0  0  0  0
   -7.2157   22.4904  -33.5233 H   0  0  0  0  0  0  0  0  0  0  0  0
   -6.7240   19.2999  -34.4125 H   0  0  0  0  0  0  0  0  0  0  0  0
   -6.8700   20.9614  -33.6826 H   0  0  0  0  0  0  0  0  0  0  0  0
   -4.8902   19.0617  -33.1178 H   0  0  0  0  0  0  0  0  0  0  0  0
   -5.3156   20.5555  -32.1579 H   0  0  0  0  0  0  0  0  0  0  0  0
   -6.2782   17.1819  -32.6723 H   0  0  0  0  0  0  0  0  0  0  0  0
   -6.9139   17.0020  -30.9953 H   0  0  0  0  0  0  0  0  0  0  0  0
   -8.5432   17.4596  -33.0791 H   0  0  0  0  0  0  0  0  0  0  0  0
   -8.8356   18.1830  -31.4332 H   0  0  0  0  0  0  0  0  0  0  0  0
   -7.6753   21.7458  -29.2842 H   0  0  0  0  0  0  0  0  0  0  0  0
   -6.1085   23.6152  -28.7847 H   0  0  0  0  0  0  0  0  0  0  0  0
  1  2  2  0
  2  3  1  0
  3  4  1  0
  4  5  2  0
  5  6  1  0
  6  7  1  0
  7  8  2  0
  7  9  2  0
  7 10  1  0
 10 11  1  0
 11 12  1  0
 12 13  1  0
 13 14  1  0
 14 15  1  0
  6 16  2  0
 16 17  1  0
 17 18  2  0
 18 19  1  0
  2 20  1  0
 20 21  2  0
 21 22  1  0
 22 23  2  0
 23 24  1  0
 24 25  2  0
 24 26  2  0
 24 27  1  0
 27 28  1  0
 28 29  1  0
 29 30  1  0
 30 31  1  0
 31 32  1  0
 23 33  1  0
 33 34  2  0
 18  4  1  0
 34 20  1  0
 15 10  1  0
 32 27  1  0
  5 35  1  0
 11 36  1  0
 11 37  1  0
 12 38  1  0
 12 39  1  0
 14 40  1  0
 14 41  1  0
 15 42  1  0
 15 43  1  0
 16 44  1  0
 17 45  1  0
 19 46  1  0
 21 47  1  0
 22 48  1  0
 28 49  1  0
 28 50  1  0
 29 51  1  0
 29 52  1  0
 31 53  1  0
 31 54  1  0
 32 55  1  0
 32 56  1  0
 33 57  1  0
 34 58  1  0
M  CHG  1   3  -1
M  END
>  <UniqueID>  (9) 
8

>  <SMILES>  (9) 
O=C([N-]c1cc(S(=O)(=O)N2CCOCC2)ccc1O)c1ccc(S(=O)(=O)N2CCOCC2)cc1

>  <Energy>  (9) 
83.17050841255609

>  <Genealogy>  (9) 
O=C([N-]c1cc(S(=O)(=O)N2CCOCC2)ccc1O)c1ccc(S(=O)(=O)N2CCOCC2)cc1 (protonated)
O=C([N-]c1cc(S(=O)(=O)N2CCOCC2)ccc1O)c1ccc(S(=O)(=O)N2CCOCC2)cc1 (3D coordinates assigned)
O=C([N-]c1cc(S(=O)(=O)N2CCOCC2)ccc1O)c1ccc(S(=O)(=O)N2CCOCC2)cc1 (nonaromatic ring conformer: 83.17050841255609 kcal/mol)

>  <smiles>  (9) 
O=C(Nc1cc(S(=O)(=O)N2CCOCC2)ccc1O)c1ccc(S(=O)(=O)N2CCOCC2)cc1

>  <score_type>  (9) 
oracle

>  <origin>  (9) 
adgpu

>  <m_score__min__energy>  (9) 
-12.619999999999999

>  <m_primary>  (9) 
energy

$$$$
9:0
     RDKit          3D

 55 57  0  0  1  0  0  0  0  0999 V2000
   -0.4900   23.2460  -29.5380 C   0  0  0  0  0  0  0  0  0  0  0  0
   -0.9270   24.5660  -29.3430 O   0  0  0  0  0  0  0  0  0  0  0  0
   -1.5200   24.9360  -28.1600 C   0  0  0  0  0  0  0  0  0  0  0  0
   -0.8810   25.7990  -27.3020 C   0  0  0  0  0  0  0  0  0  0  0  0
   -1.4530   26.1770  -26.1240 C   0  0  0  0  0  0  0  0  0  0  0  0
   -0.8440   27.0740  -25.1580 C   0  0  0  0  0  0  0  0  0  0  0  0
   -1.2980   28.2540  -25.1070 O   0  0  0  0  0  0  0  0  0  0  0  0
    0.2050   26.7340  -24.2800 N   0  0  0  0  0  0  0  0  0  0  0  0
    0.6890   27.7650  -23.3770 C   0  0  0  0  0  0  0  0  0  0  0  0
    0.8350   25.4330  -24.2160 C   0  0  0  0  0  0  0  0  0  0  0  0
   -2.6990   25.6650  -25.8190 C   0  0  0  0  0  0  0  0  0  0  0  0
   -3.3660   24.7860  -26.6770 C   0  0  0  0  0  0  0  0  0  0  0  0
   -2.7760   24.4130  -27.8630 C   0  0  0  0  0  0  0  0  0  0  0  0
   -3.3520   23.5310  -28.8030 N   0  0  0  0  0  0  0  0  0  0  0  0
   -4.2860   23.7740  -29.6200 C   0  0  0  0  0  0  0  0  0  0  0  0
   -4.8200   25.0150  -29.6180 N   0  0  0  0  0  0  0  0  0  0  0  0
   -5.8030   25.2490  -30.5050 C   0  0  0  0  0  0  0  0  0  0  0  0
   -6.2310   24.2940  -31.3500 N   0  0  0  0  0  0  0  0  0  0  0  0
   -5.7070   23.0420  -31.3650 C   0  0  0  0  0  0  0  0  0  0  0  0
   -6.1870   22.0980  -32.2640 C   0  0  0  0  0  0  0  0  0  0  0  0
   -5.6330   20.8280  -32.2640 C   0  0  0  0  0  0  0  0  0  0  0  0
   -6.0910   19.8070  -33.1740 N   0  0  0  0  0  0  0  0  0  0  0  0
   -6.9400   18.6230  -32.5460 S   0  0  0  0  0  0  0  0  0  0  0  0
   -6.8650   17.1630  -33.5380 C   0  0  0  0  0  0  0  0  0  0  0  0
   -8.6310   19.0760  -32.3170 C   0  0  0  0  0  0  0  0  0  0  0  0
   -6.3240   18.2830  -31.1990 O   0  0  0  0  0  0  0  0  0  0  0  0
   -4.6230   20.5620  -31.3640 C   0  0  0  0  0  0  0  0  0  0  0  0
   -4.1450   21.5070  -30.4680 C   0  0  0  0  0  0  0  0  0  0  0  0
   -3.0530   21.1740  -29.5150 C   0  0  0  0  0  0  0  0  0  0  0  0
   -4.6990   22.7740  -30.4690 C   0  0  0  0  0  0  0  0  0  0  0  0
   -0.3306   22.7646  -28.5619 H   0  0  0  0  0  0  0  0  0  0  0  0
   -1.2511   22.6874  -30.1024 H   0  0  0  0  0  0  0  0  0  0  0  0
    0.4541   23.2519  -30.1024 H   0  0  0  0  0  0  0  0  0  0  0  0
    0.1106   26.1919  -27.5711 H   0  0  0  0  0  0  0  0  0  0  0  0
    0.5373   27.4418  -22.3365 H   0  0  0  0  0  0  0  0  0  0  0  0
    1.7610   27.9350  -23.5555 H   0  0  0  0  0  0  0  0  0  0  0  0
    0.1350   28.6984  -23.5555 H   0  0  0  0  0  0  0  0  0  0  0  0
    0.9747   25.1446  -23.1637 H   0  0  0  0  0  0  0  0  0  0  0  0
    0.1963   24.6912  -24.7178 H   0  0  0  0  0  0  0  0  0  0  0  0
    1.8130   25.4741  -24.7178 H   0  0  0  0  0  0  0  0  0  0  0  0
   -3.1801   25.9573  -24.8740 H   0  0  0  0  0  0  0  0  0  0  0  0
   -4.3575   24.3944  -26.4056 H   0  0  0  0  0  0  0  0  0  0  0  0
   -6.2683   26.2451  -30.5405 H   0  0  0  0  0  0  0  0  0  0  0  0
   -7.0050   24.5540  -32.0140 H   0  0  0  0  0  0  0  0  0  0  0  0
   -6.9947   22.3548  -32.9652 H   0  0  0  0  0  0  0  0  0  0  0  0
   -6.8196   16.2784  -32.8857 H   0  0  0  0  0  0  0  0  0  0  0  0
   -7.7613   17.1047  -34.1730 H   0  0  0  0  0  0  0  0  0  0  0  0
   -5.9674   17.1968  -34.1730 H   0  0  0  0  0  0  0  0  0  0  0  0
   -8.8522   19.1353  -31.2411 H   0  0  0  0  0  0  0  0  0  0  0  0
   -8.8147   20.0550  -32.7836 H   0  0  0  0  0  0  0  0  0  0  0  0
   -9.2796   18.3199  -32.7836 H   0  0  0  0  0  0  0  0  0  0  0  0
   -4.1768   19.5566  -31.3561 H   0  0  0  0  0  0  0  0  0  0  0  0
   -3.4195   21.2858  -28.4839 H   0  0  0  0  0  0  0  0  0  0  0  0
   -2.7279   20.1359  -29.6781 H   0  0  0  0  0  0  0  0  0  0  0  0
   -2.2039   21.8541  -29.6781 H   0  0  0  0  0  0  0  0  0  0  0  0
  1  2  1  0
  2  3  1  0
  3  4  2  0
  4  5  1  0
  5  6  1  0
  6  7  2  0
  6  8  1  0
  8  9  1  0
  8 10  1  0
  5 11  2  0
 11 12  1  0
 12 13  2  0
 13 14  1  0
 14 15  2  0
 15 16  1  0
 16 17  2  0
 17 18  1  0
 18 19  1  0
 19 20  2  0
 20 21  1  0
 21 22  1  0
 22 23  2  0
 23 24  1  0
 23 25  1  0
 23 26  2  0
 21 27  2  0
 27 28  1  0
 28 29  1  0
 28 30  2  0
 13  3  1  0
 30 15  1  0
 30 19  1  0
  1 31  1  0
  1 32  1  0
  1 33  1  0
  4 34  1  0
  9 35  1  0
  9 36  1  0
  9 37  1  0
 10 38  1  0
 10 39  1  0
 10 40  1  0
 11 41  1  0
 12 42  1  0
 17 43  1  0
 18 44  1  0
 20 45  1  0
 24 46  1  0
 24 47  1  0
 24 48  1  0
 25 49  1  0
 25 50  1  0
 25 51  1  0
 27 52  1  0
 29 53  1  0
 29 54  1  0
 29 55  1  0
M  END
>  <smiles>  (10) 
COc1cc(C(=O)N(C)C)ccc1N=c1nc[nH]c2cc(N=S(C)(C)=O)cc(C)c12

>  <score_type>  (10) 
oracle

>  <origin>  (10) 
adgpu

>  <m_score__min__energy>  (10) 
-8.8100000000000005

>  <m_primary>  (10) 
energy

$$$$
10:0
     RDKit          3D

 43 46  0  0  0  0  0  0  0  0999 V2000
   -3.8640   25.3600  -30.5020 N   0  0  0  0  0  0  0  0  0  0  0  0
   -5.0600   24.6070  -30.6970 C   0  0  0  0  0  0  0  0  0  0  0  0
   -6.1470   25.0540  -30.2420 O   0  0  0  0  0  0  0  0  0  0  0  0
   -5.0280   23.3150  -31.4230 C   0  0  0  0  0  0  0  0  0  0  0  0
   -6.2220   22.7130  -31.8540 C   0  0  0  0  0  0  0  0  0  0  0  0
   -6.1930   21.4970  -32.5390 C   0  0  0  0  0  0  0  0  0  0  0  0
   -4.9770   20.8660  -32.8030 C   0  0  0  0  0  0  0  0  0  0  0  0
   -3.7670   21.4480  -32.3830 C   0  0  0  0  0  0  0  0  0  0  0  0
   -2.4620   20.7990  -32.6500 C   0  0  0  0  0  0  0  0  0  0  0  0
   -1.4910   20.4610  -31.7190 C   0  0  0  0  0  0  0  0  0  0  0  0
   -0.4670   19.8790  -32.4330 C   0  0  0  0  0  0  0  0  0  0  0  0
   -0.8660   19.9090  -33.7570 C   0  0  0  0  0  0  0  0  0  0  0  0
   -0.1400   19.3510  -34.9130 C   0  0  0  0  0  0  0  0  0  0  0  0
    0.8060   19.9910  -35.6370 C   0  0  0  0  0  0  0  0  0  0  0  0
    1.6190   19.2280  -36.6130 C   0  0  0  0  0  0  0  0  0  0  0  0
    1.3470   18.0280  -36.8890 O   0  0  0  0  0  0  0  0  0  0  0  0
    2.7450   19.8420  -37.2380 N   0  0  0  0  0  0  0  0  0  0  0  0
    3.0970   21.1980  -36.9740 C   0  0  0  0  0  0  0  0  0  0  0  0
    4.1280   21.6810  -37.5170 O   0  0  0  0  0  0  0  0  0  0  0  0
    2.2690   22.0110  -36.1240 N   0  0  0  0  0  0  0  0  0  0  0  0
    2.6230   23.3840  -35.8780 C   0  0  0  0  0  0  0  0  0  0  0  0
    1.7250   24.4180  -36.1920 C   0  0  0  0  0  0  0  0  0  0  0  0
    2.0750   25.7500  -35.9540 C   0  0  0  0  0  0  0  0  0  0  0  0
    3.3240   26.0600  -35.4050 C   0  0  0  0  0  0  0  0  0  0  0  0
    3.6690   27.3840  -35.1690 O   0  0  0  0  0  0  0  0  0  0  0  0
    4.2230   25.0360  -35.0930 C   0  0  0  0  0  0  0  0  0  0  0  0
    3.8750   23.7020  -35.3300 C   0  0  0  0  0  0  0  0  0  0  0  0
    1.0700   21.4540  -35.5450 C   0  0  0  0  0  0  0  0  0  0  0  0
    0.2240   22.2220  -35.0150 O   0  0  0  0  0  0  0  0  0  0  0  0
   -2.0590   20.4480  -33.8510 O   0  0  0  0  0  0  0  0  0  0  0  0
   -3.8040   22.6740  -31.6940 C   0  0  0  0  0  0  0  0  0  0  0  0
   -3.5160   26.0140  -31.2370 H   0  0  0  0  0  0  0  0  0  0  0  0
   -7.1856   23.2029  -31.6504 H   0  0  0  0  0  0  0  0  0  0  0  0
   -7.1335   21.0340  -32.8723 H   0  0  0  0  0  0  0  0  0  0  0  0
   -4.9643   19.9076  -33.3428 H   0  0  0  0  0  0  0  0  0  0  0  0
   -1.5307   20.6244  -30.6319 H   0  0  0  0  0  0  0  0  0  0  0  0
    0.4741   19.4739  -32.0328 H   0  0  0  0  0  0  0  0  0  0  0  0
   -0.3902   18.3227  -35.2130 H   0  0  0  0  0  0  0  0  0  0  0  0
    0.7433   24.1784  -36.6266 H   0  0  0  0  0  0  0  0  0  0  0  0
    1.3674   26.5559  -36.1987 H   0  0  0  0  0  0  0  0  0  0  0  0
    5.2048   25.2794  -34.6608 H   0  0  0  0  0  0  0  0  0  0  0  0
    4.5859   22.8989  -35.0857 H   0  0  0  0  0  0  0  0  0  0  0  0
   -2.8636   23.1383  -31.3624 H   0  0  0  0  0  0  0  0  0  0  0  0
  1  2  1  0
  2  3  2  0
  2  4  1  0
  4  5  2  0
  5  6  1  0
  6  7  2  0
  7  8  1  0
  8  9  1  0
  9 10  2  0
 10 11  1  0
 11 12  2  0
 12 13  1  0
 13 14  2  3
 14 15  1  0
 15 16  2  0
 15 17  1  0
 17 18  1  0
 18 19  2  0
 18 20  1  0
 20 21  1  0
 21 22  2  0
 22 23  1  0
 23 24  2  0
 24 25  1  0
 24 26  1  0
 26 27  2  0
 20 28  1  0
 28 29  2  0
 12 30  1  0
  8 31  2  0
 31  4  1  0
 30  9  1  0
 28 14  1  0
 27 21  1  0
  1 32  1  0
  5 33  1  0
  6 34  1  0
  7 35  1  0
 10 36  1  0
 11 37  1  0
 13 38  1  0
 22 39  1  0
 23 40  1  0
 26 41  1  0
 27 42  1  0
 31 43  1  0
M  CHG  3   1  -1  17  -1  25  -1
M  END
>  <UniqueID>  (11) 
9

>  <SMILES>  (11) 
[NH-]C(=O)c1cccc(-c2ccc(C=C3C(=O)[N-]C(=O)N(c4ccc([O-])cc4)C3=O)o2)c1

>  <Energy>  (11) 
91.14538847304748

>  <Genealogy>  (11) 
[NH-]C(=O)c1cccc(-c2ccc(C=C3C(=O)[N-]C(=O)N(c4ccc([O-])cc4)C3=O)o2)c1 (protonated)
[NH-]C(=O)c1cccc(-c2ccc(C=C3C(=O)[N-]C(=O)N(c4ccc([O-])cc4)C3=O)o2)c1 (3D coordinates assigned)
[NH-]C(=O)c1cccc(-c2ccc(C=C3C(=O)[N-]C(=O)N(c4ccc([O-])cc4)C3=O)o2)c1 (nonaromatic ring conformer: 91.14538847304748 kcal/mol)

>  <smiles>  (11) 
NC(=O)c1cccc(-c2ccc(C=C3C(=O)NC(=O)N(c4ccc(O)cc4)C3=O)o2)c1

>  <score_type>  (11) 
oracle

>  <origin>  (11) 
adgpu

>  <m_score__min__energy>  (11) 
-13.25

>  <m_primary>  (11) 
energy

$$$$
11:0
     RDKit          3D

 53 55  0  0  0  0  0  0  0  0999 V2000
   -2.2960   25.2790  -27.1030 C   0  0  0  0  0  0  0  0  0  0  0  0
   -2.0050   24.1370  -28.0230 C   0  0  0  0  0  0  0  0  0  0  0  0
   -1.1670   23.1260  -27.7180 N   0  0  0  0  0  0  0  0  0  0  0  0
   -1.1020   22.3250  -28.7730 N   0  0  0  0  0  0  0  0  0  0  0  0
   -0.2170   21.1690  -28.8500 C   0  0  0  0  0  0  0  0  0  0  0  0
   -1.8800   22.8070  -29.7660 C   0  0  0  0  0  0  0  0  0  0  0  0
   -1.9270   22.2710  -31.1630 C   0  0  0  0  0  0  0  0  0  0  0  0
   -2.4680   23.9690  -29.3140 C   0  0  0  0  0  0  0  0  0  0  0  0
   -3.2100   24.9030  -30.1000 N   0  0  0  0  0  0  0  0  0  0  0  0
   -4.9250   25.0350  -29.9310 S   0  0  0  0  0  0  0  0  0  0  0  0
   -5.3970   26.3560  -30.4670 O   0  0  0  0  0  0  0  0  0  0  0  0
   -5.2880   24.9430  -28.4760 O   0  0  0  0  0  0  0  0  0  0  0  0
   -5.6810   23.7030  -30.7950 C   0  0  0  0  0  0  0  0  0  0  0  0
   -6.8570   23.8930  -31.5290 C   0  0  0  0  0  0  0  0  0  0  0  0
   -7.3970   22.8390  -32.2680 C   0  0  0  0  0  0  0  0  0  0  0  0
   -6.7410   21.6020  -32.2840 C   0  0  0  0  0  0  0  0  0  0  0  0
   -7.2470   20.6220  -32.9770 N   0  0  0  0  0  0  0  0  0  0  0  0
   -6.6790   19.3140  -33.1640 C   0  0  0  0  0  0  0  0  0  0  0  0
   -6.0600   18.9360  -34.3690 C   0  0  0  0  0  0  0  0  0  0  0  0
   -5.5620   17.6400  -34.5290 C   0  0  0  0  0  0  0  0  0  0  0  0
   -5.6920   16.7020  -33.4970 C   0  0  0  0  0  0  0  0  0  0  0  0
   -5.0820   15.0620  -33.7000 S   0  0  0  0  0  0  0  0  0  0  0  0
   -4.2340   15.0150  -34.9420 O   0  0  0  0  0  0  0  0  0  0  0  0
   -6.2340   14.1100  -33.8730 O   0  0  0  0  0  0  0  0  0  0  0  0
   -4.1200   14.6040  -32.3150 N   0  0  0  0  0  0  0  0  0  0  0  0
   -4.6100   13.3300  -31.7730 C   0  0  0  0  0  0  0  0  0  0  0  0
   -2.7150   14.4720  -32.7230 C   0  0  0  0  0  0  0  0  0  0  0  0
   -6.3400   17.0640  -32.3110 C   0  0  0  0  0  0  0  0  0  0  0  0
   -6.8370   18.3610  -32.1500 C   0  0  0  0  0  0  0  0  0  0  0  0
   -5.6030   21.4370  -31.5520 N   0  0  0  0  0  0  0  0  0  0  0  0
   -5.0660   22.4460  -30.8180 C   0  0  0  0  0  0  0  0  0  0  0  0
   -2.2098   24.9407  -26.0599 H   0  0  0  0  0  0  0  0  0  0  0  0
   -1.5758   26.0901  -27.2861 H   0  0  0  0  0  0  0  0  0  0  0  0
   -3.3165   25.6465  -27.2861 H   0  0  0  0  0  0  0  0  0  0  0  0
    0.0389   20.8348  -27.8337 H   0  0  0  0  0  0  0  0  0  0  0  0
   -0.7242   20.3540  -29.3872 H   0  0  0  0  0  0  0  0  0  0  0  0
    0.7021   21.4460  -29.3872 H   0  0  0  0  0  0  0  0  0  0  0  0
   -2.0230   21.1756  -31.1324 H   0  0  0  0  0  0  0  0  0  0  0  0
   -2.7910   22.7002  -31.6915 H   0  0  0  0  0  0  0  0  0  0  0  0
   -1.0015   22.5433  -31.6915 H   0  0  0  0  0  0  0  0  0  0  0  0
   -7.3561   24.8732  -31.5237 H   0  0  0  0  0  0  0  0  0  0  0  0
   -8.3303   22.9790  -32.8332 H   0  0  0  0  0  0  0  0  0  0  0  0
   -5.9674   19.6634  -35.1889 H   0  0  0  0  0  0  0  0  0  0  0  0
   -5.0662   17.3556  -35.4688 H   0  0  0  0  0  0  0  0  0  0  0  0
   -4.5949   13.3692  -30.6738 H   0  0  0  0  0  0  0  0  0  0  0  0
   -5.6393   13.1557  -32.1196 H   0  0  0  0  0  0  0  0  0  0  0  0
   -3.9628   12.5109  -32.1196 H   0  0  0  0  0  0  0  0  0  0  0  0
   -2.0775   14.4121  -31.8286 H   0  0  0  0  0  0  0  0  0  0  0  0
   -2.5917   13.5583  -33.3230 H   0  0  0  0  0  0  0  0  0  0  0  0
   -2.4237   15.3467  -33.3230 H   0  0  0  0  0  0  0  0  0  0  0  0
   -6.4587   16.3266  -31.5034 H   0  0  0  0  0  0  0  0  0  0  0  0
   -7.3561   18.6349  -31.2197 H   0  0  0  0  0  0  0  0  0  0  0  0
   -4.1457   22.2747  -30.2404 H   0  0  0  0  0  0  0  0  0  0  0  0
  1  2  1  0
  2  3  2  0
  3  4  1  0
  4  5  1  0
  4  6  1  0
  6  7  1  0
  6  8  2  0
  8  9  1  0
  9 10  1  0
 10 11  2  0
 10 12  2  0
 10 13  1  0
 13 14  1  0
 14 15  2  0
 15 16  1  0
 16 17  2  3
 17 18  1  0
 18 19  2  0
 19 20  1  0
 20 21  2  0
 21 22  1  0
 22 23  2  0
 22 24  2  0
 22 25  1  0
 25 26  1  0
 25 27  1  0
 21 28  1  0
 28 29  2  0
 16 30  1  0
 30 31  1  0
  8  2  1  0
 31 13  2  0
 29 18  1  0
  1 32  1  0
  1 33  1  0
  1 34  1  0
  5 35  1  0
  5 36  1  0
  5 37  1  0
  7 38  1  0
  7 39  1  0
  7 40  1  0
 14 41  1  0
 15 42  1  0
 19 43  1  0
 20 44  1  0
 26 45  1  0
 26 46  1  0
 26 47  1  0
 27 48  1  0
 27 49  1  0
 27 50  1  0
 28 51  1  0
 29 52  1  0
 31 53  1  0
M  CHG  2   9  -1  30  -1
M  END
>  <UniqueID>  (12) 
10

>  <SMILES>  (12) 
Cc1nn(C)c(C)c1[N-]S(=O)(=O)c1ccc(=Nc2ccc(S(=O)(=O)N(C)C)cc2)[n-]c1

>  <Energy>  (12) 
95.79077475916543

>  <Genealogy>  (12) 
Cc1nn(C)c(C)c1[N-]S(=O)(=O)c1ccc(=Nc2ccc(S(=O)(=O)N(C)C)cc2)[n-]c1 (protonated)
Cc1nn(C)c(C)c1[N-]S(=O)(=O)c1ccc(=Nc2ccc(S(=O)(=O)N(C)C)cc2)[n-]c1 (3D coordinates assigned)
Cc1nn(C)c(C)c1[N-]S(=O)(=O)c1ccc(=Nc2ccc(S(=O)(=O)N(C)C)cc2)[n-]c1 (optimized conformer: 95.79077475916543 kcal/mol)

>  <smiles>  (12) 
Cc1nn(C)c(C)c1NS(=O)(=O)c1ccc(=Nc2ccc(S(=O)(=O)N(C)C)cc2)[nH]c1

>  <score_type>  (12) 
oracle

>  <origin>  (12) 
adgpu

>  <m_score__min__energy>  (12) 
-10.470000000000001

>  <m_primary>  (12) 
energy

$$$$
12:0
     RDKit          3D

 46 48  0  0  0  0  0  0  0  0999 V2000
   -0.3850   23.3390  -24.7500 C   0  0  0  0  0  0  0  0  0  0  0  0
   -0.8400   23.3730  -26.1860 C   0  0  0  0  0  0  0  0  0  0  0  0
   -1.2640   22.1680  -26.7660 C   0  0  0  0  0  0  0  0  0  0  0  0
   -1.7360   22.1310  -28.0700 C   0  0  0  0  0  0  0  0  0  0  0  0
   -1.8560   23.3110  -28.8120 C   0  0  0  0  0  0  0  0  0  0  0  0
   -2.4210   23.3060  -30.1360 N   0  0  0  0  0  0  0  0  0  0  0  0
   -3.6030   23.9920  -30.5670 C   0  0  0  0  0  0  0  0  0  0  0  0
   -3.6080   25.2520  -30.5580 O   0  0  0  0  0  0  0  0  0  0  0  0
   -4.8150   23.2690  -31.0170 C   0  0  0  0  0  0  0  0  0  0  0  0
   -6.0790   23.6740  -30.5430 C   0  0  0  0  0  0  0  0  0  0  0  0
   -6.1960   24.7330  -29.6470 O   0  0  0  0  0  0  0  0  0  0  0  0
   -7.2390   23.0350  -30.9920 C   0  0  0  0  0  0  0  0  0  0  0  0
   -7.1570   21.9880  -31.9180 C   0  0  0  0  0  0  0  0  0  0  0  0
   -8.3300   21.3330  -32.4110 N   0  0  0  0  0  0  0  0  0  0  0  0
   -8.6210   19.6260  -32.2510 S   0  0  0  0  0  0  0  0  0  0  0  0
   -9.7940   19.2400  -33.1110 O   0  0  0  0  0  0  0  0  0  0  0  0
   -8.9750   19.3250  -30.8180 O   0  0  0  0  0  0  0  0  0  0  0  0
   -7.2110   18.6660  -32.6860 C   0  0  0  0  0  0  0  0  0  0  0  0
   -6.7260   17.6210  -31.8880 C   0  0  0  0  0  0  0  0  0  0  0  0
   -5.6120   16.9900  -32.4220 C   0  0  0  0  0  0  0  0  0  0  0  0
   -5.2280   17.7520  -33.8710 S   0  0  0  0  0  0  0  0  0  0  0  0
   -6.4770   18.8750  -33.8470 C   0  0  0  0  0  0  0  0  0  0  0  0
   -5.9040   21.5820  -32.3930 C   0  0  0  0  0  0  0  0  0  0  0  0
   -4.7340   22.2000  -31.9360 C   0  0  0  0  0  0  0  0  0  0  0  0
   -3.1860   21.5670  -32.4970 Cl  0  0  0  0  0  0  0  0  0  0  0  0
   -1.4030   24.5220  -28.2720 C   0  0  0  0  0  0  0  0  0  0  0  0
   -1.5600   25.6690  -29.0550 O   0  0  0  0  0  0  0  0  0  0  0  0
   -0.8370   24.5620  -26.9670 C   0  0  0  0  0  0  0  0  0  0  0  0
   -0.1420   26.0840  -26.3420 S   0  0  0  0  0  0  0  0  0  0  0  0
   -1.2400   26.7900  -25.1330 C   0  0  0  0  0  0  0  0  0  0  0  0
    1.1960   25.8650  -25.6980 O   0  0  0  0  0  0  0  0  0  0  0  0
    0.0630   27.0520  -27.4720 O   0  0  0  0  0  0  0  0  0  0  0  0
   -1.2599   23.4044  -24.0865 H   0  0  0  0  0  0  0  0  0  0  0  0
    0.1516   22.3983  -24.5576 H   0  0  0  0  0  0  0  0  0  0  0  0
    0.2855   24.1896  -24.5576 H   0  0  0  0  0  0  0  0  0  0  0  0
   -1.2216   21.2391  -26.1783 H   0  0  0  0  0  0  0  0  0  0  0  0
   -2.0174   21.1689  -28.5229 H   0  0  0  0  0  0  0  0  0  0  0  0
   -8.2213   23.3567  -30.6156 H   0  0  0  0  0  0  0  0  0  0  0  0
   -7.1841   17.3295  -30.9313 H   0  0  0  0  0  0  0  0  0  0  0  0
   -5.0743   16.1404  -31.9759 H   0  0  0  0  0  0  0  0  0  0  0  0
   -6.6777   19.6386  -34.6129 H   0  0  0  0  0  0  0  0  0  0  0  0
   -5.8384   20.7699  -33.1321 H   0  0  0  0  0  0  0  0  0  0  0  0
   -2.0000   25.6790  -29.9620 H   0  0  0  0  0  0  0  0  0  0  0  0
   -0.8735   26.5544  -24.1230 H   0  0  0  0  0  0  0  0  0  0  0  0
   -1.2769   27.8815  -25.2643 H   0  0  0  0  0  0  0  0  0  0  0  0
   -2.2484   26.3706  -25.2643 H   0  0  0  0  0  0  0  0  0  0  0  0
  1  2  1  0
  2  3  2  0
  3  4  1  0
  4  5  2  0
  5  6  1  0
  6  7  1  0
  7  8  2  0
  7  9  1  0
  9 10  2  0
 10 11  1  0
 10 12  1  0
 12 13  2  0
 13 14  1  0
 14 15  1  0
 15 16  2  0
 15 17  2  0
 15 18  1  0
 18 19  1  0
 19 20  2  0
 20 21  1  0
 21 22  1  0
 13 23  1  0
 23 24  2  0
 24 25  1  0
  5 26  1  0
 26 27  1  0
 26 28  2  0
 28 29  1  0
 29 30  1  0
 29 31  2  0
 29 32  2  0
 28  2  1  0
 24  9  1  0
 22 18  2  0
  1 33  1  0
  1 34  1  0
  1 35  1  0
  3 36  1  0
  4 37  1  0
 12 38  1  0
 19 39  1  0
 20 40  1  0
 22 41  1  0
 23 42  1  0
 27 43  1  0
 30 44  1  0
 30 45  1  0
 30 46  1  0
M  CHG  3   6  -1  11  -1  14  -1
M  END
>  <UniqueID>  (13) 
11

>  <SMILES>  (13) 
Cc1ccc([N-]C(=O)c2c([O-])cc([N-]S(=O)(=O)c3ccsc3)cc2Cl)c(O)c1S(C)(=O)=O

>  <Energy>  (13) 
96.16574675455928

>  <Genealogy>  (13) 
Cc1ccc([N-]C(=O)c2c([O-])cc([N-]S(=O)(=O)c3ccsc3)cc2Cl)c(O)c1S(C)(=O)=O (protonated)
Cc1ccc([N-]C(=O)c2c([O-])cc([N-]S(=O)(=O)c3ccsc3)cc2Cl)c(O)c1S(C)(=O)=O (3D coordinates assigned)
Cc1ccc([N-]C(=O)c2c([O-])cc([N-]S(=O)(=O)c3ccsc3)cc2Cl)c(O)c1S(C)(=O)=O (optimized conformer: 96.16574675455928 kcal/mol)

>  <smiles>  (13) 
Cc1ccc(NC(=O)c2c(O)cc(NS(=O)(=O)c3ccsc3)cc2Cl)c(O)c1S(C)(=O)=O

>  <score_type>  (13) 
oracle

>  <origin>  (13) 
adgpu

>  <m_score__min__energy>  (13) 
-13.44

>  <m_primary>  (13) 
energy

$$$$
13:0
     RDKit          3D

 58 61  0  0  0  0  0  0  0  0999 V2000
    3.8870   24.2770  -35.6710 C   0  0  0  0  0  0  0  0  0  0  0  0
    2.7020   23.3620  -35.5920 C   0  0  0  0  0  0  0  0  0  0  0  0
    1.4090   23.8330  -35.8620 C   0  0  0  0  0  0  0  0  0  0  0  0
    0.3120   22.9730  -35.7670 C   0  0  0  0  0  0  0  0  0  0  0  0
    0.4850   21.6370  -35.3880 C   0  0  0  0  0  0  0  0  0  0  0  0
   -0.6700   20.7920  -35.3070 N   0  0  0  0  0  0  0  0  0  0  0  0
   -1.1450   19.8510  -33.9290 S   0  0  0  0  0  0  0  0  0  0  0  0
   -2.3930   19.0850  -34.2690 O   0  0  0  0  0  0  0  0  0  0  0  0
   -0.0680   18.8620  -33.5820 O   0  0  0  0  0  0  0  0  0  0  0  0
   -1.4870   20.9220  -32.5720 C   0  0  0  0  0  0  0  0  0  0  0  0
   -0.5690   21.0280  -31.5300 C   0  0  0  0  0  0  0  0  0  0  0  0
   -0.8420   21.8410  -30.4330 C   0  0  0  0  0  0  0  0  0  0  0  0
   -2.0490   22.5580  -30.3420 C   0  0  0  0  0  0  0  0  0  0  0  0
   -2.3030   23.5680  -28.9060 S   0  0  0  0  0  0  0  0  0  0  0  0
   -2.3270   25.2450  -29.3300 N   0  0  0  0  0  0  0  0  0  0  0  0
   -1.1880   23.3560  -27.9250 O   0  0  0  0  0  0  0  0  0  0  0  0
   -3.6180   23.2220  -28.2710 O   0  0  0  0  0  0  0  0  0  0  0  0
   -2.9940   22.4480  -31.4030 C   0  0  0  0  0  0  0  0  0  0  0  0
   -4.6180   23.1650  -31.3950 S   0  0  0  0  0  0  0  0  0  0  0  0
   -5.0480   23.4100  -32.8140 O   0  0  0  0  0  0  0  0  0  0  0  0
   -4.6930   24.4760  -30.6660 O   0  0  0  0  0  0  0  0  0  0  0  0
   -5.7050   22.0240  -30.6790 N   0  0  0  0  0  0  0  0  0  0  0  0
   -6.0890   20.8280  -31.3560 C   0  0  0  0  0  0  0  0  0  0  0  0
   -5.1270   19.8620  -31.6810 C   0  0  0  0  0  0  0  0  0  0  0  0
   -5.5020   18.7050  -32.3780 C   0  0  0  0  0  0  0  0  0  0  0  0
   -6.8440   18.5060  -32.7360 C   0  0  0  0  0  0  0  0  0  0  0  0
   -7.8100   19.4580  -32.3810 C   0  0  0  0  0  0  0  0  0  0  0  0
   -7.4330   20.6220  -31.6970 C   0  0  0  0  0  0  0  0  0  0  0  0
   -8.3870   21.5830  -31.3660 O   0  0  0  0  0  0  0  0  0  0  0  0
   -7.2190   17.2350  -33.4470 C   0  0  0  0  0  0  0  0  0  0  0  0
   -6.2000   16.8860  -34.5510 C   0  0  0  0  0  0  0  0  0  0  0  0
   -4.7200   17.1880  -34.1940 C   0  0  0  0  0  0  0  0  0  0  0  0
   -4.4980   17.6470  -32.7430 C   0  0  0  0  0  0  0  0  0  0  0  0
   -2.6880   21.6350  -32.5080 C   0  0  0  0  0  0  0  0  0  0  0  0
    1.7810   21.1650  -35.1170 C   0  0  0  0  0  0  0  0  0  0  0  0
    2.8810   22.0240  -35.2170 C   0  0  0  0  0  0  0  0  0  0  0  0
    4.2201   24.5342  -34.6547 H   0  0  0  0  0  0  0  0  0  0  0  0
    4.7041   23.7732  -36.2081 H   0  0  0  0  0  0  0  0  0  0  0  0
    3.6063   25.1950  -36.2081 H   0  0  0  0  0  0  0  0  0  0  0  0
    1.2578   24.8839  -36.1498 H   0  0  0  0  0  0  0  0  0  0  0  0
   -0.6968   23.3494  -35.9921 H   0  0  0  0  0  0  0  0  0  0  0  0
    0.3761   20.4669  -31.5738 H   0  0  0  0  0  0  0  0  0  0  0  0
   -0.1014   21.9240  -29.6239 H   0  0  0  0  0  0  0  0  0  0  0  0
   -2.7420   25.3140  -30.2850 H   0  0  0  0  0  0  0  0  0  0  0  0
   -4.0771   20.0118  -31.3890 H   0  0  0  0  0  0  0  0  0  0  0  0
   -8.8660   19.2912  -32.6398 H   0  0  0  0  0  0  0  0  0  0  0  0
   -8.1310   22.4490  -30.9080 H   0  0  0  0  0  0  0  0  0  0  0  0
   -7.2514   16.4128  -32.7170 H   0  0  0  0  0  0  0  0  0  0  0  0
   -8.2031   17.3787  -33.9171 H   0  0  0  0  0  0  0  0  0  0  0  0
   -6.2865   15.8112  -34.7683 H   0  0  0  0  0  0  0  0  0  0  0  0
   -6.4463   17.5257  -35.4113 H   0  0  0  0  0  0  0  0  0  0  0  0
   -4.1325   16.2728  -34.3592 H   0  0  0  0  0  0  0  0  0  0  0  0
   -4.4050   18.0216  -34.8389 H   0  0  0  0  0  0  0  0  0  0  0  0
   -4.6136   16.7868  -32.0673 H   0  0  0  0  0  0  0  0  0  0  0  0
   -3.4844   18.0634  -32.6475 H   0  0  0  0  0  0  0  0  0  0  0  0
   -3.4064   21.5583  -33.3374 H   0  0  0  0  0  0  0  0  0  0  0  0
    1.9312   20.1152  -34.8249 H   0  0  0  0  0  0  0  0  0  0  0  0
    3.8913   21.6469  -35.0001 H   0  0  0  0  0  0  0  0  0  0  0  0
  1  2  1  0
  2  3  2  0
  3  4  1  0
  4  5  2  0
  5  6  1  0
  6  7  1  0
  7  8  2  0
  7  9  2  0
  7 10  1  0
 10 11  2  0
 11 12  1  0
 12 13  2  0
 13 14  1  0
 14 15  1  0
 14 16  2  0
 14 17  2  0
 13 18  1  0
 18 19  1  0
 19 20  2  0
 19 21  2  0
 19 22  1  0
 22 23  1  0
 23 24  2  0
 24 25  1  0
 25 26  2  0
 26 27  1  0
 27 28  2  0
 28 29  1  0
 26 30  1  0
 30 31  1  0
 31 32  1  0
 32 33  1  0
 18 34  2  0
  5 35  1  0
 35 36  2  0
 36  2  1  0
 34 10  1  0
 28 23  1  0
 33 25  1  0
  1 37  1  0
  1 38  1  0
  1 39  1  0
  3 40  1  0
  4 41  1  0
 11 42  1  0
 12 43  1  0
 15 44  1  0
 24 45  1  0
 27 46  1  0
 29 47  1  0
 30 48  1  0
 30 49  1  0
 31 50  1  0
 31 51  1  0
 32 52  1  0
 32 53  1  0
 33 54  1  0
 33 55  1  0
 34 56  1  0
 35 57  1  0
 36 58  1  0
M  CHG  3   6  -1  15  -1  22  -1
M  END
>  <UniqueID>  (14) 
12

>  <SMILES>  (14) 
Cc1ccc([N-]S(=O)(=O)c2ccc(S([NH-])(=O)=O)c(S(=O)(=O)[N-]c3cc4c(cc3O)CCCC4)c2)cc1

>  <Energy>  (14) 
80.27948636551673

>  <Genealogy>  (14) 
Cc1ccc([N-]S(=O)(=O)c2ccc(S([NH-])(=O)=O)c(S(=O)(=O)[N-]c3cc4c(cc3O)CCCC4)c2)cc1 (protonated)
Cc1ccc([N-]S(=O)(=O)c2ccc(S([NH-])(=O)=O)c(S(=O)(=O)[N-]c3cc4c(cc3O)CCCC4)c2)cc1 (3D coordinates assigned)
Cc1ccc([N-]S(=O)(=O)c2ccc(S([NH-])(=O)=O)c(S(=O)(=O)[N-]c3cc4c(cc3O)CCCC4)c2)cc1 (nonaromatic ring conformer: 80.27948636551673 kcal/mol)

>  <smiles>  (14) 
Cc1ccc(NS(=O)(=O)c2ccc(S(N)(=O)=O)c(S(=O)(=O)Nc3cc4c(cc3O)CCCC4)c2)cc1

>  <score_type>  (14) 
oracle

>  <origin>  (14) 
adgpu

>  <m_score__min__energy>  (14) 
-13.06

>  <m_primary>  (14) 
energy

$$$$
14:0
     RDKit          3D

 39 41  0  0  0  0  0  0  0  0999 V2000
   -4.1100   22.0020  -27.5280 O   0  0  0  0  0  0  0  0  0  0  0  0
   -3.9070   22.9200  -28.3640 C   0  0  0  0  0  0  0  0  0  0  0  0
   -2.7130   23.6430  -28.3390 C   0  0  0  0  0  0  0  0  0  0  0  0
   -2.5230   24.6570  -29.2840 C   0  0  0  0  0  0  0  0  0  0  0  0
   -1.3080   25.4200  -29.2910 N   0  0  0  0  0  0  0  0  0  0  0  0
   -0.9950   26.3690  -28.2240 C   0  0  0  0  0  0  0  0  0  0  0  0
   -0.6500   25.6420  -26.9520 C   0  0  0  0  0  0  0  0  0  0  0  0
    0.1120   24.4620  -26.9950 C   0  0  0  0  0  0  0  0  0  0  0  0
    0.4010   23.7680  -25.8160 C   0  0  0  0  0  0  0  0  0  0  0  0
   -0.0790   24.2380  -24.5910 C   0  0  0  0  0  0  0  0  0  0  0  0
   -0.8510   25.4010  -24.5420 C   0  0  0  0  0  0  0  0  0  0  0  0
   -1.1420   26.1000  -25.7190 C   0  0  0  0  0  0  0  0  0  0  0  0
   -3.5010   24.9120  -30.1950 N   0  0  0  0  0  0  0  0  0  0  0  0
   -4.6560   24.1980  -30.2060 C   0  0  0  0  0  0  0  0  0  0  0  0
   -5.9170   24.5580  -31.4210 S   0  0  0  0  0  0  0  0  0  0  0  0
   -5.6470   23.0030  -32.3320 C   0  0  0  0  0  0  0  0  0  0  0  0
   -6.8590   22.1280  -32.2010 C   0  0  0  0  0  0  0  0  0  0  0  0
   -8.0470   22.6410  -31.6540 C   0  0  0  0  0  0  0  0  0  0  0  0
   -9.1860   21.8350  -31.5640 C   0  0  0  0  0  0  0  0  0  0  0  0
   -9.1500   20.5170  -32.0290 C   0  0  0  0  0  0  0  0  0  0  0  0
   -7.9760   20.0050  -32.5880 C   0  0  0  0  0  0  0  0  0  0  0  0
   -6.8350   20.8070  -32.6790 C   0  0  0  0  0  0  0  0  0  0  0  0
   -4.8530   23.2110  -29.2930 N   0  0  0  0  0  0  0  0  0  0  0  0
   -1.9374   23.4200  -27.5915 H   0  0  0  0  0  0  0  0  0  0  0  0
   -0.6360   25.2900  -30.0840 H   0  0  0  0  0  0  0  0  0  0  0  0
   -0.1386   26.9877  -28.5303 H   0  0  0  0  0  0  0  0  0  0  0  0
   -1.8764   27.0017  -28.0427 H   0  0  0  0  0  0  0  0  0  0  0  0
    0.4822   24.0832  -27.9591 H   0  0  0  0  0  0  0  0  0  0  0  0
    1.0071   22.8508  -25.8530 H   0  0  0  0  0  0  0  0  0  0  0  0
    0.1512   23.6917  -23.6644 H   0  0  0  0  0  0  0  0  0  0  0  0
   -1.2307   25.7680  -23.5770 H   0  0  0  0  0  0  0  0  0  0  0  0
   -1.7578   27.0106  -25.6782 H   0  0  0  0  0  0  0  0  0  0  0  0
   -5.4697   23.2267  -33.3943 H   0  0  0  0  0  0  0  0  0  0  0  0
   -4.7725   22.4818  -31.9154 H   0  0  0  0  0  0  0  0  0  0  0  0
   -8.0812   23.6803  -31.2953 H   0  0  0  0  0  0  0  0  0  0  0  0
  -10.1113   22.2383  -31.1269 H   0  0  0  0  0  0  0  0  0  0  0  0
  -10.0458   19.8830  -31.9548 H   0  0  0  0  0  0  0  0  0  0  0  0
   -7.9499   18.9691  -32.9570 H   0  0  0  0  0  0  0  0  0  0  0  0
   -5.9150   20.4026  -33.1264 H   0  0  0  0  0  0  0  0  0  0  0  0
  1  2  2  0
  2  3  1  0
  3  4  2  0
  4  5  1  0
  5  6  1  0
  6  7  1  0
  7  8  2  0
  8  9  1  0
  9 10  2  0
 10 11  1  0
 11 12  2  0
  4 13  1  0
 13 14  1  0
 14 15  1  0
 15 16  1  0
 16 17  1  0
 17 18  2  0
 18 19  1  0
 19 20  2  0
 20 21  1  0
 21 22  2  0
 14 23  2  0
 23  2  1  0
 12  7  1  0
 22 17  1  0
  3 24  1  0
  5 25  1  0
  6 26  1  0
  6 27  1  0
  8 28  1  0
  9 29  1  0
 10 30  1  0
 11 31  1  0
 12 32  1  0
 16 33  1  0
 16 34  1  0
 18 35  1  0
 19 36  1  0
 20 37  1  0
 21 38  1  0
 22 39  1  0
M  CHG  1  13  -1
M  END
>  <UniqueID>  (15) 
13

>  <SMILES>  (15) 
O=c1cc(NCc2ccccc2)[n-]c(SCc2ccccc2)n1

>  <Energy>  (15) 
35.98474453364313

>  <Genealogy>  (15) 
O=c1cc(NCc2ccccc2)[n-]c(SCc2ccccc2)n1 (protonated)
O=c1cc(NCc2ccccc2)[n-]c(SCc2ccccc2)n1 (3D coordinates assigned)
O=c1cc(NCc2ccccc2)[n-]c(SCc2ccccc2)n1 (optimized conformer: 35.98474453364313 kcal/mol)

>  <smiles>  (15) 
O=c1cc(NCc2ccccc2)[nH]c(SCc2ccccc2)n1

>  <score_type>  (15) 
oracle

>  <origin>  (15) 
adgpu

>  <m_score__min__energy>  (15) 
-9.6999999999999993

>  <m_primary>  (15) 
energy

$$$$
15:0
     RDKit          3D

 58 61  0  0  0  0  0  0  0  0999 V2000
    0.6870   20.6610  -36.1120 C   0  0  0  0  0  0  0  0  0  0  0  0
   -0.2560   20.8460  -34.9210 C   0  0  0  0  0  0  0  0  0  0  0  0
   -0.7660   19.5830  -34.3490 N   0  0  0  0  0  0  0  0  0  0  0  0
   -2.2180   19.4770  -34.0990 C   0  0  0  0  0  0  0  0  0  0  0  0
   -2.8290   20.6900  -33.3870 C   0  0  0  0  0  0  0  0  0  0  0  0
    0.3090   18.7680  -33.2320 S   0  0  0  0  0  0  0  0  0  0  0  0
    0.1050   17.2800  -33.3050 O   0  0  0  0  0  0  0  0  0  0  0  0
    1.7270   19.0570  -33.6360 O   0  0  0  0  0  0  0  0  0  0  0  0
    0.0750   19.3180  -31.5720 C   0  0  0  0  0  0  0  0  0  0  0  0
    0.1210   18.3970  -30.5140 C   0  0  0  0  0  0  0  0  0  0  0  0
    0.0210   18.8390  -29.1910 C   0  0  0  0  0  0  0  0  0  0  0  0
   -0.1060   20.2040  -28.9120 C   0  0  0  0  0  0  0  0  0  0  0  0
   -0.1180   20.6390  -27.5460 N   0  0  0  0  0  0  0  0  0  0  0  0
   -0.9690   21.6670  -27.0180 C   0  0  0  0  0  0  0  0  0  0  0  0
   -1.1260   21.7440  -25.7710 O   0  0  0  0  0  0  0  0  0  0  0  0
   -1.6500   22.6450  -27.8990 C   0  0  0  0  0  0  0  0  0  0  0  0
   -2.8380   22.2750  -28.5500 C   0  0  0  0  0  0  0  0  0  0  0  0
   -3.4840   23.1640  -29.4220 C   0  0  0  0  0  0  0  0  0  0  0  0
   -4.7150   22.7300  -30.1120 C   0  0  0  0  0  0  0  0  0  0  0  0
   -4.8150   21.5140  -30.7130 N   0  0  0  0  0  0  0  0  0  0  0  0
   -6.0670   21.5170  -31.2030 C   0  0  0  0  0  0  0  0  0  0  0  0
   -6.7030   20.5020  -31.9120 C   0  0  0  0  0  0  0  0  0  0  0  0
   -8.0330   20.7210  -32.3190 C   0  0  0  0  0  0  0  0  0  0  0  0
   -8.6850   21.9350  -32.0090 C   0  0  0  0  0  0  0  0  0  0  0  0
   -8.0160   22.9400  -31.2870 C   0  0  0  0  0  0  0  0  0  0  0  0
   -6.6990   22.6890  -30.8990 C   0  0  0  0  0  0  0  0  0  0  0  0
   -5.8600   23.4650  -30.1920 N   0  0  0  0  0  0  0  0  0  0  0  0
   -6.1490   24.7780  -29.6140 C   0  0  0  0  0  0  0  0  0  0  0  0
   -2.9180   24.4290  -29.6650 C   0  0  0  0  0  0  0  0  0  0  0  0
   -3.4920   25.3020  -30.5830 O   0  0  0  0  0  0  0  0  0  0  0  0
   -1.7540   24.8130  -28.9950 C   0  0  0  0  0  0  0  0  0  0  0  0
   -1.1270   23.9370  -28.1050 C   0  0  0  0  0  0  0  0  0  0  0  0
    0.0060   24.3680  -27.4210 O   0  0  0  0  0  0  0  0  0  0  0  0
   -0.2170   21.1180  -29.9730 C   0  0  0  0  0  0  0  0  0  0  0  0
   -0.1300   20.6760  -31.2950 C   0  0  0  0  0  0  0  0  0  0  0  0
    1.7050   20.4613  -35.7461 H   0  0  0  0  0  0  0  0  0  0  0  0
    0.3440   19.8130  -36.7230 H   0  0  0  0  0  0  0  0  0  0  0  0
    0.6898   21.5757  -36.7230 H   0  0  0  0  0  0  0  0  0  0  0  0
    0.2870   21.3872  -34.1322 H   0  0  0  0  0  0  0  0  0  0  0  0
   -1.1305   21.3993  -35.2939 H   0  0  0  0  0  0  0  0  0  0  0  0
   -2.7257   19.3548  -35.0672 H   0  0  0  0  0  0  0  0  0  0  0  0
   -2.3589   18.6161  -33.4289 H   0  0  0  0  0  0  0  0  0  0  0  0
   -2.7585   20.5500  -32.2982 H   0  0  0  0  0  0  0  0  0  0  0  0
   -2.2813   21.5991  -33.6760 H   0  0  0  0  0  0  0  0  0  0  0  0
   -3.8855   20.7910  -33.6760 H   0  0  0  0  0  0  0  0  0  0  0  0
    0.2361   17.3238  -30.7261 H   0  0  0  0  0  0  0  0  0  0  0  0
    0.0423   18.1108  -28.3668 H   0  0  0  0  0  0  0  0  0  0  0  0
   -3.2667   21.2773  -28.3743 H   0  0  0  0  0  0  0  0  0  0  0  0
   -6.1842   19.5608  -32.1464 H   0  0  0  0  0  0  0  0  0  0  0  0
   -8.5676   19.9417  -32.8819 H   0  0  0  0  0  0  0  0  0  0  0  0
   -9.7234   22.0957  -32.3345 H   0  0  0  0  0  0  0  0  0  0  0  0
   -8.5128   23.8892  -31.0373 H   0  0  0  0  0  0  0  0  0  0  0  0
   -6.1334   24.7069  -28.5164 H   0  0  0  0  0  0  0  0  0  0  0  0
   -5.3883   25.5001  -29.9456 H   0  0  0  0  0  0  0  0  0  0  0  0
   -7.1426   25.1139  -29.9456 H   0  0  0  0  0  0  0  0  0  0  0  0
   -1.3279   25.8121  -29.1692 H   0  0  0  0  0  0  0  0  0  0  0  0
   -0.3731   22.1862  -29.7617 H   0  0  0  0  0  0  0  0  0  0  0  0
   -0.2227   21.3963  -32.1212 H   0  0  0  0  0  0  0  0  0  0  0  0
  1  2  1  0
  2  3  1  0
  3  4  1  0
  4  5  1  0
  3  6  1  0
  6  7  2  0
  6  8  2  0
  6  9  1  0
  9 10  2  0
 10 11  1  0
 11 12  2  0
 12 13  1  0
 13 14  1  0
 14 15  2  0
 14 16  1  0
 16 17  2  0
 17 18  1  0
 18 19  1  0
 19 20  2  0
 20 21  1  0
 21 22  2  0
 22 23  1  0
 23 24  2  0
 24 25  1  0
 25 26  2  0
 26 27  1  0
 27 28  1  0
 18 29  2  0
 29 30  1  0
 29 31  1  0
 31 32  2  0
 32 33  1  0
 12 34  1  0
 34 35  2  0
 35  9  1  0
 32 16  1  0
 27 19  1  0
 26 21  1  0
  1 36  1  0
  1 37  1  0
  1 38  1  0
  2 39  1  0
  2 40  1  0
  4 41  1  0
  4 42  1  0
  5 43  1  0
  5 44  1  0
  5 45  1  0
 10 46  1  0
 11 47  1  0
 17 48  1  0
 22 49  1  0
 23 50  1  0
 24 51  1  0
 25 52  1  0
 28 53  1  0
 28 54  1  0
 28 55  1  0
 31 56  1  0
 34 57  1  0
 35 58  1  0
M  CHG  3  13  -1  30  -1  33  -1
M  END
>  <UniqueID>  (16) 
14

>  <SMILES>  (16) 
CCN(CC)S(=O)(=O)c1ccc([N-]C(=O)c2cc(-c3nc4ccccc4n3C)c([O-])cc2[O-])cc1

>  <Energy>  (16) 
120.28362715258774

>  <Genealogy>  (16) 
CCN(CC)S(=O)(=O)c1ccc([N-]C(=O)c2cc(-c3nc4ccccc4n3C)c([O-])cc2[O-])cc1 (protonated)
CCN(CC)S(=O)(=O)c1ccc([N-]C(=O)c2cc(-c3nc4ccccc4n3C)c([O-])cc2[O-])cc1 (3D coordinates assigned)
CCN(CC)S(=O)(=O)c1ccc([N-]C(=O)c2cc(-c3nc4ccccc4n3C)c([O-])cc2[O-])cc1 (optimized conformer: 120.28362715258774 kcal/mol)

>  <smiles>  (16) 
CCN(CC)S(=O)(=O)c1ccc(NC(=O)c2cc(-c3nc4ccccc4n3C)c(O)cc2O)cc1

>  <score_type>  (16) 
oracle

>  <origin>  (16) 
adgpu

>  <m_score__min__energy>  (16) 
-13.68

>  <m_primary>  (16) 
energy

$$$$
16:0
     RDKit          3D

 50 52  0  0  0  0  0  0  0  0999 V2000
   -6.2620   19.1470  -33.7690 C   0  0  0  0  0  0  0  0  0  0  0  0
   -6.9840   18.5340  -32.6450 N   0  0  0  0  0  0  0  0  0  0  0  0
   -6.0360   18.1160  -31.6050 C   0  0  0  0  0  0  0  0  0  0  0  0
   -8.1060   19.6890  -31.9720 S   0  0  0  0  0  0  0  0  0  0  0  0
   -9.0100   20.2100  -33.0540 O   0  0  0  0  0  0  0  0  0  0  0  0
   -8.9530   19.0360  -30.9130 O   0  0  0  0  0  0  0  0  0  0  0  0
   -7.2170   21.0420  -31.2790 C   0  0  0  0  0  0  0  0  0  0  0  0
   -5.8740   21.2580  -31.6170 C   0  0  0  0  0  0  0  0  0  0  0  0
   -5.2070   22.3950  -31.1500 C   0  0  0  0  0  0  0  0  0  0  0  0
   -5.8770   23.3250  -30.3460 C   0  0  0  0  0  0  0  0  0  0  0  0
   -5.0880   24.8480  -29.9460 S   0  0  0  0  0  0  0  0  0  0  0  0
   -6.1350   25.9090  -29.7610 O   0  0  0  0  0  0  0  0  0  0  0  0
   -4.1500   25.2670  -31.0440 O   0  0  0  0  0  0  0  0  0  0  0  0
   -4.1960   24.6430  -28.4730 N   0  0  0  0  0  0  0  0  0  0  0  0
   -3.4740   23.4280  -28.2140 C   0  0  0  0  0  0  0  0  0  0  0  0
   -4.1800   22.2850  -27.8110 C   0  0  0  0  0  0  0  0  0  0  0  0
   -3.5100   21.1050  -27.5090 C   0  0  0  0  0  0  0  0  0  0  0  0
   -2.1200   21.0400  -27.6160 C   0  0  0  0  0  0  0  0  0  0  0  0
   -1.3850   22.1680  -28.0290 C   0  0  0  0  0  0  0  0  0  0  0  0
   -2.0670   23.3750  -28.3460 C   0  0  0  0  0  0  0  0  0  0  0  0
   -1.3300   24.5860  -28.7650 C   0  0  0  0  0  0  0  0  0  0  0  0
   -1.9420   25.6690  -28.9620 O   0  0  0  0  0  0  0  0  0  0  0  0
    0.0520   24.5510  -28.8970 O   0  0  0  0  0  0  0  0  0  0  0  0
    0.1250   22.0480  -27.9760 C   0  0  0  0  0  0  0  0  0  0  0  0
    0.5970   20.7300  -28.6150 C   0  0  0  0  0  0  0  0  0  0  0  0
   -0.2560   19.4930  -28.2370 C   0  0  0  0  0  0  0  0  0  0  0  0
   -1.3780   19.7870  -27.2310 C   0  0  0  0  0  0  0  0  0  0  0  0
   -7.2140   23.0980  -29.9890 C   0  0  0  0  0  0  0  0  0  0  0  0
   -7.8800   21.9610  -30.4560 C   0  0  0  0  0  0  0  0  0  0  0  0
   -5.4773   19.8132  -33.3811 H   0  0  0  0  0  0  0  0  0  0  0  0
   -5.8029   18.3586  -34.3835 H   0  0  0  0  0  0  0  0  0  0  0  0
   -6.9655   19.7279  -34.3835 H   0  0  0  0  0  0  0  0  0  0  0  0
   -6.4715   18.3080  -30.6133 H   0  0  0  0  0  0  0  0  0  0  0  0
   -5.8254   17.0416  -31.7112 H   0  0  0  0  0  0  0  0  0  0  0  0
   -5.1007   18.6852  -31.7112 H   0  0  0  0  0  0  0  0  0  0  0  0
   -5.3437   20.5319  -32.2507 H   0  0  0  0  0  0  0  0  0  0  0  0
   -4.1522   22.5592  -31.4153 H   0  0  0  0  0  0  0  0  0  0  0  0
   -4.3680   25.3230  -27.7010 H   0  0  0  0  0  0  0  0  0  0  0  0
   -5.2766   22.3227  -27.7330 H   0  0  0  0  0  0  0  0  0  0  0  0
   -4.0771   20.2199  -27.1848 H   0  0  0  0  0  0  0  0  0  0  0  0
    0.5722   22.8923  -28.5212 H   0  0  0  0  0  0  0  0  0  0  0  0
    0.4403   22.0589  -26.9222 H   0  0  0  0  0  0  0  0  0  0  0  0
    0.5666   20.8476  -29.7083 H   0  0  0  0  0  0  0  0  0  0  0  0
    1.6106   20.5410  -28.2316 H   0  0  0  0  0  0  0  0  0  0  0  0
   -0.7116   19.0942  -29.1554 H   0  0  0  0  0  0  0  0  0  0  0  0
    0.4234   18.7760  -27.7528 H   0  0  0  0  0  0  0  0  0  0  0  0
   -2.0808   18.9409  -27.2157 H   0  0  0  0  0  0  0  0  0  0  0  0
   -0.9331   19.9300  -26.2352 H   0  0  0  0  0  0  0  0  0  0  0  0
   -7.7391   23.8152  -29.3410 H   0  0  0  0  0  0  0  0  0  0  0  0
   -8.9295   21.7874  -30.1758 H   0  0  0  0  0  0  0  0  0  0  0  0
  1  2  1  0
  2  3  1  0
  2  4  1  0
  4  5  2  0
  4  6  2  0
  4  7  1  0
  7  8  2  0
  8  9  1  0
  9 10  2  0
 10 11  1  0
 11 12  2  0
 11 13  2  0
 11 14  1  0
 14 15  1  0
 15 16  2  0
 16 17  1  0
 17 18  2  0
 18 19  1  0
 19 20  2  0
 20 21  1  0
 21 22  2  0
 21 23  1  0
 19 24  1  0
 24 25  1  0
 25 26  1  0
 26 27  1  0
 10 28  1  0
 28 29  2  0
 29  7  1  0
 20 15  1  0
 27 18  1  0
  1 30  1  0
  1 31  1  0
  1 32  1  0
  3 33  1  0
  3 34  1  0
  3 35  1  0
  8 36  1  0
  9 37  1  0
 14 38  1  0
 16 39  1  0
 17 40  1  0
 24 41  1  0
 24 42  1  0
 25 43  1  0
 25 44  1  0
 26 45  1  0
 26 46  1  0
 27 47  1  0
 27 48  1  0
 28 49  1  0
 29 50  1  0
M  CHG  1  23  -1
M  END
>  <UniqueID>  (17) 
15

>  <SMILES>  (17) 
CN(C)S(=O)(=O)c1ccc(S(=O)(=O)Nc2ccc3c(c2C(=O)[O-])CCCC3)cc1

>  <Energy>  (17) 
65.17556450244295

>  <Genealogy>  (17) 
CN(C)S(=O)(=O)c1ccc(S(=O)(=O)Nc2ccc3c(c2C(=O)[O-])CCCC3)cc1 (protonated)
CN(C)S(=O)(=O)c1ccc(S(=O)(=O)Nc2ccc3c(c2C(=O)[O-])CCCC3)cc1 (3D coordinates assigned)
CN(C)S(=O)(=O)c1ccc(S(=O)(=O)Nc2ccc3c(c2C(=O)[O-])CCCC3)cc1 (nonaromatic ring conformer: 65.17556450244295 kcal/mol)

>  <smiles>  (17) 
CN(C)S(=O)(=O)c1ccc(S(=O)(=O)Nc2ccc3c(c2C(=O)O)CCCC3)cc1

>  <score_type>  (17) 
oracle

>  <origin>  (17) 
adgpu

>  <m_score__min__energy>  (17) 
-12.880000000000001

>  <m_primary>  (17) 
energy

$$$$
17:0
     RDKit          3D

 56 59  0  0  0  0  0  0  0  0999 V2000
   -5.3560   15.6060  -34.1990 C   0  0  0  0  0  0  0  0  0  0  0  0
   -5.7260   16.9580  -33.6620 C   0  0  0  0  0  0  0  0  0  0  0  0
   -5.7180   18.0800  -34.5050 C   0  0  0  0  0  0  0  0  0  0  0  0
   -6.0980   19.3320  -34.0160 C   0  0  0  0  0  0  0  0  0  0  0  0
   -6.5110   19.4760  -32.6820 C   0  0  0  0  0  0  0  0  0  0  0  0
   -6.8880   20.8080  -32.1580 C   0  0  0  0  0  0  0  0  0  0  0  0
   -5.8900   21.6140  -31.5840 C   0  0  0  0  0  0  0  0  0  0  0  0
   -6.2010   22.8680  -31.0310 C   0  0  0  0  0  0  0  0  0  0  0  0
   -5.1460   23.7150  -30.4240 C   0  0  0  0  0  0  0  0  0  0  0  0
   -4.4640   24.4810  -31.1590 O   0  0  0  0  0  0  0  0  0  0  0  0
   -4.9230   23.7100  -29.0030 N   0  0  0  0  0  0  0  0  0  0  0  0
   -3.7000   24.1440  -28.3840 C   0  0  0  0  0  0  0  0  0  0  0  0
   -3.6620   24.5490  -27.0380 C   0  0  0  0  0  0  0  0  0  0  0  0
   -2.4660   24.9930  -26.4670 C   0  0  0  0  0  0  0  0  0  0  0  0
   -1.2960   25.0580  -27.2360 C   0  0  0  0  0  0  0  0  0  0  0  0
    0.2170   25.6130  -26.5110 S   0  0  0  0  0  0  0  0  0  0  0  0
    1.3460   25.3420  -27.4670 O   0  0  0  0  0  0  0  0  0  0  0  0
    0.4750   24.8270  -25.2550 O   0  0  0  0  0  0  0  0  0  0  0  0
    0.2000   27.3160  -26.1210 N   0  0  0  0  0  0  0  0  0  0  0  0
   -0.7210   27.6210  -25.0290 C   0  0  0  0  0  0  0  0  0  0  0  0
   -1.1190   29.0790  -25.1990 C   0  0  0  0  0  0  0  0  0  0  0  0
   -0.8130   29.4130  -26.6520 C   0  0  0  0  0  0  0  0  0  0  0  0
   -0.2450   28.1340  -27.2480 C   0  0  0  0  0  0  0  0  0  0  0  0
   -1.3330   24.6630  -28.5790 C   0  0  0  0  0  0  0  0  0  0  0  0
   -2.5280   24.2200  -29.1530 C   0  0  0  0  0  0  0  0  0  0  0  0
   -7.5290   23.3190  -31.0740 C   0  0  0  0  0  0  0  0  0  0  0  0
   -8.5260   22.5320  -31.6520 C   0  0  0  0  0  0  0  0  0  0  0  0
   -8.2210   21.2810  -32.2040 C   0  0  0  0  0  0  0  0  0  0  0  0
   -9.2640   20.5320  -32.8450 N   0  0  0  0  0  0  0  0  0  0  0  0
   -6.5240   18.3520  -31.8400 C   0  0  0  0  0  0  0  0  0  0  0  0
   -6.1450   17.0990  -32.3310 C   0  0  0  0  0  0  0  0  0  0  0  0
   -5.1677   14.9179  -33.3617 H   0  0  0  0  0  0  0  0  0  0  0  0
   -6.1809   15.2176  -34.8144 H   0  0  0  0  0  0  0  0  0  0  0  0
   -4.4483   15.6917  -34.8144 H   0  0  0  0  0  0  0  0  0  0  0  0
   -5.4110   17.9729  -35.5559 H   0  0  0  0  0  0  0  0  0  0  0  0
   -6.0735   20.2092  -34.6792 H   0  0  0  0  0  0  0  0  0  0  0  0
   -4.8494   21.2578  -31.5673 H   0  0  0  0  0  0  0  0  0  0  0  0
   -5.7320   23.4830  -28.3820 H   0  0  0  0  0  0  0  0  0  0  0  0
   -4.5787   24.5162  -26.4310 H   0  0  0  0  0  0  0  0  0  0  0  0
   -2.4429   25.2929  -25.4089 H   0  0  0  0  0  0  0  0  0  0  0  0
   -1.6091   26.9746  -25.0883 H   0  0  0  0  0  0  0  0  0  0  0  0
   -0.2509   27.4471  -24.0499 H   0  0  0  0  0  0  0  0  0  0  0  0
   -2.1908   29.2125  -24.9906 H   0  0  0  0  0  0  0  0  0  0  0  0
   -0.5751   29.7359  -24.5043 H   0  0  0  0  0  0  0  0  0  0  0  0
   -1.7310   29.7096  -27.1805 H   0  0  0  0  0  0  0  0  0  0  0  0
   -0.1090   30.2536  -26.7396 H   0  0  0  0  0  0  0  0  0  0  0  0
   -1.0205   27.6038  -27.8202 H   0  0  0  0  0  0  0  0  0  0  0  0
    0.5850   28.3492  -27.9370 H   0  0  0  0  0  0  0  0  0  0  0  0
   -0.4163   24.7016  -29.1858 H   0  0  0  0  0  0  0  0  0  0  0  0
   -2.5502   23.9292  -30.2136 H   0  0  0  0  0  0  0  0  0  0  0  0
   -7.7862   24.3004  -30.6489 H   0  0  0  0  0  0  0  0  0  0  0  0
   -9.5631   22.8980  -31.6744 H   0  0  0  0  0  0  0  0  0  0  0  0
  -10.2210   20.4950  -32.4300 H   0  0  0  0  0  0  0  0  0  0  0  0
   -9.1240   20.0660  -33.7680 H   0  0  0  0  0  0  0  0  0  0  0  0
   -6.8337   18.4579  -30.7898 H   0  0  0  0  0  0  0  0  0  0  0  0
   -6.1756   16.2199  -31.6705 H   0  0  0  0  0  0  0  0  0  0  0  0
  1  2  1  0
  2  3  2  0
  3  4  1  0
  4  5  2  0
  5  6  1  0
  6  7  2  0
  7  8  1  0
  8  9  1  0
  9 10  2  0
  9 11  1  0
 11 12  1  0
 12 13  2  0
 13 14  1  0
 14 15  2  0
 15 16  1  0
 16 17  2  0
 16 18  2  0
 16 19  1  0
 19 20  1  0
 20 21  1  0
 21 22  1  0
 22 23  1  0
 15 24  1  0
 24 25  2  0
  8 26  2  0
 26 27  1  0
 27 28  2  0
 28 29  1  0
  5 30  1  0
 30 31  2  0
 31  2  1  0
 28  6  1  0
 25 12  1  0
 23 19  1  0
  1 32  1  0
  1 33  1  0
  1 34  1  0
  3 35  1  0
  4 36  1  0
  7 37  1  0
 11 38  1  0
 13 39  1  0
 14 40  1  0
 20 41  1  0
 20 42  1  0
 21 43  1  0
 21 44  1  0
 22 45  1  0
 22 46  1  0
 23 47  1  0
 23 48  1  0
 24 49  1  0
 25 50  1  0
 26 51  1  0
 27 52  1  0
 29 53  1  0
 29 54  1  0
 30 55  1  0
 31 56  1  0
M  END
>  <UniqueID>  (18) 
16

>  <SMILES>  (18) 
Cc1ccc(-c2cc(C(=O)Nc3ccc(S(=O)(=O)N4CCCC4)cc3)ccc2N)cc1

>  <Energy>  (18) 
72.33532089933695

>  <Genealogy>  (18) 
Cc1ccc(-c2cc(C(=O)Nc3ccc(S(=O)(=O)N4CCCC4)cc3)ccc2N)cc1 (3D coordinates assigned)
Cc1ccc(-c2cc(C(=O)Nc3ccc(S(=O)(=O)N4CCCC4)cc3)ccc2N)cc1 (nonaromatic ring conformer: 72.33532089933695 kcal/mol)

>  <smiles>  (18) 
Cc1ccc(-c2cc(C(=O)Nc3ccc(S(=O)(=O)N4CCCC4)cc3)ccc2N)cc1

>  <score_type>  (18) 
oracle

>  <origin>  (18) 
adgpu

>  <m_score__min__energy>  (18) 
-11.529999999999999

>  <m_primary>  (18) 
energy

$$$$
18:0
     RDKit          3D

 54 57  0  0  0  0  0  0  0  0999 V2000
    1.7330   23.7110  -27.0810 C   0  0  0  0  0  0  0  0  0  0  0  0
    0.6490   24.5300  -27.6150 N   0  0  0  0  0  0  0  0  0  0  0  0
    0.6010   25.8450  -27.4460 N   0  0  0  0  0  0  0  0  0  0  0  0
   -0.5420   26.3000  -28.0000 C   0  0  0  0  0  0  0  0  0  0  0  0
   -1.2330   25.2310  -28.5380 C   0  0  0  0  0  0  0  0  0  0  0  0
   -2.5040   25.2600  -29.2010 N   0  0  0  0  0  0  0  0  0  0  0  0
   -3.6420   24.4660  -28.8440 C   0  0  0  0  0  0  0  0  0  0  0  0
   -3.7400   24.0460  -27.6610 O   0  0  0  0  0  0  0  0  0  0  0  0
   -4.6840   24.0910  -29.8240 C   0  0  0  0  0  0  0  0  0  0  0  0
   -5.8060   24.9050  -30.0530 C   0  0  0  0  0  0  0  0  0  0  0  0
   -6.7660   24.5080  -30.9850 C   0  0  0  0  0  0  0  0  0  0  0  0
   -6.6020   23.3150  -31.6900 C   0  0  0  0  0  0  0  0  0  0  0  0
   -7.5270   22.9530  -32.6180 F   0  0  0  0  0  0  0  0  0  0  0  0
   -5.4560   22.5320  -31.4600 C   0  0  0  0  0  0  0  0  0  0  0  0
   -5.2260   21.2710  -32.1960 C   0  0  0  0  0  0  0  0  0  0  0  0
   -6.2770   20.3490  -32.3620 C   0  0  0  0  0  0  0  0  0  0  0  0
   -7.5020   20.5960  -31.8370 F   0  0  0  0  0  0  0  0  0  0  0  0
   -6.0620   19.1560  -33.0640 C   0  0  0  0  0  0  0  0  0  0  0  0
   -4.8050   18.8800  -33.6080 C   0  0  0  0  0  0  0  0  0  0  0  0
   -3.7610   19.7960  -33.4610 C   0  0  0  0  0  0  0  0  0  0  0  0
   -3.9630   20.9910  -32.7600 C   0  0  0  0  0  0  0  0  0  0  0  0
   -2.9480   21.8920  -32.6780 F   0  0  0  0  0  0  0  0  0  0  0  0
   -4.5320   22.9460  -30.5460 N   0  0  0  0  0  0  0  0  0  0  0  0
   -0.4560   24.1200  -28.2840 C   0  0  0  0  0  0  0  0  0  0  0  0
   -0.7640   22.7580  -28.6620 N   0  0  0  0  0  0  0  0  0  0  0  0
   -0.4250   22.3010  -30.0180 C   0  0  0  0  0  0  0  0  0  0  0  0
   -1.1560   20.9980  -30.4350 C   0  0  0  0  0  0  0  0  0  0  0  0
   -0.8040   19.6870  -29.6810 C   0  0  1  0  0  0  0  0  0  0  0  0
   -0.2150   18.6870  -30.5880 N   0  0  0  0  0  0  0  0  0  0  0  0
    0.0200   19.8680  -28.3720 C   0  0  1  0  0  0  0  0  0  0  0  0
    1.2640   20.4180  -28.6600 F   0  0  0  0  0  0  0  0  0  0  0  0
   -0.6480   20.6770  -27.2460 C   0  0  0  0  0  0  0  0  0  0  0  0
   -1.4830   21.8780  -27.7200 C   0  0  0  0  0  0  0  0  0  0  0  0
    1.7026   23.7340  -25.9817 H   0  0  0  0  0  0  0  0  0  0  0  0
    1.6152   22.6743  -27.4295 H   0  0  0  0  0  0  0  0  0  0  0  0
    2.6980   24.1075  -27.4295 H   0  0  0  0  0  0  0  0  0  0  0  0
   -0.8700   27.3498  -28.0201 H   0  0  0  0  0  0  0  0  0  0  0  0
   -5.9270   25.8490  -29.5014 H   0  0  0  0  0  0  0  0  0  0  0  0
   -7.6517   25.1354  -31.1638 H   0  0  0  0  0  0  0  0  0  0  0  0
   -6.8840   18.4354  -33.1871 H   0  0  0  0  0  0  0  0  0  0  0  0
   -4.6373   17.9394  -34.1531 H   0  0  0  0  0  0  0  0  0  0  0  0
   -2.7755   19.5776  -33.8980 H   0  0  0  0  0  0  0  0  0  0  0  0
   -0.6953   23.0946  -30.7302 H   0  0  0  0  0  0  0  0  0  0  0  0
    0.6530   22.0824  -30.0247 H   0  0  0  0  0  0  0  0  0  0  0  0
   -2.2340   21.1717  -30.3019 H   0  0  0  0  0  0  0  0  0  0  0  0
   -0.8233   20.8168  -31.4677 H   0  0  0  0  0  0  0  0  0  0  0  0
   -1.7693   19.3000  -29.3226 H   0  0  0  0  0  0  0  0  0  0  0  0
   -0.9290   18.4200  -31.3040 H   0  0  0  0  0  0  0  0  0  0  0  0
    0.0200   17.8110  -30.0760 H   0  0  0  0  0  0  0  0  0  0  0  0
    0.1067   18.8473  -27.9712 H   0  0  0  0  0  0  0  0  0  0  0  0
   -1.3099   20.0005  -26.6854 H   0  0  0  0  0  0  0  0  0  0  0  0
    0.1690   21.0904  -26.6364 H   0  0  0  0  0  0  0  0  0  0  0  0
   -2.3873   21.4987  -28.2185 H   0  0  0  0  0  0  0  0  0  0  0  0
   -1.7195   22.4799  -26.8302 H   0  0  0  0  0  0  0  0  0  0  0  0
  1  2  1  0
  2  3  1  0
  3  4  2  0
  4  5  1  0
  5  6  1  0
  6  7  1  0
  7  8  2  0
  7  9  1  0
  9 10  2  0
 10 11  1  0
 11 12  2  0
 12 13  1  0
 12 14  1  0
 14 15  1  0
 15 16  2  0
 16 17  1  0
 16 18  1  0
 18 19  2  0
 19 20  1  0
 20 21  2  0
 21 22  1  0
 14 23  2  0
  5 24  2  0
 24 25  1  0
 25 26  1  0
 26 27  1  0
 27 28  1  0
 28 29  1  0
 28 30  1  0
 30 31  1  0
 30 32  1  0
 32 33  1  0
 24  2  1  0
 33 25  1  0
 23  9  1  0
 21 15  1  0
  1 34  1  0
  1 35  1  0
  1 36  1  0
  4 37  1  0
 10 38  1  0
 11 39  1  0
 18 40  1  0
 19 41  1  0
 20 42  1  0
 26 43  1  0
 26 44  1  0
 27 45  1  0
 27 46  1  0
 28 47  1  1
 29 48  1  0
 29 49  1  0
 30 50  1  1
 32 51  1  0
 32 52  1  0
 33 53  1  0
 33 54  1  0
M  CHG  1   6  -1
M  END
>  <UniqueID>  (19) 
17

>  <SMILES>  (19) 
Cn1ncc([N-]C(=O)c2ccc(F)c(-c3c(F)cccc3F)n2)c1N1CC[C@@H](N)[C@@H](F)CC1

>  <Energy>  (19) 
116.49342196025283

>  <Genealogy>  (19) 
Cn1ncc([N-]C(=O)c2ccc(F)c(-c3c(F)cccc3F)n2)c1N1CCC(N)C(F)CC1 (protonated)
Cn1ncc([N-]C(=O)c2ccc(F)c(-c3c(F)cccc3F)n2)c1N1CC[C@@H](N)[C@@H](F)CC1 (chirality)
Cn1ncc([N-]C(=O)c2ccc(F)c(-c3c(F)cccc3F)n2)c1N1CC[C@@H](N)[C@@H](F)CC1 (3D coordinates assigned)
Cn1ncc([N-]C(=O)c2ccc(F)c(-c3c(F)cccc3F)n2)c1N1CC[C@@H](N)[C@@H](F)CC1 (nonaromatic ring conformer: 116.49342196025283 kcal/mol)

>  <smiles>  (19) 
Cn1ncc(NC(=O)c2ccc(F)c(-c3c(F)cccc3F)n2)c1N1CCC(N)C(F)CC1

>  <score_type>  (19) 
oracle

>  <origin>  (19) 
adgpu

>  <m_score__min__energy>  (19) 
-7.8099999999999996

>  <m_primary>  (19) 
energy

$$$$
19:0
     RDKit          3D

 66 70  0  0  0  0  0  0  0  0999 V2000
   -3.7060   22.4140  -32.6760 O   0  0  0  0  0  0  0  0  0  0  0  0
   -4.3310   22.5220  -31.3130 S   0  0  0  0  0  0  0  0  0  0  0  0
   -4.9300   21.1970  -30.9330 O   0  0  0  0  0  0  0  0  0  0  0  0
   -3.0830   22.9210  -30.1300 C   0  0  0  0  0  0  0  0  0  0  0  0
   -2.3390   21.8950  -29.5310 C   0  0  0  0  0  0  0  0  0  0  0  0
   -1.3120   22.1970  -28.6270 C   0  0  0  0  0  0  0  0  0  0  0  0
   -0.3590   20.8990  -27.9230 S   0  0  0  0  0  0  0  0  0  0  0  0
   -1.2930   19.9190  -27.2750 O   0  0  0  0  0  0  0  0  0  0  0  0
    0.5730   21.4340  -26.8720 O   0  0  0  0  0  0  0  0  0  0  0  0
    0.5750   20.1100  -29.1600 N   0  0  0  0  0  0  0  0  0  0  0  0
    1.9450   19.6770  -28.8870 C   0  0  0  0  0  0  0  0  0  0  0  0
    1.9430   18.3630  -28.1540 C   0  0  0  0  0  0  0  0  0  0  0  0
    3.1420   17.8100  -27.6830 C   0  0  0  0  0  0  0  0  0  0  0  0
    3.1240   16.6150  -26.9610 C   0  0  0  0  0  0  0  0  0  0  0  0
    1.9050   15.9780  -26.7220 C   0  0  0  0  0  0  0  0  0  0  0  0
    0.7500   16.5180  -27.1940 N   0  0  0  0  0  0  0  0  0  0  0  0
    0.7410   17.6820  -27.8970 C   0  0  0  0  0  0  0  0  0  0  0  0
   -0.0280   19.8500  -30.4340 C   0  0  0  0  0  0  0  0  0  0  0  0
   -0.4840   18.5650  -30.7460 C   0  0  0  0  0  0  0  0  0  0  0  0
   -1.1290   18.3230  -31.9640 C   0  0  0  0  0  0  0  0  0  0  0  0
   -1.3180   19.3700  -32.8900 C   0  0  0  0  0  0  0  0  0  0  0  0
   -2.0370   19.1990  -34.0860 O   0  0  0  0  0  0  0  0  0  0  0  0
   -3.3960   18.8820  -34.1560 C   0  0  0  0  0  0  0  0  0  0  0  0
   -4.3240   19.7090  -33.5130 C   0  0  0  0  0  0  0  0  0  0  0  0
   -5.6840   19.3960  -33.5410 C   0  0  0  0  0  0  0  0  0  0  0  0
   -6.1260   18.2710  -34.2450 C   0  0  0  0  0  0  0  0  0  0  0  0
   -5.2070   17.4560  -34.9110 C   0  0  0  0  0  0  0  0  0  0  0  0
   -3.8440   17.7600  -34.8690 C   0  0  0  0  0  0  0  0  0  0  0  0
   -0.8300   20.6470  -32.5830 C   0  0  0  0  0  0  0  0  0  0  0  0
   -0.1940   20.8870  -31.3630 C   0  0  0  0  0  0  0  0  0  0  0  0
   -1.0300   23.5350  -28.3210 C   0  0  0  0  0  0  0  0  0  0  0  0
   -1.7690   24.5620  -28.9160 C   0  0  0  0  0  0  0  0  0  0  0  0
   -2.7870   24.2610  -29.8240 C   0  0  0  0  0  0  0  0  0  0  0  0
   -3.4890   25.3000  -30.4230 O   0  0  0  0  0  0  0  0  0  0  0  0
   -5.5580   23.7720  -31.3130 N   0  0  0  0  0  0  0  0  0  0  0  0
   -6.5410   23.5810  -32.3980 C   0  0  0  0  0  0  0  0  0  0  0  0
   -7.7700   22.7590  -31.9550 C   0  0  0  0  0  0  0  0  0  0  0  0
   -7.4810   21.9980  -30.8040 O   0  0  0  0  0  0  0  0  0  0  0  0
   -7.2720   22.8650  -29.7070 C   0  0  0  0  0  0  0  0  0  0  0  0
   -6.1960   23.9380  -29.9940 C   0  0  0  0  0  0  0  0  0  0  0  0
   -2.5630   20.8454  -29.7724 H   0  0  0  0  0  0  0  0  0  0  0  0
    2.4848   19.5606  -29.8383 H   0  0  0  0  0  0  0  0  0  0  0  0
    2.4408   20.4340  -28.2615 H   0  0  0  0  0  0  0  0  0  0  0  0
    4.0973   18.3177  -27.8823 H   0  0  0  0  0  0  0  0  0  0  0  0
    4.0613   16.1797  -26.5842 H   0  0  0  0  0  0  0  0  0  0  0  0
    1.8789   15.0381  -26.1511 H   0  0  0  0  0  0  0  0  0  0  0  0
   -0.2108   18.0920  -28.2659 H   0  0  0  0  0  0  0  0  0  0  0  0
   -0.3351   17.7420  -30.0315 H   0  0  0  0  0  0  0  0  0  0  0  0
   -1.4904   17.3113  -32.2004 H   0  0  0  0  0  0  0  0  0  0  0  0
   -3.9802   20.6096  -32.9832 H   0  0  0  0  0  0  0  0  0  0  0  0
   -6.4070   20.0330  -33.0103 H   0  0  0  0  0  0  0  0  0  0  0  0
   -7.1983   18.0276  -34.2743 H   0  0  0  0  0  0  0  0  0  0  0  0
   -5.5568   16.5747  -35.4686 H   0  0  0  0  0  0  0  0  0  0  0  0
   -3.1215   17.1190  -35.3955 H   0  0  0  0  0  0  0  0  0  0  0  0
   -0.9486   21.4660  -33.3077 H   0  0  0  0  0  0  0  0  0  0  0  0
    0.1788   21.8952  -31.1296 H   0  0  0  0  0  0  0  0  0  0  0  0
   -0.2255   23.7779  -27.6112 H   0  0  0  0  0  0  0  0  0  0  0  0
   -1.5480   25.6107  -28.6682 H   0  0  0  0  0  0  0  0  0  0  0  0
   -6.8837   24.5689  -32.7395 H   0  0  0  0  0  0  0  0  0  0  0  0
   -6.0412   23.0214  -33.2024 H   0  0  0  0  0  0  0  0  0  0  0  0
   -8.6007   23.4451  -31.7333 H   0  0  0  0  0  0  0  0  0  0  0  0
   -8.0441   22.0722  -32.7693 H   0  0  0  0  0  0  0  0  0  0  0  0
   -8.2201   23.3708  -29.4720 H   0  0  0  0  0  0  0  0  0  0  0  0
   -6.9177   22.2551  -28.8629 H   0  0  0  0  0  0  0  0  0  0  0  0
   -6.6703   24.9298  -29.9558 H   0  0  0  0  0  0  0  0  0  0  0  0
   -5.4106   23.8303  -29.2314 H   0  0  0  0  0  0  0  0  0  0  0  0
  1  2  2  0
  2  3  2  0
  2  4  1  0
  4  5  2  0
  5  6  1  0
  6  7  1  0
  7  8  2  0
  7  9  2  0
  7 10  1  0
 10 11  1  0
 11 12  1  0
 12 13  2  0
 13 14  1  0
 14 15  2  0
 15 16  1  0
 16 17  2  0
 10 18  1  0
 18 19  2  0
 19 20  1  0
 20 21  2  0
 21 22  1  0
 22 23  1  0
 23 24  2  0
 24 25  1  0
 25 26  2  0
 26 27  1  0
 27 28  2  0
 21 29  1  0
 29 30  2  0
  6 31  2  0
 31 32  1  0
 32 33  2  0
 33 34  1  0
  2 35  1  0
 35 36  1  0
 36 37  1  0
 37 38  1  0
 38 39  1  0
 39 40  1  0
 33  4  1  0
 40 35  1  0
 17 12  1  0
 30 18  1  0
 28 23  1  0
  5 41  1  0
 11 42  1  0
 11 43  1  0
 13 44  1  0
 14 45  1  0
 15 46  1  0
 17 47  1  0
 19 48  1  0
 20 49  1  0
 24 50  1  0
 25 51  1  0
 26 52  1  0
 27 53  1  0
 28 54  1  0
 29 55  1  0
 30 56  1  0
 31 57  1  0
 32 58  1  0
 36 59  1  0
 36 60  1  0
 37 61  1  0
 37 62  1  0
 39 63  1  0
 39 64  1  0
 40 65  1  0
 40 66  1  0
M  CHG  1  34  -1
M  END
>  <UniqueID>  (20) 
18

>  <SMILES>  (20) 
O=S(=O)(c1cc(S(=O)(=O)N(Cc2cccnc2)c2ccc(Oc3ccccc3)cc2)ccc1[O-])N1CCOCC1

>  <Energy>  (20) 
94.350606248354

>  <Genealogy>  (20) 
O=S(=O)(c1cc(S(=O)(=O)N(Cc2cccnc2)c2ccc(Oc3ccccc3)cc2)ccc1[O-])N1CCOCC1 (protonated)
O=S(=O)(c1cc(S(=O)(=O)N(Cc2cccnc2)c2ccc(Oc3ccccc3)cc2)ccc1[O-])N1CCOCC1 (3D coordinates assigned)
O=S(=O)(c1cc(S(=O)(=O)N(Cc2cccnc2)c2ccc(Oc3ccccc3)cc2)ccc1[O-])N1CCOCC1 (nonaromatic ring conformer: 94.350606248354 kcal/mol)

>  <smiles>  (20) 
O=S(=O)(c1cc(S(=O)(=O)N(Cc2cccnc2)c2ccc(Oc3ccccc3)cc2)ccc1O)N1CCOCC1

>  <score_type>  (20) 
oracle

>  <origin>  (20) 
adgpu

>  <m_score__min__energy>  (20) 
-13.539999999999999

>  <m_primary>  (20) 
energy

$$$$
20:0
     RDKit          3D

 53 56  0  0  0  0  0  0  0  0999 V2000
   -5.1500   25.3150  -31.5870 O   0  0  0  0  0  0  0  0  0  0  0  0
   -4.7080   24.7080  -30.5760 C   0  0  0  0  0  0  0  0  0  0  0  0
   -5.3320   23.4840  -30.1730 N   0  0  0  0  0  0  0  0  0  0  0  0
   -5.5390   22.3290  -30.9990 C   0  0  0  0  0  0  0  0  0  0  0  0
   -6.8060   22.1170  -31.5550 C   0  0  0  0  0  0  0  0  0  0  0  0
   -7.0530   20.9930  -32.3480 C   0  0  0  0  0  0  0  0  0  0  0  0
   -6.0380   20.0530  -32.5750 C   0  0  0  0  0  0  0  0  0  0  0  0
   -6.3540   18.6230  -33.5620 S   0  0  0  0  0  0  0  0  0  0  0  0
   -7.7520   18.1360  -33.2960 O   0  0  0  0  0  0  0  0  0  0  0  0
   -6.2600   18.9940  -35.0160 O   0  0  0  0  0  0  0  0  0  0  0  0
   -5.2210   17.3350  -33.2180 N   0  0  0  0  0  0  0  0  0  0  0  0
   -5.0520   16.4300  -34.3770 C   0  0  0  0  0  0  0  0  0  0  0  0
   -5.7740   15.0870  -34.1720 C   0  0  0  0  0  0  0  0  0  0  0  0
   -5.3350   14.3840  -33.0170 O   0  0  0  0  0  0  0  0  0  0  0  0
   -4.9610   15.2320  -31.9370 C   0  0  0  0  0  0  0  0  0  0  0  0
   -5.6040   16.6270  -31.9820 C   0  0  0  0  0  0  0  0  0  0  0  0
   -4.7750   20.2510  -32.0040 C   0  0  0  0  0  0  0  0  0  0  0  0
   -4.5260   21.3760  -31.2120 C   0  0  0  0  0  0  0  0  0  0  0  0
   -3.5900   25.2320  -29.8490 N   0  0  0  0  0  0  0  0  0  0  0  0
   -2.5590   24.4500  -29.2300 C   0  0  0  0  0  0  0  0  0  0  0  0
   -2.7030   23.0640  -29.2160 C   0  0  0  0  0  0  0  0  0  0  0  0
   -1.7150   22.2570  -28.6630 C   0  0  0  0  0  0  0  0  0  0  0  0
   -0.5710   22.8230  -28.0930 C   0  0  0  0  0  0  0  0  0  0  0  0
    0.6370   21.7030  -27.4700 Cl  0  0  0  0  0  0  0  0  0  0  0  0
   -0.4040   24.2300  -28.0810 C   0  0  0  0  0  0  0  0  0  0  0  0
    0.9950   24.9830  -27.2770 S   0  0  0  0  0  0  0  0  0  0  0  0
    1.4660   24.1010  -26.1550 O   0  0  0  0  0  0  0  0  0  0  0  0
    2.1470   25.1420  -28.2290 O   0  0  0  0  0  0  0  0  0  0  0  0
    0.4890   26.5680  -26.6090 C   0  0  0  0  0  0  0  0  0  0  0  0
    0.4960   26.6590  -25.0920 C   0  0  0  0  0  0  0  0  0  0  0  0
   -0.8230   26.5480  -25.8420 C   0  0  0  0  0  0  0  0  0  0  0  0
   -1.3790   25.0370  -28.7270 C   0  0  0  0  0  0  0  0  0  0  0  0
   -1.1830   26.4060  -28.9350 O   0  0  0  0  0  0  0  0  0  0  0  0
   -7.6130   22.8403  -31.3664 H   0  0  0  0  0  0  0  0  0  0  0  0
   -8.0470   20.8454  -32.7955 H   0  0  0  0  0  0  0  0  0  0  0  0
   -5.4618   16.9200  -35.2725 H   0  0  0  0  0  0  0  0  0  0  0  0
   -3.9777   16.2233  -34.4918 H   0  0  0  0  0  0  0  0  0  0  0  0
   -6.8522   15.2815  -34.0737 H   0  0  0  0  0  0  0  0  0  0  0  0
   -5.5447   14.4570  -35.0441 H   0  0  0  0  0  0  0  0  0  0  0  0
   -5.2583   14.7449  -30.9966 H   0  0  0  0  0  0  0  0  0  0  0  0
   -3.8739   15.3815  -32.0133 H   0  0  0  0  0  0  0  0  0  0  0  0
   -6.6985   16.5219  -31.9498 H   0  0  0  0  0  0  0  0  0  0  0  0
   -5.2522   17.2080  -31.1167 H   0  0  0  0  0  0  0  0  0  0  0  0
   -3.9743   19.5175  -32.1795 H   0  0  0  0  0  0  0  0  0  0  0  0
   -3.5357   21.5164  -30.7543 H   0  0  0  0  0  0  0  0  0  0  0  0
   -3.6054   22.6048  -29.6458 H   0  0  0  0  0  0  0  0  0  0  0  0
   -1.8346   21.1636  -28.6741 H   0  0  0  0  0  0  0  0  0  0  0  0
    0.9061   27.1739  -27.4269 H   0  0  0  0  0  0  0  0  0  0  0  0
    0.8605   25.8123  -24.4918 H   0  0  0  0  0  0  0  0  0  0  0  0
    0.9162   27.3609  -24.3566 H   0  0  0  0  0  0  0  0  0  0  0  0
   -1.4124   25.6210  -25.7842 H   0  0  0  0  0  0  0  0  0  0  0  0
   -1.7519   27.1364  -25.8738 H   0  0  0  0  0  0  0  0  0  0  0  0
   -1.2390   26.8530  -29.8400 H   0  0  0  0  0  0  0  0  0  0  0  0
  1  2  2  0
  2  3  1  0
  3  4  1  0
  4  5  2  0
  5  6  1  0
  6  7  2  0
  7  8  1  0
  8  9  2  0
  8 10  2  0
  8 11  1  0
 11 12  1  0
 12 13  1  0
 13 14  1  0
 14 15  1  0
 15 16  1  0
  7 17  1  0
 17 18  2  0
  2 19  1  0
 19 20  1  0
 20 21  2  0
 21 22  1  0
 22 23  2  0
 23 24  1  0
 23 25  1  0
 25 26  1  0
 26 27  2  0
 26 28  2  0
 26 29  1  0
 29 30  1  0
 30 31  1  0
 25 32  2  0
 32 33  1  0
 18  4  1  0
 32 20  1  0
 16 11  1  0
 31 29  1  0
  5 34  1  0
  6 35  1  0
 12 36  1  0
 12 37  1  0
 13 38  1  0
 13 39  1  0
 15 40  1  0
 15 41  1  0
 16 42  1  0
 16 43  1  0
 17 44  1  0
 18 45  1  0
 21 46  1  0
 22 47  1  0
 29 48  1  0
 30 49  1  0
 30 50  1  0
 31 51  1  0
 31 52  1  0
 33 53  1  0
M  CHG  2   3  -1  19  -1
M  END
>  <UniqueID>  (21) 
19

>  <SMILES>  (21) 
O=C([N-]c1ccc(S(=O)(=O)N2CCOCC2)cc1)[N-]c1ccc(Cl)c(S(=O)(=O)C2CC2)c1O

>  <Energy>  (21) 
345.11439774353596

>  <Genealogy>  (21) 
O=C([N-]c1ccc(S(=O)(=O)N2CCOCC2)cc1)[N-]c1ccc(Cl)c(S(=O)(=O)C2CC2)c1O (protonated)
O=C([N-]c1ccc(S(=O)(=O)N2CCOCC2)cc1)[N-]c1ccc(Cl)c(S(=O)(=O)C2CC2)c1O (3D coordinates assigned)
O=C([N-]c1ccc(S(=O)(=O)N2CCOCC2)cc1)[N-]c1ccc(Cl)c(S(=O)(=O)C2CC2)c1O (nonaromatic ring conformer: 345.11439774353596 kcal/mol)

>  <smiles>  (21) 
O=C(Nc1ccc(S(=O)(=O)N2CCOCC2)cc1)Nc1ccc(Cl)c(S(=O)(=O)C2CC2)c1O

>  <score_type>  (21) 
oracle

>  <origin>  (21) 
adgpu

>  <m_score__min__energy>  (21) 
-14.449999999999999

>  <m_primary>  (21) 
energy

$$$$
21:0
     RDKit          3D

 56 60  0  0  0  0  0  0  0  0999 V2000
   -2.9350   24.5490  -29.6140 C   0  0  0  0  0  0  0  0  0  0  0  0
   -3.8590   25.2920  -30.4610 N   0  0  0  0  0  0  0  0  0  0  0  0
   -5.2720   25.0670  -30.5300 C   0  0  0  0  0  0  0  0  0  0  0  0
   -6.0510   25.9730  -30.1260 O   0  0  0  0  0  0  0  0  0  0  0  0
   -5.8510   23.8370  -31.1000 C   0  0  0  0  0  0  0  0  0  0  0  0
   -5.0550   22.7130  -31.3730 C   0  0  0  0  0  0  0  0  0  0  0  0
   -5.6420   21.5610  -31.9080 C   0  0  0  0  0  0  0  0  0  0  0  0
   -4.8370   20.4440  -32.1610 O   0  0  0  0  0  0  0  0  0  0  0  0
   -3.5430   20.4900  -32.6970 C   0  0  0  0  0  0  0  0  0  0  0  0
   -3.1270   19.5940  -33.6970 C   0  0  0  0  0  0  0  0  0  0  0  0
   -1.8310   19.6720  -34.2170 C   0  0  0  0  0  0  0  0  0  0  0  0
   -0.9300   20.6340  -33.7380 C   0  0  0  0  0  0  0  0  0  0  0  0
    0.3970   20.6930  -34.2840 N   0  0  0  0  0  0  0  0  0  0  0  0
    0.8380   21.7180  -35.1880 C   0  0  0  0  0  0  0  0  0  0  0  0
    0.1570   22.7690  -35.3400 O   0  0  0  0  0  0  0  0  0  0  0  0
    2.1040   21.6110  -35.8480 N   0  0  0  0  0  0  0  0  0  0  0  0
    3.0020   22.6990  -36.0950 C   0  0  0  0  0  0  0  0  0  0  0  0
    4.2210   22.5030  -36.7650 C   0  0  0  0  0  0  0  0  0  0  0  0
    5.0570   23.5900  -37.0340 C   0  0  0  0  0  0  0  0  0  0  0  0
    4.6810   24.8770  -36.6460 C   0  0  0  0  0  0  0  0  0  0  0  0
    3.4540   25.0910  -35.9970 C   0  0  0  0  0  0  0  0  0  0  0  0
    3.0620   26.4120  -35.5850 N   0  0  0  0  0  0  0  0  0  0  0  0
    3.8680   27.3640  -35.0470 C   0  0  0  0  0  0  0  0  0  0  0  0
    3.2150   28.5160  -34.7450 N   0  0  0  0  0  0  0  0  0  0  0  0
    1.9470   28.2510  -35.1130 C   0  0  0  0  0  0  0  0  0  0  0  0
    0.8370   29.0820  -34.9830 C   0  0  0  0  0  0  0  0  0  0  0  0
   -0.4140   28.5710  -35.3770 C   0  0  0  0  0  0  0  0  0  0  0  0
   -0.5260   27.2510  -35.8690 C   0  0  0  0  0  0  0  0  0  0  0  0
    0.6140   26.4350  -35.9890 C   0  0  0  0  0  0  0  0  0  0  0  0
    1.8460   26.9840  -35.6160 C   0  0  0  0  0  0  0  0  0  0  0  0
    2.6200   23.9940  -35.7270 C   0  0  0  0  0  0  0  0  0  0  0  0
   -1.3600   21.5520  -32.7650 C   0  0  0  0  0  0  0  0  0  0  0  0
   -2.6600   21.4810  -32.2550 C   0  0  0  0  0  0  0  0  0  0  0  0
   -7.0310   21.5370  -32.1280 C   0  0  0  0  0  0  0  0  0  0  0  0
   -7.7950   22.6610  -31.8130 C   0  0  0  0  0  0  0  0  0  0  0  0
   -7.1950   23.7730  -31.3070 N   0  0  0  0  0  0  0  0  0  0  0  0
   -3.1723   24.7398  -28.5570 H   0  0  0  0  0  0  0  0  0  0  0  0
   -3.0304   23.4732  -29.8228 H   0  0  0  0  0  0  0  0  0  0  0  0
   -1.9048   24.8731  -29.8228 H   0  0  0  0  0  0  0  0  0  0  0  0
   -3.9747   22.7380  -31.1672 H   0  0  0  0  0  0  0  0  0  0  0  0
   -3.8230   18.8290  -34.0718 H   0  0  0  0  0  0  0  0  0  0  0  0
   -1.5163   18.9742  -35.0069 H   0  0  0  0  0  0  0  0  0  0  0  0
    1.1120   20.0280  -33.9110 H   0  0  0  0  0  0  0  0  0  0  0  0
    4.5182   21.4914  -37.0787 H   0  0  0  0  0  0  0  0  0  0  0  0
    6.0138   23.4310  -37.5528 H   0  0  0  0  0  0  0  0  0  0  0  0
    5.3486   25.7273  -36.8494 H   0  0  0  0  0  0  0  0  0  0  0  0
    4.9441   27.2164  -34.8730 H   0  0  0  0  0  0  0  0  0  0  0  0
    0.9346   30.1032  -34.5859 H   0  0  0  0  0  0  0  0  0  0  0  0
   -1.3107   29.2036  -35.3014 H   0  0  0  0  0  0  0  0  0  0  0  0
   -1.5115   26.8586  -36.1603 H   0  0  0  0  0  0  0  0  0  0  0  0
    0.5395   25.4030  -36.3624 H   0  0  0  0  0  0  0  0  0  0  0  0
    1.6565   24.1542  -35.2210 H   0  0  0  0  0  0  0  0  0  0  0  0
   -0.6712   22.3296  -32.4031 H   0  0  0  0  0  0  0  0  0  0  0  0
   -2.9909   22.2099  -31.5005 H   0  0  0  0  0  0  0  0  0  0  0  0
   -7.5110   20.6394  -32.5450 H   0  0  0  0  0  0  0  0  0  0  0  0
   -8.8831   22.6485  -31.9737 H   0  0  0  0  0  0  0  0  0  0  0  0
  1  2  1  0
  2  3  1  0
  3  4  2  0
  3  5  1  0
  5  6  2  0
  6  7  1  0
  7  8  1  0
  8  9  1  0
  9 10  2  0
 10 11  1  0
 11 12  2  0
 12 13  1  0
 13 14  1  0
 14 15  2  0
 14 16  1  0
 16 17  1  0
 17 18  2  0
 18 19  1  0
 19 20  2  0
 20 21  1  0
 21 22  1  0
 22 23  1  0
 23 24  2  0
 24 25  1  0
 25 26  2  0
 26 27  1  0
 27 28  2  0
 28 29  1  0
 29 30  2  0
 21 31  2  0
 12 32  1  0
 32 33  2  0
  7 34  2  0
 34 35  1  0
 35 36  2  0
 36  5  1  0
 33  9  1  0
 31 17  1  0
 30 22  1  0
 30 25  1  0
  1 37  1  0
  1 38  1  0
  1 39  1  0
  6 40  1  0
 10 41  1  0
 11 42  1  0
 13 43  1  0
 18 44  1  0
 19 45  1  0
 20 46  1  0
 23 47  1  0
 26 48  1  0
 27 49  1  0
 28 50  1  0
 29 51  1  0
 31 52  1  0
 32 53  1  0
 33 54  1  0
 34 55  1  0
 35 56  1  0
M  CHG  2   2  -1  16  -1
M  END
>  <UniqueID>  (22) 
20

>  <SMILES>  (22) 
C[N-]C(=O)c1cc(Oc2ccc(NC(=O)[N-]c3cccc(-n4cnc5ccccc54)c3)cc2)ccn1

>  <Energy>  (22) 
123.33481739702584

>  <Genealogy>  (22) 
C[N-]C(=O)c1cc(Oc2ccc(NC(=O)[N-]c3cccc(-n4cnc5ccccc54)c3)cc2)ccn1 (protonated)
C[N-]C(=O)c1cc(Oc2ccc(NC(=O)[N-]c3cccc(-n4cnc5ccccc54)c3)cc2)ccn1 (3D coordinates assigned)
C[N-]C(=O)c1cc(Oc2ccc(NC(=O)[N-]c3cccc(-n4cnc5ccccc54)c3)cc2)ccn1 (optimized conformer: 123.33481739702584 kcal/mol)

>  <smiles>  (22) 
CNC(=O)c1cc(Oc2ccc(NC(=O)Nc3cccc(-n4cnc5ccccc54)c3)cc2)ccn1

>  <score_type>  (22) 
oracle

>  <origin>  (22) 
adgpu

>  <m_score__min__energy>  (22) 
-11.76

>  <m_primary>  (22) 
energy

$$$$
22:0
     RDKit          3D

 66 69  0  0  0  0  0  0  0  0999 V2000
   -1.4045   19.6936  -35.8178 H   0  0  0  0  0  0  0  0  0  0  0  0
   -1.1360   19.2260  -34.8590 C   0  0  0  0  0  0  0  0  0  0  0  0
   -1.8940   18.2110  -34.3660 N   0  0  0  0  0  0  0  0  0  0  0  0
   -1.5990   17.5930  -33.1890 C   0  0  0  0  0  0  0  0  0  0  0  0
   -2.3340   16.6170  -32.7420 N   0  0  0  0  0  0  0  0  0  0  0  0
   -3.5180   16.0860  -33.4190 C   0  0  0  0  0  0  0  0  0  0  0  0
   -3.3501   16.1019  -34.5060 H   0  0  0  0  0  0  0  0  0  0  0  0
   -3.6902   15.0555  -33.0748 H   0  0  0  0  0  0  0  0  0  0  0  0
   -4.7330   16.9150  -33.0940 C   0  0  0  0  0  0  0  0  0  0  0  0
   -5.5010   16.6370  -31.9520 C   0  0  0  0  0  0  0  0  0  0  0  0
   -5.2254   15.7968  -31.2977 H   0  0  0  0  0  0  0  0  0  0  0  0
   -6.6150   17.4240  -31.6430 C   0  0  0  0  0  0  0  0  0  0  0  0
   -7.2118   17.2018  -30.7461 H   0  0  0  0  0  0  0  0  0  0  0  0
   -6.9730   18.4950  -32.4730 C   0  0  0  0  0  0  0  0  0  0  0  0
   -8.3600   19.4970  -32.0600 S   0  0  0  0  0  0  0  0  0  0  0  0
   -9.0820   18.9050  -30.8820 O   0  0  0  0  0  0  0  0  0  0  0  0
   -9.3090   19.5640  -33.2230 O   0  0  0  0  0  0  0  0  0  0  0  0
   -7.8020   21.1370  -31.6540 C   0  0  0  0  0  0  0  0  0  0  0  0
   -7.7632   21.2509  -30.5606 H   0  0  0  0  0  0  0  0  0  0  0  0
   -6.7986   21.2977  -32.0752 H   0  0  0  0  0  0  0  0  0  0  0  0
   -8.4992   21.8763  -32.0752 H   0  0  0  0  0  0  0  0  0  0  0  0
   -6.2060   18.7780  -33.6100 C   0  0  0  0  0  0  0  0  0  0  0  0
   -6.4810   19.6204  -34.2617 H   0  0  0  0  0  0  0  0  0  0  0  0
   -5.0910   17.9920  -33.9190 C   0  0  0  0  0  0  0  0  0  0  0  0
   -4.4919   18.2193  -34.8131 H   0  0  0  0  0  0  0  0  0  0  0  0
   -0.4850   18.0070  -32.4530 C   0  0  0  0  0  0  0  0  0  0  0  0
   -0.2362   17.5161  -31.5006 H   0  0  0  0  0  0  0  0  0  0  0  0
    0.3090   19.0480  -32.9360 C   0  0  0  0  0  0  0  0  0  0  0  0
    1.1898   19.3750  -32.3640 H   0  0  0  0  0  0  0  0  0  0  0  0
   -0.0110   19.6810  -34.1500 C   0  0  0  0  0  0  0  0  0  0  0  0
    0.8190   20.7810  -34.7000 C   0  0  0  0  0  0  0  0  0  0  0  0
    0.2150   21.9320  -35.1040 N   0  0  0  0  0  0  0  0  0  0  0  0
    0.9000   22.9900  -35.6130 C   0  0  0  0  0  0  0  0  0  0  0  0
    0.2280   24.0520  -35.9590 N   0  0  0  0  0  0  0  0  0  0  0  0
    0.7260   25.2380  -36.5980 C   0  0  0  0  0  0  0  0  0  0  0  0
    1.7750   25.1750  -37.5190 C   0  0  0  0  0  0  0  0  0  0  0  0
    2.2626   24.2121  -37.7315 H   0  0  0  0  0  0  0  0  0  0  0  0
    2.2030   26.3280  -38.1670 C   0  0  0  0  0  0  0  0  0  0  0  0
    3.0413   26.2737  -38.8772 H   0  0  0  0  0  0  0  0  0  0  0  0
    1.5800   27.5550  -37.9260 C   0  0  0  0  0  0  0  0  0  0  0  0
    2.0630   28.6670  -38.6060 O   0  0  0  0  0  0  0  0  0  0  0  0
    0.4860   27.6500  -37.0210 C   0  0  0  0  0  0  0  0  0  0  0  0
   -0.2260   29.0030  -36.7580 C   0  0  0  0  0  0  0  0  0  0  0  0
   -1.6190   28.7550  -36.1340 C   0  0  0  0  0  0  0  0  0  0  0  0
   -1.5373   28.7695  -35.0371 H   0  0  0  0  0  0  0  0  0  0  0  0
   -2.3127   29.5438  -36.4605 H   0  0  0  0  0  0  0  0  0  0  0  0
   -1.9979   27.7753  -36.4605 H   0  0  0  0  0  0  0  0  0  0  0  0
    0.6280   29.8740  -35.8090 C   0  0  0  0  0  0  0  0  0  0  0  0
    0.3848   29.6259  -34.7653 H   0  0  0  0  0  0  0  0  0  0  0  0
    1.6948   29.6792  -35.9931 H   0  0  0  0  0  0  0  0  0  0  0  0
    0.4122   30.9368  -35.9931 H   0  0  0  0  0  0  0  0  0  0  0  0
   -0.4520   29.8310  -38.0500 C   0  0  0  0  0  0  0  0  0  0  0  0
   -0.7329   30.8601  -37.7815 H   0  0  0  0  0  0  0  0  0  0  0  0
    0.4748   29.8465  -38.6424 H   0  0  0  0  0  0  0  0  0  0  0  0
   -1.2581   29.3736  -38.6424 H   0  0  0  0  0  0  0  0  0  0  0  0
    0.0720   26.4550  -36.3760 C   0  0  0  0  0  0  0  0  0  0  0  0
   -0.7834   26.4865  -35.6851 H   0  0  0  0  0  0  0  0  0  0  0  0
    2.3040   22.9150  -35.7010 C   0  0  0  0  0  0  0  0  0  0  0  0
    2.8812   23.7723  -36.0776 H   0  0  0  0  0  0  0  0  0  0  0  0
    2.9610   21.7420  -35.3060 C   0  0  0  0  0  0  0  0  0  0  0  0
    4.4590   21.6650  -35.3440 C   0  0  0  0  0  0  0  0  0  0  0  0
    4.8513   21.6448  -34.3165 H   0  0  0  0  0  0  0  0  0  0  0  0
    4.7658   20.7499  -35.8717 H   0  0  0  0  0  0  0  0  0  0  0  0
    4.8581   22.5438  -35.8717 H   0  0  0  0  0  0  0  0  0  0  0  0
    2.2170   20.6740  -34.7910 C   0  0  0  0  0  0  0  0  0  0  0  0
    2.7241   19.7559  -34.4593 H   0  0  0  0  0  0  0  0  0  0  0  0
  1  2  1  0
  2  3  1  0
  3  4  1  0
  4  5  2  3
  5  6  1  0
  6  7  1  0
  6  8  1  0
  6  9  1  0
  9 10  2  0
 10 11  1  0
 10 12  1  0
 12 13  1  0
 12 14  2  0
 14 15  1  0
 15 16  2  0
 15 17  2  0
 15 18  1  0
 18 19  1  0
 18 20  1  0
 18 21  1  0
 14 22  1  0
 22 23  1  0
 22 24  2  0
 24 25  1  0
  4 26  1  0
 26 27  1  0
 26 28  2  0
 28 29  1  0
 28 30  1  0
 30 31  1  0
 31 32  1  0
 32 33  1  0
 33 34  2  0
 34 35  1  0
 35 36  2  0
 36 37  1  0
 36 38  1  0
 38 39  1  0
 38 40  2  0
 40 41  1  0
 40 42  1  0
 42 43  1  0
 43 44  1  0
 44 45  1  0
 44 46  1  0
 44 47  1  0
 43 48  1  0
 48 49  1  0
 48 50  1  0
 48 51  1  0
 43 52  1  0
 52 53  1  0
 52 54  1  0
 52 55  1  0
 42 56  2  0
 56 57  1  0
 33 58  1  0
 58 59  1  0
 58 60  2  0
 60 61  1  0
 61 62  1  0
 61 63  1  0
 61 64  1  0
 60 65  1  0
 65 66  1  0
 30  2  2  0
 65 31  2  0
 24  9  1  0
 56 35  1  0
M  CHG  3   3  -1  32  -1  41  -1
M  END
>  <UniqueID>  (23) 
21

>  <SMILES>  (23) 
Cc1cc(-c2ccc(=NCc3ccc(S(C)(=O)=O)cc3)[n-]c2)[n-]/c(=N/c2ccc([O-])c(C(C)(C)C)c2)c1

>  <Energy>  (23) 
84.92403508659889

>  <Genealogy>  (23) 
Cc1cc(-c2ccc(=NCc3ccc(S(C)(=O)=O)cc3)[n-]c2)[n-]c(=Nc2ccc([O-])c(C(C)(C)C)c2)c1 (protonated)
Cc1cc(-c2ccc(=NCc3ccc(S(C)(=O)=O)cc3)[n-]c2)[n-]/c(=N/c2ccc([O-])c(C(C)(C)C)c2)c1 (cis-trans isomerization)
Cc1cc(-c2ccc(=NCc3ccc(S(C)(=O)=O)cc3)[n-]c2)[n-]/c(=N/c2ccc([O-])c(C(C)(C)C)c2)c1 (3D coordinates assigned)
Cc1cc(-c2ccc(=NCc3ccc(S(C)(=O)=O)cc3)[n-]c2)[n-]/c(=N/c2ccc([O-])c(C(C)(C)C)c2)c1 (optimized conformer: 84.92403508659889 kcal/mol)

>  <smiles>  (23) 
Cc1cc(-c2ccc(=NCc3ccc(S(C)(=O)=O)cc3)[nH]c2)[nH]c(=Nc2ccc(O)c(C(C)(C)C)c2)c1

>  <score_type>  (23) 
oracle

>  <origin>  (23) 
adgpu

>  <m_score__min__energy>  (23) 
-11.9

>  <m_primary>  (23) 
energy

$$$$
23:0
     RDKit          3D

 40 42  0  0  0  0  0  0  0  0999 V2000
   -5.7320   26.1900  -30.4480 O   0  0  0  0  0  0  0  0  0  0  0  0
   -5.0270   25.1810  -30.7160 C   0  0  0  0  0  0  0  0  0  0  0  0
   -3.6240   25.2210  -30.4150 N   0  0  0  0  0  0  0  0  0  0  0  0
   -2.9700   24.5200  -29.3450 C   0  0  0  0  0  0  0  0  0  0  0  0
   -3.4830   23.3090  -28.8400 C   0  0  0  0  0  0  0  0  0  0  0  0
   -2.8320   22.6470  -27.7960 C   0  0  0  0  0  0  0  0  0  0  0  0
   -1.6530   23.1730  -27.2600 C   0  0  0  0  0  0  0  0  0  0  0  0
   -1.1210   24.3590  -27.7740 C   0  0  0  0  0  0  0  0  0  0  0  0
   -1.7710   25.0290  -28.8180 C   0  0  0  0  0  0  0  0  0  0  0  0
   -1.2290   26.2090  -29.3210 O   0  0  0  0  0  0  0  0  0  0  0  0
   -5.6710   23.9740  -31.2850 C   0  0  0  0  0  0  0  0  0  0  0  0
   -7.0690   23.8520  -31.2890 C   0  0  0  0  0  0  0  0  0  0  0  0
   -7.6800   22.7330  -31.8690 C   0  0  0  0  0  0  0  0  0  0  0  0
   -6.8990   21.7150  -32.4220 C   0  0  0  0  0  0  0  0  0  0  0  0
   -5.5010   21.8040  -32.3820 C   0  0  0  0  0  0  0  0  0  0  0  0
   -4.4980   20.5080  -33.0250 S   0  0  0  0  0  0  0  0  0  0  0  0
   -3.3580   21.0570  -33.8370 O   0  0  0  0  0  0  0  0  0  0  0  0
   -3.9450   19.7090  -31.8790 O   0  0  0  0  0  0  0  0  0  0  0  0
   -5.4620   19.4720  -34.0260 N   0  0  0  0  0  0  0  0  0  0  0  0
   -5.4860   18.0370  -33.9520 C   0  0  0  0  0  0  0  0  0  0  0  0
   -6.7000   17.3200  -33.9250 C   0  0  0  0  0  0  0  0  0  0  0  0
   -6.6940   15.9240  -33.8490 C   0  0  0  0  0  0  0  0  0  0  0  0
   -5.4830   15.2270  -33.8080 C   0  0  0  0  0  0  0  0  0  0  0  0
   -4.2760   15.9270  -33.8470 C   0  0  0  0  0  0  0  0  0  0  0  0
   -4.2690   17.3270  -33.9120 C   0  0  0  0  0  0  0  0  0  0  0  0
   -3.0410   17.9890  -33.9280 O   0  0  0  0  0  0  0  0  0  0  0  0
   -4.8920   22.9310  -31.8150 C   0  0  0  0  0  0  0  0  0  0  0  0
   -4.4012   22.8823  -29.2700 H   0  0  0  0  0  0  0  0  0  0  0  0
   -3.2477   21.7107  -27.3953 H   0  0  0  0  0  0  0  0  0  0  0  0
   -1.1442   22.6540  -26.4343 H   0  0  0  0  0  0  0  0  0  0  0  0
   -0.1886   24.7675  -27.3571 H   0  0  0  0  0  0  0  0  0  0  0  0
   -7.6882   24.6393  -30.8343 H   0  0  0  0  0  0  0  0  0  0  0  0
   -8.7771   22.6555  -31.8892 H   0  0  0  0  0  0  0  0  0  0  0  0
   -7.3815   20.8436  -32.8888 H   0  0  0  0  0  0  0  0  0  0  0  0
   -7.6565   17.8618  -33.9639 H   0  0  0  0  0  0  0  0  0  0  0  0
   -7.6453   15.3724  -33.8214 H   0  0  0  0  0  0  0  0  0  0  0  0
   -5.4812   14.1288  -33.7451 H   0  0  0  0  0  0  0  0  0  0  0  0
   -3.3240   15.3762  -33.8266 H   0  0  0  0  0  0  0  0  0  0  0  0
   -2.9460   18.9630  -33.6650 H   0  0  0  0  0  0  0  0  0  0  0  0
   -3.7946   23.0003  -31.7843 H   0  0  0  0  0  0  0  0  0  0  0  0
  1  2  2  0
  2  3  1  0
  3  4  1  0
  4  5  2  0
  5  6  1  0
  6  7  2  0
  7  8  1  0
  8  9  2  0
  9 10  1  0
  2 11  1  0
 11 12  2  0
 12 13  1  0
 13 14  2  0
 14 15  1  0
 15 16  1  0
 16 17  2  0
 16 18  2  0
 16 19  1  0
 19 20  1  0
 20 21  2  0
 21 22  1  0
 22 23  2  0
 23 24  1  0
 24 25  2  0
 25 26  1  0
 15 27  2  0
  9  4  1  0
 27 11  1  0
 25 20  1  0
  5 28  1  0
  6 29  1  0
  7 30  1  0
  8 31  1  0
 12 32  1  0
 13 33  1  0
 14 34  1  0
 21 35  1  0
 22 36  1  0
 23 37  1  0
 24 38  1  0
 26 39  1  0
 27 40  1  0
M  CHG  3   3  -1  10  -1  19  -1
M  END
>  <UniqueID>  (24) 
22

>  <SMILES>  (24) 
O=C([N-]c1ccccc1[O-])c1cccc(S(=O)(=O)[N-]c2ccccc2O)c1

>  <Energy>  (24) 
53.1345668015117

>  <Genealogy>  (24) 
O=C([N-]c1ccccc1[O-])c1cccc(S(=O)(=O)[N-]c2ccccc2O)c1 (protonated)
O=C([N-]c1ccccc1[O-])c1cccc(S(=O)(=O)[N-]c2ccccc2O)c1 (3D coordinates assigned)
O=C([N-]c1ccccc1[O-])c1cccc(S(=O)(=O)[N-]c2ccccc2O)c1 (optimized conformer: 53.1345668015117 kcal/mol)

>  <smiles>  (24) 
O=C(Nc1ccccc1O)c1cccc(S(=O)(=O)Nc2ccccc2O)c1

>  <score_type>  (24) 
oracle

>  <origin>  (24) 
adgpu

>  <m_score__min__energy>  (24) 
-13.75

>  <m_primary>  (24) 
energy

$$$$
24:0
     RDKit          3D

 40 42  0  0  0  0  0  0  0  0999 V2000
   -2.7510   19.9960  -27.1390 C   0  0  0  0  0  0  0  0  0  0  0  0
   -1.5080   20.8200  -27.2950 C   0  0  0  0  0  0  0  0  0  0  0  0
   -0.3970   20.2250  -27.3340 O   0  0  0  0  0  0  0  0  0  0  0  0
   -1.5550   22.3030  -27.4050 C   0  0  0  0  0  0  0  0  0  0  0  0
   -0.9730   23.1030  -26.4050 C   0  0  0  0  0  0  0  0  0  0  0  0
   -1.0110   24.4960  -26.4970 C   0  0  0  0  0  0  0  0  0  0  0  0
   -1.6300   25.1120  -27.5840 C   0  0  0  0  0  0  0  0  0  0  0  0
   -2.2200   24.3340  -28.5950 C   0  0  0  0  0  0  0  0  0  0  0  0
   -2.8760   24.9250  -29.7260 N   0  0  0  0  0  0  0  0  0  0  0  0
   -4.4810   24.5430  -30.2630 S   0  0  0  0  0  0  0  0  0  0  0  0
   -5.3860   24.4370  -29.0670 O   0  0  0  0  0  0  0  0  0  0  0  0
   -4.9720   25.6470  -31.1560 O   0  0  0  0  0  0  0  0  0  0  0  0
   -4.4770   23.0360  -31.1730 C   0  0  0  0  0  0  0  0  0  0  0  0
   -3.2600   22.4680  -31.5950 C   0  0  0  0  0  0  0  0  0  0  0  0
   -3.2590   21.2900  -32.3510 C   0  0  0  0  0  0  0  0  0  0  0  0
   -4.4750   20.6760  -32.6540 C   0  0  0  0  0  0  0  0  0  0  0  0
   -5.6700   21.2080  -32.2250 C   0  0  0  0  0  0  0  0  0  0  0  0
   -5.6910   22.4070  -31.4980 C   0  0  0  0  0  0  0  0  0  0  0  0
   -6.8160   20.5000  -32.6960 N   0  0  0  0  0  0  0  0  0  0  0  0
   -8.1770   20.7270  -32.2900 C   0  0  0  0  0  0  0  0  0  0  0  0
   -9.1220   19.5930  -32.0410 C   0  0  0  0  0  0  0  0  0  0  0  0
   -8.6060   21.9080  -32.1930 O   0  0  0  0  0  0  0  0  0  0  0  0
   -6.4770   19.4650  -33.6710 C   0  0  0  0  0  0  0  0  0  0  0  0
   -4.6530   19.2280  -33.6750 S   0  0  0  0  0  0  0  0  0  0  0  0
   -2.1760   22.9370  -28.5010 C   0  0  0  0  0  0  0  0  0  0  0  0
   -2.9650   19.8541  -26.0694 H   0  0  0  0  0  0  0  0  0  0  0  0
   -3.5962   20.5133  -27.6166 H   0  0  0  0  0  0  0  0  0  0  0  0
   -2.6037   19.0161  -27.6166 H   0  0  0  0  0  0  0  0  0  0  0  0
   -0.4834   22.6270  -25.5426 H   0  0  0  0  0  0  0  0  0  0  0  0
   -0.5507   25.1098  -25.7087 H   0  0  0  0  0  0  0  0  0  0  0  0
   -1.6567   26.2097  -27.6505 H   0  0  0  0  0  0  0  0  0  0  0  0
   -2.3079   22.9509  -31.3301 H   0  0  0  0  0  0  0  0  0  0  0  0
   -2.3120   20.8539  -32.7017 H   0  0  0  0  0  0  0  0  0  0  0  0
   -6.6478   22.8506  -31.1853 H   0  0  0  0  0  0  0  0  0  0  0  0
   -9.2430   19.4478  -30.9574 H   0  0  0  0  0  0  0  0  0  0  0  0
  -10.0987   19.8240  -32.4913 H   0  0  0  0  0  0  0  0  0  0  0  0
   -8.7187   18.6740  -32.4913 H   0  0  0  0  0  0  0  0  0  0  0  0
   -6.9716   18.5218  -33.3959 H   0  0  0  0  0  0  0  0  0  0  0  0
   -6.8163   19.7695  -34.6721 H   0  0  0  0  0  0  0  0  0  0  0  0
   -2.6324   22.3257  -29.2935 H   0  0  0  0  0  0  0  0  0  0  0  0
  1  2  1  0
  2  3  2  0
  2  4  1  0
  4  5  2  0
  5  6  1  0
  6  7  2  0
  7  8  1  0
  8  9  1  0
  9 10  1  0
 10 11  2  0
 10 12  2  0
 10 13  1  0
 13 14  2  0
 14 15  1  0
 15 16  2  0
 16 17  1  0
 17 18  2  0
 17 19  1  0
 19 20  1  0
 20 21  1  0
 20 22  2  0
 19 23  1  0
 23 24  1  0
  8 25  2  0
 25  4  1  0
 18 13  1  0
 24 16  1  0
  1 26  1  0
  1 27  1  0
  1 28  1  0
  5 29  1  0
  6 30  1  0
  7 31  1  0
 14 32  1  0
 15 33  1  0
 18 34  1  0
 21 35  1  0
 21 36  1  0
 21 37  1  0
 23 38  1  0
 23 39  1  0
 25 40  1  0
M  CHG  1   9  -1
M  END
>  <UniqueID>  (25) 
23

>  <SMILES>  (25) 
CC(=O)c1cccc([N-]S(=O)(=O)c2ccc3c(c2)N(C(C)=O)CS3)c1

>  <Energy>  (25) 
58.926752574762475

>  <Genealogy>  (25) 
CC(=O)c1cccc([N-]S(=O)(=O)c2ccc3c(c2)N(C(C)=O)CS3)c1 (protonated)
CC(=O)c1cccc([N-]S(=O)(=O)c2ccc3c(c2)N(C(C)=O)CS3)c1 (3D coordinates assigned)
CC(=O)c1cccc([N-]S(=O)(=O)c2ccc3c(c2)N(C(C)=O)CS3)c1 (nonaromatic ring conformer: 58.926752574762475 kcal/mol)

>  <smiles>  (25) 
CC(=O)c1cccc(NS(=O)(=O)c2ccc3c(c2)N(C(C)=O)CS3)c1

>  <score_type>  (25) 
oracle

>  <origin>  (25) 
adgpu

>  <m_score__min__energy>  (25) 
-10.300000000000001

>  <m_primary>  (25) 
energy

$$$$
25:0
     RDKit          3D

 47 49  0  0  0  0  0  0  0  0999 V2000
    0.0010   20.2380  -35.5660 O   0  0  0  0  0  0  0  0  0  0  0  0
   -0.2760   21.1820  -34.7980 N   0  0  0  0  0  0  0  0  0  0  0  0
    0.3770   22.3810  -34.9610 O   0  0  0  0  0  0  0  0  0  0  0  0
   -1.2410   21.0120  -33.7430 C   0  0  0  0  0  0  0  0  0  0  0  0
   -2.4550   20.3480  -33.9900 C   0  0  0  0  0  0  0  0  0  0  0  0
   -3.4040   20.2060  -32.9740 C   0  0  0  0  0  0  0  0  0  0  0  0
   -3.1500   20.7210  -31.7000 C   0  0  0  0  0  0  0  0  0  0  0  0
   -1.9390   21.3670  -31.4310 C   0  0  0  0  0  0  0  0  0  0  0  0
   -1.6390   22.0100  -29.8170 S   0  0  0  0  0  0  0  0  0  0  0  0
   -0.6740   23.1610  -29.8680 O   0  0  0  0  0  0  0  0  0  0  0  0
   -1.0430   20.9190  -28.9740 O   0  0  0  0  0  0  0  0  0  0  0  0
   -3.1290   22.5410  -29.0990 N   0  0  0  0  0  0  0  0  0  0  0  0
   -4.1620   23.2350  -29.8260 C   0  0  0  0  0  0  0  0  0  0  0  0
   -5.3240   22.5700  -30.2580 C   0  0  0  0  0  0  0  0  0  0  0  0
   -6.3470   23.2660  -30.9120 C   0  0  0  0  0  0  0  0  0  0  0  0
   -7.8390   22.4240  -31.3220 S   0  0  0  0  0  0  0  0  0  0  0  0
   -8.5280   21.9580  -30.0700 O   0  0  0  0  0  0  0  0  0  0  0  0
   -8.7470   23.3780  -32.0460 O   0  0  0  0  0  0  0  0  0  0  0  0
   -7.4830   21.0560  -32.3510 N   0  0  0  0  0  0  0  0  0  0  0  0
   -6.4750   20.1850  -31.7040 C   0  0  0  0  0  0  0  0  0  0  0  0
   -6.5110   18.7610  -32.2640 C   0  0  0  0  0  0  0  0  0  0  0  0
   -7.8730   18.0980  -31.9990 C   0  0  0  0  0  0  0  0  0  0  0  0
   -9.0220   19.1170  -31.9130 C   0  0  0  0  0  0  0  0  0  0  0  0
   -8.7280   20.3620  -32.7610 C   0  0  0  0  0  0  0  0  0  0  0  0
   -6.1970   24.6320  -31.1730 C   0  0  0  0  0  0  0  0  0  0  0  0
   -5.0320   25.2960  -30.7840 C   0  0  0  0  0  0  0  0  0  0  0  0
   -4.0190   24.6070  -30.1090 C   0  0  0  0  0  0  0  0  0  0  0  0
   -2.8780   25.2960  -29.7140 O   0  0  0  0  0  0  0  0  0  0  0  0
   -0.9880   21.5120  -32.4510 C   0  0  0  0  0  0  0  0  0  0  0  0
   -2.6595   19.9374  -34.9898 H   0  0  0  0  0  0  0  0  0  0  0  0
   -4.3527   19.6878  -33.1775 H   0  0  0  0  0  0  0  0  0  0  0  0
   -3.9047   20.6180  -30.9064 H   0  0  0  0  0  0  0  0  0  0  0  0
   -3.3010   22.2520  -28.1120 H   0  0  0  0  0  0  0  0  0  0  0  0
   -5.4298   21.4897  -30.0796 H   0  0  0  0  0  0  0  0  0  0  0  0
   -5.4749   20.6098  -31.8753 H   0  0  0  0  0  0  0  0  0  0  0  0
   -6.7049   20.1358  -30.6294 H   0  0  0  0  0  0  0  0  0  0  0  0
   -6.3335   18.7967  -33.3490 H   0  0  0  0  0  0  0  0  0  0  0  0
   -5.7302   18.1686  -31.7647 H   0  0  0  0  0  0  0  0  0  0  0  0
   -8.0870   17.3943  -32.8170 H   0  0  0  0  0  0  0  0  0  0  0  0
   -7.8099   17.5854  -31.0278 H   0  0  0  0  0  0  0  0  0  0  0  0
   -9.9469   18.6457  -32.2771 H   0  0  0  0  0  0  0  0  0  0  0  0
   -9.1312   19.4294  -30.8640 H   0  0  0  0  0  0  0  0  0  0  0  0
   -8.6294   20.0555  -33.8128 H   0  0  0  0  0  0  0  0  0  0  0  0
   -9.5617   21.0650  -32.6172 H   0  0  0  0  0  0  0  0  0  0  0  0
   -6.9984   25.1842  -31.6857 H   0  0  0  0  0  0  0  0  0  0  0  0
   -4.9103   26.3658  -31.0094 H   0  0  0  0  0  0  0  0  0  0  0  0
   -0.0358   22.0208  -32.2402 H   0  0  0  0  0  0  0  0  0  0  0  0
  1  2  2  0
  2  3  1  0
  2  4  1  0
  4  5  2  0
  5  6  1  0
  6  7  2  0
  7  8  1  0
  8  9  1  0
  9 10  2  0
  9 11  2  0
  9 12  1  0
 12 13  1  0
 13 14  2  0
 14 15  1  0
 15 16  1  0
 16 17  2  0
 16 18  2  0
 16 19  1  0
 19 20  1  0
 20 21  1  0
 21 22  1  0
 22 23  1  0
 23 24  1  0
 15 25  2  0
 25 26  1  0
 26 27  2  0
 27 28  1  0
  8 29  2  0
 29  4  1  0
 27 13  1  0
 24 19  1  0
  5 30  1  0
  6 31  1  0
  7 32  1  0
 12 33  1  0
 14 34  1  0
 20 35  1  0
 20 36  1  0
 21 37  1  0
 21 38  1  0
 22 39  1  0
 22 40  1  0
 23 41  1  0
 23 42  1  0
 24 43  1  0
 24 44  1  0
 25 45  1  0
 26 46  1  0
 29 47  1  0
M  CHG  3   2   1   3  -1  28  -1
M  END
>  <UniqueID>  (26) 
24

>  <SMILES>  (26) 
O=[N+]([O-])c1cccc(S(=O)(=O)Nc2cc(S(=O)(=O)N3CCCCC3)ccc2[O-])c1

>  <Energy>  (26) 
53.901257974243265

>  <Genealogy>  (26) 
O=[N+]([O-])c1cccc(S(=O)(=O)Nc2cc(S(=O)(=O)N3CCCCC3)ccc2[O-])c1 (protonated)
O=[N+]([O-])c1cccc(S(=O)(=O)Nc2cc(S(=O)(=O)N3CCCCC3)ccc2[O-])c1 (3D coordinates assigned)
O=[N+]([O-])c1cccc(S(=O)(=O)Nc2cc(S(=O)(=O)N3CCCCC3)ccc2[O-])c1 (nonaromatic ring conformer: 53.901257974243265 kcal/mol)

>  <smiles>  (26) 
O=[N+]([O-])c1cccc(S(=O)(=O)Nc2cc(S(=O)(=O)N3CCCCC3)ccc2O)c1

>  <score_type>  (26) 
oracle

>  <origin>  (26) 
adgpu

>  <m_score__min__energy>  (26) 
-13.31

>  <m_primary>  (26) 
energy

$$$$
26:0
     RDKit          3D

 27 28  0  0  0  0  0  0  0  0999 V2000
   -5.7670   24.9250  -29.1140 O   0  0  0  0  0  0  0  0  0  0  0  0
   -5.2410   24.9340  -30.5210 S   0  0  0  0  0  0  0  0  0  0  0  0
   -5.7000   26.1900  -31.2080 O   0  0  0  0  0  0  0  0  0  0  0  0
   -3.5080   24.9150  -30.4790 N   0  0  0  0  0  0  0  0  0  0  0  0
   -2.7110   24.1790  -29.5400 C   0  0  0  0  0  0  0  0  0  0  0  0
   -3.0300   22.8610  -29.1620 C   0  0  0  0  0  0  0  0  0  0  0  0
   -2.2320   22.1800  -28.2380 C   0  0  0  0  0  0  0  0  0  0  0  0
   -1.1100   22.8020  -27.6870 C   0  0  0  0  0  0  0  0  0  0  0  0
   -0.7830   24.1080  -28.0590 C   0  0  0  0  0  0  0  0  0  0  0  0
   -1.5790   24.7960  -28.9820 C   0  0  0  0  0  0  0  0  0  0  0  0
   -1.2420   26.0960  -29.3420 O   0  0  0  0  0  0  0  0  0  0  0  0
   -5.8420   23.5090  -31.3620 C   0  0  0  0  0  0  0  0  0  0  0  0
   -4.9480   22.6530  -32.0180 C   0  0  0  0  0  0  0  0  0  0  0  0
   -5.4230   21.5260  -32.6930 C   0  0  0  0  0  0  0  0  0  0  0  0
   -6.7930   21.2420  -32.7190 C   0  0  0  0  0  0  0  0  0  0  0  0
   -7.2410   20.1120  -33.4020 O   0  0  0  0  0  0  0  0  0  0  0  0
   -7.6910   22.0960  -32.0580 C   0  0  0  0  0  0  0  0  0  0  0  0
   -9.0560   21.8310  -32.0700 O   0  0  0  0  0  0  0  0  0  0  0  0
   -7.2150   23.2250  -31.3820 C   0  0  0  0  0  0  0  0  0  0  0  0
   -3.9109   22.3649  -29.5955 H   0  0  0  0  0  0  0  0  0  0  0  0
   -2.4887   21.1515  -27.9443 H   0  0  0  0  0  0  0  0  0  0  0  0
   -0.4838   22.2638  -26.9602 H   0  0  0  0  0  0  0  0  0  0  0  0
    0.1020   24.5968  -27.6256 H   0  0  0  0  0  0  0  0  0  0  0  0
   -3.8695   22.8688  -32.0016 H   0  0  0  0  0  0  0  0  0  0  0  0
   -4.7161   20.8580  -33.2070 H   0  0  0  0  0  0  0  0  0  0  0  0
   -8.1610   20.0680  -33.8240 H   0  0  0  0  0  0  0  0  0  0  0  0
   -7.9203   23.8919  -30.8646 H   0  0  0  0  0  0  0  0  0  0  0  0
  1  2  2  0
  2  3  2  0
  2  4  1  0
  4  5  1  0
  5  6  2  0
  6  7  1  0
  7  8  2  0
  8  9  1  0
  9 10  2  0
 10 11  1  0
  2 12  1  0
 12 13  2  0
 13 14  1  0
 14 15  2  0
 15 16  1  0
 15 17  1  0
 17 18  1  0
 17 19  2  0
 10  5  1  0
 19 12  1  0
  6 20  1  0
  7 21  1  0
  8 22  1  0
  9 23  1  0
 13 24  1  0
 14 25  1  0
 16 26  1  0
 19 27  1  0
M  CHG  3   4  -1  11  -1  18  -1
M  END
>  <UniqueID>  (27) 
25

>  <SMILES>  (27) 
O=S(=O)([N-]c1ccccc1[O-])c1ccc(O)c([O-])c1

>  <Energy>  (27) 
31.49524574300533

>  <Genealogy>  (27) 
O=S(=O)([N-]c1ccccc1[O-])c1ccc(O)c([O-])c1 (protonated)
O=S(=O)([N-]c1ccccc1[O-])c1ccc(O)c([O-])c1 (3D coordinates assigned)
O=S(=O)([N-]c1ccccc1[O-])c1ccc(O)c([O-])c1 (optimized conformer: 31.49524574300533 kcal/mol)

>  <smiles>  (27) 
O=S(=O)(Nc1ccccc1O)c1ccc(O)c(O)c1

>  <score_type>  (27) 
oracle

>  <origin>  (27) 
adgpu

>  <m_score__min__energy>  (27) 
-11.210000000000001

>  <m_primary>  (27) 
energy

$$$$
27:0
     RDKit          3D

 53 55  0  0  0  0  0  0  0  0999 V2000
   -8.7850   19.1130  -31.6370 C   0  0  0  0  0  0  0  0  0  0  0  0
   -8.1670   20.3740  -31.2100 N   0  0  0  0  0  0  0  0  0  0  0  0
   -8.9690   21.5130  -31.6730 C   0  0  0  0  0  0  0  0  0  0  0  0
   -6.5480   20.4890  -31.8520 S   0  0  0  0  0  0  0  0  0  0  0  0
   -6.5920   20.3600  -33.3490 O   0  0  0  0  0  0  0  0  0  0  0  0
   -5.7150   19.3590  -31.3140 O   0  0  0  0  0  0  0  0  0  0  0  0
   -5.7870   22.0250  -31.4230 C   0  0  0  0  0  0  0  0  0  0  0  0
   -6.1000   23.1880  -32.1350 C   0  0  0  0  0  0  0  0  0  0  0  0
   -5.4870   24.3980  -31.8050 C   0  0  0  0  0  0  0  0  0  0  0  0
   -4.5580   24.4590  -30.7610 C   0  0  0  0  0  0  0  0  0  0  0  0
   -3.9330   25.6720  -30.4920 O   0  0  0  0  0  0  0  0  0  0  0  0
   -4.2470   23.2990  -30.0210 C   0  0  0  0  0  0  0  0  0  0  0  0
   -3.2750   23.3280  -28.9030 C   0  0  0  0  0  0  0  0  0  0  0  0
   -2.8240   22.2420  -28.4490 O   0  0  0  0  0  0  0  0  0  0  0  0
   -2.8980   24.5710  -28.2890 N   0  0  0  0  0  0  0  0  0  0  0  0
   -1.7190   24.7400  -27.4840 C   0  0  0  0  0  0  0  0  0  0  0  0
   -1.5980   24.0320  -26.2790 C   0  0  0  0  0  0  0  0  0  0  0  0
   -0.4680   24.1930  -25.4730 C   0  0  0  0  0  0  0  0  0  0  0  0
    0.5550   25.0700  -25.8570 C   0  0  0  0  0  0  0  0  0  0  0  0
    1.9920   25.2550  -24.8500 S   0  0  0  0  0  0  0  0  0  0  0  0
    2.2610   23.9620  -24.1320 O   0  0  0  0  0  0  0  0  0  0  0  0
    3.1720   25.5370  -25.7380 O   0  0  0  0  0  0  0  0  0  0  0  0
    1.8320   26.5470  -23.6780 N   0  0  0  0  0  0  0  0  0  0  0  0
    0.4280   26.8100  -23.3130 C   0  0  0  0  0  0  0  0  0  0  0  0
   -0.3040   27.7180  -24.3300 C   0  0  0  0  0  0  0  0  0  0  0  0
    0.5620   28.2970  -25.2880 O   0  0  0  0  0  0  0  0  0  0  0  0
    1.6750   28.8650  -24.6380 C   0  0  0  0  0  0  0  0  0  0  0  0
    2.5780   27.7640  -24.0610 C   0  0  0  0  0  0  0  0  0  0  0  0
    0.4240   25.8040  -27.0440 C   0  0  0  0  0  0  0  0  0  0  0  0
   -0.7050   25.6430  -27.8510 C   0  0  0  0  0  0  0  0  0  0  0  0
   -4.8610   22.0820  -30.3720 C   0  0  0  0  0  0  0  0  0  0  0  0
   -9.0722   18.5271  -30.7514 H   0  0  0  0  0  0  0  0  0  0  0  0
   -9.6795   19.3287  -32.2398 H   0  0  0  0  0  0  0  0  0  0  0  0
   -8.0665   18.5382  -32.2398 H   0  0  0  0  0  0  0  0  0  0  0  0
   -9.3576   22.0650  -30.8045 H   0  0  0  0  0  0  0  0  0  0  0  0
   -8.3408   22.1809  -32.2807 H   0  0  0  0  0  0  0  0  0  0  0  0
   -9.8095   21.1467  -32.2807 H   0  0  0  0  0  0  0  0  0  0  0  0
   -6.8306   23.1488  -32.9564 H   0  0  0  0  0  0  0  0  0  0  0  0
   -5.7360   25.3088  -32.3693 H   0  0  0  0  0  0  0  0  0  0  0  0
   -3.5770   25.3640  -28.3380 H   0  0  0  0  0  0  0  0  0  0  0  0
   -2.3984   23.3452  -25.9664 H   0  0  0  0  0  0  0  0  0  0  0  0
   -0.3812   23.6287  -24.5328 H   0  0  0  0  0  0  0  0  0  0  0  0
   -0.1045   25.8492  -23.2550 H   0  0  0  0  0  0  0  0  0  0  0  0
    0.4334   27.3370  -22.3475 H   0  0  0  0  0  0  0  0  0  0  0  0
   -1.0561   27.1143  -24.8590 H   0  0  0  0  0  0  0  0  0  0  0  0
   -0.7593   28.5426  -23.7619 H   0  0  0  0  0  0  0  0  0  0  0  0
    2.2497   29.4637  -25.3600 H   0  0  0  0  0  0  0  0  0  0  0  0
    1.3203   29.5031  -23.8152 H   0  0  0  0  0  0  0  0  0  0  0  0
    3.3271   27.4919  -24.8192 H   0  0  0  0  0  0  0  0  0  0  0  0
    3.0439   28.1650  -23.1488 H   0  0  0  0  0  0  0  0  0  0  0  0
    1.2135   26.5098  -27.3414 H   0  0  0  0  0  0  0  0  0  0  0  0
   -0.8015   26.2259  -28.7789 H   0  0  0  0  0  0  0  0  0  0  0  0
   -4.6117   21.1662  -29.8159 H   0  0  0  0  0  0  0  0  0  0  0  0
  1  2  1  0
  2  3  1  0
  2  4  1  0
  4  5  2  0
  4  6  2  0
  4  7  1  0
  7  8  2  0
  8  9  1  0
  9 10  2  0
 10 11  1  0
 10 12  1  0
 12 13  1  0
 13 14  2  0
 13 15  1  0
 15 16  1  0
 16 17  2  0
 17 18  1  0
 18 19  2  0
 19 20  1  0
 20 21  2  0
 20 22  2  0
 20 23  1  0
 23 24  1  0
 24 25  1  0
 25 26  1  0
 26 27  1  0
 27 28  1  0
 19 29  1  0
 29 30  2  0
 12 31  2  0
 31  7  1  0
 30 16  1  0
 28 23  1  0
  1 32  1  0
  1 33  1  0
  1 34  1  0
  3 35  1  0
  3 36  1  0
  3 37  1  0
  8 38  1  0
  9 39  1  0
 15 40  1  0
 17 41  1  0
 18 42  1  0
 24 43  1  0
 24 44  1  0
 25 45  1  0
 25 46  1  0
 27 47  1  0
 27 48  1  0
 28 49  1  0
 28 50  1  0
 29 51  1  0
 30 52  1  0
 31 53  1  0
M  CHG  1  11  -1
M  END
>  <UniqueID>  (28) 
26

>  <SMILES>  (28) 
CN(C)S(=O)(=O)c1ccc([O-])c(C(=O)Nc2ccc(S(=O)(=O)N3CCOCC3)cc2)c1

>  <Energy>  (28) 
69.58565814172331

>  <Genealogy>  (28) 
CN(C)S(=O)(=O)c1ccc([O-])c(C(=O)Nc2ccc(S(=O)(=O)N3CCOCC3)cc2)c1 (protonated)
CN(C)S(=O)(=O)c1ccc([O-])c(C(=O)Nc2ccc(S(=O)(=O)N3CCOCC3)cc2)c1 (3D coordinates assigned)
CN(C)S(=O)(=O)c1ccc([O-])c(C(=O)Nc2ccc(S(=O)(=O)N3CCOCC3)cc2)c1 (nonaromatic ring conformer: 69.58565814172331 kcal/mol)

>  <smiles>  (28) 
CN(C)S(=O)(=O)c1ccc(O)c(C(=O)Nc2ccc(S(=O)(=O)N3CCOCC3)cc2)c1

>  <score_type>  (28) 
oracle

>  <origin>  (28) 
adgpu

>  <m_score__min__energy>  (28) 
-11.029999999999999

>  <m_primary>  (28) 
energy

$$$$
28:0
     RDKit          3D

 58 61  0  0  0  0  0  0  0  0999 V2000
   -5.9550   25.2100  -31.1820 C   0  0  0  0  0  0  0  0  0  0  0  0
   -4.8500   24.5600  -30.4090 C   0  0  0  0  0  0  0  0  0  0  0  0
   -4.9370   23.2110  -30.0480 C   0  0  0  0  0  0  0  0  0  0  0  0
   -3.9090   22.6370  -29.3010 C   0  0  0  0  0  0  0  0  0  0  0  0
   -2.8050   23.4070  -28.9130 C   0  0  0  0  0  0  0  0  0  0  0  0
   -1.7930   22.8210  -28.0810 N   0  0  0  0  0  0  0  0  0  0  0  0
   -2.1870   21.7600  -27.1520 C   0  0  0  0  0  0  0  0  0  0  0  0
   -0.9630   21.1220  -26.4770 C   0  0  0  0  0  0  0  0  0  0  0  0
    0.1130   20.7560  -27.4290 N   0  0  0  0  0  0  0  0  0  0  0  0
    0.0180   19.0760  -27.9120 S   0  0  0  0  0  0  0  0  0  0  0  0
    1.2840   18.3730  -27.5080 O   0  0  0  0  0  0  0  0  0  0  0  0
   -1.1260   18.4140  -27.1960 O   0  0  0  0  0  0  0  0  0  0  0  0
   -0.2100   18.9050  -29.6560 C   0  0  0  0  0  0  0  0  0  0  0  0
    0.5590   17.9830  -30.3810 C   0  0  0  0  0  0  0  0  0  0  0  0
    0.3970   17.8650  -31.7630 C   0  0  0  0  0  0  0  0  0  0  0  0
   -0.5320   18.6660  -32.4310 C   0  0  0  0  0  0  0  0  0  0  0  0
   -1.3080   19.5920  -31.7180 C   0  0  0  0  0  0  0  0  0  0  0  0
   -2.4590   20.6250  -32.5690 S   0  0  0  0  0  0  0  0  0  0  0  0
   -2.2690   22.0480  -32.1230 O   0  0  0  0  0  0  0  0  0  0  0  0
   -2.1820   20.5620  -34.0460 O   0  0  0  0  0  0  0  0  0  0  0  0
   -4.1140   20.1420  -32.2700 N   0  0  0  0  0  0  0  0  0  0  0  0
   -4.4110   18.8110  -32.8380 C   0  0  0  0  0  0  0  0  0  0  0  0
   -5.1990   18.9070  -34.1590 C   0  0  0  0  0  0  0  0  0  0  0  0
   -6.4190   19.6290  -34.0600 O   0  0  0  0  0  0  0  0  0  0  0  0
   -6.4340   20.5940  -33.0170 C   0  0  0  0  0  0  0  0  0  0  0  0
   -5.0520   21.1900  -32.7150 C   0  0  0  0  0  0  0  0  0  0  0  0
   -1.1560   19.6950  -30.3270 C   0  0  0  0  0  0  0  0  0  0  0  0
    0.2660   21.6440  -28.6050 C   0  0  0  0  0  0  0  0  0  0  0  0
   -0.3790   23.0150  -28.3950 C   0  0  0  0  0  0  0  0  0  0  0  0
   -2.7530   24.7650  -29.2950 C   0  0  0  0  0  0  0  0  0  0  0  0
   -1.7500   25.5240  -28.9790 N   0  0  0  0  0  0  0  0  0  0  0  0
   -3.7740   25.2960  -30.0220 N   0  0  0  0  0  0  0  0  0  0  0  0
   -6.6872   25.6407  -30.4832 H   0  0  0  0  0  0  0  0  0  0  0  0
   -5.5395   26.0076  -31.8154 H   0  0  0  0  0  0  0  0  0  0  0  0
   -6.4502   24.4593  -31.8154 H   0  0  0  0  0  0  0  0  0  0  0  0
   -5.8071   22.6097  -30.3503 H   0  0  0  0  0  0  0  0  0  0  0  0
   -3.9651   21.5762  -29.0155 H   0  0  0  0  0  0  0  0  0  0  0  0
   -2.8406   22.1873  -26.3773 H   0  0  0  0  0  0  0  0  0  0  0  0
   -2.7140   20.9800  -27.7211 H   0  0  0  0  0  0  0  0  0  0  0  0
   -0.5547   21.8377  -25.7483 H   0  0  0  0  0  0  0  0  0  0  0  0
   -1.3044   20.1911  -26.0008 H   0  0  0  0  0  0  0  0  0  0  0  0
    1.2923   17.3506  -29.8592 H   0  0  0  0  0  0  0  0  0  0  0  0
    1.0022   17.1398  -32.3267 H   0  0  0  0  0  0  0  0  0  0  0  0
   -0.6556   18.5704  -33.5198 H   0  0  0  0  0  0  0  0  0  0  0  0
   -3.4628   18.2868  -33.0279 H   0  0  0  0  0  0  0  0  0  0  0  0
   -5.0312   18.2639  -32.1127 H   0  0  0  0  0  0  0  0  0  0  0  0
   -4.5626   19.4062  -34.9045 H   0  0  0  0  0  0  0  0  0  0  0  0
   -5.4636   17.8780  -34.4439 H   0  0  0  0  0  0  0  0  0  0  0  0
   -7.1097   21.4116  -33.3086 H   0  0  0  0  0  0  0  0  0  0  0  0
   -6.7712   20.0797  -32.1049 H   0  0  0  0  0  0  0  0  0  0  0  0
   -4.6571   21.6640  -33.6257 H   0  0  0  0  0  0  0  0  0  0  0  0
   -5.1572   21.9329  -31.9106 H   0  0  0  0  0  0  0  0  0  0  0  0
   -1.7820   20.3991  -29.7592 H   0  0  0  0  0  0  0  0  0  0  0  0
    1.3389   21.7859  -28.8020 H   0  0  0  0  0  0  0  0  0  0  0  0
   -0.2424   21.1632  -29.4538 H   0  0  0  0  0  0  0  0  0  0  0  0
    0.1177   23.5348  -27.5625 H   0  0  0  0  0  0  0  0  0  0  0  0
   -0.2760   23.6227  -29.3061 H   0  0  0  0  0  0  0  0  0  0  0  0
   -0.9240   25.1890  -28.4350 H   0  0  0  0  0  0  0  0  0  0  0  0
  1  2  1  0
  2  3  2  0
  3  4  1  0
  4  5  2  0
  5  6  1  0
  6  7  1  0
  7  8  1  0
  8  9  1  0
  9 10  1  0
 10 11  2  0
 10 12  2  0
 10 13  1  0
 13 14  2  0
 14 15  1  0
 15 16  2  0
 16 17  1  0
 17 18  1  0
 18 19  2  0
 18 20  2  0
 18 21  1  0
 21 22  1  0
 22 23  1  0
 23 24  1  0
 24 25  1  0
 25 26  1  0
 17 27  2  0
  9 28  1  0
 28 29  1  0
  5 30  1  0
 30 31  2  3
 30 32  1  0
 32  2  1  0
 29  6  1  0
 27 13  1  0
 26 21  1  0
  1 33  1  0
  1 34  1  0
  1 35  1  0
  3 36  1  0
  4 37  1  0
  7 38  1  0
  7 39  1  0
  8 40  1  0
  8 41  1  0
 14 42  1  0
 15 43  1  0
 16 44  1  0
 22 45  1  0
 22 46  1  0
 23 47  1  0
 23 48  1  0
 25 49  1  0
 25 50  1  0
 26 51  1  0
 26 52  1  0
 27 53  1  0
 28 54  1  0
 28 55  1  0
 29 56  1  0
 29 57  1  0
 31 58  1  0
M  CHG  1  32  -1
M  END
>  <UniqueID>  (29) 
27

>  <SMILES>  (29) 
Cc1ccc(N2CCN(S(=O)(=O)c3cccc(S(=O)(=O)N4CCOCC4)c3)CC2)c(=N)[n-]1

>  <Energy>  (29) 
77.77181197397242

>  <Genealogy>  (29) 
Cc1ccc(N2CCN(S(=O)(=O)c3cccc(S(=O)(=O)N4CCOCC4)c3)CC2)c(=N)[n-]1 (protonated)
Cc1ccc(N2CCN(S(=O)(=O)c3cccc(S(=O)(=O)N4CCOCC4)c3)CC2)c(=N)[n-]1 (3D coordinates assigned)
Cc1ccc(N2CCN(S(=O)(=O)c3cccc(S(=O)(=O)N4CCOCC4)c3)CC2)c(=N)[n-]1 (nonaromatic ring conformer: 77.77181197397242 kcal/mol)

>  <smiles>  (29) 
Cc1ccc(N2CCN(S(=O)(=O)c3cccc(S(=O)(=O)N4CCOCC4)c3)CC2)c(=N)[nH]1

>  <score_type>  (29) 
oracle

>  <origin>  (29) 
adgpu

>  <m_score__min__energy>  (29) 
-12.91

>  <m_primary>  (29) 
energy

$$$$
29:0
     RDKit          3D

 47 50  0  0  0  0  0  0  0  0999 V2000
   -0.5190   22.4890  -25.6020 C   0  0  0  0  0  0  0  0  0  0  0  0
   -0.0770   21.4770  -26.5010 O   0  0  0  0  0  0  0  0  0  0  0  0
   -0.6620   21.2140  -27.7490 C   0  0  0  0  0  0  0  0  0  0  0  0
   -0.0240   21.5660  -28.9630 C   0  0  0  0  0  0  0  0  0  0  0  0
   -0.6660   21.2730  -30.1610 C   0  0  0  0  0  0  0  0  0  0  0  0
   -1.8920   20.6590  -30.1910 C   0  0  0  0  0  0  0  0  0  0  0  0
   -2.5480   20.2970  -29.0170 C   0  0  0  0  0  0  0  0  0  0  0  0
   -1.9270   20.5800  -27.7760 C   0  0  0  0  0  0  0  0  0  0  0  0
   -2.5330   20.2500  -26.5540 O   0  0  0  0  0  0  0  0  0  0  0  0
   -2.9940   18.9480  -26.2100 C   0  0  0  0  0  0  0  0  0  0  0  0
   -2.3460   20.4890  -31.6030 C   0  0  1  0  0  0  0  0  0  0  0  0
   -3.5940   21.2190  -31.8450 N   0  0  0  0  0  0  0  0  0  0  0  0
   -4.8370   20.6280  -32.2210 C   0  0  0  0  0  0  0  0  0  0  0  0
   -4.9570   19.4600  -32.6770 O   0  0  0  0  0  0  0  0  0  0  0  0
   -5.9310   21.5590  -31.9830 C   0  0  0  0  0  0  0  0  0  0  0  0
   -7.2890   21.4340  -32.2670 C   0  0  0  0  0  0  0  0  0  0  0  0
   -8.1290   22.5170  -31.9690 C   0  0  0  0  0  0  0  0  0  0  0  0
   -7.6060   23.6890  -31.3890 C   0  0  0  0  0  0  0  0  0  0  0  0
   -6.2320   23.7960  -31.0860 C   0  0  0  0  0  0  0  0  0  0  0  0
   -5.7220   25.0180  -30.4320 C   0  0  0  0  0  0  0  0  0  0  0  0
   -6.4870   25.7030  -29.3430 C   0  0  0  0  0  0  0  0  0  0  0  0
   -4.6540   25.5410  -30.8480 O   0  0  0  0  0  0  0  0  0  0  0  0
   -5.4060   22.7070  -31.4190 C   0  0  0  0  0  0  0  0  0  0  0  0
   -3.9550   22.5100  -31.3360 C   0  0  0  0  0  0  0  0  0  0  0  0
   -3.1200   23.3540  -30.9170 O   0  0  0  0  0  0  0  0  0  0  0  0
   -1.1860   21.1050  -32.3480 C   0  0  0  0  0  0  0  0  0  0  0  0
   -1.0960   21.2070  -33.8360 C   0  0  0  0  0  0  0  0  0  0  0  0
   -0.2370   21.5420  -31.5180 C   0  0  0  0  0  0  0  0  0  0  0  0
   -0.3707   22.1496  -24.5662 H   0  0  0  0  0  0  0  0  0  0  0  0
    0.0592   23.4091  -25.7726 H   0  0  0  0  0  0  0  0  0  0  0  0
   -1.5869   22.6901  -25.7726 H   0  0  0  0  0  0  0  0  0  0  0  0
    0.9585   22.0607  -28.9585 H   0  0  0  0  0  0  0  0  0  0  0  0
   -3.5292   19.8010  -29.0529 H   0  0  0  0  0  0  0  0  0  0  0  0
   -3.0291   18.8489  -25.1150 H   0  0  0  0  0  0  0  0  0  0  0  0
   -4.0012   18.7942  -26.6246 H   0  0  0  0  0  0  0  0  0  0  0  0
   -2.3079   18.1947  -26.6246 H   0  0  0  0  0  0  0  0  0  0  0  0
   -2.5706   19.4525  -31.8950 H   0  0  0  0  0  0  0  0  0  0  0  0
   -7.6912   20.5121  -32.7123 H   0  0  0  0  0  0  0  0  0  0  0  0
   -9.2045   22.4505  -32.1900 H   0  0  0  0  0  0  0  0  0  0  0  0
   -8.2775   24.5321  -31.1693 H   0  0  0  0  0  0  0  0  0  0  0  0
   -6.1123   25.3675  -28.3647 H   0  0  0  0  0  0  0  0  0  0  0  0
   -6.3563   26.7916  -29.4320 H   0  0  0  0  0  0  0  0  0  0  0  0
   -7.5546   25.4534  -29.4320 H   0  0  0  0  0  0  0  0  0  0  0  0
   -0.3906   22.0065  -34.1067 H   0  0  0  0  0  0  0  0  0  0  0  0
   -0.7421   20.2506  -34.2484 H   0  0  0  0  0  0  0  0  0  0  0  0
   -2.0890   21.4390  -34.2484 H   0  0  0  0  0  0  0  0  0  0  0  0
    0.7072   22.0230  -31.8131 H   0  0  0  0  0  0  0  0  0  0  0  0
  1  2  1  0
  2  3  1  0
  3  4  2  0
  4  5  1  0
  5  6  2  0
  6  7  1  0
  7  8  2  0
  8  9  1  0
  9 10  1  0
  6 11  1  0
 11 12  1  0
 12 13  1  0
 13 14  2  0
 13 15  1  0
 15 16  2  0
 16 17  1  0
 17 18  2  0
 18 19  1  0
 19 20  1  0
 20 21  1  0
 20 22  2  0
 19 23  2  0
 23 24  1  0
 24 25  2  0
 11 26  1  0
 26 27  1  0
 26 28  2  0
  8  3  1  0
 24 12  1  0
 28  5  1  0
 23 15  1  0
  1 29  1  0
  1 30  1  0
  1 31  1  0
  4 32  1  0
  7 33  1  0
 10 34  1  0
 10 35  1  0
 10 36  1  0
 11 37  1  6
 16 38  1  0
 17 39  1  0
 18 40  1  0
 21 41  1  0
 21 42  1  0
 21 43  1  0
 27 44  1  0
 27 45  1  0
 27 46  1  0
 28 47  1  0
M  END
>  <UniqueID>  (30) 
28

>  <SMILES>  (30) 
COc1cc2c(cc1OC)[C@@H](N1C(=O)c3cccc(C(C)=O)c3C1=O)C(C)=C2

>  <Energy>  (30) 
100.31092345530384

>  <Genealogy>  (30) 
COc1cc2c(cc1OC)[C@@H](N1C(=O)c3cccc(C(C)=O)c3C1=O)C(C)=C2 (chirality)
COc1cc2c(cc1OC)[C@@H](N1C(=O)c3cccc(C(C)=O)c3C1=O)C(C)=C2 (3D coordinates assigned)
COc1cc2c(cc1OC)[C@@H](N1C(=O)c3cccc(C(C)=O)c3C1=O)C(C)=C2 (nonaromatic ring conformer: 100.31092345530384 kcal/mol)

>  <smiles>  (30) 
COc1cc2c(cc1OC)C(N1C(=O)c3cccc(C(C)=O)c3C1=O)C(C)=C2

>  <score_type>  (30) 
oracle

>  <origin>  (30) 
adgpu

>  <m_score__min__energy>  (30) 
-8.8300000000000001

>  <m_primary>  (30) 
energy

$$$$
30:0
     RDKit          3D

 40 42  0  0  0  0  0  0  0  0999 V2000
   -0.0115   26.6324  -28.5314 H   0  0  0  0  0  0  0  0  0  0  0  0
   -0.8410   26.0200  -28.1480 C   0  0  0  0  0  0  0  0  0  0  0  0
   -1.8060   25.5100  -28.9580 N   0  0  0  0  0  0  0  0  0  0  0  0
   -2.7110   24.7960  -28.2550 C   0  0  0  0  0  0  0  0  0  0  0  0
   -3.7350   24.2020  -28.7830 N   0  0  0  0  0  0  0  0  0  0  0  0
   -4.0830   24.2450  -30.4800 S   0  0  0  0  0  0  0  0  0  0  0  0
   -4.0550   25.6660  -30.9710 O   0  0  0  0  0  0  0  0  0  0  0  0
   -3.0570   23.4440  -31.2320 O   0  0  0  0  0  0  0  0  0  0  0  0
   -5.6800   23.5600  -30.7520 C   0  0  0  0  0  0  0  0  0  0  0  0
   -6.2920   22.7830  -29.7600 C   0  0  0  0  0  0  0  0  0  0  0  0
   -5.7673   22.5916  -28.8123 H   0  0  0  0  0  0  0  0  0  0  0  0
   -7.5670   22.2500  -29.9700 C   0  0  0  0  0  0  0  0  0  0  0  0
   -8.0381   21.6387  -29.1862 H   0  0  0  0  0  0  0  0  0  0  0  0
   -8.2520   22.4880  -31.1730 C   0  0  0  0  0  0  0  0  0  0  0  0
   -9.5640   21.9250  -31.3590 N   0  0  0  0  0  0  0  0  0  0  0  0
  -10.3450   22.2900  -30.7650 H   0  0  0  0  0  0  0  0  0  0  0  0
   -9.8540   20.8710  -32.3330 C   0  0  0  0  0  0  0  0  0  0  0  0
  -10.7461   20.3151  -32.0088 H   0  0  0  0  0  0  0  0  0  0  0  0
  -10.0296   21.3351  -33.3147 H   0  0  0  0  0  0  0  0  0  0  0  0
   -8.6930   19.9190  -32.4480 C   0  0  0  0  0  0  0  0  0  0  0  0
   -8.6390   18.7700  -31.6470 C   0  0  0  0  0  0  0  0  0  0  0  0
   -9.4636   18.5475  -30.9538 H   0  0  0  0  0  0  0  0  0  0  0  0
   -7.5430   17.9050  -31.7240 C   0  0  0  0  0  0  0  0  0  0  0  0
   -7.5084   17.0086  -31.0875 H   0  0  0  0  0  0  0  0  0  0  0  0
   -6.4850   18.1740  -32.6100 C   0  0  0  0  0  0  0  0  0  0  0  0
   -5.2800   17.2690  -32.6560 C   0  0  0  0  0  0  0  0  0  0  0  0
   -5.2690   16.5880  -33.8600 F   0  0  0  0  0  0  0  0  0  0  0  0
   -5.3180   16.3520  -31.6200 F   0  0  0  0  0  0  0  0  0  0  0  0
   -4.1120   18.0030  -32.5430 F   0  0  0  0  0  0  0  0  0  0  0  0
   -6.5220   19.3510  -33.3790 C   0  0  0  0  0  0  0  0  0  0  0  0
   -5.6820   19.5945  -34.0461 H   0  0  0  0  0  0  0  0  0  0  0  0
   -7.6190   20.2130  -33.3010 C   0  0  0  0  0  0  0  0  0  0  0  0
   -7.6405   21.1274  -33.9121 H   0  0  0  0  0  0  0  0  0  0  0  0
   -7.6350   23.2770  -32.1630 C   0  0  0  0  0  0  0  0  0  0  0  0
   -8.1597   23.4752  -33.1093 H   0  0  0  0  0  0  0  0  0  0  0  0
   -6.3600   23.8100  -31.9510 C   0  0  0  0  0  0  0  0  0  0  0  0
   -5.8887   24.4284  -32.7291 H   0  0  0  0  0  0  0  0  0  0  0  0
   -2.3600   24.7650  -26.6150 S   0  0  0  0  0  0  0  0  0  0  0  0
   -0.9790   25.7110  -26.7990 C   0  0  0  0  0  0  0  0  0  0  0  0
   -0.3030   26.0295  -25.9918 H   0  0  0  0  0  0  0  0  0  0  0  0
  1  2  1  0
  2  3  1  0
  3  4  1  0
  4  5  2  0
  5  6  1  0
  6  7  2  0
  6  8  2  0
  6  9  1  0
  9 10  2  0
 10 11  1  0
 10 12  1  0
 12 13  1  0
 12 14  2  0
 14 15  1  0
 15 16  1  0
 15 17  1  0
 17 18  1  0
 17 19  1  0
 17 20  1  0
 20 21  2  0
 21 22  1  0
 21 23  1  0
 23 24  1  0
 23 25  2  0
 25 26  1  0
 26 27  1  0
 26 28  1  0
 26 29  1  0
 25 30  1  0
 30 31  1  0
 30 32  2  0
 32 33  1  0
 14 34  1  0
 34 35  1  0
 34 36  2  0
 36 37  1  0
  4 38  1  0
 38 39  1  0
 39 40  1  0
 39  2  2  0
 36  9  1  0
 32 20  1  0
M  CHG  1   3  -1
M  END
>  <UniqueID>  (31) 
29

>  <SMILES>  (31) 
O=S(=O)(/N=c1\[n-]ccs1)c1ccc(NCc2ccc(C(F)(F)F)cc2)cc1

>  <Energy>  (31) 
75.96986837842893

>  <Genealogy>  (31) 
O=S(=O)(N=c1[n-]ccs1)c1ccc(NCc2ccc(C(F)(F)F)cc2)cc1 (protonated)
O=S(=O)(/N=c1\[n-]ccs1)c1ccc(NCc2ccc(C(F)(F)F)cc2)cc1 (cis-trans isomerization)
O=S(=O)(/N=c1\[n-]ccs1)c1ccc(NCc2ccc(C(F)(F)F)cc2)cc1 (3D coordinates assigned)
O=S(=O)(/N=c1\[n-]ccs1)c1ccc(NCc2ccc(C(F)(F)F)cc2)cc1 (optimized conformer: 75.96986837842893 kcal/mol)

>  <smiles>  (31) 
O=S(=O)(N=c1[nH]ccs1)c1ccc(NCc2ccc(C(F)(F)F)cc2)cc1

>  <score_type>  (31) 
oracle

>  <origin>  (31) 
adgpu

>  <m_score__min__energy>  (31) 
-10.619999999999999

>  <m_primary>  (31) 
energy

$$$$
31:0
     RDKit          3D

 92 96  0  0  0  0  0  0  0  0999 V2000
   -6.3620   17.4100  -31.2740 C   0  0  0  0  0  0  0  0  0  0  0  0
   -6.5230   18.2990  -32.4470 N   0  0  0  0  0  0  0  0  0  0  0  0
   -7.9550   18.4490  -32.7930 C   0  0  0  0  0  0  0  0  0  0  0  0
   -8.7850   18.8780  -31.5780 C   0  0  0  0  0  0  0  0  0  0  0  0
   -9.0590   20.3930  -31.5090 C   0  0  0  0  0  0  0  0  0  0  0  0
   -7.7870   21.1310  -31.5740 N   0  0  0  0  0  0  0  0  0  0  0  0
   -7.3990   22.1830  -30.6440 C   0  0  0  0  0  0  0  0  0  0  0  0
   -8.2580   22.5760  -29.8080 O   0  0  0  0  0  0  0  0  0  0  0  0
   -6.0660   22.8760  -30.5830 C   0  0  0  0  0  0  0  0  0  0  0  0
   -5.9430   23.9930  -29.7330 C   0  0  0  0  0  0  0  0  0  0  0  0
   -4.6950   24.5500  -29.4290 C   0  0  0  0  0  0  0  0  0  0  0  0
   -3.5330   24.0320  -30.0000 C   0  0  0  0  0  0  0  0  0  0  0  0
   -2.2930   24.5470  -29.5850 O   0  0  0  0  0  0  0  0  0  0  0  0
   -1.8480   24.6630  -28.2650 C   0  0  0  0  0  0  0  0  0  0  0  0
   -1.6360   25.9470  -27.7120 C   0  0  0  0  0  0  0  0  0  0  0  0
   -1.3300   26.1010  -26.3670 C   0  0  0  0  0  0  0  0  0  0  0  0
   -1.1630   24.9830  -25.5610 C   0  0  0  0  0  0  0  0  0  0  0  0
   -1.2590   23.7020  -26.1070 C   0  0  0  0  0  0  0  0  0  0  0  0
   -1.5800   23.4990  -27.4720 C   0  0  0  0  0  0  0  0  0  0  0  0
   -1.5970   22.0330  -27.9950 C   0  0  0  0  0  0  0  0  0  0  0  0
   -3.0710   21.5880  -28.1610 C   0  0  0  0  0  0  0  0  0  0  0  0
   -0.8840   21.9480  -29.3680 C   0  0  0  0  0  0  0  0  0  0  0  0
   -0.9110   20.9930  -27.0620 C   0  0  0  0  0  0  0  0  0  0  0  0
   -3.6450   23.0260  -30.9750 C   0  0  0  0  0  0  0  0  0  0  0  0
   -2.4930   22.5960  -31.7120 N   0  0  0  0  0  0  0  0  0  0  0  0
   -2.5100   21.4670  -32.5930 C   0  0  0  0  0  0  0  0  0  0  0  0
   -2.8870   21.6170  -33.7880 O   0  0  0  0  0  0  0  0  0  0  0  0
   -2.0570   20.1940  -32.1180 N   0  0  0  0  0  0  0  0  0  0  0  0
   -2.2100   18.9430  -32.8200 C   0  0  0  0  0  0  0  0  0  0  0  0
   -3.2670   18.7160  -33.7310 C   0  0  0  0  0  0  0  0  0  0  0  0
   -3.3510   17.5160  -34.4400 C   0  0  0  0  0  0  0  0  0  0  0  0
   -2.4090   16.4980  -34.2190 C   0  0  0  0  0  0  0  0  0  0  0  0
   -2.4620   15.0100  -35.1700 S   0  0  0  0  0  0  0  0  0  0  0  0
   -3.0920   15.3150  -36.4990 O   0  0  0  0  0  0  0  0  0  0  0  0
   -1.0490   14.5600  -35.4200 O   0  0  0  0  0  0  0  0  0  0  0  0
   -3.3120   13.7070  -34.3590 N   0  0  0  0  0  0  0  0  0  0  0  0
   -2.4830   13.1430  -33.2880 C   0  0  0  0  0  0  0  0  0  0  0  0
   -3.2040   11.9650  -32.6120 C   0  0  0  0  0  0  0  0  0  0  0  0
   -4.5660   12.3240  -32.1430 N   0  0  0  0  0  0  0  0  0  0  0  0
   -4.5480   13.0800  -30.8730 C   0  0  0  0  0  0  0  0  0  0  0  0
   -5.3560   12.9980  -33.1910 C   0  0  0  0  0  0  0  0  0  0  0  0
   -4.5980   14.1720  -33.8190 C   0  0  0  0  0  0  0  0  0  0  0  0
   -1.4180   16.6770  -33.2440 C   0  0  0  0  0  0  0  0  0  0  0  0
   -1.3210   17.8900  -32.5550 C   0  0  0  0  0  0  0  0  0  0  0  0
   -4.8840   22.4040  -31.1990 C   0  0  0  0  0  0  0  0  0  0  0  0
   -6.8420   20.7480  -32.6440 C   0  0  0  0  0  0  0  0  0  0  0  0
   -5.8790   19.6150  -32.2430 C   0  0  0  0  0  0  0  0  0  0  0  0
   -6.4685   17.9983  -30.3507 H   0  0  0  0  0  0  0  0  0  0  0  0
   -7.1327   16.6255  -31.2999 H   0  0  0  0  0  0  0  0  0  0  0  0
   -5.3652   16.9457  -31.2999 H   0  0  0  0  0  0  0  0  0  0  0  0
   -8.0545   19.2104  -33.5806 H   0  0  0  0  0  0  0  0  0  0  0  0
   -8.3298   17.4749  -33.1402 H   0  0  0  0  0  0  0  0  0  0  0  0
   -9.7510   18.3532  -31.6163 H   0  0  0  0  0  0  0  0  0  0  0  0
   -8.1977   18.6199  -30.6844 H   0  0  0  0  0  0  0  0  0  0  0  0
   -9.6966   20.6881  -32.3554 H   0  0  0  0  0  0  0  0  0  0  0  0
   -9.5685   20.6282  -30.5629 H   0  0  0  0  0  0  0  0  0  0  0  0
   -6.8497   24.4383  -29.2976 H   0  0  0  0  0  0  0  0  0  0  0  0
   -4.6307   25.4014  -28.7355 H   0  0  0  0  0  0  0  0  0  0  0  0
   -1.7146   26.8353  -28.3561 H   0  0  0  0  0  0  0  0  0  0  0  0
   -1.2198   27.1086  -25.9397 H   0  0  0  0  0  0  0  0  0  0  0  0
   -0.9543   25.1072  -24.4881 H   0  0  0  0  0  0  0  0  0  0  0  0
   -1.0811   22.8289  -25.4619 H   0  0  0  0  0  0  0  0  0  0  0  0
   -3.5264   21.4505  -27.1692 H   0  0  0  0  0  0  0  0  0  0  0  0
   -3.6264   22.3585  -28.7159 H   0  0  0  0  0  0  0  0  0  0  0  0
   -3.1072   20.6389  -28.7159 H   0  0  0  0  0  0  0  0  0  0  0  0
    0.1973   21.8191  -29.2123 H   0  0  0  0  0  0  0  0  0  0  0  0
   -1.2779   21.0904  -29.9332 H   0  0  0  0  0  0  0  0  0  0  0  0
   -1.0652   22.8741  -29.9332 H   0  0  0  0  0  0  0  0  0  0  0  0
   -1.0917   21.2669  -26.0121 H   0  0  0  0  0  0  0  0  0  0  0  0
   -1.3280   19.9940  -27.2573 H   0  0  0  0  0  0  0  0  0  0  0  0
    0.1715   20.9831  -27.2573 H   0  0  0  0  0  0  0  0  0  0  0  0
   -1.5190   20.1910  -31.2190 H   0  0  0  0  0  0  0  0  0  0  0  0
   -4.0310   19.4926  -33.8828 H   0  0  0  0  0  0  0  0  0  0  0  0
   -4.1571   17.3676  -35.1736 H   0  0  0  0  0  0  0  0  0  0  0  0
   -1.5326   12.7892  -33.7142 H   0  0  0  0  0  0  0  0  0  0  0  0
   -2.2944   13.9233  -32.5360 H   0  0  0  0  0  0  0  0  0  0  0  0
   -3.2862   11.1402  -33.3351 H   0  0  0  0  0  0  0  0  0  0  0  0
   -2.6136   11.6738  -31.7307 H   0  0  0  0  0  0  0  0  0  0  0  0
   -4.5647   12.3767  -30.0274 H   0  0  0  0  0  0  0  0  0  0  0  0
   -3.6350   13.6916  -30.8232 H   0  0  0  0  0  0  0  0  0  0  0  0
   -5.4308   13.7343  -30.8232 H   0  0  0  0  0  0  0  0  0  0  0  0
   -5.5957   12.2686  -33.9787 H   0  0  0  0  0  0  0  0  0  0  0  0
   -6.2691   13.3955  -32.7238 H   0  0  0  0  0  0  0  0  0  0  0  0
   -5.2009   14.6019  -34.6324 H   0  0  0  0  0  0  0  0  0  0  0  0
   -4.4123   14.9358  -33.0495 H   0  0  0  0  0  0  0  0  0  0  0  0
   -0.7148   15.8612  -33.0203 H   0  0  0  0  0  0  0  0  0  0  0  0
   -0.5369   18.0206  -31.7947 H   0  0  0  0  0  0  0  0  0  0  0  0
   -4.9360   21.5318  -31.8673 H   0  0  0  0  0  0  0  0  0  0  0  0
   -7.4224   20.4174  -33.5180 H   0  0  0  0  0  0  0  0  0  0  0  0
   -6.2252   21.6328  -32.8601 H   0  0  0  0  0  0  0  0  0  0  0  0
   -4.9710   19.6745  -32.8610 H   0  0  0  0  0  0  0  0  0  0  0  0
   -5.6186   19.7255  -31.1800 H   0  0  0  0  0  0  0  0  0  0  0  0
  1  2  1  0
  2  3  1  0
  3  4  1  0
  4  5  1  0
  5  6  1  0
  6  7  1  0
  7  8  2  0
  7  9  1  0
  9 10  2  0
 10 11  1  0
 11 12  2  0
 12 13  1  0
 13 14  1  0
 14 15  2  0
 15 16  1  0
 16 17  2  0
 17 18  1  0
 18 19  2  0
 19 20  1  0
 20 21  1  0
 20 22  1  0
 20 23  1  0
 12 24  1  0
 24 25  1  0
 25 26  1  0
 26 27  2  0
 26 28  1  0
 28 29  1  0
 29 30  2  0
 30 31  1  0
 31 32  2  0
 32 33  1  0
 33 34  2  0
 33 35  2  0
 33 36  1  0
 36 37  1  0
 37 38  1  0
 38 39  1  0
 39 40  1  0
 39 41  1  0
 41 42  1  0
 32 43  1  0
 43 44  2  0
 24 45  2  0
  6 46  1  0
 46 47  1  0
 47  2  1  0
 45  9  1  0
 19 14  1  0
 44 29  1  0
 42 36  1  0
  1 48  1  0
  1 49  1  0
  1 50  1  0
  3 51  1  0
  3 52  1  0
  4 53  1  0
  4 54  1  0
  5 55  1  0
  5 56  1  0
 10 57  1  0
 11 58  1  0
 15 59  1  0
 16 60  1  0
 17 61  1  0
 18 62  1  0
 21 63  1  0
 21 64  1  0
 21 65  1  0
 22 66  1  0
 22 67  1  0
 22 68  1  0
 23 69  1  0
 23 70  1  0
 23 71  1  0
 28 72  1  0
 30 73  1  0
 31 74  1  0
 37 75  1  0
 37 76  1  0
 38 77  1  0
 38 78  1  0
 40 79  1  0
 40 80  1  0
 40 81  1  0
 41 82  1  0
 41 83  1  0
 42 84  1  0
 42 85  1  0
 43 86  1  0
 44 87  1  0
 45 88  1  0
 46 89  1  0
 46 90  1  0
 47 91  1  0
 47 92  1  0
M  CHG  1  25  -1
M  END
>  <UniqueID>  (32) 
30

>  <SMILES>  (32) 
CN1CCCN(C(=O)c2ccc(Oc3ccccc3C(C)(C)C)c([N-]C(=O)Nc3ccc(S(=O)(=O)N4CCN(C)CC4)cc3)c2)CC1

>  <Energy>  (32) 
144.8916624222932

>  <Genealogy>  (32) 
CN1CCCN(C(=O)c2ccc(Oc3ccccc3C(C)(C)C)c([N-]C(=O)Nc3ccc(S(=O)(=O)N4CCN(C)CC4)cc3)c2)CC1 (protonated)
CN1CCCN(C(=O)c2ccc(Oc3ccccc3C(C)(C)C)c([N-]C(=O)Nc3ccc(S(=O)(=O)N4CCN(C)CC4)cc3)c2)CC1 (3D coordinates assigned)
CN1CCCN(C(=O)c2ccc(Oc3ccccc3C(C)(C)C)c([N-]C(=O)Nc3ccc(S(=O)(=O)N4CCN(C)CC4)cc3)c2)CC1 (nonaromatic ring conformer: 144.8916624222932 kcal/mol)

>  <smiles>  (32) 
CN1CCCN(C(=O)c2ccc(Oc3ccccc3C(C)(C)C)c(NC(=O)Nc3ccc(S(=O)(=O)N4CCN(C)CC4)cc3)c2)CC1

>  <score_type>  (32) 
oracle

>  <origin>  (32) 
adgpu

>  <m_score__min__energy>  (32) 
-11.720000000000001

>  <m_primary>  (32) 
energy

$$$$
32:0
     RDKit          3D

 43 45  0  0  0  0  0  0  0  0999 V2000
   -6.8190   25.7130  -29.8250 O   0  0  0  0  0  0  0  0  0  0  0  0
   -5.7030   24.7250  -30.0220 S   0  0  0  0  0  0  0  0  0  0  0  0
   -4.7470   25.2590  -31.0490 O   0  0  0  0  0  0  0  0  0  0  0  0
   -4.8670   24.5040  -28.5180 N   0  0  0  0  0  0  0  0  0  0  0  0
   -3.7430   23.6320  -28.3220 C   0  0  0  0  0  0  0  0  0  0  0  0
   -3.8780   22.3740  -27.7040 C   0  0  0  0  0  0  0  0  0  0  0  0
   -2.7680   21.5380  -27.5570 C   0  0  0  0  0  0  0  0  0  0  0  0
   -1.5150   21.9500  -28.0130 C   0  0  0  0  0  0  0  0  0  0  0  0
   -1.3680   23.2050  -28.6110 C   0  0  0  0  0  0  0  0  0  0  0  0
   -2.4770   24.0480  -28.7660 C   0  0  0  0  0  0  0  0  0  0  0  0
   -2.3300   25.2970  -29.3660 O   0  0  0  0  0  0  0  0  0  0  0  0
   -6.3260   23.1740  -30.5730 C   0  0  0  0  0  0  0  0  0  0  0  0
   -5.4830   22.0590  -30.6740 C   0  0  0  0  0  0  0  0  0  0  0  0
   -5.9580   20.8690  -31.2300 C   0  0  0  0  0  0  0  0  0  0  0  0
   -7.2780   20.7830  -31.6960 C   0  0  0  0  0  0  0  0  0  0  0  0
   -7.8380   19.3290  -32.5250 S   0  0  0  0  0  0  0  0  0  0  0  0
   -9.2270   19.5630  -33.0520 O   0  0  0  0  0  0  0  0  0  0  0  0
   -7.8960   18.1900  -31.5450 O   0  0  0  0  0  0  0  0  0  0  0  0
   -6.7790   18.9090  -33.8520 N   0  0  0  0  0  0  0  0  0  0  0  0
   -6.4750   17.4650  -33.8330 C   0  0  0  0  0  0  0  0  0  0  0  0
   -5.1760   17.1700  -34.6020 C   0  0  0  0  0  0  0  0  0  0  0  0
   -4.0290   17.8220  -34.0680 O   0  0  0  0  0  0  0  0  0  0  0  0
   -4.3300   19.0040  -33.3390 C   0  0  0  0  0  0  0  0  0  0  0  0
   -5.5640   19.7540  -33.8720 C   0  0  0  0  0  0  0  0  0  0  0  0
   -8.1340   21.8840  -31.5480 C   0  0  0  0  0  0  0  0  0  0  0  0
   -7.6580   23.0750  -30.9930 C   0  0  0  0  0  0  0  0  0  0  0  0
   -4.8617   22.0479  -27.3353 H   0  0  0  0  0  0  0  0  0  0  0  0
   -2.8821   20.5530  -27.0808 H   0  0  0  0  0  0  0  0  0  0  0  0
   -0.6438   21.2877  -27.9020 H   0  0  0  0  0  0  0  0  0  0  0  0
   -0.3780   23.5323  -28.9613 H   0  0  0  0  0  0  0  0  0  0  0  0
   -3.1280   25.8130  -29.7210 H   0  0  0  0  0  0  0  0  0  0  0  0
   -4.4452   22.1211  -30.3147 H   0  0  0  0  0  0  0  0  0  0  0  0
   -5.2937   19.9952  -31.3027 H   0  0  0  0  0  0  0  0  0  0  0  0
   -6.3597   17.1345  -32.7902 H   0  0  0  0  0  0  0  0  0  0  0  0
   -7.3017   16.9243  -34.3170 H   0  0  0  0  0  0  0  0  0  0  0  0
   -4.9992   16.0845  -34.5797 H   0  0  0  0  0  0  0  0  0  0  0  0
   -5.3152   17.5543  -35.6233 H   0  0  0  0  0  0  0  0  0  0  0  0
   -4.5153   18.7290  -32.2902 H   0  0  0  0  0  0  0  0  0  0  0  0
   -3.4685   19.6795  -33.4460 H   0  0  0  0  0  0  0  0  0  0  0  0
   -5.7383   20.6411  -33.2454 H   0  0  0  0  0  0  0  0  0  0  0  0
   -5.3644   20.0367  -34.9161 H   0  0  0  0  0  0  0  0  0  0  0  0
   -9.1833   21.8099  -31.8697 H   0  0  0  0  0  0  0  0  0  0  0  0
   -8.3321   23.9376  -30.8858 H   0  0  0  0  0  0  0  0  0  0  0  0
  1  2  2  0
  2  3  2  0
  2  4  1  0
  4  5  1  0
  5  6  2  0
  6  7  1  0
  7  8  2  0
  8  9  1  0
  9 10  2  0
 10 11  1  0
  2 12  1  0
 12 13  2  0
 13 14  1  0
 14 15  2  0
 15 16  1  0
 16 17  2  0
 16 18  2  0
 16 19  1  0
 19 20  1  0
 20 21  1  0
 21 22  1  0
 22 23  1  0
 23 24  1  0
 15 25  1  0
 25 26  2  0
 10  5  1  0
 26 12  1  0
 24 19  1  0
  6 27  1  0
  7 28  1  0
  8 29  1  0
  9 30  1  0
 11 31  1  0
 13 32  1  0
 14 33  1  0
 20 34  1  0
 20 35  1  0
 21 36  1  0
 21 37  1  0
 23 38  1  0
 23 39  1  0
 24 40  1  0
 24 41  1  0
 25 42  1  0
 26 43  1  0
M  CHG  1   4  -1
M  END
>  <UniqueID>  (33) 
31

>  <SMILES>  (33) 
O=S(=O)([N-]c1ccccc1O)c1ccc(S(=O)(=O)N2CCOCC2)cc1

>  <Energy>  (33) 
57.879540126574646

>  <Genealogy>  (33) 
O=S(=O)([N-]c1ccccc1O)c1ccc(S(=O)(=O)N2CCOCC2)cc1 (protonated)
O=S(=O)([N-]c1ccccc1O)c1ccc(S(=O)(=O)N2CCOCC2)cc1 (3D coordinates assigned)
O=S(=O)([N-]c1ccccc1O)c1ccc(S(=O)(=O)N2CCOCC2)cc1 (nonaromatic ring conformer: 57.879540126574646 kcal/mol)

>  <smiles>  (33) 
O=S(=O)(Nc1ccccc1O)c1ccc(S(=O)(=O)N2CCOCC2)cc1

>  <score_type>  (33) 
oracle

>  <origin>  (33) 
adgpu

>  <m_score__min__energy>  (33) 
-10.93

>  <m_primary>  (33) 
energy

$$$$
33:0
     RDKit          3D

 44 46  0  0  0  0  0  0  0  0999 V2000
   -4.6000   14.5310  -31.9990 C   0  0  0  0  0  0  0  0  0  0  0  0
   -5.0400   15.6850  -32.8360 C   0  0  0  0  0  0  0  0  0  0  0  0
   -5.1500   15.6850  -34.2120 C   0  0  0  0  0  0  0  0  0  0  0  0
   -5.5950   16.9450  -34.5510 C   0  0  0  0  0  0  0  0  0  0  0  0
   -5.7310   17.6320  -33.3570 C   0  0  0  0  0  0  0  0  0  0  0  0
   -6.1740   19.0250  -33.1870 C   0  0  0  0  0  0  0  0  0  0  0  0
   -6.5210   19.6820  -34.2060 O   0  0  0  0  0  0  0  0  0  0  0  0
   -6.2020   19.6420  -31.8900 N   0  0  0  0  0  0  0  0  0  0  0  0
   -6.7110   20.9690  -31.6860 C   0  0  0  0  0  0  0  0  0  0  0  0
   -5.9360   21.8850  -30.9610 C   0  0  0  0  0  0  0  0  0  0  0  0
   -6.3790   23.2000  -30.7690 C   0  0  0  0  0  0  0  0  0  0  0  0
   -5.3880   24.3660  -29.8950 S   0  0  0  0  0  0  0  0  0  0  0  0
   -4.4810   25.0500  -30.8790 O   0  0  0  0  0  0  0  0  0  0  0  0
   -6.2690   25.4030  -29.2530 O   0  0  0  0  0  0  0  0  0  0  0  0
   -4.4450   23.5230  -28.6860 N   0  0  0  0  0  0  0  0  0  0  0  0
   -4.0390   24.4170  -27.5780 C   0  0  0  0  0  0  0  0  0  0  0  0
   -2.5900   24.9180  -27.7170 C   0  0  0  0  0  0  0  0  0  0  0  0
   -2.2500   25.0590  -29.0770 O   0  0  0  0  0  0  0  0  0  0  0  0
   -2.1620   23.7870  -29.6950 C   0  0  0  0  0  0  0  0  0  0  0  0
   -3.2980   22.8180  -29.2840 C   0  0  0  0  0  0  0  0  0  0  0  0
   -7.6070   23.6010  -31.3040 C   0  0  0  0  0  0  0  0  0  0  0  0
   -8.4000   22.6880  -32.0040 C   0  0  0  0  0  0  0  0  0  0  0  0
   -7.9710   21.3660  -32.1890 C   0  0  0  0  0  0  0  0  0  0  0  0
   -8.8430   20.4340  -32.8400 N   0  0  0  0  0  0  0  0  0  0  0  0
   -5.3920   16.8550  -32.3530 O   0  0  0  0  0  0  0  0  0  0  0  0
   -4.6991   14.7910  -30.9348 H   0  0  0  0  0  0  0  0  0  0  0  0
   -5.2274   13.6556  -32.2226 H   0  0  0  0  0  0  0  0  0  0  0  0
   -3.5490   14.2955  -32.2226 H   0  0  0  0  0  0  0  0  0  0  0  0
   -4.9286   14.8525  -34.8960 H   0  0  0  0  0  0  0  0  0  0  0  0
   -5.7999   17.3261  -35.5623 H   0  0  0  0  0  0  0  0  0  0  0  0
   -5.6400   19.2180  -31.1200 H   0  0  0  0  0  0  0  0  0  0  0  0
   -4.9709   21.5681  -30.5389 H   0  0  0  0  0  0  0  0  0  0  0  0
   -4.7120   25.2870  -27.5636 H   0  0  0  0  0  0  0  0  0  0  0  0
   -4.1014   23.8378  -26.6449 H   0  0  0  0  0  0  0  0  0  0  0  0
   -2.4932   25.8924  -27.2158 H   0  0  0  0  0  0  0  0  0  0  0  0
   -1.9123   24.1866  -27.2526 H   0  0  0  0  0  0  0  0  0  0  0  0
   -2.2016   23.9267  -30.7854 H   0  0  0  0  0  0  0  0  0  0  0  0
   -1.2158   23.3330  -29.3654 H   0  0  0  0  0  0  0  0  0  0  0  0
   -3.6422   22.2770  -30.1778 H   0  0  0  0  0  0  0  0  0  0  0  0
   -2.8951   22.1286  -28.5275 H   0  0  0  0  0  0  0  0  0  0  0  0
   -7.9497   24.6381  -31.1735 H   0  0  0  0  0  0  0  0  0  0  0  0
   -9.3691   23.0091  -32.4134 H   0  0  0  0  0  0  0  0  0  0  0  0
   -8.6090   20.0600  -33.7870 H   0  0  0  0  0  0  0  0  0  0  0  0
   -9.7620   20.1610  -32.4280 H   0  0  0  0  0  0  0  0  0  0  0  0
  1  2  1  0
  2  3  2  0
  3  4  1  0
  4  5  2  0
  5  6  1  0
  6  7  2  0
  6  8  1  0
  8  9  1  0
  9 10  2  0
 10 11  1  0
 11 12  1  0
 12 13  2  0
 12 14  2  0
 12 15  1  0
 15 16  1  0
 16 17  1  0
 17 18  1  0
 18 19  1  0
 19 20  1  0
 11 21  2  0
 21 22  1  0
 22 23  2  0
 23 24  1  0
  5 25  1  0
 25  2  1  0
 23  9  1  0
 20 15  1  0
  1 26  1  0
  1 27  1  0
  1 28  1  0
  3 29  1  0
  4 30  1  0
  8 31  1  0
 10 32  1  0
 16 33  1  0
 16 34  1  0
 17 35  1  0
 17 36  1  0
 19 37  1  0
 19 38  1  0
 20 39  1  0
 20 40  1  0
 21 41  1  0
 22 42  1  0
 24 43  1  0
 24 44  1  0
M  END
>  <UniqueID>  (34) 
32

>  <SMILES>  (34) 
Cc1ccc(C(=O)Nc2cc(S(=O)(=O)N3CCOCC3)ccc2N)o1

>  <Energy>  (34) 
85.49287339516886

>  <Genealogy>  (34) 
Cc1ccc(C(=O)Nc2cc(S(=O)(=O)N3CCOCC3)ccc2N)o1 (3D coordinates assigned)
Cc1ccc(C(=O)Nc2cc(S(=O)(=O)N3CCOCC3)ccc2N)o1 (nonaromatic ring conformer: 85.49287339516886 kcal/mol)

>  <smiles>  (34) 
Cc1ccc(C(=O)Nc2cc(S(=O)(=O)N3CCOCC3)ccc2N)o1

>  <score_type>  (34) 
oracle

>  <origin>  (34) 
adgpu

>  <m_score__min__energy>  (34) 
-8.9499999999999993

>  <m_primary>  (34) 
energy

$$$$
34:0
     RDKit          3D

 30 32  0  0  0  0  0  0  0  0999 V2000
   -5.9720   25.0644  -32.4107 H   0  0  0  0  0  0  0  0  0  0  0  0
   -6.2320   24.0840  -31.9850 C   0  0  0  0  0  0  0  0  0  0  0  0
   -7.2710   23.4310  -32.5300 C   0  0  0  0  0  0  0  0  0  0  0  0
   -7.7196   23.8580  -33.4391 H   0  0  0  0  0  0  0  0  0  0  0  0
   -7.8560   22.1850  -32.0020 C   0  0  0  0  0  0  0  0  0  0  0  0
   -8.7980   22.1080  -30.9810 C   0  0  0  0  0  0  0  0  0  0  0  0
   -9.2285   22.9747  -30.4580 H   0  0  0  0  0  0  0  0  0  0  0  0
   -9.1100   20.8180  -30.7220 N   0  0  0  0  0  0  0  0  0  0  0  0
   -9.7890   20.4710  -30.0080 H   0  0  0  0  0  0  0  0  0  0  0  0
   -8.3580   20.0790  -31.5550 C   0  0  0  0  0  0  0  0  0  0  0  0
   -8.3130   18.6880  -31.6380 C   0  0  0  0  0  0  0  0  0  0  0  0
   -8.9564   18.0612  -31.0031 H   0  0  0  0  0  0  0  0  0  0  0  0
   -7.4200   18.1110  -32.5580 C   0  0  0  0  0  0  0  0  0  0  0  0
   -7.3695   17.0167  -32.6580 H   0  0  0  0  0  0  0  0  0  0  0  0
   -6.5870   18.9280  -33.3550 C   0  0  0  0  0  0  0  0  0  0  0  0
   -5.3660   18.1290  -34.5860 Br  0  0  0  0  0  0  0  0  0  0  0  0
   -6.6470   20.3300  -33.2410 C   0  0  0  0  0  0  0  0  0  0  0  0
   -5.9889   20.9761  -33.8406 H   0  0  0  0  0  0  0  0  0  0  0  0
   -7.5670   20.8750  -32.3440 C   0  0  0  0  0  0  0  0  0  0  0  0
   -5.4080   23.5920  -30.8580 C   0  0  0  0  0  0  0  0  0  0  0  0
   -5.3930   24.2460  -29.6110 C   0  0  0  0  0  0  0  0  0  0  0  0
   -6.0032   25.1484  -29.4582 H   0  0  0  0  0  0  0  0  0  0  0  0
   -4.6060   23.7530  -28.5670 C   0  0  0  0  0  0  0  0  0  0  0  0
   -4.5849   24.2779  -27.6005 H   0  0  0  0  0  0  0  0  0  0  0  0
   -3.8460   22.5950  -28.7480 C   0  0  0  0  0  0  0  0  0  0  0  0
   -3.2195   22.2143  -27.9279 H   0  0  0  0  0  0  0  0  0  0  0  0
   -3.8820   21.9200  -29.9720 C   0  0  0  0  0  0  0  0  0  0  0  0
   -3.2913   21.0026  -30.1112 H   0  0  0  0  0  0  0  0  0  0  0  0
   -4.6680   22.4100  -31.0190 C   0  0  0  0  0  0  0  0  0  0  0  0
   -4.7069   21.8663  -31.9744 H   0  0  0  0  0  0  0  0  0  0  0  0
  1  2  1  0
  2  3  2  0
  3  4  1  0
  3  5  1  0
  5  6  2  0
  6  7  1  0
  6  8  1  0
  8  9  1  0
  8 10  1  0
 10 11  2  0
 11 12  1  0
 11 13  1  0
 13 14  1  0
 13 15  2  0
 15 16  1  0
 15 17  1  0
 17 18  1  0
 17 19  2  0
  2 20  1  0
 20 21  2  0
 21 22  1  0
 21 23  1  0
 23 24  1  0
 23 25  2  0
 25 26  1  0
 25 27  1  0
 27 28  1  0
 27 29  2  0
 29 30  1  0
 19  5  1  0
 29 20  1  0
 19 10  1  0
M  END
>  <UniqueID>  (35) 
33

>  <SMILES>  (35) 
Brc1ccc2[nH]cc(/C=C\c3ccccc3)c2c1

>  <Energy>  (35) 
74.06688454720556

>  <Genealogy>  (35) 
Brc1ccc2[nH]cc(/C=C\c3ccccc3)c2c1 (cis-trans isomerization)
Brc1ccc2[nH]cc(/C=C\c3ccccc3)c2c1 (3D coordinates assigned)
Brc1ccc2[nH]cc(/C=C\c3ccccc3)c2c1 (optimized conformer: 74.06688454720556 kcal/mol)

>  <smiles>  (35) 
Brc1ccc2[nH]cc(C=Cc3ccccc3)c2c1

>  <score_type>  (35) 
oracle

>  <origin>  (35) 
adgpu

>  <m_score__min__energy>  (35) 
-7.9199999999999999

>  <m_primary>  (35) 
energy

$$$$
35:0
     RDKit          3D

 53 56  0  0  0  0  0  0  0  0999 V2000
   -3.9400   24.8870  -30.8290 O   0  0  0  0  0  0  0  0  0  0  0  0
   -4.2760   23.6720  -30.8380 C   0  0  0  0  0  0  0  0  0  0  0  0
   -3.3180   22.6500  -30.5440 N   0  0  0  0  0  0  0  0  0  0  0  0
   -2.4970   21.9260  -31.4740 C   0  0  0  0  0  0  0  0  0  0  0  0
   -3.1150   21.4030  -32.6180 C   0  0  0  0  0  0  0  0  0  0  0  0
   -2.3970   20.6060  -33.5140 C   0  0  0  0  0  0  0  0  0  0  0  0
   -1.0590   20.3020  -33.2610 C   0  0  0  0  0  0  0  0  0  0  0  0
   -0.4370   20.7940  -32.1090 C   0  0  0  0  0  0  0  0  0  0  0  0
   -1.1470   21.6010  -31.2080 C   0  0  0  0  0  0  0  0  0  0  0  0
   -0.5130   22.0530  -30.0490 O   0  0  0  0  0  0  0  0  0  0  0  0
   -1.2140   22.2830  -28.8290 C   0  0  0  0  0  0  0  0  0  0  0  0
   -1.5000   20.9650  -28.1650 C   0  0  0  0  0  0  0  0  0  0  0  0
   -2.7260   20.7560  -27.5120 C   0  0  0  0  0  0  0  0  0  0  0  0
   -2.9710   19.5500  -26.8460 C   0  0  0  0  0  0  0  0  0  0  0  0
   -1.9930   18.5520  -26.8230 C   0  0  0  0  0  0  0  0  0  0  0  0
   -0.7640   18.7610  -27.4520 C   0  0  0  0  0  0  0  0  0  0  0  0
   -0.5120   19.9670  -28.1140 C   0  0  0  0  0  0  0  0  0  0  0  0
   -5.6450   23.2820  -31.2140 C   0  0  0  0  0  0  0  0  0  0  0  0
   -6.7230   24.1660  -31.0690 C   0  0  0  0  0  0  0  0  0  0  0  0
   -7.9950   23.7360  -31.4490 C   0  0  0  0  0  0  0  0  0  0  0  0
   -8.1670   22.4860  -31.9500 N   0  0  0  0  0  0  0  0  0  0  0  0
   -7.1160   21.6330  -32.0750 C   0  0  0  0  0  0  0  0  0  0  0  0
   -7.3560   20.0280  -32.7360 S   0  0  0  0  0  0  0  0  0  0  0  0
   -6.8520   20.0030  -34.1520 O   0  0  0  0  0  0  0  0  0  0  0  0
   -8.8250   19.7080  -32.7410 O   0  0  0  0  0  0  0  0  0  0  0  0
   -6.4630   18.8080  -31.7890 C   0  0  0  0  0  0  0  0  0  0  0  0
   -5.7850   17.8180  -32.6940 C   0  0  0  0  0  0  0  0  0  0  0  0
   -6.4600   16.6560  -33.1050 C   0  0  0  0  0  0  0  0  0  0  0  0
   -5.8230   15.7240  -33.9290 C   0  0  0  0  0  0  0  0  0  0  0  0
   -4.5040   15.9410  -34.3420 C   0  0  0  0  0  0  0  0  0  0  0  0
   -3.8220   17.0870  -33.9290 C   0  0  0  0  0  0  0  0  0  0  0  0
   -4.4580   18.0230  -33.1080 C   0  0  0  0  0  0  0  0  0  0  0  0
   -5.8710   22.0340  -31.7040 N   0  0  0  0  0  0  0  0  0  0  0  0
   -4.1753   21.6219  -32.8126 H   0  0  0  0  0  0  0  0  0  0  0  0
   -2.8871   20.2182  -34.4192 H   0  0  0  0  0  0  0  0  0  0  0  0
   -0.4938   19.6759  -33.9670 H   0  0  0  0  0  0  0  0  0  0  0  0
    0.6158   20.5465  -31.9083 H   0  0  0  0  0  0  0  0  0  0  0  0
   -0.5977   22.9043  -28.1625 H   0  0  0  0  0  0  0  0  0  0  0  0
   -2.1603   22.8027  -29.0398 H   0  0  0  0  0  0  0  0  0  0  0  0
   -3.4952   21.5422  -27.5242 H   0  0  0  0  0  0  0  0  0  0  0  0
   -3.9342   19.3874  -26.3402 H   0  0  0  0  0  0  0  0  0  0  0  0
   -2.1917   17.6002  -26.3085 H   0  0  0  0  0  0  0  0  0  0  0  0
    0.0066   17.9765  -27.4268 H   0  0  0  0  0  0  0  0  0  0  0  0
    0.4624   20.1348  -28.5961 H   0  0  0  0  0  0  0  0  0  0  0  0
   -6.5696   25.1773  -30.6643 H   0  0  0  0  0  0  0  0  0  0  0  0
   -8.8581   24.4097  -31.3426 H   0  0  0  0  0  0  0  0  0  0  0  0
   -5.7033   19.3139  -31.1751 H   0  0  0  0  0  0  0  0  0  0  0  0
   -7.1766   18.2682  -31.1492 H   0  0  0  0  0  0  0  0  0  0  0  0
   -7.4948   16.4791  -32.7766 H   0  0  0  0  0  0  0  0  0  0  0  0
   -6.3588   14.8196  -34.2529 H   0  0  0  0  0  0  0  0  0  0  0  0
   -4.0041   15.2082  -34.9925 H   0  0  0  0  0  0  0  0  0  0  0  0
   -2.7831   17.2537  -34.2499 H   0  0  0  0  0  0  0  0  0  0  0  0
   -3.9169   18.9244  -32.7845 H   0  0  0  0  0  0  0  0  0  0  0  0
  1  2  2  0
  2  3  1  0
  3  4  1  0
  4  5  2  0
  5  6  1  0
  6  7  2  0
  7  8  1  0
  8  9  2  0
  9 10  1  0
 10 11  1  0
 11 12  1  0
 12 13  2  0
 13 14  1  0
 14 15  2  0
 15 16  1  0
 16 17  2  0
  2 18  1  0
 18 19  2  0
 19 20  1  0
 20 21  2  0
 21 22  1  0
 22 23  1  0
 23 24  2  0
 23 25  2  0
 23 26  1  0
 26 27  1  0
 27 28  2  0
 28 29  1  0
 29 30  2  0
 30 31  1  0
 31 32  2  0
 22 33  2  0
  9  4  1  0
 17 12  1  0
 33 18  1  0
 32 27  1  0
  5 34  1  0
  6 35  1  0
  7 36  1  0
  8 37  1  0
 11 38  1  0
 11 39  1  0
 13 40  1  0
 14 41  1  0
 15 42  1  0
 16 43  1  0
 17 44  1  0
 19 45  1  0
 20 46  1  0
 26 47  1  0
 26 48  1  0
 28 49  1  0
 29 50  1  0
 30 51  1  0
 31 52  1  0
 32 53  1  0
M  CHG  1   3  -1
M  END
>  <UniqueID>  (36) 
34

>  <SMILES>  (36) 
O=C([N-]c1ccccc1OCc1ccccc1)c1ccnc(S(=O)(=O)Cc2ccccc2)n1

>  <Energy>  (36) 
59.6904207537102

>  <Genealogy>  (36) 
O=C([N-]c1ccccc1OCc1ccccc1)c1ccnc(S(=O)(=O)Cc2ccccc2)n1 (protonated)
O=C([N-]c1ccccc1OCc1ccccc1)c1ccnc(S(=O)(=O)Cc2ccccc2)n1 (3D coordinates assigned)
O=C([N-]c1ccccc1OCc1ccccc1)c1ccnc(S(=O)(=O)Cc2ccccc2)n1 (optimized conformer: 59.6904207537102 kcal/mol)

>  <smiles>  (36) 
O=C(Nc1ccccc1OCc1ccccc1)c1ccnc(S(=O)(=O)Cc2ccccc2)n1

>  <score_type>  (36) 
oracle

>  <origin>  (36) 
adgpu

>  <m_score__min__energy>  (36) 
-11.640000000000001

>  <m_primary>  (36) 
energy

$$$$
36:0
     RDKit          3D

 45 48  0  0  0  0  0  0  0  0999 V2000
   -9.8550   20.1100  -32.3420 C   0  0  0  0  0  0  0  0  0  0  0  0
   -9.0780   18.8760  -32.2790 N   0  0  0  0  0  0  0  0  0  0  0  0
   -7.6690   18.8080  -32.5670 C   0  0  0  0  0  0  0  0  0  0  0  0
   -6.8270   17.8780  -31.9280 C   0  0  0  0  0  0  0  0  0  0  0  0
   -5.4630   17.8360  -32.2300 C   0  0  0  0  0  0  0  0  0  0  0  0
   -4.9170   18.7180  -33.1720 C   0  0  0  0  0  0  0  0  0  0  0  0
   -3.4790   18.6500  -33.5120 C   0  0  0  0  0  0  0  0  0  0  0  0
   -2.5420   19.6420  -33.1650 C   0  0  0  0  0  0  0  0  0  0  0  0
   -2.7780   20.8470  -32.3400 C   0  0  0  0  0  0  0  0  0  0  0  0
   -1.8920   21.2020  -31.3090 C   0  0  0  0  0  0  0  0  0  0  0  0
   -2.1270   22.3400  -30.5340 C   0  0  0  0  0  0  0  0  0  0  0  0
   -3.2420   23.1490  -30.7900 C   0  0  0  0  0  0  0  0  0  0  0  0
   -3.5480   24.5730  -29.8020 S   0  0  0  0  0  0  0  0  0  0  0  0
   -2.0450   25.2330  -29.2590 N   0  0  0  0  0  0  0  0  0  0  0  0
   -4.2830   25.6060  -30.6080 O   0  0  0  0  0  0  0  0  0  0  0  0
   -4.3900   24.1980  -28.6140 O   0  0  0  0  0  0  0  0  0  0  0  0
   -4.1220   22.8060  -31.8230 C   0  0  0  0  0  0  0  0  0  0  0  0
   -3.8880   21.6670  -32.5990 C   0  0  0  0  0  0  0  0  0  0  0  0
   -1.0350   19.2310  -33.8160 S   0  0  0  0  0  0  0  0  0  0  0  0
   -1.5490   17.8050  -34.5280 C   0  0  0  0  0  0  0  0  0  0  0  0
   -0.7980   16.9090  -35.2840 C   0  0  0  0  0  0  0  0  0  0  0  0
   -1.4420   15.7840  -35.8210 C   0  0  0  0  0  0  0  0  0  0  0  0
   -0.7110   14.8720  -36.5780 O   0  0  0  0  0  0  0  0  0  0  0  0
   -2.8210   15.5860  -35.5950 C   0  0  0  0  0  0  0  0  0  0  0  0
   -3.5580   16.5060  -34.8320 C   0  0  0  0  0  0  0  0  0  0  0  0
   -2.9040   17.6190  -34.2840 C   0  0  0  0  0  0  0  0  0  0  0  0
   -5.7530   19.6440  -33.8120 C   0  0  0  0  0  0  0  0  0  0  0  0
   -7.1170   19.6890  -33.5100 C   0  0  0  0  0  0  0  0  0  0  0  0
  -10.0740   20.4579  -31.3217 H   0  0  0  0  0  0  0  0  0  0  0  0
   -9.2782   20.8796  -32.8759 H   0  0  0  0  0  0  0  0  0  0  0  0
  -10.7983   19.9225  -32.8759 H   0  0  0  0  0  0  0  0  0  0  0  0
   -9.5810   18.0010  -32.0080 H   0  0  0  0  0  0  0  0  0  0  0  0
   -7.2449   17.1806  -31.1870 H   0  0  0  0  0  0  0  0  0  0  0  0
   -4.8138   17.1057  -31.7248 H   0  0  0  0  0  0  0  0  0  0  0  0
   -1.0071   20.5794  -31.1108 H   0  0  0  0  0  0  0  0  0  0  0  0
   -1.4347   22.6019  -29.7203 H   0  0  0  0  0  0  0  0  0  0  0  0
   -1.5810   25.6580  -30.0930 H   0  0  0  0  0  0  0  0  0  0  0  0
   -5.0013   23.4353  -32.0250 H   0  0  0  0  0  0  0  0  0  0  0  0
   -4.5774   21.4117  -33.4172 H   0  0  0  0  0  0  0  0  0  0  0  0
    0.2750   17.0791  -35.4563 H   0  0  0  0  0  0  0  0  0  0  0  0
   -0.7620   14.8620  -37.5890 H   0  0  0  0  0  0  0  0  0  0  0  0
   -3.3224   14.7040  -36.0200 H   0  0  0  0  0  0  0  0  0  0  0  0
   -4.6350   16.3556  -34.6662 H   0  0  0  0  0  0  0  0  0  0  0  0
   -5.3335   20.3382  -34.5551 H   0  0  0  0  0  0  0  0  0  0  0  0
   -7.7635   20.4213  -34.0158 H   0  0  0  0  0  0  0  0  0  0  0  0
  1  2  1  0
  2  3  1  0
  3  4  2  0
  4  5  1  0
  5  6  2  0
  6  7  1  0
  7  8  2  0
  8  9  1  0
  9 10  2  0
 10 11  1  0
 11 12  2  0
 12 13  1  0
 13 14  1  0
 13 15  2  0
 13 16  2  0
 12 17  1  0
 17 18  2  0
  8 19  1  0
 19 20  1  0
 20 21  2  0
 21 22  1  0
 22 23  1  0
 22 24  2  0
 24 25  1  0
 25 26  2  0
  6 27  1  0
 27 28  2  0
 28  3  1  0
 26  7  1  0
 18  9  1  0
 26 20  1  0
  1 29  1  0
  1 30  1  0
  1 31  1  0
  2 32  1  0
  4 33  1  0
  5 34  1  0
 10 35  1  0
 11 36  1  0
 14 37  1  0
 17 38  1  0
 18 39  1  0
 21 40  1  0
 23 41  1  0
 24 42  1  0
 25 43  1  0
 27 44  1  0
 28 45  1  0
M  CHG  1  14  -1
M  END
>  <UniqueID>  (37) 
35

>  <SMILES>  (37) 
CNc1ccc(-c2c(-c3ccc(S([NH-])(=O)=O)cc3)sc3cc(O)ccc23)cc1

>  <Energy>  (37) 
88.28509342126358

>  <Genealogy>  (37) 
CNc1ccc(-c2c(-c3ccc(S([NH-])(=O)=O)cc3)sc3cc(O)ccc23)cc1 (protonated)
CNc1ccc(-c2c(-c3ccc(S([NH-])(=O)=O)cc3)sc3cc(O)ccc23)cc1 (3D coordinates assigned)
CNc1ccc(-c2c(-c3ccc(S([NH-])(=O)=O)cc3)sc3cc(O)ccc23)cc1 (optimized conformer: 88.28509342126358 kcal/mol)

>  <smiles>  (37) 
CNc1ccc(-c2c(-c3ccc(S(N)(=O)=O)cc3)sc3cc(O)ccc23)cc1

>  <score_type>  (37) 
oracle

>  <origin>  (37) 
adgpu

>  <m_score__min__energy>  (37) 
-10.84

>  <m_primary>  (37) 
energy

$$$$
37:0
     RDKit          3D

 50 52  0  0  0  0  0  0  0  0999 V2000
   -1.8540   23.4280  -30.0170 O   0  0  0  0  0  0  0  0  0  0  0  0
   -2.9850   23.6600  -30.5190 C   0  0  0  0  0  0  0  0  0  0  0  0
   -3.5050   24.9970  -30.4670 N   0  0  0  0  0  0  0  0  0  0  0  0
   -4.8940   25.3580  -30.7400 C   0  0  0  0  0  0  0  0  0  0  0  0
   -5.8310   24.7040  -29.7170 C   0  0  0  0  0  0  0  0  0  0  0  0
   -6.7660   23.7350  -30.3890 C   0  0  0  0  0  0  0  0  0  0  0  0
   -7.1140   23.9090  -31.7390 C   0  0  0  0  0  0  0  0  0  0  0  0
   -8.0100   23.0300  -32.3540 C   0  0  0  0  0  0  0  0  0  0  0  0
   -8.5770   21.9780  -31.6240 C   0  0  0  0  0  0  0  0  0  0  0  0
   -9.4790   21.1030  -32.2250 O   0  0  0  0  0  0  0  0  0  0  0  0
   -8.2360   21.8040  -30.2770 C   0  0  0  0  0  0  0  0  0  0  0  0
   -7.3360   22.6780  -29.6610 C   0  0  0  0  0  0  0  0  0  0  0  0
   -3.7460   22.5510  -31.1250 C   0  0  0  0  0  0  0  0  0  0  0  0
   -4.2450   22.6570  -32.4320 C   0  0  0  0  0  0  0  0  0  0  0  0
   -4.9690   21.6050  -32.9970 C   0  0  0  0  0  0  0  0  0  0  0  0
   -5.1910   20.4290  -32.2690 C   0  0  0  0  0  0  0  0  0  0  0  0
   -6.1340   19.1100  -32.9610 S   0  0  0  0  0  0  0  0  0  0  0  0
   -6.3920   18.0620  -31.9130 O   0  0  0  0  0  0  0  0  0  0  0  0
   -7.4560   19.6620  -33.4140 O   0  0  0  0  0  0  0  0  0  0  0  0
   -5.3080   18.4010  -34.3330 N   0  0  0  0  0  0  0  0  0  0  0  0
   -3.8450   18.5750  -34.2550 C   0  0  0  0  0  0  0  0  0  0  0  0
   -3.1910   17.6620  -33.2020 C   0  0  0  0  0  0  0  0  0  0  0  0
   -3.7870   16.2430  -33.1820 C   0  0  0  0  0  0  0  0  0  0  0  0
   -4.6300   15.9560  -34.4250 C   0  0  0  0  0  0  0  0  0  0  0  0
   -5.7470   17.0040  -34.5790 C   0  0  0  0  0  0  0  0  0  0  0  0
   -4.6740   20.3100  -30.9730 C   0  0  0  0  0  0  0  0  0  0  0  0
   -3.9480   21.3610  -30.4060 C   0  0  0  0  0  0  0  0  0  0  0  0
   -5.0018   26.4512  -30.6823 H   0  0  0  0  0  0  0  0  0  0  0  0
   -5.1624   25.0026  -31.7458 H   0  0  0  0  0  0  0  0  0  0  0  0
   -5.2293   24.1651  -28.9702 H   0  0  0  0  0  0  0  0  0  0  0  0
   -6.4281   25.4911  -29.2333 H   0  0  0  0  0  0  0  0  0  0  0  0
   -6.6797   24.7401  -32.3141 H   0  0  0  0  0  0  0  0  0  0  0  0
   -8.2704   23.1649  -33.4142 H   0  0  0  0  0  0  0  0  0  0  0  0
   -9.1640   20.3240  -32.7900 H   0  0  0  0  0  0  0  0  0  0  0  0
   -8.6778   20.9769  -29.7020 H   0  0  0  0  0  0  0  0  0  0  0  0
   -7.0732   22.5374  -28.6021 H   0  0  0  0  0  0  0  0  0  0  0  0
   -4.0651   23.5728  -33.0142 H   0  0  0  0  0  0  0  0  0  0  0  0
   -5.3667   21.7002  -34.0182 H   0  0  0  0  0  0  0  0  0  0  0  0
   -3.4106   18.3441  -35.2389 H   0  0  0  0  0  0  0  0  0  0  0  0
   -3.6507   19.6160  -33.9574 H   0  0  0  0  0  0  0  0  0  0  0  0
   -2.1158   17.5874  -33.4221 H   0  0  0  0  0  0  0  0  0  0  0  0
   -3.3783   18.1112  -32.2155 H   0  0  0  0  0  0  0  0  0  0  0  0
   -2.9650   15.5136  -33.1347 H   0  0  0  0  0  0  0  0  0  0  0  0
   -4.4424   16.1631  -32.3022 H   0  0  0  0  0  0  0  0  0  0  0  0
   -3.9832   15.9843  -35.3143 H   0  0  0  0  0  0  0  0  0  0  0  0
   -5.0897   14.9623  -34.3188 H   0  0  0  0  0  0  0  0  0  0  0  0
   -6.1401   16.9413  -35.6044 H   0  0  0  0  0  0  0  0  0  0  0  0
   -6.5058   16.7720  -33.8172 H   0  0  0  0  0  0  0  0  0  0  0  0
   -4.8399   19.3862  -30.3993 H   0  0  0  0  0  0  0  0  0  0  0  0
   -3.5331   21.2561  -29.3927 H   0  0  0  0  0  0  0  0  0  0  0  0
  1  2  2  0
  2  3  1  0
  3  4  1  0
  4  5  1  0
  5  6  1  0
  6  7  2  0
  7  8  1  0
  8  9  2  0
  9 10  1  0
  9 11  1  0
 11 12  2  0
  2 13  1  0
 13 14  2  0
 14 15  1  0
 15 16  2  0
 16 17  1  0
 17 18  2  0
 17 19  2  0
 17 20  1  0
 20 21  1  0
 21 22  1  0
 22 23  1  0
 23 24  1  0
 24 25  1  0
 16 26  1  0
 26 27  2  0
 12  6  1  0
 27 13  1  0
 25 20  1  0
  4 28  1  0
  4 29  1  0
  5 30  1  0
  5 31  1  0
  7 32  1  0
  8 33  1  0
 10 34  1  0
 11 35  1  0
 12 36  1  0
 14 37  1  0
 15 38  1  0
 21 39  1  0
 21 40  1  0
 22 41  1  0
 22 42  1  0
 23 43  1  0
 23 44  1  0
 24 45  1  0
 24 46  1  0
 25 47  1  0
 25 48  1  0
 26 49  1  0
 27 50  1  0
M  CHG  1   3  -1
M  END
>  <UniqueID>  (38) 
36

>  <SMILES>  (38) 
O=C([N-]CCc1ccc(O)cc1)c1ccc(S(=O)(=O)N2CCCCC2)cc1

>  <Energy>  (38) 
57.414190069879325

>  <Genealogy>  (38) 
O=C([N-]CCc1ccc(O)cc1)c1ccc(S(=O)(=O)N2CCCCC2)cc1 (protonated)
O=C([N-]CCc1ccc(O)cc1)c1ccc(S(=O)(=O)N2CCCCC2)cc1 (3D coordinates assigned)
O=C([N-]CCc1ccc(O)cc1)c1ccc(S(=O)(=O)N2CCCCC2)cc1 (nonaromatic ring conformer: 57.414190069879325 kcal/mol)

>  <smiles>  (38) 
O=C(NCCc1ccc(O)cc1)c1ccc(S(=O)(=O)N2CCCCC2)cc1

>  <score_type>  (38) 
oracle

>  <origin>  (38) 
adgpu

>  <m_score__min__energy>  (38) 
-11.65

>  <m_primary>  (38) 
energy

$$$$
38:0
     RDKit          3D

 45 47  0  0  1  0  0  0  0  0999 V2000
   -3.5730   17.0480  -35.3360 C   0  0  0  0  0  0  0  0  0  0  0  0
   -4.8040   17.6500  -34.9040 N   0  0  0  0  0  0  0  0  0  0  0  0
   -4.8550   18.6160  -34.0420 C   0  0  0  0  0  0  0  0  0  0  0  0
   -6.0460   19.1470  -33.6680 N   0  0  0  0  0  0  0  0  0  0  0  0
   -6.1610   20.1470  -32.7820 C   0  0  0  0  0  0  0  0  0  0  0  0
   -7.4010   20.7500  -32.3500 C   0  0  0  0  0  0  0  0  0  0  0  0
   -7.3920   22.0290  -31.7990 C   0  0  0  0  0  0  0  0  0  0  0  0
   -8.5720   22.6470  -31.3690 C   0  0  0  0  0  0  0  0  0  0  0  0
   -9.7910   22.0260  -31.4680 C   0  0  0  0  0  0  0  0  0  0  0  0
   -9.8140   20.7680  -32.0080 C   0  0  0  0  0  0  0  0  0  0  0  0
   -8.6370   20.1470  -32.4390 C   0  0  0  0  0  0  0  0  0  0  0  0
   -8.8060   18.8840  -32.9610 O   0  0  0  0  0  0  0  0  0  0  0  0
   -4.9460   20.6100  -32.2600 C   0  0  0  0  0  0  0  0  0  0  0  0
   -3.7330   20.0470  -32.6600 C   0  0  0  0  0  0  0  0  0  0  0  0
   -2.6200   20.4690  -32.1840 N   0  0  0  0  0  0  0  0  0  0  0  0
   -2.6430   21.5270  -31.2370 C   0  0  0  0  0  0  0  0  0  0  0  0
   -3.2450   22.7410  -31.4870 C   0  0  0  0  0  0  0  0  0  0  0  0
   -3.2790   23.7770  -30.5830 C   0  0  0  0  0  0  0  0  0  0  0  0
   -3.8830   24.9970  -30.8310 O   0  0  0  0  0  0  0  0  0  0  0  0
   -5.2570   25.1270  -30.5180 C   0  0  0  0  0  0  0  0  0  0  0  0
   -2.6800   23.6000  -29.3580 C   0  0  0  0  0  0  0  0  0  0  0  0
   -2.6550   24.5750  -28.3760 O   0  0  0  0  0  0  0  0  0  0  0  0
   -3.4620   24.3720  -27.2290 C   0  0  0  0  0  0  0  0  0  0  0  0
   -2.0730   22.3730  -29.1090 C   0  0  0  0  0  0  0  0  0  0  0  0
   -2.0590   21.3850  -30.0130 N   0  0  0  0  0  0  0  0  0  0  0  0
   -3.6840   19.0460  -33.5530 N   0  0  0  0  0  0  0  0  0  0  0  0
   -2.9787   16.7574  -34.4571 H   0  0  0  0  0  0  0  0  0  0  0  0
   -3.7935   16.1560  -35.9408 H   0  0  0  0  0  0  0  0  0  0  0  0
   -3.0043   17.7697  -35.9408 H   0  0  0  0  0  0  0  0  0  0  0  0
   -6.8690   18.7310  -34.1130 H   0  0  0  0  0  0  0  0  0  0  0  0
   -6.4367   22.5652  -31.6995 H   0  0  0  0  0  0  0  0  0  0  0  0
   -8.5203   23.6585  -30.9399 H   0  0  0  0  0  0  0  0  0  0  0  0
  -10.7134   22.5190  -31.1271 H   0  0  0  0  0  0  0  0  0  0  0  0
  -10.7728   20.2375  -32.1044 H   0  0  0  0  0  0  0  0  0  0  0  0
   -9.2670   18.6670  -33.8420 H   0  0  0  0  0  0  0  0  0  0  0  0
   -4.9481   21.4283  -31.5249 H   0  0  0  0  0  0  0  0  0  0  0  0
   -3.7257   22.8900  -32.4651 H   0  0  0  0  0  0  0  0  0  0  0  0
   -5.3846   25.1391  -29.4255 H   0  0  0  0  0  0  0  0  0  0  0  0
   -5.6426   26.0656  -30.9426 H   0  0  0  0  0  0  0  0  0  0  0  0
   -5.8118   24.2773  -30.9426 H   0  0  0  0  0  0  0  0  0  0  0  0
   -2.8567   24.5243  -26.3232 H   0  0  0  0  0  0  0  0  0  0  0  0
   -4.2970   25.0881  -27.2367 H   0  0  0  0  0  0  0  0  0  0  0  0
   -3.8588   23.3461  -27.2367 H   0  0  0  0  0  0  0  0  0  0  0  0
   -1.5877   22.2087  -28.1356 H   0  0  0  0  0  0  0  0  0  0  0  0
   -2.7640   18.6460  -33.8310 H   0  0  0  0  0  0  0  0  0  0  0  0
  1  2  1  0
  2  3  2  0
  3  4  1  0
  4  5  1  0
  5  6  1  0
  6  7  2  0
  7  8  1  0
  8  9  2  0
  9 10  1  0
 10 11  2  0
 11 12  1  0
  5 13  2  0
 13 14  1  0
 14 15  2  0
 15 16  1  0
 16 17  2  0
 17 18  1  0
 18 19  1  0
 19 20  1  0
 18 21  2  0
 21 22  1  0
 22 23  1  0
 21 24  1  0
 24 25  2  0
 14 26  1  0
 26  3  1  0
 11  6  1  0
 25 16  1  0
  1 27  1  0
  1 28  1  0
  1 29  1  0
  4 30  1  0
  7 31  1  0
  8 32  1  0
  9 33  1  0
 10 34  1  0
 12 35  1  0
 13 36  1  0
 17 37  1  0
 20 38  1  0
 20 39  1  0
 20 40  1  0
 23 41  1  0
 23 42  1  0
 23 43  1  0
 24 44  1  0
 26 45  1  0
M  END
>  <smiles>  (39) 
CN=c1[nH]c(-c2ccccc2O)cc(=Nc2cc(OC)c(OC)cn2)[nH]1

>  <score_type>  (39) 
oracle

>  <origin>  (39) 
adgpu

>  <m_score__min__energy>  (39) 
-7.8799999999999999

>  <m_primary>  (39) 
energy

$$$$
39:0
     RDKit          3D

 55 59  0  0  0  0  0  0  0  0999 V2000
   -0.5564   21.4978  -33.2108 H   0  0  0  0  0  0  0  0  0  0  0  0
   -1.5090   20.9540  -33.1280 C   0  0  0  0  0  0  0  0  0  0  0  0
   -2.0170   19.6840  -34.1030 S   0  0  0  0  0  0  0  0  0  0  0  0
   -3.4870   19.4880  -33.3050 C   0  0  0  0  0  0  0  0  0  0  0  0
   -4.5220   18.4770  -33.6180 C   0  0  0  0  0  0  0  0  0  0  0  0
   -5.8840   18.6640  -33.8440 C   0  0  0  0  0  0  0  0  0  0  0  0
   -6.6430   19.9530  -33.8190 C   0  0  0  0  0  0  0  0  0  0  0  0
   -6.8202   20.2540  -32.7759 H   0  0  0  0  0  0  0  0  0  0  0  0
   -6.0595   20.7321  -34.3313 H   0  0  0  0  0  0  0  0  0  0  0  0
   -7.6074   19.8207  -34.3313 H   0  0  0  0  0  0  0  0  0  0  0  0
   -6.4730   17.4770  -34.0860 N   0  0  0  0  0  0  0  0  0  0  0  0
   -5.5420   16.5410  -34.0180 N   0  0  0  0  0  0  0  0  0  0  0  0
   -5.8170   15.1250  -34.2360 C   0  0  0  0  0  0  0  0  0  0  0  0
   -5.9157   14.6170  -33.2653 H   0  0  0  0  0  0  0  0  0  0  0  0
   -6.7530   15.0164  -34.8035 H   0  0  0  0  0  0  0  0  0  0  0  0
   -4.9897   14.6739  -34.8035 H   0  0  0  0  0  0  0  0  0  0  0  0
   -4.3440   17.1050  -33.7460 C   0  0  0  0  0  0  0  0  0  0  0  0
   -3.0520   16.3560  -33.5940 C   0  0  0  0  0  0  0  0  0  0  0  0
   -2.8273   16.2257  -32.5251 H   0  0  0  0  0  0  0  0  0  0  0  0
   -3.1414   15.3697  -34.0728 H   0  0  0  0  0  0  0  0  0  0  0  0
   -2.2405   16.9237  -34.0728 H   0  0  0  0  0  0  0  0  0  0  0  0
   -3.6020   20.3800  -32.2960 N   0  0  0  0  0  0  0  0  0  0  0  0
   -2.5120   21.1910  -32.1990 C   0  0  0  0  0  0  0  0  0  0  0  0
   -2.3820   22.2130  -31.1990 N   0  0  0  0  0  0  0  0  0  0  0  0
   -3.2970   23.0680  -30.8440 C   0  0  0  0  0  0  0  0  0  0  0  0
   -4.5370   23.1100  -31.3800 N   0  0  0  0  0  0  0  0  0  0  0  0
   -5.1470   24.0980  -30.6930 C   0  0  0  0  0  0  0  0  0  0  0  0
   -6.5720   24.5080  -30.9000 C   0  0  0  0  0  0  0  0  0  0  0  0
   -6.9367   25.0164  -29.9953 H   0  0  0  0  0  0  0  0  0  0  0  0
   -6.6234   25.1856  -31.7650 H   0  0  0  0  0  0  0  0  0  0  0  0
   -7.4360   23.3060  -31.1740 C   0  0  0  0  0  0  0  0  0  0  0  0
   -7.0990   22.0500  -30.6420 C   0  0  0  0  0  0  0  0  0  0  0  0
   -6.1923   21.9400  -30.0289 H   0  0  0  0  0  0  0  0  0  0  0  0
   -7.9120   20.9390  -30.8890 C   0  0  0  0  0  0  0  0  0  0  0  0
   -7.6465   19.9591  -30.4655 H   0  0  0  0  0  0  0  0  0  0  0  0
   -9.0610   21.0720  -31.6730 C   0  0  0  0  0  0  0  0  0  0  0  0
   -9.7008   20.1978  -31.8641 H   0  0  0  0  0  0  0  0  0  0  0  0
   -9.3970   22.3150  -32.2140 C   0  0  0  0  0  0  0  0  0  0  0  0
  -10.3005   22.4177  -32.8329 H   0  0  0  0  0  0  0  0  0  0  0  0
   -8.5880   23.4290  -31.9710 C   0  0  0  0  0  0  0  0  0  0  0  0
   -8.8534   24.4045  -32.4045 H   0  0  0  0  0  0  0  0  0  0  0  0
   -4.2850   24.6260  -29.7560 C   0  0  0  0  0  0  0  0  0  0  0  0
   -4.5175   25.4339  -29.0466 H   0  0  0  0  0  0  0  0  0  0  0  0
   -3.1090   23.9800  -29.8610 N   0  0  0  0  0  0  0  0  0  0  0  0
   -1.9350   24.2080  -29.0570 C   0  0  0  0  0  0  0  0  0  0  0  0
   -1.6340   25.4950  -28.5730 C   0  0  0  0  0  0  0  0  0  0  0  0
   -2.3000   26.3381  -28.8087 H   0  0  0  0  0  0  0  0  0  0  0  0
   -0.4910   25.7070  -27.7930 C   0  0  0  0  0  0  0  0  0  0  0  0
   -0.2593   26.7160  -27.4212 H   0  0  0  0  0  0  0  0  0  0  0  0
    0.3560   24.6390  -27.4860 C   0  0  0  0  0  0  0  0  0  0  0  0
    1.2559   24.8082  -26.8765 H   0  0  0  0  0  0  0  0  0  0  0  0
    0.0600   23.3570  -27.9530 C   0  0  0  0  0  0  0  0  0  0  0  0
    0.7256   22.5161  -27.7082 H   0  0  0  0  0  0  0  0  0  0  0  0
   -1.0820   23.1400  -28.7320 C   0  0  0  0  0  0  0  0  0  0  0  0
   -1.3133   22.1267  -29.0922 H   0  0  0  0  0  0  0  0  0  0  0  0
  1  2  1  0
  2  3  1  0
  3  4  1  0
  4  5  1  0
  5  6  1  0
  6  7  1  0
  7  8  1  0
  7  9  1  0
  7 10  1  0
  6 11  2  0
 11 12  1  0
 12 13  1  0
 13 14  1  0
 13 15  1  0
 13 16  1  0
 12 17  1  0
 17 18  1  0
 18 19  1  0
 18 20  1  0
 18 21  1  0
  4 22  2  0
 22 23  1  0
 23 24  1  0
 24 25  2  0
 25 26  1  0
 26 27  1  0
 27 28  1  0
 28 29  1  0
 28 30  1  0
 28 31  1  0
 31 32  2  0
 32 33  1  0
 32 34  1  0
 34 35  1  0
 34 36  2  0
 36 37  1  0
 36 38  1  0
 38 39  1  0
 38 40  2  0
 40 41  1  0
 27 42  2  0
 42 43  1  0
 42 44  1  0
 44 45  1  0
 45 46  2  0
 46 47  1  0
 46 48  1  0
 48 49  1  0
 48 50  2  0
 50 51  1  0
 50 52  1  0
 52 53  1  0
 52 54  2  0
 54 55  1  0
 23  2  2  0
 44 25  1  0
 54 45  1  0
 17  5  2  0
 40 31  1  0
M  CHG  1  26  -1
M  END
>  <UniqueID>  (40) 
37

>  <SMILES>  (40) 
Cc1nn(C)c(C)c1-c1nc(/N=c2\[n-]c(Cc3ccccc3)cn2-c2ccccc2)cs1

>  <Energy>  (40) 
153.11003969279636

>  <Genealogy>  (40) 
Cc1nn(C)c(C)c1-c1nc(N=c2[n-]c(Cc3ccccc3)cn2-c2ccccc2)cs1 (protonated)
Cc1nn(C)c(C)c1-c1nc(/N=c2\[n-]c(Cc3ccccc3)cn2-c2ccccc2)cs1 (cis-trans isomerization)
Cc1nn(C)c(C)c1-c1nc(/N=c2\[n-]c(Cc3ccccc3)cn2-c2ccccc2)cs1 (3D coordinates assigned)
Cc1nn(C)c(C)c1-c1nc(/N=c2\[n-]c(Cc3ccccc3)cn2-c2ccccc2)cs1 (optimized conformer: 153.11003969279636 kcal/mol)

>  <smiles>  (40) 
Cc1nn(C)c(C)c1-c1nc(N=c2[nH]c(Cc3ccccc3)cn2-c2ccccc2)cs1

>  <score_type>  (40) 
oracle

>  <origin>  (40) 
adgpu

>  <m_score__min__energy>  (40) 
-10.4

>  <m_primary>  (40) 
energy

$$$$
40:0
     RDKit          3D

 51 54  0  0  0  0  0  0  0  0999 V2000
   -6.8080   23.2230  -32.3390 C   0  0  0  0  0  0  0  0  0  0  0  0
   -5.6380   23.7030  -31.6170 N   0  0  0  0  0  0  0  0  0  0  0  0
   -4.5790   22.9570  -31.2520 C   0  0  0  0  0  0  0  0  0  0  0  0
   -3.7250   23.7570  -30.5160 C   0  0  0  0  0  0  0  0  0  0  0  0
   -2.4440   23.3770  -29.8710 C   0  0  0  0  0  0  0  0  0  0  0  0
   -2.0340   22.0310  -29.8810 C   0  0  0  0  0  0  0  0  0  0  0  0
   -0.8270   21.6390  -29.2930 C   0  0  0  0  0  0  0  0  0  0  0  0
   -0.4720   20.2830  -29.3420 O   0  0  0  0  0  0  0  0  0  0  0  0
   -0.8970   19.3720  -30.3520 C   0  0  0  0  0  0  0  0  0  0  0  0
   -0.5220   19.9190  -31.6970 C   0  0  0  0  0  0  0  0  0  0  0  0
    0.8250   19.9920  -32.0820 C   0  0  0  0  0  0  0  0  0  0  0  0
    1.1780   20.5360  -33.3200 C   0  0  0  0  0  0  0  0  0  0  0  0
    0.1880   21.0200  -34.1870 C   0  0  0  0  0  0  0  0  0  0  0  0
    0.6340   21.7160  -35.7490 S   0  0  0  0  0  0  0  0  0  0  0  0
   -0.2870   21.1760  -36.8070 O   0  0  0  0  0  0  0  0  0  0  0  0
    0.4500   23.2080  -35.6900 O   0  0  0  0  0  0  0  0  0  0  0  0
    2.2850   21.3670  -36.2010 N   0  0  0  0  0  0  0  0  0  0  0  0
    3.2480   22.0490  -35.3390 C   0  0  0  0  0  0  0  0  0  0  0  0
    4.5260   21.2270  -35.3890 C   0  0  0  0  0  0  0  0  0  0  0  0
    4.1020   19.8500  -35.8770 C   0  0  0  0  0  0  0  0  0  0  0  0
    2.5980   19.9440  -36.0860 C   0  0  0  0  0  0  0  0  0  0  0  0
   -1.1560   20.9730  -33.7920 C   0  0  0  0  0  0  0  0  0  0  0  0
   -1.5100   20.4290  -32.5540 C   0  0  0  0  0  0  0  0  0  0  0  0
   -0.0140   22.6080  -28.6780 C   0  0  0  0  0  0  0  0  0  0  0  0
   -0.4130   23.9450  -28.6540 C   0  0  0  0  0  0  0  0  0  0  0  0
   -1.6220   24.3350  -29.2380 C   0  0  0  0  0  0  0  0  0  0  0  0
   -2.0020   25.6690  -29.1590 O   0  0  0  0  0  0  0  0  0  0  0  0
   -4.3570   24.9910  -30.4590 C   0  0  0  0  0  0  0  0  0  0  0  0
   -5.5210   24.9280  -31.1330 N   0  0  0  0  0  0  0  0  0  0  0  0
   -7.5783   22.9070  -31.6201 H   0  0  0  0  0  0  0  0  0  0  0  0
   -7.2056   24.0307  -32.9711 H   0  0  0  0  0  0  0  0  0  0  0  0
   -6.5238   22.3688  -32.9711 H   0  0  0  0  0  0  0  0  0  0  0  0
   -4.4207   21.8963  -31.4965 H   0  0  0  0  0  0  0  0  0  0  0  0
   -2.6734   21.2744  -30.3592 H   0  0  0  0  0  0  0  0  0  0  0  0
   -0.4064   18.3992  -30.2004 H   0  0  0  0  0  0  0  0  0  0  0  0
   -1.9877   19.2407  -30.2968 H   0  0  0  0  0  0  0  0  0  0  0  0
    1.6080   19.6189  -31.4055 H   0  0  0  0  0  0  0  0  0  0  0  0
    2.2365   20.5847  -33.6154 H   0  0  0  0  0  0  0  0  0  0  0  0
    3.4359   23.0674  -35.7097 H   0  0  0  0  0  0  0  0  0  0  0  0
    2.8700   22.1364  -34.3097 H   0  0  0  0  0  0  0  0  0  0  0  0
    5.2464   21.6778  -36.0874 H   0  0  0  0  0  0  0  0  0  0  0  0
    5.0200   21.1788  -34.4073 H   0  0  0  0  0  0  0  0  0  0  0  0
    4.6077   19.6036  -36.8222 H   0  0  0  0  0  0  0  0  0  0  0  0
    4.3678   19.0604  -35.1587 H   0  0  0  0  0  0  0  0  0  0  0  0
    2.3081   19.4152  -37.0060 H   0  0  0  0  0  0  0  0  0  0  0  0
    2.0500   19.4815  -35.2518 H   0  0  0  0  0  0  0  0  0  0  0  0
   -1.9365   21.3664  -34.4599 H   0  0  0  0  0  0  0  0  0  0  0  0
   -2.5668   20.4004  -32.2501 H   0  0  0  0  0  0  0  0  0  0  0  0
    0.9386   22.3113  -28.2148 H   0  0  0  0  0  0  0  0  0  0  0  0
    0.2284   24.6976  -28.1721 H   0  0  0  0  0  0  0  0  0  0  0  0
   -3.9679   25.8816  -29.9437 H   0  0  0  0  0  0  0  0  0  0  0  0
  1  2  1  0
  2  3  1  0
  3  4  2  0
  4  5  1  0
  5  6  2  0
  6  7  1  0
  7  8  1  0
  8  9  1  0
  9 10  1  0
 10 11  2  0
 11 12  1  0
 12 13  2  0
 13 14  1  0
 14 15  2  0
 14 16  2  0
 14 17  1  0
 17 18  1  0
 18 19  1  0
 19 20  1  0
 20 21  1  0
 13 22  1  0
 22 23  2  0
  7 24  2  0
 24 25  1  0
 25 26  2  0
 26 27  1  0
  4 28  1  0
 28 29  2  0
 29  2  1  0
 26  5  1  0
 23 10  1  0
 21 17  1  0
  1 30  1  0
  1 31  1  0
  1 32  1  0
  3 33  1  0
  6 34  1  0
  9 35  1  0
  9 36  1  0
 11 37  1  0
 12 38  1  0
 18 39  1  0
 18 40  1  0
 19 41  1  0
 19 42  1  0
 20 43  1  0
 20 44  1  0
 21 45  1  0
 21 46  1  0
 22 47  1  0
 23 48  1  0
 24 49  1  0
 25 50  1  0
 28 51  1  0
M  CHG  1  27  -1
M  END
>  <UniqueID>  (41) 
38

>  <SMILES>  (41) 
Cn1cc(-c2cc(OCc3ccc(S(=O)(=O)N4CCCC4)cc3)ccc2[O-])cn1

>  <Energy>  (41) 
87.52906793060028

>  <Genealogy>  (41) 
Cn1cc(-c2cc(OCc3ccc(S(=O)(=O)N4CCCC4)cc3)ccc2[O-])cn1 (protonated)
Cn1cc(-c2cc(OCc3ccc(S(=O)(=O)N4CCCC4)cc3)ccc2[O-])cn1 (3D coordinates assigned)
Cn1cc(-c2cc(OCc3ccc(S(=O)(=O)N4CCCC4)cc3)ccc2[O-])cn1 (nonaromatic ring conformer: 87.52906793060028 kcal/mol)

>  <smiles>  (41) 
Cn1cc(-c2cc(OCc3ccc(S(=O)(=O)N4CCCC4)cc3)ccc2O)cn1

>  <score_type>  (41) 
oracle

>  <origin>  (41) 
adgpu

>  <m_score__min__energy>  (41) 
-12.76

>  <m_primary>  (41) 
energy

$$$$
41:0
     RDKit          3D

 62 65  0  0  0  0  0  0  0  0999 V2000
    2.7030   22.5680  -35.3650 C   0  0  0  0  0  0  0  0  0  0  0  0
    1.3170   22.5930  -35.0410 O   0  0  0  0  0  0  0  0  0  0  0  0
    0.5240   21.4480  -34.8690 C   0  0  0  0  0  0  0  0  0  0  0  0
    0.7940   20.2340  -35.5250 C   0  0  0  0  0  0  0  0  0  0  0  0
   -0.0290   19.1230  -35.3220 C   0  0  0  0  0  0  0  0  0  0  0  0
   -1.1350   19.1970  -34.4550 C   0  0  0  0  0  0  0  0  0  0  0  0
   -1.9790   18.0450  -34.2370 N   0  0  0  0  0  0  0  0  0  0  0  0
   -3.2930   17.9460  -34.8810 C   0  0  0  0  0  0  0  0  0  0  0  0
   -3.6930   16.4740  -35.0520 C   0  0  0  0  0  0  0  0  0  0  0  0
   -3.6810   15.7050  -33.7720 N   0  0  0  0  0  0  0  0  0  0  0  0
   -5.0470   15.5550  -33.2130 C   0  0  0  0  0  0  0  0  0  0  0  0
   -5.7260   16.8800  -33.0150 C   0  0  0  0  0  0  0  0  0  0  0  0
   -7.0800   17.1160  -33.0640 C   0  0  0  0  0  0  0  0  0  0  0  0
   -7.2630   18.3890  -32.8270 O   0  0  0  0  0  0  0  0  0  0  0  0
   -6.0790   18.9280  -32.6390 C   0  0  0  0  0  0  0  0  0  0  0  0
   -5.8700   20.3600  -32.3370 C   0  0  0  0  0  0  0  0  0  0  0  0
   -6.9620   21.2340  -32.3060 C   0  0  0  0  0  0  0  0  0  0  0  0
   -6.7900   22.6000  -32.0150 C   0  0  0  0  0  0  0  0  0  0  0  0
   -7.8920   23.4690  -31.9610 O   0  0  0  0  0  0  0  0  0  0  0  0
   -9.2580   23.0630  -31.9730 C   0  0  0  0  0  0  0  0  0  0  0  0
   -5.4840   23.0950  -31.7610 C   0  0  0  0  0  0  0  0  0  0  0  0
   -5.2070   24.4460  -31.4710 O   0  0  0  0  0  0  0  0  0  0  0  0
   -5.7410   25.2170  -30.4050 C   0  0  0  0  0  0  0  0  0  0  0  0
   -4.3890   22.2160  -31.7910 C   0  0  0  0  0  0  0  0  0  0  0  0
   -3.1110   22.7380  -31.5340 O   0  0  0  0  0  0  0  0  0  0  0  0
   -2.1420   22.1260  -30.6900 C   0  0  0  0  0  0  0  0  0  0  0  0
   -4.5870   20.8540  -32.0770 C   0  0  0  0  0  0  0  0  0  0  0  0
   -5.0780   18.0280  -32.7480 N   0  0  0  0  0  0  0  0  0  0  0  0
   -2.7810   16.2770  -32.7360 C   0  0  0  0  0  0  0  0  0  0  0  0
   -1.5530   16.9640  -33.3400 C   0  0  0  0  0  0  0  0  0  0  0  0
   -1.3980   20.4140  -33.8000 C   0  0  0  0  0  0  0  0  0  0  0  0
   -0.5780   21.5260  -34.0110 C   0  0  0  0  0  0  0  0  0  0  0  0
    3.2960   22.5573  -34.4386 H   0  0  0  0  0  0  0  0  0  0  0  0
    2.9258   21.6657  -35.9534 H   0  0  0  0  0  0  0  0  0  0  0  0
    2.9582   23.4617  -35.9534 H   0  0  0  0  0  0  0  0  0  0  0  0
    1.6579   20.1584  -36.2018 H   0  0  0  0  0  0  0  0  0  0  0  0
    0.1900   18.1806  -35.8454 H   0  0  0  0  0  0  0  0  0  0  0  0
   -4.0422   18.4555  -34.2571 H   0  0  0  0  0  0  0  0  0  0  0  0
   -3.2423   18.4204  -35.8721 H   0  0  0  0  0  0  0  0  0  0  0  0
   -4.7085   16.4350  -35.4730 H   0  0  0  0  0  0  0  0  0  0  0  0
   -2.9498   16.0101  -35.7172 H   0  0  0  0  0  0  0  0  0  0  0  0
   -3.3170   14.7460  -33.9880 H   0  0  0  0  0  0  0  0  0  0  0  0
   -5.6488   14.9482  -33.9055 H   0  0  0  0  0  0  0  0  0  0  0  0
   -4.9588   15.0697  -32.2298 H   0  0  0  0  0  0  0  0  0  0  0  0
   -7.8643   16.3714  -33.2654 H   0  0  0  0  0  0  0  0  0  0  0  0
   -7.9709   20.8473  -32.5123 H   0  0  0  0  0  0  0  0  0  0  0  0
   -9.6178   22.9561  -30.9390 H   0  0  0  0  0  0  0  0  0  0  0  0
   -9.8612   23.8207  -32.4946 H   0  0  0  0  0  0  0  0  0  0  0  0
   -9.3494   22.0989  -32.4946 H   0  0  0  0  0  0  0  0  0  0  0  0
   -5.4356   24.7760  -29.4447 H   0  0  0  0  0  0  0  0  0  0  0  0
   -5.3622   26.2475  -30.4722 H   0  0  0  0  0  0  0  0  0  0  0  0
   -6.8389   25.2248  -30.4722 H   0  0  0  0  0  0  0  0  0  0  0  0
   -2.4123   22.2967  -29.6375 H   0  0  0  0  0  0  0  0  0  0  0  0
   -2.1120   21.0448  -30.8901 H   0  0  0  0  0  0  0  0  0  0  0  0
   -1.1528   22.5635  -30.8901 H   0  0  0  0  0  0  0  0  0  0  0  0
   -3.7255   20.1704  -32.0966 H   0  0  0  0  0  0  0  0  0  0  0  0
   -3.3450   17.0160  -32.1479 H   0  0  0  0  0  0  0  0  0  0  0  0
   -2.4245   15.4471  -32.1081 H   0  0  0  0  0  0  0  0  0  0  0  0
   -0.9343   17.3821  -32.5323 H   0  0  0  0  0  0  0  0  0  0  0  0
   -0.9688   16.2273  -33.9109 H   0  0  0  0  0  0  0  0  0  0  0  0
   -2.2561   20.4910  -33.1161 H   0  0  0  0  0  0  0  0  0  0  0  0
   -0.8016   22.4724  -33.4970 H   0  0  0  0  0  0  0  0  0  0  0  0
  1  2  1  0
  2  3  1  0
  3  4  2  0
  4  5  1  0
  5  6  2  0
  6  7  1  0
  7  8  1  0
  8  9  1  0
  9 10  1  0
 10 11  1  0
 11 12  1  0
 12 13  2  0
 13 14  1  0
 14 15  1  0
 15 16  1  0
 16 17  2  0
 17 18  1  0
 18 19  1  0
 19 20  1  0
 18 21  2  0
 21 22  1  0
 22 23  1  0
 21 24  1  0
 24 25  1  0
 25 26  1  0
 24 27  2  0
 15 28  2  0
 10 29  1  0
 29 30  1  0
  6 31  1  0
 31 32  2  0
 32  3  1  0
 30  7  1  0
 28 12  1  0
 27 16  1  0
  1 33  1  0
  1 34  1  0
  1 35  1  0
  4 36  1  0
  5 37  1  0
  8 38  1  0
  8 39  1  0
  9 40  1  0
  9 41  1  0
 10 42  1  0
 11 43  1  0
 11 44  1  0
 13 45  1  0
 17 46  1  0
 20 47  1  0
 20 48  1  0
 20 49  1  0
 23 50  1  0
 23 51  1  0
 23 52  1  0
 26 53  1  0
 26 54  1  0
 26 55  1  0
 27 56  1  0
 29 57  1  0
 29 58  1  0
 30 59  1  0
 30 60  1  0
 31 61  1  0
 32 62  1  0
M  CHG  1  10   1
M  END
>  <UniqueID>  (42) 
39

>  <SMILES>  (42) 
COc1ccc(N2CC[NH+](Cc3coc(-c4cc(OC)c(OC)c(OC)c4)n3)CC2)cc1

>  <Energy>  (42) 
106.58750580119005

>  <Genealogy>  (42) 
COc1ccc(N2CC[NH+](Cc3coc(-c4cc(OC)c(OC)c(OC)c4)n3)CC2)cc1 (protonated)
COc1ccc(N2CC[NH+](Cc3coc(-c4cc(OC)c(OC)c(OC)c4)n3)CC2)cc1 (3D coordinates assigned)
COc1ccc(N2CC[NH+](Cc3coc(-c4cc(OC)c(OC)c(OC)c4)n3)CC2)cc1 (nonaromatic ring conformer: 106.58750580119005 kcal/mol)

>  <smiles>  (42) 
COc1ccc(N2CCN(Cc3coc(-c4cc(OC)c(OC)c(OC)c4)n3)CC2)cc1

>  <score_type>  (42) 
oracle

>  <origin>  (42) 
adgpu

>  <m_score__min__energy>  (42) 
-8.3200000000000003

>  <m_primary>  (42) 
energy

$$$$
42:0
     RDKit          3D

 58 61  0  0  0  0  0  0  0  0999 V2000
   -5.7120   17.3530  -34.8740 C   0  0  0  0  0  0  0  0  0  0  0  0
   -5.2260   18.5640  -34.1540 C   0  0  0  0  0  0  0  0  0  0  0  0
   -6.0440   19.4840  -33.6020 N   0  0  0  0  0  0  0  0  0  0  0  0
   -5.3540   20.4620  -32.9480 C   0  0  0  0  0  0  0  0  0  0  0  0
   -6.0530   21.5880  -32.2820 C   0  0  0  0  0  0  0  0  0  0  0  0
   -7.4570   21.6990  -32.3190 C   0  0  0  0  0  0  0  0  0  0  0  0
   -8.1010   22.7680  -31.6900 C   0  0  0  0  0  0  0  0  0  0  0  0
   -7.3570   23.7350  -31.0140 C   0  0  0  0  0  0  0  0  0  0  0  0
   -5.9610   23.6390  -30.9640 C   0  0  0  0  0  0  0  0  0  0  0  0
   -5.0440   24.8580  -30.0870 S   0  0  0  0  0  0  0  0  0  0  0  0
   -5.7390   26.1910  -30.1230 O   0  0  0  0  0  0  0  0  0  0  0  0
   -3.6950   25.0100  -30.7300 O   0  0  0  0  0  0  0  0  0  0  0  0
   -4.8420   24.3560  -28.4410 N   0  0  0  0  0  0  0  0  0  0  0  0
   -3.5780   23.9740  -27.8680 C   0  0  0  0  0  0  0  0  0  0  0  0
   -2.7700   24.8910  -27.1700 C   0  0  0  0  0  0  0  0  0  0  0  0
   -1.5280   24.4960  -26.6650 C   0  0  0  0  0  0  0  0  0  0  0  0
   -1.0810   23.1870  -26.8480 C   0  0  0  0  0  0  0  0  0  0  0  0
   -1.8820   22.2570  -27.5210 C   0  0  0  0  0  0  0  0  0  0  0  0
   -1.2810   20.6230  -27.7900 S   0  0  0  0  0  0  0  0  0  0  0  0
    0.2020   20.6140  -27.5530 O   0  0  0  0  0  0  0  0  0  0  0  0
   -1.9140   19.6460  -26.8370 O   0  0  0  0  0  0  0  0  0  0  0  0
   -1.5920   20.1440  -29.4320 N   0  0  0  0  0  0  0  0  0  0  0  0
   -0.6980   19.6290  -30.2360 C   0  0  0  0  0  0  0  0  0  0  0  0
   -1.1100   19.1620  -31.6130 C   0  0  0  0  0  0  0  0  0  0  0  0
   -0.3180   19.8720  -32.7220 C   0  0  0  0  0  0  0  0  0  0  0  0
    1.0360   19.2200  -33.0740 C   0  0  0  0  0  0  0  0  0  0  0  0
    2.0800   19.3010  -31.9430 C   0  0  0  0  0  0  0  0  0  0  0  0
    1.6410   18.6910  -30.5900 C   0  0  0  0  0  0  0  0  0  0  0  0
    0.6880   19.5290  -29.8570 N   0  0  0  0  0  0  0  0  0  0  0  0
   -3.1330   22.6520  -28.0160 C   0  0  0  0  0  0  0  0  0  0  0  0
   -5.3110   22.5720  -31.6030 C   0  0  0  0  0  0  0  0  0  0  0  0
   -3.9650   20.3100  -32.9750 C   0  0  0  0  0  0  0  0  0  0  0  0
   -3.6130   18.9110  -33.8380 S   0  0  0  0  0  0  0  0  0  0  0  0
   -6.0182   16.5901  -34.1431 H   0  0  0  0  0  0  0  0  0  0  0  0
   -6.5718   17.6221  -35.5052 H   0  0  0  0  0  0  0  0  0  0  0  0
   -4.9047   16.9530  -35.5052 H   0  0  0  0  0  0  0  0  0  0  0  0
   -8.0509   20.9384  -32.8470 H   0  0  0  0  0  0  0  0  0  0  0  0
   -9.1975   22.8470  -31.7281 H   0  0  0  0  0  0  0  0  0  0  0  0
   -7.8678   24.5743  -30.5194 H   0  0  0  0  0  0  0  0  0  0  0  0
   -5.7120   24.2420  -27.8740 H   0  0  0  0  0  0  0  0  0  0  0  0
   -3.1178   25.9239  -27.0211 H   0  0  0  0  0  0  0  0  0  0  0  0
   -0.9014   25.2189  -26.1220 H   0  0  0  0  0  0  0  0  0  0  0  0
   -0.0961   22.8849  -26.4622 H   0  0  0  0  0  0  0  0  0  0  0  0
   -2.5790   20.2440  -29.7530 H   0  0  0  0  0  0  0  0  0  0  0  0
   -0.9336   18.0788  -31.6883 H   0  0  0  0  0  0  0  0  0  0  0  0
   -2.1749   19.4019  -31.7489 H   0  0  0  0  0  0  0  0  0  0  0  0
   -0.9380   19.8836  -33.6306 H   0  0  0  0  0  0  0  0  0  0  0  0
   -0.0860   20.8770  -32.3398 H   0  0  0  0  0  0  0  0  0  0  0  0
    0.8597   18.1596  -33.3075 H   0  0  0  0  0  0  0  0  0  0  0  0
    1.4467   19.7776  -33.9287 H   0  0  0  0  0  0  0  0  0  0  0  0
    2.9841   18.7708  -32.2770 H   0  0  0  0  0  0  0  0  0  0  0  0
    2.2405   20.3728  -31.7546 H   0  0  0  0  0  0  0  0  0  0  0  0
    1.1711   17.7154  -30.7832 H   0  0  0  0  0  0  0  0  0  0  0  0
    2.5424   18.6013  -29.9659 H   0  0  0  0  0  0  0  0  0  0  0  0
    1.0690   20.1390  -29.1050 H   0  0  0  0  0  0  0  0  0  0  0  0
   -3.7727   21.9168  -28.5262 H   0  0  0  0  0  0  0  0  0  0  0  0
   -4.2135   22.5044  -31.5728 H   0  0  0  0  0  0  0  0  0  0  0  0
   -3.2312   20.9867  -32.5129 H   0  0  0  0  0  0  0  0  0  0  0  0
  1  2  1  0
  2  3  2  0
  3  4  1  0
  4  5  1  0
  5  6  2  0
  6  7  1  0
  7  8  2  0
  8  9  1  0
  9 10  1  0
 10 11  2  0
 10 12  2  0
 10 13  1  0
 13 14  1  0
 14 15  2  0
 15 16  1  0
 16 17  2  0
 17 18  1  0
 18 19  1  0
 19 20  2  0
 19 21  2  0
 19 22  1  0
 22 23  2  3
 23 24  1  0
 24 25  1  0
 25 26  1  0
 26 27  1  0
 27 28  1  0
 28 29  1  0
 18 30  2  0
  9 31  2  0
  4 32  2  0
 32 33  1  0
 33  2  1  0
 31  5  1  0
 30 14  1  0
 29 23  1  0
  1 34  1  0
  1 35  1  0
  1 36  1  0
  6 37  1  0
  7 38  1  0
  8 39  1  0
 13 40  1  0
 15 41  1  0
 16 42  1  0
 17 43  1  0
 22 44  1  0
 24 45  1  0
 24 46  1  0
 25 47  1  0
 25 48  1  0
 26 49  1  0
 26 50  1  0
 27 51  1  0
 27 52  1  0
 28 53  1  0
 28 54  1  0
 29 55  1  0
 30 56  1  0
 31 57  1  0
 32 58  1  0
M  CHG  1  22   1
M  END
>  <UniqueID>  (43) 
40

>  <SMILES>  (43) 
Cc1nc(-c2cccc(S(=O)(=O)Nc3cccc(S(=O)(=O)[NH+]=C4CCCCCN4)c3)c2)cs1

>  <Energy>  (43) 
101.59656908123698

>  <Genealogy>  (43) 
Cc1nc(-c2cccc(S(=O)(=O)Nc3cccc(S(=O)(=O)[NH+]=C4CCCCCN4)c3)c2)cs1 (protonated)
Cc1nc(-c2cccc(S(=O)(=O)Nc3cccc(S(=O)(=O)[NH+]=C4CCCCCN4)c3)c2)cs1 (3D coordinates assigned)
Cc1nc(-c2cccc(S(=O)(=O)Nc3cccc(S(=O)(=O)[NH+]=C4CCCCCN4)c3)c2)cs1 (nonaromatic ring conformer: 101.59656908123698 kcal/mol)

>  <smiles>  (43) 
Cc1nc(-c2cccc(S(=O)(=O)Nc3cccc(S(=O)(=O)N=C4CCCCCN4)c3)c2)cs1

>  <score_type>  (43) 
oracle

>  <origin>  (43) 
adgpu

>  <m_score__min__energy>  (43) 
-8.6999999999999993

>  <m_primary>  (43) 
energy

$$$$
43:0
     RDKit          3D

 30 31  0  0  0  0  0  0  0  0999 V2000
   -4.1060   25.6690  -30.8490 O   0  0  0  0  0  0  0  0  0  0  0  0
   -4.4310   24.2510  -30.4750 S   0  0  0  0  0  0  0  0  0  0  0  0
   -5.5580   24.2710  -29.4800 O   0  0  0  0  0  0  0  0  0  0  0  0
   -4.9480   23.3990  -31.9040 N   0  0  0  0  0  0  0  0  0  0  0  0
   -6.4020   23.4710  -32.0790 C   0  0  0  0  0  0  0  0  0  0  0  0
   -7.0240   22.0960  -32.0750 C   0  0  0  0  0  0  0  0  0  0  0  0
   -8.2360   21.8810  -31.3960 C   0  0  0  0  0  0  0  0  0  0  0  0
   -8.8310   20.6180  -31.3980 C   0  0  0  0  0  0  0  0  0  0  0  0
   -8.2230   19.5590  -32.0730 C   0  0  0  0  0  0  0  0  0  0  0  0
   -7.0150   19.7560  -32.7480 C   0  0  0  0  0  0  0  0  0  0  0  0
   -6.4220   18.6880  -33.4130 O   0  0  0  0  0  0  0  0  0  0  0  0
   -6.4080   21.0250  -32.7520 C   0  0  0  0  0  0  0  0  0  0  0  0
   -5.2020   21.2320  -33.4240 O   0  0  0  0  0  0  0  0  0  0  0  0
   -2.9780   23.5090  -29.7900 C   0  0  0  0  0  0  0  0  0  0  0  0
   -2.9050   22.1090  -29.7350 C   0  0  0  0  0  0  0  0  0  0  0  0
   -1.7840   21.4790  -29.1900 C   0  0  0  0  0  0  0  0  0  0  0  0
   -0.7230   22.2410  -28.6960 C   0  0  0  0  0  0  0  0  0  0  0  0
    0.3910   21.6140  -28.1530 O   0  0  0  0  0  0  0  0  0  0  0  0
   -0.7840   23.6380  -28.7490 C   0  0  0  0  0  0  0  0  0  0  0  0
   -1.9030   24.2750  -29.2940 C   0  0  0  0  0  0  0  0  0  0  0  0
   -1.9300   25.6650  -29.3350 O   0  0  0  0  0  0  0  0  0  0  0  0
   -6.8329   24.0615  -31.2571 H   0  0  0  0  0  0  0  0  0  0  0  0
   -6.6117   23.9439  -33.0498 H   0  0  0  0  0  0  0  0  0  0  0  0
   -8.7180   22.7121  -30.8604 H   0  0  0  0  0  0  0  0  0  0  0  0
   -9.7806   20.4575  -30.8666 H   0  0  0  0  0  0  0  0  0  0  0  0
   -8.6959   18.5658  -32.0740 H   0  0  0  0  0  0  0  0  0  0  0  0
   -4.8660   22.1590  -33.6570 H   0  0  0  0  0  0  0  0  0  0  0  0
   -3.7367   21.5032  -30.1239 H   0  0  0  0  0  0  0  0  0  0  0  0
   -1.7367   20.3808  -29.1498 H   0  0  0  0  0  0  0  0  0  0  0  0
    0.0521   24.2377  -28.3602 H   0  0  0  0  0  0  0  0  0  0  0  0
  1  2  2  0
  2  3  2  0
  2  4  1  0
  4  5  1  0
  5  6  1  0
  6  7  2  0
  7  8  1  0
  8  9  2  0
  9 10  1  0
 10 11  1  0
 10 12  2  0
 12 13  1  0
  2 14  1  0
 14 15  2  0
 15 16  1  0
 16 17  2  0
 17 18  1  0
 17 19  1  0
 19 20  2  0
 20 21  1  0
 12  6  1  0
 20 14  1  0
  5 22  1  0
  5 23  1  0
  7 24  1  0
  8 25  1  0
  9 26  1  0
 13 27  1  0
 15 28  1  0
 16 29  1  0
 19 30  1  0
M  CHG  4   4  -1  11  -1  18  -1  21  -1
M  END
>  <UniqueID>  (44) 
41

>  <SMILES>  (44) 
O=S(=O)([N-]Cc1cccc([O-])c1O)c1ccc([O-])cc1[O-]

>  <Energy>  (44) 
31.74812396019323

>  <Genealogy>  (44) 
O=S(=O)([N-]Cc1cccc([O-])c1O)c1ccc([O-])cc1[O-] (protonated)
O=S(=O)([N-]Cc1cccc([O-])c1O)c1ccc([O-])cc1[O-] (3D coordinates assigned)
O=S(=O)([N-]Cc1cccc([O-])c1O)c1ccc([O-])cc1[O-] (optimized conformer: 31.74812396019323 kcal/mol)

>  <smiles>  (44) 
O=S(=O)(NCc1cccc(O)c1O)c1ccc(O)cc1O

>  <score_type>  (44) 
oracle

>  <origin>  (44) 
adgpu

>  <m_score__min__energy>  (44) 
-11.09

>  <m_primary>  (44) 
energy

$$$$
44:0
     RDKit          3D

 49 51  0  0  0  0  0  0  0  0999 V2000
   -1.4130   21.1830  -32.4580 C   0  0  0  0  0  0  0  0  0  0  0  0
   -2.4500   22.2870  -31.4510 S   0  0  0  0  0  0  0  0  0  0  0  0
   -1.7040   21.7400  -29.9060 C   0  0  0  0  0  0  0  0  0  0  0  0
   -1.7980   20.3860  -29.5560 C   0  0  0  0  0  0  0  0  0  0  0  0
   -1.2980   19.9380  -28.3310 C   0  0  0  0  0  0  0  0  0  0  0  0
   -0.7110   20.8400  -27.4400 C   0  0  0  0  0  0  0  0  0  0  0  0
   -0.6250   22.1940  -27.7740 C   0  0  0  0  0  0  0  0  0  0  0  0
   -1.0860   22.6540  -29.0210 C   0  0  0  0  0  0  0  0  0  0  0  0
   -1.0740   24.0600  -29.3040 N   0  0  0  0  0  0  0  0  0  0  0  0
   -1.6860   25.0230  -28.4330 C   0  0  0  0  0  0  0  0  0  0  0  0
   -0.8690   26.3840  -28.0460 S   0  0  0  0  0  0  0  0  0  0  0  0
   -3.0680   24.9180  -28.0480 N   0  0  0  0  0  0  0  0  0  0  0  0
   -4.0770   24.4090  -28.9290 C   0  0  0  0  0  0  0  0  0  0  0  0
   -4.7630   23.2320  -28.6020 C   0  0  0  0  0  0  0  0  0  0  0  0
   -5.6800   22.6790  -29.5010 C   0  0  0  0  0  0  0  0  0  0  0  0
   -5.9530   23.3190  -30.7160 C   0  0  0  0  0  0  0  0  0  0  0  0
   -7.0510   22.5830  -31.8870 S   0  0  0  0  0  0  0  0  0  0  0  0
   -7.5380   23.6370  -32.8390 O   0  0  0  0  0  0  0  0  0  0  0  0
   -8.2440   22.0220  -31.1610 O   0  0  0  0  0  0  0  0  0  0  0  0
   -6.2470   21.2990  -32.7620 N   0  0  0  0  0  0  0  0  0  0  0  0
   -7.2050   20.2490  -33.1640 C   0  0  0  0  0  0  0  0  0  0  0  0
   -6.4770   19.0670  -33.8450 C   0  0  0  0  0  0  0  0  0  0  0  0
   -5.0720   19.2500  -33.8760 O   0  0  0  0  0  0  0  0  0  0  0  0
   -4.5860   19.4450  -32.5620 C   0  0  0  0  0  0  0  0  0  0  0  0
   -5.1710   20.7270  -31.9300 C   0  0  0  0  0  0  0  0  0  0  0  0
   -5.3220   24.5350  -31.0120 C   0  0  0  0  0  0  0  0  0  0  0  0
   -4.3810   25.0730  -30.1270 C   0  0  0  0  0  0  0  0  0  0  0  0
   -0.8108   20.5419  -31.7974 H   0  0  0  0  0  0  0  0  0  0  0  0
   -2.0551   20.5548  -33.0928 H   0  0  0  0  0  0  0  0  0  0  0  0
   -0.7459   21.7846  -33.0928 H   0  0  0  0  0  0  0  0  0  0  0  0
   -2.2677   19.6728  -30.2493 H   0  0  0  0  0  0  0  0  0  0  0  0
   -1.3666   18.8723  -28.0672 H   0  0  0  0  0  0  0  0  0  0  0  0
   -0.3169   20.4845  -26.4765 H   0  0  0  0  0  0  0  0  0  0  0  0
   -0.1931   22.9064  -27.0557 H   0  0  0  0  0  0  0  0  0  0  0  0
   -0.8230   24.3600  -30.2750 H   0  0  0  0  0  0  0  0  0  0  0  0
   -3.3110   25.0880  -27.0490 H   0  0  0  0  0  0  0  0  0  0  0  0
   -4.5796   22.7413  -27.6347 H   0  0  0  0  0  0  0  0  0  0  0  0
   -6.1895   21.7363  -29.2525 H   0  0  0  0  0  0  0  0  0  0  0  0
   -5.8290   21.7230  -33.6260 H   0  0  0  0  0  0  0  0  0  0  0  0
   -7.7313   19.8810  -32.2709 H   0  0  0  0  0  0  0  0  0  0  0  0
   -7.9188   20.6812  -33.8808 H   0  0  0  0  0  0  0  0  0  0  0  0
   -6.7020   18.1448  -33.2892 H   0  0  0  0  0  0  0  0  0  0  0  0
   -6.8325   19.0049  -34.8841 H   0  0  0  0  0  0  0  0  0  0  0  0
   -4.8684   18.5801  -31.9438 H   0  0  0  0  0  0  0  0  0  0  0  0
   -3.4920   19.5501  -32.6092 H   0  0  0  0  0  0  0  0  0  0  0  0
   -5.5783   20.4824  -30.9379 H   0  0  0  0  0  0  0  0  0  0  0  0
   -4.3646   21.4709  -31.8504 H   0  0  0  0  0  0  0  0  0  0  0  0
   -5.5672   25.0679  -31.9425 H   0  0  0  0  0  0  0  0  0  0  0  0
   -3.8777   26.0201  -30.3715 H   0  0  0  0  0  0  0  0  0  0  0  0
  1  2  1  0
  2  3  1  0
  3  4  2  0
  4  5  1  0
  5  6  2  0
  6  7  1  0
  7  8  2  0
  8  9  1  0
  9 10  1  0
 10 11  2  0
 10 12  1  0
 12 13  1  0
 13 14  2  0
 14 15  1  0
 15 16  2  0
 16 17  1  0
 17 18  2  0
 17 19  2  0
 17 20  1  0
 20 21  1  0
 21 22  1  0
 22 23  1  0
 23 24  1  0
 24 25  1  0
 16 26  1  0
 26 27  2  0
  8  3  1  0
 27 13  1  0
 25 20  1  0
  1 28  1  0
  1 29  1  0
  1 30  1  0
  4 31  1  0
  5 32  1  0
  6 33  1  0
  7 34  1  0
  9 35  1  0
 12 36  1  0
 14 37  1  0
 15 38  1  0
 20 39  1  0
 21 40  1  0
 21 41  1  0
 22 42  1  0
 22 43  1  0
 24 44  1  0
 24 45  1  0
 25 46  1  0
 25 47  1  0
 26 48  1  0
 27 49  1  0
M  CHG  1  20   1
M  END
>  <UniqueID>  (45) 
42

>  <SMILES>  (45) 
CSc1ccccc1NC(=S)Nc1ccc(S(=O)(=O)[NH+]2CCOCC2)cc1

>  <Energy>  (45) 
68.81743503006987

>  <Genealogy>  (45) 
CSc1ccccc1NC(=S)Nc1ccc(S(=O)(=O)[NH+]2CCOCC2)cc1 (protonated)
CSc1ccccc1NC(=S)Nc1ccc(S(=O)(=O)[NH+]2CCOCC2)cc1 (3D coordinates assigned)
CSc1ccccc1NC(=S)Nc1ccc(S(=O)(=O)[NH+]2CCOCC2)cc1 (nonaromatic ring conformer: 68.81743503006987 kcal/mol)

>  <smiles>  (45) 
CSc1ccccc1NC(=S)Nc1ccc(S(=O)(=O)N2CCOCC2)cc1

>  <score_type>  (45) 
oracle

>  <origin>  (45) 
adgpu

>  <m_score__min__energy>  (45) 
-8.0899999999999999

>  <m_primary>  (45) 
energy

$$$$
45:0
     RDKit          3D

 39 41  0  0  0  0  0  0  0  0999 V2000
   -4.5460   22.3270  -32.7180 C   0  0  0  0  0  0  0  0  0  0  0  0
   -5.8900   22.1890  -32.0520 C   0  0  0  0  0  0  0  0  0  0  0  0
   -6.7070   21.0950  -32.3910 C   0  0  0  0  0  0  0  0  0  0  0  0
   -7.9630   20.9370  -31.8040 C   0  0  0  0  0  0  0  0  0  0  0  0
   -8.4200   21.8690  -30.8740 C   0  0  0  0  0  0  0  0  0  0  0  0
   -7.6280   22.9650  -30.5320 C   0  0  0  0  0  0  0  0  0  0  0  0
   -6.3630   23.1440  -31.1180 C   0  0  0  0  0  0  0  0  0  0  0  0
   -5.3960   24.5560  -30.6560 S   0  0  0  0  0  0  0  0  0  0  0  0
   -5.7130   24.9250  -29.2340 O   0  0  0  0  0  0  0  0  0  0  0  0
   -5.7210   25.6940  -31.5820 O   0  0  0  0  0  0  0  0  0  0  0  0
   -3.7060   24.1770  -30.7790 N   0  0  0  0  0  0  0  0  0  0  0  0
   -2.8470   23.6040  -29.7780 C   0  0  0  0  0  0  0  0  0  0  0  0
   -3.0200   22.2430  -29.4900 C   0  0  0  0  0  0  0  0  0  0  0  0
   -2.2320   21.6090  -28.5200 C   0  0  0  0  0  0  0  0  0  0  0  0
   -1.2480   22.3330  -27.8370 C   0  0  0  0  0  0  0  0  0  0  0  0
   -1.0530   23.6890  -28.1280 C   0  0  0  0  0  0  0  0  0  0  0  0
   -1.8470   24.3300  -29.0880 C   0  0  0  0  0  0  0  0  0  0  0  0
   -1.6130   25.6750  -29.3360 O   0  0  0  0  0  0  0  0  0  0  0  0
   -0.3810   21.6110  -26.8430 C   0  0  0  0  0  0  0  0  0  0  0  0
   -1.2250   20.6780  -25.9540 C   0  0  0  0  0  0  0  0  0  0  0  0
   -2.3260   19.8840  -26.7080 C   0  0  0  0  0  0  0  0  0  0  0  0
   -2.3790   20.1410  -28.2240 C   0  0  0  0  0  0  0  0  0  0  0  0
   -3.7627   22.4074  -31.9499 H   0  0  0  0  0  0  0  0  0  0  0  0
   -4.3552   21.4437  -33.3452 H   0  0  0  0  0  0  0  0  0  0  0  0
   -4.5386   23.2306  -33.3452 H   0  0  0  0  0  0  0  0  0  0  0  0
   -6.3523   20.3572  -33.1257 H   0  0  0  0  0  0  0  0  0  0  0  0
   -8.5925   20.0767  -32.0753 H   0  0  0  0  0  0  0  0  0  0  0  0
   -9.4082   21.7399  -30.4083 H   0  0  0  0  0  0  0  0  0  0  0  0
   -7.9967   23.6958  -29.7971 H   0  0  0  0  0  0  0  0  0  0  0  0
   -3.7835   21.6657  -30.0320 H   0  0  0  0  0  0  0  0  0  0  0  0
   -0.2714   24.2544  -27.5994 H   0  0  0  0  0  0  0  0  0  0  0  0
    0.3669   21.0132  -27.3846 H   0  0  0  0  0  0  0  0  0  0  0  0
    0.1137   22.3553  -26.2017 H   0  0  0  0  0  0  0  0  0  0  0  0
   -0.5477   19.9549  -25.4761 H   0  0  0  0  0  0  0  0  0  0  0  0
   -1.7468   21.3243  -25.2329 H   0  0  0  0  0  0  0  0  0  0  0  0
   -2.1448   18.8108  -26.5484 H   0  0  0  0  0  0  0  0  0  0  0  0
   -3.2893   20.2251  -26.3009 H   0  0  0  0  0  0  0  0  0  0  0  0
   -1.5614   19.5905  -28.7124 H   0  0  0  0  0  0  0  0  0  0  0  0
   -3.3517   19.7987  -28.6070 H   0  0  0  0  0  0  0  0  0  0  0  0
  1  2  1  0
  2  3  2  0
  3  4  1  0
  4  5  2  0
  5  6  1  0
  6  7  2  0
  7  8  1  0
  8  9  2  0
  8 10  2  0
  8 11  1  0
 11 12  1  0
 12 13  2  0
 13 14  1  0
 14 15  2  0
 15 16  1  0
 16 17  2  0
 17 18  1  0
 15 19  1  0
 19 20  1  0
 20 21  1  0
 21 22  1  0
  7  2  1  0
 17 12  1  0
 22 14  1  0
  1 23  1  0
  1 24  1  0
  1 25  1  0
  3 26  1  0
  4 27  1  0
  5 28  1  0
  6 29  1  0
 13 30  1  0
 16 31  1  0
 19 32  1  0
 19 33  1  0
 20 34  1  0
 20 35  1  0
 21 36  1  0
 21 37  1  0
 22 38  1  0
 22 39  1  0
M  CHG  2  11  -1  18  -1
M  END
>  <UniqueID>  (46) 
43

>  <SMILES>  (46) 
Cc1ccccc1S(=O)(=O)[N-]c1cc2c(cc1[O-])CCCC2

>  <Energy>  (46) 
54.095579509774396

>  <Genealogy>  (46) 
Cc1ccccc1S(=O)(=O)[N-]c1cc2c(cc1[O-])CCCC2 (protonated)
Cc1ccccc1S(=O)(=O)[N-]c1cc2c(cc1[O-])CCCC2 (3D coordinates assigned)
Cc1ccccc1S(=O)(=O)[N-]c1cc2c(cc1[O-])CCCC2 (nonaromatic ring conformer: 54.095579509774396 kcal/mol)

>  <smiles>  (46) 
Cc1ccccc1S(=O)(=O)Nc1cc2c(cc1O)CCCC2

>  <score_type>  (46) 
oracle

>  <origin>  (46) 
adgpu

>  <m_score__min__energy>  (46) 
-12.720000000000001

>  <m_primary>  (46) 
energy

$$$$
46:0
     RDKit          3D

 36 38  0  0  0  0  0  0  0  0999 V2000
   -6.3110   16.9710  -33.9310 C   0  0  0  0  0  0  0  0  0  0  0  0
   -6.7480   18.0940  -33.0520 C   0  0  0  0  0  0  0  0  0  0  0  0
   -6.2450   19.3780  -33.0720 C   0  0  0  0  0  0  0  0  0  0  0  0
   -6.9980   20.0360  -32.1150 C   0  0  0  0  0  0  0  0  0  0  0  0
   -6.8970   21.4560  -31.7080 C   0  0  0  0  0  0  0  0  0  0  0  0
   -8.0330   22.2820  -31.6440 C   0  0  0  0  0  0  0  0  0  0  0  0
   -7.9160   23.6170  -31.2460 C   0  0  0  0  0  0  0  0  0  0  0  0
   -6.6680   24.1400  -30.9050 C   0  0  0  0  0  0  0  0  0  0  0  0
   -5.5270   23.3320  -30.9650 C   0  0  0  0  0  0  0  0  0  0  0  0
   -3.9620   24.0010  -30.5130 S   0  0  0  0  0  0  0  0  0  0  0  0
   -3.9330   25.4580  -30.8770 O   0  0  0  0  0  0  0  0  0  0  0  0
   -2.8460   23.2960  -31.2350 O   0  0  0  0  0  0  0  0  0  0  0  0
   -3.7230   23.8360  -28.8030 N   0  0  0  0  0  0  0  0  0  0  0  0
   -2.4610   23.5980  -28.1620 C   0  0  0  0  0  0  0  0  0  0  0  0
   -2.2580   22.5000  -27.3030 C   0  0  0  0  0  0  0  0  0  0  0  0
   -1.0150   22.3020  -26.6940 C   0  0  0  0  0  0  0  0  0  0  0  0
    0.0350   23.1890  -26.9380 C   0  0  0  0  0  0  0  0  0  0  0  0
   -0.1560   24.2790  -27.7900 C   0  0  0  0  0  0  0  0  0  0  0  0
   -1.4010   24.4860  -28.4060 C   0  0  0  0  0  0  0  0  0  0  0  0
   -1.5890   25.5700  -29.2600 O   0  0  0  0  0  0  0  0  0  0  0  0
   -5.6430   21.9940  -31.3700 C   0  0  0  0  0  0  0  0  0  0  0  0
   -7.8590   19.1830  -31.6050 O   0  0  0  0  0  0  0  0  0  0  0  0
   -7.7400   18.0050  -32.1470 N   0  0  0  0  0  0  0  0  0  0  0  0
   -5.9819   16.1254  -33.3092 H   0  0  0  0  0  0  0  0  0  0  0  0
   -7.1514   16.6540  -34.5660 H   0  0  0  0  0  0  0  0  0  0  0  0
   -5.4774   17.3054  -34.5660 H   0  0  0  0  0  0  0  0  0  0  0  0
   -5.4373   19.7830  -33.6994 H   0  0  0  0  0  0  0  0  0  0  0  0
   -9.0201   21.8752  -31.9088 H   0  0  0  0  0  0  0  0  0  0  0  0
   -8.8098   24.2567  -31.2015 H   0  0  0  0  0  0  0  0  0  0  0  0
   -6.5809   25.1898  -30.5883 H   0  0  0  0  0  0  0  0  0  0  0  0
   -3.0807   21.7956  -27.1106 H   0  0  0  0  0  0  0  0  0  0  0  0
   -0.8641   21.4451  -26.0209 H   0  0  0  0  0  0  0  0  0  0  0  0
    1.0125   23.0295  -26.4594 H   0  0  0  0  0  0  0  0  0  0  0  0
    0.6719   24.9781  -27.9793 H   0  0  0  0  0  0  0  0  0  0  0  0
   -2.4320   25.6740  -29.8120 H   0  0  0  0  0  0  0  0  0  0  0  0
   -4.7453   21.3605  -31.4236 H   0  0  0  0  0  0  0  0  0  0  0  0
  1  2  1  0
  2  3  1  0
  3  4  2  0
  4  5  1  0
  5  6  2  0
  6  7  1  0
  7  8  2  0
  8  9  1  0
  9 10  1  0
 10 11  2  0
 10 12  2  0
 10 13  1  0
 13 14  1  0
 14 15  2  0
 15 16  1  0
 16 17  2  0
 17 18  1  0
 18 19  2  0
 19 20  1  0
  9 21  2  0
  4 22  1  0
 22 23  1  0
 23  2  2  0
 21  5  1  0
 19 14  1  0
  1 24  1  0
  1 25  1  0
  1 26  1  0
  3 27  1  0
  6 28  1  0
  7 29  1  0
  8 30  1  0
 15 31  1  0
 16 32  1  0
 17 33  1  0
 18 34  1  0
 20 35  1  0
 21 36  1  0
M  CHG  1  13  -1
M  END
>  <UniqueID>  (47) 
44

>  <SMILES>  (47) 
Cc1cc(-c2cccc(S(=O)(=O)[N-]c3ccccc3O)c2)on1

>  <Energy>  (47) 
71.32314227095267

>  <Genealogy>  (47) 
Cc1cc(-c2cccc(S(=O)(=O)[N-]c3ccccc3O)c2)on1 (protonated)
Cc1cc(-c2cccc(S(=O)(=O)[N-]c3ccccc3O)c2)on1 (3D coordinates assigned)
Cc1cc(-c2cccc(S(=O)(=O)[N-]c3ccccc3O)c2)on1 (optimized conformer: 71.32314227095267 kcal/mol)

>  <smiles>  (47) 
Cc1cc(-c2cccc(S(=O)(=O)Nc3ccccc3O)c2)on1

>  <score_type>  (47) 
oracle

>  <origin>  (47) 
adgpu

>  <m_score__min__energy>  (47) 
-10.27

>  <m_primary>  (47) 
energy

$$$$
47:0
     RDKit          3D

 56 59  0  0  0  0  0  0  0  0999 V2000
   -5.3720   11.7070  -33.7010 C   0  0  0  0  0  0  0  0  0  0  0  0
   -5.6710   13.1730  -34.6760 S   0  0  0  0  0  0  0  0  0  0  0  0
   -4.5510   13.3280  -35.6670 O   0  0  0  0  0  0  0  0  0  0  0  0
   -6.9580   12.9900  -35.4320 O   0  0  0  0  0  0  0  0  0  0  0  0
   -5.7780   14.6160  -33.6940 N   0  0  0  0  0  0  0  0  0  0  0  0
   -4.4710   15.3040  -33.6530 C   0  0  0  0  0  0  0  0  0  0  0  0
   -4.5410   16.5500  -32.7600 C   0  0  0  0  0  0  0  0  0  0  0  0
   -5.6560   17.3940  -33.2010 N   0  0  0  0  0  0  0  0  0  0  0  0
   -5.4210   18.7030  -33.7540 C   0  0  0  0  0  0  0  0  0  0  0  0
   -5.9820   19.0270  -34.8370 O   0  0  0  0  0  0  0  0  0  0  0  0
   -4.5370   19.6790  -33.0750 C   0  0  0  0  0  0  0  0  0  0  0  0
   -3.3290   20.0870  -33.6630 C   0  0  0  0  0  0  0  0  0  0  0  0
   -2.4900   20.9930  -33.0070 C   0  0  0  0  0  0  0  0  0  0  0  0
   -2.8390   21.4930  -31.7420 C   0  0  0  0  0  0  0  0  0  0  0  0
   -2.0000   22.4370  -31.0620 N   0  0  0  0  0  0  0  0  0  0  0  0
   -2.4180   23.1590  -29.9000 C   0  0  0  0  0  0  0  0  0  0  0  0
   -3.1300   24.3220  -29.6510 C   0  0  0  0  0  0  0  0  0  0  0  0
   -3.7930   25.2890  -30.4710 N   0  0  0  0  0  0  0  0  0  0  0  0
   -5.2150   25.4010  -30.5970 C   0  0  0  0  0  0  0  0  0  0  0  0
   -5.7470   26.5320  -30.4460 O   0  0  0  0  0  0  0  0  0  0  0  0
   -6.0750   24.2210  -30.8510 C   0  0  0  0  0  0  0  0  0  0  0  0
   -6.2470   23.7410  -32.1610 C   0  0  0  0  0  0  0  0  0  0  0  0
   -7.0760   22.6400  -32.4070 C   0  0  0  0  0  0  0  0  0  0  0  0
   -7.7480   22.0180  -31.3520 C   0  0  0  0  0  0  0  0  0  0  0  0
   -7.5920   22.4960  -30.0480 C   0  0  0  0  0  0  0  0  0  0  0  0
   -6.7690   23.5970  -29.7970 C   0  0  0  0  0  0  0  0  0  0  0  0
   -2.9460   24.1380  -28.2920 C   0  0  0  0  0  0  0  0  0  0  0  0
   -3.3010   24.7510  -27.2510 O   0  0  0  0  0  0  0  0  0  0  0  0
   -2.2030   23.0030  -28.5440 C   0  0  0  0  0  0  0  0  0  0  0  0
   -1.5860   22.1690  -27.8320 O   0  0  0  0  0  0  0  0  0  0  0  0
   -4.0530   21.1040  -31.1620 C   0  0  0  0  0  0  0  0  0  0  0  0
   -4.8890   20.1930  -31.8140 C   0  0  0  0  0  0  0  0  0  0  0  0
   -6.9680   16.7550  -33.3290 C   0  0  0  0  0  0  0  0  0  0  0  0
   -6.8390   15.5070  -34.2090 C   0  0  0  0  0  0  0  0  0  0  0  0
   -5.4238   11.9608  -32.6319 H   0  0  0  0  0  0  0  0  0  0  0  0
   -6.1341   10.9491  -33.9353 H   0  0  0  0  0  0  0  0  0  0  0  0
   -4.3740   11.3081  -33.9353 H   0  0  0  0  0  0  0  0  0  0  0  0
   -6.0320   14.3080  -32.7260 H   0  0  0  0  0  0  0  0  0  0  0  0
   -3.7128   14.6150  -33.2525 H   0  0  0  0  0  0  0  0  0  0  0  0
   -4.2033   15.6152  -34.6735 H   0  0  0  0  0  0  0  0  0  0  0  0
   -4.7001   16.2458  -31.7149 H   0  0  0  0  0  0  0  0  0  0  0  0
   -3.5986   17.1124  -32.8339 H   0  0  0  0  0  0  0  0  0  0  0  0
   -3.0403   19.6907  -34.6477 H   0  0  0  0  0  0  0  0  0  0  0  0
   -1.5526   21.3155  -33.4838 H   0  0  0  0  0  0  0  0  0  0  0  0
   -1.0880   22.7020  -31.4950 H   0  0  0  0  0  0  0  0  0  0  0  0
   -5.7278   24.2328  -32.9968 H   0  0  0  0  0  0  0  0  0  0  0  0
   -7.1985   22.2638  -33.4334 H   0  0  0  0  0  0  0  0  0  0  0  0
   -8.3991   21.1532  -31.5473 H   0  0  0  0  0  0  0  0  0  0  0  0
   -8.1186   22.0041  -29.2169 H   0  0  0  0  0  0  0  0  0  0  0  0
   -6.6628   23.9781  -28.7706 H   0  0  0  0  0  0  0  0  0  0  0  0
   -4.3505   21.5180  -30.1873 H   0  0  0  0  0  0  0  0  0  0  0  0
   -5.8285   19.8760  -31.3377 H   0  0  0  0  0  0  0  0  0  0  0  0
   -7.3349   16.4662  -32.3330 H   0  0  0  0  0  0  0  0  0  0  0  0
   -7.6776   17.4586  -33.7887 H   0  0  0  0  0  0  0  0  0  0  0  0
   -7.7965   14.9655  -34.2113 H   0  0  0  0  0  0  0  0  0  0  0  0
   -6.5762   15.8185  -35.2307 H   0  0  0  0  0  0  0  0  0  0  0  0
  1  2  1  0
  2  3  2  0
  2  4  2  0
  2  5  1  0
  5  6  1  0
  6  7  1  0
  7  8  1  0
  8  9  1  0
  9 10  2  0
  9 11  1  0
 11 12  2  0
 12 13  1  0
 13 14  2  0
 14 15  1  0
 15 16  1  0
 16 17  2  0
 17 18  1  0
 18 19  1  0
 19 20  2  0
 19 21  1  0
 21 22  2  0
 22 23  1  0
 23 24  2  0
 24 25  1  0
 25 26  2  0
 17 27  1  0
 27 28  2  0
 27 29  1  0
 29 30  2  0
 14 31  1  0
 31 32  2  0
  8 33  1  0
 33 34  1  0
 34  5  1  0
 32 11  1  0
 29 16  1  0
 26 21  1  0
  1 35  1  0
  1 36  1  0
  1 37  1  0
  5 38  1  0
  6 39  1  0
  6 40  1  0
  7 41  1  0
  7 42  1  0
 12 43  1  0
 13 44  1  0
 15 45  1  0
 22 46  1  0
 23 47  1  0
 24 48  1  0
 25 49  1  0
 26 50  1  0
 31 51  1  0
 32 52  1  0
 33 53  1  0
 33 54  1  0
 34 55  1  0
 34 56  1  0
M  CHG  2   5   1  18  -1
M  END
>  <UniqueID>  (48) 
45

>  <SMILES>  (48) 
CS(=O)(=O)[NH+]1CCN(C(=O)c2ccc(Nc3c([N-]C(=O)c4ccccc4)c(=O)c3=O)cc2)CC1

>  <Energy>  (48) 
57.75502884598714

>  <Genealogy>  (48) 
CS(=O)(=O)[NH+]1CCN(C(=O)c2ccc(Nc3c([N-]C(=O)c4ccccc4)c(=O)c3=O)cc2)CC1 (protonated)
CS(=O)(=O)[NH+]1CCN(C(=O)c2ccc(Nc3c([N-]C(=O)c4ccccc4)c(=O)c3=O)cc2)CC1 (3D coordinates assigned)
CS(=O)(=O)[NH+]1CCN(C(=O)c2ccc(Nc3c([N-]C(=O)c4ccccc4)c(=O)c3=O)cc2)CC1 (nonaromatic ring conformer: 57.75502884598714 kcal/mol)

>  <smiles>  (48) 
CS(=O)(=O)N1CCN(C(=O)c2ccc(Nc3c(NC(=O)c4ccccc4)c(=O)c3=O)cc2)CC1

>  <score_type>  (48) 
oracle

>  <origin>  (48) 
adgpu

>  <m_score__min__energy>  (48) 
-11.140000000000001

>  <m_primary>  (48) 
energy

$$$$
48:0
     RDKit          3D

 41 43  0  0  0  0  0  0  0  0999 V2000
    2.1420   24.1070  -36.4190 C   0  0  0  0  0  0  0  0  0  0  0  0
    1.2500   23.5460  -35.4100 N   0  0  0  0  0  0  0  0  0  0  0  0
    0.8230   22.3190  -35.4180 C   0  0  0  0  0  0  0  0  0  0  0  0
   -0.0050   21.8950  -34.4270 N   0  0  0  0  0  0  0  0  0  0  0  0
   -0.4870   20.6250  -34.3980 C   0  0  0  0  0  0  0  0  0  0  0  0
   -1.3410   20.2410  -33.3110 N   0  0  0  0  0  0  0  0  0  0  0  0
   -2.6440   20.7610  -33.0090 C   0  0  0  0  0  0  0  0  0  0  0  0
   -2.7970   21.9980  -32.8240 O   0  0  0  0  0  0  0  0  0  0  0  0
   -3.8110   19.8480  -32.8740 C   0  0  0  0  0  0  0  0  0  0  0  0
   -4.0430   18.8810  -33.8730 C   0  0  0  0  0  0  0  0  0  0  0  0
   -5.1300   17.9950  -33.7880 C   0  0  0  0  0  0  0  0  0  0  0  0
   -5.3590   16.9380  -34.8390 C   0  0  0  0  0  0  0  0  0  0  0  0
   -6.6890   16.5570  -34.8890 F   0  0  0  0  0  0  0  0  0  0  0  0
   -4.5990   15.8160  -34.5590 F   0  0  0  0  0  0  0  0  0  0  0  0
   -4.9880   17.4350  -36.0750 F   0  0  0  0  0  0  0  0  0  0  0  0
   -5.9670   18.0490  -32.6650 C   0  0  0  0  0  0  0  0  0  0  0  0
   -5.7560   19.0050  -31.6730 C   0  0  0  0  0  0  0  0  0  0  0  0
   -4.7000   19.9280  -31.7770 C   0  0  0  0  0  0  0  0  0  0  0  0
   -4.5050   20.8980  -30.7810 O   0  0  0  0  0  0  0  0  0  0  0  0
   -5.0620   22.1860  -30.7750 C   0  0  0  0  0  0  0  0  0  0  0  0
   -6.4420   22.4020  -30.9520 C   0  0  0  0  0  0  0  0  0  0  0  0
   -6.9560   23.7030  -30.9520 C   0  0  0  0  0  0  0  0  0  0  0  0
   -6.0970   24.7950  -30.7930 C   0  0  0  0  0  0  0  0  0  0  0  0
   -4.7220   24.5870  -30.6390 C   0  0  0  0  0  0  0  0  0  0  0  0
   -3.8680   25.6730  -30.4910 O   0  0  0  0  0  0  0  0  0  0  0  0
   -4.2080   23.2870  -30.6350 C   0  0  0  0  0  0  0  0  0  0  0  0
   -0.0920   19.7190  -35.3930 C   0  0  0  0  0  0  0  0  0  0  0  0
    0.7610   20.1680  -36.4040 C   0  0  0  0  0  0  0  0  0  0  0  0
    1.1270   19.3850  -37.3180 O   0  0  0  0  0  0  0  0  0  0  0  0
    1.1960   21.4550  -36.4010 N   0  0  0  0  0  0  0  0  0  0  0  0
    2.9733   24.6299  -35.9235 H   0  0  0  0  0  0  0  0  0  0  0  0
    2.5408   23.2968  -37.0471 H   0  0  0  0  0  0  0  0  0  0  0  0
    1.5844   24.8173  -37.0471 H   0  0  0  0  0  0  0  0  0  0  0  0
   -3.3612   18.8190  -34.7340 H   0  0  0  0  0  0  0  0  0  0  0  0
   -6.7956   17.3324  -32.5660 H   0  0  0  0  0  0  0  0  0  0  0  0
   -6.4229   19.0380  -30.7989 H   0  0  0  0  0  0  0  0  0  0  0  0
   -7.1179   21.5453  -31.0907 H   0  0  0  0  0  0  0  0  0  0  0  0
   -8.0365   23.8672  -31.0771 H   0  0  0  0  0  0  0  0  0  0  0  0
   -6.5024   25.8176  -30.7890 H   0  0  0  0  0  0  0  0  0  0  0  0
   -3.1256   23.1278  -30.5211 H   0  0  0  0  0  0  0  0  0  0  0  0
   -0.4461   18.6777  -35.3776 H   0  0  0  0  0  0  0  0  0  0  0  0
  1  2  1  0
  2  3  2  3
  3  4  1  0
  4  5  1  0
  5  6  1  0
  6  7  1  0
  7  8  2  0
  7  9  1  0
  9 10  2  0
 10 11  1  0
 11 12  1  0
 12 13  1  0
 12 14  1  0
 12 15  1  0
 11 16  2  0
 16 17  1  0
 17 18  2  0
 18 19  1  0
 19 20  1  0
 20 21  2  0
 21 22  1  0
 22 23  2  0
 23 24  1  0
 24 25  1  0
 24 26  2  0
  5 27  2  0
 27 28  1  0
 28 29  2  0
 28 30  1  0
 30  3  1  0
 18  9  1  0
 26 20  1  0
  1 31  1  0
  1 32  1  0
  1 33  1  0
 10 34  1  0
 16 35  1  0
 17 36  1  0
 21 37  1  0
 22 38  1  0
 23 39  1  0
 26 40  1  0
 27 41  1  0
M  CHG  4   4  -1   6  -1  25  -1  30  -1
M  END
>  <UniqueID>  (49) 
46

>  <SMILES>  (49) 
CN=c1[n-]c([N-]C(=O)c2cc(C(F)(F)F)ccc2Oc2cccc([O-])c2)cc(=O)[n-]1

>  <Energy>  (49) 
57.22504840239394

>  <Genealogy>  (49) 
CN=c1[n-]c([N-]C(=O)c2cc(C(F)(F)F)ccc2Oc2cccc([O-])c2)cc(=O)[n-]1 (protonated)
CN=c1[n-]c([N-]C(=O)c2cc(C(F)(F)F)ccc2Oc2cccc([O-])c2)cc(=O)[n-]1 (3D coordinates assigned)
CN=c1[n-]c([N-]C(=O)c2cc(C(F)(F)F)ccc2Oc2cccc([O-])c2)cc(=O)[n-]1 (optimized conformer: 57.22504840239394 kcal/mol)

>  <smiles>  (49) 
CN=c1[nH]c(NC(=O)c2cc(C(F)(F)F)ccc2Oc2cccc(O)c2)cc(=O)[nH]1

>  <score_type>  (49) 
oracle

>  <origin>  (49) 
adgpu

>  <m_score__min__energy>  (49) 
-12.23

>  <m_primary>  (49) 
energy

$$$$
49:0
     RDKit          3D

 56 59  0  0  0  0  0  0  0  0999 V2000
   -4.1410   21.5420  -33.1460 C   0  0  0  0  0  0  0  0  0  0  0  0
   -5.0480   20.7540  -32.3840 O   0  0  0  0  0  0  0  0  0  0  0  0
   -6.3520   21.1460  -32.0360 C   0  0  0  0  0  0  0  0  0  0  0  0
   -7.4860   20.4880  -32.5540 C   0  0  0  0  0  0  0  0  0  0  0  0
   -8.7690   20.8650  -32.1470 C   0  0  0  0  0  0  0  0  0  0  0  0
   -8.9350   21.8920  -31.2180 C   0  0  0  0  0  0  0  0  0  0  0  0
   -7.8200   22.5570  -30.7040 C   0  0  0  0  0  0  0  0  0  0  0  0
   -6.5280   22.2100  -31.1250 C   0  0  0  0  0  0  0  0  0  0  0  0
   -5.4050   22.9150  -30.5730 N   0  0  0  0  0  0  0  0  0  0  0  0
   -5.0510   24.2520  -30.9510 C   0  0  0  0  0  0  0  0  0  0  0  0
   -5.8370   24.9450  -31.6530 O   0  0  0  0  0  0  0  0  0  0  0  0
   -3.8340   24.8200  -30.4570 N   0  0  0  0  0  0  0  0  0  0  0  0
   -2.6990   24.0750  -29.9950 C   0  0  0  0  0  0  0  0  0  0  0  0
   -2.5990   22.7210  -30.3460 C   0  0  0  0  0  0  0  0  0  0  0  0
   -1.5040   21.9510  -29.9250 C   0  0  0  0  0  0  0  0  0  0  0  0
   -1.4440   20.4800  -30.2420 C   0  0  0  0  0  0  0  0  0  0  0  0
   -0.6230   20.2580  -31.4440 N   0  0  0  0  0  0  0  0  0  0  0  0
   -0.8550   21.0350  -32.5460 C   0  0  0  0  0  0  0  0  0  0  0  0
   -0.0460   20.9280  -33.6870 C   0  0  0  0  0  0  0  0  0  0  0  0
   -0.2660   21.7550  -34.8430 N   0  0  0  0  0  0  0  0  0  0  0  0
    0.7300   22.6150  -35.4220 C   0  0  0  0  0  0  0  0  0  0  0  0
    2.0970   22.2790  -35.3890 C   0  0  0  0  0  0  0  0  0  0  0  0
    3.0460   23.1220  -35.9750 C   0  0  0  0  0  0  0  0  0  0  0  0
    2.6390   24.2970  -36.6120 C   0  0  0  0  0  0  0  0  0  0  0  0
    1.2830   24.6260  -36.6730 C   0  0  0  0  0  0  0  0  0  0  0  0
    0.3310   23.7850  -36.0860 C   0  0  0  0  0  0  0  0  0  0  0  0
    0.9670   19.9670  -33.7050 C   0  0  0  0  0  0  0  0  0  0  0  0
    1.1940   19.1740  -32.5830 C   0  0  0  0  0  0  0  0  0  0  0  0
    0.3980   19.3390  -31.4460 C   0  0  0  0  0  0  0  0  0  0  0  0
    0.6320   18.6310  -30.4290 O   0  0  0  0  0  0  0  0  0  0  0  0
   -0.5030   22.5490  -29.1460 C   0  0  0  0  0  0  0  0  0  0  0  0
   -0.5790   23.9030  -28.8200 C   0  0  0  0  0  0  0  0  0  0  0  0
   -1.6620   24.6750  -29.2530 C   0  0  0  0  0  0  0  0  0  0  0  0
   -1.6780   26.0350  -28.9690 O   0  0  0  0  0  0  0  0  0  0  0  0
   -3.4880   22.1094  -32.4666 H   0  0  0  0  0  0  0  0  0  0  0  0
   -3.5279   20.8849  -33.7803 H   0  0  0  0  0  0  0  0  0  0  0  0
   -4.7059   22.2409  -33.7803 H   0  0  0  0  0  0  0  0  0  0  0  0
   -7.3605   19.6734  -33.2825 H   0  0  0  0  0  0  0  0  0  0  0  0
   -9.6493   20.3508  -32.5601 H   0  0  0  0  0  0  0  0  0  0  0  0
   -9.9452   22.1783  -30.8900 H   0  0  0  0  0  0  0  0  0  0  0  0
   -7.9560   23.3589  -29.9634 H   0  0  0  0  0  0  0  0  0  0  0  0
   -4.9010   22.4890  -29.7620 H   0  0  0  0  0  0  0  0  0  0  0  0
   -3.3871   22.2577  -30.9577 H   0  0  0  0  0  0  0  0  0  0  0  0
   -0.9989   19.9419  -29.3921 H   0  0  0  0  0  0  0  0  0  0  0  0
   -2.4627   20.1080  -30.4262 H   0  0  0  0  0  0  0  0  0  0  0  0
   -1.6877   21.7537  -32.5371 H   0  0  0  0  0  0  0  0  0  0  0  0
   -1.2080   21.7200  -35.2960 H   0  0  0  0  0  0  0  0  0  0  0  0
    2.4200   21.3483  -34.8996 H   0  0  0  0  0  0  0  0  0  0  0  0
    4.1136   22.8601  -35.9345 H   0  0  0  0  0  0  0  0  0  0  0  0
    3.3872   24.9635  -37.0659 H   0  0  0  0  0  0  0  0  0  0  0  0
    0.9632   25.5468  -37.1828 H   0  0  0  0  0  0  0  0  0  0  0  0
   -0.7367   24.0427  -36.1455 H   0  0  0  0  0  0  0  0  0  0  0  0
    1.5855   19.8364  -34.6052 H   0  0  0  0  0  0  0  0  0  0  0  0
    1.9960   18.4212  -32.5915 H   0  0  0  0  0  0  0  0  0  0  0  0
    0.3463   21.9473  -28.7903 H   0  0  0  0  0  0  0  0  0  0  0  0
    0.2173   24.3663  -28.2190 H   0  0  0  0  0  0  0  0  0  0  0  0
  1  2  1  0
  2  3  1  0
  3  4  2  0
  4  5  1  0
  5  6  2  0
  6  7  1  0
  7  8  2  0
  8  9  1  0
  9 10  1  0
 10 11  2  0
 10 12  1  0
 12 13  1  0
 13 14  2  0
 14 15  1  0
 15 16  1  0
 16 17  1  0
 17 18  1  0
 18 19  2  0
 19 20  1  0
 20 21  1  0
 21 22  2  0
 22 23  1  0
 23 24  2  0
 24 25  1  0
 25 26  2  0
 19 27  1  0
 27 28  2  0
 28 29  1  0
 29 30  2  0
 15 31  2  0
 31 32  1  0
 32 33  2  0
 33 34  1  0
  8  3  1  0
 33 13  1  0
 29 17  1  0
 26 21  1  0
  1 35  1  0
  1 36  1  0
  1 37  1  0
  4 38  1  0
  5 39  1  0
  6 40  1  0
  7 41  1  0
  9 42  1  0
 14 43  1  0
 16 44  1  0
 16 45  1  0
 18 46  1  0
 20 47  1  0
 22 48  1  0
 23 49  1  0
 24 50  1  0
 25 51  1  0
 26 52  1  0
 27 53  1  0
 28 54  1  0
 31 55  1  0
 32 56  1  0
M  CHG  2  12  -1  34  -1
M  END
>  <UniqueID>  (50) 
47

>  <SMILES>  (50) 
COc1ccccc1NC(=O)[N-]c1cc(Cn2cc(Nc3ccccc3)ccc2=O)ccc1[O-]

>  <Energy>  (50) 
75.90342153841416

>  <Genealogy>  (50) 
COc1ccccc1NC(=O)[N-]c1cc(Cn2cc(Nc3ccccc3)ccc2=O)ccc1[O-] (protonated)
COc1ccccc1NC(=O)[N-]c1cc(Cn2cc(Nc3ccccc3)ccc2=O)ccc1[O-] (3D coordinates assigned)
COc1ccccc1NC(=O)[N-]c1cc(Cn2cc(Nc3ccccc3)ccc2=O)ccc1[O-] (optimized conformer: 75.90342153841416 kcal/mol)

>  <smiles>  (50) 
COc1ccccc1NC(=O)Nc1cc(Cn2cc(Nc3ccccc3)ccc2=O)ccc1O

>  <score_type>  (50) 
oracle

>  <origin>  (50) 
adgpu

>  <m_score__min__energy>  (50) 
-13.300000000000001

>  <m_primary>  (50) 
energy

$$$$
