0:0
     RDKit          3D

 39 41  0  0  0  0  0  0  0  0999 V2000
   -9.5020   21.2450  -32.3430 C   0  0  0  0  0  0  0  0  0  0  0  0
   -8.2480   20.5330  -32.0560 N   0  0  0  0  0  0  0  0  0  0  0  0
   -8.3720   19.1730  -31.6120 C   0  0  0  0  0  0  0  0  0  0  0  0
   -9.0350   18.9230  -30.5690 O   0  0  0  0  0  0  0  0  0  0  0  0
   -7.7420   18.0300  -32.3590 C   0  0  0  0  0  0  0  0  0  0  0  0
   -6.2570   18.2480  -32.7120 C   0  0  0  0  0  0  0  0  0  0  0  0
   -6.0530   19.4120  -34.1090 S   0  0  0  0  0  0  0  0  0  0  0  0
   -5.9230   20.8270  -33.0000 C   0  0  0  0  0  0  0  0  0  0  0  0
   -4.7030   21.5150  -33.0080 C   0  0  0  0  0  0  0  0  0  0  0  0
   -4.4920   22.6020  -32.1630 C   0  0  0  0  0  0  0  0  0  0  0  0
   -5.5110   23.0370  -31.3170 C   0  0  0  0  0  0  0  0  0  0  0  0
   -5.3040   24.4730  -30.3200 S   0  0  0  0  0  0  0  0  0  0  0  0
   -6.5670   25.2920  -30.2840 O   0  0  0  0  0  0  0  0  0  0  0  0
   -4.1990   25.3050  -30.9080 O   0  0  0  0  0  0  0  0  0  0  0  0
   -4.8740   24.0110  -28.7070 N   0  0  0  0  0  0  0  0  0  0  0  0
   -3.6070   23.4430  -28.3400 C   0  0  0  0  0  0  0  0  0  0  0  0
   -3.4740   22.0990  -27.9470 C   0  0  0  0  0  0  0  0  0  0  0  0
   -2.2310   21.5860  -27.5850 C   0  0  0  0  0  0  0  0  0  0  0  0
   -1.0980   22.4030  -27.6140 C   0  0  0  0  0  0  0  0  0  0  0  0
    0.1090   21.9050  -27.2650 F   0  0  0  0  0  0  0  0  0  0  0  0
   -1.2170   23.7350  -28.0030 C   0  0  0  0  0  0  0  0  0  0  0  0
   -2.4590   24.2540  -28.3630 C   0  0  0  0  0  0  0  0  0  0  0  0
   -6.7380   22.3610  -31.2990 C   0  0  0  0  0  0  0  0  0  0  0  0
   -6.9700   21.2330  -32.1200 C   0  0  0  0  0  0  0  0  0  0  0  0
   -9.9908   21.5225  -31.3974 H   0  0  0  0  0  0  0  0  0  0  0  0
   -9.2832   22.1536  -32.9231 H   0  0  0  0  0  0  0  0  0  0  0  0
  -10.1702   20.5916  -32.9231 H   0  0  0  0  0  0  0  0  0  0  0  0
   -7.8196   17.1265  -31.7364 H   0  0  0  0  0  0  0  0  0  0  0  0
   -8.2834   17.9385  -33.3121 H   0  0  0  0  0  0  0  0  0  0  0  0
   -5.7379   18.6544  -31.8315 H   0  0  0  0  0  0  0  0  0  0  0  0
   -5.8311   17.2786  -33.0103 H   0  0  0  0  0  0  0  0  0  0  0  0
   -3.9020   21.1931  -33.6897 H   0  0  0  0  0  0  0  0  0  0  0  0
   -3.5204   23.1177  -32.1632 H   0  0  0  0  0  0  0  0  0  0  0  0
   -5.5650   24.2380  -27.9570 H   0  0  0  0  0  0  0  0  0  0  0  0
   -4.3599   21.4473  -27.9254 H   0  0  0  0  0  0  0  0  0  0  0  0
   -2.1409   20.5344  -27.2753 H   0  0  0  0  0  0  0  0  0  0  0  0
   -0.3264   24.3803  -28.0261 H   0  0  0  0  0  0  0  0  0  0  0  0
   -2.5419   25.3076  -28.6679 H   0  0  0  0  0  0  0  0  0  0  0  0
   -7.5379   22.7151  -30.6321 H   0  0  0  0  0  0  0  0  0  0  0  0
  1  2  1  0
  2  3  1  0
  3  4  2  0
  3  5  1  0
  5  6  1  0
  6  7  1  0
  7  8  1  0
  8  9  2  0
  9 10  1  0
 10 11  2  0
 11 12  1  0
 12 13  2  0
 12 14  2  0
 12 15  1  0
 15 16  1  0
 16 17  2  0
 17 18  1  0
 18 19  2  0
 19 20  1  0
 19 21  1  0
 21 22  2  0
 11 23  1  0
 23 24  2  0
 24  2  1  0
 24  8  1  0
 22 16  1  0
  1 25  1  0
  1 26  1  0
  1 27  1  0
  5 28  1  0
  5 29  1  0
  6 30  1  0
  6 31  1  0
  9 32  1  0
 10 33  1  0
 15 34  1  0
 17 35  1  0
 18 36  1  0
 21 37  1  0
 22 38  1  0
 23 39  1  0
M  END
>  <UniqueID>  (1) 
1

>  <SMILES>  (1) 
CN1C(=O)CCSc2ccc(S(=O)(=O)Nc3ccc(F)cc3)cc21

>  <Energy>  (1) 
58.871563474670324

>  <Genealogy>  (1) 
CN1C(=O)CCSc2ccc(S(=O)(=O)Nc3ccc(F)cc3)cc21 (3D coordinates assigned)
CN1C(=O)CCSc2ccc(S(=O)(=O)Nc3ccc(F)cc3)cc21 (nonaromatic ring conformer: 58.871563474670324 kcal/mol)

>  <smiles>  (1) 
CN1C(=O)CCSc2ccc(S(=O)(=O)Nc3ccc(F)cc3)cc21

>  <score_type>  (1) 
oracle

>  <origin>  (1) 
adgpu

>  <m_score__min__energy>  (1) 
-8.1199999999999992

>  <m_primary>  (1) 
energy

$$$$
1:0
     RDKit          3D

 64 68  0  0  0  0  0  0  0  0999 V2000
   -2.2290   26.5290  -24.9650 O   0  0  0  0  0  0  0  0  0  0  0  0
   -1.7240   25.5320  -25.5540 C   0  0  0  0  0  0  0  0  0  0  0  0
   -0.4790   24.8880  -25.0070 C   0  0  0  0  0  0  0  0  0  0  0  0
   -0.5050   23.3710  -25.2460 C   0  0  0  0  0  0  0  0  0  0  0  0
   -0.8860   23.0280  -26.6670 C   0  0  0  0  0  0  0  0  0  0  0  0
   -0.4320   21.8350  -27.2480 C   0  0  0  0  0  0  0  0  0  0  0  0
   -0.8610   21.4670  -28.5260 C   0  0  0  0  0  0  0  0  0  0  0  0
   -1.7590   22.2820  -29.2360 C   0  0  0  0  0  0  0  0  0  0  0  0
   -2.3870   21.7890  -30.8130 S   0  0  0  0  0  0  0  0  0  0  0  0
   -3.3550   20.6510  -30.6410 O   0  0  0  0  0  0  0  0  0  0  0  0
   -1.2580   21.3360  -31.7000 O   0  0  0  0  0  0  0  0  0  0  0  0
   -3.2110   23.1210  -31.5620 N   0  0  0  0  0  0  0  0  0  0  0  0
   -4.5520   23.4330  -31.2000 C   0  0  0  0  0  0  0  0  0  0  0  0
   -5.5510   22.4690  -31.3550 C   0  0  0  0  0  0  0  0  0  0  0  0
   -6.8740   22.7400  -30.9640 C   0  0  0  0  0  0  0  0  0  0  0  0
   -7.9320   21.7140  -31.1000 C   0  0  0  0  0  0  0  0  0  0  0  0
   -9.0500   21.9020  -30.5500 O   0  0  0  0  0  0  0  0  0  0  0  0
   -7.7060   20.4910  -31.8220 N   0  0  0  0  0  0  0  0  0  0  0  0
   -7.2990   20.5390  -33.2310 C   0  0  0  0  0  0  0  0  0  0  0  0
   -6.3600   19.3700  -33.5290 C   0  0  0  0  0  0  0  0  0  0  0  0
   -7.0050   17.9900  -33.2080 C   0  0  0  0  0  0  0  0  0  0  0  0
   -5.9310   17.0230  -32.6500 C   0  0  0  0  0  0  0  0  0  0  0  0
   -4.5730   17.2280  -33.2850 C   0  0  0  0  0  0  0  0  0  0  0  0
   -4.2110   16.5060  -34.4360 C   0  0  0  0  0  0  0  0  0  0  0  0
   -2.9560   16.6990  -35.0280 C   0  0  0  0  0  0  0  0  0  0  0  0
   -2.0660   17.6290  -34.4910 C   0  0  0  0  0  0  0  0  0  0  0  0
   -2.4190   18.3600  -33.3530 C   0  0  0  0  0  0  0  0  0  0  0  0
   -3.6670   18.1610  -32.7500 C   0  0  0  0  0  0  0  0  0  0  0  0
   -8.2370   18.1000  -32.2710 C   0  0  0  0  0  0  0  0  0  0  0  0
   -8.1050   19.2090  -31.2160 C   0  0  0  0  0  0  0  0  0  0  0  0
   -7.1710   23.9950  -30.4030 C   0  0  0  0  0  0  0  0  0  0  0  0
   -6.1720   24.9600  -30.2500 C   0  0  0  0  0  0  0  0  0  0  0  0
   -4.8640   24.6820  -30.6510 C   0  0  0  0  0  0  0  0  0  0  0  0
   -3.8740   25.6450  -30.4970 O   0  0  0  0  0  0  0  0  0  0  0  0
   -2.2110   23.4760  -28.6630 C   0  0  0  0  0  0  0  0  0  0  0  0
   -1.7970   23.8430  -27.3750 C   0  0  0  0  0  0  0  0  0  0  0  0
   -2.2980   25.0480  -26.7760 N   0  0  0  0  0  0  0  0  0  0  0  0
    0.4006   25.3179  -25.5085 H   0  0  0  0  0  0  0  0  0  0  0  0
   -0.4293   25.0755  -23.9242 H   0  0  0  0  0  0  0  0  0  0  0  0
    0.4945   22.9616  -25.0377 H   0  0  0  0  0  0  0  0  0  0  0  0
   -1.2613   22.9347  -24.5769 H   0  0  0  0  0  0  0  0  0  0  0  0
    0.2642   21.1867  -26.6958 H   0  0  0  0  0  0  0  0  0  0  0  0
   -0.4937   20.5342  -28.9787 H   0  0  0  0  0  0  0  0  0  0  0  0
   -5.3003   21.4889  -31.7869 H   0  0  0  0  0  0  0  0  0  0  0  0
   -8.1895   20.4671  -33.8728 H   0  0  0  0  0  0  0  0  0  0  0  0
   -6.7793   21.4876  -33.4310 H   0  0  0  0  0  0  0  0  0  0  0  0
   -6.0932   19.3950  -34.5959 H   0  0  0  0  0  0  0  0  0  0  0  0
   -5.4734   19.4817  -32.8875 H   0  0  0  0  0  0  0  0  0  0  0  0
   -7.3947   17.5760  -34.1497 H   0  0  0  0  0  0  0  0  0  0  0  0
   -5.8405   17.1856  -31.5659 H   0  0  0  0  0  0  0  0  0  0  0  0
   -6.2547   15.9977  -32.8824 H   0  0  0  0  0  0  0  0  0  0  0  0
   -4.9173   15.7855  -34.8742 H   0  0  0  0  0  0  0  0  0  0  0  0
   -2.6723   16.1166  -35.9170 H   0  0  0  0  0  0  0  0  0  0  0  0
   -1.0853   17.7874  -34.9635 H   0  0  0  0  0  0  0  0  0  0  0  0
   -1.7155   19.0925  -32.9306 H   0  0  0  0  0  0  0  0  0  0  0  0
   -3.9400   18.7372  -31.8536 H   0  0  0  0  0  0  0  0  0  0  0  0
   -9.1251   18.3078  -32.8859 H   0  0  0  0  0  0  0  0  0  0  0  0
   -8.3194   17.1458  -31.7300 H   0  0  0  0  0  0  0  0  0  0  0  0
   -9.0740   19.3390  -30.7119 H   0  0  0  0  0  0  0  0  0  0  0  0
   -7.3256   18.9104  -30.4995 H   0  0  0  0  0  0  0  0  0  0  0  0
   -8.1989   24.2190  -30.0818 H   0  0  0  0  0  0  0  0  0  0  0  0
   -6.4164   25.9395  -29.8132 H   0  0  0  0  0  0  0  0  0  0  0  0
   -2.8941   24.1293  -29.2257 H   0  0  0  0  0  0  0  0  0  0  0  0
   -3.0850   25.5790  -27.2320 H   0  0  0  0  0  0  0  0  0  0  0  0
  1  2  2  0
  2  3  1  0
  3  4  1  0
  4  5  1  0
  5  6  2  0
  6  7  1  0
  7  8  2  0
  8  9  1  0
  9 10  2  0
  9 11  2  0
  9 12  1  0
 12 13  1  0
 13 14  2  0
 14 15  1  0
 15 16  1  0
 16 17  2  0
 16 18  1  0
 18 19  1  0
 19 20  1  0
 20 21  1  0
 21 22  1  0
 22 23  1  0
 23 24  2  0
 24 25  1  0
 25 26  2  0
 26 27  1  0
 27 28  2  0
 21 29  1  0
 29 30  1  0
 15 31  2  0
 31 32  1  0
 32 33  2  0
 33 34  1  0
  8 35  1  0
 35 36  2  0
 36 37  1  0
 37  2  1  0
 36  5  1  0
 33 13  1  0
 30 18  1  0
 28 23  1  0
  3 38  1  0
  3 39  1  0
  4 40  1  0
  4 41  1  0
  6 42  1  0
  7 43  1  0
 14 44  1  0
 19 45  1  0
 19 46  1  0
 20 47  1  0
 20 48  1  0
 21 49  1  0
 22 50  1  0
 22 51  1  0
 24 52  1  0
 25 53  1  0
 26 54  1  0
 27 55  1  0
 28 56  1  0
 29 57  1  0
 29 58  1  0
 30 59  1  0
 30 60  1  0
 31 61  1  0
 32 62  1  0
 35 63  1  0
 37 64  1  0
M  CHG  2  12  -1  34  -1
M  END
>  <UniqueID>  (2) 
2

>  <SMILES>  (2) 
O=C1CCc2ccc(S(=O)(=O)[N-]c3cc(C(=O)N4CCC(Cc5ccccc5)CC4)ccc3[O-])cc2N1

>  <Energy>  (2) 
82.20446493929077

>  <Genealogy>  (2) 
O=C1CCc2ccc(S(=O)(=O)[N-]c3cc(C(=O)N4CCC(Cc5ccccc5)CC4)ccc3[O-])cc2N1 (protonated)
O=C1CCc2ccc(S(=O)(=O)[N-]c3cc(C(=O)N4CCC(Cc5ccccc5)CC4)ccc3[O-])cc2N1 (3D coordinates assigned)
O=C1CCc2ccc(S(=O)(=O)[N-]c3cc(C(=O)N4CCC(Cc5ccccc5)CC4)ccc3[O-])cc2N1 (nonaromatic ring conformer: 82.20446493929077 kcal/mol)

>  <smiles>  (2) 
O=C1CCc2ccc(S(=O)(=O)Nc3cc(C(=O)N4CCC(Cc5ccccc5)CC4)ccc3O)cc2N1

>  <score_type>  (2) 
oracle

>  <origin>  (2) 
adgpu

>  <m_score__min__energy>  (2) 
-15.4

>  <m_primary>  (2) 
energy

$$$$
2:0
     RDKit          3D

 73 77  0  0  0  0  0  0  0  0999 V2000
   -5.5100   25.9820  -31.0830 O   0  0  0  0  0  0  0  0  0  0  0  0
   -4.9370   25.0280  -30.4930 C   0  0  0  0  0  0  0  0  0  0  0  0
   -5.7460   24.0840  -29.6610 C   0  0  0  0  0  0  0  0  0  0  0  0
   -6.4210   23.0870  -30.5630 C   0  0  0  0  0  0  0  0  0  0  0  0
   -7.5920   23.4250  -31.2540 C   0  0  0  0  0  0  0  0  0  0  0  0
   -8.1650   22.5220  -32.1540 C   0  0  0  0  0  0  0  0  0  0  0  0
   -7.5580   21.2870  -32.3920 C   0  0  0  0  0  0  0  0  0  0  0  0
   -6.3780   20.9420  -31.7200 C   0  0  0  0  0  0  0  0  0  0  0  0
   -5.7060   19.7040  -31.9900 N   0  0  0  0  0  0  0  0  0  0  0  0
   -6.3780   18.4410  -31.8530 C   0  0  0  0  0  0  0  0  0  0  0  0
   -7.3270   18.3160  -31.0300 O   0  0  0  0  0  0  0  0  0  0  0  0
   -6.0130   17.3090  -32.7940 C   0  0  1  0  0  0  0  0  0  0  0  0
   -6.4420   17.5630  -34.2720 C   0  0  0  0  0  0  0  0  0  0  0  0
   -5.2600   17.8140  -35.2340 C   0  0  0  0  0  0  0  0  0  0  0  0
   -4.1660   18.6740  -34.5900 C   0  0  0  0  0  0  0  0  0  0  0  0
   -3.7450   18.1270  -33.2870 N   0  0  0  0  0  0  0  0  0  0  0  0
   -2.4370   18.4310  -32.7670 C   0  0  0  0  0  0  0  0  0  0  0  0
   -1.6320   17.4840  -32.5350 O   0  0  0  0  0  0  0  0  0  0  0  0
   -1.9920   19.8490  -32.4550 C   0  0  0  0  0  0  0  0  0  0  0  0
   -2.9030   20.6740  -31.5480 C   0  0  0  0  0  0  0  0  0  0  0  0
   -3.1070   21.6830  -32.6780 C   0  0  0  0  0  0  0  0  0  0  0  0
   -2.2140   20.8460  -33.5910 C   0  0  0  0  0  0  0  0  0  0  0  0
   -4.5050   17.0260  -32.6850 C   0  0  0  0  0  0  0  0  0  0  0  0
   -5.8260   21.8380  -30.7930 C   0  0  0  0  0  0  0  0  0  0  0  0
   -3.5080   24.9230  -30.4760 N   0  0  0  0  0  0  0  0  0  0  0  0
   -2.7190   24.2390  -29.4940 C   0  0  0  0  0  0  0  0  0  0  0  0
   -1.6850   24.9440  -28.8670 C   0  0  0  0  0  0  0  0  0  0  0  0
   -0.8420   24.3020  -27.9600 C   0  0  0  0  0  0  0  0  0  0  0  0
   -1.0200   22.9440  -27.6820 C   0  0  0  0  0  0  0  0  0  0  0  0
   -2.0590   22.2150  -28.2920 C   0  0  0  0  0  0  0  0  0  0  0  0
   -2.1900   20.7680  -27.9790 C   0  0  0  0  0  0  0  0  0  0  0  0
   -3.1840   20.3930  -27.2970 O   0  0  0  0  0  0  0  0  0  0  0  0
   -1.1650   19.8020  -28.2910 N   0  0  0  0  0  0  0  0  0  0  0  0
   -0.9170   18.6560  -27.4330 C   0  0  0  0  0  0  0  0  0  0  0  0
    0.3390   17.9960  -27.9730 C   0  0  0  0  0  0  0  0  0  0  0  0
    0.5580   18.5710  -29.3690 C   0  0  0  0  0  0  0  0  0  0  0  0
   -0.2780   19.8410  -29.4400 C   0  0  0  0  0  0  0  0  0  0  0  0
   -2.9410   22.8880  -29.1600 C   0  0  0  0  0  0  0  0  0  0  0  0
   -5.0865   23.5559  -28.9566 H   0  0  0  0  0  0  0  0  0  0  0  0
   -6.5046   24.6452  -29.0957 H   0  0  0  0  0  0  0  0  0  0  0  0
   -8.0625   24.4053  -31.0875 H   0  0  0  0  0  0  0  0  0  0  0  0
   -9.0967   22.7849  -32.6763 H   0  0  0  0  0  0  0  0  0  0  0  0
   -8.0073   20.5836  -33.1085 H   0  0  0  0  0  0  0  0  0  0  0  0
   -4.8810   19.7430  -32.6300 H   0  0  0  0  0  0  0  0  0  0  0  0
   -6.5818   16.4212  -32.4804 H   0  0  0  0  0  0  0  0  0  0  0  0
   -6.9966   16.6821  -34.6276 H   0  0  0  0  0  0  0  0  0  0  0  0
   -7.0538   18.4772  -34.2736 H   0  0  0  0  0  0  0  0  0  0  0  0
   -4.8259   16.8455  -35.5231 H   0  0  0  0  0  0  0  0  0  0  0  0
   -5.6452   18.3557  -36.1105 H   0  0  0  0  0  0  0  0  0  0  0  0
   -3.2956   18.7070  -35.2618 H   0  0  0  0  0  0  0  0  0  0  0  0
   -4.5724   19.6828  -34.4255 H   0  0  0  0  0  0  0  0  0  0  0  0
   -0.9796   19.5956  -32.1074 H   0  0  0  0  0  0  0  0  0  0  0  0
   -3.8212   20.1530  -31.2391 H   0  0  0  0  0  0  0  0  0  0  0  0
   -2.5536   21.0063  -30.5593 H   0  0  0  0  0  0  0  0  0  0  0  0
   -4.1483   21.7662  -33.0225 H   0  0  0  0  0  0  0  0  0  0  0  0
   -2.8919   22.7496  -32.5161 H   0  0  0  0  0  0  0  0  0  0  0  0
   -2.7334   20.4242  -34.4641 H   0  0  0  0  0  0  0  0  0  0  0  0
   -1.3570   21.3046  -34.1059 H   0  0  0  0  0  0  0  0  0  0  0  0
   -4.2706   16.0898  -33.2128 H   0  0  0  0  0  0  0  0  0  0  0  0
   -4.2298   16.9340  -31.6240 H   0  0  0  0  0  0  0  0  0  0  0  0
   -4.9169   21.5582  -30.2405 H   0  0  0  0  0  0  0  0  0  0  0  0
   -1.5364   26.0107  -29.0909 H   0  0  0  0  0  0  0  0  0  0  0  0
   -0.0374   24.8644  -27.4637 H   0  0  0  0  0  0  0  0  0  0  0  0
   -0.3411   22.4391  -26.9790 H   0  0  0  0  0  0  0  0  0  0  0  0
   -0.7613   18.9824  -26.3941 H   0  0  0  0  0  0  0  0  0  0  0  0
   -1.7696   17.9609  -27.4311 H   0  0  0  0  0  0  0  0  0  0  0  0
    1.1987   18.2269  -27.3267 H   0  0  0  0  0  0  0  0  0  0  0  0
    0.2343   16.9014  -28.0032 H   0  0  0  0  0  0  0  0  0  0  0  0
    1.6217   18.8054  -29.5225 H   0  0  0  0  0  0  0  0  0  0  0  0
    0.2645   17.8533  -30.1492 H   0  0  0  0  0  0  0  0  0  0  0  0
    0.3703   20.7283  -29.3922 H   0  0  0  0  0  0  0  0  0  0  0  0
   -0.8423   19.8993  -30.3824 H   0  0  0  0  0  0  0  0  0  0  0  0
   -3.8077   22.3561  -29.5794 H   0  0  0  0  0  0  0  0  0  0  0  0
  1  2  2  0
  2  3  1  0
  3  4  1  0
  4  5  2  0
  5  6  1  0
  6  7  2  0
  7  8  1  0
  8  9  1  0
  9 10  1  0
 10 11  2  0
 10 12  1  0
 12 13  1  0
 13 14  1  0
 14 15  1  0
 15 16  1  0
 16 17  1  0
 17 18  2  0
 17 19  1  0
 19 20  1  0
 20 21  1  0
 21 22  1  0
 16 23  1  0
  8 24  2  0
  2 25  1  0
 25 26  1  0
 26 27  2  0
 27 28  1  0
 28 29  2  0
 29 30  1  0
 30 31  1  0
 31 32  2  0
 31 33  1  0
 33 34  1  0
 34 35  1  0
 35 36  1  0
 36 37  1  0
 30 38  2  0
 24  4  1  0
 38 26  1  0
 23 12  1  0
 37 33  1  0
 22 19  1  0
  3 39  1  0
  3 40  1  0
  5 41  1  0
  6 42  1  0
  7 43  1  0
  9 44  1  0
 12 45  1  1
 13 46  1  0
 13 47  1  0
 14 48  1  0
 14 49  1  0
 15 50  1  0
 15 51  1  0
 19 52  1  0
 20 53  1  0
 20 54  1  0
 21 55  1  0
 21 56  1  0
 22 57  1  0
 22 58  1  0
 23 59  1  0
 23 60  1  0
 24 61  1  0
 27 62  1  0
 28 63  1  0
 29 64  1  0
 34 65  1  0
 34 66  1  0
 35 67  1  0
 35 68  1  0
 36 69  1  0
 36 70  1  0
 37 71  1  0
 37 72  1  0
 38 73  1  0
M  CHG  1  25  -1
M  END
>  <UniqueID>  (3) 
3

>  <SMILES>  (3) 
O=C(Cc1cccc(NC(=O)[C@H]2CCCN(C(=O)C3CCC3)C2)c1)[N-]c1cccc(C(=O)N2CCCC2)c1

>  <Energy>  (3) 
150.3935990497313

>  <Genealogy>  (3) 
O=C(Cc1cccc(NC(=O)C2CCCN(C(=O)C3CCC3)C2)c1)[N-]c1cccc(C(=O)N2CCCC2)c1 (protonated)
O=C(Cc1cccc(NC(=O)[C@H]2CCCN(C(=O)C3CCC3)C2)c1)[N-]c1cccc(C(=O)N2CCCC2)c1 (chirality)
O=C(Cc1cccc(NC(=O)[C@H]2CCCN(C(=O)C3CCC3)C2)c1)[N-]c1cccc(C(=O)N2CCCC2)c1 (3D coordinates assigned)
O=C(Cc1cccc(NC(=O)[C@H]2CCCN(C(=O)C3CCC3)C2)c1)[N-]c1cccc(C(=O)N2CCCC2)c1 (nonaromatic ring conformer: 150.3935990497313 kcal/mol)

>  <smiles>  (3) 
O=C(Cc1cccc(NC(=O)C2CCCN(C(=O)C3CCC3)C2)c1)Nc1cccc(C(=O)N2CCCC2)c1

>  <score_type>  (3) 
oracle

>  <origin>  (3) 
adgpu

>  <m_score__min__energy>  (3) 
-12.529999999999999

>  <m_primary>  (3) 
energy

$$$$
3:0
     RDKit          3D

 56 59  0  0  0  0  0  0  0  0999 V2000
   -3.6110   24.5340  -27.1480 C   0  0  0  0  0  0  0  0  0  0  0  0
   -3.9540   23.7400  -28.3720 C   0  0  0  0  0  0  0  0  0  0  0  0
   -3.4630   22.4360  -28.5250 C   0  0  0  0  0  0  0  0  0  0  0  0
   -3.8100   21.6790  -29.6470 C   0  0  0  0  0  0  0  0  0  0  0  0
   -4.6600   22.2140  -30.6250 C   0  0  0  0  0  0  0  0  0  0  0  0
   -5.1080   21.2410  -32.0250 S   0  0  0  0  0  0  0  0  0  0  0  0
   -4.4360   19.9030  -31.8860 O   0  0  0  0  0  0  0  0  0  0  0  0
   -4.6210   21.9030  -33.2840 O   0  0  0  0  0  0  0  0  0  0  0  0
   -6.8680   21.0470  -32.1120 C   0  0  0  0  0  0  0  0  0  0  0  0
   -7.6940   22.0800  -31.6370 C   0  0  0  0  0  0  0  0  0  0  0  0
   -9.0840   21.9500  -31.6740 C   0  0  0  0  0  0  0  0  0  0  0  0
   -9.6670   20.7920  -32.1870 C   0  0  0  0  0  0  0  0  0  0  0  0
   -8.8590   19.7620  -32.6730 C   0  0  0  0  0  0  0  0  0  0  0  0
   -7.4610   19.8810  -32.6490 C   0  0  0  0  0  0  0  0  0  0  0  0
   -6.6660   18.8170  -33.1940 N   0  0  0  0  0  0  0  0  0  0  0  0
   -6.6550   17.4990  -32.5560 C   0  0  0  0  0  0  0  0  0  0  0  0
   -5.2100   16.9980  -32.4070 C   0  0  0  0  0  0  0  0  0  0  0  0
   -4.3580   17.2250  -33.6120 N   0  0  0  0  0  0  0  0  0  0  0  0
   -3.5720   15.7410  -34.0980 S   0  0  0  0  0  0  0  0  0  0  0  0
   -3.7270   15.5440  -35.5820 O   0  0  0  0  0  0  0  0  0  0  0  0
   -2.1030   15.8020  -33.7750 O   0  0  0  0  0  0  0  0  0  0  0  0
   -4.2850   14.3830  -33.2290 C   0  0  0  0  0  0  0  0  0  0  0  0
   -3.8150   14.0560  -31.9490 C   0  0  0  0  0  0  0  0  0  0  0  0
   -4.3640   12.9740  -31.2540 C   0  0  0  0  0  0  0  0  0  0  0  0
   -5.3900   12.2190  -31.8320 C   0  0  0  0  0  0  0  0  0  0  0  0
   -5.8690   12.5490  -33.1050 C   0  0  0  0  0  0  0  0  0  0  0  0
   -5.3190   13.6290  -33.8030 C   0  0  0  0  0  0  0  0  0  0  0  0
   -5.0740   17.7990  -34.7710 C   0  0  0  0  0  0  0  0  0  0  0  0
   -5.8270   19.0710  -34.3660 C   0  0  0  0  0  0  0  0  0  0  0  0
   -5.1730   23.5070  -30.4620 C   0  0  0  0  0  0  0  0  0  0  0  0
   -4.8250   24.2640  -29.3390 C   0  0  0  0  0  0  0  0  0  0  0  0
   -3.8630   23.9507  -26.2501 H   0  0  0  0  0  0  0  0  0  0  0  0
   -2.5346   24.7608  -27.1478 H   0  0  0  0  0  0  0  0  0  0  0  0
   -4.1836   25.4732  -27.1478 H   0  0  0  0  0  0  0  0  0  0  0  0
   -2.8014   22.0067  -27.7582 H   0  0  0  0  0  0  0  0  0  0  0  0
   -3.4146   20.6591  -29.7634 H   0  0  0  0  0  0  0  0  0  0  0  0
   -7.2422   22.9980  -31.2330 H   0  0  0  0  0  0  0  0  0  0  0  0
   -9.7209   22.7638  -31.2972 H   0  0  0  0  0  0  0  0  0  0  0  0
  -10.7620   20.6899  -32.2089 H   0  0  0  0  0  0  0  0  0  0  0  0
   -9.3221   18.8501  -33.0779 H   0  0  0  0  0  0  0  0  0  0  0  0
   -7.1194   17.5720  -31.5615 H   0  0  0  0  0  0  0  0  0  0  0  0
   -7.2194   16.7912  -33.1808 H   0  0  0  0  0  0  0  0  0  0  0  0
   -4.7496   17.5201  -31.5553 H   0  0  0  0  0  0  0  0  0  0  0  0
   -5.2657   15.9094  -32.2588 H   0  0  0  0  0  0  0  0  0  0  0  0
   -3.5920   17.8910  -33.3520 H   0  0  0  0  0  0  0  0  0  0  0  0
   -3.0123   14.6522  -31.4904 H   0  0  0  0  0  0  0  0  0  0  0  0
   -3.9890   12.7164  -30.2525 H   0  0  0  0  0  0  0  0  0  0  0  0
   -5.8202   11.3663  -31.2862 H   0  0  0  0  0  0  0  0  0  0  0  0
   -6.6792   11.9581  -33.5572 H   0  0  0  0  0  0  0  0  0  0  0  0
   -5.6977   13.8873  -34.8030 H   0  0  0  0  0  0  0  0  0  0  0  0
   -4.3470   18.0450  -35.5590 H   0  0  0  0  0  0  0  0  0  0  0  0
   -5.8005   17.0599  -35.1397 H   0  0  0  0  0  0  0  0  0  0  0  0
   -5.1004   19.8615  -34.1269 H   0  0  0  0  0  0  0  0  0  0  0  0
   -6.4685   19.3868  -35.2019 H   0  0  0  0  0  0  0  0  0  0  0  0
   -5.8511   23.9279  -31.2190 H   0  0  0  0  0  0  0  0  0  0  0  0
   -5.2366   25.2763  -29.2130 H   0  0  0  0  0  0  0  0  0  0  0  0
  1  2  1  0
  2  3  2  0
  3  4  1  0
  4  5  2  0
  5  6  1  0
  6  7  2  0
  6  8  2  0
  6  9  1  0
  9 10  2  0
 10 11  1  0
 11 12  2  0
 12 13  1  0
 13 14  2  0
 14 15  1  0
 15 16  1  0
 16 17  1  0
 17 18  1  0
 18 19  1  0
 19 20  2  0
 19 21  2  0
 19 22  1  0
 22 23  2  0
 23 24  1  0
 24 25  2  0
 25 26  1  0
 26 27  2  0
 18 28  1  0
 28 29  1  0
  5 30  1  0
 30 31  2  0
 31  2  1  0
 14  9  1  0
 29 15  1  0
 27 22  1  0
  1 32  1  0
  1 33  1  0
  1 34  1  0
  3 35  1  0
  4 36  1  0
 10 37  1  0
 11 38  1  0
 12 39  1  0
 13 40  1  0
 16 41  1  0
 16 42  1  0
 17 43  1  0
 17 44  1  0
 18 45  1  0
 23 46  1  0
 24 47  1  0
 25 48  1  0
 26 49  1  0
 27 50  1  0
 28 51  1  0
 28 52  1  0
 29 53  1  0
 29 54  1  0
 30 55  1  0
 31 56  1  0
M  CHG  1  18   1
M  END
>  <UniqueID>  (4) 
4

>  <SMILES>  (4) 
Cc1ccc(S(=O)(=O)c2ccccc2N2CC[NH+](S(=O)(=O)c3ccccc3)CC2)cc1

>  <Energy>  (4) 
71.72721591616862

>  <Genealogy>  (4) 
Cc1ccc(S(=O)(=O)c2ccccc2N2CC[NH+](S(=O)(=O)c3ccccc3)CC2)cc1 (protonated)
Cc1ccc(S(=O)(=O)c2ccccc2N2CC[NH+](S(=O)(=O)c3ccccc3)CC2)cc1 (3D coordinates assigned)
Cc1ccc(S(=O)(=O)c2ccccc2N2CC[NH+](S(=O)(=O)c3ccccc3)CC2)cc1 (nonaromatic ring conformer: 71.72721591616862 kcal/mol)

>  <smiles>  (4) 
Cc1ccc(S(=O)(=O)c2ccccc2N2CCN(S(=O)(=O)c3ccccc3)CC2)cc1

>  <score_type>  (4) 
oracle

>  <origin>  (4) 
adgpu

>  <m_score__min__energy>  (4) 
-9.2300000000000004

>  <m_primary>  (4) 
energy

$$$$
4:0
     RDKit          3D

 57 61  0  0  0  0  0  0  0  0999 V2000
   -0.0780   20.9980  -35.4430 C   0  0  0  0  0  0  0  0  0  0  0  0
    0.2770   20.7840  -34.0300 N   0  0  0  0  0  0  0  0  0  0  0  0
   -0.5980   21.5310  -33.1060 C   0  0  0  0  0  0  0  0  0  0  0  0
   -2.0540   21.0380  -33.1430 C   0  0  0  0  0  0  0  0  0  0  0  0
   -2.1580   19.5360  -33.1900 C   0  0  0  0  0  0  0  0  0  0  0  0
   -3.4110   18.9340  -33.0050 C   0  0  0  0  0  0  0  0  0  0  0  0
   -3.5650   17.5380  -33.0950 C   0  0  0  0  0  0  0  0  0  0  0  0
   -4.8540   16.9110  -32.9470 N   0  0  0  0  0  0  0  0  0  0  0  0
   -6.2620   17.3310  -33.8720 S   0  0  0  0  0  0  0  0  0  0  0  0
   -7.2370   16.1880  -33.8220 O   0  0  0  0  0  0  0  0  0  0  0  0
   -5.8920   17.5610  -35.3110 O   0  0  0  0  0  0  0  0  0  0  0  0
   -7.0300   18.7560  -33.1810 C   0  0  0  0  0  0  0  0  0  0  0  0
   -8.3570   18.6720  -32.7070 C   0  0  0  0  0  0  0  0  0  0  0  0
   -8.9850   19.7980  -32.1510 C   0  0  0  0  0  0  0  0  0  0  0  0
   -8.2600   20.9850  -32.0630 C   0  0  0  0  0  0  0  0  0  0  0  0
   -6.9740   21.0680  -32.5050 C   0  0  0  0  0  0  0  0  0  0  0  0
   -6.3290   19.9740  -33.0820 C   0  0  0  0  0  0  0  0  0  0  0  0
   -6.4450   22.4290  -32.2640 C   0  0  0  0  0  0  0  0  0  0  0  0
   -7.4400   23.0780  -31.3770 N   0  0  0  0  0  0  0  0  0  0  0  0
   -6.9770   23.1900  -29.9690 C   0  0  0  0  0  0  0  0  0  0  0  0
   -5.5680   23.7390  -29.8040 C   0  0  0  0  0  0  0  0  0  0  0  0
   -4.6800   23.1790  -28.8710 C   0  0  0  0  0  0  0  0  0  0  0  0
   -3.4000   23.7100  -28.7150 C   0  0  0  0  0  0  0  0  0  0  0  0
   -3.0040   24.7910  -29.5000 C   0  0  0  0  0  0  0  0  0  0  0  0
   -1.8560   25.2890  -29.3610 O   0  0  0  0  0  0  0  0  0  0  0  0
   -3.8560   25.3030  -30.4270 N   0  0  0  0  0  0  0  0  0  0  0  0
   -5.1070   24.8010  -30.6040 C   0  0  0  0  0  0  0  0  0  0  0  0
   -8.6890   22.2890  -31.5130 C   0  0  0  0  0  0  0  0  0  0  0  0
   -2.4350   16.7490  -33.3760 C   0  0  0  0  0  0  0  0  0  0  0  0
   -2.5430   15.3650  -33.4590 O   0  0  0  0  0  0  0  0  0  0  0  0
   -1.1860   17.3450  -33.5720 C   0  0  0  0  0  0  0  0  0  0  0  0
   -1.0420   18.7370  -33.5070 C   0  0  0  0  0  0  0  0  0  0  0  0
    0.3290   19.3510  -33.6820 C   0  0  0  0  0  0  0  0  0  0  0  0
   -1.0187   21.5650  -35.5029 H   0  0  0  0  0  0  0  0  0  0  0  0
    0.7234   21.5636  -35.9408 H   0  0  0  0  0  0  0  0  0  0  0  0
   -0.2039   20.0252  -35.9408 H   0  0  0  0  0  0  0  0  0  0  0  0
   -0.2120   21.4135  -32.0827 H   0  0  0  0  0  0  0  0  0  0  0  0
   -0.5946   22.5846  -33.4220 H   0  0  0  0  0  0  0  0  0  0  0  0
   -2.5707   21.3985  -32.2413 H   0  0  0  0  0  0  0  0  0  0  0  0
   -2.5150   21.4319  -34.0608 H   0  0  0  0  0  0  0  0  0  0  0  0
   -4.2868   19.5625  -32.7862 H   0  0  0  0  0  0  0  0  0  0  0  0
   -5.0020   16.2270  -32.1710 H   0  0  0  0  0  0  0  0  0  0  0  0
   -8.9022   17.7189  -32.7736 H   0  0  0  0  0  0  0  0  0  0  0  0
  -10.0239   19.7446  -31.7936 H   0  0  0  0  0  0  0  0  0  0  0  0
   -5.2965   20.0604  -33.4513 H   0  0  0  0  0  0  0  0  0  0  0  0
   -5.4625   22.3800  -31.7717 H   0  0  0  0  0  0  0  0  0  0  0  0
   -6.3013   22.9875  -33.2007 H   0  0  0  0  0  0  0  0  0  0  0  0
   -7.6690   23.8561  -29.4329 H   0  0  0  0  0  0  0  0  0  0  0  0
   -6.9605   22.1668  -29.5655 H   0  0  0  0  0  0  0  0  0  0  0  0
   -4.9951   22.3191  -28.2616 H   0  0  0  0  0  0  0  0  0  0  0  0
   -2.7076   23.2784  -27.9772 H   0  0  0  0  0  0  0  0  0  0  0  0
   -5.7628   25.2276  -31.3773 H   0  0  0  0  0  0  0  0  0  0  0  0
   -9.1707   22.1557  -30.5331 H   0  0  0  0  0  0  0  0  0  0  0  0
   -9.4248   22.7885  -32.1603 H   0  0  0  0  0  0  0  0  0  0  0  0
   -0.3081   16.7154  -33.7792 H   0  0  0  0  0  0  0  0  0  0  0  0
    0.8865   19.2386  -32.7404 H   0  0  0  0  0  0  0  0  0  0  0  0
    0.8211   18.8271  -34.5146 H   0  0  0  0  0  0  0  0  0  0  0  0
  1  2  1  0
  2  3  1  0
  3  4  1  0
  4  5  1  0
  5  6  2  0
  6  7  1  0
  7  8  1  0
  8  9  1  0
  9 10  2  0
  9 11  2  0
  9 12  1  0
 12 13  2  0
 13 14  1  0
 14 15  2  0
 15 16  1  0
 16 17  2  0
 16 18  1  0
 18 19  1  0
 19 20  1  0
 20 21  1  0
 21 22  1  0
 22 23  2  0
 23 24  1  0
 24 25  2  0
 24 26  1  0
 26 27  1  0
 19 28  1  0
  7 29  2  0
 29 30  1  0
 29 31  1  0
 31 32  2  0
 32 33  1  0
 33  2  1  0
 32  5  1  0
 17 12  1  0
 27 21  2  0
 28 15  1  0
  1 34  1  0
  1 35  1  0
  1 36  1  0
  3 37  1  0
  3 38  1  0
  4 39  1  0
  4 40  1  0
  6 41  1  0
  8 42  1  0
 13 43  1  0
 14 44  1  0
 17 45  1  0
 18 46  1  0
 18 47  1  0
 20 48  1  0
 20 49  1  0
 22 50  1  0
 23 51  1  0
 27 52  1  0
 28 53  1  0
 28 54  1  0
 31 55  1  0
 33 56  1  0
 33 57  1  0
M  CHG  2  26  -1  30  -1
M  END
>  <UniqueID>  (5) 
5

>  <SMILES>  (5) 
CN1CCc2cc(NS(=O)(=O)c3ccc4c(c3)CN(Cc3ccc(=O)[n-]c3)C4)c([O-])cc2C1

>  <Energy>  (5) 
84.26378765173915

>  <Genealogy>  (5) 
CN1CCc2cc(NS(=O)(=O)c3ccc4c(c3)CN(Cc3ccc(=O)[n-]c3)C4)c([O-])cc2C1 (protonated)
CN1CCc2cc(NS(=O)(=O)c3ccc4c(c3)CN(Cc3ccc(=O)[n-]c3)C4)c([O-])cc2C1 (3D coordinates assigned)
CN1CCc2cc(NS(=O)(=O)c3ccc4c(c3)CN(Cc3ccc(=O)[n-]c3)C4)c([O-])cc2C1 (nonaromatic ring conformer: 84.26378765173915 kcal/mol)

>  <smiles>  (5) 
CN1CCc2cc(NS(=O)(=O)c3ccc4c(c3)CN(Cc3ccc(=O)[nH]c3)C4)c(O)cc2C1

>  <score_type>  (5) 
oracle

>  <origin>  (5) 
adgpu

>  <m_score__min__energy>  (5) 
-13.56

>  <m_primary>  (5) 
energy

$$$$
5:0
     RDKit          3D

 35 36  0  0  0  0  0  0  0  0999 V2000
   -5.9190   15.4200  -34.1560 C   0  0  0  0  0  0  0  0  0  0  0  0
   -6.1380   16.7650  -34.5650 O   0  0  0  0  0  0  0  0  0  0  0  0
   -6.4530   17.8170  -33.6910 C   0  0  0  0  0  0  0  0  0  0  0  0
   -7.0600   17.6030  -32.4390 C   0  0  0  0  0  0  0  0  0  0  0  0
   -7.3560   18.6840  -31.6050 C   0  0  0  0  0  0  0  0  0  0  0  0
   -7.0520   19.9950  -32.0070 C   0  0  0  0  0  0  0  0  0  0  0  0
   -7.4050   21.1650  -31.1290 C   0  0  0  0  0  0  0  0  0  0  0  0
   -7.1100   22.7520  -31.9880 S   0  0  0  0  0  0  0  0  0  0  0  0
   -5.4170   22.9360  -31.4150 C   0  0  0  0  0  0  0  0  0  0  0  0
   -4.1770   21.8500  -31.7570 S   0  0  0  0  0  0  0  0  0  0  0  0
   -2.9770   22.7110  -30.9560 C   0  0  0  0  0  0  0  0  0  0  0  0
   -1.5980   22.3130  -30.8750 C   0  0  0  0  0  0  0  0  0  0  0  0
   -0.4880   21.9920  -30.8100 N   0  0  0  0  0  0  0  0  0  0  0  0
   -3.5340   23.8490  -30.3840 C   0  0  0  0  0  0  0  0  0  0  0  0
   -2.7460   24.8080  -29.6660 N   0  0  0  0  0  0  0  0  0  0  0  0
   -1.8170   24.5020  -28.6180 C   0  0  0  0  0  0  0  0  0  0  0  0
   -2.1960   23.6480  -27.4460 C   0  0  0  0  0  0  0  0  0  0  0  0
   -0.6380   24.9330  -28.7030 O   0  0  0  0  0  0  0  0  0  0  0  0
   -4.9090   23.9870  -30.6550 C   0  0  0  0  0  0  0  0  0  0  0  0
   -5.6960   25.1370  -30.2880 C   0  0  0  0  0  0  0  0  0  0  0  0
   -6.3280   26.0620  -29.9980 N   0  0  0  0  0  0  0  0  0  0  0  0
   -6.4450   20.2070  -33.2550 C   0  0  0  0  0  0  0  0  0  0  0  0
   -6.1480   19.1250  -34.0870 C   0  0  0  0  0  0  0  0  0  0  0  0
   -5.9105   15.3676  -33.0573 H   0  0  0  0  0  0  0  0  0  0  0  0
   -6.7251   14.7819  -34.5473 H   0  0  0  0  0  0  0  0  0  0  0  0
   -4.9521   15.0706  -34.5473 H   0  0  0  0  0  0  0  0  0  0  0  0
   -7.3024   16.5799  -32.1159 H   0  0  0  0  0  0  0  0  0  0  0  0
   -7.8298   18.5074  -30.6281 H   0  0  0  0  0  0  0  0  0  0  0  0
   -8.4679   21.0987  -30.8536 H   0  0  0  0  0  0  0  0  0  0  0  0
   -6.7682   21.1314  -30.2327 H   0  0  0  0  0  0  0  0  0  0  0  0
   -1.9598   24.1803  -26.5128 H   0  0  0  0  0  0  0  0  0  0  0  0
   -3.2741   23.4328  -27.4825 H   0  0  0  0  0  0  0  0  0  0  0  0
   -1.6323   22.7041  -27.4825 H   0  0  0  0  0  0  0  0  0  0  0  0
   -6.2022   21.2297  -33.5791 H   0  0  0  0  0  0  0  0  0  0  0  0
   -5.6703   19.3020  -35.0619 H   0  0  0  0  0  0  0  0  0  0  0  0
  1  2  1  0
  2  3  1  0
  3  4  2  0
  4  5  1  0
  5  6  2  0
  6  7  1  0
  7  8  1  0
  8  9  1  0
  9 10  1  0
 10 11  1  0
 11 12  1  0
 12 13  3  0
 11 14  2  0
 14 15  1  0
 15 16  1  0
 16 17  1  0
 16 18  2  0
 14 19  1  0
 19 20  1  0
 20 21  3  0
  6 22  1  0
 22 23  2  0
 23  3  1  0
 19  9  2  0
  1 24  1  0
  1 25  1  0
  1 26  1  0
  4 27  1  0
  5 28  1  0
  7 29  1  0
  7 30  1  0
 17 31  1  0
 17 32  1  0
 17 33  1  0
 22 34  1  0
 23 35  1  0
M  CHG  1  15  -1
M  END
>  <UniqueID>  (6) 
6

>  <SMILES>  (6) 
COc1ccc(CSc2sc(C#N)c([N-]C(C)=O)c2C#N)cc1

>  <Energy>  (6) 
59.799940785075975

>  <Genealogy>  (6) 
COc1ccc(CSc2sc(C#N)c([N-]C(C)=O)c2C#N)cc1 (protonated)
COc1ccc(CSc2sc(C#N)c([N-]C(C)=O)c2C#N)cc1 (3D coordinates assigned)
COc1ccc(CSc2sc(C#N)c([N-]C(C)=O)c2C#N)cc1 (optimized conformer: 59.799940785075975 kcal/mol)

>  <smiles>  (6) 
COc1ccc(CSc2sc(C#N)c(NC(C)=O)c2C#N)cc1

>  <score_type>  (6) 
oracle

>  <origin>  (6) 
adgpu

>  <m_score__min__energy>  (6) 
-10.09

>  <m_primary>  (6) 
energy

$$$$
6:0
     RDKit          3D

 43 45  0  0  0  0  0  0  0  0999 V2000
   -7.1170   21.0240  -32.6210 C   0  0  0  0  0  0  0  0  0  0  0  0
   -7.7320   22.3430  -31.6010 S   0  0  0  0  0  0  0  0  0  0  0  0
   -8.7930   21.8130  -30.6780 O   0  0  0  0  0  0  0  0  0  0  0  0
   -8.3380   23.4100  -32.4710 O   0  0  0  0  0  0  0  0  0  0  0  0
   -6.4070   23.0230  -30.6610 C   0  0  0  0  0  0  0  0  0  0  0  0
   -5.2220   22.2960  -30.4880 C   0  0  0  0  0  0  0  0  0  0  0  0
   -4.1640   22.8420  -29.7550 C   0  0  0  0  0  0  0  0  0  0  0  0
   -4.2810   24.1140  -29.1770 C   0  0  0  0  0  0  0  0  0  0  0  0
   -3.1690   24.6590  -28.4480 N   0  0  0  0  0  0  0  0  0  0  0  0
   -3.1610   24.8650  -27.0260 C   0  0  0  0  0  0  0  0  0  0  0  0
   -4.2030   24.6730  -26.3430 O   0  0  0  0  0  0  0  0  0  0  0  0
   -1.9430   25.3300  -26.3430 C   0  0  0  0  0  0  0  0  0  0  0  0
   -1.9600   26.2150  -24.9130 S   0  0  0  0  0  0  0  0  0  0  0  0
   -0.2950   26.3680  -24.7550 C   0  0  0  0  0  0  0  0  0  0  0  0
    0.3030   25.7080  -25.8200 C   0  0  0  0  0  0  0  0  0  0  0  0
   -0.6090   25.1150  -26.7070 C   0  0  0  0  0  0  0  0  0  0  0  0
   -0.0720   24.1040  -28.0490 S   0  0  0  0  0  0  0  0  0  0  0  0
    1.4220   24.2090  -28.1910 O   0  0  0  0  0  0  0  0  0  0  0  0
   -0.7180   24.5440  -29.3330 O   0  0  0  0  0  0  0  0  0  0  0  0
   -0.5340   22.4300  -27.7500 C   0  0  0  0  0  0  0  0  0  0  0  0
   -1.2250   22.0780  -26.5820 C   0  0  0  0  0  0  0  0  0  0  0  0
   -1.6040   20.7490  -26.3640 C   0  0  0  0  0  0  0  0  0  0  0  0
   -1.2980   19.7680  -27.3120 C   0  0  0  0  0  0  0  0  0  0  0  0
   -0.6140   20.1150  -28.4840 C   0  0  0  0  0  0  0  0  0  0  0  0
   -0.3040   19.1070  -29.4640 C   0  0  0  0  0  0  0  0  0  0  0  0
   -0.0550   18.2960  -30.2510 N   0  0  0  0  0  0  0  0  0  0  0  0
   -0.2330   21.4450  -28.7020 C   0  0  0  0  0  0  0  0  0  0  0  0
   -5.4600   24.8530  -29.3810 C   0  0  0  0  0  0  0  0  0  0  0  0
   -6.5170   24.3070  -30.1140 C   0  0  0  0  0  0  0  0  0  0  0  0
   -6.7386   20.2124  -31.9822 H   0  0  0  0  0  0  0  0  0  0  0  0
   -7.9299   20.6421  -33.2561 H   0  0  0  0  0  0  0  0  0  0  0  0
   -6.3019   21.4011  -33.2561 H   0  0  0  0  0  0  0  0  0  0  0  0
   -5.1237   21.2934  -30.9298 H   0  0  0  0  0  0  0  0  0  0  0  0
   -3.2330   22.2694  -29.6309 H   0  0  0  0  0  0  0  0  0  0  0  0
   -2.2890   24.8350  -28.9800 H   0  0  0  0  0  0  0  0  0  0  0  0
    0.2306   26.8991  -23.9477 H   0  0  0  0  0  0  0  0  0  0  0  0
    1.3932   25.6546  -25.9564 H   0  0  0  0  0  0  0  0  0  0  0  0
   -1.4696   22.8481  -25.8356 H   0  0  0  0  0  0  0  0  0  0  0  0
   -2.1436   20.4755  -25.4453 H   0  0  0  0  0  0  0  0  0  0  0  0
   -1.5945   18.7232  -27.1374 H   0  0  0  0  0  0  0  0  0  0  0  0
    0.3039   21.7178  -29.6225 H   0  0  0  0  0  0  0  0  0  0  0  0
   -5.5506   25.8658  -28.9615 H   0  0  0  0  0  0  0  0  0  0  0  0
   -7.4391   24.8883  -30.2618 H   0  0  0  0  0  0  0  0  0  0  0  0
  1  2  1  0
  2  3  2  0
  2  4  2  0
  2  5  1  0
  5  6  2  0
  6  7  1  0
  7  8  2  0
  8  9  1  0
  9 10  1  0
 10 11  2  0
 10 12  1  0
 12 13  1  0
 13 14  1  0
 14 15  2  0
 15 16  1  0
 16 17  1  0
 17 18  2  0
 17 19  2  0
 17 20  1  0
 20 21  2  0
 21 22  1  0
 22 23  2  0
 23 24  1  0
 24 25  1  0
 25 26  3  0
 24 27  2  0
  8 28  1  0
 28 29  2  0
 29  5  1  0
 16 12  2  0
 27 20  1  0
  1 30  1  0
  1 31  1  0
  1 32  1  0
  6 33  1  0
  7 34  1  0
  9 35  1  0
 14 36  1  0
 15 37  1  0
 21 38  1  0
 22 39  1  0
 23 40  1  0
 27 41  1  0
 28 42  1  0
 29 43  1  0
M  END
>  <UniqueID>  (7) 
7

>  <SMILES>  (7) 
CS(=O)(=O)c1ccc(NC(=O)c2sccc2S(=O)(=O)c2cccc(C#N)c2)cc1

>  <Energy>  (7) 
77.96149572593036

>  <Genealogy>  (7) 
CS(=O)(=O)c1ccc(NC(=O)c2sccc2S(=O)(=O)c2cccc(C#N)c2)cc1 (3D coordinates assigned)
CS(=O)(=O)c1ccc(NC(=O)c2sccc2S(=O)(=O)c2cccc(C#N)c2)cc1 (optimized conformer: 77.96149572593036 kcal/mol)

>  <smiles>  (7) 
CS(=O)(=O)c1ccc(NC(=O)c2sccc2S(=O)(=O)c2cccc(C#N)c2)cc1

>  <score_type>  (7) 
oracle

>  <origin>  (7) 
adgpu

>  <m_score__min__energy>  (7) 
-10.58

>  <m_primary>  (7) 
energy

$$$$
7:0
     RDKit          3D

 53 56  0  0  0  0  0  0  0  0999 V2000
   -5.5700   26.4180  -30.2930 O   0  0  0  0  0  0  0  0  0  0  0  0
   -5.2280   25.2430  -30.6010 C   0  0  0  0  0  0  0  0  0  0  0  0
   -3.8390   24.9280  -30.7670 N   0  0  0  0  0  0  0  0  0  0  0  0
   -3.3000   23.6040  -30.6840 C   0  0  0  0  0  0  0  0  0  0  0  0
   -3.6470   22.6800  -31.6760 C   0  0  0  0  0  0  0  0  0  0  0  0
   -3.1040   21.3910  -31.6720 C   0  0  0  0  0  0  0  0  0  0  0  0
   -3.5240   20.2630  -32.9610 S   0  0  0  0  0  0  0  0  0  0  0  0
   -3.1900   18.8710  -32.5010 O   0  0  0  0  0  0  0  0  0  0  0  0
   -2.7200   20.5680  -34.1940 O   0  0  0  0  0  0  0  0  0  0  0  0
   -5.2350   20.3770  -33.3110 N   0  0  0  0  0  0  0  0  0  0  0  0
   -6.0350   20.2150  -32.0910 C   0  0  0  0  0  0  0  0  0  0  0  0
   -6.4150   18.7440  -31.9790 C   0  0  0  0  0  0  0  0  0  0  0  0
   -6.1720   18.1530  -33.3560 C   0  0  0  0  0  0  0  0  0  0  0  0
   -5.6650   19.3030  -34.2150 C   0  0  0  0  0  0  0  0  0  0  0  0
   -2.2110   21.0190  -30.6600 C   0  0  0  0  0  0  0  0  0  0  0  0
   -1.8830   21.9220  -29.6460 C   0  0  0  0  0  0  0  0  0  0  0  0
   -2.4350   23.2130  -29.6350 C   0  0  0  0  0  0  0  0  0  0  0  0
   -2.1720   24.0840  -28.5220 N   0  0  0  0  0  0  0  0  0  0  0  0
   -0.9920   24.9260  -28.4360 C   0  0  0  0  0  0  0  0  0  0  0  0
   -1.2610   25.8910  -27.2890 C   0  0  0  0  0  0  0  0  0  0  0  0
   -2.4360   25.3010  -26.5140 C   0  0  0  0  0  0  0  0  0  0  0  0
   -3.1530   24.3830  -27.4930 C   0  0  0  0  0  0  0  0  0  0  0  0
   -6.2600   24.2020  -30.8080 C   0  0  0  0  0  0  0  0  0  0  0  0
   -6.8140   23.9860  -32.0850 C   0  0  0  0  0  0  0  0  0  0  0  0
   -7.7800   22.9950  -32.2790 C   0  0  0  0  0  0  0  0  0  0  0  0
   -8.2030   22.2070  -31.2050 C   0  0  0  0  0  0  0  0  0  0  0  0
   -7.6600   22.4100  -29.9350 C   0  0  0  0  0  0  0  0  0  0  0  0
   -6.6930   23.4010  -29.7350 C   0  0  0  0  0  0  0  0  0  0  0  0
   -4.3541   22.9704  -32.4670 H   0  0  0  0  0  0  0  0  0  0  0  0
   -5.4220   21.3110  -33.7440 H   0  0  0  0  0  0  0  0  0  0  0  0
   -5.4452   20.5176  -31.2132 H   0  0  0  0  0  0  0  0  0  0  0  0
   -6.9365   20.8438  -32.1348 H   0  0  0  0  0  0  0  0  0  0  0  0
   -5.7866   18.2412  -31.2291 H   0  0  0  0  0  0  0  0  0  0  0  0
   -7.4602   18.6170  -31.6605 H   0  0  0  0  0  0  0  0  0  0  0  0
   -5.4186   17.3533  -33.3025 H   0  0  0  0  0  0  0  0  0  0  0  0
   -7.0870   17.7075  -33.7735 H   0  0  0  0  0  0  0  0  0  0  0  0
   -4.8161   18.9669  -34.8285 H   0  0  0  0  0  0  0  0  0  0  0  0
   -6.4575   19.6599  -34.8891 H   0  0  0  0  0  0  0  0  0  0  0  0
   -1.7664   20.0128  -30.6634 H   0  0  0  0  0  0  0  0  0  0  0  0
   -1.1868   21.6194  -28.8499 H   0  0  0  0  0  0  0  0  0  0  0  0
   -0.1004   24.3173  -28.2248 H   0  0  0  0  0  0  0  0  0  0  0  0
   -0.8017   25.4581  -29.3798 H   0  0  0  0  0  0  0  0  0  0  0  0
   -0.3761   25.9708  -26.6404 H   0  0  0  0  0  0  0  0  0  0  0  0
   -1.4865   26.9029  -27.6566 H   0  0  0  0  0  0  0  0  0  0  0  0
   -2.0752   24.7298  -25.6459 H   0  0  0  0  0  0  0  0  0  0  0  0
   -3.1038   26.0854  -26.1282 H   0  0  0  0  0  0  0  0  0  0  0  0
   -3.4778   23.4604  -26.9897 H   0  0  0  0  0  0  0  0  0  0  0  0
   -4.0568   24.8515  -27.9099 H   0  0  0  0  0  0  0  0  0  0  0  0
   -6.4841   24.6014  -32.9350 H   0  0  0  0  0  0  0  0  0  0  0  0
   -8.2085   22.8348  -33.2794 H   0  0  0  0  0  0  0  0  0  0  0  0
   -8.9633   21.4274  -31.3603 H   0  0  0  0  0  0  0  0  0  0  0  0
   -7.9931   21.7896  -29.0900 H   0  0  0  0  0  0  0  0  0  0  0  0
   -6.2682   23.5552  -28.7321 H   0  0  0  0  0  0  0  0  0  0  0  0
  1  2  2  0
  2  3  1  0
  3  4  1  0
  4  5  2  0
  5  6  1  0
  6  7  1  0
  7  8  2  0
  7  9  2  0
  7 10  1  0
 10 11  1  0
 11 12  1  0
 12 13  1  0
 13 14  1  0
  6 15  2  0
 15 16  1  0
 16 17  2  0
 17 18  1  0
 18 19  1  0
 19 20  1  0
 20 21  1  0
 21 22  1  0
  2 23  1  0
 23 24  2  0
 24 25  1  0
 25 26  2  0
 26 27  1  0
 27 28  2  0
 17  4  1  0
 22 18  1  0
 28 23  1  0
 14 10  1  0
  5 29  1  0
 10 30  1  0
 11 31  1  0
 11 32  1  0
 12 33  1  0
 12 34  1  0
 13 35  1  0
 13 36  1  0
 14 37  1  0
 14 38  1  0
 15 39  1  0
 16 40  1  0
 19 41  1  0
 19 42  1  0
 20 43  1  0
 20 44  1  0
 21 45  1  0
 21 46  1  0
 22 47  1  0
 22 48  1  0
 24 49  1  0
 25 50  1  0
 26 51  1  0
 27 52  1  0
 28 53  1  0
M  CHG  2   3  -1  10   1
M  END
>  <UniqueID>  (8) 
8

>  <SMILES>  (8) 
O=C([N-]c1cc(S(=O)(=O)[NH+]2CCCC2)ccc1N1CCCC1)c1ccccc1

>  <Energy>  (8) 
66.46424401290524

>  <Genealogy>  (8) 
O=C([N-]c1cc(S(=O)(=O)[NH+]2CCCC2)ccc1N1CCCC1)c1ccccc1 (protonated)
O=C([N-]c1cc(S(=O)(=O)[NH+]2CCCC2)ccc1N1CCCC1)c1ccccc1 (3D coordinates assigned)
O=C([N-]c1cc(S(=O)(=O)[NH+]2CCCC2)ccc1N1CCCC1)c1ccccc1 (nonaromatic ring conformer: 66.46424401290524 kcal/mol)

>  <smiles>  (8) 
O=C(Nc1cc(S(=O)(=O)N2CCCC2)ccc1N1CCCC1)c1ccccc1

>  <score_type>  (8) 
oracle

>  <origin>  (8) 
adgpu

>  <m_score__min__energy>  (8) 
-10.43

>  <m_primary>  (8) 
energy

$$$$
8:0
     RDKit          3D

 45 47  0  0  0  0  0  0  0  0999 V2000
   -3.5820   21.9500  -33.7970 N   0  0  0  0  0  0  0  0  0  0  0  0
   -4.2950   20.9440  -32.5850 S   0  0  0  0  0  0  0  0  0  0  0  0
   -4.3800   19.5370  -33.1060 O   0  0  0  0  0  0  0  0  0  0  0  0
   -3.4340   20.9470  -31.3530 O   0  0  0  0  0  0  0  0  0  0  0  0
   -5.9100   21.5460  -32.1890 C   0  0  0  0  0  0  0  0  0  0  0  0
   -7.0230   20.7090  -32.3690 C   0  0  0  0  0  0  0  0  0  0  0  0
   -8.3070   21.1660  -32.0680 C   0  0  0  0  0  0  0  0  0  0  0  0
   -8.4940   22.4670  -31.5980 C   0  0  0  0  0  0  0  0  0  0  0  0
   -7.3960   23.3110  -31.4190 C   0  0  0  0  0  0  0  0  0  0  0  0
   -6.0930   22.8550  -31.6940 C   0  0  0  0  0  0  0  0  0  0  0  0
   -4.9600   23.7240  -31.5460 N   0  0  0  0  0  0  0  0  0  0  0  0
   -4.8080   24.7520  -30.5630 C   0  0  0  0  0  0  0  0  0  0  0  0
   -5.8360   25.2280  -30.0130 O   0  0  0  0  0  0  0  0  0  0  0  0
   -3.5060   25.2390  -30.2120 N   0  0  0  0  0  0  0  0  0  0  0  0
   -2.5880   24.5960  -29.3190 C   0  0  0  0  0  0  0  0  0  0  0  0
   -2.7130   23.2170  -29.1100 C   0  0  0  0  0  0  0  0  0  0  0  0
   -1.8400   22.5440  -28.2420 C   0  0  0  0  0  0  0  0  0  0  0  0
   -2.0200   20.8060  -27.9710 S   0  0  0  0  0  0  0  0  0  0  0  0
   -2.3130   20.5660  -26.5170 O   0  0  0  0  0  0  0  0  0  0  0  0
   -3.1910   20.3050  -28.7700 O   0  0  0  0  0  0  0  0  0  0  0  0
   -0.5950   19.8990  -28.4210 N   0  0  0  0  0  0  0  0  0  0  0  0
   -0.5500   19.6210  -29.8550 C   0  0  0  0  0  0  0  0  0  0  0  0
    0.3040   18.3750  -30.0220 C   0  0  0  0  0  0  0  0  0  0  0  0
    0.3050   17.7000  -28.6590 C   0  0  0  0  0  0  0  0  0  0  0  0
   -0.5450   18.5930  -27.7680 C   0  0  0  0  0  0  0  0  0  0  0  0
   -0.8110   23.2550  -27.6110 C   0  0  0  0  0  0  0  0  0  0  0  0
   -0.6580   24.6230  -27.8420 C   0  0  0  0  0  0  0  0  0  0  0  0
   -1.5310   25.2960  -28.7030 C   0  0  0  0  0  0  0  0  0  0  0  0
   -1.3160   26.6440  -28.9650 O   0  0  0  0  0  0  0  0  0  0  0  0
   -3.1480   21.3180  -34.5060 H   0  0  0  0  0  0  0  0  0  0  0  0
   -6.8821   19.6866  -32.7497 H   0  0  0  0  0  0  0  0  0  0  0  0
   -9.1725   20.5003  -32.2013 H   0  0  0  0  0  0  0  0  0  0  0  0
   -9.5075   22.8278  -31.3684 H   0  0  0  0  0  0  0  0  0  0  0  0
   -7.5504   24.3394  -31.0606 H   0  0  0  0  0  0  0  0  0  0  0  0
   -3.5029   22.6562  -29.6312 H   0  0  0  0  0  0  0  0  0  0  0  0
   -1.5647   19.4416  -30.2401 H   0  0  0  0  0  0  0  0  0  0  0  0
   -0.1306   20.4707  -30.4137 H   0  0  0  0  0  0  0  0  0  0  0  0
   -0.1318   17.7087  -30.7811 H   0  0  0  0  0  0  0  0  0  0  0  0
    1.3225   18.6193  -30.3581 H   0  0  0  0  0  0  0  0  0  0  0  0
   -0.1341   16.6937  -28.7271 H   0  0  0  0  0  0  0  0  0  0  0  0
    1.3239   17.5766  -28.2633 H   0  0  0  0  0  0  0  0  0  0  0  0
   -1.5589   18.1778  -27.6695 H   0  0  0  0  0  0  0  0  0  0  0  0
   -0.1191   18.6687  -26.7566 H   0  0  0  0  0  0  0  0  0  0  0  0
   -0.1212   22.7334  -26.9312 H   0  0  0  0  0  0  0  0  0  0  0  0
    0.1532   25.1746  -27.3444 H   0  0  0  0  0  0  0  0  0  0  0  0
  1  2  1  0
  2  3  2  0
  2  4  2  0
  2  5  1  0
  5  6  2  0
  6  7  1  0
  7  8  2  0
  8  9  1  0
  9 10  2  0
 10 11  1  0
 11 12  1  0
 12 13  2  0
 12 14  1  0
 14 15  1  0
 15 16  2  0
 16 17  1  0
 17 18  1  0
 18 19  2  0
 18 20  2  0
 18 21  1  0
 21 22  1  0
 22 23  1  0
 23 24  1  0
 24 25  1  0
 17 26  2  0
 26 27  1  0
 27 28  2  0
 28 29  1  0
 10  5  1  0
 28 15  1  0
 25 21  1  0
  1 30  1  0
  6 31  1  0
  7 32  1  0
  8 33  1  0
  9 34  1  0
 16 35  1  0
 22 36  1  0
 22 37  1  0
 23 38  1  0
 23 39  1  0
 24 40  1  0
 24 41  1  0
 25 42  1  0
 25 43  1  0
 26 44  1  0
 27 45  1  0
M  CHG  4   1  -1  11  -1  14  -1  29  -1
M  END
>  <UniqueID>  (9) 
9

>  <SMILES>  (9) 
[NH-]S(=O)(=O)c1ccccc1[N-]C(=O)[N-]c1cc(S(=O)(=O)N2CCCC2)ccc1[O-]

>  <Energy>  (9) 
57.20625919874256

>  <Genealogy>  (9) 
[NH-]S(=O)(=O)c1ccccc1[N-]C(=O)[N-]c1cc(S(=O)(=O)N2CCCC2)ccc1[O-] (protonated)
[NH-]S(=O)(=O)c1ccccc1[N-]C(=O)[N-]c1cc(S(=O)(=O)N2CCCC2)ccc1[O-] (3D coordinates assigned)
[NH-]S(=O)(=O)c1ccccc1[N-]C(=O)[N-]c1cc(S(=O)(=O)N2CCCC2)ccc1[O-] (nonaromatic ring conformer: 57.20625919874256 kcal/mol)

>  <smiles>  (9) 
NS(=O)(=O)c1ccccc1NC(=O)Nc1cc(S(=O)(=O)N2CCCC2)ccc1O

>  <score_type>  (9) 
oracle

>  <origin>  (9) 
adgpu

>  <m_score__min__energy>  (9) 
-15.550000000000001

>  <m_primary>  (9) 
energy

$$$$
9:0
     RDKit          3D

 53 56  0  0  0  0  0  0  0  0999 V2000
   -1.1820   19.4570  -27.9590 C   0  0  0  0  0  0  0  0  0  0  0  0
   -2.0150   20.1060  -26.9310 N   0  0  0  0  0  0  0  0  0  0  0  0
   -1.2180   20.8620  -25.9450 C   0  0  0  0  0  0  0  0  0  0  0  0
   -0.4950   22.0640  -26.5700 C   0  0  0  0  0  0  0  0  0  0  0  0
   -1.3700   22.8310  -27.5270 C   0  0  0  0  0  0  0  0  0  0  0  0
   -0.9510   24.0880  -27.9840 C   0  0  0  0  0  0  0  0  0  0  0  0
   -1.7200   24.8020  -28.9060 C   0  0  0  0  0  0  0  0  0  0  0  0
   -1.2830   26.0490  -29.3400 O   0  0  0  0  0  0  0  0  0  0  0  0
   -2.9180   24.2660  -29.3970 C   0  0  0  0  0  0  0  0  0  0  0  0
   -3.6790   25.0290  -30.3460 N   0  0  0  0  0  0  0  0  0  0  0  0
   -5.4060   25.2260  -30.3660 S   0  0  0  0  0  0  0  0  0  0  0  0
   -5.9390   25.4650  -28.9820 O   0  0  0  0  0  0  0  0  0  0  0  0
   -5.7280   26.4300  -31.2060 O   0  0  0  0  0  0  0  0  0  0  0  0
   -6.1550   23.7960  -31.0800 C   0  0  0  0  0  0  0  0  0  0  0  0
   -7.5410   23.7360  -31.2840 C   0  0  0  0  0  0  0  0  0  0  0  0
   -8.1080   22.6320  -31.9310 C   0  0  0  0  0  0  0  0  0  0  0  0
   -7.2940   21.5960  -32.3970 C   0  0  0  0  0  0  0  0  0  0  0  0
   -5.9090   21.6460  -32.1890 C   0  0  0  0  0  0  0  0  0  0  0  0
   -4.8520   20.4210  -32.8820 S   0  0  0  0  0  0  0  0  0  0  0  0
   -4.0930   19.7320  -31.7830 O   0  0  0  0  0  0  0  0  0  0  0  0
   -3.8680   21.0780  -33.8110 O   0  0  0  0  0  0  0  0  0  0  0  0
   -5.8250   19.2510  -33.7420 N   0  0  0  0  0  0  0  0  0  0  0  0
   -4.9870   18.2660  -34.4240 C   0  0  0  0  0  0  0  0  0  0  0  0
   -5.8420   17.0240  -34.5830 C   0  0  0  0  0  0  0  0  0  0  0  0
   -6.8500   17.0970  -33.4490 C   0  0  0  0  0  0  0  0  0  0  0  0
   -6.6770   18.4820  -32.8320 C   0  0  0  0  0  0  0  0  0  0  0  0
   -5.3510   22.7350  -31.5110 C   0  0  0  0  0  0  0  0  0  0  0  0
   -3.3460   23.0120  -28.9320 C   0  0  0  0  0  0  0  0  0  0  0  0
   -2.5650   22.2760  -28.0280 C   0  0  0  0  0  0  0  0  0  0  0  0
   -3.0750   20.9450  -27.5240 C   0  0  0  0  0  0  0  0  0  0  0  0
   -0.4041   18.8509  -27.4717 H   0  0  0  0  0  0  0  0  0  0  0  0
   -1.8121   18.8093  -28.5863 H   0  0  0  0  0  0  0  0  0  0  0  0
   -0.7081   20.2263  -28.5863 H   0  0  0  0  0  0  0  0  0  0  0  0
   -1.8896   21.2268  -25.1538 H   0  0  0  0  0  0  0  0  0  0  0  0
   -0.4514   20.1828  -25.5438 H   0  0  0  0  0  0  0  0  0  0  0  0
   -0.1755   22.7413  -25.7642 H   0  0  0  0  0  0  0  0  0  0  0  0
    0.3637   21.6781  -27.1389 H   0  0  0  0  0  0  0  0  0  0  0  0
   -0.0080   24.5162  -27.6132 H   0  0  0  0  0  0  0  0  0  0  0  0
   -8.1836   24.5578  -30.9350 H   0  0  0  0  0  0  0  0  0  0  0  0
   -9.1975   22.5796  -32.0731 H   0  0  0  0  0  0  0  0  0  0  0  0
   -7.7403   20.7416  -32.9269 H   0  0  0  0  0  0  0  0  0  0  0  0
   -4.6774   18.6450  -35.4092 H   0  0  0  0  0  0  0  0  0  0  0  0
   -4.0715   18.0530  -33.8526 H   0  0  0  0  0  0  0  0  0  0  0  0
   -6.3537   17.0282  -35.5567 H   0  0  0  0  0  0  0  0  0  0  0  0
   -5.2438   16.1016  -34.5472 H   0  0  0  0  0  0  0  0  0  0  0  0
   -7.8724   16.9744  -33.8360 H   0  0  0  0  0  0  0  0  0  0  0  0
   -6.6875   16.2995  -32.7091 H   0  0  0  0  0  0  0  0  0  0  0  0
   -7.6555   18.9730  -32.7247 H   0  0  0  0  0  0  0  0  0  0  0  0
   -6.2233   18.4133  -31.8323 H   0  0  0  0  0  0  0  0  0  0  0  0
   -4.2689   22.7575  -31.3147 H   0  0  0  0  0  0  0  0  0  0  0  0
   -4.3052   22.6017  -29.2807 H   0  0  0  0  0  0  0  0  0  0  0  0
   -3.8432   21.1313  -26.7590 H   0  0  0  0  0  0  0  0  0  0  0  0
   -3.4796   20.3996  -28.3894 H   0  0  0  0  0  0  0  0  0  0  0  0
  1  2  1  0
  2  3  1  0
  3  4  1  0
  4  5  1  0
  5  6  2  0
  6  7  1  0
  7  8  1  0
  7  9  2  0
  9 10  1  0
 10 11  1  0
 11 12  2  0
 11 13  2  0
 11 14  1  0
 14 15  2  0
 15 16  1  0
 16 17  2  0
 17 18  1  0
 18 19  1  0
 19 20  2  0
 19 21  2  0
 19 22  1  0
 22 23  1  0
 23 24  1  0
 24 25  1  0
 25 26  1  0
 18 27  2  0
  9 28  1  0
 28 29  2  0
 29 30  1  0
 30  2  1  0
 29  5  1  0
 27 14  1  0
 26 22  1  0
  1 31  1  0
  1 32  1  0
  1 33  1  0
  3 34  1  0
  3 35  1  0
  4 36  1  0
  4 37  1  0
  6 38  1  0
 15 39  1  0
 16 40  1  0
 17 41  1  0
 23 42  1  0
 23 43  1  0
 24 44  1  0
 24 45  1  0
 25 46  1  0
 25 47  1  0
 26 48  1  0
 26 49  1  0
 27 50  1  0
 28 51  1  0
 30 52  1  0
 30 53  1  0
M  CHG  2   8  -1  10  -1
M  END
>  <UniqueID>  (10) 
10

>  <SMILES>  (10) 
CN1CCc2cc([O-])c([N-]S(=O)(=O)c3cccc(S(=O)(=O)N4CCCC4)c3)cc2C1

>  <Energy>  (10) 
61.45831162175856

>  <Genealogy>  (10) 
CN1CCc2cc([O-])c([N-]S(=O)(=O)c3cccc(S(=O)(=O)N4CCCC4)c3)cc2C1 (protonated)
CN1CCc2cc([O-])c([N-]S(=O)(=O)c3cccc(S(=O)(=O)N4CCCC4)c3)cc2C1 (3D coordinates assigned)
CN1CCc2cc([O-])c([N-]S(=O)(=O)c3cccc(S(=O)(=O)N4CCCC4)c3)cc2C1 (nonaromatic ring conformer: 61.45831162175856 kcal/mol)

>  <smiles>  (10) 
CN1CCc2cc(O)c(NS(=O)(=O)c3cccc(S(=O)(=O)N4CCCC4)c3)cc2C1

>  <score_type>  (10) 
oracle

>  <origin>  (10) 
adgpu

>  <m_score__min__energy>  (10) 
-15.16

>  <m_primary>  (10) 
energy

$$$$
10:0
     RDKit          3D

 53 56  0  0  0  0  0  0  0  0999 V2000
    0.2392   25.6598  -39.0045 H   0  0  0  0  0  0  0  0  0  0  0  0
    0.2360   26.1700  -38.0300 C   0  0  0  0  0  0  0  0  0  0  0  0
   -0.4360   27.3870  -37.8840 C   0  0  0  0  0  0  0  0  0  0  0  0
   -0.9381   27.8425  -38.7503 H   0  0  0  0  0  0  0  0  0  0  0  0
   -0.4730   28.0300  -36.6380 C   0  0  0  0  0  0  0  0  0  0  0  0
   -1.1600   29.3560  -36.4930 C   0  0  0  0  0  0  0  0  0  0  0  0
   -1.2818   29.5910  -35.4253 H   0  0  0  0  0  0  0  0  0  0  0  0
   -0.5535   30.1377  -36.9737 H   0  0  0  0  0  0  0  0  0  0  0  0
   -2.1484   29.3114  -36.9737 H   0  0  0  0  0  0  0  0  0  0  0  0
    0.1850   27.4500  -35.5430 C   0  0  0  0  0  0  0  0  0  0  0  0
    0.1736   27.9556  -34.5661 H   0  0  0  0  0  0  0  0  0  0  0  0
    0.8550   26.2320  -35.6890 C   0  0  0  0  0  0  0  0  0  0  0  0
    1.3439   25.7706  -34.8183 H   0  0  0  0  0  0  0  0  0  0  0  0
    0.9090   25.5940  -36.9350 C   0  0  0  0  0  0  0  0  0  0  0  0
    1.5780   24.3250  -37.0270 N   0  0  0  0  0  0  0  0  0  0  0  0
    1.3420   23.2660  -36.3110 C   0  0  0  0  0  0  0  0  0  0  0  0
    0.3420   23.1590  -35.4070 N   0  0  0  0  0  0  0  0  0  0  0  0
    0.2910   21.9610  -34.8290 N   0  0  0  0  0  0  0  0  0  0  0  0
    1.2450   21.1160  -35.2780 C   0  0  0  0  0  0  0  0  0  0  0  0
    1.4440   19.4390  -34.6840 S   0  0  0  0  0  0  0  0  0  0  0  0
   -0.1640   19.3910  -33.8210 C   0  0  0  0  0  0  0  0  0  0  0  0
   -0.8133   20.1855  -34.2175 H   0  0  0  0  0  0  0  0  0  0  0  0
   -0.6309   18.4086  -33.9850 H   0  0  0  0  0  0  0  0  0  0  0  0
    0.0340   19.6010  -32.3450 C   0  0  0  0  0  0  0  0  0  0  0  0
    1.1830   19.8880  -31.9160 O   0  0  0  0  0  0  0  0  0  0  0  0
   -1.0700   19.6200  -31.4320 N   0  0  0  0  0  0  0  0  0  0  0  0
   -1.9040   20.7500  -31.1490 C   0  0  0  0  0  0  0  0  0  0  0  0
   -2.8060   21.2490  -32.1030 C   0  0  0  0  0  0  0  0  0  0  0  0
   -2.8552   20.7916  -33.1022 H   0  0  0  0  0  0  0  0  0  0  0  0
   -3.6410   22.3240  -31.7880 C   0  0  0  0  0  0  0  0  0  0  0  0
   -4.3297   22.7232  -32.5472 H   0  0  0  0  0  0  0  0  0  0  0  0
   -3.6050   22.8960  -30.5090 C   0  0  0  0  0  0  0  0  0  0  0  0
   -4.6660   24.2530  -30.1110 S   0  0  0  0  0  0  0  0  0  0  0  0
   -4.1870   25.4760  -30.8430 O   0  0  0  0  0  0  0  0  0  0  0  0
   -4.5750   24.5300  -28.6360 O   0  0  0  0  0  0  0  0  0  0  0  0
   -6.3350   23.9590  -30.5340 N   0  0  0  0  0  0  0  0  0  0  0  0
   -6.5150   23.7920  -31.9750 C   0  0  0  0  0  0  0  0  0  0  0  0
   -6.6352   24.7721  -32.4598 H   0  0  0  0  0  0  0  0  0  0  0  0
   -5.6426   23.3025  -32.4325 H   0  0  0  0  0  0  0  0  0  0  0  0
   -7.7750   22.9570  -32.1550 C   0  0  0  0  0  0  0  0  0  0  0  0
   -8.6321   23.6012  -32.4006 H   0  0  0  0  0  0  0  0  0  0  0  0
   -7.6735   22.2342  -32.9780 H   0  0  0  0  0  0  0  0  0  0  0  0
   -7.9940   22.2660  -30.8180 C   0  0  0  0  0  0  0  0  0  0  0  0
   -8.9598   22.5641  -30.3841 H   0  0  0  0  0  0  0  0  0  0  0  0
   -8.0154   21.1711  -30.9214 H   0  0  0  0  0  0  0  0  0  0  0  0
   -6.8470   22.7290  -29.9330 C   0  0  0  0  0  0  0  0  0  0  0  0
   -7.2085   22.9255  -28.9129 H   0  0  0  0  0  0  0  0  0  0  0  0
   -6.0618   21.9618  -29.8626 H   0  0  0  0  0  0  0  0  0  0  0  0
   -2.7160   22.3870  -29.5510 C   0  0  0  0  0  0  0  0  0  0  0  0
   -2.6748   22.8369  -28.5480 H   0  0  0  0  0  0  0  0  0  0  0  0
   -1.8820   21.3100  -29.8660 C   0  0  0  0  0  0  0  0  0  0  0  0
   -1.2050   20.9005  -29.1018 H   0  0  0  0  0  0  0  0  0  0  0  0
    2.2140   21.8350  -36.4540 S   0  0  0  0  0  0  0  0  0  0  0  0
  1  2  1  0
  2  3  2  0
  3  4  1  0
  3  5  1  0
  5  6  1  0
  6  7  1  0
  6  8  1  0
  6  9  1  0
  5 10  2  0
 10 11  1  0
 10 12  1  0
 12 13  1  0
 12 14  2  0
 14 15  1  0
 15 16  2  0
 16 17  1  0
 17 18  1  0
 18 19  2  0
 19 20  1  0
 20 21  1  0
 21 22  1  0
 21 23  1  0
 21 24  1  0
 24 25  2  0
 24 26  1  0
 26 27  1  0
 27 28  2  0
 28 29  1  0
 28 30  1  0
 30 31  1  0
 30 32  2  0
 32 33  1  0
 33 34  2  0
 33 35  2  0
 33 36  1  0
 36 37  1  0
 37 38  1  0
 37 39  1  0
 37 40  1  0
 40 41  1  0
 40 42  1  0
 40 43  1  0
 43 44  1  0
 43 45  1  0
 43 46  1  0
 46 47  1  0
 46 48  1  0
 32 49  1  0
 49 50  1  0
 49 51  2  0
 51 52  1  0
 19 53  1  0
 14  2  1  0
 53 16  1  0
 51 27  1  0
 46 36  1  0
M  CHG  2  17  -1  26  -1
M  END
>  <UniqueID>  (11) 
11

>  <SMILES>  (11) 
Cc1ccc(/N=c2\[n-]nc(SCC(=O)[N-]c3ccc(S(=O)(=O)N4CCCC4)cc3)s2)cc1

>  <Energy>  (11) 
98.42959301573785

>  <Genealogy>  (11) 
Cc1ccc(N=c2[n-]nc(SCC(=O)[N-]c3ccc(S(=O)(=O)N4CCCC4)cc3)s2)cc1 (protonated)
Cc1ccc(/N=c2\[n-]nc(SCC(=O)[N-]c3ccc(S(=O)(=O)N4CCCC4)cc3)s2)cc1 (cis-trans isomerization)
Cc1ccc(/N=c2\[n-]nc(SCC(=O)[N-]c3ccc(S(=O)(=O)N4CCCC4)cc3)s2)cc1 (3D coordinates assigned)
Cc1ccc(/N=c2\[n-]nc(SCC(=O)[N-]c3ccc(S(=O)(=O)N4CCCC4)cc3)s2)cc1 (nonaromatic ring conformer: 98.42959301573785 kcal/mol)

>  <smiles>  (11) 
Cc1ccc(N=c2[nH]nc(SCC(=O)Nc3ccc(S(=O)(=O)N4CCCC4)cc3)s2)cc1

>  <score_type>  (11) 
oracle

>  <origin>  (11) 
adgpu

>  <m_score__min__energy>  (11) 
-12.23

>  <m_primary>  (11) 
energy

$$$$
11:0
     RDKit          3D

 64 68  0  0  0  0  0  0  0  0999 V2000
   -1.0260   20.3160  -33.3290 C   0  0  0  0  0  0  0  0  0  0  0  0
   -0.1590   19.2670  -32.7030 C   0  0  0  0  0  0  0  0  0  0  0  0
    0.3420   18.2120  -33.4770 C   0  0  0  0  0  0  0  0  0  0  0  0
    1.1170   17.2150  -32.8840 C   0  0  0  0  0  0  0  0  0  0  0  0
    1.3880   17.2560  -31.5140 C   0  0  0  0  0  0  0  0  0  0  0  0
    0.8780   18.2950  -30.7140 C   0  0  0  0  0  0  0  0  0  0  0  0
    1.1820   18.3720  -29.2240 C   0  0  0  0  0  0  0  0  0  0  0  0
    1.5720   19.8070  -28.7670 C   0  0  0  0  0  0  0  0  0  0  0  0
    0.7540   20.3070  -27.5720 C   0  0  0  0  0  0  0  0  0  0  0  0
   -0.6770   20.0560  -27.7920 N   0  0  0  0  0  0  0  0  0  0  0  0
   -1.6560   21.0430  -27.4150 C   0  0  0  0  0  0  0  0  0  0  0  0
   -2.6730   20.6850  -26.7610 O   0  0  0  0  0  0  0  0  0  0  0  0
   -1.5050   22.4670  -27.7910 C   0  0  0  0  0  0  0  0  0  0  0  0
   -0.4640   23.2450  -27.2560 C   0  0  0  0  0  0  0  0  0  0  0  0
   -0.3100   24.5800  -27.6380 C   0  0  0  0  0  0  0  0  0  0  0  0
   -1.1820   25.1530  -28.5700 C   0  0  0  0  0  0  0  0  0  0  0  0
   -1.0180   26.4790  -28.9700 O   0  0  0  0  0  0  0  0  0  0  0  0
   -2.2180   24.3840  -29.1150 C   0  0  0  0  0  0  0  0  0  0  0  0
   -3.0710   24.9340  -30.1170 N   0  0  0  0  0  0  0  0  0  0  0  0
   -4.7740   24.6360  -30.0610 S   0  0  0  0  0  0  0  0  0  0  0  0
   -5.1880   24.3740  -28.6390 O   0  0  0  0  0  0  0  0  0  0  0  0
   -5.5170   25.8390  -30.5710 O   0  0  0  0  0  0  0  0  0  0  0  0
   -5.1500   23.2300  -31.0540 C   0  0  0  0  0  0  0  0  0  0  0  0
   -4.1140   22.4870  -31.6330 C   0  0  0  0  0  0  0  0  0  0  0  0
   -4.3990   21.3330  -32.3690 C   0  0  0  0  0  0  0  0  0  0  0  0
   -5.7230   20.8970  -32.5150 C   0  0  0  0  0  0  0  0  0  0  0  0
   -6.7660   21.6450  -31.9370 C   0  0  0  0  0  0  0  0  0  0  0  0
   -6.4760   22.8050  -31.2080 C   0  0  0  0  0  0  0  0  0  0  0  0
   -8.1220   21.2090  -32.0760 N   0  0  0  0  0  0  0  0  0  0  0  0
   -8.4210   19.9250  -32.6310 C   0  0  0  0  0  0  0  0  0  0  0  0
   -9.6210   19.5810  -32.8160 O   0  0  0  0  0  0  0  0  0  0  0  0
   -7.3060   18.9610  -32.9120 C   0  0  0  0  0  0  0  0  0  0  0  0
   -6.0460   19.7030  -33.3850 C   0  0  0  0  0  0  0  0  0  0  0  0
   -2.3750   23.0470  -28.7290 C   0  0  0  0  0  0  0  0  0  0  0  0
   -1.1320   18.7040  -28.1460 C   0  0  0  0  0  0  0  0  0  0  0  0
    0.0430   17.7430  -28.3870 C   0  0  0  0  0  0  0  0  0  0  0  0
    0.1040   19.3000  -31.3240 C   0  0  0  0  0  0  0  0  0  0  0  0
   -1.5143   20.9068  -32.5400 H   0  0  0  0  0  0  0  0  0  0  0  0
   -0.4079   20.9779  -33.9533 H   0  0  0  0  0  0  0  0  0  0  0  0
   -1.7925   19.8336  -33.9533 H   0  0  0  0  0  0  0  0  0  0  0  0
    0.1238   18.1698  -34.5543 H   0  0  0  0  0  0  0  0  0  0  0  0
    1.5161   16.3937  -33.4973 H   0  0  0  0  0  0  0  0  0  0  0  0
    2.0056   16.4689  -31.0567 H   0  0  0  0  0  0  0  0  0  0  0  0
    2.0786   17.7631  -29.0358 H   0  0  0  0  0  0  0  0  0  0  0  0
    2.6356   19.8068  -28.4862 H   0  0  0  0  0  0  0  0  0  0  0  0
    1.3651   20.4840  -29.6089 H   0  0  0  0  0  0  0  0  0  0  0  0
    1.0794   19.7792  -26.6634 H   0  0  0  0  0  0  0  0  0  0  0  0
    0.9137   21.3893  -27.4571 H   0  0  0  0  0  0  0  0  0  0  0  0
    0.2341   22.7999  -26.5317 H   0  0  0  0  0  0  0  0  0  0  0  0
    0.5008   25.1835  -27.2039 H   0  0  0  0  0  0  0  0  0  0  0  0
   -1.2370   26.7790  -29.9130 H   0  0  0  0  0  0  0  0  0  0  0  0
   -3.0708   22.8128  -31.5082 H   0  0  0  0  0  0  0  0  0  0  0  0
   -3.5807   20.7649  -32.8354 H   0  0  0  0  0  0  0  0  0  0  0  0
   -7.2931   23.3851  -30.7542 H   0  0  0  0  0  0  0  0  0  0  0  0
   -7.0720   18.4032  -31.9932 H   0  0  0  0  0  0  0  0  0  0  0  0
   -7.6282   18.2730  -33.7075 H   0  0  0  0  0  0  0  0  0  0  0  0
   -5.1949   19.0065  -33.3601 H   0  0  0  0  0  0  0  0  0  0  0  0
   -6.2345   20.0704  -34.4045 H   0  0  0  0  0  0  0  0  0  0  0  0
   -3.1868   22.4457  -29.1642 H   0  0  0  0  0  0  0  0  0  0  0  0
   -1.7489   18.3109  -27.3245 H   0  0  0  0  0  0  0  0  0  0  0  0
   -1.7089   18.7745  -29.0799 H   0  0  0  0  0  0  0  0  0  0  0  0
    0.4521   17.4393  -27.4121 H   0  0  0  0  0  0  0  0  0  0  0  0
   -0.3466   16.8861  -28.9562 H   0  0  0  0  0  0  0  0  0  0  0  0
   -0.2997   20.1210  -30.7132 H   0  0  0  0  0  0  0  0  0  0  0  0
  1  2  1  0
  2  3  2  0
  3  4  1  0
  4  5  2  0
  5  6  1  0
  6  7  1  0
  7  8  1  0
  8  9  1  0
  9 10  1  0
 10 11  1  0
 11 12  2  0
 11 13  1  0
 13 14  2  0
 14 15  1  0
 15 16  2  0
 16 17  1  0
 16 18  1  0
 18 19  1  0
 19 20  1  0
 20 21  2  0
 20 22  2  0
 20 23  1  0
 23 24  2  0
 24 25  1  0
 25 26  2  0
 26 27  1  0
 27 28  2  0
 27 29  1  0
 29 30  1  0
 30 31  2  0
 30 32  1  0
 32 33  1  0
 18 34  2  0
 10 35  1  0
 35 36  1  0
  6 37  2  0
 37  2  1  0
 36  7  1  0
 34 13  1  0
 28 23  1  0
 33 26  1  0
  1 38  1  0
  1 39  1  0
  1 40  1  0
  3 41  1  0
  4 42  1  0
  5 43  1  0
  7 44  1  0
  8 45  1  0
  8 46  1  0
  9 47  1  0
  9 48  1  0
 14 49  1  0
 15 50  1  0
 17 51  1  0
 24 52  1  0
 25 53  1  0
 28 54  1  0
 32 55  1  0
 32 56  1  0
 33 57  1  0
 33 58  1  0
 34 59  1  0
 35 60  1  0
 35 61  1  0
 36 62  1  0
 36 63  1  0
 37 64  1  0
M  CHG  2  19  -1  29  -1
M  END
>  <UniqueID>  (12) 
12

>  <SMILES>  (12) 
Cc1cccc(C2CCN(C(=O)c3ccc(O)c([N-]S(=O)(=O)c4ccc5c(c4)[N-]C(=O)CC5)c3)CC2)c1

>  <Energy>  (12) 
85.19150517593498

>  <Genealogy>  (12) 
Cc1cccc(C2CCN(C(=O)c3ccc(O)c([N-]S(=O)(=O)c4ccc5c(c4)[N-]C(=O)CC5)c3)CC2)c1 (protonated)
Cc1cccc(C2CCN(C(=O)c3ccc(O)c([N-]S(=O)(=O)c4ccc5c(c4)[N-]C(=O)CC5)c3)CC2)c1 (3D coordinates assigned)
Cc1cccc(C2CCN(C(=O)c3ccc(O)c([N-]S(=O)(=O)c4ccc5c(c4)[N-]C(=O)CC5)c3)CC2)c1 (nonaromatic ring conformer: 85.19150517593498 kcal/mol)

>  <smiles>  (12) 
Cc1cccc(C2CCN(C(=O)c3ccc(O)c(NS(=O)(=O)c4ccc5c(c4)NC(=O)CC5)c3)CC2)c1

>  <score_type>  (12) 
oracle

>  <origin>  (12) 
adgpu

>  <m_score__min__energy>  (12) 
-12.470000000000001

>  <m_primary>  (12) 
energy

$$$$
12:0
     RDKit          3D

 57 60  0  0  0  0  0  0  0  0999 V2000
   -9.5820   21.5840  -31.5700 C   0  0  0  0  0  0  0  0  0  0  0  0
   -8.3030   21.1300  -32.1080 N   0  0  0  0  0  0  0  0  0  0  0  0
   -8.0390   19.8320  -32.6370 C   0  0  0  0  0  0  0  0  0  0  0  0
   -8.9460   19.0200  -32.9400 O   0  0  0  0  0  0  0  0  0  0  0  0
   -6.5660   19.5350  -32.7500 C   0  0  0  0  0  0  0  0  0  0  0  0
   -6.1810   18.3240  -31.8880 C   0  0  0  0  0  0  0  0  0  0  0  0
   -6.1520   19.3480  -34.2120 C   0  0  0  0  0  0  0  0  0  0  0  0
   -6.0070   20.8110  -32.1790 C   0  0  0  0  0  0  0  0  0  0  0  0
   -4.6700   21.1530  -31.9710 C   0  0  0  0  0  0  0  0  0  0  0  0
   -4.3770   22.3820  -31.3620 C   0  0  0  0  0  0  0  0  0  0  0  0
   -5.4150   23.2470  -30.9560 C   0  0  0  0  0  0  0  0  0  0  0  0
   -5.0470   24.7430  -30.0980 S   0  0  0  0  0  0  0  0  0  0  0  0
   -4.2290   25.6660  -30.9550 O   0  0  0  0  0  0  0  0  0  0  0  0
   -6.3330   25.4410  -29.7570 O   0  0  0  0  0  0  0  0  0  0  0  0
   -4.2160   24.3680  -28.6210 N   0  0  0  0  0  0  0  0  0  0  0  0
   -2.9610   23.6770  -28.5220 C   0  0  0  0  0  0  0  0  0  0  0  0
   -2.8790   22.3440  -28.1060 C   0  0  0  0  0  0  0  0  0  0  0  0
   -1.6410   21.6840  -28.0470 C   0  0  0  0  0  0  0  0  0  0  0  0
   -1.5730   20.2580  -27.6610 C   0  0  0  0  0  0  0  0  0  0  0  0
   -2.3450   19.8230  -26.7590 O   0  0  0  0  0  0  0  0  0  0  0  0
   -0.6400   19.3580  -28.2890 N   0  0  0  0  0  0  0  0  0  0  0  0
   -0.4690   19.3580  -29.7510 C   0  0  0  0  0  0  0  0  0  0  0  0
    1.0200   19.2750  -30.1270 C   0  0  0  0  0  0  0  0  0  0  0  0
    1.8630   18.4780  -29.1090 C   0  0  0  0  0  0  0  0  0  0  0  0
    1.0120   17.4980  -28.2900 C   0  0  0  0  0  0  0  0  0  0  0  0
   -0.0650   18.2560  -27.5000 C   0  0  0  0  0  0  0  0  0  0  0  0
   -0.4720   22.3880  -28.3620 C   0  0  0  0  0  0  0  0  0  0  0  0
   -0.5440   23.7180  -28.7840 C   0  0  0  0  0  0  0  0  0  0  0  0
   -1.7830   24.3570  -28.8860 C   0  0  0  0  0  0  0  0  0  0  0  0
   -1.8420   25.6690  -29.3430 O   0  0  0  0  0  0  0  0  0  0  0  0
   -6.7560   22.8860  -31.1850 C   0  0  0  0  0  0  0  0  0  0  0  0
   -7.0240   21.6680  -31.8100 C   0  0  0  0  0  0  0  0  0  0  0  0
   -9.5431   21.5702  -30.4708 H   0  0  0  0  0  0  0  0  0  0  0  0
   -9.7829   22.6083  -31.9169 H   0  0  0  0  0  0  0  0  0  0  0  0
  -10.3838   20.9155  -31.9169 H   0  0  0  0  0  0  0  0  0  0  0  0
   -6.2655   18.5897  -30.8239 H   0  0  0  0  0  0  0  0  0  0  0  0
   -6.8568   17.4853  -32.1113 H   0  0  0  0  0  0  0  0  0  0  0  0
   -5.1449   18.0295  -32.1113 H   0  0  0  0  0  0  0  0  0  0  0  0
   -5.1503   18.8955  -34.2544 H   0  0  0  0  0  0  0  0  0  0  0  0
   -6.8739   18.6885  -34.7160 H   0  0  0  0  0  0  0  0  0  0  0  0
   -6.1344   20.3256  -34.7160 H   0  0  0  0  0  0  0  0  0  0  0  0
   -3.8623   20.4724  -32.2785 H   0  0  0  0  0  0  0  0  0  0  0  0
   -3.3290   22.6740  -31.1995 H   0  0  0  0  0  0  0  0  0  0  0  0
   -3.7955   21.8062  -27.8216 H   0  0  0  0  0  0  0  0  0  0  0  0
   -0.9970   18.4915  -30.1758 H   0  0  0  0  0  0  0  0  0  0  0  0
   -0.8827   20.2941  -30.1542 H   0  0  0  0  0  0  0  0  0  0  0  0
    1.1055   18.7871  -31.1092 H   0  0  0  0  0  0  0  0  0  0  0  0
    1.4107   20.3032  -30.1397 H   0  0  0  0  0  0  0  0  0  0  0  0
    2.6315   17.9098  -29.6536 H   0  0  0  0  0  0  0  0  0  0  0  0
    2.3155   19.1968  -28.4101 H   0  0  0  0  0  0  0  0  0  0  0  0
    0.5266   16.7830  -28.9705 H   0  0  0  0  0  0  0  0  0  0  0  0
    1.6637   16.9637  -27.5830 H   0  0  0  0  0  0  0  0  0  0  0  0
   -0.8678   17.5550  -27.2276 H   0  0  0  0  0  0  0  0  0  0  0  0
    0.4040   18.6838  -26.6017 H   0  0  0  0  0  0  0  0  0  0  0  0
    0.5062   21.8922  -28.2769 H   0  0  0  0  0  0  0  0  0  0  0  0
    0.3770   24.2638  -29.0367 H   0  0  0  0  0  0  0  0  0  0  0  0
   -7.5764   23.5511  -30.8773 H   0  0  0  0  0  0  0  0  0  0  0  0
  1  2  1  0
  2  3  1  0
  3  4  2  0
  3  5  1  0
  5  6  1  0
  5  7  1  0
  5  8  1  0
  8  9  2  0
  9 10  1  0
 10 11  2  0
 11 12  1  0
 12 13  2  0
 12 14  2  0
 12 15  1  0
 15 16  1  0
 16 17  2  0
 17 18  1  0
 18 19  1  0
 19 20  2  0
 19 21  1  0
 21 22  1  0
 22 23  1  0
 23 24  1  0
 24 25  1  0
 25 26  1  0
 18 27  2  0
 27 28  1  0
 28 29  2  0
 29 30  1  0
 11 31  1  0
 31 32  2  0
 32  2  1  0
 32  8  1  0
 29 16  1  0
 26 21  1  0
  1 33  1  0
  1 34  1  0
  1 35  1  0
  6 36  1  0
  6 37  1  0
  6 38  1  0
  7 39  1  0
  7 40  1  0
  7 41  1  0
  9 42  1  0
 10 43  1  0
 17 44  1  0
 22 45  1  0
 22 46  1  0
 23 47  1  0
 23 48  1  0
 24 49  1  0
 24 50  1  0
 25 51  1  0
 25 52  1  0
 26 53  1  0
 26 54  1  0
 27 55  1  0
 28 56  1  0
 31 57  1  0
M  CHG  2  15  -1  30  -1
M  END
>  <UniqueID>  (13) 
13

>  <SMILES>  (13) 
CN1C(=O)C(C)(C)c2ccc(S(=O)(=O)[N-]c3cc(C(=O)N4CCCCC4)ccc3[O-])cc21

>  <Energy>  (13) 
86.12258505283638

>  <Genealogy>  (13) 
CN1C(=O)C(C)(C)c2ccc(S(=O)(=O)[N-]c3cc(C(=O)N4CCCCC4)ccc3[O-])cc21 (protonated)
CN1C(=O)C(C)(C)c2ccc(S(=O)(=O)[N-]c3cc(C(=O)N4CCCCC4)ccc3[O-])cc21 (3D coordinates assigned)
CN1C(=O)C(C)(C)c2ccc(S(=O)(=O)[N-]c3cc(C(=O)N4CCCCC4)ccc3[O-])cc21 (nonaromatic ring conformer: 86.12258505283638 kcal/mol)

>  <smiles>  (13) 
CN1C(=O)C(C)(C)c2ccc(S(=O)(=O)Nc3cc(C(=O)N4CCCCC4)ccc3O)cc21

>  <score_type>  (13) 
oracle

>  <origin>  (13) 
adgpu

>  <m_score__min__energy>  (13) 
-16.16

>  <m_primary>  (13) 
energy

$$$$
13:0
     RDKit          3D

 79 83  0  0  0  0  0  0  0  0999 V2000
   -0.1950   19.6270  -30.9280 C   0  0  0  0  0  0  0  0  0  0  0  0
   -0.9330   21.1140  -30.2810 S   0  0  0  0  0  0  0  0  0  0  0  0
   -2.3610   21.1630  -30.7420 O   0  0  0  0  0  0  0  0  0  0  0  0
   -0.1810   22.2820  -30.8500 O   0  0  0  0  0  0  0  0  0  0  0  0
   -0.8970   21.1750  -28.5080 C   0  0  0  0  0  0  0  0  0  0  0  0
   -1.1680   20.0160  -27.7610 C   0  0  0  0  0  0  0  0  0  0  0  0
   -1.2360   20.0660  -26.3690 C   0  0  0  0  0  0  0  0  0  0  0  0
   -1.0480   21.2790  -25.7020 C   0  0  0  0  0  0  0  0  0  0  0  0
   -0.7910   22.4410  -26.4310 C   0  0  0  0  0  0  0  0  0  0  0  0
   -0.6840   22.3960  -27.8280 C   0  0  0  0  0  0  0  0  0  0  0  0
   -0.4290   23.6110  -28.5450 N   0  0  0  0  0  0  0  0  0  0  0  0
   -1.4570   24.4810  -29.0420 C   0  0  0  0  0  0  0  0  0  0  0  0
   -1.1610   25.6710  -29.3270 O   0  0  0  0  0  0  0  0  0  0  0  0
   -2.8520   24.0260  -29.2190 C   0  0  0  0  0  0  0  0  0  0  0  0
   -3.4670   24.1100  -30.4750 C   0  0  0  0  0  0  0  0  0  0  0  0
   -4.7840   23.6720  -30.6490 C   0  0  0  0  0  0  0  0  0  0  0  0
   -5.4970   23.1120  -29.5750 C   0  0  0  0  0  0  0  0  0  0  0  0
   -6.9430   22.7220  -29.7510 C   0  0  0  0  0  0  0  0  0  0  0  0
   -7.6540   23.7010  -30.5820 N   0  0  0  0  0  0  0  0  0  0  0  0
   -8.1430   23.0160  -32.1090 S   0  0  0  0  0  0  0  0  0  0  0  0
   -9.6390   23.0470  -32.2430 O   0  0  0  0  0  0  0  0  0  0  0  0
   -7.5500   23.8320  -33.2220 O   0  0  0  0  0  0  0  0  0  0  0  0
   -7.5570   21.3570  -32.2180 C   0  0  0  0  0  0  0  0  0  0  0  0
   -8.4280   20.2830  -31.9950 C   0  0  0  0  0  0  0  0  0  0  0  0
   -8.0050   18.9750  -32.2340 C   0  0  0  0  0  0  0  0  0  0  0  0
   -6.7210   18.7310  -32.7280 C   0  0  0  0  0  0  0  0  0  0  0  0
   -5.8400   19.7990  -32.9740 C   0  0  0  0  0  0  0  0  0  0  0  0
   -4.5170   19.5470  -33.5940 C   0  0  0  0  0  0  0  0  0  0  0  0
   -4.4340   18.7360  -34.5560 O   0  0  0  0  0  0  0  0  0  0  0  0
   -3.3560   20.2880  -33.1700 N   0  0  0  0  0  0  0  0  0  0  0  0
   -2.0090   20.0490  -33.6180 C   0  0  0  0  0  0  0  0  0  0  0  0
   -1.1530   21.1460  -33.8220 C   0  0  0  0  0  0  0  0  0  0  0  0
    0.1450   20.9560  -34.2980 C   0  0  0  0  0  0  0  0  0  0  0  0
    0.6040   19.6660  -34.6040 C   0  0  0  0  0  0  0  0  0  0  0  0
    1.9370   19.4800  -35.2140 C   0  0  0  0  0  0  0  0  0  0  0  0
    2.9050   20.1670  -34.7940 O   0  0  0  0  0  0  0  0  0  0  0  0
    2.1200   18.5970  -36.3400 N   0  0  0  0  0  0  0  0  0  0  0  0
    3.4460   18.0410  -36.6390 C   0  0  0  0  0  0  0  0  0  0  0  0
    3.9900   18.6150  -37.9570 C   0  0  0  0  0  0  0  0  0  0  0  0
    2.8860   18.9140  -38.9950 C   0  0  0  0  0  0  0  0  0  0  0  0
    1.6060   18.1120  -38.7290 C   0  0  0  0  0  0  0  0  0  0  0  0
    1.0440   18.4520  -37.3380 C   0  0  0  0  0  0  0  0  0  0  0  0
   -0.2240   18.5630  -34.3380 C   0  0  0  0  0  0  0  0  0  0  0  0
   -1.5130   18.7500  -33.8340 C   0  0  0  0  0  0  0  0  0  0  0  0
   -6.2550   21.1080  -32.6680 C   0  0  0  0  0  0  0  0  0  0  0  0
   -4.8710   23.0170  -28.3210 C   0  0  0  0  0  0  0  0  0  0  0  0
   -3.5570   23.4590  -28.1480 C   0  0  0  0  0  0  0  0  0  0  0  0
    0.1243   18.9836  -30.0949 H   0  0  0  0  0  0  0  0  0  0  0  0
   -0.9313   19.0904  -31.5443 H   0  0  0  0  0  0  0  0  0  0  0  0
    0.6777   19.8889  -31.5443 H   0  0  0  0  0  0  0  0  0  0  0  0
   -1.3282   19.0593  -28.2797 H   0  0  0  0  0  0  0  0  0  0  0  0
   -1.4379   19.1493  -25.7956 H   0  0  0  0  0  0  0  0  0  0  0  0
   -1.1024   21.3182  -24.6040 H   0  0  0  0  0  0  0  0  0  0  0  0
   -0.6715   23.3998  -25.9052 H   0  0  0  0  0  0  0  0  0  0  0  0
   -2.9108   24.5229  -31.3295 H   0  0  0  0  0  0  0  0  0  0  0  0
   -5.2652   23.7665  -31.6336 H   0  0  0  0  0  0  0  0  0  0  0  0
   -6.9932   21.7354  -30.2348 H   0  0  0  0  0  0  0  0  0  0  0  0
   -7.4206   22.6901  -28.7606 H   0  0  0  0  0  0  0  0  0  0  0  0
   -9.4486   20.4713  -31.6304 H   0  0  0  0  0  0  0  0  0  0  0  0
   -8.6843   18.1335  -32.0329 H   0  0  0  0  0  0  0  0  0  0  0  0
   -6.3977   17.6983  -32.9255 H   0  0  0  0  0  0  0  0  0  0  0  0
   -3.5170   21.1730  -32.6390 H   0  0  0  0  0  0  0  0  0  0  0  0
   -1.5100   22.1634  -33.6043 H   0  0  0  0  0  0  0  0  0  0  0  0
    0.8108   21.8210  -34.4338 H   0  0  0  0  0  0  0  0  0  0  0  0
    4.1370   18.2952  -35.8218 H   0  0  0  0  0  0  0  0  0  0  0  0
    3.3580   16.9490  -36.7379 H   0  0  0  0  0  0  0  0  0  0  0  0
    4.5242   19.5509  -37.7361 H   0  0  0  0  0  0  0  0  0  0  0  0
    4.6518   17.8535  -38.3954 H   0  0  0  0  0  0  0  0  0  0  0  0
    2.6458   19.9868  -38.9572 H   0  0  0  0  0  0  0  0  0  0  0  0
    3.2665   18.6228  -39.9851 H   0  0  0  0  0  0  0  0  0  0  0  0
    0.8561   18.3606  -39.4943 H   0  0  0  0  0  0  0  0  0  0  0  0
    1.8413   17.0382  -38.7678 H   0  0  0  0  0  0  0  0  0  0  0  0
    0.4845   19.3970  -37.4000 H   0  0  0  0  0  0  0  0  0  0  0  0
    0.3880   17.6281  -37.0204 H   0  0  0  0  0  0  0  0  0  0  0  0
    0.1455   17.5445  -34.5280 H   0  0  0  0  0  0  0  0  0  0  0  0
   -2.1432   17.8780  -33.6049 H   0  0  0  0  0  0  0  0  0  0  0  0
   -5.5495   21.9440  -32.7835 H   0  0  0  0  0  0  0  0  0  0  0  0
   -5.4199   22.5911  -27.4682 H   0  0  0  0  0  0  0  0  0  0  0  0
   -3.0725   23.3615  -27.1653 H   0  0  0  0  0  0  0  0  0  0  0  0
  1  2  1  0
  2  3  2  0
  2  4  2  0
  2  5  1  0
  5  6  2  0
  6  7  1  0
  7  8  2  0
  8  9  1  0
  9 10  2  0
 10 11  1  0
 11 12  1  0
 12 13  2  0
 12 14  1  0
 14 15  2  0
 15 16  1  0
 16 17  2  0
 17 18  1  0
 18 19  1  0
 19 20  1  0
 20 21  2  0
 20 22  2  0
 20 23  1  0
 23 24  2  0
 24 25  1  0
 25 26  2  0
 26 27  1  0
 27 28  1  0
 28 29  2  0
 28 30  1  0
 30 31  1  0
 31 32  2  0
 32 33  1  0
 33 34  2  0
 34 35  1  0
 35 36  2  0
 35 37  1  0
 37 38  1  0
 38 39  1  0
 39 40  1  0
 40 41  1  0
 41 42  1  0
 34 43  1  0
 43 44  2  0
 27 45  2  0
 17 46  1  0
 46 47  2  0
 10  5  1  0
 47 14  1  0
 45 23  1  0
 44 31  1  0
 42 37  1  0
  1 48  1  0
  1 49  1  0
  1 50  1  0
  6 51  1  0
  7 52  1  0
  8 53  1  0
  9 54  1  0
 15 55  1  0
 16 56  1  0
 18 57  1  0
 18 58  1  0
 24 59  1  0
 25 60  1  0
 26 61  1  0
 30 62  1  0
 32 63  1  0
 33 64  1  0
 38 65  1  0
 38 66  1  0
 39 67  1  0
 39 68  1  0
 40 69  1  0
 40 70  1  0
 41 71  1  0
 41 72  1  0
 42 73  1  0
 42 74  1  0
 43 75  1  0
 44 76  1  0
 45 77  1  0
 46 78  1  0
 47 79  1  0
M  CHG  2  11  -1  19  -1
M  END
>  <UniqueID>  (14) 
14

>  <SMILES>  (14) 
CS(=O)(=O)c1ccccc1[N-]C(=O)c1ccc(C[N-]S(=O)(=O)c2cccc(C(=O)Nc3ccc(C(=O)N4CCCCC4)cc3)c2)cc1

>  <Energy>  (14) 
102.12284191868875

>  <Genealogy>  (14) 
CS(=O)(=O)c1ccccc1[N-]C(=O)c1ccc(C[N-]S(=O)(=O)c2cccc(C(=O)Nc3ccc(C(=O)N4CCCCC4)cc3)c2)cc1 (protonated)
CS(=O)(=O)c1ccccc1[N-]C(=O)c1ccc(C[N-]S(=O)(=O)c2cccc(C(=O)Nc3ccc(C(=O)N4CCCCC4)cc3)c2)cc1 (3D coordinates assigned)
CS(=O)(=O)c1ccccc1[N-]C(=O)c1ccc(C[N-]S(=O)(=O)c2cccc(C(=O)Nc3ccc(C(=O)N4CCCCC4)cc3)c2)cc1 (nonaromatic ring conformer: 102.12284191868875 kcal/mol)

>  <smiles>  (14) 
CS(=O)(=O)c1ccccc1NC(=O)c1ccc(CNS(=O)(=O)c2cccc(C(=O)Nc3ccc(C(=O)N4CCCCC4)cc3)c2)cc1

>  <score_type>  (14) 
oracle

>  <origin>  (14) 
adgpu

>  <m_score__min__energy>  (14) 
-12.99

>  <m_primary>  (14) 
energy

$$$$
14:0
     RDKit          3D

 79 84  0  0  0  0  0  0  0  0999 V2000
   -5.0530   25.2420  -30.4530 C   0  0  0  0  0  0  0  0  0  0  0  0
   -5.7440   23.9650  -30.6990 N   0  0  0  0  0  0  0  0  0  0  0  0
   -7.2030   24.1790  -30.7670 C   0  0  0  0  0  0  0  0  0  0  0  0
   -7.9860   23.0310  -31.4500 C   0  0  0  0  0  0  0  0  0  0  0  0
   -7.1810   21.8250  -31.7330 N   0  0  0  0  0  0  0  0  0  0  0  0
   -7.8640   20.5630  -31.9650 C   0  0  0  0  0  0  0  0  0  0  0  0
   -9.1120   20.4710  -31.8030 O   0  0  0  0  0  0  0  0  0  0  0  0
   -7.1410   19.3960  -32.4820 C   0  0  0  0  0  0  0  0  0  0  0  0
   -6.9280   18.2840  -31.6570 C   0  0  0  0  0  0  0  0  0  0  0  0
   -6.3210   17.1860  -32.1710 N   0  0  0  0  0  0  0  0  0  0  0  0
   -5.9140   17.1380  -33.4750 C   0  0  0  0  0  0  0  0  0  0  0  0
   -5.2780   16.0010  -33.9970 O   0  0  0  0  0  0  0  0  0  0  0  0
   -4.3050   15.2490  -33.3180 C   0  0  0  0  0  0  0  0  0  0  0  0
   -4.6240   14.0380  -32.6520 C   0  0  0  0  0  0  0  0  0  0  0  0
   -3.6280   13.2900  -31.9920 C   0  0  0  0  0  0  0  0  0  0  0  0
   -2.3000   13.7370  -31.9750 C   0  0  0  0  0  0  0  0  0  0  0  0
   -2.0010   14.9250  -32.6410 C   0  0  0  0  0  0  0  0  0  0  0  0
   -0.7940   15.5660  -32.7930 C   0  0  0  0  0  0  0  0  0  0  0  0
   -1.0640   16.6750  -33.5890 C   0  0  0  0  0  0  0  0  0  0  0  0
   -0.0170   17.5750  -34.0910 C   0  0  0  0  0  0  0  0  0  0  0  0
    0.4950   17.3510  -35.2230 O   0  0  0  0  0  0  0  0  0  0  0  0
    0.3780   18.7250  -33.3330 N   0  0  0  0  0  0  0  0  0  0  0  0
   -0.4560   19.4610  -32.4260 C   0  0  0  0  0  0  0  0  0  0  0  0
   -1.2050   20.5220  -32.9190 C   0  0  0  0  0  0  0  0  0  0  0  0
   -1.9580   21.3160  -32.0600 C   0  0  0  0  0  0  0  0  0  0  0  0
   -1.9920   21.0770  -30.6710 C   0  0  0  0  0  0  0  0  0  0  0  0
   -2.8580   22.0320  -29.8450 C   0  0  0  0  0  0  0  0  0  0  0  0
   -2.2250   22.5500  -28.6090 N   0  0  0  0  0  0  0  0  0  0  0  0
   -3.1020   23.3120  -27.6980 C   0  0  0  0  0  0  0  0  0  0  0  0
   -2.8090   24.8250  -27.7310 C   0  0  0  0  0  0  0  0  0  0  0  0
   -2.2100   25.1940  -28.9550 O   0  0  0  0  0  0  0  0  0  0  0  0
   -0.9050   24.6550  -29.0250 C   0  0  0  0  0  0  0  0  0  0  0  0
   -0.8720   23.1290  -28.7560 C   0  0  0  0  0  0  0  0  0  0  0  0
   -1.1730   20.0240  -30.1400 C   0  0  0  0  0  0  0  0  0  0  0  0
   -1.0510   19.6700  -28.6620 C   0  0  0  0  0  0  0  0  0  0  0  0
   -0.6730   18.3560  -28.4540 F   0  0  0  0  0  0  0  0  0  0  0  0
   -0.1310   20.5110  -28.0660 F   0  0  0  0  0  0  0  0  0  0  0  0
   -2.2660   19.8350  -28.0130 F   0  0  0  0  0  0  0  0  0  0  0  0
   -0.4480   19.2160  -31.0460 C   0  0  0  0  0  0  0  0  0  0  0  0
   -2.3920   16.7450  -33.8890 N   0  0  0  0  0  0  0  0  0  0  0  0
   -3.0850   17.8030  -34.6210 C   0  0  0  0  0  0  0  0  0  0  0  0
   -2.9570   15.6570  -33.3080 C   0  0  0  0  0  0  0  0  0  0  0  0
   -6.1100   18.2620  -34.2910 C   0  0  0  0  0  0  0  0  0  0  0  0
   -6.7280   19.3580  -33.7800 N   0  0  0  0  0  0  0  0  0  0  0  0
   -5.7420   21.9220  -32.0200 C   0  0  0  0  0  0  0  0  0  0  0  0
   -5.2460   23.3590  -31.9380 C   0  0  0  0  0  0  0  0  0  0  0  0
   -4.9634   25.4076  -29.3692 H   0  0  0  0  0  0  0  0  0  0  0  0
   -4.0498   25.2087  -30.9030 H   0  0  0  0  0  0  0  0  0  0  0  0
   -5.6296   26.0636  -30.9030 H   0  0  0  0  0  0  0  0  0  0  0  0
   -7.5826   24.2915  -29.7407 H   0  0  0  0  0  0  0  0  0  0  0  0
   -7.3606   25.0767  -31.3829 H   0  0  0  0  0  0  0  0  0  0  0  0
   -8.8176   22.7422  -30.7904 H   0  0  0  0  0  0  0  0  0  0  0  0
   -8.3235   23.4176  -32.4229 H   0  0  0  0  0  0  0  0  0  0  0  0
   -7.2493   18.3015  -30.6051 H   0  0  0  0  0  0  0  0  0  0  0  0
   -5.6632   13.6775  -32.6505 H   0  0  0  0  0  0  0  0  0  0  0  0
   -3.8948   12.3498  -31.4873 H   0  0  0  0  0  0  0  0  0  0  0  0
   -1.5172   13.1680  -31.4521 H   0  0  0  0  0  0  0  0  0  0  0  0
    0.1780   15.2660  -32.3745 H   0  0  0  0  0  0  0  0  0  0  0  0
   -1.2027   20.7362  -33.9979 H   0  0  0  0  0  0  0  0  0  0  0  0
   -2.5414   22.1511  -32.4749 H   0  0  0  0  0  0  0  0  0  0  0  0
   -3.1173   22.8917  -30.4804 H   0  0  0  0  0  0  0  0  0  0  0  0
   -3.7306   21.4472  -29.5186 H   0  0  0  0  0  0  0  0  0  0  0  0
   -4.1483   23.1480  -27.9953 H   0  0  0  0  0  0  0  0  0  0  0  0
   -2.9138   22.9557  -26.6745 H   0  0  0  0  0  0  0  0  0  0  0  0
   -3.7525   25.3776  -27.6104 H   0  0  0  0  0  0  0  0  0  0  0  0
   -2.1154   25.0673  -26.9123 H   0  0  0  0  0  0  0  0  0  0  0  0
   -0.4999   24.8438  -30.0301 H   0  0  0  0  0  0  0  0  0  0  0  0
   -0.3022   25.1427  -28.2447 H   0  0  0  0  0  0  0  0  0  0  0  0
   -0.3658   22.6334  -29.5975 H   0  0  0  0  0  0  0  0  0  0  0  0
   -0.3352   22.9682  -27.8094 H   0  0  0  0  0  0  0  0  0  0  0  0
    0.1390   18.3711  -30.6567 H   0  0  0  0  0  0  0  0  0  0  0  0
   -3.5435   18.5030  -33.9071 H   0  0  0  0  0  0  0  0  0  0  0  0
   -2.3652   18.3433  -35.2535 H   0  0  0  0  0  0  0  0  0  0  0  0
   -3.8679   17.3591  -35.2535 H   0  0  0  0  0  0  0  0  0  0  0  0
   -5.7661   18.2557  -35.3358 H   0  0  0  0  0  0  0  0  0  0  0  0
   -5.1910   21.3126  -31.2886 H   0  0  0  0  0  0  0  0  0  0  0  0
   -5.5719   21.5589  -33.0443 H   0  0  0  0  0  0  0  0  0  0  0  0
   -4.1461   23.3702  -31.9381 H   0  0  0  0  0  0  0  0  0  0  0  0
   -5.6125   23.9291  -32.8044 H   0  0  0  0  0  0  0  0  0  0  0  0
  1  2  1  0
  2  3  1  0
  3  4  1  0
  4  5  1  0
  5  6  1  0
  6  7  2  0
  6  8  1  0
  8  9  2  0
  9 10  1  0
 10 11  2  0
 11 12  1  0
 12 13  1  0
 13 14  2  0
 14 15  1  0
 15 16  2  0
 16 17  1  0
 17 18  1  0
 18 19  2  0
 19 20  1  0
 20 21  2  0
 20 22  1  0
 22 23  1  0
 23 24  2  0
 24 25  1  0
 25 26  2  0
 26 27  1  0
 27 28  1  0
 28 29  1  0
 29 30  1  0
 30 31  1  0
 31 32  1  0
 32 33  1  0
 26 34  1  0
 34 35  1  0
 35 36  1  0
 35 37  1  0
 35 38  1  0
 34 39  2  0
 19 40  1  0
 40 41  1  0
 40 42  1  0
 11 43  1  0
 43 44  2  0
  5 45  1  0
 45 46  1  0
 46  2  1  0
 44  8  1  0
 42 13  1  0
 42 17  2  0
 39 23  1  0
 33 28  1  0
  1 47  1  0
  1 48  1  0
  1 49  1  0
  3 50  1  0
  3 51  1  0
  4 52  1  0
  4 53  1  0
  9 54  1  0
 14 55  1  0
 15 56  1  0
 16 57  1  0
 18 58  1  0
 24 59  1  0
 25 60  1  0
 27 61  1  0
 27 62  1  0
 29 63  1  0
 29 64  1  0
 30 65  1  0
 30 66  1  0
 32 67  1  0
 32 68  1  0
 33 69  1  0
 33 70  1  0
 39 71  1  0
 41 72  1  0
 41 73  1  0
 41 74  1  0
 43 75  1  0
 45 76  1  0
 45 77  1  0
 46 78  1  0
 46 79  1  0
M  CHG  1  22  -1
M  END
>  <UniqueID>  (15) 
15

>  <SMILES>  (15) 
CN1CCN(C(=O)c2cnc(Oc3cccc4cc(C(=O)[N-]c5ccc(CN6CCOCC6)c(C(F)(F)F)c5)n(C)c34)cn2)CC1

>  <Energy>  (15) 
172.99422536881394

>  <Genealogy>  (15) 
CN1CCN(C(=O)c2cnc(Oc3cccc4cc(C(=O)[N-]c5ccc(CN6CCOCC6)c(C(F)(F)F)c5)n(C)c34)cn2)CC1 (protonated)
CN1CCN(C(=O)c2cnc(Oc3cccc4cc(C(=O)[N-]c5ccc(CN6CCOCC6)c(C(F)(F)F)c5)n(C)c34)cn2)CC1 (3D coordinates assigned)
CN1CCN(C(=O)c2cnc(Oc3cccc4cc(C(=O)[N-]c5ccc(CN6CCOCC6)c(C(F)(F)F)c5)n(C)c34)cn2)CC1 (nonaromatic ring conformer: 172.99422536881394 kcal/mol)

>  <smiles>  (15) 
CN1CCN(C(=O)c2cnc(Oc3cccc4cc(C(=O)Nc5ccc(CN6CCOCC6)c(C(F)(F)F)c5)n(C)c34)cn2)CC1

>  <score_type>  (15) 
oracle

>  <origin>  (15) 
adgpu

>  <m_score__min__energy>  (15) 
-12.26

>  <m_primary>  (15) 
energy

$$$$
15:0
     RDKit          3D

 61 64  0  0  0  0  0  0  0  0999 V2000
   -9.4830   20.8630  -31.9410 C   0  0  0  0  0  0  0  0  0  0  0  0
   -8.0690   20.4740  -32.2340 C   0  0  0  0  0  0  0  0  0  0  0  0
   -7.7030   19.2080  -32.5300 N   0  0  0  0  0  0  0  0  0  0  0  0
   -6.3640   19.2910  -32.6780 C   0  0  0  0  0  0  0  0  0  0  0  0
   -5.5150   18.1910  -33.0270 N   0  0  0  0  0  0  0  0  0  0  0  0
   -5.1260   17.8900  -34.3780 C   0  0  0  0  0  0  0  0  0  0  0  0
   -5.7480   18.4130  -35.3420 O   0  0  0  0  0  0  0  0  0  0  0  0
   -4.0210   16.9420  -34.6550 C   0  0  0  0  0  0  0  0  0  0  0  0
   -4.2930   15.5770  -34.8470 C   0  0  0  0  0  0  0  0  0  0  0  0
   -3.2540   14.6760  -35.0950 C   0  0  0  0  0  0  0  0  0  0  0  0
   -1.9350   15.1280  -35.1600 C   0  0  0  0  0  0  0  0  0  0  0  0
   -1.6460   16.4880  -34.9860 C   0  0  0  0  0  0  0  0  0  0  0  0
    0.0230   17.0590  -35.0550 S   0  0  0  0  0  0  0  0  0  0  0  0
    0.9470   15.9450  -34.6450 O   0  0  0  0  0  0  0  0  0  0  0  0
    0.3570   17.4410  -36.4700 O   0  0  0  0  0  0  0  0  0  0  0  0
    0.2730   18.4350  -34.0050 N   0  0  0  0  0  0  0  0  0  0  0  0
   -0.0800   19.7100  -34.6780 C   0  0  0  0  0  0  0  0  0  0  0  0
   -1.4280   20.2820  -34.2130 C   0  0  0  0  0  0  0  0  0  0  0  0
   -1.4330   20.5270  -32.6940 C   0  0  0  0  0  0  0  0  0  0  0  0
   -0.5500   19.5250  -31.9270 C   0  0  0  0  0  0  0  0  0  0  0  0
   -0.3960   18.2150  -32.7040 C   0  0  0  0  0  0  0  0  0  0  0  0
   -2.6900   17.3920  -34.7450 C   0  0  0  0  0  0  0  0  0  0  0  0
   -5.9340   20.5820  -32.4720 C   0  0  0  0  0  0  0  0  0  0  0  0
   -7.0160   21.3220  -32.1840 N   0  0  0  0  0  0  0  0  0  0  0  0
   -7.0280   23.0180  -31.8210 S   0  0  0  0  0  0  0  0  0  0  0  0
   -8.2900   23.3490  -31.0740 O   0  0  0  0  0  0  0  0  0  0  0  0
   -6.9940   23.8140  -33.0960 O   0  0  0  0  0  0  0  0  0  0  0  0
   -5.6090   23.4270  -30.8630 C   0  0  0  0  0  0  0  0  0  0  0  0
   -4.3270   23.0480  -31.2820 C   0  0  0  0  0  0  0  0  0  0  0  0
   -3.2070   23.3960  -30.5220 C   0  0  0  0  0  0  0  0  0  0  0  0
   -3.3600   24.1210  -29.3310 C   0  0  0  0  0  0  0  0  0  0  0  0
   -1.9490   24.5760  -28.3830 S   0  0  0  0  0  0  0  0  0  0  0  0
   -1.3260   26.0810  -28.9590 N   0  0  0  0  0  0  0  0  0  0  0  0
   -0.8890   23.5170  -28.5040 O   0  0  0  0  0  0  0  0  0  0  0  0
   -2.3320   24.7110  -26.9350 O   0  0  0  0  0  0  0  0  0  0  0  0
   -4.6410   24.5060  -28.9150 C   0  0  0  0  0  0  0  0  0  0  0  0
   -5.7620   24.1580  -29.6770 C   0  0  0  0  0  0  0  0  0  0  0  0
   -9.6338   20.9045  -30.8522 H   0  0  0  0  0  0  0  0  0  0  0  0
   -9.6894   21.8513  -32.3777 H   0  0  0  0  0  0  0  0  0  0  0  0
  -10.1659   20.1194  -32.3777 H   0  0  0  0  0  0  0  0  0  0  0  0
   -5.2070   17.5540  -32.2570 H   0  0  0  0  0  0  0  0  0  0  0  0
   -5.3308   15.2151  -34.8018 H   0  0  0  0  0  0  0  0  0  0  0  0
   -3.4761   13.6084  -35.2393 H   0  0  0  0  0  0  0  0  0  0  0  0
   -1.1196   14.4141  -35.3485 H   0  0  0  0  0  0  0  0  0  0  0  0
    0.7066   20.4486  -34.4641 H   0  0  0  0  0  0  0  0  0  0  0  0
   -0.1655   19.5007  -35.7545 H   0  0  0  0  0  0  0  0  0  0  0  0
   -1.6115   21.2349  -34.7309 H   0  0  0  0  0  0  0  0  0  0  0  0
   -2.2169   19.5534  -34.4514 H   0  0  0  0  0  0  0  0  0  0  0  0
   -1.0609   21.5439  -32.5004 H   0  0  0  0  0  0  0  0  0  0  0  0
   -2.4665   20.3975  -32.3402 H   0  0  0  0  0  0  0  0  0  0  0  0
    0.4444   19.9689  -31.7714 H   0  0  0  0  0  0  0  0  0  0  0  0
   -1.0311   19.3036  -30.9629 H   0  0  0  0  0  0  0  0  0  0  0  0
    0.2046   17.5131  -32.1068 H   0  0  0  0  0  0  0  0  0  0  0  0
   -1.3990   17.8057  -32.8951 H   0  0  0  0  0  0  0  0  0  0  0  0
   -2.4673   18.4625  -34.6251 H   0  0  0  0  0  0  0  0  0  0  0  0
   -4.8959   20.9409  -32.5322 H   0  0  0  0  0  0  0  0  0  0  0  0
   -4.2015   22.4746  -32.2123 H   0  0  0  0  0  0  0  0  0  0  0  0
   -2.2024   23.1005  -30.8588 H   0  0  0  0  0  0  0  0  0  0  0  0
   -1.2400   25.9980  -29.9970 H   0  0  0  0  0  0  0  0  0  0  0  0
   -4.7661   25.0833  -27.9871 H   0  0  0  0  0  0  0  0  0  0  0  0
   -6.7663   24.4591  -29.3441 H   0  0  0  0  0  0  0  0  0  0  0  0
  1  2  1  0
  2  3  2  0
  3  4  1  0
  4  5  1  0
  5  6  1  0
  6  7  2  0
  6  8  1  0
  8  9  2  0
  9 10  1  0
 10 11  2  0
 11 12  1  0
 12 13  1  0
 13 14  2  0
 13 15  2  0
 13 16  1  0
 16 17  1  0
 17 18  1  0
 18 19  1  0
 19 20  1  0
 20 21  1  0
 12 22  2  0
  4 23  2  0
 23 24  1  0
 24 25  1  0
 25 26  2  0
 25 27  2  0
 25 28  1  0
 28 29  2  0
 29 30  1  0
 30 31  2  0
 31 32  1  0
 32 33  1  0
 32 34  2  0
 32 35  2  0
 31 36  1  0
 36 37  2  0
 24  2  1  0
 37 28  1  0
 22  8  1  0
 21 16  1  0
  1 38  1  0
  1 39  1  0
  1 40  1  0
  5 41  1  0
  9 42  1  0
 10 43  1  0
 11 44  1  0
 17 45  1  0
 17 46  1  0
 18 47  1  0
 18 48  1  0
 19 49  1  0
 19 50  1  0
 20 51  1  0
 20 52  1  0
 21 53  1  0
 21 54  1  0
 22 55  1  0
 23 56  1  0
 29 57  1  0
 30 58  1  0
 33 59  1  0
 36 60  1  0
 37 61  1  0
M  CHG  1  33  -1
M  END
>  <UniqueID>  (16) 
16

>  <SMILES>  (16) 
Cc1nc(NC(=O)c2cccc(S(=O)(=O)N3CCCCC3)c2)cn1S(=O)(=O)c1ccc(S([NH-])(=O)=O)cc1

>  <Energy>  (16) 
100.5772496743668

>  <Genealogy>  (16) 
Cc1nc(NC(=O)c2cccc(S(=O)(=O)N3CCCCC3)c2)cn1S(=O)(=O)c1ccc(S([NH-])(=O)=O)cc1 (protonated)
Cc1nc(NC(=O)c2cccc(S(=O)(=O)N3CCCCC3)c2)cn1S(=O)(=O)c1ccc(S([NH-])(=O)=O)cc1 (3D coordinates assigned)
Cc1nc(NC(=O)c2cccc(S(=O)(=O)N3CCCCC3)c2)cn1S(=O)(=O)c1ccc(S([NH-])(=O)=O)cc1 (nonaromatic ring conformer: 100.5772496743668 kcal/mol)

>  <smiles>  (16) 
Cc1nc(NC(=O)c2cccc(S(=O)(=O)N3CCCCC3)c2)cn1S(=O)(=O)c1ccc(S(N)(=O)=O)cc1

>  <score_type>  (16) 
oracle

>  <origin>  (16) 
adgpu

>  <m_score__min__energy>  (16) 
-12.43

>  <m_primary>  (16) 
energy

$$$$
16:0
     RDKit          3D

 53 56  0  0  0  0  0  0  0  0999 V2000
   -4.0340   25.5860  -30.5290 O   0  0  0  0  0  0  0  0  0  0  0  0
   -3.9280   24.3320  -30.4710 C   0  0  0  0  0  0  0  0  0  0  0  0
   -4.6710   23.5380  -31.4050 N   0  0  0  0  0  0  0  0  0  0  0  0
   -4.2070   22.3530  -32.0740 C   0  0  0  0  0  0  0  0  0  0  0  0
   -2.8430   22.1700  -32.3590 C   0  0  0  0  0  0  0  0  0  0  0  0
   -2.4050   21.0250  -33.0370 C   0  0  0  0  0  0  0  0  0  0  0  0
   -0.6950   20.7890  -33.3850 S   0  0  0  0  0  0  0  0  0  0  0  0
   -0.2580   21.8460  -34.3600 O   0  0  0  0  0  0  0  0  0  0  0  0
   -0.4790   19.4390  -34.0140 O   0  0  0  0  0  0  0  0  0  0  0  0
    0.2340   20.9280  -31.9070 N   0  0  0  0  0  0  0  0  0  0  0  0
   -0.6540   20.9990  -30.7420 C   0  0  0  0  0  0  0  0  0  0  0  0
   -0.8450   19.5870  -30.2040 C   0  0  0  0  0  0  0  0  0  0  0  0
    0.2630   18.7610  -30.8290 C   0  0  0  0  0  0  0  0  0  0  0  0
    1.0520   19.7270  -31.7020 C   0  0  0  0  0  0  0  0  0  0  0  0
   -3.3380   20.0750  -33.4650 C   0  0  0  0  0  0  0  0  0  0  0  0
   -4.6980   20.2630  -33.2120 C   0  0  0  0  0  0  0  0  0  0  0  0
   -5.1420   21.3980  -32.5160 C   0  0  0  0  0  0  0  0  0  0  0  0
   -6.5440   21.5770  -32.2530 N   0  0  0  0  0  0  0  0  0  0  0  0
   -7.4210   20.4070  -32.1670 C   0  0  0  0  0  0  0  0  0  0  0  0
   -8.6240   20.7340  -31.2790 C   0  0  0  0  0  0  0  0  0  0  0  0
   -9.2650   21.9190  -31.7180 O   0  0  0  0  0  0  0  0  0  0  0  0
   -8.3940   23.0230  -31.5640 C   0  0  0  0  0  0  0  0  0  0  0  0
   -7.1710   22.8820  -32.4750 C   0  0  0  0  0  0  0  0  0  0  0  0
   -3.0940   23.7200  -29.4080 C   0  0  0  0  0  0  0  0  0  0  0  0
   -3.4120   22.4420  -28.9110 C   0  0  0  0  0  0  0  0  0  0  0  0
   -2.6290   21.8530  -27.9140 C   0  0  0  0  0  0  0  0  0  0  0  0
   -1.5290   22.5360  -27.3940 C   0  0  0  0  0  0  0  0  0  0  0  0
   -1.2090   23.8100  -27.8680 C   0  0  0  0  0  0  0  0  0  0  0  0
   -1.9850   24.4050  -28.8700 C   0  0  0  0  0  0  0  0  0  0  0  0
   -1.6330   25.6680  -29.3360 O   0  0  0  0  0  0  0  0  0  0  0  0
   -2.1135   22.9320  -32.0472 H   0  0  0  0  0  0  0  0  0  0  0  0
   -0.2016   21.6350  -29.9669 H   0  0  0  0  0  0  0  0  0  0  0  0
   -1.6240   21.4313  -31.0287 H   0  0  0  0  0  0  0  0  0  0  0  0
   -0.7587   19.5786  -29.1074 H   0  0  0  0  0  0  0  0  0  0  0  0
   -1.8399   19.1878  -30.4506 H   0  0  0  0  0  0  0  0  0  0  0  0
    0.9096   18.3331  -30.0487 H   0  0  0  0  0  0  0  0  0  0  0  0
   -0.1372   17.9191  -31.4129 H   0  0  0  0  0  0  0  0  0  0  0  0
    1.9934   19.9980  -31.2016 H   0  0  0  0  0  0  0  0  0  0  0  0
    1.2911   19.2591  -32.6684 H   0  0  0  0  0  0  0  0  0  0  0  0
   -2.9992   19.1771  -34.0025 H   0  0  0  0  0  0  0  0  0  0  0  0
   -5.4267   19.5163  -33.5606 H   0  0  0  0  0  0  0  0  0  0  0  0
   -7.7715   20.1369  -33.1741 H   0  0  0  0  0  0  0  0  0  0  0  0
   -6.8643   19.5631  -31.7334 H   0  0  0  0  0  0  0  0  0  0  0  0
   -9.3401   19.9000  -31.3201 H   0  0  0  0  0  0  0  0  0  0  0  0
   -8.2712   20.8847  -30.2481 H   0  0  0  0  0  0  0  0  0  0  0  0
   -8.9326   23.9463  -31.8237 H   0  0  0  0  0  0  0  0  0  0  0  0
   -8.0528   23.0599  -30.5189 H   0  0  0  0  0  0  0  0  0  0  0  0
   -7.4854   22.9636  -33.5259 H   0  0  0  0  0  0  0  0  0  0  0  0
   -6.4489   23.6793  -32.2450 H   0  0  0  0  0  0  0  0  0  0  0  0
   -4.2835   21.9025  -29.3103 H   0  0  0  0  0  0  0  0  0  0  0  0
   -2.8803   20.8499  -27.5390 H   0  0  0  0  0  0  0  0  0  0  0  0
   -0.9134   22.0706  -26.6101 H   0  0  0  0  0  0  0  0  0  0  0  0
   -0.3441   24.3480  -27.4526 H   0  0  0  0  0  0  0  0  0  0  0  0
  1  2  2  0
  2  3  1  0
  3  4  1  0
  4  5  2  0
  5  6  1  0
  6  7  1  0
  7  8  2  0
  7  9  2  0
  7 10  1  0
 10 11  1  0
 11 12  1  0
 12 13  1  0
 13 14  1  0
  6 15  2  0
 15 16  1  0
 16 17  2  0
 17 18  1  0
 18 19  1  0
 19 20  1  0
 20 21  1  0
 21 22  1  0
 22 23  1  0
  2 24  1  0
 24 25  2  0
 25 26  1  0
 26 27  2  0
 27 28  1  0
 28 29  2  0
 29 30  1  0
 17  4  1  0
 23 18  1  0
 29 24  1  0
 14 10  1  0
  5 31  1  0
 11 32  1  0
 11 33  1  0
 12 34  1  0
 12 35  1  0
 13 36  1  0
 13 37  1  0
 14 38  1  0
 14 39  1  0
 15 40  1  0
 16 41  1  0
 19 42  1  0
 19 43  1  0
 20 44  1  0
 20 45  1  0
 22 46  1  0
 22 47  1  0
 23 48  1  0
 23 49  1  0
 25 50  1  0
 26 51  1  0
 27 52  1  0
 28 53  1  0
M  CHG  2   3  -1  30  -1
M  END
>  <UniqueID>  (17) 
17

>  <SMILES>  (17) 
O=C([N-]c1cc(S(=O)(=O)N2CCCC2)ccc1N1CCOCC1)c1ccccc1[O-]

>  <Energy>  (17) 
69.01094328854376

>  <Genealogy>  (17) 
O=C([N-]c1cc(S(=O)(=O)N2CCCC2)ccc1N1CCOCC1)c1ccccc1[O-] (protonated)
O=C([N-]c1cc(S(=O)(=O)N2CCCC2)ccc1N1CCOCC1)c1ccccc1[O-] (3D coordinates assigned)
O=C([N-]c1cc(S(=O)(=O)N2CCCC2)ccc1N1CCOCC1)c1ccccc1[O-] (nonaromatic ring conformer: 69.01094328854376 kcal/mol)

>  <smiles>  (17) 
O=C(Nc1cc(S(=O)(=O)N2CCCC2)ccc1N1CCOCC1)c1ccccc1O

>  <score_type>  (17) 
oracle

>  <origin>  (17) 
adgpu

>  <m_score__min__energy>  (17) 
-13.27

>  <m_primary>  (17) 
energy

$$$$
17:0
     RDKit          3D

 70 74  0  0  0  0  0  0  0  0999 V2000
   -8.1300   21.9140  -30.3420 C   0  0  0  0  0  0  0  0  0  0  0  0
   -6.9090   22.7050  -30.5510 N   0  0  0  0  0  0  0  0  0  0  0  0
   -7.2450   24.1070  -30.8300 C   0  0  0  0  0  0  0  0  0  0  0  0
   -5.9710   24.9680  -30.8120 C   0  0  0  0  0  0  0  0  0  0  0  0
   -4.7490   24.2220  -31.1860 N   0  0  0  0  0  0  0  0  0  0  0  0
   -3.7670   23.7760  -29.8050 S   0  0  0  0  0  0  0  0  0  0  0  0
   -2.9730   24.9680  -29.3440 O   0  0  0  0  0  0  0  0  0  0  0  0
   -4.6730   23.3640  -28.6770 O   0  0  0  0  0  0  0  0  0  0  0  0
   -2.6650   22.4440  -30.1560 C   0  0  0  0  0  0  0  0  0  0  0  0
   -3.1660   21.1590  -30.3990 C   0  0  0  0  0  0  0  0  0  0  0  0
   -2.2960   20.1120  -30.7140 C   0  0  0  0  0  0  0  0  0  0  0  0
   -0.9160   20.3330  -30.7860 C   0  0  0  0  0  0  0  0  0  0  0  0
   -0.0830   19.2540  -31.1130 O   0  0  0  0  0  0  0  0  0  0  0  0
   -0.3580   18.3460  -32.1370 C   0  0  0  0  0  0  0  0  0  0  0  0
   -1.0350   18.7810  -33.2840 C   0  0  0  0  0  0  0  0  0  0  0  0
   -1.3080   17.8850  -34.3200 C   0  0  0  0  0  0  0  0  0  0  0  0
   -0.8790   16.5510  -34.2320 C   0  0  0  0  0  0  0  0  0  0  0  0
   -1.1870   15.4260  -35.5530 S   0  0  0  0  0  0  0  0  0  0  0  0
   -0.2810   15.7700  -36.7040 O   0  0  0  0  0  0  0  0  0  0  0  0
   -0.8780   14.0200  -35.1170 O   0  0  0  0  0  0  0  0  0  0  0  0
   -2.8310   15.5110  -36.1000 N   0  0  0  0  0  0  0  0  0  0  0  0
   -3.9080   15.9410  -35.2630 C   0  0  0  0  0  0  0  0  0  0  0  0
   -4.2490   17.2970  -35.1710 C   0  0  0  0  0  0  0  0  0  0  0  0
   -5.2970   17.7150  -34.3350 C   0  0  0  0  0  0  0  0  0  0  0  0
   -6.0060   16.7600  -33.5780 C   0  0  0  0  0  0  0  0  0  0  0  0
   -5.6940   15.3990  -33.7140 C   0  0  0  0  0  0  0  0  0  0  0  0
   -4.6510   14.9910  -34.5490 C   0  0  0  0  0  0  0  0  0  0  0  0
   -4.3490   13.6380  -34.6580 O   0  0  0  0  0  0  0  0  0  0  0  0
   -7.1630   17.1700  -32.6950 C   0  0  0  0  0  0  0  0  0  0  0  0
   -7.1100   18.5930  -32.3020 N   0  0  0  0  0  0  0  0  0  0  0  0
   -6.1240   18.8350  -31.2340 C   0  0  0  0  0  0  0  0  0  0  0  0
   -6.9070   19.4680  -33.4750 C   0  0  0  0  0  0  0  0  0  0  0  0
   -5.5780   19.1880  -34.1960 C   0  0  0  0  0  0  0  0  0  0  0  0
   -0.1960   16.1180  -33.0860 C   0  0  0  0  0  0  0  0  0  0  0  0
    0.0570   17.0070  -32.0330 C   0  0  0  0  0  0  0  0  0  0  0  0
    0.7230   16.5420  -30.9000 O   0  0  0  0  0  0  0  0  0  0  0  0
   -0.4120   21.6210  -30.5250 C   0  0  0  0  0  0  0  0  0  0  0  0
   -1.2820   22.6660  -30.2060 C   0  0  0  0  0  0  0  0  0  0  0  0
   -4.9860   23.1010  -32.1160 C   0  0  0  0  0  0  0  0  0  0  0  0
   -6.1090   22.1430  -31.6570 C   0  0  0  0  0  0  0  0  0  0  0  0
   -8.3108   21.7969  -29.2633 H   0  0  0  0  0  0  0  0  0  0  0  0
   -8.9848   22.4304  -30.8031 H   0  0  0  0  0  0  0  0  0  0  0  0
   -8.0082   20.9228  -30.8031 H   0  0  0  0  0  0  0  0  0  0  0  0
   -7.7183   24.1778  -31.8205 H   0  0  0  0  0  0  0  0  0  0  0  0
   -7.9380   24.4723  -30.0578 H   0  0  0  0  0  0  0  0  0  0  0  0
   -6.1023   25.7989  -31.5208 H   0  0  0  0  0  0  0  0  0  0  0  0
   -5.8323   25.3190  -29.7788 H   0  0  0  0  0  0  0  0  0  0  0  0
   -4.2487   20.9732  -30.3417 H   0  0  0  0  0  0  0  0  0  0  0  0
   -2.6987   19.1067  -30.9068 H   0  0  0  0  0  0  0  0  0  0  0  0
   -1.3523   19.8308  -33.3688 H   0  0  0  0  0  0  0  0  0  0  0  0
   -1.8609   18.2256  -35.2078 H   0  0  0  0  0  0  0  0  0  0  0  0
   -3.6908   18.0406  -35.7588 H   0  0  0  0  0  0  0  0  0  0  0  0
   -6.2749   14.6476  -33.1591 H   0  0  0  0  0  0  0  0  0  0  0  0
   -8.1014   16.9912  -33.2405 H   0  0  0  0  0  0  0  0  0  0  0  0
   -7.1042   16.5708  -31.7744 H   0  0  0  0  0  0  0  0  0  0  0  0
   -6.6086   18.7160  -30.2537 H   0  0  0  0  0  0  0  0  0  0  0  0
   -5.2996   18.1125  -31.3255 H   0  0  0  0  0  0  0  0  0  0  0  0
   -5.7277   19.8571  -31.3255 H   0  0  0  0  0  0  0  0  0  0  0  0
   -7.7332   19.3062  -34.1829 H   0  0  0  0  0  0  0  0  0  0  0  0
   -6.8797   20.5073  -33.1158 H   0  0  0  0  0  0  0  0  0  0  0  0
   -5.6202   19.6354  -35.2000 H   0  0  0  0  0  0  0  0  0  0  0  0
   -4.7706   19.6269  -33.5914 H   0  0  0  0  0  0  0  0  0  0  0  0
    0.1431   15.0741  -33.0135 H   0  0  0  0  0  0  0  0  0  0  0  0
    0.9300   17.1440  -30.1100 H   0  0  0  0  0  0  0  0  0  0  0  0
    0.6714   21.8053  -30.5725 H   0  0  0  0  0  0  0  0  0  0  0  0
   -0.8801   23.6676  -29.9931 H   0  0  0  0  0  0  0  0  0  0  0  0
   -5.2617   23.5153  -33.0970 H   0  0  0  0  0  0  0  0  0  0  0  0
   -4.0570   22.5133  -32.1562 H   0  0  0  0  0  0  0  0  0  0  0  0
   -6.7749   21.9446  -32.5097 H   0  0  0  0  0  0  0  0  0  0  0  0
   -5.6350   21.2194  -31.2933 H   0  0  0  0  0  0  0  0  0  0  0  0
  1  2  1  0
  2  3  1  0
  3  4  1  0
  4  5  1  0
  5  6  1  0
  6  7  2  0
  6  8  2  0
  6  9  1  0
  9 10  2  0
 10 11  1  0
 11 12  2  0
 12 13  1  0
 13 14  1  0
 14 15  2  0
 15 16  1  0
 16 17  2  0
 17 18  1  0
 18 19  2  0
 18 20  2  0
 18 21  1  0
 21 22  1  0
 22 23  2  0
 23 24  1  0
 24 25  2  0
 25 26  1  0
 26 27  2  0
 27 28  1  0
 25 29  1  0
 29 30  1  0
 30 31  1  0
 30 32  1  0
 32 33  1  0
 17 34  1  0
 34 35  2  0
 35 36  1  0
 12 37  1  0
 37 38  2  0
  5 39  1  0
 39 40  1  0
 40  2  1  0
 38  9  1  0
 35 14  1  0
 27 22  1  0
 33 24  1  0
  1 41  1  0
  1 42  1  0
  1 43  1  0
  3 44  1  0
  3 45  1  0
  4 46  1  0
  4 47  1  0
 10 48  1  0
 11 49  1  0
 15 50  1  0
 16 51  1  0
 23 52  1  0
 26 53  1  0
 29 54  1  0
 29 55  1  0
 31 56  1  0
 31 57  1  0
 31 58  1  0
 32 59  1  0
 32 60  1  0
 33 61  1  0
 33 62  1  0
 34 63  1  0
 36 64  1  0
 37 65  1  0
 38 66  1  0
 39 67  1  0
 39 68  1  0
 40 69  1  0
 40 70  1  0
M  CHG  2  21  -1  28  -1
M  END
>  <UniqueID>  (18) 
18

>  <SMILES>  (18) 
CN1CCN(S(=O)(=O)c2ccc(Oc3ccc(S(=O)(=O)[N-]c4cc5c(cc4[O-])CN(C)CC5)cc3O)cc2)CC1

>  <Energy>  (18) 
104.96075297452336

>  <Genealogy>  (18) 
CN1CCN(S(=O)(=O)c2ccc(Oc3ccc(S(=O)(=O)[N-]c4cc5c(cc4[O-])CN(C)CC5)cc3O)cc2)CC1 (protonated)
CN1CCN(S(=O)(=O)c2ccc(Oc3ccc(S(=O)(=O)[N-]c4cc5c(cc4[O-])CN(C)CC5)cc3O)cc2)CC1 (3D coordinates assigned)
CN1CCN(S(=O)(=O)c2ccc(Oc3ccc(S(=O)(=O)[N-]c4cc5c(cc4[O-])CN(C)CC5)cc3O)cc2)CC1 (nonaromatic ring conformer: 104.96075297452336 kcal/mol)

>  <smiles>  (18) 
CN1CCN(S(=O)(=O)c2ccc(Oc3ccc(S(=O)(=O)Nc4cc5c(cc4O)CN(C)CC5)cc3O)cc2)CC1

>  <score_type>  (18) 
oracle

>  <origin>  (18) 
adgpu

>  <m_score__min__energy>  (18) 
-14.960000000000001

>  <m_primary>  (18) 
energy

$$$$
18:0
     RDKit          3D

 66 70  0  0  0  0  0  0  0  0999 V2000
   -3.3120   18.0790  -34.0390 C   0  0  0  0  0  0  0  0  0  0  0  0
   -4.2130   18.6870  -32.9570 C   0  0  0  0  0  0  0  0  0  0  0  0
   -5.0680   19.8490  -33.5260 C   0  0  0  0  0  0  0  0  0  0  0  0
   -6.4890   19.3850  -33.8900 C   0  0  0  0  0  0  0  0  0  0  0  0
   -7.2190   18.7900  -32.7420 N   0  0  0  0  0  0  0  0  0  0  0  0
   -8.3430   19.9320  -32.0360 S   0  0  0  0  0  0  0  0  0  0  0  0
   -9.3440   20.3540  -33.0780 O   0  0  0  0  0  0  0  0  0  0  0  0
   -9.0940   19.2730  -30.9120 O   0  0  0  0  0  0  0  0  0  0  0  0
   -7.5070   21.3610  -31.4190 C   0  0  0  0  0  0  0  0  0  0  0  0
   -6.4770   21.9560  -32.1650 C   0  0  0  0  0  0  0  0  0  0  0  0
   -5.8410   23.1090  -31.6910 C   0  0  0  0  0  0  0  0  0  0  0  0
   -6.2370   23.6810  -30.4740 C   0  0  0  0  0  0  0  0  0  0  0  0
   -5.3990   25.0950  -29.8470 S   0  0  0  0  0  0  0  0  0  0  0  0
   -6.1220   26.3520  -30.2440 O   0  0  0  0  0  0  0  0  0  0  0  0
   -5.3430   25.0320  -28.3460 O   0  0  0  0  0  0  0  0  0  0  0  0
   -3.7910   25.0930  -30.4810 N   0  0  0  0  0  0  0  0  0  0  0  0
   -2.8020   24.1920  -29.9820 C   0  0  0  0  0  0  0  0  0  0  0  0
   -2.9140   22.8150  -30.2170 C   0  0  0  0  0  0  0  0  0  0  0  0
   -1.9600   21.9260  -29.6990 C   0  0  0  0  0  0  0  0  0  0  0  0
   -0.8760   22.4270  -28.9500 C   0  0  0  0  0  0  0  0  0  0  0  0
   -0.7750   23.8090  -28.7120 C   0  0  0  0  0  0  0  0  0  0  0  0
   -1.7270   24.6880  -29.2330 C   0  0  0  0  0  0  0  0  0  0  0  0
   -1.6150   26.0540  -28.9830 O   0  0  0  0  0  0  0  0  0  0  0  0
    0.1110   21.4940  -28.2970 C   0  0  0  0  0  0  0  0  0  0  0  0
    0.1620   20.1700  -28.9610 N   0  0  0  0  0  0  0  0  0  0  0  0
    1.1000   19.2470  -28.2640 C   0  0  0  0  0  0  0  0  0  0  0  0
    0.4060   18.1370  -27.4400 C   0  0  0  0  0  0  0  0  0  0  0  0
   -0.8870   18.6390  -26.7870 C   0  0  0  0  0  0  0  0  0  0  0  0
   -1.8690   19.2310  -27.8170 C   0  0  0  0  0  0  0  0  0  0  0  0
   -1.1780   19.5720  -29.1610 C   0  0  1  0  0  0  0  0  0  0  0  0
   -2.0510   20.4670  -30.0570 C   0  0  0  0  0  0  0  0  0  0  0  0
   -7.2550   23.0780  -29.7210 C   0  0  0  0  0  0  0  0  0  0  0  0
   -7.8840   21.9220  -30.1890 C   0  0  0  0  0  0  0  0  0  0  0  0
   -6.3520   18.2040  -31.6930 C   0  0  0  0  0  0  0  0  0  0  0  0
   -5.0830   17.5930  -32.2950 C   0  0  0  0  0  0  0  0  0  0  0  0
   -2.4901   17.5244  -33.5627 H   0  0  0  0  0  0  0  0  0  0  0  0
   -3.9022   17.3938  -34.6652 H   0  0  0  0  0  0  0  0  0  0  0  0
   -2.8974   18.8828  -34.6652 H   0  0  0  0  0  0  0  0  0  0  0  0
   -3.5728   19.1182  -32.1733 H   0  0  0  0  0  0  0  0  0  0  0  0
   -5.1357   20.6451  -32.7699 H   0  0  0  0  0  0  0  0  0  0  0  0
   -4.5819   20.2156  -34.4421 H   0  0  0  0  0  0  0  0  0  0  0  0
   -7.0580   20.2528  -34.2550 H   0  0  0  0  0  0  0  0  0  0  0  0
   -6.3924   18.6035  -34.6581 H   0  0  0  0  0  0  0  0  0  0  0  0
   -6.1692   21.5148  -33.1245 H   0  0  0  0  0  0  0  0  0  0  0  0
   -5.0289   23.5673  -32.2745 H   0  0  0  0  0  0  0  0  0  0  0  0
   -3.7551   22.4286  -30.8113 H   0  0  0  0  0  0  0  0  0  0  0  0
    0.0593   24.2005  -28.1115 H   0  0  0  0  0  0  0  0  0  0  0  0
    1.1110   21.9502  -28.3415 H   0  0  0  0  0  0  0  0  0  0  0  0
   -0.2141   21.3357  -27.2581 H   0  0  0  0  0  0  0  0  0  0  0  0
    1.7370   18.7666  -29.0213 H   0  0  0  0  0  0  0  0  0  0  0  0
    1.6715   19.8585  -27.5502 H   0  0  0  0  0  0  0  0  0  0  0  0
    0.1652   17.2959  -28.1068 H   0  0  0  0  0  0  0  0  0  0  0  0
    1.0937   17.8227  -26.6410 H   0  0  0  0  0  0  0  0  0  0  0  0
   -1.3756   17.7965  -26.2756 H   0  0  0  0  0  0  0  0  0  0  0  0
   -0.6193   19.4371  -26.0789 H   0  0  0  0  0  0  0  0  0  0  0  0
   -2.6675   18.4984  -28.0059 H   0  0  0  0  0  0  0  0  0  0  0  0
   -2.2713   20.1657  -27.3992 H   0  0  0  0  0  0  0  0  0  0  0  0
   -1.0420   18.6150  -29.6861 H   0  0  0  0  0  0  0  0  0  0  0  0
   -1.7263   20.3413  -31.1004 H   0  0  0  0  0  0  0  0  0  0  0  0
   -3.0965   20.1575  -29.9118 H   0  0  0  0  0  0  0  0  0  0  0  0
   -7.5589   23.5167  -28.7591 H   0  0  0  0  0  0  0  0  0  0  0  0
   -8.6776   21.4497  -29.5914 H   0  0  0  0  0  0  0  0  0  0  0  0
   -6.0668   18.9934  -30.9820 H   0  0  0  0  0  0  0  0  0  0  0  0
   -6.9136   17.4061  -31.1851 H   0  0  0  0  0  0  0  0  0  0  0  0
   -4.5040   17.1039  -31.4978 H   0  0  0  0  0  0  0  0  0  0  0  0
   -5.3722   16.8583  -33.0609 H   0  0  0  0  0  0  0  0  0  0  0  0
  1  2  1  0
  2  3  1  0
  3  4  1  0
  4  5  1  0
  5  6  1  0
  6  7  2  0
  6  8  2  0
  6  9  1  0
  9 10  2  0
 10 11  1  0
 11 12  2  0
 12 13  1  0
 13 14  2  0
 13 15  2  0
 13 16  1  0
 16 17  1  0
 17 18  2  0
 18 19  1  0
 19 20  2  0
 20 21  1  0
 21 22  2  0
 22 23  1  0
 20 24  1  0
 24 25  1  0
 25 26  1  0
 26 27  1  0
 27 28  1  0
 28 29  1  0
 29 30  1  0
 30 31  1  0
 12 32  1  0
 32 33  2  0
  5 34  1  0
 34 35  1  0
 35  2  1  0
 33  9  1  0
 22 17  1  0
 30 25  1  0
 31 19  1  0
  1 36  1  0
  1 37  1  0
  1 38  1  0
  2 39  1  0
  3 40  1  0
  3 41  1  0
  4 42  1  0
  4 43  1  0
 10 44  1  0
 11 45  1  0
 18 46  1  0
 21 47  1  0
 24 48  1  0
 24 49  1  0
 26 50  1  0
 26 51  1  0
 27 52  1  0
 27 53  1  0
 28 54  1  0
 28 55  1  0
 29 56  1  0
 29 57  1  0
 30 58  1  6
 31 59  1  0
 31 60  1  0
 32 61  1  0
 33 62  1  0
 34 63  1  0
 34 64  1  0
 35 65  1  0
 35 66  1  0
M  CHG  2  16  -1  23  -1
M  END
>  <UniqueID>  (19) 
19

>  <SMILES>  (19) 
CC1CCN(S(=O)(=O)c2ccc(S(=O)(=O)[N-]c3cc4c(cc3[O-])CN3CCCC[C@H]3C4)cc2)CC1

>  <Energy>  (19) 
93.36390465868395

>  <Genealogy>  (19) 
CC1CCN(S(=O)(=O)c2ccc(S(=O)(=O)[N-]c3cc4c(cc3[O-])CN3CCCCC3C4)cc2)CC1 (protonated)
CC1CCN(S(=O)(=O)c2ccc(S(=O)(=O)[N-]c3cc4c(cc3[O-])CN3CCCC[C@H]3C4)cc2)CC1 (chirality)
CC1CCN(S(=O)(=O)c2ccc(S(=O)(=O)[N-]c3cc4c(cc3[O-])CN3CCCC[C@H]3C4)cc2)CC1 (3D coordinates assigned)
CC1CCN(S(=O)(=O)c2ccc(S(=O)(=O)[N-]c3cc4c(cc3[O-])CN3CCCC[C@H]3C4)cc2)CC1 (nonaromatic ring conformer: 93.36390465868395 kcal/mol)

>  <smiles>  (19) 
CC1CCN(S(=O)(=O)c2ccc(S(=O)(=O)Nc3cc4c(cc3O)CN3CCCCC3C4)cc2)CC1

>  <score_type>  (19) 
oracle

>  <origin>  (19) 
adgpu

>  <m_score__min__energy>  (19) 
-15.880000000000001

>  <m_primary>  (19) 
energy

$$$$
19:0
     RDKit          3D

 51 54  0  0  0  0  0  0  0  0999 V2000
   -5.7330   26.0200  -30.4270 O   0  0  0  0  0  0  0  0  0  0  0  0
   -4.9810   25.0110  -30.4880 C   0  0  0  0  0  0  0  0  0  0  0  0
   -5.5790   23.6410  -30.4670 C   0  0  0  0  0  0  0  0  0  0  0  0
   -6.3660   23.4250  -31.6830 N   0  0  0  0  0  0  0  0  0  0  0  0
   -7.7540   22.4240  -31.3680 S   0  0  0  0  0  0  0  0  0  0  0  0
   -7.9630   22.3210  -29.8840 O   0  0  0  0  0  0  0  0  0  0  0  0
   -8.9820   23.0400  -31.9810 O   0  0  0  0  0  0  0  0  0  0  0  0
   -7.4890   20.8120  -32.0260 C   0  0  0  0  0  0  0  0  0  0  0  0
   -8.4710   19.8110  -31.8380 C   0  0  0  0  0  0  0  0  0  0  0  0
   -8.2750   18.5110  -32.3370 C   0  0  0  0  0  0  0  0  0  0  0  0
   -7.0860   18.2420  -33.0130 C   0  0  0  0  0  0  0  0  0  0  0  0
   -6.6290   17.0690  -33.5870 C   0  0  0  0  0  0  0  0  0  0  0  0
   -7.2390   15.9690  -33.6150 O   0  0  0  0  0  0  0  0  0  0  0  0
   -5.3780   17.3210  -34.1230 C   0  0  0  0  0  0  0  0  0  0  0  0
   -4.6480   16.4860  -34.7240 O   0  0  0  0  0  0  0  0  0  0  0  0
   -5.0640   18.6470  -33.8800 C   0  0  0  0  0  0  0  0  0  0  0  0
   -4.0000   19.2310  -34.2190 O   0  0  0  0  0  0  0  0  0  0  0  0
   -6.1230   19.2130  -33.1940 C   0  0  0  0  0  0  0  0  0  0  0  0
   -6.2940   20.5100  -32.7130 C   0  0  0  0  0  0  0  0  0  0  0  0
   -3.5550   25.1570  -30.4890 N   0  0  0  0  0  0  0  0  0  0  0  0
   -2.6090   24.3810  -29.7360 C   0  0  0  0  0  0  0  0  0  0  0  0
   -2.6650   22.9750  -29.6980 C   0  0  0  0  0  0  0  0  0  0  0  0
   -1.7370   22.2490  -28.9390 C   0  0  0  0  0  0  0  0  0  0  0  0
   -1.8290   20.4910  -28.8900 S   0  0  0  0  0  0  0  0  0  0  0  0
   -3.1850   20.0640  -28.3930 O   0  0  0  0  0  0  0  0  0  0  0  0
   -0.7860   19.9700  -27.9400 O   0  0  0  0  0  0  0  0  0  0  0  0
   -1.5330   19.8540  -30.4880 N   0  0  0  0  0  0  0  0  0  0  0  0
   -0.2090   20.2370  -30.9780 C   0  0  0  0  0  0  0  0  0  0  0  0
   -0.3010   20.2790  -32.4960 C   0  0  0  0  0  0  0  0  0  0  0  0
   -1.7880   20.3370  -32.8120 C   0  0  0  0  0  0  0  0  0  0  0  0
   -2.4800   20.3980  -31.4600 C   0  0  0  0  0  0  0  0  0  0  0  0
   -0.7690   22.9290  -28.1900 C   0  0  0  0  0  0  0  0  0  0  0  0
   -0.7270   24.3260  -28.2030 C   0  0  0  0  0  0  0  0  0  0  0  0
   -1.6450   25.0500  -28.9680 C   0  0  0  0  0  0  0  0  0  0  0  0
   -1.5940   26.4390  -28.9650 O   0  0  0  0  0  0  0  0  0  0  0  0
   -4.7749   22.8922  -30.4145 H   0  0  0  0  0  0  0  0  0  0  0  0
   -6.2337   23.5437  -29.5884 H   0  0  0  0  0  0  0  0  0  0  0  0
   -9.3973   20.0521  -31.2959 H   0  0  0  0  0  0  0  0  0  0  0  0
   -9.0370   17.7299  -32.1981 H   0  0  0  0  0  0  0  0  0  0  0  0
   -5.5195   21.2763  -32.8646 H   0  0  0  0  0  0  0  0  0  0  0  0
   -3.4415   22.4430  -30.2672 H   0  0  0  0  0  0  0  0  0  0  0  0
    0.0682   21.2272  -30.5873 H   0  0  0  0  0  0  0  0  0  0  0  0
    0.5580   19.5212  -30.6474 H   0  0  0  0  0  0  0  0  0  0  0  0
    0.2102   21.1708  -32.8875 H   0  0  0  0  0  0  0  0  0  0  0  0
    0.1805   19.4046  -32.9582 H   0  0  0  0  0  0  0  0  0  0  0  0
   -2.0216   21.2330  -33.4058 H   0  0  0  0  0  0  0  0  0  0  0  0
   -2.1169   19.4700  -33.4038 H   0  0  0  0  0  0  0  0  0  0  0  0
   -2.7296   21.4389  -31.2068 H   0  0  0  0  0  0  0  0  0  0  0  0
   -3.4192   19.8254  -31.4660 H   0  0  0  0  0  0  0  0  0  0  0  0
   -0.0407   22.3631  -27.5906 H   0  0  0  0  0  0  0  0  0  0  0  0
    0.0313   24.8572  -27.6090 H   0  0  0  0  0  0  0  0  0  0  0  0
  1  2  2  0
  2  3  1  0
  3  4  1  0
  4  5  1  0
  5  6  2  0
  5  7  2  0
  5  8  1  0
  8  9  2  0
  9 10  1  0
 10 11  2  0
 11 12  1  0
 12 13  2  0
 12 14  1  0
 14 15  2  0
 14 16  1  0
 16 17  2  0
 16 18  1  0
 18 19  2  0
  2 20  1  0
 20 21  1  0
 21 22  2  0
 22 23  1  0
 23 24  1  0
 24 25  2  0
 24 26  2  0
 24 27  1  0
 27 28  1  0
 28 29  1  0
 29 30  1  0
 30 31  1  0
 23 32  2  0
 32 33  1  0
 33 34  2  0
 34 35  1  0
 19  8  1  0
 34 21  1  0
 18 11  1  0
 31 27  1  0
  3 36  1  0
  3 37  1  0
  9 38  1  0
 10 39  1  0
 19 40  1  0
 22 41  1  0
 28 42  1  0
 28 43  1  0
 29 44  1  0
 29 45  1  0
 30 46  1  0
 30 47  1  0
 31 48  1  0
 31 49  1  0
 32 50  1  0
 33 51  1  0
M  CHG  3   4  -1  20  -1  35  -1
M  END
>  <UniqueID>  (20) 
20

>  <SMILES>  (20) 
O=C(C[N-]S(=O)(=O)c1ccc2c(=O)c(=O)c(=O)c2c1)[N-]c1cc(S(=O)(=O)N2CCCC2)ccc1[O-]

>  <Energy>  (20) 
92.9596485820968

>  <Genealogy>  (20) 
O=C(C[N-]S(=O)(=O)c1ccc2c(=O)c(=O)c(=O)c2c1)[N-]c1cc(S(=O)(=O)N2CCCC2)ccc1[O-] (protonated)
O=C(C[N-]S(=O)(=O)c1ccc2c(=O)c(=O)c(=O)c2c1)[N-]c1cc(S(=O)(=O)N2CCCC2)ccc1[O-] (3D coordinates assigned)
O=C(C[N-]S(=O)(=O)c1ccc2c(=O)c(=O)c(=O)c2c1)[N-]c1cc(S(=O)(=O)N2CCCC2)ccc1[O-] (nonaromatic ring conformer: 92.9596485820968 kcal/mol)

>  <smiles>  (20) 
O=C(CNS(=O)(=O)c1ccc2c(=O)c(=O)c(=O)c2c1)Nc1cc(S(=O)(=O)N2CCCC2)ccc1O

>  <score_type>  (20) 
oracle

>  <origin>  (20) 
adgpu

>  <m_score__min__energy>  (20) 
-15.67

>  <m_primary>  (20) 
energy

$$$$
20:0
     RDKit          3D

 56 58  0  0  0  0  0  0  0  0999 V2000
   -1.2910   19.1360  -32.9980 C   0  0  0  0  0  0  0  0  0  0  0  0
    0.0940   19.6630  -32.6410 C   0  0  0  0  0  0  0  0  0  0  0  0
    0.1560   20.0040  -31.2570 O   0  0  0  0  0  0  0  0  0  0  0  0
   -0.9130   20.5740  -30.5580 C   0  0  0  0  0  0  0  0  0  0  0  0
   -1.6380   21.4540  -31.1010 O   0  0  0  0  0  0  0  0  0  0  0  0
   -1.1670   20.1590  -29.2100 N   0  0  0  0  0  0  0  0  0  0  0  0
   -2.1630   20.8050  -28.3550 C   0  0  0  0  0  0  0  0  0  0  0  0
   -1.9960   22.3020  -28.3850 C   0  0  0  0  0  0  0  0  0  0  0  0
   -0.9480   22.9090  -27.6750 C   0  0  0  0  0  0  0  0  0  0  0  0
   -0.7380   24.2870  -27.7720 C   0  0  0  0  0  0  0  0  0  0  0  0
   -1.5690   25.0670  -28.5800 C   0  0  0  0  0  0  0  0  0  0  0  0
   -2.6330   24.4750  -29.2760 C   0  0  0  0  0  0  0  0  0  0  0  0
   -3.4770   25.2460  -30.1370 N   0  0  0  0  0  0  0  0  0  0  0  0
   -5.1620   24.8990  -30.3360 S   0  0  0  0  0  0  0  0  0  0  0  0
   -5.8300   24.8980  -28.9900 O   0  0  0  0  0  0  0  0  0  0  0  0
   -5.8150   25.9430  -31.1970 O   0  0  0  0  0  0  0  0  0  0  0  0
   -5.3110   23.3010  -31.0600 C   0  0  0  0  0  0  0  0  0  0  0  0
   -6.4450   22.5230  -30.8010 C   0  0  0  0  0  0  0  0  0  0  0  0
   -6.5290   21.2150  -31.2840 C   0  0  0  0  0  0  0  0  0  0  0  0
   -5.4720   20.6590  -32.0260 C   0  0  0  0  0  0  0  0  0  0  0  0
   -5.5340   19.2490  -32.4930 C   0  0  0  0  0  0  0  0  0  0  0  0
   -5.7950   18.2080  -31.5850 C   0  0  0  0  0  0  0  0  0  0  0  0
   -5.8060   16.8780  -32.0150 C   0  0  0  0  0  0  0  0  0  0  0  0
   -5.5560   16.5680  -33.3570 C   0  0  0  0  0  0  0  0  0  0  0  0
   -5.5610   14.8950  -33.9040 S   0  0  0  0  0  0  0  0  0  0  0  0
   -4.2380   14.6470  -35.0660 C   0  0  0  0  0  0  0  0  0  0  0  0
   -6.8720   14.5720  -34.5630 O   0  0  0  0  0  0  0  0  0  0  0  0
   -5.3740   13.9800  -32.7260 O   0  0  0  0  0  0  0  0  0  0  0  0
   -5.3160   17.5990  -34.2710 C   0  0  0  0  0  0  0  0  0  0  0  0
   -5.3030   18.9310  -33.8430 C   0  0  0  0  0  0  0  0  0  0  0  0
   -4.3390   21.4510  -32.2910 C   0  0  0  0  0  0  0  0  0  0  0  0
   -4.2590   22.7610  -31.8090 C   0  0  0  0  0  0  0  0  0  0  0  0
   -2.8570   23.0980  -29.1580 C   0  0  0  0  0  0  0  0  0  0  0  0
   -1.8512   18.9228  -32.0756 H   0  0  0  0  0  0  0  0  0  0  0  0
   -1.8301   19.8918  -33.5880 H   0  0  0  0  0  0  0  0  0  0  0  0
   -1.1912   18.2130  -33.5880 H   0  0  0  0  0  0  0  0  0  0  0  0
    0.8435   18.8873  -32.8569 H   0  0  0  0  0  0  0  0  0  0  0  0
    0.2978   20.5633  -33.2393 H   0  0  0  0  0  0  0  0  0  0  0  0
   -0.5820   19.3930  -28.8070 H   0  0  0  0  0  0  0  0  0  0  0  0
   -3.1701   20.5462  -28.7139 H   0  0  0  0  0  0  0  0  0  0  0  0
   -2.0255   20.4533  -27.3219 H   0  0  0  0  0  0  0  0  0  0  0  0
   -0.2899   22.2977  -27.0401 H   0  0  0  0  0  0  0  0  0  0  0  0
    0.0827   24.7583  -27.2114 H   0  0  0  0  0  0  0  0  0  0  0  0
   -1.3883   26.1483  -28.6705 H   0  0  0  0  0  0  0  0  0  0  0  0
   -7.2747   22.9437  -30.2139 H   0  0  0  0  0  0  0  0  0  0  0  0
   -7.4289   20.6154  -31.0823 H   0  0  0  0  0  0  0  0  0  0  0  0
   -5.9920   18.4418  -30.5283 H   0  0  0  0  0  0  0  0  0  0  0  0
   -6.0120   16.0716  -31.2958 H   0  0  0  0  0  0  0  0  0  0  0  0
   -3.2991   14.4710  -34.5206 H   0  0  0  0  0  0  0  0  0  0  0  0
   -4.4637   13.7755  -35.6981 H   0  0  0  0  0  0  0  0  0  0  0  0
   -4.1328   15.5411  -35.6981 H   0  0  0  0  0  0  0  0  0  0  0  0
   -5.1368   17.3619  -35.3301 H   0  0  0  0  0  0  0  0  0  0  0  0
   -5.1106   19.7355  -34.5681 H   0  0  0  0  0  0  0  0  0  0  0  0
   -3.5095   21.0358  -32.8823 H   0  0  0  0  0  0  0  0  0  0  0  0
   -3.3667   23.3691  -32.0190 H   0  0  0  0  0  0  0  0  0  0  0  0
   -3.7123   22.6369  -29.6737 H   0  0  0  0  0  0  0  0  0  0  0  0
  1  2  1  0
  2  3  1  0
  3  4  1  0
  4  5  2  0
  4  6  1  0
  6  7  1  0
  7  8  1  0
  8  9  2  0
  9 10  1  0
 10 11  2  0
 11 12  1  0
 12 13  1  0
 13 14  1  0
 14 15  2  0
 14 16  2  0
 14 17  1  0
 17 18  2  0
 18 19  1  0
 19 20  2  0
 20 21  1  0
 21 22  2  0
 22 23  1  0
 23 24  2  0
 24 25  1  0
 25 26  1  0
 25 27  2  0
 25 28  2  0
 24 29  1  0
 29 30  2  0
 20 31  1  0
 31 32  2  0
 12 33  2  0
 33  8  1  0
 32 17  1  0
 30 21  1  0
  1 34  1  0
  1 35  1  0
  1 36  1  0
  2 37  1  0
  2 38  1  0
  6 39  1  0
  7 40  1  0
  7 41  1  0
  9 42  1  0
 10 43  1  0
 11 44  1  0
 18 45  1  0
 19 46  1  0
 22 47  1  0
 23 48  1  0
 26 49  1  0
 26 50  1  0
 26 51  1  0
 29 52  1  0
 30 53  1  0
 31 54  1  0
 32 55  1  0
 33 56  1  0
M  CHG  1  13  -1
M  END
>  <UniqueID>  (21) 
21

>  <SMILES>  (21) 
CCOC(=O)NCc1cccc([N-]S(=O)(=O)c2ccc(-c3ccc(S(C)(=O)=O)cc3)cc2)c1

>  <Energy>  (21) 
56.084036135154484

>  <Genealogy>  (21) 
CCOC(=O)NCc1cccc([N-]S(=O)(=O)c2ccc(-c3ccc(S(C)(=O)=O)cc3)cc2)c1 (protonated)
CCOC(=O)NCc1cccc([N-]S(=O)(=O)c2ccc(-c3ccc(S(C)(=O)=O)cc3)cc2)c1 (3D coordinates assigned)
CCOC(=O)NCc1cccc([N-]S(=O)(=O)c2ccc(-c3ccc(S(C)(=O)=O)cc3)cc2)c1 (optimized conformer: 56.084036135154484 kcal/mol)

>  <smiles>  (21) 
CCOC(=O)NCc1cccc(NS(=O)(=O)c2ccc(-c3ccc(S(C)(=O)=O)cc3)cc2)c1

>  <score_type>  (21) 
oracle

>  <origin>  (21) 
adgpu

>  <m_score__min__energy>  (21) 
-10.57

>  <m_primary>  (21) 
energy

$$$$
21:0
     RDKit          3D

 62 65  0  0  0  0  0  0  0  0999 V2000
   -4.2480   25.1820  -26.3700 C   0  0  0  0  0  0  0  0  0  0  0  0
   -2.8240   24.9130  -26.2290 N   0  0  0  0  0  0  0  0  0  0  0  0
   -1.9110   25.7140  -25.4740 C   0  0  0  0  0  0  0  0  0  0  0  0
   -2.2830   26.4840  -24.5460 O   0  0  0  0  0  0  0  0  0  0  0  0
   -0.4790   25.5640  -25.9260 C   0  0  0  0  0  0  0  0  0  0  0  0
    0.3880   24.9400  -24.8270 C   0  0  0  0  0  0  0  0  0  0  0  0
    0.0860   26.9050  -26.4150 C   0  0  0  0  0  0  0  0  0  0  0  0
   -0.6760   24.6070  -27.0720 C   0  0  0  0  0  0  0  0  0  0  0  0
    0.2760   24.1380  -27.9830 C   0  0  0  0  0  0  0  0  0  0  0  0
   -0.1530   23.3340  -29.0550 C   0  0  0  0  0  0  0  0  0  0  0  0
   -1.5190   23.0000  -29.1990 C   0  0  0  0  0  0  0  0  0  0  0  0
   -2.0760   22.1250  -30.6240 S   0  0  0  0  0  0  0  0  0  0  0  0
   -2.8610   20.9060  -30.2200 O   0  0  0  0  0  0  0  0  0  0  0  0
   -0.8960   21.6860  -31.4500 O   0  0  0  0  0  0  0  0  0  0  0  0
   -3.0570   23.1940  -31.5640 N   0  0  0  0  0  0  0  0  0  0  0  0
   -4.4250   23.4360  -31.2220 C   0  0  0  0  0  0  0  0  0  0  0  0
   -5.3850   22.4330  -31.3920 C   0  0  0  0  0  0  0  0  0  0  0  0
   -6.7130   22.6370  -30.9810 C   0  0  0  0  0  0  0  0  0  0  0  0
   -7.7140   21.5580  -31.1540 C   0  0  0  0  0  0  0  0  0  0  0  0
   -8.9200   21.7870  -30.8660 O   0  0  0  0  0  0  0  0  0  0  0  0
   -7.3410   20.2570  -31.6510 N   0  0  0  0  0  0  0  0  0  0  0  0
   -6.0940   19.6050  -31.2300 C   0  0  0  0  0  0  0  0  0  0  0  0
   -5.4130   18.9100  -32.4280 C   0  0  0  0  0  0  0  0  0  0  0  0
   -6.3630   18.5730  -33.5170 N   0  0  0  0  0  0  0  0  0  0  0  0
   -5.7280   17.2610  -34.4780 S   0  0  0  0  0  0  0  0  0  0  0  0
   -4.3110   16.5490  -33.6720 C   0  0  0  0  0  0  0  0  0  0  0  0
   -6.7790   16.2010  -34.6680 O   0  0  0  0  0  0  0  0  0  0  0  0
   -5.2970   17.7800  -35.8250 O   0  0  0  0  0  0  0  0  0  0  0  0
   -7.6900   18.2110  -32.9970 C   0  0  0  0  0  0  0  0  0  0  0  0
   -8.3360   19.4530  -32.3760 C   0  0  0  0  0  0  0  0  0  0  0  0
   -7.0610   23.8580  -30.3760 C   0  0  0  0  0  0  0  0  0  0  0  0
   -6.1130   24.8700  -30.2310 C   0  0  0  0  0  0  0  0  0  0  0  0
   -4.7970   24.6640  -30.6570 C   0  0  0  0  0  0  0  0  0  0  0  0
   -3.8560   25.6690  -30.4900 O   0  0  0  0  0  0  0  0  0  0  0  0
   -2.4560   23.4660  -28.2590 C   0  0  0  0  0  0  0  0  0  0  0  0
   -2.0110   24.2750  -27.2080 C   0  0  0  0  0  0  0  0  0  0  0  0
   -4.7053   25.2684  -25.3733 H   0  0  0  0  0  0  0  0  0  0  0  0
   -4.3905   26.1230  -26.9216 H   0  0  0  0  0  0  0  0  0  0  0  0
   -4.7240   24.3579  -26.9216 H   0  0  0  0  0  0  0  0  0  0  0  0
   -0.0082   25.2251  -23.8412 H   0  0  0  0  0  0  0  0  0  0  0  0
    0.3726   23.8445  -24.9255 H   0  0  0  0  0  0  0  0  0  0  0  0
    1.4219   25.3025  -24.9255 H   0  0  0  0  0  0  0  0  0  0  0  0
    0.3492   27.5297  -25.5487 H   0  0  0  0  0  0  0  0  0  0  0  0
    0.9845   26.7244  -27.0233 H   0  0  0  0  0  0  0  0  0  0  0  0
   -0.6709   27.4218  -27.0233 H   0  0  0  0  0  0  0  0  0  0  0  0
    1.3394   24.3928  -27.8637 H   0  0  0  0  0  0  0  0  0  0  0  0
    0.5799   22.9626  -29.7864 H   0  0  0  0  0  0  0  0  0  0  0  0
   -5.0977   21.4758  -31.8516 H   0  0  0  0  0  0  0  0  0  0  0  0
   -5.4120   20.3623  -30.8160 H   0  0  0  0  0  0  0  0  0  0  0  0
   -6.3296   18.8477  -30.4678 H   0  0  0  0  0  0  0  0  0  0  0  0
   -4.6411   19.5821  -32.8312 H   0  0  0  0  0  0  0  0  0  0  0  0
   -4.9833   17.9662  -32.0612 H   0  0  0  0  0  0  0  0  0  0  0  0
   -4.4388   16.6132  -32.5813 H   0  0  0  0  0  0  0  0  0  0  0  0
   -4.2122   15.4942  -33.9681 H   0  0  0  0  0  0  0  0  0  0  0  0
   -3.4057   17.0993  -33.9681 H   0  0  0  0  0  0  0  0  0  0  0  0
   -8.3196   17.8392  -33.8188 H   0  0  0  0  0  0  0  0  0  0  0  0
   -7.5895   17.4234  -32.2357 H   0  0  0  0  0  0  0  0  0  0  0  0
   -8.7803   20.0650  -33.1748 H   0  0  0  0  0  0  0  0  0  0  0  0
   -9.1095   19.1276  -31.6648 H   0  0  0  0  0  0  0  0  0  0  0  0
   -8.0880   24.0156  -30.0148 H   0  0  0  0  0  0  0  0  0  0  0  0
   -6.4005   25.8317  -29.7810 H   0  0  0  0  0  0  0  0  0  0  0  0
   -3.5194   23.1991  -28.3487 H   0  0  0  0  0  0  0  0  0  0  0  0
  1  2  1  0
  2  3  1  0
  3  4  2  0
  3  5  1  0
  5  6  1  0
  5  7  1  0
  5  8  1  0
  8  9  2  0
  9 10  1  0
 10 11  2  0
 11 12  1  0
 12 13  2  0
 12 14  2  0
 12 15  1  0
 15 16  1  0
 16 17  2  0
 17 18  1  0
 18 19  1  0
 19 20  2  0
 19 21  1  0
 21 22  1  0
 22 23  1  0
 23 24  1  0
 24 25  1  0
 25 26  1  0
 25 27  2  0
 25 28  2  0
 24 29  1  0
 29 30  1  0
 18 31  2  0
 31 32  1  0
 32 33  2  0
 33 34  1  0
 11 35  1  0
 35 36  2  0
 36  2  1  0
 36  8  1  0
 33 16  1  0
 30 21  1  0
  1 37  1  0
  1 38  1  0
  1 39  1  0
  6 40  1  0
  6 41  1  0
  6 42  1  0
  7 43  1  0
  7 44  1  0
  7 45  1  0
  9 46  1  0
 10 47  1  0
 17 48  1  0
 22 49  1  0
 22 50  1  0
 23 51  1  0
 23 52  1  0
 26 53  1  0
 26 54  1  0
 26 55  1  0
 29 56  1  0
 29 57  1  0
 30 58  1  0
 30 59  1  0
 31 60  1  0
 32 61  1  0
 35 62  1  0
M  CHG  2  15  -1  34  -1
M  END
>  <UniqueID>  (22) 
22

>  <SMILES>  (22) 
CN1C(=O)C(C)(C)c2ccc(S(=O)(=O)[N-]c3cc(C(=O)N4CCN(S(C)(=O)=O)CC4)ccc3[O-])cc21

>  <Energy>  (22) 
90.91952295169486

>  <Genealogy>  (22) 
CN1C(=O)C(C)(C)c2ccc(S(=O)(=O)[N-]c3cc(C(=O)N4CCN(S(C)(=O)=O)CC4)ccc3[O-])cc21 (protonated)
CN1C(=O)C(C)(C)c2ccc(S(=O)(=O)[N-]c3cc(C(=O)N4CCN(S(C)(=O)=O)CC4)ccc3[O-])cc21 (3D coordinates assigned)
CN1C(=O)C(C)(C)c2ccc(S(=O)(=O)[N-]c3cc(C(=O)N4CCN(S(C)(=O)=O)CC4)ccc3[O-])cc21 (nonaromatic ring conformer: 90.91952295169486 kcal/mol)

>  <smiles>  (22) 
CN1C(=O)C(C)(C)c2ccc(S(=O)(=O)Nc3cc(C(=O)N4CCN(S(C)(=O)=O)CC4)ccc3O)cc21

>  <score_type>  (22) 
oracle

>  <origin>  (22) 
adgpu

>  <m_score__min__energy>  (22) 
-15.550000000000001

>  <m_primary>  (22) 
energy

$$$$
22:0
     RDKit          3D

 48 51  0  0  0  0  0  0  0  0999 V2000
   -1.5093   20.4874  -32.4155 H   0  0  0  0  0  0  0  0  0  0  0  0
   -1.0840   20.1640  -31.4540 C   0  0  0  0  0  0  0  0  0  0  0  0
   -0.3560   18.9780  -31.3600 C   0  0  0  0  0  0  0  0  0  0  0  0
   -0.1040   17.9480  -32.8020 S   0  0  0  0  0  0  0  0  0  0  0  0
   -1.8610   17.6600  -32.9880 C   0  0  0  0  0  0  0  0  0  0  0  0
   -2.6950   18.7140  -33.1890 N   0  0  0  0  0  0  0  0  0  0  0  0
   -4.0370   18.5480  -33.3520 C   0  0  0  0  0  0  0  0  0  0  0  0
   -4.9110   19.7470  -33.5410 C   0  0  0  0  0  0  0  0  0  0  0  0
   -5.2024   20.1468  -32.5586 H   0  0  0  0  0  0  0  0  0  0  0  0
   -4.3609   20.5170  -34.1017 H   0  0  0  0  0  0  0  0  0  0  0  0
   -5.8124   19.4589  -34.1017 H   0  0  0  0  0  0  0  0  0  0  0  0
   -4.5900   17.2610  -33.2890 C   0  0  0  0  0  0  0  0  0  0  0  0
   -5.6768   17.1202  -33.3841 H   0  0  0  0  0  0  0  0  0  0  0  0
   -3.7490   16.1550  -33.1040 C   0  0  0  0  0  0  0  0  0  0  0  0
   -4.3230   14.7700  -33.0190 C   0  0  0  0  0  0  0  0  0  0  0  0
   -4.4407   14.4860  -31.9628 H   0  0  0  0  0  0  0  0  0  0  0  0
   -5.3041   14.7486  -33.5160 H   0  0  0  0  0  0  0  0  0  0  0  0
   -3.6447   14.0608  -33.5160 H   0  0  0  0  0  0  0  0  0  0  0  0
   -2.3720   16.3600  -32.9400 C   0  0  0  0  0  0  0  0  0  0  0  0
   -1.6996   15.5053  -32.7750 H   0  0  0  0  0  0  0  0  0  0  0  0
    0.1520   18.5900  -30.1640 N   0  0  0  0  0  0  0  0  0  0  0  0
   -0.0410   19.3320  -29.0410 C   0  0  0  0  0  0  0  0  0  0  0  0
    0.4560   18.9650  -27.8960 N   0  0  0  0  0  0  0  0  0  0  0  0
    1.1650   17.7430  -27.6310 C   0  0  0  0  0  0  0  0  0  0  0  0
    2.5580   17.7870  -27.4820 C   0  0  0  0  0  0  0  0  0  0  0  0
    3.0884   18.7456  -27.5811 H   0  0  0  0  0  0  0  0  0  0  0  0
    3.2780   16.6190  -27.2080 C   0  0  0  0  0  0  0  0  0  0  0  0
    4.3728   16.6594  -27.1088 H   0  0  0  0  0  0  0  0  0  0  0  0
    2.6080   15.4000  -27.0600 C   0  0  0  0  0  0  0  0  0  0  0  0
    3.3500   14.1960  -26.7860 C   0  0  0  0  0  0  0  0  0  0  0  0
    3.9440   13.2270  -26.5690 N   0  0  0  0  0  0  0  0  0  0  0  0
    1.2110   15.3550  -27.1630 C   0  0  0  0  0  0  0  0  0  0  0  0
    0.6804   14.4012  -27.0258 H   0  0  0  0  0  0  0  0  0  0  0  0
    0.4910   16.5210  -27.4400 C   0  0  0  0  0  0  0  0  0  0  0  0
   -0.6062   16.4839  -27.5091 H   0  0  0  0  0  0  0  0  0  0  0  0
   -0.7370   20.4970  -29.1200 N   0  0  0  0  0  0  0  0  0  0  0  0
   -1.2620   20.9350  -30.2970 C   0  0  0  0  0  0  0  0  0  0  0  0
   -2.0300   22.2020  -30.3380 C   0  0  0  0  0  0  0  0  0  0  0  0
   -3.2330   22.2560  -31.0650 C   0  0  0  0  0  0  0  0  0  0  0  0
   -3.5849   21.3632  -31.6026 H   0  0  0  0  0  0  0  0  0  0  0  0
   -3.9850   23.4320  -31.1110 C   0  0  0  0  0  0  0  0  0  0  0  0
   -4.9217   23.4621  -31.6870 H   0  0  0  0  0  0  0  0  0  0  0  0
   -3.5510   24.5690  -30.4280 C   0  0  0  0  0  0  0  0  0  0  0  0
   -4.3050   25.7360  -30.4810 O   0  0  0  0  0  0  0  0  0  0  0  0
   -2.3580   24.5360  -29.6980 C   0  0  0  0  0  0  0  0  0  0  0  0
   -1.9370   25.6720  -29.0140 O   0  0  0  0  0  0  0  0  0  0  0  0
   -1.5900   23.3590  -29.6520 C   0  0  0  0  0  0  0  0  0  0  0  0
   -0.0560   23.3880  -28.7770 Cl  0  0  0  0  0  0  0  0  0  0  0  0
  1  2  1  0
  2  3  1  0
  3  4  1  0
  4  5  1  0
  5  6  2  0
  6  7  1  0
  7  8  1  0
  8  9  1  0
  8 10  1  0
  8 11  1  0
  7 12  2  0
 12 13  1  0
 12 14  1  0
 14 15  1  0
 15 16  1  0
 15 17  1  0
 15 18  1  0
 14 19  2  0
 19 20  1  0
  3 21  2  0
 21 22  1  0
 22 23  2  0
 23 24  1  0
 24 25  2  0
 25 26  1  0
 25 27  1  0
 27 28  1  0
 27 29  2  0
 29 30  1  0
 30 31  3  0
 29 32  1  0
 32 33  1  0
 32 34  2  0
 34 35  1  0
 22 36  1  0
 36 37  1  0
 37 38  1  0
 38 39  2  0
 39 40  1  0
 39 41  1  0
 41 42  1  0
 41 43  2  0
 43 44  1  0
 43 45  1  0
 45 46  1  0
 45 47  2  0
 47 48  1  0
 37  2  2  0
 47 38  1  0
 19  5  1  0
 34 24  1  0
M  CHG  3  36  -1  44  -1  46  -1
M  END
>  <UniqueID>  (23) 
23

>  <SMILES>  (23) 
Cc1cc(C)nc(Sc2cc(-c3ccc([O-])c([O-])c3Cl)[n-]/c(=N/c3ccc(C#N)cc3)n2)c1

>  <Energy>  (23) 
59.10621232286194

>  <Genealogy>  (23) 
Cc1cc(C)nc(Sc2cc(-c3ccc([O-])c([O-])c3Cl)[n-]c(=Nc3ccc(C#N)cc3)n2)c1 (protonated)
Cc1cc(C)nc(Sc2cc(-c3ccc([O-])c([O-])c3Cl)[n-]/c(=N/c3ccc(C#N)cc3)n2)c1 (cis-trans isomerization)
Cc1cc(C)nc(Sc2cc(-c3ccc([O-])c([O-])c3Cl)[n-]/c(=N/c3ccc(C#N)cc3)n2)c1 (3D coordinates assigned)
Cc1cc(C)nc(Sc2cc(-c3ccc([O-])c([O-])c3Cl)[n-]/c(=N/c3ccc(C#N)cc3)n2)c1 (optimized conformer: 59.10621232286194 kcal/mol)

>  <smiles>  (23) 
Cc1cc(C)nc(Sc2cc(-c3ccc(O)c(O)c3Cl)[nH]c(=Nc3ccc(C#N)cc3)n2)c1

>  <score_type>  (23) 
oracle

>  <origin>  (23) 
adgpu

>  <m_score__min__energy>  (23) 
-12.779999999999999

>  <m_primary>  (23) 
energy

$$$$
23:0
     RDKit          3D

 49 52  0  0  0  0  0  0  0  0999 V2000
   -1.2360   20.6680  -25.7880 C   0  0  0  0  0  0  0  0  0  0  0  0
   -0.2740   20.6520  -26.9040 N   0  0  0  0  0  0  0  0  0  0  0  0
   -0.7860   19.9320  -28.0860 C   0  0  0  0  0  0  0  0  0  0  0  0
   -2.0010   20.6270  -28.7200 C   0  0  0  0  0  0  0  0  0  0  0  0
   -1.8220   22.1190  -28.8170 C   0  0  0  0  0  0  0  0  0  0  0  0
   -2.7100   22.8630  -29.6080 C   0  0  0  0  0  0  0  0  0  0  0  0
   -2.5880   24.2540  -29.7060 C   0  0  0  0  0  0  0  0  0  0  0  0
   -3.4820   24.9650  -30.5700 N   0  0  0  0  0  0  0  0  0  0  0  0
   -5.1870   25.0720  -30.2840 S   0  0  0  0  0  0  0  0  0  0  0  0
   -5.4390   25.1530  -28.8030 O   0  0  0  0  0  0  0  0  0  0  0  0
   -5.7440   26.3060  -30.9380 O   0  0  0  0  0  0  0  0  0  0  0  0
   -5.9600   23.6190  -30.9100 C   0  0  0  0  0  0  0  0  0  0  0  0
   -7.0980   23.7050  -31.7220 C   0  0  0  0  0  0  0  0  0  0  0  0
   -7.6270   22.5540  -32.3130 C   0  0  0  0  0  0  0  0  0  0  0  0
   -7.0300   21.3070  -32.0860 C   0  0  0  0  0  0  0  0  0  0  0  0
   -7.6140   19.8820  -32.9400 S   0  0  0  0  0  0  0  0  0  0  0  0
   -6.8510   19.7210  -34.2250 O   0  0  0  0  0  0  0  0  0  0  0  0
   -9.0730   20.0390  -33.2670 O   0  0  0  0  0  0  0  0  0  0  0  0
   -7.3820   18.4700  -31.9570 N   0  0  0  0  0  0  0  0  0  0  0  0
   -6.6730   17.4650  -32.7420 C   0  0  0  0  0  0  0  0  0  0  0  0
   -5.6650   16.6590  -31.9410 C   0  0  0  0  0  0  0  0  0  0  0  0
   -5.1900   17.7630  -32.8700 C   0  0  0  0  0  0  0  0  0  0  0  0
   -5.9070   21.2190  -31.2540 C   0  0  0  0  0  0  0  0  0  0  0  0
   -5.3720   22.3710  -30.6720 C   0  0  0  0  0  0  0  0  0  0  0  0
   -1.6000   24.9140  -28.9530 C   0  0  0  0  0  0  0  0  0  0  0  0
   -1.4990   26.3000  -28.9670 O   0  0  0  0  0  0  0  0  0  0  0  0
   -0.7200   24.1780  -28.1540 C   0  0  0  0  0  0  0  0  0  0  0  0
   -0.8300   22.7840  -28.0680 C   0  0  0  0  0  0  0  0  0  0  0  0
    0.1840   22.0100  -27.2570 C   0  0  0  0  0  0  0  0  0  0  0  0
   -0.6900   20.6589  -24.8331 H   0  0  0  0  0  0  0  0  0  0  0  0
   -1.8531   21.5765  -25.8489 H   0  0  0  0  0  0  0  0  0  0  0  0
   -1.8830   19.7805  -25.8489 H   0  0  0  0  0  0  0  0  0  0  0  0
    0.0162   19.8708  -28.8362 H   0  0  0  0  0  0  0  0  0  0  0  0
   -1.1082   18.9338  -27.7547 H   0  0  0  0  0  0  0  0  0  0  0  0
   -2.1513   20.2226  -29.7319 H   0  0  0  0  0  0  0  0  0  0  0  0
   -2.8717   20.4345  -28.0760 H   0  0  0  0  0  0  0  0  0  0  0  0
   -3.5114   22.3474  -30.1575 H   0  0  0  0  0  0  0  0  0  0  0  0
   -7.5764   24.6803  -31.8950 H   0  0  0  0  0  0  0  0  0  0  0  0
   -8.5148   22.6275  -32.9583 H   0  0  0  0  0  0  0  0  0  0  0  0
   -7.4892   17.2144  -33.4355 H   0  0  0  0  0  0  0  0  0  0  0  0
   -5.5973   16.7902  -30.8510 H   0  0  0  0  0  0  0  0  0  0  0  0
   -5.4400   15.5884  -31.8259 H   0  0  0  0  0  0  0  0  0  0  0  0
   -4.7780   18.6936  -32.4526 H   0  0  0  0  0  0  0  0  0  0  0  0
   -4.4782   17.8229  -33.7065 H   0  0  0  0  0  0  0  0  0  0  0  0
   -5.4448   20.2402  -31.0581 H   0  0  0  0  0  0  0  0  0  0  0  0
   -4.4858   22.2971  -30.0246 H   0  0  0  0  0  0  0  0  0  0  0  0
    0.0663   24.6984  -27.5875 H   0  0  0  0  0  0  0  0  0  0  0  0
    1.1109   21.9258  -27.8433 H   0  0  0  0  0  0  0  0  0  0  0  0
    0.3408   22.5588  -26.3167 H   0  0  0  0  0  0  0  0  0  0  0  0
  1  2  1  0
  2  3  1  0
  3  4  1  0
  4  5  1  0
  5  6  2  0
  6  7  1  0
  7  8  1  0
  8  9  1  0
  9 10  2  0
  9 11  2  0
  9 12  1  0
 12 13  2  0
 13 14  1  0
 14 15  2  0
 15 16  1  0
 16 17  2  0
 16 18  2  0
 16 19  1  0
 19 20  1  0
 20 21  1  0
 21 22  1  0
 15 23  1  0
 23 24  2  0
  7 25  2  0
 25 26  1  0
 25 27  1  0
 27 28  2  0
 28 29  1  0
 29  2  1  0
 28  5  1  0
 24 12  1  0
 22 20  1  0
  1 30  1  0
  1 31  1  0
  1 32  1  0
  3 33  1  0
  3 34  1  0
  4 35  1  0
  4 36  1  0
  6 37  1  0
 13 38  1  0
 14 39  1  0
 20 40  1  0
 21 41  1  0
 21 42  1  0
 22 43  1  0
 22 44  1  0
 23 45  1  0
 24 46  1  0
 27 47  1  0
 29 48  1  0
 29 49  1  0
M  CHG  3   8  -1  19  -1  26  -1
M  END
>  <UniqueID>  (24) 
24

>  <SMILES>  (24) 
CN1CCc2cc([N-]S(=O)(=O)c3ccc(S(=O)(=O)[N-]C4CC4)cc3)c([O-])cc2C1

>  <Energy>  (24) 
322.04206729272084

>  <Genealogy>  (24) 
CN1CCc2cc([N-]S(=O)(=O)c3ccc(S(=O)(=O)[N-]C4CC4)cc3)c([O-])cc2C1 (protonated)
CN1CCc2cc([N-]S(=O)(=O)c3ccc(S(=O)(=O)[N-]C4CC4)cc3)c([O-])cc2C1 (3D coordinates assigned)
CN1CCc2cc([N-]S(=O)(=O)c3ccc(S(=O)(=O)[N-]C4CC4)cc3)c([O-])cc2C1 (nonaromatic ring conformer: 322.04206729272084 kcal/mol)

>  <smiles>  (24) 
CN1CCc2cc(NS(=O)(=O)c3ccc(S(=O)(=O)NC4CC4)cc3)c(O)cc2C1

>  <score_type>  (24) 
oracle

>  <origin>  (24) 
adgpu

>  <m_score__min__energy>  (24) 
-14.380000000000001

>  <m_primary>  (24) 
energy

$$$$
24:0
     RDKit          3D

 48 51  0  0  0  0  0  0  0  0999 V2000
   -0.5150   23.1610  -29.5040 C   0  0  0  0  0  0  0  0  0  0  0  0
   -1.7250   23.4160  -28.6470 C   0  0  0  0  0  0  0  0  0  0  0  0
   -1.7970   24.6080  -27.9070 C   0  0  0  0  0  0  0  0  0  0  0  0
   -2.9260   24.8980  -27.1370 C   0  0  0  0  0  0  0  0  0  0  0  0
   -4.0010   24.0080  -27.1080 C   0  0  0  0  0  0  0  0  0  0  0  0
   -3.9520   22.8290  -27.8530 C   0  0  0  0  0  0  0  0  0  0  0  0
   -2.8230   22.5280  -28.6310 C   0  0  0  0  0  0  0  0  0  0  0  0
   -2.7980   21.3050  -29.3800 N   0  0  0  0  0  0  0  0  0  0  0  0
   -2.0670   20.1480  -28.8630 C   0  0  0  0  0  0  0  0  0  0  0  0
   -0.7290   20.0470  -29.5260 C   0  0  0  0  0  0  0  0  0  0  0  0
    0.3130   19.9780  -28.8190 O   0  0  0  0  0  0  0  0  0  0  0  0
   -0.6410   19.9810  -30.9560 N   0  0  0  0  0  0  0  0  0  0  0  0
    0.6340   19.8680  -31.6580 C   0  0  0  0  0  0  0  0  0  0  0  0
    0.4730   20.2870  -33.0830 C   0  0  0  0  0  0  0  0  0  0  0  0
    1.4950   20.4790  -33.9920 C   0  0  0  0  0  0  0  0  0  0  0  0
    0.8810   20.8800  -35.1590 C   0  0  0  0  0  0  0  0  0  0  0  0
   -0.4720   20.9110  -34.8900 C   0  0  0  0  0  0  0  0  0  0  0  0
   -0.6840   20.5540  -33.6430 O   0  0  0  0  0  0  0  0  0  0  0  0
   -3.2980   21.3410  -31.0410 S   0  0  0  0  0  0  0  0  0  0  0  0
   -2.2260   21.9750  -31.8840 O   0  0  0  0  0  0  0  0  0  0  0  0
   -3.5170   19.9390  -31.5390 O   0  0  0  0  0  0  0  0  0  0  0  0
   -4.7980   22.2510  -31.1700 C   0  0  0  0  0  0  0  0  0  0  0  0
   -6.0320   21.5920  -31.3590 C   0  0  0  0  0  0  0  0  0  0  0  0
   -7.2390   22.3310  -31.4280 C   0  0  0  0  0  0  0  0  0  0  0  0
   -7.2250   23.7340  -31.3040 C   0  0  0  0  0  0  0  0  0  0  0  0
   -5.9890   24.3450  -31.1130 C   0  0  0  0  0  0  0  0  0  0  0  0
   -5.7090   25.6450  -30.9550 N   0  0  0  0  0  0  0  0  0  0  0  0
   -4.4070   25.6790  -30.8000 O   0  0  0  0  0  0  0  0  0  0  0  0
   -3.8270   24.5060  -30.8440 N   0  0  0  0  0  0  0  0  0  0  0  0
   -4.8320   23.6420  -31.0460 C   0  0  0  0  0  0  0  0  0  0  0  0
    0.3579   22.9770  -28.8605 H   0  0  0  0  0  0  0  0  0  0  0  0
   -0.6943   22.2809  -30.1391 H   0  0  0  0  0  0  0  0  0  0  0  0
   -0.3239   24.0386  -30.1391 H   0  0  0  0  0  0  0  0  0  0  0  0
   -0.9578   25.3186  -27.9341 H   0  0  0  0  0  0  0  0  0  0  0  0
   -2.9679   25.8290  -26.5527 H   0  0  0  0  0  0  0  0  0  0  0  0
   -4.8872   24.2361  -26.4976 H   0  0  0  0  0  0  0  0  0  0  0  0
   -4.8026   22.1318  -27.8305 H   0  0  0  0  0  0  0  0  0  0  0  0
   -1.9277   20.2609  -27.7777 H   0  0  0  0  0  0  0  0  0  0  0  0
   -2.6430   19.2348  -29.0734 H   0  0  0  0  0  0  0  0  0  0  0  0
   -1.5210   19.9880  -31.5180 H   0  0  0  0  0  0  0  0  0  0  0  0
    1.3770   20.5157  -31.1698 H   0  0  0  0  0  0  0  0  0  0  0  0
    0.9718   18.8217  -31.6258 H   0  0  0  0  0  0  0  0  0  0  0  0
    2.5727   20.3409  -33.8206 H   0  0  0  0  0  0  0  0  0  0  0  0
    1.3709   21.1258  -36.1127 H   0  0  0  0  0  0  0  0  0  0  0  0
   -1.2546   21.1919  -35.6101 H   0  0  0  0  0  0  0  0  0  0  0  0
   -6.0567   20.4963  -31.4534 H   0  0  0  0  0  0  0  0  0  0  0  0
   -8.1934   21.8055  -31.5794 H   0  0  0  0  0  0  0  0  0  0  0  0
   -8.1528   24.3227  -31.3560 H   0  0  0  0  0  0  0  0  0  0  0  0
  1  2  1  0
  2  3  2  0
  3  4  1  0
  4  5  2  0
  5  6  1  0
  6  7  2  0
  7  8  1  0
  8  9  1  0
  9 10  1  0
 10 11  2  0
 10 12  1  0
 12 13  1  0
 13 14  1  0
 14 15  2  0
 15 16  1  0
 16 17  2  0
 17 18  1  0
  8 19  1  0
 19 20  2  0
 19 21  2  0
 19 22  1  0
 22 23  2  0
 23 24  1  0
 24 25  2  0
 25 26  1  0
 26 27  2  0
 27 28  1  0
 28 29  1  0
 29 30  2  0
  7  2  1  0
 18 14  1  0
 30 22  1  0
 30 26  1  0
  1 31  1  0
  1 32  1  0
  1 33  1  0
  3 34  1  0
  4 35  1  0
  5 36  1  0
  6 37  1  0
  9 38  1  0
  9 39  1  0
 12 40  1  0
 13 41  1  0
 13 42  1  0
 15 43  1  0
 16 44  1  0
 17 45  1  0
 23 46  1  0
 24 47  1  0
 25 48  1  0
M  END
>  <UniqueID>  (25) 
25

>  <SMILES>  (25) 
Cc1ccccc1N(CC(=O)NCc1ccco1)S(=O)(=O)c1cccc2nonc12

>  <Energy>  (25) 
121.01319335502886

>  <Genealogy>  (25) 
Cc1ccccc1N(CC(=O)NCc1ccco1)S(=O)(=O)c1cccc2nonc12 (3D coordinates assigned)
Cc1ccccc1N(CC(=O)NCc1ccco1)S(=O)(=O)c1cccc2nonc12 (optimized conformer: 121.01319335502886 kcal/mol)

>  <smiles>  (25) 
Cc1ccccc1N(CC(=O)NCc1ccco1)S(=O)(=O)c1cccc2nonc12

>  <score_type>  (25) 
oracle

>  <origin>  (25) 
adgpu

>  <m_score__min__energy>  (25) 
-9.9000000000000004

>  <m_primary>  (25) 
energy

$$$$
25:0
     RDKit          3D

 48 51  0  0  0  0  0  0  0  0999 V2000
   -6.8860   15.8740  -33.8650 C   0  0  0  0  0  0  0  0  0  0  0  0
   -6.6340   17.2490  -33.3210 C   0  0  0  0  0  0  0  0  0  0  0  0
   -7.6290   17.8990  -32.5770 C   0  0  0  0  0  0  0  0  0  0  0  0
   -7.4150   19.1890  -32.0890 C   0  0  0  0  0  0  0  0  0  0  0  0
   -6.2080   19.8450  -32.3470 C   0  0  0  0  0  0  0  0  0  0  0  0
   -5.9990   21.0900  -31.8660 N   0  0  0  0  0  0  0  0  0  0  0  0
   -4.8300   21.7490  -32.0620 C   0  0  0  0  0  0  0  0  0  0  0  0
   -4.6880   23.4000  -31.3430 S   0  0  0  0  0  0  0  0  0  0  0  0
   -4.1220   22.8370  -29.6940 C   0  0  0  0  0  0  0  0  0  0  0  0
   -2.7700   23.3960  -29.3600 C   0  0  0  0  0  0  0  0  0  0  0  0
   -1.7030   22.5470  -29.0390 C   0  0  0  0  0  0  0  0  0  0  0  0
   -0.4790   23.1170  -28.6890 C   0  0  0  0  0  0  0  0  0  0  0  0
    0.4990   22.3840  -28.3900 O   0  0  0  0  0  0  0  0  0  0  0  0
   -0.3420   24.4670  -28.6670 N   0  0  0  0  0  0  0  0  0  0  0  0
   -1.3850   25.2780  -28.9820 C   0  0  0  0  0  0  0  0  0  0  0  0
   -1.2390   26.5270  -28.9540 O   0  0  0  0  0  0  0  0  0  0  0  0
   -2.5860   24.7420  -29.3240 N   0  0  0  0  0  0  0  0  0  0  0  0
   -3.8240   21.1760  -32.8080 N   0  0  0  0  0  0  0  0  0  0  0  0
   -2.5750   21.9220  -33.0850 C   0  0  0  0  0  0  0  0  0  0  0  0
   -1.3520   21.1590  -32.6420 C   0  0  0  0  0  0  0  0  0  0  0  0
   -1.4000   20.4780  -31.4630 N   0  0  0  0  0  0  0  0  0  0  0  0
   -0.3450   19.7580  -30.9940 C   0  0  0  0  0  0  0  0  0  0  0  0
   -0.4570   19.0410  -29.6840 C   0  0  0  0  0  0  0  0  0  0  0  0
    0.8460   19.7180  -31.7250 C   0  0  0  0  0  0  0  0  0  0  0  0
    0.9330   20.4150  -32.9300 C   0  0  0  0  0  0  0  0  0  0  0  0
   -0.1650   21.1470  -33.3970 C   0  0  0  0  0  0  0  0  0  0  0  0
   -0.0720   21.8550  -34.5940 O   0  0  0  0  0  0  0  0  0  0  0  0
   -4.0110   19.9180  -33.3410 C   0  0  0  0  0  0  0  0  0  0  0  0
   -3.1130   19.3860  -34.0550 O   0  0  0  0  0  0  0  0  0  0  0  0
   -5.2050   19.2150  -33.1020 C   0  0  0  0  0  0  0  0  0  0  0  0
   -5.4290   17.9150  -33.5970 C   0  0  0  0  0  0  0  0  0  0  0  0
   -7.0154   15.1679  -33.0315 H   0  0  0  0  0  0  0  0  0  0  0  0
   -7.7971   15.8848  -34.4812 H   0  0  0  0  0  0  0  0  0  0  0  0
   -6.0303   15.5610  -34.4812 H   0  0  0  0  0  0  0  0  0  0  0  0
   -8.5832   17.3896  -32.3769 H   0  0  0  0  0  0  0  0  0  0  0  0
   -8.1975   19.6902  -31.5004 H   0  0  0  0  0  0  0  0  0  0  0  0
   -4.8447   23.1699  -28.9345 H   0  0  0  0  0  0  0  0  0  0  0  0
   -4.0494   21.7395  -29.7085 H   0  0  0  0  0  0  0  0  0  0  0  0
   -1.8277   21.4543  -29.0624 H   0  0  0  0  0  0  0  0  0  0  0  0
   -2.5050   22.1083  -34.1668 H   0  0  0  0  0  0  0  0  0  0  0  0
   -2.6101   22.8655  -32.5206 H   0  0  0  0  0  0  0  0  0  0  0  0
   -0.3444   19.7618  -28.8607 H   0  0  0  0  0  0  0  0  0  0  0  0
   -1.4418   18.5559  -29.6145 H   0  0  0  0  0  0  0  0  0  0  0  0
    0.3330   18.2787  -29.6145 H   0  0  0  0  0  0  0  0  0  0  0  0
    1.7064   19.1422  -31.3533 H   0  0  0  0  0  0  0  0  0  0  0  0
    1.8650   20.3895  -33.5137 H   0  0  0  0  0  0  0  0  0  0  0  0
   -0.8950   22.1020  -35.1300 H   0  0  0  0  0  0  0  0  0  0  0  0
   -4.6561   17.4193  -34.2027 H   0  0  0  0  0  0  0  0  0  0  0  0
  1  2  1  0
  2  3  2  0
  3  4  1  0
  4  5  2  0
  5  6  1  0
  6  7  2  0
  7  8  1  0
  8  9  1  0
  9 10  1  0
 10 11  2  0
 11 12  1  0
 12 13  2  0
 12 14  1  0
 14 15  1  0
 15 16  2  0
 15 17  1  0
  7 18  1  0
 18 19  1  0
 19 20  1  0
 20 21  2  0
 21 22  1  0
 22 23  1  0
 22 24  2  0
 24 25  1  0
 25 26  2  0
 26 27  1  0
 18 28  1  0
 28 29  2  0
 28 30  1  0
 30 31  2  0
 31  2  1  0
 30  5  1  0
 17 10  1  0
 26 20  1  0
  1 32  1  0
  1 33  1  0
  1 34  1  0
  3 35  1  0
  4 36  1  0
  9 37  1  0
  9 38  1  0
 11 39  1  0
 19 40  1  0
 19 41  1  0
 23 42  1  0
 23 43  1  0
 23 44  1  0
 24 45  1  0
 25 46  1  0
 27 47  1  0
 31 48  1  0
M  CHG  2  14  -1  17  -1
M  END
>  <UniqueID>  (26) 
26

>  <SMILES>  (26) 
Cc1ccc2nc(SCc3cc(=O)[n-]c(=O)[n-]3)n(Cc3nc(C)ccc3O)c(=O)c2c1

>  <Energy>  (26) 
54.661105219412136

>  <Genealogy>  (26) 
Cc1ccc2nc(SCc3cc(=O)[n-]c(=O)[n-]3)n(Cc3nc(C)ccc3O)c(=O)c2c1 (protonated)
Cc1ccc2nc(SCc3cc(=O)[n-]c(=O)[n-]3)n(Cc3nc(C)ccc3O)c(=O)c2c1 (3D coordinates assigned)
Cc1ccc2nc(SCc3cc(=O)[n-]c(=O)[n-]3)n(Cc3nc(C)ccc3O)c(=O)c2c1 (optimized conformer: 54.661105219412136 kcal/mol)

>  <smiles>  (26) 
Cc1ccc2nc(SCc3cc(=O)[nH]c(=O)[nH]3)n(Cc3nc(C)ccc3O)c(=O)c2c1

>  <score_type>  (26) 
oracle

>  <origin>  (26) 
adgpu

>  <m_score__min__energy>  (26) 
-11.449999999999999

>  <m_primary>  (26) 
energy

$$$$
26:0
     RDKit          3D

 57 61  0  0  0  0  0  0  0  0999 V2000
   -1.5610   19.7940  -31.4660 C   0  0  0  0  0  0  0  0  0  0  0  0
   -1.1130   20.3040  -30.1730 N   0  0  0  0  0  0  0  0  0  0  0  0
   -0.2990   19.7030  -29.2690 C   0  0  0  0  0  0  0  0  0  0  0  0
    0.1560   18.5370  -29.4160 O   0  0  0  0  0  0  0  0  0  0  0  0
   -0.0060   20.4710  -28.1900 N   0  0  0  0  0  0  0  0  0  0  0  0
   -0.6720   21.6120  -28.4560 C   0  0  0  0  0  0  0  0  0  0  0  0
   -0.7160   22.7660  -27.6830 C   0  0  0  0  0  0  0  0  0  0  0  0
   -1.4680   23.8620  -28.1630 C   0  0  0  0  0  0  0  0  0  0  0  0
   -1.5180   25.0770  -27.3990 N   0  0  0  0  0  0  0  0  0  0  0  0
   -0.8630   26.2930  -27.8920 C   0  0  0  0  0  0  0  0  0  0  0  0
   -0.0680   26.9840  -26.7640 C   0  0  0  0  0  0  0  0  0  0  0  0
   -0.5610   26.6790  -25.4060 N   0  0  0  0  0  0  0  0  0  0  0  0
   -2.0040   26.4070  -25.3810 C   0  0  0  0  0  0  0  0  0  0  0  0
   -2.3200   25.1330  -26.1730 C   0  0  0  0  0  0  0  0  0  0  0  0
   -2.1340   23.7760  -29.4180 C   0  0  0  0  0  0  0  0  0  0  0  0
   -2.8550   24.9160  -29.9100 N   0  0  0  0  0  0  0  0  0  0  0  0
   -4.2100   24.9180  -30.3800 C   0  0  0  0  0  0  0  0  0  0  0  0
   -4.8140   26.0190  -30.4750 O   0  0  0  0  0  0  0  0  0  0  0  0
   -4.8970   23.6740  -30.7990 C   0  0  0  0  0  0  0  0  0  0  0  0
   -4.4680   22.9740  -31.9360 C   0  0  0  0  0  0  0  0  0  0  0  0
   -5.1260   21.8100  -32.3350 C   0  0  0  0  0  0  0  0  0  0  0  0
   -6.2160   21.3360  -31.5840 C   0  0  0  0  0  0  0  0  0  0  0  0
   -6.9310   20.1390  -31.9650 N   0  0  0  0  0  0  0  0  0  0  0  0
   -6.3230   19.1480  -32.8620 C   0  0  0  0  0  0  0  0  0  0  0  0
   -6.9250   17.7620  -32.6060 C   0  0  0  0  0  0  0  0  0  0  0  0
   -8.3380   17.8120  -32.6390 O   0  0  0  0  0  0  0  0  0  0  0  0
   -8.8100   18.5990  -31.5630 C   0  0  0  0  0  0  0  0  0  0  0  0
   -8.3780   20.0590  -31.7270 C   0  0  0  0  0  0  0  0  0  0  0  0
   -6.6040   22.0260  -30.4760 N   0  0  0  0  0  0  0  0  0  0  0  0
   -5.9790   23.1600  -30.0680 C   0  0  0  0  0  0  0  0  0  0  0  0
   -2.0830   22.5730  -30.1610 C   0  0  0  0  0  0  0  0  0  0  0  0
   -1.3340   21.5180  -29.6460 C   0  0  0  0  0  0  0  0  0  0  0  0
   -2.2795   18.9761  -31.3086 H   0  0  0  0  0  0  0  0  0  0  0  0
   -2.0453   20.6036  -32.0317 H   0  0  0  0  0  0  0  0  0  0  0  0
   -0.6957   19.4181  -32.0317 H   0  0  0  0  0  0  0  0  0  0  0  0
   -0.1803   22.8247  -26.7240 H   0  0  0  0  0  0  0  0  0  0  0  0
   -0.1743   26.0263  -28.7072 H   0  0  0  0  0  0  0  0  0  0  0  0
   -1.6356   26.9870  -28.2546 H   0  0  0  0  0  0  0  0  0  0  0  0
    0.9809   26.6598  -26.8318 H   0  0  0  0  0  0  0  0  0  0  0  0
   -0.1874   28.0678  -26.9092 H   0  0  0  0  0  0  0  0  0  0  0  0
   -0.0570   25.8350  -25.0460 H   0  0  0  0  0  0  0  0  0  0  0  0
   -2.3305   26.2765  -24.3387 H   0  0  0  0  0  0  0  0  0  0  0  0
   -2.5354   27.2540  -25.8396 H   0  0  0  0  0  0  0  0  0  0  0  0
   -2.0922   24.2546  -25.5512 H   0  0  0  0  0  0  0  0  0  0  0  0
   -3.3857   25.1393  -26.4456 H   0  0  0  0  0  0  0  0  0  0  0  0
   -3.6094   23.3440  -32.5156 H   0  0  0  0  0  0  0  0  0  0  0  0
   -4.7939   21.2664  -33.2318 H   0  0  0  0  0  0  0  0  0  0  0  0
   -6.5117   19.4388  -33.9059 H   0  0  0  0  0  0  0  0  0  0  0  0
   -5.2401   19.1093  -32.6726 H   0  0  0  0  0  0  0  0  0  0  0  0
   -6.5710   17.0667  -33.3814 H   0  0  0  0  0  0  0  0  0  0  0  0
   -6.6084   17.4197  -31.6097 H   0  0  0  0  0  0  0  0  0  0  0  0
   -9.9085   18.5490  -31.5342 H   0  0  0  0  0  0  0  0  0  0  0  0
   -8.3844   18.2083  -30.6270 H   0  0  0  0  0  0  0  0  0  0  0  0
   -8.9112   20.5014  -32.5814 H   0  0  0  0  0  0  0  0  0  0  0  0
   -8.6199   20.6093  -30.8058 H   0  0  0  0  0  0  0  0  0  0  0  0
   -6.3222   23.6782  -29.1604 H   0  0  0  0  0  0  0  0  0  0  0  0
   -2.6188   22.4741  -31.1166 H   0  0  0  0  0  0  0  0  0  0  0  0
  1  2  1  0
  2  3  1  0
  3  4  2  0
  3  5  1  0
  5  6  1  0
  6  7  2  0
  7  8  1  0
  8  9  1  0
  9 10  1  0
 10 11  1  0
 11 12  1  0
 12 13  1  0
 13 14  1  0
  8 15  2  0
 15 16  1  0
 16 17  1  0
 17 18  2  0
 17 19  1  0
 19 20  2  0
 20 21  1  0
 21 22  2  0
 22 23  1  0
 23 24  1  0
 24 25  1  0
 25 26  1  0
 26 27  1  0
 27 28  1  0
 22 29  1  0
 29 30  2  0
 15 31  1  0
 31 32  2  0
 32  2  1  0
 32  6  1  0
 14  9  1  0
 30 19  1  0
 28 23  1  0
  1 33  1  0
  1 34  1  0
  1 35  1  0
  7 36  1  0
 10 37  1  0
 10 38  1  0
 11 39  1  0
 11 40  1  0
 12 41  1  0
 13 42  1  0
 13 43  1  0
 14 44  1  0
 14 45  1  0
 20 46  1  0
 21 47  1  0
 24 48  1  0
 24 49  1  0
 25 50  1  0
 25 51  1  0
 27 52  1  0
 27 53  1  0
 28 54  1  0
 28 55  1  0
 30 56  1  0
 31 57  1  0
M  CHG  2   5  -1  16  -1
M  END
>  <UniqueID>  (27) 
27

>  <SMILES>  (27) 
Cn1c(=O)[n-]c2cc(N3CCNCC3)c([N-]C(=O)c3ccc(N4CCOCC4)nc3)cc21

>  <Energy>  (27) 
118.81476291683907

>  <Genealogy>  (27) 
Cn1c(=O)[n-]c2cc(N3CCNCC3)c([N-]C(=O)c3ccc(N4CCOCC4)nc3)cc21 (protonated)
Cn1c(=O)[n-]c2cc(N3CCNCC3)c([N-]C(=O)c3ccc(N4CCOCC4)nc3)cc21 (3D coordinates assigned)
Cn1c(=O)[n-]c2cc(N3CCNCC3)c([N-]C(=O)c3ccc(N4CCOCC4)nc3)cc21 (nonaromatic ring conformer: 118.81476291683907 kcal/mol)

>  <smiles>  (27) 
Cn1c(=O)[nH]c2cc(N3CCNCC3)c(NC(=O)c3ccc(N4CCOCC4)nc3)cc21

>  <score_type>  (27) 
oracle

>  <origin>  (27) 
adgpu

>  <m_score__min__energy>  (27) 
-10.58

>  <m_primary>  (27) 
energy

$$$$
27:0
     RDKit          3D

 43 45  0  0  0  0  0  0  0  0999 V2000
   -2.7220   15.4910  -33.1210 C   0  0  0  0  0  0  0  0  0  0  0  0
   -3.6690   15.5230  -34.2410 N   0  0  0  0  0  0  0  0  0  0  0  0
   -3.1570   14.7230  -35.3620 C   0  0  0  0  0  0  0  0  0  0  0  0
   -3.9340   17.1720  -34.7580 S   0  0  0  0  0  0  0  0  0  0  0  0
   -4.3220   17.1870  -36.2090 O   0  0  0  0  0  0  0  0  0  0  0  0
   -2.6450   17.9370  -34.6310 O   0  0  0  0  0  0  0  0  0  0  0  0
   -5.1710   17.9800  -33.7720 C   0  0  0  0  0  0  0  0  0  0  0  0
   -4.8710   19.2430  -33.2340 C   0  0  0  0  0  0  0  0  0  0  0  0
   -5.8080   19.9340  -32.4440 C   0  0  0  0  0  0  0  0  0  0  0  0
   -5.4980   21.2080  -31.8490 N   0  0  0  0  0  0  0  0  0  0  0  0
   -4.2730   21.9280  -32.0670 C   0  0  0  0  0  0  0  0  0  0  0  0
   -3.5820   21.7090  -33.1000 O   0  0  0  0  0  0  0  0  0  0  0  0
   -3.8250   22.9570  -31.1140 C   0  0  0  0  0  0  0  0  0  0  0  0
   -2.9990   22.7680  -30.0240 C   0  0  0  0  0  0  0  0  0  0  0  0
   -2.8610   24.0330  -29.4770 C   0  0  0  0  0  0  0  0  0  0  0  0
   -2.0590   24.4050  -28.2780 C   0  0  0  0  0  0  0  0  0  0  0  0
   -2.0620   23.5770  -27.1360 C   0  0  0  0  0  0  0  0  0  0  0  0
   -1.3120   23.9150  -26.0070 C   0  0  0  0  0  0  0  0  0  0  0  0
   -0.5510   25.0820  -25.9940 C   0  0  0  0  0  0  0  0  0  0  0  0
   -0.5370   25.9170  -27.1130 C   0  0  0  0  0  0  0  0  0  0  0  0
   -1.2830   25.5890  -28.2510 C   0  0  0  0  0  0  0  0  0  0  0  0
   -1.2380   26.4470  -29.3450 O   0  0  0  0  0  0  0  0  0  0  0  0
   -3.5700   24.9110  -30.2160 N   0  0  0  0  0  0  0  0  0  0  0  0
   -4.1540   24.2590  -31.2100 N   0  0  0  0  0  0  0  0  0  0  0  0
   -7.0420   19.3320  -32.1690 C   0  0  0  0  0  0  0  0  0  0  0  0
   -7.3490   18.0780  -32.6940 C   0  0  0  0  0  0  0  0  0  0  0  0
   -6.4290   17.3970  -33.4980 C   0  0  0  0  0  0  0  0  0  0  0  0
   -6.9040   15.8140  -34.1080 Cl  0  0  0  0  0  0  0  0  0  0  0  0
   -3.2766   15.5097  -32.1712 H   0  0  0  0  0  0  0  0  0  0  0  0
   -2.1200   14.5720  -33.1760 H   0  0  0  0  0  0  0  0  0  0  0  0
   -2.0593   16.3673  -33.1760 H   0  0  0  0  0  0  0  0  0  0  0  0
   -2.6027   13.8569  -34.9713 H   0  0  0  0  0  0  0  0  0  0  0  0
   -3.9990   14.3724  -35.9770 H   0  0  0  0  0  0  0  0  0  0  0  0
   -2.4860   15.3407  -35.9770 H   0  0  0  0  0  0  0  0  0  0  0  0
   -3.8895   19.6980  -33.4334 H   0  0  0  0  0  0  0  0  0  0  0  0
   -6.2380   21.6670  -31.2720 H   0  0  0  0  0  0  0  0  0  0  0  0
   -2.5522   21.8270  -29.6705 H   0  0  0  0  0  0  0  0  0  0  0  0
   -2.6616   22.6548  -27.1345 H   0  0  0  0  0  0  0  0  0  0  0  0
   -1.3223   23.2575  -25.1252 H   0  0  0  0  0  0  0  0  0  0  0  0
    0.0381   25.3453  -25.1032 H   0  0  0  0  0  0  0  0  0  0  0  0
    0.0640   26.8382  -27.1001 H   0  0  0  0  0  0  0  0  0  0  0  0
   -7.7742   19.8525  -31.5342 H   0  0  0  0  0  0  0  0  0  0  0  0
   -8.3243   17.6193  -32.4740 H   0  0  0  0  0  0  0  0  0  0  0  0
  1  2  1  0
  2  3  1  0
  2  4  1  0
  4  5  2  0
  4  6  2  0
  4  7  1  0
  7  8  2  0
  8  9  1  0
  9 10  1  0
 10 11  1  0
 11 12  2  0
 11 13  1  0
 13 14  1  0
 14 15  2  0
 15 16  1  0
 16 17  2  0
 17 18  1  0
 18 19  2  0
 19 20  1  0
 20 21  2  0
 21 22  1  0
 15 23  1  0
 23 24  1  0
  9 25  2  0
 25 26  1  0
 26 27  2  0
 27 28  1  0
 27  7  1  0
 24 13  2  0
 21 16  1  0
  1 29  1  0
  1 30  1  0
  1 31  1  0
  3 32  1  0
  3 33  1  0
  3 34  1  0
  8 35  1  0
 10 36  1  0
 14 37  1  0
 17 38  1  0
 18 39  1  0
 19 40  1  0
 20 41  1  0
 25 42  1  0
 26 43  1  0
M  CHG  2  22  -1  23  -1
M  END
>  <UniqueID>  (28) 
28

>  <SMILES>  (28) 
CN(C)S(=O)(=O)c1cc(NC(=O)c2cc(-c3ccccc3[O-])[n-]n2)ccc1Cl

>  <Energy>  (28) 
81.31860442753148

>  <Genealogy>  (28) 
CN(C)S(=O)(=O)c1cc(NC(=O)c2cc(-c3ccccc3[O-])[n-]n2)ccc1Cl (protonated)
CN(C)S(=O)(=O)c1cc(NC(=O)c2cc(-c3ccccc3[O-])[n-]n2)ccc1Cl (3D coordinates assigned)
CN(C)S(=O)(=O)c1cc(NC(=O)c2cc(-c3ccccc3[O-])[n-]n2)ccc1Cl (optimized conformer: 81.31860442753148 kcal/mol)

>  <smiles>  (28) 
CN(C)S(=O)(=O)c1cc(NC(=O)c2cc(-c3ccccc3O)[nH]n2)ccc1Cl

>  <score_type>  (28) 
oracle

>  <origin>  (28) 
adgpu

>  <m_score__min__energy>  (28) 
-13.449999999999999

>  <m_primary>  (28) 
energy

$$$$
28:0
     RDKit          3D

 50 53  0  0  0  0  0  0  0  0999 V2000
   -6.1020   25.9980  -29.7250 C   0  0  0  0  0  0  0  0  0  0  0  0
   -5.9810   24.7390  -30.5370 C   0  0  0  0  0  0  0  0  0  0  0  0
   -7.1280   23.9750  -30.8090 C   0  0  0  0  0  0  0  0  0  0  0  0
   -7.0280   22.7610  -31.4980 C   0  0  0  0  0  0  0  0  0  0  0  0
   -8.4500   21.7370  -31.6740 S   0  0  0  0  0  0  0  0  0  0  0  0
   -8.8400   21.2200  -30.3170 O   0  0  0  0  0  0  0  0  0  0  0  0
   -9.5950   22.5360  -32.2340 O   0  0  0  0  0  0  0  0  0  0  0  0
   -8.0770   20.3910  -32.7310 N   0  0  0  0  0  0  0  0  0  0  0  0
   -9.2320   19.4960  -32.8630 C   0  0  0  0  0  0  0  0  0  0  0  0
   -9.1080   18.4080  -31.8070 C   0  0  0  0  0  0  0  0  0  0  0  0
   -7.6510   18.4210  -31.3850 C   0  0  0  0  0  0  0  0  0  0  0  0
   -7.0090   19.5690  -32.1540 C   0  0  0  0  0  0  0  0  0  0  0  0
   -5.7790   22.3240  -31.9550 C   0  0  0  0  0  0  0  0  0  0  0  0
   -4.6330   23.0660  -31.6750 C   0  0  0  0  0  0  0  0  0  0  0  0
   -4.7160   24.2470  -30.9160 C   0  0  0  0  0  0  0  0  0  0  0  0
   -3.5240   24.9120  -30.4720 N   0  0  0  0  0  0  0  0  0  0  0  0
   -2.8120   24.5900  -29.2670 C   0  0  0  0  0  0  0  0  0  0  0  0
   -2.3390   25.5260  -28.5700 O   0  0  0  0  0  0  0  0  0  0  0  0
   -2.6220   23.1860  -28.8280 C   0  0  0  0  0  0  0  0  0  0  0  0
   -3.6550   22.5480  -28.1300 C   0  0  0  0  0  0  0  0  0  0  0  0
   -3.4720   21.2730  -27.6020 C   0  0  0  0  0  0  0  0  0  0  0  0
   -2.2430   20.6160  -27.7450 C   0  0  0  0  0  0  0  0  0  0  0  0
   -2.0530   19.3580  -27.1560 C   0  0  0  0  0  0  0  0  0  0  0  0
   -0.8240   18.7070  -27.2670 C   0  0  0  0  0  0  0  0  0  0  0  0
    0.2250   19.3050  -27.9650 C   0  0  0  0  0  0  0  0  0  0  0  0
    1.4520   18.6600  -28.0530 O   0  0  0  0  0  0  0  0  0  0  0  0
    0.0480   20.5530  -28.5690 C   0  0  0  0  0  0  0  0  0  0  0  0
   -1.1890   21.2290  -28.4770 C   0  0  0  0  0  0  0  0  0  0  0  0
   -1.4060   22.5060  -29.0620 C   0  0  0  0  0  0  0  0  0  0  0  0
   -0.4560   23.1210  -29.8870 O   0  0  0  0  0  0  0  0  0  0  0  0
   -6.0779   25.7474  -28.6542 H   0  0  0  0  0  0  0  0  0  0  0  0
   -5.2643   26.6699  -29.9633 H   0  0  0  0  0  0  0  0  0  0  0  0
   -7.0523   26.4981  -29.9633 H   0  0  0  0  0  0  0  0  0  0  0  0
   -8.1135   24.3341  -30.4775 H   0  0  0  0  0  0  0  0  0  0  0  0
  -10.1623   20.0621  -32.7080 H   0  0  0  0  0  0  0  0  0  0  0  0
   -9.2570   19.0509  -33.8686 H   0  0  0  0  0  0  0  0  0  0  0  0
   -9.7594   18.6288  -30.9485 H   0  0  0  0  0  0  0  0  0  0  0  0
   -9.4130   17.4248  -32.1946 H   0  0  0  0  0  0  0  0  0  0  0  0
   -7.5671   18.5909  -30.3015 H   0  0  0  0  0  0  0  0  0  0  0  0
   -7.1574   17.4619  -31.6006 H   0  0  0  0  0  0  0  0  0  0  0  0
   -6.3983   20.1783  -31.4715 H   0  0  0  0  0  0  0  0  0  0  0  0
   -6.3611   19.1756  -32.9511 H   0  0  0  0  0  0  0  0  0  0  0  0
   -5.7020   21.3932  -32.5362 H   0  0  0  0  0  0  0  0  0  0  0  0
   -3.6567   22.7255  -32.0503 H   0  0  0  0  0  0  0  0  0  0  0  0
   -4.6200   23.0592  -27.9977 H   0  0  0  0  0  0  0  0  0  0  0  0
   -4.2975   20.7783  -27.0692 H   0  0  0  0  0  0  0  0  0  0  0  0
   -2.8767   18.8820  -26.6038 H   0  0  0  0  0  0  0  0  0  0  0  0
   -0.6820   17.7198  -26.8029 H   0  0  0  0  0  0  0  0  0  0  0  0
    0.8803   21.0134  -29.1215 H   0  0  0  0  0  0  0  0  0  0  0  0
   -0.6260   23.9400  -30.4510 H   0  0  0  0  0  0  0  0  0  0  0  0
  1  2  1  0
  2  3  2  0
  3  4  1  0
  4  5  1  0
  5  6  2  0
  5  7  2  0
  5  8  1  0
  8  9  1  0
  9 10  1  0
 10 11  1  0
 11 12  1  0
  4 13  2  0
 13 14  1  0
 14 15  2  0
 15 16  1  0
 16 17  1  0
 17 18  2  0
 17 19  1  0
 19 20  2  0
 20 21  1  0
 21 22  2  0
 22 23  1  0
 23 24  2  0
 24 25  1  0
 25 26  1  0
 25 27  2  0
 27 28  1  0
 28 29  2  0
 29 30  1  0
 15  2  1  0
 29 19  1  0
 12  8  1  0
 28 22  1  0
  1 31  1  0
  1 32  1  0
  1 33  1  0
  3 34  1  0
  9 35  1  0
  9 36  1  0
 10 37  1  0
 10 38  1  0
 11 39  1  0
 11 40  1  0
 12 41  1  0
 12 42  1  0
 13 43  1  0
 14 44  1  0
 20 45  1  0
 21 46  1  0
 23 47  1  0
 24 48  1  0
 27 49  1  0
 30 50  1  0
M  CHG  2  16  -1  26  -1
M  END
>  <UniqueID>  (29) 
29

>  <SMILES>  (29) 
Cc1cc(S(=O)(=O)N2CCCC2)ccc1[N-]C(=O)c1ccc2ccc([O-])cc2c1O

>  <Energy>  (29) 
68.02841814807469

>  <Genealogy>  (29) 
Cc1cc(S(=O)(=O)N2CCCC2)ccc1[N-]C(=O)c1ccc2ccc([O-])cc2c1O (protonated)
Cc1cc(S(=O)(=O)N2CCCC2)ccc1[N-]C(=O)c1ccc2ccc([O-])cc2c1O (3D coordinates assigned)
Cc1cc(S(=O)(=O)N2CCCC2)ccc1[N-]C(=O)c1ccc2ccc([O-])cc2c1O (nonaromatic ring conformer: 68.02841814807469 kcal/mol)

>  <smiles>  (29) 
Cc1cc(S(=O)(=O)N2CCCC2)ccc1NC(=O)c1ccc2ccc(O)cc2c1O

>  <score_type>  (29) 
oracle

>  <origin>  (29) 
adgpu

>  <m_score__min__energy>  (29) 
-12.06

>  <m_primary>  (29) 
energy

$$$$
29:0
     RDKit          3D

 41 44  0  0  0  0  0  0  0  0999 V2000
   -1.6090   20.4270  -25.7850 C   0  0  0  0  0  0  0  0  0  0  0  0
   -0.5930   20.3960  -26.8510 N   0  0  0  0  0  0  0  0  0  0  0  0
   -1.0550   19.6810  -28.0570 C   0  0  0  0  0  0  0  0  0  0  0  0
   -2.2280   20.3910  -28.7490 C   0  0  0  0  0  0  0  0  0  0  0  0
   -2.0240   21.8800  -28.8390 C   0  0  0  0  0  0  0  0  0  0  0  0
   -2.8690   22.6340  -29.6670 C   0  0  0  0  0  0  0  0  0  0  0  0
   -2.7350   24.0320  -29.7530 C   0  0  0  0  0  0  0  0  0  0  0  0
   -3.5770   24.8090  -30.6250 N   0  0  0  0  0  0  0  0  0  0  0  0
   -5.3100   24.8230  -30.5130 S   0  0  0  0  0  0  0  0  0  0  0  0
   -5.7100   24.8600  -29.0650 O   0  0  0  0  0  0  0  0  0  0  0  0
   -5.8450   26.0480  -31.2000 O   0  0  0  0  0  0  0  0  0  0  0  0
   -5.9690   23.3980  -31.3090 C   0  0  0  0  0  0  0  0  0  0  0  0
   -5.1220   22.5860  -32.1040 C   0  0  0  0  0  0  0  0  0  0  0  0
   -5.6180   21.4220  -32.7190 C   0  0  0  0  0  0  0  0  0  0  0  0
   -6.9580   21.1060  -32.5190 C   0  0  0  0  0  0  0  0  0  0  0  0
   -7.6330   20.0520  -33.0010 N   0  0  0  0  0  0  0  0  0  0  0  0
   -8.8740   20.2520  -32.4880 C   0  0  0  0  0  0  0  0  0  0  0  0
   -9.8300   19.4640  -32.7100 O   0  0  0  0  0  0  0  0  0  0  0  0
   -9.0120   21.3630  -31.7200 N   0  0  0  0  0  0  0  0  0  0  0  0
   -7.7780   21.8850  -31.7580 C   0  0  0  0  0  0  0  0  0  0  0  0
   -7.3240   23.0430  -31.1340 C   0  0  0  0  0  0  0  0  0  0  0  0
   -1.7600   24.6720  -28.9680 C   0  0  0  0  0  0  0  0  0  0  0  0
   -1.6010   26.0530  -29.0270 O   0  0  0  0  0  0  0  0  0  0  0  0
   -0.9310   23.9260  -28.1260 C   0  0  0  0  0  0  0  0  0  0  0  0
   -1.0620   22.5340  -28.0440 C   0  0  0  0  0  0  0  0  0  0  0  0
   -0.1000   21.7480  -27.1830 C   0  0  0  0  0  0  0  0  0  0  0  0
   -1.1117   20.4118  -24.8039 H   0  0  0  0  0  0  0  0  0  0  0  0
   -2.2096   21.3439  -25.8775 H   0  0  0  0  0  0  0  0  0  0  0  0
   -2.2644   19.5484  -25.8775 H   0  0  0  0  0  0  0  0  0  0  0  0
   -0.2178   19.6093  -28.7669 H   0  0  0  0  0  0  0  0  0  0  0  0
   -1.4050   18.6868  -27.7424 H   0  0  0  0  0  0  0  0  0  0  0  0
   -2.3352   19.9868  -29.7664 H   0  0  0  0  0  0  0  0  0  0  0  0
   -3.1312   20.2116  -28.1473 H   0  0  0  0  0  0  0  0  0  0  0  0
   -3.6463   22.1258  -30.2565 H   0  0  0  0  0  0  0  0  0  0  0  0
   -3.1570   25.2990  -31.4460 H   0  0  0  0  0  0  0  0  0  0  0  0
   -4.0678   22.8684  -32.2413 H   0  0  0  0  0  0  0  0  0  0  0  0
   -4.9688   20.7839  -33.3366 H   0  0  0  0  0  0  0  0  0  0  0  0
   -7.9990   23.6616  -30.5243 H   0  0  0  0  0  0  0  0  0  0  0  0
   -0.1676   24.4374  -27.5213 H   0  0  0  0  0  0  0  0  0  0  0  0
    0.8536   21.6504  -27.7226 H   0  0  0  0  0  0  0  0  0  0  0  0
    0.0171   22.2964  -26.2367 H   0  0  0  0  0  0  0  0  0  0  0  0
  1  2  1  0
  2  3  1  0
  3  4  1  0
  4  5  1  0
  5  6  2  0
  6  7  1  0
  7  8  1  0
  8  9  1  0
  9 10  2  0
  9 11  2  0
  9 12  1  0
 12 13  2  0
 13 14  1  0
 14 15  2  0
 15 16  1  0
 16 17  1  0
 17 18  2  0
 17 19  1  0
 19 20  1  0
 20 21  2  0
  7 22  2  0
 22 23  1  0
 22 24  1  0
 24 25  2  0
 25 26  1  0
 26  2  1  0
 25  5  1  0
 21 12  1  0
 20 15  1  0
  1 27  1  0
  1 28  1  0
  1 29  1  0
  3 30  1  0
  3 31  1  0
  4 32  1  0
  4 33  1  0
  6 34  1  0
  8 35  1  0
 13 36  1  0
 14 37  1  0
 21 38  1  0
 24 39  1  0
 26 40  1  0
 26 41  1  0
M  CHG  3  16  -1  19  -1  23  -1
M  END
>  <UniqueID>  (30) 
30

>  <SMILES>  (30) 
CN1CCc2cc(NS(=O)(=O)c3ccc4[n-]c(=O)[n-]c4c3)c([O-])cc2C1

>  <Energy>  (30) 
88.08802195433812

>  <Genealogy>  (30) 
CN1CCc2cc(NS(=O)(=O)c3ccc4[n-]c(=O)[n-]c4c3)c([O-])cc2C1 (protonated)
CN1CCc2cc(NS(=O)(=O)c3ccc4[n-]c(=O)[n-]c4c3)c([O-])cc2C1 (3D coordinates assigned)
CN1CCc2cc(NS(=O)(=O)c3ccc4[n-]c(=O)[n-]c4c3)c([O-])cc2C1 (nonaromatic ring conformer: 88.08802195433812 kcal/mol)

>  <smiles>  (30) 
CN1CCc2cc(NS(=O)(=O)c3ccc4[nH]c(=O)[nH]c4c3)c(O)cc2C1

>  <score_type>  (30) 
oracle

>  <origin>  (30) 
adgpu

>  <m_score__min__energy>  (30) 
-11.65

>  <m_primary>  (30) 
energy

$$$$
30:0
     RDKit          3D

 42 45  0  0  0  0  0  0  0  0999 V2000
   -3.4090   19.5990  -32.4320 O   0  0  0  0  0  0  0  0  0  0  0  0
   -2.9540   20.9650  -32.8630 S   0  0  0  0  0  0  0  0  0  0  0  0
   -2.0470   20.8370  -34.0520 O   0  0  0  0  0  0  0  0  0  0  0  0
   -4.3340   21.9240  -33.2900 N   0  0  0  0  0  0  0  0  0  0  0  0
   -5.5320   21.9300  -32.4960 C   0  0  0  0  0  0  0  0  0  0  0  0
   -6.4110   20.8340  -32.5240 C   0  0  0  0  0  0  0  0  0  0  0  0
   -7.5500   20.8100  -31.7140 C   0  0  0  0  0  0  0  0  0  0  0  0
   -8.7180   19.3000  -31.7540 Br  0  0  0  0  0  0  0  0  0  0  0  0
   -7.8330   21.8840  -30.8710 C   0  0  0  0  0  0  0  0  0  0  0  0
   -6.9770   22.9930  -30.8360 C   0  0  0  0  0  0  0  0  0  0  0  0
   -7.2320   24.0800  -29.9830 C   0  0  0  0  0  0  0  0  0  0  0  0
   -6.3560   25.1670  -29.9620 C   0  0  0  0  0  0  0  0  0  0  0  0
   -5.2290   25.1540  -30.7930 C   0  0  0  0  0  0  0  0  0  0  0  0
   -4.9890   24.0930  -31.6080 N   0  0  0  0  0  0  0  0  0  0  0  0
   -5.8250   23.0200  -31.6560 C   0  0  0  0  0  0  0  0  0  0  0  0
   -2.0740   21.7460  -31.5580 C   0  0  0  0  0  0  0  0  0  0  0  0
   -2.5460   22.8050  -30.8050 C   0  0  0  0  0  0  0  0  0  0  0  0
   -1.7260   23.1100  -29.7110 C   0  0  0  0  0  0  0  0  0  0  0  0
   -2.1410   24.3220  -28.5110 S   0  0  0  0  0  0  0  0  0  0  0  0
   -1.6480   25.6650  -28.9660 O   0  0  0  0  0  0  0  0  0  0  0  0
   -3.6330   24.3810  -28.3400 O   0  0  0  0  0  0  0  0  0  0  0  0
   -1.3900   23.9220  -26.9690 C   0  0  0  0  0  0  0  0  0  0  0  0
   -1.1940   22.5800  -26.6050 C   0  0  0  0  0  0  0  0  0  0  0  0
   -0.5620   22.2660  -25.3980 C   0  0  0  0  0  0  0  0  0  0  0  0
   -0.1230   23.2880  -24.5530 C   0  0  0  0  0  0  0  0  0  0  0  0
   -0.3100   24.6270  -24.9160 C   0  0  0  0  0  0  0  0  0  0  0  0
   -0.9350   24.9440  -26.1240 C   0  0  0  0  0  0  0  0  0  0  0  0
   -0.6110   22.2910  -29.6010 C   0  0  0  0  0  0  0  0  0  0  0  0
   -0.6590   21.1740  -30.8590 S   0  0  0  0  0  0  0  0  0  0  0  0
   -4.1950   22.6590  -34.0180 H   0  0  0  0  0  0  0  0  0  0  0  0
   -6.2003   19.9851  -33.1911 H   0  0  0  0  0  0  0  0  0  0  0  0
   -8.7288   21.8608  -30.2330 H   0  0  0  0  0  0  0  0  0  0  0  0
   -8.1196   24.0746  -29.3333 H   0  0  0  0  0  0  0  0  0  0  0  0
   -6.5490   26.0241  -29.3000 H   0  0  0  0  0  0  0  0  0  0  0  0
   -4.5343   26.0069  -30.7862 H   0  0  0  0  0  0  0  0  0  0  0  0
   -3.4707   23.3521  -31.0408 H   0  0  0  0  0  0  0  0  0  0  0  0
   -1.5382   21.7746  -27.2705 H   0  0  0  0  0  0  0  0  0  0  0  0
   -0.4105   21.2142  -25.1138 H   0  0  0  0  0  0  0  0  0  0  0  0
    0.3701   23.0404  -23.6014 H   0  0  0  0  0  0  0  0  0  0  0  0
    0.0358   25.4304  -24.2490 H   0  0  0  0  0  0  0  0  0  0  0  0
   -1.0704   25.9967  -26.4128 H   0  0  0  0  0  0  0  0  0  0  0  0
    0.1677   22.3599  -28.8271 H   0  0  0  0  0  0  0  0  0  0  0  0
  1  2  2  0
  2  3  2  0
  2  4  1  0
  4  5  1  0
  5  6  2  0
  6  7  1  0
  7  8  1  0
  7  9  2  0
  9 10  1  0
 10 11  2  0
 11 12  1  0
 12 13  2  0
 13 14  1  0
 14 15  2  0
  2 16  1  0
 16 17  2  0
 17 18  1  0
 18 19  1  0
 19 20  2  0
 19 21  2  0
 19 22  1  0
 22 23  2  0
 23 24  1  0
 24 25  2  0
 25 26  1  0
 26 27  2  0
 18 28  2  0
 28 29  1  0
 15  5  1  0
 29 16  1  0
 15 10  1  0
 27 22  1  0
  4 30  1  0
  6 31  1  0
  9 32  1  0
 11 33  1  0
 12 34  1  0
 13 35  1  0
 17 36  1  0
 23 37  1  0
 24 38  1  0
 25 39  1  0
 26 40  1  0
 27 41  1  0
 28 42  1  0
M  END
>  <UniqueID>  (31) 
31

>  <SMILES>  (31) 
O=S(=O)(Nc1cc(Br)cc2cccnc12)c1cc(S(=O)(=O)c2ccccc2)cs1

>  <Energy>  (31) 
78.10603643839666

>  <Genealogy>  (31) 
O=S(=O)(Nc1cc(Br)cc2cccnc12)c1cc(S(=O)(=O)c2ccccc2)cs1 (3D coordinates assigned)
O=S(=O)(Nc1cc(Br)cc2cccnc12)c1cc(S(=O)(=O)c2ccccc2)cs1 (optimized conformer: 78.10603643839666 kcal/mol)

>  <smiles>  (31) 
O=S(=O)(Nc1cc(Br)cc2cccnc12)c1cc(S(=O)(=O)c2ccccc2)cs1

>  <score_type>  (31) 
oracle

>  <origin>  (31) 
adgpu

>  <m_score__min__energy>  (31) 
-11.279999999999999

>  <m_primary>  (31) 
energy

$$$$
31:0
     RDKit          3D

 40 42  0  0  0  0  0  0  0  0999 V2000
   -5.4290   21.5840  -32.8970 H   0  0  0  0  0  0  0  0  0  0  0  0
   -6.2230   21.1960  -33.3930 O   0  0  0  0  0  0  0  0  0  0  0  0
   -6.9120   20.0810  -32.9120 C   0  0  0  0  0  0  0  0  0  0  0  0
   -7.6460   20.1690  -31.7210 C   0  0  0  0  0  0  0  0  0  0  0  0
   -7.7007   21.1255  -31.1805 H   0  0  0  0  0  0  0  0  0  0  0  0
   -8.3080   19.0470  -31.2180 C   0  0  0  0  0  0  0  0  0  0  0  0
   -8.8858   19.1221  -30.2850 H   0  0  0  0  0  0  0  0  0  0  0  0
   -8.2370   17.8290  -31.8990 C   0  0  0  0  0  0  0  0  0  0  0  0
   -8.7542   16.9447  -31.4984 H   0  0  0  0  0  0  0  0  0  0  0  0
   -7.5100   17.7330  -33.0880 C   0  0  0  0  0  0  0  0  0  0  0  0
   -7.4437   16.7685  -33.6128 H   0  0  0  0  0  0  0  0  0  0  0  0
   -6.8640   18.8610  -33.6160 C   0  0  0  0  0  0  0  0  0  0  0  0
   -6.0820   18.7220  -34.8600 C   0  0  0  0  0  0  0  0  0  0  0  0
   -6.4040   19.3045  -35.7358 H   0  0  0  0  0  0  0  0  0  0  0  0
   -5.0060   17.9340  -34.9950 C   0  0  0  0  0  0  0  0  0  0  0  0
   -4.5187   17.8848  -35.9799 H   0  0  0  0  0  0  0  0  0  0  0  0
   -4.4360   17.1250  -33.8910 C   0  0  0  0  0  0  0  0  0  0  0  0
   -4.6436   16.0448  -33.8926 H   0  0  0  0  0  0  0  0  0  0  0  0
   -3.6860   17.6110  -32.8900 C   0  0  0  0  0  0  0  0  0  0  0  0
   -3.2314   16.8770  -32.2084 H   0  0  0  0  0  0  0  0  0  0  0  0
   -3.4120   19.0350  -32.6150 C   0  0  0  0  0  0  0  0  0  0  0  0
   -4.1910   19.7640  -31.7880 N   0  0  0  0  0  0  0  0  0  0  0  0
   -3.6640   20.9970  -31.8670 C   0  0  0  0  0  0  0  0  0  0  0  0
   -4.2630   22.3830  -30.9790 S   0  0  0  0  0  0  0  0  0  0  0  0
   -5.4130   21.9690  -30.1050 O   0  0  0  0  0  0  0  0  0  0  0  0
   -4.7470   23.4190  -31.9550 O   0  0  0  0  0  0  0  0  0  0  0  0
   -2.9720   23.0310  -29.9660 C   0  0  0  0  0  0  0  0  0  0  0  0
   -2.1370   22.1610  -29.2470 C   0  0  0  0  0  0  0  0  0  0  0  0
   -2.2834   21.0735  -29.3235 H   0  0  0  0  0  0  0  0  0  0  0  0
   -1.1200   22.6710  -28.4340 C   0  0  0  0  0  0  0  0  0  0  0  0
   -0.2960   21.8050  -27.7270 O   0  0  0  0  0  0  0  0  0  0  0  0
   -0.9320   24.0520  -28.3310 C   0  0  0  0  0  0  0  0  0  0  0  0
   -0.1304   24.4515  -27.6923 H   0  0  0  0  0  0  0  0  0  0  0  0
   -1.7630   24.9270  -29.0400 C   0  0  0  0  0  0  0  0  0  0  0  0
   -1.5720   26.2990  -28.9300 O   0  0  0  0  0  0  0  0  0  0  0  0
   -2.7830   24.4200  -29.8550 C   0  0  0  0  0  0  0  0  0  0  0  0
   -3.6060   25.3010  -30.5510 O   0  0  0  0  0  0  0  0  0  0  0  0
   -2.6050   21.0000  -32.7370 C   0  0  0  0  0  0  0  0  0  0  0  0
   -1.9876   21.8738  -32.9925 H   0  0  0  0  0  0  0  0  0  0  0  0
   -2.4460   19.7590  -33.2260 N   0  0  0  0  0  0  0  0  0  0  0  0
  1  2  1  0
  2  3  1  0
  3  4  2  0
  4  5  1  0
  4  6  1  0
  6  7  1  0
  6  8  2  0
  8  9  1  0
  8 10  1  0
 10 11  1  0
 10 12  2  0
 12 13  1  0
 13 14  1  0
 13 15  2  0
 15 16  1  0
 15 17  1  0
 17 18  1  0
 17 19  2  0
 19 20  1  0
 19 21  1  0
 21 22  2  0
 22 23  1  0
 23 24  1  0
 24 25  2  0
 24 26  2  0
 24 27  1  0
 27 28  2  0
 28 29  1  0
 28 30  1  0
 30 31  1  0
 30 32  2  0
 32 33  1  0
 32 34  1  0
 34 35  1  0
 34 36  2  0
 36 37  1  0
 23 38  2  0
 38 39  1  0
 38 40  1  0
 12  3  1  0
 40 21  1  0
 36 27  1  0
M  CHG  4  31  -1  35  -1  37  -1  40  -1
M  END
>  <UniqueID>  (32) 
32

>  <SMILES>  (32) 
O=S(=O)(c1c[n-]c(/C=C\C=Cc2ccccc2O)n1)c1cc([O-])cc([O-])c1[O-]

>  <Energy>  (32) 
83.9162663844841

>  <Genealogy>  (32) 
O=S(=O)(c1c[n-]c(C=CC=Cc2ccccc2O)n1)c1cc([O-])cc([O-])c1[O-] (protonated)
O=S(=O)(c1c[n-]c(/C=C\C=Cc2ccccc2O)n1)c1cc([O-])cc([O-])c1[O-] (cis-trans isomerization)
O=S(=O)(c1c[n-]c(/C=C\C=Cc2ccccc2O)n1)c1cc([O-])cc([O-])c1[O-] (3D coordinates assigned)
O=S(=O)(c1c[n-]c(/C=C\C=Cc2ccccc2O)n1)c1cc([O-])cc([O-])c1[O-] (optimized conformer: 83.9162663844841 kcal/mol)

>  <smiles>  (32) 
O=S(=O)(c1c[nH]c(C=CC=Cc2ccccc2O)n1)c1cc(O)cc(O)c1O

>  <score_type>  (32) 
oracle

>  <origin>  (32) 
adgpu

>  <m_score__min__energy>  (32) 
-14.619999999999999

>  <m_primary>  (32) 
energy

$$$$
32:0
     RDKit          3D

 66 71  0  0  0  0  0  0  0  0999 V2000
   -2.2850   20.4440  -26.4600 O   0  0  0  0  0  0  0  0  0  0  0  0
   -1.6250   21.5020  -26.6630 C   0  0  0  0  0  0  0  0  0  0  0  0
   -2.1120   22.4910  -27.6530 C   0  0  0  0  0  0  0  0  0  0  0  0
   -2.6820   23.7070  -27.2330 C   0  0  0  0  0  0  0  0  0  0  0  0
   -3.1420   24.6370  -28.1710 C   0  0  0  0  0  0  0  0  0  0  0  0
   -3.0430   24.3630  -29.5380 C   0  0  0  0  0  0  0  0  0  0  0  0
   -3.5010   25.2950  -30.4630 O   0  0  0  0  0  0  0  0  0  0  0  0
   -2.4880   23.1510  -29.9690 C   0  0  0  0  0  0  0  0  0  0  0  0
   -2.3940   22.8570  -31.3610 N   0  0  0  0  0  0  0  0  0  0  0  0
   -3.1030   21.4180  -32.0010 S   0  0  0  0  0  0  0  0  0  0  0  0
   -2.6390   20.2310  -31.2050 O   0  0  0  0  0  0  0  0  0  0  0  0
   -2.6630   21.2380  -33.4260 O   0  0  0  0  0  0  0  0  0  0  0  0
   -4.8570   21.5590  -31.9420 C   0  0  0  0  0  0  0  0  0  0  0  0
   -5.4610   22.7900  -31.6490 C   0  0  0  0  0  0  0  0  0  0  0  0
   -6.8550   22.9060  -31.6330 C   0  0  0  0  0  0  0  0  0  0  0  0
   -7.6580   21.7920  -31.9210 C   0  0  0  0  0  0  0  0  0  0  0  0
   -9.0580   21.8980  -31.9150 C   0  0  0  0  0  0  0  0  0  0  0  0
   -9.8470   20.7820  -32.2110 C   0  0  0  0  0  0  0  0  0  0  0  0
   -9.2460   19.5560  -32.5140 C   0  0  0  0  0  0  0  0  0  0  0  0
   -7.8530   19.4370  -32.5200 C   0  0  0  0  0  0  0  0  0  0  0  0
   -7.0500   20.5490  -32.2250 C   0  0  0  0  0  0  0  0  0  0  0  0
   -5.6510   20.4430  -32.2340 C   0  0  0  0  0  0  0  0  0  0  0  0
   -2.0260   22.2200  -29.0300 C   0  0  0  0  0  0  0  0  0  0  0  0
   -0.3930   21.7180  -25.9440 N   0  0  0  0  0  0  0  0  0  0  0  0
   -0.5040   22.2150  -24.5730 C   0  0  0  0  0  0  0  0  0  0  0  0
   -0.6220   23.7390  -24.6170 C   0  0  0  0  0  0  0  0  0  0  0  0
    0.3260   24.3750  -25.6140 C   0  0  0  0  0  0  0  0  0  0  0  0
    0.4920   25.7670  -25.5700 C   0  0  0  0  0  0  0  0  0  0  0  0
    1.3440   26.4100  -26.4680 C   0  0  0  0  0  0  0  0  0  0  0  0
    2.0420   25.6700  -27.4180 C   0  0  0  0  0  0  0  0  0  0  0  0
    1.8800   24.2850  -27.4860 C   0  0  0  0  0  0  0  0  0  0  0  0
    0.9900   23.6160  -26.6200 C   0  0  0  0  0  0  0  0  0  0  0  0
    0.8570   22.0930  -26.6320 C   0  0  2  0  0  0  0  0  0  0  0  0
    0.9540   21.4260  -28.0380 C   0  0  0  0  0  0  0  0  0  0  0  0
    1.1640   19.9280  -27.9980 C   0  0  0  0  0  0  0  0  0  0  0  0
    0.0610   19.0550  -27.9540 C   0  0  0  0  0  0  0  0  0  0  0  0
    0.2550   17.6720  -27.8730 C   0  0  0  0  0  0  0  0  0  0  0  0
    1.5490   17.1500  -27.8090 C   0  0  0  0  0  0  0  0  0  0  0  0
    1.7400   15.7760  -27.7260 O   0  0  0  0  0  0  0  0  0  0  0  0
    2.6510   18.0090  -27.8220 C   0  0  0  0  0  0  0  0  0  0  0  0
    2.4620   19.3920  -27.9070 C   0  0  0  0  0  0  0  0  0  0  0  0
   -2.7665   23.9279  -26.1587 H   0  0  0  0  0  0  0  0  0  0  0  0
   -3.5827   25.5862  -27.8321 H   0  0  0  0  0  0  0  0  0  0  0  0
   -4.8359   23.6684  -31.4307 H   0  0  0  0  0  0  0  0  0  0  0  0
   -7.3226   23.8726  -31.3941 H   0  0  0  0  0  0  0  0  0  0  0  0
   -9.5349   22.8603  -31.6771 H   0  0  0  0  0  0  0  0  0  0  0  0
  -10.9436   20.8687  -32.2055 H   0  0  0  0  0  0  0  0  0  0  0  0
   -9.8716   18.6821  -32.7485 H   0  0  0  0  0  0  0  0  0  0  0  0
   -7.3857   18.4697  -32.7565 H   0  0  0  0  0  0  0  0  0  0  0  0
   -5.1760   19.4796  -32.4713 H   0  0  0  0  0  0  0  0  0  0  0  0
   -1.5923   21.2690  -29.3727 H   0  0  0  0  0  0  0  0  0  0  0  0
   -1.3975   21.7874  -24.0946 H   0  0  0  0  0  0  0  0  0  0  0  0
    0.3838   21.9225  -23.9932 H   0  0  0  0  0  0  0  0  0  0  0  0
   -1.6529   24.0034  -24.8949 H   0  0  0  0  0  0  0  0  0  0  0  0
   -0.3566   24.1198  -23.6197 H   0  0  0  0  0  0  0  0  0  0  0  0
   -0.0550   26.3574  -24.8201 H   0  0  0  0  0  0  0  0  0  0  0  0
    1.4643   27.5026  -26.4253 H   0  0  0  0  0  0  0  0  0  0  0  0
    2.7230   26.1777  -28.1169 H   0  0  0  0  0  0  0  0  0  0  0  0
    2.4544   23.7074  -28.2252 H   0  0  0  0  0  0  0  0  0  0  0  0
    1.7328   21.6988  -26.0956 H   0  0  0  0  0  0  0  0  0  0  0  0
    0.0199   21.6295  -28.5820 H   0  0  0  0  0  0  0  0  0  0  0  0
    1.8366   21.8569  -28.5333 H   0  0  0  0  0  0  0  0  0  0  0  0
   -0.9602   19.4628  -27.9835 H   0  0  0  0  0  0  0  0  0  0  0  0
   -0.6120   16.9952  -27.8597 H   0  0  0  0  0  0  0  0  0  0  0  0
    3.6692   17.5966  -27.7653 H   0  0  0  0  0  0  0  0  0  0  0  0
    3.3325   20.0644  -27.9027 H   0  0  0  0  0  0  0  0  0  0  0  0
  1  2  2  0
  2  3  1  0
  3  4  2  0
  4  5  1  0
  5  6  2  0
  6  7  1  0
  6  8  1  0
  8  9  1  0
  9 10  1  0
 10 11  2  0
 10 12  2  0
 10 13  1  0
 13 14  2  0
 14 15  1  0
 15 16  2  0
 16 17  1  0
 17 18  2  0
 18 19  1  0
 19 20  2  0
 20 21  1  0
 21 22  2  0
  8 23  2  0
  2 24  1  0
 24 25  1  0
 25 26  1  0
 26 27  1  0
 27 28  2  0
 28 29  1  0
 29 30  2  0
 30 31  1  0
 31 32  2  0
 32 33  1  0
 33 34  1  0
 34 35  1  0
 35 36  2  0
 36 37  1  0
 37 38  2  0
 38 39  1  0
 38 40  1  0
 40 41  2  0
 23  3  1  0
 33 24  1  0
 41 35  1  0
 22 13  1  0
 32 27  1  0
 21 16  1  0
  4 42  1  0
  5 43  1  0
 14 44  1  0
 15 45  1  0
 17 46  1  0
 18 47  1  0
 19 48  1  0
 20 49  1  0
 22 50  1  0
 23 51  1  0
 25 52  1  0
 25 53  1  0
 26 54  1  0
 26 55  1  0
 28 56  1  0
 29 57  1  0
 30 58  1  0
 31 59  1  0
 33 60  1  1
 34 61  1  0
 34 62  1  0
 36 63  1  0
 37 64  1  0
 40 65  1  0
 41 66  1  0
M  CHG  3   7  -1   9  -1  39  -1
M  END
>  <UniqueID>  (33) 
33

>  <SMILES>  (33) 
O=C(c1ccc([O-])c([N-]S(=O)(=O)c2ccc3ccccc3c2)c1)N1CCc2ccccc2[C@@H]1Cc1ccc([O-])cc1

>  <Energy>  (33) 
102.43965727727156

>  <Genealogy>  (33) 
O=C(c1ccc([O-])c([N-]S(=O)(=O)c2ccc3ccccc3c2)c1)N1CCc2ccccc2C1Cc1ccc([O-])cc1 (protonated)
O=C(c1ccc([O-])c([N-]S(=O)(=O)c2ccc3ccccc3c2)c1)N1CCc2ccccc2[C@@H]1Cc1ccc([O-])cc1 (chirality)
O=C(c1ccc([O-])c([N-]S(=O)(=O)c2ccc3ccccc3c2)c1)N1CCc2ccccc2[C@@H]1Cc1ccc([O-])cc1 (3D coordinates assigned)
O=C(c1ccc([O-])c([N-]S(=O)(=O)c2ccc3ccccc3c2)c1)N1CCc2ccccc2[C@@H]1Cc1ccc([O-])cc1 (nonaromatic ring conformer: 102.43965727727156 kcal/mol)

>  <smiles>  (33) 
O=C(c1ccc(O)c(NS(=O)(=O)c2ccc3ccccc3c2)c1)N1CCc2ccccc2C1Cc1ccc(O)cc1

>  <score_type>  (33) 
oracle

>  <origin>  (33) 
adgpu

>  <m_score__min__energy>  (33) 
-15.81

>  <m_primary>  (33) 
energy

$$$$
33:0
     RDKit          3D

 39 41  0  0  0  0  0  0  0  0999 V2000
   -5.9840   25.1960  -30.1020 C   0  0  0  0  0  0  0  0  0  0  0  0
   -5.0600   24.1330  -30.6380 C   0  0  0  0  0  0  0  0  0  0  0  0
   -3.6690   24.2220  -30.4430 C   0  0  0  0  0  0  0  0  0  0  0  0
   -3.1140   25.2950  -29.7540 O   0  0  0  0  0  0  0  0  0  0  0  0
   -2.8210   23.2330  -30.9440 C   0  0  0  0  0  0  0  0  0  0  0  0
   -3.3320   22.1290  -31.6500 C   0  0  0  0  0  0  0  0  0  0  0  0
   -2.4130   21.0850  -32.1900 C   0  0  0  0  0  0  0  0  0  0  0  0
   -2.4480   19.9150  -31.7190 O   0  0  0  0  0  0  0  0  0  0  0  0
   -1.4520   21.3610  -33.3150 C   0  0  0  0  0  0  0  0  0  0  0  0
   -0.1660   20.5460  -33.1440 C   0  0  0  0  0  0  0  0  0  0  0  0
    0.7920   20.8290  -34.2690 C   0  0  0  0  0  0  0  0  0  0  0  0
    1.7920   19.9000  -34.5960 C   0  0  0  0  0  0  0  0  0  0  0  0
    2.6610   20.1460  -35.6630 C   0  0  0  0  0  0  0  0  0  0  0  0
    2.5330   21.3170  -36.4160 C   0  0  0  0  0  0  0  0  0  0  0  0
    3.4020   21.5570  -37.4760 O   0  0  0  0  0  0  0  0  0  0  0  0
    1.5300   22.2430  -36.1050 C   0  0  0  0  0  0  0  0  0  0  0  0
    1.3940   23.4050  -36.8550 O   0  0  0  0  0  0  0  0  0  0  0  0
    0.6590   21.9970  -35.0370 C   0  0  0  0  0  0  0  0  0  0  0  0
   -4.7270   22.0370  -31.8420 C   0  0  0  0  0  0  0  0  0  0  0  0
   -5.2770   20.9510  -32.5180 O   0  0  0  0  0  0  0  0  0  0  0  0
   -5.5840   23.0310  -31.3430 C   0  0  0  0  0  0  0  0  0  0  0  0
   -6.9930   22.9060  -31.5560 N   0  0  0  0  0  0  0  0  0  0  0  0
   -8.2720   22.1400  -31.4890 C   0  0  0  0  0  0  0  0  0  0  0  0
   -8.3220   23.4170  -32.0060 C   0  0  0  0  0  0  0  0  0  0  0  0
   -5.9668   25.1762  -29.0023 H   0  0  0  0  0  0  0  0  0  0  0  0
   -5.6520   26.1831  -30.4562 H   0  0  0  0  0  0  0  0  0  0  0  0
   -7.0077   25.0046  -30.4562 H   0  0  0  0  0  0  0  0  0  0  0  0
   -1.7360   23.3183  -30.7842 H   0  0  0  0  0  0  0  0  0  0  0  0
   -1.9267   21.0898  -34.2695 H   0  0  0  0  0  0  0  0  0  0  0  0
   -1.1956   22.4306  -33.3053 H   0  0  0  0  0  0  0  0  0  0  0  0
    0.3083   20.8148  -32.1886 H   0  0  0  0  0  0  0  0  0  0  0  0
   -0.4197   19.4757  -33.1542 H   0  0  0  0  0  0  0  0  0  0  0  0
    1.8923   18.9744  -34.0102 H   0  0  0  0  0  0  0  0  0  0  0  0
    3.4468   19.4171  -35.9105 H   0  0  0  0  0  0  0  0  0  0  0  0
   -0.1332   22.7219  -34.7984 H   0  0  0  0  0  0  0  0  0  0  0  0
   -8.4242   21.2782  -32.1554 H   0  0  0  0  0  0  0  0  0  0  0  0
   -8.8098   21.6229  -30.6807 H   0  0  0  0  0  0  0  0  0  0  0  0
   -8.5132   23.5611  -33.0796 H   0  0  0  0  0  0  0  0  0  0  0  0
   -8.9147   24.3131  -31.7700 H   0  0  0  0  0  0  0  0  0  0  0  0
  1  2  1  0
  2  3  2  0
  3  4  1  0
  3  5  1  0
  5  6  2  0
  6  7  1  0
  7  8  2  0
  7  9  1  0
  9 10  1  0
 10 11  1  0
 11 12  2  0
 12 13  1  0
 13 14  2  0
 14 15  1  0
 14 16  1  0
 16 17  1  0
 16 18  2  0
  6 19  1  0
 19 20  1  0
 19 21  2  0
 21 22  1  0
 22 23  1  0
 23 24  1  0
 21  2  1  0
 24 22  1  0
 18 11  1  0
  1 25  1  0
  1 26  1  0
  1 27  1  0
  5 28  1  0
  9 29  1  0
  9 30  1  0
 10 31  1  0
 10 32  1  0
 12 33  1  0
 13 34  1  0
 18 35  1  0
 23 36  1  0
 23 37  1  0
 24 38  1  0
 24 39  1  0
M  CHG  4   4  -1  15  -1  17  -1  20  -1
M  END
>  <UniqueID>  (34) 
34

>  <SMILES>  (34) 
Cc1c([O-])cc(C(=O)CCc2ccc([O-])c([O-])c2)c([O-])c1N1CC1

>  <Energy>  (34) 
273.46102752855364

>  <Genealogy>  (34) 
Cc1c([O-])cc(C(=O)CCc2ccc([O-])c([O-])c2)c([O-])c1N1CC1 (protonated)
Cc1c([O-])cc(C(=O)CCc2ccc([O-])c([O-])c2)c([O-])c1N1CC1 (3D coordinates assigned)
Cc1c([O-])cc(C(=O)CCc2ccc([O-])c([O-])c2)c([O-])c1N1CC1 (nonaromatic ring conformer: 273.46102752855364 kcal/mol)

>  <smiles>  (34) 
Cc1c(O)cc(C(=O)CCc2ccc(O)c(O)c2)c(O)c1N1CC1

>  <score_type>  (34) 
oracle

>  <origin>  (34) 
adgpu

>  <m_score__min__energy>  (34) 
-13.35

>  <m_primary>  (34) 
energy

$$$$
34:0
     RDKit          3D

 42 44  0  0  0  0  0  0  0  0999 V2000
   -9.8520   20.4350  -32.3880 C   0  0  0  0  0  0  0  0  0  0  0  0
   -9.5730   21.8190  -32.2110 O   0  0  0  0  0  0  0  0  0  0  0  0
   -8.4120   22.3210  -31.6040 C   0  0  0  0  0  0  0  0  0  0  0  0
   -8.0430   21.9870  -30.2870 C   0  0  0  0  0  0  0  0  0  0  0  0
   -6.8770   22.5160  -29.7260 C   0  0  0  0  0  0  0  0  0  0  0  0
   -6.0730   23.3930  -30.4670 C   0  0  0  0  0  0  0  0  0  0  0  0
   -4.6090   24.0700  -29.7680 S   0  0  0  0  0  0  0  0  0  0  0  0
   -3.9140   24.9720  -30.7480 O   0  0  0  0  0  0  0  0  0  0  0  0
   -5.0310   24.9120  -28.5960 O   0  0  0  0  0  0  0  0  0  0  0  0
   -3.4840   22.8010  -29.2290 C   0  0  0  0  0  0  0  0  0  0  0  0
   -3.1880   22.7480  -27.8530 C   0  0  0  0  0  0  0  0  0  0  0  0
   -2.3100   21.7940  -27.3440 C   0  0  0  0  0  0  0  0  0  0  0  0
   -1.7100   20.8740  -28.1950 C   0  0  0  0  0  0  0  0  0  0  0  0
   -1.9850   20.9030  -29.5610 C   0  0  0  0  0  0  0  0  0  0  0  0
   -2.8690   21.8560  -30.1030 C   0  0  0  0  0  0  0  0  0  0  0  0
   -3.1550   21.7900  -31.8580 S   0  0  0  0  0  0  0  0  0  0  0  0
   -1.8390   21.7220  -32.5780 O   0  0  0  0  0  0  0  0  0  0  0  0
   -3.8580   23.0390  -32.3100 O   0  0  0  0  0  0  0  0  0  0  0  0
   -4.1840   20.4340  -32.3010 C   0  0  0  0  0  0  0  0  0  0  0  0
   -3.8530   19.6140  -33.3900 C   0  0  0  0  0  0  0  0  0  0  0  0
   -4.6750   18.5360  -33.7320 C   0  0  0  0  0  0  0  0  0  0  0  0
   -5.8370   18.2790  -32.9960 C   0  0  0  0  0  0  0  0  0  0  0  0
   -6.8670   16.9260  -33.4260 Cl  0  0  0  0  0  0  0  0  0  0  0  0
   -6.1790   19.1050  -31.9200 C   0  0  0  0  0  0  0  0  0  0  0  0
   -5.3560   20.1820  -31.5760 C   0  0  0  0  0  0  0  0  0  0  0  0
   -6.4310   23.7160  -31.7820 C   0  0  0  0  0  0  0  0  0  0  0  0
   -7.5960   23.1850  -32.3440 C   0  0  0  0  0  0  0  0  0  0  0  0
   -9.9494   19.9519  -31.4046 H   0  0  0  0  0  0  0  0  0  0  0  0
  -10.7916   20.3191  -32.9481 H   0  0  0  0  0  0  0  0  0  0  0  0
   -9.0307   19.9641  -32.9481 H   0  0  0  0  0  0  0  0  0  0  0  0
   -8.6749   21.3069  -29.6970 H   0  0  0  0  0  0  0  0  0  0  0  0
   -6.5896   22.2432  -28.6999 H   0  0  0  0  0  0  0  0  0  0  0  0
   -3.6574   23.4711  -27.1698 H   0  0  0  0  0  0  0  0  0  0  0  0
   -2.0912   21.7689  -26.2663 H   0  0  0  0  0  0  0  0  0  0  0  0
   -1.0170   20.1218  -27.7901 H   0  0  0  0  0  0  0  0  0  0  0  0
   -1.5043   20.1704  -30.2259 H   0  0  0  0  0  0  0  0  0  0  0  0
   -2.9450   19.8195  -33.9759 H   0  0  0  0  0  0  0  0  0  0  0  0
   -4.4079   17.8891  -34.5807 H   0  0  0  0  0  0  0  0  0  0  0  0
   -7.0954   18.9073  -31.3445 H   0  0  0  0  0  0  0  0  0  0  0  0
   -5.6298   20.8336  -30.7332 H   0  0  0  0  0  0  0  0  0  0  0  0
   -5.7939   24.3893  -32.3743 H   0  0  0  0  0  0  0  0  0  0  0  0
   -7.8735   23.4481  -33.3754 H   0  0  0  0  0  0  0  0  0  0  0  0
  1  2  1  0
  2  3  1  0
  3  4  2  0
  4  5  1  0
  5  6  2  0
  6  7  1  0
  7  8  2  0
  7  9  2  0
  7 10  1  0
 10 11  2  0
 11 12  1  0
 12 13  2  0
 13 14  1  0
 14 15  2  0
 15 16  1  0
 16 17  2  0
 16 18  2  0
 16 19  1  0
 19 20  2  0
 20 21  1  0
 21 22  2  0
 22 23  1  0
 22 24  1  0
 24 25  2  0
  6 26  1  0
 26 27  2  0
 27  3  1  0
 15 10  1  0
 25 19  1  0
  1 28  1  0
  1 29  1  0
  1 30  1  0
  4 31  1  0
  5 32  1  0
 11 33  1  0
 12 34  1  0
 13 35  1  0
 14 36  1  0
 20 37  1  0
 21 38  1  0
 24 39  1  0
 25 40  1  0
 26 41  1  0
 27 42  1  0
M  END
>  <UniqueID>  (35) 
35

>  <SMILES>  (35) 
COc1ccc(S(=O)(=O)c2ccccc2S(=O)(=O)c2ccc(Cl)cc2)cc1

>  <Energy>  (35) 
51.284044612346975

>  <Genealogy>  (35) 
COc1ccc(S(=O)(=O)c2ccccc2S(=O)(=O)c2ccc(Cl)cc2)cc1 (3D coordinates assigned)
COc1ccc(S(=O)(=O)c2ccccc2S(=O)(=O)c2ccc(Cl)cc2)cc1 (optimized conformer: 51.284044612346975 kcal/mol)

>  <smiles>  (35) 
COc1ccc(S(=O)(=O)c2ccccc2S(=O)(=O)c2ccc(Cl)cc2)cc1

>  <score_type>  (35) 
oracle

>  <origin>  (35) 
adgpu

>  <m_score__min__energy>  (35) 
-9.0099999999999998

>  <m_primary>  (35) 
energy

$$$$
35:0
     RDKit          3D

 47 50  0  0  0  0  0  0  0  0999 V2000
    0.4520   21.5470  -33.4070 O   0  0  0  0  0  0  0  0  0  0  0  0
   -0.6780   20.6910  -32.9030 S   0  0  0  0  0  0  0  0  0  0  0  0
   -0.2490   19.2510  -32.9490 O   0  0  0  0  0  0  0  0  0  0  0  0
   -2.0620   20.9110  -33.8830 O   0  0  0  0  0  0  0  0  0  0  0  0
   -3.3540   20.4790  -33.5510 C   0  0  0  0  0  0  0  0  0  0  0  0
   -3.7580   19.1360  -33.6570 C   0  0  0  0  0  0  0  0  0  0  0  0
   -5.0590   18.7580  -33.3130 C   0  0  0  0  0  0  0  0  0  0  0  0
   -5.9800   19.7120  -32.8460 C   0  0  0  0  0  0  0  0  0  0  0  0
   -7.3180   19.3340  -32.4650 N   0  0  0  0  0  0  0  0  0  0  0  0
   -8.4790   19.9780  -32.6890 C   0  0  0  0  0  0  0  0  0  0  0  0
   -9.5000   19.2710  -32.1710 N   0  0  0  0  0  0  0  0  0  0  0  0
   -8.9440   18.1970  -31.6320 N   0  0  0  0  0  0  0  0  0  0  0  0
   -7.6320   18.2310  -31.8070 N   0  0  0  0  0  0  0  0  0  0  0  0
   -5.5690   21.0520  -32.7360 C   0  0  0  0  0  0  0  0  0  0  0  0
   -4.2700   21.4280  -33.0920 C   0  0  0  0  0  0  0  0  0  0  0  0
   -1.0710   21.1430  -31.2440 C   0  0  0  0  0  0  0  0  0  0  0  0
   -1.8320   22.2950  -31.0010 C   0  0  0  0  0  0  0  0  0  0  0  0
   -2.1790   22.6570  -29.6920 C   0  0  0  0  0  0  0  0  0  0  0  0
   -3.1590   24.0970  -29.3990 S   0  0  0  0  0  0  0  0  0  0  0  0
   -2.2570   25.2940  -29.2840 O   0  0  0  0  0  0  0  0  0  0  0  0
   -3.8870   23.9410  -28.0930 O   0  0  0  0  0  0  0  0  0  0  0  0
   -4.3340   24.3600  -30.6720 N   0  0  0  0  0  0  0  0  0  0  0  0
   -5.3640   23.3120  -30.6800 C   0  0  0  0  0  0  0  0  0  0  0  0
   -6.6680   23.9030  -30.1540 C   0  0  0  0  0  0  0  0  0  0  0  0
   -6.3630   25.3440  -29.8120 C   0  0  0  0  0  0  0  0  0  0  0  0
   -5.0360   25.6350  -30.4850 C   0  0  0  0  0  0  0  0  0  0  0  0
   -1.7490   21.8640  -28.6190 C   0  0  0  0  0  0  0  0  0  0  0  0
   -0.9670   20.7310  -28.8510 C   0  0  0  0  0  0  0  0  0  0  0  0
   -0.6170   20.3690  -30.1600 C   0  0  0  0  0  0  0  0  0  0  0  0
    0.1830   19.2490  -30.3810 O   0  0  0  0  0  0  0  0  0  0  0  0
   -3.0451   18.3777  -34.0131 H   0  0  0  0  0  0  0  0  0  0  0  0
   -5.3647   17.7056  -33.4084 H   0  0  0  0  0  0  0  0  0  0  0  0
   -8.5780   20.9382  -33.2164 H   0  0  0  0  0  0  0  0  0  0  0  0
   -6.2748   21.8107  -32.3670 H   0  0  0  0  0  0  0  0  0  0  0  0
   -3.9666   22.4821  -33.0097 H   0  0  0  0  0  0  0  0  0  0  0  0
   -2.1596   22.9202  -31.8447 H   0  0  0  0  0  0  0  0  0  0  0  0
   -5.5113   22.9458  -31.7067 H   0  0  0  0  0  0  0  0  0  0  0  0
   -5.0492   22.4726  -30.0425 H   0  0  0  0  0  0  0  0  0  0  0  0
   -7.4503   23.8504  -30.9255 H   0  0  0  0  0  0  0  0  0  0  0  0
   -7.0371   23.3498  -29.2778 H   0  0  0  0  0  0  0  0  0  0  0  0
   -7.1481   26.0084  -30.2021 H   0  0  0  0  0  0  0  0  0  0  0  0
   -6.3204   25.5105  -28.7255 H   0  0  0  0  0  0  0  0  0  0  0  0
   -5.2089   26.1127  -31.4607 H   0  0  0  0  0  0  0  0  0  0  0  0
   -4.4340   26.3157  -29.8652 H   0  0  0  0  0  0  0  0  0  0  0  0
   -2.0288   22.1355  -27.5904 H   0  0  0  0  0  0  0  0  0  0  0  0
   -0.6239   20.1195  -28.0034 H   0  0  0  0  0  0  0  0  0  0  0  0
    0.2800   18.8400  -31.3050 H   0  0  0  0  0  0  0  0  0  0  0  0
  1  2  2  0
  2  3  2  0
  2  4  1  0
  4  5  1  0
  5  6  2  0
  6  7  1  0
  7  8  2  0
  8  9  1  0
  9 10  1  0
 10 11  2  0
 11 12  1  0
 12 13  2  0
  8 14  1  0
 14 15  2  0
  2 16  1  0
 16 17  2  0
 17 18  1  0
 18 19  1  0
 19 20  2  0
 19 21  2  0
 19 22  1  0
 22 23  1  0
 23 24  1  0
 24 25  1  0
 25 26  1  0
 18 27  2  0
 27 28  1  0
 28 29  2  0
 29 30  1  0
 15  5  1  0
 29 16  1  0
 13  9  1  0
 26 22  1  0
  6 31  1  0
  7 32  1  0
 10 33  1  0
 14 34  1  0
 15 35  1  0
 17 36  1  0
 23 37  1  0
 23 38  1  0
 24 39  1  0
 24 40  1  0
 25 41  1  0
 25 42  1  0
 26 43  1  0
 26 44  1  0
 27 45  1  0
 28 46  1  0
 30 47  1  0
M  END
>  <UniqueID>  (36) 
36

>  <SMILES>  (36) 
O=S(=O)(Oc1ccc(-n2cnnn2)cc1)c1cc(S(=O)(=O)N2CCCC2)ccc1O

>  <Energy>  (36) 
93.6819624036165

>  <Genealogy>  (36) 
O=S(=O)(Oc1ccc(-n2cnnn2)cc1)c1cc(S(=O)(=O)N2CCCC2)ccc1O (3D coordinates assigned)
O=S(=O)(Oc1ccc(-n2cnnn2)cc1)c1cc(S(=O)(=O)N2CCCC2)ccc1O (nonaromatic ring conformer: 93.6819624036165 kcal/mol)

>  <smiles>  (36) 
O=S(=O)(Oc1ccc(-n2cnnn2)cc1)c1cc(S(=O)(=O)N2CCCC2)ccc1O

>  <score_type>  (36) 
oracle

>  <origin>  (36) 
adgpu

>  <m_score__min__energy>  (36) 
-10.59

>  <m_primary>  (36) 
energy

$$$$
36:0
     RDKit          3D

 47 49  0  0  0  0  0  0  0  0999 V2000
   -3.9964   16.5502  -33.9005 H   0  0  0  0  0  0  0  0  0  0  0  0
   -4.8630   17.1220  -33.5370 C   0  0  0  0  0  0  0  0  0  0  0  0
   -5.4960   16.7520  -32.3510 C   0  0  0  0  0  0  0  0  0  0  0  0
   -5.1278   15.8871  -31.7798 H   0  0  0  0  0  0  0  0  0  0  0  0
   -6.5960   17.4760  -31.8860 C   0  0  0  0  0  0  0  0  0  0  0  0
   -7.0876   17.1763  -30.9487 H   0  0  0  0  0  0  0  0  0  0  0  0
   -7.0830   18.5860  -32.6040 C   0  0  0  0  0  0  0  0  0  0  0  0
   -8.2590   19.3380  -32.0920 C   0  0  0  0  0  0  0  0  0  0  0  0
   -9.4100   19.0470  -32.5150 O   0  0  0  0  0  0  0  0  0  0  0  0
   -8.0750   20.4200  -31.1620 N   0  0  0  0  0  0  0  0  0  0  0  0
   -7.5310   21.5870  -31.3600 C   0  0  0  0  0  0  0  0  0  0  0  0
   -7.3530   22.7280  -30.1380 S   0  0  0  0  0  0  0  0  0  0  0  0
   -6.6510   23.8160  -31.2170 C   0  0  0  0  0  0  0  0  0  0  0  0
   -6.2490   25.2160  -30.8800 C   0  0  0  0  0  0  0  0  0  0  0  0
   -7.1291   25.7686  -30.5193 H   0  0  0  0  0  0  0  0  0  0  0  0
   -5.8432   25.6968  -31.7823 H   0  0  0  0  0  0  0  0  0  0  0  0
   -5.1760   25.2170  -29.7950 C   0  0  0  0  0  0  0  0  0  0  0  0
   -5.2519   24.2926  -29.2036 H   0  0  0  0  0  0  0  0  0  0  0  0
   -5.3210   26.0865  -29.1371 H   0  0  0  0  0  0  0  0  0  0  0  0
   -3.8560   25.2910  -30.4150 N   0  0  0  0  0  0  0  0  0  0  0  0
   -2.7440   24.2770  -29.5490 S   0  0  0  0  0  0  0  0  0  0  0  0
   -3.3270   23.9180  -28.2110 O   0  0  0  0  0  0  0  0  0  0  0  0
   -1.4610   25.0280  -29.3240 O   0  0  0  0  0  0  0  0  0  0  0  0
   -2.3970   22.8180  -30.4770 C   0  0  0  0  0  0  0  0  0  0  0  0
   -1.3310   21.9860  -30.1230 C   0  0  0  0  0  0  0  0  0  0  0  0
   -0.6868   22.2528  -29.2722 H   0  0  0  0  0  0  0  0  0  0  0  0
   -1.0810   20.8180  -30.8450 C   0  0  0  0  0  0  0  0  0  0  0  0
   -0.2375   20.1717  -30.5607 H   0  0  0  0  0  0  0  0  0  0  0  0
   -1.8970   20.4600  -31.9320 C   0  0  0  0  0  0  0  0  0  0  0  0
   -1.6030   19.1920  -32.6890 C   0  0  0  0  0  0  0  0  0  0  0  0
   -1.4136   18.3753  -31.9768 H   0  0  0  0  0  0  0  0  0  0  0  0
   -2.4652   18.9343  -33.3216 H   0  0  0  0  0  0  0  0  0  0  0  0
   -0.7154   19.3400  -33.3216 H   0  0  0  0  0  0  0  0  0  0  0  0
   -2.9800   21.2970  -32.2910 C   0  0  0  0  0  0  0  0  0  0  0  0
   -3.8930   20.9450  -33.4360 C   0  0  0  0  0  0  0  0  0  0  0  0
   -4.8509   20.5757  -33.0410 H   0  0  0  0  0  0  0  0  0  0  0  0
   -4.0705   21.8391  -34.0516 H   0  0  0  0  0  0  0  0  0  0  0  0
   -3.4244   20.1631  -34.0516 H   0  0  0  0  0  0  0  0  0  0  0  0
   -3.2210   22.4690  -31.5530 C   0  0  0  0  0  0  0  0  0  0  0  0
   -4.0662   23.1186  -31.8242 H   0  0  0  0  0  0  0  0  0  0  0  0
   -6.5990   23.3050  -32.4670 N   0  0  0  0  0  0  0  0  0  0  0  0
   -7.0800   22.0650  -32.5470 N   0  0  0  0  0  0  0  0  0  0  0  0
   -7.1200   21.5710  -33.4620 H   0  0  0  0  0  0  0  0  0  0  0  0
   -6.4320   18.9520  -33.8060 C   0  0  0  0  0  0  0  0  0  0  0  0
   -6.8530   20.0070  -34.5480 F   0  0  0  0  0  0  0  0  0  0  0  0
   -5.3310   18.2200  -34.2630 C   0  0  0  0  0  0  0  0  0  0  0  0
   -4.8311   18.5104  -35.1988 H   0  0  0  0  0  0  0  0  0  0  0  0
  1  2  1  0
  2  3  2  0
  3  4  1  0
  3  5  1  0
  5  6  1  0
  5  7  2  0
  7  8  1  0
  8  9  2  0
  8 10  1  0
 10 11  2  0
 11 12  1  0
 12 13  1  0
 13 14  1  0
 14 15  1  0
 14 16  1  0
 14 17  1  0
 17 18  1  0
 17 19  1  0
 17 20  1  0
 20 21  1  0
 21 22  2  0
 21 23  2  0
 21 24  1  0
 24 25  2  0
 25 26  1  0
 25 27  1  0
 27 28  1  0
 27 29  2  0
 29 30  1  0
 30 31  1  0
 30 32  1  0
 30 33  1  0
 29 34  1  0
 34 35  1  0
 35 36  1  0
 35 37  1  0
 35 38  1  0
 34 39  2  0
 39 40  1  0
 13 41  2  0
 41 42  1  0
 42 43  1  0
  7 44  1  0
 44 45  1  0
 44 46  2  0
 46 47  1  0
 46  2  1  0
 42 11  1  0
 39 24  1  0
M  CHG  1  20  -1
M  END
>  <UniqueID>  (37) 
37

>  <SMILES>  (37) 
Cc1ccc(S(=O)(=O)[N-]CCc2n[nH]/c(=N\C(=O)c3ccccc3F)s2)cc1C

>  <Energy>  (37) 
84.89656824368869

>  <Genealogy>  (37) 
Cc1ccc(S(=O)(=O)[N-]CCc2n[nH]c(=NC(=O)c3ccccc3F)s2)cc1C (protonated)
Cc1ccc(S(=O)(=O)[N-]CCc2n[nH]/c(=N\C(=O)c3ccccc3F)s2)cc1C (cis-trans isomerization)
Cc1ccc(S(=O)(=O)[N-]CCc2n[nH]/c(=N\C(=O)c3ccccc3F)s2)cc1C (3D coordinates assigned)
Cc1ccc(S(=O)(=O)[N-]CCc2n[nH]/c(=N\C(=O)c3ccccc3F)s2)cc1C (optimized conformer: 84.89656824368869 kcal/mol)

>  <smiles>  (37) 
Cc1ccc(S(=O)(=O)NCCc2n[nH]c(=NC(=O)c3ccccc3F)s2)cc1C

>  <score_type>  (37) 
oracle

>  <origin>  (37) 
adgpu

>  <m_score__min__energy>  (37) 
-11.140000000000001

>  <m_primary>  (37) 
energy

$$$$
37:0
     RDKit          3D

 55 57  0  0  0  0  0  0  0  0999 V2000
   -6.8350   18.0880  -31.3380 C   0  0  0  0  0  0  0  0  0  0  0  0
   -8.0830   18.8490  -31.6710 C   0  0  0  0  0  0  0  0  0  0  0  0
   -9.1320   18.1960  -31.9310 O   0  0  0  0  0  0  0  0  0  0  0  0
   -8.1150   20.3360  -31.6960 C   0  0  0  0  0  0  0  0  0  0  0  0
   -9.3250   21.0100  -31.9450 C   0  0  0  0  0  0  0  0  0  0  0  0
   -9.3680   22.4050  -31.9740 C   0  0  0  0  0  0  0  0  0  0  0  0
   -8.2080   23.1490  -31.7480 C   0  0  0  0  0  0  0  0  0  0  0  0
   -6.9900   22.4980  -31.4850 C   0  0  0  0  0  0  0  0  0  0  0  0
   -5.7970   23.1960  -31.2340 O   0  0  0  0  0  0  0  0  0  0  0  0
   -5.4490   23.8150  -29.9960 C   0  0  0  0  0  0  0  0  0  0  0  0
   -4.2170   24.6490  -30.1560 C   0  0  0  0  0  0  0  0  0  0  0  0
   -4.2450   25.6640  -30.9020 O   0  0  0  0  0  0  0  0  0  0  0  0
   -3.0350   24.3160  -29.4190 N   0  0  0  0  0  0  0  0  0  0  0  0
   -2.1740   23.1980  -29.6760 C   0  0  0  0  0  0  0  0  0  0  0  0
   -1.1230   22.8580  -28.8070 C   0  0  0  0  0  0  0  0  0  0  0  0
   -0.2840   21.7810  -29.1060 C   0  0  0  0  0  0  0  0  0  0  0  0
   -0.4780   21.0460  -30.2780 C   0  0  0  0  0  0  0  0  0  0  0  0
   -1.5040   21.3930  -31.1640 C   0  0  0  0  0  0  0  0  0  0  0  0
   -1.7450   20.4460  -32.6310 S   0  0  0  0  0  0  0  0  0  0  0  0
   -1.6080   21.3260  -33.8420 O   0  0  0  0  0  0  0  0  0  0  0  0
   -0.6900   19.3760  -32.6890 O   0  0  0  0  0  0  0  0  0  0  0  0
   -3.3290   19.7100  -32.6060 N   0  0  0  0  0  0  0  0  0  0  0  0
   -4.2630   20.4940  -33.4470 C   0  0  0  0  0  0  0  0  0  0  0  0
   -5.4940   19.6720  -33.8350 C   0  0  0  0  0  0  0  0  0  0  0  0
   -5.0900   18.4620  -34.7120 C   0  0  0  0  0  0  0  0  0  0  0  0
   -6.1090   17.3250  -34.5600 C   0  0  0  0  0  0  0  0  0  0  0  0
   -3.6510   17.9770  -34.4070 C   0  0  0  0  0  0  0  0  0  0  0  0
   -3.2530   18.2680  -32.9510 C   0  0  0  0  0  0  0  0  0  0  0  0
   -2.3480   22.4720  -30.8610 C   0  0  0  0  0  0  0  0  0  0  0  0
   -6.9520   21.0980  -31.4680 C   0  0  0  0  0  0  0  0  0  0  0  0
   -6.7264   18.0218  -30.2454 H   0  0  0  0  0  0  0  0  0  0  0  0
   -6.8990   17.0751  -31.7621 H   0  0  0  0  0  0  0  0  0  0  0  0
   -5.9638   18.6087  -31.7621 H   0  0  0  0  0  0  0  0  0  0  0  0
  -10.2450   20.4325  -32.1183 H   0  0  0  0  0  0  0  0  0  0  0  0
  -10.3189   22.9200  -32.1756 H   0  0  0  0  0  0  0  0  0  0  0  0
   -8.2474   24.2479  -31.7758 H   0  0  0  0  0  0  0  0  0  0  0  0
   -6.2797   24.4558  -29.6654 H   0  0  0  0  0  0  0  0  0  0  0  0
   -5.2542   23.0317  -29.2486 H   0  0  0  0  0  0  0  0  0  0  0  0
   -0.9603   23.4414  -27.8887 H   0  0  0  0  0  0  0  0  0  0  0  0
    0.5304   21.5117  -28.4174 H   0  0  0  0  0  0  0  0  0  0  0  0
    0.1775   20.1923  -30.5050 H   0  0  0  0  0  0  0  0  0  0  0  0
   -4.5888   21.3825  -32.8862 H   0  0  0  0  0  0  0  0  0  0  0  0
   -3.7370   20.7834  -34.3687 H   0  0  0  0  0  0  0  0  0  0  0  0
   -5.9872   19.3074  -32.9218 H   0  0  0  0  0  0  0  0  0  0  0  0
   -6.1797   20.3119  -34.4097 H   0  0  0  0  0  0  0  0  0  0  0  0
   -5.0948   18.7934  -35.7609 H   0  0  0  0  0  0  0  0  0  0  0  0
   -6.2839   17.1298  -33.4917 H   0  0  0  0  0  0  0  0  0  0  0  0
   -7.0556   17.6145  -35.0397 H   0  0  0  0  0  0  0  0  0  0  0  0
   -5.7180   16.4156  -35.0397 H   0  0  0  0  0  0  0  0  0  0  0  0
   -3.5950   16.8925  -34.5826 H   0  0  0  0  0  0  0  0  0  0  0  0
   -2.9580   18.5180  -35.0681 H   0  0  0  0  0  0  0  0  0  0  0  0
   -3.9293   17.7121  -32.2850 H   0  0  0  0  0  0  0  0  0  0  0  0
   -2.2058   17.9548  -32.8273 H   0  0  0  0  0  0  0  0  0  0  0  0
   -3.1517   22.7496  -31.5588 H   0  0  0  0  0  0  0  0  0  0  0  0
   -5.9986   20.5850  -31.2735 H   0  0  0  0  0  0  0  0  0  0  0  0
  1  2  1  0
  2  3  2  0
  2  4  1  0
  4  5  2  0
  5  6  1  0
  6  7  2  0
  7  8  1  0
  8  9  1  0
  9 10  1  0
 10 11  1  0
 11 12  2  0
 11 13  1  0
 13 14  1  0
 14 15  2  0
 15 16  1  0
 16 17  2  0
 17 18  1  0
 18 19  1  0
 19 20  2  0
 19 21  2  0
 19 22  1  0
 22 23  1  0
 23 24  1  0
 24 25  1  0
 25 26  1  0
 25 27  1  0
 27 28  1  0
 18 29  2  0
  8 30  2  0
 30  4  1  0
 29 14  1  0
 28 22  1  0
  1 31  1  0
  1 32  1  0
  1 33  1  0
  5 34  1  0
  6 35  1  0
  7 36  1  0
 10 37  1  0
 10 38  1  0
 15 39  1  0
 16 40  1  0
 17 41  1  0
 23 42  1  0
 23 43  1  0
 24 44  1  0
 24 45  1  0
 25 46  1  0
 26 47  1  0
 26 48  1  0
 26 49  1  0
 27 50  1  0
 27 51  1  0
 28 52  1  0
 28 53  1  0
 29 54  1  0
 30 55  1  0
M  CHG  1  13  -1
M  END
>  <UniqueID>  (38) 
38

>  <SMILES>  (38) 
CC(=O)c1cccc(OCC(=O)[N-]c2cccc(S(=O)(=O)N3CCC(C)CC3)c2)c1

>  <Energy>  (38) 
62.726900205884064

>  <Genealogy>  (38) 
CC(=O)c1cccc(OCC(=O)[N-]c2cccc(S(=O)(=O)N3CCC(C)CC3)c2)c1 (protonated)
CC(=O)c1cccc(OCC(=O)[N-]c2cccc(S(=O)(=O)N3CCC(C)CC3)c2)c1 (3D coordinates assigned)
CC(=O)c1cccc(OCC(=O)[N-]c2cccc(S(=O)(=O)N3CCC(C)CC3)c2)c1 (nonaromatic ring conformer: 62.726900205884064 kcal/mol)

>  <smiles>  (38) 
CC(=O)c1cccc(OCC(=O)Nc2cccc(S(=O)(=O)N3CCC(C)CC3)c2)c1

>  <score_type>  (38) 
oracle

>  <origin>  (38) 
adgpu

>  <m_score__min__energy>  (38) 
-11.49

>  <m_primary>  (38) 
energy

$$$$
38:0
     RDKit          3D

 64 67  0  0  0  0  0  0  0  0999 V2000
   -0.9110   16.1260  -33.6470 C   0  0  0  0  0  0  0  0  0  0  0  0
   -0.6590   17.5760  -33.5970 N   0  0  0  0  0  0  0  0  0  0  0  0
   -0.3940   18.0730  -34.9580 C   0  0  0  0  0  0  0  0  0  0  0  0
    0.4730   17.8560  -32.6850 C   0  0  0  0  0  0  0  0  0  0  0  0
    0.0660   18.7990  -31.5360 C   0  0  0  0  0  0  0  0  0  0  0  0
   -1.3260   19.2460  -31.6560 N   0  0  0  0  0  0  0  0  0  0  0  0
   -1.8380   20.4200  -30.9860 C   0  0  0  0  0  0  0  0  0  0  0  0
   -1.3140   20.8070  -29.7350 C   0  0  0  0  0  0  0  0  0  0  0  0
   -1.8110   21.9230  -29.0640 C   0  0  0  0  0  0  0  0  0  0  0  0
   -2.8390   22.6820  -29.6230 C   0  0  0  0  0  0  0  0  0  0  0  0
   -3.4990   24.0730  -28.7580 S   0  0  0  0  0  0  0  0  0  0  0  0
   -2.7020   25.2980  -29.1130 O   0  0  0  0  0  0  0  0  0  0  0  0
   -3.3670   23.8460  -27.2770 O   0  0  0  0  0  0  0  0  0  0  0  0
   -5.1820   24.3330  -29.1540 N   0  0  0  0  0  0  0  0  0  0  0  0
   -5.8710   23.0360  -29.3360 C   0  0  0  0  0  0  0  0  0  0  0  0
   -7.2070   23.2120  -30.0630 C   0  0  0  0  0  0  0  0  0  0  0  0
   -7.0000   23.7850  -31.4760 C   0  0  0  0  0  0  0  0  0  0  0  0
   -5.6990   24.5960  -31.6050 C   0  0  0  0  0  0  0  0  0  0  0  0
   -5.3440   25.2870  -30.2800 C   0  0  0  0  0  0  0  0  0  0  0  0
   -3.3600   22.3230  -30.8680 C   0  0  0  0  0  0  0  0  0  0  0  0
   -2.8760   21.2020  -31.5640 C   0  0  0  0  0  0  0  0  0  0  0  0
   -3.6250   20.7700  -33.1150 S   0  0  0  0  0  0  0  0  0  0  0  0
   -3.8800   22.0050  -33.9320 O   0  0  0  0  0  0  0  0  0  0  0  0
   -2.6710   19.8860  -33.8700 O   0  0  0  0  0  0  0  0  0  0  0  0
   -5.1660   19.9090  -32.8990 C   0  0  0  0  0  0  0  0  0  0  0  0
   -6.2260   20.5880  -32.2760 C   0  0  0  0  0  0  0  0  0  0  0  0
   -7.4560   19.9640  -32.0720 C   0  0  0  0  0  0  0  0  0  0  0  0
   -7.6550   18.6500  -32.4900 C   0  0  0  0  0  0  0  0  0  0  0  0
   -6.6230   17.9510  -33.1260 C   0  0  0  0  0  0  0  0  0  0  0  0
   -6.8270   16.6350  -33.5640 C   0  0  0  0  0  0  0  0  0  0  0  0
   -5.8340   15.9640  -34.2020 N   0  0  0  0  0  0  0  0  0  0  0  0
   -4.6250   16.5340  -34.4370 C   0  0  0  0  0  0  0  0  0  0  0  0
   -4.3670   17.8410  -34.0180 C   0  0  0  0  0  0  0  0  0  0  0  0
   -5.3660   18.5730  -33.3430 C   0  0  0  0  0  0  0  0  0  0  0  0
   -0.9798   15.7303  -32.6230 H   0  0  0  0  0  0  0  0  0  0  0  0
   -1.8556   15.9361  -34.1777 H   0  0  0  0  0  0  0  0  0  0  0  0
   -0.0859   15.6285  -34.1777 H   0  0  0  0  0  0  0  0  0  0  0  0
    0.1228   19.0423  -34.9002 H   0  0  0  0  0  0  0  0  0  0  0  0
    0.2391   17.3514  -35.4951 H   0  0  0  0  0  0  0  0  0  0  0  0
   -1.3460   18.1965  -35.4951 H   0  0  0  0  0  0  0  0  0  0  0  0
    0.8281   16.9069  -32.2572 H   0  0  0  0  0  0  0  0  0  0  0  0
    1.2652   18.3499  -33.2668 H   0  0  0  0  0  0  0  0  0  0  0  0
    0.1866   18.2669  -30.5808 H   0  0  0  0  0  0  0  0  0  0  0  0
    0.7124   19.6878  -31.5821 H   0  0  0  0  0  0  0  0  0  0  0  0
   -1.9670   18.6740  -32.2460 H   0  0  0  0  0  0  0  0  0  0  0  0
   -0.5015   20.2197  -29.2824 H   0  0  0  0  0  0  0  0  0  0  0  0
   -1.3901   22.2067  -28.0881 H   0  0  0  0  0  0  0  0  0  0  0  0
   -5.2270   22.3681  -29.9269 H   0  0  0  0  0  0  0  0  0  0  0  0
   -6.0704   22.6068  -28.3430 H   0  0  0  0  0  0  0  0  0  0  0  0
   -7.7043   22.2340  -30.1417 H   0  0  0  0  0  0  0  0  0  0  0  0
   -7.8261   23.9167  -29.4885 H   0  0  0  0  0  0  0  0  0  0  0  0
   -6.9668   22.9508  -32.1923 H   0  0  0  0  0  0  0  0  0  0  0  0
   -7.8378   24.4671  -31.6831 H   0  0  0  0  0  0  0  0  0  0  0  0
   -4.8798   23.9184  -31.8874 H   0  0  0  0  0  0  0  0  0  0  0  0
   -5.8442   25.3690  -32.3740 H   0  0  0  0  0  0  0  0  0  0  0  0
   -4.4002   25.8362  -30.4128 H   0  0  0  0  0  0  0  0  0  0  0  0
   -6.1772   25.9585  -30.0253 H   0  0  0  0  0  0  0  0  0  0  0  0
   -4.1638   22.9286  -31.3120 H   0  0  0  0  0  0  0  0  0  0  0  0
   -6.0837   21.6271  -31.9443 H   0  0  0  0  0  0  0  0  0  0  0  0
   -8.2728   20.5115  -31.5789 H   0  0  0  0  0  0  0  0  0  0  0  0
   -8.6255   18.1609  -32.3197 H   0  0  0  0  0  0  0  0  0  0  0  0
   -7.7958   16.1439  -33.3900 H   0  0  0  0  0  0  0  0  0  0  0  0
   -3.8438   15.9633  -34.9605 H   0  0  0  0  0  0  0  0  0  0  0  0
   -3.3862   18.2989  -34.2141 H   0  0  0  0  0  0  0  0  0  0  0  0
  1  2  1  0
  2  3  1  0
  2  4  1  0
  4  5  1  0
  5  6  1  0
  6  7  1  0
  7  8  2  0
  8  9  1  0
  9 10  2  0
 10 11  1  0
 11 12  2  0
 11 13  2  0
 11 14  1  0
 14 15  1  0
 15 16  1  0
 16 17  1  0
 17 18  1  0
 18 19  1  0
 10 20  1  0
 20 21  2  0
 21 22  1  0
 22 23  2  0
 22 24  2  0
 22 25  1  0
 25 26  2  0
 26 27  1  0
 27 28  2  0
 28 29  1  0
 29 30  2  0
 30 31  1  0
 31 32  2  0
 32 33  1  0
 33 34  2  0
 21  7  1  0
 34 25  1  0
 19 14  1  0
 34 29  1  0
  1 35  1  0
  1 36  1  0
  1 37  1  0
  3 38  1  0
  3 39  1  0
  3 40  1  0
  4 41  1  0
  4 42  1  0
  5 43  1  0
  5 44  1  0
  6 45  1  0
  8 46  1  0
  9 47  1  0
 15 48  1  0
 15 49  1  0
 16 50  1  0
 16 51  1  0
 17 52  1  0
 17 53  1  0
 18 54  1  0
 18 55  1  0
 19 56  1  0
 19 57  1  0
 20 58  1  0
 26 59  1  0
 27 60  1  0
 28 61  1  0
 30 62  1  0
 32 63  1  0
 33 64  1  0
M  END
>  <UniqueID>  (39) 
39

>  <SMILES>  (39) 
CN(C)CCNc1ccc(S(=O)(=O)N2CCCCC2)cc1S(=O)(=O)c1cccc2cnccc12

>  <Energy>  (39) 
81.47505006389885

>  <Genealogy>  (39) 
CN(C)CCNc1ccc(S(=O)(=O)N2CCCCC2)cc1S(=O)(=O)c1cccc2cnccc12 (3D coordinates assigned)
CN(C)CCNc1ccc(S(=O)(=O)N2CCCCC2)cc1S(=O)(=O)c1cccc2cnccc12 (nonaromatic ring conformer: 81.47505006389885 kcal/mol)

>  <smiles>  (39) 
CN(C)CCNc1ccc(S(=O)(=O)N2CCCCC2)cc1S(=O)(=O)c1cccc2cnccc12

>  <score_type>  (39) 
oracle

>  <origin>  (39) 
adgpu

>  <m_score__min__energy>  (39) 
-10.789999999999999

>  <m_primary>  (39) 
energy

$$$$
39:0
     RDKit          3D

 42 44  0  0  0  0  0  0  0  0999 V2000
   -9.1090   20.9610  -31.6260 C   0  0  0  0  0  0  0  0  0  0  0  0
   -7.8700   20.7480  -32.4860 C   0  0  0  0  0  0  0  0  0  0  0  0
   -6.8220   21.6900  -32.1040 N   0  0  0  0  0  0  0  0  0  0  0  0
   -6.9540   22.7090  -31.2350 C   0  0  0  0  0  0  0  0  0  0  0  0
   -5.7540   23.3800  -31.1970 C   0  0  0  0  0  0  0  0  0  0  0  0
   -5.3500   24.7650  -30.2000 S   0  0  0  0  0  0  0  0  0  0  0  0
   -6.5880   25.5900  -29.9870 O   0  0  0  0  0  0  0  0  0  0  0  0
   -4.3060   25.6070  -30.8780 O   0  0  0  0  0  0  0  0  0  0  0  0
   -4.7490   24.2320  -28.6630 N   0  0  0  0  0  0  0  0  0  0  0  0
   -3.5870   23.4130  -28.4650 C   0  0  0  0  0  0  0  0  0  0  0  0
   -3.6750   22.1180  -27.9240 C   0  0  0  0  0  0  0  0  0  0  0  0
   -2.5200   21.3500  -27.7160 C   0  0  0  0  0  0  0  0  0  0  0  0
   -1.2640   21.8620  -28.0970 C   0  0  0  0  0  0  0  0  0  0  0  0
   -1.1790   23.1550  -28.6310 C   0  0  0  0  0  0  0  0  0  0  0  0
   -2.3330   23.9270  -28.8170 C   0  0  0  0  0  0  0  0  0  0  0  0
   -2.2380   25.2110  -29.3530 O   0  0  0  0  0  0  0  0  0  0  0  0
    0.0050   21.0810  -27.8430 C   0  0  0  0  0  0  0  0  0  0  0  0
   -0.2290   19.6320  -27.6840 N   0  0  0  0  0  0  0  0  0  0  0  0
   -0.4420   18.9630  -28.9780 C   0  0  0  0  0  0  0  0  0  0  0  0
   -1.3130   19.3650  -26.7190 C   0  0  0  0  0  0  0  0  0  0  0  0
   -2.6590   19.9530  -27.1710 C   0  0  0  0  0  0  0  0  0  0  0  0
   -4.9260   22.7180  -32.0800 C   0  0  0  0  0  0  0  0  0  0  0  0
   -5.6040   21.6910  -32.6290 N   0  0  0  0  0  0  0  0  0  0  0  0
   -8.8302   20.9131  -30.5630 H   0  0  0  0  0  0  0  0  0  0  0  0
   -9.5436   21.9470  -31.8470 H   0  0  0  0  0  0  0  0  0  0  0  0
   -9.8480   20.1767  -31.8470 H   0  0  0  0  0  0  0  0  0  0  0  0
   -7.5032   19.7204  -32.3463 H   0  0  0  0  0  0  0  0  0  0  0  0
   -8.1333   20.9131  -33.5412 H   0  0  0  0  0  0  0  0  0  0  0  0
   -7.8574   22.9597  -30.6597 H   0  0  0  0  0  0  0  0  0  0  0  0
   -4.6594   21.7033  -27.6614 H   0  0  0  0  0  0  0  0  0  0  0  0
   -0.1972   23.5674  -28.9066 H   0  0  0  0  0  0  0  0  0  0  0  0
   -3.0410   25.6790  -29.7570 H   0  0  0  0  0  0  0  0  0  0  0  0
    0.6865   21.2344  -28.6927 H   0  0  0  0  0  0  0  0  0  0  0  0
    0.4338   21.4496  -26.8994 H   0  0  0  0  0  0  0  0  0  0  0  0
   -0.7716   17.9278  -28.8057 H   0  0  0  0  0  0  0  0  0  0  0  0
   -1.2126   19.5032  -29.5476 H   0  0  0  0  0  0  0  0  0  0  0  0
    0.4990   18.9582  -29.5476 H   0  0  0  0  0  0  0  0  0  0  0  0
   -1.4237   18.2766  -26.6046 H   0  0  0  0  0  0  0  0  0  0  0  0
   -1.0403   19.8451  -25.7676 H   0  0  0  0  0  0  0  0  0  0  0  0
   -3.0809   19.3078  -27.9557 H   0  0  0  0  0  0  0  0  0  0  0  0
   -3.3175   19.9997  -26.2911 H   0  0  0  0  0  0  0  0  0  0  0  0
   -3.8819   22.9852  -32.3001 H   0  0  0  0  0  0  0  0  0  0  0  0
  1  2  1  0
  2  3  1  0
  3  4  1  0
  4  5  2  0
  5  6  1  0
  6  7  2  0
  6  8  2  0
  6  9  1  0
  9 10  1  0
 10 11  2  0
 11 12  1  0
 12 13  2  0
 13 14  1  0
 14 15  2  0
 15 16  1  0
 13 17  1  0
 17 18  1  0
 18 19  1  0
 18 20  1  0
 20 21  1  0
  5 22  1  0
 22 23  2  0
 23  3  1  0
 15 10  1  0
 21 12  1  0
  1 24  1  0
  1 25  1  0
  1 26  1  0
  2 27  1  0
  2 28  1  0
  4 29  1  0
 11 30  1  0
 14 31  1  0
 16 32  1  0
 17 33  1  0
 17 34  1  0
 19 35  1  0
 19 36  1  0
 19 37  1  0
 20 38  1  0
 20 39  1  0
 21 40  1  0
 21 41  1  0
 22 42  1  0
M  CHG  1   9  -1
M  END
>  <UniqueID>  (40) 
40

>  <SMILES>  (40) 
CCn1cc(S(=O)(=O)[N-]c2cc3c(cc2O)CN(C)CC3)cn1

>  <Energy>  (40) 
77.12929991678799

>  <Genealogy>  (40) 
CCn1cc(S(=O)(=O)[N-]c2cc3c(cc2O)CN(C)CC3)cn1 (protonated)
CCn1cc(S(=O)(=O)[N-]c2cc3c(cc2O)CN(C)CC3)cn1 (3D coordinates assigned)
CCn1cc(S(=O)(=O)[N-]c2cc3c(cc2O)CN(C)CC3)cn1 (nonaromatic ring conformer: 77.12929991678799 kcal/mol)

>  <smiles>  (40) 
CCn1cc(S(=O)(=O)Nc2cc3c(cc2O)CN(C)CC3)cn1

>  <score_type>  (40) 
oracle

>  <origin>  (40) 
adgpu

>  <m_score__min__energy>  (40) 
-10.449999999999999

>  <m_primary>  (40) 
energy

$$$$
40:0
     RDKit          3D

 65 68  0  0  0  0  0  0  0  0999 V2000
   -6.5120   15.3670  -34.2320 C   0  0  0  0  0  0  0  0  0  0  0  0
   -5.4390   16.2170  -33.5310 C   0  0  0  0  0  0  0  0  0  0  0  0
   -5.6900   16.3150  -32.0040 C   0  0  0  0  0  0  0  0  0  0  0  0
   -6.4460   17.5930  -31.5980 C   0  0  0  0  0  0  0  0  0  0  0  0
   -7.3350   18.0240  -32.6870 N   0  0  0  0  0  0  0  0  0  0  0  0
   -8.4270   19.2660  -32.1270 S   0  0  0  0  0  0  0  0  0  0  0  0
   -9.4860   19.5080  -33.1670 O   0  0  0  0  0  0  0  0  0  0  0  0
   -9.1090   18.7960  -30.8720 O   0  0  0  0  0  0  0  0  0  0  0  0
   -7.5770   20.7760  -31.7940 C   0  0  0  0  0  0  0  0  0  0  0  0
   -8.2860   21.9830  -31.7310 C   0  0  0  0  0  0  0  0  0  0  0  0
   -7.6140   23.1790  -31.4690 C   0  0  0  0  0  0  0  0  0  0  0  0
   -6.2310   23.1760  -31.2660 C   0  0  0  0  0  0  0  0  0  0  0  0
   -5.5150   21.9740  -31.3210 C   0  0  0  0  0  0  0  0  0  0  0  0
   -3.7690   21.9840  -31.0840 S   0  0  0  0  0  0  0  0  0  0  0  0
   -3.2410   20.6050  -31.3620 O   0  0  0  0  0  0  0  0  0  0  0  0
   -3.1350   22.9460  -32.0500 O   0  0  0  0  0  0  0  0  0  0  0  0
   -3.3930   22.4550  -29.3900 C   0  0  1  0  0  0  0  0  0  0  0  0
   -1.9920   21.9860  -28.9320 C   0  0  0  0  0  0  0  0  0  0  0  0
   -1.9760   20.6980  -28.1390 C   0  0  0  0  0  0  0  0  0  0  0  0
   -3.1080   20.2980  -27.4090 C   0  0  0  0  0  0  0  0  0  0  0  0
   -3.0930   19.1070  -26.6760 C   0  0  0  0  0  0  0  0  0  0  0  0
   -1.9550   18.2970  -26.6800 C   0  0  0  0  0  0  0  0  0  0  0  0
   -0.8350   18.6700  -27.4260 C   0  0  0  0  0  0  0  0  0  0  0  0
   -0.8460   19.8600  -28.1590 C   0  0  0  0  0  0  0  0  0  0  0  0
   -3.6780   24.2150  -29.1340 S   0  0  0  0  0  0  0  0  0  0  0  0
   -3.5490   24.9400  -30.4450 O   0  0  0  0  0  0  0  0  0  0  0  0
   -5.0680   24.4250  -28.6020 O   0  0  0  0  0  0  0  0  0  0  0  0
   -2.5430   24.8830  -27.9620 C   0  0  0  0  0  0  0  0  0  0  0  0
   -1.2890   25.3580  -28.3760 C   0  0  0  0  0  0  0  0  0  0  0  0
   -0.3960   25.8920  -27.4420 C   0  0  0  0  0  0  0  0  0  0  0  0
   -0.7550   25.9640  -26.0920 C   0  0  0  0  0  0  0  0  0  0  0  0
   -2.0080   25.5060  -25.6770 C   0  0  0  0  0  0  0  0  0  0  0  0
   -2.9030   24.9710  -26.6090 C   0  0  0  0  0  0  0  0  0  0  0  0
   -6.1910   20.7750  -31.5890 C   0  0  0  0  0  0  0  0  0  0  0  0
   -6.5610   18.5090  -33.8500 C   0  0  0  0  0  0  0  0  0  0  0  0
   -5.3360   17.6180  -34.1630 C   0  0  0  0  0  0  0  0  0  0  0  0
   -7.1384   14.8708  -33.4760 H   0  0  0  0  0  0  0  0  0  0  0  0
   -7.1403   16.0151  -34.8607 H   0  0  0  0  0  0  0  0  0  0  0  0
   -6.0249   14.6071  -34.8607 H   0  0  0  0  0  0  0  0  0  0  0  0
   -4.4754   15.7064  -33.6753 H   0  0  0  0  0  0  0  0  0  0  0  0
   -6.2822   15.4429  -31.6897 H   0  0  0  0  0  0  0  0  0  0  0  0
   -4.7072   16.3442  -31.5109 H   0  0  0  0  0  0  0  0  0  0  0  0
   -7.0454   17.3904  -30.6982 H   0  0  0  0  0  0  0  0  0  0  0  0
   -5.7176   18.3910  -31.3918 H   0  0  0  0  0  0  0  0  0  0  0  0
   -9.3747   21.9886  -31.8883 H   0  0  0  0  0  0  0  0  0  0  0  0
   -8.1739   24.1247  -31.4223 H   0  0  0  0  0  0  0  0  0  0  0  0
   -5.7041   24.1199  -31.0626 H   0  0  0  0  0  0  0  0  0  0  0  0
   -4.0941   21.9185  -28.7338 H   0  0  0  0  0  0  0  0  0  0  0  0
   -1.3704   21.8426  -29.8282 H   0  0  0  0  0  0  0  0  0  0  0  0
   -1.6121   22.7670  -28.2570 H   0  0  0  0  0  0  0  0  0  0  0  0
   -4.0115   20.9254  -27.4141 H   0  0  0  0  0  0  0  0  0  0  0  0
   -3.9783   18.8078  -26.0957 H   0  0  0  0  0  0  0  0  0  0  0  0
   -1.9411   17.3653  -26.0955 H   0  0  0  0  0  0  0  0  0  0  0  0
    0.0570   18.0264  -27.4368 H   0  0  0  0  0  0  0  0  0  0  0  0
    0.0341   20.1431  -28.7551 H   0  0  0  0  0  0  0  0  0  0  0  0
   -1.0078   25.3101  -29.4384 H   0  0  0  0  0  0  0  0  0  0  0  0
    0.5893   26.2557  -27.7690 H   0  0  0  0  0  0  0  0  0  0  0  0
   -0.0508   26.3812  -25.3571 H   0  0  0  0  0  0  0  0  0  0  0  0
   -2.2910   25.5663  -24.6157 H   0  0  0  0  0  0  0  0  0  0  0  0
   -3.8917   24.6183  -26.2803 H   0  0  0  0  0  0  0  0  0  0  0  0
   -5.6307   19.8297  -31.6385 H   0  0  0  0  0  0  0  0  0  0  0  0
   -7.2202   18.5236  -34.7305 H   0  0  0  0  0  0  0  0  0  0  0  0
   -6.1878   19.5145  -33.6058 H   0  0  0  0  0  0  0  0  0  0  0  0
   -5.2527   17.5060  -35.2541 H   0  0  0  0  0  0  0  0  0  0  0  0
   -4.4506   18.1102  -33.7342 H   0  0  0  0  0  0  0  0  0  0  0  0
  1  2  1  0
  2  3  1  0
  3  4  1  0
  4  5  1  0
  5  6  1  0
  6  7  2  0
  6  8  2  0
  6  9  1  0
  9 10  2  0
 10 11  1  0
 11 12  2  0
 12 13  1  0
 13 14  1  0
 14 15  2  0
 14 16  2  0
 14 17  1  0
 17 18  1  0
 18 19  1  0
 19 20  2  0
 20 21  1  0
 21 22  2  0
 22 23  1  0
 23 24  2  0
 17 25  1  0
 25 26  2  0
 25 27  2  0
 25 28  1  0
 28 29  2  0
 29 30  1  0
 30 31  2  0
 31 32  1  0
 32 33  2  0
 13 34  2  0
  5 35  1  0
 35 36  1  0
 36  2  1  0
 34  9  1  0
 24 19  1  0
 33 28  1  0
  1 37  1  0
  1 38  1  0
  1 39  1  0
  2 40  1  0
  3 41  1  0
  3 42  1  0
  4 43  1  0
  4 44  1  0
 10 45  1  0
 11 46  1  0
 12 47  1  0
 17 48  1  1
 18 49  1  0
 18 50  1  0
 20 51  1  0
 21 52  1  0
 22 53  1  0
 23 54  1  0
 24 55  1  0
 29 56  1  0
 30 57  1  0
 31 58  1  0
 32 59  1  0
 33 60  1  0
 34 61  1  0
 35 62  1  0
 35 63  1  0
 36 64  1  0
 36 65  1  0
M  END
>  <UniqueID>  (41) 
41

>  <SMILES>  (41) 
CC1CCN(S(=O)(=O)c2cccc(S(=O)(=O)[C@@H](Cc3ccccc3)S(=O)(=O)c3ccccc3)c2)CC1

>  <Energy>  (41) 
64.30768413183728

>  <Genealogy>  (41) 
CC1CCN(S(=O)(=O)c2cccc(S(=O)(=O)[C@@H](Cc3ccccc3)S(=O)(=O)c3ccccc3)c2)CC1 (chirality)
CC1CCN(S(=O)(=O)c2cccc(S(=O)(=O)[C@@H](Cc3ccccc3)S(=O)(=O)c3ccccc3)c2)CC1 (3D coordinates assigned)
CC1CCN(S(=O)(=O)c2cccc(S(=O)(=O)[C@@H](Cc3ccccc3)S(=O)(=O)c3ccccc3)c2)CC1 (nonaromatic ring conformer: 64.30768413183728 kcal/mol)

>  <smiles>  (41) 
CC1CCN(S(=O)(=O)c2cccc(S(=O)(=O)C(Cc3ccccc3)S(=O)(=O)c3ccccc3)c2)CC1

>  <score_type>  (41) 
oracle

>  <origin>  (41) 
adgpu

>  <m_score__min__energy>  (41) 
-12.42

>  <m_primary>  (41) 
energy

$$$$
41:0
     RDKit          3D

 61 64  0  0  0  0  0  0  0  0999 V2000
   -4.8460   23.8210  -29.0860 C   0  0  0  0  0  0  0  0  0  0  0  0
   -4.5430   24.4290  -30.4150 C   0  0  0  0  0  0  0  0  0  0  0  0
   -3.6320   25.2970  -30.5160 O   0  0  0  0  0  0  0  0  0  0  0  0
   -5.3380   24.0720  -31.5510 N   0  0  0  0  0  0  0  0  0  0  0  0
   -5.4680   22.7500  -32.0990 C   0  0  0  0  0  0  0  0  0  0  0  0
   -4.3500   22.0900  -32.6220 C   0  0  0  0  0  0  0  0  0  0  0  0
   -4.4640   20.8070  -33.1470 C   0  0  0  0  0  0  0  0  0  0  0  0
   -5.6960   20.1370  -33.1680 C   0  0  0  0  0  0  0  0  0  0  0  0
   -5.7190   18.5310  -33.9310 S   0  0  0  0  0  0  0  0  0  0  0  0
   -6.1130   18.6080  -35.3810 O   0  0  0  0  0  0  0  0  0  0  0  0
   -6.7330   17.6560  -33.2430 O   0  0  0  0  0  0  0  0  0  0  0  0
   -4.1270   17.7990  -33.7420 C   0  0  0  0  0  0  0  0  0  0  0  0
   -4.0230   16.4870  -33.2670 C   0  0  0  0  0  0  0  0  0  0  0  0
   -2.7710   15.9060  -33.0650 C   0  0  0  0  0  0  0  0  0  0  0  0
   -1.5970   16.6370  -33.3170 C   0  0  0  0  0  0  0  0  0  0  0  0
   -0.2960   16.0530  -33.1440 N   0  0  0  0  0  0  0  0  0  0  0  0
    0.4150   15.5760  -31.6380 S   0  0  0  0  0  0  0  0  0  0  0  0
    0.2710   16.8890  -30.4450 C   0  0  0  0  0  0  0  0  0  0  0  0
   -0.3180   14.3710  -31.1220 O   0  0  0  0  0  0  0  0  0  0  0  0
    1.8600   15.2090  -31.8440 O   0  0  0  0  0  0  0  0  0  0  0  0
   -1.6970   17.9680  -33.7740 C   0  0  0  0  0  0  0  0  0  0  0  0
   -0.5190   18.7720  -33.9690 N   0  0  0  0  0  0  0  0  0  0  0  0
   -0.4130   19.6770  -35.1150 C   0  0  0  0  0  0  0  0  0  0  0  0
   -0.3830   21.1450  -34.6390 C   0  0  0  0  0  0  0  0  0  0  0  0
    0.2270   21.3320  -33.2950 N   0  0  0  0  0  0  0  0  0  0  0  0
   -0.7930   21.5530  -32.2540 C   0  0  0  0  0  0  0  0  0  0  0  0
    1.1680   20.2530  -32.9280 C   0  0  0  0  0  0  0  0  0  0  0  0
    0.4790   18.8750  -32.8990 C   0  0  0  0  0  0  0  0  0  0  0  0
   -2.9650   18.5330  -34.0010 C   0  0  0  0  0  0  0  0  0  0  0  0
   -6.8490   20.7870  -32.6420 C   0  0  0  0  0  0  0  0  0  0  0  0
   -8.1300   20.1930  -32.6660 C   0  0  0  0  0  0  0  0  0  0  0  0
   -9.2340   20.8490  -32.1250 C   0  0  0  0  0  0  0  0  0  0  0  0
   -9.0950   22.1100  -31.5560 C   0  0  0  0  0  0  0  0  0  0  0  0
   -7.8510   22.7320  -31.5360 C   0  0  0  0  0  0  0  0  0  0  0  0
   -6.7190   22.0920  -32.0800 C   0  0  0  0  0  0  0  0  0  0  0  0
   -4.5085   24.4981  -28.2875 H   0  0  0  0  0  0  0  0  0  0  0  0
   -5.9302   23.6590  -28.9955 H   0  0  0  0  0  0  0  0  0  0  0  0
   -4.3225   22.8578  -28.9955 H   0  0  0  0  0  0  0  0  0  0  0  0
   -3.3708   22.5912  -32.6178 H   0  0  0  0  0  0  0  0  0  0  0  0
   -3.5715   20.3086  -33.5532 H   0  0  0  0  0  0  0  0  0  0  0  0
   -4.9344   15.9100  -33.0515 H   0  0  0  0  0  0  0  0  0  0  0  0
   -2.7019   14.8685  -32.7060 H   0  0  0  0  0  0  0  0  0  0  0  0
    0.3171   16.4685  -29.4296 H   0  0  0  0  0  0  0  0  0  0  0  0
    1.0962   17.6029  -30.5841 H   0  0  0  0  0  0  0  0  0  0  0  0
   -0.6893   17.4071  -30.5841 H   0  0  0  0  0  0  0  0  0  0  0  0
    0.5122   19.4559  -35.6673 H   0  0  0  0  0  0  0  0  0  0  0  0
   -1.2863   19.5308  -35.7676 H   0  0  0  0  0  0  0  0  0  0  0  0
    0.1957   21.7330  -35.3666 H   0  0  0  0  0  0  0  0  0  0  0  0
   -1.4290   21.4769  -34.5632 H   0  0  0  0  0  0  0  0  0  0  0  0
   -0.3309   21.4529  -31.2608 H   0  0  0  0  0  0  0  0  0  0  0  0
   -1.2144   22.5633  -32.3622 H   0  0  0  0  0  0  0  0  0  0  0  0
   -1.5948   20.8077  -32.3622 H   0  0  0  0  0  0  0  0  0  0  0  0
    1.9842   20.2271  -33.6649 H   0  0  0  0  0  0  0  0  0  0  0  0
    1.5515   20.4637  -31.9188 H   0  0  0  0  0  0  0  0  0  0  0  0
    1.2368   18.0894  -33.0351 H   0  0  0  0  0  0  0  0  0  0  0  0
   -0.0273   18.7529  -31.9301 H   0  0  0  0  0  0  0  0  0  0  0  0
   -3.0433   19.5607  -34.3854 H   0  0  0  0  0  0  0  0  0  0  0  0
   -8.2581   19.1984  -33.1181 H   0  0  0  0  0  0  0  0  0  0  0  0
  -10.2220   20.3660  -32.1483 H   0  0  0  0  0  0  0  0  0  0  0  0
   -9.9695   22.6162  -31.1213 H   0  0  0  0  0  0  0  0  0  0  0  0
   -7.7496   23.7330  -31.0914 H   0  0  0  0  0  0  0  0  0  0  0  0
  1  2  1  0
  2  3  2  0
  2  4  1  0
  4  5  1  0
  5  6  2  0
  6  7  1  0
  7  8  2  0
  8  9  1  0
  9 10  2  0
  9 11  2  0
  9 12  1  0
 12 13  2  0
 13 14  1  0
 14 15  2  0
 15 16  1  0
 16 17  1  0
 17 18  1  0
 17 19  2  0
 17 20  2  0
 15 21  1  0
 21 22  1  0
 22 23  1  0
 23 24  1  0
 24 25  1  0
 25 26  1  0
 25 27  1  0
 27 28  1  0
 21 29  2  0
  8 30  1  0
 30 31  2  0
 31 32  1  0
 32 33  2  0
 33 34  1  0
 34 35  2  0
 35  5  1  0
 29 12  1  0
 35 30  1  0
 28 22  1  0
  1 36  1  0
  1 37  1  0
  1 38  1  0
  6 39  1  0
  7 40  1  0
 13 41  1  0
 14 42  1  0
 18 43  1  0
 18 44  1  0
 18 45  1  0
 23 46  1  0
 23 47  1  0
 24 48  1  0
 24 49  1  0
 26 50  1  0
 26 51  1  0
 26 52  1  0
 27 53  1  0
 27 54  1  0
 28 55  1  0
 28 56  1  0
 29 57  1  0
 31 58  1  0
 32 59  1  0
 33 60  1  0
 34 61  1  0
M  CHG  2   4  -1  16  -1
M  END
>  <UniqueID>  (42) 
42

>  <SMILES>  (42) 
CC(=O)[N-]c1ccc(S(=O)(=O)c2ccc([N-]S(C)(=O)=O)c(N3CCN(C)CC3)c2)c2ccccc12

>  <Energy>  (42) 
86.84821884681907

>  <Genealogy>  (42) 
CC(=O)[N-]c1ccc(S(=O)(=O)c2ccc([N-]S(C)(=O)=O)c(N3CCN(C)CC3)c2)c2ccccc12 (protonated)
CC(=O)[N-]c1ccc(S(=O)(=O)c2ccc([N-]S(C)(=O)=O)c(N3CCN(C)CC3)c2)c2ccccc12 (3D coordinates assigned)
CC(=O)[N-]c1ccc(S(=O)(=O)c2ccc([N-]S(C)(=O)=O)c(N3CCN(C)CC3)c2)c2ccccc12 (nonaromatic ring conformer: 86.84821884681907 kcal/mol)

>  <smiles>  (42) 
CC(=O)Nc1ccc(S(=O)(=O)c2ccc(NS(C)(=O)=O)c(N3CCN(C)CC3)c2)c2ccccc12

>  <score_type>  (42) 
oracle

>  <origin>  (42) 
adgpu

>  <m_score__min__energy>  (42) 
-11.43

>  <m_primary>  (42) 
energy

$$$$
42:0
     RDKit          3D

 53 55  0  0  0  0  0  0  0  0999 V2000
   -6.5890   25.6990  -29.3810 C   0  0  0  0  0  0  0  0  0  0  0  0
   -5.5060   25.9080  -30.4340 C   0  0  0  0  0  0  0  0  0  0  0  0
   -4.8130   24.6040  -30.7590 C   0  0  0  0  0  0  0  0  0  0  0  0
   -3.4990   24.3580  -30.3270 C   0  0  0  0  0  0  0  0  0  0  0  0
   -2.8110   25.2990  -29.5680 O   0  0  0  0  0  0  0  0  0  0  0  0
   -2.8830   23.1920  -30.6520 N   0  0  0  0  0  0  0  0  0  0  0  0
   -3.5090   22.2460  -31.3980 C   0  0  0  0  0  0  0  0  0  0  0  0
   -2.8710   21.1540  -31.7020 N   0  0  0  0  0  0  0  0  0  0  0  0
   -3.3880   20.0330  -32.4400 C   0  0  0  0  0  0  0  0  0  0  0  0
   -4.6610   19.5020  -32.1640 C   0  0  0  0  0  0  0  0  0  0  0  0
   -5.1240   18.3690  -32.8480 C   0  0  0  0  0  0  0  0  0  0  0  0
   -6.7130   17.6930  -32.4980 S   0  0  0  0  0  0  0  0  0  0  0  0
   -6.8550   16.3450  -33.1520 O   0  0  0  0  0  0  0  0  0  0  0  0
   -6.8390   17.5210  -31.0110 O   0  0  0  0  0  0  0  0  0  0  0  0
   -7.9570   18.7820  -33.0750 N   0  0  0  0  0  0  0  0  0  0  0  0
   -9.0210   18.9250  -32.0760 C   0  0  0  0  0  0  0  0  0  0  0  0
   -8.7010   20.1350  -31.2110 C   0  0  0  0  0  0  0  0  0  0  0  0
   -7.6560   20.9200  -31.9810 C   0  0  0  0  0  0  0  0  0  0  0  0
   -7.4100   20.1310  -33.2580 C   0  0  0  0  0  0  0  0  0  0  0  0
   -4.3000   17.7460  -33.7910 C   0  0  0  0  0  0  0  0  0  0  0  0
   -3.0240   18.2490  -34.0510 C   0  0  0  0  0  0  0  0  0  0  0  0
   -2.5600   19.3870  -33.3760 C   0  0  0  0  0  0  0  0  0  0  0  0
   -1.2430   19.8890  -33.6560 N   0  0  0  0  0  0  0  0  0  0  0  0
   -0.0830   19.0690  -33.3000 C   0  0  0  0  0  0  0  0  0  0  0  0
   -1.0800   21.2450  -34.1930 C   0  0  0  0  0  0  0  0  0  0  0  0
   -0.1090   21.2390  -35.3690 C   0  0  0  0  0  0  0  0  0  0  0  0
   -4.7710   22.4770  -31.8510 N   0  0  0  0  0  0  0  0  0  0  0  0
   -5.4330   23.6230  -31.5530 C   0  0  0  0  0  0  0  0  0  0  0  0
   -6.5980   23.7970  -31.9980 O   0  0  0  0  0  0  0  0  0  0  0  0
   -6.1462   25.7844  -28.3777 H   0  0  0  0  0  0  0  0  0  0  0  0
   -7.3712   26.4628  -29.5029 H   0  0  0  0  0  0  0  0  0  0  0  0
   -7.0308   24.6990  -29.5029 H   0  0  0  0  0  0  0  0  0  0  0  0
   -5.9657   26.3097  -31.3490 H   0  0  0  0  0  0  0  0  0  0  0  0
   -4.7609   26.6136  -30.0377 H   0  0  0  0  0  0  0  0  0  0  0  0
   -5.2985   19.9795  -31.4053 H   0  0  0  0  0  0  0  0  0  0  0  0
   -9.9876   19.0726  -32.5799 H   0  0  0  0  0  0  0  0  0  0  0  0
   -9.0832   18.0194  -31.4547 H   0  0  0  0  0  0  0  0  0  0  0  0
   -9.6028   20.7454  -31.0555 H   0  0  0  0  0  0  0  0  0  0  0  0
   -8.3376   19.8399  -30.2156 H   0  0  0  0  0  0  0  0  0  0  0  0
   -8.0298   21.9271  -32.2179 H   0  0  0  0  0  0  0  0  0  0  0  0
   -6.7322   21.0486  -31.3978 H   0  0  0  0  0  0  0  0  0  0  0  0
   -7.9115   20.6248  -34.1034 H   0  0  0  0  0  0  0  0  0  0  0  0
   -6.3321   20.0786  -33.4710 H   0  0  0  0  0  0  0  0  0  0  0  0
   -4.6587   16.8565  -34.3297 H   0  0  0  0  0  0  0  0  0  0  0  0
   -2.3792   17.7499  -34.7893 H   0  0  0  0  0  0  0  0  0  0  0  0
    0.0016   19.0092  -32.2049 H   0  0  0  0  0  0  0  0  0  0  0  0
   -0.2081   18.0575  -33.7139 H   0  0  0  0  0  0  0  0  0  0  0  0
    0.8288   19.5243  -33.7139 H   0  0  0  0  0  0  0  0  0  0  0  0
   -2.0569   21.6203  -34.5317 H   0  0  0  0  0  0  0  0  0  0  0  0
   -0.6781   21.8955  -33.4023 H   0  0  0  0  0  0  0  0  0  0  0  0
    0.9241   21.2326  -34.9914 H   0  0  0  0  0  0  0  0  0  0  0  0
   -0.2809   20.3419  -35.9819 H   0  0  0  0  0  0  0  0  0  0  0  0
   -0.2698   22.1382  -35.9819 H   0  0  0  0  0  0  0  0  0  0  0  0
  1  2  1  0
  2  3  1  0
  3  4  2  0
  4  5  1  0
  4  6  1  0
  6  7  1  0
  7  8  2  3
  8  9  1  0
  9 10  2  0
 10 11  1  0
 11 12  1  0
 12 13  2  0
 12 14  2  0
 12 15  1  0
 15 16  1  0
 16 17  1  0
 17 18  1  0
 18 19  1  0
 11 20  2  0
 20 21  1  0
 21 22  2  0
 22 23  1  0
 23 24  1  0
 23 25  1  0
 25 26  1  0
  7 27  1  0
 27 28  1  0
 28 29  2  0
 28  3  1  0
 22  9  1  0
 19 15  1  0
  1 30  1  0
  1 31  1  0
  1 32  1  0
  2 33  1  0
  2 34  1  0
 10 35  1  0
 16 36  1  0
 16 37  1  0
 17 38  1  0
 17 39  1  0
 18 40  1  0
 18 41  1  0
 19 42  1  0
 19 43  1  0
 20 44  1  0
 21 45  1  0
 24 46  1  0
 24 47  1  0
 24 48  1  0
 25 49  1  0
 25 50  1  0
 26 51  1  0
 26 52  1  0
 26 53  1  0
M  CHG  3   5  -1   6  -1  27  -1
M  END
>  <UniqueID>  (43) 
43

>  <SMILES>  (43) 
CCc1c([O-])[n-]c(=Nc2cc(S(=O)(=O)N3CCCC3)ccc2N(C)CC)[n-]c1=O

>  <Energy>  (43) 
60.41838522770463

>  <Genealogy>  (43) 
CCc1c([O-])[n-]c(=Nc2cc(S(=O)(=O)N3CCCC3)ccc2N(C)CC)[n-]c1=O (protonated)
CCc1c([O-])[n-]c(=Nc2cc(S(=O)(=O)N3CCCC3)ccc2N(C)CC)[n-]c1=O (3D coordinates assigned)
CCc1c([O-])[n-]c(=Nc2cc(S(=O)(=O)N3CCCC3)ccc2N(C)CC)[n-]c1=O (nonaromatic ring conformer: 60.41838522770463 kcal/mol)

>  <smiles>  (43) 
CCc1c(O)[nH]c(=Nc2cc(S(=O)(=O)N3CCCC3)ccc2N(C)CC)[nH]c1=O

>  <score_type>  (43) 
oracle

>  <origin>  (43) 
adgpu

>  <m_score__min__energy>  (43) 
-12.81

>  <m_primary>  (43) 
energy

$$$$
43:0
     RDKit          3D

 50 52  0  0  0  0  0  0  0  0999 V2000
   -5.4550   15.6520  -34.3630 C   0  0  0  0  0  0  0  0  0  0  0  0
   -4.4860   17.1310  -34.1330 S   0  0  0  0  0  0  0  0  0  0  0  0
   -3.3270   16.8190  -33.2280 O   0  0  0  0  0  0  0  0  0  0  0  0
   -3.9510   17.5700  -35.4670 O   0  0  0  0  0  0  0  0  0  0  0  0
   -5.4310   18.4280  -33.4430 N   0  0  0  0  0  0  0  0  0  0  0  0
   -6.8630   18.0930  -33.4590 C   0  0  0  0  0  0  0  0  0  0  0  0
   -7.6700   19.3530  -33.1310 C   0  0  0  0  0  0  0  0  0  0  0  0
   -7.0050   20.1350  -32.0820 N   0  0  0  0  0  0  0  0  0  0  0  0
   -7.4800   21.4590  -31.7760 C   0  0  0  0  0  0  0  0  0  0  0  0
   -8.7180   21.6960  -31.8100 O   0  0  0  0  0  0  0  0  0  0  0  0
   -6.5390   22.5520  -31.4450 C   0  0  0  0  0  0  0  0  0  0  0  0
   -7.0200   23.7990  -31.0140 C   0  0  0  0  0  0  0  0  0  0  0  0
   -6.1300   24.8270  -30.6910 C   0  0  0  0  0  0  0  0  0  0  0  0
   -4.7510   24.6230  -30.8000 C   0  0  0  0  0  0  0  0  0  0  0  0
   -3.8780   25.6600  -30.4900 O   0  0  0  0  0  0  0  0  0  0  0  0
   -4.2590   23.3840  -31.2350 C   0  0  0  0  0  0  0  0  0  0  0  0
   -2.8550   23.1570  -31.3550 N   0  0  0  0  0  0  0  0  0  0  0  0
   -2.1110   21.7650  -30.6490 S   0  0  0  0  0  0  0  0  0  0  0  0
   -0.8010   22.1700  -30.0340 O   0  0  0  0  0  0  0  0  0  0  0  0
   -2.9890   21.2020  -29.5660 O   0  0  0  0  0  0  0  0  0  0  0  0
   -1.8340   20.5500  -31.8920 C   0  0  0  0  0  0  0  0  0  0  0  0
   -1.0650   19.4160  -31.6000 C   0  0  0  0  0  0  0  0  0  0  0  0
   -0.8510   18.4390  -32.5770 C   0  0  0  0  0  0  0  0  0  0  0  0
   -1.4090   18.5850  -33.8550 C   0  0  0  0  0  0  0  0  0  0  0  0
   -1.2070   17.5770  -34.8490 N   0  0  0  0  0  0  0  0  0  0  0  0
   -2.1840   19.7160  -34.1460 C   0  0  0  0  0  0  0  0  0  0  0  0
   -2.3990   20.6930  -33.1670 C   0  0  0  0  0  0  0  0  0  0  0  0
   -5.1520   22.3610  -31.5720 C   0  0  0  0  0  0  0  0  0  0  0  0
   -6.0050   19.4810  -31.2280 C   0  0  0  0  0  0  0  0  0  0  0  0
   -4.9510   18.7500  -32.0820 C   0  0  0  0  0  0  0  0  0  0  0  0
   -5.7276   15.2360  -33.3819 H   0  0  0  0  0  0  0  0  0  0  0  0
   -6.3689   15.8960  -34.9245 H   0  0  0  0  0  0  0  0  0  0  0  0
   -4.8663   14.9116  -34.9245 H   0  0  0  0  0  0  0  0  0  0  0  0
   -7.1447   17.7229  -34.4558 H   0  0  0  0  0  0  0  0  0  0  0  0
   -7.0717   17.3116  -32.7134 H   0  0  0  0  0  0  0  0  0  0  0  0
   -7.7622   19.9692  -34.0375 H   0  0  0  0  0  0  0  0  0  0  0  0
   -8.6653   19.0526  -32.7717 H   0  0  0  0  0  0  0  0  0  0  0  0
   -8.1038   23.9677  -30.9301 H   0  0  0  0  0  0  0  0  0  0  0  0
   -6.5154   25.7992  -30.3501 H   0  0  0  0  0  0  0  0  0  0  0  0
   -0.6278   19.2937  -30.5981 H   0  0  0  0  0  0  0  0  0  0  0  0
   -0.2429   17.5529  -32.3423 H   0  0  0  0  0  0  0  0  0  0  0  0
   -0.3290   17.5530  -35.4150 H   0  0  0  0  0  0  0  0  0  0  0  0
   -1.9290   16.8430  -35.0190 H   0  0  0  0  0  0  0  0  0  0  0  0
   -2.6246   19.8362  -35.1467 H   0  0  0  0  0  0  0  0  0  0  0  0
   -3.0131   21.5757  -33.3988 H   0  0  0  0  0  0  0  0  0  0  0  0
   -4.7655   21.3989  -31.9395 H   0  0  0  0  0  0  0  0  0  0  0  0
   -5.5047   20.2418  -30.6108 H   0  0  0  0  0  0  0  0  0  0  0  0
   -6.5141   18.7444  -30.5891 H   0  0  0  0  0  0  0  0  0  0  0  0
   -4.0621   19.3923  -32.1669 H   0  0  0  0  0  0  0  0  0  0  0  0
   -4.7239   17.7980  -31.5798 H   0  0  0  0  0  0  0  0  0  0  0  0
  1  2  1  0
  2  3  2  0
  2  4  2  0
  2  5  1  0
  5  6  1  0
  6  7  1  0
  7  8  1  0
  8  9  1  0
  9 10  2  0
  9 11  1  0
 11 12  2  0
 12 13  1  0
 13 14  2  0
 14 15  1  0
 14 16  1  0
 16 17  1  0
 17 18  1  0
 18 19  2  0
 18 20  2  0
 18 21  1  0
 21 22  2  0
 22 23  1  0
 23 24  2  0
 24 25  1  0
 24 26  1  0
 26 27  2  0
 16 28  2  0
  8 29  1  0
 29 30  1  0
 30  5  1  0
 28 11  1  0
 27 21  1  0
  1 31  1  0
  1 32  1  0
  1 33  1  0
  6 34  1  0
  6 35  1  0
  7 36  1  0
  7 37  1  0
 12 38  1  0
 13 39  1  0
 22 40  1  0
 23 41  1  0
 25 42  1  0
 25 43  1  0
 26 44  1  0
 27 45  1  0
 28 46  1  0
 29 47  1  0
 29 48  1  0
 30 49  1  0
 30 50  1  0
M  CHG  2  15  -1  17  -1
M  END
>  <UniqueID>  (44) 
44

>  <SMILES>  (44) 
CS(=O)(=O)N1CCN(C(=O)c2ccc([O-])c([N-]S(=O)(=O)c3ccc(N)cc3)c2)CC1

>  <Energy>  (44) 
59.477792633916586

>  <Genealogy>  (44) 
CS(=O)(=O)N1CCN(C(=O)c2ccc([O-])c([N-]S(=O)(=O)c3ccc(N)cc3)c2)CC1 (protonated)
CS(=O)(=O)N1CCN(C(=O)c2ccc([O-])c([N-]S(=O)(=O)c3ccc(N)cc3)c2)CC1 (3D coordinates assigned)
CS(=O)(=O)N1CCN(C(=O)c2ccc([O-])c([N-]S(=O)(=O)c3ccc(N)cc3)c2)CC1 (nonaromatic ring conformer: 59.477792633916586 kcal/mol)

>  <smiles>  (44) 
CS(=O)(=O)N1CCN(C(=O)c2ccc(O)c(NS(=O)(=O)c3ccc(N)cc3)c2)CC1

>  <score_type>  (44) 
oracle

>  <origin>  (44) 
adgpu

>  <m_score__min__energy>  (44) 
-12.99

>  <m_primary>  (44) 
energy

$$$$
44:0
     RDKit          3D

 45 47  0  0  0  0  0  0  0  0999 V2000
   -1.6450   20.7900  -33.8460 C   0  0  0  0  0  0  0  0  0  0  0  0
   -2.2060   21.3750  -32.5940 C   0  0  0  0  0  0  0  0  0  0  0  0
   -3.4420   21.9720  -32.4690 C   0  0  0  0  0  0  0  0  0  0  0  0
   -3.5290   22.4690  -31.2270 N   0  0  0  0  0  0  0  0  0  0  0  0
   -4.7870   23.5040  -30.6310 S   0  0  0  0  0  0  0  0  0  0  0  0
   -4.7240   23.5820  -29.1320 O   0  0  0  0  0  0  0  0  0  0  0  0
   -4.6110   24.8840  -31.2000 O   0  0  0  0  0  0  0  0  0  0  0  0
   -6.3230   22.8080  -31.1220 C   0  0  0  0  0  0  0  0  0  0  0  0
   -7.4310   23.6180  -31.4030 C   0  0  0  0  0  0  0  0  0  0  0  0
   -8.5970   23.0490  -31.9250 C   0  0  0  0  0  0  0  0  0  0  0  0
   -8.6500   21.6770  -32.1920 C   0  0  0  0  0  0  0  0  0  0  0  0
   -7.5430   20.8620  -31.9130 C   0  0  0  0  0  0  0  0  0  0  0  0
   -7.5510   19.1520  -32.3530 S   0  0  0  0  0  0  0  0  0  0  0  0
   -8.9710   18.7010  -32.5560 O   0  0  0  0  0  0  0  0  0  0  0  0
   -6.9640   18.3500  -31.2240 O   0  0  0  0  0  0  0  0  0  0  0  0
   -6.6430   18.8600  -33.8230 N   0  0  0  0  0  0  0  0  0  0  0  0
   -6.4520   17.4090  -34.0400 C   0  0  0  0  0  0  0  0  0  0  0  0
   -5.2370   17.1430  -34.9450 C   0  0  0  0  0  0  0  0  0  0  0  0
   -4.0080   17.6290  -34.4180 O   0  0  0  0  0  0  0  0  0  0  0  0
   -4.1620   18.7080  -33.5060 C   0  0  0  0  0  0  0  0  0  0  0  0
   -5.3640   19.6150  -33.8270 C   0  0  0  0  0  0  0  0  0  0  0  0
   -6.3980   21.4290  -31.3430 C   0  0  0  0  0  0  0  0  0  0  0  0
   -2.3450   22.1930  -30.6380 C   0  0  0  0  0  0  0  0  0  0  0  0
   -1.9670   22.6200  -29.2550 C   0  0  0  0  0  0  0  0  0  0  0  0
   -1.5030   21.5210  -31.4520 N   0  0  0  0  0  0  0  0  0  0  0  0
   -0.9045   20.0178  -33.5902 H   0  0  0  0  0  0  0  0  0  0  0  0
   -2.4566   20.3387  -34.4356 H   0  0  0  0  0  0  0  0  0  0  0  0
   -1.1601   21.5820  -34.4356 H   0  0  0  0  0  0  0  0  0  0  0  0
   -4.2169   22.0301  -33.2476 H   0  0  0  0  0  0  0  0  0  0  0  0
   -7.3839   24.7005  -31.2132 H   0  0  0  0  0  0  0  0  0  0  0  0
   -9.4741   23.6816  -32.1260 H   0  0  0  0  0  0  0  0  0  0  0  0
   -9.5617   21.2363  -32.6217 H   0  0  0  0  0  0  0  0  0  0  0  0
   -7.2310   19.2250  -34.6090 H   0  0  0  0  0  0  0  0  0  0  0  0
   -6.2917   16.9179  -33.0688 H   0  0  0  0  0  0  0  0  0  0  0  0
   -7.3501   17.0066  -34.5313 H   0  0  0  0  0  0  0  0  0  0  0  0
   -5.1455   16.0566  -35.0915 H   0  0  0  0  0  0  0  0  0  0  0  0
   -5.4161   17.6826  -35.8867 H   0  0  0  0  0  0  0  0  0  0  0  0
   -4.2979   18.2939  -32.4960 H   0  0  0  0  0  0  0  0  0  0  0  0
   -3.2575   19.3292  -33.5832 H   0  0  0  0  0  0  0  0  0  0  0  0
   -5.4194   20.4128  -33.0717 H   0  0  0  0  0  0  0  0  0  0  0  0
   -5.2172   20.0325  -34.8341 H   0  0  0  0  0  0  0  0  0  0  0  0
   -5.5501   20.7851  -31.0665 H   0  0  0  0  0  0  0  0  0  0  0  0
   -2.5099   22.0068  -28.5207 H   0  0  0  0  0  0  0  0  0  0  0  0
   -0.8841   22.4883  -29.1137 H   0  0  0  0  0  0  0  0  0  0  0  0
   -2.2291   23.6789  -29.1137 H   0  0  0  0  0  0  0  0  0  0  0  0
  1  2  1  0
  2  3  2  0
  3  4  1  0
  4  5  1  0
  5  6  2  0
  5  7  2  0
  5  8  1  0
  8  9  2  0
  9 10  1  0
 10 11  2  0
 11 12  1  0
 12 13  1  0
 13 14  2  0
 13 15  2  0
 13 16  1  0
 16 17  1  0
 17 18  1  0
 18 19  1  0
 19 20  1  0
 20 21  1  0
 12 22  2  0
  4 23  1  0
 23 24  1  0
 23 25  2  0
 25  2  1  0
 22  8  1  0
 21 16  1  0
  1 26  1  0
  1 27  1  0
  1 28  1  0
  3 29  1  0
  9 30  1  0
 10 31  1  0
 11 32  1  0
 16 33  1  0
 17 34  1  0
 17 35  1  0
 18 36  1  0
 18 37  1  0
 20 38  1  0
 20 39  1  0
 21 40  1  0
 21 41  1  0
 22 42  1  0
 24 43  1  0
 24 44  1  0
 24 45  1  0
M  CHG  1  16   1
M  END
>  <UniqueID>  (45) 
45

>  <SMILES>  (45) 
Cc1cn(S(=O)(=O)c2cccc(S(=O)(=O)[NH+]3CCOCC3)c2)c(C)n1

>  <Energy>  (45) 
83.66761936914337

>  <Genealogy>  (45) 
Cc1cn(S(=O)(=O)c2cccc(S(=O)(=O)[NH+]3CCOCC3)c2)c(C)n1 (protonated)
Cc1cn(S(=O)(=O)c2cccc(S(=O)(=O)[NH+]3CCOCC3)c2)c(C)n1 (3D coordinates assigned)
Cc1cn(S(=O)(=O)c2cccc(S(=O)(=O)[NH+]3CCOCC3)c2)c(C)n1 (nonaromatic ring conformer: 83.66761936914337 kcal/mol)

>  <smiles>  (45) 
Cc1cn(S(=O)(=O)c2cccc(S(=O)(=O)N3CCOCC3)c2)c(C)n1

>  <score_type>  (45) 
oracle

>  <origin>  (45) 
adgpu

>  <m_score__min__energy>  (45) 
-8.7799999999999994

>  <m_primary>  (45) 
energy

$$$$
45:0
     RDKit          3D

 83 87  0  0  1  0  0  0  0  0999 V2000
    0.5880   16.0760  -29.8050 C   0  0  0  0  0  0  0  0  0  0  0  0
   -0.0060   15.3120  -30.8450 N   0  0  0  0  0  0  0  0  0  0  0  0
   -0.3840   15.7980  -31.9590 C   0  0  0  0  0  0  0  0  0  0  0  0
   -0.9340   14.9330  -32.8500 N   0  0  0  0  0  0  0  0  0  0  0  0
   -1.3450   15.4050  -34.0400 C   0  0  0  0  0  0  0  0  0  0  0  0
   -2.0700   14.2790  -35.2190 S   0  0  0  0  0  0  0  0  0  0  0  0
   -3.8410   14.5620  -35.2870 C   0  0  0  0  0  0  0  0  0  0  0  0
   -4.2210   15.7960  -34.5420 C   0  0  0  0  0  0  0  0  0  0  0  0
   -4.7710   15.6900  -33.2740 C   0  0  0  0  0  0  0  0  0  0  0  0
   -5.1000   16.8780  -32.6410 C   0  0  0  0  0  0  0  0  0  0  0  0
   -4.9000   18.1130  -33.2180 C   0  0  0  0  0  0  0  0  0  0  0  0
   -5.2450   19.3700  -32.5600 C   0  0  0  0  0  0  0  0  0  0  0  0
   -5.0630   19.5510  -31.3110 O   0  0  0  0  0  0  0  0  0  0  0  0
   -5.8070   20.4720  -33.2630 N   0  0  0  0  0  0  0  0  0  0  0  0
   -6.0950   21.6370  -32.4880 C   0  0  0  0  0  0  0  0  0  0  0  0
   -7.3750   22.1360  -32.3380 C   0  0  0  0  0  0  0  0  0  0  0  0
   -7.5920   23.2700  -31.5730 C   0  0  0  0  0  0  0  0  0  0  0  0
   -6.5300   23.9010  -30.9640 C   0  0  0  0  0  0  0  0  0  0  0  0
   -5.2440   23.4310  -31.0940 C   0  0  0  0  0  0  0  0  0  0  0  0
   -4.0800   24.0350  -30.4840 C   0  0  0  0  0  0  0  0  0  0  0  0
   -3.8630   25.2780  -30.6610 O   0  0  0  0  0  0  0  0  0  0  0  0
   -3.1380   23.3290  -29.6830 N   0  0  0  0  0  0  0  0  0  0  0  0
   -2.0170   24.0870  -29.1450 C   0  0  0  0  0  0  0  0  0  0  0  0
   -0.7160   23.2890  -29.2340 C   0  0  0  0  0  0  0  0  0  0  0  0
   -0.8970   21.9400  -28.8650 N   0  0  0  0  0  0  0  0  0  0  0  0
   -0.1820   21.3950  -27.8050 C   0  0  0  0  0  0  0  0  0  0  0  0
   -0.2820   19.9310  -27.5420 C   0  0  0  0  0  0  0  0  0  0  0  0
   -0.4300   22.0970  -26.4630 C   0  0  0  0  0  0  0  0  0  0  0  0
   -1.9660   21.2480  -29.4650 C   0  0  0  0  0  0  0  0  0  0  0  0
   -3.3060   21.9150  -29.4240 C   0  0  0  0  0  0  0  0  0  0  0  0
   -5.0640   22.3000  -31.8620 C   0  0  0  0  0  0  0  0  0  0  0  0
   -4.3470   18.1950  -34.4890 C   0  0  0  0  0  0  0  0  0  0  0  0
   -4.0140   17.0220  -35.1350 C   0  0  0  0  0  0  0  0  0  0  0  0
   -1.2100   16.7100  -34.3300 N   0  0  0  0  0  0  0  0  0  0  0  0
   -0.6590   17.5940  -33.4460 C   0  0  0  0  0  0  0  0  0  0  0  0
   -0.5680   18.9620  -33.8720 C   0  0  0  0  0  0  0  0  0  0  0  0
   -1.4010   19.9620  -33.4230 C   0  0  0  0  0  0  0  0  0  0  0  0
   -1.2420   21.2660  -33.9040 C   0  0  0  0  0  0  0  0  0  0  0  0
   -0.2670   21.5660  -34.8170 C   0  0  0  0  0  0  0  0  0  0  0  0
   -0.0960   22.8560  -35.3030 O   0  0  0  0  0  0  0  0  0  0  0  0
    0.5740   20.5840  -35.2760 C   0  0  0  0  0  0  0  0  0  0  0  0
    1.6530   20.8840  -36.2800 C   0  0  0  0  0  0  0  0  0  0  0  0
    0.4090   19.3020  -34.7960 C   0  0  0  0  0  0  0  0  0  0  0  0
   -0.2250   17.1290  -32.2040 C   0  0  0  0  0  0  0  0  0  0  0  0
    0.3380   18.0740  -31.2910 C   0  0  0  0  0  0  0  0  0  0  0  0
    0.7980   18.8660  -30.5520 N   0  0  0  0  0  0  0  0  0  0  0  0
    0.2753   15.6738  -28.8301 H   0  0  0  0  0  0  0  0  0  0  0  0
    1.6834   16.0216  -29.8898 H   0  0  0  0  0  0  0  0  0  0  0  0
    0.2653   17.1242  -29.8898 H   0  0  0  0  0  0  0  0  0  0  0  0
   -1.0310   13.9120  -32.6060 H   0  0  0  0  0  0  0  0  0  0  0  0
   -4.1466   14.6696  -36.3382 H   0  0  0  0  0  0  0  0  0  0  0  0
   -4.3479   13.7046  -34.8203 H   0  0  0  0  0  0  0  0  0  0  0  0
   -4.9376   14.7138  -32.7952 H   0  0  0  0  0  0  0  0  0  0  0  0
   -5.5401   16.8330  -31.6339 H   0  0  0  0  0  0  0  0  0  0  0  0
   -5.9910   20.4180  -34.2790 H   0  0  0  0  0  0  0  0  0  0  0  0
   -8.2221   21.6322  -32.8265 H   0  0  0  0  0  0  0  0  0  0  0  0
   -8.6111   23.6661  -31.4520 H   0  0  0  0  0  0  0  0  0  0  0  0
   -6.7146   24.8015  -30.3598 H   0  0  0  0  0  0  0  0  0  0  0  0
   -1.9060   25.0191  -29.7185 H   0  0  0  0  0  0  0  0  0  0  0  0
   -2.2201   24.3047  -28.0861 H   0  0  0  0  0  0  0  0  0  0  0  0
   -0.3460   23.3274  -30.2692 H   0  0  0  0  0  0  0  0  0  0  0  0
    0.0062   23.7380  -28.5363 H   0  0  0  0  0  0  0  0  0  0  0  0
    0.8297   21.5754  -28.1974 H   0  0  0  0  0  0  0  0  0  0  0  0
   -0.2941   19.7535  -26.4565 H   0  0  0  0  0  0  0  0  0  0  0  0
   -1.2089   19.5409  -27.9877 H   0  0  0  0  0  0  0  0  0  0  0  0
    0.5832   19.4184  -27.9877 H   0  0  0  0  0  0  0  0  0  0  0  0
   -0.1872   21.4096  -25.6393 H   0  0  0  0  0  0  0  0  0  0  0  0
    0.2066   22.9914  -26.3939 H   0  0  0  0  0  0  0  0  0  0  0  0
   -1.4871   22.3931  -26.3939 H   0  0  0  0  0  0  0  0  0  0  0  0
   -1.7067   21.0854  -30.5216 H   0  0  0  0  0  0  0  0  0  0  0  0
   -2.0828   20.3277  -28.8739 H   0  0  0  0  0  0  0  0  0  0  0  0
   -3.9603   21.4750  -30.1910 H   0  0  0  0  0  0  0  0  0  0  0  0
   -3.7622   21.7708  -28.4335 H   0  0  0  0  0  0  0  0  0  0  0  0
   -4.0434   21.9072  -31.9805 H   0  0  0  0  0  0  0  0  0  0  0  0
   -4.1786   19.1704  -34.9688 H   0  0  0  0  0  0  0  0  0  0  0  0
   -3.5749   17.0668  -36.1426 H   0  0  0  0  0  0  0  0  0  0  0  0
   -2.1885   19.7365  -32.6889 H   0  0  0  0  0  0  0  0  0  0  0  0
   -1.9102   22.0619  -33.5433 H   0  0  0  0  0  0  0  0  0  0  0  0
   -0.7840   23.3460  -35.8380 H   0  0  0  0  0  0  0  0  0  0  0  0
    2.5830   21.1426  -35.7525 H   0  0  0  0  0  0  0  0  0  0  0  0
    1.8231   19.9991  -36.9109 H   0  0  0  0  0  0  0  0  0  0  0  0
    1.3420   21.7297  -36.9109 H   0  0  0  0  0  0  0  0  0  0  0  0
    1.0826   18.5133  -35.1624 H   0  0  0  0  0  0  0  0  0  0  0  0
  1  2  1  0
  2  3  2  0
  3  4  1  0
  4  5  1  0
  5  6  1  0
  6  7  1  0
  7  8  1  0
  8  9  2  0
  9 10  1  0
 10 11  2  0
 11 12  1  0
 12 13  2  0
 12 14  1  0
 14 15  1  0
 15 16  2  0
 16 17  1  0
 17 18  2  0
 18 19  1  0
 19 20  1  0
 20 21  2  0
 20 22  1  0
 22 23  1  0
 23 24  1  0
 24 25  1  0
 25 26  1  0
 26 27  1  0
 26 28  1  0
 25 29  1  0
 29 30  1  0
 19 31  2  0
 11 32  1  0
 32 33  2  0
  5 34  2  0
 34 35  1  0
 35 36  1  0
 36 37  2  0
 37 38  1  0
 38 39  2  0
 39 40  1  0
 39 41  1  0
 41 42  1  0
 41 43  2  0
 35 44  2  0
 44 45  1  0
 45 46  3  0
 44  3  1  0
 33  8  1  0
 43 36  1  0
 31 15  1  0
 30 22  1  0
  1 47  1  0
  1 48  1  0
  1 49  1  0
  4 50  1  0
  7 51  1  0
  7 52  1  0
  9 53  1  0
 10 54  1  0
 14 55  1  0
 16 56  1  0
 17 57  1  0
 18 58  1  0
 23 59  1  0
 23 60  1  0
 24 61  1  0
 24 62  1  0
 26 63  1  0
 27 64  1  0
 27 65  1  0
 27 66  1  0
 28 67  1  0
 28 68  1  0
 28 69  1  0
 29 70  1  0
 29 71  1  0
 30 72  1  0
 30 73  1  0
 31 74  1  0
 32 75  1  0
 33 76  1  0
 37 77  1  0
 38 78  1  0
 40 79  1  0
 42 80  1  0
 42 81  1  0
 42 82  1  0
 43 83  1  0
M  END
>  <smiles>  (46) 
CN=c1[nH]c(SCc2ccc(C(=O)Nc3cccc(C(=O)N4CCN(C(C)C)CC4)c3)cc2)nc(-c2ccc(O)c(C)c2)c1C#N

>  <score_type>  (46) 
oracle

>  <origin>  (46) 
adgpu

>  <m_score__min__energy>  (46) 
-11.33

>  <m_primary>  (46) 
energy

$$$$
46:0
     RDKit          3D

 62 66  0  0  0  0  0  0  0  0999 V2000
   -0.8980   18.5790  -31.1230 O   0  0  0  0  0  0  0  0  0  0  0  0
   -1.3300   19.7140  -31.4510 C   0  0  0  0  0  0  0  0  0  0  0  0
   -1.9170   19.8740  -32.7510 N   0  0  0  0  0  0  0  0  0  0  0  0
   -3.0530   19.1500  -33.2480 C   0  0  0  0  0  0  0  0  0  0  0  0
   -4.3130   19.2670  -32.6390 C   0  0  0  0  0  0  0  0  0  0  0  0
   -5.4030   18.5250  -33.1120 C   0  0  0  0  0  0  0  0  0  0  0  0
   -6.9980   18.7060  -32.3680 S   0  0  0  0  0  0  0  0  0  0  0  0
   -6.9300   18.2750  -30.9300 O   0  0  0  0  0  0  0  0  0  0  0  0
   -7.9810   17.8180  -33.0790 O   0  0  0  0  0  0  0  0  0  0  0  0
   -7.5540   20.3600  -32.4540 N   0  0  0  0  0  0  0  0  0  0  0  0
   -8.9470   20.4580  -31.9780 C   0  0  0  0  0  0  0  0  0  0  0  0
   -9.3050   21.9090  -31.6010 C   0  0  0  0  0  0  0  0  0  0  0  0
   -8.4750   22.8170  -32.2970 O   0  0  0  0  0  0  0  0  0  0  0  0
   -7.1370   22.7080  -31.8270 C   0  0  0  0  0  0  0  0  0  0  0  0
   -6.6690   21.2440  -31.6830 C   0  0  0  0  0  0  0  0  0  0  0  0
   -5.2300   17.6550  -34.1920 C   0  0  0  0  0  0  0  0  0  0  0  0
   -3.9770   17.5190  -34.7910 C   0  0  0  0  0  0  0  0  0  0  0  0
   -2.8850   18.2600  -34.3190 C   0  0  0  0  0  0  0  0  0  0  0  0
   -1.6340   18.1250  -34.9170 O   0  0  0  0  0  0  0  0  0  0  0  0
   -1.1600   20.8570  -30.5200 C   0  0  0  0  0  0  0  0  0  0  0  0
   -1.9490   22.0140  -30.6430 C   0  0  0  0  0  0  0  0  0  0  0  0
   -1.6810   23.1410  -29.8540 C   0  0  0  0  0  0  0  0  0  0  0  0
   -0.6270   23.1300  -28.9210 C   0  0  0  0  0  0  0  0  0  0  0  0
   -0.2930   24.3520  -28.1390 C   0  0  0  0  0  0  0  0  0  0  0  0
    0.6830   24.2970  -27.1270 C   0  0  0  0  0  0  0  0  0  0  0  0
    1.0400   25.4420  -26.3960 C   0  0  0  0  0  0  0  0  0  0  0  0
    2.0920   25.3880  -25.3530 C   0  0  0  0  0  0  0  0  0  0  0  0
    1.8630   25.0890  -24.1150 N   0  0  0  0  0  0  0  0  0  0  0  0
    3.1000   25.0960  -23.3500 C   0  0  0  0  0  0  0  0  0  0  0  0
    4.1860   25.4790  -24.3660 C   0  0  0  0  0  0  0  0  0  0  0  0
    3.4610   25.6400  -25.6120 N   0  0  0  0  0  0  0  0  0  0  0  0
    0.3820   26.6480  -26.6660 C   0  0  0  0  0  0  0  0  0  0  0  0
   -0.6060   26.7100  -27.6450 C   0  0  0  0  0  0  0  0  0  0  0  0
   -0.9500   25.5730  -28.3790 C   0  0  0  0  0  0  0  0  0  0  0  0
   -1.9650   25.6670  -29.3220 O   0  0  0  0  0  0  0  0  0  0  0  0
    0.1170   21.9480  -28.7570 C   0  0  0  0  0  0  0  0  0  0  0  0
   -0.1370   20.8300  -29.5570 C   0  0  0  0  0  0  0  0  0  0  0  0
   -4.4450   19.9465  -31.7841 H   0  0  0  0  0  0  0  0  0  0  0  0
   -9.6237   20.1168  -32.7753 H   0  0  0  0  0  0  0  0  0  0  0  0
   -9.0549   19.8281  -31.0827 H   0  0  0  0  0  0  0  0  0  0  0  0
  -10.3554   22.1033  -31.8637 H   0  0  0  0  0  0  0  0  0  0  0  0
   -9.1550   22.0446  -30.5197 H   0  0  0  0  0  0  0  0  0  0  0  0
   -6.4723   23.2208  -32.5378 H   0  0  0  0  0  0  0  0  0  0  0  0
   -7.0994   23.1667  -30.8279 H   0  0  0  0  0  0  0  0  0  0  0  0
   -5.6402   21.1507  -32.0611 H   0  0  0  0  0  0  0  0  0  0  0  0
   -6.7019   20.9551  -30.6221 H   0  0  0  0  0  0  0  0  0  0  0  0
   -6.0846   17.0754  -34.5712 H   0  0  0  0  0  0  0  0  0  0  0  0
   -3.8459   16.8278  -35.6366 H   0  0  0  0  0  0  0  0  0  0  0  0
   -0.8130   18.5920  -34.5430 H   0  0  0  0  0  0  0  0  0  0  0  0
   -2.7810   22.0349  -31.3622 H   0  0  0  0  0  0  0  0  0  0  0  0
   -2.3005   24.0432  -29.9650 H   0  0  0  0  0  0  0  0  0  0  0  0
    1.1758   23.3391  -26.9041 H   0  0  0  0  0  0  0  0  0  0  0  0
    0.9340   24.8310  -23.7130 H   0  0  0  0  0  0  0  0  0  0  0  0
    3.0498   25.8368  -22.5384 H   0  0  0  0  0  0  0  0  0  0  0  0
    3.3000   24.1246  -22.8741 H   0  0  0  0  0  0  0  0  0  0  0  0
    4.6784   26.4189  -24.0761 H   0  0  0  0  0  0  0  0  0  0  0  0
    4.9847   24.7258  -24.4356 H   0  0  0  0  0  0  0  0  0  0  0  0
    3.8810   25.9420  -26.5180 H   0  0  0  0  0  0  0  0  0  0  0  0
    0.6476   27.5533  -26.1004 H   0  0  0  0  0  0  0  0  0  0  0  0
   -1.1198   27.6625  -27.8419 H   0  0  0  0  0  0  0  0  0  0  0  0
    0.9062   21.9027  -27.9921 H   0  0  0  0  0  0  0  0  0  0  0  0
    0.4695   19.9209  -29.4315 H   0  0  0  0  0  0  0  0  0  0  0  0
  1  2  2  0
  2  3  1  0
  3  4  1  0
  4  5  2  0
  5  6  1  0
  6  7  1  0
  7  8  2  0
  7  9  2  0
  7 10  1  0
 10 11  1  0
 11 12  1  0
 12 13  1  0
 13 14  1  0
 14 15  1  0
  6 16  2  0
 16 17  1  0
 17 18  2  0
 18 19  1  0
  2 20  1  0
 20 21  2  0
 21 22  1  0
 22 23  2  0
 23 24  1  0
 24 25  2  0
 25 26  1  0
 26 27  1  0
 27 28  2  0
 28 29  1  0
 29 30  1  0
 30 31  1  0
 26 32  2  0
 32 33  1  0
 33 34  2  0
 34 35  1  0
 23 36  1  0
 36 37  2  0
 18  4  1  0
 37 20  1  0
 15 10  1  0
 34 24  1  0
 31 27  1  0
  5 38  1  0
 11 39  1  0
 11 40  1  0
 12 41  1  0
 12 42  1  0
 14 43  1  0
 14 44  1  0
 15 45  1  0
 15 46  1  0
 16 47  1  0
 17 48  1  0
 19 49  1  0
 21 50  1  0
 22 51  1  0
 25 52  1  0
 28 53  1  0
 29 54  1  0
 29 55  1  0
 30 56  1  0
 30 57  1  0
 31 58  1  0
 32 59  1  0
 33 60  1  0
 36 61  1  0
 37 62  1  0
M  CHG  3   3  -1  28   1  35  -1
M  END
>  <UniqueID>  (47) 
46

>  <SMILES>  (47) 
O=C([N-]c1cc(S(=O)(=O)N2CCOCC2)ccc1O)c1ccc(-c2cc(C3=[NH+]CCN3)ccc2[O-])cc1

>  <Energy>  (47) 
97.94444015584511

>  <Genealogy>  (47) 
O=C([N-]c1cc(S(=O)(=O)N2CCOCC2)ccc1O)c1ccc(-c2cc(C3=[NH+]CCN3)ccc2[O-])cc1 (protonated)
O=C([N-]c1cc(S(=O)(=O)N2CCOCC2)ccc1O)c1ccc(-c2cc(C3=[NH+]CCN3)ccc2[O-])cc1 (3D coordinates assigned)
O=C([N-]c1cc(S(=O)(=O)N2CCOCC2)ccc1O)c1ccc(-c2cc(C3=[NH+]CCN3)ccc2[O-])cc1 (nonaromatic ring conformer: 97.94444015584511 kcal/mol)

>  <smiles>  (47) 
O=C(Nc1cc(S(=O)(=O)N2CCOCC2)ccc1O)c1ccc(-c2cc(C3=NCCN3)ccc2O)cc1

>  <score_type>  (47) 
oracle

>  <origin>  (47) 
adgpu

>  <m_score__min__energy>  (47) 
-11.58

>  <m_primary>  (47) 
energy

$$$$
47:0
     RDKit          3D

 61 64  0  0  0  0  0  0  0  0999 V2000
   -0.1530   19.2400  -28.0190 C   0  0  0  0  0  0  0  0  0  0  0  0
    0.0830   20.3300  -28.9050 O   0  0  0  0  0  0  0  0  0  0  0  0
   -0.9040   21.2120  -29.3700 C   0  0  0  0  0  0  0  0  0  0  0  0
   -1.8510   20.8150  -30.3320 C   0  0  0  0  0  0  0  0  0  0  0  0
   -2.8020   21.7200  -30.8100 C   0  0  0  0  0  0  0  0  0  0  0  0
   -2.8380   23.0360  -30.3270 C   0  0  0  0  0  0  0  0  0  0  0  0
   -3.8430   23.9980  -30.8380 C   0  0  0  0  0  0  0  0  0  0  0  0
   -3.7820   25.2130  -30.5090 O   0  0  0  0  0  0  0  0  0  0  0  0
   -4.8740   23.5510  -31.7280 N   0  0  0  0  0  0  0  0  0  0  0  0
   -6.0530   22.8670  -31.2860 C   0  0  0  0  0  0  0  0  0  0  0  0
   -6.4130   21.6690  -31.9140 C   0  0  0  0  0  0  0  0  0  0  0  0
   -7.5670   20.9770  -31.5220 C   0  0  0  0  0  0  0  0  0  0  0  0
   -8.0150   19.4770  -32.3340 S   0  0  0  0  0  0  0  0  0  0  0  0
   -8.9690   19.7830  -33.4580 O   0  0  0  0  0  0  0  0  0  0  0  0
   -8.7050   18.5690  -31.3560 O   0  0  0  0  0  0  0  0  0  0  0  0
   -6.5820   18.6860  -32.9430 N   0  0  0  0  0  0  0  0  0  0  0  0
   -6.1400   19.2740  -34.2060 C   0  0  0  0  0  0  0  0  0  0  0  0
   -5.4170   18.1750  -34.9730 C   0  0  0  0  0  0  0  0  0  0  0  0
   -5.8340   16.8750  -34.3020 C   0  0  0  0  0  0  0  0  0  0  0  0
   -6.8410   17.2790  -33.2410 C   0  0  0  0  0  0  0  0  0  0  0  0
   -8.3540   21.4790  -30.4780 C   0  0  0  0  0  0  0  0  0  0  0  0
   -7.9950   22.6660  -29.8380 C   0  0  0  0  0  0  0  0  0  0  0  0
   -6.8450   23.3710  -30.2320 C   0  0  0  0  0  0  0  0  0  0  0  0
   -6.4850   24.5740  -29.5420 N   0  0  0  0  0  0  0  0  0  0  0  0
   -1.9090   23.4280  -29.3500 C   0  0  0  0  0  0  0  0  0  0  0  0
   -0.9440   22.5290  -28.8700 C   0  0  0  0  0  0  0  0  0  0  0  0
    0.2060   23.0850  -27.6420 S   0  0  0  0  0  0  0  0  0  0  0  0
    1.1570   21.9730  -27.2920 O   0  0  0  0  0  0  0  0  0  0  0  0
    1.0170   24.2130  -28.2150 O   0  0  0  0  0  0  0  0  0  0  0  0
   -0.5910   23.6550  -26.1880 N   0  0  0  0  0  0  0  0  0  0  0  0
   -0.4900   22.6710  -25.1050 C   0  0  0  0  0  0  0  0  0  0  0  0
    0.6830   23.0680  -24.2260 C   0  0  0  0  0  0  0  0  0  0  0  0
    0.8700   24.5530  -24.4630 C   0  0  0  0  0  0  0  0  0  0  0  0
    0.0170   24.8920  -25.6810 C   0  0  0  0  0  0  0  0  0  0  0  0
   -0.0772   19.5899  -26.9789 H   0  0  0  0  0  0  0  0  0  0  0  0
   -1.1598   18.8342  -28.1969 H   0  0  0  0  0  0  0  0  0  0  0  0
    0.5958   18.4541  -28.1969 H   0  0  0  0  0  0  0  0  0  0  0  0
   -1.8425   19.7825  -30.7112 H   0  0  0  0  0  0  0  0  0  0  0  0
   -3.5280   21.3978  -31.5710 H   0  0  0  0  0  0  0  0  0  0  0  0
   -5.7846   21.2671  -32.7224 H   0  0  0  0  0  0  0  0  0  0  0  0
   -7.0068   19.6304  -34.7818 H   0  0  0  0  0  0  0  0  0  0  0  0
   -5.4777   20.1346  -34.0306 H   0  0  0  0  0  0  0  0  0  0  0  0
   -5.7222   18.1781  -36.0298 H   0  0  0  0  0  0  0  0  0  0  0  0
   -4.3259   18.3132  -34.9560 H   0  0  0  0  0  0  0  0  0  0  0  0
   -6.2958   16.1947  -35.0328 H   0  0  0  0  0  0  0  0  0  0  0  0
   -4.9744   16.3413  -33.8704 H   0  0  0  0  0  0  0  0  0  0  0  0
   -7.8656   17.1526  -33.6208 H   0  0  0  0  0  0  0  0  0  0  0  0
   -6.7438   16.6554  -32.3400 H   0  0  0  0  0  0  0  0  0  0  0  0
   -9.2571   20.9365  -30.1618 H   0  0  0  0  0  0  0  0  0  0  0  0
   -8.6176   23.0532  -29.0180 H   0  0  0  0  0  0  0  0  0  0  0  0
   -5.7780   25.2310  -29.9520 H   0  0  0  0  0  0  0  0  0  0  0  0
   -6.9040   24.8250  -28.6210 H   0  0  0  0  0  0  0  0  0  0  0  0
   -1.9379   24.4543  -28.9551 H   0  0  0  0  0  0  0  0  0  0  0  0
   -1.4173   22.6690  -24.5133 H   0  0  0  0  0  0  0  0  0  0  0  0
   -0.3387   21.6617  -25.5154 H   0  0  0  0  0  0  0  0  0  0  0  0
    0.4563   22.8715  -23.1677 H   0  0  0  0  0  0  0  0  0  0  0  0
    1.5906   22.4950  -24.4668 H   0  0  0  0  0  0  0  0  0  0  0  0
    0.5314   25.1260  -23.5872 H   0  0  0  0  0  0  0  0  0  0  0  0
    1.9278   24.8059  -24.6274 H   0  0  0  0  0  0  0  0  0  0  0  0
   -0.7726   25.6021  -25.3941 H   0  0  0  0  0  0  0  0  0  0  0  0
    0.6426   25.3498  -26.4614 H   0  0  0  0  0  0  0  0  0  0  0  0
  1  2  1  0
  2  3  1  0
  3  4  2  0
  4  5  1  0
  5  6  2  0
  6  7  1  0
  7  8  2  0
  7  9  1  0
  9 10  1  0
 10 11  2  0
 11 12  1  0
 12 13  1  0
 13 14  2  0
 13 15  2  0
 13 16  1  0
 16 17  1  0
 17 18  1  0
 18 19  1  0
 19 20  1  0
 12 21  2  0
 21 22  1  0
 22 23  2  0
 23 24  1  0
  6 25  1  0
 25 26  2  0
 26 27  1  0
 27 28  2  0
 27 29  2  0
 27 30  1  0
 30 31  1  0
 31 32  1  0
 32 33  1  0
 33 34  1  0
 26  3  1  0
 34 30  1  0
 23 10  1  0
 20 16  1  0
  1 35  1  0
  1 36  1  0
  1 37  1  0
  4 38  1  0
  5 39  1  0
 11 40  1  0
 17 41  1  0
 17 42  1  0
 18 43  1  0
 18 44  1  0
 19 45  1  0
 19 46  1  0
 20 47  1  0
 20 48  1  0
 21 49  1  0
 22 50  1  0
 24 51  1  0
 24 52  1  0
 25 53  1  0
 31 54  1  0
 31 55  1  0
 32 56  1  0
 32 57  1  0
 33 58  1  0
 33 59  1  0
 34 60  1  0
 34 61  1  0
M  CHG  1   9  -1
M  END
>  <UniqueID>  (48) 
47

>  <SMILES>  (48) 
COc1ccc(C(=O)[N-]c2cc(S(=O)(=O)N3CCCC3)ccc2N)cc1S(=O)(=O)N1CCCC1

>  <Energy>  (48) 
71.97894291329364

>  <Genealogy>  (48) 
COc1ccc(C(=O)[N-]c2cc(S(=O)(=O)N3CCCC3)ccc2N)cc1S(=O)(=O)N1CCCC1 (protonated)
COc1ccc(C(=O)[N-]c2cc(S(=O)(=O)N3CCCC3)ccc2N)cc1S(=O)(=O)N1CCCC1 (3D coordinates assigned)
COc1ccc(C(=O)[N-]c2cc(S(=O)(=O)N3CCCC3)ccc2N)cc1S(=O)(=O)N1CCCC1 (nonaromatic ring conformer: 71.97894291329364 kcal/mol)

>  <smiles>  (48) 
COc1ccc(C(=O)Nc2cc(S(=O)(=O)N3CCCC3)ccc2N)cc1S(=O)(=O)N1CCCC1

>  <score_type>  (48) 
oracle

>  <origin>  (48) 
adgpu

>  <m_score__min__energy>  (48) 
-11.789999999999999

>  <m_primary>  (48) 
energy

$$$$
48:0
     RDKit          3D

 52 55  0  0  0  0  0  0  0  0999 V2000
   -2.0920   20.1610  -32.9500 C   0  0  0  0  0  0  0  0  0  0  0  0
   -2.1910   19.7320  -31.5430 N   0  0  0  0  0  0  0  0  0  0  0  0
   -0.9080   19.8520  -30.8220 C   0  0  0  0  0  0  0  0  0  0  0  0
   -0.4480   21.3100  -30.6760 C   0  0  0  0  0  0  0  0  0  0  0  0
   -1.5730   22.2250  -30.2710 C   0  0  0  0  0  0  0  0  0  0  0  0
   -1.2740   23.5160  -29.8170 C   0  0  0  0  0  0  0  0  0  0  0  0
   -2.2970   24.3980  -29.4580 C   0  0  0  0  0  0  0  0  0  0  0  0
   -1.9660   25.6590  -28.9740 O   0  0  0  0  0  0  0  0  0  0  0  0
   -3.6430   24.0080  -29.5720 C   0  0  0  0  0  0  0  0  0  0  0  0
   -4.6880   24.9000  -29.1390 N   0  0  0  0  0  0  0  0  0  0  0  0
   -6.0940   25.2620  -30.0950 S   0  0  0  0  0  0  0  0  0  0  0  0
   -5.7010   26.1970  -31.2040 O   0  0  0  0  0  0  0  0  0  0  0  0
   -7.1260   25.9300  -29.2300 O   0  0  0  0  0  0  0  0  0  0  0  0
   -6.7850   23.7790  -30.7500 C   0  0  0  0  0  0  0  0  0  0  0  0
   -6.4300   23.3350  -32.0320 C   0  0  0  0  0  0  0  0  0  0  0  0
   -6.8730   22.0930  -32.4930 C   0  0  0  0  0  0  0  0  0  0  0  0
   -7.6770   21.2860  -31.6790 C   0  0  0  0  0  0  0  0  0  0  0  0
   -8.1570   19.6790  -32.2050 S   0  0  0  0  0  0  0  0  0  0  0  0
   -9.2020   19.7680  -33.2840 O   0  0  0  0  0  0  0  0  0  0  0  0
   -8.7440   18.9230  -31.0420 O   0  0  0  0  0  0  0  0  0  0  0  0
   -6.7370   18.8480  -32.8330 C   0  0  0  0  0  0  0  0  0  0  0  0
   -6.1700   19.2360  -34.0570 C   0  0  0  0  0  0  0  0  0  0  0  0
   -5.0610   18.5510  -34.5640 C   0  0  0  0  0  0  0  0  0  0  0  0
   -4.5200   17.4720  -33.8560 C   0  0  0  0  0  0  0  0  0  0  0  0
   -5.0890   17.0750  -32.6410 C   0  0  0  0  0  0  0  0  0  0  0  0
   -6.1970   17.7590  -32.1310 C   0  0  0  0  0  0  0  0  0  0  0  0
   -8.0580   21.7430  -30.4100 C   0  0  0  0  0  0  0  0  0  0  0  0
   -7.6180   22.9860  -29.9500 C   0  0  0  0  0  0  0  0  0  0  0  0
   -3.9410   22.7380  -30.0960 C   0  0  0  0  0  0  0  0  0  0  0  0
   -2.9180   21.8400  -30.4310 C   0  0  0  0  0  0  0  0  0  0  0  0
   -3.2790   20.4290  -30.8300 C   0  0  0  0  0  0  0  0  0  0  0  0
   -1.8448   21.2321  -32.9902 H   0  0  0  0  0  0  0  0  0  0  0  0
   -1.3035   19.5835  -33.4548 H   0  0  0  0  0  0  0  0  0  0  0  0
   -3.0538   19.9874  -33.4548 H   0  0  0  0  0  0  0  0  0  0  0  0
   -1.0256   19.4173  -29.8184 H   0  0  0  0  0  0  0  0  0  0  0  0
   -0.1449   19.3185  -31.4077 H   0  0  0  0  0  0  0  0  0  0  0  0
    0.3401   21.3575  -29.9101 H   0  0  0  0  0  0  0  0  0  0  0  0
   -0.0763   21.6458  -31.6553 H   0  0  0  0  0  0  0  0  0  0  0  0
   -0.2250   23.8384  -29.7424 H   0  0  0  0  0  0  0  0  0  0  0  0
   -4.6920   25.2470  -28.1530 H   0  0  0  0  0  0  0  0  0  0  0  0
   -5.8009   23.9666  -32.6764 H   0  0  0  0  0  0  0  0  0  0  0  0
   -6.5894   21.7481  -33.4983 H   0  0  0  0  0  0  0  0  0  0  0  0
   -6.5983   20.0797  -34.6180 H   0  0  0  0  0  0  0  0  0  0  0  0
   -4.6137   18.8607  -35.5200 H   0  0  0  0  0  0  0  0  0  0  0  0
   -3.6466   16.9354  -34.2551 H   0  0  0  0  0  0  0  0  0  0  0  0
   -4.6647   16.2247  -32.0869 H   0  0  0  0  0  0  0  0  0  0  0  0
   -6.6462   17.4430  -31.1779 H   0  0  0  0  0  0  0  0  0  0  0  0
   -8.7054   21.1208  -29.7746 H   0  0  0  0  0  0  0  0  0  0  0  0
   -7.9264   23.3435  -28.9565 H   0  0  0  0  0  0  0  0  0  0  0  0
   -4.9907   22.4450  -30.2451 H   0  0  0  0  0  0  0  0  0  0  0  0
   -3.5226   19.8597  -29.9209 H   0  0  0  0  0  0  0  0  0  0  0  0
   -4.1345   20.4919  -31.5186 H   0  0  0  0  0  0  0  0  0  0  0  0
  1  2  1  0
  2  3  1  0
  3  4  1  0
  4  5  1  0
  5  6  2  0
  6  7  1  0
  7  8  1  0
  7  9  2  0
  9 10  1  0
 10 11  1  0
 11 12  2  0
 11 13  2  0
 11 14  1  0
 14 15  2  0
 15 16  1  0
 16 17  2  0
 17 18  1  0
 18 19  2  0
 18 20  2  0
 18 21  1  0
 21 22  2  0
 22 23  1  0
 23 24  2  0
 24 25  1  0
 25 26  2  0
 17 27  1  0
 27 28  2  0
  9 29  1  0
 29 30  2  0
 30 31  1  0
 31  2  1  0
 30  5  1  0
 28 14  1  0
 26 21  1  0
  1 32  1  0
  1 33  1  0
  1 34  1  0
  3 35  1  0
  3 36  1  0
  4 37  1  0
  4 38  1  0
  6 39  1  0
 10 40  1  0
 15 41  1  0
 16 42  1  0
 22 43  1  0
 23 44  1  0
 24 45  1  0
 25 46  1  0
 26 47  1  0
 27 48  1  0
 28 49  1  0
 29 50  1  0
 31 51  1  0
 31 52  1  0
M  CHG  1   8  -1
M  END
>  <UniqueID>  (49) 
48

>  <SMILES>  (49) 
CN1CCc2cc([O-])c(NS(=O)(=O)c3ccc(S(=O)(=O)c4ccccc4)cc3)cc2C1

>  <Energy>  (49) 
63.53622951271047

>  <Genealogy>  (49) 
CN1CCc2cc([O-])c(NS(=O)(=O)c3ccc(S(=O)(=O)c4ccccc4)cc3)cc2C1 (protonated)
CN1CCc2cc([O-])c(NS(=O)(=O)c3ccc(S(=O)(=O)c4ccccc4)cc3)cc2C1 (3D coordinates assigned)
CN1CCc2cc([O-])c(NS(=O)(=O)c3ccc(S(=O)(=O)c4ccccc4)cc3)cc2C1 (nonaromatic ring conformer: 63.53622951271047 kcal/mol)

>  <smiles>  (49) 
CN1CCc2cc(O)c(NS(=O)(=O)c3ccc(S(=O)(=O)c4ccccc4)cc3)cc2C1

>  <score_type>  (49) 
oracle

>  <origin>  (49) 
adgpu

>  <m_score__min__energy>  (49) 
-14.949999999999999

>  <m_primary>  (49) 
energy

$$$$
49:0
     RDKit          3D

 47 49  0  0  0  0  0  0  0  0999 V2000
    2.6110   18.1990  -31.4140 C   0  0  0  0  0  0  0  0  0  0  0  0
    1.7460   17.5710  -30.3620 C   0  0  0  0  0  0  0  0  0  0  0  0
    1.5600   16.3240  -30.4030 O   0  0  0  0  0  0  0  0  0  0  0  0
    1.1470   18.3600  -29.3100 N   0  0  0  0  0  0  0  0  0  0  0  0
    1.5930   19.7460  -29.0860 C   0  0  0  0  0  0  0  0  0  0  0  0
    0.9540   20.3560  -27.8350 C   0  0  0  0  0  0  0  0  0  0  0  0
   -0.4870   20.0740  -27.8200 N   0  0  0  0  0  0  0  0  0  0  0  0
   -1.4200   21.0700  -27.3650 C   0  0  0  0  0  0  0  0  0  0  0  0
   -2.2990   20.7530  -26.5170 O   0  0  0  0  0  0  0  0  0  0  0  0
   -1.3860   22.4560  -27.8880 C   0  0  0  0  0  0  0  0  0  0  0  0
   -0.4780   23.3880  -27.3630 C   0  0  0  0  0  0  0  0  0  0  0  0
   -0.4460   24.6930  -27.8550 C   0  0  0  0  0  0  0  0  0  0  0  0
   -1.3260   25.0950  -28.8640 C   0  0  0  0  0  0  0  0  0  0  0  0
   -1.2320   26.3950  -29.3410 O   0  0  0  0  0  0  0  0  0  0  0  0
   -2.2710   24.1780  -29.3800 C   0  0  0  0  0  0  0  0  0  0  0  0
   -3.2240   24.5070  -30.4040 N   0  0  0  0  0  0  0  0  0  0  0  0
   -4.9540   24.4440  -30.3040 S   0  0  0  0  0  0  0  0  0  0  0  0
   -5.5330   25.7200  -30.8480 O   0  0  0  0  0  0  0  0  0  0  0  0
   -5.3870   24.2530  -28.8770 O   0  0  0  0  0  0  0  0  0  0  0  0
   -5.5210   23.0720  -31.2530 C   0  0  0  0  0  0  0  0  0  0  0  0
   -6.8880   22.7550  -31.2990 C   0  0  0  0  0  0  0  0  0  0  0  0
   -7.3320   21.6640  -32.0550 C   0  0  0  0  0  0  0  0  0  0  0  0
   -6.4160   20.8840  -32.7630 C   0  0  0  0  0  0  0  0  0  0  0  0
   -5.0530   21.1900  -32.7170 C   0  0  0  0  0  0  0  0  0  0  0  0
   -4.6030   22.2800  -31.9640 C   0  0  0  0  0  0  0  0  0  0  0  0
   -3.2760   22.5610  -31.9280 F   0  0  0  0  0  0  0  0  0  0  0  0
   -2.2840   22.8660  -28.8870 C   0  0  0  0  0  0  0  0  0  0  0  0
   -0.9690   18.7120  -28.0840 C   0  0  0  0  0  0  0  0  0  0  0  0
    0.1840   17.7450  -28.3830 C   0  0  0  0  0  0  0  0  0  0  0  0
    3.4111   18.7799  -30.9320 H   0  0  0  0  0  0  0  0  0  0  0  0
    3.0558   17.4120  -32.0408 H   0  0  0  0  0  0  0  0  0  0  0  0
    2.0005   18.8656  -32.0408 H   0  0  0  0  0  0  0  0  0  0  0  0
    2.6864   19.7528  -28.9663 H   0  0  0  0  0  0  0  0  0  0  0  0
    1.2856   20.3477  -29.9540 H   0  0  0  0  0  0  0  0  0  0  0  0
    1.4199   19.9208  -26.9386 H   0  0  0  0  0  0  0  0  0  0  0  0
    1.1092   21.4450  -27.8441 H   0  0  0  0  0  0  0  0  0  0  0  0
    0.2116   23.0884  -26.5600 H   0  0  0  0  0  0  0  0  0  0  0  0
    0.2784   25.4123  -27.4452 H   0  0  0  0  0  0  0  0  0  0  0  0
   -7.6119   23.3656  -30.7394 H   0  0  0  0  0  0  0  0  0  0  0  0
   -8.4042   21.4209  -32.0913 H   0  0  0  0  0  0  0  0  0  0  0  0
   -6.7672   20.0278  -33.3576 H   0  0  0  0  0  0  0  0  0  0  0  0
   -4.3327   20.5727  -33.2739 H   0  0  0  0  0  0  0  0  0  0  0  0
   -3.0104   22.1447  -29.2896 H   0  0  0  0  0  0  0  0  0  0  0  0
   -1.5160   18.3509  -27.2006 H   0  0  0  0  0  0  0  0  0  0  0  0
   -1.6225   18.7470  -28.9681 H   0  0  0  0  0  0  0  0  0  0  0  0
    0.6971   17.4924  -27.4434 H   0  0  0  0  0  0  0  0  0  0  0  0
   -0.2261   16.8364  -28.8481 H   0  0  0  0  0  0  0  0  0  0  0  0
  1  2  1  0
  2  3  2  0
  2  4  1  0
  4  5  1  0
  5  6  1  0
  6  7  1  0
  7  8  1  0
  8  9  2  0
  8 10  1  0
 10 11  2  0
 11 12  1  0
 12 13  2  0
 13 14  1  0
 13 15  1  0
 15 16  1  0
 16 17  1  0
 17 18  2  0
 17 19  2  0
 17 20  1  0
 20 21  2  0
 21 22  1  0
 22 23  2  0
 23 24  1  0
 24 25  2  0
 25 26  1  0
 15 27  2  0
  7 28  1  0
 28 29  1  0
 29  4  1  0
 27 10  1  0
 25 20  1  0
  1 30  1  0
  1 31  1  0
  1 32  1  0
  5 33  1  0
  5 34  1  0
  6 35  1  0
  6 36  1  0
 11 37  1  0
 12 38  1  0
 21 39  1  0
 22 40  1  0
 23 41  1  0
 24 42  1  0
 27 43  1  0
 28 44  1  0
 28 45  1  0
 29 46  1  0
 29 47  1  0
M  CHG  2  14  -1  16  -1
M  END
>  <UniqueID>  (50) 
49

>  <SMILES>  (50) 
CC(=O)N1CCN(C(=O)c2ccc([O-])c([N-]S(=O)(=O)c3ccccc3F)c2)CC1

>  <Energy>  (50) 
60.45217485788013

>  <Genealogy>  (50) 
CC(=O)N1CCN(C(=O)c2ccc([O-])c([N-]S(=O)(=O)c3ccccc3F)c2)CC1 (protonated)
CC(=O)N1CCN(C(=O)c2ccc([O-])c([N-]S(=O)(=O)c3ccccc3F)c2)CC1 (3D coordinates assigned)
CC(=O)N1CCN(C(=O)c2ccc([O-])c([N-]S(=O)(=O)c3ccccc3F)c2)CC1 (nonaromatic ring conformer: 60.45217485788013 kcal/mol)

>  <smiles>  (50) 
CC(=O)N1CCN(C(=O)c2ccc(O)c(NS(=O)(=O)c3ccccc3F)c2)CC1

>  <score_type>  (50) 
oracle

>  <origin>  (50) 
adgpu

>  <m_score__min__energy>  (50) 
-12.470000000000001

>  <m_primary>  (50) 
energy

$$$$
