0:0
     RDKit          3D

 24 25  0  0  0  0  0  0  0  0999 V2000
   -6.8570   25.2470  -29.6770 C   0  0  0  0  0  0  0  0  0  0  0  0
   -5.2740   25.6660  -30.4700 S   0  0  0  0  0  0  0  0  0  0  0  0
   -4.9940   23.9960  -31.0460 C   0  0  0  0  0  0  0  0  0  0  0  0
   -3.7260   23.5400  -31.2120 N   0  0  0  0  0  0  0  0  0  0  0  0
   -3.4950   22.2740  -31.6440 C   0  0  0  0  0  0  0  0  0  0  0  0
   -4.5660   21.4260  -31.9270 C   0  0  0  0  0  0  0  0  0  0  0  0
   -5.8740   21.9120  -31.7630 C   0  0  0  0  0  0  0  0  0  0  0  0
   -7.0640   21.0670  -32.0370 C   0  0  0  0  0  0  0  0  0  0  0  0
   -8.3740   21.5630  -31.8700 C   0  0  0  0  0  0  0  0  0  0  0  0
   -9.4790   20.7460  -32.1260 C   0  0  0  0  0  0  0  0  0  0  0  0
   -9.2950   19.4280  -32.5480 C   0  0  0  0  0  0  0  0  0  0  0  0
   -8.0040   18.9210  -32.7080 C   0  0  0  0  0  0  0  0  0  0  0  0
   -6.8950   19.7320  -32.4510 C   0  0  0  0  0  0  0  0  0  0  0  0
   -6.0500   23.1880  -31.3200 N   0  0  0  0  0  0  0  0  0  0  0  0
   -6.7390   25.2782  -28.5838 H   0  0  0  0  0  0  0  0  0  0  0  0
   -7.6243   25.9730  -29.9839 H   0  0  0  0  0  0  0  0  0  0  0  0
   -7.1647   24.2365  -29.9839 H   0  0  0  0  0  0  0  0  0  0  0  0
   -2.4625   21.9165  -31.7710 H   0  0  0  0  0  0  0  0  0  0  0  0
   -4.3898   20.3965  -32.2720 H   0  0  0  0  0  0  0  0  0  0  0  0
   -8.5270   22.5998  -31.5360 H   0  0  0  0  0  0  0  0  0  0  0  0
  -10.4965   21.1427  -31.9946 H   0  0  0  0  0  0  0  0  0  0  0  0
  -10.1666   18.7894  -32.7543 H   0  0  0  0  0  0  0  0  0  0  0  0
   -7.8594   17.8813  -33.0369 H   0  0  0  0  0  0  0  0  0  0  0  0
   -5.8810   19.3235  -32.5733 H   0  0  0  0  0  0  0  0  0  0  0  0
  1  2  1  0
  2  3  1  0
  3  4  2  0
  4  5  1  0
  5  6  2  0
  6  7  1  0
  7  8  1  0
  8  9  2  0
  9 10  1  0
 10 11  2  0
 11 12  1  0
 12 13  2  0
  7 14  2  0
 14  3  1  0
 13  8  1  0
  1 15  1  0
  1 16  1  0
  1 17  1  0
  5 18  1  0
  6 19  1  0
  9 20  1  0
 10 21  1  0
 11 22  1  0
 12 23  1  0
 13 24  1  0
M  END
>  <UniqueID>  (1) 
1

>  <SMILES>  (1) 
CSc1nccc(-c2ccccc2)n1

>  <Energy>  (1) 
25.299052361593887

>  <Genealogy>  (1) 
CSc1nccc(-c2ccccc2)n1 (3D coordinates assigned)
CSc1nccc(-c2ccccc2)n1 (optimized conformer: 25.299052361593887 kcal/mol)

>  <smiles>  (1) 
CSc1nccc(-c2ccccc2)n1

>  <score_type>  (1) 
oracle

>  <origin>  (1) 
adgpu

>  <m_score__min__energy>  (1) 
-6.4100000000000001

>  <m_primary>  (1) 
energy

$$$$
1:0
     RDKit          3D

 35 36  0  0  0  0  0  0  0  0999 V2000
   -1.9680   25.0100  -28.0240 C   0  0  0  0  0  0  0  0  0  0  0  0
   -2.5390   24.9210  -29.3260 O   0  0  0  0  0  0  0  0  0  0  0  0
   -2.8810   23.7210  -29.9700 C   0  0  0  0  0  0  0  0  0  0  0  0
   -2.1850   22.5260  -29.7090 C   0  0  0  0  0  0  0  0  0  0  0  0
   -2.5570   21.3560  -30.3610 C   0  0  0  0  0  0  0  0  0  0  0  0
   -3.6090   21.3720  -31.2690 C   0  0  0  0  0  0  0  0  0  0  0  0
   -4.2850   22.5750  -31.5290 C   0  0  0  0  0  0  0  0  0  0  0  0
   -5.3930   22.6000  -32.4490 N   0  0  0  0  0  0  0  0  0  0  0  0
   -6.6610   21.9700  -32.1920 C   0  0  0  0  0  0  0  0  0  0  0  0
   -7.6850   22.7030  -31.5690 C   0  0  0  0  0  0  0  0  0  0  0  0
   -8.8990   22.1000  -31.2530 C   0  0  0  0  0  0  0  0  0  0  0  0
   -9.1010   20.7500  -31.5270 C   0  0  0  0  0  0  0  0  0  0  0  0
   -8.0900   19.9820  -32.1280 C   0  0  0  0  0  0  0  0  0  0  0  0
   -8.3500   18.5200  -32.3870 C   0  0  0  0  0  0  0  0  0  0  0  0
   -6.8670   20.6020  -32.5000 C   0  0  0  0  0  0  0  0  0  0  0  0
   -5.7740   19.8100  -33.1820 C   0  0  0  0  0  0  0  0  0  0  0  0
   -3.9170   23.7180  -30.8690 N   0  0  0  0  0  0  0  0  0  0  0  0
   -4.6020   24.8870  -31.1390 O   0  0  0  0  0  0  0  0  0  0  0  0
   -2.7576   24.8869  -27.2681 H   0  0  0  0  0  0  0  0  0  0  0  0
   -1.2144   24.2185  -27.8992 H   0  0  0  0  0  0  0  0  0  0  0  0
   -1.4910   25.9933  -27.8992 H   0  0  0  0  0  0  0  0  0  0  0  0
   -1.3505   22.5178  -28.9924 H   0  0  0  0  0  0  0  0  0  0  0  0
   -2.0191   20.4181  -30.1584 H   0  0  0  0  0  0  0  0  0  0  0  0
   -3.9107   20.4467  -31.7816 H   0  0  0  0  0  0  0  0  0  0  0  0
   -5.2630   23.0790  -33.3680 H   0  0  0  0  0  0  0  0  0  0  0  0
   -7.5256   23.7645  -31.3285 H   0  0  0  0  0  0  0  0  0  0  0  0
   -9.7004   22.6912  -30.7859 H   0  0  0  0  0  0  0  0  0  0  0  0
  -10.0619   20.2801  -31.2703 H   0  0  0  0  0  0  0  0  0  0  0  0
   -8.4444   17.9889  -31.4283 H   0  0  0  0  0  0  0  0  0  0  0  0
   -9.2819   18.4093  -32.9608 H   0  0  0  0  0  0  0  0  0  0  0  0
   -7.5134   18.0948  -32.9608 H   0  0  0  0  0  0  0  0  0  0  0  0
   -5.1303   19.3435  -32.4217 H   0  0  0  0  0  0  0  0  0  0  0  0
   -6.2254   19.0279  -33.8102 H   0  0  0  0  0  0  0  0  0  0  0  0
   -5.1714   20.4825  -33.8102 H   0  0  0  0  0  0  0  0  0  0  0  0
   -4.1690   25.6730  -31.6090 H   0  0  0  0  0  0  0  0  0  0  0  0
  1  2  1  0
  2  3  1  0
  3  4  2  0
  4  5  1  0
  5  6  2  0
  6  7  1  0
  7  8  1  0
  8  9  1  0
  9 10  2  0
 10 11  1  0
 11 12  2  0
 12 13  1  0
 13 14  1  0
 13 15  2  0
 15 16  1  0
  7 17  2  0
 17 18  1  0
 17  3  1  0
 15  9  1  0
  1 19  1  0
  1 20  1  0
  1 21  1  0
  4 22  1  0
  5 23  1  0
  6 24  1  0
  8 25  1  0
 10 26  1  0
 11 27  1  0
 12 28  1  0
 14 29  1  0
 14 30  1  0
 14 31  1  0
 16 32  1  0
 16 33  1  0
 16 34  1  0
 18 35  1  0
M  CHG  1  17   1
M  END
>  <UniqueID>  (2) 
2

>  <SMILES>  (2) 
COc1cccc(Nc2cccc(C)c2C)[n+]1O

>  <Energy>  (2) 
44.269893869131586

>  <Genealogy>  (2) 
COc1cccc(Nc2cccc(C)c2C)[n+]1O (protonated)
COc1cccc(Nc2cccc(C)c2C)[n+]1O (3D coordinates assigned)
COc1cccc(Nc2cccc(C)c2C)[n+]1O (optimized conformer: 44.269893869131586 kcal/mol)

>  <smiles>  (2) 
COc1cccc(Nc2cccc(C)c2C)[n+]1[O-]

>  <score_type>  (2) 
oracle

>  <origin>  (2) 
adgpu

>  <m_score__min__energy>  (2) 
-7.7000000000000002

>  <m_primary>  (2) 
energy

$$$$
2:0
     RDKit          3D

 30 31  0  0  0  0  0  0  0  0999 V2000
   -5.4070   17.1210  -34.5400 C   0  0  0  0  0  0  0  0  0  0  0  0
   -6.7460   16.5050  -33.4720 S   0  0  0  0  0  0  0  0  0  0  0  0
   -7.2530   18.1480  -32.9650 C   0  0  0  0  0  0  0  0  0  0  0  0
   -6.6220   19.2760  -33.5060 C   0  0  0  0  0  0  0  0  0  0  0  0
   -7.0010   20.5570  -33.0930 C   0  0  0  0  0  0  0  0  0  0  0  0
   -8.0100   20.7140  -32.1350 C   0  0  0  0  0  0  0  0  0  0  0  0
   -8.4620   22.3540  -31.5620 S   0  0  0  0  0  0  0  0  0  0  0  0
   -7.0310   23.2000  -32.3260 C   0  0  0  0  0  0  0  0  0  0  0  0
   -5.9960   23.5870  -31.2940 C   0  0  0  0  0  0  0  0  0  0  0  0
   -6.3240   24.5070  -30.2760 C   0  0  0  0  0  0  0  0  0  0  0  0
   -7.5720   25.0340  -30.1910 F   0  0  0  0  0  0  0  0  0  0  0  0
   -5.3610   24.9040  -29.3460 C   0  0  0  0  0  0  0  0  0  0  0  0
   -4.0660   24.3910  -29.4140 C   0  0  0  0  0  0  0  0  0  0  0  0
   -3.7270   23.4780  -30.4130 C   0  0  0  0  0  0  0  0  0  0  0  0
   -4.6800   23.0720  -31.3550 C   0  0  0  0  0  0  0  0  0  0  0  0
   -4.1880   21.9220  -32.5940 Cl  0  0  0  0  0  0  0  0  0  0  0  0
   -8.6590   19.5880  -31.6150 C   0  0  0  0  0  0  0  0  0  0  0  0
   -8.2790   18.3080  -32.0260 C   0  0  0  0  0  0  0  0  0  0  0  0
   -4.5844   17.4994  -33.9153 H   0  0  0  0  0  0  0  0  0  0  0  0
   -5.0383   16.3020  -35.1750 H   0  0  0  0  0  0  0  0  0  0  0  0
   -5.7890   17.9339  -35.1750 H   0  0  0  0  0  0  0  0  0  0  0  0
   -5.8273   19.1536  -34.2567 H   0  0  0  0  0  0  0  0  0  0  0  0
   -6.5064   21.4415  -33.5208 H   0  0  0  0  0  0  0  0  0  0  0  0
   -6.5676   22.5246  -33.0602 H   0  0  0  0  0  0  0  0  0  0  0  0
   -7.3934   24.1187  -32.8105 H   0  0  0  0  0  0  0  0  0  0  0  0
   -5.6247   25.6238  -28.5571 H   0  0  0  0  0  0  0  0  0  0  0  0
   -3.3109   24.7066  -28.6791 H   0  0  0  0  0  0  0  0  0  0  0  0
   -2.7047   23.0747  -30.4609 H   0  0  0  0  0  0  0  0  0  0  0  0
   -9.4695   19.7112  -30.8816 H   0  0  0  0  0  0  0  0  0  0  0  0
   -8.7866   17.4247  -31.6113 H   0  0  0  0  0  0  0  0  0  0  0  0
  1  2  1  0
  2  3  1  0
  3  4  2  0
  4  5  1  0
  5  6  2  0
  6  7  1  0
  7  8  1  0
  8  9  1  0
  9 10  2  0
 10 11  1  0
 10 12  1  0
 12 13  2  0
 13 14  1  0
 14 15  2  0
 15 16  1  0
  6 17  1  0
 17 18  2  0
 18  3  1  0
 15  9  1  0
  1 19  1  0
  1 20  1  0
  1 21  1  0
  4 22  1  0
  5 23  1  0
  8 24  1  0
  8 25  1  0
 12 26  1  0
 13 27  1  0
 14 28  1  0
 17 29  1  0
 18 30  1  0
M  END
>  <UniqueID>  (3) 
3

>  <SMILES>  (3) 
CSc1ccc(SCc2c(F)cccc2Cl)cc1

>  <Energy>  (3) 
22.38822826470183

>  <Genealogy>  (3) 
CSc1ccc(SCc2c(F)cccc2Cl)cc1 (3D coordinates assigned)
CSc1ccc(SCc2c(F)cccc2Cl)cc1 (optimized conformer: 22.38822826470183 kcal/mol)

>  <smiles>  (3) 
CSc1ccc(SCc2c(F)cccc2Cl)cc1

>  <score_type>  (3) 
oracle

>  <origin>  (3) 
adgpu

>  <m_score__min__energy>  (3) 
-7.3600000000000003

>  <m_primary>  (3) 
energy

$$$$
3:0
     RDKit          3D

 40 42  0  0  0  0  0  0  0  0999 V2000
   -5.2340   25.6680  -30.4650 C   0  0  0  0  0  0  0  0  0  0  0  0
   -3.8650   25.2770  -30.4640 O   0  0  0  0  0  0  0  0  0  0  0  0
   -3.4090   23.9570  -30.3140 C   0  0  0  0  0  0  0  0  0  0  0  0
   -3.8230   22.9300  -31.1870 C   0  0  0  0  0  0  0  0  0  0  0  0
   -3.4040   21.6080  -30.9920 C   0  0  0  0  0  0  0  0  0  0  0  0
   -3.8310   20.5900  -31.9140 N   0  0  0  0  0  0  0  0  0  0  0  0
   -5.1770   20.4630  -32.4050 C   0  0  0  0  0  0  0  0  0  0  0  0
   -5.9870   21.4210  -32.2750 O   0  0  0  0  0  0  0  0  0  0  0  0
   -5.6110   19.2130  -33.0720 C   0  0  0  0  0  0  0  0  0  0  0  0
   -4.7450   18.5990  -33.9950 C   0  0  0  0  0  0  0  0  0  0  0  0
   -5.1070   17.4080  -34.6300 C   0  0  0  0  0  0  0  0  0  0  0  0
   -6.3380   16.8160  -34.3520 C   0  0  0  0  0  0  0  0  0  0  0  0
   -7.2120   17.4130  -33.4440 C   0  0  0  0  0  0  0  0  0  0  0  0
   -6.8620   18.6070  -32.8000 C   0  0  0  0  0  0  0  0  0  0  0  0
   -8.1670   19.3900  -31.6280 Br  0  0  0  0  0  0  0  0  0  0  0  0
   -2.5320   21.3150  -29.9330 C   0  0  0  0  0  0  0  0  0  0  0  0
   -2.1110   22.3230  -29.0670 C   0  0  0  0  0  0  0  0  0  0  0  0
   -2.5350   23.6500  -29.2500 C   0  0  0  0  0  0  0  0  0  0  0  0
   -2.0720   24.6730  -28.3490 N   0  0  0  0  0  0  0  0  0  0  0  0
   -1.1610   25.6400  -28.5960 C   0  0  0  0  0  0  0  0  0  0  0  0
   -0.9310   26.4240  -27.5220 N   0  0  0  0  0  0  0  0  0  0  0  0
   -1.7240   25.9050  -26.5630 C   0  0  0  0  0  0  0  0  0  0  0  0
   -1.8640   26.4800  -25.1930 C   0  0  0  0  0  0  0  0  0  0  0  0
   -2.4310   24.8350  -27.0630 C   0  0  0  0  0  0  0  0  0  0  0  0
   -5.5873   25.7689  -29.4282 H   0  0  0  0  0  0  0  0  0  0  0  0
   -5.3396   26.6322  -30.9838 H   0  0  0  0  0  0  0  0  0  0  0  0
   -5.8329   24.9050  -30.9838 H   0  0  0  0  0  0  0  0  0  0  0  0
   -4.4841   23.1705  -32.0327 H   0  0  0  0  0  0  0  0  0  0  0  0
   -3.1020   19.9670  -32.3290 H   0  0  0  0  0  0  0  0  0  0  0  0
   -3.7724   19.0614  -34.2193 H   0  0  0  0  0  0  0  0  0  0  0  0
   -4.4205   16.9376  -35.3493 H   0  0  0  0  0  0  0  0  0  0  0  0
   -6.6204   15.8765  -34.8496 H   0  0  0  0  0  0  0  0  0  0  0  0
   -8.1836   16.9429  -33.2318 H   0  0  0  0  0  0  0  0  0  0  0  0
   -2.1784   20.2839  -29.7851 H   0  0  0  0  0  0  0  0  0  0  0  0
   -1.4395   22.0768  -28.2312 H   0  0  0  0  0  0  0  0  0  0  0  0
   -0.6613   25.7736  -29.5668 H   0  0  0  0  0  0  0  0  0  0  0  0
   -1.6732   25.6962  -24.4451 H   0  0  0  0  0  0  0  0  0  0  0  0
   -1.1384   27.2963  -25.0620 H   0  0  0  0  0  0  0  0  0  0  0  0
   -2.8837   26.8713  -25.0620 H   0  0  0  0  0  0  0  0  0  0  0  0
   -3.1587   24.2226  -26.5103 H   0  0  0  0  0  0  0  0  0  0  0  0
  1  2  1  0
  2  3  1  0
  3  4  2  0
  4  5  1  0
  5  6  1  0
  6  7  1  0
  7  8  2  0
  7  9  1  0
  9 10  2  0
 10 11  1  0
 11 12  2  0
 12 13  1  0
 13 14  2  0
 14 15  1  0
  5 16  2  0
 16 17  1  0
 17 18  2  0
 18 19  1  0
 19 20  1  0
 20 21  2  0
 21 22  1  0
 22 23  1  0
 22 24  2  0
 18  3  1  0
 24 19  1  0
 14  9  1  0
  1 25  1  0
  1 26  1  0
  1 27  1  0
  4 28  1  0
  6 29  1  0
 10 30  1  0
 11 31  1  0
 12 32  1  0
 13 33  1  0
 16 34  1  0
 17 35  1  0
 20 36  1  0
 23 37  1  0
 23 38  1  0
 23 39  1  0
 24 40  1  0
M  END
>  <UniqueID>  (4) 
4

>  <SMILES>  (4) 
COc1cc(NC(=O)c2ccccc2Br)ccc1-n1cnc(C)c1

>  <Energy>  (4) 
83.7088790523594

>  <Genealogy>  (4) 
COc1cc(NC(=O)c2ccccc2Br)ccc1-n1cnc(C)c1 (3D coordinates assigned)
COc1cc(NC(=O)c2ccccc2Br)ccc1-n1cnc(C)c1 (optimized conformer: 83.7088790523594 kcal/mol)

>  <smiles>  (4) 
COc1cc(NC(=O)c2ccccc2Br)ccc1-n1cnc(C)c1

>  <score_type>  (4) 
oracle

>  <origin>  (4) 
adgpu

>  <m_score__min__energy>  (4) 
-8.5500000000000007

>  <m_primary>  (4) 
energy

$$$$
4:0
     RDKit          3D

 42 44  0  0  0  0  0  0  0  0999 V2000
   -1.8910   25.6140  -28.9720 O   0  0  0  0  0  0  0  0  0  0  0  0
   -2.6260   24.6810  -29.3950 C   0  0  0  0  0  0  0  0  0  0  0  0
   -3.5460   24.9110  -30.4660 N   0  0  0  0  0  0  0  0  0  0  0  0
   -4.9190   25.3620  -30.2690 C   0  0  0  0  0  0  0  0  0  0  0  0
   -5.8860   24.5090  -31.0960 C   0  0  0  0  0  0  0  0  0  0  0  0
   -6.1000   23.1330  -30.4520 C   0  0  0  0  0  0  0  0  0  0  0  0
   -5.9540   22.0460  -31.4340 N   0  0  0  0  0  0  0  0  0  0  0  0
   -4.6380   21.6180  -31.8150 C   0  0  0  0  0  0  0  0  0  0  0  0
   -3.8470   20.8920  -30.9130 C   0  0  0  0  0  0  0  0  0  0  0  0
   -2.5640   20.4760  -31.2820 C   0  0  0  0  0  0  0  0  0  0  0  0
   -2.0650   20.7840  -32.5540 C   0  0  0  0  0  0  0  0  0  0  0  0
   -0.4560   20.2640  -33.0160 Cl  0  0  0  0  0  0  0  0  0  0  0  0
   -2.8530   21.5080  -33.4560 C   0  0  0  0  0  0  0  0  0  0  0  0
   -4.1360   21.9240  -33.0880 C   0  0  0  0  0  0  0  0  0  0  0  0
   -7.0710   21.1920  -31.7570 C   0  0  0  0  0  0  0  0  0  0  0  0
   -6.8800   19.8480  -32.1210 C   0  0  0  0  0  0  0  0  0  0  0  0
   -7.9760   19.0440  -32.4390 C   0  0  0  0  0  0  0  0  0  0  0  0
   -9.2590   19.5900  -32.3970 C   0  0  0  0  0  0  0  0  0  0  0  0
   -9.4340   20.8920  -32.0500 N   0  0  0  0  0  0  0  0  0  0  0  0
   -8.3830   21.6960  -31.7360 C   0  0  0  0  0  0  0  0  0  0  0  0
   -2.5470   23.3500  -28.7850 C   0  0  0  0  0  0  0  0  0  0  0  0
   -1.4130   22.5680  -28.6800 C   0  0  0  0  0  0  0  0  0  0  0  0
   -1.8150   21.4150  -28.0430 C   0  0  0  0  0  0  0  0  0  0  0  0
   -3.1660   21.5620  -27.7990 C   0  0  0  0  0  0  0  0  0  0  0  0
   -3.5730   22.7250  -28.2530 O   0  0  0  0  0  0  0  0  0  0  0  0
   -5.1795   25.2753  -29.2038 H   0  0  0  0  0  0  0  0  0  0  0  0
   -5.0002   26.4096  -30.5943 H   0  0  0  0  0  0  0  0  0  0  0  0
   -6.8536   25.0277  -31.1646 H   0  0  0  0  0  0  0  0  0  0  0  0
   -5.4534   24.3623  -32.0967 H   0  0  0  0  0  0  0  0  0  0  0  0
   -5.3575   22.9938  -29.6525 H   0  0  0  0  0  0  0  0  0  0  0  0
   -7.1229   23.0973  -30.0490 H   0  0  0  0  0  0  0  0  0  0  0  0
   -4.2365   20.6493  -29.9133 H   0  0  0  0  0  0  0  0  0  0  0  0
   -1.9459   19.9062  -30.5725 H   0  0  0  0  0  0  0  0  0  0  0  0
   -2.4625   21.7500  -34.4555 H   0  0  0  0  0  0  0  0  0  0  0  0
   -4.7533   22.4928  -33.7989 H   0  0  0  0  0  0  0  0  0  0  0  0
   -5.8638   19.4283  -32.1554 H   0  0  0  0  0  0  0  0  0  0  0  0
   -7.8294   17.9906  -32.7198 H   0  0  0  0  0  0  0  0  0  0  0  0
  -10.1301   18.9658  -32.6451 H   0  0  0  0  0  0  0  0  0  0  0  0
   -8.5607   22.7469  -31.4640 H   0  0  0  0  0  0  0  0  0  0  0  0
   -0.4004   22.8147  -29.0317 H   0  0  0  0  0  0  0  0  0  0  0  0
   -1.1864   20.5511  -27.7813 H   0  0  0  0  0  0  0  0  0  0  0  0
   -3.8044   20.8180  -27.3001 H   0  0  0  0  0  0  0  0  0  0  0  0
  1  2  2  0
  2  3  1  0
  3  4  1  0
  4  5  1  0
  5  6  1  0
  6  7  1  0
  7  8  1  0
  8  9  2  0
  9 10  1  0
 10 11  2  0
 11 12  1  0
 11 13  1  0
 13 14  2  0
  7 15  1  0
 15 16  2  0
 16 17  1  0
 17 18  2  0
 18 19  1  0
 19 20  2  0
  2 21  1  0
 21 22  2  0
 22 23  1  0
 23 24  2  0
 24 25  1  0
 14  8  1  0
 20 15  1  0
 25 21  1  0
  4 26  1  0
  4 27  1  0
  5 28  1  0
  5 29  1  0
  6 30  1  0
  6 31  1  0
  9 32  1  0
 10 33  1  0
 13 34  1  0
 14 35  1  0
 16 36  1  0
 17 37  1  0
 18 38  1  0
 20 39  1  0
 22 40  1  0
 23 41  1  0
 24 42  1  0
M  CHG  1   3  -1
M  END
>  <UniqueID>  (5) 
5

>  <SMILES>  (5) 
O=C([N-]CCCN(c1ccc(Cl)cc1)c1cccnc1)c1ccco1

>  <Energy>  (5) 
75.39663628009826

>  <Genealogy>  (5) 
O=C([N-]CCCN(c1ccc(Cl)cc1)c1cccnc1)c1ccco1 (protonated)
O=C([N-]CCCN(c1ccc(Cl)cc1)c1cccnc1)c1ccco1 (3D coordinates assigned)
O=C([N-]CCCN(c1ccc(Cl)cc1)c1cccnc1)c1ccco1 (optimized conformer: 75.39663628009826 kcal/mol)

>  <smiles>  (5) 
O=C(NCCCN(c1ccc(Cl)cc1)c1cccnc1)c1ccco1

>  <score_type>  (5) 
oracle

>  <origin>  (5) 
adgpu

>  <m_score__min__energy>  (5) 
-10.09

>  <m_primary>  (5) 
energy

$$$$
5:0
     RDKit          3D

 30 31  0  0  0  0  0  0  0  0999 V2000
   -7.5610   19.8930  -32.8560 C   0  0  0  0  0  0  0  0  0  0  0  0
   -6.9680   21.0990  -32.1900 C   0  0  0  0  0  0  0  0  0  0  0  0
   -5.6120   21.4100  -32.3690 C   0  0  0  0  0  0  0  0  0  0  0  0
   -5.0700   22.5610  -31.7900 C   0  0  0  0  0  0  0  0  0  0  0  0
   -5.8830   23.4240  -31.0420 C   0  0  0  0  0  0  0  0  0  0  0  0
   -5.2360   24.9230  -30.3800 S   0  0  0  0  0  0  0  0  0  0  0  0
   -5.6610   25.0990  -28.9480 O   0  0  0  0  0  0  0  0  0  0  0  0
   -5.7720   26.0690  -31.1900 O   0  0  0  0  0  0  0  0  0  0  0  0
   -3.5010   24.9280  -30.4680 N   0  0  0  0  0  0  0  0  0  0  0  0
   -2.6210   24.5440  -29.4040 C   0  0  0  0  0  0  0  0  0  0  0  0
   -1.8550   25.4140  -28.9100 O   0  0  0  0  0  0  0  0  0  0  0  0
   -2.5680   23.1660  -28.8830 C   0  0  0  0  0  0  0  0  0  0  0  0
   -1.5420   22.2890  -29.2630 C   0  0  0  0  0  0  0  0  0  0  0  0
   -1.4990   20.9960  -28.7370 C   0  0  0  0  0  0  0  0  0  0  0  0
   -2.4900   20.5880  -27.8430 C   0  0  0  0  0  0  0  0  0  0  0  0
   -3.4920   21.4420  -27.5010 N   0  0  0  0  0  0  0  0  0  0  0  0
   -3.5580   22.7050  -28.0030 C   0  0  0  0  0  0  0  0  0  0  0  0
   -7.2390   23.1180  -30.8670 C   0  0  0  0  0  0  0  0  0  0  0  0
   -7.7810   21.9670  -31.4440 C   0  0  0  0  0  0  0  0  0  0  0  0
   -7.9092   19.1849  -32.0896 H   0  0  0  0  0  0  0  0  0  0  0  0
   -8.4103   20.2011  -33.4834 H   0  0  0  0  0  0  0  0  0  0  0  0
   -6.7984   19.4085  -33.4834 H   0  0  0  0  0  0  0  0  0  0  0  0
   -4.9722   20.7451  -32.9678 H   0  0  0  0  0  0  0  0  0  0  0  0
   -4.0023   22.7903  -31.9217 H   0  0  0  0  0  0  0  0  0  0  0  0
   -0.7714   22.6193  -29.9751 H   0  0  0  0  0  0  0  0  0  0  0  0
   -0.6920   20.3060  -29.0245 H   0  0  0  0  0  0  0  0  0  0  0  0
   -2.4608   19.5752  -27.4147 H   0  0  0  0  0  0  0  0  0  0  0  0
   -4.3898   23.3660  -27.7180 H   0  0  0  0  0  0  0  0  0  0  0  0
   -7.8793   23.7867  -30.2730 H   0  0  0  0  0  0  0  0  0  0  0  0
   -8.8493   21.7398  -31.3133 H   0  0  0  0  0  0  0  0  0  0  0  0
  1  2  1  0
  2  3  2  0
  3  4  1  0
  4  5  2  0
  5  6  1  0
  6  7  2  0
  6  8  2  0
  6  9  1  0
  9 10  1  0
 10 11  2  0
 10 12  1  0
 12 13  2  0
 13 14  1  0
 14 15  2  0
 15 16  1  0
 16 17  2  0
  5 18  1  0
 18 19  2  0
 19  2  1  0
 17 12  1  0
  1 20  1  0
  1 21  1  0
  1 22  1  0
  3 23  1  0
  4 24  1  0
 13 25  1  0
 14 26  1  0
 15 27  1  0
 17 28  1  0
 18 29  1  0
 19 30  1  0
M  CHG  1   9  -1
M  END
>  <UniqueID>  (6) 
6

>  <SMILES>  (6) 
Cc1ccc(S(=O)(=O)[N-]C(=O)c2cccnc2)cc1

>  <Energy>  (6) 
36.27012309224773

>  <Genealogy>  (6) 
Cc1ccc(S(=O)(=O)[N-]C(=O)c2cccnc2)cc1 (protonated)
Cc1ccc(S(=O)(=O)[N-]C(=O)c2cccnc2)cc1 (3D coordinates assigned)
Cc1ccc(S(=O)(=O)[N-]C(=O)c2cccnc2)cc1 (optimized conformer: 36.27012309224773 kcal/mol)

>  <smiles>  (6) 
Cc1ccc(S(=O)(=O)NC(=O)c2cccnc2)cc1

>  <score_type>  (6) 
oracle

>  <origin>  (6) 
adgpu

>  <m_score__min__energy>  (6) 
-8.6999999999999993

>  <m_primary>  (6) 
energy

$$$$
6:0
     RDKit          3D

 61 64  0  0  0  0  0  0  0  0999 V2000
    4.7800   23.8550  -36.4060 C   0  0  0  0  0  0  0  0  0  0  0  0
    3.4040   23.4140  -36.8080 C   0  0  0  0  0  0  0  0  0  0  0  0
    2.5810   24.2770  -37.2150 O   0  0  0  0  0  0  0  0  0  0  0  0
    3.0020   22.0380  -36.7670 N   0  0  0  0  0  0  0  0  0  0  0  0
    1.9020   21.4890  -36.0270 C   0  0  0  0  0  0  0  0  0  0  0  0
    1.8230   20.1010  -35.8630 C   0  0  0  0  0  0  0  0  0  0  0  0
    0.7620   19.5310  -35.1550 C   0  0  0  0  0  0  0  0  0  0  0  0
   -0.2420   20.3470  -34.6150 C   0  0  0  0  0  0  0  0  0  0  0  0
   -1.2980   19.7680  -33.8290 N   0  0  0  0  0  0  0  0  0  0  0  0
   -1.2580   18.3240  -33.5350 C   0  0  0  0  0  0  0  0  0  0  0  0
   -2.6190   17.6920  -33.6800 C   0  0  0  0  0  0  0  0  0  0  0  0
   -3.5540   18.2170  -34.5880 C   0  0  0  0  0  0  0  0  0  0  0  0
   -4.8410   17.6780  -34.6660 C   0  0  0  0  0  0  0  0  0  0  0  0
   -5.2080   16.6130  -33.8350 C   0  0  0  0  0  0  0  0  0  0  0  0
   -6.8270   15.9460  -33.9270 Cl  0  0  0  0  0  0  0  0  0  0  0  0
   -4.2830   16.0880  -32.9260 C   0  0  0  0  0  0  0  0  0  0  0  0
   -2.9960   16.6290  -32.8440 C   0  0  0  0  0  0  0  0  0  0  0  0
   -2.1900   20.6480  -33.1060 C   0  0  0  0  0  0  0  0  0  0  0  0
   -3.3800   21.1170  -33.6920 C   0  0  0  0  0  0  0  0  0  0  0  0
   -4.2210   21.9880  -32.9950 C   0  0  0  0  0  0  0  0  0  0  0  0
   -3.8990   22.3920  -31.6970 C   0  0  0  0  0  0  0  0  0  0  0  0
   -4.9420   23.5390  -30.8610 S   0  0  0  0  0  0  0  0  0  0  0  0
   -4.3280   24.9130  -30.8340 O   0  0  0  0  0  0  0  0  0  0  0  0
   -5.1360   23.0730  -29.4440 O   0  0  0  0  0  0  0  0  0  0  0  0
   -6.4810   23.6000  -31.6630 N   0  0  0  0  0  0  0  0  0  0  0  0
   -7.3700   22.4740  -31.7400 C   0  0  0  0  0  0  0  0  0  0  0  0
   -8.7640   22.6420  -31.8670 C   0  0  0  0  0  0  0  0  0  0  0  0
   -9.6060   21.5290  -31.9420 C   0  0  0  0  0  0  0  0  0  0  0  0
   -9.0730   20.2390  -31.8930 C   0  0  0  0  0  0  0  0  0  0  0  0
   -7.6840   20.0530  -31.7710 C   0  0  0  0  0  0  0  0  0  0  0  0
   -7.1030   18.6710  -31.6880 C   0  0  0  0  0  0  0  0  0  0  0  0
   -6.8420   21.1730  -31.6760 C   0  0  0  0  0  0  0  0  0  0  0  0
   -2.7280   21.9130  -31.0940 C   0  0  0  0  0  0  0  0  0  0  0  0
   -1.8800   21.0490  -31.7930 C   0  0  0  0  0  0  0  0  0  0  0  0
   -0.1910   21.7330  -34.8130 C   0  0  0  0  0  0  0  0  0  0  0  0
    0.8700   22.3020  -35.5250 C   0  0  0  0  0  0  0  0  0  0  0  0
    4.8517   23.8780  -35.3086 H   0  0  0  0  0  0  0  0  0  0  0  0
    5.5229   23.1499  -36.8073 H   0  0  0  0  0  0  0  0  0  0  0  0
    4.9746   24.8605  -36.8073 H   0  0  0  0  0  0  0  0  0  0  0  0
    2.6016   19.4547  -36.2945 H   0  0  0  0  0  0  0  0  0  0  0  0
    0.7143   18.4402  -35.0210 H   0  0  0  0  0  0  0  0  0  0  0  0
   -0.5615   17.8364  -34.2329 H   0  0  0  0  0  0  0  0  0  0  0  0
   -0.9261   18.1930  -32.4945 H   0  0  0  0  0  0  0  0  0  0  0  0
   -3.2716   19.0563  -35.2406 H   0  0  0  0  0  0  0  0  0  0  0  0
   -5.5669   18.0914  -35.3817 H   0  0  0  0  0  0  0  0  0  0  0  0
   -4.5685   15.2486  -32.2749 H   0  0  0  0  0  0  0  0  0  0  0  0
   -2.2754   16.2195  -32.1208 H   0  0  0  0  0  0  0  0  0  0  0  0
   -3.6507   20.7949  -34.7084 H   0  0  0  0  0  0  0  0  0  0  0  0
   -5.1414   22.3576  -33.4706 H   0  0  0  0  0  0  0  0  0  0  0  0
   -6.8400   24.5460  -31.9290 H   0  0  0  0  0  0  0  0  0  0  0  0
   -9.1914   23.6548  -31.9073 H   0  0  0  0  0  0  0  0  0  0  0  0
  -10.6926   21.6696  -32.0400 H   0  0  0  0  0  0  0  0  0  0  0  0
   -9.7407   19.3667  -31.9499 H   0  0  0  0  0  0  0  0  0  0  0  0
   -6.9833   18.3864  -30.6322 H   0  0  0  0  0  0  0  0  0  0  0  0
   -7.7780   17.9590  -32.1855 H   0  0  0  0  0  0  0  0  0  0  0  0
   -6.1221   18.6552  -32.1855 H   0  0  0  0  0  0  0  0  0  0  0  0
   -5.7585   21.0306  -31.5503 H   0  0  0  0  0  0  0  0  0  0  0  0
   -2.4755   22.2178  -30.0677 H   0  0  0  0  0  0  0  0  0  0  0  0
   -0.9622   20.6792  -31.3125 H   0  0  0  0  0  0  0  0  0  0  0  0
   -0.9870   22.3750  -34.4077 H   0  0  0  0  0  0  0  0  0  0  0  0
    0.8973   23.3888  -35.6928 H   0  0  0  0  0  0  0  0  0  0  0  0
  1  2  1  0
  2  3  2  0
  2  4  1  0
  4  5  1  0
  5  6  2  0
  6  7  1  0
  7  8  2  0
  8  9  1  0
  9 10  1  0
 10 11  1  0
 11 12  2  0
 12 13  1  0
 13 14  2  0
 14 15  1  0
 14 16  1  0
 16 17  2  0
  9 18  1  0
 18 19  2  0
 19 20  1  0
 20 21  2  0
 21 22  1  0
 22 23  2  0
 22 24  2  0
 22 25  1  0
 25 26  1  0
 26 27  2  0
 27 28  1  0
 28 29  2  0
 29 30  1  0
 30 31  1  0
 30 32  2  0
 21 33  1  0
 33 34  2  0
  8 35  1  0
 35 36  2  0
 36  5  1  0
 17 11  1  0
 34 18  1  0
 32 26  1  0
  1 37  1  0
  1 38  1  0
  1 39  1  0
  6 40  1  0
  7 41  1  0
 10 42  1  0
 10 43  1  0
 12 44  1  0
 13 45  1  0
 16 46  1  0
 17 47  1  0
 19 48  1  0
 20 49  1  0
 25 50  1  0
 27 51  1  0
 28 52  1  0
 29 53  1  0
 31 54  1  0
 31 55  1  0
 31 56  1  0
 32 57  1  0
 33 58  1  0
 34 59  1  0
 35 60  1  0
 36 61  1  0
M  CHG  1   4  -1
M  END
>  <UniqueID>  (7) 
7

>  <SMILES>  (7) 
CC(=O)[N-]c1ccc(N(Cc2ccc(Cl)cc2)c2ccc(S(=O)(=O)Nc3cccc(C)c3)cc2)cc1

>  <Energy>  (7) 
80.32254612878596

>  <Genealogy>  (7) 
CC(=O)[N-]c1ccc(N(Cc2ccc(Cl)cc2)c2ccc(S(=O)(=O)Nc3cccc(C)c3)cc2)cc1 (protonated)
CC(=O)[N-]c1ccc(N(Cc2ccc(Cl)cc2)c2ccc(S(=O)(=O)Nc3cccc(C)c3)cc2)cc1 (3D coordinates assigned)
CC(=O)[N-]c1ccc(N(Cc2ccc(Cl)cc2)c2ccc(S(=O)(=O)Nc3cccc(C)c3)cc2)cc1 (optimized conformer: 80.32254612878596 kcal/mol)

>  <smiles>  (7) 
CC(=O)Nc1ccc(N(Cc2ccc(Cl)cc2)c2ccc(S(=O)(=O)Nc3cccc(C)c3)cc2)cc1

>  <score_type>  (7) 
oracle

>  <origin>  (7) 
adgpu

>  <m_score__min__energy>  (7) 
-11.19

>  <m_primary>  (7) 
energy

$$$$
7:0
     RDKit          3D

 46 48  0  0  0  0  0  0  0  0999 V2000
   -8.3640   18.8310  -31.5850 C   0  0  0  0  0  0  0  0  0  0  0  0
   -7.5150   18.6400  -32.7110 O   0  0  0  0  0  0  0  0  0  0  0  0
   -6.2390   19.2090  -32.8430 C   0  0  0  0  0  0  0  0  0  0  0  0
   -5.0770   18.4180  -32.9340 C   0  0  0  0  0  0  0  0  0  0  0  0
   -3.8230   19.0170  -33.0540 C   0  0  0  0  0  0  0  0  0  0  0  0
   -3.7120   20.4050  -33.0780 C   0  0  0  0  0  0  0  0  0  0  0  0
   -4.8540   21.2020  -32.9990 C   0  0  0  0  0  0  0  0  0  0  0  0
   -6.1260   20.6110  -32.8860 C   0  0  0  0  0  0  0  0  0  0  0  0
   -7.3210   21.4000  -32.8040 N   0  0  0  0  0  0  0  0  0  0  0  0
   -7.7250   22.4810  -31.5090 S   0  0  0  0  0  0  0  0  0  0  0  0
   -8.3050   21.6920  -30.3710 O   0  0  0  0  0  0  0  0  0  0  0  0
   -8.7540   23.4610  -32.0000 O   0  0  0  0  0  0  0  0  0  0  0  0
   -6.2840   23.3200  -30.9470 C   0  0  0  0  0  0  0  0  0  0  0  0
   -6.1120   24.6850  -31.2090 C   0  0  0  0  0  0  0  0  0  0  0  0
   -4.9470   25.3350  -30.7990 C   0  0  0  0  0  0  0  0  0  0  0  0
   -3.9580   24.6350  -30.1000 C   0  0  0  0  0  0  0  0  0  0  0  0
   -2.8010   25.2960  -29.7010 O   0  0  0  0  0  0  0  0  0  0  0  0
   -4.1310   23.2740  -29.8050 C   0  0  0  0  0  0  0  0  0  0  0  0
   -3.0960   22.5920  -29.0830 N   0  0  0  0  0  0  0  0  0  0  0  0
   -1.5550   22.0970  -29.7100 S   0  0  0  0  0  0  0  0  0  0  0  0
   -0.5280   23.1730  -29.4870 O   0  0  0  0  0  0  0  0  0  0  0  0
   -1.7080   21.8860  -31.1910 O   0  0  0  0  0  0  0  0  0  0  0  0
   -1.0280   20.5900  -28.9650 C   0  0  0  0  0  0  0  0  0  0  0  0
    0.0070   19.8310  -29.5300 C   0  0  0  0  0  0  0  0  0  0  0  0
    0.4280   18.6480  -28.9120 C   0  0  0  0  0  0  0  0  0  0  0  0
   -0.1860   18.2070  -27.7300 C   0  0  0  0  0  0  0  0  0  0  0  0
    0.2550   17.0030  -27.0950 N   0  0  0  0  0  0  0  0  0  0  0  0
   -1.2230   18.9610  -27.1650 C   0  0  0  0  0  0  0  0  0  0  0  0
   -1.6390   20.1490  -27.7790 C   0  0  0  0  0  0  0  0  0  0  0  0
   -5.2950   22.6190  -30.2450 C   0  0  0  0  0  0  0  0  0  0  0  0
   -7.7822   18.7001  -30.6607 H   0  0  0  0  0  0  0  0  0  0  0  0
   -8.7859   19.8465  -31.6120 H   0  0  0  0  0  0  0  0  0  0  0  0
   -9.1802   18.0940  -31.6120 H   0  0  0  0  0  0  0  0  0  0  0  0
   -5.1590   17.3213  -32.9103 H   0  0  0  0  0  0  0  0  0  0  0  0
   -2.9208   18.3923  -33.1298 H   0  0  0  0  0  0  0  0  0  0  0  0
   -2.7205   20.8743  -33.1595 H   0  0  0  0  0  0  0  0  0  0  0  0
   -4.7598   22.2976  -33.0252 H   0  0  0  0  0  0  0  0  0  0  0  0
   -6.8963   25.2456  -31.7387 H   0  0  0  0  0  0  0  0  0  0  0  0
   -4.8060   26.4020  -31.0264 H   0  0  0  0  0  0  0  0  0  0  0  0
    0.4887   20.1660  -30.4604 H   0  0  0  0  0  0  0  0  0  0  0  0
    1.2452   18.0604  -29.3556 H   0  0  0  0  0  0  0  0  0  0  0  0
    1.2410   16.6900  -27.1790 H   0  0  0  0  0  0  0  0  0  0  0  0
   -0.4160   16.3930  -26.5780 H   0  0  0  0  0  0  0  0  0  0  0  0
   -1.7102   18.6200  -26.2396 H   0  0  0  0  0  0  0  0  0  0  0  0
   -2.4498   20.7411  -27.3296 H   0  0  0  0  0  0  0  0  0  0  0  0
   -5.4300   21.5475  -30.0362 H   0  0  0  0  0  0  0  0  0  0  0  0
  1  2  1  0
  2  3  1  0
  3  4  2  0
  4  5  1  0
  5  6  2  0
  6  7  1  0
  7  8  2  0
  8  9  1  0
  9 10  1  0
 10 11  2  0
 10 12  2  0
 10 13  1  0
 13 14  2  0
 14 15  1  0
 15 16  2  0
 16 17  1  0
 16 18  1  0
 18 19  1  0
 19 20  1  0
 20 21  2  0
 20 22  2  0
 20 23  1  0
 23 24  2  0
 24 25  1  0
 25 26  2  0
 26 27  1  0
 26 28  1  0
 28 29  2  0
 18 30  2  0
  8  3  1  0
 30 13  1  0
 29 23  1  0
  1 31  1  0
  1 32  1  0
  1 33  1  0
  4 34  1  0
  5 35  1  0
  6 36  1  0
  7 37  1  0
 14 38  1  0
 15 39  1  0
 24 40  1  0
 25 41  1  0
 27 42  1  0
 27 43  1  0
 28 44  1  0
 29 45  1  0
 30 46  1  0
M  CHG  3   9  -1  17  -1  19  -1
M  END
>  <UniqueID>  (8) 
8

>  <SMILES>  (8) 
COc1ccccc1[N-]S(=O)(=O)c1ccc([O-])c([N-]S(=O)(=O)c2ccc(N)cc2)c1

>  <Energy>  (8) 
51.82328757568275

>  <Genealogy>  (8) 
COc1ccccc1[N-]S(=O)(=O)c1ccc([O-])c([N-]S(=O)(=O)c2ccc(N)cc2)c1 (protonated)
COc1ccccc1[N-]S(=O)(=O)c1ccc([O-])c([N-]S(=O)(=O)c2ccc(N)cc2)c1 (3D coordinates assigned)
COc1ccccc1[N-]S(=O)(=O)c1ccc([O-])c([N-]S(=O)(=O)c2ccc(N)cc2)c1 (optimized conformer: 51.82328757568275 kcal/mol)

>  <smiles>  (8) 
COc1ccccc1NS(=O)(=O)c1ccc(O)c(NS(=O)(=O)c2ccc(N)cc2)c1

>  <score_type>  (8) 
oracle

>  <origin>  (8) 
adgpu

>  <m_score__min__energy>  (8) 
-12.890000000000001

>  <m_primary>  (8) 
energy

$$$$
8:0
     RDKit          3D

 47 50  0  0  0  0  0  0  0  0999 V2000
   -4.5080   21.9500  -31.0420 O   0  0  0  0  0  0  0  0  0  0  0  0
   -3.2950   21.9740  -31.3790 C   0  0  0  0  0  0  0  0  0  0  0  0
   -2.4270   22.9400  -30.7670 N   0  0  0  0  0  0  0  0  0  0  0  0
   -2.7430   23.7630  -29.6020 C   0  0  0  0  0  0  0  0  0  0  0  0
   -4.0220   24.5120  -29.8110 C   0  0  0  0  0  0  0  0  0  0  0  0
   -5.2510   24.1800  -29.2780 C   0  0  0  0  0  0  0  0  0  0  0  0
   -6.1190   25.1600  -29.7090 C   0  0  0  0  0  0  0  0  0  0  0  0
   -5.3670   26.0270  -30.4770 C   0  0  0  0  0  0  0  0  0  0  0  0
   -4.1210   25.6140  -30.5190 O   0  0  0  0  0  0  0  0  0  0  0  0
   -2.8030   20.9810  -32.3520 C   0  0  0  0  0  0  0  0  0  0  0  0
   -1.5920   21.2030  -33.0220 C   0  0  0  0  0  0  0  0  0  0  0  0
   -1.1270   20.2770  -33.9580 C   0  0  0  0  0  0  0  0  0  0  0  0
   -1.8520   19.1090  -34.2100 C   0  0  0  0  0  0  0  0  0  0  0  0
   -3.0360   18.8490  -33.5060 C   0  0  0  0  0  0  0  0  0  0  0  0
   -3.9240   17.3420  -33.7640 S   0  0  0  0  0  0  0  0  0  0  0  0
   -3.0080   16.3740  -34.4610 O   0  0  0  0  0  0  0  0  0  0  0  0
   -4.2880   16.7490  -32.4310 O   0  0  0  0  0  0  0  0  0  0  0  0
   -5.3750   17.5350  -34.7350 N   0  0  0  0  0  0  0  0  0  0  0  0
   -6.4370   16.5670  -34.4190 C   0  0  0  0  0  0  0  0  0  0  0  0
   -7.0930   16.8160  -33.0540 C   0  0  0  0  0  0  0  0  0  0  0  0
   -7.2750   18.2780  -32.7410 C   0  0  0  0  0  0  0  0  0  0  0  0
   -7.9920   18.6450  -31.5920 C   0  0  0  0  0  0  0  0  0  0  0  0
   -8.1280   19.9900  -31.2420 C   0  0  0  0  0  0  0  0  0  0  0  0
   -7.5500   20.9810  -32.0360 C   0  0  0  0  0  0  0  0  0  0  0  0
   -6.8280   20.6300  -33.1780 C   0  0  0  0  0  0  0  0  0  0  0  0
   -6.6640   19.2780  -33.5260 C   0  0  0  0  0  0  0  0  0  0  0  0
   -5.8730   18.9210  -34.7600 C   0  0  0  0  0  0  0  0  0  0  0  0
   -3.5210   19.8000  -32.5960 C   0  0  0  0  0  0  0  0  0  0  0  0
   -2.8450   23.1145  -28.7194 H   0  0  0  0  0  0  0  0  0  0  0  0
   -1.9300   24.4887  -29.4522 H   0  0  0  0  0  0  0  0  0  0  0  0
   -5.4882   23.3143  -28.6422 H   0  0  0  0  0  0  0  0  0  0  0  0
   -7.1935   25.2361  -29.4863 H   0  0  0  0  0  0  0  0  0  0  0  0
   -5.7531   26.9271  -30.9777 H   0  0  0  0  0  0  0  0  0  0  0  0
   -1.0061   22.1095  -32.8098 H   0  0  0  0  0  0  0  0  0  0  0  0
   -0.1879   20.4672  -34.4983 H   0  0  0  0  0  0  0  0  0  0  0  0
   -1.4926   18.3919  -34.9627 H   0  0  0  0  0  0  0  0  0  0  0  0
   -7.2122   16.6316  -35.1968 H   0  0  0  0  0  0  0  0  0  0  0  0
   -5.9720   15.5708  -34.3822 H   0  0  0  0  0  0  0  0  0  0  0  0
   -8.0805   16.3314  -33.0471 H   0  0  0  0  0  0  0  0  0  0  0  0
   -6.4226   16.3988  -32.2882 H   0  0  0  0  0  0  0  0  0  0  0  0
   -8.4501   17.8678  -30.9626 H   0  0  0  0  0  0  0  0  0  0  0  0
   -8.6915   20.2685  -30.3393 H   0  0  0  0  0  0  0  0  0  0  0  0
   -7.6634   22.0402  -31.7618 H   0  0  0  0  0  0  0  0  0  0  0  0
   -6.3853   21.4151  -33.8086 H   0  0  0  0  0  0  0  0  0  0  0  0
   -6.5196   19.0467  -35.6410 H   0  0  0  0  0  0  0  0  0  0  0  0
   -4.9987   19.5874  -34.7984 H   0  0  0  0  0  0  0  0  0  0  0  0
   -4.4701   19.6190  -32.0703 H   0  0  0  0  0  0  0  0  0  0  0  0
  1  2  2  0
  2  3  1  0
  3  4  1  0
  4  5  1  0
  5  6  2  0
  6  7  1  0
  7  8  2  0
  8  9  1  0
  2 10  1  0
 10 11  2  0
 11 12  1  0
 12 13  2  0
 13 14  1  0
 14 15  1  0
 15 16  2  0
 15 17  2  0
 15 18  1  0
 18 19  1  0
 19 20  1  0
 20 21  1  0
 21 22  2  0
 22 23  1  0
 23 24  2  0
 24 25  1  0
 25 26  2  0
 26 27  1  0
 14 28  2  0
  9  5  1  0
 28 10  1  0
 27 18  1  0
 26 21  1  0
  4 29  1  0
  4 30  1  0
  6 31  1  0
  7 32  1  0
  8 33  1  0
 11 34  1  0
 12 35  1  0
 13 36  1  0
 19 37  1  0
 19 38  1  0
 20 39  1  0
 20 40  1  0
 22 41  1  0
 23 42  1  0
 24 43  1  0
 25 44  1  0
 27 45  1  0
 27 46  1  0
 28 47  1  0
M  CHG  1   3  -1
M  END
>  <UniqueID>  (9) 
9

>  <SMILES>  (9) 
O=C([N-]Cc1ccco1)c1cccc(S(=O)(=O)N2CCc3ccccc3C2)c1

>  <Energy>  (9) 
80.8664947189425

>  <Genealogy>  (9) 
O=C([N-]Cc1ccco1)c1cccc(S(=O)(=O)N2CCc3ccccc3C2)c1 (protonated)
O=C([N-]Cc1ccco1)c1cccc(S(=O)(=O)N2CCc3ccccc3C2)c1 (3D coordinates assigned)
O=C([N-]Cc1ccco1)c1cccc(S(=O)(=O)N2CCc3ccccc3C2)c1 (nonaromatic ring conformer: 80.8664947189425 kcal/mol)

>  <smiles>  (9) 
O=C(NCc1ccco1)c1cccc(S(=O)(=O)N2CCc3ccccc3C2)c1

>  <score_type>  (9) 
oracle

>  <origin>  (9) 
adgpu

>  <m_score__min__energy>  (9) 
-11.74

>  <m_primary>  (9) 
energy

$$$$
9:0
     RDKit          3D

 58 62  0  0  0  0  0  0  0  0999 V2000
   -9.4410   18.7310  -31.6630 O   0  0  0  0  0  0  0  0  0  0  0  0
   -8.5430   19.4670  -32.1490 C   0  0  0  0  0  0  0  0  0  0  0  0
   -8.8180   20.8690  -32.3250 N   0  0  0  0  0  0  0  0  0  0  0  0
   -8.0260   21.9400  -31.7850 C   0  0  0  0  0  0  0  0  0  0  0  0
   -7.1600   22.6400  -32.6350 C   0  0  0  0  0  0  0  0  0  0  0  0
   -6.2840   23.6010  -32.1120 C   0  0  0  0  0  0  0  0  0  0  0  0
   -6.2800   23.8790  -30.7300 C   0  0  0  0  0  0  0  0  0  0  0  0
   -5.1190   25.0110  -30.0370 S   0  0  0  0  0  0  0  0  0  0  0  0
   -5.2100   24.9160  -28.5330 O   0  0  0  0  0  0  0  0  0  0  0  0
   -5.4350   26.4290  -30.4450 O   0  0  0  0  0  0  0  0  0  0  0  0
   -3.4920   24.6360  -30.5150 N   0  0  0  0  0  0  0  0  0  0  0  0
   -2.8630   23.3550  -30.3810 C   0  0  0  0  0  0  0  0  0  0  0  0
   -1.6170   23.2730  -29.7160 C   0  0  0  0  0  0  0  0  0  0  0  0
   -0.9940   22.0360  -29.5320 C   0  0  0  0  0  0  0  0  0  0  0  0
   -1.6210   20.8690  -29.9910 C   0  0  0  0  0  0  0  0  0  0  0  0
   -2.8690   20.9400  -30.6380 C   0  0  0  0  0  0  0  0  0  0  0  0
   -3.4880   22.1750  -30.8390 C   0  0  0  0  0  0  0  0  0  0  0  0
   -7.1940   23.2270  -29.8880 C   0  0  0  0  0  0  0  0  0  0  0  0
   -8.0700   22.2710  -30.4140 C   0  0  0  0  0  0  0  0  0  0  0  0
   -7.2480   18.8650  -32.5540 C   0  0  0  0  0  0  0  0  0  0  0  0
   -6.5230   19.4160  -33.6310 C   0  0  0  0  0  0  0  0  0  0  0  0
   -5.3470   18.7960  -34.0740 C   0  0  0  0  0  0  0  0  0  0  0  0
   -4.8890   17.6170  -33.4560 C   0  0  0  0  0  0  0  0  0  0  0  0
   -3.4210   16.8170  -34.0150 S   0  0  0  0  0  0  0  0  0  0  0  0
   -3.2430   17.0460  -35.4940 O   0  0  0  0  0  0  0  0  0  0  0  0
   -3.5170   15.3340  -33.7800 O   0  0  0  0  0  0  0  0  0  0  0  0
   -2.0530   17.4750  -33.1740 N   0  0  0  0  0  0  0  0  0  0  0  0
   -0.9660   16.6230  -32.6860 C   0  0  0  0  0  0  0  0  0  0  0  0
    0.2010   17.5740  -32.3480 C   0  0  0  0  0  0  0  0  0  0  0  0
   -0.2840   18.8970  -32.8230 C   0  0  0  0  0  0  0  0  0  0  0  0
    0.4180   20.0960  -32.8770 C   0  0  0  0  0  0  0  0  0  0  0  0
   -0.2350   21.2290  -33.3920 C   0  0  0  0  0  0  0  0  0  0  0  0
   -1.5650   21.1390  -33.8410 C   0  0  0  0  0  0  0  0  0  0  0  0
   -2.2500   19.9230  -33.7780 C   0  0  0  0  0  0  0  0  0  0  0  0
   -1.5740   18.8060  -33.2740 C   0  0  0  0  0  0  0  0  0  0  0  0
   -5.5880   17.0900  -32.3590 C   0  0  0  0  0  0  0  0  0  0  0  0
   -6.7500   17.7170  -31.9040 C   0  0  0  0  0  0  0  0  0  0  0  0
   -7.1675   22.4349  -33.7157 H   0  0  0  0  0  0  0  0  0  0  0  0
   -5.5977   24.1398  -32.7818 H   0  0  0  0  0  0  0  0  0  0  0  0
   -1.1358   24.1886  -29.3416 H   0  0  0  0  0  0  0  0  0  0  0  0
   -0.0170   21.9780  -29.0298 H   0  0  0  0  0  0  0  0  0  0  0  0
   -1.1352   19.8930  -29.8447 H   0  0  0  0  0  0  0  0  0  0  0  0
   -3.3585   20.0187  -30.9866 H   0  0  0  0  0  0  0  0  0  0  0  0
   -4.4593   22.2285  -31.3525 H   0  0  0  0  0  0  0  0  0  0  0  0
   -7.2218   23.4674  -28.8149 H   0  0  0  0  0  0  0  0  0  0  0  0
   -8.7973   21.7745  -29.7548 H   0  0  0  0  0  0  0  0  0  0  0  0
   -6.8807   20.3324  -34.1232 H   0  0  0  0  0  0  0  0  0  0  0  0
   -4.7790   19.2327  -34.9087 H   0  0  0  0  0  0  0  0  0  0  0  0
   -1.2845   16.0744  -31.7873 H   0  0  0  0  0  0  0  0  0  0  0  0
   -0.6718   15.8755  -33.4374 H   0  0  0  0  0  0  0  0  0  0  0  0
    0.3939   17.5911  -31.2652 H   0  0  0  0  0  0  0  0  0  0  0  0
    1.1502   17.2718  -32.8145 H   0  0  0  0  0  0  0  0  0  0  0  0
    1.4585   20.1563  -32.5254 H   0  0  0  0  0  0  0  0  0  0  0  0
    0.2965   22.1907  -33.4442 H   0  0  0  0  0  0  0  0  0  0  0  0
   -2.0682   22.0304  -34.2437 H   0  0  0  0  0  0  0  0  0  0  0  0
   -3.2939   19.8455  -34.1159 H   0  0  0  0  0  0  0  0  0  0  0  0
   -5.2204   16.1827  -31.8573 H   0  0  0  0  0  0  0  0  0  0  0  0
   -7.2817   17.3116  -31.0305 H   0  0  0  0  0  0  0  0  0  0  0  0
  1  2  2  0
  2  3  1  0
  3  4  1  0
  4  5  2  0
  5  6  1  0
  6  7  2  0
  7  8  1  0
  8  9  2  0
  8 10  2  0
  8 11  1  0
 11 12  1  0
 12 13  2  0
 13 14  1  0
 14 15  2  0
 15 16  1  0
 16 17  2  0
  7 18  1  0
 18 19  2  0
  2 20  1  0
 20 21  2  0
 21 22  1  0
 22 23  2  0
 23 24  1  0
 24 25  2  0
 24 26  2  0
 24 27  1  0
 27 28  1  0
 28 29  1  0
 29 30  1  0
 30 31  2  0
 31 32  1  0
 32 33  2  0
 33 34  1  0
 34 35  2  0
 23 36  1  0
 36 37  2  0
 19  4  1  0
 37 20  1  0
 17 12  1  0
 35 27  1  0
 35 30  1  0
  5 38  1  0
  6 39  1  0
 13 40  1  0
 14 41  1  0
 15 42  1  0
 16 43  1  0
 17 44  1  0
 18 45  1  0
 19 46  1  0
 21 47  1  0
 22 48  1  0
 28 49  1  0
 28 50  1  0
 29 51  1  0
 29 52  1  0
 31 53  1  0
 32 54  1  0
 33 55  1  0
 34 56  1  0
 36 57  1  0
 37 58  1  0
M  CHG  2   3  -1  11  -1
M  END
>  <UniqueID>  (10) 
10

>  <SMILES>  (10) 
O=C([N-]c1ccc(S(=O)(=O)[N-]c2ccccc2)cc1)c1ccc(S(=O)(=O)N2CCc3ccccc32)cc1

>  <Energy>  (10) 
92.96354933117239

>  <Genealogy>  (10) 
O=C([N-]c1ccc(S(=O)(=O)[N-]c2ccccc2)cc1)c1ccc(S(=O)(=O)N2CCc3ccccc32)cc1 (protonated)
O=C([N-]c1ccc(S(=O)(=O)[N-]c2ccccc2)cc1)c1ccc(S(=O)(=O)N2CCc3ccccc32)cc1 (3D coordinates assigned)
O=C([N-]c1ccc(S(=O)(=O)[N-]c2ccccc2)cc1)c1ccc(S(=O)(=O)N2CCc3ccccc32)cc1 (nonaromatic ring conformer: 92.96354933117239 kcal/mol)

>  <smiles>  (10) 
O=C(Nc1ccc(S(=O)(=O)Nc2ccccc2)cc1)c1ccc(S(=O)(=O)N2CCc3ccccc32)cc1

>  <score_type>  (10) 
oracle

>  <origin>  (10) 
adgpu

>  <m_score__min__energy>  (10) 
-12.949999999999999

>  <m_primary>  (10) 
energy

$$$$
10:0
     RDKit          3D

 37 39  0  0  0  0  0  0  0  0999 V2000
   -9.7210   22.0620  -32.3390 O   0  0  0  0  0  0  0  0  0  0  0  0
   -8.6210   21.1570  -31.8630 S   0  0  0  0  0  0  0  0  0  0  0  0
   -9.0930   20.4090  -30.6480 O   0  0  0  0  0  0  0  0  0  0  0  0
   -8.2340   20.0180  -33.1150 N   0  0  0  0  0  0  0  0  0  0  0  0
   -7.1900   19.0340  -33.0110 C   0  0  0  0  0  0  0  0  0  0  0  0
   -6.1830   18.9990  -33.9900 C   0  0  0  0  0  0  0  0  0  0  0  0
   -5.1490   18.0610  -33.9140 C   0  0  0  0  0  0  0  0  0  0  0  0
   -5.1130   17.1450  -32.8610 C   0  0  0  0  0  0  0  0  0  0  0  0
   -6.1110   17.1630  -31.8850 C   0  0  0  0  0  0  0  0  0  0  0  0
   -7.1470   18.0990  -31.9570 C   0  0  0  0  0  0  0  0  0  0  0  0
   -7.2080   22.1360  -31.4810 C   0  0  0  0  0  0  0  0  0  0  0  0
   -6.0000   21.9220  -32.1510 C   0  0  0  0  0  0  0  0  0  0  0  0
   -4.8790   22.6890  -31.8300 C   0  0  0  0  0  0  0  0  0  0  0  0
   -4.9750   23.6660  -30.8250 C   0  0  0  0  0  0  0  0  0  0  0  0
   -3.8840   24.4720  -30.4710 O   0  0  0  0  0  0  0  0  0  0  0  0
   -3.3260   24.5640  -29.1870 C   0  0  0  0  0  0  0  0  0  0  0  0
   -1.9390   24.6970  -28.9850 C   0  0  0  0  0  0  0  0  0  0  0  0
   -1.4210   24.7680  -27.6880 C   0  0  0  0  0  0  0  0  0  0  0  0
   -2.2770   24.6940  -26.5870 C   0  0  0  0  0  0  0  0  0  0  0  0
   -3.6530   24.5420  -26.7800 C   0  0  0  0  0  0  0  0  0  0  0  0
   -4.1740   24.4710  -28.0760 C   0  0  0  0  0  0  0  0  0  0  0  0
   -6.1690   23.8720  -30.2070 N   0  0  0  0  0  0  0  0  0  0  0  0
   -7.2740   23.1370  -30.5050 C   0  0  0  0  0  0  0  0  0  0  0  0
   -8.7480   20.1190  -34.0180 H   0  0  0  0  0  0  0  0  0  0  0  0
   -6.2083   19.7160  -34.8238 H   0  0  0  0  0  0  0  0  0  0  0  0
   -4.3637   18.0447  -34.6841 H   0  0  0  0  0  0  0  0  0  0  0  0
   -4.2979   16.4088  -32.8004 H   0  0  0  0  0  0  0  0  0  0  0  0
   -6.0822   16.4390  -31.0573 H   0  0  0  0  0  0  0  0  0  0  0  0
   -7.9327   18.1058  -31.1871 H   0  0  0  0  0  0  0  0  0  0  0  0
   -5.9329   21.1493  -32.9310 H   0  0  0  0  0  0  0  0  0  0  0  0
   -3.9281   22.5298  -32.3596 H   0  0  0  0  0  0  0  0  0  0  0  0
   -1.2609   24.7452  -29.8498 H   0  0  0  0  0  0  0  0  0  0  0  0
   -0.3377   24.8823  -27.5347 H   0  0  0  0  0  0  0  0  0  0  0  0
   -1.8682   24.7554  -25.5676 H   0  0  0  0  0  0  0  0  0  0  0  0
   -4.3262   24.4782  -25.9124 H   0  0  0  0  0  0  0  0  0  0  0  0
   -5.2563   24.3413  -28.2237 H   0  0  0  0  0  0  0  0  0  0  0  0
   -8.2204   23.3295  -29.9784 H   0  0  0  0  0  0  0  0  0  0  0  0
  1  2  2  0
  2  3  2  0
  2  4  1  0
  4  5  1  0
  5  6  2  0
  6  7  1  0
  7  8  2  0
  8  9  1  0
  9 10  2  0
  2 11  1  0
 11 12  2  0
 12 13  1  0
 13 14  2  0
 14 15  1  0
 15 16  1  0
 16 17  2  0
 17 18  1  0
 18 19  2  0
 19 20  1  0
 20 21  2  0
 14 22  1  0
 22 23  2  0
 10  5  1  0
 23 11  1  0
 21 16  1  0
  4 24  1  0
  6 25  1  0
  7 26  1  0
  8 27  1  0
  9 28  1  0
 10 29  1  0
 12 30  1  0
 13 31  1  0
 17 32  1  0
 18 33  1  0
 19 34  1  0
 20 35  1  0
 21 36  1  0
 23 37  1  0
M  END
>  <UniqueID>  (11) 
11

>  <SMILES>  (11) 
O=S(=O)(Nc1ccccc1)c1ccc(Oc2ccccc2)nc1

>  <Energy>  (11) 
49.78334375359964

>  <Genealogy>  (11) 
O=S(=O)(Nc1ccccc1)c1ccc(Oc2ccccc2)nc1 (3D coordinates assigned)
O=S(=O)(Nc1ccccc1)c1ccc(Oc2ccccc2)nc1 (optimized conformer: 49.78334375359964 kcal/mol)

>  <smiles>  (11) 
O=S(=O)(Nc1ccccc1)c1ccc(Oc2ccccc2)nc1

>  <score_type>  (11) 
oracle

>  <origin>  (11) 
adgpu

>  <m_score__min__energy>  (11) 
-9

>  <m_primary>  (11) 
energy

$$$$
11:0
     RDKit          3D

 45 47  0  0  0  0  0  0  0  0999 V2000
    1.9800   18.0510  -30.5780 C   0  0  0  0  0  0  0  0  0  0  0  0
    0.8990   18.4600  -29.6230 C   0  0  0  0  0  0  0  0  0  0  0  0
    0.7600   17.7990  -28.3920 C   0  0  0  0  0  0  0  0  0  0  0  0
   -0.2720   18.1500  -27.5190 C   0  0  0  0  0  0  0  0  0  0  0  0
   -1.1790   19.1670  -27.8630 C   0  0  0  0  0  0  0  0  0  0  0  0
   -2.4740   19.6310  -26.7560 S   0  0  0  0  0  0  0  0  0  0  0  0
   -1.9100   20.0830  -25.4380 O   0  0  0  0  0  0  0  0  0  0  0  0
   -3.3460   18.4360  -26.4900 O   0  0  0  0  0  0  0  0  0  0  0  0
   -3.4580   20.8700  -27.4720 N   0  0  0  0  0  0  0  0  0  0  0  0
   -3.0280   22.1500  -27.9580 C   0  0  0  0  0  0  0  0  0  0  0  0
   -1.7790   22.6300  -27.5440 C   0  0  0  0  0  0  0  0  0  0  0  0
   -1.3040   23.8610  -28.0030 C   0  0  0  0  0  0  0  0  0  0  0  0
   -2.0710   24.6260  -28.8850 C   0  0  0  0  0  0  0  0  0  0  0  0
   -1.5850   25.8460  -29.3400 O   0  0  0  0  0  0  0  0  0  0  0  0
   -3.3230   24.1580  -29.3060 C   0  0  0  0  0  0  0  0  0  0  0  0
   -4.3220   25.1120  -30.4550 S   0  0  0  0  0  0  0  0  0  0  0  0
   -5.0380   23.6390  -31.1830 C   0  0  0  0  0  0  0  0  0  0  0  0
   -6.4060   23.3830  -31.0560 C   0  0  0  0  0  0  0  0  0  0  0  0
   -6.9500   22.2140  -31.6080 C   0  0  0  0  0  0  0  0  0  0  0  0
   -8.4190   21.9350  -31.4590 C   0  0  0  0  0  0  0  0  0  0  0  0
   -6.1040   21.3180  -32.2980 C   0  0  0  0  0  0  0  0  0  0  0  0
   -6.8110   19.6990  -33.0690 Br  0  0  0  0  0  0  0  0  0  0  0  0
   -4.7290   21.6210  -32.4080 C   0  0  0  0  0  0  0  0  0  0  0  0
   -3.7800   20.7090  -33.1280 C   0  0  0  0  0  0  0  0  0  0  0  0
   -4.2420   22.7640  -31.8510 N   0  0  0  0  0  0  0  0  0  0  0  0
   -3.8000   22.9270  -28.8390 C   0  0  0  0  0  0  0  0  0  0  0  0
   -1.0490   19.8160  -29.1020 C   0  0  0  0  0  0  0  0  0  0  0  0
   -0.0240   19.4550  -29.9820 C   0  0  0  0  0  0  0  0  0  0  0  0
    2.8622   17.7172  -30.0121 H   0  0  0  0  0  0  0  0  0  0  0  0
    1.6176   17.2278  -31.2113 H   0  0  0  0  0  0  0  0  0  0  0  0
    2.2533   18.9079  -31.2113 H   0  0  0  0  0  0  0  0  0  0  0  0
    1.4660   17.0024  -28.1145 H   0  0  0  0  0  0  0  0  0  0  0  0
   -0.3756   17.6275  -26.5566 H   0  0  0  0  0  0  0  0  0  0  0  0
   -1.1672   22.0329  -26.8519 H   0  0  0  0  0  0  0  0  0  0  0  0
   -0.3228   24.2291  -27.6688 H   0  0  0  0  0  0  0  0  0  0  0  0
   -7.0539   24.0959  -30.5249 H   0  0  0  0  0  0  0  0  0  0  0  0
   -8.6764   21.8861  -30.3907 H   0  0  0  0  0  0  0  0  0  0  0  0
   -8.9956   22.7397  -31.9386 H   0  0  0  0  0  0  0  0  0  0  0  0
   -8.6604   20.9750  -31.9386 H   0  0  0  0  0  0  0  0  0  0  0  0
   -3.1892   20.1412  -32.3941 H   0  0  0  0  0  0  0  0  0  0  0  0
   -4.3498   20.0110  -33.7589 H   0  0  0  0  0  0  0  0  0  0  0  0
   -3.1052   21.3061  -33.7589 H   0  0  0  0  0  0  0  0  0  0  0  0
   -4.7866   22.5652  -29.1642 H   0  0  0  0  0  0  0  0  0  0  0  0
   -1.7561   20.6111  -29.3810 H   0  0  0  0  0  0  0  0  0  0  0  0
    0.0594   19.9526  -30.9594 H   0  0  0  0  0  0  0  0  0  0  0  0
  1  2  1  0
  2  3  2  0
  3  4  1  0
  4  5  2  0
  5  6  1  0
  6  7  2  0
  6  8  2  0
  6  9  1  0
  9 10  1  0
 10 11  2  0
 11 12  1  0
 12 13  2  0
 13 14  1  0
 13 15  1  0
 15 16  1  0
 16 17  1  0
 17 18  2  0
 18 19  1  0
 19 20  1  0
 19 21  2  0
 21 22  1  0
 21 23  1  0
 23 24  1  0
 23 25  2  0
 15 26  2  0
  5 27  1  0
 27 28  2  0
 28  2  1  0
 26 10  1  0
 25 17  1  0
  1 29  1  0
  1 30  1  0
  1 31  1  0
  3 32  1  0
  4 33  1  0
 11 34  1  0
 12 35  1  0
 18 36  1  0
 20 37  1  0
 20 38  1  0
 20 39  1  0
 24 40  1  0
 24 41  1  0
 24 42  1  0
 26 43  1  0
 27 44  1  0
 28 45  1  0
M  CHG  2   9  -1  14  -1
M  END
>  <UniqueID>  (12) 
12

>  <SMILES>  (12) 
Cc1ccc(S(=O)(=O)[N-]c2ccc([O-])c(Sc3cc(C)c(Br)c(C)n3)c2)cc1

>  <Energy>  (12) 
48.25594975446753

>  <Genealogy>  (12) 
Cc1ccc(S(=O)(=O)[N-]c2ccc([O-])c(Sc3cc(C)c(Br)c(C)n3)c2)cc1 (protonated)
Cc1ccc(S(=O)(=O)[N-]c2ccc([O-])c(Sc3cc(C)c(Br)c(C)n3)c2)cc1 (3D coordinates assigned)
Cc1ccc(S(=O)(=O)[N-]c2ccc([O-])c(Sc3cc(C)c(Br)c(C)n3)c2)cc1 (optimized conformer: 48.25594975446753 kcal/mol)

>  <smiles>  (12) 
Cc1ccc(S(=O)(=O)Nc2ccc(O)c(Sc3cc(C)c(Br)c(C)n3)c2)cc1

>  <score_type>  (12) 
oracle

>  <origin>  (12) 
adgpu

>  <m_score__min__energy>  (12) 
-13.23

>  <m_primary>  (12) 
energy

$$$$
12:0
     RDKit          3D

 46 48  0  0  0  0  0  0  0  0999 V2000
   -6.8960   16.3860  -33.5230 C   0  0  0  0  0  0  0  0  0  0  0  0
   -7.1420   17.8090  -33.0950 C   0  0  0  0  0  0  0  0  0  0  0  0
   -8.1860   18.0830  -32.1950 C   0  0  0  0  0  0  0  0  0  0  0  0
   -8.4440   19.3920  -31.7850 C   0  0  0  0  0  0  0  0  0  0  0  0
   -7.6730   20.4500  -32.2790 C   0  0  0  0  0  0  0  0  0  0  0  0
   -8.0040   22.1110  -31.7900 S   0  0  0  0  0  0  0  0  0  0  0  0
   -8.0710   22.1670  -30.2880 O   0  0  0  0  0  0  0  0  0  0  0  0
   -9.3140   22.5900  -32.3480 O   0  0  0  0  0  0  0  0  0  0  0  0
   -6.7290   23.1500  -32.3440 N   0  0  0  0  0  0  0  0  0  0  0  0
   -5.5560   23.4550  -31.5710 C   0  0  0  0  0  0  0  0  0  0  0  0
   -4.5170   22.5150  -31.5020 C   0  0  0  0  0  0  0  0  0  0  0  0
   -3.3570   22.7890  -30.7720 C   0  0  0  0  0  0  0  0  0  0  0  0
   -3.2100   24.0150  -30.1040 C   0  0  0  0  0  0  0  0  0  0  0  0
   -1.9720   24.3100  -29.3470 C   0  0  0  0  0  0  0  0  0  0  0  0
   -1.2200   23.3620  -28.9960 O   0  0  0  0  0  0  0  0  0  0  0  0
   -1.6280   25.6460  -28.9530 N   0  0  0  0  0  0  0  0  0  0  0  0
   -1.3590   26.0820  -27.6120 C   0  0  0  0  0  0  0  0  0  0  0  0
   -1.8690   25.3410  -26.5390 C   0  0  0  0  0  0  0  0  0  0  0  0
   -1.6220   25.7420  -25.2230 C   0  0  0  0  0  0  0  0  0  0  0  0
   -0.8470   26.8790  -24.9700 C   0  0  0  0  0  0  0  0  0  0  0  0
   -0.3090   27.6070  -26.0350 C   0  0  0  0  0  0  0  0  0  0  0  0
    0.6990   29.0060  -25.7220 Cl  0  0  0  0  0  0  0  0  0  0  0  0
   -0.5590   27.2090  -27.3530 C   0  0  0  0  0  0  0  0  0  0  0  0
   -4.2610   24.9440  -30.1480 C   0  0  0  0  0  0  0  0  0  0  0  0
   -5.4230   24.6670  -30.8710 C   0  0  0  0  0  0  0  0  0  0  0  0
   -6.6410   20.1910  -33.1870 C   0  0  0  0  0  0  0  0  0  0  0  0
   -6.3690   18.8790  -33.6100 C   0  0  0  0  0  0  0  0  0  0  0  0
   -5.2230   18.6370  -34.5570 C   0  0  0  0  0  0  0  0  0  0  0  0
   -6.7859   15.7492  -32.6328 H   0  0  0  0  0  0  0  0  0  0  0  0
   -7.7462   16.0318  -34.1244 H   0  0  0  0  0  0  0  0  0  0  0  0
   -5.9762   16.3378  -34.1244 H   0  0  0  0  0  0  0  0  0  0  0  0
   -8.8050   17.2590  -31.8105 H   0  0  0  0  0  0  0  0  0  0  0  0
   -9.2564   19.5926  -31.0710 H   0  0  0  0  0  0  0  0  0  0  0  0
   -6.8910   23.6570  -33.2420 H   0  0  0  0  0  0  0  0  0  0  0  0
   -4.6161   21.5536  -32.0272 H   0  0  0  0  0  0  0  0  0  0  0  0
   -2.5539   22.0390  -30.7205 H   0  0  0  0  0  0  0  0  0  0  0  0
   -2.4672   24.4385  -26.7327 H   0  0  0  0  0  0  0  0  0  0  0  0
   -2.0375   25.1629  -24.3852 H   0  0  0  0  0  0  0  0  0  0  0  0
   -0.6613   27.1996  -23.9343 H   0  0  0  0  0  0  0  0  0  0  0  0
   -0.1284   27.7795  -28.1891 H   0  0  0  0  0  0  0  0  0  0  0  0
   -4.1686   25.8982  -29.6085 H   0  0  0  0  0  0  0  0  0  0  0  0
   -6.2405   25.4026  -30.8931 H   0  0  0  0  0  0  0  0  0  0  0  0
   -6.0356   21.0238  -33.5742 H   0  0  0  0  0  0  0  0  0  0  0  0
   -4.3060   18.4434  -33.9811 H   0  0  0  0  0  0  0  0  0  0  0  0
   -5.4486   17.7667  -35.1908 H   0  0  0  0  0  0  0  0  0  0  0  0
   -5.0774   19.5242  -35.1908 H   0  0  0  0  0  0  0  0  0  0  0  0
  1  2  1  0
  2  3  2  0
  3  4  1  0
  4  5  2  0
  5  6  1  0
  6  7  2  0
  6  8  2  0
  6  9  1  0
  9 10  1  0
 10 11  2  0
 11 12  1  0
 12 13  2  0
 13 14  1  0
 14 15  2  0
 14 16  1  0
 16 17  1  0
 17 18  2  0
 18 19  1  0
 19 20  2  0
 20 21  1  0
 21 22  1  0
 21 23  2  0
 13 24  1  0
 24 25  2  0
  5 26  1  0
 26 27  2  0
 27 28  1  0
 27  2  1  0
 25 10  1  0
 23 17  1  0
  1 29  1  0
  1 30  1  0
  1 31  1  0
  3 32  1  0
  4 33  1  0
  9 34  1  0
 11 35  1  0
 12 36  1  0
 18 37  1  0
 19 38  1  0
 20 39  1  0
 23 40  1  0
 24 41  1  0
 25 42  1  0
 26 43  1  0
 28 44  1  0
 28 45  1  0
 28 46  1  0
M  CHG  1  16  -1
M  END
>  <UniqueID>  (13) 
13

>  <SMILES>  (13) 
Cc1ccc(S(=O)(=O)Nc2ccc(C(=O)[N-]c3cccc(Cl)c3)cc2)cc1C

>  <Energy>  (13) 
55.62455469526629

>  <Genealogy>  (13) 
Cc1ccc(S(=O)(=O)Nc2ccc(C(=O)[N-]c3cccc(Cl)c3)cc2)cc1C (protonated)
Cc1ccc(S(=O)(=O)Nc2ccc(C(=O)[N-]c3cccc(Cl)c3)cc2)cc1C (3D coordinates assigned)
Cc1ccc(S(=O)(=O)Nc2ccc(C(=O)[N-]c3cccc(Cl)c3)cc2)cc1C (optimized conformer: 55.62455469526629 kcal/mol)

>  <smiles>  (13) 
Cc1ccc(S(=O)(=O)Nc2ccc(C(=O)Nc3cccc(Cl)c3)cc2)cc1C

>  <score_type>  (13) 
oracle

>  <origin>  (13) 
adgpu

>  <m_score__min__energy>  (13) 
-11.75

>  <m_primary>  (13) 
energy

$$$$
13:0
     RDKit          3D

 21 21  0  0  0  0  0  0  0  0999 V2000
   -6.3530   25.6970  -29.1820 C   0  0  0  0  0  0  0  0  0  0  0  0
   -6.1380   25.3260  -30.6460 C   0  0  0  0  0  0  0  0  0  0  0  0
   -4.7970   24.6690  -30.8380 C   0  0  0  0  0  0  0  0  0  0  0  0
   -4.7040   23.6920  -31.6270 O   0  0  0  0  0  0  0  0  0  0  0  0
   -3.6020   25.1980  -30.2490 N   0  0  0  0  0  0  0  0  0  0  0  0
   -2.7430   24.5080  -29.3330 C   0  0  0  0  0  0  0  0  0  0  0  0
   -3.0290   23.1960  -28.9200 C   0  0  0  0  0  0  0  0  0  0  0  0
   -2.1620   22.5260  -28.0510 C   0  0  0  0  0  0  0  0  0  0  0  0
   -2.5300   20.8910  -27.5310 Cl  0  0  0  0  0  0  0  0  0  0  0  0
   -0.9950   23.1540  -27.6070 C   0  0  0  0  0  0  0  0  0  0  0  0
   -0.6880   24.4460  -28.0400 C   0  0  0  0  0  0  0  0  0  0  0  0
   -1.5540   25.1200  -28.9070 C   0  0  0  0  0  0  0  0  0  0  0  0
   -1.2350   26.4030  -29.3380 O   0  0  0  0  0  0  0  0  0  0  0  0
   -5.9056   24.9250  -28.5386 H   0  0  0  0  0  0  0  0  0  0  0  0
   -5.8771   26.6671  -28.9759 H   0  0  0  0  0  0  0  0  0  0  0  0
   -7.4313   25.7664  -28.9759 H   0  0  0  0  0  0  0  0  0  0  0  0
   -6.9293   24.6303  -30.9620 H   0  0  0  0  0  0  0  0  0  0  0  0
   -6.1718   26.2437  -31.2516 H   0  0  0  0  0  0  0  0  0  0  0  0
   -3.9384   22.6938  -29.2816 H   0  0  0  0  0  0  0  0  0  0  0  0
   -0.3178   22.6304  -26.9161 H   0  0  0  0  0  0  0  0  0  0  0  0
    0.2366   24.9343  -27.6984 H   0  0  0  0  0  0  0  0  0  0  0  0
  1  2  1  0
  2  3  1  0
  3  4  2  0
  3  5  1  0
  5  6  1  0
  6  7  2  0
  7  8  1  0
  8  9  1  0
  8 10  2  0
 10 11  1  0
 11 12  2  0
 12 13  1  0
 12  6  1  0
  1 14  1  0
  1 15  1  0
  1 16  1  0
  2 17  1  0
  2 18  1  0
  7 19  1  0
 10 20  1  0
 11 21  1  0
M  CHG  2   5  -1  13  -1
M  END
>  <UniqueID>  (14) 
14

>  <SMILES>  (14) 
CCC(=O)[N-]c1cc(Cl)ccc1[O-]

>  <Energy>  (14) 
21.487686951677073

>  <Genealogy>  (14) 
CCC(=O)[N-]c1cc(Cl)ccc1[O-] (protonated)
CCC(=O)[N-]c1cc(Cl)ccc1[O-] (3D coordinates assigned)
CCC(=O)[N-]c1cc(Cl)ccc1[O-] (optimized conformer: 21.487686951677073 kcal/mol)

>  <smiles>  (14) 
CCC(=O)Nc1cc(Cl)ccc1O

>  <score_type>  (14) 
oracle

>  <origin>  (14) 
adgpu

>  <m_score__min__energy>  (14) 
-10.369999999999999

>  <m_primary>  (14) 
energy

$$$$
14:0
     RDKit          3D

 46 48  0  0  0  0  0  0  0  0999 V2000
   -0.0400   21.5550  -34.6440 C   0  0  0  0  0  0  0  0  0  0  0  0
   -1.0460   20.9360  -33.7040 C   0  0  0  0  0  0  0  0  0  0  0  0
   -1.7590   19.7880  -34.0870 C   0  0  0  0  0  0  0  0  0  0  0  0
   -2.7270   19.2300  -33.2280 C   0  0  0  0  0  0  0  0  0  0  0  0
   -3.4480   17.9710  -33.6200 C   0  0  0  0  0  0  0  0  0  0  0  0
   -2.9720   19.8210  -31.9790 C   0  0  0  0  0  0  0  0  0  0  0  0
   -2.2770   20.9810  -31.5990 C   0  0  0  0  0  0  0  0  0  0  0  0
   -2.6710   21.7950  -30.0870 S   0  0  0  0  0  0  0  0  0  0  0  0
   -2.8720   20.7880  -28.9880 O   0  0  0  0  0  0  0  0  0  0  0  0
   -1.5390   22.7080  -29.7080 O   0  0  0  0  0  0  0  0  0  0  0  0
   -4.1510   22.7130  -30.3230 C   0  0  0  0  0  0  0  0  0  0  0  0
   -4.1480   24.1100  -30.2730 C   0  0  0  0  0  0  0  0  0  0  0  0
   -5.3300   24.8280  -30.5170 C   0  0  0  0  0  0  0  0  0  0  0  0
   -5.3250   26.2590  -30.4780 N   0  0  0  0  0  0  0  0  0  0  0  0
   -6.5130   24.1380  -30.8190 C   0  0  0  0  0  0  0  0  0  0  0  0
   -6.5180   22.7410  -30.8700 C   0  0  0  0  0  0  0  0  0  0  0  0
   -7.9690   21.8520  -31.3220 S   0  0  0  0  0  0  0  0  0  0  0  0
   -8.8090   21.6090  -30.1020 O   0  0  0  0  0  0  0  0  0  0  0  0
   -8.7740   22.6310  -32.3200 O   0  0  0  0  0  0  0  0  0  0  0  0
   -7.4810   20.3250  -32.0550 C   0  0  0  0  0  0  0  0  0  0  0  0
   -6.6650   20.3160  -33.1990 C   0  0  0  0  0  0  0  0  0  0  0  0
   -6.3630   19.1010  -33.8260 C   0  0  0  0  0  0  0  0  0  0  0  0
   -6.8750   17.8900  -33.3190 C   0  0  0  0  0  0  0  0  0  0  0  0
   -6.4970   16.3660  -34.1050 Cl  0  0  0  0  0  0  0  0  0  0  0  0
   -7.6860   17.9020  -32.1830 C   0  0  0  0  0  0  0  0  0  0  0  0
   -7.9910   19.1150  -31.5540 C   0  0  0  0  0  0  0  0  0  0  0  0
   -5.3410   22.0360  -30.6000 C   0  0  0  0  0  0  0  0  0  0  0  0
   -1.3280   21.5410  -32.4680 C   0  0  0  0  0  0  0  0  0  0  0  0
    0.7544   22.0438  -34.0608 H   0  0  0  0  0  0  0  0  0  0  0  0
    0.4000   20.7712  -35.2781 H   0  0  0  0  0  0  0  0  0  0  0  0
   -0.5413   22.3011  -35.2781 H   0  0  0  0  0  0  0  0  0  0  0  0
   -1.5606   19.3217  -35.0633 H   0  0  0  0  0  0  0  0  0  0  0  0
   -3.7583   17.4291  -32.7144 H   0  0  0  0  0  0  0  0  0  0  0  0
   -4.3361   18.2275  -34.2162 H   0  0  0  0  0  0  0  0  0  0  0  0
   -2.7773   17.3349  -34.2162 H   0  0  0  0  0  0  0  0  0  0  0  0
   -3.7099   19.3749  -31.2960 H   0  0  0  0  0  0  0  0  0  0  0  0
   -3.2171   24.6485  -30.0419 H   0  0  0  0  0  0  0  0  0  0  0  0
   -5.3450   26.8110  -31.3640 H   0  0  0  0  0  0  0  0  0  0  0  0
   -5.3580   26.7740  -29.5670 H   0  0  0  0  0  0  0  0  0  0  0  0
   -7.4393   24.6975  -31.0162 H   0  0  0  0  0  0  0  0  0  0  0  0
   -6.2653   21.2591  -33.6001 H   0  0  0  0  0  0  0  0  0  0  0  0
   -5.7221   19.0918  -34.7199 H   0  0  0  0  0  0  0  0  0  0  0  0
   -8.0853   16.9587  -31.7821 H   0  0  0  0  0  0  0  0  0  0  0  0
   -8.6342   19.1211  -30.6616 H   0  0  0  0  0  0  0  0  0  0  0  0
   -5.3523   20.9361  -30.6058 H   0  0  0  0  0  0  0  0  0  0  0  0
   -0.8003   22.4618  -32.1787 H   0  0  0  0  0  0  0  0  0  0  0  0
  1  2  1  0
  2  3  2  0
  3  4  1  0
  4  5  1  0
  4  6  2  0
  6  7  1  0
  7  8  1  0
  8  9  2  0
  8 10  2  0
  8 11  1  0
 11 12  2  0
 12 13  1  0
 13 14  1  0
 13 15  2  0
 15 16  1  0
 16 17  1  0
 17 18  2  0
 17 19  2  0
 17 20  1  0
 20 21  2  0
 21 22  1  0
 22 23  2  0
 23 24  1  0
 23 25  1  0
 25 26  2  0
 16 27  2  0
  7 28  2  0
 28  2  1  0
 27 11  1  0
 26 20  1  0
  1 29  1  0
  1 30  1  0
  1 31  1  0
  3 32  1  0
  5 33  1  0
  5 34  1  0
  5 35  1  0
  6 36  1  0
 12 37  1  0
 14 38  1  0
 14 39  1  0
 15 40  1  0
 21 41  1  0
 22 42  1  0
 25 43  1  0
 26 44  1  0
 27 45  1  0
 28 46  1  0
M  END
>  <UniqueID>  (15) 
15

>  <SMILES>  (15) 
Cc1cc(C)cc(S(=O)(=O)c2cc(N)cc(S(=O)(=O)c3ccc(Cl)cc3)c2)c1

>  <Energy>  (15) 
46.151664213955804

>  <Genealogy>  (15) 
Cc1cc(C)cc(S(=O)(=O)c2cc(N)cc(S(=O)(=O)c3ccc(Cl)cc3)c2)c1 (3D coordinates assigned)
Cc1cc(C)cc(S(=O)(=O)c2cc(N)cc(S(=O)(=O)c3ccc(Cl)cc3)c2)c1 (optimized conformer: 46.151664213955804 kcal/mol)

>  <smiles>  (15) 
Cc1cc(C)cc(S(=O)(=O)c2cc(N)cc(S(=O)(=O)c3ccc(Cl)cc3)c2)c1

>  <score_type>  (15) 
oracle

>  <origin>  (15) 
adgpu

>  <m_score__min__energy>  (15) 
-10.529999999999999

>  <m_primary>  (15) 
energy

$$$$
15:0
     RDKit          3D

 39 42  0  0  0  0  0  0  0  0999 V2000
   -0.1330   25.7830  -24.0960 C   0  0  0  0  0  0  0  0  0  0  0  0
    0.1690   25.1210  -25.3200 O   0  0  0  0  0  0  0  0  0  0  0  0
   -0.7470   24.9320  -26.3650 C   0  0  0  0  0  0  0  0  0  0  0  0
   -0.3440   24.6090  -27.6740 C   0  0  0  0  0  0  0  0  0  0  0  0
   -1.2960   24.4310  -28.6820 C   0  0  0  0  0  0  0  0  0  0  0  0
   -2.6650   24.5720  -28.4000 C   0  0  0  0  0  0  0  0  0  0  0  0
   -3.6750   24.3840  -29.4600 C   0  0  0  0  0  0  0  0  0  0  0  0
   -4.5140   23.3330  -29.5320 N   0  0  0  0  0  0  0  0  0  0  0  0
   -5.2170   23.6210  -30.6480 C   0  0  0  0  0  0  0  0  0  0  0  0
   -6.2950   22.7650  -31.1880 C   0  0  0  0  0  0  0  0  0  0  0  0
   -7.6370   23.1650  -31.0890 C   0  0  0  0  0  0  0  0  0  0  0  0
   -8.6550   22.3550  -31.5950 C   0  0  0  0  0  0  0  0  0  0  0  0
   -8.3460   21.1380  -32.2070 C   0  0  0  0  0  0  0  0  0  0  0  0
   -7.0100   20.7160  -32.3200 C   0  0  0  0  0  0  0  0  0  0  0  0
   -6.6900   19.4590  -32.9530 N   0  0  0  0  0  0  0  0  0  0  0  0
   -7.1050   18.2340  -32.5650 C   0  0  0  0  0  0  0  0  0  0  0  0
   -6.5960   17.2730  -33.4130 C   0  0  0  0  0  0  0  0  0  0  0  0
   -5.8430   17.9400  -34.3580 C   0  0  0  0  0  0  0  0  0  0  0  0
   -5.9200   19.2820  -34.0470 C   0  0  0  0  0  0  0  0  0  0  0  0
   -5.9900   21.5390  -31.8060 C   0  0  0  0  0  0  0  0  0  0  0  0
   -4.8220   24.7800  -31.2150 N   0  0  0  0  0  0  0  0  0  0  0  0
   -3.8690   25.2190  -30.4520 O   0  0  0  0  0  0  0  0  0  0  0  0
   -3.0650   24.8930  -27.0940 C   0  0  0  0  0  0  0  0  0  0  0  0
   -2.1110   25.0710  -26.0870 C   0  0  0  0  0  0  0  0  0  0  0  0
    0.1592   25.1424  -23.2509 H   0  0  0  0  0  0  0  0  0  0  0  0
    0.4214   26.7318  -24.0458 H   0  0  0  0  0  0  0  0  0  0  0  0
   -1.2129   25.9862  -24.0458 H   0  0  0  0  0  0  0  0  0  0  0  0
    0.7255   24.4960  -27.9052 H   0  0  0  0  0  0  0  0  0  0  0  0
   -0.9712   24.1790  -29.7023 H   0  0  0  0  0  0  0  0  0  0  0  0
   -7.8879   24.1228  -30.6097 H   0  0  0  0  0  0  0  0  0  0  0  0
   -9.7038   22.6761  -31.5115 H   0  0  0  0  0  0  0  0  0  0  0  0
   -9.1539   20.5054  -32.6033 H   0  0  0  0  0  0  0  0  0  0  0  0
   -7.7536   18.0323  -31.6998 H   0  0  0  0  0  0  0  0  0  0  0  0
   -6.7584   16.1870  -33.3488 H   0  0  0  0  0  0  0  0  0  0  0  0
   -5.2897   17.4897  -35.1953 H   0  0  0  0  0  0  0  0  0  0  0  0
   -5.4263   20.0890  -34.6083 H   0  0  0  0  0  0  0  0  0  0  0  0
   -4.9408   21.2190  -31.8888 H   0  0  0  0  0  0  0  0  0  0  0  0
   -4.1342   25.0052  -26.8610 H   0  0  0  0  0  0  0  0  0  0  0  0
   -2.4362   25.3227  -25.0668 H   0  0  0  0  0  0  0  0  0  0  0  0
  1  2  1  0
  2  3  1  0
  3  4  2  0
  4  5  1  0
  5  6  2  0
  6  7  1  0
  7  8  2  0
  8  9  1  0
  9 10  1  0
 10 11  2  0
 11 12  1  0
 12 13  2  0
 13 14  1  0
 14 15  1  0
 15 16  1  0
 16 17  2  0
 17 18  1  0
 18 19  2  0
 14 20  2  0
  9 21  2  0
 21 22  1  0
  6 23  1  0
 23 24  2  0
 24  3  1  0
 22  7  1  0
 20 10  1  0
 19 15  1  0
  1 25  1  0
  1 26  1  0
  1 27  1  0
  4 28  1  0
  5 29  1  0
 11 30  1  0
 12 31  1  0
 13 32  1  0
 16 33  1  0
 17 34  1  0
 18 35  1  0
 19 36  1  0
 20 37  1  0
 23 38  1  0
 24 39  1  0
M  END
>  <UniqueID>  (16) 
16

>  <SMILES>  (16) 
COc1ccc(-c2nc(-c3cccc(-n4cccc4)c3)no2)cc1

>  <Energy>  (16) 
105.74828264232784

>  <Genealogy>  (16) 
COc1ccc(-c2nc(-c3cccc(-n4cccc4)c3)no2)cc1 (3D coordinates assigned)
COc1ccc(-c2nc(-c3cccc(-n4cccc4)c3)no2)cc1 (optimized conformer: 105.74828264232784 kcal/mol)

>  <smiles>  (16) 
COc1ccc(-c2nc(-c3cccc(-n4cccc4)c3)no2)cc1

>  <score_type>  (16) 
oracle

>  <origin>  (16) 
adgpu

>  <m_score__min__energy>  (16) 
-9.3300000000000001

>  <m_primary>  (16) 
energy

$$$$
16:0
     RDKit          3D

 46 48  0  0  1  0  0  0  0  0999 V2000
   -3.1040   25.6800  -25.5880 C   0  0  0  0  0  0  0  0  0  0  0  0
   -1.9950   26.4350  -26.0380 N   0  0  0  0  0  0  0  0  0  0  0  0
   -0.6250   26.5120  -25.0650 S   0  0  0  0  0  0  0  0  0  0  0  0
   -0.2230   27.9690  -24.8570 O   0  0  0  0  0  0  0  0  0  0  0  0
   -1.0140   25.9890  -23.6880 O   0  0  0  0  0  0  0  0  0  0  0  0
    0.7590   25.6400  -25.6440 C   0  0  0  0  0  0  0  0  0  0  0  0
    1.7760   25.3180  -24.7320 C   0  0  0  0  0  0  0  0  0  0  0  0
    2.8890   24.6100  -25.0910 C   0  0  0  0  0  0  0  0  0  0  0  0
    3.0770   24.1690  -26.3740 C   0  0  0  0  0  0  0  0  0  0  0  0
    2.0900   24.4710  -27.2960 C   0  0  0  0  0  0  0  0  0  0  0  0
    0.9470   25.1990  -26.9260 C   0  0  0  0  0  0  0  0  0  0  0  0
   -0.0080   25.4560  -27.9280 N   0  0  0  0  0  0  0  0  0  0  0  0
   -1.0440   24.7660  -28.2130 C   0  0  0  0  0  0  0  0  0  0  0  0
   -1.8650   25.1690  -29.2230 N   0  0  0  0  0  0  0  0  0  0  0  0
   -2.9560   24.4310  -29.5150 C   0  0  0  0  0  0  0  0  0  0  0  0
   -3.7500   24.7950  -30.4700 N   0  0  0  0  0  0  0  0  0  0  0  0
   -4.8900   23.9680  -30.7280 C   0  0  0  0  0  0  0  0  0  0  0  0
   -4.8330   22.9240  -31.6530 C   0  0  0  0  0  0  0  0  0  0  0  0
   -5.9610   22.1460  -31.8750 C   0  0  0  0  0  0  0  0  0  0  0  0
   -7.1510   22.3590  -31.2150 C   0  0  0  0  0  0  0  0  0  0  0  0
   -8.2870   21.5910  -31.4240 O   0  0  0  0  0  0  0  0  0  0  0  0
   -8.1540   20.4460  -32.2570 C   0  0  0  0  0  0  0  0  0  0  0  0
   -7.1950   23.4020  -30.2960 C   0  0  0  0  0  0  0  0  0  0  0  0
   -6.0840   24.1790  -30.0690 C   0  0  0  0  0  0  0  0  0  0  0  0
   -3.2380   23.2990  -28.8110 N   0  0  0  0  0  0  0  0  0  0  0  0
   -2.4180   22.9050  -27.8080 C   0  0  0  0  0  0  0  0  0  0  0  0
   -1.2940   23.6290  -27.4790 C   0  0  0  0  0  0  0  0  0  0  0  0
   -0.2930   23.0640  -26.1900 Cl  0  0  0  0  0  0  0  0  0  0  0  0
   -3.1187   25.6700  -24.4881 H   0  0  0  0  0  0  0  0  0  0  0  0
   -4.0331   26.1340  -25.9630 H   0  0  0  0  0  0  0  0  0  0  0  0
   -3.0222   24.6491  -25.9630 H   0  0  0  0  0  0  0  0  0  0  0  0
   -1.8680   26.5380  -27.0500 H   0  0  0  0  0  0  0  0  0  0  0  0
    1.6736   25.6481  -23.6877 H   0  0  0  0  0  0  0  0  0  0  0  0
    3.6525   24.3890  -24.3306 H   0  0  0  0  0  0  0  0  0  0  0  0
    3.9737   23.5994  -26.6593 H   0  0  0  0  0  0  0  0  0  0  0  0
    2.2026   24.1349  -28.3373 H   0  0  0  0  0  0  0  0  0  0  0  0
   -1.6200   26.0490  -29.7480 H   0  0  0  0  0  0  0  0  0  0  0  0
   -3.9017   22.7195  -32.2015 H   0  0  0  0  0  0  0  0  0  0  0  0
   -5.9021   21.3270  -32.6070 H   0  0  0  0  0  0  0  0  0  0  0  0
   -8.0496   19.5474  -31.6312 H   0  0  0  0  0  0  0  0  0  0  0  0
   -9.0469   20.3489  -32.8921 H   0  0  0  0  0  0  0  0  0  0  0  0
   -7.2626   20.5561  -32.8921 H   0  0  0  0  0  0  0  0  0  0  0  0
   -8.1258   23.6067  -29.7467 H   0  0  0  0  0  0  0  0  0  0  0  0
   -6.1489   24.9973  -29.3367 H   0  0  0  0  0  0  0  0  0  0  0  0
   -4.0750   22.7090  -29.0150 H   0  0  0  0  0  0  0  0  0  0  0  0
   -2.6542   21.9896  -27.2457 H   0  0  0  0  0  0  0  0  0  0  0  0
  1  2  1  0
  2  3  1  0
  3  4  2  0
  3  5  2  0
  3  6  1  0
  6  7  2  0
  7  8  1  0
  8  9  2  0
  9 10  1  0
 10 11  2  0
 11 12  1  0
 12 13  2  0
 13 14  1  0
 14 15  1  0
 15 16  2  0
 16 17  1  0
 17 18  2  0
 18 19  1  0
 19 20  2  0
 20 21  1  0
 21 22  1  0
 20 23  1  0
 23 24  2  0
 15 25  1  0
 25 26  1  0
 26 27  2  0
 27 28  1  0
 11  6  1  0
 27 13  1  0
 24 17  1  0
  1 29  1  0
  1 30  1  0
  1 31  1  0
  2 32  1  0
  7 33  1  0
  8 34  1  0
  9 35  1  0
 10 36  1  0
 14 37  1  0
 18 38  1  0
 19 39  1  0
 22 40  1  0
 22 41  1  0
 22 42  1  0
 23 43  1  0
 24 44  1  0
 25 45  1  0
 26 46  1  0
M  END
>  <smiles>  (17) 
CNS(=O)(=O)c1ccccc1N=c1[nH]c(=Nc2ccc(OC)cc2)[nH]cc1Cl

>  <score_type>  (17) 
oracle

>  <origin>  (17) 
adgpu

>  <m_score__min__energy>  (17) 
-9.1199999999999992

>  <m_primary>  (17) 
energy

$$$$
17:0
     RDKit          3D

 38 40  0  0  0  0  0  0  0  0999 V2000
   -3.0860   23.5180  -28.6200 O   0  0  0  0  0  0  0  0  0  0  0  0
   -2.7830   24.5310  -29.3060 C   0  0  0  0  0  0  0  0  0  0  0  0
   -1.5990   25.2630  -28.9710 N   0  0  0  0  0  0  0  0  0  0  0  0
   -1.2400   25.7290  -27.6630 C   0  0  0  0  0  0  0  0  0  0  0  0
   -0.4660   26.8880  -27.4790 C   0  0  0  0  0  0  0  0  0  0  0  0
   -0.1540   27.3290  -26.1880 C   0  0  0  0  0  0  0  0  0  0  0  0
   -0.6280   26.6270  -25.0740 C   0  0  0  0  0  0  0  0  0  0  0  0
   -0.2400   27.1810  -23.4570 Cl  0  0  0  0  0  0  0  0  0  0  0  0
   -1.4200   25.4880  -25.2540 C   0  0  0  0  0  0  0  0  0  0  0  0
   -1.7320   25.0470  -26.5430 C   0  0  0  0  0  0  0  0  0  0  0  0
   -3.5620   24.8800  -30.4620 N   0  0  0  0  0  0  0  0  0  0  0  0
   -4.8800   24.3590  -30.7090 C   0  0  0  0  0  0  0  0  0  0  0  0
   -6.0110   25.0210  -30.1990 C   0  0  0  0  0  0  0  0  0  0  0  0
   -7.2950   24.5340  -30.4590 C   0  0  0  0  0  0  0  0  0  0  0  0
   -7.4650   23.3890  -31.2380 C   0  0  0  0  0  0  0  0  0  0  0  0
   -6.3520   22.7300  -31.7620 C   0  0  0  0  0  0  0  0  0  0  0  0
   -5.0580   23.2060  -31.5030 C   0  0  0  0  0  0  0  0  0  0  0  0
   -3.6570   22.3010  -32.1760 S   0  0  0  0  0  0  0  0  0  0  0  0
   -4.6090   20.7970  -32.3970 C   0  0  0  0  0  0  0  0  0  0  0  0
   -5.0470   20.4230  -33.6740 C   0  0  0  0  0  0  0  0  0  0  0  0
   -5.7820   19.2450  -33.8460 C   0  0  0  0  0  0  0  0  0  0  0  0
   -6.0870   18.4440  -32.7420 C   0  0  0  0  0  0  0  0  0  0  0  0
   -5.6590   18.8190  -31.4650 C   0  0  0  0  0  0  0  0  0  0  0  0
   -4.9230   19.9960  -31.2910 C   0  0  0  0  0  0  0  0  0  0  0  0
   -0.1044   27.4501  -28.3526 H   0  0  0  0  0  0  0  0  0  0  0  0
    0.4643   28.2281  -26.0488 H   0  0  0  0  0  0  0  0  0  0  0  0
   -1.7979   24.9384  -24.3793 H   0  0  0  0  0  0  0  0  0  0  0  0
   -2.3675   24.1594  -26.6786 H   0  0  0  0  0  0  0  0  0  0  0  0
   -3.1080   25.4650  -31.1960 H   0  0  0  0  0  0  0  0  0  0  0  0
   -5.8842   25.9288  -29.5909 H   0  0  0  0  0  0  0  0  0  0  0  0
   -8.1731   25.0543  -30.0488 H   0  0  0  0  0  0  0  0  0  0  0  0
   -8.4763   23.0057  -31.4391 H   0  0  0  0  0  0  0  0  0  0  0  0
   -6.4902   21.8319  -32.3819 H   0  0  0  0  0  0  0  0  0  0  0  0
   -4.8128   21.0562  -34.5425 H   0  0  0  0  0  0  0  0  0  0  0  0
   -6.1198   18.9492  -34.8502 H   0  0  0  0  0  0  0  0  0  0  0  0
   -6.6644   17.5176  -32.8780 H   0  0  0  0  0  0  0  0  0  0  0  0
   -5.9010   18.1884  -30.5968 H   0  0  0  0  0  0  0  0  0  0  0  0
   -4.5906   20.2928  -30.2853 H   0  0  0  0  0  0  0  0  0  0  0  0
  1  2  2  0
  2  3  1  0
  3  4  1  0
  4  5  2  0
  5  6  1  0
  6  7  2  0
  7  8  1  0
  7  9  1  0
  9 10  2  0
  2 11  1  0
 11 12  1  0
 12 13  2  0
 13 14  1  0
 14 15  2  0
 15 16  1  0
 16 17  2  0
 17 18  1  0
 18 19  1  0
 19 20  2  0
 20 21  1  0
 21 22  2  0
 22 23  1  0
 23 24  2  0
 10  4  1  0
 17 12  1  0
 24 19  1  0
  5 25  1  0
  6 26  1  0
  9 27  1  0
 10 28  1  0
 11 29  1  0
 13 30  1  0
 14 31  1  0
 15 32  1  0
 16 33  1  0
 20 34  1  0
 21 35  1  0
 22 36  1  0
 23 37  1  0
 24 38  1  0
M  CHG  1   3  -1
M  END
>  <UniqueID>  (18) 
17

>  <SMILES>  (18) 
O=C([N-]c1ccc(Cl)cc1)Nc1ccccc1Sc1ccccc1

>  <Energy>  (18) 
43.30393184434824

>  <Genealogy>  (18) 
O=C([N-]c1ccc(Cl)cc1)Nc1ccccc1Sc1ccccc1 (protonated)
O=C([N-]c1ccc(Cl)cc1)Nc1ccccc1Sc1ccccc1 (3D coordinates assigned)
O=C([N-]c1ccc(Cl)cc1)Nc1ccccc1Sc1ccccc1 (optimized conformer: 43.30393184434824 kcal/mol)

>  <smiles>  (18) 
O=C(Nc1ccc(Cl)cc1)Nc1ccccc1Sc1ccccc1

>  <score_type>  (18) 
oracle

>  <origin>  (18) 
adgpu

>  <m_score__min__energy>  (18) 
-10.1

>  <m_primary>  (18) 
energy

$$$$
18:0
     RDKit          3D

 37 39  0  0  0  0  0  0  0  0999 V2000
   -4.1830   19.1720  -33.7150 O   0  0  0  0  0  0  0  0  0  0  0  0
   -5.3560   18.7630  -33.5020 C   0  0  0  0  0  0  0  0  0  0  0  0
   -6.3620   19.6680  -33.0200 N   0  0  0  0  0  0  0  0  0  0  0  0
   -6.0670   20.9380  -32.4140 C   0  0  0  0  0  0  0  0  0  0  0  0
   -4.7490   21.3050  -32.0850 C   0  0  0  0  0  0  0  0  0  0  0  0
   -4.4900   22.5350  -31.4740 C   0  0  0  0  0  0  0  0  0  0  0  0
   -5.5420   23.4080  -31.1700 C   0  0  0  0  0  0  0  0  0  0  0  0
   -5.2050   24.9460  -30.3850 S   0  0  0  0  0  0  0  0  0  0  0  0
   -5.8440   25.0030  -29.0250 O   0  0  0  0  0  0  0  0  0  0  0  0
   -5.7580   26.0570  -31.2310 O   0  0  0  0  0  0  0  0  0  0  0  0
   -3.4920   25.1590  -30.2150 N   0  0  0  0  0  0  0  0  0  0  0  0
   -2.6810   24.5440  -29.2040 C   0  0  0  0  0  0  0  0  0  0  0  0
   -3.1890   23.4280  -28.5240 C   0  0  0  0  0  0  0  0  0  0  0  0
   -2.4320   22.8010  -27.5290 C   0  0  0  0  0  0  0  0  0  0  0  0
   -1.1590   23.2810  -27.2100 C   0  0  0  0  0  0  0  0  0  0  0  0
   -0.6430   24.3910  -27.8830 C   0  0  0  0  0  0  0  0  0  0  0  0
   -1.3980   25.0220  -28.8780 C   0  0  0  0  0  0  0  0  0  0  0  0
   -6.8570   23.0400  -31.4820 C   0  0  0  0  0  0  0  0  0  0  0  0
   -7.1180   21.8100  -32.0910 C   0  0  0  0  0  0  0  0  0  0  0  0
   -5.6820   17.3580  -33.7970 C   0  0  0  0  0  0  0  0  0  0  0  0
   -4.7840   16.3180  -33.9610 C   0  0  0  0  0  0  0  0  0  0  0  0
   -5.5500   15.2040  -34.2250 C   0  0  0  0  0  0  0  0  0  0  0  0
   -6.8640   15.6270  -34.2050 C   0  0  0  0  0  0  0  0  0  0  0  0
   -6.9090   16.9140  -33.9510 O   0  0  0  0  0  0  0  0  0  0  0  0
   -7.3650   19.4340  -33.1930 H   0  0  0  0  0  0  0  0  0  0  0  0
   -3.9181   20.6202  -32.3099 H   0  0  0  0  0  0  0  0  0  0  0  0
   -3.4554   22.8186  -31.2308 H   0  0  0  0  0  0  0  0  0  0  0  0
   -4.1887   23.0434  -28.7745 H   0  0  0  0  0  0  0  0  0  0  0  0
   -2.8393   21.9287  -26.9968 H   0  0  0  0  0  0  0  0  0  0  0  0
   -0.5636   22.7850  -26.4293 H   0  0  0  0  0  0  0  0  0  0  0  0
    0.3584   24.7697  -27.6304 H   0  0  0  0  0  0  0  0  0  0  0  0
   -0.9873   25.8946  -29.4071 H   0  0  0  0  0  0  0  0  0  0  0  0
   -7.6873   23.7220  -31.2466 H   0  0  0  0  0  0  0  0  0  0  0  0
   -8.1551   21.5229  -32.3190 H   0  0  0  0  0  0  0  0  0  0  0  0
   -3.6872   16.3700  -33.8944 H   0  0  0  0  0  0  0  0  0  0  0  0
   -5.1876   14.1827  -34.4138 H   0  0  0  0  0  0  0  0  0  0  0  0
   -7.7397   14.9836  -34.3759 H   0  0  0  0  0  0  0  0  0  0  0  0
  1  2  2  0
  2  3  1  0
  3  4  1  0
  4  5  2  0
  5  6  1  0
  6  7  2  0
  7  8  1  0
  8  9  2  0
  8 10  2  0
  8 11  1  0
 11 12  1  0
 12 13  2  0
 13 14  1  0
 14 15  2  0
 15 16  1  0
 16 17  2  0
  7 18  1  0
 18 19  2  0
  2 20  1  0
 20 21  2  0
 21 22  1  0
 22 23  2  0
 23 24  1  0
 19  4  1  0
 24 20  1  0
 17 12  1  0
  3 25  1  0
  5 26  1  0
  6 27  1  0
 13 28  1  0
 14 29  1  0
 15 30  1  0
 16 31  1  0
 17 32  1  0
 18 33  1  0
 19 34  1  0
 21 35  1  0
 22 36  1  0
 23 37  1  0
M  CHG  1  11  -1
M  END
>  <UniqueID>  (19) 
18

>  <SMILES>  (19) 
O=C(Nc1ccc(S(=O)(=O)[N-]c2ccccc2)cc1)c1ccco1

>  <Energy>  (19) 
71.54646293281638

>  <Genealogy>  (19) 
O=C(Nc1ccc(S(=O)(=O)[N-]c2ccccc2)cc1)c1ccco1 (protonated)
O=C(Nc1ccc(S(=O)(=O)[N-]c2ccccc2)cc1)c1ccco1 (3D coordinates assigned)
O=C(Nc1ccc(S(=O)(=O)[N-]c2ccccc2)cc1)c1ccco1 (optimized conformer: 71.54646293281638 kcal/mol)

>  <smiles>  (19) 
O=C(Nc1ccc(S(=O)(=O)Nc2ccccc2)cc1)c1ccco1

>  <score_type>  (19) 
oracle

>  <origin>  (19) 
adgpu

>  <m_score__min__energy>  (19) 
-8.8900000000000006

>  <m_primary>  (19) 
energy

$$$$
19:0
     RDKit          3D

 31 33  0  0  0  0  0  0  0  0999 V2000
   -7.3650   24.7220  -30.4890 O   0  0  0  0  0  0  0  0  0  0  0  0
   -6.9510   23.5730  -30.8010 C   0  0  0  0  0  0  0  0  0  0  0  0
   -7.7490   22.3720  -30.3690 C   0  0  0  0  0  0  0  0  0  0  0  0
   -9.0290   21.9300  -31.5980 S   0  0  0  0  0  0  0  0  0  0  0  0
   -8.1830   20.4590  -32.1850 C   0  0  0  0  0  0  0  0  0  0  0  0
   -7.0120   20.5770  -32.9430 C   0  0  0  0  0  0  0  0  0  0  0  0
   -6.3530   19.4300  -33.3970 C   0  0  0  0  0  0  0  0  0  0  0  0
   -6.8590   18.1630  -33.0880 C   0  0  0  0  0  0  0  0  0  0  0  0
   -8.0240   18.0430  -32.3250 C   0  0  0  0  0  0  0  0  0  0  0  0
   -8.6840   19.1880  -31.8700 C   0  0  0  0  0  0  0  0  0  0  0  0
   -5.7020   23.4590  -31.4950 N   0  0  0  0  0  0  0  0  0  0  0  0
   -4.4000   23.4730  -30.8970 C   0  0  0  0  0  0  0  0  0  0  0  0
   -3.6170   22.2950  -30.9350 C   0  0  0  0  0  0  0  0  0  0  0  0
   -2.3400   22.2630  -30.3450 C   0  0  0  0  0  0  0  0  0  0  0  0
   -1.8900   23.4190  -29.7120 C   0  0  0  0  0  0  0  0  0  0  0  0
   -0.7240   23.6070  -29.0780 N   0  0  0  0  0  0  0  0  0  0  0  0
   -0.8400   24.8880  -28.6470 C   0  0  0  0  0  0  0  0  0  0  0  0
    0.0690   25.4630  -27.9920 O   0  0  0  0  0  0  0  0  0  0  0  0
   -2.0040   25.5060  -28.9700 N   0  0  0  0  0  0  0  0  0  0  0  0
   -2.6500   24.5470  -29.6480 C   0  0  0  0  0  0  0  0  0  0  0  0
   -3.9190   24.6170  -30.2200 C   0  0  0  0  0  0  0  0  0  0  0  0
   -7.0671   21.5182  -30.2421 H   0  0  0  0  0  0  0  0  0  0  0  0
   -8.2535   22.6186  -29.4232 H   0  0  0  0  0  0  0  0  0  0  0  0
   -6.6099   21.5726  -33.1817 H   0  0  0  0  0  0  0  0  0  0  0  0
   -5.4362   19.5242  -33.9975 H   0  0  0  0  0  0  0  0  0  0  0  0
   -6.3402   17.2613  -33.4454 H   0  0  0  0  0  0  0  0  0  0  0  0
   -8.4218   17.0465  -32.0824 H   0  0  0  0  0  0  0  0  0  0  0  0
   -9.5972   19.0918  -31.2643 H   0  0  0  0  0  0  0  0  0  0  0  0
   -4.0105   21.3953  -31.4307 H   0  0  0  0  0  0  0  0  0  0  0  0
   -1.7185   21.3562  -30.3824 H   0  0  0  0  0  0  0  0  0  0  0  0
   -4.5258   25.5316  -30.1471 H   0  0  0  0  0  0  0  0  0  0  0  0
  1  2  2  0
  2  3  1  0
  3  4  1  0
  4  5  1  0
  5  6  2  0
  6  7  1  0
  7  8  2  0
  8  9  1  0
  9 10  2  0
  2 11  1  0
 11 12  1  0
 12 13  2  0
 13 14  1  0
 14 15  2  0
 15 16  1  0
 16 17  1  0
 17 18  2  0
 17 19  1  0
 19 20  1  0
 20 21  2  0
 10  5  1  0
 21 12  1  0
 20 15  1  0
  3 22  1  0
  3 23  1  0
  6 24  1  0
  7 25  1  0
  8 26  1  0
  9 27  1  0
 10 28  1  0
 13 29  1  0
 14 30  1  0
 21 31  1  0
M  CHG  3  11  -1  16  -1  19  -1
M  END
>  <UniqueID>  (20) 
19

>  <SMILES>  (20) 
O=C(CSc1ccccc1)[N-]c1ccc2[n-]c(=O)[n-]c2c1

>  <Energy>  (20) 
69.47097310253383

>  <Genealogy>  (20) 
O=C(CSc1ccccc1)[N-]c1ccc2[n-]c(=O)[n-]c2c1 (protonated)
O=C(CSc1ccccc1)[N-]c1ccc2[n-]c(=O)[n-]c2c1 (3D coordinates assigned)
O=C(CSc1ccccc1)[N-]c1ccc2[n-]c(=O)[n-]c2c1 (optimized conformer: 69.47097310253383 kcal/mol)

>  <smiles>  (20) 
O=C(CSc1ccccc1)Nc1ccc2[nH]c(=O)[nH]c2c1

>  <score_type>  (20) 
oracle

>  <origin>  (20) 
adgpu

>  <m_score__min__energy>  (20) 
-10.550000000000001

>  <m_primary>  (20) 
energy

$$$$
20:0
     RDKit          3D

 56 59  0  0  0  0  0  0  0  0999 V2000
    0.2790   21.5090  -35.1510 C   0  0  0  0  0  0  0  0  0  0  0  0
   -0.6320   20.9150  -34.1180 C   0  0  0  0  0  0  0  0  0  0  0  0
   -0.6930   21.4760  -32.8350 C   0  0  0  0  0  0  0  0  0  0  0  0
   -1.5590   20.9440  -31.8750 C   0  0  0  0  0  0  0  0  0  0  0  0
   -2.3820   19.8620  -32.1960 C   0  0  0  0  0  0  0  0  0  0  0  0
   -2.3400   19.3010  -33.4790 C   0  0  0  0  0  0  0  0  0  0  0  0
   -3.3860   17.9390  -33.8680 S   0  0  0  0  0  0  0  0  0  0  0  0
   -3.8120   17.9790  -35.3100 O   0  0  0  0  0  0  0  0  0  0  0  0
   -2.6140   16.6670  -33.6440 O   0  0  0  0  0  0  0  0  0  0  0  0
   -4.8220   17.9830  -32.8350 C   0  0  0  0  0  0  0  0  0  0  0  0
   -5.5000   19.2030  -32.6760 C   0  0  0  0  0  0  0  0  0  0  0  0
   -6.6500   19.2870  -31.8830 C   0  0  0  0  0  0  0  0  0  0  0  0
   -7.5150   20.8140  -31.7650 S   0  0  0  0  0  0  0  0  0  0  0  0
   -8.5900   20.7060  -30.7190 O   0  0  0  0  0  0  0  0  0  0  0  0
   -8.1670   21.1550  -33.0760 O   0  0  0  0  0  0  0  0  0  0  0  0
   -6.3600   22.0660  -31.3330 C   0  0  0  0  0  0  0  0  0  0  0  0
   -5.1150   22.1150  -31.9750 C   0  0  0  0  0  0  0  0  0  0  0  0
   -4.1640   23.0650  -31.5920 C   0  0  0  0  0  0  0  0  0  0  0  0
   -4.4400   23.9620  -30.5440 C   0  0  0  0  0  0  0  0  0  0  0  0
   -3.4770   24.9330  -30.1130 N   0  0  0  0  0  0  0  0  0  0  0  0
   -2.3050   24.6670  -29.3290 C   0  0  0  0  0  0  0  0  0  0  0  0
   -1.5880   25.6370  -28.9660 O   0  0  0  0  0  0  0  0  0  0  0  0
   -1.9450   23.2950  -28.8970 C   0  0  0  0  0  0  0  0  0  0  0  0
   -0.6490   22.8000  -29.1300 C   0  0  0  0  0  0  0  0  0  0  0  0
   -0.3050   21.5040  -28.7360 C   0  0  0  0  0  0  0  0  0  0  0  0
   -1.2470   20.6930  -28.0990 C   0  0  0  0  0  0  0  0  0  0  0  0
   -2.5330   21.1790  -27.8470 C   0  0  0  0  0  0  0  0  0  0  0  0
   -3.4450   20.3900  -27.2280 F   0  0  0  0  0  0  0  0  0  0  0  0
   -2.8800   22.4770  -28.2360 C   0  0  0  0  0  0  0  0  0  0  0  0
   -5.6960   23.9280  -29.9260 C   0  0  0  0  0  0  0  0  0  0  0  0
   -6.6470   22.9770  -30.3090 C   0  0  0  0  0  0  0  0  0  0  0  0
   -7.1350   18.1430  -31.2440 C   0  0  0  0  0  0  0  0  0  0  0  0
   -6.4750   16.9240  -31.3960 C   0  0  0  0  0  0  0  0  0  0  0  0
   -5.3240   16.8240  -32.1930 C   0  0  0  0  0  0  0  0  0  0  0  0
   -4.7020   15.5400  -32.3430 N   0  0  0  0  0  0  0  0  0  0  0  0
   -1.4660   19.8310  -34.4400 C   0  0  0  0  0  0  0  0  0  0  0  0
    1.1000   22.0443  -34.6516 H   0  0  0  0  0  0  0  0  0  0  0  0
    0.6931   20.7068  -35.7795 H   0  0  0  0  0  0  0  0  0  0  0  0
   -0.2880   22.2115  -35.7795 H   0  0  0  0  0  0  0  0  0  0  0  0
   -0.0575   22.3376  -32.5826 H   0  0  0  0  0  0  0  0  0  0  0  0
   -1.5923   21.3783  -30.8649 H   0  0  0  0  0  0  0  0  0  0  0  0
   -3.0651   19.4492  -31.4391 H   0  0  0  0  0  0  0  0  0  0  0  0
   -5.1221   20.1040  -33.1814 H   0  0  0  0  0  0  0  0  0  0  0  0
   -4.8858   21.4039  -32.7824 H   0  0  0  0  0  0  0  0  0  0  0  0
   -3.1958   23.1115  -32.1121 H   0  0  0  0  0  0  0  0  0  0  0  0
    0.0984   23.4371  -29.6255 H   0  0  0  0  0  0  0  0  0  0  0  0
    0.7087   21.1223  -28.9278 H   0  0  0  0  0  0  0  0  0  0  0  0
   -0.9765   19.6709  -27.7954 H   0  0  0  0  0  0  0  0  0  0  0  0
   -3.8890   22.8603  -28.0241 H   0  0  0  0  0  0  0  0  0  0  0  0
   -5.9360   24.6535  -29.1347 H   0  0  0  0  0  0  0  0  0  0  0  0
   -7.6238   22.9444  -29.8042 H   0  0  0  0  0  0  0  0  0  0  0  0
   -8.0389   18.2040  -30.6201 H   0  0  0  0  0  0  0  0  0  0  0  0
   -6.8612   16.0298  -30.8850 H   0  0  0  0  0  0  0  0  0  0  0  0
   -4.0830   15.3050  -33.1480 H   0  0  0  0  0  0  0  0  0  0  0  0
   -4.8780   14.7840  -31.6450 H   0  0  0  0  0  0  0  0  0  0  0  0
   -1.4335   19.3961  -35.4498 H   0  0  0  0  0  0  0  0  0  0  0  0
  1  2  1  0
  2  3  2  0
  3  4  1  0
  4  5  2  0
  5  6  1  0
  6  7  1  0
  7  8  2  0
  7  9  2  0
  7 10  1  0
 10 11  2  0
 11 12  1  0
 12 13  1  0
 13 14  2  0
 13 15  2  0
 13 16  1  0
 16 17  2  0
 17 18  1  0
 18 19  2  0
 19 20  1  0
 20 21  1  0
 21 22  2  0
 21 23  1  0
 23 24  2  0
 24 25  1  0
 25 26  2  0
 26 27  1  0
 27 28  1  0
 27 29  2  0
 19 30  1  0
 30 31  2  0
 12 32  2  0
 32 33  1  0
 33 34  2  0
 34 35  1  0
  6 36  2  0
 36  2  1  0
 34 10  1  0
 31 16  1  0
 29 23  1  0
  1 37  1  0
  1 38  1  0
  1 39  1  0
  3 40  1  0
  4 41  1  0
  5 42  1  0
 11 43  1  0
 17 44  1  0
 18 45  1  0
 24 46  1  0
 25 47  1  0
 26 48  1  0
 29 49  1  0
 30 50  1  0
 31 51  1  0
 32 52  1  0
 33 53  1  0
 35 54  1  0
 35 55  1  0
 36 56  1  0
M  CHG  1  20  -1
M  END
>  <UniqueID>  (21) 
20

>  <SMILES>  (21) 
Cc1cccc(S(=O)(=O)c2cc(S(=O)(=O)c3ccc([N-]C(=O)c4cccc(F)c4)cc3)ccc2N)c1

>  <Energy>  (21) 
70.69096940105383

>  <Genealogy>  (21) 
Cc1cccc(S(=O)(=O)c2cc(S(=O)(=O)c3ccc([N-]C(=O)c4cccc(F)c4)cc3)ccc2N)c1 (protonated)
Cc1cccc(S(=O)(=O)c2cc(S(=O)(=O)c3ccc([N-]C(=O)c4cccc(F)c4)cc3)ccc2N)c1 (3D coordinates assigned)
Cc1cccc(S(=O)(=O)c2cc(S(=O)(=O)c3ccc([N-]C(=O)c4cccc(F)c4)cc3)ccc2N)c1 (optimized conformer: 70.69096940105383 kcal/mol)

>  <smiles>  (21) 
Cc1cccc(S(=O)(=O)c2cc(S(=O)(=O)c3ccc(NC(=O)c4cccc(F)c4)cc3)ccc2N)c1

>  <score_type>  (21) 
oracle

>  <origin>  (21) 
adgpu

>  <m_score__min__energy>  (21) 
-12.4

>  <m_primary>  (21) 
energy

$$$$
21:0
     RDKit          3D

 57 60  0  0  0  0  0  0  0  0999 V2000
   -4.9460   25.6770  -30.8140 C   0  0  0  0  0  0  0  0  0  0  0  0
   -6.0000   24.7470  -30.4140 N   0  0  0  0  0  0  0  0  0  0  0  0
   -7.1640   25.2290  -29.6720 C   0  0  0  0  0  0  0  0  0  0  0  0
   -6.0300   23.4270  -30.9760 C   0  0  0  0  0  0  0  0  0  0  0  0
   -7.2000   22.9830  -31.5970 C   0  0  0  0  0  0  0  0  0  0  0  0
   -7.2730   21.7020  -32.1400 C   0  0  0  0  0  0  0  0  0  0  0  0
   -6.1770   20.8300  -32.0730 C   0  0  0  0  0  0  0  0  0  0  0  0
   -6.3410   19.4650  -32.6230 C   0  0  0  0  0  0  0  0  0  0  0  0
   -6.9770   18.4660  -31.8690 C   0  0  0  0  0  0  0  0  0  0  0  0
   -7.1490   17.1840  -32.4010 C   0  0  0  0  0  0  0  0  0  0  0  0
   -6.7000   16.8950  -33.6930 C   0  0  0  0  0  0  0  0  0  0  0  0
   -6.9170   15.2870  -34.3590 Cl  0  0  0  0  0  0  0  0  0  0  0  0
   -6.0810   17.8920  -34.4550 C   0  0  0  0  0  0  0  0  0  0  0  0
   -5.9050   19.1740  -33.9240 C   0  0  0  0  0  0  0  0  0  0  0  0
   -4.9680   21.2720  -31.4730 C   0  0  0  0  0  0  0  0  0  0  0  0
   -3.8210   20.4530  -31.4260 C   0  0  0  0  0  0  0  0  0  0  0  0
   -2.6480   20.9010  -30.8200 C   0  0  0  0  0  0  0  0  0  0  0  0
   -2.5730   22.1880  -30.2710 C   0  0  0  0  0  0  0  0  0  0  0  0
   -1.3090   22.6550  -29.5820 C   0  0  1  0  0  0  0  0  0  0  0  0
   -1.5340   23.9370  -29.0190 O   0  0  0  0  0  0  0  0  0  0  0  0
   -0.3350   24.4420  -28.4590 C   0  0  1  0  0  0  0  0  0  0  0  0
   -0.5520   25.9210  -28.1020 C   0  0  0  0  0  0  0  0  0  0  0  0
   -1.6080   26.4730  -28.8410 O   0  0  0  0  0  0  0  0  0  0  0  0
    0.1020   23.6170  -27.2110 C   0  0  2  0  0  0  0  0  0  0  0  0
    1.4870   23.3900  -27.2820 O   0  0  0  0  0  0  0  0  0  0  0  0
   -0.6480   22.2610  -27.1220 C   0  0  1  0  0  0  0  0  0  0  0  0
   -1.8780   22.3920  -26.4480 O   0  0  0  0  0  0  0  0  0  0  0  0
   -0.8540   21.6150  -28.5090 C   0  0  2  0  0  0  0  0  0  0  0  0
    0.3510   21.0140  -28.9130 O   0  0  0  0  0  0  0  0  0  0  0  0
   -3.7010   23.0230  -30.3260 C   0  0  0  0  0  0  0  0  0  0  0  0
   -4.9000   22.5820  -30.9180 C   0  0  0  0  0  0  0  0  0  0  0  0
   -4.4687   26.0981  -29.9169 H   0  0  0  0  0  0  0  0  0  0  0  0
   -4.1937   25.1430  -31.4131 H   0  0  0  0  0  0  0  0  0  0  0  0
   -5.3822   26.4899  -31.4131 H   0  0  0  0  0  0  0  0  0  0  0  0
   -6.9696   25.1485  -28.5923 H   0  0  0  0  0  0  0  0  0  0  0  0
   -7.3554   26.2804  -29.9327 H   0  0  0  0  0  0  0  0  0  0  0  0
   -8.0427   24.6207  -29.9327 H   0  0  0  0  0  0  0  0  0  0  0  0
   -8.0718   23.6510  -31.6578 H   0  0  0  0  0  0  0  0  0  0  0  0
   -8.2019   21.3706  -32.6273 H   0  0  0  0  0  0  0  0  0  0  0  0
   -7.3414   18.6924  -30.8561 H   0  0  0  0  0  0  0  0  0  0  0  0
   -7.6383   16.4019  -31.8019 H   0  0  0  0  0  0  0  0  0  0  0  0
   -5.7321   17.6671  -35.4737 H   0  0  0  0  0  0  0  0  0  0  0  0
   -5.4231   19.9565  -34.5286 H   0  0  0  0  0  0  0  0  0  0  0  0
   -3.8521   19.4484  -31.8729 H   0  0  0  0  0  0  0  0  0  0  0  0
   -1.7722   20.2371  -30.7724 H   0  0  0  0  0  0  0  0  0  0  0  0
   -0.4915   22.7369  -30.3135 H   0  0  0  0  0  0  0  0  0  0  0  0
    0.4794   24.3539  -29.1932 H   0  0  0  0  0  0  0  0  0  0  0  0
   -0.7847   26.0006  -27.0298 H   0  0  0  0  0  0  0  0  0  0  0  0
    0.3674   26.4751  -28.3424 H   0  0  0  0  0  0  0  0  0  0  0  0
   -1.5940   26.0270  -29.7310 H   0  0  0  0  0  0  0  0  0  0  0  0
   -0.1505   24.1923  -26.3081 H   0  0  0  0  0  0  0  0  0  0  0  0
    1.6190   22.5440  -27.7830 H   0  0  0  0  0  0  0  0  0  0  0  0
   -0.0052   21.5878  -26.5359 H   0  0  0  0  0  0  0  0  0  0  0  0
   -2.4580   23.0110  -26.9610 H   0  0  0  0  0  0  0  0  0  0  0  0
   -1.6533   20.8643  -28.4222 H   0  0  0  0  0  0  0  0  0  0  0  0
    1.0850   21.5580  -28.5250 H   0  0  0  0  0  0  0  0  0  0  0  0
   -3.6470   24.0359  -29.9005 H   0  0  0  0  0  0  0  0  0  0  0  0
  1  2  1  0
  2  3  1  0
  2  4  1  0
  4  5  2  0
  5  6  1  0
  6  7  2  0
  7  8  1  0
  8  9  2  0
  9 10  1  0
 10 11  2  0
 11 12  1  0
 11 13  1  0
 13 14  2  0
  7 15  1  0
 15 16  2  0
 16 17  1  0
 17 18  2  0
 18 19  1  0
 19 20  1  0
 20 21  1  0
 21 22  1  0
 22 23  1  0
 21 24  1  0
 24 25  1  0
 24 26  1  0
 26 27  1  0
 26 28  1  0
 28 29  1  0
 18 30  1  0
 30 31  2  0
 31  4  1  0
 14  8  1  0
 31 15  1  0
 28 19  1  0
  1 32  1  0
  1 33  1  0
  1 34  1  0
  3 35  1  0
  3 36  1  0
  3 37  1  0
  5 38  1  0
  6 39  1  0
  9 40  1  0
 10 41  1  0
 13 42  1  0
 14 43  1  0
 16 44  1  0
 17 45  1  0
 19 46  1  6
 21 47  1  6
 22 48  1  0
 22 49  1  0
 23 50  1  0
 24 51  1  1
 25 52  1  0
 26 53  1  1
 27 54  1  0
 28 55  1  1
 29 56  1  0
 30 57  1  0
M  END
>  <UniqueID>  (22) 
21

>  <SMILES>  (22) 
CN(C)c1ccc(-c2ccc(Cl)cc2)c2ccc([C@H]3O[C@@H](CO)C(O)C(O)C3O)cc12

>  <Energy>  (22) 
87.1984906235694

>  <Genealogy>  (22) 
CN(C)c1ccc(-c2ccc(Cl)cc2)c2ccc([C@H]3O[C@@H](CO)C(O)C(O)C3O)cc12 (chirality)
CN(C)c1ccc(-c2ccc(Cl)cc2)c2ccc([C@H]3O[C@@H](CO)C(O)C(O)C3O)cc12 (3D coordinates assigned)
CN(C)c1ccc(-c2ccc(Cl)cc2)c2ccc([C@H]3O[C@@H](CO)C(O)C(O)C3O)cc12 (nonaromatic ring conformer: 87.1984906235694 kcal/mol)

>  <smiles>  (22) 
CN(C)c1ccc(-c2ccc(Cl)cc2)c2ccc(C3OC(CO)C(O)C(O)C3O)cc12

>  <score_type>  (22) 
oracle

>  <origin>  (22) 
adgpu

>  <m_score__min__energy>  (22) 
-7.9400000000000004

>  <m_primary>  (22) 
energy

$$$$
22:0
     RDKit          3D

 47 49  0  0  0  0  0  0  0  0999 V2000
   -2.5000   21.3500  -27.6300 C   0  0  0  0  0  0  0  0  0  0  0  0
   -3.8400   21.9540  -28.0320 C   0  0  0  0  0  0  0  0  0  0  0  0
   -3.6790   23.3410  -28.4820 N   0  0  0  0  0  0  0  0  0  0  0  0
   -2.6840   24.1890  -27.8800 C   0  0  0  0  0  0  0  0  0  0  0  0
   -1.3900   24.2810  -28.4510 C   0  0  0  0  0  0  0  0  0  0  0  0
   -1.0080   23.5130  -29.6880 C   0  0  0  0  0  0  0  0  0  0  0  0
   -0.4170   25.0840  -27.8360 C   0  0  0  0  0  0  0  0  0  0  0  0
   -0.7280   25.8270  -26.7000 C   0  0  0  0  0  0  0  0  0  0  0  0
   -2.0110   25.7770  -26.1590 C   0  0  0  0  0  0  0  0  0  0  0  0
   -2.9950   24.9580  -26.7320 C   0  0  0  0  0  0  0  0  0  0  0  0
   -4.3760   24.9840  -26.1310 C   0  0  0  0  0  0  0  0  0  0  0  0
   -4.5100   23.8920  -29.9050 S   0  0  0  0  0  0  0  0  0  0  0  0
   -5.8770   24.3970  -29.5270 O   0  0  0  0  0  0  0  0  0  0  0  0
   -3.7490   25.0280  -30.5310 O   0  0  0  0  0  0  0  0  0  0  0  0
   -4.6630   22.5720  -31.0600 C   0  0  0  0  0  0  0  0  0  0  0  0
   -3.5160   21.9460  -31.5610 C   0  0  0  0  0  0  0  0  0  0  0  0
   -3.6280   20.8790  -32.4570 C   0  0  0  0  0  0  0  0  0  0  0  0
   -4.8920   20.4260  -32.8670 C   0  0  0  0  0  0  0  0  0  0  0  0
   -5.0060   19.2980  -33.8110 C   0  0  0  0  0  0  0  0  0  0  0  0
   -6.0890   19.0460  -34.5730 N   0  0  0  0  0  0  0  0  0  0  0  0
   -5.8060   17.9590  -35.2760 N   0  0  0  0  0  0  0  0  0  0  0  0
   -4.5620   17.5940  -34.9190 C   0  0  0  0  0  0  0  0  0  0  0  0
   -3.8550   16.3960  -35.4540 C   0  0  0  0  0  0  0  0  0  0  0  0
   -4.0640   18.4060  -34.0180 O   0  0  0  0  0  0  0  0  0  0  0  0
   -6.0420   21.0600  -32.3660 C   0  0  0  0  0  0  0  0  0  0  0  0
   -5.9270   22.1260  -31.4700 C   0  0  0  0  0  0  0  0  0  0  0  0
   -2.4270   21.3171  -26.5329 H   0  0  0  0  0  0  0  0  0  0  0  0
   -2.4219   20.3296  -28.0334 H   0  0  0  0  0  0  0  0  0  0  0  0
   -1.6838   21.9673  -28.0334 H   0  0  0  0  0  0  0  0  0  0  0  0
   -4.2718   21.3585  -28.8499 H   0  0  0  0  0  0  0  0  0  0  0  0
   -4.5047   21.9454  -27.1556 H   0  0  0  0  0  0  0  0  0  0  0  0
   -0.5354   22.5629  -29.3983 H   0  0  0  0  0  0  0  0  0  0  0  0
   -1.9089   23.3075  -30.2848 H   0  0  0  0  0  0  0  0  0  0  0  0
   -0.3006   24.1074  -30.2848 H   0  0  0  0  0  0  0  0  0  0  0  0
    0.5993   25.1268  -28.2546 H   0  0  0  0  0  0  0  0  0  0  0  0
    0.0418   26.4554  -26.2283 H   0  0  0  0  0  0  0  0  0  0  0  0
   -2.2543   26.3849  -25.2751 H   0  0  0  0  0  0  0  0  0  0  0  0
   -4.2984   24.9825  -25.0337 H   0  0  0  0  0  0  0  0  0  0  0  0
   -4.9021   25.8922  -26.4602 H   0  0  0  0  0  0  0  0  0  0  0  0
   -4.9359   24.0962  -26.4602 H   0  0  0  0  0  0  0  0  0  0  0  0
   -2.5211   22.2955  -31.2480 H   0  0  0  0  0  0  0  0  0  0  0  0
   -2.7206   20.3915  -32.8431 H   0  0  0  0  0  0  0  0  0  0  0  0
   -3.4919   15.7807  -34.6176 H   0  0  0  0  0  0  0  0  0  0  0  0
   -4.5492   15.8051  -36.0696 H   0  0  0  0  0  0  0  0  0  0  0  0
   -3.0022   16.7181  -36.0696 H   0  0  0  0  0  0  0  0  0  0  0  0
   -7.0379   20.7151  -32.6810 H   0  0  0  0  0  0  0  0  0  0  0  0
   -6.8325   22.6174  -31.0846 H   0  0  0  0  0  0  0  0  0  0  0  0
  1  2  1  0
  2  3  1  0
  3  4  1  0
  4  5  2  0
  5  6  1  0
  5  7  1  0
  7  8  2  0
  8  9  1  0
  9 10  2  0
 10 11  1  0
  3 12  1  0
 12 13  2  0
 12 14  2  0
 12 15  1  0
 15 16  2  0
 16 17  1  0
 17 18  2  0
 18 19  1  0
 19 20  2  0
 20 21  1  0
 21 22  2  0
 22 23  1  0
 22 24  1  0
 18 25  1  0
 25 26  2  0
 10  4  1  0
 26 15  1  0
 24 19  1  0
  1 27  1  0
  1 28  1  0
  1 29  1  0
  2 30  1  0
  2 31  1  0
  6 32  1  0
  6 33  1  0
  6 34  1  0
  7 35  1  0
  8 36  1  0
  9 37  1  0
 11 38  1  0
 11 39  1  0
 11 40  1  0
 16 41  1  0
 17 42  1  0
 23 43  1  0
 23 44  1  0
 23 45  1  0
 25 46  1  0
 26 47  1  0
M  END
>  <UniqueID>  (23) 
22

>  <SMILES>  (23) 
CCN(c1c(C)cccc1C)S(=O)(=O)c1ccc(-c2nnc(C)o2)cc1

>  <Energy>  (23) 
84.64178909327644

>  <Genealogy>  (23) 
CCN(c1c(C)cccc1C)S(=O)(=O)c1ccc(-c2nnc(C)o2)cc1 (3D coordinates assigned)
CCN(c1c(C)cccc1C)S(=O)(=O)c1ccc(-c2nnc(C)o2)cc1 (optimized conformer: 84.64178909327644 kcal/mol)

>  <smiles>  (23) 
CCN(c1c(C)cccc1C)S(=O)(=O)c1ccc(-c2nnc(C)o2)cc1

>  <score_type>  (23) 
oracle

>  <origin>  (23) 
adgpu

>  <m_score__min__energy>  (23) 
-8.5

>  <m_primary>  (23) 
energy

$$$$
23:0
     RDKit          3D

 38 41  0  0  0  0  0  0  0  0999 V2000
   -3.3190   25.5670  -28.6550 H   0  0  0  0  0  0  0  0  0  0  0  0
   -2.7940   24.9240  -29.2900 N   0  0  0  0  0  0  0  0  0  0  0  0
   -3.4090   24.1180  -30.0920 C   0  0  0  0  0  0  0  0  0  0  0  0
   -4.7790   24.0930  -30.1270 N   0  0  0  0  0  0  0  0  0  0  0  0
   -5.4630   23.2510  -30.9570 C   0  0  0  0  0  0  0  0  0  0  0  0
   -6.8910   23.3130  -31.0000 N   0  0  0  0  0  0  0  0  0  0  0  0
   -7.6690   22.6720  -29.9360 C   0  0  0  0  0  0  0  0  0  0  0  0
   -6.9813   22.2822  -29.1710 H   0  0  0  0  0  0  0  0  0  0  0  0
   -8.3472   23.4181  -29.4962 H   0  0  0  0  0  0  0  0  0  0  0  0
   -8.5110   21.5090  -30.4990 C   0  0  0  0  0  0  0  0  0  0  0  0
   -7.9453   20.5748  -30.3672 H   0  0  0  0  0  0  0  0  0  0  0  0
   -9.4627   21.5040  -29.9474 H   0  0  0  0  0  0  0  0  0  0  0  0
   -8.8420   21.6560  -31.9310 N   0  0  0  0  0  0  0  0  0  0  0  0
   -9.7680   21.2000  -32.1050 H   0  0  0  0  0  0  0  0  0  0  0  0
   -8.9400   23.0610  -32.3430 C   0  0  0  0  0  0  0  0  0  0  0  0
   -9.3006   23.1161  -33.3808 H   0  0  0  0  0  0  0  0  0  0  0  0
   -9.6447   23.5913  -31.6856 H   0  0  0  0  0  0  0  0  0  0  0  0
   -7.5570   23.7100  -32.2460 C   0  0  0  0  0  0  0  0  0  0  0  0
   -6.9453   23.3889  -33.1020 H   0  0  0  0  0  0  0  0  0  0  0  0
   -7.6750   24.8036  -32.2543 H   0  0  0  0  0  0  0  0  0  0  0  0
   -4.7100   22.4090  -31.7860 C   0  0  0  0  0  0  0  0  0  0  0  0
   -3.3530   22.4620  -31.7390 C   0  0  0  0  0  0  0  0  0  0  0  0
   -2.7960   21.5760  -32.5820 N   0  0  0  0  0  0  0  0  0  0  0  0
   -3.8810   20.9810  -33.1410 C   0  0  0  0  0  0  0  0  0  0  0  0
   -3.8082   20.1830  -33.8946 H   0  0  0  0  0  0  0  0  0  0  0  0
   -5.0650   21.4640  -32.6820 N   0  0  0  0  0  0  0  0  0  0  0  0
   -6.3810   20.9120  -33.0080 C   0  0  0  0  0  0  0  0  0  0  0  0
   -7.1347   21.3665  -32.3481 H   0  0  0  0  0  0  0  0  0  0  0  0
   -6.6031   21.1373  -34.0615 H   0  0  0  0  0  0  0  0  0  0  0  0
   -6.4030   19.4200  -32.8240 C   0  0  0  0  0  0  0  0  0  0  0  0
   -6.2590   18.5330  -33.8870 C   0  0  0  0  0  0  0  0  0  0  0  0
   -6.0757   18.8067  -34.9365 H   0  0  0  0  0  0  0  0  0  0  0  0
   -6.4140   16.9710  -33.2870 S   0  0  0  0  0  0  0  0  0  0  0  0
   -6.6760   17.3970  -31.6830 C   0  0  0  0  0  0  0  0  0  0  0  0
   -6.8409   16.7002  -30.8480 H   0  0  0  0  0  0  0  0  0  0  0  0
   -6.6480   18.7810  -31.5960 C   0  0  0  0  0  0  0  0  0  0  0  0
   -6.8030   19.3276  -30.6541 H   0  0  0  0  0  0  0  0  0  0  0  0
   -2.6850   23.2960  -30.9070 N   0  0  0  0  0  0  0  0  0  0  0  0
  1  2  1  0
  2  3  2  0
  3  4  1  0
  4  5  2  0
  5  6  1  0
  6  7  1  0
  7  8  1  0
  7  9  1  0
  7 10  1  0
 10 11  1  0
 10 12  1  0
 10 13  1  0
 13 14  1  0
 13 15  1  0
 15 16  1  0
 15 17  1  0
 15 18  1  0
 18 19  1  0
 18 20  1  0
  5 21  1  0
 21 22  2  0
 22 23  1  0
 23 24  2  0
 24 25  1  0
 24 26  1  0
 26 27  1  0
 27 28  1  0
 27 29  1  0
 27 30  1  0
 30 31  2  0
 31 32  1  0
 31 33  1  0
 33 34  1  0
 34 35  1  0
 34 36  2  0
 36 37  1  0
 22 38  1  0
 38  3  1  0
 18  6  1  0
 26 21  1  0
 36 30  1  0
M  CHG  1  38  -1
M  END
>  <UniqueID>  (24) 
23

>  <SMILES>  (24) 
[H]/N=c1\nc(N2CCNCC2)c2c(ncn2Cc2ccsc2)[n-]1

>  <Energy>  (24) 
117.18975106741023

>  <Genealogy>  (24) 
N=c1nc(N2CCNCC2)c2c(ncn2Cc2ccsc2)[n-]1 (protonated)
[H]/N=c1\nc(N2CCNCC2)c2c(ncn2Cc2ccsc2)[n-]1 (cis-trans isomerization)
[H]/N=c1\nc(N2CCNCC2)c2c(ncn2Cc2ccsc2)[n-]1 (3D coordinates assigned)
[H]/N=c1\nc(N2CCNCC2)c2c(ncn2Cc2ccsc2)[n-]1 (nonaromatic ring conformer: 117.18975106741023 kcal/mol)

>  <smiles>  (24) 
N=c1nc(N2CCNCC2)c2c(ncn2Cc2ccsc2)[nH]1

>  <score_type>  (24) 
oracle

>  <origin>  (24) 
adgpu

>  <m_score__min__energy>  (24) 
-8.3399999999999999

>  <m_primary>  (24) 
energy

$$$$
24:0
     RDKit          3D

 45 48  0  0  0  0  0  0  0  0999 V2000
   -3.9860   21.0330  -30.8850 O   0  0  0  0  0  0  0  0  0  0  0  0
   -4.0490   21.3850  -32.0940 C   0  0  0  0  0  0  0  0  0  0  0  0
   -5.0460   22.3260  -32.5170 N   0  0  0  0  0  0  0  0  0  0  0  0
   -6.1250   22.7700  -31.6400 C   0  0  0  0  0  0  0  0  0  0  0  0
   -7.3040   21.8430  -31.7540 C   0  0  0  0  0  0  0  0  0  0  0  0
   -7.1050   20.4560  -31.8060 C   0  0  0  0  0  0  0  0  0  0  0  0
   -8.2080   19.6080  -31.9320 C   0  0  0  0  0  0  0  0  0  0  0  0
   -9.4630   20.1260  -32.0060 N   0  0  0  0  0  0  0  0  0  0  0  0
   -9.6840   21.4670  -31.9600 C   0  0  0  0  0  0  0  0  0  0  0  0
   -8.6090   22.3500  -31.8350 C   0  0  0  0  0  0  0  0  0  0  0  0
   -3.0510   20.8590  -33.0460 C   0  0  0  0  0  0  0  0  0  0  0  0
   -1.8810   21.5060  -33.3900 C   0  0  0  0  0  0  0  0  0  0  0  0
   -1.3190   20.7100  -34.3760 C   0  0  0  0  0  0  0  0  0  0  0  0
   -0.0540   20.9580  -35.1100 C   0  0  0  0  0  0  0  0  0  0  0  0
    0.7950   19.8990  -35.4870 C   0  0  0  0  0  0  0  0  0  0  0  0
    1.9830   20.1540  -36.1780 C   0  0  0  0  0  0  0  0  0  0  0  0
    2.3380   21.4650  -36.5030 C   0  0  0  0  0  0  0  0  0  0  0  0
    3.5200   21.7160  -37.1900 O   0  0  0  0  0  0  0  0  0  0  0  0
    1.5050   22.5240  -36.1360 C   0  0  0  0  0  0  0  0  0  0  0  0
    0.3160   22.2750  -35.4440 C   0  0  0  0  0  0  0  0  0  0  0  0
   -2.1100   19.6390  -34.5930 N   0  0  0  0  0  0  0  0  0  0  0  0
   -3.1530   19.7270  -33.7820 N   0  0  0  0  0  0  0  0  0  0  0  0
   -4.1480   18.6920  -33.6910 C   0  0  0  0  0  0  0  0  0  0  0  0
   -3.8380   17.4800  -33.0550 C   0  0  0  0  0  0  0  0  0  0  0  0
   -4.8030   16.4740  -32.9460 C   0  0  0  0  0  0  0  0  0  0  0  0
   -6.0870   16.6760  -33.4590 C   0  0  0  0  0  0  0  0  0  0  0  0
   -6.4100   17.8880  -34.0740 C   0  0  0  0  0  0  0  0  0  0  0  0
   -5.4490   18.8970  -34.1830 C   0  0  0  0  0  0  0  0  0  0  0  0
   -4.9860   22.7450  -33.4730 H   0  0  0  0  0  0  0  0  0  0  0  0
   -5.7677   22.7768  -30.5997 H   0  0  0  0  0  0  0  0  0  0  0  0
   -6.4352   23.7824  -31.9380 H   0  0  0  0  0  0  0  0  0  0  0  0
   -6.0887   20.0390  -31.7481 H   0  0  0  0  0  0  0  0  0  0  0  0
   -8.0609   18.5186  -31.9714 H   0  0  0  0  0  0  0  0  0  0  0  0
  -10.7108   21.8569  -32.0213 H   0  0  0  0  0  0  0  0  0  0  0  0
   -8.7848   23.4353  -31.8003 H   0  0  0  0  0  0  0  0  0  0  0  0
   -1.4835   22.4437  -32.9745 H   0  0  0  0  0  0  0  0  0  0  0  0
    0.5210   18.8637  -35.2357 H   0  0  0  0  0  0  0  0  0  0  0  0
    2.6398   19.3201  -36.4665 H   0  0  0  0  0  0  0  0  0  0  0  0
    1.7850   23.5565  -36.3920 H   0  0  0  0  0  0  0  0  0  0  0  0
   -0.3353   23.1141  -35.1583 H   0  0  0  0  0  0  0  0  0  0  0  0
   -2.8316   17.3208  -32.6405 H   0  0  0  0  0  0  0  0  0  0  0  0
   -4.5510   15.5221  -32.4557 H   0  0  0  0  0  0  0  0  0  0  0  0
   -6.8430   15.8811  -33.3786 H   0  0  0  0  0  0  0  0  0  0  0  0
   -7.4224   18.0485  -34.4732 H   0  0  0  0  0  0  0  0  0  0  0  0
   -5.7115   19.8550  -34.6555 H   0  0  0  0  0  0  0  0  0  0  0  0
  1  2  2  0
  2  3  1  0
  3  4  1  0
  4  5  1  0
  5  6  2  0
  6  7  1  0
  7  8  2  0
  8  9  1  0
  9 10  2  0
  2 11  1  0
 11 12  2  0
 12 13  1  0
 13 14  1  0
 14 15  2  0
 15 16  1  0
 16 17  2  0
 17 18  1  0
 17 19  1  0
 19 20  2  0
 13 21  2  0
 21 22  1  0
 22 23  1  0
 23 24  2  0
 24 25  1  0
 25 26  2  0
 26 27  1  0
 27 28  2  0
 10  5  1  0
 22 11  1  0
 28 23  1  0
 20 14  1  0
  3 29  1  0
  4 30  1  0
  4 31  1  0
  6 32  1  0
  7 33  1  0
  9 34  1  0
 10 35  1  0
 12 36  1  0
 15 37  1  0
 16 38  1  0
 19 39  1  0
 20 40  1  0
 24 41  1  0
 25 42  1  0
 26 43  1  0
 27 44  1  0
 28 45  1  0
M  CHG  1  18  -1
M  END
>  <UniqueID>  (25) 
24

>  <SMILES>  (25) 
O=C(NCc1ccncc1)c1cc(-c2ccc([O-])cc2)nn1-c1ccccc1

>  <Energy>  (25) 
87.09019855747397

>  <Genealogy>  (25) 
O=C(NCc1ccncc1)c1cc(-c2ccc([O-])cc2)nn1-c1ccccc1 (protonated)
O=C(NCc1ccncc1)c1cc(-c2ccc([O-])cc2)nn1-c1ccccc1 (3D coordinates assigned)
O=C(NCc1ccncc1)c1cc(-c2ccc([O-])cc2)nn1-c1ccccc1 (optimized conformer: 87.09019855747397 kcal/mol)

>  <smiles>  (25) 
O=C(NCc1ccncc1)c1cc(-c2ccc(O)cc2)nn1-c1ccccc1

>  <score_type>  (25) 
oracle

>  <origin>  (25) 
adgpu

>  <m_score__min__energy>  (25) 
-9.2400000000000002

>  <m_primary>  (25) 
energy

$$$$
25:0
     RDKit          3D

 47 51  0  0  0  0  0  0  0  0999 V2000
   -3.5480   21.2880  -31.4250 C   0  0  0  0  0  0  0  0  0  0  0  0
   -3.9000   22.6410  -30.9940 N   0  0  0  0  0  0  0  0  0  0  0  0
   -3.0920   23.5950  -30.4890 C   0  0  0  0  0  0  0  0  0  0  0  0
   -1.3560   23.3690  -30.0850 S   0  0  0  0  0  0  0  0  0  0  0  0
   -1.6260   23.2750  -28.2790 C   0  0  0  0  0  0  0  0  0  0  0  0
   -1.4360   24.6120  -27.6330 C   0  0  0  0  0  0  0  0  0  0  0  0
   -1.6540   24.8200  -26.3080 N   0  0  0  0  0  0  0  0  0  0  0  0
   -1.2850   26.0980  -26.1520 C   0  0  0  0  0  0  0  0  0  0  0  0
   -1.2660   26.8410  -24.9730 C   0  0  0  0  0  0  0  0  0  0  0  0
   -0.8020   28.1670  -25.0460 C   0  0  0  0  0  0  0  0  0  0  0  0
   -0.3730   28.7080  -26.2800 C   0  0  0  0  0  0  0  0  0  0  0  0
   -0.3960   27.9220  -27.4480 C   0  0  0  0  0  0  0  0  0  0  0  0
   -0.8640   26.6150  -27.3380 C   0  0  0  0  0  0  0  0  0  0  0  0
   -0.9420   25.6870  -28.3020 N   0  0  0  0  0  0  0  0  0  0  0  0
   -3.7640   24.7360  -30.2500 N   0  0  0  0  0  0  0  0  0  0  0  0
   -5.0250   24.5210  -30.5940 N   0  0  0  0  0  0  0  0  0  0  0  0
   -5.1050   23.2500  -31.0370 C   0  0  0  0  0  0  0  0  0  0  0  0
   -6.3680   22.6150  -31.4470 C   0  0  0  0  0  0  0  0  0  0  0  0
   -7.5740   23.2640  -31.6620 C   0  0  0  0  0  0  0  0  0  0  0  0
   -8.4600   22.2520  -31.9690 C   0  0  0  0  0  0  0  0  0  0  0  0
   -7.7950   21.0840  -31.9260 N   0  0  0  0  0  0  0  0  0  0  0  0
   -8.4680   19.5160  -32.2060 S   0  0  0  0  0  0  0  0  0  0  0  0
   -8.8380   18.8920  -30.8890 O   0  0  0  0  0  0  0  0  0  0  0  0
   -9.6970   19.6340  -33.0620 O   0  0  0  0  0  0  0  0  0  0  0  0
   -7.2720   18.5150  -33.0290 C   0  0  0  0  0  0  0  0  0  0  0  0
   -6.3600   19.1120  -33.9110 C   0  0  0  0  0  0  0  0  0  0  0  0
   -5.3880   18.3350  -34.5490 C   0  0  0  0  0  0  0  0  0  0  0  0
   -5.3280   16.9580  -34.3170 C   0  0  0  0  0  0  0  0  0  0  0  0
   -4.3870   16.2060  -34.9380 F   0  0  0  0  0  0  0  0  0  0  0  0
   -6.2350   16.3590  -33.4370 C   0  0  0  0  0  0  0  0  0  0  0  0
   -7.2030   17.1340  -32.7900 C   0  0  0  0  0  0  0  0  0  0  0  0
   -6.5290   21.2900  -31.6110 N   0  0  0  0  0  0  0  0  0  0  0  0
   -3.3829   20.6532  -30.5420 H   0  0  0  0  0  0  0  0  0  0  0  0
   -4.3675   20.8706  -32.0286 H   0  0  0  0  0  0  0  0  0  0  0  0
   -2.6290   21.3229  -32.0286 H   0  0  0  0  0  0  0  0  0  0  0  0
   -2.6515   22.9263  -28.0872 H   0  0  0  0  0  0  0  0  0  0  0  0
   -0.8922   22.5749  -27.8530 H   0  0  0  0  0  0  0  0  0  0  0  0
   -1.6017   26.4063  -24.0199 H   0  0  0  0  0  0  0  0  0  0  0  0
   -0.7727   28.7867  -24.1377 H   0  0  0  0  0  0  0  0  0  0  0  0
   -0.0194   29.7485  -26.3277 H   0  0  0  0  0  0  0  0  0  0  0  0
   -0.0564   28.3260  -28.4131 H   0  0  0  0  0  0  0  0  0  0  0  0
   -7.7785   24.3431  -31.6014 H   0  0  0  0  0  0  0  0  0  0  0  0
   -9.5263   22.3787  -32.2077 H   0  0  0  0  0  0  0  0  0  0  0  0
   -6.4092   20.1942  -34.1015 H   0  0  0  0  0  0  0  0  0  0  0  0
   -4.6696   18.8082  -35.2345 H   0  0  0  0  0  0  0  0  0  0  0  0
   -6.1870   15.2755  -33.2532 H   0  0  0  0  0  0  0  0  0  0  0  0
   -7.9106   16.6607  -32.0934 H   0  0  0  0  0  0  0  0  0  0  0  0
  1  2  1  0
  2  3  1  0
  3  4  1  0
  4  5  1  0
  5  6  1  0
  6  7  2  0
  7  8  1  0
  8  9  2  0
  9 10  1  0
 10 11  2  0
 11 12  1  0
 12 13  2  0
 13 14  1  0
  3 15  2  0
 15 16  1  0
 16 17  2  0
 17 18  1  0
 18 19  1  0
 19 20  2  0
 20 21  1  0
 21 22  1  0
 22 23  2  0
 22 24  2  0
 22 25  1  0
 25 26  2  0
 26 27  1  0
 27 28  2  0
 28 29  1  0
 28 30  1  0
 30 31  2  0
 21 32  1  0
 17  2  1  0
 32 18  2  0
 14  6  1  0
 31 25  1  0
 13  8  1  0
  1 33  1  0
  1 34  1  0
  1 35  1  0
  5 36  1  0
  5 37  1  0
  9 38  1  0
 10 39  1  0
 11 40  1  0
 12 41  1  0
 19 42  1  0
 20 43  1  0
 26 44  1  0
 27 45  1  0
 30 46  1  0
 31 47  1  0
M  CHG  1  14  -1
M  END
>  <UniqueID>  (26) 
25

>  <SMILES>  (26) 
Cn1c(SCc2nc3ccccc3[n-]2)nnc1-c1ccn(S(=O)(=O)c2ccc(F)cc2)n1

>  <Energy>  (26) 
144.45061246053942

>  <Genealogy>  (26) 
Cn1c(SCc2nc3ccccc3[n-]2)nnc1-c1ccn(S(=O)(=O)c2ccc(F)cc2)n1 (protonated)
Cn1c(SCc2nc3ccccc3[n-]2)nnc1-c1ccn(S(=O)(=O)c2ccc(F)cc2)n1 (3D coordinates assigned)
Cn1c(SCc2nc3ccccc3[n-]2)nnc1-c1ccn(S(=O)(=O)c2ccc(F)cc2)n1 (optimized conformer: 144.45061246053942 kcal/mol)

>  <smiles>  (26) 
Cn1c(SCc2nc3ccccc3[nH]2)nnc1-c1ccn(S(=O)(=O)c2ccc(F)cc2)n1

>  <score_type>  (26) 
oracle

>  <origin>  (26) 
adgpu

>  <m_score__min__energy>  (26) 
-11.34

>  <m_primary>  (26) 
energy

$$$$
26:0
     RDKit          3D

 52 55  0  0  0  0  0  0  0  0999 V2000
   -1.9250   14.3560  -34.3190 C   0  0  0  0  0  0  0  0  0  0  0  0
   -2.1880   15.5170  -35.1000 O   0  0  0  0  0  0  0  0  0  0  0  0
   -2.8640   16.6530  -34.6280 C   0  0  0  0  0  0  0  0  0  0  0  0
   -4.2260   16.9080  -34.9480 C   0  0  0  0  0  0  0  0  0  0  0  0
   -4.8750   18.0540  -34.4600 C   0  0  0  0  0  0  0  0  0  0  0  0
   -4.1520   18.9200  -33.6410 C   0  0  0  0  0  0  0  0  0  0  0  0
   -4.5180   20.0980  -33.0110 C   0  0  0  0  0  0  0  0  0  0  0  0
   -5.8340   20.8230  -33.1330 C   0  0  0  0  0  0  0  0  0  0  0  0
   -6.7420   20.4600  -32.0290 N   0  0  0  0  0  0  0  0  0  0  0  0
   -8.1320   20.8710  -32.3430 C   0  0  0  0  0  0  0  0  0  0  0  0
   -9.1520   20.1490  -31.4590 C   0  0  0  0  0  0  0  0  0  0  0  0
   -9.1050   18.6280  -31.6930 C   0  0  0  0  0  0  0  0  0  0  0  0
   -7.7250   18.1460  -32.1750 C   0  0  0  0  0  0  0  0  0  0  0  0
   -6.6050   19.0360  -31.6200 C   0  0  0  0  0  0  0  0  0  0  0  0
   -3.3710   20.5210  -32.3300 C   0  0  0  0  0  0  0  0  0  0  0  0
   -3.2170   21.7690  -31.5600 C   0  0  0  0  0  0  0  0  0  0  0  0
   -4.2450   22.7250  -31.5230 C   0  0  0  0  0  0  0  0  0  0  0  0
   -4.0850   23.9030  -30.7870 C   0  0  0  0  0  0  0  0  0  0  0  0
   -2.9040   24.1280  -30.0710 C   0  0  0  0  0  0  0  0  0  0  0  0
   -2.7460   25.2990  -29.3430 O   0  0  0  0  0  0  0  0  0  0  0  0
   -1.8860   23.1690  -30.0870 C   0  0  0  0  0  0  0  0  0  0  0  0
   -2.0440   21.9900  -30.8230 C   0  0  0  0  0  0  0  0  0  0  0  0
   -2.3510   19.6550  -32.5340 N   0  0  0  0  0  0  0  0  0  0  0  0
   -2.8360   18.6870  -33.3320 C   0  0  0  0  0  0  0  0  0  0  0  0
   -2.1560   17.5650  -33.8200 C   0  0  0  0  0  0  0  0  0  0  0  0
   -0.8120   17.3390  -33.5170 O   0  0  0  0  0  0  0  0  0  0  0  0
    0.2180   17.5820  -34.4670 C   0  0  0  0  0  0  0  0  0  0  0  0
   -1.9830   14.6118  -33.2507 H   0  0  0  0  0  0  0  0  0  0  0  0
   -2.6704   13.5811  -34.5514 H   0  0  0  0  0  0  0  0  0  0  0  0
   -0.9185   13.9780  -34.5514 H   0  0  0  0  0  0  0  0  0  0  0  0
   -4.7771   16.2001  -35.5845 H   0  0  0  0  0  0  0  0  0  0  0  0
   -5.9241   18.2623  -34.7168 H   0  0  0  0  0  0  0  0  0  0  0  0
   -5.6511   21.9074  -33.1065 H   0  0  0  0  0  0  0  0  0  0  0  0
   -6.3059   20.5348  -34.0839 H   0  0  0  0  0  0  0  0  0  0  0  0
   -8.2272   21.9552  -32.1838 H   0  0  0  0  0  0  0  0  0  0  0  0
   -8.3387   20.6054  -33.3903 H   0  0  0  0  0  0  0  0  0  0  0  0
   -8.9248   20.3578  -30.4032 H   0  0  0  0  0  0  0  0  0  0  0  0
  -10.1580   20.5125  -31.7155 H   0  0  0  0  0  0  0  0  0  0  0  0
   -9.3460   18.1185  -30.7483 H   0  0  0  0  0  0  0  0  0  0  0  0
   -9.8351   18.3892  -32.4803 H   0  0  0  0  0  0  0  0  0  0  0  0
   -7.5657   17.1127  -31.8331 H   0  0  0  0  0  0  0  0  0  0  0  0
   -7.7007   18.1975  -33.2735 H   0  0  0  0  0  0  0  0  0  0  0  0
   -6.6258   18.9826  -30.5215 H   0  0  0  0  0  0  0  0  0  0  0  0
   -5.6540   18.6645  -32.0295 H   0  0  0  0  0  0  0  0  0  0  0  0
   -5.1795   22.5464  -32.0751 H   0  0  0  0  0  0  0  0  0  0  0  0
   -4.8886   24.6539  -30.7708 H   0  0  0  0  0  0  0  0  0  0  0  0
   -0.9595   23.3422  -29.5198 H   0  0  0  0  0  0  0  0  0  0  0  0
   -1.2455   21.2334  -30.8239 H   0  0  0  0  0  0  0  0  0  0  0  0
   -1.3870   19.7260  -32.1400 H   0  0  0  0  0  0  0  0  0  0  0  0
    1.1578   17.8037  -33.9402 H   0  0  0  0  0  0  0  0  0  0  0  0
    0.3527   16.6910  -35.0978 H   0  0  0  0  0  0  0  0  0  0  0  0
   -0.0598   18.4393  -35.0978 H   0  0  0  0  0  0  0  0  0  0  0  0
  1  2  1  0
  2  3  1  0
  3  4  2  0
  4  5  1  0
  5  6  2  0
  6  7  1  0
  7  8  1  0
  8  9  1  0
  9 10  1  0
 10 11  1  0
 11 12  1  0
 12 13  1  0
 13 14  1  0
  7 15  2  0
 15 16  1  0
 16 17  2  0
 17 18  1  0
 18 19  2  0
 19 20  1  0
 19 21  1  0
 21 22  2  0
 15 23  1  0
 23 24  1  0
 24 25  2  0
 25 26  1  0
 26 27  1  0
 25  3  1  0
 24  6  1  0
 14  9  1  0
 22 16  1  0
  1 28  1  0
  1 29  1  0
  1 30  1  0
  4 31  1  0
  5 32  1  0
  8 33  1  0
  8 34  1  0
 10 35  1  0
 10 36  1  0
 11 37  1  0
 11 38  1  0
 12 39  1  0
 12 40  1  0
 13 41  1  0
 13 42  1  0
 14 43  1  0
 14 44  1  0
 17 45  1  0
 18 46  1  0
 21 47  1  0
 22 48  1  0
 23 49  1  0
 27 50  1  0
 27 51  1  0
 27 52  1  0
M  CHG  1  20  -1
M  END
>  <UniqueID>  (27) 
26

>  <SMILES>  (27) 
COc1ccc2c(CN3CCCCC3)c(-c3ccc([O-])cc3)[nH]c2c1OC

>  <Energy>  (27) 
104.37869605038954

>  <Genealogy>  (27) 
COc1ccc2c(CN3CCCCC3)c(-c3ccc([O-])cc3)[nH]c2c1OC (protonated)
COc1ccc2c(CN3CCCCC3)c(-c3ccc([O-])cc3)[nH]c2c1OC (3D coordinates assigned)
COc1ccc2c(CN3CCCCC3)c(-c3ccc([O-])cc3)[nH]c2c1OC (nonaromatic ring conformer: 104.37869605038954 kcal/mol)

>  <smiles>  (27) 
COc1ccc2c(CN3CCCCC3)c(-c3ccc(O)cc3)[nH]c2c1OC

>  <score_type>  (27) 
oracle

>  <origin>  (27) 
adgpu

>  <m_score__min__energy>  (27) 
-10.050000000000001

>  <m_primary>  (27) 
energy

$$$$
27:0
     RDKit          3D

 33 34  0  0  0  0  0  0  0  0999 V2000
   -9.4580   20.3590  -32.3520 C   0  0  0  0  0  0  0  0  0  0  0  0
   -8.8670   21.5750  -31.7080 C   0  0  0  0  0  0  0  0  0  0  0  0
   -9.6030   22.2840  -30.9680 O   0  0  0  0  0  0  0  0  0  0  0  0
   -7.4430   21.9420  -31.8810 C   0  0  0  0  0  0  0  0  0  0  0  0
   -6.9450   23.0600  -31.1880 C   0  0  0  0  0  0  0  0  0  0  0  0
   -5.5890   23.4030  -31.2610 C   0  0  0  0  0  0  0  0  0  0  0  0
   -4.9780   24.7860  -30.3590 S   0  0  0  0  0  0  0  0  0  0  0  0
   -5.2800   24.5590  -28.6720 N   0  0  0  0  0  0  0  0  0  0  0  0
   -5.6620   26.0400  -30.8270 O   0  0  0  0  0  0  0  0  0  0  0  0
   -3.5000   24.9320  -30.5860 O   0  0  0  0  0  0  0  0  0  0  0  0
   -4.7160   22.6170  -32.0200 C   0  0  0  0  0  0  0  0  0  0  0  0
   -5.2000   21.5180  -32.7320 C   0  0  0  0  0  0  0  0  0  0  0  0
   -6.5600   21.1910  -32.6970 C   0  0  0  0  0  0  0  0  0  0  0  0
   -7.0030   20.1220  -33.4850 O   0  0  0  0  0  0  0  0  0  0  0  0
   -6.4160   18.8480  -33.4980 C   0  0  0  0  0  0  0  0  0  0  0  0
   -5.6810   18.3710  -34.6010 C   0  0  0  0  0  0  0  0  0  0  0  0
   -5.1150   17.0930  -34.5710 C   0  0  0  0  0  0  0  0  0  0  0  0
   -5.2710   16.2840  -33.4420 C   0  0  0  0  0  0  0  0  0  0  0  0
   -4.7220   15.0450  -33.4150 F   0  0  0  0  0  0  0  0  0  0  0  0
   -5.9890   16.7550  -32.3390 C   0  0  0  0  0  0  0  0  0  0  0  0
   -6.5560   18.0330  -32.3650 C   0  0  0  0  0  0  0  0  0  0  0  0
   -7.2540   18.4790  -31.2910 F   0  0  0  0  0  0  0  0  0  0  0  0
   -9.7977   19.6602  -31.5734 H   0  0  0  0  0  0  0  0  0  0  0  0
  -10.3130   20.6544  -32.9778 H   0  0  0  0  0  0  0  0  0  0  0  0
   -8.6974   19.8692  -32.9778 H   0  0  0  0  0  0  0  0  0  0  0  0
   -7.6286   23.6723  -30.5815 H   0  0  0  0  0  0  0  0  0  0  0  0
   -6.3180   24.5250  -28.5500 H   0  0  0  0  0  0  0  0  0  0  0  0
   -4.9490   25.4220  -28.1850 H   0  0  0  0  0  0  0  0  0  0  0  0
   -3.6450   22.8654  -32.0561 H   0  0  0  0  0  0  0  0  0  0  0  0
   -4.5065   20.9041  -33.3254 H   0  0  0  0  0  0  0  0  0  0  0  0
   -5.5519   19.0066  -35.4895 H   0  0  0  0  0  0  0  0  0  0  0  0
   -4.5462   16.7237  -35.4370 H   0  0  0  0  0  0  0  0  0  0  0  0
   -6.1082   16.1194  -31.4492 H   0  0  0  0  0  0  0  0  0  0  0  0
  1  2  1  0
  2  3  2  0
  2  4  1  0
  4  5  2  0
  5  6  1  0
  6  7  1  0
  7  8  1  0
  7  9  2  0
  7 10  2  0
  6 11  2  0
 11 12  1  0
 12 13  2  0
 13 14  1  0
 14 15  1  0
 15 16  2  0
 16 17  1  0
 17 18  2  0
 18 19  1  0
 18 20  1  0
 20 21  2  0
 21 22  1  0
 13  4  1  0
 21 15  1  0
  1 23  1  0
  1 24  1  0
  1 25  1  0
  5 26  1  0
  8 27  1  0
  8 28  1  0
 11 29  1  0
 12 30  1  0
 16 31  1  0
 17 32  1  0
 20 33  1  0
M  END
>  <UniqueID>  (28) 
27

>  <SMILES>  (28) 
CC(=O)c1cc(S(N)(=O)=O)ccc1Oc1ccc(F)cc1F

>  <Energy>  (28) 
43.34965298557224

>  <Genealogy>  (28) 
CC(=O)c1cc(S(N)(=O)=O)ccc1Oc1ccc(F)cc1F (3D coordinates assigned)
CC(=O)c1cc(S(N)(=O)=O)ccc1Oc1ccc(F)cc1F (optimized conformer: 43.34965298557224 kcal/mol)

>  <smiles>  (28) 
CC(=O)c1cc(S(N)(=O)=O)ccc1Oc1ccc(F)cc1F

>  <score_type>  (28) 
oracle

>  <origin>  (28) 
adgpu

>  <m_score__min__energy>  (28) 
-9.0399999999999991

>  <m_primary>  (28) 
energy

$$$$
28:0
     RDKit          3D

 48 51  0  0  0  0  0  0  0  0999 V2000
   -6.4390   25.2060  -29.7100 O   0  0  0  0  0  0  0  0  0  0  0  0
   -5.7300   24.1630  -29.7080 C   0  0  0  0  0  0  0  0  0  0  0  0
   -6.2330   22.9650  -30.3200 N   0  0  0  0  0  0  0  0  0  0  0  0
   -7.6130   22.8780  -30.7910 C   0  0  0  0  0  0  0  0  0  0  0  0
   -7.8210   21.6290  -31.5860 C   0  0  0  0  0  0  0  0  0  0  0  0
   -6.8290   20.7930  -31.9480 N   0  0  0  0  0  0  0  0  0  0  0  0
   -7.5080   19.8650  -32.6570 C   0  0  0  0  0  0  0  0  0  0  0  0
   -6.8750   18.6930  -33.2980 C   0  0  0  0  0  0  0  0  0  0  0  0
   -5.9410   18.8630  -34.3330 C   0  0  0  0  0  0  0  0  0  0  0  0
   -5.3560   17.7420  -34.9260 C   0  0  0  0  0  0  0  0  0  0  0  0
   -5.6870   16.4940  -34.5030 N   0  0  0  0  0  0  0  0  0  0  0  0
   -6.5870   16.2980  -33.5020 C   0  0  0  0  0  0  0  0  0  0  0  0
   -7.1960   17.3910  -32.8820 C   0  0  0  0  0  0  0  0  0  0  0  0
   -8.8290   20.1340  -32.7200 N   0  0  0  0  0  0  0  0  0  0  0  0
   -8.9810   21.2340  -32.0480 O   0  0  0  0  0  0  0  0  0  0  0  0
   -4.3830   24.2020  -29.0890 C   0  0  0  0  0  0  0  0  0  0  0  0
   -4.2510   24.1920  -27.6890 C   0  0  0  0  0  0  0  0  0  0  0  0
   -2.9890   24.2260  -27.0930 C   0  0  0  0  0  0  0  0  0  0  0  0
   -1.8340   24.2670  -27.8850 C   0  0  0  0  0  0  0  0  0  0  0  0
   -0.2350   24.3020  -27.1310 S   0  0  0  0  0  0  0  0  0  0  0  0
    0.0240   22.9740  -26.4740 O   0  0  0  0  0  0  0  0  0  0  0  0
    0.8040   24.5010  -28.1990 O   0  0  0  0  0  0  0  0  0  0  0  0
   -0.0740   25.5670  -25.9370 N   0  0  0  0  0  0  0  0  0  0  0  0
   -0.9110   26.7250  -26.2480 C   0  0  0  0  0  0  0  0  0  0  0  0
   -1.1870   27.4230  -24.9250 C   0  0  0  0  0  0  0  0  0  0  0  0
   -0.9080   26.3800  -23.8530 C   0  0  0  0  0  0  0  0  0  0  0  0
   -0.4950   25.1270  -24.6090 C   0  0  0  0  0  0  0  0  0  0  0  0
   -1.9560   24.2530  -29.2810 C   0  0  0  0  0  0  0  0  0  0  0  0
   -3.2190   24.2210  -29.8790 C   0  0  0  0  0  0  0  0  0  0  0  0
   -5.5850   22.1610  -30.4840 H   0  0  0  0  0  0  0  0  0  0  0  0
   -8.2908   22.8719  -29.9246 H   0  0  0  0  0  0  0  0  0  0  0  0
   -7.8234   23.7459  -31.4333 H   0  0  0  0  0  0  0  0  0  0  0  0
   -5.6718   19.8733  -34.6746 H   0  0  0  0  0  0  0  0  0  0  0  0
   -4.6250   17.8699  -35.7380 H   0  0  0  0  0  0  0  0  0  0  0  0
   -6.8357   15.2760  -33.1801 H   0  0  0  0  0  0  0  0  0  0  0  0
   -7.9233   17.2328  -32.0721 H   0  0  0  0  0  0  0  0  0  0  0  0
   -5.1509   24.1570  -27.0573 H   0  0  0  0  0  0  0  0  0  0  0  0
   -2.9010   24.2206  -25.9965 H   0  0  0  0  0  0  0  0  0  0  0  0
   -0.3820   27.4038  -26.9332 H   0  0  0  0  0  0  0  0  0  0  0  0
   -1.8460   26.4204  -26.7409 H   0  0  0  0  0  0  0  0  0  0  0  0
   -0.5216   28.2901  -24.8010 H   0  0  0  0  0  0  0  0  0  0  0  0
   -2.2182   27.8017  -24.8692 H   0  0  0  0  0  0  0  0  0  0  0  0
   -0.0961   26.7157  -23.1911 H   0  0  0  0  0  0  0  0  0  0  0  0
   -1.7865   26.2029  -23.2151 H   0  0  0  0  0  0  0  0  0  0  0  0
    0.3376   24.6277  -24.0919 H   0  0  0  0  0  0  0  0  0  0  0  0
   -1.3244   24.4072  -24.6715 H   0  0  0  0  0  0  0  0  0  0  0  0
   -1.0532   24.2673  -29.9094 H   0  0  0  0  0  0  0  0  0  0  0  0
   -3.3035   24.2106  -30.9757 H   0  0  0  0  0  0  0  0  0  0  0  0
  1  2  2  0
  2  3  1  0
  3  4  1  0
  4  5  1  0
  5  6  2  0
  6  7  1  0
  7  8  1  0
  8  9  2  0
  9 10  1  0
 10 11  2  0
 11 12  1  0
 12 13  2  0
  7 14  2  0
 14 15  1  0
  2 16  1  0
 16 17  2  0
 17 18  1  0
 18 19  2  0
 19 20  1  0
 20 21  2  0
 20 22  2  0
 20 23  1  0
 23 24  1  0
 24 25  1  0
 25 26  1  0
 26 27  1  0
 19 28  1  0
 28 29  2  0
 15  5  1  0
 29 16  1  0
 13  8  1  0
 27 23  1  0
  3 30  1  0
  4 31  1  0
  4 32  1  0
  9 33  1  0
 10 34  1  0
 12 35  1  0
 13 36  1  0
 17 37  1  0
 18 38  1  0
 24 39  1  0
 24 40  1  0
 25 41  1  0
 25 42  1  0
 26 43  1  0
 26 44  1  0
 27 45  1  0
 27 46  1  0
 28 47  1  0
 29 48  1  0
M  END
>  <UniqueID>  (29) 
28

>  <SMILES>  (29) 
O=C(NCc1nc(-c2ccncc2)no1)c1ccc(S(=O)(=O)N2CCCC2)cc1

>  <Energy>  (29) 
86.45833865217541

>  <Genealogy>  (29) 
O=C(NCc1nc(-c2ccncc2)no1)c1ccc(S(=O)(=O)N2CCCC2)cc1 (3D coordinates assigned)
O=C(NCc1nc(-c2ccncc2)no1)c1ccc(S(=O)(=O)N2CCCC2)cc1 (nonaromatic ring conformer: 86.45833865217541 kcal/mol)

>  <smiles>  (29) 
O=C(NCc1nc(-c2ccncc2)no1)c1ccc(S(=O)(=O)N2CCCC2)cc1

>  <score_type>  (29) 
oracle

>  <origin>  (29) 
adgpu

>  <m_score__min__energy>  (29) 
-10.5

>  <m_primary>  (29) 
energy

$$$$
29:0
     RDKit          3D

 46 48  0  0  0  0  0  0  0  0999 V2000
   -4.2720   25.6120  -30.8410 O   0  0  0  0  0  0  0  0  0  0  0  0
   -3.6940   24.5700  -29.9250 S   0  0  0  0  0  0  0  0  0  0  0  0
   -4.6580   24.3360  -28.7960 O   0  0  0  0  0  0  0  0  0  0  0  0
   -2.1720   25.1320  -29.3030 N   0  0  0  0  0  0  0  0  0  0  0  0
   -1.9940   24.7350  -27.9040 C   0  0  0  0  0  0  0  0  0  0  0  0
   -1.7040   23.2640  -27.8390 C   0  0  0  0  0  0  0  0  0  0  0  0
   -0.4160   22.7730  -28.1100 C   0  0  0  0  0  0  0  0  0  0  0  0
   -0.1590   21.4000  -28.0490 C   0  0  0  0  0  0  0  0  0  0  0  0
   -1.1850   20.5080  -27.7250 C   0  0  0  0  0  0  0  0  0  0  0  0
   -2.4720   20.9870  -27.4670 C   0  0  0  0  0  0  0  0  0  0  0  0
   -2.7340   22.3590  -27.5290 C   0  0  0  0  0  0  0  0  0  0  0  0
   -3.4350   23.0790  -30.8270 C   0  0  0  0  0  0  0  0  0  0  0  0
   -2.1340   22.6080  -31.0370 C   0  0  0  0  0  0  0  0  0  0  0  0
   -1.9250   21.3780  -31.6660 C   0  0  0  0  0  0  0  0  0  0  0  0
   -3.0140   20.6040  -32.0760 C   0  0  0  0  0  0  0  0  0  0  0  0
   -2.7890   19.3920  -32.6430 F   0  0  0  0  0  0  0  0  0  0  0  0
   -4.3230   21.0710  -31.8760 C   0  0  0  0  0  0  0  0  0  0  0  0
   -5.7100   20.0640  -32.2970 S   0  0  0  0  0  0  0  0  0  0  0  0
   -5.7440   19.8420  -33.7850 O   0  0  0  0  0  0  0  0  0  0  0  0
   -5.5750   18.7280  -31.6220 O   0  0  0  0  0  0  0  0  0  0  0  0
   -7.1760   20.8510  -31.7700 N   0  0  0  0  0  0  0  0  0  0  0  0
   -8.3520   20.0340  -32.1270 C   0  0  0  0  0  0  0  0  0  0  0  0
   -9.6600   20.8450  -32.0000 C   0  0  0  0  0  0  0  0  0  0  0  0
   -9.4590   22.0150  -31.2330 O   0  0  0  0  0  0  0  0  0  0  0  0
   -8.5820   22.8930  -31.9160 C   0  0  0  0  0  0  0  0  0  0  0  0
   -7.2770   22.1950  -32.3660 C   0  0  0  0  0  0  0  0  0  0  0  0
   -4.5270   22.3120  -31.2570 C   0  0  0  0  0  0  0  0  0  0  0  0
   -1.1539   25.2948  -27.4672 H   0  0  0  0  0  0  0  0  0  0  0  0
   -2.9117   24.9550  -27.3389 H   0  0  0  0  0  0  0  0  0  0  0  0
    0.3931   23.4711  -28.3711 H   0  0  0  0  0  0  0  0  0  0  0  0
    0.8527   21.0211  -28.2564 H   0  0  0  0  0  0  0  0  0  0  0  0
   -0.9793   19.4287  -27.6731 H   0  0  0  0  0  0  0  0  0  0  0  0
   -3.2797   20.2841  -27.2149 H   0  0  0  0  0  0  0  0  0  0  0  0
   -3.7504   22.7318  -27.3344 H   0  0  0  0  0  0  0  0  0  0  0  0
   -1.2735   23.2079  -30.7059 H   0  0  0  0  0  0  0  0  0  0  0  0
   -0.9002   21.0178  -31.8390 H   0  0  0  0  0  0  0  0  0  0  0  0
   -7.1250   20.9430  -30.7280 H   0  0  0  0  0  0  0  0  0  0  0  0
   -8.2451   19.6872  -33.1654 H   0  0  0  0  0  0  0  0  0  0  0  0
   -8.4045   19.1810  -31.4345 H   0  0  0  0  0  0  0  0  0  0  0  0
  -10.0061   21.1288  -33.0048 H   0  0  0  0  0  0  0  0  0  0  0  0
  -10.4116   20.2203  -31.4952 H   0  0  0  0  0  0  0  0  0  0  0  0
   -9.0972   23.2849  -32.8054 H   0  0  0  0  0  0  0  0  0  0  0  0
   -8.3070   23.6991  -31.2199 H   0  0  0  0  0  0  0  0  0  0  0  0
   -7.2743   22.1055  -33.4624 H   0  0  0  0  0  0  0  0  0  0  0  0
   -6.4192   22.7969  -32.0315 H   0  0  0  0  0  0  0  0  0  0  0  0
   -5.5504   22.6865  -31.1077 H   0  0  0  0  0  0  0  0  0  0  0  0
  1  2  2  0
  2  3  2  0
  2  4  1  0
  4  5  1  0
  5  6  1  0
  6  7  2  0
  7  8  1  0
  8  9  2  0
  9 10  1  0
 10 11  2  0
  2 12  1  0
 12 13  2  0
 13 14  1  0
 14 15  2  0
 15 16  1  0
 15 17  1  0
 17 18  1  0
 18 19  2  0
 18 20  2  0
 18 21  1  0
 21 22  1  0
 22 23  1  0
 23 24  1  0
 24 25  1  0
 25 26  1  0
 17 27  2  0
 11  6  1  0
 27 12  1  0
 26 21  1  0
  5 28  1  0
  5 29  1  0
  7 30  1  0
  8 31  1  0
  9 32  1  0
 10 33  1  0
 11 34  1  0
 13 35  1  0
 14 36  1  0
 21 37  1  0
 22 38  1  0
 22 39  1  0
 23 40  1  0
 23 41  1  0
 25 42  1  0
 25 43  1  0
 26 44  1  0
 26 45  1  0
 27 46  1  0
M  CHG  2   4  -1  21   1
M  END
>  <UniqueID>  (30) 
29

>  <SMILES>  (30) 
O=S(=O)([N-]Cc1ccccc1)c1ccc(F)c(S(=O)(=O)[NH+]2CCOCC2)c1

>  <Energy>  (30) 
51.81519932388607

>  <Genealogy>  (30) 
O=S(=O)([N-]Cc1ccccc1)c1ccc(F)c(S(=O)(=O)[NH+]2CCOCC2)c1 (protonated)
O=S(=O)([N-]Cc1ccccc1)c1ccc(F)c(S(=O)(=O)[NH+]2CCOCC2)c1 (3D coordinates assigned)
O=S(=O)([N-]Cc1ccccc1)c1ccc(F)c(S(=O)(=O)[NH+]2CCOCC2)c1 (nonaromatic ring conformer: 51.81519932388607 kcal/mol)

>  <smiles>  (30) 
O=S(=O)(NCc1ccccc1)c1ccc(F)c(S(=O)(=O)N2CCOCC2)c1

>  <score_type>  (30) 
oracle

>  <origin>  (30) 
adgpu

>  <m_score__min__energy>  (30) 
-9.5700000000000003

>  <m_primary>  (30) 
energy

$$$$
30:0
     RDKit          3D

 38 40  0  0  0  0  0  0  0  0999 V2000
   -0.8430   22.0720  -25.6010 C   0  0  0  0  0  0  0  0  0  0  0  0
   -0.9440   23.1950  -26.5910 C   0  0  0  0  0  0  0  0  0  0  0  0
   -0.0620   24.2800  -26.5170 C   0  0  0  0  0  0  0  0  0  0  0  0
   -0.1730   25.3500  -27.4170 C   0  0  0  0  0  0  0  0  0  0  0  0
    0.8070   26.4890  -27.3560 C   0  0  0  0  0  0  0  0  0  0  0  0
   -1.1780   25.3320  -28.4020 C   0  0  0  0  0  0  0  0  0  0  0  0
   -1.2370   26.3660  -29.3320 O   0  0  0  0  0  0  0  0  0  0  0  0
   -2.0990   24.2620  -28.4580 C   0  0  0  0  0  0  0  0  0  0  0  0
   -3.1960   24.2170  -29.4560 C   0  0  0  0  0  0  0  0  0  0  0  0
   -3.8970   23.1020  -29.8780 C   0  0  0  0  0  0  0  0  0  0  0  0
   -4.7670   23.5950  -30.8310 C   0  0  0  0  0  0  0  0  0  0  0  0
   -5.7570   22.8250  -31.6050 C   0  0  0  0  0  0  0  0  0  0  0  0
   -6.4150   23.4120  -32.5050 O   0  0  0  0  0  0  0  0  0  0  0  0
   -5.9460   21.4190  -31.3700 N   0  0  0  0  0  0  0  0  0  0  0  0
   -7.0870   20.6770  -31.8340 C   0  0  0  0  0  0  0  0  0  0  0  0
   -6.9450   19.3130  -32.1360 C   0  0  0  0  0  0  0  0  0  0  0  0
   -8.0450   18.5650  -32.5680 C   0  0  0  0  0  0  0  0  0  0  0  0
   -9.2990   19.1690  -32.6850 C   0  0  0  0  0  0  0  0  0  0  0  0
   -9.4570   20.5200  -32.3660 C   0  0  0  0  0  0  0  0  0  0  0  0
   -8.3590   21.2720  -31.9350 C   0  0  0  0  0  0  0  0  0  0  0  0
   -4.5880   24.9210  -30.9650 N   0  0  0  0  0  0  0  0  0  0  0  0
   -3.6280   25.2990  -30.1350 N   0  0  0  0  0  0  0  0  0  0  0  0
   -1.9660   23.1980  -27.5500 C   0  0  0  0  0  0  0  0  0  0  0  0
   -0.8796   22.4791  -24.5798 H   0  0  0  0  0  0  0  0  0  0  0  0
   -1.6822   21.3764  -25.7487 H   0  0  0  0  0  0  0  0  0  0  0  0
    0.1069   21.5373  -25.7487 H   0  0  0  0  0  0  0  0  0  0  0  0
    0.7238   24.2933  -25.7473 H   0  0  0  0  0  0  0  0  0  0  0  0
    1.0185   26.7348  -26.3049 H   0  0  0  0  0  0  0  0  0  0  0  0
    1.7405   26.1969  -27.8592 H   0  0  0  0  0  0  0  0  0  0  0  0
    0.3788   27.3684  -27.8592 H   0  0  0  0  0  0  0  0  0  0  0  0
   -3.7872   22.0629  -29.5343 H   0  0  0  0  0  0  0  0  0  0  0  0
   -5.1670   20.8840  -30.9250 H   0  0  0  0  0  0  0  0  0  0  0  0
   -5.9623   18.8297  -32.0321 H   0  0  0  0  0  0  0  0  0  0  0  0
   -7.9225   17.5003  -32.8158 H   0  0  0  0  0  0  0  0  0  0  0  0
  -10.1626   18.5806  -33.0285 H   0  0  0  0  0  0  0  0  0  0  0  0
  -10.4462   20.9930  -32.4539 H   0  0  0  0  0  0  0  0  0  0  0  0
   -8.4899   22.3325  -31.6739 H   0  0  0  0  0  0  0  0  0  0  0  0
   -2.6732   22.3565  -27.5924 H   0  0  0  0  0  0  0  0  0  0  0  0
  1  2  1  0
  2  3  2  0
  3  4  1  0
  4  5  1  0
  4  6  2  0
  6  7  1  0
  6  8  1  0
  8  9  1  0
  9 10  2  0
 10 11  1  0
 11 12  1  0
 12 13  2  0
 12 14  1  0
 14 15  1  0
 15 16  2  0
 16 17  1  0
 17 18  2  0
 18 19  1  0
 19 20  2  0
 11 21  2  0
 21 22  1  0
  8 23  2  0
 23  2  1  0
 22  9  1  0
 20 15  1  0
  1 24  1  0
  1 25  1  0
  1 26  1  0
  3 27  1  0
  5 28  1  0
  5 29  1  0
  5 30  1  0
 10 31  1  0
 14 32  1  0
 16 33  1  0
 17 34  1  0
 18 35  1  0
 19 36  1  0
 20 37  1  0
 23 38  1  0
M  CHG  2   7  -1  22  -1
M  END
>  <UniqueID>  (31) 
30

>  <SMILES>  (31) 
Cc1cc(C)c([O-])c(-c2cc(C(=O)Nc3ccccc3)n[n-]2)c1

>  <Energy>  (31) 
76.27538034311327

>  <Genealogy>  (31) 
Cc1cc(C)c([O-])c(-c2cc(C(=O)Nc3ccccc3)n[n-]2)c1 (protonated)
Cc1cc(C)c([O-])c(-c2cc(C(=O)Nc3ccccc3)n[n-]2)c1 (3D coordinates assigned)
Cc1cc(C)c([O-])c(-c2cc(C(=O)Nc3ccccc3)n[n-]2)c1 (optimized conformer: 76.27538034311327 kcal/mol)

>  <smiles>  (31) 
Cc1cc(C)c(O)c(-c2cc(C(=O)Nc3ccccc3)n[nH]2)c1

>  <score_type>  (31) 
oracle

>  <origin>  (31) 
adgpu

>  <m_score__min__energy>  (31) 
-13.74

>  <m_primary>  (31) 
energy

$$$$
31:0
     RDKit          3D

 48 50  0  0  0  0  0  0  0  0999 V2000
   -1.0930   12.1160  -32.5080 C   0  0  0  0  0  0  0  0  0  0  0  0
   -2.1920   13.1280  -32.3660 C   0  0  0  0  0  0  0  0  0  0  0  0
   -3.3800   12.8030  -31.6950 C   0  0  0  0  0  0  0  0  0  0  0  0
   -4.4020   13.7480  -31.5730 C   0  0  0  0  0  0  0  0  0  0  0  0
   -4.2500   15.0360  -32.1050 C   0  0  0  0  0  0  0  0  0  0  0  0
   -5.3280   15.9790  -31.9850 N   0  0  0  0  0  0  0  0  0  0  0  0
   -5.3950   17.2180  -32.7170 C   0  0  0  0  0  0  0  0  0  0  0  0
   -4.4330   17.5660  -33.4560 O   0  0  0  0  0  0  0  0  0  0  0  0
   -6.5750   18.1100  -32.6130 C   0  0  0  0  0  0  0  0  0  0  0  0
   -7.6110   17.8520  -31.6960 C   0  0  0  0  0  0  0  0  0  0  0  0
   -8.7100   18.7110  -31.6090 C   0  0  0  0  0  0  0  0  0  0  0  0
   -8.7880   19.8510  -32.4230 C   0  0  0  0  0  0  0  0  0  0  0  0
   -9.9750   20.7730  -32.3200 C   0  0  0  0  0  0  0  0  0  0  0  0
   -9.6180   21.9960  -31.5990 N   0  0  0  0  0  0  0  0  0  0  0  0
   -8.2670   22.4140  -31.3220 C   0  0  0  0  0  0  0  0  0  0  0  0
   -7.5310   23.0600  -32.3290 C   0  0  0  0  0  0  0  0  0  0  0  0
   -6.2210   23.4850  -32.0900 C   0  0  0  0  0  0  0  0  0  0  0  0
   -5.6230   23.2610  -30.8440 C   0  0  0  0  0  0  0  0  0  0  0  0
   -3.9780   23.8090  -30.5360 S   0  0  0  0  0  0  0  0  0  0  0  0
   -3.8660   25.5030  -30.8490 N   0  0  0  0  0  0  0  0  0  0  0  0
   -3.0190   23.0710  -31.4280 O   0  0  0  0  0  0  0  0  0  0  0  0
   -3.6120   23.5360  -29.1030 O   0  0  0  0  0  0  0  0  0  0  0  0
   -6.3500   22.6160  -29.8360 C   0  0  0  0  0  0  0  0  0  0  0  0
   -7.6600   22.1910  -30.0720 C   0  0  0  0  0  0  0  0  0  0  0  0
   -7.7580   20.1110  -33.3380 C   0  0  0  0  0  0  0  0  0  0  0  0
   -6.6580   19.2540  -33.4260 C   0  0  0  0  0  0  0  0  0  0  0  0
   -3.0700   15.3520  -32.8020 C   0  0  0  0  0  0  0  0  0  0  0  0
   -2.0460   14.4080  -32.9260 C   0  0  0  0  0  0  0  0  0  0  0  0
   -0.9180   14.7360  -33.6050 F   0  0  0  0  0  0  0  0  0  0  0  0
   -0.7523   11.8023  -31.5103 H   0  0  0  0  0  0  0  0  0  0  0  0
   -1.4690   11.2413  -33.0589 H   0  0  0  0  0  0  0  0  0  0  0  0
   -0.2522   12.5627  -33.0589 H   0  0  0  0  0  0  0  0  0  0  0  0
   -3.5077   11.7996  -31.2628 H   0  0  0  0  0  0  0  0  0  0  0  0
   -5.3342   13.4788  -31.0548 H   0  0  0  0  0  0  0  0  0  0  0  0
   -6.0710   15.7590  -31.2860 H   0  0  0  0  0  0  0  0  0  0  0  0
   -7.5554   16.9683  -31.0433 H   0  0  0  0  0  0  0  0  0  0  0  0
   -9.5195   18.4917  -30.8973 H   0  0  0  0  0  0  0  0  0  0  0  0
  -10.3165   21.0368  -33.3319 H   0  0  0  0  0  0  0  0  0  0  0  0
  -10.7763   20.2585  -31.7694 H   0  0  0  0  0  0  0  0  0  0  0  0
  -10.4050   22.5710  -31.2200 H   0  0  0  0  0  0  0  0  0  0  0  0
   -7.9894   23.2329  -33.3139 H   0  0  0  0  0  0  0  0  0  0  0  0
   -5.6578   23.9974  -32.8839 H   0  0  0  0  0  0  0  0  0  0  0  0
   -3.8740   25.9870  -29.9220 H   0  0  0  0  0  0  0  0  0  0  0  0
   -5.8874   22.4430  -28.8531 H   0  0  0  0  0  0  0  0  0  0  0  0
   -8.2203   21.6790  -29.2759 H   0  0  0  0  0  0  0  0  0  0  0  0
   -7.8162   20.9948  -33.9904 H   0  0  0  0  0  0  0  0  0  0  0  0
   -5.8495   19.4764  -34.1379 H   0  0  0  0  0  0  0  0  0  0  0  0
   -2.9519   16.3485  -33.2526 H   0  0  0  0  0  0  0  0  0  0  0  0
  1  2  1  0
  2  3  2  0
  3  4  1  0
  4  5  2  0
  5  6  1  0
  6  7  1  0
  7  8  2  0
  7  9  1  0
  9 10  2  0
 10 11  1  0
 11 12  2  0
 12 13  1  0
 13 14  1  0
 14 15  1  0
 15 16  2  0
 16 17  1  0
 17 18  2  0
 18 19  1  0
 19 20  1  0
 19 21  2  0
 19 22  2  0
 18 23  1  0
 23 24  2  0
 12 25  1  0
 25 26  2  0
  5 27  1  0
 27 28  2  0
 28 29  1  0
 28  2  1  0
 26  9  1  0
 24 15  1  0
  1 30  1  0
  1 31  1  0
  1 32  1  0
  3 33  1  0
  4 34  1  0
  6 35  1  0
 10 36  1  0
 11 37  1  0
 13 38  1  0
 13 39  1  0
 14 40  1  0
 16 41  1  0
 17 42  1  0
 20 43  1  0
 23 44  1  0
 24 45  1  0
 25 46  1  0
 26 47  1  0
 27 48  1  0
M  CHG  1  20  -1
M  END
>  <UniqueID>  (32) 
31

>  <SMILES>  (32) 
Cc1ccc(NC(=O)c2ccc(CNc3ccc(S([NH-])(=O)=O)cc3)cc2)cc1F

>  <Energy>  (32) 
56.04814778295891

>  <Genealogy>  (32) 
Cc1ccc(NC(=O)c2ccc(CNc3ccc(S([NH-])(=O)=O)cc3)cc2)cc1F (protonated)
Cc1ccc(NC(=O)c2ccc(CNc3ccc(S([NH-])(=O)=O)cc3)cc2)cc1F (3D coordinates assigned)
Cc1ccc(NC(=O)c2ccc(CNc3ccc(S([NH-])(=O)=O)cc3)cc2)cc1F (optimized conformer: 56.04814778295891 kcal/mol)

>  <smiles>  (32) 
Cc1ccc(NC(=O)c2ccc(CNc3ccc(S(N)(=O)=O)cc3)cc2)cc1F

>  <score_type>  (32) 
oracle

>  <origin>  (32) 
adgpu

>  <m_score__min__energy>  (32) 
-11.25

>  <m_primary>  (32) 
energy

$$$$
32:0
     RDKit          3D

 65 69  0  0  0  0  0  0  0  0999 V2000
    0.0967   21.1377  -35.9407 H   0  0  0  0  0  0  0  0  0  0  0  0
   -0.1740   20.6570  -34.9890 C   0  0  0  0  0  0  0  0  0  0  0  0
   -0.2690   21.4220  -33.8240 C   0  0  0  0  0  0  0  0  0  0  0  0
   -0.0901   22.5065  -33.8669 H   0  0  0  0  0  0  0  0  0  0  0  0
   -0.5900   20.8190  -32.6030 C   0  0  0  0  0  0  0  0  0  0  0  0
   -0.6880   21.6290  -31.4620 O   0  0  0  0  0  0  0  0  0  0  0  0
   -1.6580   21.4560  -30.4340 C   0  0  0  0  0  0  0  0  0  0  0  0
   -1.1707   21.5429  -29.4517 H   0  0  0  0  0  0  0  0  0  0  0  0
   -2.4340   22.2299  -30.5281 H   0  0  0  0  0  0  0  0  0  0  0  0
   -2.1186   20.4615  -30.5281 H   0  0  0  0  0  0  0  0  0  0  0  0
   -0.8140   19.4300  -32.5610 C   0  0  0  0  0  0  0  0  0  0  0  0
   -1.0288   18.9422  -31.5988 H   0  0  0  0  0  0  0  0  0  0  0  0
   -0.7660   18.6590  -33.7370 C   0  0  0  0  0  0  0  0  0  0  0  0
   -1.0900   17.2100  -33.7080 C   0  0  0  0  0  0  0  0  0  0  0  0
   -0.1540   16.3650  -33.7100 O   0  0  0  0  0  0  0  0  0  0  0  0
   -2.4440   16.7360  -33.6530 N   0  0  0  0  0  0  0  0  0  0  0  0
   -3.6130   17.5250  -33.9260 C   0  0  0  0  0  0  0  0  0  0  0  0
   -4.5510   17.0570  -34.8540 C   0  0  0  0  0  0  0  0  0  0  0  0
   -4.3601   16.1232  -35.4032 H   0  0  0  0  0  0  0  0  0  0  0  0
   -5.7300   17.7730  -35.0850 C   0  0  0  0  0  0  0  0  0  0  0  0
   -6.4601   17.4058  -35.8213 H   0  0  0  0  0  0  0  0  0  0  0  0
   -5.9820   18.9540  -34.3820 C   0  0  0  0  0  0  0  0  0  0  0  0
   -6.9280   19.4936  -34.5364 H   0  0  0  0  0  0  0  0  0  0  0  0
   -5.0320   19.4520  -33.4810 C   0  0  0  0  0  0  0  0  0  0  0  0
   -5.2890   20.6980  -32.7420 C   0  0  0  0  0  0  0  0  0  0  0  0
   -4.2280   21.4810  -32.4180 N   0  0  0  0  0  0  0  0  0  0  0  0
   -4.3750   22.6400  -31.7800 N   0  0  0  0  0  0  0  0  0  0  0  0
   -5.5960   23.1100  -31.4070 C   0  0  0  0  0  0  0  0  0  0  0  0
   -5.7020   24.2460  -30.7770 N   0  0  0  0  0  0  0  0  0  0  0  0
   -4.5890   25.1390  -30.4550 C   0  0  0  0  0  0  0  0  0  0  0  0
   -3.9793   25.3036  -31.3557 H   0  0  0  0  0  0  0  0  0  0  0  0
   -4.9844   26.1011  -30.0971 H   0  0  0  0  0  0  0  0  0  0  0  0
   -3.7380   24.5180  -29.3810 C   0  0  0  0  0  0  0  0  0  0  0  0
   -2.3620   24.7740  -29.3420 C   0  0  0  0  0  0  0  0  0  0  0  0
   -1.9136   25.4574  -30.0782 H   0  0  0  0  0  0  0  0  0  0  0  0
   -1.5530   24.1690  -28.3760 C   0  0  0  0  0  0  0  0  0  0  0  0
   -0.4760   24.3915  -28.3533 H   0  0  0  0  0  0  0  0  0  0  0  0
   -2.1000   23.2760  -27.4290 C   0  0  0  0  0  0  0  0  0  0  0  0
   -1.2560   22.6370  -26.4330 N   0  0  0  0  0  0  0  0  0  0  0  0
   -0.4210   23.4420  -25.5290 C   0  0  0  0  0  0  0  0  0  0  0  0
   -0.6718   23.2002  -24.4856 H   0  0  0  0  0  0  0  0  0  0  0  0
    0.6401   23.2174  -25.7126 H   0  0  0  0  0  0  0  0  0  0  0  0
   -0.6067   24.5106  -25.7126 H   0  0  0  0  0  0  0  0  0  0  0  0
   -1.2300   21.1740  -26.3020 C   0  0  0  0  0  0  0  0  0  0  0  0
   -1.2252   20.9013  -25.2363 H   0  0  0  0  0  0  0  0  0  0  0  0
   -2.1207   20.7467  -26.7858 H   0  0  0  0  0  0  0  0  0  0  0  0
   -0.3247   20.7786  -26.7858 H   0  0  0  0  0  0  0  0  0  0  0  0
   -3.4880   23.0200  -27.4830 C   0  0  0  0  0  0  0  0  0  0  0  0
   -3.9408   22.3297  -26.7560 H   0  0  0  0  0  0  0  0  0  0  0  0
   -4.2950   23.6320  -28.4480 C   0  0  0  0  0  0  0  0  0  0  0  0
   -5.3734   23.4167  -28.4750 H   0  0  0  0  0  0  0  0  0  0  0  0
   -6.7440   22.3490  -31.7060 C   0  0  0  0  0  0  0  0  0  0  0  0
   -8.0380   22.7860  -31.3530 C   0  0  0  0  0  0  0  0  0  0  0  0
   -8.1663   23.7416  -30.8235 H   0  0  0  0  0  0  0  0  0  0  0  0
   -9.1570   22.0140  -31.6710 C   0  0  0  0  0  0  0  0  0  0  0  0
  -10.1621   22.3652  -31.3946 H   0  0  0  0  0  0  0  0  0  0  0  0
   -9.0040   20.7990  -32.3380 C   0  0  0  0  0  0  0  0  0  0  0  0
   -9.8887   20.1929  -32.5830 H   0  0  0  0  0  0  0  0  0  0  0  0
   -7.7310   20.3490  -32.6960 C   0  0  0  0  0  0  0  0  0  0  0  0
   -7.6187   19.3878  -33.2189 H   0  0  0  0  0  0  0  0  0  0  0  0
   -6.5890   21.1180  -32.3920 C   0  0  0  0  0  0  0  0  0  0  0  0
   -3.8400   18.7470  -33.2700 C   0  0  0  0  0  0  0  0  0  0  0  0
   -3.0781   19.1518  -32.5876 H   0  0  0  0  0  0  0  0  0  0  0  0
   -0.4220   19.2830  -34.9480 C   0  0  0  0  0  0  0  0  0  0  0  0
   -0.3476   18.6861  -35.8690 H   0  0  0  0  0  0  0  0  0  0  0  0
  1  2  1  0
  2  3  2  0
  3  4  1  0
  3  5  1  0
  5  6  1  0
  6  7  1  0
  7  8  1  0
  7  9  1  0
  7 10  1  0
  5 11  2  0
 11 12  1  0
 11 13  1  0
 13 14  1  0
 14 15  2  0
 14 16  1  0
 16 17  1  0
 17 18  2  0
 18 19  1  0
 18 20  1  0
 20 21  1  0
 20 22  2  0
 22 23  1  0
 22 24  1  0
 24 25  1  0
 25 26  2  0
 26 27  1  0
 27 28  1  0
 28 29  2  0
 29 30  1  0
 30 31  1  0
 30 32  1  0
 30 33  1  0
 33 34  2  0
 34 35  1  0
 34 36  1  0
 36 37  1  0
 36 38  2  0
 38 39  1  0
 39 40  1  0
 40 41  1  0
 40 42  1  0
 40 43  1  0
 39 44  1  0
 44 45  1  0
 44 46  1  0
 44 47  1  0
 38 48  1  0
 48 49  1  0
 48 50  2  0
 50 51  1  0
 28 52  1  0
 52 53  2  0
 53 54  1  0
 53 55  1  0
 55 56  1  0
 55 57  2  0
 57 58  1  0
 57 59  1  0
 59 60  1  0
 59 61  2  0
 24 62  2  0
 62 63  1  0
 13 64  2  0
 64 65  1  0
 64  2  1  0
 62 17  1  0
 61 25  1  0
 50 33  1  0
 61 52  1  0
M  CHG  2  16  -1  27  -1
M  END
>  <UniqueID>  (33) 
32

>  <SMILES>  (33) 
COc1cccc(C(=O)[N-]c2cccc(-c3n[n-]/c(=N\Cc4ccc(N(C)C)cc4)c4ccccc34)c2)c1

>  <Energy>  (33) 
92.03268309963568

>  <Genealogy>  (33) 
COc1cccc(C(=O)[N-]c2cccc(-c3n[n-]c(=NCc4ccc(N(C)C)cc4)c4ccccc34)c2)c1 (protonated)
COc1cccc(C(=O)[N-]c2cccc(-c3n[n-]/c(=N\Cc4ccc(N(C)C)cc4)c4ccccc34)c2)c1 (cis-trans isomerization)
COc1cccc(C(=O)[N-]c2cccc(-c3n[n-]/c(=N\Cc4ccc(N(C)C)cc4)c4ccccc34)c2)c1 (3D coordinates assigned)
COc1cccc(C(=O)[N-]c2cccc(-c3n[n-]/c(=N\Cc4ccc(N(C)C)cc4)c4ccccc34)c2)c1 (optimized conformer: 92.03268309963568 kcal/mol)

>  <smiles>  (33) 
COc1cccc(C(=O)Nc2cccc(-c3n[nH]c(=NCc4ccc(N(C)C)cc4)c4ccccc34)c2)c1

>  <score_type>  (33) 
oracle

>  <origin>  (33) 
adgpu

>  <m_score__min__energy>  (33) 
-12.51

>  <m_primary>  (33) 
energy

$$$$
33:0
     RDKit          3D

 42 44  0  0  0  0  0  0  0  0999 V2000
   -2.2160   16.4110  -35.1200 C   0  0  0  0  0  0  0  0  0  0  0  0
   -3.5570   15.9940  -35.3580 O   0  0  0  0  0  0  0  0  0  0  0  0
   -4.6820   16.5470  -34.7300 C   0  0  0  0  0  0  0  0  0  0  0  0
   -5.6550   15.6770  -34.2230 C   0  0  0  0  0  0  0  0  0  0  0  0
   -6.7900   16.1800  -33.5810 C   0  0  0  0  0  0  0  0  0  0  0  0
   -6.9660   17.5590  -33.4480 C   0  0  0  0  0  0  0  0  0  0  0  0
   -6.0160   18.4470  -33.9640 C   0  0  0  0  0  0  0  0  0  0  0  0
   -6.2230   19.8250  -33.8000 O   0  0  0  0  0  0  0  0  0  0  0  0
   -5.4990   20.6570  -32.9350 C   0  0  0  0  0  0  0  0  0  0  0  0
   -6.0590   21.1640  -31.7480 C   0  0  0  0  0  0  0  0  0  0  0  0
   -5.3020   21.9810  -30.9040 C   0  0  0  0  0  0  0  0  0  0  0  0
   -3.9750   22.2960  -31.2300 C   0  0  0  0  0  0  0  0  0  0  0  0
   -3.1740   23.1640  -30.3340 C   0  0  0  0  0  0  0  0  0  0  0  0
   -3.5000   24.5260  -30.1500 C   0  0  0  0  0  0  0  0  0  0  0  0
   -4.6720   25.1650  -30.8370 C   0  0  0  0  0  0  0  0  0  0  0  0
   -2.7330   25.2950  -29.3320 N   0  0  0  0  0  0  0  0  0  0  0  0
   -1.6590   24.8050  -28.6570 C   0  0  0  0  0  0  0  0  0  0  0  0
   -0.8750   25.7300  -27.7770 C   0  0  0  0  0  0  0  0  0  0  0  0
   -1.3080   23.4520  -28.7970 C   0  0  0  0  0  0  0  0  0  0  0  0
    0.2010   22.7120  -27.8610 Br  0  0  0  0  0  0  0  0  0  0  0  0
   -2.0710   22.6330  -29.6410 C   0  0  0  0  0  0  0  0  0  0  0  0
   -1.7570   21.4200  -29.7830 O   0  0  0  0  0  0  0  0  0  0  0  0
   -3.4070   21.7680  -32.3990 C   0  0  0  0  0  0  0  0  0  0  0  0
   -4.1650   20.9490  -33.2420 C   0  0  0  0  0  0  0  0  0  0  0  0
   -4.8630   17.9370  -34.5900 C   0  0  0  0  0  0  0  0  0  0  0  0
   -2.0363   16.4669  -34.0362 H   0  0  0  0  0  0  0  0  0  0  0  0
   -1.5214   15.6864  -35.5700 H   0  0  0  0  0  0  0  0  0  0  0  0
   -2.0547   17.4017  -35.5700 H   0  0  0  0  0  0  0  0  0  0  0  0
   -5.5252   14.5900  -34.3307 H   0  0  0  0  0  0  0  0  0  0  0  0
   -7.5458   15.4887  -33.1799 H   0  0  0  0  0  0  0  0  0  0  0  0
   -7.8570   17.9494  -32.9344 H   0  0  0  0  0  0  0  0  0  0  0  0
   -7.0975   20.9161  -31.4831 H   0  0  0  0  0  0  0  0  0  0  0  0
   -5.7486   22.3784  -29.9807 H   0  0  0  0  0  0  0  0  0  0  0  0
   -5.3749   25.5482  -30.0827 H   0  0  0  0  0  0  0  0  0  0  0  0
   -4.3200   25.9960  -31.4659 H   0  0  0  0  0  0  0  0  0  0  0  0
   -5.1798   24.4189  -31.4659 H   0  0  0  0  0  0  0  0  0  0  0  0
   -1.0770   25.4917  -26.7223 H   0  0  0  0  0  0  0  0  0  0  0  0
    0.1990   25.6080  -27.9813 H   0  0  0  0  0  0  0  0  0  0  0  0
   -1.1714   26.7694  -27.9813 H   0  0  0  0  0  0  0  0  0  0  0  0
   -2.3620   21.9989  -32.6534 H   0  0  0  0  0  0  0  0  0  0  0  0
   -3.7098   20.5316  -34.1523 H   0  0  0  0  0  0  0  0  0  0  0  0
   -4.0980   18.6287  -34.9725 H   0  0  0  0  0  0  0  0  0  0  0  0
  1  2  1  0
  2  3  1  0
  3  4  2  0
  4  5  1  0
  5  6  2  0
  6  7  1  0
  7  8  1  0
  8  9  1  0
  9 10  2  0
 10 11  1  0
 11 12  2  0
 12 13  1  0
 13 14  2  0
 14 15  1  0
 14 16  1  0
 16 17  1  0
 17 18  1  0
 17 19  2  0
 19 20  1  0
 19 21  1  0
 21 22  2  0
 12 23  1  0
 23 24  2  0
  7 25  2  0
 25  3  1  0
 24  9  1  0
 21 13  1  0
  1 26  1  0
  1 27  1  0
  1 28  1  0
  4 29  1  0
  5 30  1  0
  6 31  1  0
 10 32  1  0
 11 33  1  0
 15 34  1  0
 15 35  1  0
 15 36  1  0
 18 37  1  0
 18 38  1  0
 18 39  1  0
 23 40  1  0
 24 41  1  0
 25 42  1  0
M  CHG  1  16  -1
M  END
>  <UniqueID>  (34) 
33

>  <SMILES>  (34) 
COc1cccc(Oc2ccc(-c3c(C)[n-]c(C)c(Br)c3=O)cc2)c1

>  <Energy>  (34) 
59.0500360517506

>  <Genealogy>  (34) 
COc1cccc(Oc2ccc(-c3c(C)[n-]c(C)c(Br)c3=O)cc2)c1 (protonated)
COc1cccc(Oc2ccc(-c3c(C)[n-]c(C)c(Br)c3=O)cc2)c1 (3D coordinates assigned)
COc1cccc(Oc2ccc(-c3c(C)[n-]c(C)c(Br)c3=O)cc2)c1 (optimized conformer: 59.0500360517506 kcal/mol)

>  <smiles>  (34) 
COc1cccc(Oc2ccc(-c3c(C)[nH]c(C)c(Br)c3=O)cc2)c1

>  <score_type>  (34) 
oracle

>  <origin>  (34) 
adgpu

>  <m_score__min__energy>  (34) 
-9.0299999999999994

>  <m_primary>  (34) 
energy

$$$$
34:0
     RDKit          3D

 42 44  0  0  0  0  0  0  0  0999 V2000
   -9.9157   22.7133  -31.9994 H   0  0  0  0  0  0  0  0  0  0  0  0
   -8.8720   22.3690  -31.9540 C   0  0  0  0  0  0  0  0  0  0  0  0
   -8.5580   21.1060  -32.3410 N   0  0  0  0  0  0  0  0  0  0  0  0
   -7.2820   20.6380  -32.3040 C   0  0  0  0  0  0  0  0  0  0  0  0
   -6.9960   19.2510  -32.7420 C   0  0  0  0  0  0  0  0  0  0  0  0
   -7.8640   18.1850  -32.4130 C   0  0  0  0  0  0  0  0  0  0  0  0
   -9.1040   18.3910  -31.5890 C   0  0  0  0  0  0  0  0  0  0  0  0
   -8.8456   18.3481  -30.5206 H   0  0  0  0  0  0  0  0  0  0  0  0
   -9.5398   19.3738  -31.8217 H   0  0  0  0  0  0  0  0  0  0  0  0
   -9.8341   17.6018  -31.8217 H   0  0  0  0  0  0  0  0  0  0  0  0
   -7.5820   16.9280  -32.8460 N   0  0  0  0  0  0  0  0  0  0  0  0
   -6.4800   16.6340  -33.5850 C   0  0  0  0  0  0  0  0  0  0  0  0
   -6.2520   15.2160  -34.0120 C   0  0  0  0  0  0  0  0  0  0  0  0
   -6.1493   14.5772  -33.1224 H   0  0  0  0  0  0  0  0  0  0  0  0
   -7.1064   14.8723  -34.6135 H   0  0  0  0  0  0  0  0  0  0  0  0
   -5.3329   15.1575  -34.6135 H   0  0  0  0  0  0  0  0  0  0  0  0
   -5.5820   17.6580  -33.9310 C   0  0  0  0  0  0  0  0  0  0  0  0
   -4.0110   17.2930  -34.9790 Br  0  0  0  0  0  0  0  0  0  0  0  0
   -5.8480   18.9690  -33.5120 C   0  0  0  0  0  0  0  0  0  0  0  0
   -5.0610   19.8970  -33.8420 O   0  0  0  0  0  0  0  0  0  0  0  0
   -6.2510   21.4750  -31.8490 C   0  0  0  0  0  0  0  0  0  0  0  0
   -5.2162   21.1035  -31.8138 H   0  0  0  0  0  0  0  0  0  0  0  0
   -6.5410   22.7890  -31.4380 C   0  0  0  0  0  0  0  0  0  0  0  0
   -5.4700   23.6980  -30.9520 C   0  0  0  0  0  0  0  0  0  0  0  0
   -4.1480   23.2370  -30.0070 S   0  0  0  0  0  0  0  0  0  0  0  0
   -3.5160   24.7980  -29.9410 C   0  0  0  0  0  0  0  0  0  0  0  0
   -2.4260   25.1560  -29.3310 N   0  0  0  0  0  0  0  0  0  0  0  0
   -1.5530   24.2670  -28.5620 C   0  0  0  0  0  0  0  0  0  0  0  0
   -2.1445   23.7358  -27.8017 H   0  0  0  0  0  0  0  0  0  0  0  0
   -0.9160   23.2540  -29.5130 C   0  0  0  0  0  0  0  0  0  0  0  0
   -0.4197   22.4648  -28.9292 H   0  0  0  0  0  0  0  0  0  0  0  0
   -1.6952   22.8060  -30.1471 H   0  0  0  0  0  0  0  0  0  0  0  0
   -0.1746   23.7622  -30.1471 H   0  0  0  0  0  0  0  0  0  0  0  0
   -0.4710   25.0770  -27.8430 C   0  0  0  0  0  0  0  0  0  0  0  0
   -0.6018   24.9791  -26.7552 H   0  0  0  0  0  0  0  0  0  0  0  0
    0.5213   24.6980  -28.1286 H   0  0  0  0  0  0  0  0  0  0  0  0
   -0.5551   26.1359  -28.1286 H   0  0  0  0  0  0  0  0  0  0  0  0
   -4.2790   25.6740  -30.6260 N   0  0  0  0  0  0  0  0  0  0  0  0
   -5.3630   25.0740  -31.1870 C   0  0  0  0  0  0  0  0  0  0  0  0
   -6.1023   25.6298  -31.7824 H   0  0  0  0  0  0  0  0  0  0  0  0
   -7.8740   23.2310  -31.4990 C   0  0  0  0  0  0  0  0  0  0  0  0
   -8.1297   24.2548  -31.1885 H   0  0  0  0  0  0  0  0  0  0  0  0
  1  2  1  0
  2  3  2  0
  3  4  1  0
  4  5  1  0
  5  6  2  0
  6  7  1  0
  7  8  1  0
  7  9  1  0
  7 10  1  0
  6 11  1  0
 11 12  1  0
 12 13  1  0
 13 14  1  0
 13 15  1  0
 13 16  1  0
 12 17  2  0
 17 18  1  0
 17 19  1  0
 19 20  2  0
  4 21  2  0
 21 22  1  0
 21 23  1  0
 23 24  1  0
 24 25  1  0
 25 26  1  0
 26 27  2  0
 27 28  1  0
 28 29  1  0
 28 30  1  0
 30 31  1  0
 30 32  1  0
 30 33  1  0
 28 34  1  0
 34 35  1  0
 34 36  1  0
 34 37  1  0
 26 38  1  0
 38 39  1  0
 39 40  1  0
 23 41  2  0
 41 42  1  0
 41  2  1  0
 19  5  1  0
 39 24  2  0
M  CHG  2  11  -1  38  -1
M  END
>  <UniqueID>  (35) 
34

>  <SMILES>  (35) 
Cc1[n-]c(C)c(-c2cc(-c3c[n-]/c(=N/C(C)C)s3)ccn2)c(=O)c1Br

>  <Energy>  (35) 
81.44564042473927

>  <Genealogy>  (35) 
Cc1[n-]c(C)c(-c2cc(-c3c[n-]c(=NC(C)C)s3)ccn2)c(=O)c1Br (protonated)
Cc1[n-]c(C)c(-c2cc(-c3c[n-]/c(=N/C(C)C)s3)ccn2)c(=O)c1Br (cis-trans isomerization)
Cc1[n-]c(C)c(-c2cc(-c3c[n-]/c(=N/C(C)C)s3)ccn2)c(=O)c1Br (3D coordinates assigned)
Cc1[n-]c(C)c(-c2cc(-c3c[n-]/c(=N/C(C)C)s3)ccn2)c(=O)c1Br (optimized conformer: 81.44564042473927 kcal/mol)

>  <smiles>  (35) 
Cc1[nH]c(C)c(-c2cc(-c3c[nH]c(=NC(C)C)s3)ccn2)c(=O)c1Br

>  <score_type>  (35) 
oracle

>  <origin>  (35) 
adgpu

>  <m_score__min__energy>  (35) 
-11.6

>  <m_primary>  (35) 
energy

$$$$
35:0
     RDKit          3D

 34 37  0  0  0  0  0  0  0  0999 V2000
   -2.8340   21.2930  -32.3270 O   0  0  0  0  0  0  0  0  0  0  0  0
   -4.0610   21.0890  -32.1120 C   0  0  0  0  0  0  0  0  0  0  0  0
   -4.8210   22.0230  -31.3870 C   0  0  0  0  0  0  0  0  0  0  0  0
   -4.2240   23.2440  -30.8030 C   0  0  0  0  0  0  0  0  0  0  0  0
   -4.6120   24.4910  -31.1560 N   0  0  0  0  0  0  0  0  0  0  0  0
   -3.8520   25.3280  -30.4690 N   0  0  0  0  0  0  0  0  0  0  0  0
   -3.0260   24.5960  -29.7070 C   0  0  0  0  0  0  0  0  0  0  0  0
   -2.1910   25.0890  -28.9030 O   0  0  0  0  0  0  0  0  0  0  0  0
   -3.2270   23.2760  -29.8820 N   0  0  0  0  0  0  0  0  0  0  0  0
   -2.6030   22.1970  -29.1650 C   0  0  0  0  0  0  0  0  0  0  0  0
   -3.3050   21.5390  -28.1410 C   0  0  0  0  0  0  0  0  0  0  0  0
   -2.7030   20.5000  -27.4280 C   0  0  0  0  0  0  0  0  0  0  0  0
   -1.4000   20.1020  -27.7350 C   0  0  0  0  0  0  0  0  0  0  0  0
   -0.6990   20.7400  -28.7620 C   0  0  0  0  0  0  0  0  0  0  0  0
   -1.2960   21.7810  -29.4800 C   0  0  0  0  0  0  0  0  0  0  0  0
   -0.6140   22.3580  -30.5010 F   0  0  0  0  0  0  0  0  0  0  0  0
   -6.1970   21.7950  -31.2420 C   0  0  0  0  0  0  0  0  0  0  0  0
   -6.7630   20.7020  -31.7420 O   0  0  0  0  0  0  0  0  0  0  0  0
   -6.0750   19.7790  -32.4060 C   0  0  0  0  0  0  0  0  0  0  0  0
   -6.7340   18.6470  -32.9010 C   0  0  0  0  0  0  0  0  0  0  0  0
   -6.0230   17.6720  -33.6060 C   0  0  0  0  0  0  0  0  0  0  0  0
   -6.8530   16.2550  -34.2220 Cl  0  0  0  0  0  0  0  0  0  0  0  0
   -4.6490   17.8250  -33.8220 C   0  0  0  0  0  0  0  0  0  0  0  0
   -3.9810   18.9520  -33.3340 C   0  0  0  0  0  0  0  0  0  0  0  0
   -4.6870   19.9380  -32.6200 C   0  0  0  0  0  0  0  0  0  0  0  0
   -3.9130   26.3700  -30.5180 H   0  0  0  0  0  0  0  0  0  0  0  0
   -4.3340   21.8438  -27.8997 H   0  0  0  0  0  0  0  0  0  0  0  0
   -3.2562   19.9941  -26.6230 H   0  0  0  0  0  0  0  0  0  0  0  0
   -0.9257   19.2868  -27.1688 H   0  0  0  0  0  0  0  0  0  0  0  0
    0.3254   20.4224  -29.0063 H   0  0  0  0  0  0  0  0  0  0  0  0
   -6.8158   22.5307  -30.7073 H   0  0  0  0  0  0  0  0  0  0  0  0
   -7.8144   18.5248  -32.7345 H   0  0  0  0  0  0  0  0  0  0  0  0
   -4.0925   17.0559  -34.3777 H   0  0  0  0  0  0  0  0  0  0  0  0
   -2.9012   19.0683  -33.5085 H   0  0  0  0  0  0  0  0  0  0  0  0
  1  2  2  0
  2  3  1  0
  3  4  1  0
  4  5  2  0
  5  6  1  0
  6  7  1  0
  7  8  2  0
  7  9  1  0
  9 10  1  0
 10 11  2  0
 11 12  1  0
 12 13  2  0
 13 14  1  0
 14 15  2  0
 15 16  1  0
  3 17  2  0
 17 18  1  0
 18 19  1  0
 19 20  2  0
 20 21  1  0
 21 22  1  0
 21 23  2  0
 23 24  1  0
 24 25  2  0
 25  2  1  0
  9  4  1  0
 15 10  1  0
 25 19  1  0
  6 26  1  0
 11 27  1  0
 12 28  1  0
 13 29  1  0
 14 30  1  0
 17 31  1  0
 20 32  1  0
 23 33  1  0
 24 34  1  0
M  END
>  <UniqueID>  (36) 
35

>  <SMILES>  (36) 
O=c1c(-c2n[nH]c(=O)n2-c2ccccc2F)coc2cc(Cl)ccc12

>  <Energy>  (36) 
92.7681144628009

>  <Genealogy>  (36) 
O=c1c(-c2n[nH]c(=O)n2-c2ccccc2F)coc2cc(Cl)ccc12 (3D coordinates assigned)
O=c1c(-c2n[nH]c(=O)n2-c2ccccc2F)coc2cc(Cl)ccc12 (optimized conformer: 92.7681144628009 kcal/mol)

>  <smiles>  (36) 
O=c1c(-c2n[nH]c(=O)n2-c2ccccc2F)coc2cc(Cl)ccc12

>  <score_type>  (36) 
oracle

>  <origin>  (36) 
adgpu

>  <m_score__min__energy>  (36) 
-7.9299999999999997

>  <m_primary>  (36) 
energy

$$$$
36:0
     RDKit          3D

 43 46  0  0  1  0  0  0  0  0999 V2000
   -5.8500   25.3030  -28.9640 N   0  0  0  0  0  0  0  0  0  0  0  0
   -4.8610   24.0500  -29.6140 S   0  0  0  0  0  0  0  0  0  0  0  0
   -4.1820   24.5740  -30.8640 O   0  0  0  0  0  0  0  0  0  0  0  0
   -5.6770   22.8540  -30.0250 O   0  0  0  0  0  0  0  0  0  0  0  0
   -3.6000   23.5830  -28.5000 C   0  0  0  0  0  0  0  0  0  0  0  0
   -2.8720   24.5810  -27.8510 C   0  0  0  0  0  0  0  0  0  0  0  0
   -1.8660   24.2690  -26.9630 C   0  0  0  0  0  0  0  0  0  0  0  0
   -1.5950   22.9360  -26.7290 C   0  0  0  0  0  0  0  0  0  0  0  0
   -2.3210   21.9280  -27.3770 C   0  0  0  0  0  0  0  0  0  0  0  0
   -1.9420   20.5960  -27.0490 N   0  0  0  0  0  0  0  0  0  0  0  0
   -1.1830   19.9090  -27.8350 C   0  0  0  0  0  0  0  0  0  0  0  0
   -0.7110   20.4220  -29.0070 N   0  0  0  0  0  0  0  0  0  0  0  0
    0.0810   19.6960  -29.8190 C   0  0  0  0  0  0  0  0  0  0  0  0
    0.5840   20.2290  -31.0610 N   0  0  0  0  0  0  0  0  0  0  0  0
   -0.2170   20.6070  -31.9960 C   0  0  0  0  0  0  0  0  0  0  0  0
   -1.5890   20.5300  -31.8720 C   0  0  0  0  0  0  0  0  0  0  0  0
   -2.1550   21.0090  -33.0360 C   0  0  0  0  0  0  0  0  0  0  0  0
   -3.6190   21.0930  -33.2990 C   0  0  0  0  0  0  0  0  0  0  0  0
   -4.5870   20.7050  -32.2400 C   0  0  0  0  0  0  0  0  0  0  0  0
   -4.4190   22.1870  -32.6450 C   0  0  0  0  0  0  0  0  0  0  0  0
   -1.1250   21.3630  -33.8270 N   0  0  0  0  0  0  0  0  0  0  0  0
    0.0130   21.1200  -33.2020 N   0  0  0  0  0  0  0  0  0  0  0  0
    0.4360   18.4060  -29.4800 C   0  0  0  0  0  0  0  0  0  0  0  0
    1.5640   17.3450  -30.6180 Br  0  0  0  0  0  0  0  0  0  0  0  0
   -0.0550   17.9030  -28.2820 C   0  0  0  0  0  0  0  0  0  0  0  0
   -0.8540   18.6550  -27.4770 N   0  0  0  0  0  0  0  0  0  0  0  0
   -3.3280   22.2320  -28.2670 C   0  0  0  0  0  0  0  0  0  0  0  0
   -5.3230   25.6850  -28.1350 H   0  0  0  0  0  0  0  0  0  0  0  0
   -6.6950   24.8330  -28.5440 H   0  0  0  0  0  0  0  0  0  0  0  0
   -3.1058   25.6369  -28.0522 H   0  0  0  0  0  0  0  0  0  0  0  0
   -1.2948   25.0599  -26.4548 H   0  0  0  0  0  0  0  0  0  0  0  0
   -0.7973   22.6610  -26.0233 H   0  0  0  0  0  0  0  0  0  0  0  0
   -2.1372   20.1520  -30.9964 H   0  0  0  0  0  0  0  0  0  0  0  0
   -3.4617   20.7712  -34.3390 H   0  0  0  0  0  0  0  0  0  0  0  0
   -5.5060   20.1617  -32.5051 H   0  0  0  0  0  0  0  0  0  0  0  0
   -4.5285   20.1418  -31.2970 H   0  0  0  0  0  0  0  0  0  0  0  0
   -5.2138   22.7028  -33.2038 H   0  0  0  0  0  0  0  0  0  0  0  0
   -4.1879   23.1257  -32.1201 H   0  0  0  0  0  0  0  0  0  0  0  0
   -1.2620   21.7630  -34.7820 H   0  0  0  0  0  0  0  0  0  0  0  0
    0.9770   21.3050  -33.5980 H   0  0  0  0  0  0  0  0  0  0  0  0
    0.2067   16.8786  -27.9785 H   0  0  0  0  0  0  0  0  0  0  0  0
   -1.1970   18.2350  -26.5900 H   0  0  0  0  0  0  0  0  0  0  0  0
   -3.8972   21.4401  -28.7757 H   0  0  0  0  0  0  0  0  0  0  0  0
  1  2  1  0
  2  3  2  0
  2  4  2  0
  2  5  1  0
  5  6  2  0
  6  7  1  0
  7  8  2  0
  8  9  1  0
  9 10  1  0
 10 11  2  0
 11 12  1  0
 12 13  2  0
 13 14  1  0
 14 15  2  0
 15 16  1  0
 16 17  2  0
 17 18  1  0
 18 19  1  0
 19 20  1  0
 17 21  1  0
 21 22  1  0
 13 23  1  0
 23 24  1  0
 23 25  2  0
 25 26  1  0
  9 27  2  0
 27  5  1  0
 26 11  1  0
 22 15  1  0
 20 18  1  0
  1 28  1  0
  1 29  1  0
  6 30  1  0
  7 31  1  0
  8 32  1  0
 16 33  1  0
 18 34  1  0
 19 35  1  0
 19 36  1  0
 20 37  1  0
 20 38  1  0
 21 39  1  0
 22 40  1  0
 25 41  1  0
 26 42  1  0
 27 43  1  0
M  END
>  <smiles>  (37) 
NS(=O)(=O)c1cccc(N=c2nc(N=c3cc(C4CC4)[nH][nH]3)c(Br)c[nH]2)c1

>  <score_type>  (37) 
oracle

>  <origin>  (37) 
adgpu

>  <m_score__min__energy>  (37) 
-9.7799999999999994

>  <m_primary>  (37) 
energy

$$$$
37:0
     RDKit          3D

 33 34  0  0  0  0  0  0  0  0999 V2000
   -9.3540   19.6980  -32.3590 C   0  0  0  0  0  0  0  0  0  0  0  0
   -8.0760   20.4420  -32.1400 C   0  0  0  0  0  0  0  0  0  0  0  0
   -6.9850   19.8120  -32.1820 O   0  0  0  0  0  0  0  0  0  0  0  0
   -8.0910   21.8700  -31.9710 N   0  0  0  0  0  0  0  0  0  0  0  0
   -6.9460   22.6440  -31.5730 C   0  0  0  0  0  0  0  0  0  0  0  0
   -5.6700   22.2510  -31.9990 C   0  0  0  0  0  0  0  0  0  0  0  0
   -4.5410   22.9970  -31.6420 C   0  0  0  0  0  0  0  0  0  0  0  0
   -4.6760   24.1540  -30.8560 C   0  0  0  0  0  0  0  0  0  0  0  0
   -3.5460   24.9440  -30.4590 N   0  0  0  0  0  0  0  0  0  0  0  0
   -2.4510   24.5440  -29.1760 S   0  0  0  0  0  0  0  0  0  0  0  0
   -3.1270   24.7850  -27.8560 O   0  0  0  0  0  0  0  0  0  0  0  0
   -1.2390   25.4310  -29.2670 O   0  0  0  0  0  0  0  0  0  0  0  0
   -2.0000   22.8460  -29.2880 C   0  0  0  0  0  0  0  0  0  0  0  0
   -1.2540   22.3970  -30.3890 C   0  0  0  0  0  0  0  0  0  0  0  0
   -0.8810   21.0530  -30.4820 C   0  0  0  0  0  0  0  0  0  0  0  0
   -1.2480   20.1530  -29.4770 C   0  0  0  0  0  0  0  0  0  0  0  0
   -1.9950   20.5950  -28.3790 C   0  0  0  0  0  0  0  0  0  0  0  0
   -2.3720   21.9390  -28.2820 C   0  0  0  0  0  0  0  0  0  0  0  0
   -5.9540   24.5560  -30.4470 C   0  0  0  0  0  0  0  0  0  0  0  0
   -7.0820   23.8130  -30.8060 C   0  0  0  0  0  0  0  0  0  0  0  0
   -9.7988   19.4391  -31.3868 H   0  0  0  0  0  0  0  0  0  0  0  0
  -10.0537   20.3299  -32.9257 H   0  0  0  0  0  0  0  0  0  0  0  0
   -9.1499   18.7775  -32.9257 H   0  0  0  0  0  0  0  0  0  0  0  0
   -8.9670   22.3820  -32.2160 H   0  0  0  0  0  0  0  0  0  0  0  0
   -5.5550   21.3494  -32.6186 H   0  0  0  0  0  0  0  0  0  0  0  0
   -3.5439   22.6764  -31.9780 H   0  0  0  0  0  0  0  0  0  0  0  0
   -0.9625   23.1038  -31.1798 H   0  0  0  0  0  0  0  0  0  0  0  0
   -0.2981   20.7031  -31.3468 H   0  0  0  0  0  0  0  0  0  0  0  0
   -0.9494   19.0968  -29.5493 H   0  0  0  0  0  0  0  0  0  0  0  0
   -2.2861   19.8847  -27.5911 H   0  0  0  0  0  0  0  0  0  0  0  0
   -2.9592   22.2850  -27.4186 H   0  0  0  0  0  0  0  0  0  0  0  0
   -6.0708   25.4645  -29.8379 H   0  0  0  0  0  0  0  0  0  0  0  0
   -8.0808   24.1451  -30.4865 H   0  0  0  0  0  0  0  0  0  0  0  0
  1  2  1  0
  2  3  2  0
  2  4  1  0
  4  5  1  0
  5  6  2  0
  6  7  1  0
  7  8  2  0
  8  9  1  0
  9 10  1  0
 10 11  2  0
 10 12  2  0
 10 13  1  0
 13 14  2  0
 14 15  1  0
 15 16  2  0
 16 17  1  0
 17 18  2  0
  8 19  1  0
 19 20  2  0
 20  5  1  0
 18 13  1  0
  1 21  1  0
  1 22  1  0
  1 23  1  0
  4 24  1  0
  6 25  1  0
  7 26  1  0
 14 27  1  0
 15 28  1  0
 16 29  1  0
 17 30  1  0
 18 31  1  0
 19 32  1  0
 20 33  1  0
M  CHG  1   9  -1
M  END
>  <UniqueID>  (38) 
36

>  <SMILES>  (38) 
CC(=O)Nc1ccc([N-]S(=O)(=O)c2ccccc2)cc1

>  <Energy>  (38) 
38.34433185298971

>  <Genealogy>  (38) 
CC(=O)Nc1ccc([N-]S(=O)(=O)c2ccccc2)cc1 (protonated)
CC(=O)Nc1ccc([N-]S(=O)(=O)c2ccccc2)cc1 (3D coordinates assigned)
CC(=O)Nc1ccc([N-]S(=O)(=O)c2ccccc2)cc1 (optimized conformer: 38.34433185298971 kcal/mol)

>  <smiles>  (38) 
CC(=O)Nc1ccc(NS(=O)(=O)c2ccccc2)cc1

>  <score_type>  (38) 
oracle

>  <origin>  (38) 
adgpu

>  <m_score__min__energy>  (38) 
-8.6899999999999995

>  <m_primary>  (38) 
energy

$$$$
38:0
     RDKit          3D

 58 61  0  0  0  0  0  0  0  0999 V2000
   -9.3230   21.0170  -31.9170 C   0  0  0  0  0  0  0  0  0  0  0  0
   -9.0320   19.7320  -32.6910 C   0  0  0  0  0  0  0  0  0  0  0  0
   -8.7470   18.5530  -31.7590 C   0  0  0  0  0  0  0  0  0  0  0  0
   -7.7870   17.6470  -32.3740 N   0  0  0  0  0  0  0  0  0  0  0  0
   -6.4420   17.4960  -31.9140 C   0  0  0  0  0  0  0  0  0  0  0  0
   -6.1200   16.4570  -31.2770 O   0  0  0  0  0  0  0  0  0  0  0  0
   -5.4340   18.5500  -32.2090 C   0  0  0  0  0  0  0  0  0  0  0  0
   -5.7030   19.8800  -31.8490 C   0  0  0  0  0  0  0  0  0  0  0  0
   -4.7880   20.9070  -32.1140 C   0  0  0  0  0  0  0  0  0  0  0  0
   -5.1360   22.2810  -31.7070 C   0  0  0  0  0  0  0  0  0  0  0  0
   -6.4570   22.7390  -31.8030 C   0  0  0  0  0  0  0  0  0  0  0  0
   -6.7780   24.0360  -31.3920 C   0  0  0  0  0  0  0  0  0  0  0  0
   -5.7890   24.8700  -30.8620 C   0  0  0  0  0  0  0  0  0  0  0  0
   -4.4720   24.4120  -30.7350 C   0  0  0  0  0  0  0  0  0  0  0  0
   -3.4890   25.2590  -30.1290 N   0  0  0  0  0  0  0  0  0  0  0  0
   -2.3790   24.8130  -29.3350 C   0  0  0  0  0  0  0  0  0  0  0  0
   -1.5460   25.6630  -28.9220 O   0  0  0  0  0  0  0  0  0  0  0  0
   -2.2070   23.3930  -28.9670 C   0  0  0  0  0  0  0  0  0  0  0  0
   -2.8900   22.8680  -27.8650 C   0  0  0  0  0  0  0  0  0  0  0  0
   -2.6970   21.5390  -27.4830 C   0  0  0  0  0  0  0  0  0  0  0  0
   -1.8210   20.7080  -28.1970 C   0  0  0  0  0  0  0  0  0  0  0  0
   -1.6330   19.2810  -27.7540 C   0  0  0  0  0  0  0  0  0  0  0  0
   -1.1090   21.2380  -29.3000 C   0  0  0  0  0  0  0  0  0  0  0  0
   -0.1360   20.3940  -30.0820 C   0  0  0  0  0  0  0  0  0  0  0  0
   -1.3260   22.5710  -29.6850 C   0  0  0  0  0  0  0  0  0  0  0  0
   -4.1410   23.1290  -31.2030 C   0  0  0  0  0  0  0  0  0  0  0  0
   -3.5820   20.6100  -32.7850 C   0  0  0  0  0  0  0  0  0  0  0  0
   -2.6470   21.6060  -33.1290 C   0  0  0  0  0  0  0  0  0  0  0  0
   -1.4680   21.2610  -33.7890 C   0  0  0  0  0  0  0  0  0  0  0  0
   -1.2280   19.9240  -34.1140 C   0  0  0  0  0  0  0  0  0  0  0  0
   -2.1400   18.9720  -33.7950 N   0  0  0  0  0  0  0  0  0  0  0  0
   -3.3010   19.2720  -33.1480 C   0  0  0  0  0  0  0  0  0  0  0  0
   -4.2150   18.2520  -32.8540 C   0  0  0  0  0  0  0  0  0  0  0  0
   -3.9050   16.9480  -33.2220 O   0  0  0  0  0  0  0  0  0  0  0  0
   -9.2768   20.8130  -30.8371 H   0  0  0  0  0  0  0  0  0  0  0  0
   -8.5749   21.7799  -32.1784 H   0  0  0  0  0  0  0  0  0  0  0  0
  -10.3268   21.3831  -32.1784 H   0  0  0  0  0  0  0  0  0  0  0  0
   -9.9043   19.4883  -33.3152 H   0  0  0  0  0  0  0  0  0  0  0  0
   -8.1366   19.9020  -33.3069 H   0  0  0  0  0  0  0  0  0  0  0  0
   -8.3352   18.9302  -30.8113 H   0  0  0  0  0  0  0  0  0  0  0  0
   -9.6845   18.0092  -31.5709 H   0  0  0  0  0  0  0  0  0  0  0  0
   -6.6524   20.1207  -31.3482 H   0  0  0  0  0  0  0  0  0  0  0  0
   -7.2409   22.0782  -32.2016 H   0  0  0  0  0  0  0  0  0  0  0  0
   -7.8113   24.4013  -31.4858 H   0  0  0  0  0  0  0  0  0  0  0  0
   -6.0467   25.8908  -30.5433 H   0  0  0  0  0  0  0  0  0  0  0  0
   -3.5829   23.5056  -27.2963 H   0  0  0  0  0  0  0  0  0  0  0  0
   -3.2378   21.1392  -26.6126 H   0  0  0  0  0  0  0  0  0  0  0  0
   -1.6271   19.2360  -26.6549 H   0  0  0  0  0  0  0  0  0  0  0  0
   -2.4578   18.6650  -28.1417 H   0  0  0  0  0  0  0  0  0  0  0  0
   -0.6769   18.8996  -28.1417 H   0  0  0  0  0  0  0  0  0  0  0  0
    0.5073   19.8360  -29.3858 H   0  0  0  0  0  0  0  0  0  0  0  0
   -0.6910   19.6865  -30.7155 H   0  0  0  0  0  0  0  0  0  0  0  0
    0.4860   21.0434  -30.7155 H   0  0  0  0  0  0  0  0  0  0  0  0
   -0.7982   22.9758  -30.5611 H   0  0  0  0  0  0  0  0  0  0  0  0
   -3.0954   22.7887  -31.1735 H   0  0  0  0  0  0  0  0  0  0  0  0
   -2.8473   22.6577  -32.8765 H   0  0  0  0  0  0  0  0  0  0  0  0
   -0.7327   22.0358  -34.0516 H   0  0  0  0  0  0  0  0  0  0  0  0
   -0.2979   19.6426  -34.6295 H   0  0  0  0  0  0  0  0  0  0  0  0
  1  2  1  0
  2  3  1  0
  3  4  1  0
  4  5  1  0
  5  6  2  0
  5  7  1  0
  7  8  2  0
  8  9  1  0
  9 10  1  0
 10 11  2  0
 11 12  1  0
 12 13  2  0
 13 14  1  0
 14 15  1  0
 15 16  1  0
 16 17  2  0
 16 18  1  0
 18 19  2  0
 19 20  1  0
 20 21  2  0
 21 22  1  0
 21 23  1  0
 23 24  1  0
 23 25  2  0
 14 26  2  0
  9 27  2  0
 27 28  1  0
 28 29  2  0
 29 30  1  0
 30 31  2  0
 31 32  1  0
 32 33  2  0
 33 34  1  0
 33  7  1  0
 26 10  1  0
 32 27  1  0
 25 18  1  0
  1 35  1  0
  1 36  1  0
  1 37  1  0
  2 38  1  0
  2 39  1  0
  3 40  1  0
  3 41  1  0
  8 42  1  0
 11 43  1  0
 12 44  1  0
 13 45  1  0
 19 46  1  0
 20 47  1  0
 22 48  1  0
 22 49  1  0
 22 50  1  0
 24 51  1  0
 24 52  1  0
 24 53  1  0
 25 54  1  0
 26 55  1  0
 28 56  1  0
 29 57  1  0
 30 58  1  0
M  CHG  3   4  -1  15  -1  34  -1
M  END
>  <UniqueID>  (39) 
37

>  <SMILES>  (39) 
CCC[N-]C(=O)c1cc(-c2cccc([N-]C(=O)c3ccc(C)c(C)c3)c2)c2cccnc2c1[O-]

>  <Energy>  (39) 
74.85296833950635

>  <Genealogy>  (39) 
CCC[N-]C(=O)c1cc(-c2cccc([N-]C(=O)c3ccc(C)c(C)c3)c2)c2cccnc2c1[O-] (protonated)
CCC[N-]C(=O)c1cc(-c2cccc([N-]C(=O)c3ccc(C)c(C)c3)c2)c2cccnc2c1[O-] (3D coordinates assigned)
CCC[N-]C(=O)c1cc(-c2cccc([N-]C(=O)c3ccc(C)c(C)c3)c2)c2cccnc2c1[O-] (optimized conformer: 74.85296833950635 kcal/mol)

>  <smiles>  (39) 
CCCNC(=O)c1cc(-c2cccc(NC(=O)c3ccc(C)c(C)c3)c2)c2cccnc2c1O

>  <score_type>  (39) 
oracle

>  <origin>  (39) 
adgpu

>  <m_score__min__energy>  (39) 
-13.6

>  <m_primary>  (39) 
energy

$$$$
39:0
     RDKit          3D

 72 76  0  0  0  0  0  0  0  0999 V2000
   -2.4890   25.2310  -28.9370 N   0  0  0  0  0  0  0  0  0  0  0  0
   -1.9610   24.1090  -28.2000 C   0  0  0  0  0  0  0  0  0  0  0  0
   -1.6420   22.9220  -28.9000 C   0  0  0  0  0  0  0  0  0  0  0  0
   -1.9790   22.7530  -30.2920 N   0  0  0  0  0  0  0  0  0  0  0  0
   -0.9310   22.3140  -31.2240 C   0  0  0  0  0  0  0  0  0  0  0  0
   -1.3970   21.1130  -32.0040 C   0  0  0  0  0  0  0  0  0  0  0  0
   -2.0150   21.2720  -33.2550 C   0  0  0  0  0  0  0  0  0  0  0  0
   -2.3910   20.1520  -34.0030 C   0  0  0  0  0  0  0  0  0  0  0  0
   -2.1490   18.8670  -33.5100 C   0  0  0  0  0  0  0  0  0  0  0  0
   -1.5300   18.7000  -32.2690 C   0  0  0  0  0  0  0  0  0  0  0  0
   -1.1540   19.8180  -31.5160 C   0  0  0  0  0  0  0  0  0  0  0  0
   -3.2710   23.1770  -30.7870 C   0  0  0  0  0  0  0  0  0  0  0  0
   -3.5480   24.4070  -30.8510 O   0  0  0  0  0  0  0  0  0  0  0  0
   -4.3030   22.2000  -31.1910 C   0  0  0  0  0  0  0  0  0  0  0  0
   -4.1780   20.8430  -30.8550 C   0  0  0  0  0  0  0  0  0  0  0  0
   -5.1630   19.9270  -31.2370 C   0  0  0  0  0  0  0  0  0  0  0  0
   -6.2820   20.3560  -31.9630 C   0  0  0  0  0  0  0  0  0  0  0  0
   -7.4890   19.1810  -32.4780 S   0  0  0  0  0  0  0  0  0  0  0  0
   -8.7170   19.8900  -32.9810 O   0  0  0  0  0  0  0  0  0  0  0  0
   -7.8740   18.3370  -31.2940 O   0  0  0  0  0  0  0  0  0  0  0  0
   -6.8310   18.1660  -33.7400 N   0  0  0  0  0  0  0  0  0  0  0  0
   -5.5630   18.7560  -34.2360 C   0  0  0  0  0  0  0  0  0  0  0  0
   -4.7070   17.7200  -34.9740 C   0  0  0  0  0  0  0  0  0  0  0  0
   -4.3000   16.5680  -34.0370 C   0  0  0  0  0  0  0  0  0  0  0  0
   -5.2790   16.3820  -32.8640 C   0  0  0  0  0  0  0  0  0  0  0  0
   -6.7100   16.7540  -33.2780 C   0  0  0  0  0  0  0  0  0  0  0  0
   -6.4060   21.7090  -32.3080 C   0  0  0  0  0  0  0  0  0  0  0  0
   -5.4190   22.6240  -31.9300 C   0  0  0  0  0  0  0  0  0  0  0  0
   -1.0210   21.8840  -28.2050 C   0  0  0  0  0  0  0  0  0  0  0  0
   -0.7090   20.8140  -28.7910 O   0  0  0  0  0  0  0  0  0  0  0  0
   -0.7730   22.0130  -26.8850 N   0  0  0  0  0  0  0  0  0  0  0  0
   -1.1230   23.1280  -26.1990 C   0  0  0  0  0  0  0  0  0  0  0  0
   -0.8830   23.1700  -24.9630 O   0  0  0  0  0  0  0  0  0  0  0  0
   -1.7300   24.1840  -26.8390 N   0  0  0  0  0  0  0  0  0  0  0  0
   -2.2090   25.3310  -26.0340 C   0  0  0  0  0  0  0  0  0  0  0  0
   -1.0490   26.0420  -25.3800 C   0  0  0  0  0  0  0  0  0  0  0  0
    0.1460   26.2740  -26.0830 C   0  0  0  0  0  0  0  0  0  0  0  0
    1.2090   26.9440  -25.4670 C   0  0  0  0  0  0  0  0  0  0  0  0
    1.0910   27.3780  -24.1450 C   0  0  0  0  0  0  0  0  0  0  0  0
   -0.0960   27.1590  -23.4410 C   0  0  0  0  0  0  0  0  0  0  0  0
   -1.1640   26.4990  -24.0560 C   0  0  0  0  0  0  0  0  0  0  0  0
   -3.4680   25.5590  -28.8050 H   0  0  0  0  0  0  0  0  0  0  0  0
   -1.9970   25.6730  -29.7360 H   0  0  0  0  0  0  0  0  0  0  0  0
   -0.6992   23.1324  -31.9215 H   0  0  0  0  0  0  0  0  0  0  0  0
   -0.0323   22.0425  -30.6508 H   0  0  0  0  0  0  0  0  0  0  0  0
   -2.2041   22.2818  -33.6481 H   0  0  0  0  0  0  0  0  0  0  0  0
   -2.8779   20.2826  -34.9807 H   0  0  0  0  0  0  0  0  0  0  0  0
   -2.4460   17.9869  -34.0993 H   0  0  0  0  0  0  0  0  0  0  0  0
   -1.3378   17.6880  -31.8830 H   0  0  0  0  0  0  0  0  0  0  0  0
   -0.6668   19.6826  -30.5391 H   0  0  0  0  0  0  0  0  0  0  0  0
   -3.3006   20.4983  -30.2882 H   0  0  0  0  0  0  0  0  0  0  0  0
   -5.0590   18.8658  -30.9666 H   0  0  0  0  0  0  0  0  0  0  0  0
   -7.5220   18.1870  -34.5270 H   0  0  0  0  0  0  0  0  0  0  0  0
   -5.7988   19.5801  -34.9254 H   0  0  0  0  0  0  0  0  0  0  0  0
   -4.9912   19.1191  -33.3693 H   0  0  0  0  0  0  0  0  0  0  0  0
   -5.2846   17.3111  -35.8161 H   0  0  0  0  0  0  0  0  0  0  0  0
   -3.7938   18.2153  -35.3356 H   0  0  0  0  0  0  0  0  0  0  0  0
   -4.2675   15.6354  -34.6195 H   0  0  0  0  0  0  0  0  0  0  0  0
   -3.3163   16.8170  -33.6123 H   0  0  0  0  0  0  0  0  0  0  0  0
   -5.2594   15.3303  -32.5423 H   0  0  0  0  0  0  0  0  0  0  0  0
   -4.9693   17.0424  -32.0406 H   0  0  0  0  0  0  0  0  0  0  0  0
   -7.0229   16.0888  -34.0963 H   0  0  0  0  0  0  0  0  0  0  0  0
   -7.3506   16.6406  -32.3910 H   0  0  0  0  0  0  0  0  0  0  0  0
   -7.2823   22.0517  -32.8777 H   0  0  0  0  0  0  0  0  0  0  0  0
   -5.5173   23.6824  -32.2132 H   0  0  0  0  0  0  0  0  0  0  0  0
   -2.7417   26.0355  -26.6897 H   0  0  0  0  0  0  0  0  0  0  0  0
   -2.8836   24.9569  -25.2498 H   0  0  0  0  0  0  0  0  0  0  0  0
    0.2460   25.9273  -27.1221 H   0  0  0  0  0  0  0  0  0  0  0  0
    2.1388   27.1290  -26.0249 H   0  0  0  0  0  0  0  0  0  0  0  0
    1.9325   27.8923  -23.6578 H   0  0  0  0  0  0  0  0  0  0  0  0
   -0.1902   27.5064  -22.4015 H   0  0  0  0  0  0  0  0  0  0  0  0
   -2.0995   26.3365  -23.5006 H   0  0  0  0  0  0  0  0  0  0  0  0
  1  2  1  0
  2  3  2  0
  3  4  1  0
  4  5  1  0
  5  6  1  0
  6  7  2  0
  7  8  1  0
  8  9  2  0
  9 10  1  0
 10 11  2  0
  4 12  1  0
 12 13  2  0
 12 14  1  0
 14 15  2  0
 15 16  1  0
 16 17  2  0
 17 18  1  0
 18 19  2  0
 18 20  2  0
 18 21  1  0
 21 22  1  0
 22 23  1  0
 23 24  1  0
 24 25  1  0
 25 26  1  0
 17 27  1  0
 27 28  2  0
  3 29  1  0
 29 30  2  0
 29 31  1  0
 31 32  1  0
 32 33  2  0
 32 34  1  0
 34 35  1  0
 35 36  1  0
 36 37  2  0
 37 38  1  0
 38 39  2  0
 39 40  1  0
 40 41  2  0
 34  2  1  0
 41 36  1  0
 11  6  1  0
 28 14  1  0
 26 21  1  0
  1 42  1  0
  1 43  1  0
  5 44  1  0
  5 45  1  0
  7 46  1  0
  8 47  1  0
  9 48  1  0
 10 49  1  0
 11 50  1  0
 15 51  1  0
 16 52  1  0
 21 53  1  0
 22 54  1  0
 22 55  1  0
 23 56  1  0
 23 57  1  0
 24 58  1  0
 24 59  1  0
 25 60  1  0
 25 61  1  0
 26 62  1  0
 26 63  1  0
 27 64  1  0
 28 65  1  0
 35 66  1  0
 35 67  1  0
 37 68  1  0
 38 69  1  0
 39 70  1  0
 40 71  1  0
 41 72  1  0
M  CHG  2  21   1  31  -1
M  END
>  <UniqueID>  (40) 
38

>  <SMILES>  (40) 
Nc1c(N(Cc2ccccc2)C(=O)c2ccc(S(=O)(=O)[NH+]3CCCCC3)cc2)c(=O)[n-]c(=O)n1Cc1ccccc1

>  <Energy>  (40) 
94.47730531620998

>  <Genealogy>  (40) 
Nc1c(N(Cc2ccccc2)C(=O)c2ccc(S(=O)(=O)[NH+]3CCCCC3)cc2)c(=O)[n-]c(=O)n1Cc1ccccc1 (protonated)
Nc1c(N(Cc2ccccc2)C(=O)c2ccc(S(=O)(=O)[NH+]3CCCCC3)cc2)c(=O)[n-]c(=O)n1Cc1ccccc1 (3D coordinates assigned)
Nc1c(N(Cc2ccccc2)C(=O)c2ccc(S(=O)(=O)[NH+]3CCCCC3)cc2)c(=O)[n-]c(=O)n1Cc1ccccc1 (nonaromatic ring conformer: 94.47730531620998 kcal/mol)

>  <smiles>  (40) 
Nc1c(N(Cc2ccccc2)C(=O)c2ccc(S(=O)(=O)N3CCCCC3)cc2)c(=O)[nH]c(=O)n1Cc1ccccc1

>  <score_type>  (40) 
oracle

>  <origin>  (40) 
adgpu

>  <m_score__min__energy>  (40) 
-11.66

>  <m_primary>  (40) 
energy

$$$$
40:0
     RDKit          3D

 31 32  0  0  0  0  0  0  0  0999 V2000
   -3.5150   16.6530  -35.2950 C   0  0  0  0  0  0  0  0  0  0  0  0
   -4.6650   17.4830  -35.4150 O   0  0  0  0  0  0  0  0  0  0  0  0
   -5.5750   17.7320  -34.3760 C   0  0  0  0  0  0  0  0  0  0  0  0
   -5.9560   16.7380  -33.4530 C   0  0  0  0  0  0  0  0  0  0  0  0
   -6.8520   17.0420  -32.4250 C   0  0  0  0  0  0  0  0  0  0  0  0
   -7.3830   18.3290  -32.3130 C   0  0  0  0  0  0  0  0  0  0  0  0
   -7.0330   19.3220  -33.2360 C   0  0  0  0  0  0  0  0  0  0  0  0
   -7.5830   20.6030  -33.0810 O   0  0  0  0  0  0  0  0  0  0  0  0
   -7.0120   21.6440  -32.3380 C   0  0  0  0  0  0  0  0  0  0  0  0
   -5.6270   21.8280  -32.3620 C   0  0  0  0  0  0  0  0  0  0  0  0
   -5.0700   22.8240  -31.6240 N   0  0  0  0  0  0  0  0  0  0  0  0
   -5.8340   23.6460  -30.8560 C   0  0  0  0  0  0  0  0  0  0  0  0
   -5.0810   24.9180  -29.9110 S   0  0  0  0  0  0  0  0  0  0  0  0
   -4.5860   24.2770  -28.3270 C   0  0  0  0  0  0  0  0  0  0  0  0
   -6.0530   26.0490  -29.7240 O   0  0  0  0  0  0  0  0  0  0  0  0
   -3.8690   25.4310  -30.6350 O   0  0  0  0  0  0  0  0  0  0  0  0
   -7.2190   23.4560  -30.8200 C   0  0  0  0  0  0  0  0  0  0  0  0
   -7.7740   22.4590  -31.5580 N   0  0  0  0  0  0  0  0  0  0  0  0
   -6.1140   19.0190  -34.2570 C   0  0  0  0  0  0  0  0  0  0  0  0
   -3.2896   16.4904  -34.2307 H   0  0  0  0  0  0  0  0  0  0  0  0
   -3.7089   15.6853  -35.7808 H   0  0  0  0  0  0  0  0  0  0  0  0
   -2.6577   17.1419  -35.7808 H   0  0  0  0  0  0  0  0  0  0  0  0
   -5.5472   15.7207  -33.5419 H   0  0  0  0  0  0  0  0  0  0  0  0
   -7.1402   16.2652  -31.7014 H   0  0  0  0  0  0  0  0  0  0  0  0
   -8.0801   18.5638  -31.4951 H   0  0  0  0  0  0  0  0  0  0  0  0
   -4.9918   21.1710  -32.9742 H   0  0  0  0  0  0  0  0  0  0  0  0
   -5.0484   24.8757  -27.5284 H   0  0  0  0  0  0  0  0  0  0  0  0
   -4.9126   23.2305  -28.2366 H   0  0  0  0  0  0  0  0  0  0  0  0
   -3.4909   24.3284  -28.2366 H   0  0  0  0  0  0  0  0  0  0  0  0
   -7.8530   24.1072  -30.2003 H   0  0  0  0  0  0  0  0  0  0  0  0
   -5.8154   19.8017  -34.9699 H   0  0  0  0  0  0  0  0  0  0  0  0
  1  2  1  0
  2  3  1  0
  3  4  2  0
  4  5  1  0
  5  6  2  0
  6  7  1  0
  7  8  1  0
  8  9  1  0
  9 10  2  0
 10 11  1  0
 11 12  2  0
 12 13  1  0
 13 14  1  0
 13 15  2  0
 13 16  2  0
 12 17  1  0
 17 18  2  0
  7 19  2  0
 19  3  1  0
 18  9  1  0
  1 20  1  0
  1 21  1  0
  1 22  1  0
  4 23  1  0
  5 24  1  0
  6 25  1  0
 10 26  1  0
 14 27  1  0
 14 28  1  0
 14 29  1  0
 17 30  1  0
 19 31  1  0
M  END
>  <UniqueID>  (41) 
39

>  <SMILES>  (41) 
COc1cccc(Oc2cnc(S(C)(=O)=O)cn2)c1

>  <Energy>  (41) 
34.51280987987205

>  <Genealogy>  (41) 
COc1cccc(Oc2cnc(S(C)(=O)=O)cn2)c1 (3D coordinates assigned)
COc1cccc(Oc2cnc(S(C)(=O)=O)cn2)c1 (optimized conformer: 34.51280987987205 kcal/mol)

>  <smiles>  (41) 
COc1cccc(Oc2cnc(S(C)(=O)=O)cn2)c1

>  <score_type>  (41) 
oracle

>  <origin>  (41) 
adgpu

>  <m_score__min__energy>  (41) 
-7.0199999999999996

>  <m_primary>  (41) 
energy

$$$$
41:0
     RDKit          3D

 43 46  0  0  0  0  0  0  0  0999 V2000
    2.5900   18.3510  -35.4630 C   0  0  0  0  0  0  0  0  0  0  0  0
    2.0060   19.5210  -34.8980 O   0  0  0  0  0  0  0  0  0  0  0  0
    0.6510   19.6460  -34.5590 C   0  0  0  0  0  0  0  0  0  0  0  0
    0.0720   20.8780  -34.2020 C   0  0  0  0  0  0  0  0  0  0  0  0
   -1.2850   20.9500  -33.8740 C   0  0  0  0  0  0  0  0  0  0  0  0
   -2.0900   19.8000  -33.9050 C   0  0  0  0  0  0  0  0  0  0  0  0
   -3.5270   19.8950  -33.5510 C   0  0  0  0  0  0  0  0  0  0  0  0
   -4.1840   18.7950  -33.3270 N   0  0  0  0  0  0  0  0  0  0  0  0
   -5.5570   18.6700  -32.9260 C   0  0  0  0  0  0  0  0  0  0  0  0
   -6.2560   17.5330  -33.3580 C   0  0  0  0  0  0  0  0  0  0  0  0
   -7.5710   17.3050  -32.9490 C   0  0  0  0  0  0  0  0  0  0  0  0
   -8.1960   18.1980  -32.0790 C   0  0  0  0  0  0  0  0  0  0  0  0
   -7.5050   19.3200  -31.6170 C   0  0  0  0  0  0  0  0  0  0  0  0
   -6.1940   19.5800  -32.0400 C   0  0  0  0  0  0  0  0  0  0  0  0
   -5.5230   20.7110  -31.4600 N   0  0  0  0  0  0  0  0  0  0  0  0
   -4.6240   21.4650  -32.0230 C   0  0  0  0  0  0  0  0  0  0  0  0
   -4.0160   22.5540  -31.2220 C   0  0  0  0  0  0  0  0  0  0  0  0
   -4.6740   23.7920  -31.1100 C   0  0  0  0  0  0  0  0  0  0  0  0
   -4.1090   24.8290  -30.3600 C   0  0  0  0  0  0  0  0  0  0  0  0
   -2.8790   24.6450  -29.7230 C   0  0  0  0  0  0  0  0  0  0  0  0
   -2.3200   25.6760  -28.9790 O   0  0  0  0  0  0  0  0  0  0  0  0
   -2.2100   23.4240  -29.8390 C   0  0  0  0  0  0  0  0  0  0  0  0
   -2.7700   22.3840  -30.5870 C   0  0  0  0  0  0  0  0  0  0  0  0
   -4.2100   21.2310  -33.4500 C   0  0  0  0  0  0  0  0  0  0  0  0
   -1.5040   18.5690  -34.2500 C   0  0  0  0  0  0  0  0  0  0  0  0
   -0.1470   18.4980  -34.5760 C   0  0  0  0  0  0  0  0  0  0  0  0
    2.9240   17.6818  -34.6564 H   0  0  0  0  0  0  0  0  0  0  0  0
    1.8449   17.8327  -36.0844 H   0  0  0  0  0  0  0  0  0  0  0  0
    3.4521   18.6350  -36.0844 H   0  0  0  0  0  0  0  0  0  0  0  0
    0.6897   21.7880  -34.1810 H   0  0  0  0  0  0  0  0  0  0  0  0
   -1.7262   21.9165  -33.5890 H   0  0  0  0  0  0  0  0  0  0  0  0
   -5.7621   16.8128  -34.0268 H   0  0  0  0  0  0  0  0  0  0  0  0
   -8.1145   16.4206  -33.3130 H   0  0  0  0  0  0  0  0  0  0  0  0
   -9.2324   18.0186  -31.7570 H   0  0  0  0  0  0  0  0  0  0  0  0
   -7.9953   20.0081  -30.9127 H   0  0  0  0  0  0  0  0  0  0  0  0
   -5.6389   23.9458  -31.6153 H   0  0  0  0  0  0  0  0  0  0  0  0
   -4.6342   25.7915  -30.2715 H   0  0  0  0  0  0  0  0  0  0  0  0
   -1.2400   23.2805  -29.3405 H   0  0  0  0  0  0  0  0  0  0  0  0
   -2.2347   21.4276  -30.6802 H   0  0  0  0  0  0  0  0  0  0  0  0
   -5.0990   21.2402  -34.0978 H   0  0  0  0  0  0  0  0  0  0  0  0
   -3.5200   22.0253  -33.7709 H   0  0  0  0  0  0  0  0  0  0  0  0
   -2.1177   17.6562  -34.2633 H   0  0  0  0  0  0  0  0  0  0  0  0
    0.2977   17.5295  -34.8486 H   0  0  0  0  0  0  0  0  0  0  0  0
  1  2  1  0
  2  3  1  0
  3  4  2  0
  4  5  1  0
  5  6  2  0
  6  7  1  0
  7  8  2  0
  8  9  1  0
  9 10  2  0
 10 11  1  0
 11 12  2  0
 12 13  1  0
 13 14  2  0
 14 15  1  0
 15 16  2  0
 16 17  1  0
 17 18  2  0
 18 19  1  0
 19 20  2  0
 20 21  1  0
 20 22  1  0
 22 23  2  0
 16 24  1  0
  6 25  1  0
 25 26  2  0
 26  3  1  0
 24  7  1  0
 14  9  1  0
 23 17  1  0
  1 27  1  0
  1 28  1  0
  1 29  1  0
  4 30  1  0
  5 31  1  0
 10 32  1  0
 11 33  1  0
 12 34  1  0
 13 35  1  0
 18 36  1  0
 19 37  1  0
 22 38  1  0
 23 39  1  0
 24 40  1  0
 24 41  1  0
 25 42  1  0
 26 43  1  0
M  CHG  1  21  -1
M  END
>  <UniqueID>  (42) 
40

>  <SMILES>  (42) 
COc1ccc(C2=Nc3ccccc3N=C(c3ccc([O-])cc3)C2)cc1

>  <Energy>  (42) 
66.9620032026887

>  <Genealogy>  (42) 
COc1ccc(C2=Nc3ccccc3N=C(c3ccc([O-])cc3)C2)cc1 (protonated)
COc1ccc(C2=Nc3ccccc3N=C(c3ccc([O-])cc3)C2)cc1 (3D coordinates assigned)
COc1ccc(C2=Nc3ccccc3N=C(c3ccc([O-])cc3)C2)cc1 (nonaromatic ring conformer: 66.9620032026887 kcal/mol)

>  <smiles>  (42) 
COc1ccc(C2=Nc3ccccc3N=C(c3ccc(O)cc3)C2)cc1

>  <score_type>  (42) 
oracle

>  <origin>  (42) 
adgpu

>  <m_score__min__energy>  (42) 
-9.1199999999999992

>  <m_primary>  (42) 
energy

$$$$
42:0
     RDKit          3D

 53 56  0  0  0  0  0  0  0  0999 V2000
    5.0070   24.6790  -28.0800 C   0  0  0  0  0  0  0  0  0  0  0  0
    3.7670   24.5570  -27.2400 C   0  0  0  0  0  0  0  0  0  0  0  0
    2.4960   24.6710  -27.8310 C   0  0  0  0  0  0  0  0  0  0  0  0
    1.3300   24.5690  -27.0510 C   0  0  0  0  0  0  0  0  0  0  0  0
   -0.0140   24.6930  -27.6680 C   0  0  0  0  0  0  0  0  0  0  0  0
   -0.2090   25.5670  -28.5580 O   0  0  0  0  0  0  0  0  0  0  0  0
   -1.1060   23.8660  -27.2310 N   0  0  0  0  0  0  0  0  0  0  0  0
   -2.2830   23.6170  -28.0190 C   0  0  0  0  0  0  0  0  0  0  0  0
   -2.3440   24.0920  -29.3360 C   0  0  0  0  0  0  0  0  0  0  0  0
   -3.4850   23.8810  -30.1150 C   0  0  0  0  0  0  0  0  0  0  0  0
   -4.5950   23.2010  -29.5850 C   0  0  0  0  0  0  0  0  0  0  0  0
   -5.8080   22.9740  -30.4130 C   0  0  0  0  0  0  0  0  0  0  0  0
   -6.7510   24.0000  -30.5920 C   0  0  0  0  0  0  0  0  0  0  0  0
   -7.8860   23.7880  -31.3780 C   0  0  0  0  0  0  0  0  0  0  0  0
   -8.0960   22.5510  -31.9900 C   0  0  0  0  0  0  0  0  0  0  0  0
   -7.1740   21.5070  -31.8150 C   0  0  0  0  0  0  0  0  0  0  0  0
   -7.3840   20.2310  -32.4490 N   0  0  0  0  0  0  0  0  0  0  0  0
   -8.6890   19.5600  -32.3810 C   0  0  0  0  0  0  0  0  0  0  0  0
   -8.5230   18.0850  -31.9610 C   0  0  0  0  0  0  0  0  0  0  0  0
   -7.1810   17.5410  -32.2510 N   0  0  0  0  0  0  0  0  0  0  0  0
   -6.6030   18.1230  -33.4670 C   0  0  0  0  0  0  0  0  0  0  0  0
   -6.3050   19.6060  -33.2260 C   0  0  0  0  0  0  0  0  0  0  0  0
   -6.0270   21.7300  -31.0310 C   0  0  0  0  0  0  0  0  0  0  0  0
   -4.5410   22.7450  -28.2560 C   0  0  0  0  0  0  0  0  0  0  0  0
   -3.3990   22.9550  -27.4790 C   0  0  0  0  0  0  0  0  0  0  0  0
    1.4530   24.3700  -25.6640 C   0  0  0  0  0  0  0  0  0  0  0  0
    2.7140   24.2610  -25.0740 C   0  0  0  0  0  0  0  0  0  0  0  0
    3.8690   24.3540  -25.8540 C   0  0  0  0  0  0  0  0  0  0  0  0
    5.1150   24.2480  -25.2450 O   0  0  0  0  0  0  0  0  0  0  0  0
    5.8865   24.7655  -27.4250 H   0  0  0  0  0  0  0  0  0  0  0  0
    5.1090   23.7866  -28.7149 H   0  0  0  0  0  0  0  0  0  0  0  0
    4.9332   25.5742  -28.7149 H   0  0  0  0  0  0  0  0  0  0  0  0
    2.4129   24.8417  -28.9145 H   0  0  0  0  0  0  0  0  0  0  0  0
   -1.0940   23.5190  -26.2460 H   0  0  0  0  0  0  0  0  0  0  0  0
   -1.4868   24.6354  -29.7601 H   0  0  0  0  0  0  0  0  0  0  0  0
   -3.5145   24.2500  -31.1509 H   0  0  0  0  0  0  0  0  0  0  0  0
   -6.5945   24.9764  -30.1101 H   0  0  0  0  0  0  0  0  0  0  0  0
   -8.6169   24.5985  -31.5152 H   0  0  0  0  0  0  0  0  0  0  0  0
   -8.9889   22.3935  -32.6128 H   0  0  0  0  0  0  0  0  0  0  0  0
   -9.3223   20.0760  -31.6444 H   0  0  0  0  0  0  0  0  0  0  0  0
   -9.1560   19.5937  -33.3764 H   0  0  0  0  0  0  0  0  0  0  0  0
   -8.7043   18.0079  -30.8788 H   0  0  0  0  0  0  0  0  0  0  0  0
   -9.2455   17.4971  -32.5460 H   0  0  0  0  0  0  0  0  0  0  0  0
   -7.2690   16.5080  -32.3940 H   0  0  0  0  0  0  0  0  0  0  0  0
   -5.6703   17.5969  -33.7187 H   0  0  0  0  0  0  0  0  0  0  0  0
   -7.3152   18.0207  -34.2991 H   0  0  0  0  0  0  0  0  0  0  0  0
   -5.3596   19.6992  -32.6715 H   0  0  0  0  0  0  0  0  0  0  0  0
   -6.2279   20.1146  -34.1983 H   0  0  0  0  0  0  0  0  0  0  0  0
   -5.2928   20.9214  -30.9000 H   0  0  0  0  0  0  0  0  0  0  0  0
   -5.4051   22.2185  -27.8245 H   0  0  0  0  0  0  0  0  0  0  0  0
   -3.3732   22.6000  -26.4382 H   0  0  0  0  0  0  0  0  0  0  0  0
    0.5499   24.2998  -25.0399 H   0  0  0  0  0  0  0  0  0  0  0  0
    2.7982   24.1010  -23.9890 H   0  0  0  0  0  0  0  0  0  0  0  0
  1  2  1  0
  2  3  2  0
  3  4  1  0
  4  5  1  0
  5  6  2  0
  5  7  1  0
  7  8  1  0
  8  9  2  0
  9 10  1  0
 10 11  2  0
 11 12  1  0
 12 13  2  0
 13 14  1  0
 14 15  2  0
 15 16  1  0
 16 17  1  0
 17 18  1  0
 18 19  1  0
 19 20  1  0
 20 21  1  0
 21 22  1  0
 16 23  2  0
 11 24  1  0
 24 25  2  0
  4 26  2  0
 26 27  1  0
 27 28  2  0
 28 29  1  0
 28  2  1  0
 25  8  1  0
 23 12  1  0
 22 17  1  0
  1 30  1  0
  1 31  1  0
  1 32  1  0
  3 33  1  0
  7 34  1  0
  9 35  1  0
 10 36  1  0
 13 37  1  0
 14 38  1  0
 15 39  1  0
 18 40  1  0
 18 41  1  0
 19 42  1  0
 19 43  1  0
 20 44  1  0
 21 45  1  0
 21 46  1  0
 22 47  1  0
 22 48  1  0
 23 49  1  0
 24 50  1  0
 25 51  1  0
 26 52  1  0
 27 53  1  0
M  CHG  1  29  -1
M  END
>  <UniqueID>  (43) 
41

>  <SMILES>  (43) 
Cc1cc(C(=O)Nc2ccc(-c3cccc(N4CCNCC4)c3)cc2)ccc1[O-]

>  <Energy>  (43) 
75.1010661478548

>  <Genealogy>  (43) 
Cc1cc(C(=O)Nc2ccc(-c3cccc(N4CCNCC4)c3)cc2)ccc1[O-] (protonated)
Cc1cc(C(=O)Nc2ccc(-c3cccc(N4CCNCC4)c3)cc2)ccc1[O-] (3D coordinates assigned)
Cc1cc(C(=O)Nc2ccc(-c3cccc(N4CCNCC4)c3)cc2)ccc1[O-] (nonaromatic ring conformer: 75.1010661478548 kcal/mol)

>  <smiles>  (43) 
Cc1cc(C(=O)Nc2ccc(-c3cccc(N4CCNCC4)c3)cc2)ccc1O

>  <score_type>  (43) 
oracle

>  <origin>  (43) 
adgpu

>  <m_score__min__energy>  (43) 
-9.25

>  <m_primary>  (43) 
energy

$$$$
43:0
     RDKit          3D

 37 38  0  0  0  0  0  0  0  0999 V2000
   -1.7440   24.8400  -28.1500 C   0  0  0  0  0  0  0  0  0  0  0  0
   -2.1950   24.8280  -29.5000 O   0  0  0  0  0  0  0  0  0  0  0  0
   -2.9860   23.8140  -30.0650 C   0  0  0  0  0  0  0  0  0  0  0  0
   -2.6030   22.4620  -30.0290 C   0  0  0  0  0  0  0  0  0  0  0  0
   -3.4140   21.4810  -30.6040 C   0  0  0  0  0  0  0  0  0  0  0  0
   -4.6190   21.8290  -31.2350 C   0  0  0  0  0  0  0  0  0  0  0  0
   -5.4690   20.7680  -31.8350 C   0  0  0  0  0  0  0  0  0  0  0  0
   -6.8530   20.7130  -31.6090 C   0  0  0  0  0  0  0  0  0  0  0  0
   -7.5960   19.6890  -32.2090 C   0  0  0  0  0  0  0  0  0  0  0  0
   -9.0790   19.6030  -31.9990 C   0  0  0  0  0  0  0  0  0  0  0  0
   -9.5150   20.7190  -31.3090 F   0  0  0  0  0  0  0  0  0  0  0  0
   -9.7400   19.5390  -33.2130 F   0  0  0  0  0  0  0  0  0  0  0  0
   -9.3810   18.4690  -31.2660 F   0  0  0  0  0  0  0  0  0  0  0  0
   -6.9680   18.7840  -33.0050 N   0  0  0  0  0  0  0  0  0  0  0  0
   -5.6300   18.8520  -33.2240 C   0  0  0  0  0  0  0  0  0  0  0  0
   -4.8470   17.6790  -34.2630 S   0  0  0  0  0  0  0  0  0  0  0  0
   -3.0860   17.9180  -34.2110 C   0  0  0  0  0  0  0  0  0  0  0  0
   -5.3270   17.8570  -35.6760 O   0  0  0  0  0  0  0  0  0  0  0  0
   -5.1900   16.2910  -33.7980 O   0  0  0  0  0  0  0  0  0  0  0  0
   -4.8960   19.8360  -32.6460 N   0  0  0  0  0  0  0  0  0  0  0  0
   -5.0080   23.1810  -31.2590 C   0  0  0  0  0  0  0  0  0  0  0  0
   -4.1940   24.1750  -30.6800 C   0  0  0  0  0  0  0  0  0  0  0  0
   -4.5540   25.5330  -30.6930 O   0  0  0  0  0  0  0  0  0  0  0  0
   -5.7500   26.0580  -30.1260 C   0  0  0  0  0  0  0  0  0  0  0  0
   -2.6111   24.8169  -27.4735 H   0  0  0  0  0  0  0  0  0  0  0  0
   -1.1123   23.9583  -27.9666 H   0  0  0  0  0  0  0  0  0  0  0  0
   -1.1601   25.7540  -27.9666 H   0  0  0  0  0  0  0  0  0  0  0  0
   -1.6581   22.1746  -29.5447 H   0  0  0  0  0  0  0  0  0  0  0  0
   -3.1058   20.4259  -30.5621 H   0  0  0  0  0  0  0  0  0  0  0  0
   -7.3458   21.4617  -30.9713 H   0  0  0  0  0  0  0  0  0  0  0  0
   -2.7529   17.9632  -33.1636 H   0  0  0  0  0  0  0  0  0  0  0  0
   -2.5870   17.0793  -34.7186 H   0  0  0  0  0  0  0  0  0  0  0  0
   -2.8286   18.8593  -34.7186 H   0  0  0  0  0  0  0  0  0  0  0  0
   -5.9581   23.4652  -31.7350 H   0  0  0  0  0  0  0  0  0  0  0  0
   -5.6798   26.0272  -29.0287 H   0  0  0  0  0  0  0  0  0  0  0  0
   -5.8860   27.0986  -30.4557 H   0  0  0  0  0  0  0  0  0  0  0  0
   -6.6081   25.4538  -30.4557 H   0  0  0  0  0  0  0  0  0  0  0  0
  1  2  1  0
  2  3  1  0
  3  4  2  0
  4  5  1  0
  5  6  2  0
  6  7  1  0
  7  8  2  0
  8  9  1  0
  9 10  1  0
 10 11  1  0
 10 12  1  0
 10 13  1  0
  9 14  2  0
 14 15  1  0
 15 16  1  0
 16 17  1  0
 16 18  2  0
 16 19  2  0
 15 20  2  0
  6 21  1  0
 21 22  2  0
 22 23  1  0
 23 24  1  0
 22  3  1  0
 20  7  1  0
  1 25  1  0
  1 26  1  0
  1 27  1  0
  4 28  1  0
  5 29  1  0
  8 30  1  0
 17 31  1  0
 17 32  1  0
 17 33  1  0
 21 34  1  0
 24 35  1  0
 24 36  1  0
 24 37  1  0
M  END
>  <UniqueID>  (44) 
42

>  <SMILES>  (44) 
COc1ccc(-c2cc(C(F)(F)F)nc(S(C)(=O)=O)n2)cc1OC

>  <Energy>  (44) 
37.161125100719715

>  <Genealogy>  (44) 
COc1ccc(-c2cc(C(F)(F)F)nc(S(C)(=O)=O)n2)cc1OC (3D coordinates assigned)
COc1ccc(-c2cc(C(F)(F)F)nc(S(C)(=O)=O)n2)cc1OC (optimized conformer: 37.161125100719715 kcal/mol)

>  <smiles>  (44) 
COc1ccc(-c2cc(C(F)(F)F)nc(S(C)(=O)=O)n2)cc1OC

>  <score_type>  (44) 
oracle

>  <origin>  (44) 
adgpu

>  <m_score__min__energy>  (44) 
-7.8899999999999997

>  <m_primary>  (44) 
energy

$$$$
44:0
     RDKit          3D

 55 57  0  0  1  0  0  0  0  0999 V2000
    0.1030   20.3790  -31.6370 C   0  0  0  0  0  0  0  0  0  0  0  0
   -0.8350   21.0990  -31.0430 C   0  0  0  0  0  0  0  0  0  0  0  0
   -2.2540   20.9290  -31.2640 C   0  0  0  0  0  0  0  0  0  0  0  0
   -3.0690   20.6180  -30.3300 O   0  0  0  0  0  0  0  0  0  0  0  0
   -2.8500   21.0970  -32.5520 N   0  0  0  0  0  0  0  0  0  0  0  0
   -4.2550   20.9010  -32.6300 C   0  0  0  0  0  0  0  0  0  0  0  0
   -5.1570   21.6360  -31.8410 C   0  0  0  0  0  0  0  0  0  0  0  0
   -6.4910   21.3890  -31.9750 C   0  0  0  0  0  0  0  0  0  0  0  0
   -7.4060   22.0830  -31.2250 C   0  0  0  0  0  0  0  0  0  0  0  0
   -7.0470   22.9290  -30.4030 N   0  0  0  0  0  0  0  0  0  0  0  0
   -5.8510   23.4260  -29.9800 C   0  0  0  0  0  0  0  0  0  0  0  0
   -5.2640   24.6040  -30.5130 C   0  0  0  0  0  0  0  0  0  0  0  0
   -3.9810   24.9700  -30.1040 C   0  0  0  0  0  0  0  0  0  0  0  0
   -3.2600   24.2230  -29.1950 C   0  0  0  0  0  0  0  0  0  0  0  0
   -1.6600   24.6380  -28.6570 S   0  0  0  0  0  0  0  0  0  0  0  0
   -0.6430   23.6570  -29.1760 O   0  0  0  0  0  0  0  0  0  0  0  0
   -1.2370   25.9960  -29.0830 O   0  0  0  0  0  0  0  0  0  0  0  0
   -1.5640   24.5990  -26.9160 N   0  0  0  0  0  0  0  0  0  0  0  0
   -2.6340   25.3850  -26.3300 C   0  0  0  0  0  0  0  0  0  0  0  0
   -3.8360   23.0790  -28.6810 C   0  0  0  0  0  0  0  0  0  0  0  0
   -2.9770   22.0710  -27.5150 Cl  0  0  0  0  0  0  0  0  0  0  0  0
   -5.1010   22.6660  -29.0480 C   0  0  0  0  0  0  0  0  0  0  0  0
   -8.7280   21.8290  -31.3690 N   0  0  0  0  0  0  0  0  0  0  0  0
   -9.1880   20.9130  -32.2270 C   0  0  0  0  0  0  0  0  0  0  0  0
   -8.3280   20.2110  -32.9800 N   0  0  0  0  0  0  0  0  0  0  0  0
   -7.0190   20.4570  -32.8430 C   0  0  0  0  0  0  0  0  0  0  0  0
   -6.1500   19.7350  -33.6170 C   0  0  0  0  0  0  0  0  0  0  0  0
   -4.8110   19.9920  -33.4720 C   0  0  0  0  0  0  0  0  0  0  0  0
   -3.9360   19.2570  -34.2580 O   0  0  0  0  0  0  0  0  0  0  0  0
   -3.0600   18.3100  -33.7010 C   0  0  0  0  0  0  0  0  0  0  0  0
   -1.6560   18.5100  -34.2090 C   0  0  0  0  0  0  0  0  0  0  0  0
   -1.4020   19.8340  -34.5280 O   0  0  0  0  0  0  0  0  0  0  0  0
   -0.1330   20.0270  -35.0320 C   0  0  0  0  0  0  0  0  0  0  0  0
    1.1639   20.5683  -31.4164 H   0  0  0  0  0  0  0  0  0  0  0  0
   -0.1782   19.5912  -32.3513 H   0  0  0  0  0  0  0  0  0  0  0  0
   -0.5145   21.8775  -30.3350 H   0  0  0  0  0  0  0  0  0  0  0  0
   -2.2680   21.3480  -33.3680 H   0  0  0  0  0  0  0  0  0  0  0  0
   -4.7943   22.3939  -31.1310 H   0  0  0  0  0  0  0  0  0  0  0  0
   -5.8139   25.2205  -31.2394 H   0  0  0  0  0  0  0  0  0  0  0  0
   -3.5300   25.8832  -30.5195 H   0  0  0  0  0  0  0  0  0  0  0  0
   -0.6390   24.9630  -26.6050 H   0  0  0  0  0  0  0  0  0  0  0  0
   -2.5668   25.3357  -25.2332 H   0  0  0  0  0  0  0  0  0  0  0  0
   -2.5414   26.4314  -26.6563 H   0  0  0  0  0  0  0  0  0  0  0  0
   -3.6048   24.9837  -26.6563 H   0  0  0  0  0  0  0  0  0  0  0  0
   -5.5267   21.7476  -28.6174 H   0  0  0  0  0  0  0  0  0  0  0  0
  -10.2699   20.7352  -32.3154 H   0  0  0  0  0  0  0  0  0  0  0  0
   -8.7100   19.4940  -33.6490 H   0  0  0  0  0  0  0  0  0  0  0  0
   -6.5124   18.9778  -34.3279 H   0  0  0  0  0  0  0  0  0  0  0  0
   -3.0650   18.4155  -32.6061 H   0  0  0  0  0  0  0  0  0  0  0  0
   -3.3986   17.3048  -33.9925 H   0  0  0  0  0  0  0  0  0  0  0  0
   -0.9479   18.1904  -33.4302 H   0  0  0  0  0  0  0  0  0  0  0  0
   -1.5381   17.9118  -35.1246 H   0  0  0  0  0  0  0  0  0  0  0  0
    0.5791   20.1353  -34.2007 H   0  0  0  0  0  0  0  0  0  0  0  0
    0.1521   19.1619  -35.6487 H   0  0  0  0  0  0  0  0  0  0  0  0
   -0.1180   20.9378  -35.6487 H   0  0  0  0  0  0  0  0  0  0  0  0
  1  2  2  0
  2  3  1  0
  3  4  2  0
  3  5  1  0
  5  6  1  0
  6  7  2  0
  7  8  1  0
  8  9  1  0
  9 10  2  0
 10 11  1  0
 11 12  2  0
 12 13  1  0
 13 14  2  0
 14 15  1  0
 15 16  2  0
 15 17  2  0
 15 18  1  0
 18 19  1  0
 14 20  1  0
 20 21  1  0
 20 22  2  0
  9 23  1  0
 23 24  2  0
 24 25  1  0
 25 26  1  0
 26 27  1  0
 27 28  2  0
 28 29  1  0
 29 30  1  0
 30 31  1  0
 31 32  1  0
 32 33  1  0
 28  6  1  0
 26  8  2  0
 22 11  1  0
  1 34  1  0
  1 35  1  0
  2 36  1  0
  5 37  1  0
  7 38  1  0
 12 39  1  0
 13 40  1  0
 18 41  1  0
 19 42  1  0
 19 43  1  0
 19 44  1  0
 22 45  1  0
 24 46  1  0
 25 47  1  0
 27 48  1  0
 30 49  1  0
 30 50  1  0
 31 51  1  0
 31 52  1  0
 33 53  1  0
 33 54  1  0
 33 55  1  0
M  END
>  <smiles>  (45) 
C=CC(=O)Nc1cc2c(=Nc3ccc(S(=O)(=O)NC)c(Cl)c3)nc[nH]c2cc1OCCOC

>  <score_type>  (45) 
oracle

>  <origin>  (45) 
adgpu

>  <m_score__min__energy>  (45) 
-8.6699999999999999

>  <m_primary>  (45) 
energy

$$$$
45:0
     RDKit          3D

 49 51  0  0  0  0  0  0  0  0999 V2000
   -4.7940   15.6580  -32.4450 C   0  0  0  0  0  0  0  0  0  0  0  0
   -4.6880   16.2790  -33.8350 C   0  0  0  0  0  0  0  0  0  0  0  0
   -3.2260   16.4140  -34.2700 C   0  0  0  0  0  0  0  0  0  0  0  0
   -2.6080   17.6200  -33.6380 C   0  0  0  0  0  0  0  0  0  0  0  0
   -1.8380   17.4850  -32.6510 O   0  0  0  0  0  0  0  0  0  0  0  0
   -2.9100   18.9140  -34.1700 N   0  0  0  0  0  0  0  0  0  0  0  0
   -3.3060   20.0970  -33.4530 C   0  0  0  0  0  0  0  0  0  0  0  0
   -2.3550   20.9570  -32.8740 C   0  0  0  0  0  0  0  0  0  0  0  0
   -2.7620   22.1020  -32.1880 C   0  0  0  0  0  0  0  0  0  0  0  0
   -4.1250   22.3970  -32.0470 C   0  0  0  0  0  0  0  0  0  0  0  0
   -4.5750   23.5530  -31.3250 N   0  0  0  0  0  0  0  0  0  0  0  0
   -3.7850   24.3560  -30.4330 C   0  0  0  0  0  0  0  0  0  0  0  0
   -3.9130   25.6090  -30.4800 O   0  0  0  0  0  0  0  0  0  0  0  0
   -2.8810   23.7520  -29.4210 C   0  0  0  0  0  0  0  0  0  0  0  0
   -3.1160   22.4450  -28.9560 C   0  0  0  0  0  0  0  0  0  0  0  0
   -2.2650   21.8600  -28.0130 C   0  0  0  0  0  0  0  0  0  0  0  0
   -2.5710   20.2160  -27.4740 Cl  0  0  0  0  0  0  0  0  0  0  0  0
   -1.1840   22.5870  -27.5030 C   0  0  0  0  0  0  0  0  0  0  0  0
   -0.3360   22.0170  -26.5570 O   0  0  0  0  0  0  0  0  0  0  0  0
   -0.9530   23.8930  -27.9430 C   0  0  0  0  0  0  0  0  0  0  0  0
   -1.7910   24.4770  -28.8990 C   0  0  0  0  0  0  0  0  0  0  0  0
   -1.5100   25.7660  -29.3440 O   0  0  0  0  0  0  0  0  0  0  0  0
   -5.0750   21.5500  -32.6230 C   0  0  0  0  0  0  0  0  0  0  0  0
   -4.6820   20.3790  -33.2920 C   0  0  0  0  0  0  0  0  0  0  0  0
   -5.7290   19.4890  -33.8480 C   0  0  0  0  0  0  0  0  0  0  0  0
   -5.5050   18.9060  -34.9450 O   0  0  0  0  0  0  0  0  0  0  0  0
   -7.0310   19.2690  -33.1680 C   0  0  0  0  0  0  0  0  0  0  0  0
   -7.3260   18.0160  -32.6000 C   0  0  0  0  0  0  0  0  0  0  0  0
   -8.5460   17.8010  -31.9510 C   0  0  0  0  0  0  0  0  0  0  0  0
   -9.4840   18.8300  -31.8670 C   0  0  0  0  0  0  0  0  0  0  0  0
   -9.2080   20.0730  -32.4410 C   0  0  0  0  0  0  0  0  0  0  0  0
   -7.9940   20.2920  -33.0960 C   0  0  0  0  0  0  0  0  0  0  0  0
   -4.6605   16.4399  -31.6829 H   0  0  0  0  0  0  0  0  0  0  0  0
   -5.7843   15.1943  -32.3251 H   0  0  0  0  0  0  0  0  0  0  0  0
   -4.0136   14.8921  -32.3251 H   0  0  0  0  0  0  0  0  0  0  0  0
   -5.2193   15.6396  -34.5553 H   0  0  0  0  0  0  0  0  0  0  0  0
   -5.1367   17.2828  -33.8037 H   0  0  0  0  0  0  0  0  0  0  0  0
   -2.6705   15.5166  -33.9602 H   0  0  0  0  0  0  0  0  0  0  0  0
   -3.1857   16.5219  -35.3640 H   0  0  0  0  0  0  0  0  0  0  0  0
   -1.2833   20.7253  -32.9626 H   0  0  0  0  0  0  0  0  0  0  0  0
   -2.0088   22.7770  -31.7554 H   0  0  0  0  0  0  0  0  0  0  0  0
   -3.9776   21.8778  -29.3380 H   0  0  0  0  0  0  0  0  0  0  0  0
   -0.1069   24.4655  -27.5351 H   0  0  0  0  0  0  0  0  0  0  0  0
   -6.1431   21.8030  -32.5518 H   0  0  0  0  0  0  0  0  0  0  0  0
   -6.5918   17.1997  -32.6669 H   0  0  0  0  0  0  0  0  0  0  0  0
   -8.7662   16.8193  -31.5063 H   0  0  0  0  0  0  0  0  0  0  0  0
  -10.4400   18.6627  -31.3493 H   0  0  0  0  0  0  0  0  0  0  0  0
   -9.9497   20.8828  -32.3770 H   0  0  0  0  0  0  0  0  0  0  0  0
   -7.7899   21.2692  -33.5579 H   0  0  0  0  0  0  0  0  0  0  0  0
  1  2  1  0
  2  3  1  0
  3  4  1  0
  4  5  2  0
  4  6  1  0
  6  7  1  0
  7  8  2  0
  8  9  1  0
  9 10  2  0
 10 11  1  0
 11 12  1  0
 12 13  2  0
 12 14  1  0
 14 15  2  0
 15 16  1  0
 16 17  1  0
 16 18  2  0
 18 19  1  0
 18 20  1  0
 20 21  2  0
 21 22  1  0
 10 23  1  0
 23 24  2  0
 24 25  1  0
 25 26  2  0
 25 27  1  0
 27 28  2  0
 28 29  1  0
 29 30  2  0
 30 31  1  0
 31 32  2  0
 24  7  1  0
 32 27  1  0
 21 14  1  0
  1 33  1  0
  1 34  1  0
  1 35  1  0
  2 36  1  0
  2 37  1  0
  3 38  1  0
  3 39  1  0
  8 40  1  0
  9 41  1  0
 15 42  1  0
 20 43  1  0
 23 44  1  0
 28 45  1  0
 29 46  1  0
 30 47  1  0
 31 48  1  0
 32 49  1  0
M  CHG  4   6  -1  11  -1  19  -1  22  -1
M  END
>  <UniqueID>  (46) 
43

>  <SMILES>  (46) 
CCCC(=O)[N-]c1ccc([N-]C(=O)c2cc(Cl)c([O-])cc2[O-])cc1C(=O)c1ccccc1

>  <Energy>  (46) 
63.9871521864371

>  <Genealogy>  (46) 
CCCC(=O)[N-]c1ccc([N-]C(=O)c2cc(Cl)c([O-])cc2[O-])cc1C(=O)c1ccccc1 (protonated)
CCCC(=O)[N-]c1ccc([N-]C(=O)c2cc(Cl)c([O-])cc2[O-])cc1C(=O)c1ccccc1 (3D coordinates assigned)
CCCC(=O)[N-]c1ccc([N-]C(=O)c2cc(Cl)c([O-])cc2[O-])cc1C(=O)c1ccccc1 (optimized conformer: 63.9871521864371 kcal/mol)

>  <smiles>  (46) 
CCCC(=O)Nc1ccc(NC(=O)c2cc(Cl)c(O)cc2O)cc1C(=O)c1ccccc1

>  <score_type>  (46) 
oracle

>  <origin>  (46) 
adgpu

>  <m_score__min__energy>  (46) 
-13.390000000000001

>  <m_primary>  (46) 
energy

$$$$
46:0
     RDKit          3D

 58 61  0  0  0  0  0  0  0  0999 V2000
   -9.1230   19.2770  -32.3260 C   0  0  0  0  0  0  0  0  0  0  0  0
   -8.5340   20.4220  -32.9360 O   0  0  0  0  0  0  0  0  0  0  0  0
   -7.7580   21.3770  -32.2590 C   0  0  0  0  0  0  0  0  0  0  0  0
   -8.3030   22.6040  -31.8320 C   0  0  0  0  0  0  0  0  0  0  0  0
   -7.5220   23.5180  -31.1230 C   0  0  0  0  0  0  0  0  0  0  0  0
   -6.1890   23.2250  -30.8230 C   0  0  0  0  0  0  0  0  0  0  0  0
   -5.2130   24.3650  -29.8950 S   0  0  0  0  0  0  0  0  0  0  0  0
   -4.3450   25.1430  -30.8440 O   0  0  0  0  0  0  0  0  0  0  0  0
   -6.1210   25.3410  -29.1990 O   0  0  0  0  0  0  0  0  0  0  0  0
   -4.2000   23.5710  -28.7060 N   0  0  0  0  0  0  0  0  0  0  0  0
   -3.8040   24.4680  -27.5990 C   0  0  0  0  0  0  0  0  0  0  0  0
   -2.3630   24.9880  -27.7340 C   0  0  0  0  0  0  0  0  0  0  0  0
   -1.9980   25.0790  -29.0910 O   0  0  0  0  0  0  0  0  0  0  0  0
   -1.8660   23.7810  -29.6390 C   0  0  0  0  0  0  0  0  0  0  0  0
   -3.0640   22.8560  -29.3180 C   0  0  0  0  0  0  0  0  0  0  0  0
   -5.6320   22.0170  -31.2600 C   0  0  0  0  0  0  0  0  0  0  0  0
   -6.4020   21.0930  -31.9850 C   0  0  0  0  0  0  0  0  0  0  0  0
   -5.7800   19.8210  -32.4230 C   0  0  0  0  0  0  0  0  0  0  0  0
   -6.1400   18.7440  -31.8730 O   0  0  0  0  0  0  0  0  0  0  0  0
   -4.7760   19.7920  -33.4560 N   0  0  0  0  0  0  0  0  0  0  0  0
   -3.6750   20.7430  -33.4630 C   0  0  0  0  0  0  0  0  0  0  0  0
   -2.4570   20.1250  -32.7730 C   0  0  0  0  0  0  0  0  0  0  0  0
   -2.2920   18.6630  -32.9750 N   0  0  0  0  0  0  0  0  0  0  0  0
   -1.1060   18.0100  -32.4150 C   0  0  0  0  0  0  0  0  0  0  0  0
   -0.2700   18.6750  -31.4830 C   0  0  0  0  0  0  0  0  0  0  0  0
    0.8620   18.0480  -30.9520 C   0  0  0  0  0  0  0  0  0  0  0  0
    1.1850   16.7470  -31.3290 C   0  0  0  0  0  0  0  0  0  0  0  0
    0.3760   16.0660  -32.2350 C   0  0  0  0  0  0  0  0  0  0  0  0
   -0.7560   16.6830  -32.7720 C   0  0  0  0  0  0  0  0  0  0  0  0
   -3.3530   17.8120  -33.5730 C   0  0  0  0  0  0  0  0  0  0  0  0
   -4.5140   18.5770  -34.2100 C   0  0  0  0  0  0  0  0  0  0  0  0
   -9.0715   19.3772  -31.2318 H   0  0  0  0  0  0  0  0  0  0  0  0
  -10.1748   19.1958  -32.6376 H   0  0  0  0  0  0  0  0  0  0  0  0
   -8.5775   18.3741  -32.6376 H   0  0  0  0  0  0  0  0  0  0  0  0
   -9.3523   22.8435  -32.0592 H   0  0  0  0  0  0  0  0  0  0  0  0
   -7.9582   24.4743  -30.7986 H   0  0  0  0  0  0  0  0  0  0  0  0
   -4.4877   25.3296  -27.5841 H   0  0  0  0  0  0  0  0  0  0  0  0
   -3.8579   23.8853  -26.6676 H   0  0  0  0  0  0  0  0  0  0  0  0
   -2.2925   25.9840  -27.2724 H   0  0  0  0  0  0  0  0  0  0  0  0
   -1.6824   24.2873  -27.2281 H   0  0  0  0  0  0  0  0  0  0  0  0
   -1.7773   23.8708  -30.7317 H   0  0  0  0  0  0  0  0  0  0  0  0
   -0.9727   23.3258  -29.1864 H   0  0  0  0  0  0  0  0  0  0  0  0
   -3.4068   22.3899  -30.2535 H   0  0  0  0  0  0  0  0  0  0  0  0
   -2.7156   22.1094  -28.5892 H   0  0  0  0  0  0  0  0  0  0  0  0
   -4.5800   21.7893  -31.0330 H   0  0  0  0  0  0  0  0  0  0  0  0
   -3.4174   20.9968  -34.5018 H   0  0  0  0  0  0  0  0  0  0  0  0
   -3.9762   21.6538  -32.9247 H   0  0  0  0  0  0  0  0  0  0  0  0
   -1.5566   20.6259  -33.1583 H   0  0  0  0  0  0  0  0  0  0  0  0
   -2.6109   20.2693  -31.6934 H   0  0  0  0  0  0  0  0  0  0  0  0
   -0.5156   19.7012  -31.1722 H   0  0  0  0  0  0  0  0  0  0  0  0
    1.4995   18.5847  -30.2339 H   0  0  0  0  0  0  0  0  0  0  0  0
    2.0777   16.2581  -30.9118 H   0  0  0  0  0  0  0  0  0  0  0  0
    0.6298   15.0369  -32.5292 H   0  0  0  0  0  0  0  0  0  0  0  0
   -1.3867   16.1303  -33.4839 H   0  0  0  0  0  0  0  0  0  0  0  0
   -2.8903   17.1856  -34.3498 H   0  0  0  0  0  0  0  0  0  0  0  0
   -3.7853   17.2325  -32.7440 H   0  0  0  0  0  0  0  0  0  0  0  0
   -4.2538   18.8392  -35.2461 H   0  0  0  0  0  0  0  0  0  0  0  0
   -5.4135   17.9439  -34.2026 H   0  0  0  0  0  0  0  0  0  0  0  0
  1  2  1  0
  2  3  1  0
  3  4  2  0
  4  5  1  0
  5  6  2  0
  6  7  1  0
  7  8  2  0
  7  9  2  0
  7 10  1  0
 10 11  1  0
 11 12  1  0
 12 13  1  0
 13 14  1  0
 14 15  1  0
  6 16  1  0
 16 17  2  0
 17 18  1  0
 18 19  2  0
 18 20  1  0
 20 21  1  0
 21 22  1  0
 22 23  1  0
 23 24  1  0
 24 25  2  0
 25 26  1  0
 26 27  2  0
 27 28  1  0
 28 29  2  0
 23 30  1  0
 30 31  1  0
 17  3  1  0
 31 20  1  0
 15 10  1  0
 29 24  1  0
  1 32  1  0
  1 33  1  0
  1 34  1  0
  4 35  1  0
  5 36  1  0
 11 37  1  0
 11 38  1  0
 12 39  1  0
 12 40  1  0
 14 41  1  0
 14 42  1  0
 15 43  1  0
 15 44  1  0
 16 45  1  0
 21 46  1  0
 21 47  1  0
 22 48  1  0
 22 49  1  0
 25 50  1  0
 26 51  1  0
 27 52  1  0
 28 53  1  0
 29 54  1  0
 30 55  1  0
 30 56  1  0
 31 57  1  0
 31 58  1  0
M  END
>  <UniqueID>  (47) 
44

>  <SMILES>  (47) 
COc1ccc(S(=O)(=O)N2CCOCC2)cc1C(=O)N1CCN(c2ccccc2)CC1

>  <Energy>  (47) 
84.70416628807907

>  <Genealogy>  (47) 
COc1ccc(S(=O)(=O)N2CCOCC2)cc1C(=O)N1CCN(c2ccccc2)CC1 (3D coordinates assigned)
COc1ccc(S(=O)(=O)N2CCOCC2)cc1C(=O)N1CCN(c2ccccc2)CC1 (nonaromatic ring conformer: 84.70416628807907 kcal/mol)

>  <smiles>  (47) 
COc1ccc(S(=O)(=O)N2CCOCC2)cc1C(=O)N1CCN(c2ccccc2)CC1

>  <score_type>  (47) 
oracle

>  <origin>  (47) 
adgpu

>  <m_score__min__energy>  (47) 
-9.8300000000000001

>  <m_primary>  (47) 
energy

$$$$
47:0
     RDKit          3D

 37 38  0  0  0  0  0  0  0  0999 V2000
    0.1660   23.7690  -28.9640 C   0  0  0  0  0  0  0  0  0  0  0  0
   -0.7750   24.8350  -28.8960 O   0  0  0  0  0  0  0  0  0  0  0  0
   -1.8930   24.8590  -28.0460 C   0  0  0  0  0  0  0  0  0  0  0  0
   -1.7960   25.3020  -26.7110 C   0  0  0  0  0  0  0  0  0  0  0  0
   -2.9260   25.3290  -25.8920 C   0  0  0  0  0  0  0  0  0  0  0  0
   -4.1600   24.9090  -26.3850 C   0  0  0  0  0  0  0  0  0  0  0  0
   -4.2690   24.4590  -27.7030 C   0  0  0  0  0  0  0  0  0  0  0  0
   -3.1430   24.4270  -28.5410 C   0  0  0  0  0  0  0  0  0  0  0  0
   -3.3010   23.9990  -29.9800 C   0  0  0  0  0  0  0  0  0  0  0  0
   -3.8580   25.0980  -30.7600 N   0  0  0  0  0  0  0  0  0  0  0  0
   -5.2010   25.5640  -30.6070 C   0  0  0  0  0  0  0  0  0  0  0  0
   -5.4330   26.7820  -30.3780 O   0  0  0  0  0  0  0  0  0  0  0  0
   -6.3420   24.6190  -30.8070 C   0  0  0  0  0  0  0  0  0  0  0  0
   -5.8910   23.4670  -31.5870 N   0  0  0  0  0  0  0  0  0  0  0  0
   -6.7320   22.3390  -31.8940 C   0  0  0  0  0  0  0  0  0  0  0  0
   -8.0990   22.3940  -31.5770 C   0  0  0  0  0  0  0  0  0  0  0  0
   -8.9350   21.3120  -31.8650 C   0  0  0  0  0  0  0  0  0  0  0  0
   -8.4130   20.1600  -32.4560 C   0  0  0  0  0  0  0  0  0  0  0  0
   -7.0500   20.0870  -32.7610 C   0  0  0  0  0  0  0  0  0  0  0  0
   -6.3840   18.6270  -33.4700 Cl  0  0  0  0  0  0  0  0  0  0  0  0
   -6.2120   21.1740  -32.4870 C   0  0  0  0  0  0  0  0  0  0  0  0
    0.4412   23.4573  -27.9456 H   0  0  0  0  0  0  0  0  0  0  0  0
   -0.2813   22.9186  -29.4995 H   0  0  0  0  0  0  0  0  0  0  0  0
    1.0653   24.1074  -29.4995 H   0  0  0  0  0  0  0  0  0  0  0  0
   -0.8240   25.6283  -26.3125 H   0  0  0  0  0  0  0  0  0  0  0  0
   -2.8422   25.6830  -24.8539 H   0  0  0  0  0  0  0  0  0  0  0  0
   -5.0481   24.9318  -25.7364 H   0  0  0  0  0  0  0  0  0  0  0  0
   -5.2448   24.1271  -28.0873 H   0  0  0  0  0  0  0  0  0  0  0  0
   -2.3184   23.7212  -30.3891 H   0  0  0  0  0  0  0  0  0  0  0  0
   -3.9795   23.1347  -30.0312 H   0  0  0  0  0  0  0  0  0  0  0  0
   -6.7108   24.2774  -29.8286 H   0  0  0  0  0  0  0  0  0  0  0  0
   -7.1522   25.1318  -31.3461 H   0  0  0  0  0  0  0  0  0  0  0  0
   -4.8650   23.3830  -31.7650 H   0  0  0  0  0  0  0  0  0  0  0  0
   -8.5139   23.2938  -31.0993 H   0  0  0  0  0  0  0  0  0  0  0  0
  -10.0071   21.3681  -31.6254 H   0  0  0  0  0  0  0  0  0  0  0  0
   -9.0735   19.3099  -32.6818 H   0  0  0  0  0  0  0  0  0  0  0  0
   -5.1422   21.1172  -32.7364 H   0  0  0  0  0  0  0  0  0  0  0  0
  1  2  1  0
  2  3  1  0
  3  4  2  0
  4  5  1  0
  5  6  2  0
  6  7  1  0
  7  8  2  0
  8  9  1  0
  9 10  1  0
 10 11  1  0
 11 12  2  0
 11 13  1  0
 13 14  1  0
 14 15  1  0
 15 16  2  0
 16 17  1  0
 17 18  2  0
 18 19  1  0
 19 20  1  0
 19 21  2  0
  8  3  1  0
 21 15  1  0
  1 22  1  0
  1 23  1  0
  1 24  1  0
  4 25  1  0
  5 26  1  0
  6 27  1  0
  7 28  1  0
  9 29  1  0
  9 30  1  0
 13 31  1  0
 13 32  1  0
 14 33  1  0
 16 34  1  0
 17 35  1  0
 18 36  1  0
 21 37  1  0
M  CHG  1  10  -1
M  END
>  <UniqueID>  (48) 
45

>  <SMILES>  (48) 
COc1ccccc1C[N-]C(=O)CNc1cccc(Cl)c1

>  <Energy>  (48) 
30.095160991752834

>  <Genealogy>  (48) 
COc1ccccc1C[N-]C(=O)CNc1cccc(Cl)c1 (protonated)
COc1ccccc1C[N-]C(=O)CNc1cccc(Cl)c1 (3D coordinates assigned)
COc1ccccc1C[N-]C(=O)CNc1cccc(Cl)c1 (optimized conformer: 30.095160991752834 kcal/mol)

>  <smiles>  (48) 
COc1ccccc1CNC(=O)CNc1cccc(Cl)c1

>  <score_type>  (48) 
oracle

>  <origin>  (48) 
adgpu

>  <m_score__min__energy>  (48) 
-9.2100000000000009

>  <m_primary>  (48) 
energy

$$$$
48:0
     RDKit          3D

 53 55  0  0  0  0  0  0  0  0999 V2000
   -3.1304   22.8056  -26.6420 H   0  0  0  0  0  0  0  0  0  0  0  0
   -3.5270   23.2260  -27.5780 C   0  0  0  0  0  0  0  0  0  0  0  0
   -4.5990   22.6550  -28.1810 N   0  0  0  0  0  0  0  0  0  0  0  0
   -5.1090   23.1480  -29.3370 C   0  0  0  0  0  0  0  0  0  0  0  0
   -5.9797   22.6678  -29.8074 H   0  0  0  0  0  0  0  0  0  0  0  0
   -4.5160   24.2790  -29.9310 C   0  0  0  0  0  0  0  0  0  0  0  0
   -4.9620   24.8010  -31.0420 N   0  0  0  0  0  0  0  0  0  0  0  0
   -6.0830   24.3320  -31.8590 C   0  0  0  0  0  0  0  0  0  0  0  0
   -7.0133   24.4184  -31.2785 H   0  0  0  0  0  0  0  0  0  0  0  0
   -6.1399   24.9496  -32.7675 H   0  0  0  0  0  0  0  0  0  0  0  0
   -5.8850   22.8940  -32.2640 C   0  0  0  0  0  0  0  0  0  0  0  0
   -4.6060   22.4340  -32.6070 C   0  0  0  0  0  0  0  0  0  0  0  0
   -3.7479   23.1208  -32.5627 H   0  0  0  0  0  0  0  0  0  0  0  0
   -4.4150   21.1110  -33.0040 C   0  0  0  0  0  0  0  0  0  0  0  0
   -3.4063   20.7602  -33.2675 H   0  0  0  0  0  0  0  0  0  0  0  0
   -5.5040   20.2210  -33.0700 C   0  0  0  0  0  0  0  0  0  0  0  0
   -5.3520   18.8840  -33.4690 O   0  0  0  0  0  0  0  0  0  0  0  0
   -5.7670   18.3660  -34.7290 C   0  0  0  0  0  0  0  0  0  0  0  0
   -6.4476   17.5165  -34.5701 H   0  0  0  0  0  0  0  0  0  0  0  0
   -6.2879   19.1522  -35.2951 H   0  0  0  0  0  0  0  0  0  0  0  0
   -4.8861   18.0291  -35.2951 H   0  0  0  0  0  0  0  0  0  0  0  0
   -6.7890   20.6740  -32.7310 C   0  0  0  0  0  0  0  0  0  0  0  0
   -7.8570   19.7650  -32.8040 O   0  0  0  0  0  0  0  0  0  0  0  0
   -8.6950   19.4130  -31.7090 C   0  0  0  0  0  0  0  0  0  0  0  0
   -8.1752   19.6313  -30.7645 H   0  0  0  0  0  0  0  0  0  0  0  0
   -9.6266   19.9958  -31.7581 H   0  0  0  0  0  0  0  0  0  0  0  0
   -8.9310   18.3397  -31.7581 H   0  0  0  0  0  0  0  0  0  0  0  0
   -6.9750   22.0130  -32.3330 C   0  0  0  0  0  0  0  0  0  0  0  0
   -7.9827   22.3704  -32.0744 H   0  0  0  0  0  0  0  0  0  0  0  0
   -3.4400   24.8500  -29.3200 N   0  0  0  0  0  0  0  0  0  0  0  0
   -2.9870   25.6760  -29.7740 H   0  0  0  0  0  0  0  0  0  0  0  0
   -2.9260   24.3560  -28.1540 C   0  0  0  0  0  0  0  0  0  0  0  0
   -1.7540   25.0020  -27.5120 C   0  0  0  0  0  0  0  0  0  0  0  0
   -1.1230   24.4100  -26.4020 C   0  0  0  0  0  0  0  0  0  0  0  0
   -1.5051   23.4605  -25.9989 H   0  0  0  0  0  0  0  0  0  0  0  0
   -0.0140   25.0200  -25.8080 C   0  0  0  0  0  0  0  0  0  0  0  0
    0.4693   24.5519  -24.9378 H   0  0  0  0  0  0  0  0  0  0  0  0
    0.4820   26.2240  -26.3180 C   0  0  0  0  0  0  0  0  0  0  0  0
    1.9200   26.9950  -25.5690 S   0  0  0  0  0  0  0  0  0  0  0  0
    0.9630   28.2300  -24.6100 C   0  0  0  0  0  0  0  0  0  0  0  0
    0.8638   29.1495  -25.2056 H   0  0  0  0  0  0  0  0  0  0  0  0
    1.4976   28.4349  -23.6707 H   0  0  0  0  0  0  0  0  0  0  0  0
   -0.4330   27.7000  -24.2710 C   0  0  0  0  0  0  0  0  0  0  0  0
   -0.8126   27.1263  -25.1293 H   0  0  0  0  0  0  0  0  0  0  0  0
   -1.0786   28.5629  -24.0507 H   0  0  0  0  0  0  0  0  0  0  0  0
   -0.4210   26.7950  -23.0400 C   0  0  0  0  0  0  0  0  0  0  0  0
   -0.4292   27.4133  -22.1303 H   0  0  0  0  0  0  0  0  0  0  0  0
   -1.3106   26.1482  -23.0518 H   0  0  0  0  0  0  0  0  0  0  0  0
    0.4855   26.1720  -23.0518 H   0  0  0  0  0  0  0  0  0  0  0  0
   -0.1400   26.8230  -27.4160 C   0  0  0  0  0  0  0  0  0  0  0  0
    0.2450   27.7736  -27.8136 H   0  0  0  0  0  0  0  0  0  0  0  0
   -1.2510   26.2170  -28.0110 C   0  0  0  0  0  0  0  0  0  0  0  0
   -1.7352   26.6941  -28.8758 H   0  0  0  0  0  0  0  0  0  0  0  0
  1  2  1  0
  2  3  1  0
  3  4  2  0
  4  5  1  0
  4  6  1  0
  6  7  2  0
  7  8  1  0
  8  9  1  0
  8 10  1  0
  8 11  1  0
 11 12  2  0
 12 13  1  0
 12 14  1  0
 14 15  1  0
 14 16  2  0
 16 17  1  0
 17 18  1  0
 18 19  1  0
 18 20  1  0
 18 21  1  0
 16 22  1  0
 22 23  1  0
 23 24  1  0
 24 25  1  0
 24 26  1  0
 24 27  1  0
 22 28  2  0
 28 29  1  0
  6 30  1  0
 30 31  1  0
 30 32  1  0
 32 33  1  0
 33 34  2  0
 34 35  1  0
 34 36  1  0
 36 37  1  0
 36 38  2  0
 38 39  1  0
 39 40  1  0
 40 41  1  0
 40 42  1  0
 40 43  1  0
 43 44  1  0
 43 45  1  0
 43 46  1  0
 46 47  1  0
 46 48  1  0
 46 49  1  0
 38 50  1  0
 50 51  1  0
 50 52  2  0
 52 53  1  0
 32  2  2  0
 52 33  1  0
 28 11  1  0
M  END
>  <UniqueID>  (49) 
46

>  <SMILES>  (49) 
CCCSc1ccc(-c2cnc/c(=N\Cc3ccc(OC)c(OC)c3)[nH]2)cc1

>  <Energy>  (49) 
55.097599234895064

>  <Genealogy>  (49) 
CCCSc1ccc(-c2cnc/c(=N\Cc3ccc(OC)c(OC)c3)[nH]2)cc1 (cis-trans isomerization)
CCCSc1ccc(-c2cnc/c(=N\Cc3ccc(OC)c(OC)c3)[nH]2)cc1 (3D coordinates assigned)
CCCSc1ccc(-c2cnc/c(=N\Cc3ccc(OC)c(OC)c3)[nH]2)cc1 (optimized conformer: 55.097599234895064 kcal/mol)

>  <smiles>  (49) 
CCCSc1ccc(-c2cncc(=NCc3ccc(OC)c(OC)c3)[nH]2)cc1

>  <score_type>  (49) 
oracle

>  <origin>  (49) 
adgpu

>  <m_score__min__energy>  (49) 
-8.0500000000000007

>  <m_primary>  (49) 
energy

$$$$
