0:0
     RDKit          3D

 26 26  0  0  0  0  0  0  0  0999 V2000
   -6.9830   17.6330  -32.8380 C   0  0  0  0  0  0  0  0  0  0  0  0
   -6.4790   18.9290  -33.4690 C   0  0  0  0  0  0  0  0  0  0  0  0
   -7.1270   20.1330  -32.8240 C   0  0  0  0  0  0  0  0  0  0  0  0
   -8.4640   20.0180  -32.4080 C   0  0  0  0  0  0  0  0  0  0  0  0
   -9.1130   21.0850  -31.7950 C   0  0  0  0  0  0  0  0  0  0  0  0
   -8.4470   22.2900  -31.6010 C   0  0  0  0  0  0  0  0  0  0  0  0
   -7.1210   22.4560  -32.0360 C   0  0  0  0  0  0  0  0  0  0  0  0
   -6.4640   23.7990  -31.8090 C   0  0  0  0  0  0  0  0  0  0  0  0
   -6.4970   24.1810  -30.3310 C   0  0  0  0  0  0  0  0  0  0  0  0
   -6.4420   21.3680  -32.6480 C   0  0  0  0  0  0  0  0  0  0  0  0
   -5.0790   21.5110  -33.0840 N   0  0  0  0  0  0  0  0  0  0  0  0
   -6.9487   17.7212  -31.7421 H   0  0  0  0  0  0  0  0  0  0  0  0
   -8.0188   17.4476  -33.1587 H   0  0  0  0  0  0  0  0  0  0  0  0
   -6.3446   16.7966  -33.1587 H   0  0  0  0  0  0  0  0  0  0  0  0
   -5.3888   18.9932  -33.3370 H   0  0  0  0  0  0  0  0  0  0  0  0
   -6.7378   18.9222  -34.5381 H   0  0  0  0  0  0  0  0  0  0  0  0
   -9.0040   19.0733  -32.5689 H   0  0  0  0  0  0  0  0  0  0  0  0
  -10.1559   20.9750  -31.4629 H   0  0  0  0  0  0  0  0  0  0  0  0
   -8.9638   23.1227  -31.1014 H   0  0  0  0  0  0  0  0  0  0  0  0
   -5.4176   23.7489  -32.1444 H   0  0  0  0  0  0  0  0  0  0  0  0
   -7.0156   24.5602  -32.3803 H   0  0  0  0  0  0  0  0  0  0  0  0
   -6.4185   23.2726  -29.7157 H   0  0  0  0  0  0  0  0  0  0  0  0
   -5.6533   24.8501  -30.1063 H   0  0  0  0  0  0  0  0  0  0  0  0
   -7.4429   24.6955  -30.1063 H   0  0  0  0  0  0  0  0  0  0  0  0
   -4.2990   20.9630  -32.6630 H   0  0  0  0  0  0  0  0  0  0  0  0
   -4.8050   22.1710  -33.8430 H   0  0  0  0  0  0  0  0  0  0  0  0
  1  2  1  0
  2  3  1  0
  3  4  2  0
  4  5  1  0
  5  6  2  0
  6  7  1  0
  7  8  1  0
  8  9  1  0
  7 10  2  0
 10 11  1  0
 10  3  1  0
  1 12  1  0
  1 13  1  0
  1 14  1  0
  2 15  1  0
  2 16  1  0
  4 17  1  0
  5 18  1  0
  6 19  1  0
  8 20  1  0
  8 21  1  0
  9 22  1  0
  9 23  1  0
  9 24  1  0
 11 25  1  0
 11 26  1  0
M  END
>  <UniqueID>  (1) 
1

>  <SMILES>  (1) 
CCc1cccc(CC)c1N

>  <Energy>  (1) 
22.03605769268888

>  <Genealogy>  (1) 
CCc1cccc(CC)c1N (3D coordinates assigned)
CCc1cccc(CC)c1N (optimized conformer: 22.03605769268888 kcal/mol)

>  <smiles>  (1) 
CCc1cccc(CC)c1N

>  <score_type>  (1) 
oracle

>  <origin>  (1) 
adgpu

>  <m_score__min__energy>  (1) 
-5.1299999999999999

>  <m_primary>  (1) 
energy

$$$$
1:0
     RDKit          3D

 28 29  0  0  0  0  0  0  0  0999 V2000
   -6.3740   20.7120  -33.0960 C   0  0  0  0  0  0  0  0  0  0  0  0
   -6.3030   21.9540  -32.2590 C   0  0  0  0  0  0  0  0  0  0  0  0
   -7.4750   22.6270  -31.8930 C   0  0  0  0  0  0  0  0  0  0  0  0
   -7.4080   23.7980  -31.1360 C   0  0  0  0  0  0  0  0  0  0  0  0
   -6.1670   24.3250  -30.7430 C   0  0  0  0  0  0  0  0  0  0  0  0
   -6.1350   25.5630  -29.8890 C   0  0  0  0  0  0  0  0  0  0  0  0
   -4.9800   23.6830  -31.1670 C   0  0  0  0  0  0  0  0  0  0  0  0
   -3.6850   24.1980  -30.8440 N   0  0  0  0  0  0  0  0  0  0  0  0
   -2.4970   23.2710  -29.9890 S   0  0  0  0  0  0  0  0  0  0  0  0
   -1.6820   22.4770  -30.9700 O   0  0  0  0  0  0  0  0  0  0  0  0
   -3.1650   22.3360  -29.0190 O   0  0  0  0  0  0  0  0  0  0  0  0
   -1.4580   24.3620  -29.0980 C   0  0  0  0  0  0  0  0  0  0  0  0
   -0.2960   24.0160  -28.4560 C   0  0  0  0  0  0  0  0  0  0  0  0
    0.2260   25.1180  -27.8900 N   0  0  0  0  0  0  0  0  0  0  0  0
   -0.6440   26.0990  -28.2120 C   0  0  0  0  0  0  0  0  0  0  0  0
   -1.6900   25.6770  -28.9530 N   0  0  0  0  0  0  0  0  0  0  0  0
   -5.0590   22.4940  -31.9030 C   0  0  0  0  0  0  0  0  0  0  0  0
   -6.4244   19.8303  -32.4402 H   0  0  0  0  0  0  0  0  0  0  0  0
   -7.2715   20.7485  -33.7309 H   0  0  0  0  0  0  0  0  0  0  0  0
   -5.4782   20.6460  -33.7309 H   0  0  0  0  0  0  0  0  0  0  0  0
   -8.4532   22.2311  -32.2034 H   0  0  0  0  0  0  0  0  0  0  0  0
   -8.3356   24.3126  -30.8447 H   0  0  0  0  0  0  0  0  0  0  0  0
   -6.1424   25.2762  -28.8271 H   0  0  0  0  0  0  0  0  0  0  0  0
   -5.2217   26.1358  -30.1077 H   0  0  0  0  0  0  0  0  0  0  0  0
   -7.0174   26.1822  -30.1077 H   0  0  0  0  0  0  0  0  0  0  0  0
    0.1364   23.0055  -28.4118 H   0  0  0  0  0  0  0  0  0  0  0  0
   -0.5124   27.1454  -27.8993 H   0  0  0  0  0  0  0  0  0  0  0  0
   -4.1354   21.9784  -32.2049 H   0  0  0  0  0  0  0  0  0  0  0  0
  1  2  1  0
  2  3  2  0
  3  4  1  0
  4  5  2  0
  5  6  1  0
  5  7  1  0
  7  8  1  0
  8  9  1  0
  9 10  2  0
  9 11  2  0
  9 12  1  0
 12 13  2  0
 13 14  1  0
 14 15  1  0
 15 16  2  0
  7 17  2  0
 17  2  1  0
 16 12  1  0
  1 18  1  0
  1 19  1  0
  1 20  1  0
  3 21  1  0
  4 22  1  0
  6 23  1  0
  6 24  1  0
  6 25  1  0
 13 26  1  0
 15 27  1  0
 17 28  1  0
M  CHG  2   8  -1  14  -1
M  END
>  <UniqueID>  (2) 
2

>  <SMILES>  (2) 
Cc1ccc(C)c([N-]S(=O)(=O)c2c[n-]cn2)c1

>  <Energy>  (2) 
64.48633823625671

>  <Genealogy>  (2) 
Cc1ccc(C)c([N-]S(=O)(=O)c2c[n-]cn2)c1 (protonated)
Cc1ccc(C)c([N-]S(=O)(=O)c2c[n-]cn2)c1 (3D coordinates assigned)
Cc1ccc(C)c([N-]S(=O)(=O)c2c[n-]cn2)c1 (optimized conformer: 64.48633823625671 kcal/mol)

>  <smiles>  (2) 
Cc1ccc(C)c(NS(=O)(=O)c2c[nH]cn2)c1

>  <score_type>  (2) 
oracle

>  <origin>  (2) 
adgpu

>  <m_score__min__energy>  (2) 
-8.6999999999999993

>  <m_primary>  (2) 
energy

$$$$
2:0
     RDKit          3D

 28 30  0  0  0  0  0  0  0  0999 V2000
   -5.6120   26.2470  -30.5130 O   0  0  0  0  0  0  0  0  0  0  0  0
   -4.9720   25.1750  -30.6840 C   0  0  0  0  0  0  0  0  0  0  0  0
   -3.5570   25.1770  -30.4500 N   0  0  0  0  0  0  0  0  0  0  0  0
   -2.8800   24.5410  -29.3560 C   0  0  0  0  0  0  0  0  0  0  0  0
   -3.5050   23.4720  -28.7010 C   0  0  0  0  0  0  0  0  0  0  0  0
   -2.8660   22.8210  -27.6420 C   0  0  0  0  0  0  0  0  0  0  0  0
   -1.5910   23.2260  -27.2370 C   0  0  0  0  0  0  0  0  0  0  0  0
   -0.9720   22.5940  -26.2100 F   0  0  0  0  0  0  0  0  0  0  0  0
   -0.9500   24.2770  -27.8990 C   0  0  0  0  0  0  0  0  0  0  0  0
   -1.5860   24.9290  -28.9600 C   0  0  0  0  0  0  0  0  0  0  0  0
   -5.6880   23.9730  -31.1720 C   0  0  0  0  0  0  0  0  0  0  0  0
   -4.9820   22.9620  -31.8780 C   0  0  0  0  0  0  0  0  0  0  0  0
   -5.6470   21.8150  -32.3440 C   0  0  0  0  0  0  0  0  0  0  0  0
   -7.0080   21.7010  -32.0820 C   0  0  0  0  0  0  0  0  0  0  0  0
   -7.6890   22.6530  -31.3980 C   0  0  0  0  0  0  0  0  0  0  0  0
   -7.0700   23.8030  -30.9180 C   0  0  0  0  0  0  0  0  0  0  0  0
   -9.0130   22.2770  -31.2800 O   0  0  0  0  0  0  0  0  0  0  0  0
   -9.1740   21.0110  -31.9350 C   0  0  0  0  0  0  0  0  0  0  0  0
   -7.8700   20.6790  -32.4310 O   0  0  0  0  0  0  0  0  0  0  0  0
   -4.5044   23.1430  -29.0219 H   0  0  0  0  0  0  0  0  0  0  0  0
   -3.3673   21.9886  -27.1265 H   0  0  0  0  0  0  0  0  0  0  0  0
    0.0562   24.5916  -27.5849 H   0  0  0  0  0  0  0  0  0  0  0  0
   -1.0737   25.7475  -29.4868 H   0  0  0  0  0  0  0  0  0  0  0  0
   -3.9037   23.0783  -32.0617 H   0  0  0  0  0  0  0  0  0  0  0  0
   -5.1082   21.0324  -32.8983 H   0  0  0  0  0  0  0  0  0  0  0  0
   -7.6388   24.5589  -30.3568 H   0  0  0  0  0  0  0  0  0  0  0  0
   -9.5217   20.2488  -31.2222 H   0  0  0  0  0  0  0  0  0  0  0  0
   -9.9224   21.0554  -32.7400 H   0  0  0  0  0  0  0  0  0  0  0  0
  1  2  2  0
  2  3  1  0
  3  4  1  0
  4  5  2  0
  5  6  1  0
  6  7  2  0
  7  8  1  0
  7  9  1  0
  9 10  2  0
  2 11  1  0
 11 12  2  0
 12 13  1  0
 13 14  2  0
 14 15  1  0
 15 16  2  0
 15 17  1  0
 17 18  1  0
 18 19  1  0
 10  4  1  0
 16 11  1  0
 19 14  1  0
  5 20  1  0
  6 21  1  0
  9 22  1  0
 10 23  1  0
 12 24  1  0
 13 25  1  0
 16 26  1  0
 18 27  1  0
 18 28  1  0
M  CHG  1   3  -1
M  END
>  <UniqueID>  (3) 
3

>  <SMILES>  (3) 
O=C([N-]c1ccc(F)cc1)c1ccc2c(c1)OCO2

>  <Energy>  (3) 
64.98645994163623

>  <Genealogy>  (3) 
O=C([N-]c1ccc(F)cc1)c1ccc2c(c1)OCO2 (protonated)
O=C([N-]c1ccc(F)cc1)c1ccc2c(c1)OCO2 (3D coordinates assigned)
O=C([N-]c1ccc(F)cc1)c1ccc2c(c1)OCO2 (nonaromatic ring conformer: 64.98645994163623 kcal/mol)

>  <smiles>  (3) 
O=C(Nc1ccc(F)cc1)c1ccc2c(c1)OCO2

>  <score_type>  (3) 
oracle

>  <origin>  (3) 
adgpu

>  <m_score__min__energy>  (3) 
-7.9199999999999999

>  <m_primary>  (3) 
energy

$$$$
3:0
     RDKit          3D

 23 24  0  0  0  0  0  0  0  0999 V2000
   -3.1570   25.2970  -30.0630 O   0  0  0  0  0  0  0  0  0  0  0  0
   -4.1450   24.4090  -30.4710 C   0  0  0  0  0  0  0  0  0  0  0  0
   -3.7950   23.1150  -30.8660 C   0  0  0  0  0  0  0  0  0  0  0  0
   -4.7830   22.2150  -31.2770 C   0  0  0  0  0  0  0  0  0  0  0  0
   -6.1350   22.6000  -31.2990 C   0  0  0  0  0  0  0  0  0  0  0  0
   -7.1850   21.6450  -31.7370 C   0  0  0  0  0  0  0  0  0  0  0  0
   -8.5490   21.9590  -31.5810 C   0  0  0  0  0  0  0  0  0  0  0  0
   -9.5350   21.0580  -31.9940 C   0  0  0  0  0  0  0  0  0  0  0  0
   -9.1730   19.8370  -32.5650 C   0  0  0  0  0  0  0  0  0  0  0  0
   -7.8240   19.5130  -32.7250 C   0  0  0  0  0  0  0  0  0  0  0  0
   -6.8330   20.4100  -32.3140 C   0  0  0  0  0  0  0  0  0  0  0  0
   -6.4780   23.9060  -30.8980 C   0  0  0  0  0  0  0  0  0  0  0  0
   -5.4870   24.8080  -30.4850 C   0  0  0  0  0  0  0  0  0  0  0  0
   -5.8280   26.0990  -30.0860 O   0  0  0  0  0  0  0  0  0  0  0  0
   -2.7400   22.8038  -30.8536 H   0  0  0  0  0  0  0  0  0  0  0  0
   -4.5002   21.1977  -31.5856 H   0  0  0  0  0  0  0  0  0  0  0  0
   -8.8405   22.9196  -31.1312 H   0  0  0  0  0  0  0  0  0  0  0  0
  -10.5979   21.3119  -31.8687 H   0  0  0  0  0  0  0  0  0  0  0  0
   -9.9505   19.1296  -32.8891 H   0  0  0  0  0  0  0  0  0  0  0  0
   -7.5404   18.5503  -33.1752 H   0  0  0  0  0  0  0  0  0  0  0  0
   -5.7721   20.1491  -32.4423 H   0  0  0  0  0  0  0  0  0  0  0  0
   -7.5319   24.2209  -30.9089 H   0  0  0  0  0  0  0  0  0  0  0  0
   -5.3720   26.5480  -29.3010 H   0  0  0  0  0  0  0  0  0  0  0  0
  1  2  1  0
  2  3  2  0
  3  4  1  0
  4  5  2  0
  5  6  1  0
  6  7  2  0
  7  8  1  0
  8  9  2  0
  9 10  1  0
 10 11  2  0
  5 12  1  0
 12 13  2  0
 13 14  1  0
 13  2  1  0
 11  6  1  0
  3 15  1  0
  4 16  1  0
  7 17  1  0
  8 18  1  0
  9 19  1  0
 10 20  1  0
 11 21  1  0
 12 22  1  0
 14 23  1  0
M  CHG  1   1  -1
M  END
>  <UniqueID>  (4) 
4

>  <SMILES>  (4) 
[O-]c1ccc(-c2ccccc2)cc1O

>  <Energy>  (4) 
29.052993672628045

>  <Genealogy>  (4) 
[O-]c1ccc(-c2ccccc2)cc1O (protonated)
[O-]c1ccc(-c2ccccc2)cc1O (3D coordinates assigned)
[O-]c1ccc(-c2ccccc2)cc1O (optimized conformer: 29.052993672628045 kcal/mol)

>  <smiles>  (4) 
Oc1ccc(-c2ccccc2)cc1O

>  <score_type>  (4) 
oracle

>  <origin>  (4) 
adgpu

>  <m_score__min__energy>  (4) 
-9.9399999999999995

>  <m_primary>  (4) 
energy

$$$$
4:0
     RDKit          3D

 22 23  0  0  0  0  0  0  0  0999 V2000
   -2.0090   24.7540  -28.8610 O   0  0  0  0  0  0  0  0  0  0  0  0
   -3.1290   24.5590  -29.4020 C   0  0  0  0  0  0  0  0  0  0  0  0
   -3.5050   25.2990  -30.4750 N   0  0  0  0  0  0  0  0  0  0  0  0
   -4.6870   25.1080  -31.0620 N   0  0  0  0  0  0  0  0  0  0  0  0
   -5.5540   24.1690  -30.5960 C   0  0  0  0  0  0  0  0  0  0  0  0
   -6.8600   23.9400  -31.2900 C   0  0  0  0  0  0  0  0  0  0  0  0
   -6.9300   22.5280  -31.8050 C   0  0  0  0  0  0  0  0  0  0  0  0
   -5.7780   21.9100  -32.3220 C   0  0  0  0  0  0  0  0  0  0  0  0
   -5.8280   20.5880  -32.7710 C   0  0  0  0  0  0  0  0  0  0  0  0
   -7.0220   19.8680  -32.7000 C   0  0  0  0  0  0  0  0  0  0  0  0
   -8.1690   20.4670  -32.1760 C   0  0  0  0  0  0  0  0  0  0  0  0
   -8.1270   21.7910  -31.7230 C   0  0  0  0  0  0  0  0  0  0  0  0
   -9.2490   22.3500  -31.2040 F   0  0  0  0  0  0  0  0  0  0  0  0
   -5.2010   23.4040  -29.5310 N   0  0  0  0  0  0  0  0  0  0  0  0
   -4.0030   23.5820  -28.9190 C   0  0  0  0  0  0  0  0  0  0  0  0
   -3.6920   22.8690  -27.9280 O   0  0  0  0  0  0  0  0  0  0  0  0
   -7.6837   24.1102  -30.5811 H   0  0  0  0  0  0  0  0  0  0  0  0
   -6.9455   24.6371  -32.1366 H   0  0  0  0  0  0  0  0  0  0  0  0
   -4.8326   22.4701  -32.3733 H   0  0  0  0  0  0  0  0  0  0  0  0
   -4.9245   20.1133  -33.1814 H   0  0  0  0  0  0  0  0  0  0  0  0
   -7.0590   18.8282  -33.0571 H   0  0  0  0  0  0  0  0  0  0  0  0
   -9.1082   19.8972  -32.1189 H   0  0  0  0  0  0  0  0  0  0  0  0
  1  2  2  0
  2  3  1  0
  3  4  1  0
  4  5  2  0
  5  6  1  0
  6  7  1  0
  7  8  2  0
  8  9  1  0
  9 10  2  0
 10 11  1  0
 11 12  2  0
 12 13  1  0
  5 14  1  0
 14 15  1  0
 15 16  2  0
 15  2  1  0
 12  7  1  0
  6 17  1  0
  6 18  1  0
  8 19  1  0
  9 20  1  0
 10 21  1  0
 11 22  1  0
M  CHG  2   3  -1  14  -1
M  END
>  <UniqueID>  (5) 
5

>  <SMILES>  (5) 
O=c1[n-]nc(Cc2ccccc2F)[n-]c1=O

>  <Energy>  (5) 
24.254449130658138

>  <Genealogy>  (5) 
O=c1[n-]nc(Cc2ccccc2F)[n-]c1=O (protonated)
O=c1[n-]nc(Cc2ccccc2F)[n-]c1=O (3D coordinates assigned)
O=c1[n-]nc(Cc2ccccc2F)[n-]c1=O (optimized conformer: 24.254449130658138 kcal/mol)

>  <smiles>  (5) 
O=c1[nH]nc(Cc2ccccc2F)[nH]c1=O

>  <score_type>  (5) 
oracle

>  <origin>  (5) 
adgpu

>  <m_score__min__energy>  (5) 
-9.1999999999999993

>  <m_primary>  (5) 
energy

$$$$
5:0
     RDKit          3D

 24 25  0  0  0  0  0  0  0  0999 V2000
   -8.1202   18.9309  -33.2167 H   0  0  0  0  0  0  0  0  0  0  0  0
   -8.1810   19.9110  -32.7210 C   0  0  0  0  0  0  0  0  0  0  0  0
   -7.0480   20.6260  -32.4870 N   0  0  0  0  0  0  0  0  0  0  0  0
   -7.0800   21.8540  -31.8960 C   0  0  0  0  0  0  0  0  0  0  0  0
   -5.8680   22.5600  -31.5910 N   0  0  0  0  0  0  0  0  0  0  0  0
   -4.6500   22.0940  -31.5250 C   0  0  0  0  0  0  0  0  0  0  0  0
   -3.6050   22.9480  -31.0880 C   0  0  0  0  0  0  0  0  0  0  0  0
   -3.8520   24.3060  -30.6650 N   0  0  0  0  0  0  0  0  0  0  0  0
   -4.7620   24.9760  -31.1980 O   0  0  0  0  0  0  0  0  0  0  0  0
   -3.0520   24.9200  -29.7270 O   0  0  0  0  0  0  0  0  0  0  0  0
   -2.2950   22.4420  -31.0600 C   0  0  0  0  0  0  0  0  0  0  0  0
   -1.4689   23.0861  -30.7245 H   0  0  0  0  0  0  0  0  0  0  0  0
   -2.0330   21.1330  -31.4530 C   0  0  0  0  0  0  0  0  0  0  0  0
   -1.0072   20.7374  -31.4174 H   0  0  0  0  0  0  0  0  0  0  0  0
   -3.0800   20.3300  -31.8910 C   0  0  0  0  0  0  0  0  0  0  0  0
   -2.8807   19.2956  -32.2077 H   0  0  0  0  0  0  0  0  0  0  0  0
   -4.3500   20.8170  -31.9300 N   0  0  0  0  0  0  0  0  0  0  0  0
   -5.0750   20.1850  -32.3290 H   0  0  0  0  0  0  0  0  0  0  0  0
   -8.3030   22.3800  -31.4650 C   0  0  0  0  0  0  0  0  0  0  0  0
   -8.3382   23.3506  -30.9487 H   0  0  0  0  0  0  0  0  0  0  0  0
   -9.4790   21.6620  -31.6960 C   0  0  0  0  0  0  0  0  0  0  0  0
  -10.4479   22.0740  -31.3773 H   0  0  0  0  0  0  0  0  0  0  0  0
   -9.4220   20.4210  -32.3320 C   0  0  0  0  0  0  0  0  0  0  0  0
  -10.3431   19.8514  -32.5246 H   0  0  0  0  0  0  0  0  0  0  0  0
  1  2  1  0
  2  3  2  0
  3  4  1  0
  4  5  1  0
  5  6  2  0
  6  7  1  0
  7  8  1  0
  8  9  2  0
  8 10  1  0
  7 11  2  0
 11 12  1  0
 11 13  1  0
 13 14  1  0
 13 15  2  0
 15 16  1  0
 15 17  1  0
 17 18  1  0
  4 19  2  0
 19 20  1  0
 19 21  1  0
 21 22  1  0
 21 23  2  0
 23 24  1  0
 23  2  1  0
 17  6  1  0
M  CHG  2   8   1  10  -1
M  END
>  <UniqueID>  (6) 
6

>  <SMILES>  (6) 
O=[N+]([O-])c1ccc[nH]/c1=N\c1ccccn1

>  <Energy>  (6) 
37.501935668409516

>  <Genealogy>  (6) 
O=[N+]([O-])c1ccc[nH]/c1=N\c1ccccn1 (cis-trans isomerization)
O=[N+]([O-])c1ccc[nH]/c1=N\c1ccccn1 (3D coordinates assigned)
O=[N+]([O-])c1ccc[nH]/c1=N\c1ccccn1 (optimized conformer: 37.501935668409516 kcal/mol)

>  <smiles>  (6) 
O=[N+]([O-])c1ccc[nH]c1=Nc1ccccn1

>  <score_type>  (6) 
oracle

>  <origin>  (6) 
adgpu

>  <m_score__min__energy>  (6) 
-6.21

>  <m_primary>  (6) 
energy

$$$$
6:0
     RDKit          3D

 38 40  0  0  0  0  0  0  0  0999 V2000
   -8.1794   13.8353  -35.0265 H   0  0  0  0  0  0  0  0  0  0  0  0
   -7.2470   14.2250  -34.5920 C   0  0  0  0  0  0  0  0  0  0  0  0
   -7.2190   15.4710  -34.0480 N   0  0  0  0  0  0  0  0  0  0  0  0
   -6.0890   16.0040  -33.5030 C   0  0  0  0  0  0  0  0  0  0  0  0
   -6.1550   17.3670  -32.9240 C   0  0  0  0  0  0  0  0  0  0  0  0
   -5.0060   18.0890  -32.8240 N   0  0  0  0  0  0  0  0  0  0  0  0
   -4.9820   19.3390  -32.2910 C   0  0  0  0  0  0  0  0  0  0  0  0
   -3.8440   19.9720  -32.2420 N   0  0  0  0  0  0  0  0  0  0  0  0
   -3.5830   21.2440  -31.6320 C   0  0  0  0  0  0  0  0  0  0  0  0
   -2.4050   21.4200  -30.8980 C   0  0  0  0  0  0  0  0  0  0  0  0
   -1.6745   20.6002  -30.8326 H   0  0  0  0  0  0  0  0  0  0  0  0
   -2.1500   22.6310  -30.2470 C   0  0  0  0  0  0  0  0  0  0  0  0
   -1.2125   22.7655  -29.6875 H   0  0  0  0  0  0  0  0  0  0  0  0
   -3.0880   23.6780  -30.3050 C   0  0  0  0  0  0  0  0  0  0  0  0
   -2.8730   24.9390  -29.6540 N   0  0  0  0  0  0  0  0  0  0  0  0
   -1.5880   25.3040  -28.5480 S   0  0  0  0  0  0  0  0  0  0  0  0
   -0.3820   24.4920  -28.9260 O   0  0  0  0  0  0  0  0  0  0  0  0
   -1.2350   26.7620  -28.6320 O   0  0  0  0  0  0  0  0  0  0  0  0
   -2.0680   24.8740  -26.8890 C   0  0  0  0  0  0  0  0  0  0  0  0
   -1.4468   25.4305  -26.1717 H   0  0  0  0  0  0  0  0  0  0  0  0
   -3.1262   25.1319  -26.7350 H   0  0  0  0  0  0  0  0  0  0  0  0
   -1.9276   23.7939  -26.7350 H   0  0  0  0  0  0  0  0  0  0  0  0
   -4.2830   23.4860  -31.0090 C   0  0  0  0  0  0  0  0  0  0  0  0
   -5.0280   24.2942  -31.0511 H   0  0  0  0  0  0  0  0  0  0  0  0
   -4.5360   22.2740  -31.6590 C   0  0  0  0  0  0  0  0  0  0  0  0
   -5.4860   22.1272  -32.1938 H   0  0  0  0  0  0  0  0  0  0  0  0
   -6.1490   19.9070  -31.8590 N   0  0  0  0  0  0  0  0  0  0  0  0
   -6.1850   20.8860  -31.5010 H   0  0  0  0  0  0  0  0  0  0  0  0
   -7.3190   19.2180  -31.9220 C   0  0  0  0  0  0  0  0  0  0  0  0
   -8.2469   19.6808  -31.5549 H   0  0  0  0  0  0  0  0  0  0  0  0
   -7.3490   17.9290  -32.4490 C   0  0  0  0  0  0  0  0  0  0  0  0
   -8.2911   17.3627  -32.4918 H   0  0  0  0  0  0  0  0  0  0  0  0
   -4.9120   15.2300  -33.4840 C   0  0  0  0  0  0  0  0  0  0  0  0
   -3.9921   15.6322  -33.0346 H   0  0  0  0  0  0  0  0  0  0  0  0
   -4.9210   13.9500  -34.0390 C   0  0  0  0  0  0  0  0  0  0  0  0
   -4.0041   13.3422  -34.0350 H   0  0  0  0  0  0  0  0  0  0  0  0
   -6.0930   13.4410  -34.5990 C   0  0  0  0  0  0  0  0  0  0  0  0
   -6.1071   12.4337  -35.0407 H   0  0  0  0  0  0  0  0  0  0  0  0
  1  2  1  0
  2  3  2  0
  3  4  1  0
  4  5  1  0
  5  6  2  0
  6  7  1  0
  7  8  2  0
  8  9  1  0
  9 10  2  0
 10 11  1  0
 10 12  1  0
 12 13  1  0
 12 14  2  0
 14 15  1  0
 15 16  1  0
 16 17  2  0
 16 18  2  0
 16 19  1  0
 19 20  1  0
 19 21  1  0
 19 22  1  0
 14 23  1  0
 23 24  1  0
 23 25  2  0
 25 26  1  0
  7 27  1  0
 27 28  1  0
 27 29  1  0
 29 30  1  0
 29 31  2  0
 31 32  1  0
  4 33  2  0
 33 34  1  0
 33 35  1  0
 35 36  1  0
 35 37  2  0
 37 38  1  0
 37  2  1  0
 31  5  1  0
 25  9  1  0
M  CHG  1  15  -1
M  END
>  <UniqueID>  (7) 
7

>  <SMILES>  (7) 
CS(=O)(=O)[N-]c1ccc(/N=c2/nc(-c3ccccn3)cc[nH]2)cc1

>  <Energy>  (7) 
52.72032379626122

>  <Genealogy>  (7) 
CS(=O)(=O)[N-]c1ccc(N=c2nc(-c3ccccn3)cc[nH]2)cc1 (protonated)
CS(=O)(=O)[N-]c1ccc(/N=c2/nc(-c3ccccn3)cc[nH]2)cc1 (cis-trans isomerization)
CS(=O)(=O)[N-]c1ccc(/N=c2/nc(-c3ccccn3)cc[nH]2)cc1 (3D coordinates assigned)
CS(=O)(=O)[N-]c1ccc(/N=c2/nc(-c3ccccn3)cc[nH]2)cc1 (optimized conformer: 52.72032379626122 kcal/mol)

>  <smiles>  (7) 
CS(=O)(=O)Nc1ccc(N=c2nc(-c3ccccn3)cc[nH]2)cc1

>  <score_type>  (7) 
oracle

>  <origin>  (7) 
adgpu

>  <m_score__min__energy>  (7) 
-8.6699999999999999

>  <m_primary>  (7) 
energy

$$$$
7:0
     RDKit          3D

 26 27  0  0  0  0  0  0  0  0999 V2000
   -4.6579   18.3020  -33.8742 H   0  0  0  0  0  0  0  0  0  0  0  0
   -5.0040   19.2570  -33.4520 C   0  0  0  0  0  0  0  0  0  0  0  0
   -4.0770   20.2470  -33.1080 C   0  0  0  0  0  0  0  0  0  0  0  0
   -3.0021   20.0714  -33.2618 H   0  0  0  0  0  0  0  0  0  0  0  0
   -4.5170   21.4590  -32.5690 C   0  0  0  0  0  0  0  0  0  0  0  0
   -3.7868   22.2369  -32.3015 H   0  0  0  0  0  0  0  0  0  0  0  0
   -5.8850   21.6870  -32.3680 C   0  0  0  0  0  0  0  0  0  0  0  0
   -6.4340   23.2130  -31.6810 S   0  0  0  0  0  0  0  0  0  0  0  0
   -7.2890   22.9730  -30.4670 O   0  0  0  0  0  0  0  0  0  0  0  0
   -7.2460   23.9430  -32.7120 O   0  0  0  0  0  0  0  0  0  0  0  0
   -5.0710   24.1960  -31.2340 N   0  0  0  0  0  0  0  0  0  0  0  0
   -4.3370   24.0690  -30.1640 C   0  0  0  0  0  0  0  0  0  0  0  0
   -4.5790   23.0710  -29.1970 C   0  0  0  0  0  0  0  0  0  0  0  0
   -5.4143   22.3668  -29.3251 H   0  0  0  0  0  0  0  0  0  0  0  0
   -3.7510   22.9830  -28.0760 C   0  0  0  0  0  0  0  0  0  0  0  0
   -3.9320   22.2075  -27.3171 H   0  0  0  0  0  0  0  0  0  0  0  0
   -2.6950   23.8790  -27.9200 C   0  0  0  0  0  0  0  0  0  0  0  0
   -2.0383   23.8164  -27.0398 H   0  0  0  0  0  0  0  0  0  0  0  0
   -2.4800   24.8550  -28.8910 C   0  0  0  0  0  0  0  0  0  0  0  0
   -1.6494   25.5673  -28.7778 H   0  0  0  0  0  0  0  0  0  0  0  0
   -3.2950   24.9300  -29.9800 N   0  0  0  0  0  0  0  0  0  0  0  0
   -3.1060   25.6740  -30.6910 H   0  0  0  0  0  0  0  0  0  0  0  0
   -6.8120   20.6940  -32.7190 C   0  0  0  0  0  0  0  0  0  0  0  0
   -7.8876   20.8690  -32.5693 H   0  0  0  0  0  0  0  0  0  0  0  0
   -6.3700   19.4820  -33.2590 C   0  0  0  0  0  0  0  0  0  0  0  0
   -7.0985   18.7045  -33.5323 H   0  0  0  0  0  0  0  0  0  0  0  0
  1  2  1  0
  2  3  2  0
  3  4  1  0
  3  5  1  0
  5  6  1  0
  5  7  2  0
  7  8  1  0
  8  9  2  0
  8 10  2  0
  8 11  1  0
 11 12  2  0
 12 13  1  0
 13 14  1  0
 13 15  2  0
 15 16  1  0
 15 17  1  0
 17 18  1  0
 17 19  2  0
 19 20  1  0
 19 21  1  0
 21 22  1  0
  7 23  1  0
 23 24  1  0
 23 25  2  0
 25 26  1  0
 25  2  1  0
 21 12  1  0
M  END
>  <UniqueID>  (8) 
8

>  <SMILES>  (8) 
O=S(=O)(/N=c1\cccc[nH]1)c1ccccc1

>  <Energy>  (8) 
32.40600751358745

>  <Genealogy>  (8) 
O=S(=O)(/N=c1\cccc[nH]1)c1ccccc1 (cis-trans isomerization)
O=S(=O)(/N=c1\cccc[nH]1)c1ccccc1 (3D coordinates assigned)
O=S(=O)(/N=c1\cccc[nH]1)c1ccccc1 (optimized conformer: 32.40600751358745 kcal/mol)

>  <smiles>  (8) 
O=S(=O)(N=c1cccc[nH]1)c1ccccc1

>  <score_type>  (8) 
oracle

>  <origin>  (8) 
adgpu

>  <m_score__min__energy>  (8) 
-7.0899999999999999

>  <m_primary>  (8) 
energy

$$$$
8:0
     RDKit          3D

 45 48  0  0  0  0  0  0  0  0999 V2000
    0.4880   24.0370  -24.5020 C   0  0  0  0  0  0  0  0  0  0  0  0
   -0.3040   24.3750  -25.7300 C   0  0  0  0  0  0  0  0  0  0  0  0
   -0.2050   25.6500  -26.3080 C   0  0  0  0  0  0  0  0  0  0  0  0
   -0.9190   25.9570  -27.4700 C   0  0  0  0  0  0  0  0  0  0  0  0
   -1.7260   24.9880  -28.0740 C   0  0  0  0  0  0  0  0  0  0  0  0
   -2.4260   25.2870  -29.2000 N   0  0  0  0  0  0  0  0  0  0  0  0
   -3.2140   24.3730  -29.8250 C   0  0  0  0  0  0  0  0  0  0  0  0
   -3.8530   24.7180  -30.8540 O   0  0  0  0  0  0  0  0  0  0  0  0
   -3.3120   23.0570  -29.3220 C   0  0  0  0  0  0  0  0  0  0  0  0
   -4.1850   22.0080  -29.9930 C   0  0  0  0  0  0  0  0  0  0  0  0
   -5.1320   22.5440  -31.0040 N   0  0  1  0  0  0  0  0  0  0  0  0
   -4.9020   21.9780  -32.3280 C   0  0  0  0  0  0  0  0  0  0  0  0
   -4.3100   22.6560  -33.2120 O   0  0  0  0  0  0  0  0  0  0  0  0
   -5.3830   20.6150  -32.6940 C   0  0  0  0  0  0  0  0  0  0  0  0
   -6.7520   20.2830  -32.6810 C   0  0  0  0  0  0  0  0  0  0  0  0
   -7.1730   18.9940  -33.0250 C   0  0  0  0  0  0  0  0  0  0  0  0
   -6.2360   18.0210  -33.3840 C   0  0  0  0  0  0  0  0  0  0  0  0
   -6.7670   16.4070  -33.8140 Cl  0  0  0  0  0  0  0  0  0  0  0  0
   -4.8750   18.3350  -33.3890 C   0  0  0  0  0  0  0  0  0  0  0  0
   -4.4490   19.6220  -33.0440 C   0  0  0  0  0  0  0  0  0  0  0  0
   -6.5330   22.5530  -30.4930 C   0  0  0  0  0  0  0  0  0  0  0  0
   -7.1120   23.9120  -30.1080 C   0  0  0  0  0  0  0  0  0  0  0  0
   -7.6330   23.1870  -31.3420 C   0  0  0  0  0  0  0  0  0  0  0  0
   -2.6240   22.7420  -28.1380 C   0  0  0  0  0  0  0  0  0  0  0  0
   -1.8170   23.6980  -27.5120 C   0  0  0  0  0  0  0  0  0  0  0  0
   -1.1010   23.3950  -26.3440 C   0  0  0  0  0  0  0  0  0  0  0  0
   -0.0994   24.2877  -23.6064 H   0  0  0  0  0  0  0  0  0  0  0  0
    0.7196   22.9617  -24.4995 H   0  0  0  0  0  0  0  0  0  0  0  0
    1.4247   24.6138  -24.4995 H   0  0  0  0  0  0  0  0  0  0  0  0
    0.4382   26.4123  -25.8440 H   0  0  0  0  0  0  0  0  0  0  0  0
   -0.8458   26.9626  -27.9099 H   0  0  0  0  0  0  0  0  0  0  0  0
   -3.5262   21.2817  -30.4915 H   0  0  0  0  0  0  0  0  0  0  0  0
   -4.7994   21.5600  -29.1981 H   0  0  0  0  0  0  0  0  0  0  0  0
   -4.8740   23.5550  -31.0550 H   0  0  0  0  0  0  0  0  0  0  0  0
   -7.4954   21.0429  -32.3983 H   0  0  0  0  0  0  0  0  0  0  0  0
   -8.2445   18.7455  -33.0129 H   0  0  0  0  0  0  0  0  0  0  0  0
   -4.1362   17.5682  -33.6650 H   0  0  0  0  0  0  0  0  0  0  0  0
   -3.3750   19.8599  -33.0463 H   0  0  0  0  0  0  0  0  0  0  0  0
   -6.4124   21.5741  -30.0060 H   0  0  0  0  0  0  0  0  0  0  0  0
   -7.7485   24.0055  -29.2157 H   0  0  0  0  0  0  0  0  0  0  0  0
   -6.6907   24.9091  -29.9125 H   0  0  0  0  0  0  0  0  0  0  0  0
   -8.6454   22.7569  -31.3405 H   0  0  0  0  0  0  0  0  0  0  0  0
   -7.7434   23.4438  -32.4059 H   0  0  0  0  0  0  0  0  0  0  0  0
   -2.7206   21.7373  -27.7006 H   0  0  0  0  0  0  0  0  0  0  0  0
   -1.1641   22.3871  -25.9080 H   0  0  0  0  0  0  0  0  0  0  0  0
  1  2  1  0
  2  3  2  0
  3  4  1  0
  4  5  2  0
  5  6  1  0
  6  7  1  0
  7  8  2  0
  7  9  1  0
  9 10  1  0
 10 11  1  0
 11 12  1  0
 12 13  2  0
 12 14  1  0
 14 15  2  0
 15 16  1  0
 16 17  2  0
 17 18  1  0
 17 19  1  0
 19 20  2  0
 11 21  1  0
 21 22  1  0
 22 23  1  0
  9 24  2  0
 24 25  1  0
 25 26  2  0
 26  2  1  0
 25  5  1  0
 20 14  1  0
 23 21  1  0
  1 27  1  0
  1 28  1  0
  1 29  1  0
  3 30  1  0
  4 31  1  0
 10 32  1  0
 10 33  1  0
 11 34  1  6
 15 35  1  0
 16 36  1  0
 19 37  1  0
 20 38  1  0
 21 39  1  0
 22 40  1  0
 22 41  1  0
 23 42  1  0
 23 43  1  0
 24 44  1  0
 26 45  1  0
M  CHG  2   6  -1  11   1
M  END
>  <UniqueID>  (9) 
9

>  <SMILES>  (9) 
Cc1ccc2[n-]c(=O)c(C[N@@H+](C(=O)c3ccc(Cl)cc3)C3CC3)cc2c1

>  <Energy>  (9) 
334.6862230293977

>  <Genealogy>  (9) 
Cc1ccc2[n-]c(=O)c(C[NH+](C(=O)c3ccc(Cl)cc3)C3CC3)cc2c1 (protonated)
Cc1ccc2[n-]c(=O)c(C[N@@H+](C(=O)c3ccc(Cl)cc3)C3CC3)cc2c1 (chirality)
Cc1ccc2[n-]c(=O)c(C[N@@H+](C(=O)c3ccc(Cl)cc3)C3CC3)cc2c1 (3D coordinates assigned)
Cc1ccc2[n-]c(=O)c(C[N@@H+](C(=O)c3ccc(Cl)cc3)C3CC3)cc2c1 (nonaromatic ring conformer: 334.6862230293977 kcal/mol)

>  <smiles>  (9) 
Cc1ccc2[nH]c(=O)c(CN(C(=O)c3ccc(Cl)cc3)C3CC3)cc2c1

>  <score_type>  (9) 
oracle

>  <origin>  (9) 
adgpu

>  <m_score__min__energy>  (9) 
-10.550000000000001

>  <m_primary>  (9) 
energy

$$$$
9:0
     RDKit          3D

 18 19  0  0  0  0  0  0  0  0999 V2000
   -1.8330   24.3830  -28.9730 S   0  0  0  0  0  0  0  0  0  0  0  0
   -3.3220   24.2620  -29.9510 C   0  0  0  0  0  0  0  0  0  0  0  0
   -4.0210   23.1220  -30.1040 N   0  0  0  0  0  0  0  0  0  0  0  0
   -5.0300   23.5260  -30.9030 C   0  0  0  0  0  0  0  0  0  0  0  0
   -6.1090   22.6350  -31.3840 C   0  0  0  0  0  0  0  0  0  0  0  0
   -7.4450   22.8670  -31.0100 C   0  0  0  0  0  0  0  0  0  0  0  0
   -8.4630   22.0230  -31.4650 C   0  0  0  0  0  0  0  0  0  0  0  0
   -8.1580   20.9420  -32.2960 C   0  0  0  0  0  0  0  0  0  0  0  0
   -6.8350   20.7030  -32.6730 C   0  0  0  0  0  0  0  0  0  0  0  0
   -5.8130   21.5430  -32.2200 C   0  0  0  0  0  0  0  0  0  0  0  0
   -4.9440   24.8350  -31.2130 N   0  0  0  0  0  0  0  0  0  0  0  0
   -3.8640   25.2990  -30.6110 N   0  0  0  0  0  0  0  0  0  0  0  0
   -1.1030   24.9090  -30.0550 H   0  0  0  0  0  0  0  0  0  0  0  0
   -7.6903   23.7169  -30.3561 H   0  0  0  0  0  0  0  0  0  0  0  0
   -9.5055   22.2105  -31.1682 H   0  0  0  0  0  0  0  0  0  0  0  0
   -8.9600   20.2793  -32.6532 H   0  0  0  0  0  0  0  0  0  0  0  0
   -6.5962   19.8520  -33.3278 H   0  0  0  0  0  0  0  0  0  0  0  0
   -4.7723   21.3489  -32.5189 H   0  0  0  0  0  0  0  0  0  0  0  0
  1  2  1  0
  2  3  2  0
  3  4  1  0
  4  5  1  0
  5  6  2  0
  6  7  1  0
  7  8  2  0
  8  9  1  0
  9 10  2  0
  4 11  2  0
 11 12  1  0
 12  2  1  0
 10  5  1  0
  1 13  1  0
  6 14  1  0
  7 15  1  0
  8 16  1  0
  9 17  1  0
 10 18  1  0
M  CHG  1  12  -1
M  END
>  <UniqueID>  (10) 
10

>  <SMILES>  (10) 
Sc1nc(-c2ccccc2)n[n-]1

>  <Energy>  (10) 
49.884571252108685

>  <Genealogy>  (10) 
Sc1nc(-c2ccccc2)n[n-]1 (protonated)
Sc1nc(-c2ccccc2)n[n-]1 (3D coordinates assigned)
Sc1nc(-c2ccccc2)n[n-]1 (optimized conformer: 49.884571252108685 kcal/mol)

>  <smiles>  (10) 
Sc1nc(-c2ccccc2)n[nH]1

>  <score_type>  (10) 
oracle

>  <origin>  (10) 
adgpu

>  <m_score__min__energy>  (10) 
-7.3300000000000001

>  <m_primary>  (10) 
energy

$$$$
10:0
     RDKit          3D

 32 33  0  0  0  0  0  0  0  0999 V2000
   -1.9780   25.6670  -29.7030 H   0  0  0  0  0  0  0  0  0  0  0  0
   -2.4030   24.7140  -29.7180 N   0  0  0  0  0  0  0  0  0  0  0  0
   -3.5740   24.5090  -30.2320 C   0  0  0  0  0  0  0  0  0  0  0  0
   -4.3110   25.4950  -30.7840 N   0  0  0  0  0  0  0  0  0  0  0  0
   -5.4230   24.8630  -31.2140 C   0  0  0  0  0  0  0  0  0  0  0  0
   -6.2659   25.3442  -31.7317 H   0  0  0  0  0  0  0  0  0  0  0  0
   -5.3410   23.5210  -30.9050 C   0  0  0  0  0  0  0  0  0  0  0  0
   -6.3430   22.5020  -31.2710 C   0  0  0  0  0  0  0  0  0  0  0  0
   -7.5890   22.4550  -30.6240 C   0  0  0  0  0  0  0  0  0  0  0  0
   -7.8259   23.1866  -29.8374 H   0  0  0  0  0  0  0  0  0  0  0  0
   -8.5290   21.4820  -30.9760 C   0  0  0  0  0  0  0  0  0  0  0  0
   -9.5003   21.4448  -30.4610 H   0  0  0  0  0  0  0  0  0  0  0  0
   -8.2360   20.5560  -31.9820 C   0  0  0  0  0  0  0  0  0  0  0  0
   -9.4160   19.3340  -32.4220 Cl  0  0  0  0  0  0  0  0  0  0  0  0
   -7.0040   20.6080  -32.6420 C   0  0  0  0  0  0  0  0  0  0  0  0
   -6.7753   19.8829  -33.4369 H   0  0  0  0  0  0  0  0  0  0  0  0
   -6.0630   21.5810  -32.2920 C   0  0  0  0  0  0  0  0  0  0  0  0
   -5.0987   21.6248  -32.8194 H   0  0  0  0  0  0  0  0  0  0  0  0
   -4.1600   23.2930  -30.2870 N   0  0  0  0  0  0  0  0  0  0  0  0
   -3.5800   22.0110  -29.8670 C   0  0  0  0  0  0  0  0  0  0  0  0
   -3.3489   22.0620  -28.7927 H   0  0  0  0  0  0  0  0  0  0  0  0
   -4.3154   21.2217  -30.0820 H   0  0  0  0  0  0  0  0  0  0  0  0
   -2.2910   21.6760  -30.6350 C   0  0  0  0  0  0  0  0  0  0  0  0
   -1.5005   22.3665  -30.3058 H   0  0  0  0  0  0  0  0  0  0  0  0
   -2.0476   20.6261  -30.4146 H   0  0  0  0  0  0  0  0  0  0  0  0
   -2.4360   21.7950  -32.1640 C   0  0  0  0  0  0  0  0  0  0  0  0
   -3.1886   22.5656  -32.3870 H   0  0  0  0  0  0  0  0  0  0  0  0
   -1.4490   22.0596  -32.5713 H   0  0  0  0  0  0  0  0  0  0  0  0
   -2.8690   20.4850  -32.8200 C   0  0  0  0  0  0  0  0  0  0  0  0
   -3.1127   19.7478  -32.0408 H   0  0  0  0  0  0  0  0  0  0  0  0
   -3.7558   20.6639  -33.4458 H   0  0  0  0  0  0  0  0  0  0  0  0
   -2.0503   20.1001  -33.4458 H   0  0  0  0  0  0  0  0  0  0  0  0
  1  2  1  0
  2  3  2  0
  3  4  1  0
  4  5  1  0
  5  6  1  0
  5  7  2  0
  7  8  1  0
  8  9  2  0
  9 10  1  0
  9 11  1  0
 11 12  1  0
 11 13  2  0
 13 14  1  0
 13 15  1  0
 15 16  1  0
 15 17  2  0
 17 18  1  0
  7 19  1  0
 19 20  1  0
 20 21  1  0
 20 22  1  0
 20 23  1  0
 23 24  1  0
 23 25  1  0
 23 26  1  0
 26 27  1  0
 26 28  1  0
 26 29  1  0
 29 30  1  0
 29 31  1  0
 29 32  1  0
 19  3  1  0
 17  8  1  0
M  CHG  1   4  -1
M  END
>  <UniqueID>  (11) 
11

>  <SMILES>  (11) 
[H]/N=c1\[n-]cc(-c2ccc(Cl)cc2)n1CCCC

>  <Energy>  (11) 
62.50114020889686

>  <Genealogy>  (11) 
CCCCn1c(-c2ccc(Cl)cc2)c[n-]c1=N (protonated)
[H]/N=c1\[n-]cc(-c2ccc(Cl)cc2)n1CCCC (cis-trans isomerization)
[H]/N=c1\[n-]cc(-c2ccc(Cl)cc2)n1CCCC (3D coordinates assigned)
[H]/N=c1\[n-]cc(-c2ccc(Cl)cc2)n1CCCC (optimized conformer: 62.50114020889686 kcal/mol)

>  <smiles>  (11) 
CCCCn1c(-c2ccc(Cl)cc2)c[nH]c1=N

>  <score_type>  (11) 
oracle

>  <origin>  (11) 
adgpu

>  <m_score__min__energy>  (11) 
-8.6500000000000004

>  <m_primary>  (11) 
energy

$$$$
11:0
     RDKit          3D

 30 31  0  0  0  0  0  0  0  0999 V2000
   -5.2250   25.7760  -30.4700 C   0  0  0  0  0  0  0  0  0  0  0  0
   -3.8840   25.3000  -30.4920 O   0  0  0  0  0  0  0  0  0  0  0  0
   -3.3640   24.3360  -29.6120 C   0  0  0  0  0  0  0  0  0  0  0  0
   -2.2230   24.5890  -28.8240 C   0  0  0  0  0  0  0  0  0  0  0  0
   -1.7480   23.6220  -27.9360 C   0  0  0  0  0  0  0  0  0  0  0  0
   -2.4020   22.3960  -27.8180 C   0  0  0  0  0  0  0  0  0  0  0  0
   -3.5310   22.1280  -28.5950 C   0  0  0  0  0  0  0  0  0  0  0  0
   -4.0130   23.0860  -29.5030 C   0  0  0  0  0  0  0  0  0  0  0  0
   -5.2070   22.7740  -30.3230 C   0  0  0  0  0  0  0  0  0  0  0  0
   -6.4750   22.7710  -29.7180 C   0  0  0  0  0  0  0  0  0  0  0  0
   -7.6170   22.4870  -30.4700 C   0  0  0  0  0  0  0  0  0  0  0  0
   -7.5040   22.2000  -31.8310 C   0  0  0  0  0  0  0  0  0  0  0  0
   -6.2490   22.1880  -32.4430 C   0  0  0  0  0  0  0  0  0  0  0  0
   -5.0870   22.4650  -31.6960 C   0  0  0  0  0  0  0  0  0  0  0  0
   -3.8080   22.4300  -32.2750 O   0  0  0  0  0  0  0  0  0  0  0  0
   -3.3120   21.3620  -33.0770 C   0  0  0  0  0  0  0  0  0  0  0  0
   -5.5554   25.8933  -29.4274 H   0  0  0  0  0  0  0  0  0  0  0  0
   -5.2776   26.7477  -30.9828 H   0  0  0  0  0  0  0  0  0  0  0  0
   -5.8785   25.0549  -30.9828 H   0  0  0  0  0  0  0  0  0  0  0  0
   -1.7033   25.5548  -28.9093 H   0  0  0  0  0  0  0  0  0  0  0  0
   -0.8550   23.8278  -27.3275 H   0  0  0  0  0  0  0  0  0  0  0  0
   -2.0283   21.6394  -27.1123 H   0  0  0  0  0  0  0  0  0  0  0  0
   -4.0461   21.1611  -28.4956 H   0  0  0  0  0  0  0  0  0  0  0  0
   -6.5689   22.9938  -28.6449 H   0  0  0  0  0  0  0  0  0  0  0  0
   -8.6063   22.4895  -29.9892 H   0  0  0  0  0  0  0  0  0  0  0  0
   -8.4054   21.9828  -32.4229 H   0  0  0  0  0  0  0  0  0  0  0  0
   -6.1670   21.9606  -33.5161 H   0  0  0  0  0  0  0  0  0  0  0  0
   -2.9385   20.5577  -32.4262 H   0  0  0  0  0  0  0  0  0  0  0  0
   -4.1219   20.9736  -33.7120 H   0  0  0  0  0  0  0  0  0  0  0  0
   -2.4927   21.7302  -33.7120 H   0  0  0  0  0  0  0  0  0  0  0  0
  1  2  1  0
  2  3  1  0
  3  4  2  0
  4  5  1  0
  5  6  2  0
  6  7  1  0
  7  8  2  0
  8  9  1  0
  9 10  2  0
 10 11  1  0
 11 12  2  0
 12 13  1  0
 13 14  2  0
 14 15  1  0
 15 16  1  0
  8  3  1  0
 14  9  1  0
  1 17  1  0
  1 18  1  0
  1 19  1  0
  4 20  1  0
  5 21  1  0
  6 22  1  0
  7 23  1  0
 10 24  1  0
 11 25  1  0
 12 26  1  0
 13 27  1  0
 16 28  1  0
 16 29  1  0
 16 30  1  0
M  END
>  <UniqueID>  (12) 
12

>  <SMILES>  (12) 
COc1ccccc1-c1ccccc1OC

>  <Energy>  (12) 
36.41999988852447

>  <Genealogy>  (12) 
COc1ccccc1-c1ccccc1OC (3D coordinates assigned)
COc1ccccc1-c1ccccc1OC (optimized conformer: 36.41999988852447 kcal/mol)

>  <smiles>  (12) 
COc1ccccc1-c1ccccc1OC

>  <score_type>  (12) 
oracle

>  <origin>  (12) 
adgpu

>  <m_score__min__energy>  (12) 
-5.9900000000000002

>  <m_primary>  (12) 
energy

$$$$
12:0
     RDKit          3D

 35 38  0  0  0  0  0  0  0  0999 V2000
   -4.2970   13.5760  -33.8270 F   0  0  0  0  0  0  0  0  0  0  0  0
   -5.0140   14.6700  -33.4660 C   0  0  0  0  0  0  0  0  0  0  0  0
   -4.6420   15.4070  -32.3390 C   0  0  0  0  0  0  0  0  0  0  0  0
   -5.3790   16.5360  -31.9660 C   0  0  0  0  0  0  0  0  0  0  0  0
   -6.5020   16.9290  -32.7150 C   0  0  0  0  0  0  0  0  0  0  0  0
   -7.2530   18.0990  -32.3490 N   0  0  0  0  0  0  0  0  0  0  0  0
   -8.6040   18.1740  -32.2660 C   0  0  0  0  0  0  0  0  0  0  0  0
   -9.0020   19.4560  -31.9050 C   0  0  0  0  0  0  0  0  0  0  0  0
   -7.8340   20.1720  -31.7580 C   0  0  0  0  0  0  0  0  0  0  0  0
   -7.6370   21.4970  -31.3790 C   0  0  0  0  0  0  0  0  0  0  0  0
   -6.3080   21.9710  -31.2620 C   0  0  0  0  0  0  0  0  0  0  0  0
   -6.0470   23.3760  -30.8590 C   0  0  0  0  0  0  0  0  0  0  0  0
   -6.9990   24.1060  -30.1270 C   0  0  0  0  0  0  0  0  0  0  0  0
   -6.7390   25.4260  -29.7580 C   0  0  0  0  0  0  0  0  0  0  0  0
   -5.5270   26.0130  -30.1210 C   0  0  0  0  0  0  0  0  0  0  0  0
   -4.6120   25.2990  -30.8280 N   0  0  0  0  0  0  0  0  0  0  0  0
   -4.8400   24.0120  -31.2030 C   0  0  0  0  0  0  0  0  0  0  0  0
   -5.2300   21.0840  -31.5230 C   0  0  0  0  0  0  0  0  0  0  0  0
   -5.4650   19.7510  -31.9020 C   0  0  0  0  0  0  0  0  0  0  0  0
   -6.7900   19.3270  -32.0300 C   0  0  0  0  0  0  0  0  0  0  0  0
   -6.8570   16.1910  -33.8560 C   0  0  0  0  0  0  0  0  0  0  0  0
   -6.1180   15.0630  -34.2260 C   0  0  0  0  0  0  0  0  0  0  0  0
   -3.7691   15.0994  -31.7446 H   0  0  0  0  0  0  0  0  0  0  0  0
   -5.0786   17.1188  -31.0828 H   0  0  0  0  0  0  0  0  0  0  0  0
   -9.2904   17.3361  -32.4578 H   0  0  0  0  0  0  0  0  0  0  0  0
  -10.0303   19.8211  -31.7662 H   0  0  0  0  0  0  0  0  0  0  0  0
   -8.4919   22.1587  -31.1757 H   0  0  0  0  0  0  0  0  0  0  0  0
   -7.9520   23.6351  -29.8442 H   0  0  0  0  0  0  0  0  0  0  0  0
   -7.4835   25.9989  -29.1857 H   0  0  0  0  0  0  0  0  0  0  0  0
   -5.3119   27.0532  -29.8352 H   0  0  0  0  0  0  0  0  0  0  0  0
   -4.0776   23.4658  -31.7777 H   0  0  0  0  0  0  0  0  0  0  0  0
   -4.1956   21.4456  -31.4271 H   0  0  0  0  0  0  0  0  0  0  0  0
   -4.6295   19.0613  -32.0924 H   0  0  0  0  0  0  0  0  0  0  0  0
   -7.7209   16.5020  -34.4618 H   0  0  0  0  0  0  0  0  0  0  0  0
   -6.4063   14.4848  -35.1162 H   0  0  0  0  0  0  0  0  0  0  0  0
  1  2  1  0
  2  3  2  0
  3  4  1  0
  4  5  2  0
  5  6  1  0
  6  7  1  0
  7  8  2  0
  8  9  1  0
  9 10  2  0
 10 11  1  0
 11 12  1  0
 12 13  2  0
 13 14  1  0
 14 15  2  0
 15 16  1  0
 16 17  2  0
 11 18  2  0
 18 19  1  0
 19 20  2  0
  5 21  1  0
 21 22  2  0
 22  2  1  0
 20  6  1  0
 20  9  1  0
 17 12  1  0
  3 23  1  0
  4 24  1  0
  7 25  1  0
  8 26  1  0
 10 27  1  0
 13 28  1  0
 14 29  1  0
 15 30  1  0
 17 31  1  0
 18 32  1  0
 19 33  1  0
 21 34  1  0
 22 35  1  0
M  END
>  <UniqueID>  (13) 
13

>  <SMILES>  (13) 
Fc1ccc(-n2ccc3cc(-c4cccnc4)ccc32)cc1

>  <Energy>  (13) 
85.0058976856019

>  <Genealogy>  (13) 
Fc1ccc(-n2ccc3cc(-c4cccnc4)ccc32)cc1 (3D coordinates assigned)
Fc1ccc(-n2ccc3cc(-c4cccnc4)ccc32)cc1 (optimized conformer: 85.0058976856019 kcal/mol)

>  <smiles>  (13) 
Fc1ccc(-n2ccc3cc(-c4cccnc4)ccc32)cc1

>  <score_type>  (13) 
oracle

>  <origin>  (13) 
adgpu

>  <m_score__min__energy>  (13) 
-8.2599999999999998

>  <m_primary>  (13) 
energy

$$$$
13:0
     RDKit          3D

 28 30  0  0  0  0  0  0  0  0999 V2000
   -4.6150   25.6730  -31.1990 O   0  0  0  0  0  0  0  0  0  0  0  0
   -4.6300   24.6620  -30.4460 C   0  0  0  0  0  0  0  0  0  0  0  0
   -5.6870   23.6480  -30.6200 C   0  0  0  0  0  0  0  0  0  0  0  0
   -6.9690   23.7250  -30.1220 C   0  0  0  0  0  0  0  0  0  0  0  0
   -7.6270   22.6150  -30.4900 N   0  0  0  0  0  0  0  0  0  0  0  0
   -6.7390   21.8870  -31.2020 C   0  0  0  0  0  0  0  0  0  0  0  0
   -7.0240   20.5660  -31.8180 C   0  0  0  0  0  0  0  0  0  0  0  0
   -8.2580   19.9320  -31.5740 C   0  0  0  0  0  0  0  0  0  0  0  0
   -8.5440   18.6890  -32.1460 C   0  0  0  0  0  0  0  0  0  0  0  0
   -7.6050   18.0620  -32.9660 C   0  0  0  0  0  0  0  0  0  0  0  0
   -6.3770   18.6780  -33.2170 C   0  0  0  0  0  0  0  0  0  0  0  0
   -6.0850   19.9210  -32.6480 C   0  0  0  0  0  0  0  0  0  0  0  0
   -5.5340   22.4950  -31.3010 N   0  0  0  0  0  0  0  0  0  0  0  0
   -3.5910   24.5190  -29.4090 C   0  0  0  0  0  0  0  0  0  0  0  0
   -3.6020   23.5970  -28.3800 C   0  0  0  0  0  0  0  0  0  0  0  0
   -2.4480   23.8240  -27.6630 C   0  0  0  0  0  0  0  0  0  0  0  0
   -1.8040   24.8680  -28.2950 C   0  0  0  0  0  0  0  0  0  0  0  0
   -2.5100   25.2600  -29.3310 O   0  0  0  0  0  0  0  0  0  0  0  0
   -7.3816   24.5525  -29.5262 H   0  0  0  0  0  0  0  0  0  0  0  0
   -8.6190   22.3920  -30.2590 H   0  0  0  0  0  0  0  0  0  0  0  0
   -9.0030   20.4192  -30.9278 H   0  0  0  0  0  0  0  0  0  0  0  0
   -9.5115   18.2040  -31.9493 H   0  0  0  0  0  0  0  0  0  0  0  0
   -7.8318   17.0834  -33.4143 H   0  0  0  0  0  0  0  0  0  0  0  0
   -5.6375   18.1837  -33.8642 H   0  0  0  0  0  0  0  0  0  0  0  0
   -5.1152   20.3993  -32.8495 H   0  0  0  0  0  0  0  0  0  0  0  0
   -4.3725   22.8390  -28.1757 H   0  0  0  0  0  0  0  0  0  0  0  0
   -2.1085   23.2826  -26.7677 H   0  0  0  0  0  0  0  0  0  0  0  0
   -0.8453   25.3054  -27.9793 H   0  0  0  0  0  0  0  0  0  0  0  0
  1  2  2  0
  2  3  1  0
  3  4  2  0
  4  5  1  0
  5  6  1  0
  6  7  1  0
  7  8  2  0
  8  9  1  0
  9 10  2  0
 10 11  1  0
 11 12  2  0
  6 13  2  0
  2 14  1  0
 14 15  2  0
 15 16  1  0
 16 17  2  0
 17 18  1  0
 13  3  1  0
 18 14  1  0
 12  7  1  0
  4 19  1  0
  5 20  1  0
  8 21  1  0
  9 22  1  0
 10 23  1  0
 11 24  1  0
 12 25  1  0
 15 26  1  0
 16 27  1  0
 17 28  1  0
M  END
>  <UniqueID>  (14) 
14

>  <SMILES>  (14) 
O=C(c1c[nH]c(-c2ccccc2)n1)c1ccco1

>  <Energy>  (14) 
85.80895633263779

>  <Genealogy>  (14) 
O=C(c1c[nH]c(-c2ccccc2)n1)c1ccco1 (3D coordinates assigned)
O=C(c1c[nH]c(-c2ccccc2)n1)c1ccco1 (optimized conformer: 85.80895633263779 kcal/mol)

>  <smiles>  (14) 
O=C(c1c[nH]c(-c2ccccc2)n1)c1ccco1

>  <score_type>  (14) 
oracle

>  <origin>  (14) 
adgpu

>  <m_score__min__energy>  (14) 
-7.5499999999999998

>  <m_primary>  (14) 
energy

$$$$
14:0
     RDKit          3D

 34 37  0  0  0  0  0  0  0  0999 V2000
   -0.1740   26.3150  -24.7100 C   0  0  0  0  0  0  0  0  0  0  0  0
    0.4130   26.9980  -25.7810 C   0  0  0  0  0  0  0  0  0  0  0  0
   -0.0710   26.8190  -27.0820 C   0  0  0  0  0  0  0  0  0  0  0  0
   -1.1460   25.9530  -27.3110 C   0  0  0  0  0  0  0  0  0  0  0  0
   -1.6290   25.7640  -28.5660 N   0  0  0  0  0  0  0  0  0  0  0  0
   -2.6670   24.9190  -28.8080 C   0  0  0  0  0  0  0  0  0  0  0  0
   -3.1350   24.7790  -30.1220 O   0  0  0  0  0  0  0  0  0  0  0  0
   -4.2820   24.0680  -30.5060 C   0  0  0  0  0  0  0  0  0  0  0  0
   -5.5610   24.6470  -30.4760 C   0  0  0  0  0  0  0  0  0  0  0  0
   -6.6830   23.9030  -30.8510 C   0  0  0  0  0  0  0  0  0  0  0  0
   -6.5490   22.5600  -31.2520 C   0  0  0  0  0  0  0  0  0  0  0  0
   -7.7050   21.7910  -31.6410 N   0  0  0  0  0  0  0  0  0  0  0  0
   -7.7240   20.5390  -32.1330 C   0  0  0  0  0  0  0  0  0  0  0  0
   -9.0350   20.1900  -32.3680 C   0  0  0  0  0  0  0  0  0  0  0  0
   -9.8420   21.2140  -32.0290 N   0  0  0  0  0  0  0  0  0  0  0  0
   -9.0000   22.1720  -31.5890 C   0  0  0  0  0  0  0  0  0  0  0  0
   -5.2660   21.9810  -31.2600 C   0  0  0  0  0  0  0  0  0  0  0  0
   -4.1470   22.7290  -30.8840 C   0  0  0  0  0  0  0  0  0  0  0  0
   -3.2660   24.2480  -27.7260 C   0  0  0  0  0  0  0  0  0  0  0  0
   -2.7870   24.4340  -26.4680 N   0  0  0  0  0  0  0  0  0  0  0  0
   -1.7380   25.2660  -26.2320 C   0  0  0  0  0  0  0  0  0  0  0  0
   -1.2510   25.4490  -24.9340 C   0  0  0  0  0  0  0  0  0  0  0  0
    0.2116   26.4588  -23.6899 H   0  0  0  0  0  0  0  0  0  0  0  0
    1.2582   27.6783  -25.5997 H   0  0  0  0  0  0  0  0  0  0  0  0
    0.3923   27.3574  -27.9219 H   0  0  0  0  0  0  0  0  0  0  0  0
   -5.6804   25.6924  -30.1554 H   0  0  0  0  0  0  0  0  0  0  0  0
   -7.6786   24.3703  -30.8327 H   0  0  0  0  0  0  0  0  0  0  0  0
   -6.8445   19.9041  -32.3159 H   0  0  0  0  0  0  0  0  0  0  0  0
   -9.3717   19.2234  -32.7708 H   0  0  0  0  0  0  0  0  0  0  0  0
   -9.3319   23.1563  -31.2272 H   0  0  0  0  0  0  0  0  0  0  0  0
   -5.1432   20.9312  -31.5647 H   0  0  0  0  0  0  0  0  0  0  0  0
   -3.1519   22.2603  -30.8855 H   0  0  0  0  0  0  0  0  0  0  0  0
   -4.1191   23.5752  -27.8978 H   0  0  0  0  0  0  0  0  0  0  0  0
   -1.7129   24.9139  -24.0912 H   0  0  0  0  0  0  0  0  0  0  0  0
  1  2  2  0
  2  3  1  0
  3  4  2  0
  4  5  1  0
  5  6  2  0
  6  7  1  0
  7  8  1  0
  8  9  2  0
  9 10  1  0
 10 11  2  0
 11 12  1  0
 12 13  1  0
 13 14  2  0
 14 15  1  0
 15 16  2  0
 11 17  1  0
 17 18  2  0
  6 19  1  0
 19 20  2  0
 20 21  1  0
 21 22  2  0
 22  1  1  0
 21  4  1  0
 18  8  1  0
 16 12  1  0
  1 23  1  0
  2 24  1  0
  3 25  1  0
  9 26  1  0
 10 27  1  0
 13 28  1  0
 14 29  1  0
 16 30  1  0
 17 31  1  0
 18 32  1  0
 19 33  1  0
 22 34  1  0
M  END
>  <UniqueID>  (15) 
15

>  <SMILES>  (15) 
c1ccc2nc(Oc3ccc(-n4ccnc4)cc3)cnc2c1

>  <Energy>  (15) 
82.10006915421208

>  <Genealogy>  (15) 
c1ccc2nc(Oc3ccc(-n4ccnc4)cc3)cnc2c1 (3D coordinates assigned)
c1ccc2nc(Oc3ccc(-n4ccnc4)cc3)cnc2c1 (optimized conformer: 82.10006915421208 kcal/mol)

>  <smiles>  (15) 
c1ccc2nc(Oc3ccc(-n4ccnc4)cc3)cnc2c1

>  <score_type>  (15) 
oracle

>  <origin>  (15) 
adgpu

>  <m_score__min__energy>  (15) 
-7.6799999999999997

>  <m_primary>  (15) 
energy

$$$$
15:0
     RDKit          3D

 31 33  0  0  0  0  0  0  0  0999 V2000
   -1.7010   25.2090  -28.1920 C   0  0  0  0  0  0  0  0  0  0  0  0
   -2.5370   25.2950  -29.3410 O   0  0  0  0  0  0  0  0  0  0  0  0
   -3.2010   24.2030  -29.9210 C   0  0  0  0  0  0  0  0  0  0  0  0
   -4.5790   24.2220  -30.2060 C   0  0  0  0  0  0  0  0  0  0  0  0
   -5.1950   23.1080  -30.7850 C   0  0  0  0  0  0  0  0  0  0  0  0
   -4.4490   21.9590  -31.1010 C   0  0  0  0  0  0  0  0  0  0  0  0
   -5.1310   20.7880  -31.7070 C   0  0  0  0  0  0  0  0  0  0  0  0
   -4.4730   19.9350  -32.6090 C   0  0  0  0  0  0  0  0  0  0  0  0
   -5.1680   18.8480  -33.1480 C   0  0  0  0  0  0  0  0  0  0  0  0
   -4.5440   17.9720  -34.0520 C   0  0  0  0  0  0  0  0  0  0  0  0
   -5.2530   16.8910  -34.5820 C   0  0  0  0  0  0  0  0  0  0  0  0
   -6.5840   16.6760  -34.2160 C   0  0  0  0  0  0  0  0  0  0  0  0
   -7.2160   17.5410  -33.3190 C   0  0  0  0  0  0  0  0  0  0  0  0
   -6.5130   18.6350  -32.7780 C   0  0  0  0  0  0  0  0  0  0  0  0
   -7.1060   19.5370  -31.8780 C   0  0  0  0  0  0  0  0  0  0  0  0
   -8.3060   19.3940  -31.5200 O   0  0  0  0  0  0  0  0  0  0  0  0
   -6.4050   20.5560  -31.3910 O   0  0  0  0  0  0  0  0  0  0  0  0
   -3.0730   21.9420  -30.8010 C   0  0  0  0  0  0  0  0  0  0  0  0
   -2.4600   23.0560  -30.2210 C   0  0  0  0  0  0  0  0  0  0  0  0
   -2.3184   25.2725  -27.2838 H   0  0  0  0  0  0  0  0  0  0  0  0
   -1.1612   24.2506  -28.2022 H   0  0  0  0  0  0  0  0  0  0  0  0
   -0.9774   26.0374  -28.2022 H   0  0  0  0  0  0  0  0  0  0  0  0
   -5.1742   25.1171  -29.9723 H   0  0  0  0  0  0  0  0  0  0  0  0
   -6.2745   23.1310  -30.9954 H   0  0  0  0  0  0  0  0  0  0  0  0
   -3.4250   20.1199  -32.8874 H   0  0  0  0  0  0  0  0  0  0  0  0
   -3.4961   18.1374  -34.3428 H   0  0  0  0  0  0  0  0  0  0  0  0
   -4.7616   16.2071  -35.2897 H   0  0  0  0  0  0  0  0  0  0  0  0
   -7.1366   15.8224  -34.6356 H   0  0  0  0  0  0  0  0  0  0  0  0
   -8.2644   17.3673  -33.0349 H   0  0  0  0  0  0  0  0  0  0  0  0
   -2.4764   21.0453  -31.0248 H   0  0  0  0  0  0  0  0  0  0  0  0
   -1.3831   23.0301  -29.9982 H   0  0  0  0  0  0  0  0  0  0  0  0
  1  2  1  0
  2  3  1  0
  3  4  2  0
  4  5  1  0
  5  6  2  0
  6  7  1  0
  7  8  2  0
  8  9  1  0
  9 10  2  0
 10 11  1  0
 11 12  2  0
 12 13  1  0
 13 14  2  0
 14 15  1  0
 15 16  2  0
 15 17  1  0
  6 18  1  0
 18 19  2  0
 19  3  1  0
 17  7  1  0
 14  9  1  0
  1 20  1  0
  1 21  1  0
  1 22  1  0
  4 23  1  0
  5 24  1  0
  8 25  1  0
 10 26  1  0
 11 27  1  0
 12 28  1  0
 13 29  1  0
 18 30  1  0
 19 31  1  0
M  END
>  <UniqueID>  (16) 
16

>  <SMILES>  (16) 
COc1ccc(-c2cc3ccccc3c(=O)o2)cc1

>  <Energy>  (16) 
42.50744176647664

>  <Genealogy>  (16) 
COc1ccc(-c2cc3ccccc3c(=O)o2)cc1 (3D coordinates assigned)
COc1ccc(-c2cc3ccccc3c(=O)o2)cc1 (optimized conformer: 42.50744176647664 kcal/mol)

>  <smiles>  (16) 
COc1ccc(-c2cc3ccccc3c(=O)o2)cc1

>  <score_type>  (16) 
oracle

>  <origin>  (16) 
adgpu

>  <m_score__min__energy>  (16) 
-6.8799999999999999

>  <m_primary>  (16) 
energy

$$$$
16:0
     RDKit          3D

 28 29  0  0  0  0  0  0  0  0999 V2000
   -6.8190   23.3760  -32.1320 C   0  0  0  0  0  0  0  0  0  0  0  0
   -7.1510   21.9280  -32.2950 C   0  0  0  0  0  0  0  0  0  0  0  0
   -6.3030   21.0210  -32.8190 N   0  0  0  0  0  0  0  0  0  0  0  0
   -6.9100   19.8430  -32.8060 N   0  0  0  0  0  0  0  0  0  0  0  0
   -6.2870   18.6430  -33.2950 C   0  0  0  0  0  0  0  0  0  0  0  0
   -6.1660   17.5260  -32.4510 C   0  0  0  0  0  0  0  0  0  0  0  0
   -5.5430   16.3600  -32.9070 C   0  0  0  0  0  0  0  0  0  0  0  0
   -5.0220   16.3060  -34.2040 C   0  0  0  0  0  0  0  0  0  0  0  0
   -5.1190   17.4200  -35.0420 C   0  0  0  0  0  0  0  0  0  0  0  0
   -5.7420   18.5860  -34.5890 C   0  0  0  0  0  0  0  0  0  0  0  0
   -8.1400   19.9740  -32.2520 C   0  0  0  0  0  0  0  0  0  0  0  0
   -9.1050   18.8570  -31.9790 C   0  0  0  0  0  0  0  0  0  0  0  0
   -8.3380   21.3090  -31.9440 C   0  0  0  0  0  0  0  0  0  0  0  0
   -9.5160   21.9240  -31.2530 C   0  0  0  0  0  0  0  0  0  0  0  0
   -6.7628   23.6210  -31.0611 H   0  0  0  0  0  0  0  0  0  0  0  0
   -5.8495   23.5857  -32.6075 H   0  0  0  0  0  0  0  0  0  0  0  0
   -7.6003   23.9871  -32.6075 H   0  0  0  0  0  0  0  0  0  0  0  0
   -6.5634   17.5690  -31.4262 H   0  0  0  0  0  0  0  0  0  0  0  0
   -5.4626   15.4849  -32.2454 H   0  0  0  0  0  0  0  0  0  0  0  0
   -4.5362   15.3871  -34.5641 H   0  0  0  0  0  0  0  0  0  0  0  0
   -4.7043   17.3791  -36.0600 H   0  0  0  0  0  0  0  0  0  0  0  0
   -5.8061   19.4638  -35.2488 H   0  0  0  0  0  0  0  0  0  0  0  0
   -9.2174   18.7269  -30.8925 H   0  0  0  0  0  0  0  0  0  0  0  0
  -10.0820   19.1000  -32.4222 H   0  0  0  0  0  0  0  0  0  0  0  0
   -8.7227   17.9256  -32.4222 H   0  0  0  0  0  0  0  0  0  0  0  0
   -9.3802   21.8531  -30.1637 H   0  0  0  0  0  0  0  0  0  0  0  0
   -9.6008   22.9814  -31.5439 H   0  0  0  0  0  0  0  0  0  0  0  0
  -10.4321   21.3891  -31.5439 H   0  0  0  0  0  0  0  0  0  0  0  0
  1  2  1  0
  2  3  2  0
  3  4  1  0
  4  5  1  0
  5  6  2  0
  6  7  1  0
  7  8  2  0
  8  9  1  0
  9 10  2  0
  4 11  1  0
 11 12  1  0
 11 13  2  0
 13 14  1  0
 13  2  1  0
 10  5  1  0
  1 15  1  0
  1 16  1  0
  1 17  1  0
  6 18  1  0
  7 19  1  0
  8 20  1  0
  9 21  1  0
 10 22  1  0
 12 23  1  0
 12 24  1  0
 12 25  1  0
 14 26  1  0
 14 27  1  0
 14 28  1  0
M  END
>  <UniqueID>  (17) 
17

>  <SMILES>  (17) 
Cc1nn(-c2ccccc2)c(C)c1C

>  <Energy>  (17) 
60.936726204701

>  <Genealogy>  (17) 
Cc1nn(-c2ccccc2)c(C)c1C (3D coordinates assigned)
Cc1nn(-c2ccccc2)c(C)c1C (optimized conformer: 60.936726204701 kcal/mol)

>  <smiles>  (17) 
Cc1nn(-c2ccccc2)c(C)c1C

>  <score_type>  (17) 
oracle

>  <origin>  (17) 
adgpu

>  <m_score__min__energy>  (17) 
-6.3300000000000001

>  <m_primary>  (17) 
energy

$$$$
17:0
     RDKit          3D

 29 30  0  0  0  0  0  0  0  0999 V2000
   -6.4770   25.6550  -29.3450 C   0  0  0  0  0  0  0  0  0  0  0  0
   -5.3630   25.2970  -30.7380 S   0  0  0  0  0  0  0  0  0  0  0  0
   -6.1550   23.7360  -31.1270 C   0  0  0  0  0  0  0  0  0  0  0  0
   -7.5520   23.6410  -31.1290 C   0  0  0  0  0  0  0  0  0  0  0  0
   -8.1700   22.4230  -31.4320 C   0  0  0  0  0  0  0  0  0  0  0  0
   -7.3960   21.2930  -31.7260 C   0  0  0  0  0  0  0  0  0  0  0  0
   -8.1730   19.7690  -32.1360 S   0  0  0  0  0  0  0  0  0  0  0  0
   -9.3100   20.0150  -33.0880 O   0  0  0  0  0  0  0  0  0  0  0  0
   -8.7330   19.1300  -30.8960 O   0  0  0  0  0  0  0  0  0  0  0  0
   -6.9880   18.7020  -32.8790 C   0  0  0  0  0  0  0  0  0  0  0  0
   -6.2670   19.1260  -34.0030 C   0  0  0  0  0  0  0  0  0  0  0  0
   -5.3400   18.2710  -34.6070 C   0  0  0  0  0  0  0  0  0  0  0  0
   -5.1330   16.9860  -34.0920 C   0  0  0  0  0  0  0  0  0  0  0  0
   -3.9710   15.9130  -34.8510 Cl  0  0  0  0  0  0  0  0  0  0  0  0
   -5.8580   16.5570  -32.9750 C   0  0  0  0  0  0  0  0  0  0  0  0
   -6.7850   17.4120  -32.3710 C   0  0  0  0  0  0  0  0  0  0  0  0
   -5.9970   21.3930  -31.7270 C   0  0  0  0  0  0  0  0  0  0  0  0
   -5.3800   22.6100  -31.4240 C   0  0  0  0  0  0  0  0  0  0  0  0
   -5.9455   25.4842  -28.3972 H   0  0  0  0  0  0  0  0  0  0  0  0
   -6.8048   26.7037  -29.3978 H   0  0  0  0  0  0  0  0  0  0  0  0
   -7.3543   24.9936  -29.3978 H   0  0  0  0  0  0  0  0  0  0  0  0
   -8.1636   24.5241  -30.8923 H   0  0  0  0  0  0  0  0  0  0  0  0
   -9.2677   22.3524  -31.4394 H   0  0  0  0  0  0  0  0  0  0  0  0
   -6.4306   20.1342  -34.4114 H   0  0  0  0  0  0  0  0  0  0  0  0
   -4.7732   18.6084  -35.4873 H   0  0  0  0  0  0  0  0  0  0  0  0
   -5.6986   15.5461  -32.5715 H   0  0  0  0  0  0  0  0  0  0  0  0
   -7.3563   17.0711  -31.4950 H   0  0  0  0  0  0  0  0  0  0  0  0
   -5.3840   20.5117  -31.9668 H   0  0  0  0  0  0  0  0  0  0  0  0
   -4.2824   22.6825  -31.4191 H   0  0  0  0  0  0  0  0  0  0  0  0
  1  2  1  0
  2  3  1  0
  3  4  2  0
  4  5  1  0
  5  6  2  0
  6  7  1  0
  7  8  2  0
  7  9  2  0
  7 10  1  0
 10 11  2  0
 11 12  1  0
 12 13  2  0
 13 14  1  0
 13 15  1  0
 15 16  2  0
  6 17  1  0
 17 18  2  0
 18  3  1  0
 16 10  1  0
  1 19  1  0
  1 20  1  0
  1 21  1  0
  4 22  1  0
  5 23  1  0
 11 24  1  0
 12 25  1  0
 15 26  1  0
 16 27  1  0
 17 28  1  0
 18 29  1  0
M  END
>  <UniqueID>  (18) 
18

>  <SMILES>  (18) 
CSc1ccc(S(=O)(=O)c2ccc(Cl)cc2)cc1

>  <Energy>  (18) 
27.081515534988085

>  <Genealogy>  (18) 
CSc1ccc(S(=O)(=O)c2ccc(Cl)cc2)cc1 (3D coordinates assigned)
CSc1ccc(S(=O)(=O)c2ccc(Cl)cc2)cc1 (optimized conformer: 27.081515534988085 kcal/mol)

>  <smiles>  (18) 
CSc1ccc(S(=O)(=O)c2ccc(Cl)cc2)cc1

>  <score_type>  (18) 
oracle

>  <origin>  (18) 
adgpu

>  <m_score__min__energy>  (18) 
-8

>  <m_primary>  (18) 
energy

$$$$
18:0
     RDKit          3D

 28 29  0  0  0  0  0  0  0  0999 V2000
   -3.9680   24.1740  -28.4290 O   0  0  0  0  0  0  0  0  0  0  0  0
   -3.0240   24.4450  -29.5680 S   0  0  0  0  0  0  0  0  0  0  0  0
   -1.8990   25.2990  -29.0580 O   0  0  0  0  0  0  0  0  0  0  0  0
   -3.8640   25.3070  -30.8280 N   0  0  0  0  0  0  0  0  0  0  0  0
   -5.2820   25.4810  -30.5070 C   0  0  0  0  0  0  0  0  0  0  0  0
   -6.0660   24.2300  -30.8010 C   0  0  0  0  0  0  0  0  0  0  0  0
   -6.0550   23.6610  -32.0830 C   0  0  0  0  0  0  0  0  0  0  0  0
   -6.7790   22.4930  -32.3340 C   0  0  0  0  0  0  0  0  0  0  0  0
   -7.5100   21.9060  -31.2990 C   0  0  0  0  0  0  0  0  0  0  0  0
   -7.5140   22.4710  -30.0620 N   0  0  0  0  0  0  0  0  0  0  0  0
   -6.8170   23.6070  -29.7930 C   0  0  0  0  0  0  0  0  0  0  0  0
   -2.3520   22.9330  -30.1750 C   0  0  0  0  0  0  0  0  0  0  0  0
   -2.9950   22.2200  -31.1980 C   0  0  0  0  0  0  0  0  0  0  0  0
   -2.4390   21.0320  -31.6820 C   0  0  0  0  0  0  0  0  0  0  0  0
   -1.2410   20.5500  -31.1470 C   0  0  0  0  0  0  0  0  0  0  0  0
   -0.5960   21.2580  -30.1280 C   0  0  0  0  0  0  0  0  0  0  0  0
   -1.1490   22.4460  -29.6430 C   0  0  0  0  0  0  0  0  0  0  0  0
   -5.3806   25.7230  -29.4385 H   0  0  0  0  0  0  0  0  0  0  0  0
   -5.6816   26.2958  -31.1286 H   0  0  0  0  0  0  0  0  0  0  0  0
   -5.4766   24.1342  -32.8902 H   0  0  0  0  0  0  0  0  0  0  0  0
   -6.7734   22.0403  -33.3365 H   0  0  0  0  0  0  0  0  0  0  0  0
   -8.0832   20.9856  -31.4845 H   0  0  0  0  0  0  0  0  0  0  0  0
   -6.8420   24.0390  -28.7817 H   0  0  0  0  0  0  0  0  0  0  0  0
   -3.9385   22.5964  -31.6201 H   0  0  0  0  0  0  0  0  0  0  0  0
   -2.9450   20.4759  -32.4849 H   0  0  0  0  0  0  0  0  0  0  0  0
   -0.8057   19.6141  -31.5274 H   0  0  0  0  0  0  0  0  0  0  0  0
    0.3475   20.8793  -29.7079 H   0  0  0  0  0  0  0  0  0  0  0  0
   -0.6394   23.0010  -28.8416 H   0  0  0  0  0  0  0  0  0  0  0  0
  1  2  2  0
  2  3  2  0
  2  4  1  0
  4  5  1  0
  5  6  1  0
  6  7  2  0
  7  8  1  0
  8  9  2  0
  9 10  1  0
 10 11  2  0
  2 12  1  0
 12 13  2  0
 13 14  1  0
 14 15  2  0
 15 16  1  0
 16 17  2  0
 11  6  1  0
 17 12  1  0
  5 18  1  0
  5 19  1  0
  7 20  1  0
  8 21  1  0
  9 22  1  0
 11 23  1  0
 13 24  1  0
 14 25  1  0
 15 26  1  0
 16 27  1  0
 17 28  1  0
M  CHG  1   4  -1
M  END
>  <UniqueID>  (19) 
19

>  <SMILES>  (19) 
O=S(=O)([N-]Cc1cccnc1)c1ccccc1

>  <Energy>  (19) 
27.95580948380788

>  <Genealogy>  (19) 
O=S(=O)([N-]Cc1cccnc1)c1ccccc1 (protonated)
O=S(=O)([N-]Cc1cccnc1)c1ccccc1 (3D coordinates assigned)
O=S(=O)([N-]Cc1cccnc1)c1ccccc1 (optimized conformer: 27.95580948380788 kcal/mol)

>  <smiles>  (19) 
O=S(=O)(NCc1cccnc1)c1ccccc1

>  <score_type>  (19) 
oracle

>  <origin>  (19) 
adgpu

>  <m_score__min__energy>  (19) 
-8.0700000000000003

>  <m_primary>  (19) 
energy

$$$$
19:0
     RDKit          3D

 29 30  0  0  0  0  0  0  0  0999 V2000
   -7.1470   16.2934  -33.2522 H   0  0  0  0  0  0  0  0  0  0  0  0
   -7.2380   17.3750  -33.0740 C   0  0  0  0  0  0  0  0  0  0  0  0
   -8.1660   17.8440  -32.1980 N   0  0  0  0  0  0  0  0  0  0  0  0
   -8.3170   19.1740  -31.9600 C   0  0  0  0  0  0  0  0  0  0  0  0
   -9.0673   19.5182  -31.2329 H   0  0  0  0  0  0  0  0  0  0  0  0
   -7.5220   20.1080  -32.6360 C   0  0  0  0  0  0  0  0  0  0  0  0
   -7.6820   21.5050  -32.3350 N   0  0  0  0  0  0  0  0  0  0  0  0
   -6.7730   22.3150  -31.8710 C   0  0  0  0  0  0  0  0  0  0  0  0
   -5.4840   21.9090  -31.6960 N   0  0  0  0  0  0  0  0  0  0  0  0
   -4.5170   22.7490  -31.2420 C   0  0  0  0  0  0  0  0  0  0  0  0
   -3.4909   22.3793  -31.0992 H   0  0  0  0  0  0  0  0  0  0  0  0
   -4.8260   24.0880  -30.9550 C   0  0  0  0  0  0  0  0  0  0  0  0
   -3.8470   25.0000  -30.4390 N   0  0  0  0  0  0  0  0  0  0  0  0
   -2.9780   24.7590  -29.3260 C   0  0  0  0  0  0  0  0  0  0  0  0
   -3.4150   24.1070  -28.3410 O   0  0  0  0  0  0  0  0  0  0  0  0
   -1.6500   25.3020  -29.2940 N   0  0  0  0  0  0  0  0  0  0  0  0
   -1.3520   25.9860  -30.0250 H   0  0  0  0  0  0  0  0  0  0  0  0
   -0.7110   24.9660  -28.2310 C   0  0  0  0  0  0  0  0  0  0  0  0
   -1.1869   25.1363  -27.2540 H   0  0  0  0  0  0  0  0  0  0  0  0
   -0.4213   23.9084  -28.3184 H   0  0  0  0  0  0  0  0  0  0  0  0
    0.1839   25.5997  -28.3184 H   0  0  0  0  0  0  0  0  0  0  0  0
   -6.1460   24.5200  -31.1100 C   0  0  0  0  0  0  0  0  0  0  0  0
   -6.4174   25.5562  -30.8597 H   0  0  0  0  0  0  0  0  0  0  0  0
   -7.1210   23.6390  -31.5820 C   0  0  0  0  0  0  0  0  0  0  0  0
   -8.1557   23.9835  -31.7257 H   0  0  0  0  0  0  0  0  0  0  0  0
   -6.5360   19.6370  -33.5200 C   0  0  0  0  0  0  0  0  0  0  0  0
   -5.8713   20.3479  -34.0326 H   0  0  0  0  0  0  0  0  0  0  0  0
   -6.4010   18.2660  -33.7470 C   0  0  0  0  0  0  0  0  0  0  0  0
   -5.6420   17.8917  -34.4497 H   0  0  0  0  0  0  0  0  0  0  0  0
  1  2  1  0
  2  3  2  0
  3  4  1  0
  4  5  1  0
  4  6  2  0
  6  7  1  0
  7  8  2  0
  8  9  1  0
  9 10  1  0
 10 11  1  0
 10 12  2  0
 12 13  1  0
 13 14  1  0
 14 15  2  0
 14 16  1  0
 16 17  1  0
 16 18  1  0
 18 19  1  0
 18 20  1  0
 18 21  1  0
 12 22  1  0
 22 23  1  0
 22 24  2  0
 24 25  1  0
  6 26  1  0
 26 27  1  0
 26 28  2  0
 28 29  1  0
 28  2  1  0
 24  8  1  0
M  CHG  2   9  -1  13  -1
M  END
>  <UniqueID>  (20) 
20

>  <SMILES>  (20) 
CNC(=O)[N-]c1cc/c(=N/c2cccnc2)[n-]c1

>  <Energy>  (20) 
38.48429215795242

>  <Genealogy>  (20) 
CNC(=O)[N-]c1ccc(=Nc2cccnc2)[n-]c1 (protonated)
CNC(=O)[N-]c1cc/c(=N/c2cccnc2)[n-]c1 (cis-trans isomerization)
CNC(=O)[N-]c1cc/c(=N/c2cccnc2)[n-]c1 (3D coordinates assigned)
CNC(=O)[N-]c1cc/c(=N/c2cccnc2)[n-]c1 (optimized conformer: 38.48429215795242 kcal/mol)

>  <smiles>  (20) 
CNC(=O)Nc1ccc(=Nc2cccnc2)[nH]c1

>  <score_type>  (20) 
oracle

>  <origin>  (20) 
adgpu

>  <m_score__min__energy>  (20) 
-8.8000000000000007

>  <m_primary>  (20) 
energy

$$$$
20:0
     RDKit          3D

 27 28  0  0  0  0  0  0  0  0999 V2000
   -6.4570   17.6400  -33.4670 C   0  0  0  0  0  0  0  0  0  0  0  0
   -7.2000   18.8180  -32.9100 C   0  0  0  0  0  0  0  0  0  0  0  0
   -8.3870   18.6280  -32.1870 C   0  0  0  0  0  0  0  0  0  0  0  0
   -9.0670   19.7250  -31.6520 C   0  0  0  0  0  0  0  0  0  0  0  0
   -8.5560   21.0150  -31.8150 C   0  0  0  0  0  0  0  0  0  0  0  0
   -7.3480   21.2180  -32.4970 C   0  0  0  0  0  0  0  0  0  0  0  0
   -6.8490   22.5570  -32.6650 N   0  0  0  0  0  0  0  0  0  0  0  0
   -6.3300   23.3700  -31.5990 C   0  0  0  0  0  0  0  0  0  0  0  0
   -4.9640   23.3460  -31.2590 C   0  0  0  0  0  0  0  0  0  0  0  0
   -4.4880   24.1250  -30.2000 C   0  0  0  0  0  0  0  0  0  0  0  0
   -5.3690   24.9200  -29.4630 C   0  0  0  0  0  0  0  0  0  0  0  0
   -6.7300   24.9330  -29.7790 C   0  0  0  0  0  0  0  0  0  0  0  0
   -7.2100   24.1550  -30.8380 C   0  0  0  0  0  0  0  0  0  0  0  0
   -6.6800   20.1140  -33.0570 C   0  0  0  0  0  0  0  0  0  0  0  0
   -6.0699   17.0263  -32.6402 H   0  0  0  0  0  0  0  0  0  0  0  0
   -7.1378   17.0358  -34.0846 H   0  0  0  0  0  0  0  0  0  0  0  0
   -5.6184   17.9940  -34.0846 H   0  0  0  0  0  0  0  0  0  0  0  0
   -8.7835   17.6124  -32.0409 H   0  0  0  0  0  0  0  0  0  0  0  0
  -10.0069   19.5726  -31.1012 H   0  0  0  0  0  0  0  0  0  0  0  0
   -9.1045   21.8763  -31.4059 H   0  0  0  0  0  0  0  0  0  0  0  0
   -6.8660   22.9660  -33.6270 H   0  0  0  0  0  0  0  0  0  0  0  0
   -4.2686   22.7120  -31.8286 H   0  0  0  0  0  0  0  0  0  0  0  0
   -3.4176   24.1118  -29.9467 H   0  0  0  0  0  0  0  0  0  0  0  0
   -4.9912   25.5360  -28.6336 H   0  0  0  0  0  0  0  0  0  0  0  0
   -7.4242   25.5551  -29.1950 H   0  0  0  0  0  0  0  0  0  0  0  0
   -8.2840   24.1586  -31.0757 H   0  0  0  0  0  0  0  0  0  0  0  0
   -5.7438   20.2670  -33.6139 H   0  0  0  0  0  0  0  0  0  0  0  0
  1  2  1  0
  2  3  2  0
  3  4  1  0
  4  5  2  0
  5  6  1  0
  6  7  1  0
  7  8  1  0
  8  9  2  0
  9 10  1  0
 10 11  2  0
 11 12  1  0
 12 13  2  0
  6 14  2  0
 14  2  1  0
 13  8  1  0
  1 15  1  0
  1 16  1  0
  1 17  1  0
  3 18  1  0
  4 19  1  0
  5 20  1  0
  7 21  1  0
  9 22  1  0
 10 23  1  0
 11 24  1  0
 12 25  1  0
 13 26  1  0
 14 27  1  0
M  END
>  <UniqueID>  (21) 
21

>  <SMILES>  (21) 
Cc1cccc(Nc2ccccc2)c1

>  <Energy>  (21) 
32.00070383476734

>  <Genealogy>  (21) 
Cc1cccc(Nc2ccccc2)c1 (3D coordinates assigned)
Cc1cccc(Nc2ccccc2)c1 (optimized conformer: 32.00070383476734 kcal/mol)

>  <smiles>  (21) 
Cc1cccc(Nc2ccccc2)c1

>  <score_type>  (21) 
oracle

>  <origin>  (21) 
adgpu

>  <m_score__min__energy>  (21) 
-6.54

>  <m_primary>  (21) 
energy

$$$$
21:0
     RDKit          3D

 36 37  0  0  0  0  0  0  0  0999 V2000
   -9.1100   18.5180  -31.6150 C   0  0  0  0  0  0  0  0  0  0  0  0
   -9.5010   19.5860  -32.6290 C   0  0  0  0  0  0  0  0  0  0  0  0
   -9.0220   21.2520  -32.0500 S   0  0  0  0  0  0  0  0  0  0  0  0
   -7.2590   20.9900  -32.2490 C   0  0  0  0  0  0  0  0  0  0  0  0
   -6.7810   20.0320  -33.1410 C   0  0  0  0  0  0  0  0  0  0  0  0
   -5.4000   19.8660  -33.2650 C   0  0  0  0  0  0  0  0  0  0  0  0
   -4.8420   18.8490  -34.2100 C   0  0  0  0  0  0  0  0  0  0  0  0
   -4.5610   20.6430  -32.5310 N   0  0  0  0  0  0  0  0  0  0  0  0
   -5.0370   21.5830  -31.6670 C   0  0  0  0  0  0  0  0  0  0  0  0
   -4.1010   22.4180  -30.8760 C   0  0  0  0  0  0  0  0  0  0  0  0
   -4.5130   23.6600  -30.3570 C   0  0  0  0  0  0  0  0  0  0  0  0
   -3.6290   24.4470  -29.6110 C   0  0  0  0  0  0  0  0  0  0  0  0
   -2.3230   24.0050  -29.3690 C   0  0  0  0  0  0  0  0  0  0  0  0
   -1.2060   25.0060  -28.4460 S   0  0  0  0  0  0  0  0  0  0  0  0
   -1.6800   24.9910  -26.7330 C   0  0  0  0  0  0  0  0  0  0  0  0
    0.1920   24.4710  -28.5870 O   0  0  0  0  0  0  0  0  0  0  0  0
   -1.2380   26.4160  -28.9650 O   0  0  0  0  0  0  0  0  0  0  0  0
   -1.9030   22.7750  -29.8880 C   0  0  0  0  0  0  0  0  0  0  0  0
   -2.7840   21.9860  -30.6330 C   0  0  0  0  0  0  0  0  0  0  0  0
   -6.3840   21.7470  -31.5370 N   0  0  0  0  0  0  0  0  0  0  0  0
   -9.2532   18.9091  -30.5969 H   0  0  0  0  0  0  0  0  0  0  0  0
   -9.7407   17.6282  -31.7580 H   0  0  0  0  0  0  0  0  0  0  0  0
   -8.0539   18.2457  -31.7580 H   0  0  0  0  0  0  0  0  0  0  0  0
   -8.9943   19.3780  -33.5829 H   0  0  0  0  0  0  0  0  0  0  0  0
  -10.5932   19.5620  -32.7573 H   0  0  0  0  0  0  0  0  0  0  0  0
   -7.4762   19.4200  -33.7344 H   0  0  0  0  0  0  0  0  0  0  0  0
   -4.3902   18.0255  -33.6375 H   0  0  0  0  0  0  0  0  0  0  0  0
   -5.6502   18.4549  -34.8436 H   0  0  0  0  0  0  0  0  0  0  0  0
   -4.0754   19.3189  -34.8436 H   0  0  0  0  0  0  0  0  0  0  0  0
   -5.5382   24.0146  -30.5395 H   0  0  0  0  0  0  0  0  0  0  0  0
   -3.9616   25.4171  -29.2130 H   0  0  0  0  0  0  0  0  0  0  0  0
   -0.7788   25.0195  -26.1029 H   0  0  0  0  0  0  0  0  0  0  0  0
   -2.3057   25.8698  -26.5180 H   0  0  0  0  0  0  0  0  0  0  0  0
   -2.2489   24.0744  -26.5180 H   0  0  0  0  0  0  0  0  0  0  0  0
   -0.8748   22.4276  -29.7088 H   0  0  0  0  0  0  0  0  0  0  0  0
   -2.4449   21.0190  -31.0328 H   0  0  0  0  0  0  0  0  0  0  0  0
  1  2  1  0
  2  3  1  0
  3  4  1  0
  4  5  2  0
  5  6  1  0
  6  7  1  0
  6  8  2  0
  8  9  1  0
  9 10  1  0
 10 11  2  0
 11 12  1  0
 12 13  2  0
 13 14  1  0
 14 15  1  0
 14 16  2  0
 14 17  2  0
 13 18  1  0
 18 19  2  0
  9 20  2  0
 20  4  1  0
 19 10  1  0
  1 21  1  0
  1 22  1  0
  1 23  1  0
  2 24  1  0
  2 25  1  0
  5 26  1  0
  7 27  1  0
  7 28  1  0
  7 29  1  0
 11 30  1  0
 12 31  1  0
 15 32  1  0
 15 33  1  0
 15 34  1  0
 18 35  1  0
 19 36  1  0
M  END
>  <UniqueID>  (22) 
22

>  <SMILES>  (22) 
CCSc1cc(C)nc(-c2ccc(S(C)(=O)=O)cc2)n1

>  <Energy>  (22) 
27.887272442966307

>  <Genealogy>  (22) 
CCSc1cc(C)nc(-c2ccc(S(C)(=O)=O)cc2)n1 (3D coordinates assigned)
CCSc1cc(C)nc(-c2ccc(S(C)(=O)=O)cc2)n1 (optimized conformer: 27.887272442966307 kcal/mol)

>  <smiles>  (22) 
CCSc1cc(C)nc(-c2ccc(S(C)(=O)=O)cc2)n1

>  <score_type>  (22) 
oracle

>  <origin>  (22) 
adgpu

>  <m_score__min__energy>  (22) 
-7.8300000000000001

>  <m_primary>  (22) 
energy

$$$$
22:0
     RDKit          3D

 23 24  0  0  0  0  0  0  0  0999 V2000
   -2.5670   25.1990  -29.3390 O   0  0  0  0  0  0  0  0  0  0  0  0
   -3.4750   24.7560  -30.0900 C   0  0  0  0  0  0  0  0  0  0  0  0
   -3.3180   23.5520  -30.7000 N   0  0  0  0  0  0  0  0  0  0  0  0
   -4.2750   23.0490  -31.5200 C   0  0  0  0  0  0  0  0  0  0  0  0
   -4.1120   21.9120  -32.0360 O   0  0  0  0  0  0  0  0  0  0  0  0
   -5.4450   23.7900  -31.7650 C   0  0  0  0  0  0  0  0  0  0  0  0
   -6.5000   23.3000  -32.6090 N   0  0  0  0  0  0  0  0  0  0  0  0
   -7.2200   22.0770  -32.3790 C   0  0  0  0  0  0  0  0  0  0  0  0
   -8.3810   22.0470  -31.5820 C   0  0  0  0  0  0  0  0  0  0  0  0
   -9.0500   20.8400  -31.3530 C   0  0  0  0  0  0  0  0  0  0  0  0
   -8.5610   19.6520  -31.9040 C   0  0  0  0  0  0  0  0  0  0  0  0
   -9.4000   18.1390  -31.6150 Cl  0  0  0  0  0  0  0  0  0  0  0  0
   -7.3970   19.6700  -32.6800 C   0  0  0  0  0  0  0  0  0  0  0  0
   -6.7260   20.8750  -32.9100 C   0  0  0  0  0  0  0  0  0  0  0  0
   -5.5970   25.0110  -31.1010 C   0  0  0  0  0  0  0  0  0  0  0  0
   -4.6120   25.4760  -30.2890 N   0  0  0  0  0  0  0  0  0  0  0  0
   -6.7110   23.8370  -33.4820 H   0  0  0  0  0  0  0  0  0  0  0  0
   -8.7636   22.9775  -31.1373 H   0  0  0  0  0  0  0  0  0  0  0  0
   -9.9622   20.8257  -30.7384 H   0  0  0  0  0  0  0  0  0  0  0  0
   -7.0091   18.7347  -33.1099 H   0  0  0  0  0  0  0  0  0  0  0  0
   -5.8048   20.8812  -33.5111 H   0  0  0  0  0  0  0  0  0  0  0  0
   -6.5177   25.5974  -31.2366 H   0  0  0  0  0  0  0  0  0  0  0  0
   -4.7350   26.3990  -29.8120 H   0  0  0  0  0  0  0  0  0  0  0  0
  1  2  2  0
  2  3  1  0
  3  4  1  0
  4  5  2  0
  4  6  1  0
  6  7  1  0
  7  8  1  0
  8  9  2  0
  9 10  1  0
 10 11  2  0
 11 12  1  0
 11 13  1  0
 13 14  2  0
  6 15  2  0
 15 16  1  0
 16  2  1  0
 14  8  1  0
  7 17  1  0
  9 18  1  0
 10 19  1  0
 13 20  1  0
 14 21  1  0
 15 22  1  0
 16 23  1  0
M  CHG  1   3  -1
M  END
>  <UniqueID>  (23) 
23

>  <SMILES>  (23) 
O=c1[n-]c(=O)c(Nc2ccc(Cl)cc2)c[nH]1

>  <Energy>  (23) 
31.350872807023144

>  <Genealogy>  (23) 
O=c1[n-]c(=O)c(Nc2ccc(Cl)cc2)c[nH]1 (protonated)
O=c1[n-]c(=O)c(Nc2ccc(Cl)cc2)c[nH]1 (3D coordinates assigned)
O=c1[n-]c(=O)c(Nc2ccc(Cl)cc2)c[nH]1 (optimized conformer: 31.350872807023144 kcal/mol)

>  <smiles>  (23) 
O=c1[nH]cc(Nc2ccc(Cl)cc2)c(=O)[nH]1

>  <score_type>  (23) 
oracle

>  <origin>  (23) 
adgpu

>  <m_score__min__energy>  (23) 
-7.8700000000000001

>  <m_primary>  (23) 
energy

$$$$
23:0
     RDKit          3D

 26 26  0  0  0  0  0  0  0  0999 V2000
   -8.2840   18.1960  -31.6160 C   0  0  0  0  0  0  0  0  0  0  0  0
   -9.0640   19.2520  -32.3890 C   0  0  0  0  0  0  0  0  0  0  0  0
   -8.1460   20.1740  -33.0580 N   0  0  0  0  0  0  0  0  0  0  0  0
   -7.4750   21.2630  -32.3960 C   0  0  0  0  0  0  0  0  0  0  0  0
   -8.1970   22.1470  -31.5710 C   0  0  0  0  0  0  0  0  0  0  0  0
   -7.5420   23.1490  -30.8530 C   0  0  0  0  0  0  0  0  0  0  0  0
   -6.1540   23.2860  -30.9430 C   0  0  0  0  0  0  0  0  0  0  0  0
   -5.3290   24.5370  -30.0170 S   0  0  0  0  0  0  0  0  0  0  0  0
   -3.8860   25.0090  -30.8410 N   0  0  0  0  0  0  0  0  0  0  0  0
   -4.9800   24.0150  -28.6510 O   0  0  0  0  0  0  0  0  0  0  0  0
   -6.2280   25.7310  -29.8610 O   0  0  0  0  0  0  0  0  0  0  0  0
   -5.4240   22.4130  -31.7550 C   0  0  0  0  0  0  0  0  0  0  0  0
   -6.0700   21.4090  -32.4980 C   0  0  0  0  0  0  0  0  0  0  0  0
   -5.2960   20.5740  -33.3770 N   0  0  0  0  0  0  0  0  0  0  0  0
   -4.0660   20.7580  -33.4970 O   0  0  0  0  0  0  0  0  0  0  0  0
   -5.9210   19.6970  -34.2320 O   0  0  0  0  0  0  0  0  0  0  0  0
   -8.4089   18.3651  -30.5363 H   0  0  0  0  0  0  0  0  0  0  0  0
   -8.6624   17.1966  -31.8768 H   0  0  0  0  0  0  0  0  0  0  0  0
   -7.2175   18.2638  -31.8768 H   0  0  0  0  0  0  0  0  0  0  0  0
   -9.6948   18.7578  -33.1425 H   0  0  0  0  0  0  0  0  0  0  0  0
   -9.6910   19.8195  -31.6856 H   0  0  0  0  0  0  0  0  0  0  0  0
   -7.9240   19.9780  -34.0600 H   0  0  0  0  0  0  0  0  0  0  0  0
   -9.2895   22.0467  -31.4915 H   0  0  0  0  0  0  0  0  0  0  0  0
   -8.1201   23.8330  -30.2143 H   0  0  0  0  0  0  0  0  0  0  0  0
   -3.8670   26.0530  -30.8470 H   0  0  0  0  0  0  0  0  0  0  0  0
   -4.3301   22.5128  -31.8135 H   0  0  0  0  0  0  0  0  0  0  0  0
  1  2  1  0
  2  3  1  0
  3  4  1  0
  4  5  2  0
  5  6  1  0
  6  7  2  0
  7  8  1  0
  8  9  1  0
  8 10  2  0
  8 11  2  0
  7 12  1  0
 12 13  2  0
 13 14  1  0
 14 15  2  0
 14 16  1  0
 13  4  1  0
  1 17  1  0
  1 18  1  0
  1 19  1  0
  2 20  1  0
  2 21  1  0
  3 22  1  0
  5 23  1  0
  6 24  1  0
  9 25  1  0
 12 26  1  0
M  CHG  3   9  -1  14   1  16  -1
M  END
>  <UniqueID>  (24) 
24

>  <SMILES>  (24) 
CCNc1ccc(S([NH-])(=O)=O)cc1[N+](=O)[O-]

>  <Energy>  (24) 
27.661555260963656

>  <Genealogy>  (24) 
CCNc1ccc(S([NH-])(=O)=O)cc1[N+](=O)[O-] (protonated)
CCNc1ccc(S([NH-])(=O)=O)cc1[N+](=O)[O-] (3D coordinates assigned)
CCNc1ccc(S([NH-])(=O)=O)cc1[N+](=O)[O-] (optimized conformer: 27.661555260963656 kcal/mol)

>  <smiles>  (24) 
CCNc1ccc(S(N)(=O)=O)cc1[N+](=O)[O-]

>  <score_type>  (24) 
oracle

>  <origin>  (24) 
adgpu

>  <m_score__min__energy>  (24) 
-8.9700000000000006

>  <m_primary>  (24) 
energy

$$$$
24:0
     RDKit          3D

 34 36  0  0  0  0  0  0  0  0999 V2000
   -3.3660   20.4380  -29.3640 O   0  0  0  0  0  0  0  0  0  0  0  0
   -3.5810   21.0630  -30.3930 C   0  0  0  0  0  0  0  0  0  0  0  0
   -3.4170   20.3750  -31.7140 C   0  0  0  0  0  0  0  0  0  0  0  0
   -4.5510   20.7530  -32.6760 C   0  0  1  0  0  0  0  0  0  0  0  0
   -5.8670   20.0900  -32.2760 C   0  0  0  0  0  0  0  0  0  0  0  0
   -7.0450   20.8610  -32.3020 C   0  0  0  0  0  0  0  0  0  0  0  0
   -8.2800   20.2870  -31.9830 C   0  0  0  0  0  0  0  0  0  0  0  0
   -8.3570   18.9370  -31.6420 C   0  0  0  0  0  0  0  0  0  0  0  0
   -7.2010   18.1560  -31.6220 C   0  0  0  0  0  0  0  0  0  0  0  0
   -5.9630   18.7230  -31.9400 C   0  0  0  0  0  0  0  0  0  0  0  0
   -4.6300   22.2820  -32.8760 C   0  0  0  0  0  0  0  0  0  0  0  0
   -4.5210   23.0850  -31.5970 C   0  0  0  0  0  0  0  0  0  0  0  0
   -4.9930   24.2850  -31.5870 N   0  0  0  0  0  0  0  0  0  0  0  0
   -4.9200   25.1170  -30.4050 C   0  0  0  0  0  0  0  0  0  0  0  0
   -5.3650   24.3220  -29.1690 C   0  0  0  0  0  0  0  0  0  0  0  0
   -4.7520   22.8990  -29.1080 C   0  0  0  0  0  0  0  0  0  0  0  0
   -3.8680   22.5460  -30.3310 C   0  0  1  0  0  0  0  0  0  0  0  0
   -2.4552   20.6723  -32.1574 H   0  0  0  0  0  0  0  0  0  0  0  0
   -3.4458   19.2879  -31.5486 H   0  0  0  0  0  0  0  0  0  0  0  0
   -4.3227   20.3467  -33.6724 H   0  0  0  0  0  0  0  0  0  0  0  0
   -6.9935   21.9251  -32.5759 H   0  0  0  0  0  0  0  0  0  0  0  0
   -9.1921   20.9016  -32.0011 H   0  0  0  0  0  0  0  0  0  0  0  0
   -9.3288   18.4880  -31.3889 H   0  0  0  0  0  0  0  0  0  0  0  0
   -7.2637   17.0907  -31.3552 H   0  0  0  0  0  0  0  0  0  0  0  0
   -5.0574   18.0988  -31.9281 H   0  0  0  0  0  0  0  0  0  0  0  0
   -3.8099   22.5848  -33.5436 H   0  0  0  0  0  0  0  0  0  0  0  0
   -5.6243   22.4934  -33.2964 H   0  0  0  0  0  0  0  0  0  0  0  0
   -3.8837   25.4580  -30.2640 H   0  0  0  0  0  0  0  0  0  0  0  0
   -5.5859   25.9830  -30.5338 H   0  0  0  0  0  0  0  0  0  0  0  0
   -5.0583   24.8742  -28.2685 H   0  0  0  0  0  0  0  0  0  0  0  0
   -6.4572   24.2063  -29.2291 H   0  0  0  0  0  0  0  0  0  0  0  0
   -4.1341   22.8261  -28.2008 H   0  0  0  0  0  0  0  0  0  0  0  0
   -5.5916   22.1883  -29.1037 H   0  0  0  0  0  0  0  0  0  0  0  0
   -2.8857   23.0306  -30.2301 H   0  0  0  0  0  0  0  0  0  0  0  0
  1  2  2  0
  2  3  1  0
  3  4  1  0
  4  5  1  0
  5  6  2  0
  6  7  1  0
  7  8  2  0
  8  9  1  0
  9 10  2  0
  4 11  1  0
 11 12  1  0
 12 13  2  0
 13 14  1  0
 14 15  1  0
 15 16  1  0
 16 17  1  0
 17  2  1  0
 10  5  1  0
 17 12  1  0
  3 18  1  0
  3 19  1  0
  4 20  1  6
  6 21  1  0
  7 22  1  0
  8 23  1  0
  9 24  1  0
 10 25  1  0
 11 26  1  0
 11 27  1  0
 14 28  1  0
 14 29  1  0
 15 30  1  0
 15 31  1  0
 16 32  1  0
 16 33  1  0
 17 34  1  1
M  END
>  <UniqueID>  (25) 
25

>  <SMILES>  (25) 
O=C1C[C@@H](c2ccccc2)CC2=NCCC[C@@H]12

>  <Energy>  (25) 
41.16958651125502

>  <Genealogy>  (25) 
O=C1C[C@@H](c2ccccc2)CC2=NCCC[C@@H]12 (chirality)
O=C1C[C@@H](c2ccccc2)CC2=NCCC[C@@H]12 (3D coordinates assigned)
O=C1C[C@@H](c2ccccc2)CC2=NCCC[C@@H]12 (nonaromatic ring conformer: 41.16958651125502 kcal/mol)

>  <smiles>  (25) 
O=C1CC(c2ccccc2)CC2=NCCCC12

>  <score_type>  (25) 
oracle

>  <origin>  (25) 
adgpu

>  <m_score__min__energy>  (25) 
-6.7300000000000004

>  <m_primary>  (25) 
energy

$$$$
25:0
     RDKit          3D

 38 40  0  0  0  0  0  0  0  0999 V2000
   -4.6600   22.8940  -32.8090 O   0  0  0  0  0  0  0  0  0  0  0  0
   -4.1720   21.5670  -32.2980 S   0  0  0  0  0  0  0  0  0  0  0  0
   -3.0820   21.0970  -33.2190 O   0  0  0  0  0  0  0  0  0  0  0  0
   -5.4470   20.3540  -32.3530 C   0  0  0  0  0  0  0  0  0  0  0  0
   -5.3500   19.1770  -31.5950 C   0  0  0  0  0  0  0  0  0  0  0  0
   -6.3940   18.2470  -31.6070 C   0  0  0  0  0  0  0  0  0  0  0  0
   -7.5410   18.4920  -32.3690 C   0  0  0  0  0  0  0  0  0  0  0  0
   -7.6440   19.6650  -33.1200 C   0  0  0  0  0  0  0  0  0  0  0  0
   -6.6020   20.5970  -33.1100 C   0  0  0  0  0  0  0  0  0  0  0  0
   -3.5330   21.7680  -30.6530 C   0  0  0  0  0  0  0  0  0  0  0  0
   -2.5820   20.8300  -30.2110 C   0  0  0  0  0  0  0  0  0  0  0  0
   -2.0290   20.9130  -28.9350 C   0  0  0  0  0  0  0  0  0  0  0  0
   -2.4130   21.9350  -28.0740 C   0  0  0  0  0  0  0  0  0  0  0  0
   -3.3520   22.8780  -28.4880 C   0  0  0  0  0  0  0  0  0  0  0  0
   -3.9220   22.8210  -29.7730 C   0  0  0  0  0  0  0  0  0  0  0  0
   -5.1350   24.0620  -30.1650 S   0  0  0  0  0  0  0  0  0  0  0  0
   -4.6090   25.0130  -31.2000 O   0  0  0  0  0  0  0  0  0  0  0  0
   -5.4400   24.8590  -28.9270 O   0  0  0  0  0  0  0  0  0  0  0  0
   -6.6360   23.3310  -30.7250 C   0  0  0  0  0  0  0  0  0  0  0  0
   -7.2530   22.3090  -29.9880 C   0  0  0  0  0  0  0  0  0  0  0  0
   -8.4600   21.7550  -30.4280 C   0  0  0  0  0  0  0  0  0  0  0  0
   -9.0600   22.2240  -31.6000 C   0  0  0  0  0  0  0  0  0  0  0  0
  -10.2270   21.6820  -32.0280 F   0  0  0  0  0  0  0  0  0  0  0  0
   -8.4570   23.2520  -32.3300 C   0  0  0  0  0  0  0  0  0  0  0  0
   -7.2500   23.8070  -31.8930 C   0  0  0  0  0  0  0  0  0  0  0  0
   -4.4512   18.9857  -30.9904 H   0  0  0  0  0  0  0  0  0  0  0  0
   -6.3132   17.3222  -31.0169 H   0  0  0  0  0  0  0  0  0  0  0  0
   -8.3624   17.7604  -32.3768 H   0  0  0  0  0  0  0  0  0  0  0  0
   -8.5460   19.8558  -33.7200 H   0  0  0  0  0  0  0  0  0  0  0  0
   -6.6884   21.5231  -33.6973 H   0  0  0  0  0  0  0  0  0  0  0  0
   -2.2700   20.0178  -30.8840 H   0  0  0  0  0  0  0  0  0  0  0  0
   -1.2876   20.1690  -28.6082 H   0  0  0  0  0  0  0  0  0  0  0  0
   -1.9759   21.9992  -27.0666 H   0  0  0  0  0  0  0  0  0  0  0  0
   -3.6526   23.6805  -27.7983 H   0  0  0  0  0  0  0  0  0  0  0  0
   -6.7865   21.9423  -29.0618 H   0  0  0  0  0  0  0  0  0  0  0  0
   -8.9374   20.9494  -29.8509 H   0  0  0  0  0  0  0  0  0  0  0  0
   -8.9323   23.6250  -33.2493 H   0  0  0  0  0  0  0  0  0  0  0  0
   -6.7806   24.6195  -32.4671 H   0  0  0  0  0  0  0  0  0  0  0  0
  1  2  2  0
  2  3  2  0
  2  4  1  0
  4  5  2  0
  5  6  1  0
  6  7  2  0
  7  8  1  0
  8  9  2  0
  2 10  1  0
 10 11  2  0
 11 12  1  0
 12 13  2  0
 13 14  1  0
 14 15  2  0
 15 16  1  0
 16 17  2  0
 16 18  2  0
 16 19  1  0
 19 20  2  0
 20 21  1  0
 21 22  2  0
 22 23  1  0
 22 24  1  0
 24 25  2  0
  9  4  1  0
 15 10  1  0
 25 19  1  0
  5 26  1  0
  6 27  1  0
  7 28  1  0
  8 29  1  0
  9 30  1  0
 11 31  1  0
 12 32  1  0
 13 33  1  0
 14 34  1  0
 20 35  1  0
 21 36  1  0
 24 37  1  0
 25 38  1  0
M  END
>  <UniqueID>  (26) 
26

>  <SMILES>  (26) 
O=S(=O)(c1ccccc1)c1ccccc1S(=O)(=O)c1ccc(F)cc1

>  <Energy>  (26) 
45.85859701694142

>  <Genealogy>  (26) 
O=S(=O)(c1ccccc1)c1ccccc1S(=O)(=O)c1ccc(F)cc1 (3D coordinates assigned)
O=S(=O)(c1ccccc1)c1ccccc1S(=O)(=O)c1ccc(F)cc1 (optimized conformer: 45.85859701694142 kcal/mol)

>  <smiles>  (26) 
O=S(=O)(c1ccccc1)c1ccccc1S(=O)(=O)c1ccc(F)cc1

>  <score_type>  (26) 
oracle

>  <origin>  (26) 
adgpu

>  <m_score__min__energy>  (26) 
-8.9199999999999999

>  <m_primary>  (26) 
energy

$$$$
26:0
     RDKit          3D

 39 40  0  0  0  0  0  0  0  0999 V2000
   -8.0520   20.6940  -32.1550 C   0  0  0  0  0  0  0  0  0  0  0  0
   -8.7860   22.2810  -31.6540 S   0  0  0  0  0  0  0  0  0  0  0  0
   -7.1990   23.0390  -31.3020 C   0  0  0  0  0  0  0  0  0  0  0  0
   -7.1280   24.1710  -30.4820 C   0  0  0  0  0  0  0  0  0  0  0  0
   -5.8910   24.7630  -30.2080 C   0  0  0  0  0  0  0  0  0  0  0  0
   -4.7160   24.2350  -30.7590 C   0  0  0  0  0  0  0  0  0  0  0  0
   -3.4940   24.8530  -30.4570 O   0  0  0  0  0  0  0  0  0  0  0  0
   -2.6440   24.4960  -29.4000 C   0  0  0  0  0  0  0  0  0  0  0  0
   -2.6750   23.2130  -28.8260 C   0  0  0  0  0  0  0  0  0  0  0  0
   -1.8030   22.8970  -27.7710 C   0  0  0  0  0  0  0  0  0  0  0  0
   -1.8230   21.5570  -27.1390 C   0  0  0  0  0  0  0  0  0  0  0  0
   -1.2390   21.3840  -26.0350 O   0  0  0  0  0  0  0  0  0  0  0  0
   -2.5170   20.4590  -27.7550 N   0  0  0  0  0  0  0  0  0  0  0  0
   -2.3780   19.0790  -27.2750 C   0  0  0  0  0  0  0  0  0  0  0  0
   -3.1040   18.9160  -25.9360 C   0  0  0  0  0  0  0  0  0  0  0  0
   -0.8980   18.7120  -27.1270 C   0  0  0  0  0  0  0  0  0  0  0  0
   -0.8850   23.8680  -27.3390 C   0  0  0  0  0  0  0  0  0  0  0  0
   -0.8680   25.1230  -27.9500 C   0  0  0  0  0  0  0  0  0  0  0  0
   -1.7360   25.4050  -28.9550 N   0  0  0  0  0  0  0  0  0  0  0  0
   -4.7890   23.0810  -31.5600 C   0  0  0  0  0  0  0  0  0  0  0  0
   -6.0270   22.4900  -31.8330 C   0  0  0  0  0  0  0  0  0  0  0  0
   -7.7841   20.1148  -31.2590 H   0  0  0  0  0  0  0  0  0  0  0  0
   -8.7792   20.1267  -32.7545 H   0  0  0  0  0  0  0  0  0  0  0  0
   -7.1488   20.8807  -32.7545 H   0  0  0  0  0  0  0  0  0  0  0  0
   -8.0471   24.5959  -30.0522 H   0  0  0  0  0  0  0  0  0  0  0  0
   -5.8402   25.6478  -29.5565 H   0  0  0  0  0  0  0  0  0  0  0  0
   -3.3808   22.4579  -29.2024 H   0  0  0  0  0  0  0  0  0  0  0  0
   -3.1980   20.6610  -28.5230 H   0  0  0  0  0  0  0  0  0  0  0  0
   -2.8324   18.3995  -28.0110 H   0  0  0  0  0  0  0  0  0  0  0  0
   -2.3933   19.0756  -25.1117 H   0  0  0  0  0  0  0  0  0  0  0  0
   -3.9168   19.6540  -25.8674 H   0  0  0  0  0  0  0  0  0  0  0  0
   -3.5233   17.9014  -25.8674 H   0  0  0  0  0  0  0  0  0  0  0  0
   -0.6410   18.6483  -26.0593 H   0  0  0  0  0  0  0  0  0  0  0  0
   -0.7113   17.7404  -27.6077 H   0  0  0  0  0  0  0  0  0  0  0  0
   -0.2790   19.4838  -27.6077 H   0  0  0  0  0  0  0  0  0  0  0  0
   -0.1829   23.6408  -26.5233 H   0  0  0  0  0  0  0  0  0  0  0  0
   -0.1491   25.8857  -27.6161 H   0  0  0  0  0  0  0  0  0  0  0  0
   -3.8691   22.6417  -31.9732 H   0  0  0  0  0  0  0  0  0  0  0  0
   -6.0791   21.5921  -32.4663 H   0  0  0  0  0  0  0  0  0  0  0  0
  1  2  1  0
  2  3  1  0
  3  4  2  0
  4  5  1  0
  5  6  2  0
  6  7  1  0
  7  8  1  0
  8  9  2  0
  9 10  1  0
 10 11  1  0
 11 12  2  0
 11 13  1  0
 13 14  1  0
 14 15  1  0
 14 16  1  0
 10 17  2  0
 17 18  1  0
 18 19  2  0
  6 20  1  0
 20 21  2  0
 21  3  1  0
 19  8  1  0
  1 22  1  0
  1 23  1  0
  1 24  1  0
  4 25  1  0
  5 26  1  0
  9 27  1  0
 13 28  1  0
 14 29  1  0
 15 30  1  0
 15 31  1  0
 15 32  1  0
 16 33  1  0
 16 34  1  0
 16 35  1  0
 17 36  1  0
 18 37  1  0
 20 38  1  0
 21 39  1  0
M  END
>  <UniqueID>  (27) 
27

>  <SMILES>  (27) 
CSc1ccc(Oc2cc(C(=O)NC(C)C)ccn2)cc1

>  <Energy>  (27) 
38.05874165358063

>  <Genealogy>  (27) 
CSc1ccc(Oc2cc(C(=O)NC(C)C)ccn2)cc1 (3D coordinates assigned)
CSc1ccc(Oc2cc(C(=O)NC(C)C)ccn2)cc1 (optimized conformer: 38.05874165358063 kcal/mol)

>  <smiles>  (27) 
CSc1ccc(Oc2cc(C(=O)NC(C)C)ccn2)cc1

>  <score_type>  (27) 
oracle

>  <origin>  (27) 
adgpu

>  <m_score__min__energy>  (27) 
-7.9000000000000004

>  <m_primary>  (27) 
energy

$$$$
27:0
     RDKit          3D

 39 42  0  0  0  0  0  0  0  0999 V2000
    0.7080   19.7300  -35.2370 C   0  0  0  0  0  0  0  0  0  0  0  0
   -0.2200   18.7350  -34.9220 C   0  0  0  0  0  0  0  0  0  0  0  0
   -1.4060   19.0640  -34.2580 C   0  0  0  0  0  0  0  0  0  0  0  0
   -1.6770   20.4000  -33.9010 C   0  0  0  0  0  0  0  0  0  0  0  0
   -2.9280   20.7740  -33.1940 C   0  0  0  0  0  0  0  0  0  0  0  0
   -3.0630   21.9290  -32.5050 N   0  0  0  0  0  0  0  0  0  0  0  0
   -4.3250   21.8990  -32.0310 C   0  0  0  0  0  0  0  0  0  0  0  0
   -4.8730   22.9540  -31.1510 C   0  0  0  0  0  0  0  0  0  0  0  0
   -5.7830   23.8900  -31.6690 C   0  0  0  0  0  0  0  0  0  0  0  0
   -6.2970   24.9030  -30.8530 C   0  0  0  0  0  0  0  0  0  0  0  0
   -5.8940   24.9970  -29.5180 C   0  0  0  0  0  0  0  0  0  0  0  0
   -4.9720   24.0850  -29.0000 C   0  0  0  0  0  0  0  0  0  0  0  0
   -4.4560   23.0710  -29.8130 C   0  0  0  0  0  0  0  0  0  0  0  0
   -4.9410   20.7280  -32.4530 C   0  0  0  0  0  0  0  0  0  0  0  0
   -6.3510   20.3180  -32.2760 C   0  0  0  0  0  0  0  0  0  0  0  0
   -6.6710   18.9590  -32.1230 C   0  0  0  0  0  0  0  0  0  0  0  0
   -8.0030   18.5620  -31.9690 C   0  0  0  0  0  0  0  0  0  0  0  0
   -9.0250   19.5150  -31.9800 C   0  0  0  0  0  0  0  0  0  0  0  0
   -8.7180   20.8670  -32.1490 C   0  0  0  0  0  0  0  0  0  0  0  0
   -7.3870   21.2690  -32.3040 C   0  0  0  0  0  0  0  0  0  0  0  0
   -4.0510   20.0240  -33.1730 N   0  0  0  0  0  0  0  0  0  0  0  0
   -0.7290   21.3920  -34.2180 C   0  0  0  0  0  0  0  0  0  0  0  0
    0.4540   21.0560  -34.8840 C   0  0  0  0  0  0  0  0  0  0  0  0
    1.6382   19.4687  -35.7628 H   0  0  0  0  0  0  0  0  0  0  0  0
   -0.0174   17.6894  -35.1970 H   0  0  0  0  0  0  0  0  0  0  0  0
   -2.1320   18.2748  -34.0128 H   0  0  0  0  0  0  0  0  0  0  0  0
   -6.0932   23.8260  -32.7224 H   0  0  0  0  0  0  0  0  0  0  0  0
   -7.0184   25.6257  -31.2619 H   0  0  0  0  0  0  0  0  0  0  0  0
   -6.3034   25.7900  -28.8749 H   0  0  0  0  0  0  0  0  0  0  0  0
   -4.6512   24.1644  -27.9508 H   0  0  0  0  0  0  0  0  0  0  0  0
   -3.7210   22.3620  -29.4043 H   0  0  0  0  0  0  0  0  0  0  0  0
   -5.8709   18.2041  -32.1243 H   0  0  0  0  0  0  0  0  0  0  0  0
   -8.2468   17.4973  -31.8389 H   0  0  0  0  0  0  0  0  0  0  0  0
  -10.0716   19.2002  -31.8555 H   0  0  0  0  0  0  0  0  0  0  0  0
   -9.5233   21.6162  -32.1602 H   0  0  0  0  0  0  0  0  0  0  0  0
   -7.1496   22.3333  -32.4484 H   0  0  0  0  0  0  0  0  0  0  0  0
   -4.2300   19.1180  -33.6600 H   0  0  0  0  0  0  0  0  0  0  0  0
   -0.9204   22.4389  -33.9397 H   0  0  0  0  0  0  0  0  0  0  0  0
    1.1862   21.8391  -35.1302 H   0  0  0  0  0  0  0  0  0  0  0  0
  1  2  2  0
  2  3  1  0
  3  4  2  0
  4  5  1  0
  5  6  2  0
  6  7  1  0
  7  8  1  0
  8  9  2  0
  9 10  1  0
 10 11  2  0
 11 12  1  0
 12 13  2  0
  7 14  2  0
 14 15  1  0
 15 16  2  0
 16 17  1  0
 17 18  2  0
 18 19  1  0
 19 20  2  0
 14 21  1  0
  4 22  1  0
 22 23  2  0
 23  1  1  0
 21  5  1  0
 13  8  1  0
 20 15  1  0
  1 24  1  0
  2 25  1  0
  3 26  1  0
  9 27  1  0
 10 28  1  0
 11 29  1  0
 12 30  1  0
 13 31  1  0
 16 32  1  0
 17 33  1  0
 18 34  1  0
 19 35  1  0
 20 36  1  0
 21 37  1  0
 22 38  1  0
 23 39  1  0
M  END
>  <UniqueID>  (28) 
28

>  <SMILES>  (28) 
c1ccc(-c2nc(-c3ccccc3)c(-c3ccccc3)[nH]2)cc1

>  <Energy>  (28) 
82.29965916388983

>  <Genealogy>  (28) 
c1ccc(-c2nc(-c3ccccc3)c(-c3ccccc3)[nH]2)cc1 (3D coordinates assigned)
c1ccc(-c2nc(-c3ccccc3)c(-c3ccccc3)[nH]2)cc1 (optimized conformer: 82.29965916388983 kcal/mol)

>  <smiles>  (28) 
c1ccc(-c2nc(-c3ccccc3)c(-c3ccccc3)[nH]2)cc1

>  <score_type>  (28) 
oracle

>  <origin>  (28) 
adgpu

>  <m_score__min__energy>  (28) 
-8.0800000000000001

>  <m_primary>  (28) 
energy

$$$$
28:0
     RDKit          3D

 42 45  0  0  0  0  0  0  0  0999 V2000
   -4.0930   15.2000  -33.3030 C   0  0  0  0  0  0  0  0  0  0  0  0
   -5.3550   14.5280  -33.8330 C   0  0  0  0  0  0  0  0  0  0  0  0
   -6.2930   15.5010  -34.2920 O   0  0  0  0  0  0  0  0  0  0  0  0
   -6.3930   16.8230  -33.8290 C   0  0  0  0  0  0  0  0  0  0  0  0
   -6.0180   17.9350  -34.6080 C   0  0  0  0  0  0  0  0  0  0  0  0
   -6.1440   19.2300  -34.0950 C   0  0  0  0  0  0  0  0  0  0  0  0
   -6.6550   19.4380  -32.8030 C   0  0  0  0  0  0  0  0  0  0  0  0
   -6.7940   20.8010  -32.2440 C   0  0  0  0  0  0  0  0  0  0  0  0
   -7.9900   21.3630  -31.9820 N   0  0  0  0  0  0  0  0  0  0  0  0
   -7.7550   22.5600  -31.4670 N   0  0  0  0  0  0  0  0  0  0  0  0
   -6.4180   22.7220  -31.4270 C   0  0  0  0  0  0  0  0  0  0  0  0
   -5.7850   23.9770  -30.9740 C   0  0  0  0  0  0  0  0  0  0  0  0
   -6.4010   25.1270  -30.5200 C   0  0  0  0  0  0  0  0  0  0  0  0
   -5.3780   25.9790  -30.1590 C   0  0  0  0  0  0  0  0  0  0  0  0
   -4.2180   25.3940  -30.3650 O   0  0  0  0  0  0  0  0  0  0  0  0
   -4.4280   24.1910  -30.8450 C   0  0  0  0  0  0  0  0  0  0  0  0
   -5.7800   21.6300  -31.9060 N   0  0  0  0  0  0  0  0  0  0  0  0
   -4.3680   21.4040  -32.0410 C   0  0  0  0  0  0  0  0  0  0  0  0
   -3.6000   21.0440  -30.9220 C   0  0  0  0  0  0  0  0  0  0  0  0
   -2.2290   20.8060  -31.0570 C   0  0  0  0  0  0  0  0  0  0  0  0
   -1.6190   20.9190  -32.3100 C   0  0  0  0  0  0  0  0  0  0  0  0
   -0.2900   20.6860  -32.4410 F   0  0  0  0  0  0  0  0  0  0  0  0
   -2.3800   21.2700  -33.4300 C   0  0  0  0  0  0  0  0  0  0  0  0
   -3.7500   21.5110  -33.2960 C   0  0  0  0  0  0  0  0  0  0  0  0
   -7.0000   18.3280  -32.0190 C   0  0  0  0  0  0  0  0  0  0  0  0
   -6.8750   17.0330  -32.5320 C   0  0  0  0  0  0  0  0  0  0  0  0
   -4.1077   15.1922  -32.2031 H   0  0  0  0  0  0  0  0  0  0  0  0
   -3.2083   14.6535  -33.6618 H   0  0  0  0  0  0  0  0  0  0  0  0
   -4.0526   16.2391  -33.6618 H   0  0  0  0  0  0  0  0  0  0  0  0
   -5.0865   13.8640  -34.6679 H   0  0  0  0  0  0  0  0  0  0  0  0
   -5.8160   13.9510  -33.0178 H   0  0  0  0  0  0  0  0  0  0  0  0
   -5.6244   17.7843  -35.6241 H   0  0  0  0  0  0  0  0  0  0  0  0
   -5.8408   20.0919  -34.7076 H   0  0  0  0  0  0  0  0  0  0  0  0
   -7.4818   25.3225  -30.4591 H   0  0  0  0  0  0  0  0  0  0  0  0
   -5.5121   26.9949  -29.7590 H   0  0  0  0  0  0  0  0  0  0  0  0
   -3.6433   23.4651  -31.1045 H   0  0  0  0  0  0  0  0  0  0  0  0
   -4.0785   20.9489  -29.9361 H   0  0  0  0  0  0  0  0  0  0  0  0
   -1.6298   20.5297  -30.1769 H   0  0  0  0  0  0  0  0  0  0  0  0
   -1.9001   21.3563  -34.4160 H   0  0  0  0  0  0  0  0  0  0  0  0
   -4.3465   21.7858  -34.1784 H   0  0  0  0  0  0  0  0  0  0  0  0
   -7.3712   18.4766  -30.9943 H   0  0  0  0  0  0  0  0  0  0  0  0
   -7.1583   16.1711  -31.9100 H   0  0  0  0  0  0  0  0  0  0  0  0
  1  2  1  0
  2  3  1  0
  3  4  1  0
  4  5  2  0
  5  6  1  0
  6  7  2  0
  7  8  1  0
  8  9  2  0
  9 10  1  0
 10 11  2  0
 11 12  1  0
 12 13  1  0
 13 14  2  0
 14 15  1  0
 15 16  1  0
 11 17  1  0
 17 18  1  0
 18 19  2  0
 19 20  1  0
 20 21  2  0
 21 22  1  0
 21 23  1  0
 23 24  2  0
  7 25  1  0
 25 26  2  0
 26  4  1  0
 17  8  1  0
 24 18  1  0
 16 12  2  0
  1 27  1  0
  1 28  1  0
  1 29  1  0
  2 30  1  0
  2 31  1  0
  5 32  1  0
  6 33  1  0
 13 34  1  0
 14 35  1  0
 16 36  1  0
 19 37  1  0
 20 38  1  0
 23 39  1  0
 24 40  1  0
 25 41  1  0
 26 42  1  0
M  END
>  <UniqueID>  (29) 
29

>  <SMILES>  (29) 
CCOc1ccc(-c2nnc(-c3ccoc3)n2-c2ccc(F)cc2)cc1

>  <Energy>  (29) 
116.9078100885816

>  <Genealogy>  (29) 
CCOc1ccc(-c2nnc(-c3ccoc3)n2-c2ccc(F)cc2)cc1 (3D coordinates assigned)
CCOc1ccc(-c2nnc(-c3ccoc3)n2-c2ccc(F)cc2)cc1 (optimized conformer: 116.9078100885816 kcal/mol)

>  <smiles>  (29) 
CCOc1ccc(-c2nnc(-c3ccoc3)n2-c2ccc(F)cc2)cc1

>  <score_type>  (29) 
oracle

>  <origin>  (29) 
adgpu

>  <m_score__min__energy>  (29) 
-8.2300000000000004

>  <m_primary>  (29) 
energy

$$$$
29:0
     RDKit          3D

 39 41  0  0  0  0  0  0  0  0999 V2000
   -9.0110   20.1420  -32.4510 C   0  0  0  0  0  0  0  0  0  0  0  0
   -7.6620   19.9280  -32.7430 C   0  0  0  0  0  0  0  0  0  0  0  0
   -6.7030   20.8690  -32.3560 C   0  0  0  0  0  0  0  0  0  0  0  0
   -7.0860   22.0370  -31.6690 C   0  0  0  0  0  0  0  0  0  0  0  0
   -6.0680   23.0360  -31.2560 C   0  0  0  0  0  0  0  0  0  0  0  0
   -6.3430   24.4100  -31.3350 C   0  0  0  0  0  0  0  0  0  0  0  0
   -5.3770   25.3330  -30.9350 C   0  0  0  0  0  0  0  0  0  0  0  0
   -4.1730   24.9040  -30.4770 N   0  0  0  0  0  0  0  0  0  0  0  0
   -3.8570   23.5820  -30.3870 C   0  0  0  0  0  0  0  0  0  0  0  0
   -2.5530   23.1890  -29.9000 N   0  0  0  0  0  0  0  0  0  0  0  0
   -2.0930   21.7950  -30.0820 C   0  0  0  0  0  0  0  0  0  0  0  0
   -2.2410   20.9190  -28.8220 C   0  0  0  0  0  0  0  0  0  0  0  0
   -1.6920   21.5650  -27.5340 C   0  0  0  0  0  0  0  0  0  0  0  0
   -2.2840   22.9400  -27.1740 C   0  0  0  0  0  0  0  0  0  0  0  0
   -1.5440   24.1300  -27.8090 C   0  0  0  0  0  0  0  0  0  0  0  0
   -1.6550   24.2170  -29.3450 C   0  0  0  0  0  0  0  0  0  0  0  0
   -4.8120   22.6240  -30.7760 C   0  0  0  0  0  0  0  0  0  0  0  0
   -8.4480   22.2400  -31.3810 C   0  0  0  0  0  0  0  0  0  0  0  0
   -9.4030   21.2970  -31.7700 C   0  0  0  0  0  0  0  0  0  0  0  0
   -9.7644   19.4013  -32.7572 H   0  0  0  0  0  0  0  0  0  0  0  0
   -7.3536   19.0178  -33.2782 H   0  0  0  0  0  0  0  0  0  0  0  0
   -5.6422   20.6957  -32.5898 H   0  0  0  0  0  0  0  0  0  0  0  0
   -7.3166   24.7575  -31.7109 H   0  0  0  0  0  0  0  0  0  0  0  0
   -5.5909   26.4106  -30.9907 H   0  0  0  0  0  0  0  0  0  0  0  0
   -2.6813   21.3391  -30.8919 H   0  0  0  0  0  0  0  0  0  0  0  0
   -1.0189   21.8409  -30.3147 H   0  0  0  0  0  0  0  0  0  0  0  0
   -3.3101   20.7072  -28.6729 H   0  0  0  0  0  0  0  0  0  0  0  0
   -1.6465   20.0103  -28.9976 H   0  0  0  0  0  0  0  0  0  0  0  0
   -1.8960   20.8795  -26.6982 H   0  0  0  0  0  0  0  0  0  0  0  0
   -0.6211   21.7374  -27.7171 H   0  0  0  0  0  0  0  0  0  0  0  0
   -3.3306   22.9643  -27.5118 H   0  0  0  0  0  0  0  0  0  0  0  0
   -2.1858   23.0513  -26.0841 H   0  0  0  0  0  0  0  0  0  0  0  0
   -1.9572   25.0563  -27.3832 H   0  0  0  0  0  0  0  0  0  0  0  0
   -0.4769   23.9864  -27.5838 H   0  0  0  0  0  0  0  0  0  0  0  0
   -2.0436   25.2098  -29.6159 H   0  0  0  0  0  0  0  0  0  0  0  0
   -0.6521   24.0499  -29.7648 H   0  0  0  0  0  0  0  0  0  0  0  0
   -4.5757   21.5521  -30.7045 H   0  0  0  0  0  0  0  0  0  0  0  0
   -8.7635   23.1477  -30.8457 H   0  0  0  0  0  0  0  0  0  0  0  0
  -10.4655   21.4645  -31.5395 H   0  0  0  0  0  0  0  0  0  0  0  0
  1  2  2  0
  2  3  1  0
  3  4  2  0
  4  5  1  0
  5  6  2  0
  6  7  1  0
  7  8  2  0
  8  9  1  0
  9 10  1  0
 10 11  1  0
 11 12  1  0
 12 13  1  0
 13 14  1  0
 14 15  1  0
 15 16  1  0
  9 17  2  0
  4 18  1  0
 18 19  2  0
 19  1  1  0
 17  5  1  0
 16 10  1  0
  1 20  1  0
  2 21  1  0
  3 22  1  0
  6 23  1  0
  7 24  1  0
 11 25  1  0
 11 26  1  0
 12 27  1  0
 12 28  1  0
 13 29  1  0
 13 30  1  0
 14 31  1  0
 14 32  1  0
 15 33  1  0
 15 34  1  0
 16 35  1  0
 16 36  1  0
 17 37  1  0
 18 38  1  0
 19 39  1  0
M  END
>  <UniqueID>  (30) 
30

>  <SMILES>  (30) 
c1ccc(-c2ccnc(N3CCCCCC3)c2)cc1

>  <Energy>  (30) 
52.90991587894753

>  <Genealogy>  (30) 
c1ccc(-c2ccnc(N3CCCCCC3)c2)cc1 (3D coordinates assigned)
c1ccc(-c2ccnc(N3CCCCCC3)c2)cc1 (nonaromatic ring conformer: 52.90991587894753 kcal/mol)

>  <smiles>  (30) 
c1ccc(-c2ccnc(N3CCCCCC3)c2)cc1

>  <score_type>  (30) 
oracle

>  <origin>  (30) 
adgpu

>  <m_score__min__energy>  (30) 
-5.8799999999999999

>  <m_primary>  (30) 
energy

$$$$
30:0
     RDKit          3D

 30 32  0  0  0  0  0  0  0  0999 V2000
   -2.8870   20.9850  -27.8490 C   0  0  0  0  0  0  0  0  0  0  0  0
   -2.7040   22.3760  -28.3660 C   0  0  0  0  0  0  0  0  0  0  0  0
   -1.4900   23.0460  -28.1830 C   0  0  0  0  0  0  0  0  0  0  0  0
   -1.3600   24.3400  -28.6900 C   0  0  0  0  0  0  0  0  0  0  0  0
   -0.2840   24.9740  -28.5430 O   0  0  0  0  0  0  0  0  0  0  0  0
   -2.4000   24.9170  -29.3480 N   0  0  0  0  0  0  0  0  0  0  0  0
   -3.5710   24.2500  -29.5220 C   0  0  0  0  0  0  0  0  0  0  0  0
   -4.9170   25.0270  -30.4050 S   0  0  0  0  0  0  0  0  0  0  0  0
   -5.3350   23.5050  -31.2570 C   0  0  0  0  0  0  0  0  0  0  0  0
   -4.6230   23.0250  -32.2920 N   0  0  0  0  0  0  0  0  0  0  0  0
   -5.2210   21.9110  -32.6850 N   0  0  0  0  0  0  0  0  0  0  0  0
   -6.2900   21.7240  -31.8860 C   0  0  0  0  0  0  0  0  0  0  0  0
   -7.2080   20.5740  -32.0480 C   0  0  0  0  0  0  0  0  0  0  0  0
   -6.7990   19.2520  -32.2020 C   0  0  0  0  0  0  0  0  0  0  0  0
   -7.8600   18.3500  -32.3480 C   0  0  0  0  0  0  0  0  0  0  0  0
   -9.1110   18.9490  -32.3130 C   0  0  0  0  0  0  0  0  0  0  0  0
   -8.8910   20.6000  -32.1010 S   0  0  0  0  0  0  0  0  0  0  0  0
   -6.3880   22.7140  -30.9670 N   0  0  0  0  0  0  0  0  0  0  0  0
   -7.3930   22.9100  -29.9240 C   0  0  0  0  0  0  0  0  0  0  0  0
   -3.7170   22.9900  -29.0340 N   0  0  0  0  0  0  0  0  0  0  0  0
   -2.8851   20.9994  -26.7491 H   0  0  0  0  0  0  0  0  0  0  0  0
   -3.8457   20.5833  -28.2088 H   0  0  0  0  0  0  0  0  0  0  0  0
   -2.0648   20.3490  -28.2088 H   0  0  0  0  0  0  0  0  0  0  0  0
   -0.6563   22.5640  -27.6514 H   0  0  0  0  0  0  0  0  0  0  0  0
   -5.7426   18.9453  -32.2084 H   0  0  0  0  0  0  0  0  0  0  0  0
   -7.7152   17.2674  -32.4783 H   0  0  0  0  0  0  0  0  0  0  0  0
  -10.0777   18.4327  -32.4076 H   0  0  0  0  0  0  0  0  0  0  0  0
   -6.9187   22.8175  -28.9358 H   0  0  0  0  0  0  0  0  0  0  0  0
   -7.8364   23.9115  -30.0256 H   0  0  0  0  0  0  0  0  0  0  0  0
   -8.1802   22.1485  -30.0256 H   0  0  0  0  0  0  0  0  0  0  0  0
  1  2  1  0
  2  3  2  0
  3  4  1  0
  4  5  2  0
  4  6  1  0
  6  7  1  0
  7  8  1  0
  8  9  1  0
  9 10  2  0
 10 11  1  0
 11 12  2  0
 12 13  1  0
 13 14  2  0
 14 15  1  0
 15 16  2  0
 16 17  1  0
 12 18  1  0
 18 19  1  0
  7 20  2  0
 20  2  1  0
 18  9  1  0
 17 13  1  0
  1 21  1  0
  1 22  1  0
  1 23  1  0
  3 24  1  0
 14 25  1  0
 15 26  1  0
 16 27  1  0
 19 28  1  0
 19 29  1  0
 19 30  1  0
M  CHG  1   6  -1
M  END
>  <UniqueID>  (31) 
31

>  <SMILES>  (31) 
Cc1cc(=O)[n-]c(Sc2nnc(-c3cccs3)n2C)n1

>  <Energy>  (31) 
90.18097686395537

>  <Genealogy>  (31) 
Cc1cc(=O)[n-]c(Sc2nnc(-c3cccs3)n2C)n1 (protonated)
Cc1cc(=O)[n-]c(Sc2nnc(-c3cccs3)n2C)n1 (3D coordinates assigned)
Cc1cc(=O)[n-]c(Sc2nnc(-c3cccs3)n2C)n1 (optimized conformer: 90.18097686395537 kcal/mol)

>  <smiles>  (31) 
Cc1cc(=O)[nH]c(Sc2nnc(-c3cccs3)n2C)n1

>  <score_type>  (31) 
oracle

>  <origin>  (31) 
adgpu

>  <m_score__min__energy>  (31) 
-8.6500000000000004

>  <m_primary>  (31) 
energy

$$$$
31:0
     RDKit          3D

 24 26  0  0  0  0  0  0  0  0999 V2000
   -3.6630   20.6500  -30.3070 O   0  0  0  0  0  0  0  0  0  0  0  0
   -3.8200   21.9020  -30.3710 C   0  0  0  0  0  0  0  0  0  0  0  0
   -2.9310   22.7520  -29.7150 C   0  0  0  0  0  0  0  0  0  0  0  0
   -1.8250   22.4030  -28.9300 C   0  0  0  0  0  0  0  0  0  0  0  0
   -1.1540   23.5200  -28.4300 C   0  0  0  0  0  0  0  0  0  0  0  0
   -1.9310   24.9280  -28.9630 S   0  0  0  0  0  0  0  0  0  0  0  0
   -3.1130   24.1090  -29.8230 C   0  0  0  0  0  0  0  0  0  0  0  0
   -4.1210   24.6480  -30.5440 N   0  0  0  0  0  0  0  0  0  0  0  0
   -4.9920   23.8160  -31.1840 C   0  0  0  0  0  0  0  0  0  0  0  0
   -4.8530   22.4500  -31.0990 N   0  0  0  0  0  0  0  0  0  0  0  0
   -5.8040   21.6090  -31.7850 C   0  0  0  0  0  0  0  0  0  0  0  0
   -5.3630   20.6050  -32.6620 C   0  0  0  0  0  0  0  0  0  0  0  0
   -6.2870   19.7870  -33.3200 C   0  0  0  0  0  0  0  0  0  0  0  0
   -5.7270   18.5350  -34.4160 Cl  0  0  0  0  0  0  0  0  0  0  0  0
   -7.6570   19.9620  -33.1020 C   0  0  0  0  0  0  0  0  0  0  0  0
   -8.1040   20.9560  -32.2250 C   0  0  0  0  0  0  0  0  0  0  0  0
   -9.8230   21.1750  -31.9520 Cl  0  0  0  0  0  0  0  0  0  0  0  0
   -7.1820   21.7750  -31.5660 C   0  0  0  0  0  0  0  0  0  0  0  0
   -1.5195   21.3654  -28.7300 H   0  0  0  0  0  0  0  0  0  0  0  0
   -0.2600   23.4907  -27.7897 H   0  0  0  0  0  0  0  0  0  0  0  0
   -5.8157   24.2425  -31.7753 H   0  0  0  0  0  0  0  0  0  0  0  0
   -4.2858   20.4612  -32.8323 H   0  0  0  0  0  0  0  0  0  0  0  0
   -8.3831   19.3182  -33.6200 H   0  0  0  0  0  0  0  0  0  0  0  0
   -7.5369   22.5524  -30.8733 H   0  0  0  0  0  0  0  0  0  0  0  0
  1  2  2  0
  2  3  1  0
  3  4  1  0
  4  5  2  0
  5  6  1  0
  6  7  1  0
  7  8  1  0
  8  9  2  0
  9 10  1  0
 10 11  1  0
 11 12  2  0
 12 13  1  0
 13 14  1  0
 13 15  2  0
 15 16  1  0
 16 17  1  0
 16 18  2  0
 10  2  1  0
 18 11  1  0
  7  3  2  0
  4 19  1  0
  5 20  1  0
  9 21  1  0
 12 22  1  0
 15 23  1  0
 18 24  1  0
M  END
>  <UniqueID>  (32) 
32

>  <SMILES>  (32) 
O=c1c2ccsc2ncn1-c1cc(Cl)cc(Cl)c1

>  <Energy>  (32) 
68.48626017287461

>  <Genealogy>  (32) 
O=c1c2ccsc2ncn1-c1cc(Cl)cc(Cl)c1 (3D coordinates assigned)
O=c1c2ccsc2ncn1-c1cc(Cl)cc(Cl)c1 (optimized conformer: 68.48626017287461 kcal/mol)

>  <smiles>  (32) 
O=c1c2ccsc2ncn1-c1cc(Cl)cc(Cl)c1

>  <score_type>  (32) 
oracle

>  <origin>  (32) 
adgpu

>  <m_score__min__energy>  (32) 
-7.1299999999999999

>  <m_primary>  (32) 
energy

$$$$
32:0
     RDKit          3D

 31 32  0  0  0  0  0  0  0  0999 V2000
    0.7310   25.5050  -27.1170 C   0  0  0  0  0  0  0  0  0  0  0  0
    0.0520   24.9010  -28.2130 O   0  0  0  0  0  0  0  0  0  0  0  0
   -1.0630   24.0600  -28.0880 C   0  0  0  0  0  0  0  0  0  0  0  0
   -0.9460   22.6950  -27.7700 C   0  0  0  0  0  0  0  0  0  0  0  0
   -2.0900   21.9010  -27.6550 C   0  0  0  0  0  0  0  0  0  0  0  0
   -3.3560   22.4540  -27.8580 C   0  0  0  0  0  0  0  0  0  0  0  0
   -3.4910   23.8170  -28.1850 C   0  0  0  0  0  0  0  0  0  0  0  0
   -4.7780   24.4220  -28.4090 N   0  0  0  0  0  0  0  0  0  0  0  0
   -5.3770   24.8790  -29.9720 S   0  0  0  0  0  0  0  0  0  0  0  0
   -4.2240   25.2910  -30.8430 O   0  0  0  0  0  0  0  0  0  0  0  0
   -6.3140   26.0450  -29.8180 O   0  0  0  0  0  0  0  0  0  0  0  0
   -6.1970   23.5160  -30.7270 C   0  0  0  0  0  0  0  0  0  0  0  0
   -5.6620   22.9090  -31.8720 C   0  0  0  0  0  0  0  0  0  0  0  0
   -6.3240   21.8340  -32.4730 C   0  0  0  0  0  0  0  0  0  0  0  0
   -7.5230   21.3580  -31.9300 C   0  0  0  0  0  0  0  0  0  0  0  0
   -8.3540   20.0100  -32.6840 Cl  0  0  0  0  0  0  0  0  0  0  0  0
   -8.0570   21.9570  -30.7840 C   0  0  0  0  0  0  0  0  0  0  0  0
   -7.3950   23.0320  -30.1820 C   0  0  0  0  0  0  0  0  0  0  0  0
   -2.3360   24.6090  -28.2920 C   0  0  0  0  0  0  0  0  0  0  0  0
    0.3094   25.1299  -26.1728 H   0  0  0  0  0  0  0  0  0  0  0  0
    1.8011   25.2548  -27.1657 H   0  0  0  0  0  0  0  0  0  0  0  0
    0.6072   26.5969  -27.1657 H   0  0  0  0  0  0  0  0  0  0  0  0
    0.0481   22.2516  -27.6115 H   0  0  0  0  0  0  0  0  0  0  0  0
   -1.9928   20.8346  -27.4032 H   0  0  0  0  0  0  0  0  0  0  0  0
   -4.2515   21.8224  -27.7621 H   0  0  0  0  0  0  0  0  0  0  0  0
   -5.3710   24.6710  -27.5860 H   0  0  0  0  0  0  0  0  0  0  0  0
   -4.7184   23.2797  -32.2989 H   0  0  0  0  0  0  0  0  0  0  0  0
   -5.9024   21.3622  -33.3728 H   0  0  0  0  0  0  0  0  0  0  0  0
   -8.9984   21.5822  -30.3560 H   0  0  0  0  0  0  0  0  0  0  0  0
   -7.8151   23.4989  -29.2789 H   0  0  0  0  0  0  0  0  0  0  0  0
   -2.4322   25.6764  -28.5397 H   0  0  0  0  0  0  0  0  0  0  0  0
  1  2  1  0
  2  3  1  0
  3  4  2  0
  4  5  1  0
  5  6  2  0
  6  7  1  0
  7  8  1  0
  8  9  1  0
  9 10  2  0
  9 11  2  0
  9 12  1  0
 12 13  2  0
 13 14  1  0
 14 15  2  0
 15 16  1  0
 15 17  1  0
 17 18  2  0
  7 19  2  0
 19  3  1  0
 18 12  1  0
  1 20  1  0
  1 21  1  0
  1 22  1  0
  4 23  1  0
  5 24  1  0
  6 25  1  0
  8 26  1  0
 13 27  1  0
 14 28  1  0
 17 29  1  0
 18 30  1  0
 19 31  1  0
M  END
>  <UniqueID>  (33) 
33

>  <SMILES>  (33) 
COc1cccc(NS(=O)(=O)c2ccc(Cl)cc2)c1

>  <Energy>  (33) 
33.43508573007442

>  <Genealogy>  (33) 
COc1cccc(NS(=O)(=O)c2ccc(Cl)cc2)c1 (3D coordinates assigned)
COc1cccc(NS(=O)(=O)c2ccc(Cl)cc2)c1 (optimized conformer: 33.43508573007442 kcal/mol)

>  <smiles>  (33) 
COc1cccc(NS(=O)(=O)c2ccc(Cl)cc2)c1

>  <score_type>  (33) 
oracle

>  <origin>  (33) 
adgpu

>  <m_score__min__energy>  (33) 
-8.2699999999999996

>  <m_primary>  (33) 
energy

$$$$
33:0
     RDKit          3D

 32 34  0  0  0  0  0  0  0  0999 V2000
   -9.8820   19.2940  -33.0960 N   0  0  0  0  0  0  0  0  0  0  0  0
   -9.0170   19.9180  -32.6330 C   0  0  0  0  0  0  0  0  0  0  0  0
   -7.9640   20.7020  -32.0520 C   0  0  0  0  0  0  0  0  0  0  0  0
   -6.6490   20.2970  -32.1680 C   0  0  0  0  0  0  0  0  0  0  0  0
   -6.2730   19.0750  -32.8740 C   0  0  0  0  0  0  0  0  0  0  0  0
   -5.8720   19.0480  -34.1810 C   0  0  0  0  0  0  0  0  0  0  0  0
   -5.5190   17.8780  -34.8370 C   0  0  0  0  0  0  0  0  0  0  0  0
   -5.5700   16.6930  -34.1510 C   0  0  0  0  0  0  0  0  0  0  0  0
   -5.9730   16.7230  -32.8340 C   0  0  0  0  0  0  0  0  0  0  0  0
   -6.3280   17.8700  -32.1670 C   0  0  0  0  0  0  0  0  0  0  0  0
   -5.7270   21.0970  -31.5900 N   0  0  0  0  0  0  0  0  0  0  0  0
   -6.0170   22.2320  -30.9280 C   0  0  0  0  0  0  0  0  0  0  0  0
   -4.9270   23.0090  -30.3470 C   0  0  0  0  0  0  0  0  0  0  0  0
   -4.2320   22.5290  -29.2300 C   0  0  0  0  0  0  0  0  0  0  0  0
   -3.2090   23.2660  -28.6910 C   0  0  0  0  0  0  0  0  0  0  0  0
   -2.8230   24.4940  -29.2160 C   0  0  0  0  0  0  0  0  0  0  0  0
   -3.5030   24.9320  -30.2850 N   0  0  0  0  0  0  0  0  0  0  0  0
   -4.5240   24.2170  -30.8360 C   0  0  0  0  0  0  0  0  0  0  0  0
   -7.3080   22.5860  -30.8410 N   0  0  0  0  0  0  0  0  0  0  0  0
   -8.3120   21.8580  -31.3840 C   0  0  0  0  0  0  0  0  0  0  0  0
   -9.5400   22.2540  -31.2640 N   0  0  0  0  0  0  0  0  0  0  0  0
   -5.8274   19.9962  -34.7368 H   0  0  0  0  0  0  0  0  0  0  0  0
   -5.2033   17.9011  -35.8905 H   0  0  0  0  0  0  0  0  0  0  0  0
   -5.2970   15.7451  -34.6378 H   0  0  0  0  0  0  0  0  0  0  0  0
   -6.0129   15.7714  -32.2836 H   0  0  0  0  0  0  0  0  0  0  0  0
   -6.6444   17.8416  -31.1139 H   0  0  0  0  0  0  0  0  0  0  0  0
   -4.5066   21.5612  -28.7852 H   0  0  0  0  0  0  0  0  0  0  0  0
   -2.6756   22.8721  -27.8133 H   0  0  0  0  0  0  0  0  0  0  0  0
   -2.0006   25.0772  -28.7761 H   0  0  0  0  0  0  0  0  0  0  0  0
   -5.0449   24.6314  -31.7117 H   0  0  0  0  0  0  0  0  0  0  0  0
   -7.5750   23.4440  -30.3450 H   0  0  0  0  0  0  0  0  0  0  0  0
  -10.2770   21.6580  -31.7000 H   0  0  0  0  0  0  0  0  0  0  0  0
  1  2  3  0
  2  3  1  0
  3  4  2  0
  4  5  1  0
  5  6  2  0
  6  7  1  0
  7  8  2  0
  8  9  1  0
  9 10  2  0
  4 11  1  0
 11 12  2  0
 12 13  1  0
 13 14  2  0
 14 15  1  0
 15 16  2  0
 16 17  1  0
 17 18  2  0
 12 19  1  0
 19 20  1  0
 20 21  2  3
 20  3  1  0
 10  5  1  0
 18 13  1  0
  6 22  1  0
  7 23  1  0
  8 24  1  0
  9 25  1  0
 10 26  1  0
 14 27  1  0
 15 28  1  0
 16 29  1  0
 18 30  1  0
 19 31  1  0
 21 32  1  0
M  END
>  <smiles>  (34) 
N#Cc1c(-c2ccccc2)nc(-c2cccnc2)[nH]c1=N

>  <score_type>  (34) 
oracle

>  <origin>  (34) 
adgpu

>  <m_score__min__energy>  (34) 
-7.6500000000000004

>  <m_primary>  (34) 
energy

$$$$
34:0
     RDKit          3D

 39 40  0  0  0  0  0  0  0  0999 V2000
   -3.0890   25.6740  -30.3000 H   0  0  0  0  0  0  0  0  0  0  0  0
   -3.9400   25.6670  -30.8530 O   0  0  0  0  0  0  0  0  0  0  0  0
   -4.6960   24.5230  -30.9990 N   0  0  0  0  0  0  0  0  0  0  0  0
   -5.9750   24.5710  -31.2070 C   0  0  0  0  0  0  0  0  0  0  0  0
   -6.4766   25.5480  -31.2697 H   0  0  0  0  0  0  0  0  0  0  0  0
   -6.7690   23.3360  -31.3610 C   0  0  0  0  0  0  0  0  0  0  0  0
   -8.1450   23.3730  -31.6320 C   0  0  0  0  0  0  0  0  0  0  0  0
   -8.6620   24.3388  -31.7315 H   0  0  0  0  0  0  0  0  0  0  0  0
   -8.8560   22.1800  -31.7750 C   0  0  0  0  0  0  0  0  0  0  0  0
   -9.9337   22.2106  -31.9934 H   0  0  0  0  0  0  0  0  0  0  0  0
   -8.2250   20.9740  -31.6460 N   0  0  0  0  0  0  0  0  0  0  0  0
   -8.9740   19.7270  -31.8430 C   0  0  0  0  0  0  0  0  0  0  0  0
   -9.5185   19.7771  -32.7975 H   0  0  0  0  0  0  0  0  0  0  0  0
   -9.6835   19.5994  -31.0121 H   0  0  0  0  0  0  0  0  0  0  0  0
   -8.0340   18.5560  -31.8690 C   0  0  0  0  0  0  0  0  0  0  0  0
   -7.7451   18.0759  -30.9224 H   0  0  0  0  0  0  0  0  0  0  0  0
   -7.5400   18.0840  -33.0220 C   0  0  0  0  0  0  0  0  0  0  0  0
   -7.8839   18.5174  -33.9728 H   0  0  0  0  0  0  0  0  0  0  0  0
   -6.5260   16.9750  -33.0430 C   0  0  0  0  0  0  0  0  0  0  0  0
   -6.7848   16.2606  -33.8384 H   0  0  0  0  0  0  0  0  0  0  0  0
   -6.5286   16.4667  -32.0675 H   0  0  0  0  0  0  0  0  0  0  0  0
   -5.1860   17.5200  -33.2970 N   0  0  0  0  0  0  0  0  0  0  0  0
   -4.2010   16.6940  -33.7610 C   0  0  0  0  0  0  0  0  0  0  0  0
   -4.4115   15.6243  -33.9076 H   0  0  0  0  0  0  0  0  0  0  0  0
   -2.9290   17.1950  -34.0510 C   0  0  0  0  0  0  0  0  0  0  0  0
   -2.1375   16.5214  -34.4113 H   0  0  0  0  0  0  0  0  0  0  0  0
   -2.6690   18.5590  -33.8800 C   0  0  0  0  0  0  0  0  0  0  0  0
   -1.3010   19.1100  -34.1500 C   0  0  0  0  0  0  0  0  0  0  0  0
   -0.7932   19.3145  -33.1959 H   0  0  0  0  0  0  0  0  0  0  0  0
   -0.7175   18.3768  -34.7261 H   0  0  0  0  0  0  0  0  0  0  0  0
   -1.3886   20.0430  -34.7261 H   0  0  0  0  0  0  0  0  0  0  0  0
   -3.6840   19.3900  -33.3930 C   0  0  0  0  0  0  0  0  0  0  0  0
   -3.4910   20.4606  -33.2299 H   0  0  0  0  0  0  0  0  0  0  0  0
   -4.9430   18.8540  -33.1150 C   0  0  0  0  0  0  0  0  0  0  0  0
   -5.7459   19.5096  -32.7467 H   0  0  0  0  0  0  0  0  0  0  0  0
   -6.8830   20.9190  -31.3890 C   0  0  0  0  0  0  0  0  0  0  0  0
   -6.3854   19.9422  -31.2987 H   0  0  0  0  0  0  0  0  0  0  0  0
   -6.1380   22.0910  -31.2400 C   0  0  0  0  0  0  0  0  0  0  0  0
   -5.0599   22.0367  -31.0284 H   0  0  0  0  0  0  0  0  0  0  0  0
  1  2  1  0
  2  3  1  0
  3  4  2  0
  4  5  1  0
  4  6  1  0
  6  7  2  0
  7  8  1  0
  7  9  1  0
  9 10  1  0
  9 11  2  0
 11 12  1  0
 12 13  1  0
 12 14  1  0
 12 15  1  0
 15 16  1  0
 15 17  2  0
 17 18  1  0
 17 19  1  0
 19 20  1  0
 19 21  1  0
 19 22  1  0
 22 23  2  0
 23 24  1  0
 23 25  1  0
 25 26  1  0
 25 27  2  0
 27 28  1  0
 28 29  1  0
 28 30  1  0
 28 31  1  0
 27 32  1  0
 32 33  1  0
 32 34  2  0
 34 35  1  0
 11 36  1  0
 36 37  1  0
 36 38  2  0
 38 39  1  0
 38  6  1  0
 34 22  1  0
M  CHG  2  11   1  22   1
M  END
>  <UniqueID>  (35) 
34

>  <SMILES>  (35) 
Cc1cc[n+](C/C=C/C[n+]2ccc(/C=N/O)cc2)cc1

>  <Energy>  (35) 
33.68037554028311

>  <Genealogy>  (35) 
Cc1cc[n+](C/C=C/C[n+]2ccc(/C=N/O)cc2)cc1 (cis-trans isomerization)
Cc1cc[n+](C/C=C/C[n+]2ccc(/C=N/O)cc2)cc1 (3D coordinates assigned)
Cc1cc[n+](C/C=C/C[n+]2ccc(/C=N/O)cc2)cc1 (optimized conformer: 33.68037554028311 kcal/mol)

>  <smiles>  (35) 
Cc1cc[n+](CC=CC[n+]2ccc(C=NO)cc2)cc1

>  <score_type>  (35) 
oracle

>  <origin>  (35) 
adgpu

>  <m_score__min__energy>  (35) 
-7.6100000000000003

>  <m_primary>  (35) 
energy

$$$$
35:0
     RDKit          3D

 38 39  0  0  0  0  0  0  0  0999 V2000
   -7.9760   23.0150  -31.5920 C   0  0  0  0  0  0  0  0  0  0  0  0
   -6.6230   23.3530  -31.1490 N   0  0  0  0  0  0  0  0  0  0  0  0
   -5.5940   22.4870  -31.3890 C   0  0  0  0  0  0  0  0  0  0  0  0
   -4.3030   22.7750  -30.9410 C   0  0  0  0  0  0  0  0  0  0  0  0
   -4.0640   23.9460  -30.2150 C   0  0  0  0  0  0  0  0  0  0  0  0
   -2.7280   24.2530  -29.7800 N   0  0  0  0  0  0  0  0  0  0  0  0
   -2.3950   24.7650  -28.4790 C   0  0  0  0  0  0  0  0  0  0  0  0
   -3.2580   24.5260  -27.4010 C   0  0  0  0  0  0  0  0  0  0  0  0
   -2.9660   25.0360  -26.1330 C   0  0  0  0  0  0  0  0  0  0  0  0
   -1.8120   25.8050  -25.9190 C   0  0  0  0  0  0  0  0  0  0  0  0
   -1.5450   26.3170  -24.5980 N   0  0  0  0  0  0  0  0  0  0  0  0
   -0.2560   26.2250  -23.9120 C   0  0  0  0  0  0  0  0  0  0  0  0
    0.3120   27.6240  -23.6400 C   0  0  0  0  0  0  0  0  0  0  0  0
    0.7810   27.7380  -22.2600 N   0  0  0  0  0  0  0  0  0  0  0  0
   -0.9620   26.0720  -27.0100 C   0  0  0  0  0  0  0  0  0  0  0  0
   -1.2540   25.5610  -28.2780 C   0  0  0  0  0  0  0  0  0  0  0  0
   -5.1310   24.8260  -29.9790 C   0  0  0  0  0  0  0  0  0  0  0  0
   -6.4090   24.5050  -30.4440 C   0  0  0  0  0  0  0  0  0  0  0  0
   -8.6197   22.8542  -30.7146 H   0  0  0  0  0  0  0  0  0  0  0  0
   -8.3804   23.8397  -32.1972 H   0  0  0  0  0  0  0  0  0  0  0  0
   -7.9451   22.0970  -32.1972 H   0  0  0  0  0  0  0  0  0  0  0  0
   -5.7841   21.5542  -31.9402 H   0  0  0  0  0  0  0  0  0  0  0  0
   -3.4764   22.0826  -31.1586 H   0  0  0  0  0  0  0  0  0  0  0  0
   -1.9470   24.0940  -30.4560 H   0  0  0  0  0  0  0  0  0  0  0  0
   -4.1716   23.9328  -27.5540 H   0  0  0  0  0  0  0  0  0  0  0  0
   -3.6478   24.8325  -25.2941 H   0  0  0  0  0  0  0  0  0  0  0  0
   -2.3200   26.8000  -24.0870 H   0  0  0  0  0  0  0  0  0  0  0  0
   -0.3920   25.6979  -22.9561 H   0  0  0  0  0  0  0  0  0  0  0  0
    0.4484   25.6747  -24.5531 H   0  0  0  0  0  0  0  0  0  0  0  0
    1.1541   27.8097  -24.3229 H   0  0  0  0  0  0  0  0  0  0  0  0
   -0.4852   28.3644  -23.8023 H   0  0  0  0  0  0  0  0  0  0  0  0
    0.2400   27.0890  -21.6420 H   0  0  0  0  0  0  0  0  0  0  0  0
    0.6350   28.7190  -21.9290 H   0  0  0  0  0  0  0  0  0  0  0  0
    1.8000   27.5100  -22.2050 H   0  0  0  0  0  0  0  0  0  0  0  0
   -0.0619   26.6871  -26.8632 H   0  0  0  0  0  0  0  0  0  0  0  0
   -0.5867   25.7832  -29.1238 H   0  0  0  0  0  0  0  0  0  0  0  0
   -4.9622   25.7644  -29.4304 H   0  0  0  0  0  0  0  0  0  0  0  0
   -7.2499   25.1846  -30.2413 H   0  0  0  0  0  0  0  0  0  0  0  0
  1  2  1  0
  2  3  2  0
  3  4  1  0
  4  5  2  0
  5  6  1  0
  6  7  1  0
  7  8  2  0
  8  9  1  0
  9 10  2  0
 10 11  1  0
 11 12  1  0
 12 13  1  0
 13 14  1  0
 10 15  1  0
 15 16  2  0
  5 17  1  0
 17 18  2  0
 18  2  1  0
 16  7  1  0
  1 19  1  0
  1 20  1  0
  1 21  1  0
  3 22  1  0
  4 23  1  0
  6 24  1  0
  8 25  1  0
  9 26  1  0
 11 27  1  0
 12 28  1  0
 12 29  1  0
 13 30  1  0
 13 31  1  0
 14 32  1  0
 14 33  1  0
 14 34  1  0
 15 35  1  0
 16 36  1  0
 17 37  1  0
 18 38  1  0
M  CHG  2   2   1  14   1
M  END
>  <UniqueID>  (36) 
35

>  <SMILES>  (36) 
C[n+]1ccc(Nc2ccc(NCC[NH3+])cc2)cc1

>  <Energy>  (36) 
39.97649355419523

>  <Genealogy>  (36) 
C[n+]1ccc(Nc2ccc(NCC[NH3+])cc2)cc1 (protonated)
C[n+]1ccc(Nc2ccc(NCC[NH3+])cc2)cc1 (3D coordinates assigned)
C[n+]1ccc(Nc2ccc(NCC[NH3+])cc2)cc1 (optimized conformer: 39.97649355419523 kcal/mol)

>  <smiles>  (36) 
C[n+]1ccc(Nc2ccc(NCCN)cc2)cc1

>  <score_type>  (36) 
oracle

>  <origin>  (36) 
adgpu

>  <m_score__min__energy>  (36) 
-6.6100000000000003

>  <m_primary>  (36) 
energy

$$$$
36:0
     RDKit          3D

 32 33  0  0  0  0  0  0  0  0999 V2000
   -2.1000   24.7820  -28.2210 C   0  0  0  0  0  0  0  0  0  0  0  0
   -2.7340   25.2870  -29.3460 O   0  0  0  0  0  0  0  0  0  0  0  0
   -3.7430   24.7150  -30.0900 C   0  0  0  0  0  0  0  0  0  0  0  0
   -4.8980   25.3480  -30.4720 C   0  0  0  0  0  0  0  0  0  0  0  0
   -5.8470   24.6860  -31.2190 C   0  0  0  0  0  0  0  0  0  0  0  0
   -5.6960   23.3640  -31.6240 C   0  0  0  0  0  0  0  0  0  0  0  0
   -6.7330   22.7690  -32.3650 N   0  0  0  0  0  0  0  0  0  0  0  0
   -6.8530   21.4130  -32.7190 C   0  0  0  0  0  0  0  0  0  0  0  0
   -5.9600   20.7150  -33.4320 N   0  0  0  0  0  0  0  0  0  0  0  0
   -6.1210   19.3980  -33.7300 C   0  0  0  0  0  0  0  0  0  0  0  0
   -5.2420   18.7760  -34.4090 N   0  0  0  0  0  0  0  0  0  0  0  0
   -7.2040   18.7290  -33.3160 N   0  0  0  0  0  0  0  0  0  0  0  0
   -8.1470   19.3630  -32.5960 C   0  0  0  0  0  0  0  0  0  0  0  0
   -9.1810   18.6950  -32.2110 N   0  0  0  0  0  0  0  0  0  0  0  0
   -7.9790   20.6890  -32.2990 C   0  0  0  0  0  0  0  0  0  0  0  0
   -9.0060   21.3220  -31.5330 N   0  0  0  0  0  0  0  0  0  0  0  0
   -9.4790   20.8140  -30.4970 O   0  0  0  0  0  0  0  0  0  0  0  0
   -9.4430   22.5450  -32.0210 O   0  0  0  0  0  0  0  0  0  0  0  0
   -4.5350   22.7360  -31.2370 C   0  0  0  0  0  0  0  0  0  0  0  0
   -3.5730   23.4040  -30.4820 C   0  0  0  0  0  0  0  0  0  0  0  0
   -2.5905   25.1727  -27.3173 H   0  0  0  0  0  0  0  0  0  0  0  0
   -2.1628   23.6838  -28.2266 H   0  0  0  0  0  0  0  0  0  0  0  0
   -1.0437   25.0889  -28.2266 H   0  0  0  0  0  0  0  0  0  0  0  0
   -5.0681   26.3945  -30.1790 H   0  0  0  0  0  0  0  0  0  0  0  0
   -6.7617   25.2248  -31.5071 H   0  0  0  0  0  0  0  0  0  0  0  0
   -7.5070   23.4270  -32.6870 H   0  0  0  0  0  0  0  0  0  0  0  0
   -5.1020   21.1690  -33.7980 H   0  0  0  0  0  0  0  0  0  0  0  0
   -4.3620   19.1470  -34.7940 H   0  0  0  0  0  0  0  0  0  0  0  0
   -7.3230   17.7150  -33.5480 H   0  0  0  0  0  0  0  0  0  0  0  0
   -9.9550   19.1150  -31.6500 H   0  0  0  0  0  0  0  0  0  0  0  0
   -4.3631   21.6893  -31.5283 H   0  0  0  0  0  0  0  0  0  0  0  0
   -2.6550   22.8722  -30.1914 H   0  0  0  0  0  0  0  0  0  0  0  0
  1  2  1  0
  2  3  1  0
  3  4  2  0
  4  5  1  0
  5  6  2  0
  6  7  1  0
  7  8  1  0
  8  9  1  0
  9 10  1  0
 10 11  2  3
 10 12  1  0
 12 13  1  0
 13 14  2  3
 13 15  1  0
 15 16  1  0
 16 17  2  0
 16 18  1  0
  6 19  1  0
 19 20  2  0
 20  3  1  0
 15  8  2  0
  1 21  1  0
  1 22  1  0
  1 23  1  0
  4 24  1  0
  5 25  1  0
  7 26  1  0
  9 27  1  0
 11 28  1  0
 12 29  1  0
 14 30  1  0
 19 31  1  0
 20 32  1  0
M  CHG  2  16   1  18  -1
M  END
>  <smiles>  (37) 
COc1ccc(Nc2[nH]c(=N)[nH]c(=N)c2[N+](=O)[O-])cc1

>  <score_type>  (37) 
oracle

>  <origin>  (37) 
adgpu

>  <m_score__min__energy>  (37) 
-6.5

>  <m_primary>  (37) 
energy

$$$$
37:0
     RDKit          3D

 42 44  0  0  0  0  0  0  0  0999 V2000
   -6.0480   17.6990  -33.7570 C   0  0  0  0  0  0  0  0  0  0  0  0
   -6.8530   18.7950  -33.1240 C   0  0  0  0  0  0  0  0  0  0  0  0
   -7.9880   18.4890  -32.3620 C   0  0  0  0  0  0  0  0  0  0  0  0
   -8.7210   19.5070  -31.7500 C   0  0  0  0  0  0  0  0  0  0  0  0
   -8.3270   20.8480  -31.8820 C   0  0  0  0  0  0  0  0  0  0  0  0
   -9.1550   21.9250  -31.2360 C   0  0  0  0  0  0  0  0  0  0  0  0
   -7.1490   21.1530  -32.5990 C   0  0  0  0  0  0  0  0  0  0  0  0
   -6.6810   22.4680  -32.7210 O   0  0  0  0  0  0  0  0  0  0  0  0
   -5.7230   23.0490  -31.8780 C   0  0  0  0  0  0  0  0  0  0  0  0
   -4.5040   22.4120  -31.5850 C   0  0  0  0  0  0  0  0  0  0  0  0
   -3.5860   23.0430  -30.7450 C   0  0  0  0  0  0  0  0  0  0  0  0
   -3.8630   24.3120  -30.2220 C   0  0  0  0  0  0  0  0  0  0  0  0
   -2.9170   24.9370  -29.3390 N   0  0  0  0  0  0  0  0  0  0  0  0
   -2.8200   24.6580  -27.9310 C   0  0  0  0  0  0  0  0  0  0  0  0
   -3.6120   23.8390  -27.3900 O   0  0  0  0  0  0  0  0  0  0  0  0
   -1.7930   25.3180  -27.0940 C   0  0  0  0  0  0  0  0  0  0  0  0
   -1.6570   24.9430  -25.7470 C   0  0  0  0  0  0  0  0  0  0  0  0
   -0.6920   25.5500  -24.9360 C   0  0  0  0  0  0  0  0  0  0  0  0
    0.1360   26.5440  -25.4600 C   0  0  0  0  0  0  0  0  0  0  0  0
   -0.0030   26.9390  -26.7930 C   0  0  0  0  0  0  0  0  0  0  0  0
   -0.9660   26.3350  -27.6100 C   0  0  0  0  0  0  0  0  0  0  0  0
   -1.1190   26.7860  -28.8810 F   0  0  0  0  0  0  0  0  0  0  0  0
   -5.0960   24.9090  -30.5300 C   0  0  0  0  0  0  0  0  0  0  0  0
   -5.9790   24.2730  -31.3450 N   0  0  0  0  0  0  0  0  0  0  0  0
   -6.4330   20.1280  -33.2290 C   0  0  0  0  0  0  0  0  0  0  0  0
   -5.5921   17.0784  -32.9715 H   0  0  0  0  0  0  0  0  0  0  0  0
   -6.7046   17.0758  -34.3818 H   0  0  0  0  0  0  0  0  0  0  0  0
   -5.2569   18.1391  -34.3818 H   0  0  0  0  0  0  0  0  0  0  0  0
   -8.3030   17.4415  -32.2454 H   0  0  0  0  0  0  0  0  0  0  0  0
   -9.6146   19.2565  -31.1595 H   0  0  0  0  0  0  0  0  0  0  0  0
   -9.0854   21.8344  -30.1419 H   0  0  0  0  0  0  0  0  0  0  0  0
   -8.7805   22.9115  -31.5468 H   0  0  0  0  0  0  0  0  0  0  0  0
  -10.2046   21.8166  -31.5468 H   0  0  0  0  0  0  0  0  0  0  0  0
   -4.2763   21.4251  -32.0142 H   0  0  0  0  0  0  0  0  0  0  0  0
   -2.6402   22.5413  -30.4924 H   0  0  0  0  0  0  0  0  0  0  0  0
   -2.2980   25.6730  -29.7480 H   0  0  0  0  0  0  0  0  0  0  0  0
   -2.3137   24.1669  -25.3271 H   0  0  0  0  0  0  0  0  0  0  0  0
   -0.5858   25.2437  -23.8849 H   0  0  0  0  0  0  0  0  0  0  0  0
    0.8983   27.0166  -24.8232 H   0  0  0  0  0  0  0  0  0  0  0  0
    0.6464   27.7272  -27.2018 H   0  0  0  0  0  0  0  0  0  0  0  0
   -5.3483   25.8942  -30.1107 H   0  0  0  0  0  0  0  0  0  0  0  0
   -5.5324   20.3712  -33.8119 H   0  0  0  0  0  0  0  0  0  0  0  0
  1  2  1  0
  2  3  2  0
  3  4  1  0
  4  5  2  0
  5  6  1  0
  5  7  1  0
  7  8  1  0
  8  9  1  0
  9 10  2  0
 10 11  1  0
 11 12  2  0
 12 13  1  0
 13 14  1  0
 14 15  2  0
 14 16  1  0
 16 17  2  0
 17 18  1  0
 18 19  2  0
 19 20  1  0
 20 21  2  0
 21 22  1  0
 12 23  1  0
 23 24  2  0
  7 25  2  0
 25  2  1  0
 24  9  1  0
 21 16  1  0
  1 26  1  0
  1 27  1  0
  1 28  1  0
  3 29  1  0
  4 30  1  0
  6 31  1  0
  6 32  1  0
  6 33  1  0
 10 34  1  0
 11 35  1  0
 13 36  1  0
 17 37  1  0
 18 38  1  0
 19 39  1  0
 20 40  1  0
 23 41  1  0
 25 42  1  0
M  END
>  <UniqueID>  (38) 
36

>  <SMILES>  (38) 
Cc1ccc(C)c(Oc2ccc(NC(=O)c3ccccc3F)cn2)c1

>  <Energy>  (38) 
61.185979801823535

>  <Genealogy>  (38) 
Cc1ccc(C)c(Oc2ccc(NC(=O)c3ccccc3F)cn2)c1 (3D coordinates assigned)
Cc1ccc(C)c(Oc2ccc(NC(=O)c3ccccc3F)cn2)c1 (optimized conformer: 61.185979801823535 kcal/mol)

>  <smiles>  (38) 
Cc1ccc(C)c(Oc2ccc(NC(=O)c3ccccc3F)cn2)c1

>  <score_type>  (38) 
oracle

>  <origin>  (38) 
adgpu

>  <m_score__min__energy>  (38) 
-9.4000000000000004

>  <m_primary>  (38) 
energy

$$$$
38:0
     RDKit          3D

 35 37  0  0  0  0  0  0  0  0999 V2000
   -0.8680   25.4580  -27.9170 C   0  0  0  0  0  0  0  0  0  0  0  0
   -2.0050   25.5010  -28.8320 N   0  0  0  0  0  0  0  0  0  0  0  0
   -2.5070   24.3450  -29.5360 C   0  0  0  0  0  0  0  0  0  0  0  0
   -1.8800   23.0910  -29.4110 C   0  0  0  0  0  0  0  0  0  0  0  0
   -2.3700   21.9780  -30.0920 C   0  0  0  0  0  0  0  0  0  0  0  0
   -3.5050   22.0820  -30.9110 C   0  0  0  0  0  0  0  0  0  0  0  0
   -4.0070   20.8840  -31.6310 C   0  0  0  0  0  0  0  0  0  0  0  0
   -3.1850   20.1350  -32.4960 C   0  0  0  0  0  0  0  0  0  0  0  0
   -3.6910   19.0500  -33.1380 N   0  0  0  0  0  0  0  0  0  0  0  0
   -4.9830   18.6680  -32.9650 C   0  0  0  0  0  0  0  0  0  0  0  0
   -5.4910   17.5470  -33.6320 C   0  0  0  0  0  0  0  0  0  0  0  0
   -6.8270   17.1740  -33.4440 C   0  0  0  0  0  0  0  0  0  0  0  0
   -7.6540   17.9190  -32.5940 C   0  0  0  0  0  0  0  0  0  0  0  0
   -7.1500   19.0410  -31.9270 C   0  0  0  0  0  0  0  0  0  0  0  0
   -5.8150   19.4170  -32.1110 C   0  0  0  0  0  0  0  0  0  0  0  0
   -5.3060   20.5020  -31.4720 N   0  0  0  0  0  0  0  0  0  0  0  0
   -4.1270   23.3350  -31.0520 C   0  0  0  0  0  0  0  0  0  0  0  0
   -3.6380   24.4680  -30.3680 C   0  0  0  0  0  0  0  0  0  0  0  0
   -4.2530   25.7250  -30.4950 O   0  0  0  0  0  0  0  0  0  0  0  0
   -5.6560   25.9570  -30.4130 C   0  0  0  0  0  0  0  0  0  0  0  0
   -1.2319   25.4718  -26.8790 H   0  0  0  0  0  0  0  0  0  0  0  0
   -0.2917   24.5374  -28.0913 H   0  0  0  0  0  0  0  0  0  0  0  0
   -0.2238   26.3324  -28.0913 H   0  0  0  0  0  0  0  0  0  0  0  0
   -2.4660   26.4280  -28.9680 H   0  0  0  0  0  0  0  0  0  0  0  0
   -0.9931   22.9882  -28.7685 H   0  0  0  0  0  0  0  0  0  0  0  0
   -1.8619   21.0081  -29.9865 H   0  0  0  0  0  0  0  0  0  0  0  0
   -2.1362   20.4280  -32.6511 H   0  0  0  0  0  0  0  0  0  0  0  0
   -4.8430   16.9617  -34.3010 H   0  0  0  0  0  0  0  0  0  0  0  0
   -7.2287   16.2928  -33.9656 H   0  0  0  0  0  0  0  0  0  0  0  0
   -8.7031   17.6211  -32.4503 H   0  0  0  0  0  0  0  0  0  0  0  0
   -7.8011   19.6254  -31.2603 H   0  0  0  0  0  0  0  0  0  0  0  0
   -5.0070   23.4333  -31.7046 H   0  0  0  0  0  0  0  0  0  0  0  0
   -5.9582   26.0070  -29.3565 H   0  0  0  0  0  0  0  0  0  0  0  0
   -5.9001   26.9077  -30.9096 H   0  0  0  0  0  0  0  0  0  0  0  0
   -6.1931   25.1355  -30.9096 H   0  0  0  0  0  0  0  0  0  0  0  0
  1  2  1  0
  2  3  1  0
  3  4  2  0
  4  5  1  0
  5  6  2  0
  6  7  1  0
  7  8  2  0
  8  9  1  0
  9 10  2  0
 10 11  1  0
 11 12  2  0
 12 13  1  0
 13 14  2  0
 14 15  1  0
 15 16  2  0
  6 17  1  0
 17 18  2  0
 18 19  1  0
 19 20  1  0
 18  3  1  0
 16  7  1  0
 15 10  1  0
  1 21  1  0
  1 22  1  0
  1 23  1  0
  2 24  1  0
  4 25  1  0
  5 26  1  0
  8 27  1  0
 11 28  1  0
 12 29  1  0
 13 30  1  0
 14 31  1  0
 17 32  1  0
 20 33  1  0
 20 34  1  0
 20 35  1  0
M  END
>  <UniqueID>  (39) 
37

>  <SMILES>  (39) 
CNc1ccc(-c2cnc3ccccc3n2)cc1OC

>  <Energy>  (39) 
44.282103247790005

>  <Genealogy>  (39) 
CNc1ccc(-c2cnc3ccccc3n2)cc1OC (3D coordinates assigned)
CNc1ccc(-c2cnc3ccccc3n2)cc1OC (optimized conformer: 44.282103247790005 kcal/mol)

>  <smiles>  (39) 
CNc1ccc(-c2cnc3ccccc3n2)cc1OC

>  <score_type>  (39) 
oracle

>  <origin>  (39) 
adgpu

>  <m_score__min__energy>  (39) 
-7.6299999999999999

>  <m_primary>  (39) 
energy

$$$$
39:0
     RDKit          3D

 47 49  0  0  0  0  0  0  0  0999 V2000
   -1.3040   18.9640  -27.1210 C   0  0  0  0  0  0  0  0  0  0  0  0
   -0.1540   18.3130  -27.8800 C   0  0  0  0  0  0  0  0  0  0  0  0
    0.3510   19.1930  -28.8820 O   0  0  0  0  0  0  0  0  0  0  0  0
    0.0030   19.1040  -30.2370 C   0  0  0  0  0  0  0  0  0  0  0  0
    0.6110   18.2990  -31.0000 O   0  0  0  0  0  0  0  0  0  0  0  0
   -1.0780   19.9140  -30.7450 N   0  0  0  0  0  0  0  0  0  0  0  0
   -0.9850   20.0360  -32.2210 C   0  0  0  0  0  0  0  0  0  0  0  0
   -1.6800   21.3010  -32.7710 C   0  0  0  0  0  0  0  0  0  0  0  0
   -2.7360   21.7620  -31.8570 N   0  0  0  0  0  0  0  0  0  0  0  0
   -4.0810   21.9600  -32.3420 C   0  0  0  0  0  0  0  0  0  0  0  0
   -4.4850   21.2800  -33.3250 O   0  0  0  0  0  0  0  0  0  0  0  0
   -5.0130   22.9220  -31.7030 C   0  0  0  0  0  0  0  0  0  0  0  0
   -4.6760   24.1220  -31.2980 O   0  0  0  0  0  0  0  0  0  0  0  0
   -5.7330   24.6610  -30.7380 C   0  0  0  0  0  0  0  0  0  0  0  0
   -5.7390   26.0180  -30.1230 C   0  0  0  0  0  0  0  0  0  0  0  0
   -6.8060   23.8430  -30.7480 N   0  0  0  0  0  0  0  0  0  0  0  0
   -6.3520   22.7410  -31.3760 C   0  0  0  0  0  0  0  0  0  0  0  0
   -7.2120   21.5780  -31.6650 C   0  0  0  0  0  0  0  0  0  0  0  0
   -8.5710   21.7730  -31.9580 C   0  0  0  0  0  0  0  0  0  0  0  0
   -9.3900   20.6790  -32.2560 C   0  0  0  0  0  0  0  0  0  0  0  0
   -8.8530   19.3890  -32.2880 C   0  0  0  0  0  0  0  0  0  0  0  0
   -7.4940   19.1920  -32.0280 C   0  0  0  0  0  0  0  0  0  0  0  0
   -6.6730   20.2820  -31.7220 C   0  0  0  0  0  0  0  0  0  0  0  0
   -2.3910   21.9770  -30.4440 C   0  0  0  0  0  0  0  0  0  0  0  0
   -1.1020   21.2290  -30.0740 C   0  0  0  0  0  0  0  0  0  0  0  0
   -1.1312   18.8662  -26.0391 H   0  0  0  0  0  0  0  0  0  0  0  0
   -1.3630   20.0295  -27.3880 H   0  0  0  0  0  0  0  0  0  0  0  0
   -2.2479   18.4663  -27.3880 H   0  0  0  0  0  0  0  0  0  0  0  0
    0.6530   18.0695  -27.1733 H   0  0  0  0  0  0  0  0  0  0  0  0
   -0.5242   17.3985  -28.3665 H   0  0  0  0  0  0  0  0  0  0  0  0
   -1.9730   19.4180  -30.5140 H   0  0  0  0  0  0  0  0  0  0  0  0
    0.0777   20.0702  -32.5029 H   0  0  0  0  0  0  0  0  0  0  0  0
   -1.4991   19.1655  -32.6544 H   0  0  0  0  0  0  0  0  0  0  0  0
   -0.9326   22.0995  -32.8890 H   0  0  0  0  0  0  0  0  0  0  0  0
   -2.1382   21.0556  -33.7404 H   0  0  0  0  0  0  0  0  0  0  0  0
   -5.7386   25.9239  -29.0270 H   0  0  0  0  0  0  0  0  0  0  0  0
   -4.8433   26.5700  -30.4439 H   0  0  0  0  0  0  0  0  0  0  0  0
   -6.6396   26.5620  -30.4439 H   0  0  0  0  0  0  0  0  0  0  0  0
   -8.9929   22.7889  -31.9532 H   0  0  0  0  0  0  0  0  0  0  0  0
  -10.4586   20.8342  -32.4656 H   0  0  0  0  0  0  0  0  0  0  0  0
   -9.4996   18.5293  -32.5177 H   0  0  0  0  0  0  0  0  0  0  0  0
   -7.0694   18.1779  -32.0641 H   0  0  0  0  0  0  0  0  0  0  0  0
   -5.6023   20.1241  -31.5254 H   0  0  0  0  0  0  0  0  0  0  0  0
   -2.2457   23.0532  -30.2686 H   0  0  0  0  0  0  0  0  0  0  0  0
   -3.2113   21.5929  -29.8199 H   0  0  0  0  0  0  0  0  0  0  0  0
   -0.2316   21.8195  -30.3961 H   0  0  0  0  0  0  0  0  0  0  0  0
   -1.0668   21.0820  -28.9844 H   0  0  0  0  0  0  0  0  0  0  0  0
  1  2  1  0
  2  3  1  0
  3  4  1  0
  4  5  2  0
  4  6  1  0
  6  7  1  0
  7  8  1  0
  8  9  1  0
  9 10  1  0
 10 11  2  0
 10 12  1  0
 12 13  1  0
 13 14  1  0
 14 15  1  0
 14 16  2  0
 16 17  1  0
 17 18  1  0
 18 19  2  0
 19 20  1  0
 20 21  2  0
 21 22  1  0
 22 23  2  0
  9 24  1  0
 24 25  1  0
 25  6  1  0
 17 12  2  0
 23 18  1  0
  1 26  1  0
  1 27  1  0
  1 28  1  0
  2 29  1  0
  2 30  1  0
  6 31  1  0
  7 32  1  0
  7 33  1  0
  8 34  1  0
  8 35  1  0
 15 36  1  0
 15 37  1  0
 15 38  1  0
 19 39  1  0
 20 40  1  0
 21 41  1  0
 22 42  1  0
 23 43  1  0
 24 44  1  0
 24 45  1  0
 25 46  1  0
 25 47  1  0
M  CHG  1   6   1
M  END
>  <UniqueID>  (40) 
38

>  <SMILES>  (40) 
CCOC(=O)[NH+]1CCN(C(=O)c2oc(C)nc2-c2ccccc2)CC1

>  <Energy>  (40) 
88.16934388723922

>  <Genealogy>  (40) 
CCOC(=O)[NH+]1CCN(C(=O)c2oc(C)nc2-c2ccccc2)CC1 (protonated)
CCOC(=O)[NH+]1CCN(C(=O)c2oc(C)nc2-c2ccccc2)CC1 (3D coordinates assigned)
CCOC(=O)[NH+]1CCN(C(=O)c2oc(C)nc2-c2ccccc2)CC1 (nonaromatic ring conformer: 88.16934388723922 kcal/mol)

>  <smiles>  (40) 
CCOC(=O)N1CCN(C(=O)c2oc(C)nc2-c2ccccc2)CC1

>  <score_type>  (40) 
oracle

>  <origin>  (40) 
adgpu

>  <m_score__min__energy>  (40) 
-7.0899999999999999

>  <m_primary>  (40) 
energy

$$$$
40:0
     RDKit          3D

 26 27  0  0  0  0  0  0  0  0999 V2000
   -3.5490   22.3690  -27.8350 C   0  0  0  0  0  0  0  0  0  0  0  0
   -3.4090   22.0790  -29.2990 C   0  0  0  0  0  0  0  0  0  0  0  0
   -3.4680   20.7940  -29.7390 N   0  0  0  0  0  0  0  0  0  0  0  0
   -3.2720   20.9960  -31.3620 S   0  0  0  0  0  0  0  0  0  0  0  0
   -3.1110   22.6210  -31.5820 N   0  0  0  0  0  0  0  0  0  0  0  0
   -3.2130   23.0830  -30.3070 C   0  0  0  0  0  0  0  0  0  0  0  0
   -3.1210   24.5360  -30.0510 C   0  0  0  0  0  0  0  0  0  0  0  0
   -2.3060   24.9960  -29.2080 O   0  0  0  0  0  0  0  0  0  0  0  0
   -3.9710   25.4290  -30.7800 N   0  0  0  0  0  0  0  0  0  0  0  0
   -5.3950   25.5900  -30.5110 C   0  0  0  0  0  0  0  0  0  0  0  0
   -6.1310   24.3120  -30.8060 C   0  0  0  0  0  0  0  0  0  0  0  0
   -6.8270   23.6500  -29.7810 C   0  0  0  0  0  0  0  0  0  0  0  0
   -7.5310   22.4730  -30.0530 C   0  0  0  0  0  0  0  0  0  0  0  0
   -7.5470   21.9500  -31.3490 C   0  0  0  0  0  0  0  0  0  0  0  0
   -8.2320   20.8090  -31.6120 F   0  0  0  0  0  0  0  0  0  0  0  0
   -6.8620   22.6050  -32.3760 C   0  0  0  0  0  0  0  0  0  0  0  0
   -6.1560   23.7840  -32.1070 C   0  0  0  0  0  0  0  0  0  0  0  0
   -3.1429   21.5278  -27.2541 H   0  0  0  0  0  0  0  0  0  0  0  0
   -2.9946   23.2865  -27.5883 H   0  0  0  0  0  0  0  0  0  0  0  0
   -4.6122   22.5055  -27.5883 H   0  0  0  0  0  0  0  0  0  0  0  0
   -5.5365   25.8540  -29.4526 H   0  0  0  0  0  0  0  0  0  0  0  0
   -5.7923   26.3880  -31.1554 H   0  0  0  0  0  0  0  0  0  0  0  0
   -6.8181   24.0593  -28.7600 H   0  0  0  0  0  0  0  0  0  0  0  0
   -8.0729   21.9580  -29.2461 H   0  0  0  0  0  0  0  0  0  0  0  0
   -6.8774   22.1942  -33.3963 H   0  0  0  0  0  0  0  0  0  0  0  0
   -5.6191   24.2984  -32.9176 H   0  0  0  0  0  0  0  0  0  0  0  0
  1  2  1  0
  2  3  2  0
  3  4  1  0
  4  5  1  0
  5  6  2  0
  6  7  1  0
  7  8  2  0
  7  9  1  0
  9 10  1  0
 10 11  1  0
 11 12  2  0
 12 13  1  0
 13 14  2  0
 14 15  1  0
 14 16  1  0
 16 17  2  0
  6  2  1  0
 17 11  1  0
  1 18  1  0
  1 19  1  0
  1 20  1  0
 10 21  1  0
 10 22  1  0
 12 23  1  0
 13 24  1  0
 16 25  1  0
 17 26  1  0
M  CHG  1   9  -1
M  END
>  <UniqueID>  (41) 
39

>  <SMILES>  (41) 
Cc1nsnc1C(=O)[N-]Cc1ccc(F)cc1

>  <Energy>  (41) 
59.40019990892415

>  <Genealogy>  (41) 
Cc1nsnc1C(=O)[N-]Cc1ccc(F)cc1 (protonated)
Cc1nsnc1C(=O)[N-]Cc1ccc(F)cc1 (3D coordinates assigned)
Cc1nsnc1C(=O)[N-]Cc1ccc(F)cc1 (optimized conformer: 59.40019990892415 kcal/mol)

>  <smiles>  (41) 
Cc1nsnc1C(=O)NCc1ccc(F)cc1

>  <score_type>  (41) 
oracle

>  <origin>  (41) 
adgpu

>  <m_score__min__energy>  (41) 
-7.5700000000000003

>  <m_primary>  (41) 
energy

$$$$
41:0
     RDKit          3D

 49 51  0  0  0  0  0  0  0  0999 V2000
   -7.2854   21.7458  -32.0840 H   0  0  0  0  0  0  0  0  0  0  0  0
   -6.5200   22.4300  -31.6890 C   0  0  0  0  0  0  0  0  0  0  0  0
   -6.8910   23.5080  -30.9490 N   0  0  0  0  0  0  0  0  0  0  0  0
   -5.9840   24.3860  -30.4430 C   0  0  0  0  0  0  0  0  0  0  0  0
   -6.5780   25.6780  -29.4130 Cl  0  0  0  0  0  0  0  0  0  0  0  0
   -4.6080   24.1820  -30.6770 C   0  0  0  0  0  0  0  0  0  0  0  0
   -3.5980   25.0530  -30.1570 N   0  0  0  0  0  0  0  0  0  0  0  0
   -2.1740   24.5020  -29.3360 S   0  0  0  0  0  0  0  0  0  0  0  0
   -1.6150   23.2930  -30.0320 O   0  0  0  0  0  0  0  0  0  0  0  0
   -1.1440   25.5950  -29.3160 O   0  0  0  0  0  0  0  0  0  0  0  0
   -2.6040   24.0540  -27.6710 C   0  0  0  0  0  0  0  0  0  0  0  0
   -2.0198   24.6626  -26.9650 H   0  0  0  0  0  0  0  0  0  0  0  0
   -3.6771   24.2330  -27.5086 H   0  0  0  0  0  0  0  0  0  0  0  0
   -2.3812   22.9891  -27.5086 H   0  0  0  0  0  0  0  0  0  0  0  0
   -4.2110   23.0530  -31.4010 C   0  0  0  0  0  0  0  0  0  0  0  0
   -3.1406   22.8419  -31.5411 H   0  0  0  0  0  0  0  0  0  0  0  0
   -5.1690   22.1890  -31.9490 C   0  0  0  0  0  0  0  0  0  0  0  0
   -4.7880   21.0030  -32.6610 N   0  0  0  0  0  0  0  0  0  0  0  0
   -3.6580   20.3570  -32.5720 C   0  0  0  0  0  0  0  0  0  0  0  0
   -3.5250   19.1880  -33.2530 N   0  0  0  0  0  0  0  0  0  0  0  0
   -2.3770   18.4580  -33.2200 C   0  0  0  0  0  0  0  0  0  0  0  0
   -2.3010   17.2160  -33.9570 N   0  0  0  0  0  0  0  0  0  0  0  0
   -2.9920   16.0540  -33.4650 C   0  0  0  0  0  0  0  0  0  0  0  0
   -2.2650   15.0520  -32.8100 C   0  0  0  0  0  0  0  0  0  0  0  0
   -1.1820   15.1729  -32.6598 H   0  0  0  0  0  0  0  0  0  0  0  0
   -2.9050   13.9000  -32.3460 C   0  0  0  0  0  0  0  0  0  0  0  0
   -2.3225   13.1144  -31.8425 H   0  0  0  0  0  0  0  0  0  0  0  0
   -4.2870   13.7420  -32.5200 C   0  0  0  0  0  0  0  0  0  0  0  0
   -4.9690   12.4850  -32.0660 C   0  0  0  0  0  0  0  0  0  0  0  0
   -4.9860   12.4536  -30.9666 H   0  0  0  0  0  0  0  0  0  0  0  0
   -5.9999   12.4682  -32.4493 H   0  0  0  0  0  0  0  0  0  0  0  0
   -4.4211   11.6116  -32.4493 H   0  0  0  0  0  0  0  0  0  0  0  0
   -5.0180   14.7390  -33.1820 C   0  0  0  0  0  0  0  0  0  0  0  0
   -6.0976   14.6044  -33.3446 H   0  0  0  0  0  0  0  0  0  0  0  0
   -4.3870   15.9080  -33.6400 C   0  0  0  0  0  0  0  0  0  0  0  0
   -5.1960   16.9580  -34.3520 C   0  0  0  0  0  0  0  0  0  0  0  0
   -5.6927   17.6026  -33.6119 H   0  0  0  0  0  0  0  0  0  0  0  0
   -4.5319   17.5677  -34.9823 H   0  0  0  0  0  0  0  0  0  0  0  0
   -5.9548   16.4713  -34.9823 H   0  0  0  0  0  0  0  0  0  0  0  0
   -1.5540   17.1080  -35.2120 C   0  0  0  0  0  0  0  0  0  0  0  0
   -0.4874   16.9538  -34.9917 H   0  0  0  0  0  0  0  0  0  0  0  0
   -1.9353   16.2556  -35.7935 H   0  0  0  0  0  0  0  0  0  0  0  0
   -1.6783   18.0334  -35.7935 H   0  0  0  0  0  0  0  0  0  0  0  0
   -1.2980   18.9340  -32.4620 C   0  0  0  0  0  0  0  0  0  0  0  0
   -0.3588   18.3641  -32.4052 H   0  0  0  0  0  0  0  0  0  0  0  0
   -1.4370   20.1420  -31.7820 C   0  0  0  0  0  0  0  0  0  0  0  0
   -0.5989   20.5347  -31.1876 H   0  0  0  0  0  0  0  0  0  0  0  0
   -2.6010   20.8370  -31.8490 N   0  0  0  0  0  0  0  0  0  0  0  0
   -2.6410   21.7590  -31.3620 H   0  0  0  0  0  0  0  0  0  0  0  0
  1  2  1  0
  2  3  2  0
  3  4  1  0
  4  5  1  0
  4  6  2  0
  6  7  1  0
  7  8  1  0
  8  9  2  0
  8 10  2  0
  8 11  1  0
 11 12  1  0
 11 13  1  0
 11 14  1  0
  6 15  1  0
 15 16  1  0
 15 17  2  0
 17 18  1  0
 18 19  2  0
 19 20  1  0
 20 21  2  0
 21 22  1  0
 22 23  1  0
 23 24  2  0
 24 25  1  0
 24 26  1  0
 26 27  1  0
 26 28  2  0
 28 29  1  0
 29 30  1  0
 29 31  1  0
 29 32  1  0
 28 33  1  0
 33 34  1  0
 33 35  2  0
 35 36  1  0
 36 37  1  0
 36 38  1  0
 36 39  1  0
 22 40  1  0
 40 41  1  0
 40 42  1  0
 40 43  1  0
 21 44  1  0
 44 45  1  0
 44 46  2  0
 46 47  1  0
 46 48  1  0
 48 49  1  0
 17  2  1  0
 48 19  1  0
 35 23  1  0
M  CHG  1   7  -1
M  END
>  <UniqueID>  (42) 
40

>  <SMILES>  (42) 
Cc1ccc(N(C)c2cc[nH]/c(=N\c3cnc(Cl)c([N-]S(C)(=O)=O)c3)n2)c(C)c1

>  <Energy>  (42) 
72.68268631837017

>  <Genealogy>  (42) 
Cc1ccc(N(C)c2cc[nH]c(=Nc3cnc(Cl)c([N-]S(C)(=O)=O)c3)n2)c(C)c1 (protonated)
Cc1ccc(N(C)c2cc[nH]/c(=N\c3cnc(Cl)c([N-]S(C)(=O)=O)c3)n2)c(C)c1 (cis-trans isomerization)
Cc1ccc(N(C)c2cc[nH]/c(=N\c3cnc(Cl)c([N-]S(C)(=O)=O)c3)n2)c(C)c1 (3D coordinates assigned)
Cc1ccc(N(C)c2cc[nH]/c(=N\c3cnc(Cl)c([N-]S(C)(=O)=O)c3)n2)c(C)c1 (optimized conformer: 72.68268631837017 kcal/mol)

>  <smiles>  (42) 
Cc1ccc(N(C)c2cc[nH]c(=Nc3cnc(Cl)c(NS(C)(=O)=O)c3)n2)c(C)c1

>  <score_type>  (42) 
oracle

>  <origin>  (42) 
adgpu

>  <m_score__min__energy>  (42) 
-10.119999999999999

>  <m_primary>  (42) 
energy

$$$$
42:0
     RDKit          3D

 16 16  0  0  0  0  0  0  0  0999 V2000
   -1.9900   27.8140  -38.3690 N   0  0  0  0  0  0  0  0  0  0  0  0
   -1.3940   27.6050  -37.2430 C   0  0  0  0  0  0  0  0  0  0  0  0
   -1.6900   28.3050  -36.0930 C   0  0  0  0  0  0  0  0  0  0  0  0
   -1.0140   28.0230  -34.9380 C   0  0  0  0  0  0  0  0  0  0  0  0
   -1.2350   28.6770  -33.7060 N   0  0  0  0  0  0  0  0  0  0  0  0
   -0.0670   27.0550  -34.9720 N   0  0  0  0  0  0  0  0  0  0  0  0
    0.2050   26.3770  -36.1270 C   0  0  0  0  0  0  0  0  0  0  0  0
    1.1270   25.4480  -36.1180 N   0  0  0  0  0  0  0  0  0  0  0  0
   -0.4390   26.6320  -37.2620 N   0  0  0  0  0  0  0  0  0  0  0  0
   -2.7400   28.5180  -38.5250 H   0  0  0  0  0  0  0  0  0  0  0  0
   -2.4650   29.0855  -36.1042 H   0  0  0  0  0  0  0  0  0  0  0  0
   -1.2380   29.7310  -33.7290 H   0  0  0  0  0  0  0  0  0  0  0  0
   -1.3910   28.1890  -32.7940 H   0  0  0  0  0  0  0  0  0  0  0  0
    0.4930   26.7800  -34.1340 H   0  0  0  0  0  0  0  0  0  0  0  0
    1.6430   25.2390  -35.2180 H   0  0  0  0  0  0  0  0  0  0  0  0
   -0.2260   26.1120  -38.1370 H   0  0  0  0  0  0  0  0  0  0  0  0
  1  2  2  3
  2  3  1  0
  3  4  2  0
  4  5  1  0
  4  6  1  0
  6  7  1  0
  7  8  2  3
  7  9  1  0
  9  2  1  0
  1 10  1  0
  3 11  1  0
  5 12  1  0
  5 13  1  0
  6 14  1  0
  8 15  1  0
  9 16  1  0
M  END
>  <smiles>  (43) 
N=c1cc(N)[nH]c(=N)[nH]1

>  <score_type>  (43) 
oracle

>  <origin>  (43) 
adgpu

>  <m_score__min__energy>  (43) 
-4.2300000000000004

>  <m_primary>  (43) 
energy

$$$$
43:0
     RDKit          3D

 28 29  0  0  0  0  0  0  0  0999 V2000
   -2.0400   25.4300  -25.7020 C   0  0  0  0  0  0  0  0  0  0  0  0
   -2.5150   24.7850  -26.9700 C   0  0  0  0  0  0  0  0  0  0  0  0
   -1.6580   24.6850  -28.0770 C   0  0  0  0  0  0  0  0  0  0  0  0
   -2.0900   24.0520  -29.2460 C   0  0  0  0  0  0  0  0  0  0  0  0
   -3.3690   23.4890  -29.3180 C   0  0  0  0  0  0  0  0  0  0  0  0
   -3.7690   22.8770  -30.5150 O   0  0  0  0  0  0  0  0  0  0  0  0
   -5.0930   22.7600  -30.9680 C   0  0  0  0  0  0  0  0  0  0  0  0
   -5.5730   21.5310  -31.4590 C   0  0  0  0  0  0  0  0  0  0  0  0
   -6.8760   21.4190  -31.9430 C   0  0  0  0  0  0  0  0  0  0  0  0
   -7.7130   22.5320  -31.9560 C   0  0  0  0  0  0  0  0  0  0  0  0
   -7.2480   23.7630  -31.4880 C   0  0  0  0  0  0  0  0  0  0  0  0
   -5.9370   23.8970  -30.9900 C   0  0  0  0  0  0  0  0  0  0  0  0
   -5.4830   25.1790  -30.5080 N   0  0  0  0  0  0  0  0  0  0  0  0
   -6.1980   25.8520  -29.7360 O   0  0  0  0  0  0  0  0  0  0  0  0
   -4.2410   25.6680  -30.8420 O   0  0  0  0  0  0  0  0  0  0  0  0
   -4.2290   23.5920  -28.2090 C   0  0  0  0  0  0  0  0  0  0  0  0
   -3.8000   24.2250  -27.0400 C   0  0  0  0  0  0  0  0  0  0  0  0
   -2.4438   24.8817  -24.8381 H   0  0  0  0  0  0  0  0  0  0  0  0
   -0.9407   25.4081  -25.6690 H   0  0  0  0  0  0  0  0  0  0  0  0
   -2.3871   26.4733  -25.6690 H   0  0  0  0  0  0  0  0  0  0  0  0
   -0.6432   25.1061  -28.0245 H   0  0  0  0  0  0  0  0  0  0  0  0
   -1.4193   23.9960  -30.1161 H   0  0  0  0  0  0  0  0  0  0  0  0
   -4.9138   20.6504  -31.4609 H   0  0  0  0  0  0  0  0  0  0  0  0
   -7.2430   20.4509  -32.3148 H   0  0  0  0  0  0  0  0  0  0  0  0
   -8.7416   22.4415  -32.3353 H   0  0  0  0  0  0  0  0  0  0  0  0
   -7.9135   24.6386  -31.5085 H   0  0  0  0  0  0  0  0  0  0  0  0
   -5.2442   23.1719  -28.2629 H   0  0  0  0  0  0  0  0  0  0  0  0
   -4.4718   24.2848  -26.1711 H   0  0  0  0  0  0  0  0  0  0  0  0
  1  2  1  0
  2  3  2  0
  3  4  1  0
  4  5  2  0
  5  6  1  0
  6  7  1  0
  7  8  2  0
  8  9  1  0
  9 10  2  0
 10 11  1  0
 11 12  2  0
 12 13  1  0
 13 14  2  0
 13 15  1  0
  5 16  1  0
 16 17  2  0
 17  2  1  0
 12  7  1  0
  1 18  1  0
  1 19  1  0
  1 20  1  0
  3 21  1  0
  4 22  1  0
  8 23  1  0
  9 24  1  0
 10 25  1  0
 11 26  1  0
 16 27  1  0
 17 28  1  0
M  CHG  2  13   1  15  -1
M  END
>  <UniqueID>  (44) 
41

>  <SMILES>  (44) 
Cc1ccc(Oc2ccccc2[N+](=O)[O-])cc1

>  <Energy>  (44) 
37.40314492143949

>  <Genealogy>  (44) 
Cc1ccc(Oc2ccccc2[N+](=O)[O-])cc1 (3D coordinates assigned)
Cc1ccc(Oc2ccccc2[N+](=O)[O-])cc1 (optimized conformer: 37.40314492143949 kcal/mol)

>  <smiles>  (44) 
Cc1ccc(Oc2ccccc2[N+](=O)[O-])cc1

>  <score_type>  (44) 
oracle

>  <origin>  (44) 
adgpu

>  <m_score__min__energy>  (44) 
-6.9900000000000002

>  <m_primary>  (44) 
energy

$$$$
44:0
     RDKit          3D

 22 23  0  0  0  0  0  0  0  0999 V2000
   -8.7200   22.6680  -31.5940 C   0  0  0  0  0  0  0  0  0  0  0  0
   -7.3590   22.6520  -31.9050 C   0  0  0  0  0  0  0  0  0  0  0  0
   -6.7670   21.4890  -32.4080 C   0  0  0  0  0  0  0  0  0  0  0  0
   -7.5370   20.3260  -32.6080 C   0  0  0  0  0  0  0  0  0  0  0  0
   -6.9110   19.0900  -33.1430 C   0  0  0  0  0  0  0  0  0  0  0  0
   -7.2190   17.8330  -32.5890 C   0  0  0  0  0  0  0  0  0  0  0  0
   -6.6290   16.6720  -33.0960 C   0  0  0  0  0  0  0  0  0  0  0  0
   -5.7260   16.7500  -34.1580 C   0  0  0  0  0  0  0  0  0  0  0  0
   -5.4100   17.9910  -34.7160 C   0  0  0  0  0  0  0  0  0  0  0  0
   -5.9990   19.1560  -34.2130 C   0  0  0  0  0  0  0  0  0  0  0  0
   -8.9080   20.3560  -32.2910 C   0  0  0  0  0  0  0  0  0  0  0  0
   -9.4940   21.5220  -31.7870 C   0  0  0  0  0  0  0  0  0  0  0  0
   -9.1826   23.5836  -31.1969 H   0  0  0  0  0  0  0  0  0  0  0  0
   -6.7509   23.5562  -31.7541 H   0  0  0  0  0  0  0  0  0  0  0  0
   -5.6937   21.4822  -32.6490 H   0  0  0  0  0  0  0  0  0  0  0  0
   -7.9288   17.7642  -31.7515 H   0  0  0  0  0  0  0  0  0  0  0  0
   -6.8767   15.6942  -32.6572 H   0  0  0  0  0  0  0  0  0  0  0  0
   -5.2635   15.8344  -34.5552 H   0  0  0  0  0  0  0  0  0  0  0  0
   -4.6974   18.0523  -35.5517 H   0  0  0  0  0  0  0  0  0  0  0  0
   -5.7476   20.1305  -34.6569 H   0  0  0  0  0  0  0  0  0  0  0  0
   -9.5230   19.4563  -32.4406 H   0  0  0  0  0  0  0  0  0  0  0  0
  -10.5664   21.5361  -31.5423 H   0  0  0  0  0  0  0  0  0  0  0  0
  1  2  2  0
  2  3  1  0
  3  4  2  0
  4  5  1  0
  5  6  2  0
  6  7  1  0
  7  8  2  0
  8  9  1  0
  9 10  2  0
  4 11  1  0
 11 12  2  0
 12  1  1  0
 10  5  1  0
  1 13  1  0
  2 14  1  0
  3 15  1  0
  6 16  1  0
  7 17  1  0
  8 18  1  0
  9 19  1  0
 10 20  1  0
 11 21  1  0
 12 22  1  0
M  END
>  <UniqueID>  (45) 
42

>  <SMILES>  (45) 
c1ccc(-c2ccccc2)cc1

>  <Energy>  (45) 
28.083991398590513

>  <Genealogy>  (45) 
c1ccc(-c2ccccc2)cc1 (3D coordinates assigned)
c1ccc(-c2ccccc2)cc1 (optimized conformer: 28.083991398590513 kcal/mol)

>  <smiles>  (45) 
c1ccc(-c2ccccc2)cc1

>  <score_type>  (45) 
oracle

>  <origin>  (45) 
adgpu

>  <m_score__min__energy>  (45) 
-5.9800000000000004

>  <m_primary>  (45) 
energy

$$$$
45:0
     RDKit          3D

 50 52  0  0  0  0  0  0  0  0999 V2000
   -3.8480   14.1070  -32.5970 C   0  0  0  0  0  0  0  0  0  0  0  0
   -3.8890   15.5750  -32.6550 N   0  0  0  0  0  0  0  0  0  0  0  0
   -3.3910   16.0890  -33.9410 C   0  0  0  0  0  0  0  0  0  0  0  0
   -4.4840   16.9480  -34.5570 C   0  0  0  0  0  0  0  0  0  0  0  0
   -5.3970   17.3230  -33.3860 C   0  0  2  0  0  0  0  0  0  0  0  0
   -6.8490   17.5480  -33.8710 C   0  0  0  0  0  0  0  0  0  0  0  0
   -7.8210   17.8690  -32.7200 C   0  0  0  0  0  0  0  0  0  0  0  0
   -7.1710   18.6220  -31.5480 C   0  0  0  0  0  0  0  0  0  0  0  0
   -5.9560   19.3320  -31.9700 N   0  0  0  0  0  0  0  0  0  0  0  0
   -5.7750   20.7210  -31.6300 C   0  0  0  0  0  0  0  0  0  0  0  0
   -4.5610   21.3730  -31.9080 C   0  0  0  0  0  0  0  0  0  0  0  0
   -4.3940   22.7230  -31.5890 C   0  0  0  0  0  0  0  0  0  0  0  0
   -5.4350   23.4430  -30.9830 C   0  0  0  0  0  0  0  0  0  0  0  0
   -5.2710   24.9050  -30.6760 C   0  0  0  0  0  0  0  0  0  0  0  0
   -3.8500   25.2580  -30.7120 N   0  0  0  0  0  0  0  0  0  0  0  0
   -3.0210   24.5350  -29.3650 S   0  0  0  0  0  0  0  0  0  0  0  0
   -4.1690   24.1800  -28.0520 C   0  0  0  0  0  0  0  0  0  0  0  0
   -2.3390   23.2670  -29.7940 O   0  0  0  0  0  0  0  0  0  0  0  0
   -1.9880   25.5000  -28.8550 O   0  0  0  0  0  0  0  0  0  0  0  0
   -6.6560   22.8010  -30.7270 C   0  0  0  0  0  0  0  0  0  0  0  0
   -6.8240   21.4500  -31.0440 C   0  0  0  0  0  0  0  0  0  0  0  0
   -4.8810   18.6120  -32.6740 C   0  0  0  0  0  0  0  0  0  0  0  0
   -5.2570   16.0870  -32.4830 C   0  0  0  0  0  0  0  0  0  0  0  0
   -3.8389   13.7817  -31.5462 H   0  0  0  0  0  0  0  0  0  0  0  0
   -4.7350   13.6952  -33.1007 H   0  0  0  0  0  0  0  0  0  0  0  0
   -2.9394   13.7454  -33.1007 H   0  0  0  0  0  0  0  0  0  0  0  0
   -2.4878   16.6950  -33.7766 H   0  0  0  0  0  0  0  0  0  0  0  0
   -3.1345   15.2563  -34.6125 H   0  0  0  0  0  0  0  0  0  0  0  0
   -4.0543   17.8501  -35.0170 H   0  0  0  0  0  0  0  0  0  0  0  0
   -5.0278   16.4184  -35.3531 H   0  0  0  0  0  0  0  0  0  0  0  0
   -6.8559   18.3880  -34.5812 H   0  0  0  0  0  0  0  0  0  0  0  0
   -7.1895   16.6132  -34.3404 H   0  0  0  0  0  0  0  0  0  0  0  0
   -8.6380   18.4881  -33.1190 H   0  0  0  0  0  0  0  0  0  0  0  0
   -8.1758   16.9062  -32.3236 H   0  0  0  0  0  0  0  0  0  0  0  0
   -7.8909   19.3519  -31.1492 H   0  0  0  0  0  0  0  0  0  0  0  0
   -6.8909   17.8869  -30.7791 H   0  0  0  0  0  0  0  0  0  0  0  0
   -3.7374   20.8169  -32.3796 H   0  0  0  0  0  0  0  0  0  0  0  0
   -3.4411   23.2243  -31.8141 H   0  0  0  0  0  0  0  0  0  0  0  0
   -5.8150   25.4996  -31.4247 H   0  0  0  0  0  0  0  0  0  0  0  0
   -5.6746   25.1156  -29.6746 H   0  0  0  0  0  0  0  0  0  0  0  0
   -3.4350   24.8420  -31.5780 H   0  0  0  0  0  0  0  0  0  0  0  0
   -3.6746   24.3329  -27.0813 H   0  0  0  0  0  0  0  0  0  0  0  0
   -5.0363   24.8519  -28.1316 H   0  0  0  0  0  0  0  0  0  0  0  0
   -4.5056   23.1358  -28.1316 H   0  0  0  0  0  0  0  0  0  0  0  0
   -7.4856   23.3639  -30.2744 H   0  0  0  0  0  0  0  0  0  0  0  0
   -7.7832   20.9543  -30.8335 H   0  0  0  0  0  0  0  0  0  0  0  0
   -4.4427   19.2814  -33.4289 H   0  0  0  0  0  0  0  0  0  0  0  0
   -4.1352   18.3065  -31.9254 H   0  0  0  0  0  0  0  0  0  0  0  0
   -5.4253   16.3667  -31.4326 H   0  0  0  0  0  0  0  0  0  0  0  0
   -5.9977   15.3201  -32.7535 H   0  0  0  0  0  0  0  0  0  0  0  0
  1  2  1  0
  2  3  1  0
  3  4  1  0
  5  4  1  6
  5  6  1  0
  6  7  1  0
  7  8  1  0
  8  9  1  0
  9 10  1  0
 10 11  2  0
 11 12  1  0
 12 13  2  0
 13 14  1  0
 14 15  1  0
 15 16  1  0
 16 17  1  0
 16 18  2  0
 16 19  2  0
 13 20  1  0
 20 21  2  0
  9 22  1  0
  5 23  1  0
 23  2  1  0
 22  5  1  0
 21 10  1  0
  1 24  1  0
  1 25  1  0
  1 26  1  0
  3 27  1  0
  3 28  1  0
  4 29  1  0
  4 30  1  0
  6 31  1  0
  6 32  1  0
  7 33  1  0
  7 34  1  0
  8 35  1  0
  8 36  1  0
 11 37  1  0
 12 38  1  0
 14 39  1  0
 14 40  1  0
 15 41  1  0
 17 42  1  0
 17 43  1  0
 17 44  1  0
 20 45  1  0
 21 46  1  0
 22 47  1  0
 22 48  1  0
 23 49  1  0
 23 50  1  0
M  END
>  <UniqueID>  (46) 
43

>  <SMILES>  (46) 
CN1CC[C@@]2(CCCN(c3ccc(CNS(C)(=O)=O)cc3)C2)C1

>  <Energy>  (46) 
55.52905680342475

>  <Genealogy>  (46) 
CN1CC[C@@]2(CCCN(c3ccc(CNS(C)(=O)=O)cc3)C2)C1 (chirality)
CN1CC[C@@]2(CCCN(c3ccc(CNS(C)(=O)=O)cc3)C2)C1 (3D coordinates assigned)
CN1CC[C@@]2(CCCN(c3ccc(CNS(C)(=O)=O)cc3)C2)C1 (nonaromatic ring conformer: 55.52905680342475 kcal/mol)

>  <smiles>  (46) 
CN1CCC2(CCCN(c3ccc(CNS(C)(=O)=O)cc3)C2)C1

>  <score_type>  (46) 
oracle

>  <origin>  (46) 
adgpu

>  <m_score__min__energy>  (46) 
-8.5299999999999994

>  <m_primary>  (46) 
energy

$$$$
46:0
     RDKit          3D

 28 29  0  0  0  0  0  0  0  0999 V2000
   -2.0240   21.5330  -33.2500 S   0  0  0  0  0  0  0  0  0  0  0  0
   -3.5410   21.0500  -32.8770 C   0  0  0  0  0  0  0  0  0  0  0  0
   -3.7450   19.7320  -32.3430 N   0  0  0  0  0  0  0  0  0  0  0  0
   -4.9340   18.9510  -32.5600 C   0  0  0  0  0  0  0  0  0  0  0  0
   -5.2880   18.5840  -33.8670 C   0  0  0  0  0  0  0  0  0  0  0  0
   -6.4320   17.8150  -34.1000 C   0  0  0  0  0  0  0  0  0  0  0  0
   -7.2390   17.4190  -33.0300 C   0  0  0  0  0  0  0  0  0  0  0  0
   -6.9080   17.7990  -31.7270 C   0  0  0  0  0  0  0  0  0  0  0  0
   -5.7650   18.5680  -31.4900 C   0  0  0  0  0  0  0  0  0  0  0  0
   -4.6360   21.9560  -33.0930 N   0  0  0  0  0  0  0  0  0  0  0  0
   -5.8310   21.9750  -32.2930 C   0  0  0  0  0  0  0  0  0  0  0  0
   -5.9200   22.7600  -31.1290 C   0  0  0  0  0  0  0  0  0  0  0  0
   -7.0880   22.7510  -30.3620 C   0  0  0  0  0  0  0  0  0  0  0  0
   -8.1800   21.9730  -30.7550 C   0  0  0  0  0  0  0  0  0  0  0  0
   -8.1080   21.2070  -31.9220 C   0  0  0  0  0  0  0  0  0  0  0  0
   -9.4800   20.2340  -32.4190 Cl  0  0  0  0  0  0  0  0  0  0  0  0
   -6.9400   21.2140  -32.6930 C   0  0  0  0  0  0  0  0  0  0  0  0
   -2.9790   19.3130  -31.7680 H   0  0  0  0  0  0  0  0  0  0  0  0
   -4.6619   18.9031  -34.7132 H   0  0  0  0  0  0  0  0  0  0  0  0
   -6.6972   17.5214  -35.1264 H   0  0  0  0  0  0  0  0  0  0  0  0
   -8.1350   16.8080  -33.2138 H   0  0  0  0  0  0  0  0  0  0  0  0
   -7.5478   17.4926  -30.8863 H   0  0  0  0  0  0  0  0  0  0  0  0
   -5.5140   18.8750  -30.4640 H   0  0  0  0  0  0  0  0  0  0  0  0
   -4.5550   22.6450  -33.8740 H   0  0  0  0  0  0  0  0  0  0  0  0
   -5.0672   23.3831  -30.8216 H   0  0  0  0  0  0  0  0  0  0  0  0
   -7.1479   23.3579  -29.4465 H   0  0  0  0  0  0  0  0  0  0  0  0
   -9.0961   21.9633  -30.1462 H   0  0  0  0  0  0  0  0  0  0  0  0
   -6.8911   20.6198  -33.6174 H   0  0  0  0  0  0  0  0  0  0  0  0
  1  2  2  0
  2  3  1  0
  3  4  1  0
  4  5  2  0
  5  6  1  0
  6  7  2  0
  7  8  1  0
  8  9  2  0
  2 10  1  0
 10 11  1  0
 11 12  2  0
 12 13  1  0
 13 14  2  0
 14 15  1  0
 15 16  1  0
 15 17  2  0
  9  4  1  0
 17 11  1  0
  3 18  1  0
  5 19  1  0
  6 20  1  0
  7 21  1  0
  8 22  1  0
  9 23  1  0
 10 24  1  0
 12 25  1  0
 13 26  1  0
 14 27  1  0
 17 28  1  0
M  END
>  <UniqueID>  (47) 
44

>  <SMILES>  (47) 
S=C(Nc1ccccc1)Nc1cccc(Cl)c1

>  <Energy>  (47) 
34.6676425514056

>  <Genealogy>  (47) 
S=C(Nc1ccccc1)Nc1cccc(Cl)c1 (3D coordinates assigned)
S=C(Nc1ccccc1)Nc1cccc(Cl)c1 (optimized conformer: 34.6676425514056 kcal/mol)

>  <smiles>  (47) 
S=C(Nc1ccccc1)Nc1cccc(Cl)c1

>  <score_type>  (47) 
oracle

>  <origin>  (47) 
adgpu

>  <m_score__min__energy>  (47) 
-6.96

>  <m_primary>  (47) 
energy

$$$$
47:0
     RDKit          3D

 23 23  0  0  0  0  0  0  0  0999 V2000
   -4.9560   17.4210  -35.0580 C   0  0  0  0  0  0  0  0  0  0  0  0
   -6.0440   18.3680  -34.8420 N   0  0  0  0  0  0  0  0  0  0  0  0
   -6.4770   18.8090  -33.5430 C   0  0  0  0  0  0  0  0  0  0  0  0
   -5.9380   18.3350  -32.4570 N   0  0  0  0  0  0  0  0  0  0  0  0
   -7.5790   19.7300  -33.4630 N   0  0  0  0  0  0  0  0  0  0  0  0
   -7.7360   20.7260  -32.4360 C   0  0  0  0  0  0  0  0  0  0  0  0
   -8.7690   20.6400  -31.4850 C   0  0  0  0  0  0  0  0  0  0  0  0
   -8.8840   21.6060  -30.4800 C   0  0  0  0  0  0  0  0  0  0  0  0
   -7.9640   22.6550  -30.4070 C   0  0  0  0  0  0  0  0  0  0  0  0
   -6.9210   22.7360  -31.3350 C   0  0  0  0  0  0  0  0  0  0  0  0
   -5.7580   24.0450  -31.2350 Cl  0  0  0  0  0  0  0  0  0  0  0  0
   -6.8030   21.7700  -32.3410 C   0  0  0  0  0  0  0  0  0  0  0  0
   -4.5666   17.0821  -34.0866 H   0  0  0  0  0  0  0  0  0  0  0  0
   -5.3301   16.5559  -35.6251 H   0  0  0  0  0  0  0  0  0  0  0  0
   -4.1507   17.9108  -35.6251 H   0  0  0  0  0  0  0  0  0  0  0  0
   -6.5250   18.7590  -35.6820 H   0  0  0  0  0  0  0  0  0  0  0  0
   -5.1500   17.6520  -32.4800 H   0  0  0  0  0  0  0  0  0  0  0  0
   -6.3010   18.6000  -31.5130 H   0  0  0  0  0  0  0  0  0  0  0  0
   -8.3000   19.6860  -34.2170 H   0  0  0  0  0  0  0  0  0  0  0  0
   -9.4891   19.8098  -31.5319 H   0  0  0  0  0  0  0  0  0  0  0  0
   -9.7003   21.5397  -29.7457 H   0  0  0  0  0  0  0  0  0  0  0  0
   -8.0601   23.4171  -29.6196 H   0  0  0  0  0  0  0  0  0  0  0  0
   -5.9739   21.8295  -33.0615 H   0  0  0  0  0  0  0  0  0  0  0  0
  1  2  1  0
  2  3  1  0
  3  4  2  0
  3  5  1  0
  5  6  1  0
  6  7  2  0
  7  8  1  0
  8  9  2  0
  9 10  1  0
 10 11  1  0
 10 12  2  0
 12  6  1  0
  1 13  1  0
  1 14  1  0
  1 15  1  0
  2 16  1  0
  4 17  1  0
  4 18  1  0
  5 19  1  0
  7 20  1  0
  8 21  1  0
  9 22  1  0
 12 23  1  0
M  CHG  1   4   1
M  END
>  <UniqueID>  (48) 
45

>  <SMILES>  (48) 
CNC(=[NH2+])Nc1cccc(Cl)c1

>  <Energy>  (48) 
23.226888569617433

>  <Genealogy>  (48) 
CNC(=[NH2+])Nc1cccc(Cl)c1 (protonated)
CNC(=[NH2+])Nc1cccc(Cl)c1 (3D coordinates assigned)
CNC(=[NH2+])Nc1cccc(Cl)c1 (optimized conformer: 23.226888569617433 kcal/mol)

>  <smiles>  (48) 
CNC(=N)Nc1cccc(Cl)c1

>  <score_type>  (48) 
oracle

>  <origin>  (48) 
adgpu

>  <m_score__min__energy>  (48) 
-5.3200000000000003

>  <m_primary>  (48) 
energy

$$$$
48:0
     RDKit          3D

 47 50  0  0  0  0  0  0  0  0999 V2000
   -9.2809   21.3251  -32.5646 H   0  0  0  0  0  0  0  0  0  0  0  0
   -8.5510   20.5130  -32.4310 C   0  0  0  0  0  0  0  0  0  0  0  0
   -8.9400   19.3220  -31.8180 C   0  0  0  0  0  0  0  0  0  0  0  0
   -9.9726   19.2006  -31.4588 H   0  0  0  0  0  0  0  0  0  0  0  0
   -8.0200   18.2840  -31.6600 C   0  0  0  0  0  0  0  0  0  0  0  0
   -8.3322   17.3487  -31.1724 H   0  0  0  0  0  0  0  0  0  0  0  0
   -6.6990   18.4230  -32.1180 C   0  0  0  0  0  0  0  0  0  0  0  0
   -5.7460   17.2690  -31.9480 C   0  0  0  0  0  0  0  0  0  0  0  0
   -5.5885   17.0783  -30.8762 H   0  0  0  0  0  0  0  0  0  0  0  0
   -6.1693   16.3711  -32.4218 H   0  0  0  0  0  0  0  0  0  0  0  0
   -4.7842   17.5149  -32.4218 H   0  0  0  0  0  0  0  0  0  0  0  0
   -6.2960   19.6470  -32.7120 C   0  0  0  0  0  0  0  0  0  0  0  0
   -4.9070   19.8770  -33.1730 C   0  0  0  0  0  0  0  0  0  0  0  0
   -4.2760   21.1080  -32.9460 C   0  0  0  0  0  0  0  0  0  0  0  0
   -4.8119   21.9075  -32.4134 H   0  0  0  0  0  0  0  0  0  0  0  0
   -2.9690   21.3250  -33.3930 C   0  0  0  0  0  0  0  0  0  0  0  0
   -2.4809   22.2923  -33.2031 H   0  0  0  0  0  0  0  0  0  0  0  0
   -2.2740   20.3170  -34.0830 C   0  0  0  0  0  0  0  0  0  0  0  0
   -0.8890   20.5560  -34.5510 C   0  0  0  0  0  0  0  0  0  0  0  0
   -0.2500   21.7410  -34.4130 N   0  0  0  0  0  0  0  0  0  0  0  0
    1.0160   21.7090  -34.9080 C   0  0  0  0  0  0  0  0  0  0  0  0
    1.8400   22.8830  -34.8860 N   0  0  0  0  0  0  0  0  0  0  0  0
    1.7840   23.8440  -35.7570 C   0  0  0  0  0  0  0  0  0  0  0  0
    0.9980   23.8270  -36.8570 N   0  0  0  0  0  0  0  0  0  0  0  0
    1.1440   24.9140  -37.6130 N   0  0  0  0  0  0  0  0  0  0  0  0
    2.0460   25.7890  -37.1140 C   0  0  0  0  0  0  0  0  0  0  0  0
    2.4780   27.3290  -37.9200 S   0  0  0  0  0  0  0  0  0  0  0  0
    0.8780   27.5150  -38.7840 C   0  0  0  0  0  0  0  0  0  0  0  0
    0.3059   26.5805  -38.6872 H   0  0  0  0  0  0  0  0  0  0  0  0
    1.0749   27.7378  -39.8431 H   0  0  0  0  0  0  0  0  0  0  0  0
    0.0670   28.6600  -38.1890 C   0  0  0  0  0  0  0  0  0  0  0  0
    0.1059   28.6051  -37.0911 H   0  0  0  0  0  0  0  0  0  0  0  0
    0.4878   29.6198  -38.5232 H   0  0  0  0  0  0  0  0  0  0  0  0
   -0.9780   28.5815  -38.5232 H   0  0  0  0  0  0  0  0  0  0  0  0
    2.7330   25.2300  -35.6810 S   0  0  0  0  0  0  0  0  0  0  0  0
    1.3870   20.4940  -35.4930 C   0  0  0  0  0  0  0  0  0  0  0  0
    2.6720   20.1640  -36.1840 C   0  0  0  0  0  0  0  0  0  0  0  0
    3.4510   19.9639  -35.4336 H   0  0  0  0  0  0  0  0  0  0  0  0
    2.5316   19.2728  -36.8133 H   0  0  0  0  0  0  0  0  0  0  0  0
    2.9784   21.0126  -36.8133 H   0  0  0  0  0  0  0  0  0  0  0  0
    0.1000   19.4290  -35.3230 S   0  0  0  0  0  0  0  0  0  0  0  0
   -2.9160   19.0880  -34.3200 C   0  0  0  0  0  0  0  0  0  0  0  0
   -2.3859   18.2905  -34.8612 H   0  0  0  0  0  0  0  0  0  0  0  0
   -4.2220   18.8730  -33.8730 C   0  0  0  0  0  0  0  0  0  0  0  0
   -4.7161   17.9104  -34.0712 H   0  0  0  0  0  0  0  0  0  0  0  0
   -7.2390   20.6770  -32.8750 C   0  0  0  0  0  0  0  0  0  0  0  0
   -6.9397   21.6196  -33.3565 H   0  0  0  0  0  0  0  0  0  0  0  0
  1  2  1  0
  2  3  2  0
  3  4  1  0
  3  5  1  0
  5  6  1  0
  5  7  2  0
  7  8  1  0
  8  9  1  0
  8 10  1  0
  8 11  1  0
  7 12  1  0
 12 13  1  0
 13 14  2  0
 14 15  1  0
 14 16  1  0
 16 17  1  0
 16 18  2  0
 18 19  1  0
 19 20  2  0
 20 21  1  0
 21 22  1  0
 22 23  2  0
 23 24  1  0
 24 25  1  0
 25 26  2  0
 26 27  1  0
 27 28  1  0
 28 29  1  0
 28 30  1  0
 28 31  1  0
 31 32  1  0
 31 33  1  0
 31 34  1  0
 26 35  1  0
 21 36  2  0
 36 37  1  0
 37 38  1  0
 37 39  1  0
 37 40  1  0
 36 41  1  0
 18 42  1  0
 42 43  1  0
 42 44  2  0
 44 45  1  0
 12 46  2  0
 46 47  1  0
 46  2  1  0
 44 13  1  0
 41 19  1  0
 35 23  1  0
M  CHG  1  24  -1
M  END
>  <UniqueID>  (49) 
46

>  <SMILES>  (49) 
CCSc1n[n-]/c(=N\c2nc(-c3ccc(-c4ccccc4C)cc3)sc2C)s1

>  <Energy>  (49) 
123.88547944828437

>  <Genealogy>  (49) 
CCSc1n[n-]c(=Nc2nc(-c3ccc(-c4ccccc4C)cc3)sc2C)s1 (protonated)
CCSc1n[n-]/c(=N\c2nc(-c3ccc(-c4ccccc4C)cc3)sc2C)s1 (cis-trans isomerization)
CCSc1n[n-]/c(=N\c2nc(-c3ccc(-c4ccccc4C)cc3)sc2C)s1 (3D coordinates assigned)
CCSc1n[n-]/c(=N\c2nc(-c3ccc(-c4ccccc4C)cc3)sc2C)s1 (optimized conformer: 123.88547944828437 kcal/mol)

>  <smiles>  (49) 
CCSc1n[nH]c(=Nc2nc(-c3ccc(-c4ccccc4C)cc3)sc2C)s1

>  <score_type>  (49) 
oracle

>  <origin>  (49) 
adgpu

>  <m_score__min__energy>  (49) 
-10.59

>  <m_primary>  (49) 
energy

$$$$
