0:0
     RDKit          3D

 62 66  0  0  0  0  0  0  0  0999 V2000
   -3.6290   16.8230  -33.1680 C   0  0  0  0  0  0  0  0  0  0  0  0
   -4.4400   17.2410  -34.3850 C   0  0  0  0  0  0  0  0  0  0  0  0
   -4.0580   18.5540  -34.7820 O   0  0  0  0  0  0  0  0  0  0  0  0
   -3.7760   19.5460  -33.8370 C   0  0  0  0  0  0  0  0  0  0  0  0
   -2.4410   19.9540  -33.6290 C   0  0  0  0  0  0  0  0  0  0  0  0
   -2.1410   20.9080  -32.6280 C   0  0  0  0  0  0  0  0  0  0  0  0
   -3.2000   21.5260  -31.9160 C   0  0  0  0  0  0  0  0  0  0  0  0
   -2.9700   22.5430  -30.9820 O   0  0  0  0  0  0  0  0  0  0  0  0
   -4.5250   21.1340  -32.1470 C   0  0  0  0  0  0  0  0  0  0  0  0
   -5.5350   21.7230  -31.4500 N   0  0  0  0  0  0  0  0  0  0  0  0
   -6.8360   21.3850  -31.6430 C   0  0  0  0  0  0  0  0  0  0  0  0
   -7.1740   20.4160  -32.5860 C   0  0  0  0  0  0  0  0  0  0  0  0
   -6.1660   19.7960  -33.3240 C   0  0  0  0  0  0  0  0  0  0  0  0
   -4.8190   20.1440  -33.1090 C   0  0  0  0  0  0  0  0  0  0  0  0
   -0.7040   21.3330  -32.3750 C   0  0  0  0  0  0  0  0  0  0  0  0
    0.3020   20.4060  -32.9240 N   0  0  0  0  0  0  0  0  0  0  0  0
    0.5790   19.0360  -31.8680 S   0  0  0  0  0  0  0  0  0  0  0  0
   -0.2240   17.8470  -32.3170 O   0  0  0  0  0  0  0  0  0  0  0  0
    2.0370   18.6670  -31.8690 O   0  0  0  0  0  0  0  0  0  0  0  0
    0.1040   19.4790  -30.2300 C   0  0  0  0  0  0  0  0  0  0  0  0
   -1.2450   19.6620  -29.9000 C   0  0  0  0  0  0  0  0  0  0  0  0
   -1.6060   20.0980  -28.6230 C   0  0  0  0  0  0  0  0  0  0  0  0
   -0.6220   20.3650  -27.6550 C   0  0  0  0  0  0  0  0  0  0  0  0
   -1.0150   20.8890  -26.3210 C   0  0  0  0  0  0  0  0  0  0  0  0
   -1.6180   20.1300  -25.5110 O   0  0  0  0  0  0  0  0  0  0  0  0
   -0.8010   22.2570  -25.9440 N   0  0  0  0  0  0  0  0  0  0  0  0
   -1.1100   23.4130  -26.7390 C   0  0  0  0  0  0  0  0  0  0  0  0
   -0.2450   24.5140  -26.6880 C   0  0  0  0  0  0  0  0  0  0  0  0
   -0.5000   25.6490  -27.4610 C   0  0  0  0  0  0  0  0  0  0  0  0
   -1.6090   25.6850  -28.3090 C   0  0  0  0  0  0  0  0  0  0  0  0
   -2.4800   24.5810  -28.3920 C   0  0  0  0  0  0  0  0  0  0  0  0
   -3.6090   24.6060  -29.2870 N   0  0  0  0  0  0  0  0  0  0  0  0
   -4.7070   24.1210  -28.9430 O   0  0  0  0  0  0  0  0  0  0  0  0
   -3.5090   25.2100  -30.5190 O   0  0  0  0  0  0  0  0  0  0  0  0
   -2.2230   23.4450  -27.6020 C   0  0  0  0  0  0  0  0  0  0  0  0
    0.7320   20.1760  -27.9930 C   0  0  0  0  0  0  0  0  0  0  0  0
    1.0890   19.7290  -29.2670 C   0  0  0  0  0  0  0  0  0  0  0  0
    0.0010   20.0160  -34.3100 C   0  0  0  0  0  0  0  0  0  0  0  0
   -1.3450   19.2970  -34.4360 C   0  0  0  0  0  0  0  0  0  0  0  0
   -4.1711   17.1024  -32.2525 H   0  0  0  0  0  0  0  0  0  0  0  0
   -3.4762   15.7338  -33.1857 H   0  0  0  0  0  0  0  0  0  0  0  0
   -2.6532   17.3305  -33.1857 H   0  0  0  0  0  0  0  0  0  0  0  0
   -4.2510   16.5388  -35.2104 H   0  0  0  0  0  0  0  0  0  0  0  0
   -5.5107   17.2311  -34.1330 H   0  0  0  0  0  0  0  0  0  0  0  0
   -3.7070   23.0510  -30.5120 H   0  0  0  0  0  0  0  0  0  0  0  0
   -7.6243   21.8768  -31.0542 H   0  0  0  0  0  0  0  0  0  0  0  0
   -8.2272   20.1424  -32.7469 H   0  0  0  0  0  0  0  0  0  0  0  0
   -6.4237   19.0344  -34.0747 H   0  0  0  0  0  0  0  0  0  0  0  0
   -0.5500   22.3211  -32.8331 H   0  0  0  0  0  0  0  0  0  0  0  0
   -0.5635   21.3447  -31.2841 H   0  0  0  0  0  0  0  0  0  0  0  0
   -2.0240   19.4613  -30.6503 H   0  0  0  0  0  0  0  0  0  0  0  0
   -2.6686   20.2335  -28.3728 H   0  0  0  0  0  0  0  0  0  0  0  0
    0.6400   24.4843  -26.0354 H   0  0  0  0  0  0  0  0  0  0  0  0
    0.1740   26.5163  -27.4017 H   0  0  0  0  0  0  0  0  0  0  0  0
   -1.8037   26.5814  -28.9161 H   0  0  0  0  0  0  0  0  0  0  0  0
   -2.8956   22.5764  -27.6588 H   0  0  0  0  0  0  0  0  0  0  0  0
    1.5144   20.3820  -27.2478 H   0  0  0  0  0  0  0  0  0  0  0  0
    2.1492   19.5726  -29.5150 H   0  0  0  0  0  0  0  0  0  0  0  0
   -0.0225   20.9213  -34.9343 H   0  0  0  0  0  0  0  0  0  0  0  0
    0.7853   19.3187  -34.6396 H   0  0  0  0  0  0  0  0  0  0  0  0
   -1.6430   19.2932  -35.4948 H   0  0  0  0  0  0  0  0  0  0  0  0
   -1.2125   18.2777  -34.0441 H   0  0  0  0  0  0  0  0  0  0  0  0
  1  2  1  0
  2  3  1  0
  3  4  1  0
  4  5  2  0
  5  6  1  0
  6  7  2  0
  7  8  1  0
  7  9  1  0
  9 10  2  0
 10 11  1  0
 11 12  2  0
 12 13  1  0
 13 14  2  0
  6 15  1  0
 15 16  1  0
 16 17  1  0
 17 18  2  0
 17 19  2  0
 17 20  1  0
 20 21  2  0
 21 22  1  0
 22 23  2  0
 23 24  1  0
 24 25  2  0
 24 26  1  0
 26 27  1  0
 27 28  2  0
 28 29  1  0
 29 30  2  0
 30 31  1  0
 31 32  1  0
 32 33  2  0
 32 34  1  0
 31 35  2  0
 23 36  1  0
 36 37  2  0
 16 38  1  0
 38 39  1  0
 14  4  1  0
 37 20  1  0
 39  5  1  0
 14  9  1  0
 35 27  1  0
  1 40  1  0
  1 41  1  0
  1 42  1  0
  2 43  1  0
  2 44  1  0
  8 45  1  0
 11 46  1  0
 12 47  1  0
 13 48  1  0
 15 49  1  0
 15 50  1  0
 21 51  1  0
 22 52  1  0
 28 53  1  0
 29 54  1  0
 30 55  1  0
 35 56  1  0
 36 57  1  0
 37 58  1  0
 38 59  1  0
 38 60  1  0
 39 61  1  0
 39 62  1  0
M  CHG  3  26  -1  32   1  34  -1
M  END
>  <UniqueID>  (1) 
1

>  <SMILES>  (1) 
CCOc1c2c(c(O)c3ncccc13)CN(S(=O)(=O)c1ccc(C(=O)[N-]c3cccc([N+](=O)[O-])c3)cc1)CC2

>  <Energy>  (1) 
90.98856515573746

>  <Genealogy>  (1) 
CCOc1c2c(c(O)c3ncccc13)CN(S(=O)(=O)c1ccc(C(=O)[N-]c3cccc([N+](=O)[O-])c3)cc1)CC2 (protonated)
CCOc1c2c(c(O)c3ncccc13)CN(S(=O)(=O)c1ccc(C(=O)[N-]c3cccc([N+](=O)[O-])c3)cc1)CC2 (3D coordinates assigned)
CCOc1c2c(c(O)c3ncccc13)CN(S(=O)(=O)c1ccc(C(=O)[N-]c3cccc([N+](=O)[O-])c3)cc1)CC2 (nonaromatic ring conformer: 90.98856515573746 kcal/mol)

>  <smiles>  (1) 
CCOc1c2c(c(O)c3ncccc13)CN(S(=O)(=O)c1ccc(C(=O)Nc3cccc([N+](=O)[O-])c3)cc1)CC2

>  <score_type>  (1) 
oracle

>  <origin>  (1) 
adgpu

>  <m_score__min__energy>  (1) 
-11.300000000000001

>  <m_primary>  (1) 
energy

$$$$
1:0
     RDKit          3D

 50 53  0  0  1  0  0  0  0  0999 V2000
   -5.4000   25.8950  -30.4670 C   0  0  0  0  0  0  0  0  0  0  0  0
   -4.0820   25.3880  -30.5640 O   0  0  0  0  0  0  0  0  0  0  0  0
   -3.8690   24.0150  -30.4640 C   0  0  0  0  0  0  0  0  0  0  0  0
   -3.4860   23.5570  -29.2610 N   0  0  0  0  0  0  0  0  0  0  0  0
   -3.2660   22.2480  -29.1010 C   0  0  0  0  0  0  0  0  0  0  0  0
   -2.8510   21.6160  -27.8390 C   0  0  0  0  0  0  0  0  0  0  0  0
   -2.0940   20.4390  -28.0560 N   0  0  0  0  0  0  0  0  0  0  0  0
   -0.8180   20.7580  -28.7130 C   0  0  0  0  0  0  0  0  0  0  0  0
    0.3810   20.4570  -27.8790 C   0  0  0  0  0  0  0  0  0  0  0  0
    0.4610   19.0360  -27.5450 N   0  0  0  0  0  0  0  0  0  0  0  0
   -0.8740   18.4600  -27.5640 C   0  0  0  0  0  0  0  0  0  0  0  0
   -1.8030   19.5630  -26.9930 C   0  0  2  0  0  0  0  0  0  0  0  0
   -2.9300   18.8830  -26.2930 C   0  0  0  0  0  0  0  0  0  0  0  0
   -3.4430   21.3920  -30.1980 C   0  0  0  0  0  0  0  0  0  0  0  0
   -3.8370   21.8630  -31.4340 C   0  0  0  0  0  0  0  0  0  0  0  0
   -4.0460   21.0020  -32.5380 N   0  0  0  0  0  0  0  0  0  0  0  0
   -5.1240   20.4640  -32.9100 C   0  0  0  0  0  0  0  0  0  0  0  0
   -6.3420   20.6030  -32.3100 C   0  0  0  0  0  0  0  0  0  0  0  0
   -7.2190   19.8470  -33.0590 C   0  0  0  0  0  0  0  0  0  0  0  0
   -8.6580   19.6670  -32.8230 C   0  0  0  0  0  0  0  0  0  0  0  0
   -9.2130   20.4490  -31.6450 C   0  0  0  0  0  0  0  0  0  0  0  0
   -9.1170   18.9590  -31.6010 C   0  0  0  0  0  0  0  0  0  0  0  0
   -6.5050   19.2830  -34.0760 N   0  0  0  0  0  0  0  0  0  0  0  0
   -5.2330   19.6560  -33.9890 N   0  0  0  0  0  0  0  0  0  0  0  0
   -4.0440   23.1920  -31.5330 N   0  0  0  0  0  0  0  0  0  0  0  0
   -5.6751   26.0008  -29.4072 H   0  0  0  0  0  0  0  0  0  0  0  0
   -5.4521   26.8774  -30.9592 H   0  0  0  0  0  0  0  0  0  0  0  0
   -6.0970   25.2008  -30.9592 H   0  0  0  0  0  0  0  0  0  0  0  0
   -2.2396   22.3308  -27.2687 H   0  0  0  0  0  0  0  0  0  0  0  0
   -3.7596   21.3369  -27.2853 H   0  0  0  0  0  0  0  0  0  0  0  0
   -0.7503   20.1723  -29.6416 H   0  0  0  0  0  0  0  0  0  0  0  0
   -0.8154   21.8424  -28.8976 H   0  0  0  0  0  0  0  0  0  0  0  0
    1.2848   20.7442  -28.4364 H   0  0  0  0  0  0  0  0  0  0  0  0
    0.3000   21.0268  -26.9416 H   0  0  0  0  0  0  0  0  0  0  0  0
    1.1210   18.5180  -28.1700 H   0  0  0  0  0  0  0  0  0  0  0  0
   -1.1681   18.2026  -28.5922 H   0  0  0  0  0  0  0  0  0  0  0  0
   -0.9290   17.5321  -26.9758 H   0  0  0  0  0  0  0  0  0  0  0  0
   -1.3707   20.2108  -26.2161 H   0  0  0  0  0  0  0  0  0  0  0  0
   -2.7902   18.9673  -25.2052 H   0  0  0  0  0  0  0  0  0  0  0  0
   -3.8797   19.3590  -26.5787 H   0  0  0  0  0  0  0  0  0  0  0  0
   -2.9517   17.8210  -26.5787 H   0  0  0  0  0  0  0  0  0  0  0  0
   -3.2626   20.3145  -30.0695 H   0  0  0  0  0  0  0  0  0  0  0  0
   -6.5759   21.1960  -31.4135 H   0  0  0  0  0  0  0  0  0  0  0  0
   -8.8848   19.5475  -33.8927 H   0  0  0  0  0  0  0  0  0  0  0  0
   -8.5438   21.0644  -31.0257 H   0  0  0  0  0  0  0  0  0  0  0  0
  -10.0166   21.1867  -31.5033 H   0  0  0  0  0  0  0  0  0  0  0  0
   -8.3814   18.4782  -30.9393 H   0  0  0  0  0  0  0  0  0  0  0  0
   -9.8324   18.1468  -31.4046 H   0  0  0  0  0  0  0  0  0  0  0  0
   -6.8380   18.6520  -34.8360 H   0  0  0  0  0  0  0  0  0  0  0  0
   -4.4300   19.3900  -34.6240 H   0  0  0  0  0  0  0  0  0  0  0  0
  1  2  1  0
  2  3  1  0
  3  4  2  0
  4  5  1  0
  5  6  1  0
  6  7  1  0
  7  8  1  0
  8  9  1  0
  9 10  1  0
 10 11  1  0
 11 12  1  0
 12 13  1  0
  5 14  2  0
 14 15  1  0
 15 16  1  0
 16 17  2  0
 17 18  1  0
 18 19  2  0
 19 20  1  0
 20 21  1  0
 21 22  1  0
 19 23  1  0
 23 24  1  0
 15 25  2  0
 25  3  1  0
 12  7  1  0
 24 17  1  0
 22 20  1  0
  1 26  1  0
  1 27  1  0
  1 28  1  0
  6 29  1  0
  6 30  1  0
  8 31  1  0
  8 32  1  0
  9 33  1  0
  9 34  1  0
 10 35  1  0
 11 36  1  0
 11 37  1  0
 12 38  1  1
 13 39  1  0
 13 40  1  0
 13 41  1  0
 14 42  1  0
 18 43  1  0
 20 44  1  0
 21 45  1  0
 21 46  1  0
 22 47  1  0
 22 48  1  0
 23 49  1  0
 24 50  1  0
M  END
>  <smiles>  (2) 
COc1nc(CN2CCNCC2C)cc(N=c2cc(C3CC3)[nH][nH]2)n1

>  <score_type>  (2) 
oracle

>  <origin>  (2) 
adgpu

>  <m_score__min__energy>  (2) 
-8.8399999999999999

>  <m_primary>  (2) 
energy

$$$$
2:0
     RDKit          3D

 53 56  0  0  0  0  0  0  0  0999 V2000
  -10.3455   19.6377  -32.3910 H   0  0  0  0  0  0  0  0  0  0  0  0
   -9.4640   20.2430  -32.1330 C   0  0  0  0  0  0  0  0  0  0  0  0
   -9.5880   21.6260  -31.9740 C   0  0  0  0  0  0  0  0  0  0  0  0
  -10.5653   22.1102  -32.1171 H   0  0  0  0  0  0  0  0  0  0  0  0
   -8.4700   22.3950  -31.6330 C   0  0  0  0  0  0  0  0  0  0  0  0
   -8.5661   23.4855  -31.5258 H   0  0  0  0  0  0  0  0  0  0  0  0
   -7.2240   21.7770  -31.4270 C   0  0  0  0  0  0  0  0  0  0  0  0
   -6.0490   22.5450  -31.1290 N   0  0  0  0  0  0  0  0  0  0  0  0
   -4.8240   22.2350  -31.4440 C   0  0  0  0  0  0  0  0  0  0  0  0
   -3.7050   22.9670  -31.0880 C   0  0  0  0  0  0  0  0  0  0  0  0
   -3.6310   24.1920  -30.2760 C   0  0  0  0  0  0  0  0  0  0  0  0
   -3.8780   25.3090  -30.8070 O   0  0  0  0  0  0  0  0  0  0  0  0
   -3.3120   24.1090  -28.8830 N   0  0  0  0  0  0  0  0  0  0  0  0
   -2.0970   23.5510  -28.3630 C   0  0  0  0  0  0  0  0  0  0  0  0
   -1.9710   22.1610  -28.1210 C   0  0  0  0  0  0  0  0  0  0  0  0
   -3.1100   21.2050  -28.3520 C   0  0  0  0  0  0  0  0  0  0  0  0
   -3.5095   20.8697  -27.3835 H   0  0  0  0  0  0  0  0  0  0  0  0
   -3.9040   21.7112  -28.9207 H   0  0  0  0  0  0  0  0  0  0  0  0
   -2.7491   20.3353  -28.9207 H   0  0  0  0  0  0  0  0  0  0  0  0
   -0.7480   21.6530  -27.6550 C   0  0  0  0  0  0  0  0  0  0  0  0
   -0.6295   20.5699  -27.5039 H   0  0  0  0  0  0  0  0  0  0  0  0
    0.3180   22.5100  -27.3820 C   0  0  0  0  0  0  0  0  0  0  0  0
    1.2726   22.1001  -27.0205 H   0  0  0  0  0  0  0  0  0  0  0  0
    0.1770   23.8850  -27.5660 C   0  0  0  0  0  0  0  0  0  0  0  0
    1.0176   24.5564  -27.3364 H   0  0  0  0  0  0  0  0  0  0  0  0
   -1.0300   24.4170  -28.0420 C   0  0  0  0  0  0  0  0  0  0  0  0
   -1.1570   25.9000  -28.2620 C   0  0  0  0  0  0  0  0  0  0  0  0
   -1.2009   26.4125  -27.2897 H   0  0  0  0  0  0  0  0  0  0  0  0
   -0.2866   26.2625  -28.8286 H   0  0  0  0  0  0  0  0  0  0  0  0
   -2.0763   26.1092  -28.8286 H   0  0  0  0  0  0  0  0  0  0  0  0
   -2.6470   22.2960  -31.6780 C   0  0  0  0  0  0  0  0  0  0  0  0
   -1.5866   22.5796  -31.6060 H   0  0  0  0  0  0  0  0  0  0  0  0
   -3.1360   21.2330  -32.3580 N   0  0  0  0  0  0  0  0  0  0  0  0
   -2.3660   20.2930  -33.1330 C   0  0  0  0  0  0  0  0  0  0  0  0
   -1.1800   20.6950  -33.7720 C   0  0  0  0  0  0  0  0  0  0  0  0
   -0.8364   21.7358  -33.6791 H   0  0  0  0  0  0  0  0  0  0  0  0
   -0.4340   19.7840  -34.5240 C   0  0  0  0  0  0  0  0  0  0  0  0
    0.4869   20.1142  -35.0269 H   0  0  0  0  0  0  0  0  0  0  0  0
   -0.8530   18.4510  -34.6410 C   0  0  0  0  0  0  0  0  0  0  0  0
   -0.0720   17.4840  -35.4820 C   0  0  0  0  0  0  0  0  0  0  0  0
    0.4840   16.7956  -34.8285 H   0  0  0  0  0  0  0  0  0  0  0  0
   -0.7625   16.9095  -36.1170 H   0  0  0  0  0  0  0  0  0  0  0  0
    0.6350   18.0381  -36.1170 H   0  0  0  0  0  0  0  0  0  0  0  0
   -2.0440   18.0480  -34.0200 C   0  0  0  0  0  0  0  0  0  0  0  0
   -2.3929   17.0103  -34.1269 H   0  0  0  0  0  0  0  0  0  0  0  0
   -2.7900   18.9580  -33.2660 C   0  0  0  0  0  0  0  0  0  0  0  0
   -3.7161   18.6279  -32.7726 H   0  0  0  0  0  0  0  0  0  0  0  0
   -4.4550   21.1970  -32.2220 N   0  0  0  0  0  0  0  0  0  0  0  0
   -5.0810   20.4920  -32.6680 H   0  0  0  0  0  0  0  0  0  0  0  0
   -7.1010   20.3960  -31.6240 C   0  0  0  0  0  0  0  0  0  0  0  0
   -6.1196   19.9124  -31.5106 H   0  0  0  0  0  0  0  0  0  0  0  0
   -8.2190   19.6290  -31.9640 C   0  0  0  0  0  0  0  0  0  0  0  0
   -8.1194   18.5418  -32.0987 H   0  0  0  0  0  0  0  0  0  0  0  0
  1  2  1  0
  2  3  2  0
  3  4  1  0
  3  5  1  0
  5  6  1  0
  5  7  2  0
  7  8  1  0
  8  9  2  0
  9 10  1  0
 10 11  1  0
 11 12  2  0
 11 13  1  0
 13 14  1  0
 14 15  2  0
 15 16  1  0
 16 17  1  0
 16 18  1  0
 16 19  1  0
 15 20  1  0
 20 21  1  0
 20 22  2  0
 22 23  1  0
 22 24  1  0
 24 25  1  0
 24 26  2  0
 26 27  1  0
 27 28  1  0
 27 29  1  0
 27 30  1  0
 10 31  2  0
 31 32  1  0
 31 33  1  0
 33 34  1  0
 34 35  2  0
 35 36  1  0
 35 37  1  0
 37 38  1  0
 37 39  2  0
 39 40  1  0
 40 41  1  0
 40 42  1  0
 40 43  1  0
 39 44  1  0
 44 45  1  0
 44 46  2  0
 46 47  1  0
 33 48  1  0
 48 49  1  0
  7 50  1  0
 50 51  1  0
 50 52  2  0
 52 53  1  0
 52  2  1  0
 48  9  1  0
 26 14  1  0
 46 34  1  0
M  CHG  1  13  -1
M  END
>  <UniqueID>  (3) 
2

>  <SMILES>  (3) 
Cc1ccc(-n2cc(C(=O)[N-]c3c(C)cccc3C)/c(=N/c3ccccc3)[nH]2)cc1

>  <Energy>  (3) 
105.19392630006006

>  <Genealogy>  (3) 
Cc1ccc(-n2cc(C(=O)[N-]c3c(C)cccc3C)c(=Nc3ccccc3)[nH]2)cc1 (protonated)
Cc1ccc(-n2cc(C(=O)[N-]c3c(C)cccc3C)/c(=N/c3ccccc3)[nH]2)cc1 (cis-trans isomerization)
Cc1ccc(-n2cc(C(=O)[N-]c3c(C)cccc3C)/c(=N/c3ccccc3)[nH]2)cc1 (3D coordinates assigned)
Cc1ccc(-n2cc(C(=O)[N-]c3c(C)cccc3C)/c(=N/c3ccccc3)[nH]2)cc1 (optimized conformer: 105.19392630006006 kcal/mol)

>  <smiles>  (3) 
Cc1ccc(-n2cc(C(=O)Nc3c(C)cccc3C)c(=Nc3ccccc3)[nH]2)cc1

>  <score_type>  (3) 
oracle

>  <origin>  (3) 
adgpu

>  <m_score__min__energy>  (3) 
-10.17

>  <m_primary>  (3) 
energy

$$$$
3:0
     RDKit          3D

 39 42  0  0  0  0  0  0  0  0999 V2000
   -8.7242   21.9680  -32.3516 H   0  0  0  0  0  0  0  0  0  0  0  0
   -7.7080   22.2830  -32.0720 C   0  0  0  0  0  0  0  0  0  0  0  0
   -7.2760   23.7850  -31.4540 S   0  0  0  0  0  0  0  0  0  0  0  0
   -5.6430   23.3920  -31.3330 C   0  0  0  0  0  0  0  0  0  0  0  0
   -4.5820   24.2370  -30.8560 N   0  0  0  0  0  0  0  0  0  0  0  0
   -3.7130   23.9850  -29.9210 C   0  0  0  0  0  0  0  0  0  0  0  0
   -3.7170   22.8050  -29.2450 N   0  0  0  0  0  0  0  0  0  0  0  0
   -2.8150   22.5300  -28.2660 C   0  0  0  0  0  0  0  0  0  0  0  0
   -2.8960   21.2010  -27.5740 C   0  0  0  0  0  0  0  0  0  0  0  0
   -2.8867   21.3536  -26.4847 H   0  0  0  0  0  0  0  0  0  0  0  0
   -3.8268   20.6922  -27.8650 H   0  0  0  0  0  0  0  0  0  0  0  0
   -2.0339   20.5829  -27.8650 H   0  0  0  0  0  0  0  0  0  0  0  0
   -1.8390   23.4960  -27.9370 C   0  0  0  0  0  0  0  0  0  0  0  0
   -0.8680   23.2950  -26.9370 C   0  0  0  0  0  0  0  0  0  0  0  0
   -0.8554   22.3539  -26.3676 H   0  0  0  0  0  0  0  0  0  0  0  0
    0.0850   24.2910  -26.6630 C   0  0  0  0  0  0  0  0  0  0  0  0
    1.0940   24.0870  -25.5700 C   0  0  0  0  0  0  0  0  0  0  0  0
    0.6004   24.1868  -24.5920 H   0  0  0  0  0  0  0  0  0  0  0  0
    1.5324   23.0820  -25.6586 H   0  0  0  0  0  0  0  0  0  0  0  0
    1.8884   24.8427  -25.6586 H   0  0  0  0  0  0  0  0  0  0  0  0
    0.0460   25.5020  -27.3680 C   0  0  0  0  0  0  0  0  0  0  0  0
    0.7747   26.2932  -27.1376 H   0  0  0  0  0  0  0  0  0  0  0  0
   -0.9140   25.7090  -28.3620 C   0  0  0  0  0  0  0  0  0  0  0  0
   -0.9310   26.6572  -28.9193 H   0  0  0  0  0  0  0  0  0  0  0  0
   -1.8530   24.7140  -28.6500 C   0  0  0  0  0  0  0  0  0  0  0  0
   -2.7840   24.9260  -29.6160 N   0  0  0  0  0  0  0  0  0  0  0  0
   -5.4140   22.1330  -31.7590 N   0  0  0  0  0  0  0  0  0  0  0  0
   -6.5510   21.5030  -32.1690 C   0  0  0  0  0  0  0  0  0  0  0  0
   -6.5200   20.1080  -32.6830 C   0  0  0  0  0  0  0  0  0  0  0  0
   -5.7350   19.7500  -33.7980 C   0  0  0  0  0  0  0  0  0  0  0  0
   -5.1266   20.5139  -34.3043 H   0  0  0  0  0  0  0  0  0  0  0  0
   -5.7230   18.4320  -34.2660 C   0  0  0  0  0  0  0  0  0  0  0  0
   -5.1048   18.1635  -35.1353 H   0  0  0  0  0  0  0  0  0  0  0  0
   -6.4950   17.4560  -33.6310 C   0  0  0  0  0  0  0  0  0  0  0  0
   -6.4790   15.8020  -34.2200 Cl  0  0  0  0  0  0  0  0  0  0  0  0
   -7.2830   17.7980  -32.5290 C   0  0  0  0  0  0  0  0  0  0  0  0
   -7.8927   17.0300  -32.0305 H   0  0  0  0  0  0  0  0  0  0  0  0
   -7.2980   19.1140  -32.0590 C   0  0  0  0  0  0  0  0  0  0  0  0
   -7.9237   19.3759  -31.1931 H   0  0  0  0  0  0  0  0  0  0  0  0
  1  2  1  0
  2  3  1  0
  3  4  1  0
  4  5  1  0
  5  6  2  0
  6  7  1  0
  7  8  2  0
  8  9  1  0
  9 10  1  0
  9 11  1  0
  9 12  1  0
  8 13  1  0
 13 14  2  0
 14 15  1  0
 14 16  1  0
 16 17  1  0
 17 18  1  0
 17 19  1  0
 17 20  1  0
 16 21  2  0
 21 22  1  0
 21 23  1  0
 23 24  1  0
 23 25  2  0
 25 26  1  0
  4 27  2  0
 27 28  1  0
 28 29  1  0
 29 30  2  0
 30 31  1  0
 30 32  1  0
 32 33  1  0
 32 34  2  0
 34 35  1  0
 34 36  1  0
 36 37  1  0
 36 38  2  0
 38 39  1  0
 28  2  2  0
 38 29  1  0
 26  6  1  0
 25 13  1  0
M  CHG  1  26  -1
M  END
>  <UniqueID>  (4) 
3

>  <SMILES>  (4) 
Cc1ccc2[n-]/c(=N/c3nc(-c4ccc(Cl)cc4)cs3)nc(C)c2c1

>  <Energy>  (4) 
82.66592432516843

>  <Genealogy>  (4) 
Cc1ccc2[n-]c(=Nc3nc(-c4ccc(Cl)cc4)cs3)nc(C)c2c1 (protonated)
Cc1ccc2[n-]/c(=N/c3nc(-c4ccc(Cl)cc4)cs3)nc(C)c2c1 (cis-trans isomerization)
Cc1ccc2[n-]/c(=N/c3nc(-c4ccc(Cl)cc4)cs3)nc(C)c2c1 (3D coordinates assigned)
Cc1ccc2[n-]/c(=N/c3nc(-c4ccc(Cl)cc4)cs3)nc(C)c2c1 (optimized conformer: 82.66592432516843 kcal/mol)

>  <smiles>  (4) 
Cc1ccc2[nH]c(=Nc3nc(-c4ccc(Cl)cc4)cs3)nc(C)c2c1

>  <score_type>  (4) 
oracle

>  <origin>  (4) 
adgpu

>  <m_score__min__energy>  (4) 
-10.529999999999999

>  <m_primary>  (4) 
energy

$$$$
4:0
     RDKit          3D

 39 41  0  0  0  0  0  0  0  0999 V2000
   -0.8100   25.6470  -25.7620 C   0  0  0  0  0  0  0  0  0  0  0  0
   -1.2800   25.5150  -27.1720 C   0  0  0  0  0  0  0  0  0  0  0  0
   -2.3690   24.7840  -27.5950 C   0  0  0  0  0  0  0  0  0  0  0  0
   -2.3390   24.9180  -28.9690 C   0  0  0  0  0  0  0  0  0  0  0  0
   -3.2900   24.3200  -29.9180 C   0  0  0  0  0  0  0  0  0  0  0  0
   -3.8780   25.0570  -30.7550 O   0  0  0  0  0  0  0  0  0  0  0  0
   -3.5210   22.9040  -29.9140 N   0  0  0  0  0  0  0  0  0  0  0  0
   -4.5680   22.2800  -30.6690 C   0  0  0  0  0  0  0  0  0  0  0  0
   -5.8940   22.6770  -30.8050 C   0  0  0  0  0  0  0  0  0  0  0  0
   -6.5430   23.8800  -30.1850 C   0  0  0  0  0  0  0  0  0  0  0  0
   -6.5390   21.7530  -31.5620 N   0  0  0  0  0  0  0  0  0  0  0  0
   -7.9450   21.8090  -31.9700 C   0  0  0  0  0  0  0  0  0  0  0  0
   -5.6910   20.7690  -31.8570 N   0  0  0  0  0  0  0  0  0  0  0  0
   -6.0050   19.5710  -32.5900 C   0  0  0  0  0  0  0  0  0  0  0  0
   -5.4400   19.3490  -33.8560 C   0  0  0  0  0  0  0  0  0  0  0  0
   -5.7350   18.1800  -34.5640 C   0  0  0  0  0  0  0  0  0  0  0  0
   -6.5890   17.2220  -34.0090 C   0  0  0  0  0  0  0  0  0  0  0  0
   -7.1460   17.4310  -32.7440 C   0  0  0  0  0  0  0  0  0  0  0  0
   -6.8540   18.6000  -32.0340 C   0  0  0  0  0  0  0  0  0  0  0  0
   -4.4920   21.0710  -31.3200 C   0  0  0  0  0  0  0  0  0  0  0  0
   -3.4690   20.3380  -31.3930 O   0  0  0  0  0  0  0  0  0  0  0  0
   -1.2820   25.6720  -29.3310 N   0  0  0  0  0  0  0  0  0  0  0  0
   -0.6320   26.0320  -28.2340 N   0  0  0  0  0  0  0  0  0  0  0  0
   -1.6380   25.4145  -25.0762 H   0  0  0  0  0  0  0  0  0  0  0  0
    0.0201   24.9472  -25.5852 H   0  0  0  0  0  0  0  0  0  0  0  0
   -0.4656   26.6766  -25.5852 H   0  0  0  0  0  0  0  0  0  0  0  0
   -3.0919   24.2253  -26.9824 H   0  0  0  0  0  0  0  0  0  0  0  0
   -2.8100   22.2830  -29.4650 H   0  0  0  0  0  0  0  0  0  0  0  0
   -6.4981   23.7968  -29.0891 H   0  0  0  0  0  0  0  0  0  0  0  0
   -6.0128   24.7888  -30.5058 H   0  0  0  0  0  0  0  0  0  0  0  0
   -7.5937   23.9360  -30.5058 H   0  0  0  0  0  0  0  0  0  0  0  0
   -8.5855   21.8345  -31.0760 H   0  0  0  0  0  0  0  0  0  0  0  0
   -8.1168   22.7147  -32.5701 H   0  0  0  0  0  0  0  0  0  0  0  0
   -8.1883   20.9198  -32.5701 H   0  0  0  0  0  0  0  0  0  0  0  0
   -4.7626   20.0977  -34.2926 H   0  0  0  0  0  0  0  0  0  0  0  0
   -5.2949   18.0138  -35.5583 H   0  0  0  0  0  0  0  0  0  0  0  0
   -6.8226   16.3038  -34.5679 H   0  0  0  0  0  0  0  0  0  0  0  0
   -7.8148   16.6751  -32.3065 H   0  0  0  0  0  0  0  0  0  0  0  0
   -7.2906   18.7595  -31.0370 H   0  0  0  0  0  0  0  0  0  0  0  0
  1  2  1  0
  2  3  1  0
  3  4  2  0
  4  5  1  0
  5  6  2  0
  5  7  1  0
  7  8  1  0
  8  9  2  0
  9 10  1  0
  9 11  1  0
 11 12  1  0
 11 13  1  0
 13 14  1  0
 14 15  2  0
 15 16  1  0
 16 17  2  0
 17 18  1  0
 18 19  2  0
 13 20  1  0
 20 21  2  0
  4 22  1  0
 22 23  1  0
 23  2  2  0
 20  8  1  0
 19 14  1  0
  1 24  1  0
  1 25  1  0
  1 26  1  0
  3 27  1  0
  7 28  1  0
 10 29  1  0
 10 30  1  0
 10 31  1  0
 12 32  1  0
 12 33  1  0
 12 34  1  0
 15 35  1  0
 16 36  1  0
 17 37  1  0
 18 38  1  0
 19 39  1  0
M  CHG  1  22  -1
M  END
>  <UniqueID>  (5) 
4

>  <SMILES>  (5) 
Cc1cc(C(=O)Nc2c(C)n(C)n(-c3ccccc3)c2=O)[n-]n1

>  <Energy>  (5) 
113.00261684209437

>  <Genealogy>  (5) 
Cc1cc(C(=O)Nc2c(C)n(C)n(-c3ccccc3)c2=O)[n-]n1 (protonated)
Cc1cc(C(=O)Nc2c(C)n(C)n(-c3ccccc3)c2=O)[n-]n1 (3D coordinates assigned)
Cc1cc(C(=O)Nc2c(C)n(C)n(-c3ccccc3)c2=O)[n-]n1 (optimized conformer: 113.00261684209437 kcal/mol)

>  <smiles>  (5) 
Cc1cc(C(=O)Nc2c(C)n(C)n(-c3ccccc3)c2=O)[nH]n1

>  <score_type>  (5) 
oracle

>  <origin>  (5) 
adgpu

>  <m_score__min__energy>  (5) 
-10.109999999999999

>  <m_primary>  (5) 
energy

$$$$
5:0
     RDKit          3D

 54 57  0  0  0  0  0  0  0  0999 V2000
   -2.8990   21.8660  -34.2830 H   0  0  0  0  0  0  0  0  0  0  0  0
   -3.4000   21.3780  -33.5510 O   0  0  0  0  0  0  0  0  0  0  0  0
   -4.0720   20.1890  -33.7610 N   0  0  0  0  0  0  0  0  0  0  0  0
   -4.9990   20.2540  -34.2390 H   0  0  0  0  0  0  0  0  0  0  0  0
   -3.6180   19.0220  -33.3890 C   0  0  0  0  0  0  0  0  0  0  0  0
   -4.4600   17.8120  -33.5560 C   0  0  0  0  0  0  0  0  0  0  0  0
   -3.9040   16.5450  -33.3140 C   0  0  0  0  0  0  0  0  0  0  0  0
   -2.8560   16.4622  -32.9901 H   0  0  0  0  0  0  0  0  0  0  0  0
   -4.6700   15.3900  -33.4810 C   0  0  0  0  0  0  0  0  0  0  0  0
   -4.2221   14.4023  -33.2970 H   0  0  0  0  0  0  0  0  0  0  0  0
   -6.0030   15.4870  -33.8810 C   0  0  0  0  0  0  0  0  0  0  0  0
   -6.6047   14.5758  -34.0137 H   0  0  0  0  0  0  0  0  0  0  0  0
   -6.5740   16.7400  -34.1130 C   0  0  0  0  0  0  0  0  0  0  0  0
   -7.6283   16.8115  -34.4184 H   0  0  0  0  0  0  0  0  0  0  0  0
   -5.8110   17.9110  -33.9590 C   0  0  0  0  0  0  0  0  0  0  0  0
   -6.3920   19.1750  -34.1370 O   0  0  0  0  0  0  0  0  0  0  0  0
   -7.1620   19.8540  -33.1810 C   0  0  0  0  0  0  0  0  0  0  0  0
   -8.3150   19.2380  -32.6840 C   0  0  0  0  0  0  0  0  0  0  0  0
   -8.6042   18.2422  -33.0511 H   0  0  0  0  0  0  0  0  0  0  0  0
   -9.1010   19.8790  -31.7250 C   0  0  0  0  0  0  0  0  0  0  0  0
  -10.0155   19.3949  -31.3518 H   0  0  0  0  0  0  0  0  0  0  0  0
   -8.7280   21.1350  -31.2380 C   0  0  0  0  0  0  0  0  0  0  0  0
   -9.3597   21.6432  -30.4945 H   0  0  0  0  0  0  0  0  0  0  0  0
   -7.5560   21.7490  -31.6910 C   0  0  0  0  0  0  0  0  0  0  0  0
   -7.2120   23.0090  -31.1770 O   0  0  0  0  0  0  0  0  0  0  0  0
   -5.9390   23.3790  -30.7210 C   0  0  0  0  0  0  0  0  0  0  0  0
   -5.5400   24.7240  -30.6390 C   0  0  0  0  0  0  0  0  0  0  0  0
   -6.2397   25.5211  -30.9306 H   0  0  0  0  0  0  0  0  0  0  0  0
   -4.2590   25.0540  -30.1890 C   0  0  0  0  0  0  0  0  0  0  0  0
   -3.9638   26.1105  -30.1081 H   0  0  0  0  0  0  0  0  0  0  0  0
   -3.3450   24.0450  -29.8390 C   0  0  0  0  0  0  0  0  0  0  0  0
   -1.9830   24.3820  -29.3580 C   0  0  0  0  0  0  0  0  0  0  0  0
   -1.0820   23.5030  -29.3890 O   0  0  0  0  0  0  0  0  0  0  0  0
   -1.6670   25.6690  -28.8070 N   0  0  0  0  0  0  0  0  0  0  0  0
   -1.4060   25.9590  -27.4260 C   0  0  0  0  0  0  0  0  0  0  0  0
   -1.7060   24.9820  -26.4670 C   0  0  0  0  0  0  0  0  0  0  0  0
   -2.1311   24.0179  -26.7829 H   0  0  0  0  0  0  0  0  0  0  0  0
   -1.4680   25.2260  -25.1110 C   0  0  0  0  0  0  0  0  0  0  0  0
   -1.7194   24.4602  -24.3624 H   0  0  0  0  0  0  0  0  0  0  0  0
   -0.9110   26.4420  -24.7060 C   0  0  0  0  0  0  0  0  0  0  0  0
   -0.6780   26.6770  -23.3910 F   0  0  0  0  0  0  0  0  0  0  0  0
   -0.5790   27.4100  -25.6580 C   0  0  0  0  0  0  0  0  0  0  0  0
   -0.1299   28.3620  -25.3384 H   0  0  0  0  0  0  0  0  0  0  0  0
   -0.8160   27.1720  -27.0160 C   0  0  0  0  0  0  0  0  0  0  0  0
   -0.4300   28.1030  -27.9230 F   0  0  0  0  0  0  0  0  0  0  0  0
   -3.7460   22.7010  -29.9300 C   0  0  0  0  0  0  0  0  0  0  0  0
   -3.0460   21.9014  -29.6462 H   0  0  0  0  0  0  0  0  0  0  0  0
   -5.0290   22.3740  -30.3790 C   0  0  0  0  0  0  0  0  0  0  0  0
   -5.3248   21.3179  -30.4639 H   0  0  0  0  0  0  0  0  0  0  0  0
   -6.7810   21.1110  -32.6770 C   0  0  0  0  0  0  0  0  0  0  0  0
   -5.8708   21.5985  -33.0564 H   0  0  0  0  0  0  0  0  0  0  0  0
   -2.2860   18.8660  -32.8770 N   0  0  0  0  0  0  0  0  0  0  0  0
   -1.5400   19.5780  -33.0270 H   0  0  0  0  0  0  0  0  0  0  0  0
   -1.9980   17.9620  -32.4380 H   0  0  0  0  0  0  0  0  0  0  0  0
  1  2  1  0
  2  3  1  0
  3  4  1  0
  3  5  2  0
  5  6  1  0
  6  7  2  0
  7  8  1  0
  7  9  1  0
  9 10  1  0
  9 11  2  0
 11 12  1  0
 11 13  1  0
 13 14  1  0
 13 15  2  0
 15 16  1  0
 16 17  1  0
 17 18  2  0
 18 19  1  0
 18 20  1  0
 20 21  1  0
 20 22  2  0
 22 23  1  0
 22 24  1  0
 24 25  1  0
 25 26  1  0
 26 27  2  0
 27 28  1  0
 27 29  1  0
 29 30  1  0
 29 31  2  0
 31 32  1  0
 32 33  2  0
 32 34  1  0
 34 35  1  0
 35 36  2  0
 36 37  1  0
 36 38  1  0
 38 39  1  0
 38 40  2  0
 40 41  1  0
 40 42  1  0
 42 43  1  0
 42 44  2  0
 44 45  1  0
 31 46  1  0
 46 47  1  0
 46 48  2  0
 48 49  1  0
 24 50  2  0
 50 51  1  0
  5 52  1  0
 52 53  1  0
 52 54  1  0
 15  6  1  0
 50 17  1  0
 48 26  1  0
 44 35  1  0
M  CHG  2   3   1  34  -1
M  END
>  <UniqueID>  (6) 
5

>  <SMILES>  (6) 
N/C(=[NH+]\O)c1ccccc1Oc1cccc(Oc2ccc(C(=O)[N-]c3ccc(F)cc3F)cc2)c1

>  <Energy>  (6) 
86.80639725865136

>  <Genealogy>  (6) 
NC(=[NH+]O)c1ccccc1Oc1cccc(Oc2ccc(C(=O)[N-]c3ccc(F)cc3F)cc2)c1 (protonated)
N/C(=[NH+]\O)c1ccccc1Oc1cccc(Oc2ccc(C(=O)[N-]c3ccc(F)cc3F)cc2)c1 (cis-trans isomerization)
N/C(=[NH+]\O)c1ccccc1Oc1cccc(Oc2ccc(C(=O)[N-]c3ccc(F)cc3F)cc2)c1 (3D coordinates assigned)
N/C(=[NH+]\O)c1ccccc1Oc1cccc(Oc2ccc(C(=O)[N-]c3ccc(F)cc3F)cc2)c1 (optimized conformer: 86.80639725865136 kcal/mol)

>  <smiles>  (6) 
NC(=NO)c1ccccc1Oc1cccc(Oc2ccc(C(=O)Nc3ccc(F)cc3F)cc2)c1

>  <score_type>  (6) 
oracle

>  <origin>  (6) 
adgpu

>  <m_score__min__energy>  (6) 
-10.880000000000001

>  <m_primary>  (6) 
energy

$$$$
6:0
     RDKit          3D

 33 34  0  0  0  0  0  0  0  0999 V2000
   -7.9170   18.9010  -32.3230 C   0  0  0  0  0  0  0  0  0  0  0  0
   -7.6590   20.1100  -33.0300 O   0  0  0  0  0  0  0  0  0  0  0  0
   -7.0750   21.2550  -32.4630 C   0  0  0  0  0  0  0  0  0  0  0  0
   -5.6940   21.5120  -32.5640 C   0  0  0  0  0  0  0  0  0  0  0  0
   -5.1380   22.6450  -31.9650 C   0  0  0  0  0  0  0  0  0  0  0  0
   -5.9510   23.5380  -31.2580 C   0  0  0  0  0  0  0  0  0  0  0  0
   -5.2520   24.9210  -30.4180 S   0  0  0  0  0  0  0  0  0  0  0  0
   -5.6770   24.8750  -28.9770 O   0  0  0  0  0  0  0  0  0  0  0  0
   -5.7450   26.2060  -31.0220 O   0  0  0  0  0  0  0  0  0  0  0  0
   -3.5150   24.8650  -30.5010 N   0  0  0  0  0  0  0  0  0  0  0  0
   -2.9560   24.0670  -29.4070 C   0  0  0  0  0  0  0  0  0  0  0  0
   -2.0830   24.9070  -28.5280 C   0  0  0  0  0  0  0  0  0  0  0  0
   -1.7260   24.6180  -27.2260 C   0  0  0  0  0  0  0  0  0  0  0  0
   -0.9060   25.6520  -26.8290 C   0  0  0  0  0  0  0  0  0  0  0  0
   -0.8190   26.5090  -27.9080 C   0  0  0  0  0  0  0  0  0  0  0  0
   -1.5340   26.0390  -28.9040 O   0  0  0  0  0  0  0  0  0  0  0  0
   -7.3260   23.2980  -31.1660 C   0  0  0  0  0  0  0  0  0  0  0  0
   -7.8950   22.1650  -31.7680 C   0  0  0  0  0  0  0  0  0  0  0  0
   -9.3650   21.8930  -31.6120 C   0  0  0  0  0  0  0  0  0  0  0  0
   -7.8760   19.0932  -31.2407 H   0  0  0  0  0  0  0  0  0  0  0  0
   -8.9155   18.5254  -32.5911 H   0  0  0  0  0  0  0  0  0  0  0  0
   -7.1588   18.1505  -32.5911 H   0  0  0  0  0  0  0  0  0  0  0  0
   -5.0483   20.8154  -33.1187 H   0  0  0  0  0  0  0  0  0  0  0  0
   -4.0580   22.8357  -32.0493 H   0  0  0  0  0  0  0  0  0  0  0  0
   -3.7789   23.6516  -28.8067 H   0  0  0  0  0  0  0  0  0  0  0  0
   -2.3483   23.2570  -29.8365 H   0  0  0  0  0  0  0  0  0  0  0  0
   -2.0320   23.7453  -26.6304 H   0  0  0  0  0  0  0  0  0  0  0  0
   -0.4190   25.7706  -25.8499 H   0  0  0  0  0  0  0  0  0  0  0  0
   -0.2389   27.4434  -27.9299 H   0  0  0  0  0  0  0  0  0  0  0  0
   -7.9670   24.0035  -30.6170 H   0  0  0  0  0  0  0  0  0  0  0  0
   -9.6178   21.8462  -30.5425 H   0  0  0  0  0  0  0  0  0  0  0  0
   -9.9399   22.7000  -32.0897 H   0  0  0  0  0  0  0  0  0  0  0  0
   -9.6131   20.9337  -32.0897 H   0  0  0  0  0  0  0  0  0  0  0  0
  1  2  1  0
  2  3  1  0
  3  4  2  0
  4  5  1  0
  5  6  2  0
  6  7  1  0
  7  8  2  0
  7  9  2  0
  7 10  1  0
 10 11  1  0
 11 12  1  0
 12 13  2  0
 13 14  1  0
 14 15  2  0
 15 16  1  0
  6 17  1  0
 17 18  2  0
 18 19  1  0
 18  3  1  0
 16 12  1  0
  1 20  1  0
  1 21  1  0
  1 22  1  0
  4 23  1  0
  5 24  1  0
 11 25  1  0
 11 26  1  0
 13 27  1  0
 14 28  1  0
 15 29  1  0
 17 30  1  0
 19 31  1  0
 19 32  1  0
 19 33  1  0
M  CHG  1  10  -1
M  END
>  <UniqueID>  (7) 
6

>  <SMILES>  (7) 
COc1ccc(S(=O)(=O)[N-]Cc2ccco2)cc1C

>  <Energy>  (7) 
53.475325326135106

>  <Genealogy>  (7) 
COc1ccc(S(=O)(=O)[N-]Cc2ccco2)cc1C (protonated)
COc1ccc(S(=O)(=O)[N-]Cc2ccco2)cc1C (3D coordinates assigned)
COc1ccc(S(=O)(=O)[N-]Cc2ccco2)cc1C (optimized conformer: 53.475325326135106 kcal/mol)

>  <smiles>  (7) 
COc1ccc(S(=O)(=O)NCc2ccco2)cc1C

>  <score_type>  (7) 
oracle

>  <origin>  (7) 
adgpu

>  <m_score__min__energy>  (7) 
-9.25

>  <m_primary>  (7) 
energy

$$$$
7:0
     RDKit          3D

 46 48  0  0  0  0  0  0  0  0999 V2000
   -9.4730   19.8110  -32.7200 C   0  0  0  0  0  0  0  0  0  0  0  0
   -9.5740   21.2090  -32.4770 O   0  0  0  0  0  0  0  0  0  0  0  0
   -8.6250   21.9640  -31.7710 C   0  0  0  0  0  0  0  0  0  0  0  0
   -8.3400   21.6100  -30.4480 C   0  0  0  0  0  0  0  0  0  0  0  0
   -7.4080   22.3360  -29.7030 C   0  0  0  0  0  0  0  0  0  0  0  0
   -6.7430   23.4360  -30.2680 C   0  0  0  0  0  0  0  0  0  0  0  0
   -5.7940   24.1670  -29.4690 N   0  0  0  0  0  0  0  0  0  0  0  0
   -4.1650   24.5120  -29.9580 S   0  0  0  0  0  0  0  0  0  0  0  0
   -4.1720   25.6690  -30.9190 O   0  0  0  0  0  0  0  0  0  0  0  0
   -3.3570   24.8930  -28.7490 O   0  0  0  0  0  0  0  0  0  0  0  0
   -3.4460   23.0850  -30.6950 C   0  0  0  0  0  0  0  0  0  0  0  0
   -2.3570   22.4410  -30.0920 C   0  0  0  0  0  0  0  0  0  0  0  0
   -1.7950   21.3060  -30.6830 C   0  0  0  0  0  0  0  0  0  0  0  0
   -2.3130   20.8040  -31.8890 C   0  0  0  0  0  0  0  0  0  0  0  0
   -1.7790   19.6100  -32.4840 N   0  0  0  0  0  0  0  0  0  0  0  0
   -2.5710   18.6580  -33.2070 C   0  0  0  0  0  0  0  0  0  0  0  0
   -1.9100   17.9340  -34.5230 S   0  0  0  0  0  0  0  0  0  0  0  0
   -3.9260   18.3820  -32.8000 N   0  0  0  0  0  0  0  0  0  0  0  0
   -4.7180   17.2800  -33.2710 C   0  0  0  0  0  0  0  0  0  0  0  0
   -6.0150   17.5110  -33.7490 C   0  0  0  0  0  0  0  0  0  0  0  0
   -6.8040   16.4410  -34.1760 C   0  0  0  0  0  0  0  0  0  0  0  0
   -6.2960   15.1420  -34.0990 C   0  0  0  0  0  0  0  0  0  0  0  0
   -5.0510   14.9270  -33.5990 N   0  0  0  0  0  0  0  0  0  0  0  0
   -4.2590   15.9530  -33.1840 C   0  0  0  0  0  0  0  0  0  0  0  0
   -3.4160   21.4380  -32.4770 C   0  0  0  0  0  0  0  0  0  0  0  0
   -3.9730   22.5780  -31.8890 C   0  0  0  0  0  0  0  0  0  0  0  0
   -7.0270   23.7920  -31.5990 C   0  0  0  0  0  0  0  0  0  0  0  0
   -7.9580   23.0610  -32.3440 C   0  0  0  0  0  0  0  0  0  0  0  0
   -9.4342   19.2740  -31.7608 H   0  0  0  0  0  0  0  0  0  0  0  0
  -10.3492   19.4743  -33.2936 H   0  0  0  0  0  0  0  0  0  0  0  0
   -8.5575   19.6037  -33.2936 H   0  0  0  0  0  0  0  0  0  0  0  0
   -8.8545   20.7522  -29.9903 H   0  0  0  0  0  0  0  0  0  0  0  0
   -7.1931   22.0435  -28.6646 H   0  0  0  0  0  0  0  0  0  0  0  0
   -6.0920   24.5300  -28.5350 H   0  0  0  0  0  0  0  0  0  0  0  0
   -1.9431   22.8303  -29.1501 H   0  0  0  0  0  0  0  0  0  0  0  0
   -0.9431   20.8032  -30.2018 H   0  0  0  0  0  0  0  0  0  0  0  0
   -0.7530   19.4260  -32.3910 H   0  0  0  0  0  0  0  0  0  0  0  0
   -4.3870   19.0410  -32.1370 H   0  0  0  0  0  0  0  0  0  0  0  0
   -6.4118   18.5362  -33.7878 H   0  0  0  0  0  0  0  0  0  0  0  0
   -7.8157   16.6192  -34.5692 H   0  0  0  0  0  0  0  0  0  0  0  0
   -6.9043   14.2926  -34.4434 H   0  0  0  0  0  0  0  0  0  0  0  0
   -3.2576   15.7442  -32.7796 H   0  0  0  0  0  0  0  0  0  0  0  0
   -3.8461   21.0365  -33.4064 H   0  0  0  0  0  0  0  0  0  0  0  0
   -4.8285   23.0783  -32.3664 H   0  0  0  0  0  0  0  0  0  0  0  0
   -6.5137   24.6505  -32.0566 H   0  0  0  0  0  0  0  0  0  0  0  0
   -8.1697   23.3462  -33.3851 H   0  0  0  0  0  0  0  0  0  0  0  0
  1  2  1  0
  2  3  1  0
  3  4  2  0
  4  5  1  0
  5  6  2  0
  6  7  1  0
  7  8  1  0
  8  9  2  0
  8 10  2  0
  8 11  1  0
 11 12  2  0
 12 13  1  0
 13 14  2  0
 14 15  1  0
 15 16  1  0
 16 17  2  0
 16 18  1  0
 18 19  1  0
 19 20  2  0
 20 21  1  0
 21 22  2  0
 22 23  1  0
 23 24  2  0
 14 25  1  0
 25 26  2  0
  6 27  1  0
 27 28  2  0
 28  3  1  0
 26 11  1  0
 24 19  1  0
  1 29  1  0
  1 30  1  0
  1 31  1  0
  4 32  1  0
  5 33  1  0
  7 34  1  0
 12 35  1  0
 13 36  1  0
 15 37  1  0
 18 38  1  0
 20 39  1  0
 21 40  1  0
 22 41  1  0
 24 42  1  0
 25 43  1  0
 26 44  1  0
 27 45  1  0
 28 46  1  0
M  END
>  <UniqueID>  (8) 
7

>  <SMILES>  (8) 
COc1ccc(NS(=O)(=O)c2ccc(NC(=S)Nc3cccnc3)cc2)cc1

>  <Energy>  (8) 
61.85990811231501

>  <Genealogy>  (8) 
COc1ccc(NS(=O)(=O)c2ccc(NC(=S)Nc3cccnc3)cc2)cc1 (3D coordinates assigned)
COc1ccc(NS(=O)(=O)c2ccc(NC(=S)Nc3cccnc3)cc2)cc1 (optimized conformer: 61.85990811231501 kcal/mol)

>  <smiles>  (8) 
COc1ccc(NS(=O)(=O)c2ccc(NC(=S)Nc3cccnc3)cc2)cc1

>  <score_type>  (8) 
oracle

>  <origin>  (8) 
adgpu

>  <m_score__min__energy>  (8) 
-9.5700000000000003

>  <m_primary>  (8) 
energy

$$$$
8:0
     RDKit          3D

 42 45  0  0  0  0  0  0  0  0999 V2000
   -5.3210   22.3020  -29.8780 O   0  0  0  0  0  0  0  0  0  0  0  0
   -4.1330   22.3090  -30.3020 C   0  0  0  0  0  0  0  0  0  0  0  0
   -3.7520   21.4060  -31.4120 C   0  0  0  0  0  0  0  0  0  0  0  0
   -4.7360   20.7130  -32.1420 C   0  0  0  0  0  0  0  0  0  0  0  0
   -4.3720   19.8560  -33.1840 C   0  0  0  0  0  0  0  0  0  0  0  0
   -3.0250   19.6880  -33.5150 C   0  0  0  0  0  0  0  0  0  0  0  0
   -2.6640   18.8330  -34.5490 O   0  0  0  0  0  0  0  0  0  0  0  0
   -2.0400   20.3840  -32.8040 C   0  0  0  0  0  0  0  0  0  0  0  0
   -2.4000   21.2440  -31.7610 C   0  0  0  0  0  0  0  0  0  0  0  0
   -3.1480   23.2000  -29.6560 C   0  0  0  0  0  0  0  0  0  0  0  0
   -3.0030   24.5500  -29.8970 C   0  0  0  0  0  0  0  0  0  0  0  0
   -3.7100   25.3070  -30.8240 O   0  0  0  0  0  0  0  0  0  0  0  0
   -2.0450   25.0180  -29.0310 C   0  0  0  0  0  0  0  0  0  0  0  0
   -1.6030   26.3330  -28.9610 O   0  0  0  0  0  0  0  0  0  0  0  0
   -1.5770   24.0140  -28.2590 N   0  0  0  0  0  0  0  0  0  0  0  0
   -0.5110   24.1220  -27.3010 C   0  0  0  0  0  0  0  0  0  0  0  0
   -0.7750   24.5450  -25.9880 C   0  0  0  0  0  0  0  0  0  0  0  0
    0.2630   24.6370  -25.0560 C   0  0  0  0  0  0  0  0  0  0  0  0
    1.5730   24.3110  -25.4250 C   0  0  0  0  0  0  0  0  0  0  0  0
    2.8630   24.4300  -24.2400 Cl  0  0  0  0  0  0  0  0  0  0  0  0
    1.8430   23.8910  -26.7350 C   0  0  0  0  0  0  0  0  0  0  0  0
    3.1410   23.5690  -27.1150 O   0  0  0  0  0  0  0  0  0  0  0  0
    0.8040   23.7960  -27.6670 C   0  0  0  0  0  0  0  0  0  0  0  0
   -2.2410   22.8910  -28.6380 C   0  0  0  0  0  0  0  0  0  0  0  0
   -2.0450   21.5530  -28.0340 C   0  0  0  0  0  0  0  0  0  0  0  0
   -3.1320   20.8600  -27.4760 C   0  0  0  0  0  0  0  0  0  0  0  0
   -2.9540   19.5770  -26.9500 C   0  0  0  0  0  0  0  0  0  0  0  0
   -1.6920   18.9780  -26.9780 C   0  0  0  0  0  0  0  0  0  0  0  0
   -0.6020   19.6700  -27.5150 C   0  0  0  0  0  0  0  0  0  0  0  0
   -0.7770   20.9530  -28.0390 C   0  0  0  0  0  0  0  0  0  0  0  0
   -5.7985   20.8469  -31.8906 H   0  0  0  0  0  0  0  0  0  0  0  0
   -5.1471   19.3128  -33.7445 H   0  0  0  0  0  0  0  0  0  0  0  0
   -0.9797   20.2542  -33.0663 H   0  0  0  0  0  0  0  0  0  0  0  0
   -1.6224   21.7954  -31.2121 H   0  0  0  0  0  0  0  0  0  0  0  0
   -1.8021   24.8048  -25.6919 H   0  0  0  0  0  0  0  0  0  0  0  0
    0.0492   24.9669  -24.0286 H   0  0  0  0  0  0  0  0  0  0  0  0
    1.0192   23.4636  -28.6933 H   0  0  0  0  0  0  0  0  0  0  0  0
   -4.1269   21.3286  -27.4528 H   0  0  0  0  0  0  0  0  0  0  0  0
   -3.8083   19.0386  -26.5137 H   0  0  0  0  0  0  0  0  0  0  0  0
   -1.5560   17.9625  -26.5778 H   0  0  0  0  0  0  0  0  0  0  0  0
    0.3942   19.2036  -27.5248 H   0  0  0  0  0  0  0  0  0  0  0  0
    0.0836   21.4954  -28.4575 H   0  0  0  0  0  0  0  0  0  0  0  0
  1  2  2  0
  2  3  1  0
  3  4  2  0
  4  5  1  0
  5  6  2  0
  6  7  1  0
  6  8  1  0
  8  9  2  0
  2 10  1  0
 10 11  1  0
 11 12  1  0
 11 13  2  0
 13 14  1  0
 13 15  1  0
 15 16  1  0
 16 17  2  0
 17 18  1  0
 18 19  2  0
 19 20  1  0
 19 21  1  0
 21 22  1  0
 21 23  2  0
 15 24  1  0
 24 25  1  0
 25 26  2  0
 26 27  1  0
 27 28  2  0
 28 29  1  0
 29 30  2  0
  9  3  1  0
 24 10  2  0
 30 25  1  0
 23 16  1  0
  4 31  1  0
  5 32  1  0
  8 33  1  0
  9 34  1  0
 17 35  1  0
 18 36  1  0
 23 37  1  0
 26 38  1  0
 27 39  1  0
 28 40  1  0
 29 41  1  0
 30 42  1  0
M  CHG  4   7  -1  12  -1  14  -1  22  -1
M  END
>  <UniqueID>  (9) 
8

>  <SMILES>  (9) 
O=C(c1ccc([O-])cc1)c1c([O-])c([O-])n(-c2ccc(Cl)c([O-])c2)c1-c1ccccc1

>  <Energy>  (9) 
91.7071264401288

>  <Genealogy>  (9) 
O=C(c1ccc([O-])cc1)c1c([O-])c([O-])n(-c2ccc(Cl)c([O-])c2)c1-c1ccccc1 (protonated)
O=C(c1ccc([O-])cc1)c1c([O-])c([O-])n(-c2ccc(Cl)c([O-])c2)c1-c1ccccc1 (3D coordinates assigned)
O=C(c1ccc([O-])cc1)c1c([O-])c([O-])n(-c2ccc(Cl)c([O-])c2)c1-c1ccccc1 (optimized conformer: 91.7071264401288 kcal/mol)

>  <smiles>  (9) 
O=C(c1ccc(O)cc1)c1c(O)c(O)n(-c2ccc(Cl)c(O)c2)c1-c1ccccc1

>  <score_type>  (9) 
oracle

>  <origin>  (9) 
adgpu

>  <m_score__min__energy>  (9) 
-13.98

>  <m_primary>  (9) 
energy

$$$$
9:0
     RDKit          3D

 43 45  0  0  0  0  0  0  0  0999 V2000
   -1.7990   24.9070  -26.8710 C   0  0  0  0  0  0  0  0  0  0  0  0
   -1.4300   24.9880  -28.3210 C   0  0  0  0  0  0  0  0  0  0  0  0
   -0.2460   24.7350  -28.6630 O   0  0  0  0  0  0  0  0  0  0  0  0
   -2.3930   25.3020  -29.3370 N   0  0  0  0  0  0  0  0  0  0  0  0
   -3.4410   24.4510  -29.8210 C   0  0  0  0  0  0  0  0  0  0  0  0
   -4.7760   24.8870  -29.8450 C   0  0  0  0  0  0  0  0  0  0  0  0
   -5.7840   24.0590  -30.3450 C   0  0  0  0  0  0  0  0  0  0  0  0
   -5.4760   22.7860  -30.8530 C   0  0  0  0  0  0  0  0  0  0  0  0
   -6.5490   21.9110  -31.3910 C   0  0  0  0  0  0  0  0  0  0  0  0
   -7.8810   22.3560  -31.4230 C   0  0  0  0  0  0  0  0  0  0  0  0
   -8.8860   21.5390  -31.9440 C   0  0  0  0  0  0  0  0  0  0  0  0
   -8.5740   20.2740  -32.4440 C   0  0  0  0  0  0  0  0  0  0  0  0
   -7.2550   19.8100  -32.4230 C   0  0  0  0  0  0  0  0  0  0  0  0
   -6.9780   18.5100  -32.9640 N   0  0  0  0  0  0  0  0  0  0  0  0
   -5.7810   18.1630  -34.1710 S   0  0  0  0  0  0  0  0  0  0  0  0
   -6.1180   18.9110  -35.4290 O   0  0  0  0  0  0  0  0  0  0  0  0
   -5.7930   16.6880  -34.4610 O   0  0  0  0  0  0  0  0  0  0  0  0
   -4.1920   18.6750  -33.6130 C   0  0  0  0  0  0  0  0  0  0  0  0
   -3.8320   20.0310  -33.6320 C   0  0  0  0  0  0  0  0  0  0  0  0
   -2.5590   20.4260  -33.2090 C   0  0  0  0  0  0  0  0  0  0  0  0
   -1.6420   19.4700  -32.7620 C   0  0  0  0  0  0  0  0  0  0  0  0
   -1.9970   18.1180  -32.7380 C   0  0  0  0  0  0  0  0  0  0  0  0
   -3.2690   17.7210  -33.1610 C   0  0  0  0  0  0  0  0  0  0  0  0
   -6.2460   20.6300  -31.8870 C   0  0  0  0  0  0  0  0  0  0  0  0
   -4.1340   22.3650  -30.8610 C   0  0  0  0  0  0  0  0  0  0  0  0
   -3.1220   23.1900  -30.3580 C   0  0  0  0  0  0  0  0  0  0  0  0
   -1.8040   22.7300  -30.3920 O   0  0  0  0  0  0  0  0  0  0  0  0
   -0.9090   25.1024  -26.2547 H   0  0  0  0  0  0  0  0  0  0  0  0
   -2.5720   25.6568  -26.6469 H   0  0  0  0  0  0  0  0  0  0  0  0
   -2.1868   23.9023  -26.6469 H   0  0  0  0  0  0  0  0  0  0  0  0
   -5.0298   25.8884  -29.4671 H   0  0  0  0  0  0  0  0  0  0  0  0
   -6.8276   24.4067  -30.3409 H   0  0  0  0  0  0  0  0  0  0  0  0
   -8.1336   23.3539  -31.0353 H   0  0  0  0  0  0  0  0  0  0  0  0
   -9.9272   21.8935  -31.9605 H   0  0  0  0  0  0  0  0  0  0  0  0
   -9.3706   19.6379  -32.8572 H   0  0  0  0  0  0  0  0  0  0  0  0
   -4.5529   20.7852  -33.9805 H   0  0  0  0  0  0  0  0  0  0  0  0
   -2.2789   21.4896  -33.2280 H   0  0  0  0  0  0  0  0  0  0  0  0
   -0.6410   19.7817  -32.4291 H   0  0  0  0  0  0  0  0  0  0  0  0
   -1.2752   17.3662  -32.3861 H   0  0  0  0  0  0  0  0  0  0  0  0
   -3.5467   16.6568  -33.1392 H   0  0  0  0  0  0  0  0  0  0  0  0
   -5.2086   20.2657  -31.8553 H   0  0  0  0  0  0  0  0  0  0  0  0
   -3.8771   21.3757  -31.2674 H   0  0  0  0  0  0  0  0  0  0  0  0
   -1.0280   23.2820  -30.0480 H   0  0  0  0  0  0  0  0  0  0  0  0
  1  2  1  0
  2  3  2  0
  2  4  1  0
  4  5  1  0
  5  6  2  0
  6  7  1  0
  7  8  2  0
  8  9  1  0
  9 10  2  0
 10 11  1  0
 11 12  2  0
 12 13  1  0
 13 14  1  0
 14 15  1  0
 15 16  2  0
 15 17  2  0
 15 18  1  0
 18 19  2  0
 19 20  1  0
 20 21  2  0
 21 22  1  0
 22 23  2  0
 13 24  2  0
  8 25  1  0
 25 26  2  0
 26 27  1  0
 26  5  1  0
 24  9  1  0
 23 18  1  0
  1 28  1  0
  1 29  1  0
  1 30  1  0
  6 31  1  0
  7 32  1  0
 10 33  1  0
 11 34  1  0
 12 35  1  0
 19 36  1  0
 20 37  1  0
 21 38  1  0
 22 39  1  0
 23 40  1  0
 24 41  1  0
 25 42  1  0
 27 43  1  0
M  CHG  2   4  -1  14  -1
M  END
>  <UniqueID>  (10) 
9

>  <SMILES>  (10) 
CC(=O)[N-]c1ccc(-c2cccc([N-]S(=O)(=O)c3ccccc3)c2)cc1O

>  <Energy>  (10) 
57.12947641716782

>  <Genealogy>  (10) 
CC(=O)[N-]c1ccc(-c2cccc([N-]S(=O)(=O)c3ccccc3)c2)cc1O (protonated)
CC(=O)[N-]c1ccc(-c2cccc([N-]S(=O)(=O)c3ccccc3)c2)cc1O (3D coordinates assigned)
CC(=O)[N-]c1ccc(-c2cccc([N-]S(=O)(=O)c3ccccc3)c2)cc1O (optimized conformer: 57.12947641716782 kcal/mol)

>  <smiles>  (10) 
CC(=O)Nc1ccc(-c2cccc(NS(=O)(=O)c3ccccc3)c2)cc1O

>  <score_type>  (10) 
oracle

>  <origin>  (10) 
adgpu

>  <m_score__min__energy>  (10) 
-11.130000000000001

>  <m_primary>  (10) 
energy

$$$$
10:0
     RDKit          3D

 39 40  0  0  0  0  0  0  0  0999 V2000
   -4.0960   21.5090  -32.8950 C   0  0  0  0  0  0  0  0  0  0  0  0
   -4.9240   21.0510  -31.8320 O   0  0  0  0  0  0  0  0  0  0  0  0
   -6.3260   20.9720  -31.8880 C   0  0  0  0  0  0  0  0  0  0  0  0
   -6.9800   19.8950  -32.5200 C   0  0  0  0  0  0  0  0  0  0  0  0
   -8.3730   19.8350  -32.5570 C   0  0  0  0  0  0  0  0  0  0  0  0
   -9.1310   20.8460  -31.9690 C   0  0  0  0  0  0  0  0  0  0  0  0
   -8.4990   21.9210  -31.3420 C   0  0  0  0  0  0  0  0  0  0  0  0
   -7.0920   21.9960  -31.2880 C   0  0  0  0  0  0  0  0  0  0  0  0
   -6.4250   23.1020  -30.6410 N   0  0  0  0  0  0  0  0  0  0  0  0
   -7.0150   24.4260  -30.4390 C   0  0  0  0  0  0  0  0  0  0  0  0
   -6.0310   25.3490  -29.7170 C   0  0  0  0  0  0  0  0  0  0  0  0
   -5.1660   24.5680  -28.8310 N   0  0  0  0  0  0  0  0  0  0  0  0
   -3.6780   24.1950  -29.6470 S   0  0  0  0  0  0  0  0  0  0  0  0
   -3.9070   24.1760  -31.1330 O   0  0  0  0  0  0  0  0  0  0  0  0
   -2.6630   25.2580  -29.3370 O   0  0  0  0  0  0  0  0  0  0  0  0
   -3.0610   22.6340  -29.1090 C   0  0  0  0  0  0  0  0  0  0  0  0
   -3.5070   22.0880  -27.8980 C   0  0  0  0  0  0  0  0  0  0  0  0
   -3.0470   20.8350  -27.4800 C   0  0  0  0  0  0  0  0  0  0  0  0
   -2.1450   20.1210  -28.2730 C   0  0  0  0  0  0  0  0  0  0  0  0
   -1.7020   20.6580  -29.4850 C   0  0  0  0  0  0  0  0  0  0  0  0
   -2.1600   21.9110  -29.9050 C   0  0  0  0  0  0  0  0  0  0  0  0
   -3.2048   22.0020  -32.4793 H   0  0  0  0  0  0  0  0  0  0  0  0
   -3.7869   20.6536  -33.5137 H   0  0  0  0  0  0  0  0  0  0  0  0
   -4.6563   22.2255  -33.5137 H   0  0  0  0  0  0  0  0  0  0  0  0
   -6.3869   19.0954  -32.9878 H   0  0  0  0  0  0  0  0  0  0  0  0
   -8.8737   18.9891  -33.0506 H   0  0  0  0  0  0  0  0  0  0  0  0
  -10.2295   20.7966  -31.9991 H   0  0  0  0  0  0  0  0  0  0  0  0
   -9.1046   22.7177  -30.8854 H   0  0  0  0  0  0  0  0  0  0  0  0
   -5.4550   22.9630  -30.2750 H   0  0  0  0  0  0  0  0  0  0  0  0
   -7.2688   24.8618  -31.4166 H   0  0  0  0  0  0  0  0  0  0  0  0
   -7.9203   24.3209  -29.8230 H   0  0  0  0  0  0  0  0  0  0  0  0
   -5.4122   25.8735  -30.4599 H   0  0  0  0  0  0  0  0  0  0  0  0
   -6.5953   26.0786  -29.1177 H   0  0  0  0  0  0  0  0  0  0  0  0
   -5.6380   23.6540  -28.6370 H   0  0  0  0  0  0  0  0  0  0  0  0
   -4.2208   22.6463  -27.2744 H   0  0  0  0  0  0  0  0  0  0  0  0
   -3.3955   20.4115  -26.5265 H   0  0  0  0  0  0  0  0  0  0  0  0
   -1.7834   19.1358  -27.9433 H   0  0  0  0  0  0  0  0  0  0  0  0
   -0.9926   20.0947  -30.1090 H   0  0  0  0  0  0  0  0  0  0  0  0
   -1.8132   22.3302  -30.8610 H   0  0  0  0  0  0  0  0  0  0  0  0
  1  2  1  0
  2  3  1  0
  3  4  2  0
  4  5  1  0
  5  6  2  0
  6  7  1  0
  7  8  2  0
  8  9  1  0
  9 10  1  0
 10 11  1  0
 11 12  1  0
 12 13  1  0
 13 14  2  0
 13 15  2  0
 13 16  1  0
 16 17  2  0
 17 18  1  0
 18 19  2  0
 19 20  1  0
 20 21  2  0
  8  3  1  0
 21 16  1  0
  1 22  1  0
  1 23  1  0
  1 24  1  0
  4 25  1  0
  5 26  1  0
  6 27  1  0
  7 28  1  0
  9 29  1  0
 10 30  1  0
 10 31  1  0
 11 32  1  0
 11 33  1  0
 12 34  1  0
 17 35  1  0
 18 36  1  0
 19 37  1  0
 20 38  1  0
 21 39  1  0
M  END
>  <UniqueID>  (11) 
10

>  <SMILES>  (11) 
COc1ccccc1NCCNS(=O)(=O)c1ccccc1

>  <Energy>  (11) 
34.09490413155618

>  <Genealogy>  (11) 
COc1ccccc1NCCNS(=O)(=O)c1ccccc1 (3D coordinates assigned)
COc1ccccc1NCCNS(=O)(=O)c1ccccc1 (optimized conformer: 34.09490413155618 kcal/mol)

>  <smiles>  (11) 
COc1ccccc1NCCNS(=O)(=O)c1ccccc1

>  <score_type>  (11) 
oracle

>  <origin>  (11) 
adgpu

>  <m_score__min__energy>  (11) 
-8.1799999999999997

>  <m_primary>  (11) 
energy

$$$$
11:0
     RDKit          3D

 73 77  0  0  0  0  0  0  0  0999 V2000
   -5.3620   25.6840  -30.1820 C   0  0  0  0  0  0  0  0  0  0  0  0
   -4.0260   25.2840  -30.4730 O   0  0  0  0  0  0  0  0  0  0  0  0
   -3.4790   24.0350  -30.1500 C   0  0  0  0  0  0  0  0  0  0  0  0
   -2.1650   23.9060  -29.6510 C   0  0  0  0  0  0  0  0  0  0  0  0
   -1.6370   22.6460  -29.3580 C   0  0  0  0  0  0  0  0  0  0  0  0
   -2.4110   21.4940  -29.5640 C   0  0  0  0  0  0  0  0  0  0  0  0
   -1.9200   20.1800  -29.2770 N   0  0  0  0  0  0  0  0  0  0  0  0
   -0.3410   19.7800  -28.6870 S   0  0  0  0  0  0  0  0  0  0  0  0
    0.6340   20.8920  -28.9620 O   0  0  0  0  0  0  0  0  0  0  0  0
   -0.4300   19.5570  -27.2020 O   0  0  0  0  0  0  0  0  0  0  0  0
    0.2130   18.2990  -29.4910 C   0  0  0  0  0  0  0  0  0  0  0  0
    0.3210   17.1280  -28.7150 C   0  0  0  0  0  0  0  0  0  0  0  0
    0.7090   15.9200  -29.2910 C   0  0  0  0  0  0  0  0  0  0  0  0
    1.0000   15.8560  -30.6530 C   0  0  0  0  0  0  0  0  0  0  0  0
    0.9150   17.0080  -31.4410 C   0  0  0  0  0  0  0  0  0  0  0  0
    0.5260   18.2410  -30.8810 C   0  0  0  0  0  0  0  0  0  0  0  0
    0.3870   19.6370  -31.9720 S   0  0  0  0  0  0  0  0  0  0  0  0
    1.7610   20.0880  -32.3800 O   0  0  0  0  0  0  0  0  0  0  0  0
   -0.2830   20.7930  -31.2870 O   0  0  0  0  0  0  0  0  0  0  0  0
   -0.5320   19.1750  -33.3730 N   0  0  0  0  0  0  0  0  0  0  0  0
   -1.9610   19.1300  -33.4270 C   0  0  0  0  0  0  0  0  0  0  0  0
   -2.7070   20.3050  -33.2470 C   0  0  0  0  0  0  0  0  0  0  0  0
   -4.0980   20.2650  -33.2620 C   0  0  0  0  0  0  0  0  0  0  0  0
   -4.7700   19.0510  -33.4420 C   0  0  0  0  0  0  0  0  0  0  0  0
   -4.0390   17.8570  -33.6150 C   0  0  0  0  0  0  0  0  0  0  0  0
   -2.6190   17.8920  -33.5780 C   0  0  0  0  0  0  0  0  0  0  0  0
   -1.8130   16.6630  -33.7140 C   0  0  0  0  0  0  0  0  0  0  0  0
   -1.7210   15.8540  -32.7530 O   0  0  0  0  0  0  0  0  0  0  0  0
   -1.2020   16.3600  -34.9260 O   0  0  0  0  0  0  0  0  0  0  0  0
   -4.8230   16.6200  -33.9850 C   0  0  0  0  0  0  0  0  0  0  0  0
   -6.0700   16.5050  -33.1010 C   0  0  0  0  0  0  0  0  0  0  0  0
   -6.9490   17.7760  -33.1000 C   0  0  0  0  0  0  0  0  0  0  0  0
   -6.2670   19.0540  -33.6240 C   0  0  0  0  0  0  0  0  0  0  0  0
   -3.7160   21.6180  -30.0540 C   0  0  0  0  0  0  0  0  0  0  0  0
   -4.2630   22.8770  -30.3430 C   0  0  0  0  0  0  0  0  0  0  0  0
   -5.6270   22.9720  -30.8030 N   0  0  0  0  0  0  0  0  0  0  0  0
   -6.7300   22.7840  -29.8450 C   0  0  0  0  0  0  0  0  0  0  0  0
   -7.9890   22.2850  -30.5610 C   0  0  0  0  0  0  0  0  0  0  0  0
   -7.5980   21.3060  -31.5910 N   0  0  0  0  0  0  0  0  0  0  0  0
   -8.7790   20.5910  -32.1040 C   0  0  0  0  0  0  0  0  0  0  0  0
   -6.8640   21.9530  -32.7100 C   0  0  0  0  0  0  0  0  0  0  0  0
   -5.9250   23.0890  -32.2370 C   0  0  0  0  0  0  0  0  0  0  0  0
   -5.5029   25.7262  -29.0919 H   0  0  0  0  0  0  0  0  0  0  0  0
   -5.5497   26.6777  -30.6147 H   0  0  0  0  0  0  0  0  0  0  0  0
   -6.0649   24.9569  -30.6147 H   0  0  0  0  0  0  0  0  0  0  0  0
   -1.5515   24.8050  -29.4914 H   0  0  0  0  0  0  0  0  0  0  0  0
   -0.6133   22.5571  -28.9654 H   0  0  0  0  0  0  0  0  0  0  0  0
    0.0958   17.1680  -27.6390 H   0  0  0  0  0  0  0  0  0  0  0  0
    0.7858   15.0153  -28.6700 H   0  0  0  0  0  0  0  0  0  0  0  0
    1.2965   14.8993  -31.1077 H   0  0  0  0  0  0  0  0  0  0  0  0
    1.1552   16.9508  -32.5129 H   0  0  0  0  0  0  0  0  0  0  0  0
   -2.1892   21.2632  -33.0932 H   0  0  0  0  0  0  0  0  0  0  0  0
   -4.6729   21.1937  -33.1315 H   0  0  0  0  0  0  0  0  0  0  0  0
   -5.1289   16.6847  -35.0396 H   0  0  0  0  0  0  0  0  0  0  0  0
   -4.1903   15.7330  -33.8335 H   0  0  0  0  0  0  0  0  0  0  0  0
   -6.6772   15.6629  -33.4646 H   0  0  0  0  0  0  0  0  0  0  0  0
   -5.7202   16.3548  -32.0690 H   0  0  0  0  0  0  0  0  0  0  0  0
   -7.8297   17.5795  -33.7290 H   0  0  0  0  0  0  0  0  0  0  0  0
   -7.1926   17.9741  -32.0457 H   0  0  0  0  0  0  0  0  0  0  0  0
   -6.4877   19.1522  -34.6972 H   0  0  0  0  0  0  0  0  0  0  0  0
   -6.6637   19.8971  -33.0394 H   0  0  0  0  0  0  0  0  0  0  0  0
   -4.3221   20.7143  -30.2150 H   0  0  0  0  0  0  0  0  0  0  0  0
   -6.4286   22.0455  -29.0875 H   0  0  0  0  0  0  0  0  0  0  0  0
   -6.9533   23.7499  -29.3683 H   0  0  0  0  0  0  0  0  0  0  0  0
   -8.6619   21.8068  -29.8340 H   0  0  0  0  0  0  0  0  0  0  0  0
   -8.5098   23.1320  -31.0315 H   0  0  0  0  0  0  0  0  0  0  0  0
   -9.3820   20.2259  -31.2596 H   0  0  0  0  0  0  0  0  0  0  0  0
   -9.3837   21.2748  -32.7178 H   0  0  0  0  0  0  0  0  0  0  0  0
   -8.4534   19.7382  -32.7178 H   0  0  0  0  0  0  0  0  0  0  0  0
   -6.2605   21.1891  -33.2221 H   0  0  0  0  0  0  0  0  0  0  0  0
   -7.6122   22.4007  -33.3806 H   0  0  0  0  0  0  0  0  0  0  0  0
   -4.9840   23.0358  -32.8042 H   0  0  0  0  0  0  0  0  0  0  0  0
   -6.4292   24.0512  -32.4098 H   0  0  0  0  0  0  0  0  0  0  0  0
  1  2  1  0
  2  3  1  0
  3  4  2  0
  4  5  1  0
  5  6  2  0
  6  7  1  0
  7  8  1  0
  8  9  2  0
  8 10  2  0
  8 11  1  0
 11 12  2  0
 12 13  1  0
 13 14  2  0
 14 15  1  0
 15 16  2  0
 16 17  1  0
 17 18  2  0
 17 19  2  0
 17 20  1  0
 20 21  1  0
 21 22  2  0
 22 23  1  0
 23 24  2  0
 24 25  1  0
 25 26  2  0
 26 27  1  0
 27 28  2  0
 27 29  1  0
 25 30  1  0
 30 31  1  0
 31 32  1  0
 32 33  1  0
  6 34  1  0
 34 35  2  0
 35 36  1  0
 36 37  1  0
 37 38  1  0
 38 39  1  0
 39 40  1  0
 39 41  1  0
 41 42  1  0
 35  3  1  0
 42 36  1  0
 16 11  1  0
 26 21  1  0
 33 24  1  0
  1 43  1  0
  1 44  1  0
  1 45  1  0
  4 46  1  0
  5 47  1  0
 12 48  1  0
 13 49  1  0
 14 50  1  0
 15 51  1  0
 22 52  1  0
 23 53  1  0
 30 54  1  0
 30 55  1  0
 31 56  1  0
 31 57  1  0
 32 58  1  0
 32 59  1  0
 33 60  1  0
 33 61  1  0
 34 62  1  0
 37 63  1  0
 37 64  1  0
 38 65  1  0
 38 66  1  0
 40 67  1  0
 40 68  1  0
 40 69  1  0
 41 70  1  0
 41 71  1  0
 42 72  1  0
 42 73  1  0
M  CHG  3   7  -1  20  -1  29  -1
M  END
>  <UniqueID>  (12) 
11

>  <SMILES>  (12) 
COc1ccc([N-]S(=O)(=O)c2ccccc2S(=O)(=O)[N-]c2ccc3c(c2C(=O)[O-])CCCC3)cc1N1CCN(C)CC1

>  <Energy>  (12) 
112.6789538379422

>  <Genealogy>  (12) 
COc1ccc([N-]S(=O)(=O)c2ccccc2S(=O)(=O)[N-]c2ccc3c(c2C(=O)[O-])CCCC3)cc1N1CCN(C)CC1 (protonated)
COc1ccc([N-]S(=O)(=O)c2ccccc2S(=O)(=O)[N-]c2ccc3c(c2C(=O)[O-])CCCC3)cc1N1CCN(C)CC1 (3D coordinates assigned)
COc1ccc([N-]S(=O)(=O)c2ccccc2S(=O)(=O)[N-]c2ccc3c(c2C(=O)[O-])CCCC3)cc1N1CCN(C)CC1 (nonaromatic ring conformer: 112.6789538379422 kcal/mol)

>  <smiles>  (12) 
COc1ccc(NS(=O)(=O)c2ccccc2S(=O)(=O)Nc2ccc3c(c2C(=O)O)CCCC3)cc1N1CCN(C)CC1

>  <score_type>  (12) 
oracle

>  <origin>  (12) 
adgpu

>  <m_score__min__energy>  (12) 
-13.74

>  <m_primary>  (12) 
energy

$$$$
12:0
     RDKit          3D

 45 48  0  0  0  0  0  0  0  0999 V2000
   -5.7130   17.6310  -34.9320 C   0  0  0  0  0  0  0  0  0  0  0  0
   -5.1960   17.9140  -33.6350 O   0  0  0  0  0  0  0  0  0  0  0  0
   -4.7500   19.1780  -33.2170 C   0  0  0  0  0  0  0  0  0  0  0  0
   -3.4140   19.5900  -33.3700 C   0  0  0  0  0  0  0  0  0  0  0  0
   -3.0160   20.8590  -32.9440 C   0  0  0  0  0  0  0  0  0  0  0  0
   -3.9380   21.7470  -32.3810 C   0  0  0  0  0  0  0  0  0  0  0  0
   -3.4620   23.0340  -31.9560 N   0  0  0  0  0  0  0  0  0  0  0  0
   -3.6070   23.7640  -30.3850 S   0  0  0  0  0  0  0  0  0  0  0  0
   -4.7960   23.1510  -29.6980 O   0  0  0  0  0  0  0  0  0  0  0  0
   -3.8430   25.2440  -30.4740 O   0  0  0  0  0  0  0  0  0  0  0  0
   -2.1560   23.4340  -29.4420 C   0  0  0  0  0  0  0  0  0  0  0  0
   -1.6900   22.1150  -29.2500 C   0  0  0  0  0  0  0  0  0  0  0  0
   -0.5170   21.8700  -28.5020 C   0  0  0  0  0  0  0  0  0  0  0  0
    0.2040   22.9360  -27.9380 C   0  0  0  0  0  0  0  0  0  0  0  0
   -0.2800   24.2250  -28.1430 C   0  0  0  0  0  0  0  0  0  0  0  0
    0.2520   25.3800  -27.7080 N   0  0  0  0  0  0  0  0  0  0  0  0
   -0.6240   26.2850  -28.2090 C   0  0  0  0  0  0  0  0  0  0  0  0
   -0.4960   27.5240  -28.0350 O   0  0  0  0  0  0  0  0  0  0  0  0
   -1.6180   25.7530  -28.8980 O   0  0  0  0  0  0  0  0  0  0  0  0
   -1.4110   24.4640  -28.8650 C   0  0  0  0  0  0  0  0  0  0  0  0
   -5.2710   21.3350  -32.2230 C   0  0  0  0  0  0  0  0  0  0  0  0
   -5.6730   20.0550  -32.6290 C   0  0  0  0  0  0  0  0  0  0  0  0
   -7.0250   19.6310  -32.4150 N   0  0  0  0  0  0  0  0  0  0  0  0
   -7.2840   18.2720  -31.9440 C   0  0  0  0  0  0  0  0  0  0  0  0
   -8.6680   18.2000  -31.2930 C   0  0  0  0  0  0  0  0  0  0  0  0
   -9.6570   18.7500  -32.1440 O   0  0  0  0  0  0  0  0  0  0  0  0
   -9.4150   20.1330  -32.3360 C   0  0  0  0  0  0  0  0  0  0  0  0
   -8.1010   20.3480  -33.0910 C   0  0  0  0  0  0  0  0  0  0  0  0
   -6.6743   17.1048  -34.8368 H   0  0  0  0  0  0  0  0  0  0  0  0
   -5.8632   18.5727  -35.4803 H   0  0  0  0  0  0  0  0  0  0  0  0
   -5.0007   16.9970  -35.4803 H   0  0  0  0  0  0  0  0  0  0  0  0
   -2.6798   18.9101  -33.8269 H   0  0  0  0  0  0  0  0  0  0  0  0
   -1.9646   21.1637  -33.0526 H   0  0  0  0  0  0  0  0  0  0  0  0
   -2.2449   21.2714  -29.6864 H   0  0  0  0  0  0  0  0  0  0  0  0
   -0.1655   20.8374  -28.3601 H   0  0  0  0  0  0  0  0  0  0  0  0
    1.1194   22.7581  -27.3546 H   0  0  0  0  0  0  0  0  0  0  0  0
   -6.0054   22.0220  -31.7772 H   0  0  0  0  0  0  0  0  0  0  0  0
   -7.2453   17.5773  -32.7960 H   0  0  0  0  0  0  0  0  0  0  0  0
   -6.5205   17.9945  -31.2024 H   0  0  0  0  0  0  0  0  0  0  0  0
   -8.9147   17.1479  -31.0873 H   0  0  0  0  0  0  0  0  0  0  0  0
   -8.6470   18.7800  -30.3586 H   0  0  0  0  0  0  0  0  0  0  0  0
  -10.2416   20.5678  -32.9171 H   0  0  0  0  0  0  0  0  0  0  0  0
   -9.3442   20.6214  -31.3529 H   0  0  0  0  0  0  0  0  0  0  0  0
   -8.2034   19.9701  -34.1190 H   0  0  0  0  0  0  0  0  0  0  0  0
   -7.8652   21.4222  -33.1153 H   0  0  0  0  0  0  0  0  0  0  0  0
  1  2  1  0
  2  3  1  0
  3  4  2  0
  4  5  1  0
  5  6  2  0
  6  7  1  0
  7  8  1  0
  8  9  2  0
  8 10  2  0
  8 11  1  0
 11 12  2  0
 12 13  1  0
 13 14  2  0
 14 15  1  0
 15 16  1  0
 16 17  1  0
 17 18  2  0
 17 19  1  0
 19 20  1  0
  6 21  1  0
 21 22  2  0
 22 23  1  0
 23 24  1  0
 24 25  1  0
 25 26  1  0
 26 27  1  0
 27 28  1  0
 22  3  1  0
 28 23  1  0
 20 11  1  0
 20 15  2  0
  1 29  1  0
  1 30  1  0
  1 31  1  0
  4 32  1  0
  5 33  1  0
 12 34  1  0
 13 35  1  0
 14 36  1  0
 21 37  1  0
 24 38  1  0
 24 39  1  0
 25 40  1  0
 25 41  1  0
 27 42  1  0
 27 43  1  0
 28 44  1  0
 28 45  1  0
M  CHG  2   7  -1  16  -1
M  END
>  <UniqueID>  (13) 
12

>  <SMILES>  (13) 
COc1ccc([N-]S(=O)(=O)c2cccc3[n-]c(=O)oc23)cc1N1CCOCC1

>  <Energy>  (13) 
97.5778182698349

>  <Genealogy>  (13) 
COc1ccc([N-]S(=O)(=O)c2cccc3[n-]c(=O)oc23)cc1N1CCOCC1 (protonated)
COc1ccc([N-]S(=O)(=O)c2cccc3[n-]c(=O)oc23)cc1N1CCOCC1 (3D coordinates assigned)
COc1ccc([N-]S(=O)(=O)c2cccc3[n-]c(=O)oc23)cc1N1CCOCC1 (nonaromatic ring conformer: 97.5778182698349 kcal/mol)

>  <smiles>  (13) 
COc1ccc(NS(=O)(=O)c2cccc3[nH]c(=O)oc23)cc1N1CCOCC1

>  <score_type>  (13) 
oracle

>  <origin>  (13) 
adgpu

>  <m_score__min__energy>  (13) 
-11.18

>  <m_primary>  (13) 
energy

$$$$
13:0
     RDKit          3D

 34 36  0  0  0  0  0  0  0  0999 V2000
   -3.4900   25.3020  -30.4580 O   0  0  0  0  0  0  0  0  0  0  0  0
   -4.4950   24.4040  -30.8000 C   0  0  0  0  0  0  0  0  0  0  0  0
   -5.8260   24.8260  -30.7780 C   0  0  0  0  0  0  0  0  0  0  0  0
   -6.8520   23.9460  -31.1200 C   0  0  0  0  0  0  0  0  0  0  0  0
   -6.5630   22.6210  -31.4940 C   0  0  0  0  0  0  0  0  0  0  0  0
   -7.6610   21.6880  -31.8520 C   0  0  0  0  0  0  0  0  0  0  0  0
   -9.0310   21.9060  -31.6950 C   0  0  0  0  0  0  0  0  0  0  0  0
   -9.8230   20.8360  -32.1330 C   0  0  0  0  0  0  0  0  0  0  0  0
   -9.0950   19.7700  -32.6390 C   0  0  0  0  0  0  0  0  0  0  0  0
   -7.4650   20.1610  -32.5420 S   0  0  0  0  0  0  0  0  0  0  0  0
   -5.2180   22.2030  -31.5250 C   0  0  0  0  0  0  0  0  0  0  0  0
   -4.1820   23.0830  -31.1690 C   0  0  0  0  0  0  0  0  0  0  0  0
   -2.7480   22.6120  -31.1880 C   0  0  0  0  0  0  0  0  0  0  0  0
   -2.0150   23.1400  -30.0360 N   0  0  0  0  0  0  0  0  0  0  0  0
   -1.7470   22.3950  -28.8310 C   0  0  0  0  0  0  0  0  0  0  0  0
   -0.8460   22.8580  -27.8540 C   0  0  0  0  0  0  0  0  0  0  0  0
   -0.6050   22.1060  -26.7000 C   0  0  0  0  0  0  0  0  0  0  0  0
   -1.2650   20.8900  -26.5060 C   0  0  0  0  0  0  0  0  0  0  0  0
   -2.1700   20.4270  -27.4640 C   0  0  0  0  0  0  0  0  0  0  0  0
   -2.4120   21.1760  -28.6190 C   0  0  0  0  0  0  0  0  0  0  0  0
   -6.0666   25.8597  -30.4889 H   0  0  0  0  0  0  0  0  0  0  0  0
   -7.8963   24.2907  -31.0972 H   0  0  0  0  0  0  0  0  0  0  0  0
   -9.4490   22.8296  -31.2682 H   0  0  0  0  0  0  0  0  0  0  0  0
  -10.9217   20.8414  -32.0802 H   0  0  0  0  0  0  0  0  0  0  0  0
   -9.5123   18.8323  -33.0347 H   0  0  0  0  0  0  0  0  0  0  0  0
   -4.9758   21.1748  -31.8318 H   0  0  0  0  0  0  0  0  0  0  0  0
   -2.7285   21.5127  -31.1555 H   0  0  0  0  0  0  0  0  0  0  0  0
   -2.2685   22.9750  -32.1091 H   0  0  0  0  0  0  0  0  0  0  0  0
   -1.7310   24.1440  -30.0720 H   0  0  0  0  0  0  0  0  0  0  0  0
   -0.3281   23.8175  -27.9991 H   0  0  0  0  0  0  0  0  0  0  0  0
    0.1051   22.4723  -25.9440 H   0  0  0  0  0  0  0  0  0  0  0  0
   -1.0721   20.2976  -25.5994 H   0  0  0  0  0  0  0  0  0  0  0  0
   -2.6929   19.4717  -27.3092 H   0  0  0  0  0  0  0  0  0  0  0  0
   -3.1288   20.8080  -29.3678 H   0  0  0  0  0  0  0  0  0  0  0  0
  1  2  1  0
  2  3  2  0
  3  4  1  0
  4  5  2  0
  5  6  1  0
  6  7  2  0
  7  8  1  0
  8  9  2  0
  9 10  1  0
  5 11  1  0
 11 12  2  0
 12 13  1  0
 13 14  1  0
 14 15  1  0
 15 16  2  0
 16 17  1  0
 17 18  2  0
 18 19  1  0
 19 20  2  0
 12  2  1  0
 20 15  1  0
 10  6  1  0
  3 21  1  0
  4 22  1  0
  7 23  1  0
  8 24  1  0
  9 25  1  0
 11 26  1  0
 13 27  1  0
 13 28  1  0
 14 29  1  0
 16 30  1  0
 17 31  1  0
 18 32  1  0
 19 33  1  0
 20 34  1  0
M  CHG  1   1  -1
M  END
>  <UniqueID>  (14) 
13

>  <SMILES>  (14) 
[O-]c1ccc(-c2cccs2)cc1CNc1ccccc1

>  <Energy>  (14) 
64.70372983748568

>  <Genealogy>  (14) 
[O-]c1ccc(-c2cccs2)cc1CNc1ccccc1 (protonated)
[O-]c1ccc(-c2cccs2)cc1CNc1ccccc1 (3D coordinates assigned)
[O-]c1ccc(-c2cccs2)cc1CNc1ccccc1 (optimized conformer: 64.70372983748568 kcal/mol)

>  <smiles>  (14) 
Oc1ccc(-c2cccs2)cc1CNc1ccccc1

>  <score_type>  (14) 
oracle

>  <origin>  (14) 
adgpu

>  <m_score__min__energy>  (14) 
-10.74

>  <m_primary>  (14) 
energy

$$$$
14:0
     RDKit          3D

 30 31  0  0  0  0  0  0  0  0999 V2000
   -6.8510   25.2340  -29.7170 C   0  0  0  0  0  0  0  0  0  0  0  0
   -5.5250   25.0820  -29.7240 C   0  0  0  0  0  0  0  0  0  0  0  0
   -4.8910   23.7530  -30.0230 C   0  0  0  0  0  0  0  0  0  0  0  0
   -4.5560   23.6510  -31.4050 O   0  0  0  0  0  0  0  0  0  0  0  0
   -4.3320   22.4360  -32.0650 C   0  0  0  0  0  0  0  0  0  0  0  0
   -3.1080   21.9230  -32.4530 C   0  0  0  0  0  0  0  0  0  0  0  0
   -3.4240   20.6920  -32.9970 C   0  0  0  0  0  0  0  0  0  0  0  0
   -2.4550   19.7390  -33.6210 C   0  0  0  0  0  0  0  0  0  0  0  0
   -3.1490   18.6910  -34.1980 F   0  0  0  0  0  0  0  0  0  0  0  0
   -1.5940   19.2400  -32.6620 F   0  0  0  0  0  0  0  0  0  0  0  0
   -1.7170   20.3890  -34.5950 F   0  0  0  0  0  0  0  0  0  0  0  0
   -4.7570   20.4940  -32.9560 N   0  0  0  0  0  0  0  0  0  0  0  0
   -5.3060   21.5590  -32.3910 N   0  0  0  0  0  0  0  0  0  0  0  0
   -6.7200   21.6900  -32.1590 C   0  0  0  0  0  0  0  0  0  0  0  0
   -7.5000   20.5430  -31.9300 C   0  0  0  0  0  0  0  0  0  0  0  0
   -8.8760   20.6540  -31.7110 C   0  0  0  0  0  0  0  0  0  0  0  0
   -9.4900   21.9080  -31.7320 C   0  0  0  0  0  0  0  0  0  0  0  0
   -8.7280   23.0540  -31.9760 C   0  0  0  0  0  0  0  0  0  0  0  0
   -7.3510   22.9480  -32.1940 C   0  0  0  0  0  0  0  0  0  0  0  0
   -7.2907   26.2176  -29.4951 H   0  0  0  0  0  0  0  0  0  0  0  0
   -7.5041   24.3757  -29.9332 H   0  0  0  0  0  0  0  0  0  0  0  0
   -4.8827   25.9481  -29.5063 H   0  0  0  0  0  0  0  0  0  0  0  0
   -3.9763   23.6464  -29.4214 H   0  0  0  0  0  0  0  0  0  0  0  0
   -5.6079   22.9566  -29.7744 H   0  0  0  0  0  0  0  0  0  0  0  0
   -2.1153   22.3860  -32.3524 H   0  0  0  0  0  0  0  0  0  0  0  0
   -7.0241   19.5513  -31.9231 H   0  0  0  0  0  0  0  0  0  0  0  0
   -9.4763   19.7519  -31.5218 H   0  0  0  0  0  0  0  0  0  0  0  0
  -10.5725   21.9938  -31.5566 H   0  0  0  0  0  0  0  0  0  0  0  0
   -9.2126   24.0413  -31.9966 H   0  0  0  0  0  0  0  0  0  0  0  0
   -6.7575   23.8523  -32.3939 H   0  0  0  0  0  0  0  0  0  0  0  0
  1  2  2  0
  2  3  1  0
  3  4  1  0
  4  5  1  0
  5  6  2  0
  6  7  1  0
  7  8  1  0
  8  9  1  0
  8 10  1  0
  8 11  1  0
  7 12  2  0
 12 13  1  0
 13 14  1  0
 14 15  2  0
 15 16  1  0
 16 17  2  0
 17 18  1  0
 18 19  2  0
 13  5  1  0
 19 14  1  0
  1 20  1  0
  1 21  1  0
  2 22  1  0
  3 23  1  0
  3 24  1  0
  6 25  1  0
 15 26  1  0
 16 27  1  0
 17 28  1  0
 18 29  1  0
 19 30  1  0
M  END
>  <UniqueID>  (15) 
14

>  <SMILES>  (15) 
C=CCOc1cc(C(F)(F)F)nn1-c1ccccc1

>  <Energy>  (15) 
59.45255793060859

>  <Genealogy>  (15) 
C=CCOc1cc(C(F)(F)F)nn1-c1ccccc1 (3D coordinates assigned)
C=CCOc1cc(C(F)(F)F)nn1-c1ccccc1 (optimized conformer: 59.45255793060859 kcal/mol)

>  <smiles>  (15) 
C=CCOc1cc(C(F)(F)F)nn1-c1ccccc1

>  <score_type>  (15) 
oracle

>  <origin>  (15) 
adgpu

>  <m_score__min__energy>  (15) 
-5.9699999999999998

>  <m_primary>  (15) 
energy

$$$$
15:0
     RDKit          3D

 71 75  0  0  0  0  0  0  0  0999 V2000
   -2.4874   16.2262  -32.5637 H   0  0  0  0  0  0  0  0  0  0  0  0
   -2.5770   17.3140  -32.7000 C   0  0  0  0  0  0  0  0  0  0  0  0
   -1.7000   18.1480  -32.0830 N   0  0  0  0  0  0  0  0  0  0  0  0
   -1.7570   19.5010  -32.2230 C   0  0  0  0  0  0  0  0  0  0  0  0
   -0.9110   20.2670  -31.5920 N   0  0  0  0  0  0  0  0  0  0  0  0
    0.1110   19.8170  -30.6910 C   0  0  0  0  0  0  0  0  0  0  0  0
    1.4270   19.7380  -31.1670 C   0  0  0  0  0  0  0  0  0  0  0  0
    1.6490   20.0265  -32.2050 H   0  0  0  0  0  0  0  0  0  0  0  0
    2.4580   19.2970  -30.3370 C   0  0  0  0  0  0  0  0  0  0  0  0
    3.4862   19.2346  -30.7230 H   0  0  0  0  0  0  0  0  0  0  0  0
    2.1850   18.9350  -29.0170 C   0  0  0  0  0  0  0  0  0  0  0  0
    2.9959   18.5746  -28.3669 H   0  0  0  0  0  0  0  0  0  0  0  0
    0.8830   19.0300  -28.5210 C   0  0  0  0  0  0  0  0  0  0  0  0
    0.6715   18.7348  -27.4827 H   0  0  0  0  0  0  0  0  0  0  0  0
   -0.1570   19.4990  -29.3370 C   0  0  0  0  0  0  0  0  0  0  0  0
   -1.7850   19.7300  -28.5990 S   0  0  0  0  0  0  0  0  0  0  0  0
   -1.7820   21.5070  -28.8800 C   0  0  0  0  0  0  0  0  0  0  0  0
   -2.9360   22.1010  -29.4090 C   0  0  0  0  0  0  0  0  0  0  0  0
   -3.7887   21.4693  -29.6987 H   0  0  0  0  0  0  0  0  0  0  0  0
   -3.0160   23.4890  -29.5730 C   0  0  0  0  0  0  0  0  0  0  0  0
   -4.5130   24.2170  -30.1550 S   0  0  0  0  0  0  0  0  0  0  0  0
   -5.2060   24.8990  -29.0080 O   0  0  0  0  0  0  0  0  0  0  0  0
   -4.2240   25.2440  -31.2130 O   0  0  0  0  0  0  0  0  0  0  0  0
   -5.5300   22.9530  -30.8420 C   0  0  0  0  0  0  0  0  0  0  0  0
   -4.9480   21.7530  -31.2670 C   0  0  0  0  0  0  0  0  0  0  0  0
   -3.8607   21.6105  -31.1800 H   0  0  0  0  0  0  0  0  0  0  0  0
   -5.7420   20.7360  -31.8010 C   0  0  0  0  0  0  0  0  0  0  0  0
   -5.2755   19.7952  -32.1284 H   0  0  0  0  0  0  0  0  0  0  0  0
   -7.1330   20.9040  -31.9240 C   0  0  0  0  0  0  0  0  0  0  0  0
   -7.9650   19.7870  -32.4980 C   0  0  0  0  0  0  0  0  0  0  0  0
   -8.4036   19.1982  -31.6789 H   0  0  0  0  0  0  0  0  0  0  0  0
   -8.7698   20.2101  -33.1171 H   0  0  0  0  0  0  0  0  0  0  0  0
   -7.3292   19.1371  -33.1171 H   0  0  0  0  0  0  0  0  0  0  0  0
   -7.7270   22.1160  -31.4930 C   0  0  0  0  0  0  0  0  0  0  0  0
   -9.2130   22.3410  -31.6050 C   0  0  0  0  0  0  0  0  0  0  0  0
   -9.6507   22.4073  -30.5980 H   0  0  0  0  0  0  0  0  0  0  0  0
   -9.4020   23.2780  -32.1494 H   0  0  0  0  0  0  0  0  0  0  0  0
   -9.6709   21.5019  -32.1494 H   0  0  0  0  0  0  0  0  0  0  0  0
   -6.9140   23.1310  -30.9560 C   0  0  0  0  0  0  0  0  0  0  0  0
   -7.3706   24.0744  -30.6222 H   0  0  0  0  0  0  0  0  0  0  0  0
   -1.9210   24.2910  -29.2150 C   0  0  0  0  0  0  0  0  0  0  0  0
   -1.9840   25.6740  -29.3400 O   0  0  0  0  0  0  0  0  0  0  0  0
   -0.7530   23.7000  -28.7240 C   0  0  0  0  0  0  0  0  0  0  0  0
    0.1078   24.3324  -28.4612 H   0  0  0  0  0  0  0  0  0  0  0  0
   -0.6670   22.3100  -28.5630 C   0  0  0  0  0  0  0  0  0  0  0  0
    0.5630   21.7340  -28.1080 N   0  0  0  0  0  0  0  0  0  0  0  0
    1.4880   22.1460  -28.3640 H   0  0  0  0  0  0  0  0  0  0  0  0
    0.5570   20.9550  -27.4130 H   0  0  0  0  0  0  0  0  0  0  0  0
   -2.7260   20.0690  -33.0760 C   0  0  0  0  0  0  0  0  0  0  0  0
   -2.8250   21.5590  -33.2830 C   0  0  0  0  0  0  0  0  0  0  0  0
   -2.8585   22.0635  -32.3061 H   0  0  0  0  0  0  0  0  0  0  0  0
   -1.9482   21.9099  -33.8470 H   0  0  0  0  0  0  0  0  0  0  0  0
   -3.7405   21.7908  -33.8470 H   0  0  0  0  0  0  0  0  0  0  0  0
   -3.6530   19.2240  -33.7000 C   0  0  0  0  0  0  0  0  0  0  0  0
   -4.4333   19.6538  -34.3453 H   0  0  0  0  0  0  0  0  0  0  0  0
   -3.5960   17.8350  -33.5100 C   0  0  0  0  0  0  0  0  0  0  0  0
   -4.5550   16.9660  -34.1450 N   0  0  0  0  0  0  0  0  0  0  0  0
   -4.1200   15.8200  -34.9540 C   0  0  0  0  0  0  0  0  0  0  0  0
   -4.3104   16.0342  -36.0160 H   0  0  0  0  0  0  0  0  0  0  0  0
   -3.0456   15.6547  -34.7857 H   0  0  0  0  0  0  0  0  0  0  0  0
   -4.8890   14.5450  -34.5480 C   0  0  0  0  0  0  0  0  0  0  0  0
   -5.0104   13.9141  -35.4409 H   0  0  0  0  0  0  0  0  0  0  0  0
   -4.2992   14.0520  -33.7612 H   0  0  0  0  0  0  0  0  0  0  0  0
   -6.2270   14.8110  -33.9800 N   0  0  0  0  0  0  0  0  0  0  0  0
   -6.1420   14.8950  -32.9390 H   0  0  0  0  0  0  0  0  0  0  0  0
   -6.8240   16.0490  -34.4990 C   0  0  0  0  0  0  0  0  0  0  0  0
   -6.8592   16.0015  -35.5974 H   0  0  0  0  0  0  0  0  0  0  0  0
   -7.8406   16.1524  -34.0919 H   0  0  0  0  0  0  0  0  0  0  0  0
   -5.9910   17.2660  -34.0720 C   0  0  0  0  0  0  0  0  0  0  0  0
   -6.2175   18.1104  -34.7396 H   0  0  0  0  0  0  0  0  0  0  0  0
   -6.2458   17.5209  -33.0327 H   0  0  0  0  0  0  0  0  0  0  0  0
  1  2  1  0
  2  3  1  0
  3  4  1  0
  4  5  2  0
  5  6  1  0
  6  7  2  0
  7  8  1  0
  7  9  1  0
  9 10  1  0
  9 11  2  0
 11 12  1  0
 11 13  1  0
 13 14  1  0
 13 15  2  0
 15 16  1  0
 16 17  1  0
 17 18  2  0
 18 19  1  0
 18 20  1  0
 20 21  1  0
 21 22  2  0
 21 23  2  0
 21 24  1  0
 24 25  2  0
 25 26  1  0
 25 27  1  0
 27 28  1  0
 27 29  2  0
 29 30  1  0
 30 31  1  0
 30 32  1  0
 30 33  1  0
 29 34  1  0
 34 35  1  0
 35 36  1  0
 35 37  1  0
 35 38  1  0
 34 39  2  0
 39 40  1  0
 20 41  2  0
 41 42  1  0
 41 43  1  0
 43 44  1  0
 43 45  2  0
 45 46  1  0
 46 47  1  0
 46 48  1  0
  4 49  1  0
 49 50  1  0
 50 51  1  0
 50 52  1  0
 50 53  1  0
 49 54  2  0
 54 55  1  0
 54 56  1  0
 56 57  1  0
 57 58  1  0
 58 59  1  0
 58 60  1  0
 58 61  1  0
 61 62  1  0
 61 63  1  0
 61 64  1  0
 64 65  1  0
 64 66  1  0
 66 67  1  0
 66 68  1  0
 66 69  1  0
 69 70  1  0
 69 71  1  0
 56  2  2  0
 69 57  1  0
 15  6  1  0
 45 17  1  0
 39 24  1  0
M  CHG  2   3  -1  42  -1
M  END
>  <UniqueID>  (16) 
15

>  <SMILES>  (16) 
Cc1ccc(S(=O)(=O)c2cc(Sc3ccccc3/N=c3\[n-]cc(N4CCNCC4)cc3C)c(N)cc2[O-])cc1C

>  <Energy>  (16) 
91.63522835751111

>  <Genealogy>  (16) 
Cc1ccc(S(=O)(=O)c2cc(Sc3ccccc3N=c3[n-]cc(N4CCNCC4)cc3C)c(N)cc2[O-])cc1C (protonated)
Cc1ccc(S(=O)(=O)c2cc(Sc3ccccc3/N=c3\[n-]cc(N4CCNCC4)cc3C)c(N)cc2[O-])cc1C (cis-trans isomerization)
Cc1ccc(S(=O)(=O)c2cc(Sc3ccccc3/N=c3\[n-]cc(N4CCNCC4)cc3C)c(N)cc2[O-])cc1C (3D coordinates assigned)
Cc1ccc(S(=O)(=O)c2cc(Sc3ccccc3/N=c3\[n-]cc(N4CCNCC4)cc3C)c(N)cc2[O-])cc1C (nonaromatic ring conformer: 91.63522835751111 kcal/mol)

>  <smiles>  (16) 
Cc1ccc(S(=O)(=O)c2cc(Sc3ccccc3N=c3[nH]cc(N4CCNCC4)cc3C)c(N)cc2O)cc1C

>  <score_type>  (16) 
oracle

>  <origin>  (16) 
adgpu

>  <m_score__min__energy>  (16) 
-13.119999999999999

>  <m_primary>  (16) 
energy

$$$$
16:0
     RDKit          3D

 47 50  0  0  0  0  0  0  0  0999 V2000
   -6.8575   18.0339  -35.1560 H   0  0  0  0  0  0  0  0  0  0  0  0
   -6.1100   18.5780  -34.5600 C   0  0  0  0  0  0  0  0  0  0  0  0
   -4.8440   18.0990  -34.4620 N   0  0  0  0  0  0  0  0  0  0  0  0
   -3.8780   18.7320  -33.7420 C   0  0  0  0  0  0  0  0  0  0  0  0
   -2.5320   18.1190  -33.6880 C   0  0  0  0  0  0  0  0  0  0  0  0
   -1.4150   18.8660  -34.1140 C   0  0  0  0  0  0  0  0  0  0  0  0
   -1.6150   20.1730  -34.5890 O   0  0  0  0  0  0  0  0  0  0  0  0
   -0.6220   21.1940  -34.5910 C   0  0  0  0  0  0  0  0  0  0  0  0
   -0.3653   21.4579  -33.5544 H   0  0  0  0  0  0  0  0  0  0  0  0
    0.2770   20.8301  -35.1101 H   0  0  0  0  0  0  0  0  0  0  0  0
   -1.0107   22.0825  -35.1101 H   0  0  0  0  0  0  0  0  0  0  0  0
   -0.1330   18.2880  -34.0500 C   0  0  0  0  0  0  0  0  0  0  0  0
    0.7427   18.8620  -34.3873 H   0  0  0  0  0  0  0  0  0  0  0  0
    0.0340   16.9930  -33.5620 C   0  0  0  0  0  0  0  0  0  0  0  0
    1.0403   16.5513  -33.5143 H   0  0  0  0  0  0  0  0  0  0  0  0
   -1.0690   16.2550  -33.1340 C   0  0  0  0  0  0  0  0  0  0  0  0
   -0.9266   15.2365  -32.7436 H   0  0  0  0  0  0  0  0  0  0  0  0
   -2.3600   16.8030  -33.1980 C   0  0  0  0  0  0  0  0  0  0  0  0
   -3.5340   15.9820  -32.7330 C   0  0  0  0  0  0  0  0  0  0  0  0
   -3.5574   15.9656  -31.6334 H   0  0  0  0  0  0  0  0  0  0  0  0
   -4.4657   16.4264  -33.1130 H   0  0  0  0  0  0  0  0  0  0  0  0
   -3.4363   14.9544  -33.1130 H   0  0  0  0  0  0  0  0  0  0  0  0
   -4.1860   19.9400  -33.0710 C   0  0  0  0  0  0  0  0  0  0  0  0
   -3.2250   20.6600  -32.3340 C   0  0  0  0  0  0  0  0  0  0  0  0
   -2.1940   20.2826  -32.2656 H   0  0  0  0  0  0  0  0  0  0  0  0
   -3.5720   21.8490  -31.6900 C   0  0  0  0  0  0  0  0  0  0  0  0
   -2.8147   22.3980  -31.1112 H   0  0  0  0  0  0  0  0  0  0  0  0
   -4.8770   22.3470  -31.7760 C   0  0  0  0  0  0  0  0  0  0  0  0
   -5.3070   23.8570  -30.9790 S   0  0  0  0  0  0  0  0  0  0  0  0
   -6.1160   24.6920  -31.9300 O   0  0  0  0  0  0  0  0  0  0  0  0
   -6.1240   23.5950  -29.7440 O   0  0  0  0  0  0  0  0  0  0  0  0
   -3.8720   24.7340  -30.5370 N   0  0  0  0  0  0  0  0  0  0  0  0
   -3.1150   24.5090  -29.5030 C   0  0  0  0  0  0  0  0  0  0  0  0
   -2.0170   25.2950  -29.3220 N   0  0  0  0  0  0  0  0  0  0  0  0
   -1.1680   25.1270  -28.2730 C   0  0  0  0  0  0  0  0  0  0  0  0
   -0.2929   25.7844  -28.1635 H   0  0  0  0  0  0  0  0  0  0  0  0
   -1.4060   24.1220  -27.3360 C   0  0  0  0  0  0  0  0  0  0  0  0
   -0.7211   23.9797  -26.4871 H   0  0  0  0  0  0  0  0  0  0  0  0
   -2.5210   23.3000  -27.4870 C   0  0  0  0  0  0  0  0  0  0  0  0
   -2.7214   22.5047  -26.7540 H   0  0  0  0  0  0  0  0  0  0  0  0
   -3.3840   23.4860  -28.5690 C   0  0  0  0  0  0  0  0  0  0  0  0
   -4.2661   22.8405  -28.6922 H   0  0  0  0  0  0  0  0  0  0  0  0
   -5.8420   21.6430  -32.5070 C   0  0  0  0  0  0  0  0  0  0  0  0
   -6.8702   22.0290  -32.5689 H   0  0  0  0  0  0  0  0  0  0  0  0
   -5.5050   20.4480  -33.1610 C   0  0  0  0  0  0  0  0  0  0  0  0
   -6.4660   19.7570  -33.9080 C   0  0  0  0  0  0  0  0  0  0  0  0
   -7.4941   20.1415  -33.9798 H   0  0  0  0  0  0  0  0  0  0  0  0
  1  2  1  0
  2  3  2  0
  3  4  1  0
  4  5  1  0
  5  6  2  0
  6  7  1  0
  7  8  1  0
  8  9  1  0
  8 10  1  0
  8 11  1  0
  6 12  1  0
 12 13  1  0
 12 14  2  0
 14 15  1  0
 14 16  1  0
 16 17  1  0
 16 18  2  0
 18 19  1  0
 19 20  1  0
 19 21  1  0
 19 22  1  0
  4 23  2  0
 23 24  1  0
 24 25  1  0
 24 26  2  0
 26 27  1  0
 26 28  1  0
 28 29  1  0
 29 30  2  0
 29 31  2  0
 29 32  1  0
 32 33  2  0
 33 34  1  0
 34 35  1  0
 35 36  1  0
 35 37  2  0
 37 38  1  0
 37 39  1  0
 39 40  1  0
 39 41  2  0
 41 42  1  0
 28 43  2  0
 43 44  1  0
 43 45  1  0
 45 46  2  0
 46 47  1  0
 46  2  1  0
 18  5  1  0
 45 23  1  0
 41 33  1  0
M  CHG  1  34  -1
M  END
>  <UniqueID>  (17) 
16

>  <SMILES>  (17) 
COc1cccc(C)c1-c1nccc2cc(S(=O)(=O)/N=c3\cccc[n-]3)ccc12

>  <Energy>  (17) 
69.65289384955467

>  <Genealogy>  (17) 
COc1cccc(C)c1-c1nccc2cc(S(=O)(=O)N=c3cccc[n-]3)ccc12 (protonated)
COc1cccc(C)c1-c1nccc2cc(S(=O)(=O)/N=c3\cccc[n-]3)ccc12 (cis-trans isomerization)
COc1cccc(C)c1-c1nccc2cc(S(=O)(=O)/N=c3\cccc[n-]3)ccc12 (3D coordinates assigned)
COc1cccc(C)c1-c1nccc2cc(S(=O)(=O)/N=c3\cccc[n-]3)ccc12 (optimized conformer: 69.65289384955467 kcal/mol)

>  <smiles>  (17) 
COc1cccc(C)c1-c1nccc2cc(S(=O)(=O)N=c3cccc[nH]3)ccc12

>  <score_type>  (17) 
oracle

>  <origin>  (17) 
adgpu

>  <m_score__min__energy>  (17) 
-10.42

>  <m_primary>  (17) 
energy

$$$$
17:0
     RDKit          3D

 44 46  0  0  0  0  0  0  0  0999 V2000
   -0.1600   23.0600  -25.1500 C   0  0  0  0  0  0  0  0  0  0  0  0
    0.6640   24.0020  -25.9180 N   0  0  0  0  0  0  0  0  0  0  0  0
    1.7890   24.6840  -25.2710 C   0  0  0  0  0  0  0  0  0  0  0  0
    0.4830   24.1310  -27.3500 C   0  0  0  0  0  0  0  0  0  0  0  0
    1.3680   24.6950  -28.0550 O   0  0  0  0  0  0  0  0  0  0  0  0
   -0.7640   23.6870  -28.0000 C   0  0  0  0  0  0  0  0  0  0  0  0
   -1.2160   22.3830  -27.7510 C   0  0  0  0  0  0  0  0  0  0  0  0
   -2.3860   21.9220  -28.3440 C   0  0  0  0  0  0  0  0  0  0  0  0
   -3.1190   22.7550  -29.1870 C   0  0  0  0  0  0  0  0  0  0  0  0
   -2.7060   24.0750  -29.4450 C   0  0  0  0  0  0  0  0  0  0  0  0
   -3.5540   24.8890  -30.2860 N   0  0  0  0  0  0  0  0  0  0  0  0
   -4.9070   24.6010  -30.6590 C   0  0  0  0  0  0  0  0  0  0  0  0
   -5.5510   23.8140  -31.6100 C   0  0  0  0  0  0  0  0  0  0  0  0
   -5.1700   22.9680  -32.7040 N   0  0  0  0  0  0  0  0  0  0  0  0
   -5.3700   21.5440  -32.7350 C   0  0  0  0  0  0  0  0  0  0  0  0
   -4.2910   20.7070  -33.0560 C   0  0  0  0  0  0  0  0  0  0  0  0
   -4.4610   19.3180  -33.1120 C   0  0  0  0  0  0  0  0  0  0  0  0
   -5.7080   18.7550  -32.8330 C   0  0  0  0  0  0  0  0  0  0  0  0
   -6.7940   19.5790  -32.5140 C   0  0  0  0  0  0  0  0  0  0  0  0
   -8.0850   18.9980  -32.2470 C   0  0  0  0  0  0  0  0  0  0  0  0
   -9.1230   18.5330  -32.0320 N   0  0  0  0  0  0  0  0  0  0  0  0
   -6.6310   20.9730  -32.4920 C   0  0  0  0  0  0  0  0  0  0  0  0
   -6.7740   24.2280  -31.1090 C   0  0  0  0  0  0  0  0  0  0  0  0
   -7.9790   24.0170  -31.4140 O   0  0  0  0  0  0  0  0  0  0  0  0
   -6.1340   24.9640  -30.1330 C   0  0  0  0  0  0  0  0  0  0  0  0
   -6.5120   25.6930  -29.1760 O   0  0  0  0  0  0  0  0  0  0  0  0
   -1.5110   24.5490  -28.8410 C   0  0  0  0  0  0  0  0  0  0  0  0
   -1.0710   25.8530  -29.0820 O   0  0  0  0  0  0  0  0  0  0  0  0
   -0.0086   23.2330  -24.0743 H   0  0  0  0  0  0  0  0  0  0  0  0
   -1.2203   23.2120  -25.4002 H   0  0  0  0  0  0  0  0  0  0  0  0
    0.1317   22.0293  -25.4002 H   0  0  0  0  0  0  0  0  0  0  0  0
    1.6790   24.6173  -24.1786 H   0  0  0  0  0  0  0  0  0  0  0  0
    2.7317   24.2052  -25.5745 H   0  0  0  0  0  0  0  0  0  0  0  0
    1.8005   25.7412  -25.5745 H   0  0  0  0  0  0  0  0  0  0  0  0
   -0.6427   21.7224  -27.0840 H   0  0  0  0  0  0  0  0  0  0  0  0
   -2.7339   20.8972  -28.1472 H   0  0  0  0  0  0  0  0  0  0  0  0
   -4.0366   22.3739  -29.6590 H   0  0  0  0  0  0  0  0  0  0  0  0
   -3.1030   25.6690  -30.8260 H   0  0  0  0  0  0  0  0  0  0  0  0
   -4.6040   23.4100  -33.4660 H   0  0  0  0  0  0  0  0  0  0  0  0
   -3.3039   21.1450  -33.2653 H   0  0  0  0  0  0  0  0  0  0  0  0
   -3.6119   18.6703  -33.3758 H   0  0  0  0  0  0  0  0  0  0  0  0
   -5.8372   17.6631  -32.8639 H   0  0  0  0  0  0  0  0  0  0  0  0
   -7.4945   21.6217  -32.2835 H   0  0  0  0  0  0  0  0  0  0  0  0
   -0.1090   26.1440  -28.9760 H   0  0  0  0  0  0  0  0  0  0  0  0
  1  2  1  0
  2  3  1  0
  2  4  1  0
  4  5  2  0
  4  6  1  0
  6  7  2  0
  7  8  1  0
  8  9  2  0
  9 10  1  0
 10 11  1  0
 11 12  1  0
 12 13  2  0
 13 14  1  0
 14 15  1  0
 15 16  2  0
 16 17  1  0
 17 18  2  0
 18 19  1  0
 19 20  1  0
 20 21  3  0
 19 22  2  0
 13 23  1  0
 23 24  2  0
 23 25  1  0
 25 26  2  0
 10 27  2  0
 27 28  1  0
 27  6  1  0
 25 12  1  0
 22 15  1  0
  1 29  1  0
  1 30  1  0
  1 31  1  0
  3 32  1  0
  3 33  1  0
  3 34  1  0
  7 35  1  0
  8 36  1  0
  9 37  1  0
 11 38  1  0
 14 39  1  0
 16 40  1  0
 17 41  1  0
 18 42  1  0
 22 43  1  0
 28 44  1  0
M  END
>  <UniqueID>  (18) 
17

>  <SMILES>  (18) 
CN(C)C(=O)c1cccc(Nc2c(Nc3cccc(C#N)c3)c(=O)c2=O)c1O

>  <Energy>  (18) 
51.399648595973

>  <Genealogy>  (18) 
CN(C)C(=O)c1cccc(Nc2c(Nc3cccc(C#N)c3)c(=O)c2=O)c1O (3D coordinates assigned)
CN(C)C(=O)c1cccc(Nc2c(Nc3cccc(C#N)c3)c(=O)c2=O)c1O (optimized conformer: 51.399648595973 kcal/mol)

>  <smiles>  (18) 
CN(C)C(=O)c1cccc(Nc2c(Nc3cccc(C#N)c3)c(=O)c2=O)c1O

>  <score_type>  (18) 
oracle

>  <origin>  (18) 
adgpu

>  <m_score__min__energy>  (18) 
-10.050000000000001

>  <m_primary>  (18) 
energy

$$$$
18:0
     RDKit          3D

 92 97  0  0  0  0  0  0  0  0999 V2000
   -2.2687   19.0475  -25.7119 H   0  0  0  0  0  0  0  0  0  0  0  0
   -1.9090   19.4760  -26.6590 C   0  0  0  0  0  0  0  0  0  0  0  0
   -2.3860   20.7080  -27.0950 C   0  0  0  0  0  0  0  0  0  0  0  0
   -3.1205   21.2625  -26.4924 H   0  0  0  0  0  0  0  0  0  0  0  0
   -1.9260   21.2350  -28.3020 C   0  0  0  0  0  0  0  0  0  0  0  0
   -2.2971   22.2125  -28.6437 H   0  0  0  0  0  0  0  0  0  0  0  0
   -1.0190   20.5520  -29.0670 N   0  0  0  0  0  0  0  0  0  0  0  0
   -0.5910   21.1500  -30.3400 C   0  0  0  0  0  0  0  0  0  0  0  0
    0.0384   22.0294  -30.1387 H   0  0  0  0  0  0  0  0  0  0  0  0
   -0.0152   20.4113  -30.9169 H   0  0  0  0  0  0  0  0  0  0  0  0
   -1.4759   21.4567  -30.9169 H   0  0  0  0  0  0  0  0  0  0  0  0
   -0.5160   19.3450  -28.6320 C   0  0  0  0  0  0  0  0  0  0  0  0
    0.5400   18.6240  -29.3790 C   0  0  0  0  0  0  0  0  0  0  0  0
    0.2660   17.3670  -29.9400 C   0  0  0  0  0  0  0  0  0  0  0  0
   -0.7149   16.8965  -29.7775 H   0  0  0  0  0  0  0  0  0  0  0  0
    1.2330   16.7120  -30.7030 C   0  0  0  0  0  0  0  0  0  0  0  0
    1.0154   15.7230  -31.1325 H   0  0  0  0  0  0  0  0  0  0  0  0
    2.4820   17.3110  -30.9240 C   0  0  0  0  0  0  0  0  0  0  0  0
    3.4260   16.6960  -31.8130 N   0  0  0  0  0  0  0  0  0  0  0  0
    3.7180   17.1750  -32.9620 N   0  0  0  0  0  0  0  0  0  0  0  0
    3.1980   18.4280  -33.4370 C   0  0  0  0  0  0  0  0  0  0  0  0
    4.0910   19.4460  -33.7560 C   0  0  0  0  0  0  0  0  0  0  0  0
    5.1410   19.3717  -33.4366 H   0  0  0  0  0  0  0  0  0  0  0  0
    3.6650   20.5570  -34.4760 C   0  0  0  0  0  0  0  0  0  0  0  0
    4.3954   21.3243  -34.7724 H   0  0  0  0  0  0  0  0  0  0  0  0
    2.3100   20.7130  -34.8310 C   0  0  0  0  0  0  0  0  0  0  0  0
    1.8790   21.8010  -35.6370 C   0  0  0  0  0  0  0  0  0  0  0  0
    3.0080   22.9930  -36.3170 S   0  0  0  0  0  0  0  0  0  0  0  0
    3.9990   22.3250  -37.2320 O   0  0  0  0  0  0  0  0  0  0  0  0
    3.7610   23.6650  -35.2020 O   0  0  0  0  0  0  0  0  0  0  0  0
    2.1570   24.1430  -37.2020 O   0  0  0  0  0  0  0  0  0  0  0  0
    0.5210   21.9440  -35.9260 C   0  0  0  0  0  0  0  0  0  0  0  0
    0.1917   22.7427  -36.6069 H   0  0  0  0  0  0  0  0  0  0  0  0
   -0.4190   21.0910  -35.3650 C   0  0  0  0  0  0  0  0  0  0  0  0
   -1.4875   21.2509  -35.5718 H   0  0  0  0  0  0  0  0  0  0  0  0
   -0.0270   20.0290  -34.5390 C   0  0  0  0  0  0  0  0  0  0  0  0
   -1.0210   19.3550  -33.7450 N   0  0  0  0  0  0  0  0  0  0  0  0
   -0.8230   19.2120  -32.7290 H   0  0  0  0  0  0  0  0  0  0  0  0
   -2.3140   18.8910  -34.2570 C   0  0  0  0  0  0  0  0  0  0  0  0
   -2.1471   18.0125  -34.8976 H   0  0  0  0  0  0  0  0  0  0  0  0
   -2.7701   19.7169  -34.8225 H   0  0  0  0  0  0  0  0  0  0  0  0
   -3.2840   18.5010  -33.1200 C   0  0  1  0  0  0  0  0  0  0  0  0
   -2.7473   18.5826  -32.1633 H   0  0  0  0  0  0  0  0  0  0  0  0
   -4.4360   19.4170  -33.1350 N   0  0  0  0  0  0  0  0  0  0  0  0
   -5.2460   19.1700  -33.7530 H   0  0  0  0  0  0  0  0  0  0  0  0
   -4.5140   20.6600  -32.4070 C   0  0  0  0  0  0  0  0  0  0  0  0
   -3.3830   21.4660  -32.1790 C   0  0  0  0  0  0  0  0  0  0  0  0
   -2.4028   21.1550  -32.5696 H   0  0  0  0  0  0  0  0  0  0  0  0
   -3.4970   22.6600  -31.4590 C   0  0  0  0  0  0  0  0  0  0  0  0
   -2.6058   23.2802  -31.2826 H   0  0  0  0  0  0  0  0  0  0  0  0
   -4.7400   23.0690  -30.9620 C   0  0  0  0  0  0  0  0  0  0  0  0
   -4.8580   24.5550  -30.0270 S   0  0  0  0  0  0  0  0  0  0  0  0
   -6.2950   24.8720  -29.7300 O   0  0  0  0  0  0  0  0  0  0  0  0
   -4.2630   25.6750  -30.8300 O   0  0  0  0  0  0  0  0  0  0  0  0
   -3.9890   24.3390  -28.5410 N   0  0  0  0  0  0  0  0  0  0  0  0
   -2.7400   24.6460  -28.3780 C   0  0  0  0  0  0  0  0  0  0  0  0
   -1.9480   25.1740  -29.3340 N   0  0  0  0  0  0  0  0  0  0  0  0
   -0.7740   25.3200  -28.7910 O   0  0  0  0  0  0  0  0  0  0  0  0
   -0.7770   24.9120  -27.5420 C   0  0  0  0  0  0  0  0  0  0  0  0
    0.4040   24.9710  -26.6340 C   0  0  0  0  0  0  0  0  0  0  0  0
    0.0636   24.9540  -25.5881 H   0  0  0  0  0  0  0  0  0  0  0  0
    1.0547   24.1042  -26.8220 H   0  0  0  0  0  0  0  0  0  0  0  0
    0.9651   25.8983  -26.8220 H   0  0  0  0  0  0  0  0  0  0  0  0
   -2.0390   24.4660  -27.2080 C   0  0  0  0  0  0  0  0  0  0  0  0
   -2.3954   24.0666  -26.2471 H   0  0  0  0  0  0  0  0  0  0  0  0
   -5.8690   22.2720  -31.1820 C   0  0  0  0  0  0  0  0  0  0  0  0
   -6.8478   22.5866  -30.7909 H   0  0  0  0  0  0  0  0  0  0  0  0
   -5.7550   21.0750  -31.8990 C   0  0  0  0  0  0  0  0  0  0  0  0
   -6.6470   20.4534  -32.0660 H   0  0  0  0  0  0  0  0  0  0  0  0
   -3.7670   17.0400  -33.2540 C   0  0  0  0  0  0  0  0  0  0  0  0
   -3.3073   16.5931  -34.1478 H   0  0  0  0  0  0  0  0  0  0  0  0
   -3.4710   16.4961  -32.3449 H   0  0  0  0  0  0  0  0  0  0  0  0
   -5.2400   16.9600  -33.3810 N   0  0  0  0  0  0  0  0  0  0  0  0
   -5.6150   15.8040  -34.2130 C   0  0  0  0  0  0  0  0  0  0  0  0
   -5.8891   14.9589  -33.5644 H   0  0  0  0  0  0  0  0  0  0  0  0
   -6.4723   16.0720  -34.8480 H   0  0  0  0  0  0  0  0  0  0  0  0
   -4.7637   15.5177  -34.8480 H   0  0  0  0  0  0  0  0  0  0  0  0
   -5.8840   16.8350  -32.0570 C   0  0  0  0  0  0  0  0  0  0  0  0
   -5.1316   16.9810  -31.2680 H   0  0  0  0  0  0  0  0  0  0  0  0
   -6.6711   17.5971  -31.9587 H   0  0  0  0  0  0  0  0  0  0  0  0
   -6.3288   15.8338  -31.9587 H   0  0  0  0  0  0  0  0  0  0  0  0
    1.3580   19.7580  -34.3630 C   0  0  0  0  0  0  0  0  0  0  0  0
    1.8290   18.5670  -33.7340 C   0  0  0  0  0  0  0  0  0  0  0  0
    0.9650   17.4420  -33.5140 N   0  0  0  0  0  0  0  0  0  0  0  0
   -0.0630   17.5140  -33.6810 H   0  0  0  0  0  0  0  0  0  0  0  0
    1.3130   16.5710  -33.0540 H   0  0  0  0  0  0  0  0  0  0  0  0
    2.7730   18.5490  -30.3410 C   0  0  0  0  0  0  0  0  0  0  0  0
    3.7646   19.0041  -30.4812 H   0  0  0  0  0  0  0  0  0  0  0  0
    1.8010   19.2080  -29.5790 C   0  0  0  0  0  0  0  0  0  0  0  0
    2.0264   20.1886  -29.1346 H   0  0  0  0  0  0  0  0  0  0  0  0
   -0.9750   18.7890  -27.4270 C   0  0  0  0  0  0  0  0  0  0  0  0
   -0.5966   17.8122  -27.0912 H   0  0  0  0  0  0  0  0  0  0  0  0
  1  2  1  0
  2  3  2  0
  3  4  1  0
  3  5  1  0
  5  6  1  0
  5  7  2  0
  7  8  1  0
  8  9  1  0
  8 10  1  0
  8 11  1  0
  7 12  1  0
 12 13  1  0
 13 14  2  0
 14 15  1  0
 14 16  1  0
 16 17  1  0
 16 18  2  0
 18 19  1  0
 19 20  2  0
 20 21  1  0
 21 22  2  0
 22 23  1  0
 22 24  1  0
 24 25  1  0
 24 26  2  0
 26 27  1  0
 27 28  1  0
 28 29  2  0
 28 30  2  0
 28 31  1  0
 27 32  2  0
 32 33  1  0
 32 34  1  0
 34 35  1  0
 34 36  2  0
 36 37  1  0
 37 38  1  0
 37 39  1  0
 39 40  1  0
 39 41  1  0
 39 42  1  0
 42 43  1  1
 42 44  1  0
 44 45  1  0
 44 46  1  0
 46 47  2  0
 47 48  1  0
 47 49  1  0
 49 50  1  0
 49 51  2  0
 51 52  1  0
 52 53  2  0
 52 54  2  0
 52 55  1  0
 55 56  2  0
 56 57  1  0
 57 58  1  0
 58 59  1  0
 59 60  1  0
 60 61  1  0
 60 62  1  0
 60 63  1  0
 59 64  2  0
 64 65  1  0
 51 66  1  0
 66 67  1  0
 66 68  2  0
 68 69  1  0
 42 70  1  0
 70 71  1  0
 70 72  1  0
 70 73  1  0
 73 74  1  0
 74 75  1  0
 74 76  1  0
 74 77  1  0
 73 78  1  0
 78 79  1  0
 78 80  1  0
 78 81  1  0
 36 82  1  0
 82 83  2  0
 83 84  1  0
 84 85  1  0
 84 86  1  0
 18 87  1  0
 87 88  1  0
 87 89  2  0
 89 90  1  0
 12 91  2  0
 91 92  1  0
 91  2  1  0
 89 13  1  0
 83 21  1  0
 82 26  1  0
 68 46  1  0
 64 56  1  0
M  CHG  3   7   1  31  -1  57  -1
M  END
>  <UniqueID>  (19) 
18

>  <SMILES>  (19) 
Cc1c/c(=N/S(=O)(=O)c2ccc(N[C@H](CNc3ccc(S(=O)(=O)[O-])c4ccc(/N=N\c5ccc(-c6cccc[n+]6C)cc5)c(N)c34)CN(C)C)cc2)[n-]o1

>  <Energy>  (19) 
179.40471436363813

>  <Genealogy>  (19) 
Cc1cc(=NS(=O)(=O)c2ccc(NC(CNc3ccc(S(=O)(=O)[O-])c4ccc(N=Nc5ccc(-c6cccc[n+]6C)cc5)c(N)c34)CN(C)C)cc2)[n-]o1 (protonated)
Cc1cc(=NS(=O)(=O)c2ccc(N[C@H](CNc3ccc(S(=O)(=O)[O-])c4ccc(N=Nc5ccc(-c6cccc[n+]6C)cc5)c(N)c34)CN(C)C)cc2)[n-]o1 (chirality)
Cc1c/c(=N/S(=O)(=O)c2ccc(N[C@H](CNc3ccc(S(=O)(=O)[O-])c4ccc(/N=N\c5ccc(-c6cccc[n+]6C)cc5)c(N)c34)CN(C)C)cc2)[n-]o1 (cis-trans isomerization)
Cc1c/c(=N/S(=O)(=O)c2ccc(N[C@H](CNc3ccc(S(=O)(=O)[O-])c4ccc(/N=N\c5ccc(-c6cccc[n+]6C)cc5)c(N)c34)CN(C)C)cc2)[n-]o1 (3D coordinates assigned)
Cc1c/c(=N/S(=O)(=O)c2ccc(N[C@H](CNc3ccc(S(=O)(=O)[O-])c4ccc(/N=N\c5ccc(-c6cccc[n+]6C)cc5)c(N)c34)CN(C)C)cc2)[n-]o1 (optimized conformer: 179.40471436363813 kcal/mol)

>  <smiles>  (19) 
Cc1cc(=NS(=O)(=O)c2ccc(NC(CNc3ccc(S(=O)(=O)O)c4ccc(N=Nc5ccc(-c6cccc[n+]6C)cc5)c(N)c34)CN(C)C)cc2)[nH]o1

>  <score_type>  (19) 
oracle

>  <origin>  (19) 
adgpu

>  <m_score__min__energy>  (19) 
-13.029999999999999

>  <m_primary>  (19) 
energy

$$$$
19:0
     RDKit          3D

 40 42  0  0  0  0  0  0  0  0999 V2000
   -9.0440   20.2230  -33.1420 O   0  0  0  0  0  0  0  0  0  0  0  0
   -8.0100   20.0800  -32.4340 C   0  0  0  0  0  0  0  0  0  0  0  0
   -7.5340   18.7650  -32.1130 N   0  0  0  0  0  0  0  0  0  0  0  0
   -6.4320   18.0770  -32.7220 C   0  0  0  0  0  0  0  0  0  0  0  0
   -5.8550   16.9380  -32.1270 C   0  0  0  0  0  0  0  0  0  0  0  0
   -4.7970   16.2720  -32.7530 C   0  0  0  0  0  0  0  0  0  0  0  0
   -4.3160   16.7230  -33.9830 C   0  0  0  0  0  0  0  0  0  0  0  0
   -4.8980   17.8350  -34.5950 C   0  0  0  0  0  0  0  0  0  0  0  0
   -5.9550   18.5110  -33.9770 C   0  0  0  0  0  0  0  0  0  0  0  0
   -6.5160   19.6140  -34.6220 O   0  0  0  0  0  0  0  0  0  0  0  0
   -7.3180   21.2720  -31.8890 C   0  0  0  0  0  0  0  0  0  0  0  0
   -8.0560   22.3700  -31.4090 C   0  0  0  0  0  0  0  0  0  0  0  0
   -7.4030   23.4950  -30.8980 C   0  0  0  0  0  0  0  0  0  0  0  0
   -6.0040   23.5410  -30.8570 C   0  0  0  0  0  0  0  0  0  0  0  0
   -5.1940   24.9600  -30.2030 S   0  0  0  0  0  0  0  0  0  0  0  0
   -5.6850   26.2130  -30.8720 O   0  0  0  0  0  0  0  0  0  0  0  0
   -5.4800   25.0500  -28.7310 O   0  0  0  0  0  0  0  0  0  0  0  0
   -3.4820   24.8230  -30.4420 N   0  0  0  0  0  0  0  0  0  0  0  0
   -2.5870   24.0790  -29.6020 C   0  0  0  0  0  0  0  0  0  0  0  0
   -2.7980   22.7180  -29.3070 C   0  0  0  0  0  0  0  0  0  0  0  0
   -1.9000   22.0260  -28.4880 C   0  0  0  0  0  0  0  0  0  0  0  0
   -0.7880   22.6820  -27.9580 C   0  0  0  0  0  0  0  0  0  0  0  0
   -0.5710   24.0330  -28.2430 C   0  0  0  0  0  0  0  0  0  0  0  0
   -1.4660   24.7300  -29.0630 C   0  0  0  0  0  0  0  0  0  0  0  0
   -1.2350   26.0720  -29.3430 O   0  0  0  0  0  0  0  0  0  0  0  0
   -5.2610   22.4540  -31.3360 C   0  0  0  0  0  0  0  0  0  0  0  0
   -5.9120   21.3270  -31.8470 C   0  0  0  0  0  0  0  0  0  0  0  0
   -6.2391   16.5703  -31.1641 H   0  0  0  0  0  0  0  0  0  0  0  0
   -4.3431   15.3912  -32.2753 H   0  0  0  0  0  0  0  0  0  0  0  0
   -3.4784   16.2025  -34.4704 H   0  0  0  0  0  0  0  0  0  0  0  0
   -4.5228   18.1815  -35.5693 H   0  0  0  0  0  0  0  0  0  0  0  0
   -7.5060   19.8210  -34.5830 H   0  0  0  0  0  0  0  0  0  0  0  0
   -9.1553   22.3425  -31.4362 H   0  0  0  0  0  0  0  0  0  0  0  0
   -7.9903   24.3477  -30.5265 H   0  0  0  0  0  0  0  0  0  0  0  0
   -3.6731   22.1970  -29.7227 H   0  0  0  0  0  0  0  0  0  0  0  0
   -2.0704   20.9632  -28.2613 H   0  0  0  0  0  0  0  0  0  0  0  0
   -0.0819   22.1354  -27.3156 H   0  0  0  0  0  0  0  0  0  0  0  0
    0.3045   24.5493  -27.8223 H   0  0  0  0  0  0  0  0  0  0  0  0
   -4.1618   22.4873  -31.3100 H   0  0  0  0  0  0  0  0  0  0  0  0
   -5.3211   20.4770  -32.2190 H   0  0  0  0  0  0  0  0  0  0  0  0
  1  2  2  0
  2  3  1  0
  3  4  1  0
  4  5  2  0
  5  6  1  0
  6  7  2  0
  7  8  1  0
  8  9  2  0
  9 10  1  0
  2 11  1  0
 11 12  2  0
 12 13  1  0
 13 14  2  0
 14 15  1  0
 15 16  2  0
 15 17  2  0
 15 18  1  0
 18 19  1  0
 19 20  2  0
 20 21  1  0
 21 22  2  0
 22 23  1  0
 23 24  2  0
 24 25  1  0
 14 26  1  0
 26 27  2  0
  9  4  1  0
 27 11  1  0
 24 19  1  0
  5 28  1  0
  6 29  1  0
  7 30  1  0
  8 31  1  0
 10 32  1  0
 12 33  1  0
 13 34  1  0
 20 35  1  0
 21 36  1  0
 22 37  1  0
 23 38  1  0
 26 39  1  0
 27 40  1  0
M  CHG  3   3  -1  18  -1  25  -1
M  END
>  <UniqueID>  (20) 
19

>  <SMILES>  (20) 
O=C([N-]c1ccccc1O)c1ccc(S(=O)(=O)[N-]c2ccccc2[O-])cc1

>  <Energy>  (20) 
51.187413881319664

>  <Genealogy>  (20) 
O=C([N-]c1ccccc1O)c1ccc(S(=O)(=O)[N-]c2ccccc2[O-])cc1 (protonated)
O=C([N-]c1ccccc1O)c1ccc(S(=O)(=O)[N-]c2ccccc2[O-])cc1 (3D coordinates assigned)
O=C([N-]c1ccccc1O)c1ccc(S(=O)(=O)[N-]c2ccccc2[O-])cc1 (optimized conformer: 51.187413881319664 kcal/mol)

>  <smiles>  (20) 
O=C(Nc1ccccc1O)c1ccc(S(=O)(=O)Nc2ccccc2O)cc1

>  <score_type>  (20) 
oracle

>  <origin>  (20) 
adgpu

>  <m_score__min__energy>  (20) 
-13.92

>  <m_primary>  (20) 
energy

$$$$
20:0
     RDKit          3D

 50 52  0  0  0  0  0  0  0  0999 V2000
   -4.7210   15.9180  -33.7050 C   0  0  0  0  0  0  0  0  0  0  0  0
   -4.4650   17.0160  -34.6300 N   0  0  0  0  0  0  0  0  0  0  0  0
   -5.6400   18.2730  -34.3890 S   0  0  0  0  0  0  0  0  0  0  0  0
   -6.1360   18.7660  -35.7200 O   0  0  0  0  0  0  0  0  0  0  0  0
   -6.8080   17.7150  -33.6250 O   0  0  0  0  0  0  0  0  0  0  0  0
   -4.9350   19.6010  -33.4710 C   0  0  0  0  0  0  0  0  0  0  0  0
   -3.5510   19.8230  -33.4870 C   0  0  0  0  0  0  0  0  0  0  0  0
   -2.9970   20.8690  -32.7440 C   0  0  0  0  0  0  0  0  0  0  0  0
   -3.8200   21.6990  -31.9620 C   0  0  0  0  0  0  0  0  0  0  0  0
   -3.2790   22.7970  -31.2070 N   0  0  0  0  0  0  0  0  0  0  0  0
   -4.0200   23.9720  -30.8510 C   0  0  0  0  0  0  0  0  0  0  0  0
   -5.1210   24.2270  -31.4080 O   0  0  0  0  0  0  0  0  0  0  0  0
   -3.4510   24.9010  -29.9210 N   0  0  0  0  0  0  0  0  0  0  0  0
   -2.6520   24.5460  -28.7830 C   0  0  0  0  0  0  0  0  0  0  0  0
   -3.0260   23.4370  -28.0280 C   0  0  0  0  0  0  0  0  0  0  0  0
   -2.2790   23.0510  -26.9200 C   0  0  0  0  0  0  0  0  0  0  0  0
   -1.1400   23.7750  -26.5300 C   0  0  0  0  0  0  0  0  0  0  0  0
   -0.3740   23.2920  -25.3270 C   0  0  0  0  0  0  0  0  0  0  0  0
   -0.7730   24.9390  -27.2600 C   0  0  0  0  0  0  0  0  0  0  0  0
    0.6350   25.9520  -26.8460 S   0  0  0  0  0  0  0  0  0  0  0  0
    1.1330   25.5560  -25.4840 O   0  0  0  0  0  0  0  0  0  0  0  0
    1.7700   25.7950  -27.8180 O   0  0  0  0  0  0  0  0  0  0  0  0
    0.1170   27.6700  -26.8020 C   0  0  0  0  0  0  0  0  0  0  0  0
    1.0630   28.5700  -26.0130 C   0  0  0  0  0  0  0  0  0  0  0  0
   -0.0410   28.8360  -24.9990 C   0  0  0  0  0  0  0  0  0  0  0  0
   -0.9890   27.9420  -25.7860 C   0  0  0  0  0  0  0  0  0  0  0  0
   -1.5470   25.3200  -28.3780 C   0  0  0  0  0  0  0  0  0  0  0  0
   -1.2370   26.4880  -29.0690 O   0  0  0  0  0  0  0  0  0  0  0  0
   -5.2060   21.4840  -31.9660 C   0  0  0  0  0  0  0  0  0  0  0  0
   -5.7590   20.4360  -32.7080 C   0  0  0  0  0  0  0  0  0  0  0  0
   -4.6360   16.2826  -32.6707 H   0  0  0  0  0  0  0  0  0  0  0  0
   -5.7347   15.5256  -33.8733 H   0  0  0  0  0  0  0  0  0  0  0  0
   -3.9854   15.1177  -33.8733 H   0  0  0  0  0  0  0  0  0  0  0  0
   -2.8985   19.1714  -34.0867 H   0  0  0  0  0  0  0  0  0  0  0  0
   -1.9114   21.0440  -32.7710 H   0  0  0  0  0  0  0  0  0  0  0  0
   -2.2630   22.7750  -30.9610 H   0  0  0  0  0  0  0  0  0  0  0  0
   -3.9198   22.8614  -28.3104 H   0  0  0  0  0  0  0  0  0  0  0  0
   -2.5842   22.1668  -26.3412 H   0  0  0  0  0  0  0  0  0  0  0  0
   -0.8883   23.6163  -24.4103 H   0  0  0  0  0  0  0  0  0  0  0  0
   -0.3161   22.1937  -25.3459 H   0  0  0  0  0  0  0  0  0  0  0  0
    0.6420   23.7131  -25.3459 H   0  0  0  0  0  0  0  0  0  0  0  0
   -0.0534   27.8450  -27.8745 H   0  0  0  0  0  0  0  0  0  0  0  0
    1.9382   28.0485  -25.5983 H   0  0  0  0  0  0  0  0  0  0  0  0
    1.5796   29.4059  -26.5073 H   0  0  0  0  0  0  0  0  0  0  0  0
    0.1831   28.4697  -23.9863 H   0  0  0  0  0  0  0  0  0  0  0  0
   -0.3296   29.8683  -24.7517 H   0  0  0  0  0  0  0  0  0  0  0  0
   -1.3250   27.0497  -25.2374 H   0  0  0  0  0  0  0  0  0  0  0  0
   -1.9683   28.3199  -26.1150 H   0  0  0  0  0  0  0  0  0  0  0  0
   -5.8627   22.1448  -31.3811 H   0  0  0  0  0  0  0  0  0  0  0  0
   -6.8458   20.2672  -32.6920 H   0  0  0  0  0  0  0  0  0  0  0  0
  1  2  1  0
  2  3  1  0
  3  4  2  0
  3  5  2  0
  3  6  1  0
  6  7  2  0
  7  8  1  0
  8  9  2  0
  9 10  1  0
 10 11  1  0
 11 12  2  0
 11 13  1  0
 13 14  1  0
 14 15  2  0
 15 16  1  0
 16 17  2  0
 17 18  1  0
 17 19  1  0
 19 20  1  0
 20 21  2  0
 20 22  2  0
 20 23  1  0
 23 24  1  0
 24 25  1  0
 25 26  1  0
 19 27  2  0
 27 28  1  0
  9 29  1  0
 29 30  2  0
 30  6  1  0
 27 14  1  0
 26 23  1  0
  1 31  1  0
  1 32  1  0
  1 33  1  0
  7 34  1  0
  8 35  1  0
 10 36  1  0
 15 37  1  0
 16 38  1  0
 18 39  1  0
 18 40  1  0
 18 41  1  0
 23 42  1  0
 24 43  1  0
 24 44  1  0
 25 45  1  0
 25 46  1  0
 26 47  1  0
 26 48  1  0
 29 49  1  0
 30 50  1  0
M  CHG  3   2  -1  13  -1  28  -1
M  END
>  <UniqueID>  (21) 
20

>  <SMILES>  (21) 
C[N-]S(=O)(=O)c1ccc(NC(=O)[N-]c2ccc(C)c(S(=O)(=O)C3CCC3)c2[O-])cc1

>  <Energy>  (21) 
119.23961719026843

>  <Genealogy>  (21) 
C[N-]S(=O)(=O)c1ccc(NC(=O)[N-]c2ccc(C)c(S(=O)(=O)C3CCC3)c2[O-])cc1 (protonated)
C[N-]S(=O)(=O)c1ccc(NC(=O)[N-]c2ccc(C)c(S(=O)(=O)C3CCC3)c2[O-])cc1 (3D coordinates assigned)
C[N-]S(=O)(=O)c1ccc(NC(=O)[N-]c2ccc(C)c(S(=O)(=O)C3CCC3)c2[O-])cc1 (nonaromatic ring conformer: 119.23961719026843 kcal/mol)

>  <smiles>  (21) 
CNS(=O)(=O)c1ccc(NC(=O)Nc2ccc(C)c(S(=O)(=O)C3CCC3)c2O)cc1

>  <score_type>  (21) 
oracle

>  <origin>  (21) 
adgpu

>  <m_score__min__energy>  (21) 
-12.35

>  <m_primary>  (21) 
energy

$$$$
21:0
     RDKit          3D

 45 47  0  0  0  0  0  0  0  0999 V2000
   -6.7260   16.2850  -34.5590 N   0  0  0  0  0  0  0  0  0  0  0  0
   -6.4250   16.7010  -33.3620 C   0  0  0  0  0  0  0  0  0  0  0  0
   -5.6940   15.8490  -32.4620 N   0  0  0  0  0  0  0  0  0  0  0  0
   -4.6450   14.9530  -32.8680 C   0  0  0  0  0  0  0  0  0  0  0  0
   -4.9740   13.6650  -33.3040 C   0  0  0  0  0  0  0  0  0  0  0  0
   -3.9740   12.7690  -33.6800 C   0  0  0  0  0  0  0  0  0  0  0  0
   -2.6270   13.1400  -33.6120 C   0  0  0  0  0  0  0  0  0  0  0  0
   -1.4180   11.9560  -34.1010 Cl  0  0  0  0  0  0  0  0  0  0  0  0
   -2.2690   14.4280  -33.1540 C   0  0  0  0  0  0  0  0  0  0  0  0
   -0.8150   14.8390  -33.0600 C   0  0  0  0  0  0  0  0  0  0  0  0
   -0.7300   16.1440  -32.6110 F   0  0  0  0  0  0  0  0  0  0  0  0
   -0.1550   14.0080  -32.1720 F   0  0  0  0  0  0  0  0  0  0  0  0
   -0.1750   14.7590  -34.2840 F   0  0  0  0  0  0  0  0  0  0  0  0
   -3.2910   15.3220  -32.7750 C   0  0  0  0  0  0  0  0  0  0  0  0
   -6.8690   18.0370  -32.8860 C   0  0  0  0  0  0  0  0  0  0  0  0
   -6.3020   19.2200  -33.3970 C   0  0  0  0  0  0  0  0  0  0  0  0
   -6.7370   20.4680  -32.9400 C   0  0  0  0  0  0  0  0  0  0  0  0
   -7.7490   20.5520  -31.9750 C   0  0  0  0  0  0  0  0  0  0  0  0
   -8.2760   22.1220  -31.3810 S   0  0  0  0  0  0  0  0  0  0  0  0
   -9.1850   21.9430  -30.1970 O   0  0  0  0  0  0  0  0  0  0  0  0
   -9.0440   22.8460  -32.4530 O   0  0  0  0  0  0  0  0  0  0  0  0
   -6.8650   23.0630  -30.9170 C   0  0  0  0  0  0  0  0  0  0  0  0
   -7.0170   24.3760  -30.4470 C   0  0  0  0  0  0  0  0  0  0  0  0
   -5.8960   25.1170  -30.0590 C   0  0  0  0  0  0  0  0  0  0  0  0
   -4.6190   24.5500  -30.1290 C   0  0  0  0  0  0  0  0  0  0  0  0
   -3.5120   25.2990  -29.7380 O   0  0  0  0  0  0  0  0  0  0  0  0
   -4.4670   23.2350  -30.5890 C   0  0  0  0  0  0  0  0  0  0  0  0
   -5.5860   22.4930  -30.9790 C   0  0  0  0  0  0  0  0  0  0  0  0
   -8.3160   19.3800  -31.4630 C   0  0  0  0  0  0  0  0  0  0  0  0
   -7.8840   18.1310  -31.9200 C   0  0  0  0  0  0  0  0  0  0  0  0
   -7.2240   16.8940  -35.2450 H   0  0  0  0  0  0  0  0  0  0  0  0
   -6.4690   15.3240  -34.8750 H   0  0  0  0  0  0  0  0  0  0  0  0
   -5.9390   15.8930  -31.4460 H   0  0  0  0  0  0  0  0  0  0  0  0
   -6.0290   13.3570  -33.3505 H   0  0  0  0  0  0  0  0  0  0  0  0
   -4.2463   11.7633  -34.0326 H   0  0  0  0  0  0  0  0  0  0  0  0
   -3.0258   16.3220  -32.4014 H   0  0  0  0  0  0  0  0  0  0  0  0
   -5.5121   19.1623  -34.1603 H   0  0  0  0  0  0  0  0  0  0  0  0
   -6.2830   21.3868  -33.3396 H   0  0  0  0  0  0  0  0  0  0  0  0
   -8.0198   24.8237  -30.3835 H   0  0  0  0  0  0  0  0  0  0  0  0
   -6.0188   26.1487  -29.6977 H   0  0  0  0  0  0  0  0  0  0  0  0
   -3.3890   25.6040  -28.7790 H   0  0  0  0  0  0  0  0  0  0  0  0
   -3.4646   22.7854  -30.6434 H   0  0  0  0  0  0  0  0  0  0  0  0
   -5.4624   21.4597  -31.3353 H   0  0  0  0  0  0  0  0  0  0  0  0
   -9.1044   19.4412  -30.6983 H   0  0  0  0  0  0  0  0  0  0  0  0
   -8.3428   17.2149  -31.5197 H   0  0  0  0  0  0  0  0  0  0  0  0
  1  2  2  0
  2  3  1  0
  3  4  1  0
  4  5  2  0
  5  6  1  0
  6  7  2  0
  7  8  1  0
  7  9  1  0
  9 10  1  0
 10 11  1  0
 10 12  1  0
 10 13  1  0
  9 14  2  0
  2 15  1  0
 15 16  2  0
 16 17  1  0
 17 18  2  0
 18 19  1  0
 19 20  2  0
 19 21  2  0
 19 22  1  0
 22 23  2  0
 23 24  1  0
 24 25  2  0
 25 26  1  0
 25 27  1  0
 27 28  2  0
 18 29  1  0
 29 30  2  0
 14  4  1  0
 30 15  1  0
 28 22  1  0
  1 31  1  0
  1 32  1  0
  3 33  1  0
  5 34  1  0
  6 35  1  0
 14 36  1  0
 16 37  1  0
 17 38  1  0
 23 39  1  0
 24 40  1  0
 26 41  1  0
 27 42  1  0
 28 43  1  0
 29 44  1  0
 30 45  1  0
M  CHG  1   1   1
M  END
>  <UniqueID>  (22) 
21

>  <SMILES>  (22) 
[NH2+]=C(Nc1ccc(Cl)c(C(F)(F)F)c1)c1ccc(S(=O)(=O)c2ccc(O)cc2)cc1

>  <Energy>  (22) 
59.432836347291115

>  <Genealogy>  (22) 
[NH2+]=C(Nc1ccc(Cl)c(C(F)(F)F)c1)c1ccc(S(=O)(=O)c2ccc(O)cc2)cc1 (protonated)
[NH2+]=C(Nc1ccc(Cl)c(C(F)(F)F)c1)c1ccc(S(=O)(=O)c2ccc(O)cc2)cc1 (3D coordinates assigned)
[NH2+]=C(Nc1ccc(Cl)c(C(F)(F)F)c1)c1ccc(S(=O)(=O)c2ccc(O)cc2)cc1 (optimized conformer: 59.432836347291115 kcal/mol)

>  <smiles>  (22) 
N=C(Nc1ccc(Cl)c(C(F)(F)F)c1)c1ccc(S(=O)(=O)c2ccc(O)cc2)cc1

>  <score_type>  (22) 
oracle

>  <origin>  (22) 
adgpu

>  <m_score__min__energy>  (22) 
-9.1400000000000006

>  <m_primary>  (22) 
energy

$$$$
22:0
     RDKit          3D

 42 44  0  0  0  0  0  0  0  0999 V2000
   -6.4580   23.4750  -32.7060 N   0  0  0  0  0  0  0  0  0  0  0  0
   -7.7890   22.8350  -31.8080 S   0  0  0  0  0  0  0  0  0  0  0  0
   -9.0690   23.4670  -32.2790 O   0  0  0  0  0  0  0  0  0  0  0  0
   -7.6050   23.1500  -30.3490 O   0  0  0  0  0  0  0  0  0  0  0  0
   -7.8660   21.0920  -32.0400 C   0  0  0  0  0  0  0  0  0  0  0  0
   -9.1050   20.4510  -32.1720 C   0  0  0  0  0  0  0  0  0  0  0  0
   -9.1630   19.0670  -32.3430 C   0  0  0  0  0  0  0  0  0  0  0  0
   -7.9870   18.3120  -32.3790 C   0  0  0  0  0  0  0  0  0  0  0  0
   -6.7340   18.9410  -32.2400 C   0  0  0  0  0  0  0  0  0  0  0  0
   -5.5040   18.1930  -32.2670 N   0  0  0  0  0  0  0  0  0  0  0  0
   -4.3110   18.6370  -32.9900 C   0  0  0  0  0  0  0  0  0  0  0  0
   -3.9630   20.0450  -32.6220 C   0  0  0  0  0  0  0  0  0  0  0  0
   -3.9820   21.1330  -33.4660 C   0  0  0  0  0  0  0  0  0  0  0  0
   -3.6840   22.1870  -32.7490 O   0  0  0  0  0  0  0  0  0  0  0  0
   -3.4990   21.7810  -31.5110 C   0  0  0  0  0  0  0  0  0  0  0  0
   -3.1490   22.6840  -30.3960 C   0  0  0  0  0  0  0  0  0  0  0  0
   -1.8060   22.9280  -30.0640 C   0  0  0  0  0  0  0  0  0  0  0  0
   -1.4830   23.7840  -29.0080 C   0  0  0  0  0  0  0  0  0  0  0  0
   -2.4900   24.4100  -28.2640 C   0  0  0  0  0  0  0  0  0  0  0  0
   -2.1100   25.2600  -27.2140 O   0  0  0  0  0  0  0  0  0  0  0  0
   -1.1250   26.2840  -27.3130 C   0  0  0  0  0  0  0  0  0  0  0  0
    0.1330   25.7510  -27.0880 F   0  0  0  0  0  0  0  0  0  0  0  0
   -1.1620   26.8250  -28.5830 F   0  0  0  0  0  0  0  0  0  0  0  0
   -3.8370   24.1680  -28.5950 C   0  0  0  0  0  0  0  0  0  0  0  0
   -4.1610   23.3120  -29.6530 C   0  0  0  0  0  0  0  0  0  0  0  0
   -3.6700   20.4480  -31.3710 N   0  0  0  0  0  0  0  0  0  0  0  0
   -6.6880   20.3340  -32.0670 C   0  0  0  0  0  0  0  0  0  0  0  0
   -5.8110   22.6800  -32.9020 H   0  0  0  0  0  0  0  0  0  0  0  0
   -6.8360   23.7910  -33.6280 H   0  0  0  0  0  0  0  0  0  0  0  0
  -10.0337   21.0397  -32.1408 H   0  0  0  0  0  0  0  0  0  0  0  0
  -10.1377   18.5685  -32.4498 H   0  0  0  0  0  0  0  0  0  0  0  0
   -8.0402   17.2219  -32.5165 H   0  0  0  0  0  0  0  0  0  0  0  0
   -5.4670   17.2880  -31.7410 H   0  0  0  0  0  0  0  0  0  0  0  0
   -3.4680   17.9782  -32.7347 H   0  0  0  0  0  0  0  0  0  0  0  0
   -4.5155   18.5940  -34.0700 H   0  0  0  0  0  0  0  0  0  0  0  0
   -4.2060   21.1190  -34.5429 H   0  0  0  0  0  0  0  0  0  0  0  0
   -1.0038   22.4422  -30.6389 H   0  0  0  0  0  0  0  0  0  0  0  0
   -0.4274   23.9677  -28.7589 H   0  0  0  0  0  0  0  0  0  0  0  0
   -1.3325   27.0611  -26.5626 H   0  0  0  0  0  0  0  0  0  0  0  0
   -4.6382   24.6542  -28.0191 H   0  0  0  0  0  0  0  0  0  0  0  0
   -5.2162   23.1297  -29.9045 H   0  0  0  0  0  0  0  0  0  0  0  0
   -5.7159   20.8357  -31.9514 H   0  0  0  0  0  0  0  0  0  0  0  0
  1  2  1  0
  2  3  2  0
  2  4  2  0
  2  5  1  0
  5  6  2  0
  6  7  1  0
  7  8  2  0
  8  9  1  0
  9 10  1  0
 10 11  1  0
 11 12  1  0
 12 13  2  0
 13 14  1  0
 14 15  1  0
 15 16  1  0
 16 17  2  0
 17 18  1  0
 18 19  2  0
 19 20  1  0
 20 21  1  0
 21 22  1  0
 21 23  1  0
 19 24  1  0
 24 25  2  0
 15 26  2  0
  9 27  2  0
 27  5  1  0
 26 12  1  0
 25 16  1  0
  1 28  1  0
  1 29  1  0
  6 30  1  0
  7 31  1  0
  8 32  1  0
 10 33  1  0
 11 34  1  0
 11 35  1  0
 13 36  1  0
 17 37  1  0
 18 38  1  0
 21 39  1  0
 24 40  1  0
 25 41  1  0
 27 42  1  0
M  END
>  <UniqueID>  (23) 
22

>  <SMILES>  (23) 
NS(=O)(=O)c1cccc(NCc2coc(-c3ccc(OC(F)F)cc3)n2)c1

>  <Energy>  (23) 
71.2611413102973

>  <Genealogy>  (23) 
NS(=O)(=O)c1cccc(NCc2coc(-c3ccc(OC(F)F)cc3)n2)c1 (3D coordinates assigned)
NS(=O)(=O)c1cccc(NCc2coc(-c3ccc(OC(F)F)cc3)n2)c1 (optimized conformer: 71.2611413102973 kcal/mol)

>  <smiles>  (23) 
NS(=O)(=O)c1cccc(NCc2coc(-c3ccc(OC(F)F)cc3)n2)c1

>  <score_type>  (23) 
oracle

>  <origin>  (23) 
adgpu

>  <m_score__min__energy>  (23) 
-8.6699999999999999

>  <m_primary>  (23) 
energy

$$$$
23:0
     RDKit          3D

 58 62  0  0  0  0  0  0  0  0999 V2000
   -3.0944   25.4604  -27.2852 H   0  0  0  0  0  0  0  0  0  0  0  0
   -3.0540   24.5210  -27.8560 C   0  0  0  0  0  0  0  0  0  0  0  0
   -4.2160   23.7700  -28.0480 C   0  0  0  0  0  0  0  0  0  0  0  0
   -5.1721   24.1223  -27.6337 H   0  0  0  0  0  0  0  0  0  0  0  0
   -4.1660   22.5710  -28.7660 C   0  0  0  0  0  0  0  0  0  0  0  0
   -5.0830   21.9813  -28.9122 H   0  0  0  0  0  0  0  0  0  0  0  0
   -2.9500   22.1170  -29.3010 C   0  0  0  0  0  0  0  0  0  0  0  0
   -2.8840   20.7950  -30.0190 C   0  0  0  0  0  0  0  0  0  0  0  0
   -3.9041   20.3976  -30.1256 H   0  0  0  0  0  0  0  0  0  0  0  0
   -2.2527   20.1174  -29.4254 H   0  0  0  0  0  0  0  0  0  0  0  0
   -2.2650   20.9260  -31.3930 C   0  0  0  0  0  0  0  0  0  0  0  0
   -0.8630   20.9620  -31.5100 C   0  0  0  0  0  0  0  0  0  0  0  0
   -0.2389   20.8894  -30.6071 H   0  0  0  0  0  0  0  0  0  0  0  0
   -0.2570   21.0890  -32.7610 C   0  0  0  0  0  0  0  0  0  0  0  0
    0.8399   21.1181  -32.8387 H   0  0  0  0  0  0  0  0  0  0  0  0
   -1.0380   21.1790  -33.9120 C   0  0  0  0  0  0  0  0  0  0  0  0
   -0.5567   21.2825  -34.8957 H   0  0  0  0  0  0  0  0  0  0  0  0
   -2.4290   21.1380  -33.8180 C   0  0  0  0  0  0  0  0  0  0  0  0
   -3.0398   21.2088  -34.7301 H   0  0  0  0  0  0  0  0  0  0  0  0
   -3.0560   21.0070  -32.5680 C   0  0  0  0  0  0  0  0  0  0  0  0
   -4.4960   20.9280  -32.5130 N   0  0  0  0  0  0  0  0  0  0  0  0
   -5.2190   22.0330  -32.1480 C   0  0  0  0  0  0  0  0  0  0  0  0
   -4.6290   23.1200  -31.8890 O   0  0  0  0  0  0  0  0  0  0  0  0
   -6.6170   21.9650  -32.0710 C   0  0  0  0  0  0  0  0  0  0  0  0
   -7.3990   23.0660  -31.6690 C   0  0  0  0  0  0  0  0  0  0  0  0
   -6.9128   24.0150  -31.3987 H   0  0  0  0  0  0  0  0  0  0  0  0
   -8.7910   22.9550  -31.6130 C   0  0  0  0  0  0  0  0  0  0  0  0
   -9.3976   23.8162  -31.2962 H   0  0  0  0  0  0  0  0  0  0  0  0
   -9.4140   21.7540  -31.9580 C   0  0  0  0  0  0  0  0  0  0  0  0
  -10.5100   21.6711  -31.9130 H   0  0  0  0  0  0  0  0  0  0  0  0
   -8.6480   20.6580  -32.3600 C   0  0  0  0  0  0  0  0  0  0  0  0
   -9.1432   19.7145  -32.6333 H   0  0  0  0  0  0  0  0  0  0  0  0
   -7.2470   20.7550  -32.4170 C   0  0  0  0  0  0  0  0  0  0  0  0
   -6.4990   19.6940  -32.8230 N   0  0  0  0  0  0  0  0  0  0  0  0
   -6.9990   18.8310  -33.1320 H   0  0  0  0  0  0  0  0  0  0  0  0
   -5.1320   19.7610  -32.8650 C   0  0  0  0  0  0  0  0  0  0  0  0
   -4.4210   18.7430  -33.2770 N   0  0  0  0  0  0  0  0  0  0  0  0
   -4.8990   17.4400  -33.6370 C   0  0  0  0  0  0  0  0  0  0  0  0
   -6.1200   17.2900  -33.9040 O   0  0  0  0  0  0  0  0  0  0  0  0
   -3.9610   16.2840  -33.8010 C   0  0  0  0  0  0  0  0  0  0  0  0
   -3.3862   16.1472  -32.8731 H   0  0  0  0  0  0  0  0  0  0  0  0
   -4.5427   15.3759  -34.0178 H   0  0  0  0  0  0  0  0  0  0  0  0
   -2.8090   16.6020  -35.1850 S   0  0  0  0  0  0  0  0  0  0  0  0
   -1.4450   17.1420  -34.1500 C   0  0  0  0  0  0  0  0  0  0  0  0
   -0.2790   17.6560  -34.7310 C   0  0  0  0  0  0  0  0  0  0  0  0
   -0.1944   17.7224  -35.8257 H   0  0  0  0  0  0  0  0  0  0  0  0
    0.7780   18.0850  -33.9220 C   0  0  0  0  0  0  0  0  0  0  0  0
    1.6963   18.4800  -34.3810 H   0  0  0  0  0  0  0  0  0  0  0  0
    0.6680   18.0120  -32.5290 C   0  0  0  0  0  0  0  0  0  0  0  0
    1.9900   18.5550  -31.5130 Cl  0  0  0  0  0  0  0  0  0  0  0  0
   -0.5000   17.5040  -31.9470 C   0  0  0  0  0  0  0  0  0  0  0  0
   -0.5881   17.4464  -30.8520 H   0  0  0  0  0  0  0  0  0  0  0  0
   -1.5540   17.0700  -32.7560 C   0  0  0  0  0  0  0  0  0  0  0  0
   -2.4706   16.6713  -32.2967 H   0  0  0  0  0  0  0  0  0  0  0  0
   -1.7850   22.8800  -29.1060 C   0  0  0  0  0  0  0  0  0  0  0  0
   -0.8267   22.5322  -29.5192 H   0  0  0  0  0  0  0  0  0  0  0  0
   -1.8400   24.0790  -28.3890 C   0  0  0  0  0  0  0  0  0  0  0  0
   -0.9269   24.6750  -28.2442 H   0  0  0  0  0  0  0  0  0  0  0  0
  1  2  1  0
  2  3  2  0
  3  4  1  0
  3  5  1  0
  5  6  1  0
  5  7  2  0
  7  8  1  0
  8  9  1  0
  8 10  1  0
  8 11  1  0
 11 12  2  0
 12 13  1  0
 12 14  1  0
 14 15  1  0
 14 16  2  0
 16 17  1  0
 16 18  1  0
 18 19  1  0
 18 20  2  0
 20 21  1  0
 21 22  1  0
 22 23  2  0
 22 24  1  0
 24 25  2  0
 25 26  1  0
 25 27  1  0
 27 28  1  0
 27 29  2  0
 29 30  1  0
 29 31  1  0
 31 32  1  0
 31 33  2  0
 33 34  1  0
 34 35  1  0
 34 36  1  0
 36 37  2  0
 37 38  1  0
 38 39  2  0
 38 40  1  0
 40 41  1  0
 40 42  1  0
 40 43  1  0
 43 44  1  0
 44 45  2  0
 45 46  1  0
 45 47  1  0
 47 48  1  0
 47 49  2  0
 49 50  1  0
 49 51  1  0
 51 52  1  0
 51 53  2  0
 53 54  1  0
  7 55  1  0
 55 56  1  0
 55 57  2  0
 57 58  1  0
 57  2  1  0
 20 11  1  0
 36 21  1  0
 53 44  1  0
 33 24  1  0
M  END
>  <UniqueID>  (24) 
23

>  <SMILES>  (24) 
O=C(CSc1ccc(Cl)cc1)/N=c1\[nH]c2ccccc2c(=O)n1-c1ccccc1Cc1ccccc1

>  <Energy>  (24) 
80.59821356706452

>  <Genealogy>  (24) 
O=C(CSc1ccc(Cl)cc1)/N=c1\[nH]c2ccccc2c(=O)n1-c1ccccc1Cc1ccccc1 (cis-trans isomerization)
O=C(CSc1ccc(Cl)cc1)/N=c1\[nH]c2ccccc2c(=O)n1-c1ccccc1Cc1ccccc1 (3D coordinates assigned)
O=C(CSc1ccc(Cl)cc1)/N=c1\[nH]c2ccccc2c(=O)n1-c1ccccc1Cc1ccccc1 (optimized conformer: 80.59821356706452 kcal/mol)

>  <smiles>  (24) 
O=C(CSc1ccc(Cl)cc1)N=c1[nH]c2ccccc2c(=O)n1-c1ccccc1Cc1ccccc1

>  <score_type>  (24) 
oracle

>  <origin>  (24) 
adgpu

>  <m_score__min__energy>  (24) 
-11.300000000000001

>  <m_primary>  (24) 
energy

$$$$
24:0
     RDKit          3D

 59 62  0  0  0  0  0  0  0  0999 V2000
   -1.7910   25.0070  -28.4220 C   0  0  0  0  0  0  0  0  0  0  0  0
   -1.8010   23.7800  -29.2960 C   0  0  0  0  0  0  0  0  0  0  0  0
   -0.6180   23.0370  -29.4260 C   0  0  0  0  0  0  0  0  0  0  0  0
   -0.5650   21.9150  -30.2510 C   0  0  0  0  0  0  0  0  0  0  0  0
   -1.7030   21.5010  -30.9600 C   0  0  0  0  0  0  0  0  0  0  0  0
   -1.6700   20.3620  -31.8390 N   0  0  0  0  0  0  0  0  0  0  0  0
   -1.2630   20.4120  -33.2160 C   0  0  0  0  0  0  0  0  0  0  0  0
   -0.6590   21.4220  -33.6690 O   0  0  0  0  0  0  0  0  0  0  0  0
   -1.5360   19.2430  -34.1300 C   0  0  0  0  0  0  0  0  0  0  0  0
   -2.8170   18.5550  -33.8550 N   0  0  0  0  0  0  0  0  0  0  0  0
   -3.1790   17.5810  -34.8980 C   0  0  0  0  0  0  0  0  0  0  0  0
   -4.2870   16.6620  -34.3750 C   0  0  0  0  0  0  0  0  0  0  0  0
   -5.3960   17.4320  -33.7000 C   0  0  0  0  0  0  0  0  0  0  0  0
   -6.6060   16.7830  -33.4070 C   0  0  0  0  0  0  0  0  0  0  0  0
   -7.6240   17.4580  -32.7260 C   0  0  0  0  0  0  0  0  0  0  0  0
   -7.4390   18.7830  -32.3230 C   0  0  0  0  0  0  0  0  0  0  0  0
   -6.2330   19.4350  -32.5980 C   0  0  0  0  0  0  0  0  0  0  0  0
   -5.1970   18.7620  -33.2680 C   0  0  0  0  0  0  0  0  0  0  0  0
   -3.9250   19.4980  -33.6100 C   0  0  0  0  0  0  0  0  0  0  0  0
   -2.8790   22.2580  -30.8620 C   0  0  0  0  0  0  0  0  0  0  0  0
   -2.9410   23.4000  -30.0450 C   0  0  0  0  0  0  0  0  0  0  0  0
   -4.4420   24.3440  -30.0040 S   0  0  0  0  0  0  0  0  0  0  0  0
   -4.2420   25.6050  -30.8010 O   0  0  0  0  0  0  0  0  0  0  0  0
   -4.7840   24.7180  -28.5860 O   0  0  0  0  0  0  0  0  0  0  0  0
   -5.7460   23.4060  -30.6880 N   0  0  0  0  0  0  0  0  0  0  0  0
   -6.8490   23.2900  -29.7200 C   0  0  0  0  0  0  0  0  0  0  0  0
   -7.8940   22.2740  -30.2170 C   0  0  0  0  0  0  0  0  0  0  0  0
   -7.8550   22.0930  -31.7440 C   0  0  0  0  0  0  0  0  0  0  0  0
   -7.5410   23.4180  -32.4440 C   0  0  0  0  0  0  0  0  0  0  0  0
   -6.2120   24.0300  -31.9450 C   0  0  0  0  0  0  0  0  0  0  0  0
   -1.7935   24.7040  -27.3646 H   0  0  0  0  0  0  0  0  0  0  0  0
   -0.8880   25.5992  -28.6316 H   0  0  0  0  0  0  0  0  0  0  0  0
   -2.6842   25.6138  -28.6316 H   0  0  0  0  0  0  0  0  0  0  0  0
    0.2797   23.3441  -28.8693 H   0  0  0  0  0  0  0  0  0  0  0  0
    0.3743   21.3507  -30.3469 H   0  0  0  0  0  0  0  0  0  0  0  0
   -1.9200   19.4290  -31.4380 H   0  0  0  0  0  0  0  0  0  0  0  0
   -1.5556   19.6107  -35.1666 H   0  0  0  0  0  0  0  0  0  0  0  0
   -0.7352   18.5087  -33.9582 H   0  0  0  0  0  0  0  0  0  0  0  0
   -3.5365   18.1153  -35.7906 H   0  0  0  0  0  0  0  0  0  0  0  0
   -2.2964   16.9791  -35.1602 H   0  0  0  0  0  0  0  0  0  0  0  0
   -4.7099   16.1003  -35.2209 H   0  0  0  0  0  0  0  0  0  0  0  0
   -3.8418   15.9876  -33.6287 H   0  0  0  0  0  0  0  0  0  0  0  0
   -6.7542   15.7374  -33.7149 H   0  0  0  0  0  0  0  0  0  0  0  0
   -8.5721   16.9449  -32.5072 H   0  0  0  0  0  0  0  0  0  0  0  0
   -8.2418   19.3130  -31.7896 H   0  0  0  0  0  0  0  0  0  0  0  0
   -6.0943   20.4812  -32.2880 H   0  0  0  0  0  0  0  0  0  0  0  0
   -4.0907   20.1010  -34.5150 H   0  0  0  0  0  0  0  0  0  0  0  0
   -3.6546   20.1429  -32.7609 H   0  0  0  0  0  0  0  0  0  0  0  0
   -3.7678   21.9532  -31.4339 H   0  0  0  0  0  0  0  0  0  0  0  0
   -6.4483   22.9539  -28.7523 H   0  0  0  0  0  0  0  0  0  0  0  0
   -7.3310   24.2725  -29.6085 H   0  0  0  0  0  0  0  0  0  0  0  0
   -7.6964   21.3023  -29.7408 H   0  0  0  0  0  0  0  0  0  0  0  0
   -8.8894   22.6585  -29.9499 H   0  0  0  0  0  0  0  0  0  0  0  0
   -7.0778   21.3577  -31.9997 H   0  0  0  0  0  0  0  0  0  0  0  0
   -8.8416   21.7427  -32.0814 H   0  0  0  0  0  0  0  0  0  0  0  0
   -7.4665   23.2397  -33.5269 H   0  0  0  0  0  0  0  0  0  0  0  0
   -8.3509   24.1262  -32.2148 H   0  0  0  0  0  0  0  0  0  0  0  0
   -5.4432   23.8855  -32.7183 H   0  0  0  0  0  0  0  0  0  0  0  0
   -6.3857   25.0981  -31.7473 H   0  0  0  0  0  0  0  0  0  0  0  0
  1  2  1  0
  2  3  2  0
  3  4  1  0
  4  5  2  0
  5  6  1  0
  6  7  1  0
  7  8  2  0
  7  9  1  0
  9 10  1  0
 10 11  1  0
 11 12  1  0
 12 13  1  0
 13 14  2  0
 14 15  1  0
 15 16  2  0
 16 17  1  0
 17 18  2  0
 18 19  1  0
  5 20  1  0
 20 21  2  0
 21 22  1  0
 22 23  2  0
 22 24  2  0
 22 25  1  0
 25 26  1  0
 26 27  1  0
 27 28  1  0
 28 29  1  0
 29 30  1  0
 21  2  1  0
 30 25  1  0
 19 10  1  0
 18 13  1  0
  1 31  1  0
  1 32  1  0
  1 33  1  0
  3 34  1  0
  4 35  1  0
  6 36  1  0
  9 37  1  0
  9 38  1  0
 11 39  1  0
 11 40  1  0
 12 41  1  0
 12 42  1  0
 14 43  1  0
 15 44  1  0
 16 45  1  0
 17 46  1  0
 19 47  1  0
 19 48  1  0
 20 49  1  0
 26 50  1  0
 26 51  1  0
 27 52  1  0
 27 53  1  0
 28 54  1  0
 28 55  1  0
 29 56  1  0
 29 57  1  0
 30 58  1  0
 30 59  1  0
M  END
>  <UniqueID>  (25) 
24

>  <SMILES>  (25) 
Cc1ccc(NC(=O)CN2CCc3ccccc3C2)cc1S(=O)(=O)N1CCCCC1

>  <Energy>  (25) 
72.3666315367951

>  <Genealogy>  (25) 
Cc1ccc(NC(=O)CN2CCc3ccccc3C2)cc1S(=O)(=O)N1CCCCC1 (3D coordinates assigned)
Cc1ccc(NC(=O)CN2CCc3ccccc3C2)cc1S(=O)(=O)N1CCCCC1 (nonaromatic ring conformer: 72.3666315367951 kcal/mol)

>  <smiles>  (25) 
Cc1ccc(NC(=O)CN2CCc3ccccc3C2)cc1S(=O)(=O)N1CCCCC1

>  <score_type>  (25) 
oracle

>  <origin>  (25) 
adgpu

>  <m_score__min__energy>  (25) 
-11.6

>  <m_primary>  (25) 
energy

$$$$
25:0
     RDKit          3D

 29 31  0  0  0  0  0  0  0  0999 V2000
   -3.8670   25.6730  -30.4590 O   0  0  0  0  0  0  0  0  0  0  0  0
   -4.3550   24.4250  -30.8240 C   0  0  0  0  0  0  0  0  0  0  0  0
   -3.5220   23.3060  -30.7740 C   0  0  0  0  0  0  0  0  0  0  0  0
   -4.0120   22.0490  -31.1420 C   0  0  0  0  0  0  0  0  0  0  0  0
   -5.3450   21.8950  -31.5680 C   0  0  0  0  0  0  0  0  0  0  0  0
   -5.8570   20.5530  -31.9590 C   0  0  0  0  0  0  0  0  0  0  0  0
   -7.1900   20.1630  -32.0910 C   0  0  0  0  0  0  0  0  0  0  0  0
   -7.3580   18.8260  -32.4740 C   0  0  0  0  0  0  0  0  0  0  0  0
   -6.1600   18.1330  -32.6530 C   0  0  0  0  0  0  0  0  0  0  0  0
   -5.9950   16.7100  -33.0560 C   0  0  0  0  0  0  0  0  0  0  0  0
   -4.9830   15.9050  -32.4940 C   0  0  0  0  0  0  0  0  0  0  0  0
   -4.8400   14.5690  -32.8840 C   0  0  0  0  0  0  0  0  0  0  0  0
   -5.7000   14.0190  -33.8360 C   0  0  0  0  0  0  0  0  0  0  0  0
   -6.7060   14.8040  -34.4000 C   0  0  0  0  0  0  0  0  0  0  0  0
   -6.8540   16.1400  -34.0160 C   0  0  0  0  0  0  0  0  0  0  0  0
   -4.9060   19.2110  -32.3260 S   0  0  0  0  0  0  0  0  0  0  0  0
   -6.1740   23.0340  -31.6150 C   0  0  0  0  0  0  0  0  0  0  0  0
   -5.6800   24.2890  -31.2450 C   0  0  0  0  0  0  0  0  0  0  0  0
   -2.4780   23.4132  -30.4445 H   0  0  0  0  0  0  0  0  0  0  0  0
   -3.3495   21.1720  -31.0982 H   0  0  0  0  0  0  0  0  0  0  0  0
   -8.0341   20.8448  -31.9104 H   0  0  0  0  0  0  0  0  0  0  0  0
   -8.3454   18.3639  -32.6205 H   0  0  0  0  0  0  0  0  0  0  0  0
   -4.3008   16.3306  -31.7433 H   0  0  0  0  0  0  0  0  0  0  0  0
   -4.0471   13.9499  -32.4389 H   0  0  0  0  0  0  0  0  0  0  0  0
   -5.5847   12.9684  -34.1410 H   0  0  0  0  0  0  0  0  0  0  0  0
   -7.3848   14.3704  -35.1491 H   0  0  0  0  0  0  0  0  0  0  0  0
   -7.6487   16.7519  -34.4677 H   0  0  0  0  0  0  0  0  0  0  0  0
   -7.2185   22.9349  -31.9455 H   0  0  0  0  0  0  0  0  0  0  0  0
   -6.3362   25.1709  -31.2856 H   0  0  0  0  0  0  0  0  0  0  0  0
  1  2  1  0
  2  3  2  0
  3  4  1  0
  4  5  2  0
  5  6  1  0
  6  7  2  0
  7  8  1  0
  8  9  2  0
  9 10  1  0
 10 11  2  0
 11 12  1  0
 12 13  2  0
 13 14  1  0
 14 15  2  0
  9 16  1  0
  5 17  1  0
 17 18  2  0
 18  2  1  0
 16  6  1  0
 15 10  1  0
  3 19  1  0
  4 20  1  0
  7 21  1  0
  8 22  1  0
 11 23  1  0
 12 24  1  0
 13 25  1  0
 14 26  1  0
 15 27  1  0
 17 28  1  0
 18 29  1  0
M  CHG  1   1  -1
M  END
>  <UniqueID>  (26) 
25

>  <SMILES>  (26) 
[O-]c1ccc(-c2ccc(-c3ccccc3)s2)cc1

>  <Energy>  (26) 
62.887151105814205

>  <Genealogy>  (26) 
[O-]c1ccc(-c2ccc(-c3ccccc3)s2)cc1 (protonated)
[O-]c1ccc(-c2ccc(-c3ccccc3)s2)cc1 (3D coordinates assigned)
[O-]c1ccc(-c2ccc(-c3ccccc3)s2)cc1 (optimized conformer: 62.887151105814205 kcal/mol)

>  <smiles>  (26) 
Oc1ccc(-c2ccc(-c3ccccc3)s2)cc1

>  <score_type>  (26) 
oracle

>  <origin>  (26) 
adgpu

>  <m_score__min__energy>  (26) 
-10.039999999999999

>  <m_primary>  (26) 
energy

$$$$
26:0
     RDKit          3D

 67 71  0  0  0  0  0  0  0  0999 V2000
   -9.4940   22.4110  -31.9320 C   0  0  0  0  0  0  0  0  0  0  0  0
   -8.7950   21.3240  -31.1230 C   0  0  0  0  0  0  0  0  0  0  0  0
   -7.5170   20.9040  -31.7920 C   0  0  0  0  0  0  0  0  0  0  0  0
   -7.2610   19.6050  -32.0930 N   0  0  0  0  0  0  0  0  0  0  0  0
   -6.0130   19.6450  -32.5900 C   0  0  0  0  0  0  0  0  0  0  0  0
   -5.2480   18.5730  -33.0400 C   0  0  0  0  0  0  0  0  0  0  0  0
   -3.9380   18.8290  -33.4900 C   0  0  0  0  0  0  0  0  0  0  0  0
   -3.1700   17.7420  -33.9360 O   0  0  0  0  0  0  0  0  0  0  0  0
   -2.0020   17.8380  -34.7530 C   0  0  0  0  0  0  0  0  0  0  0  0
   -0.9990   18.7800  -34.1410 C   0  0  0  0  0  0  0  0  0  0  0  0
   -0.6400   19.9660  -34.7960 C   0  0  0  0  0  0  0  0  0  0  0  0
    0.2920   20.8410  -34.2300 C   0  0  0  0  0  0  0  0  0  0  0  0
    0.6060   22.0190  -34.9260 O   0  0  0  0  0  0  0  0  0  0  0  0
    1.9020   22.3430  -35.4190 C   0  0  0  0  0  0  0  0  0  0  0  0
    0.8810   20.5160  -32.9920 C   0  0  0  0  0  0  0  0  0  0  0  0
    0.5380   19.3220  -32.3320 C   0  0  0  0  0  0  0  0  0  0  0  0
    1.0990   18.9540  -31.1000 O   0  0  0  0  0  0  0  0  0  0  0  0
    0.5040   19.2170  -29.8330 C   0  0  0  0  0  0  0  0  0  0  0  0
   -0.3980   18.4610  -32.9150 C   0  0  0  0  0  0  0  0  0  0  0  0
   -3.4410   20.1630  -33.4780 C   0  0  0  0  0  0  0  0  0  0  0  0
   -4.2420   21.2230  -33.0150 C   0  0  0  0  0  0  0  0  0  0  0  0
   -5.5330   20.9220  -32.5790 C   0  0  0  0  0  0  0  0  0  0  0  0
   -6.4780   21.7390  -32.0780 N   0  0  0  0  0  0  0  0  0  0  0  0
   -6.3860   23.1850  -31.8430 C   0  0  0  0  0  0  0  0  0  0  0  0
   -5.3070   23.4920  -30.8390 C   0  0  0  0  0  0  0  0  0  0  0  0
   -5.6390   23.9130  -29.5430 C   0  0  0  0  0  0  0  0  0  0  0  0
   -4.6360   24.1840  -28.6090 C   0  0  0  0  0  0  0  0  0  0  0  0
   -3.2800   24.0530  -28.9580 C   0  0  0  0  0  0  0  0  0  0  0  0
   -2.2490   24.3220  -27.9870 N   0  0  0  0  0  0  0  0  0  0  0  0
   -2.0750   23.5920  -26.7410 C   0  0  0  0  0  0  0  0  0  0  0  0
   -0.7360   24.0690  -26.1500 C   0  0  0  0  0  0  0  0  0  0  0  0
   -0.3180   25.3200  -26.9340 C   0  0  0  0  0  0  0  0  0  0  0  0
   -1.2670   25.3420  -28.0650 C   0  0  0  0  0  0  0  0  0  0  0  0
   -1.2470   26.2210  -28.9670 O   0  0  0  0  0  0  0  0  0  0  0  0
   -2.9520   23.6250  -30.2560 C   0  0  0  0  0  0  0  0  0  0  0  0
   -3.9560   23.3550  -31.1890 C   0  0  0  0  0  0  0  0  0  0  0  0
   -9.9597   23.1353  -31.2475 H   0  0  0  0  0  0  0  0  0  0  0  0
   -8.7579   22.9268  -32.5661 H   0  0  0  0  0  0  0  0  0  0  0  0
  -10.2687   21.9552  -32.5661 H   0  0  0  0  0  0  0  0  0  0  0  0
   -8.5668   21.7113  -30.1190 H   0  0  0  0  0  0  0  0  0  0  0  0
   -9.4611   20.4514  -31.0528 H   0  0  0  0  0  0  0  0  0  0  0  0
   -5.6561   17.5515  -33.0442 H   0  0  0  0  0  0  0  0  0  0  0  0
   -1.5475   16.8411  -34.8515 H   0  0  0  0  0  0  0  0  0  0  0  0
   -2.2928   18.2247  -35.7409 H   0  0  0  0  0  0  0  0  0  0  0  0
   -1.0967   20.2111  -35.7663 H   0  0  0  0  0  0  0  0  0  0  0  0
    2.5841   22.5135  -34.5730 H   0  0  0  0  0  0  0  0  0  0  0  0
    2.2794   21.5116  -36.0324 H   0  0  0  0  0  0  0  0  0  0  0  0
    1.8437   23.2542  -36.0324 H   0  0  0  0  0  0  0  0  0  0  0  0
    1.6135   21.2001  -32.5388 H   0  0  0  0  0  0  0  0  0  0  0  0
    1.1947   18.9117  -29.0331 H   0  0  0  0  0  0  0  0  0  0  0  0
    0.2920   20.2927  -29.7437 H   0  0  0  0  0  0  0  0  0  0  0  0
   -0.4342   18.6497  -29.7437 H   0  0  0  0  0  0  0  0  0  0  0  0
   -0.6654   17.5233  -32.4059 H   0  0  0  0  0  0  0  0  0  0  0  0
   -2.4205   20.3671  -33.8343 H   0  0  0  0  0  0  0  0  0  0  0  0
   -3.8629   22.2555  -32.9973 H   0  0  0  0  0  0  0  0  0  0  0  0
   -6.1518   23.6910  -32.7912 H   0  0  0  0  0  0  0  0  0  0  0  0
   -7.3489   23.5417  -31.4485 H   0  0  0  0  0  0  0  0  0  0  0  0
   -6.6955   24.0305  -29.2602 H   0  0  0  0  0  0  0  0  0  0  0  0
   -4.9092   24.5025  -27.5922 H   0  0  0  0  0  0  0  0  0  0  0  0
   -2.8996   23.8168  -26.0485 H   0  0  0  0  0  0  0  0  0  0  0  0
   -2.0756   22.5049  -26.9088 H   0  0  0  0  0  0  0  0  0  0  0  0
   -0.8597   24.3148  -25.0850 H   0  0  0  0  0  0  0  0  0  0  0  0
    0.0295   23.2830  -26.2291 H   0  0  0  0  0  0  0  0  0  0  0  0
   -0.4192   26.2247  -26.3165 H   0  0  0  0  0  0  0  0  0  0  0  0
    0.7342   25.2970  -27.2541 H   0  0  0  0  0  0  0  0  0  0  0  0
   -1.8963   23.5017  -30.5394 H   0  0  0  0  0  0  0  0  0  0  0  0
   -3.6850   23.0327  -32.2052 H   0  0  0  0  0  0  0  0  0  0  0  0
  1  2  1  0
  2  3  1  0
  3  4  2  0
  4  5  1  0
  5  6  2  0
  6  7  1  0
  7  8  1  0
  8  9  1  0
  9 10  1  0
 10 11  2  0
 11 12  1  0
 12 13  1  0
 13 14  1  0
 12 15  2  0
 15 16  1  0
 16 17  1  0
 17 18  1  0
 16 19  2  0
  7 20  2  0
 20 21  1  0
 21 22  2  0
 22 23  1  0
 23 24  1  0
 24 25  1  0
 25 26  2  0
 26 27  1  0
 27 28  2  0
 28 29  1  0
 29 30  1  0
 30 31  1  0
 31 32  1  0
 32 33  1  0
 33 34  2  0
 28 35  1  0
 35 36  2  0
 23  3  1  0
 36 25  1  0
 22  5  1  0
 33 29  1  0
 19 10  1  0
  1 37  1  0
  1 38  1  0
  1 39  1  0
  2 40  1  0
  2 41  1  0
  6 42  1  0
  9 43  1  0
  9 44  1  0
 11 45  1  0
 14 46  1  0
 14 47  1  0
 14 48  1  0
 15 49  1  0
 18 50  1  0
 18 51  1  0
 18 52  1  0
 19 53  1  0
 20 54  1  0
 21 55  1  0
 24 56  1  0
 24 57  1  0
 26 58  1  0
 27 59  1  0
 30 60  1  0
 30 61  1  0
 31 62  1  0
 31 63  1  0
 32 64  1  0
 32 65  1  0
 35 66  1  0
 36 67  1  0
M  END
>  <UniqueID>  (27) 
26

>  <SMILES>  (27) 
CCc1nc2cc(OCc3cc(OC)cc(OC)c3)ccc2n1Cc1ccc(N2CCCC2=O)cc1

>  <Energy>  (27) 
112.45630606273197

>  <Genealogy>  (27) 
CCc1nc2cc(OCc3cc(OC)cc(OC)c3)ccc2n1Cc1ccc(N2CCCC2=O)cc1 (3D coordinates assigned)
CCc1nc2cc(OCc3cc(OC)cc(OC)c3)ccc2n1Cc1ccc(N2CCCC2=O)cc1 (nonaromatic ring conformer: 112.45630606273197 kcal/mol)

>  <smiles>  (27) 
CCc1nc2cc(OCc3cc(OC)cc(OC)c3)ccc2n1Cc1ccc(N2CCCC2=O)cc1

>  <score_type>  (27) 
oracle

>  <origin>  (27) 
adgpu

>  <m_score__min__energy>  (27) 
-9.7400000000000002

>  <m_primary>  (27) 
energy

$$$$
27:0
     RDKit          3D

 58 61  0  0  0  0  0  0  0  0999 V2000
   -6.4990   25.7010  -29.2140 C   0  0  0  0  0  0  0  0  0  0  0  0
   -6.3880   25.2750  -30.5670 O   0  0  0  0  0  0  0  0  0  0  0  0
   -6.5390   23.9480  -31.0000 C   0  0  0  0  0  0  0  0  0  0  0  0
   -7.7160   23.4970  -31.6220 C   0  0  0  0  0  0  0  0  0  0  0  0
   -7.8410   22.1670  -32.0300 C   0  0  0  0  0  0  0  0  0  0  0  0
   -6.7880   21.2580  -31.8360 C   0  0  0  0  0  0  0  0  0  0  0  0
   -6.9230   19.8290  -32.2180 C   0  0  0  0  0  0  0  0  0  0  0  0
   -7.9390   19.4460  -32.8630 O   0  0  0  0  0  0  0  0  0  0  0  0
   -5.9090   18.8720  -31.8880 N   0  0  0  0  0  0  0  0  0  0  0  0
   -5.5550   17.8120  -32.7900 C   0  0  0  0  0  0  0  0  0  0  0  0
   -6.4160   16.7140  -32.9210 C   0  0  0  0  0  0  0  0  0  0  0  0
   -6.1210   15.6860  -33.8190 C   0  0  0  0  0  0  0  0  0  0  0  0
   -4.9530   15.7360  -34.5810 C   0  0  0  0  0  0  0  0  0  0  0  0
   -4.0710   16.8100  -34.4400 C   0  0  0  0  0  0  0  0  0  0  0  0
   -4.3550   17.8520  -33.5410 C   0  0  0  0  0  0  0  0  0  0  0  0
   -3.3880   18.9010  -33.3540 N   0  0  0  0  0  0  0  0  0  0  0  0
   -2.0040   18.5240  -33.0310 C   0  0  0  0  0  0  0  0  0  0  0  0
   -1.0840   19.7360  -32.8690 C   0  0  0  0  0  0  0  0  0  0  0  0
   -1.7820   20.8340  -32.3260 O   0  0  0  0  0  0  0  0  0  0  0  0
   -2.7010   21.3060  -33.2860 C   0  0  0  0  0  0  0  0  0  0  0  0
   -3.8310   20.2950  -33.5170 C   0  0  0  0  0  0  0  0  0  0  0  0
   -5.6100   21.7120  -31.2180 C   0  0  0  0  0  0  0  0  0  0  0  0
   -5.4810   23.0440  -30.8000 C   0  0  0  0  0  0  0  0  0  0  0  0
   -4.0080   23.5730  -29.9810 S   0  0  0  0  0  0  0  0  0  0  0  0
   -3.5810   24.9200  -30.4970 O   0  0  0  0  0  0  0  0  0  0  0  0
   -4.2940   23.6890  -28.5110 O   0  0  0  0  0  0  0  0  0  0  0  0
   -2.7340   22.4010  -30.2430 N   0  0  0  0  0  0  0  0  0  0  0  0
   -1.4490   22.9200  -29.7620 C   0  0  0  0  0  0  0  0  0  0  0  0
   -1.2670   22.4650  -28.3220 C   0  0  0  0  0  0  0  0  0  0  0  0
   -2.2340   21.3130  -28.1370 C   0  0  0  0  0  0  0  0  0  0  0  0
   -2.9850   21.1880  -29.4560 C   0  0  0  0  0  0  0  0  0  0  0  0
   -6.2789   24.8564  -28.5444 H   0  0  0  0  0  0  0  0  0  0  0  0
   -5.7828   26.5144  -29.0258 H   0  0  0  0  0  0  0  0  0  0  0  0
   -7.5211   26.0615  -29.0258 H   0  0  0  0  0  0  0  0  0  0  0  0
   -8.5468   24.1983  -31.7891 H   0  0  0  0  0  0  0  0  0  0  0  0
   -8.7724   21.8285  -32.5075 H   0  0  0  0  0  0  0  0  0  0  0  0
   -5.5650   18.8260  -30.9040 H   0  0  0  0  0  0  0  0  0  0  0  0
   -7.3306   16.6616  -32.3122 H   0  0  0  0  0  0  0  0  0  0  0  0
   -6.8104   14.8355  -33.9259 H   0  0  0  0  0  0  0  0  0  0  0  0
   -4.7267   14.9289  -35.2933 H   0  0  0  0  0  0  0  0  0  0  0  0
   -3.1476   16.8403  -35.0369 H   0  0  0  0  0  0  0  0  0  0  0  0
   -2.0049   17.9547  -32.0898 H   0  0  0  0  0  0  0  0  0  0  0  0
   -1.6189   17.9244  -33.8689 H   0  0  0  0  0  0  0  0  0  0  0  0
   -0.2543   19.4701  -32.1975 H   0  0  0  0  0  0  0  0  0  0  0  0
   -0.7027   20.0203  -33.8609 H   0  0  0  0  0  0  0  0  0  0  0  0
   -3.1340   22.2534  -32.9326 H   0  0  0  0  0  0  0  0  0  0  0  0
   -2.1667   21.4539  -34.2361 H   0  0  0  0  0  0  0  0  0  0  0  0
   -4.6357   20.4953  -32.7942 H   0  0  0  0  0  0  0  0  0  0  0  0
   -4.1769   20.4146  -34.5543 H   0  0  0  0  0  0  0  0  0  0  0  0
   -4.7767   21.0116  -31.0599 H   0  0  0  0  0  0  0  0  0  0  0  0
   -0.6313   22.5267  -30.3838 H   0  0  0  0  0  0  0  0  0  0  0  0
   -1.4349   24.0184  -29.8201 H   0  0  0  0  0  0  0  0  0  0  0  0
   -0.2330   22.1302  -28.1522 H   0  0  0  0  0  0  0  0  0  0  0  0
   -1.4609   23.2796  -27.6087 H   0  0  0  0  0  0  0  0  0  0  0  0
   -1.6865   20.3844  -27.9181 H   0  0  0  0  0  0  0  0  0  0  0  0
   -2.9196   21.4902  -27.2952 H   0  0  0  0  0  0  0  0  0  0  0  0
   -2.6263   20.3059  -30.0067 H   0  0  0  0  0  0  0  0  0  0  0  0
   -4.0629   21.0718  -29.2701 H   0  0  0  0  0  0  0  0  0  0  0  0
  1  2  1  0
  2  3  1  0
  3  4  2  0
  4  5  1  0
  5  6  2  0
  6  7  1  0
  7  8  2  0
  7  9  1  0
  9 10  1  0
 10 11  2  0
 11 12  1  0
 12 13  2  0
 13 14  1  0
 14 15  2  0
 15 16  1  0
 16 17  1  0
 17 18  1  0
 18 19  1  0
 19 20  1  0
 20 21  1  0
  6 22  1  0
 22 23  2  0
 23 24  1  0
 24 25  2  0
 24 26  2  0
 24 27  1  0
 27 28  1  0
 28 29  1  0
 29 30  1  0
 30 31  1  0
 23  3  1  0
 31 27  1  0
 15 10  1  0
 21 16  1  0
  1 32  1  0
  1 33  1  0
  1 34  1  0
  4 35  1  0
  5 36  1  0
  9 37  1  0
 11 38  1  0
 12 39  1  0
 13 40  1  0
 14 41  1  0
 17 42  1  0
 17 43  1  0
 18 44  1  0
 18 45  1  0
 20 46  1  0
 20 47  1  0
 21 48  1  0
 21 49  1  0
 22 50  1  0
 28 51  1  0
 28 52  1  0
 29 53  1  0
 29 54  1  0
 30 55  1  0
 30 56  1  0
 31 57  1  0
 31 58  1  0
M  END
>  <UniqueID>  (28) 
27

>  <SMILES>  (28) 
COc1ccc(C(=O)Nc2ccccc2N2CCOCC2)cc1S(=O)(=O)N1CCCC1

>  <Energy>  (28) 
74.71510208071706

>  <Genealogy>  (28) 
COc1ccc(C(=O)Nc2ccccc2N2CCOCC2)cc1S(=O)(=O)N1CCCC1 (3D coordinates assigned)
COc1ccc(C(=O)Nc2ccccc2N2CCOCC2)cc1S(=O)(=O)N1CCCC1 (nonaromatic ring conformer: 74.71510208071706 kcal/mol)

>  <smiles>  (28) 
COc1ccc(C(=O)Nc2ccccc2N2CCOCC2)cc1S(=O)(=O)N1CCCC1

>  <score_type>  (28) 
oracle

>  <origin>  (28) 
adgpu

>  <m_score__min__energy>  (28) 
-9.6300000000000008

>  <m_primary>  (28) 
energy

$$$$
28:0
     RDKit          3D

 60 63  0  0  0  0  0  0  0  0999 V2000
   -1.2160   26.0080  -27.7790 C   0  0  0  0  0  0  0  0  0  0  0  0
   -1.6110   25.1990  -26.6120 N   0  0  0  0  0  0  0  0  0  0  0  0
   -3.0680   24.9550  -26.5810 C   0  0  0  0  0  0  0  0  0  0  0  0
   -3.5220   24.0240  -27.7220 C   0  0  0  0  0  0  0  0  0  0  0  0
   -2.5370   22.9590  -27.9410 N   0  0  0  0  0  0  0  0  0  0  0  0
   -2.4480   22.2970  -29.2180 C   0  0  0  0  0  0  0  0  0  0  0  0
   -1.9970   20.9690  -29.2740 C   0  0  0  0  0  0  0  0  0  0  0  0
   -1.9090   20.3000  -30.4950 C   0  0  0  0  0  0  0  0  0  0  0  0
   -2.2750   20.9460  -31.6800 C   0  0  0  0  0  0  0  0  0  0  0  0
   -2.1110   20.1190  -33.2300 S   0  0  0  0  0  0  0  0  0  0  0  0
   -1.1630   18.9610  -33.0740 O   0  0  0  0  0  0  0  0  0  0  0  0
   -1.5200   21.0680  -34.2380 O   0  0  0  0  0  0  0  0  0  0  0  0
   -3.6550   19.5490  -33.8210 N   0  0  0  0  0  0  0  0  0  0  0  0
   -4.6830   19.6740  -32.7720 C   0  0  0  0  0  0  0  0  0  0  0  0
   -6.0830   19.3880  -33.3490 C   0  0  0  0  0  0  0  0  0  0  0  0
   -6.0280   18.5330  -34.6250 C   0  0  0  0  0  0  0  0  0  0  0  0
   -4.9130   17.4880  -34.5300 C   0  0  0  0  0  0  0  0  0  0  0  0
   -3.5370   18.1500  -34.2880 C   0  0  0  0  0  0  0  0  0  0  0  0
   -2.7350   22.2680  -31.6330 C   0  0  0  0  0  0  0  0  0  0  0  0
   -2.8290   22.9510  -30.4080 C   0  0  0  0  0  0  0  0  0  0  0  0
   -3.2440   24.3260  -30.3660 N   0  0  0  0  0  0  0  0  0  0  0  0
   -4.5820   24.8030  -30.5470 C   0  0  0  0  0  0  0  0  0  0  0  0
   -4.8030   26.0450  -30.5240 O   0  0  0  0  0  0  0  0  0  0  0  0
   -5.6950   23.8460  -30.7860 C   0  0  0  0  0  0  0  0  0  0  0  0
   -6.5910   23.5430  -29.7430 C   0  0  0  0  0  0  0  0  0  0  0  0
   -7.6090   22.5980  -29.9350 C   0  0  0  0  0  0  0  0  0  0  0  0
   -7.7450   21.9460  -31.1610 C   0  0  0  0  0  0  0  0  0  0  0  0
   -6.8700   22.2430  -32.2070 C   0  0  0  0  0  0  0  0  0  0  0  0
   -5.8450   23.1810  -32.0250 C   0  0  0  0  0  0  0  0  0  0  0  0
   -4.9820   23.4020  -33.0480 F   0  0  0  0  0  0  0  0  0  0  0  0
   -1.5590   22.6750  -26.8890 C   0  0  0  0  0  0  0  0  0  0  0  0
   -0.8020   23.9590  -26.4980 C   0  0  0  0  0  0  0  0  0  0  0  0
   -0.7575   26.9471  -27.4358 H   0  0  0  0  0  0  0  0  0  0  0  0
   -0.4908   25.4463  -28.3861 H   0  0  0  0  0  0  0  0  0  0  0  0
   -2.1050   26.2344  -28.3861 H   0  0  0  0  0  0  0  0  0  0  0  0
   -3.3300   24.4911  -25.6186 H   0  0  0  0  0  0  0  0  0  0  0  0
   -3.5771   25.9217  -26.7085 H   0  0  0  0  0  0  0  0  0  0  0  0
   -4.4897   23.5728  -27.4573 H   0  0  0  0  0  0  0  0  0  0  0  0
   -3.6178   24.6144  -28.6452 H   0  0  0  0  0  0  0  0  0  0  0  0
   -1.7104   20.4511  -28.3468 H   0  0  0  0  0  0  0  0  0  0  0  0
   -1.5504   19.2605  -30.5257 H   0  0  0  0  0  0  0  0  0  0  0  0
   -4.4691   18.9540  -31.9683 H   0  0  0  0  0  0  0  0  0  0  0  0
   -4.6646   20.7006  -32.3774 H   0  0  0  0  0  0  0  0  0  0  0  0
   -6.6749   18.8538  -32.5912 H   0  0  0  0  0  0  0  0  0  0  0  0
   -6.5408   20.3531  -33.6117 H   0  0  0  0  0  0  0  0  0  0  0  0
   -6.9923   18.0207  -34.7580 H   0  0  0  0  0  0  0  0  0  0  0  0
   -5.8232   19.1910  -35.4824 H   0  0  0  0  0  0  0  0  0  0  0  0
   -5.1329   16.8051  -33.6962 H   0  0  0  0  0  0  0  0  0  0  0  0
   -4.8703   16.9404  -35.4830 H   0  0  0  0  0  0  0  0  0  0  0  0
   -2.9949   17.5689  -33.5274 H   0  0  0  0  0  0  0  0  0  0  0  0
   -2.9990   18.1624  -35.2474 H   0  0  0  0  0  0  0  0  0  0  0  0
   -3.0256   22.7769  -32.5639 H   0  0  0  0  0  0  0  0  0  0  0  0
   -6.4918   24.0505  -28.7721 H   0  0  0  0  0  0  0  0  0  0  0  0
   -8.3046   22.3693  -29.1141 H   0  0  0  0  0  0  0  0  0  0  0  0
   -8.5403   21.1994  -31.3029 H   0  0  0  0  0  0  0  0  0  0  0  0
   -6.9854   21.7389  -33.1779 H   0  0  0  0  0  0  0  0  0  0  0  0
   -2.0816   22.2792  -26.0057 H   0  0  0  0  0  0  0  0  0  0  0  0
   -0.8365   21.9352  -27.2640 H   0  0  0  0  0  0  0  0  0  0  0  0
   -0.4684   23.8590  -25.4546 H   0  0  0  0  0  0  0  0  0  0  0  0
    0.0352   24.0608  -27.2042 H   0  0  0  0  0  0  0  0  0  0  0  0
  1  2  1  0
  2  3  1  0
  3  4  1  0
  4  5  1  0
  5  6  1  0
  6  7  2  0
  7  8  1  0
  8  9  2  0
  9 10  1  0
 10 11  2  0
 10 12  2  0
 10 13  1  0
 13 14  1  0
 14 15  1  0
 15 16  1  0
 16 17  1  0
 17 18  1  0
  9 19  1  0
 19 20  2  0
 20 21  1  0
 21 22  1  0
 22 23  2  0
 22 24  1  0
 24 25  2  0
 25 26  1  0
 26 27  2  0
 27 28  1  0
 28 29  2  0
 29 30  1  0
  5 31  1  0
 31 32  1  0
 32  2  1  0
 20  6  1  0
 29 24  1  0
 18 13  1  0
  1 33  1  0
  1 34  1  0
  1 35  1  0
  3 36  1  0
  3 37  1  0
  4 38  1  0
  4 39  1  0
  7 40  1  0
  8 41  1  0
 14 42  1  0
 14 43  1  0
 15 44  1  0
 15 45  1  0
 16 46  1  0
 16 47  1  0
 17 48  1  0
 17 49  1  0
 18 50  1  0
 18 51  1  0
 19 52  1  0
 25 53  1  0
 26 54  1  0
 27 55  1  0
 28 56  1  0
 31 57  1  0
 31 58  1  0
 32 59  1  0
 32 60  1  0
M  CHG  1  21  -1
M  END
>  <UniqueID>  (29) 
28

>  <SMILES>  (29) 
CN1CCN(c2ccc(S(=O)(=O)N3CCCCC3)cc2[N-]C(=O)c2ccccc2F)CC1

>  <Energy>  (29) 
83.2523611346791

>  <Genealogy>  (29) 
CN1CCN(c2ccc(S(=O)(=O)N3CCCCC3)cc2[N-]C(=O)c2ccccc2F)CC1 (protonated)
CN1CCN(c2ccc(S(=O)(=O)N3CCCCC3)cc2[N-]C(=O)c2ccccc2F)CC1 (3D coordinates assigned)
CN1CCN(c2ccc(S(=O)(=O)N3CCCCC3)cc2[N-]C(=O)c2ccccc2F)CC1 (nonaromatic ring conformer: 83.2523611346791 kcal/mol)

>  <smiles>  (29) 
CN1CCN(c2ccc(S(=O)(=O)N3CCCCC3)cc2NC(=O)c2ccccc2F)CC1

>  <score_type>  (29) 
oracle

>  <origin>  (29) 
adgpu

>  <m_score__min__energy>  (29) 
-10.85

>  <m_primary>  (29) 
energy

$$$$
29:0
     RDKit          3D

 51 53  0  0  0  0  0  0  0  0999 V2000
   -0.1930   23.0850  -25.0640 C   0  0  0  0  0  0  0  0  0  0  0  0
   -0.2580   22.6450  -26.4150 O   0  0  0  0  0  0  0  0  0  0  0  0
   -1.0570   23.2350  -27.4080 C   0  0  0  0  0  0  0  0  0  0  0  0
   -1.0080   24.6150  -27.6830 C   0  0  0  0  0  0  0  0  0  0  0  0
   -1.8020   25.1640  -28.6920 C   0  0  0  0  0  0  0  0  0  0  0  0
   -2.6700   24.3530  -29.4300 C   0  0  0  0  0  0  0  0  0  0  0  0
   -3.4730   24.9430  -30.4560 N   0  0  0  0  0  0  0  0  0  0  0  0
   -5.2020   24.8190  -30.5110 S   0  0  0  0  0  0  0  0  0  0  0  0
   -5.7550   26.0180  -31.2280 O   0  0  0  0  0  0  0  0  0  0  0  0
   -5.7400   24.8180  -29.1080 O   0  0  0  0  0  0  0  0  0  0  0  0
   -5.7270   23.3670  -31.3590 C   0  0  0  0  0  0  0  0  0  0  0  0
   -4.7850   22.5500  -31.9970 C   0  0  0  0  0  0  0  0  0  0  0  0
   -5.1890   21.3620  -32.6150 C   0  0  0  0  0  0  0  0  0  0  0  0
   -6.5360   20.9690  -32.5910 C   0  0  0  0  0  0  0  0  0  0  0  0
   -6.9250   19.7500  -33.2460 N   0  0  0  0  0  0  0  0  0  0  0  0
   -6.4830   18.4420  -32.8500 C   0  0  0  0  0  0  0  0  0  0  0  0
   -7.1010   17.2310  -33.4670 C   0  0  0  0  0  0  0  0  0  0  0  0
   -5.5310   18.3050  -32.0350 O   0  0  0  0  0  0  0  0  0  0  0  0
   -7.4820   21.8060  -31.9730 C   0  0  0  0  0  0  0  0  0  0  0  0
   -7.0770   22.9920  -31.3550 C   0  0  0  0  0  0  0  0  0  0  0  0
   -2.7000   22.9750  -29.1820 C   0  0  0  0  0  0  0  0  0  0  0  0
   -1.9130   22.4140  -28.1650 C   0  0  0  0  0  0  0  0  0  0  0  0
   -1.9740   21.0010  -27.9170 N   0  0  0  0  0  0  0  0  0  0  0  0
   -1.1280   20.0890  -28.6930 C   0  0  0  0  0  0  0  0  0  0  0  0
   -0.6760   18.8840  -27.8410 C   0  0  0  0  0  0  0  0  0  0  0  0
   -1.5630   18.5860  -26.6990 N   0  0  0  0  0  0  0  0  0  0  0  0
   -2.9590   18.9440  -26.9730 C   0  0  0  0  0  0  0  0  0  0  0  0
   -3.0960   20.4610  -27.1410 C   0  0  0  0  0  0  0  0  0  0  0  0
   -0.3202   22.2239  -24.3914 H   0  0  0  0  0  0  0  0  0  0  0  0
    0.7842   23.5544  -24.8779 H   0  0  0  0  0  0  0  0  0  0  0  0
   -0.9928   23.8169  -24.8779 H   0  0  0  0  0  0  0  0  0  0  0  0
   -0.3398   25.2650  -27.0991 H   0  0  0  0  0  0  0  0  0  0  0  0
   -1.7444   26.2411  -28.9077 H   0  0  0  0  0  0  0  0  0  0  0  0
   -3.7249   22.8434  -32.0121 H   0  0  0  0  0  0  0  0  0  0  0  0
   -4.4453   20.7310  -33.1237 H   0  0  0  0  0  0  0  0  0  0  0  0
   -7.5020   19.8210  -34.1160 H   0  0  0  0  0  0  0  0  0  0  0  0
   -7.4476   16.5519  -32.6741 H   0  0  0  0  0  0  0  0  0  0  0  0
   -7.9554   17.5327  -34.0907 H   0  0  0  0  0  0  0  0  0  0  0  0
   -6.3554   16.7162  -34.0907 H   0  0  0  0  0  0  0  0  0  0  0  0
   -8.5457   21.5258  -31.9761 H   0  0  0  0  0  0  0  0  0  0  0  0
   -7.8219   23.6346  -30.8628 H   0  0  0  0  0  0  0  0  0  0  0  0
   -3.3470   22.3261  -29.7906 H   0  0  0  0  0  0  0  0  0  0  0  0
   -1.6973   19.7219  -29.5597 H   0  0  0  0  0  0  0  0  0  0  0  0
   -0.2332   20.6386  -29.0205 H   0  0  0  0  0  0  0  0  0  0  0  0
   -0.6388   17.9967  -28.4901 H   0  0  0  0  0  0  0  0  0  0  0  0
    0.3063   19.1442  -27.4199 H   0  0  0  0  0  0  0  0  0  0  0  0
   -1.2360   19.1310  -25.8640 H   0  0  0  0  0  0  0  0  0  0  0  0
   -3.2867   18.4455  -27.8972 H   0  0  0  0  0  0  0  0  0  0  0  0
   -3.5840   18.6198  -26.1279 H   0  0  0  0  0  0  0  0  0  0  0  0
   -4.0373   20.6825  -27.6653 H   0  0  0  0  0  0  0  0  0  0  0  0
   -3.0943   20.9284  -26.1452 H   0  0  0  0  0  0  0  0  0  0  0  0
  1  2  1  0
  2  3  1  0
  3  4  2  0
  4  5  1  0
  5  6  2  0
  6  7  1  0
  7  8  1  0
  8  9  2  0
  8 10  2  0
  8 11  1  0
 11 12  2  0
 12 13  1  0
 13 14  2  0
 14 15  1  0
 15 16  1  0
 16 17  1  0
 16 18  2  0
 14 19  1  0
 19 20  2  0
  6 21  1  0
 21 22  2  0
 22 23  1  0
 23 24  1  0
 24 25  1  0
 25 26  1  0
 26 27  1  0
 27 28  1  0
 22  3  1  0
 28 23  1  0
 20 11  1  0
  1 29  1  0
  1 30  1  0
  1 31  1  0
  4 32  1  0
  5 33  1  0
 12 34  1  0
 13 35  1  0
 15 36  1  0
 17 37  1  0
 17 38  1  0
 17 39  1  0
 19 40  1  0
 20 41  1  0
 21 42  1  0
 24 43  1  0
 24 44  1  0
 25 45  1  0
 25 46  1  0
 26 47  1  0
 27 48  1  0
 27 49  1  0
 28 50  1  0
 28 51  1  0
M  CHG  1   7  -1
M  END
>  <UniqueID>  (30) 
29

>  <SMILES>  (30) 
COc1ccc([N-]S(=O)(=O)c2ccc(NC(C)=O)cc2)cc1N1CCNCC1

>  <Energy>  (30) 
68.30757255536209

>  <Genealogy>  (30) 
COc1ccc([N-]S(=O)(=O)c2ccc(NC(C)=O)cc2)cc1N1CCNCC1 (protonated)
COc1ccc([N-]S(=O)(=O)c2ccc(NC(C)=O)cc2)cc1N1CCNCC1 (3D coordinates assigned)
COc1ccc([N-]S(=O)(=O)c2ccc(NC(C)=O)cc2)cc1N1CCNCC1 (nonaromatic ring conformer: 68.30757255536209 kcal/mol)

>  <smiles>  (30) 
COc1ccc(NS(=O)(=O)c2ccc(NC(C)=O)cc2)cc1N1CCNCC1

>  <score_type>  (30) 
oracle

>  <origin>  (30) 
adgpu

>  <m_score__min__energy>  (30) 
-10.1

>  <m_primary>  (30) 
energy

$$$$
30:0
     RDKit          3D

 49 51  0  0  0  0  0  0  0  0999 V2000
   -4.5720   22.6470  -28.1690 C   0  0  0  0  0  0  0  0  0  0  0  0
   -3.9530   23.7870  -27.3670 C   0  0  0  0  0  0  0  0  0  0  0  0
   -2.4530   23.8110  -27.5390 C   0  0  0  0  0  0  0  0  0  0  0  0
   -1.6380   23.2250  -26.5550 C   0  0  0  0  0  0  0  0  0  0  0  0
   -0.2500   23.2060  -26.7040 C   0  0  0  0  0  0  0  0  0  0  0  0
    0.3370   23.7540  -27.8450 C   0  0  0  0  0  0  0  0  0  0  0  0
   -0.4590   24.3270  -28.8370 C   0  0  0  0  0  0  0  0  0  0  0  0
   -1.8590   24.3770  -28.6900 C   0  0  0  0  0  0  0  0  0  0  0  0
   -2.6980   24.9260  -29.7190 N   0  0  0  0  0  0  0  0  0  0  0  0
   -3.5340   24.1980  -30.6280 C   0  0  0  0  0  0  0  0  0  0  0  0
   -4.6730   24.6440  -30.9360 O   0  0  0  0  0  0  0  0  0  0  0  0
   -3.0570   22.9100  -31.1900 C   0  0  0  0  0  0  0  0  0  0  0  0
   -1.7990   22.4230  -30.7870 C   0  0  0  0  0  0  0  0  0  0  0  0
   -1.2810   21.2480  -31.3340 C   0  0  0  0  0  0  0  0  0  0  0  0
   -2.0100   20.5380  -32.2850 C   0  0  0  0  0  0  0  0  0  0  0  0
   -3.2650   20.9950  -32.6870 C   0  0  0  0  0  0  0  0  0  0  0  0
   -3.8040   22.1770  -32.1480 C   0  0  0  0  0  0  0  0  0  0  0  0
   -5.1400   22.5720  -32.5110 N   0  0  0  0  0  0  0  0  0  0  0  0
   -6.2780   21.6940  -32.4030 C   0  0  0  0  0  0  0  0  0  0  0  0
   -6.2760   20.4710  -33.0940 C   0  0  0  0  0  0  0  0  0  0  0  0
   -7.3860   19.6330  -33.0570 C   0  0  0  0  0  0  0  0  0  0  0  0
   -8.5250   20.0100  -32.3520 C   0  0  0  0  0  0  0  0  0  0  0  0
   -8.5680   21.2340  -31.6640 C   0  0  0  0  0  0  0  0  0  0  0  0
   -9.8320   21.6060  -30.9310 C   0  0  0  0  0  0  0  0  0  0  0  0
   -7.4210   22.0740  -31.6530 C   0  0  0  0  0  0  0  0  0  0  0  0
   -7.4180   23.3750  -30.8820 C   0  0  0  0  0  0  0  0  0  0  0  0
   -4.9811   21.8937  -27.4797 H   0  0  0  0  0  0  0  0  0  0  0  0
   -5.3800   23.0411  -28.8029 H   0  0  0  0  0  0  0  0  0  0  0  0
   -3.8014   22.1840  -28.8029 H   0  0  0  0  0  0  0  0  0  0  0  0
   -4.3714   24.7424  -27.7164 H   0  0  0  0  0  0  0  0  0  0  0  0
   -4.1834   23.6347  -26.3022 H   0  0  0  0  0  0  0  0  0  0  0  0
   -2.0972   22.7781  -25.6609 H   0  0  0  0  0  0  0  0  0  0  0  0
    0.3810   22.7589  -25.9217 H   0  0  0  0  0  0  0  0  0  0  0  0
    1.4305   23.7341  -27.9626 H   0  0  0  0  0  0  0  0  0  0  0  0
    0.0102   24.7429  -29.7408 H   0  0  0  0  0  0  0  0  0  0  0  0
   -1.2181   22.9744  -30.0330 H   0  0  0  0  0  0  0  0  0  0  0  0
   -0.2946   20.8818  -31.0132 H   0  0  0  0  0  0  0  0  0  0  0  0
   -1.5957   19.6162  -32.7193 H   0  0  0  0  0  0  0  0  0  0  0  0
   -3.8388   20.4254  -33.4329 H   0  0  0  0  0  0  0  0  0  0  0  0
   -5.2880   23.5480  -32.8480 H   0  0  0  0  0  0  0  0  0  0  0  0
   -5.3877   20.1728  -33.6703 H   0  0  0  0  0  0  0  0  0  0  0  0
   -7.3632   18.6693  -33.5868 H   0  0  0  0  0  0  0  0  0  0  0  0
   -9.3998   19.3434  -32.3333 H   0  0  0  0  0  0  0  0  0  0  0  0
   -9.6557   21.5541  -29.8465 H   0  0  0  0  0  0  0  0  0  0  0  0
  -10.1276   22.6292  -31.2059 H   0  0  0  0  0  0  0  0  0  0  0  0
  -10.6348   20.9060  -31.2059 H   0  0  0  0  0  0  0  0  0  0  0  0
   -7.4185   23.1617  -29.8029 H   0  0  0  0  0  0  0  0  0  0  0  0
   -6.5185   23.9527  -31.1412 H   0  0  0  0  0  0  0  0  0  0  0  0
   -8.3148   23.9569  -31.1412 H   0  0  0  0  0  0  0  0  0  0  0  0
  1  2  1  0
  2  3  1  0
  3  4  2  0
  4  5  1  0
  5  6  2  0
  6  7  1  0
  7  8  2  0
  8  9  1  0
  9 10  1  0
 10 11  2  0
 10 12  1  0
 12 13  2  0
 13 14  1  0
 14 15  2  0
 15 16  1  0
 16 17  2  0
 17 18  1  0
 18 19  1  0
 19 20  2  0
 20 21  1  0
 21 22  2  0
 22 23  1  0
 23 24  1  0
 23 25  2  0
 25 26  1  0
  8  3  1  0
 17 12  1  0
 25 19  1  0
  1 27  1  0
  1 28  1  0
  1 29  1  0
  2 30  1  0
  2 31  1  0
  4 32  1  0
  5 33  1  0
  6 34  1  0
  7 35  1  0
 13 36  1  0
 14 37  1  0
 15 38  1  0
 16 39  1  0
 18 40  1  0
 20 41  1  0
 21 42  1  0
 22 43  1  0
 24 44  1  0
 24 45  1  0
 24 46  1  0
 26 47  1  0
 26 48  1  0
 26 49  1  0
M  CHG  1   9  -1
M  END
>  <UniqueID>  (31) 
30

>  <SMILES>  (31) 
CCc1ccccc1[N-]C(=O)c1ccccc1Nc1cccc(C)c1C

>  <Energy>  (31) 
64.56199234663782

>  <Genealogy>  (31) 
CCc1ccccc1[N-]C(=O)c1ccccc1Nc1cccc(C)c1C (protonated)
CCc1ccccc1[N-]C(=O)c1ccccc1Nc1cccc(C)c1C (3D coordinates assigned)
CCc1ccccc1[N-]C(=O)c1ccccc1Nc1cccc(C)c1C (optimized conformer: 64.56199234663782 kcal/mol)

>  <smiles>  (31) 
CCc1ccccc1NC(=O)c1ccccc1Nc1cccc(C)c1C

>  <score_type>  (31) 
oracle

>  <origin>  (31) 
adgpu

>  <m_score__min__energy>  (31) 
-10.789999999999999

>  <m_primary>  (31) 
energy

$$$$
31:0
     RDKit          3D

 44 47  0  0  0  0  0  0  0  0999 V2000
   -3.0920   21.4800  -28.6900 C   0  0  0  0  0  0  0  0  0  0  0  0
   -2.8730   21.5270  -30.1320 N   0  0  0  0  0  0  0  0  0  0  0  0
   -1.9180   20.8390  -30.7380 N   0  0  0  0  0  0  0  0  0  0  0  0
   -2.0010   21.0960  -32.0580 C   0  0  0  0  0  0  0  0  0  0  0  0
   -3.0370   21.9770  -32.2970 C   0  0  0  0  0  0  0  0  0  0  0  0
   -3.5660   22.2390  -31.0480 C   0  0  0  0  0  0  0  0  0  0  0  0
   -4.6970   23.1520  -30.7680 C   0  0  0  0  0  0  0  0  0  0  0  0
   -6.0160   22.7220  -30.9930 C   0  0  0  0  0  0  0  0  0  0  0  0
   -7.0930   23.5640  -30.7090 C   0  0  0  0  0  0  0  0  0  0  0  0
   -6.8670   24.8410  -30.1960 C   0  0  0  0  0  0  0  0  0  0  0  0
   -5.5620   25.2790  -29.9600 C   0  0  0  0  0  0  0  0  0  0  0  0
   -4.4690   24.4350  -30.2300 C   0  0  0  0  0  0  0  0  0  0  0  0
   -3.1500   24.8760  -30.0300 O   0  0  0  0  0  0  0  0  0  0  0  0
   -2.3950   24.6740  -28.8660 C   0  0  0  0  0  0  0  0  0  0  0  0
   -2.9940   24.5530  -27.6000 C   0  0  0  0  0  0  0  0  0  0  0  0
   -2.2070   24.3290  -26.4660 C   0  0  0  0  0  0  0  0  0  0  0  0
   -0.8160   24.2100  -26.5860 C   0  0  0  0  0  0  0  0  0  0  0  0
    0.1650   23.9110  -25.1550 S   0  0  0  0  0  0  0  0  0  0  0  0
   -0.4670   22.8540  -24.2940 O   0  0  0  0  0  0  0  0  0  0  0  0
    1.5280   23.4460  -25.5850 O   0  0  0  0  0  0  0  0  0  0  0  0
    0.3180   25.3700  -24.2340 N   0  0  0  0  0  0  0  0  0  0  0  0
   -0.0000   26.6480  -24.7930 C   0  0  0  0  0  0  0  0  0  0  0  0
   -0.7530   27.5950  -24.1070 C   0  0  0  0  0  0  0  0  0  0  0  0
   -0.8840   28.9450  -25.0990 S   0  0  0  0  0  0  0  0  0  0  0  0
    0.0140   28.2720  -26.3500 C   0  0  0  0  0  0  0  0  0  0  0  0
    0.4230   27.0240  -26.0320 N   0  0  0  0  0  0  0  0  0  0  0  0
   -0.2190   24.3200  -27.8490 C   0  0  0  0  0  0  0  0  0  0  0  0
   -1.0070   24.5430  -28.9820 C   0  0  0  0  0  0  0  0  0  0  0  0
   -2.1450   21.6832  -28.1685 H   0  0  0  0  0  0  0  0  0  0  0  0
   -3.8365   22.2388  -28.4073 H   0  0  0  0  0  0  0  0  0  0  0  0
   -3.4596   20.4825  -28.4073 H   0  0  0  0  0  0  0  0  0  0  0  0
   -1.3429   20.6686  -32.8288 H   0  0  0  0  0  0  0  0  0  0  0  0
   -3.3674   22.3802  -33.2657 H   0  0  0  0  0  0  0  0  0  0  0  0
   -6.2011   21.7152  -31.3956 H   0  0  0  0  0  0  0  0  0  0  0  0
   -8.1218   23.2194  -30.8902 H   0  0  0  0  0  0  0  0  0  0  0  0
   -7.7172   25.5037  -29.9771 H   0  0  0  0  0  0  0  0  0  0  0  0
   -5.3877   26.2891  -29.5609 H   0  0  0  0  0  0  0  0  0  0  0  0
   -4.0865   24.6349  -27.5010 H   0  0  0  0  0  0  0  0  0  0  0  0
   -2.6812   24.2460  -25.4770 H   0  0  0  0  0  0  0  0  0  0  0  0
    0.6720   25.3070  -23.2530 H   0  0  0  0  0  0  0  0  0  0  0  0
   -1.1833   27.4813  -23.1010 H   0  0  0  0  0  0  0  0  0  0  0  0
    0.2386   28.7792  -27.2999 H   0  0  0  0  0  0  0  0  0  0  0  0
    0.8728   24.2306  -27.9492 H   0  0  0  0  0  0  0  0  0  0  0  0
   -0.5323   24.6160  -29.9716 H   0  0  0  0  0  0  0  0  0  0  0  0
  1  2  1  0
  2  3  1  0
  3  4  2  0
  4  5  1  0
  5  6  2  0
  6  7  1  0
  7  8  2  0
  8  9  1  0
  9 10  2  0
 10 11  1  0
 11 12  2  0
 12 13  1  0
 13 14  1  0
 14 15  2  0
 15 16  1  0
 16 17  2  0
 17 18  1  0
 18 19  2  0
 18 20  2  0
 18 21  1  0
 21 22  1  0
 22 23  2  0
 23 24  1  0
 24 25  1  0
 25 26  2  0
 17 27  1  0
 27 28  2  0
  6  2  1  0
 12  7  1  0
 28 14  1  0
 26 22  1  0
  1 29  1  0
  1 30  1  0
  1 31  1  0
  4 32  1  0
  5 33  1  0
  8 34  1  0
  9 35  1  0
 10 36  1  0
 11 37  1  0
 15 38  1  0
 16 39  1  0
 21 40  1  0
 23 41  1  0
 25 42  1  0
 27 43  1  0
 28 44  1  0
M  END
>  <UniqueID>  (32) 
31

>  <SMILES>  (32) 
Cn1nccc1-c1ccccc1Oc1ccc(S(=O)(=O)Nc2cscn2)cc1

>  <Energy>  (32) 
119.41500972083412

>  <Genealogy>  (32) 
Cn1nccc1-c1ccccc1Oc1ccc(S(=O)(=O)Nc2cscn2)cc1 (3D coordinates assigned)
Cn1nccc1-c1ccccc1Oc1ccc(S(=O)(=O)Nc2cscn2)cc1 (optimized conformer: 119.41500972083412 kcal/mol)

>  <smiles>  (32) 
Cn1nccc1-c1ccccc1Oc1ccc(S(=O)(=O)Nc2cscn2)cc1

>  <score_type>  (32) 
oracle

>  <origin>  (32) 
adgpu

>  <m_score__min__energy>  (32) 
-8.8699999999999992

>  <m_primary>  (32) 
energy

$$$$
32:0
     RDKit          3D

 48 51  0  0  0  0  0  0  0  0999 V2000
   -2.4658   25.2873  -28.0427 H   0  0  0  0  0  0  0  0  0  0  0  0
   -2.5530   24.4640  -28.7670 C   0  0  0  0  0  0  0  0  0  0  0  0
   -2.0430   23.2290  -28.6150 N   0  0  0  0  0  0  0  0  0  0  0  0
   -2.3860   22.5720  -29.7450 C   0  0  0  0  0  0  0  0  0  0  0  0
   -2.0610   21.3180  -29.9040 N   0  0  0  0  0  0  0  0  0  0  0  0
   -2.2810   20.4710  -31.0350 C   0  0  0  0  0  0  0  0  0  0  0  0
   -1.1990   19.9760  -31.7730 C   0  0  0  0  0  0  0  0  0  0  0  0
   -0.1743   20.2831  -31.5169 H   0  0  0  0  0  0  0  0  0  0  0  0
   -1.4170   19.0930  -32.8340 C   0  0  0  0  0  0  0  0  0  0  0  0
   -0.5646   18.7325  -33.4285 H   0  0  0  0  0  0  0  0  0  0  0  0
   -2.7190   18.6620  -33.1470 C   0  0  0  0  0  0  0  0  0  0  0  0
   -2.9460   17.7170  -34.3120 C   0  0  0  0  0  0  0  0  0  0  0  0
   -2.3190   18.0578  -35.1491 H   0  0  0  0  0  0  0  0  0  0  0  0
   -4.4080   17.7550  -34.7720 C   0  0  0  0  0  0  0  0  0  0  0  0
   -5.0687   17.7722  -33.8927 H   0  0  0  0  0  0  0  0  0  0  0  0
   -4.5788   18.6579  -35.3767 H   0  0  0  0  0  0  0  0  0  0  0  0
   -4.6255   16.8622  -35.3767 H   0  0  0  0  0  0  0  0  0  0  0  0
   -2.5150   16.2900  -33.9600 C   0  0  0  0  0  0  0  0  0  0  0  0
   -2.4807   16.1766  -32.8664 H   0  0  0  0  0  0  0  0  0  0  0  0
   -3.2372   15.5746  -34.3804 H   0  0  0  0  0  0  0  0  0  0  0  0
   -1.5176   16.0940  -34.3804 H   0  0  0  0  0  0  0  0  0  0  0  0
   -3.7950   19.1210  -32.3640 C   0  0  0  0  0  0  0  0  0  0  0  0
   -4.8172   18.7805  -32.5860 H   0  0  0  0  0  0  0  0  0  0  0  0
   -3.5720   20.0070  -31.3060 C   0  0  0  0  0  0  0  0  0  0  0  0
   -4.4157   20.3406  -30.6840 H   0  0  0  0  0  0  0  0  0  0  0  0
   -3.1070   23.3440  -30.6110 N   0  0  0  0  0  0  0  0  0  0  0  0
   -3.7370   23.0430  -31.9050 C   0  0  0  0  0  0  0  0  0  0  0  0
   -3.6138   23.9130  -32.5668 H   0  0  0  0  0  0  0  0  0  0  0  0
   -3.2451   22.1475  -32.3126 H   0  0  0  0  0  0  0  0  0  0  0  0
   -5.2100   22.7360  -31.7810 C   0  0  0  0  0  0  0  0  0  0  0  0
   -6.0090   23.5470  -30.9580 C   0  0  0  0  0  0  0  0  0  0  0  0
   -5.5553   24.3948  -30.4239 H   0  0  0  0  0  0  0  0  0  0  0  0
   -7.3730   23.2880  -30.8110 C   0  0  0  0  0  0  0  0  0  0  0  0
   -7.9889   23.9386  -30.1727 H   0  0  0  0  0  0  0  0  0  0  0  0
   -7.9600   22.2020  -31.4740 C   0  0  0  0  0  0  0  0  0  0  0  0
   -9.3330   21.9430  -31.3470 C   0  0  0  0  0  0  0  0  0  0  0  0
   -9.9605   22.5995  -30.7263 H   0  0  0  0  0  0  0  0  0  0  0  0
   -9.9050   20.8520  -32.0080 C   0  0  0  0  0  0  0  0  0  0  0  0
  -10.9819   20.6524  -31.9061 H   0  0  0  0  0  0  0  0  0  0  0  0
   -9.1140   20.0150  -32.7970 C   0  0  0  0  0  0  0  0  0  0  0  0
   -9.5703   19.1580  -33.3140 H   0  0  0  0  0  0  0  0  0  0  0  0
   -7.7450   20.2610  -32.9330 C   0  0  0  0  0  0  0  0  0  0  0  0
   -7.1266   19.5968  -33.5547 H   0  0  0  0  0  0  0  0  0  0  0  0
   -7.1580   21.3550  -32.2770 C   0  0  0  0  0  0  0  0  0  0  0  0
   -5.7860   21.6170  -32.4100 C   0  0  0  0  0  0  0  0  0  0  0  0
   -5.1566   20.9432  -33.0099 H   0  0  0  0  0  0  0  0  0  0  0  0
   -3.1990   24.5270  -29.9730 C   0  0  0  0  0  0  0  0  0  0  0  0
   -3.8670   25.6420  -30.4670 O   0  0  0  0  0  0  0  0  0  0  0  0
  1  2  1  0
  2  3  1  0
  3  4  1  0
  4  5  2  0
  5  6  1  0
  6  7  2  0
  7  8  1  0
  7  9  1  0
  9 10  1  0
  9 11  2  0
 11 12  1  0
 12 13  1  0
 12 14  1  0
 14 15  1  0
 14 16  1  0
 14 17  1  0
 12 18  1  0
 18 19  1  0
 18 20  1  0
 18 21  1  0
 11 22  1  0
 22 23  1  0
 22 24  2  0
 24 25  1  0
  4 26  1  0
 26 27  1  0
 27 28  1  0
 27 29  1  0
 27 30  1  0
 30 31  2  0
 31 32  1  0
 31 33  1  0
 33 34  1  0
 33 35  2  0
 35 36  1  0
 36 37  1  0
 36 38  2  0
 38 39  1  0
 38 40  1  0
 40 41  1  0
 40 42  2  0
 42 43  1  0
 42 44  1  0
 44 45  2  0
 45 46  1  0
 26 47  1  0
 47 48  1  0
 47  2  2  0
 24  6  1  0
 45 30  1  0
 44 35  1  0
M  CHG  2   3  -1  48  -1
M  END
>  <UniqueID>  (33) 
32

>  <SMILES>  (33) 
CC(C)c1ccc(/N=c2/[n-]cc([O-])n2Cc2ccc3ccccc3c2)cc1

>  <Energy>  (33) 
93.1240275761617

>  <Genealogy>  (33) 
CC(C)c1ccc(N=c2[n-]cc([O-])n2Cc2ccc3ccccc3c2)cc1 (protonated)
CC(C)c1ccc(/N=c2/[n-]cc([O-])n2Cc2ccc3ccccc3c2)cc1 (cis-trans isomerization)
CC(C)c1ccc(/N=c2/[n-]cc([O-])n2Cc2ccc3ccccc3c2)cc1 (3D coordinates assigned)
CC(C)c1ccc(/N=c2/[n-]cc([O-])n2Cc2ccc3ccccc3c2)cc1 (optimized conformer: 93.1240275761617 kcal/mol)

>  <smiles>  (33) 
CC(C)c1ccc(N=c2[nH]cc(O)n2Cc2ccc3ccccc3c2)cc1

>  <score_type>  (33) 
oracle

>  <origin>  (33) 
adgpu

>  <m_score__min__energy>  (33) 
-12.6

>  <m_primary>  (33) 
energy

$$$$
33:0
     RDKit          3D

 52 57  0  0  0  0  0  0  0  0999 V2000
   -8.7330   18.1940  -31.6840 O   0  0  0  0  0  0  0  0  0  0  0  0
   -7.7970   18.9500  -32.0710 C   0  0  0  0  0  0  0  0  0  0  0  0
   -6.6250   18.3990  -32.6050 C   0  0  0  0  0  0  0  0  0  0  0  0
   -6.4970   17.0020  -32.7550 C   0  0  0  0  0  0  0  0  0  0  0  0
   -5.3580   16.4530  -33.3370 C   0  0  0  0  0  0  0  0  0  0  0  0
   -4.3410   17.2830  -33.7920 C   0  0  0  0  0  0  0  0  0  0  0  0
   -4.4420   18.6670  -33.6430 C   0  0  0  0  0  0  0  0  0  0  0  0
   -5.5690   19.2580  -33.0120 C   0  0  0  0  0  0  0  0  0  0  0  0
   -5.6700   20.6270  -32.8160 N   0  0  0  0  0  0  0  0  0  0  0  0
   -4.4790   21.4990  -32.9920 C   0  0  0  0  0  0  0  0  0  0  0  0
   -3.8420   21.8940  -31.6770 C   0  0  0  0  0  0  0  0  0  0  0  0
   -2.6000   21.3380  -31.3300 C   0  0  0  0  0  0  0  0  0  0  0  0
   -1.9630   21.7060  -30.1410 C   0  0  0  0  0  0  0  0  0  0  0  0
   -2.5500   22.6510  -29.2880 C   0  0  0  0  0  0  0  0  0  0  0  0
   -1.8800   23.0330  -28.0250 C   0  0  0  0  0  0  0  0  0  0  0  0
   -1.5030   24.3770  -27.8590 C   0  0  0  0  0  0  0  0  0  0  0  0
   -0.7930   24.7820  -26.7280 C   0  0  0  0  0  0  0  0  0  0  0  0
   -0.4460   23.8510  -25.7510 C   0  0  0  0  0  0  0  0  0  0  0  0
   -0.8240   22.5140  -25.8910 C   0  0  0  0  0  0  0  0  0  0  0  0
   -1.5560   22.0860  -27.0150 C   0  0  0  0  0  0  0  0  0  0  0  0
   -1.9980   20.6710  -27.0710 C   0  0  0  0  0  0  0  0  0  0  0  0
   -1.1600   19.6140  -27.0520 N   0  0  0  0  0  0  0  0  0  0  0  0
   -1.9450   18.5510  -27.0750 N   0  0  0  0  0  0  0  0  0  0  0  0
   -3.2060   18.9450  -27.1010 N   0  0  0  0  0  0  0  0  0  0  0  0
   -3.2830   20.2640  -27.0930 N   0  0  0  0  0  0  0  0  0  0  0  0
   -3.7920   23.2080  -29.6290 C   0  0  0  0  0  0  0  0  0  0  0  0
   -4.4270   22.8430  -30.8180 C   0  0  0  0  0  0  0  0  0  0  0  0
   -6.8690   21.1810  -32.3970 C   0  0  0  0  0  0  0  0  0  0  0  0
   -7.0770   22.5850  -32.3610 C   0  0  0  0  0  0  0  0  0  0  0  0
   -8.2790   23.1250  -31.9030 C   0  0  0  0  0  0  0  0  0  0  0  0
   -9.3060   22.2910  -31.4770 C   0  0  0  0  0  0  0  0  0  0  0  0
   -9.1440   20.9080  -31.5240 C   0  0  0  0  0  0  0  0  0  0  0  0
   -7.9420   20.3400  -31.9930 C   0  0  0  0  0  0  0  0  0  0  0  0
   -7.3048   16.3405  -32.4088 H   0  0  0  0  0  0  0  0  0  0  0  0
   -5.2631   15.3617  -33.4367 H   0  0  0  0  0  0  0  0  0  0  0  0
   -3.4522   16.8474  -34.2718 H   0  0  0  0  0  0  0  0  0  0  0  0
   -3.6346   19.3115  -34.0209 H   0  0  0  0  0  0  0  0  0  0  0  0
   -3.7342   20.9592  -33.5952 H   0  0  0  0  0  0  0  0  0  0  0  0
   -4.8144   22.4218  -33.4880 H   0  0  0  0  0  0  0  0  0  0  0  0
   -2.1241   20.6065  -31.9996 H   0  0  0  0  0  0  0  0  0  0  0  0
   -0.9973   21.2521  -29.8738 H   0  0  0  0  0  0  0  0  0  0  0  0
   -1.7703   25.1166  -28.6281 H   0  0  0  0  0  0  0  0  0  0  0  0
   -0.5069   25.8373  -26.6076 H   0  0  0  0  0  0  0  0  0  0  0  0
    0.1268   24.1699  -24.8677 H   0  0  0  0  0  0  0  0  0  0  0  0
   -0.5466   21.7866  -25.1139 H   0  0  0  0  0  0  0  0  0  0  0  0
   -4.0280   18.3030  -27.1210 H   0  0  0  0  0  0  0  0  0  0  0  0
   -4.2681   23.9362  -28.9560 H   0  0  0  0  0  0  0  0  0  0  0  0
   -5.3911   23.3004  -31.0850 H   0  0  0  0  0  0  0  0  0  0  0  0
   -6.2764   23.2588  -32.7002 H   0  0  0  0  0  0  0  0  0  0  0  0
   -8.4147   24.2163  -31.8789 H   0  0  0  0  0  0  0  0  0  0  0  0
  -10.2461   22.7226  -31.1030 H   0  0  0  0  0  0  0  0  0  0  0  0
   -9.9625   20.2525  -31.1917 H   0  0  0  0  0  0  0  0  0  0  0  0
  1  2  2  0
  2  3  1  0
  3  4  2  0
  4  5  1  0
  5  6  2  0
  6  7  1  0
  7  8  2  0
  8  9  1  0
  9 10  1  0
 10 11  1  0
 11 12  2  0
 12 13  1  0
 13 14  2  0
 14 15  1  0
 15 16  2  0
 16 17  1  0
 17 18  2  0
 18 19  1  0
 19 20  2  0
 20 21  1  0
 21 22  1  0
 22 23  2  0
 23 24  1  0
 24 25  1  0
 14 26  1  0
 26 27  2  0
  9 28  1  0
 28 29  2  0
 29 30  1  0
 30 31  2  0
 31 32  1  0
 32 33  2  0
 33  2  1  0
  8  3  1  0
 27 11  1  0
 33 28  1  0
 20 15  1  0
 25 21  2  0
  4 34  1  0
  5 35  1  0
  6 36  1  0
  7 37  1  0
 10 38  1  0
 10 39  1  0
 12 40  1  0
 13 41  1  0
 16 42  1  0
 17 43  1  0
 18 44  1  0
 19 45  1  0
 24 46  1  0
 26 47  1  0
 27 48  1  0
 29 49  1  0
 30 50  1  0
 31 51  1  0
 32 52  1  0
M  END
>  <UniqueID>  (34) 
33

>  <SMILES>  (34) 
O=c1c2ccccc2n(Cc2ccc(-c3ccccc3-c3nn[nH]n3)cc2)c2ccccc12

>  <Energy>  (34) 
131.64012764628833

>  <Genealogy>  (34) 
O=c1c2ccccc2n(Cc2ccc(-c3ccccc3-c3nn[nH]n3)cc2)c2ccccc12 (3D coordinates assigned)
O=c1c2ccccc2n(Cc2ccc(-c3ccccc3-c3nn[nH]n3)cc2)c2ccccc12 (optimized conformer: 131.64012764628833 kcal/mol)

>  <smiles>  (34) 
O=c1c2ccccc2n(Cc2ccc(-c3ccccc3-c3nn[nH]n3)cc2)c2ccccc12

>  <score_type>  (34) 
oracle

>  <origin>  (34) 
adgpu

>  <m_score__min__energy>  (34) 
-11.32

>  <m_primary>  (34) 
energy

$$$$
34:0
     RDKit          3D

 48 50  0  0  1  0  0  0  0  0999 V2000
   -4.2520   21.8750  -33.5130 N   0  0  0  0  0  0  0  0  0  0  0  0
   -0.9830   21.2260  -32.4600 C   0  0  0  0  0  0  0  0  0  0  0  0
   -3.4890   21.1140  -31.4630 C   0  0  0  0  0  0  0  0  0  0  0  0
   -2.4160   20.7520  -30.6760 C   0  0  0  0  0  0  0  0  0  0  0  0
   -1.1700   20.8120  -31.1850 N   0  0  0  0  0  0  0  0  0  0  0  0
   -0.0610   20.4250  -30.3340 C   0  0  0  0  0  0  0  0  0  0  0  0
   -0.5670   20.1570  -28.9130 C   0  0  0  0  0  0  0  0  0  0  0  0
   -0.0820   21.2070  -27.9570 C   0  0  0  0  0  0  0  0  0  0  0  0
   -1.1320   21.9940  -27.3600 N   0  0  0  0  0  0  0  0  0  0  0  0
   -2.1640   22.6520  -28.0610 C   0  0  0  0  0  0  0  0  0  0  0  0
   -3.4820   22.2110  -27.9110 C   0  0  0  0  0  0  0  0  0  0  0  0
   -4.5350   22.8230  -28.5550 C   0  0  0  0  0  0  0  0  0  0  0  0
   -4.3330   23.9100  -29.3890 C   0  0  0  0  0  0  0  0  0  0  0  0
   -5.7220   24.5980  -30.1650 S   0  0  0  0  0  0  0  0  0  0  0  0
   -5.3690   24.6450  -31.6590 O   0  0  0  0  0  0  0  0  0  0  0  0
   -5.8380   26.0480  -29.7160 O   0  0  0  0  0  0  0  0  0  0  0  0
   -7.1570   23.7050  -29.9450 N   0  0  0  0  0  0  0  0  0  0  0  0
   -7.3770   22.5770  -30.4900 C   0  0  0  0  0  0  0  0  0  0  0  0
   -6.4760   21.9630  -31.3150 C   0  0  0  0  0  0  0  0  0  0  0  0
   -6.6720   20.7450  -31.9230 C   0  0  0  0  0  0  0  0  0  0  0  0
   -7.8920   20.1200  -31.6560 C   0  0  0  0  0  0  0  0  0  0  0  0
   -8.3600   18.4410  -32.3940 Br  0  0  0  0  0  0  0  0  0  0  0  0
   -8.8180   20.7310  -30.8210 C   0  0  0  0  0  0  0  0  0  0  0  0
   -8.5600   21.9430  -30.2470 N   0  0  0  0  0  0  0  0  0  0  0  0
   -3.0430   24.3450  -29.5400 C   0  0  0  0  0  0  0  0  0  0  0  0
   -1.9880   23.7310  -28.8920 C   0  0  0  0  0  0  0  0  0  0  0  0
   -3.2770   21.5330  -32.7600 C   0  0  0  0  0  0  0  0  0  0  0  0
    0.1760   21.2860  -32.9430 O   0  0  0  0  0  0  0  0  0  0  0  0
   -2.0310   21.5800  -33.2250 N   0  0  0  0  0  0  0  0  0  0  0  0
   -4.0950   22.1930  -34.4960 H   0  0  0  0  0  0  0  0  0  0  0  0
   -4.5106   21.0688  -31.0578 H   0  0  0  0  0  0  0  0  0  0  0  0
   -2.5762   20.4168  -29.6406 H   0  0  0  0  0  0  0  0  0  0  0  0
    0.4052   19.5125  -30.7339 H   0  0  0  0  0  0  0  0  0  0  0  0
    0.6790   21.2385  -30.3089 H   0  0  0  0  0  0  0  0  0  0  0  0
   -1.6670   20.1569  -28.9179 H   0  0  0  0  0  0  0  0  0  0  0  0
   -0.1804   19.1812  -28.5839 H   0  0  0  0  0  0  0  0  0  0  0  0
    0.4759   20.7081  -27.1508 H   0  0  0  0  0  0  0  0  0  0  0  0
    0.5406   21.9016  -28.5401 H   0  0  0  0  0  0  0  0  0  0  0  0
   -1.1110   22.0730  -26.3060 H   0  0  0  0  0  0  0  0  0  0  0  0
   -3.6846   21.3488  -27.2587 H   0  0  0  0  0  0  0  0  0  0  0  0
   -5.5554   22.4410  -28.4039 H   0  0  0  0  0  0  0  0  0  0  0  0
   -5.5247   22.4811  -31.5065 H   0  0  0  0  0  0  0  0  0  0  0  0
   -5.9146   20.2912  -32.5790 H   0  0  0  0  0  0  0  0  0  0  0  0
   -9.7761   20.2301  -30.6183 H   0  0  0  0  0  0  0  0  0  0  0  0
   -9.2650   22.3910  -29.6200 H   0  0  0  0  0  0  0  0  0  0  0  0
   -2.8414   25.2059  -30.1944 H   0  0  0  0  0  0  0  0  0  0  0  0
   -0.9711   24.1205  -29.0474 H   0  0  0  0  0  0  0  0  0  0  0  0
   -1.8770   21.8960  -34.2030 H   0  0  0  0  0  0  0  0  0  0  0  0
  1  2  2  3
  2  3  1  0
  3  4  2  0
  4  5  1  0
  5  6  1  0
  6  7  1  0
  7  8  1  0
  8  9  1  0
  9 10  1  0
 10 11  2  0
 11 12  1  0
 12 13  2  0
 13 14  1  0
 14 15  2  0
 14 16  2  0
 14 17  1  0
 17 18  2  0
 18 19  1  0
 19 20  2  0
 20 21  1  0
 21 22  1  0
 21 23  2  0
 23 24  1  0
 13 25  1  0
 25 26  2  0
  5 27  1  0
 27 28  2  0
 27 29  1  0
 29  2  1  0
 26 10  1  0
 24 18  1  0
  1 30  1  0
  3 31  1  0
  4 32  1  0
  6 33  1  0
  6 34  1  0
  7 35  1  0
  7 36  1  0
  8 37  1  0
  8 38  1  0
  9 39  1  0
 11 40  1  0
 12 41  1  0
 19 42  1  0
 20 43  1  0
 23 44  1  0
 24 45  1  0
 25 46  1  0
 26 47  1  0
 29 48  1  0
M  END
>  <smiles>  (35) 
N=c1ccn(CCCNc2ccc(S(=O)(=O)N=c3ccc(Br)c[nH]3)cc2)c(=O)[nH]1

>  <score_type>  (35) 
oracle

>  <origin>  (35) 
adgpu

>  <m_score__min__energy>  (35) 
-10.390000000000001

>  <m_primary>  (35) 
energy

$$$$
35:0
     RDKit          3D

 49 52  0  0  1  0  0  0  0  0999 V2000
   -5.2680   25.2050  -30.3660 C   0  0  0  0  0  0  0  0  0  0  0  0
   -4.8090   24.2190  -31.2300 O   0  0  0  0  0  0  0  0  0  0  0  0
   -5.6020   23.1450  -31.5840 C   0  0  0  0  0  0  0  0  0  0  0  0
   -6.9540   23.2640  -31.3950 C   0  0  0  0  0  0  0  0  0  0  0  0
   -7.7340   22.1910  -31.7510 C   0  0  0  0  0  0  0  0  0  0  0  0
   -9.0580   22.3040  -31.5710 N   0  0  0  0  0  0  0  0  0  0  0  0
   -9.8690   21.2900  -31.9030 C   0  0  0  0  0  0  0  0  0  0  0  0
   -9.3080   20.1880  -32.4070 N   0  0  0  0  0  0  0  0  0  0  0  0
   -7.9730   20.0360  -32.6050 C   0  0  0  0  0  0  0  0  0  0  0  0
   -7.5650   18.9780  -33.0790 N   0  0  0  0  0  0  0  0  0  0  0  0
   -6.3260   18.5180  -33.3920 C   0  0  0  0  0  0  0  0  0  0  0  0
   -5.7350   18.6400  -34.6790 C   0  0  0  0  0  0  0  0  0  0  0  0
   -4.5220   18.0410  -34.9470 C   0  0  0  0  0  0  0  0  0  0  0  0
   -3.8410   17.3070  -33.9780 C   0  0  0  0  0  0  0  0  0  0  0  0
   -2.5520   16.6500  -34.2060 C   0  0  0  0  0  0  0  0  0  0  0  0
   -1.4950   17.3520  -33.5240 N   0  0  0  0  0  0  0  0  0  0  0  0
   -1.0910   18.6450  -33.9690 C   0  0  0  0  0  0  0  0  0  0  0  0
   -0.1350   18.7900  -34.9700 C   0  0  0  0  0  0  0  0  0  0  0  0
    0.2460   20.0280  -35.3900 C   0  0  0  0  0  0  0  0  0  0  0  0
   -0.2940   21.1500  -34.8460 C   0  0  0  0  0  0  0  0  0  0  0  0
    0.0700   22.4290  -35.2480 O   0  0  0  0  0  0  0  0  0  0  0  0
   -1.2490   21.0460  -33.8490 C   0  0  0  0  0  0  0  0  0  0  0  0
   -1.6390   19.7760  -33.4190 C   0  0  0  0  0  0  0  0  0  0  0  0
   -4.4150   17.1870  -32.7230 C   0  0  0  0  0  0  0  0  0  0  0  0
   -5.6250   17.7680  -32.4090 C   0  0  0  0  0  0  0  0  0  0  0  0
   -7.1280   21.0560  -32.2750 C   0  0  0  0  0  0  0  0  0  0  0  0
   -5.7780   20.9690  -32.4490 C   0  0  0  0  0  0  0  0  0  0  0  0
   -4.9620   22.0550  -32.0920 C   0  0  0  0  0  0  0  0  0  0  0  0
   -3.5860   22.0270  -32.2450 O   0  0  0  0  0  0  0  0  0  0  0  0
   -5.1169   24.8804  -29.3259 H   0  0  0  0  0  0  0  0  0  0  0  0
   -4.7110   26.1367  -30.5439 H   0  0  0  0  0  0  0  0  0  0  0  0
   -6.3395   25.3787  -30.5439 H   0  0  0  0  0  0  0  0  0  0  0  0
   -7.3959   24.1800  -30.9759 H   0  0  0  0  0  0  0  0  0  0  0  0
  -10.9579   21.3629  -31.7652 H   0  0  0  0  0  0  0  0  0  0  0  0
   -9.9750   19.4070  -32.6590 H   0  0  0  0  0  0  0  0  0  0  0  0
   -6.2474   19.2147  -35.4646 H   0  0  0  0  0  0  0  0  0  0  0  0
   -4.0816   18.1452  -35.9496 H   0  0  0  0  0  0  0  0  0  0  0  0
   -2.6013   15.6176  -33.8296 H   0  0  0  0  0  0  0  0  0  0  0  0
   -2.3396   16.6530  -35.2853 H   0  0  0  0  0  0  0  0  0  0  0  0
   -1.0190   16.9230  -32.7010 H   0  0  0  0  0  0  0  0  0  0  0  0
    0.3168   17.8967  -35.4259 H   0  0  0  0  0  0  0  0  0  0  0  0
    1.0032   20.1213  -36.1825 H   0  0  0  0  0  0  0  0  0  0  0  0
   -0.6020   23.0300  -35.7220 H   0  0  0  0  0  0  0  0  0  0  0  0
   -1.6929   21.9483  -33.4032 H   0  0  0  0  0  0  0  0  0  0  0  0
   -2.3969   19.6810  -32.6275 H   0  0  0  0  0  0  0  0  0  0  0  0
   -3.8872   16.6083  -31.9506 H   0  0  0  0  0  0  0  0  0  0  0  0
   -6.0471   17.6514  -31.3999 H   0  0  0  0  0  0  0  0  0  0  0  0
   -5.3313   20.0544  -32.8661 H   0  0  0  0  0  0  0  0  0  0  0  0
   -3.0300   22.8380  -31.9490 H   0  0  0  0  0  0  0  0  0  0  0  0
  1  2  1  0
  2  3  1  0
  3  4  2  0
  4  5  1  0
  5  6  1  0
  6  7  2  0
  7  8  1  0
  8  9  1  0
  9 10  2  0
 10 11  1  0
 11 12  2  0
 12 13  1  0
 13 14  2  0
 14 15  1  0
 15 16  1  0
 16 17  1  0
 17 18  2  0
 18 19  1  0
 19 20  2  0
 20 21  1  0
 20 22  1  0
 22 23  2  0
 14 24  1  0
 24 25  2  0
  9 26  1  0
 26 27  1  0
 27 28  2  0
 28 29  1  0
 28  3  1  0
 26  5  2  0
 25 11  1  0
 23 17  1  0
  1 30  1  0
  1 31  1  0
  1 32  1  0
  4 33  1  0
  7 34  1  0
  8 35  1  0
 12 36  1  0
 13 37  1  0
 15 38  1  0
 15 39  1  0
 16 40  1  0
 18 41  1  0
 19 42  1  0
 21 43  1  0
 22 44  1  0
 23 45  1  0
 24 46  1  0
 25 47  1  0
 27 48  1  0
 29 49  1  0
M  END
>  <smiles>  (36) 
COc1cc2nc[nH]c(=Nc3ccc(CNc4ccc(O)cc4)cc3)c2cc1O

>  <score_type>  (36) 
oracle

>  <origin>  (36) 
adgpu

>  <m_score__min__energy>  (36) 
-8.7400000000000002

>  <m_primary>  (36) 
energy

$$$$
36:0
     RDKit          3D

 55 57  0  0  0  0  0  0  0  0999 V2000
   -0.9060   28.4250  -25.2970 C   0  0  0  0  0  0  0  0  0  0  0  0
   -1.2620   27.0510  -24.9210 N   0  0  0  0  0  0  0  0  0  0  0  0
   -0.8610   26.7860  -23.5330 C   0  0  0  0  0  0  0  0  0  0  0  0
   -0.4740   25.9190  -25.9920 S   0  0  0  0  0  0  0  0  0  0  0  0
    0.1970   24.8470  -25.1790 O   0  0  0  0  0  0  0  0  0  0  0  0
    0.5870   26.6340  -26.7820 O   0  0  0  0  0  0  0  0  0  0  0  0
   -1.6210   25.1710  -27.1060 C   0  0  0  0  0  0  0  0  0  0  0  0
   -2.8410   24.6750  -26.6330 C   0  0  0  0  0  0  0  0  0  0  0  0
   -3.7540   24.0900  -27.5150 C   0  0  0  0  0  0  0  0  0  0  0  0
   -3.4560   23.9850  -28.8860 C   0  0  0  0  0  0  0  0  0  0  0  0
   -4.4410   23.3650  -29.8060 C   0  0  0  0  0  0  0  0  0  0  0  0
   -4.0220   22.7740  -30.8380 O   0  0  0  0  0  0  0  0  0  0  0  0
   -5.8550   23.4190  -29.5350 N   0  0  0  0  0  0  0  0  0  0  0  0
   -6.8610   22.9340  -30.4390 C   0  0  0  0  0  0  0  0  0  0  0  0
   -7.6090   23.8530  -31.1910 C   0  0  0  0  0  0  0  0  0  0  0  0
   -8.5740   23.4060  -32.0980 C   0  0  0  0  0  0  0  0  0  0  0  0
   -8.7910   22.0370  -32.2730 C   0  0  0  0  0  0  0  0  0  0  0  0
   -8.0360   21.1070  -31.5440 C   0  0  0  0  0  0  0  0  0  0  0  0
   -8.2640   19.3770  -31.7930 S   0  0  0  0  0  0  0  0  0  0  0  0
   -9.0050   19.1390  -33.0790 O   0  0  0  0  0  0  0  0  0  0  0  0
   -9.0950   18.8420  -30.6610 O   0  0  0  0  0  0  0  0  0  0  0  0
   -6.7200   18.5490  -31.8160 N   0  0  0  0  0  0  0  0  0  0  0  0
   -5.6210   19.4290  -32.2610 C   0  0  0  0  0  0  0  0  0  0  0  0
   -5.6540   19.7100  -33.7750 C   0  0  0  0  0  0  0  0  0  0  0  0
   -6.0420   18.4770  -34.6090 C   0  0  0  0  0  0  0  0  0  0  0  0
   -5.9280   17.1830  -33.8050 C   0  0  0  0  0  0  0  0  0  0  0  0
   -6.7980   17.2530  -32.5370 C   0  0  0  0  0  0  0  0  0  0  0  0
   -7.0660   21.5570  -30.6390 C   0  0  0  0  0  0  0  0  0  0  0  0
   -2.2340   24.4980  -29.3570 C   0  0  0  0  0  0  0  0  0  0  0  0
   -1.3230   25.0830  -28.4710 C   0  0  0  0  0  0  0  0  0  0  0  0
   -0.7505   29.0252  -24.3884 H   0  0  0  0  0  0  0  0  0  0  0  0
    0.0190   28.4143  -25.8922 H   0  0  0  0  0  0  0  0  0  0  0  0
   -1.7198   28.8648  -25.8922 H   0  0  0  0  0  0  0  0  0  0  0  0
   -1.5785   27.2602  -22.8472 H   0  0  0  0  0  0  0  0  0  0  0  0
   -0.8473   25.7004  -23.3562 H   0  0  0  0  0  0  0  0  0  0  0  0
    0.1431   27.1990  -23.3562 H   0  0  0  0  0  0  0  0  0  0  0  0
   -3.0826   24.7458  -25.5622 H   0  0  0  0  0  0  0  0  0  0  0  0
   -4.7130   23.7087  -27.1342 H   0  0  0  0  0  0  0  0  0  0  0  0
   -6.1850   23.7850  -28.6140 H   0  0  0  0  0  0  0  0  0  0  0  0
   -7.4348   24.9319  -31.0658 H   0  0  0  0  0  0  0  0  0  0  0  0
   -9.1637   24.1335  -32.6751 H   0  0  0  0  0  0  0  0  0  0  0  0
   -9.5550   21.6883  -32.9834 H   0  0  0  0  0  0  0  0  0  0  0  0
   -5.6986   20.3862  -31.7246 H   0  0  0  0  0  0  0  0  0  0  0  0
   -4.6749   18.9124  -32.0416 H   0  0  0  0  0  0  0  0  0  0  0  0
   -6.3869   20.5075  -33.9672 H   0  0  0  0  0  0  0  0  0  0  0  0
   -4.6376   20.0035  -34.0765 H   0  0  0  0  0  0  0  0  0  0  0  0
   -7.0811   18.5922  -34.9509 H   0  0  0  0  0  0  0  0  0  0  0  0
   -5.3481   18.4104  -35.4599 H   0  0  0  0  0  0  0  0  0  0  0  0
   -6.2635   16.3403  -34.4273 H   0  0  0  0  0  0  0  0  0  0  0  0
   -4.8785   17.0426  -33.5070 H   0  0  0  0  0  0  0  0  0  0  0  0
   -7.8452   17.0822  -32.8273 H   0  0  0  0  0  0  0  0  0  0  0  0
   -6.4158   16.4848  -31.8486 H   0  0  0  0  0  0  0  0  0  0  0  0
   -6.4602   20.8281  -30.0807 H   0  0  0  0  0  0  0  0  0  0  0  0
   -1.9931   24.4389  -30.4287 H   0  0  0  0  0  0  0  0  0  0  0  0
   -0.3676   25.4759  -28.8489 H   0  0  0  0  0  0  0  0  0  0  0  0
  1  2  1  0
  2  3  1  0
  2  4  1  0
  4  5  2  0
  4  6  2  0
  4  7  1  0
  7  8  2  0
  8  9  1  0
  9 10  2  0
 10 11  1  0
 11 12  2  0
 11 13  1  0
 13 14  1  0
 14 15  2  0
 15 16  1  0
 16 17  2  0
 17 18  1  0
 18 19  1  0
 19 20  2  0
 19 21  2  0
 19 22  1  0
 22 23  1  0
 23 24  1  0
 24 25  1  0
 25 26  1  0
 26 27  1  0
 18 28  2  0
 10 29  1  0
 29 30  2  0
 30  7  1  0
 28 14  1  0
 27 22  1  0
  1 31  1  0
  1 32  1  0
  1 33  1  0
  3 34  1  0
  3 35  1  0
  3 36  1  0
  8 37  1  0
  9 38  1  0
 13 39  1  0
 15 40  1  0
 16 41  1  0
 17 42  1  0
 23 43  1  0
 23 44  1  0
 24 45  1  0
 24 46  1  0
 25 47  1  0
 25 48  1  0
 26 49  1  0
 26 50  1  0
 27 51  1  0
 27 52  1  0
 28 53  1  0
 29 54  1  0
 30 55  1  0
M  END
>  <UniqueID>  (37) 
34

>  <SMILES>  (37) 
CN(C)S(=O)(=O)c1ccc(C(=O)Nc2cccc(S(=O)(=O)N3CCCCC3)c2)cc1

>  <Energy>  (37) 
67.16512815818365

>  <Genealogy>  (37) 
CN(C)S(=O)(=O)c1ccc(C(=O)Nc2cccc(S(=O)(=O)N3CCCCC3)c2)cc1 (3D coordinates assigned)
CN(C)S(=O)(=O)c1ccc(C(=O)Nc2cccc(S(=O)(=O)N3CCCCC3)c2)cc1 (nonaromatic ring conformer: 67.16512815818365 kcal/mol)

>  <smiles>  (37) 
CN(C)S(=O)(=O)c1ccc(C(=O)Nc2cccc(S(=O)(=O)N3CCCCC3)c2)cc1

>  <score_type>  (37) 
oracle

>  <origin>  (37) 
adgpu

>  <m_score__min__energy>  (37) 
-9.9000000000000004

>  <m_primary>  (37) 
energy

$$$$
37:0
     RDKit          3D

 47 49  0  0  0  0  0  0  0  0999 V2000
   -1.4560   17.0510  -35.0000 C   0  0  0  0  0  0  0  0  0  0  0  0
   -2.8370   16.7520  -34.8240 O   0  0  0  0  0  0  0  0  0  0  0  0
   -3.4050   15.4770  -34.9810 C   0  0  0  0  0  0  0  0  0  0  0  0
   -2.7470   14.4530  -35.6890 C   0  0  0  0  0  0  0  0  0  0  0  0
   -3.3400   13.1950  -35.8280 C   0  0  0  0  0  0  0  0  0  0  0  0
   -2.6990   12.2150  -36.5110 F   0  0  0  0  0  0  0  0  0  0  0  0
   -4.5930   12.9460  -35.2640 C   0  0  0  0  0  0  0  0  0  0  0  0
   -5.2550   13.9530  -34.5590 C   0  0  0  0  0  0  0  0  0  0  0  0
   -4.6690   15.2190  -34.4130 C   0  0  0  0  0  0  0  0  0  0  0  0
   -5.5130   16.4830  -33.5160 S   0  0  0  0  0  0  0  0  0  0  0  0
   -6.8720   16.6760  -34.1270 O   0  0  0  0  0  0  0  0  0  0  0  0
   -5.6820   16.0950  -32.0740 O   0  0  0  0  0  0  0  0  0  0  0  0
   -4.5780   17.9440  -33.5960 N   0  0  0  0  0  0  0  0  0  0  0  0
   -5.0710   19.1900  -33.0880 C   0  0  0  0  0  0  0  0  0  0  0  0
   -4.2350   20.3160  -33.0860 C   0  0  0  0  0  0  0  0  0  0  0  0
   -4.7170   21.5510  -32.6470 C   0  0  0  0  0  0  0  0  0  0  0  0
   -6.0350   21.6700  -32.1890 C   0  0  0  0  0  0  0  0  0  0  0  0
   -6.6650   23.2430  -31.7120 S   0  0  0  0  0  0  0  0  0  0  0  0
   -7.6160   23.7870  -32.7400 O   0  0  0  0  0  0  0  0  0  0  0  0
   -7.4100   23.0730  -30.4190 O   0  0  0  0  0  0  0  0  0  0  0  0
   -5.3660   24.3660  -31.4530 N   0  0  0  0  0  0  0  0  0  0  0  0
   -4.3760   24.3110  -30.6070 C   0  0  0  0  0  0  0  0  0  0  0  0
   -3.5140   25.2940  -30.5020 O   0  0  0  0  0  0  0  0  0  0  0  0
   -2.6150   25.0450  -29.5970 N   0  0  0  0  0  0  0  0  0  0  0  0
   -2.8980   23.8350  -29.0800 C   0  0  0  0  0  0  0  0  0  0  0  0
   -2.0690   23.1780  -28.0250 C   0  0  0  0  0  0  0  0  0  0  0  0
   -4.0270   23.3110  -29.6960 C   0  0  0  0  0  0  0  0  0  0  0  0
   -4.5730   21.9300  -29.4840 C   0  0  0  0  0  0  0  0  0  0  0  0
   -6.8560   20.5360  -32.1370 C   0  0  0  0  0  0  0  0  0  0  0  0
   -6.3760   19.3000  -32.5830 C   0  0  0  0  0  0  0  0  0  0  0  0
   -0.9751   17.1551  -34.0162 H   0  0  0  0  0  0  0  0  0  0  0  0
   -0.9730   16.2366  -35.5599 H   0  0  0  0  0  0  0  0  0  0  0  0
   -1.3531   17.9922  -35.5599 H   0  0  0  0  0  0  0  0  0  0  0  0
   -1.7601   14.6443  -36.1355 H   0  0  0  0  0  0  0  0  0  0  0  0
   -5.0588   11.9557  -35.3753 H   0  0  0  0  0  0  0  0  0  0  0  0
   -6.2415   13.7525  -34.1156 H   0  0  0  0  0  0  0  0  0  0  0  0
   -3.8100   17.9650  -34.3030 H   0  0  0  0  0  0  0  0  0  0  0  0
   -3.1947   20.2260  -33.4319 H   0  0  0  0  0  0  0  0  0  0  0  0
   -4.0595   22.4328  -32.6610 H   0  0  0  0  0  0  0  0  0  0  0  0
   -2.4395   23.4716  -27.0318 H   0  0  0  0  0  0  0  0  0  0  0  0
   -2.1364   22.0854  -28.1332 H   0  0  0  0  0  0  0  0  0  0  0  0
   -1.0207   23.4932  -28.1332 H   0  0  0  0  0  0  0  0  0  0  0  0
   -4.6526   21.7287  -28.4055 H   0  0  0  0  0  0  0  0  0  0  0  0
   -5.5686   21.8545  -29.9455 H   0  0  0  0  0  0  0  0  0  0  0  0
   -3.8982   21.1941  -29.9455 H   0  0  0  0  0  0  0  0  0  0  0  0
   -7.8804   20.6177  -31.7446 H   0  0  0  0  0  0  0  0  0  0  0  0
   -7.0232   18.4117  -32.5378 H   0  0  0  0  0  0  0  0  0  0  0  0
  1  2  1  0
  2  3  1  0
  3  4  2  0
  4  5  1  0
  5  6  1  0
  5  7  2  0
  7  8  1  0
  8  9  2  0
  9 10  1  0
 10 11  2  0
 10 12  2  0
 10 13  1  0
 13 14  1  0
 14 15  2  0
 15 16  1  0
 16 17  2  0
 17 18  1  0
 18 19  2  0
 18 20  2  0
 18 21  1  0
 21 22  2  3
 22 23  1  0
 23 24  1  0
 24 25  1  0
 25 26  1  0
 25 27  2  0
 27 28  1  0
 17 29  1  0
 29 30  2  0
  9  3  1  0
 30 14  1  0
 27 22  1  0
  1 31  1  0
  1 32  1  0
  1 33  1  0
  4 34  1  0
  7 35  1  0
  8 36  1  0
 13 37  1  0
 15 38  1  0
 16 39  1  0
 26 40  1  0
 26 41  1  0
 26 42  1  0
 28 43  1  0
 28 44  1  0
 28 45  1  0
 29 46  1  0
 30 47  1  0
M  CHG  1  24  -1
M  END
>  <UniqueID>  (38) 
35

>  <SMILES>  (38) 
COc1cc(F)ccc1S(=O)(=O)Nc1ccc(S(=O)(=O)N=c2o[n-]c(C)c2C)cc1

>  <Energy>  (38) 
91.89177409464726

>  <Genealogy>  (38) 
COc1cc(F)ccc1S(=O)(=O)Nc1ccc(S(=O)(=O)N=c2o[n-]c(C)c2C)cc1 (protonated)
COc1cc(F)ccc1S(=O)(=O)Nc1ccc(S(=O)(=O)N=c2o[n-]c(C)c2C)cc1 (3D coordinates assigned)
COc1cc(F)ccc1S(=O)(=O)Nc1ccc(S(=O)(=O)N=c2o[n-]c(C)c2C)cc1 (optimized conformer: 91.89177409464726 kcal/mol)

>  <smiles>  (38) 
COc1cc(F)ccc1S(=O)(=O)Nc1ccc(S(=O)(=O)N=c2o[nH]c(C)c2C)cc1

>  <score_type>  (38) 
oracle

>  <origin>  (38) 
adgpu

>  <m_score__min__energy>  (38) 
-10.890000000000001

>  <m_primary>  (38) 
energy

$$$$
38:0
     RDKit          3D

 34 36  0  0  0  0  0  0  0  0999 V2000
   -9.2520   19.5570  -32.7000 C   0  0  0  0  0  0  0  0  0  0  0  0
   -8.2130   20.5220  -32.2100 C   0  0  0  0  0  0  0  0  0  0  0  0
   -8.5840   21.6160  -31.4150 C   0  0  0  0  0  0  0  0  0  0  0  0
   -7.6230   22.5370  -30.9880 C   0  0  0  0  0  0  0  0  0  0  0  0
   -6.2800   22.3910  -31.3730 C   0  0  0  0  0  0  0  0  0  0  0  0
   -5.2450   23.3430  -30.9160 C   0  0  0  0  0  0  0  0  0  0  0  0
   -5.3170   24.6660  -31.1580 N   0  0  0  0  0  0  0  0  0  0  0  0
   -4.2480   25.2220  -30.6130 N   0  0  0  0  0  0  0  0  0  0  0  0
   -3.5370   24.2310  -30.0440 C   0  0  0  0  0  0  0  0  0  0  0  0
   -4.1430   23.0310  -30.1930 N   0  0  0  0  0  0  0  0  0  0  0  0
   -3.7390   21.7070  -29.6860 C   0  0  0  0  0  0  0  0  0  0  0  0
   -3.4900   21.6430  -28.1630 C   0  0  0  0  0  0  0  0  0  0  0  0
   -2.2340   22.4020  -27.7070 C   0  0  0  0  0  0  0  0  0  0  0  0
   -2.3800   23.9320  -27.8380 C   0  0  0  0  0  0  0  0  0  0  0  0
   -2.2750   24.4640  -29.2760 C   0  0  0  0  0  0  0  0  0  0  0  0
   -5.9110   21.2920  -32.1640 C   0  0  0  0  0  0  0  0  0  0  0  0
   -6.8720   20.3720  -32.5910 C   0  0  0  0  0  0  0  0  0  0  0  0
   -9.7541   19.0906  -31.8395 H   0  0  0  0  0  0  0  0  0  0  0  0
   -9.9931   20.0945  -33.3099 H   0  0  0  0  0  0  0  0  0  0  0  0
   -8.7706   18.7783  -33.3099 H   0  0  0  0  0  0  0  0  0  0  0  0
   -9.6368   21.7501  -31.1259 H   0  0  0  0  0  0  0  0  0  0  0  0
   -7.9200   23.3804  -30.3473 H   0  0  0  0  0  0  0  0  0  0  0  0
   -4.5350   20.9890  -29.9327 H   0  0  0  0  0  0  0  0  0  0  0  0
   -2.7776   21.4726  -30.1663 H   0  0  0  0  0  0  0  0  0  0  0  0
   -4.3618   22.0759  -27.6506 H   0  0  0  0  0  0  0  0  0  0  0  0
   -3.3345   20.5843  -27.9082 H   0  0  0  0  0  0  0  0  0  0  0  0
   -2.0384   22.1566  -26.6527 H   0  0  0  0  0  0  0  0  0  0  0  0
   -1.4042   22.0913  -28.3589 H   0  0  0  0  0  0  0  0  0  0  0  0
   -3.3636   24.2183  -27.4372 H   0  0  0  0  0  0  0  0  0  0  0  0
   -1.5414   24.3741  -27.2801 H   0  0  0  0  0  0  0  0  0  0  0  0
   -2.0720   25.5446  -29.2427 H   0  0  0  0  0  0  0  0  0  0  0  0
   -1.4602   23.9260  -29.7827 H   0  0  0  0  0  0  0  0  0  0  0  0
   -4.8578   21.1539  -32.4498 H   0  0  0  0  0  0  0  0  0  0  0  0
   -6.5752   19.5264  -33.2288 H   0  0  0  0  0  0  0  0  0  0  0  0
  1  2  1  0
  2  3  2  0
  3  4  1  0
  4  5  2  0
  5  6  1  0
  6  7  2  0
  7  8  1  0
  8  9  2  0
  9 10  1  0
 10 11  1  0
 11 12  1  0
 12 13  1  0
 13 14  1  0
 14 15  1  0
  5 16  1  0
 16 17  2  0
 17  2  1  0
 10  6  1  0
 15  9  1  0
  1 18  1  0
  1 19  1  0
  1 20  1  0
  3 21  1  0
  4 22  1  0
 11 23  1  0
 11 24  1  0
 12 25  1  0
 12 26  1  0
 13 27  1  0
 13 28  1  0
 14 29  1  0
 14 30  1  0
 15 31  1  0
 15 32  1  0
 16 33  1  0
 17 34  1  0
M  END
>  <UniqueID>  (39) 
36

>  <SMILES>  (39) 
Cc1ccc(-c2nnc3n2CCCCC3)cc1

>  <Energy>  (39) 
78.15409743304895

>  <Genealogy>  (39) 
Cc1ccc(-c2nnc3n2CCCCC3)cc1 (3D coordinates assigned)
Cc1ccc(-c2nnc3n2CCCCC3)cc1 (nonaromatic ring conformer: 78.15409743304895 kcal/mol)

>  <smiles>  (39) 
Cc1ccc(-c2nnc3n2CCCCC3)cc1

>  <score_type>  (39) 
oracle

>  <origin>  (39) 
adgpu

>  <m_score__min__energy>  (39) 
-5.8799999999999999

>  <m_primary>  (39) 
energy

$$$$
39:0
     RDKit          3D

 39 41  0  0  0  0  0  0  0  0999 V2000
   -4.0300   14.6080  -34.5600 C   0  0  0  0  0  0  0  0  0  0  0  0
   -5.2170   15.4420  -34.2070 C   0  0  0  0  0  0  0  0  0  0  0  0
   -5.1830   16.7200  -33.6940 C   0  0  0  0  0  0  0  0  0  0  0  0
   -6.5160   17.0160  -33.4730 C   0  0  0  0  0  0  0  0  0  0  0  0
   -7.0840   18.2710  -32.9300 C   0  0  0  0  0  0  0  0  0  0  0  0
   -8.2060   18.2610  -32.0800 C   0  0  0  0  0  0  0  0  0  0  0  0
   -8.7230   19.4570  -31.5780 C   0  0  0  0  0  0  0  0  0  0  0  0
   -8.1350   20.6810  -31.9200 C   0  0  0  0  0  0  0  0  0  0  0  0
   -8.7810   22.1800  -31.2570 S   0  0  0  0  0  0  0  0  0  0  0  0
   -9.1170   23.1360  -32.3680 O   0  0  0  0  0  0  0  0  0  0  0  0
  -10.0410   21.8760  -30.4950 O   0  0  0  0  0  0  0  0  0  0  0  0
   -7.6280   22.9130  -30.1830 N   0  0  0  0  0  0  0  0  0  0  0  0
   -6.7810   23.8450  -30.9270 C   0  0  0  0  0  0  0  0  0  0  0  0
   -5.3350   23.5620  -30.6280 C   0  0  0  0  0  0  0  0  0  0  0  0
   -4.7840   22.3050  -30.9250 C   0  0  0  0  0  0  0  0  0  0  0  0
   -3.4310   22.0530  -30.6780 C   0  0  0  0  0  0  0  0  0  0  0  0
   -2.6170   23.0560  -30.1450 C   0  0  0  0  0  0  0  0  0  0  0  0
   -3.1540   24.3150  -29.8610 C   0  0  0  0  0  0  0  0  0  0  0  0
   -2.3420   25.3150  -29.3380 O   0  0  0  0  0  0  0  0  0  0  0  0
   -4.5080   24.5720  -30.1060 C   0  0  0  0  0  0  0  0  0  0  0  0
   -7.0150   20.6970  -32.7600 C   0  0  0  0  0  0  0  0  0  0  0  0
   -6.4940   19.5020  -33.2640 C   0  0  0  0  0  0  0  0  0  0  0  0
   -7.2370   15.9740  -33.8280 O   0  0  0  0  0  0  0  0  0  0  0  0
   -6.4890   15.0060  -34.2680 N   0  0  0  0  0  0  0  0  0  0  0  0
   -3.5379   14.2622  -33.6390 H   0  0  0  0  0  0  0  0  0  0  0  0
   -4.3551   13.7388  -35.1505 H   0  0  0  0  0  0  0  0  0  0  0  0
   -3.3225   15.2085  -35.1505 H   0  0  0  0  0  0  0  0  0  0  0  0
   -4.3045   17.3544  -33.5050 H   0  0  0  0  0  0  0  0  0  0  0  0
   -8.6784   17.3051  -31.8096 H   0  0  0  0  0  0  0  0  0  0  0  0
   -9.5969   19.4376  -30.9103 H   0  0  0  0  0  0  0  0  0  0  0  0
   -7.0230   22.1400  -29.8190 H   0  0  0  0  0  0  0  0  0  0  0  0
   -6.9624   23.7236  -32.0051 H   0  0  0  0  0  0  0  0  0  0  0  0
   -7.0209   24.8757  -30.6268 H   0  0  0  0  0  0  0  0  0  0  0  0
   -5.4191   21.5157  -31.3535 H   0  0  0  0  0  0  0  0  0  0  0  0
   -3.0067   21.0635  -30.9036 H   0  0  0  0  0  0  0  0  0  0  0  0
   -1.5535   22.8548  -29.9489 H   0  0  0  0  0  0  0  0  0  0  0  0
   -4.9258   25.5663  -29.8897 H   0  0  0  0  0  0  0  0  0  0  0  0
   -6.5428   21.6546  -33.0246 H   0  0  0  0  0  0  0  0  0  0  0  0
   -5.6162   19.5252  -33.9266 H   0  0  0  0  0  0  0  0  0  0  0  0
  1  2  1  0
  2  3  1  0
  3  4  2  0
  4  5  1  0
  5  6  2  0
  6  7  1  0
  7  8  2  0
  8  9  1  0
  9 10  2  0
  9 11  2  0
  9 12  1  0
 12 13  1  0
 13 14  1  0
 14 15  2  0
 15 16  1  0
 16 17  2  0
 17 18  1  0
 18 19  1  0
 18 20  2  0
  8 21  1  0
 21 22  2  0
  4 23  1  0
 23 24  1  0
 24  2  2  0
 22  5  1  0
 20 14  1  0
  1 25  1  0
  1 26  1  0
  1 27  1  0
  3 28  1  0
  6 29  1  0
  7 30  1  0
 12 31  1  0
 13 32  1  0
 13 33  1  0
 15 34  1  0
 16 35  1  0
 17 36  1  0
 20 37  1  0
 21 38  1  0
 22 39  1  0
M  CHG  1  19  -1
M  END
>  <UniqueID>  (40) 
37

>  <SMILES>  (40) 
Cc1cc(-c2ccc(S(=O)(=O)NCc3cccc([O-])c3)cc2)on1

>  <Energy>  (40) 
68.18906695157615

>  <Genealogy>  (40) 
Cc1cc(-c2ccc(S(=O)(=O)NCc3cccc([O-])c3)cc2)on1 (protonated)
Cc1cc(-c2ccc(S(=O)(=O)NCc3cccc([O-])c3)cc2)on1 (3D coordinates assigned)
Cc1cc(-c2ccc(S(=O)(=O)NCc3cccc([O-])c3)cc2)on1 (optimized conformer: 68.18906695157615 kcal/mol)

>  <smiles>  (40) 
Cc1cc(-c2ccc(S(=O)(=O)NCc3cccc(O)c3)cc2)on1

>  <score_type>  (40) 
oracle

>  <origin>  (40) 
adgpu

>  <m_score__min__energy>  (40) 
-12.18

>  <m_primary>  (40) 
energy

$$$$
40:0
     RDKit          3D

 43 46  0  0  0  0  0  0  0  0999 V2000
    3.4240   22.3379  -35.1947 H   0  0  0  0  0  0  0  0  0  0  0  0
    2.3420   22.1440  -35.1530 C   0  0  0  0  0  0  0  0  0  0  0  0
    1.3860   22.9680  -35.6250 N   0  0  0  0  0  0  0  0  0  0  0  0
    0.2290   22.3270  -35.3560 C   0  0  0  0  0  0  0  0  0  0  0  0
   -0.7634   22.7273  -35.6109 H   0  0  0  0  0  0  0  0  0  0  0  0
    0.4220   21.1410  -34.7400 N   0  0  0  0  0  0  0  0  0  0  0  0
   -0.5840   20.2010  -34.3110 C   0  0  0  0  0  0  0  0  0  0  0  0
   -1.6730   20.6270  -33.5280 C   0  0  0  0  0  0  0  0  0  0  0  0
   -1.7565   21.6852  -33.2395 H   0  0  0  0  0  0  0  0  0  0  0  0
   -2.6490   19.7170  -33.1140 C   0  0  0  0  0  0  0  0  0  0  0  0
   -3.4870   20.0601  -32.4895 H   0  0  0  0  0  0  0  0  0  0  0  0
   -2.5660   18.3660  -33.4910 C   0  0  0  0  0  0  0  0  0  0  0  0
   -3.5290   17.4270  -33.0940 O   0  0  0  0  0  0  0  0  0  0  0  0
   -4.9010   17.6870  -32.9580 C   0  0  0  0  0  0  0  0  0  0  0  0
   -5.8160   16.8360  -33.5870 C   0  0  0  0  0  0  0  0  0  0  0  0
   -5.4531   15.9711  -34.1617 H   0  0  0  0  0  0  0  0  0  0  0  0
   -7.1890   17.0790  -33.4890 C   0  0  0  0  0  0  0  0  0  0  0  0
   -7.9026   16.4057  -33.9865 H   0  0  0  0  0  0  0  0  0  0  0  0
   -7.6570   18.1760  -32.7600 C   0  0  0  0  0  0  0  0  0  0  0  0
   -8.7379   18.3698  -32.6953 H   0  0  0  0  0  0  0  0  0  0  0  0
   -6.7560   19.0290  -32.1120 C   0  0  0  0  0  0  0  0  0  0  0  0
   -7.2580   20.1870  -31.4250 N   0  0  0  0  0  0  0  0  0  0  0  0
   -6.6600   21.3360  -31.2550 C   0  0  0  0  0  0  0  0  0  0  0  0
   -5.3160   21.5500  -31.6220 C   0  0  0  0  0  0  0  0  0  0  0  0
   -4.7289   20.7336  -32.0679 H   0  0  0  0  0  0  0  0  0  0  0  0
   -4.7340   22.7990  -31.4180 C   0  0  0  0  0  0  0  0  0  0  0  0
   -3.6890   22.9711  -31.7154 H   0  0  0  0  0  0  0  0  0  0  0  0
   -5.4730   23.8370  -30.8360 C   0  0  0  0  0  0  0  0  0  0  0  0
   -4.8630   25.1670  -30.6180 C   0  0  0  0  0  0  0  0  0  0  0  0
   -5.5820   26.1980  -30.5510 O   0  0  0  0  0  0  0  0  0  0  0  0
   -3.4860   25.2960  -30.4840 O   0  0  0  0  0  0  0  0  0  0  0  0
   -6.8010   23.5800  -30.4600 C   0  0  0  0  0  0  0  0  0  0  0  0
   -7.4004   24.3759  -29.9940 H   0  0  0  0  0  0  0  0  0  0  0  0
   -7.3520   22.3530  -30.6680 N   0  0  0  0  0  0  0  0  0  0  0  0
   -8.3450   22.2000  -30.3740 H   0  0  0  0  0  0  0  0  0  0  0  0
   -5.3760   18.8040  -32.2480 C   0  0  0  0  0  0  0  0  0  0  0  0
   -4.6613   19.5072  -31.7955 H   0  0  0  0  0  0  0  0  0  0  0  0
   -1.4730   17.9340  -34.2480 C   0  0  0  0  0  0  0  0  0  0  0  0
   -1.3835   16.8721  -34.5207 H   0  0  0  0  0  0  0  0  0  0  0  0
   -0.4930   18.8410  -34.6610 C   0  0  0  0  0  0  0  0  0  0  0  0
    0.3565   18.4888  -35.2646 H   0  0  0  0  0  0  0  0  0  0  0  0
    1.7570   21.0230  -34.6110 C   0  0  0  0  0  0  0  0  0  0  0  0
    2.2882   20.1764  -34.1516 H   0  0  0  0  0  0  0  0  0  0  0  0
  1  2  1  0
  2  3  1  0
  3  4  2  0
  4  5  1  0
  4  6  1  0
  6  7  1  0
  7  8  2  0
  8  9  1  0
  8 10  1  0
 10 11  1  0
 10 12  2  0
 12 13  1  0
 13 14  1  0
 14 15  2  0
 15 16  1  0
 15 17  1  0
 17 18  1  0
 17 19  2  0
 19 20  1  0
 19 21  1  0
 21 22  1  0
 22 23  2  0
 23 24  1  0
 24 25  1  0
 24 26  2  0
 26 27  1  0
 26 28  1  0
 28 29  1  0
 29 30  2  0
 29 31  1  0
 28 32  2  0
 32 33  1  0
 32 34  1  0
 34 35  1  0
 21 36  2  0
 36 37  1  0
 12 38  1  0
 38 39  1  0
 38 40  2  0
 40 41  1  0
  6 42  1  0
 42 43  1  0
 42  2  2  0
 40  7  1  0
 36 14  1  0
 34 23  1  0
M  CHG  1  31  -1
M  END
>  <UniqueID>  (41) 
38

>  <SMILES>  (41) 
O=C([O-])c1cc/c(=N\c2cccc(Oc3ccc(-n4ccnc4)cc3)c2)[nH]c1

>  <Energy>  (41) 
96.4083305418857

>  <Genealogy>  (41) 
O=C([O-])c1ccc(=Nc2cccc(Oc3ccc(-n4ccnc4)cc3)c2)[nH]c1 (protonated)
O=C([O-])c1cc/c(=N\c2cccc(Oc3ccc(-n4ccnc4)cc3)c2)[nH]c1 (cis-trans isomerization)
O=C([O-])c1cc/c(=N\c2cccc(Oc3ccc(-n4ccnc4)cc3)c2)[nH]c1 (3D coordinates assigned)
O=C([O-])c1cc/c(=N\c2cccc(Oc3ccc(-n4ccnc4)cc3)c2)[nH]c1 (optimized conformer: 96.4083305418857 kcal/mol)

>  <smiles>  (41) 
O=C(O)c1ccc(=Nc2cccc(Oc3ccc(-n4ccnc4)cc3)c2)[nH]c1

>  <score_type>  (41) 
oracle

>  <origin>  (41) 
adgpu

>  <m_score__min__energy>  (41) 
-10.210000000000001

>  <m_primary>  (41) 
energy

$$$$
41:0
     RDKit          3D

 55 58  0  0  1  0  0  0  0  0999 V2000
   -0.1080   29.6480  -27.1440 C   0  0  0  0  0  0  0  0  0  0  0  0
   -0.8250   29.2870  -25.5210 S   0  0  0  0  0  0  0  0  0  0  0  0
   -1.2310   27.5310  -25.3420 C   0  0  0  0  0  0  0  0  0  0  0  0
   -0.0130   26.6800  -25.2810 C   0  0  0  0  0  0  0  0  0  0  0  0
    0.6740   26.5760  -24.0780 C   0  0  0  0  0  0  0  0  0  0  0  0
    1.8000   25.7790  -24.0580 C   0  0  0  0  0  0  0  0  0  0  0  0
    2.2130   25.1220  -25.1840 C   0  0  0  0  0  0  0  0  0  0  0  0
    1.5430   25.2120  -26.3920 C   0  0  0  0  0  0  0  0  0  0  0  0
    0.4060   26.0160  -26.4150 C   0  0  0  0  0  0  0  0  0  0  0  0
   -0.2740   26.0990  -27.6650 N   0  0  0  0  0  0  0  0  0  0  0  0
   -1.2860   25.3020  -27.8640 C   0  0  0  0  0  0  0  0  0  0  0  0
   -1.7090   24.3950  -26.9170 C   0  0  0  0  0  0  0  0  0  0  0  0
   -2.7830   23.5910  -27.2030 C   0  0  0  0  0  0  0  0  0  0  0  0
   -3.4330   23.6610  -28.3760 N   0  0  0  0  0  0  0  0  0  0  0  0
   -3.0160   24.5500  -29.3000 C   0  0  0  0  0  0  0  0  0  0  0  0
   -3.5680   24.6980  -30.4510 N   0  0  0  0  0  0  0  0  0  0  0  0
   -4.6850   23.8910  -30.8010 C   0  0  0  0  0  0  0  0  0  0  0  0
   -4.6260   22.5190  -30.9160 C   0  0  0  0  0  0  0  0  0  0  0  0
   -5.7910   21.8360  -31.2660 C   0  0  0  0  0  0  0  0  0  0  0  0
   -6.9730   22.4960  -31.4940 C   0  0  0  0  0  0  0  0  0  0  0  0
   -8.1580   21.8760  -31.8430 O   0  0  0  0  0  0  0  0  0  0  0  0
   -8.5060   20.5500  -31.5830 C   0  0  0  0  0  0  0  0  0  0  0  0
   -7.5440   19.6670  -32.3310 C   0  0  0  0  0  0  0  0  0  0  0  0
   -7.0330   20.0360  -33.5630 C   0  0  0  0  0  0  0  0  0  0  0  0
   -6.1540   19.1600  -34.1830 C   0  0  0  0  0  0  0  0  0  0  0  0
   -5.7900   17.9540  -33.6070 C   0  0  0  0  0  0  0  0  0  0  0  0
   -6.2980   17.5850  -32.3810 C   0  0  0  0  0  0  0  0  0  0  0  0
   -5.9350   16.3990  -31.8230 F   0  0  0  0  0  0  0  0  0  0  0  0
   -7.1740   18.4610  -31.7650 C   0  0  0  0  0  0  0  0  0  0  0  0
   -7.0130   23.8810  -31.3720 C   0  0  0  0  0  0  0  0  0  0  0  0
   -5.8800   24.5840  -31.0280 C   0  0  0  0  0  0  0  0  0  0  0  0
   -1.9610   25.3430  -29.0260 N   0  0  0  0  0  0  0  0  0  0  0  0
    0.8675   30.1391  -27.0129 H   0  0  0  0  0  0  0  0  0  0  0  0
    0.0259   28.7099  -27.7026 H   0  0  0  0  0  0  0  0  0  0  0  0
   -0.7819   30.3143  -27.7026 H   0  0  0  0  0  0  0  0  0  0  0  0
   -1.8074   27.3926  -24.4154 H   0  0  0  0  0  0  0  0  0  0  0  0
   -1.8142   27.2260  -26.2234 H   0  0  0  0  0  0  0  0  0  0  0  0
    0.3338   27.1079  -23.1773 H   0  0  0  0  0  0  0  0  0  0  0  0
    2.3725   25.6707  -23.1250 H   0  0  0  0  0  0  0  0  0  0  0  0
    3.1155   24.4957  -25.1274 H   0  0  0  0  0  0  0  0  0  0  0  0
    1.8907   24.6762  -27.2875 H   0  0  0  0  0  0  0  0  0  0  0  0
   -1.1942   24.3169  -25.9480 H   0  0  0  0  0  0  0  0  0  0  0  0
   -3.1223   22.8665  -26.4481 H   0  0  0  0  0  0  0  0  0  0  0  0
   -4.2560   23.0570  -28.6180 H   0  0  0  0  0  0  0  0  0  0  0  0
   -3.6857   21.9770  -30.7367 H   0  0  0  0  0  0  0  0  0  0  0  0
   -5.7618   20.7406  -31.3617 H   0  0  0  0  0  0  0  0  0  0  0  0
   -8.4362   20.3495  -30.5037 H   0  0  0  0  0  0  0  0  0  0  0  0
   -9.5389   20.3533  -31.9061 H   0  0  0  0  0  0  0  0  0  0  0  0
   -7.3137   20.9897  -34.0338 H   0  0  0  0  0  0  0  0  0  0  0  0
   -5.7330   19.4315  -35.1623 H   0  0  0  0  0  0  0  0  0  0  0  0
   -5.0907   17.2867  -34.1320 H   0  0  0  0  0  0  0  0  0  0  0  0
   -7.5930   18.1870  -30.7855 H   0  0  0  0  0  0  0  0  0  0  0  0
   -7.9559   24.4183  -31.5515 H   0  0  0  0  0  0  0  0  0  0  0  0
   -5.9136   25.6793  -30.9325 H   0  0  0  0  0  0  0  0  0  0  0  0
   -1.6160   26.0460  -29.7330 H   0  0  0  0  0  0  0  0  0  0  0  0
  1  2  1  0
  2  3  1  0
  3  4  1  0
  4  5  2  0
  5  6  1  0
  6  7  2  0
  7  8  1  0
  8  9  2  0
  9 10  1  0
 10 11  2  0
 11 12  1  0
 12 13  2  0
 13 14  1  0
 14 15  1  0
 15 16  2  0
 16 17  1  0
 17 18  2  0
 18 19  1  0
 19 20  2  0
 20 21  1  0
 21 22  1  0
 22 23  1  0
 23 24  2  0
 24 25  1  0
 25 26  2  0
 26 27  1  0
 27 28  1  0
 27 29  2  0
 20 30  1  0
 30 31  2  0
 15 32  1  0
  9  4  1  0
 32 11  1  0
 31 17  1  0
 29 23  1  0
  1 33  1  0
  1 34  1  0
  1 35  1  0
  3 36  1  0
  3 37  1  0
  5 38  1  0
  6 39  1  0
  7 40  1  0
  8 41  1  0
 12 42  1  0
 13 43  1  0
 14 44  1  0
 18 45  1  0
 19 46  1  0
 22 47  1  0
 22 48  1  0
 24 49  1  0
 25 50  1  0
 26 51  1  0
 29 52  1  0
 30 53  1  0
 31 54  1  0
 32 55  1  0
M  END
>  <smiles>  (42) 
CSCc1ccccc1N=c1cc[nH]c(=Nc2ccc(OCc3cccc(F)c3)cc2)[nH]1

>  <score_type>  (42) 
oracle

>  <origin>  (42) 
adgpu

>  <m_score__min__energy>  (42) 
-10.56

>  <m_primary>  (42) 
energy

$$$$
42:0
     RDKit          3D

 38 40  0  0  0  0  0  0  0  0999 V2000
   -1.8610   25.4710  -28.8880 O   0  0  0  0  0  0  0  0  0  0  0  0
   -2.5640   24.5600  -29.4060 C   0  0  0  0  0  0  0  0  0  0  0  0
   -3.4890   24.8750  -30.4570 N   0  0  0  0  0  0  0  0  0  0  0  0
   -4.8630   24.4640  -30.5470 C   0  0  0  0  0  0  0  0  0  0  0  0
   -5.8920   25.2970  -30.0680 C   0  0  0  0  0  0  0  0  0  0  0  0
   -7.2220   24.8770  -30.1060 C   0  0  0  0  0  0  0  0  0  0  0  0
   -7.5420   23.6160  -30.6020 C   0  0  0  0  0  0  0  0  0  0  0  0
   -6.5340   22.7660  -31.0580 C   0  0  0  0  0  0  0  0  0  0  0  0
   -5.1860   23.1710  -31.0370 C   0  0  0  0  0  0  0  0  0  0  0  0
   -4.1410   22.2350  -31.5340 C   0  0  0  0  0  0  0  0  0  0  0  0
   -3.1190   22.6750  -32.1270 O   0  0  0  0  0  0  0  0  0  0  0  0
   -4.3260   20.8200  -31.3960 N   0  0  0  0  0  0  0  0  0  0  0  0
   -4.9040   19.9510  -32.3820 C   0  0  0  0  0  0  0  0  0  0  0  0
   -6.2460   19.5680  -32.2400 C   0  0  0  0  0  0  0  0  0  0  0  0
   -6.9830   20.0380  -31.2030 F   0  0  0  0  0  0  0  0  0  0  0  0
   -6.8380   18.7110  -33.1740 C   0  0  0  0  0  0  0  0  0  0  0  0
   -6.0900   18.2190  -34.2450 C   0  0  0  0  0  0  0  0  0  0  0  0
   -4.7450   18.5690  -34.3780 C   0  0  0  0  0  0  0  0  0  0  0  0
   -4.1440   19.4250  -33.4480 C   0  0  0  0  0  0  0  0  0  0  0  0
   -2.8190   19.6880  -33.5590 F   0  0  0  0  0  0  0  0  0  0  0  0
   -2.3930   23.1560  -28.9670 C   0  0  0  0  0  0  0  0  0  0  0  0
   -1.3170   22.3820  -29.4470 C   0  0  0  0  0  0  0  0  0  0  0  0
   -1.1580   21.0570  -29.0310 C   0  0  0  0  0  0  0  0  0  0  0  0
   -2.0660   20.4890  -28.1340 C   0  0  0  0  0  0  0  0  0  0  0  0
   -3.1360   21.2450  -27.6530 C   0  0  0  0  0  0  0  0  0  0  0  0
   -3.3010   22.5720  -28.0650 C   0  0  0  0  0  0  0  0  0  0  0  0
   -5.6451   26.2882  -29.6600 H   0  0  0  0  0  0  0  0  0  0  0  0
   -8.0189   25.5431  -29.7436 H   0  0  0  0  0  0  0  0  0  0  0  0
   -8.5918   23.2892  -30.6344 H   0  0  0  0  0  0  0  0  0  0  0  0
   -6.7957   21.7676  -31.4384 H   0  0  0  0  0  0  0  0  0  0  0  0
   -7.8943   18.4245  -33.0643 H   0  0  0  0  0  0  0  0  0  0  0  0
   -6.5607   17.5549  -34.9849 H   0  0  0  0  0  0  0  0  0  0  0  0
   -4.1555   18.1705  -35.2168 H   0  0  0  0  0  0  0  0  0  0  0  0
   -0.5982   22.8233  -30.1531 H   0  0  0  0  0  0  0  0  0  0  0  0
   -0.3158   20.4600  -29.4109 H   0  0  0  0  0  0  0  0  0  0  0  0
   -1.9377   19.4466  -27.8070 H   0  0  0  0  0  0  0  0  0  0  0  0
   -3.8515   20.7965  -26.9481 H   0  0  0  0  0  0  0  0  0  0  0  0
   -4.1461   23.1623  -27.6812 H   0  0  0  0  0  0  0  0  0  0  0  0
  1  2  2  0
  2  3  1  0
  3  4  1  0
  4  5  2  0
  5  6  1  0
  6  7  2  0
  7  8  1  0
  8  9  2  0
  9 10  1  0
 10 11  2  0
 10 12  1  0
 12 13  1  0
 13 14  2  0
 14 15  1  0
 14 16  1  0
 16 17  2  0
 17 18  1  0
 18 19  2  0
 19 20  1  0
  2 21  1  0
 21 22  2  0
 22 23  1  0
 23 24  2  0
 24 25  1  0
 25 26  2  0
  9  4  1  0
 19 13  1  0
 26 21  1  0
  5 27  1  0
  6 28  1  0
  7 29  1  0
  8 30  1  0
 16 31  1  0
 17 32  1  0
 18 33  1  0
 22 34  1  0
 23 35  1  0
 24 36  1  0
 25 37  1  0
 26 38  1  0
M  CHG  2   3  -1  12  -1
M  END
>  <UniqueID>  (43) 
39

>  <SMILES>  (43) 
O=C([N-]c1ccccc1C(=O)[N-]c1c(F)cccc1F)c1ccccc1

>  <Energy>  (43) 
53.93561373359282

>  <Genealogy>  (43) 
O=C([N-]c1ccccc1C(=O)[N-]c1c(F)cccc1F)c1ccccc1 (protonated)
O=C([N-]c1ccccc1C(=O)[N-]c1c(F)cccc1F)c1ccccc1 (3D coordinates assigned)
O=C([N-]c1ccccc1C(=O)[N-]c1c(F)cccc1F)c1ccccc1 (optimized conformer: 53.93561373359282 kcal/mol)

>  <smiles>  (43) 
O=C(Nc1ccccc1C(=O)Nc1c(F)cccc1F)c1ccccc1

>  <score_type>  (43) 
oracle

>  <origin>  (43) 
adgpu

>  <m_score__min__energy>  (43) 
-10.75

>  <m_primary>  (43) 
energy

$$$$
43:0
     RDKit          3D

 34 36  0  0  0  0  0  0  0  0999 V2000
   -0.5050   23.8750  -24.0630 C   0  0  0  0  0  0  0  0  0  0  0  0
   -0.7150   24.6020  -25.3580 C   0  0  0  0  0  0  0  0  0  0  0  0
   -0.6840   26.0040  -25.3940 C   0  0  0  0  0  0  0  0  0  0  0  0
   -0.8510   26.6810  -26.6040 C   0  0  0  0  0  0  0  0  0  0  0  0
   -1.0310   25.9660  -27.7920 C   0  0  0  0  0  0  0  0  0  0  0  0
   -1.2350   26.6640  -28.9790 O   0  0  0  0  0  0  0  0  0  0  0  0
   -1.0200   24.5570  -27.7770 C   0  0  0  0  0  0  0  0  0  0  0  0
   -1.2050   23.7750  -29.0170 C   0  0  0  0  0  0  0  0  0  0  0  0
   -0.1980   23.5570  -29.7420 O   0  0  0  0  0  0  0  0  0  0  0  0
   -2.5340   23.2600  -29.4250 C   0  0  0  0  0  0  0  0  0  0  0  0
   -3.0740   21.9870  -29.2200 C   0  0  0  0  0  0  0  0  0  0  0  0
   -2.4200   20.8240  -28.6000 C   0  0  0  0  0  0  0  0  0  0  0  0
   -2.9440   20.2420  -27.4340 C   0  0  0  0  0  0  0  0  0  0  0  0
   -2.2930   19.1590  -26.8340 C   0  0  0  0  0  0  0  0  0  0  0  0
   -1.1050   18.6650  -27.3820 C   0  0  0  0  0  0  0  0  0  0  0  0
   -0.4590   17.5900  -26.7850 O   0  0  0  0  0  0  0  0  0  0  0  0
   -0.5650   19.2580  -28.5280 C   0  0  0  0  0  0  0  0  0  0  0  0
   -1.2160   20.3400  -29.1300 C   0  0  0  0  0  0  0  0  0  0  0  0
   -4.3190   21.9490  -29.6530 O   0  0  0  0  0  0  0  0  0  0  0  0
   -4.6190   23.1230  -30.1530 C   0  0  0  0  0  0  0  0  0  0  0  0
   -5.8490   23.4410  -30.7110 O   0  0  0  0  0  0  0  0  0  0  0  0
   -3.5470   23.9720  -30.0430 C   0  0  0  0  0  0  0  0  0  0  0  0
   -3.5000   25.2890  -30.4830 O   0  0  0  0  0  0  0  0  0  0  0  0
   -0.8750   23.8840  -26.5530 C   0  0  0  0  0  0  0  0  0  0  0  0
   -0.7022   24.5575  -23.2232 H   0  0  0  0  0  0  0  0  0  0  0  0
   -1.1923   23.0179  -24.0080 H   0  0  0  0  0  0  0  0  0  0  0  0
    0.5335   23.5164  -24.0080 H   0  0  0  0  0  0  0  0  0  0  0  0
   -0.5275   26.5724  -24.4654 H   0  0  0  0  0  0  0  0  0  0  0  0
   -0.8409   27.7808  -26.6225 H   0  0  0  0  0  0  0  0  0  0  0  0
   -3.8693   20.6392  -26.9912 H   0  0  0  0  0  0  0  0  0  0  0  0
   -2.7158   18.6956  -25.9304 H   0  0  0  0  0  0  0  0  0  0  0  0
    0.3723   18.8732  -28.9562 H   0  0  0  0  0  0  0  0  0  0  0  0
   -0.7813   20.8129  -30.0229 H   0  0  0  0  0  0  0  0  0  0  0  0
   -0.8870   22.7843  -26.5308 H   0  0  0  0  0  0  0  0  0  0  0  0
  1  2  1  0
  2  3  2  0
  3  4  1  0
  4  5  2  0
  5  6  1  0
  5  7  1  0
  7  8  1  0
  8  9  2  0
  8 10  1  0
 10 11  2  0
 11 12  1  0
 12 13  2  0
 13 14  1  0
 14 15  2  0
 15 16  1  0
 15 17  1  0
 17 18  2  0
 11 19  1  0
 19 20  1  0
 20 21  1  0
 20 22  2  0
 22 23  1  0
  7 24  2  0
 24  2  1  0
 22 10  1  0
 18 12  1  0
  1 25  1  0
  1 26  1  0
  1 27  1  0
  3 28  1  0
  4 29  1  0
 13 30  1  0
 14 31  1  0
 17 32  1  0
 18 33  1  0
 24 34  1  0
M  CHG  4   6  -1  16  -1  21  -1  23  -1
M  END
>  <UniqueID>  (44) 
40

>  <SMILES>  (44) 
Cc1ccc([O-])c(C(=O)c2c(-c3ccc([O-])cc3)oc([O-])c2[O-])c1

>  <Energy>  (44) 
80.14042992796955

>  <Genealogy>  (44) 
Cc1ccc([O-])c(C(=O)c2c(-c3ccc([O-])cc3)oc([O-])c2[O-])c1 (protonated)
Cc1ccc([O-])c(C(=O)c2c(-c3ccc([O-])cc3)oc([O-])c2[O-])c1 (3D coordinates assigned)
Cc1ccc([O-])c(C(=O)c2c(-c3ccc([O-])cc3)oc([O-])c2[O-])c1 (optimized conformer: 80.14042992796955 kcal/mol)

>  <smiles>  (44) 
Cc1ccc(O)c(C(=O)c2c(-c3ccc(O)cc3)oc(O)c2O)c1

>  <score_type>  (44) 
oracle

>  <origin>  (44) 
adgpu

>  <m_score__min__energy>  (44) 
-12.75

>  <m_primary>  (44) 
energy

$$$$
44:0
     RDKit          3D

 32 33  0  0  0  0  0  0  0  0999 V2000
   -9.4750   17.9770  -31.5970 N   0  0  0  0  0  0  0  0  0  0  0  0
   -8.5420   18.5840  -31.9150 C   0  0  0  0  0  0  0  0  0  0  0  0
   -7.3840   19.3420  -32.3100 C   0  0  0  0  0  0  0  0  0  0  0  0
   -6.3730   18.7340  -33.0650 C   0  0  0  0  0  0  0  0  0  0  0  0
   -5.2450   19.4690  -33.4460 C   0  0  0  0  0  0  0  0  0  0  0  0
   -5.1210   20.8180  -33.0780 C   0  0  0  0  0  0  0  0  0  0  0  0
   -3.8850   21.5890  -33.4590 C   0  0  0  0  0  0  0  0  0  0  0  0
   -3.4090   22.3770  -32.3230 N   0  0  0  0  0  0  0  0  0  0  0  0
   -2.3650   21.9380  -31.4310 C   0  0  0  0  0  0  0  0  0  0  0  0
   -1.5570   20.8380  -31.7760 C   0  0  0  0  0  0  0  0  0  0  0  0
   -0.5530   20.3920  -30.9140 C   0  0  0  0  0  0  0  0  0  0  0  0
   -0.3460   21.0320  -29.6930 C   0  0  0  0  0  0  0  0  0  0  0  0
   -1.1390   22.1220  -29.3320 C   0  0  0  0  0  0  0  0  0  0  0  0
   -2.1480   22.5880  -30.1910 C   0  0  0  0  0  0  0  0  0  0  0  0
   -3.0950   24.0030  -29.7080 S   0  0  0  0  0  0  0  0  0  0  0  0
   -2.0310   25.2720  -29.2130 N   0  0  0  0  0  0  0  0  0  0  0  0
   -4.0090   23.6370  -28.5730 O   0  0  0  0  0  0  0  0  0  0  0  0
   -3.9320   24.4880  -30.8580 O   0  0  0  0  0  0  0  0  0  0  0  0
   -6.1360   21.4210  -32.3180 C   0  0  0  0  0  0  0  0  0  0  0  0
   -7.2630   20.6860  -31.9370 C   0  0  0  0  0  0  0  0  0  0  0  0
   -6.4659   17.6780  -33.3586 H   0  0  0  0  0  0  0  0  0  0  0  0
   -4.4517   18.9875  -34.0366 H   0  0  0  0  0  0  0  0  0  0  0  0
   -3.0984   20.8846  -33.7672 H   0  0  0  0  0  0  0  0  0  0  0  0
   -4.1284   22.2683  -34.2892 H   0  0  0  0  0  0  0  0  0  0  0  0
   -3.8020   23.3390  -32.2160 H   0  0  0  0  0  0  0  0  0  0  0  0
   -1.7183   20.3242  -32.7351 H   0  0  0  0  0  0  0  0  0  0  0  0
    0.0751   19.5350  -31.1987 H   0  0  0  0  0  0  0  0  0  0  0  0
    0.4431   20.6775  -29.0135 H   0  0  0  0  0  0  0  0  0  0  0  0
   -0.9724   22.6209  -28.3659 H   0  0  0  0  0  0  0  0  0  0  0  0
   -1.6120   25.6740  -30.0810 H   0  0  0  0  0  0  0  0  0  0  0  0
   -6.0443   22.4762  -32.0210 H   0  0  0  0  0  0  0  0  0  0  0  0
   -8.0557   21.1646  -31.3433 H   0  0  0  0  0  0  0  0  0  0  0  0
  1  2  3  0
  2  3  1  0
  3  4  2  0
  4  5  1  0
  5  6  2  0
  6  7  1  0
  7  8  1  0
  8  9  1  0
  9 10  2  0
 10 11  1  0
 11 12  2  0
 12 13  1  0
 13 14  2  0
 14 15  1  0
 15 16  1  0
 15 17  2  0
 15 18  2  0
  6 19  1  0
 19 20  2  0
 20  3  1  0
 14  9  1  0
  4 21  1  0
  5 22  1  0
  7 23  1  0
  7 24  1  0
  8 25  1  0
 10 26  1  0
 11 27  1  0
 12 28  1  0
 13 29  1  0
 16 30  1  0
 19 31  1  0
 20 32  1  0
M  CHG  1  16  -1
M  END
>  <UniqueID>  (45) 
41

>  <SMILES>  (45) 
N#Cc1ccc(CNc2ccccc2S([NH-])(=O)=O)cc1

>  <Energy>  (45) 
32.90619457656862

>  <Genealogy>  (45) 
N#Cc1ccc(CNc2ccccc2S([NH-])(=O)=O)cc1 (protonated)
N#Cc1ccc(CNc2ccccc2S([NH-])(=O)=O)cc1 (3D coordinates assigned)
N#Cc1ccc(CNc2ccccc2S([NH-])(=O)=O)cc1 (optimized conformer: 32.90619457656862 kcal/mol)

>  <smiles>  (45) 
N#Cc1ccc(CNc2ccccc2S(N)(=O)=O)cc1

>  <score_type>  (45) 
oracle

>  <origin>  (45) 
adgpu

>  <m_score__min__energy>  (45) 
-10.449999999999999

>  <m_primary>  (45) 
energy

$$$$
45:0
     RDKit          3D

 55 59  0  0  0  0  0  0  0  0999 V2000
    1.4470   27.5170  -23.3260 C   0  0  0  0  0  0  0  0  0  0  0  0
    0.6370   26.3700  -23.7690 N   0  0  0  0  0  0  0  0  0  0  0  0
   -0.8150   26.6900  -23.7420 C   0  0  0  0  0  0  0  0  0  0  0  0
   -1.4420   26.8230  -25.1370 C   0  0  0  0  0  0  0  0  0  0  0  0
   -1.1560   25.6240  -25.9360 N   0  0  0  0  0  0  0  0  0  0  0  0
   -2.0770   25.1770  -26.9560 C   0  0  0  0  0  0  0  0  0  0  0  0
   -1.6440   24.9890  -28.2810 C   0  0  0  0  0  0  0  0  0  0  0  0
   -2.5340   24.5530  -29.2660 C   0  0  0  0  0  0  0  0  0  0  0  0
   -3.8780   24.2910  -28.9500 C   0  0  0  0  0  0  0  0  0  0  0  0
   -4.8230   23.8240  -29.9960 C   0  0  0  0  0  0  0  0  0  0  0  0
   -5.9990   24.5460  -30.2630 C   0  0  0  0  0  0  0  0  0  0  0  0
   -6.8910   24.1040  -31.2400 C   0  0  0  0  0  0  0  0  0  0  0  0
   -6.6230   22.9400  -31.9620 C   0  0  0  0  0  0  0  0  0  0  0  0
   -5.4500   22.2020  -31.7200 C   0  0  0  0  0  0  0  0  0  0  0  0
   -5.1810   20.9690  -32.5030 C   0  0  0  0  0  0  0  0  0  0  0  0
   -3.9380   20.4190  -32.6000 N   0  0  0  0  0  0  0  0  0  0  0  0
   -4.1410   19.3410  -33.3750 C   0  0  0  0  0  0  0  0  0  0  0  0
   -3.2010   18.4020  -33.7910 C   0  0  0  0  0  0  0  0  0  0  0  0
   -3.6420   17.3370  -34.6120 C   0  0  0  0  0  0  0  0  0  0  0  0
   -2.6740   16.2650  -35.0480 C   0  0  0  0  0  0  0  0  0  0  0  0
   -3.2710   15.4100  -35.9600 F   0  0  0  0  0  0  0  0  0  0  0  0
   -2.2540   15.5150  -33.9630 F   0  0  0  0  0  0  0  0  0  0  0  0
   -1.5740   16.8600  -35.6400 F   0  0  0  0  0  0  0  0  0  0  0  0
   -5.0200   17.2380  -34.9480 C   0  0  0  0  0  0  0  0  0  0  0  0
   -5.9390   18.2070  -34.5080 C   0  0  0  0  0  0  0  0  0  0  0  0
   -5.4530   19.2480  -33.7230 C   0  0  0  0  0  0  0  0  0  0  0  0
   -6.1290   20.2670  -33.1810 N   0  0  0  0  0  0  0  0  0  0  0  0
   -4.5570   22.6520  -30.7290 C   0  0  0  0  0  0  0  0  0  0  0  0
   -4.3110   24.4760  -27.6260 C   0  0  0  0  0  0  0  0  0  0  0  0
   -3.4220   24.9130  -26.6410 C   0  0  0  0  0  0  0  0  0  0  0  0
    0.1230   24.9300  -25.7370 C   0  0  0  0  0  0  0  0  0  0  0  0
    1.1360   25.8620  -25.0660 C   0  0  0  0  0  0  0  0  0  0  0  0
    1.4687   27.5478  -22.2266 H   0  0  0  0  0  0  0  0  0  0  0  0
    2.4724   27.4120  -23.7102 H   0  0  0  0  0  0  0  0  0  0  0  0
    1.0051   28.4482  -23.7102 H   0  0  0  0  0  0  0  0  0  0  0  0
   -1.3378   25.8875  -23.2010 H   0  0  0  0  0  0  0  0  0  0  0  0
   -0.9205   27.6666  -23.2469 H   0  0  0  0  0  0  0  0  0  0  0  0
   -2.5309   26.9419  -25.0365 H   0  0  0  0  0  0  0  0  0  0  0  0
   -1.0142   27.7020  -25.6414 H   0  0  0  0  0  0  0  0  0  0  0  0
   -0.5945   25.1871  -28.5443 H   0  0  0  0  0  0  0  0  0  0  0  0
   -2.1795   24.4136  -30.2979 H   0  0  0  0  0  0  0  0  0  0  0  0
   -6.2171   25.4645  -29.6984 H   0  0  0  0  0  0  0  0  0  0  0  0
   -7.8092   24.6750  -31.4422 H   0  0  0  0  0  0  0  0  0  0  0  0
   -7.3351   22.5967  -32.7269 H   0  0  0  0  0  0  0  0  0  0  0  0
   -2.1462   18.4855  -33.4903 H   0  0  0  0  0  0  0  0  0  0  0  0
   -5.3712   16.3936  -35.5592 H   0  0  0  0  0  0  0  0  0  0  0  0
   -7.0043   18.1443  -34.7749 H   0  0  0  0  0  0  0  0  0  0  0  0
   -7.1540   20.4470  -33.2610 H   0  0  0  0  0  0  0  0  0  0  0  0
   -3.6396   22.0804  -30.5248 H   0  0  0  0  0  0  0  0  0  0  0  0
   -5.3599   24.2748  -27.3627 H   0  0  0  0  0  0  0  0  0  0  0  0
   -3.7773   25.0519  -25.6093 H   0  0  0  0  0  0  0  0  0  0  0  0
   -0.0379   24.0491  -25.0981 H   0  0  0  0  0  0  0  0  0  0  0  0
    0.5171   24.6194  -26.7159 H   0  0  0  0  0  0  0  0  0  0  0  0
    2.0714   25.3087  -24.8960 H   0  0  0  0  0  0  0  0  0  0  0  0
    1.3023   26.7228  -25.7303 H   0  0  0  0  0  0  0  0  0  0  0  0
  1  2  1  0
  2  3  1  0
  3  4  1  0
  4  5  1  0
  5  6  1  0
  6  7  2  0
  7  8  1  0
  8  9  2  0
  9 10  1  0
 10 11  2  0
 11 12  1  0
 12 13  2  0
 13 14  1  0
 14 15  1  0
 15 16  2  0
 16 17  1  0
 17 18  2  0
 18 19  1  0
 19 20  1  0
 20 21  1  0
 20 22  1  0
 20 23  1  0
 19 24  2  0
 24 25  1  0
 25 26  2  0
 26 27  1  0
 14 28  2  0
  9 29  1  0
 29 30  2  0
  5 31  1  0
 31 32  1  0
 32  2  1  0
 30  6  1  0
 28 10  1  0
 27 15  1  0
 26 17  1  0
  1 33  1  0
  1 34  1  0
  1 35  1  0
  3 36  1  0
  3 37  1  0
  4 38  1  0
  4 39  1  0
  7 40  1  0
  8 41  1  0
 11 42  1  0
 12 43  1  0
 13 44  1  0
 18 45  1  0
 24 46  1  0
 25 47  1  0
 27 48  1  0
 28 49  1  0
 29 50  1  0
 30 51  1  0
 31 52  1  0
 31 53  1  0
 32 54  1  0
 32 55  1  0
M  END
>  <UniqueID>  (46) 
42

>  <SMILES>  (46) 
CN1CCN(c2ccc(-c3cccc(-c4nc5cc(C(F)(F)F)ccc5[nH]4)c3)cc2)CC1

>  <Energy>  (46) 
113.61563494592174

>  <Genealogy>  (46) 
CN1CCN(c2ccc(-c3cccc(-c4nc5cc(C(F)(F)F)ccc5[nH]4)c3)cc2)CC1 (3D coordinates assigned)
CN1CCN(c2ccc(-c3cccc(-c4nc5cc(C(F)(F)F)ccc5[nH]4)c3)cc2)CC1 (nonaromatic ring conformer: 113.61563494592174 kcal/mol)

>  <smiles>  (46) 
CN1CCN(c2ccc(-c3cccc(-c4nc5cc(C(F)(F)F)ccc5[nH]4)c3)cc2)CC1

>  <score_type>  (46) 
oracle

>  <origin>  (46) 
adgpu

>  <m_score__min__energy>  (46) 
-8.6099999999999994

>  <m_primary>  (46) 
energy

$$$$
46:0
     RDKit          3D

 47 49  0  0  0  0  0  0  0  0999 V2000
   -4.5120   22.5270  -27.6300 O   0  0  0  0  0  0  0  0  0  0  0  0
   -4.3550   23.5550  -28.3460 C   0  0  0  0  0  0  0  0  0  0  0  0
   -3.4150   24.5650  -27.9500 N   0  0  0  0  0  0  0  0  0  0  0  0
   -2.3130   24.3280  -27.0560 C   0  0  0  0  0  0  0  0  0  0  0  0
   -1.5410   23.1560  -27.1420 C   0  0  0  0  0  0  0  0  0  0  0  0
   -0.4530   22.9660  -26.2880 C   0  0  0  0  0  0  0  0  0  0  0  0
   -0.1220   23.9390  -25.3440 C   0  0  0  0  0  0  0  0  0  0  0  0
   -0.8850   25.1140  -25.2360 C   0  0  0  0  0  0  0  0  0  0  0  0
   -0.4940   26.1940  -24.2580 C   0  0  0  0  0  0  0  0  0  0  0  0
   -1.0810   27.3860  -24.6380 F   0  0  0  0  0  0  0  0  0  0  0  0
    0.8810   26.3570  -24.2320 F   0  0  0  0  0  0  0  0  0  0  0  0
   -0.9140   25.8700  -22.9810 F   0  0  0  0  0  0  0  0  0  0  0  0
   -1.9620   25.3120  -26.1190 C   0  0  0  0  0  0  0  0  0  0  0  0
   -5.2030   23.7370  -29.5490 C   0  0  0  0  0  0  0  0  0  0  0  0
   -6.2690   22.8510  -29.7840 C   0  0  0  0  0  0  0  0  0  0  0  0
   -7.0920   23.0030  -30.9070 C   0  0  0  0  0  0  0  0  0  0  0  0
   -8.4100   21.8670  -31.1840 S   0  0  0  0  0  0  0  0  0  0  0  0
   -9.2100   21.7390  -29.9180 O   0  0  0  0  0  0  0  0  0  0  0  0
   -9.3130   22.3810  -32.2720 O   0  0  0  0  0  0  0  0  0  0  0  0
   -7.7620   20.3080  -31.6290 N   0  0  0  0  0  0  0  0  0  0  0  0
   -6.7810   20.4680  -32.7250 C   0  0  0  0  0  0  0  0  0  0  0  0
   -6.4250   19.1270  -33.4030 C   0  0  0  0  0  0  0  0  0  0  0  0
   -6.8290   17.9320  -32.5380 C   0  0  0  0  0  0  0  0  0  0  0  0
   -8.3310   17.9720  -32.2110 C   0  0  0  0  0  0  0  0  0  0  0  0
   -8.8560   19.4090  -32.0290 C   0  0  0  0  0  0  0  0  0  0  0  0
   -6.8400   24.0370  -31.8160 C   0  0  0  0  0  0  0  0  0  0  0  0
   -5.7750   24.9140  -31.6020 C   0  0  0  0  0  0  0  0  0  0  0  0
   -4.9520   24.7660  -30.4810 C   0  0  0  0  0  0  0  0  0  0  0  0
   -3.8730   25.6310  -30.3240 O   0  0  0  0  0  0  0  0  0  0  0  0
   -3.6070   25.5500  -28.2410 H   0  0  0  0  0  0  0  0  0  0  0  0
   -1.7953   22.3858  -27.8851 H   0  0  0  0  0  0  0  0  0  0  0  0
    0.1456   22.0459  -26.3595 H   0  0  0  0  0  0  0  0  0  0  0  0
    0.7416   23.7852  -24.6803 H   0  0  0  0  0  0  0  0  0  0  0  0
   -2.5359   26.2493  -26.0745 H   0  0  0  0  0  0  0  0  0  0  0  0
   -6.4588   22.0292  -29.0779 H   0  0  0  0  0  0  0  0  0  0  0  0
   -7.2054   21.1439  -33.4820 H   0  0  0  0  0  0  0  0  0  0  0  0
   -5.8575   20.8766  -32.2889 H   0  0  0  0  0  0  0  0  0  0  0  0
   -6.9514   19.0638  -34.3668 H   0  0  0  0  0  0  0  0  0  0  0  0
   -5.3349   19.0938  -33.5468 H   0  0  0  0  0  0  0  0  0  0  0  0
   -6.6036   17.0022  -33.0809 H   0  0  0  0  0  0  0  0  0  0  0  0
   -6.2636   17.9742  -31.5954 H   0  0  0  0  0  0  0  0  0  0  0  0
   -8.8842   17.4957  -33.0339 H   0  0  0  0  0  0  0  0  0  0  0  0
   -8.4811   17.4380  -31.2611 H   0  0  0  0  0  0  0  0  0  0  0  0
   -9.2855   19.7609  -32.9786 H   0  0  0  0  0  0  0  0  0  0  0  0
   -9.6251   19.4110  -31.2425 H   0  0  0  0  0  0  0  0  0  0  0  0
   -7.4823   24.1589  -32.7007 H   0  0  0  0  0  0  0  0  0  0  0  0
   -5.5822   25.7257  -32.3189 H   0  0  0  0  0  0  0  0  0  0  0  0
  1  2  2  0
  2  3  1  0
  3  4  1  0
  4  5  2  0
  5  6  1  0
  6  7  2  0
  7  8  1  0
  8  9  1  0
  9 10  1  0
  9 11  1  0
  9 12  1  0
  8 13  2  0
  2 14  1  0
 14 15  2  0
 15 16  1  0
 16 17  1  0
 17 18  2  0
 17 19  2  0
 17 20  1  0
 20 21  1  0
 21 22  1  0
 22 23  1  0
 23 24  1  0
 24 25  1  0
 16 26  2  0
 26 27  1  0
 27 28  2  0
 28 29  1  0
 13  4  1  0
 28 14  1  0
 25 20  1  0
  3 30  1  0
  5 31  1  0
  6 32  1  0
  7 33  1  0
 13 34  1  0
 15 35  1  0
 21 36  1  0
 21 37  1  0
 22 38  1  0
 22 39  1  0
 23 40  1  0
 23 41  1  0
 24 42  1  0
 24 43  1  0
 25 44  1  0
 25 45  1  0
 26 46  1  0
 27 47  1  0
M  CHG  1  29  -1
M  END
>  <UniqueID>  (47) 
43

>  <SMILES>  (47) 
O=C(Nc1cccc(C(F)(F)F)c1)c1cc(S(=O)(=O)N2CCCCC2)ccc1[O-]

>  <Energy>  (47) 
58.826562729429625

>  <Genealogy>  (47) 
O=C(Nc1cccc(C(F)(F)F)c1)c1cc(S(=O)(=O)N2CCCCC2)ccc1[O-] (protonated)
O=C(Nc1cccc(C(F)(F)F)c1)c1cc(S(=O)(=O)N2CCCCC2)ccc1[O-] (3D coordinates assigned)
O=C(Nc1cccc(C(F)(F)F)c1)c1cc(S(=O)(=O)N2CCCCC2)ccc1[O-] (nonaromatic ring conformer: 58.826562729429625 kcal/mol)

>  <smiles>  (47) 
O=C(Nc1cccc(C(F)(F)F)c1)c1cc(S(=O)(=O)N2CCCCC2)ccc1O

>  <score_type>  (47) 
oracle

>  <origin>  (47) 
adgpu

>  <m_score__min__energy>  (47) 
-12.550000000000001

>  <m_primary>  (47) 
energy

$$$$
47:0
     RDKit          3D

 39 41  0  0  0  0  0  0  0  0999 V2000
    0.2360   19.8410  -31.2280 C   0  0  0  0  0  0  0  0  0  0  0  0
   -0.3280   20.9050  -31.9890 O   0  0  0  0  0  0  0  0  0  0  0  0
   -1.6900   21.2390  -31.9950 C   0  0  0  0  0  0  0  0  0  0  0  0
   -2.3240   21.4690  -30.7680 C   0  0  0  0  0  0  0  0  0  0  0  0
   -3.6800   21.8030  -30.7220 C   0  0  0  0  0  0  0  0  0  0  0  0
   -4.4230   21.9110  -31.9050 C   0  0  0  0  0  0  0  0  0  0  0  0
   -5.8190   22.2530  -31.8560 N   0  0  0  0  0  0  0  0  0  0  0  0
   -6.3560   23.4570  -31.5780 C   0  0  0  0  0  0  0  0  0  0  0  0
   -5.4260   24.9140  -31.0920 S   0  0  0  0  0  0  0  0  0  0  0  0
   -6.5440   25.3070  -29.7110 C   0  0  0  0  0  0  0  0  0  0  0  0
   -7.6840   23.4690  -31.7860 N   0  0  0  0  0  0  0  0  0  0  0  0
   -8.0190   22.2580  -32.2070 N   0  0  0  0  0  0  0  0  0  0  0  0
   -6.8880   21.5240  -32.2510 C   0  0  0  0  0  0  0  0  0  0  0  0
   -6.8680   20.1020  -32.6600 C   0  0  0  0  0  0  0  0  0  0  0  0
   -6.1420   19.7150  -33.7980 C   0  0  0  0  0  0  0  0  0  0  0  0
   -6.1180   18.3770  -34.2010 C   0  0  0  0  0  0  0  0  0  0  0  0
   -6.8210   17.4060  -33.4730 C   0  0  0  0  0  0  0  0  0  0  0  0
   -6.8260   15.9770  -33.9280 C   0  0  0  0  0  0  0  0  0  0  0  0
   -7.5790   17.7960  -32.3600 C   0  0  0  0  0  0  0  0  0  0  0  0
   -7.6040   19.1330  -31.9560 C   0  0  0  0  0  0  0  0  0  0  0  0
   -3.7910   21.6850  -33.1370 C   0  0  0  0  0  0  0  0  0  0  0  0
   -2.4360   21.3500  -33.1840 C   0  0  0  0  0  0  0  0  0  0  0  0
    0.1217   20.0566  -30.1554 H   0  0  0  0  0  0  0  0  0  0  0  0
   -0.2826   18.9017  -31.4705 H   0  0  0  0  0  0  0  0  0  0  0  0
    1.3045   19.7430  -31.4705 H   0  0  0  0  0  0  0  0  0  0  0  0
   -1.7502   21.3861  -29.8332 H   0  0  0  0  0  0  0  0  0  0  0  0
   -4.1667   21.9821  -29.7519 H   0  0  0  0  0  0  0  0  0  0  0  0
   -6.0268   25.1252  -28.7574 H   0  0  0  0  0  0  0  0  0  0  0  0
   -6.8427   26.3640  -29.7704 H   0  0  0  0  0  0  0  0  0  0  0  0
   -7.4384   24.6694  -29.7704 H   0  0  0  0  0  0  0  0  0  0  0  0
   -5.5886   20.4698  -34.3760 H   0  0  0  0  0  0  0  0  0  0  0  0
   -5.5451   18.0841  -35.0932 H   0  0  0  0  0  0  0  0  0  0  0  0
   -6.8283   15.3130  -33.0510 H   0  0  0  0  0  0  0  0  0  0  0  0
   -7.7248   15.7881  -34.5334 H   0  0  0  0  0  0  0  0  0  0  0  0
   -5.9285   15.7818  -34.5334 H   0  0  0  0  0  0  0  0  0  0  0  0
   -8.1573   17.0450  -31.8017 H   0  0  0  0  0  0  0  0  0  0  0  0
   -8.2029   19.4292  -31.0822 H   0  0  0  0  0  0  0  0  0  0  0  0
   -4.3657   21.7721  -34.0709 H   0  0  0  0  0  0  0  0  0  0  0  0
   -1.9493   21.1721  -34.1543 H   0  0  0  0  0  0  0  0  0  0  0  0
  1  2  1  0
  2  3  1  0
  3  4  2  0
  4  5  1  0
  5  6  2  0
  6  7  1  0
  7  8  1  0
  8  9  1  0
  9 10  1  0
  8 11  2  0
 11 12  1  0
 12 13  2  0
 13 14  1  0
 14 15  2  0
 15 16  1  0
 16 17  2  0
 17 18  1  0
 17 19  1  0
 19 20  2  0
  6 21  1  0
 21 22  2  0
 22  3  1  0
 13  7  1  0
 20 14  1  0
  1 23  1  0
  1 24  1  0
  1 25  1  0
  4 26  1  0
  5 27  1  0
 10 28  1  0
 10 29  1  0
 10 30  1  0
 15 31  1  0
 16 32  1  0
 18 33  1  0
 18 34  1  0
 18 35  1  0
 19 36  1  0
 20 37  1  0
 21 38  1  0
 22 39  1  0
M  END
>  <UniqueID>  (48) 
44

>  <SMILES>  (48) 
COc1ccc(-n2c(SC)nnc2-c2ccc(C)cc2)cc1

>  <Energy>  (48) 
79.4595175186661

>  <Genealogy>  (48) 
COc1ccc(-n2c(SC)nnc2-c2ccc(C)cc2)cc1 (3D coordinates assigned)
COc1ccc(-n2c(SC)nnc2-c2ccc(C)cc2)cc1 (optimized conformer: 79.4595175186661 kcal/mol)

>  <smiles>  (48) 
COc1ccc(-n2c(SC)nnc2-c2ccc(C)cc2)cc1

>  <score_type>  (48) 
oracle

>  <origin>  (48) 
adgpu

>  <m_score__min__energy>  (48) 
-7.6900000000000004

>  <m_primary>  (48) 
energy

$$$$
48:0
     RDKit          3D

 50 52  0  0  0  0  0  0  0  0999 V2000
   -1.6740   23.9390  -26.8890 C   0  0  0  0  0  0  0  0  0  0  0  0
   -1.1530   24.2850  -28.5590 S   0  0  0  0  0  0  0  0  0  0  0  0
   -1.5940   25.6640  -28.9660 O   0  0  0  0  0  0  0  0  0  0  0  0
    0.3490   24.2400  -28.5860 O   0  0  0  0  0  0  0  0  0  0  0  0
   -1.8110   23.0820  -29.6840 C   0  0  0  0  0  0  0  0  0  0  0  0
   -1.0420   21.9440  -29.9720 C   0  0  0  0  0  0  0  0  0  0  0  0
   -1.5410   20.9300  -30.7920 C   0  0  0  0  0  0  0  0  0  0  0  0
   -2.8230   21.0340  -31.3440 C   0  0  0  0  0  0  0  0  0  0  0  0
   -3.3570   19.9510  -32.1980 C   0  0  0  0  0  0  0  0  0  0  0  0
   -2.5700   19.0880  -32.6740 O   0  0  0  0  0  0  0  0  0  0  0  0
   -4.7620   19.8600  -32.4940 N   0  0  0  0  0  0  0  0  0  0  0  0
   -5.4760   21.0110  -33.0640 C   0  0  0  0  0  0  0  0  0  0  0  0
   -6.7840   21.2170  -32.3510 C   0  0  0  0  0  0  0  0  0  0  0  0
   -7.9120   20.4580  -32.7020 C   0  0  0  0  0  0  0  0  0  0  0  0
   -9.1190   20.6310  -32.0160 C   0  0  0  0  0  0  0  0  0  0  0  0
   -9.2040   21.5570  -30.9720 C   0  0  0  0  0  0  0  0  0  0  0  0
   -8.0810   22.3050  -30.6070 C   0  0  0  0  0  0  0  0  0  0  0  0
   -6.8720   22.1330  -31.2900 C   0  0  0  0  0  0  0  0  0  0  0  0
   -5.4820   18.6260  -32.1650 C   0  0  0  0  0  0  0  0  0  0  0  0
   -5.0830   17.5430  -33.1280 C   0  0  0  0  0  0  0  0  0  0  0  0
   -4.7270   17.8640  -34.4490 C   0  0  0  0  0  0  0  0  0  0  0  0
   -4.2620   16.8700  -35.3150 C   0  0  0  0  0  0  0  0  0  0  0  0
   -4.1380   15.5520  -34.8650 C   0  0  0  0  0  0  0  0  0  0  0  0
   -4.4810   15.2270  -33.5500 C   0  0  0  0  0  0  0  0  0  0  0  0
   -4.9480   16.2180  -32.6820 C   0  0  0  0  0  0  0  0  0  0  0  0
   -3.6010   22.1650  -31.0540 C   0  0  0  0  0  0  0  0  0  0  0  0
   -3.1040   23.1990  -30.2450 C   0  0  0  0  0  0  0  0  0  0  0  0
   -3.9290   24.3520  -30.0130 N   0  0  0  0  0  0  0  0  0  0  0  0
   -3.8670   25.3280  -30.7900 O   0  0  0  0  0  0  0  0  0  0  0  0
   -4.5870   24.4980  -28.8150 O   0  0  0  0  0  0  0  0  0  0  0  0
   -0.9721   24.4052  -26.1819 H   0  0  0  0  0  0  0  0  0  0  0  0
   -2.6825   24.3474  -26.7275 H   0  0  0  0  0  0  0  0  0  0  0  0
   -1.6888   22.8510  -26.7275 H   0  0  0  0  0  0  0  0  0  0  0  0
   -0.0323   21.8495  -29.5459 H   0  0  0  0  0  0  0  0  0  0  0  0
   -0.9235   20.0450  -31.0052 H   0  0  0  0  0  0  0  0  0  0  0  0
   -4.8565   21.9133  -32.9542 H   0  0  0  0  0  0  0  0  0  0  0  0
   -5.6745   20.8184  -34.1287 H   0  0  0  0  0  0  0  0  0  0  0  0
   -7.8464   19.7247  -33.5193 H   0  0  0  0  0  0  0  0  0  0  0  0
  -10.0016   20.0382  -32.2982 H   0  0  0  0  0  0  0  0  0  0  0  0
  -10.1552   21.6970  -30.4375 H   0  0  0  0  0  0  0  0  0  0  0  0
   -8.1478   23.0295  -29.7820 H   0  0  0  0  0  0  0  0  0  0  0  0
   -5.9877   22.7170  -30.9950 H   0  0  0  0  0  0  0  0  0  0  0  0
   -5.2303   18.3165  -31.1399 H   0  0  0  0  0  0  0  0  0  0  0  0
   -6.5653   18.8021  -32.2385 H   0  0  0  0  0  0  0  0  0  0  0  0
   -4.8146   18.9018  -34.8031 H   0  0  0  0  0  0  0  0  0  0  0  0
   -3.9936   17.1248  -36.3509 H   0  0  0  0  0  0  0  0  0  0  0  0
   -3.7703   14.7707  -35.5464 H   0  0  0  0  0  0  0  0  0  0  0  0
   -4.3833   14.1896  -33.1974 H   0  0  0  0  0  0  0  0  0  0  0  0
   -5.2108   15.9592  -31.6457 H   0  0  0  0  0  0  0  0  0  0  0  0
   -4.6174   22.2428  -31.4675 H   0  0  0  0  0  0  0  0  0  0  0  0
  1  2  1  0
  2  3  2  0
  2  4  2  0
  2  5  1  0
  5  6  2  0
  6  7  1  0
  7  8  2  0
  8  9  1  0
  9 10  2  0
  9 11  1  0
 11 12  1  0
 12 13  1  0
 13 14  2  0
 14 15  1  0
 15 16  2  0
 16 17  1  0
 17 18  2  0
 11 19  1  0
 19 20  1  0
 20 21  2  0
 21 22  1  0
 22 23  2  0
 23 24  1  0
 24 25  2  0
  8 26  1  0
 26 27  2  0
 27 28  1  0
 28 29  2  0
 28 30  1  0
 27  5  1  0
 18 13  1  0
 25 20  1  0
  1 31  1  0
  1 32  1  0
  1 33  1  0
  6 34  1  0
  7 35  1  0
 12 36  1  0
 12 37  1  0
 14 38  1  0
 15 39  1  0
 16 40  1  0
 17 41  1  0
 18 42  1  0
 19 43  1  0
 19 44  1  0
 21 45  1  0
 22 46  1  0
 23 47  1  0
 24 48  1  0
 25 49  1  0
 26 50  1  0
M  CHG  2  28   1  30  -1
M  END
>  <UniqueID>  (49) 
45

>  <SMILES>  (49) 
CS(=O)(=O)c1ccc(C(=O)N(Cc2ccccc2)Cc2ccccc2)cc1[N+](=O)[O-]

>  <Energy>  (49) 
57.79932246473869

>  <Genealogy>  (49) 
CS(=O)(=O)c1ccc(C(=O)N(Cc2ccccc2)Cc2ccccc2)cc1[N+](=O)[O-] (3D coordinates assigned)
CS(=O)(=O)c1ccc(C(=O)N(Cc2ccccc2)Cc2ccccc2)cc1[N+](=O)[O-] (optimized conformer: 57.79932246473869 kcal/mol)

>  <smiles>  (49) 
CS(=O)(=O)c1ccc(C(=O)N(Cc2ccccc2)Cc2ccccc2)cc1[N+](=O)[O-]

>  <score_type>  (49) 
oracle

>  <origin>  (49) 
adgpu

>  <m_score__min__energy>  (49) 
-10.27

>  <m_primary>  (49) 
energy

$$$$
