0:0
     RDKit          3D

 34 36  0  0  0  0  0  0  0  0999 V2000
   -0.1480   24.5220  -28.1430 O   0  0  0  0  0  0  0  0  0  0  0  0
   -1.3460   24.2940  -28.4560 C   0  0  0  0  0  0  0  0  0  0  0  0
   -1.9680   25.0790  -29.3730 N   0  0  0  0  0  0  0  0  0  0  0  0
   -3.2620   24.8560  -29.7230 C   0  0  0  0  0  0  0  0  0  0  0  0
   -3.8570   25.6670  -30.6800 O   0  0  0  0  0  0  0  0  0  0  0  0
   -3.9760   23.8080  -29.1270 C   0  0  0  0  0  0  0  0  0  0  0  0
   -5.6950   23.4910  -29.5680 S   0  0  0  0  0  0  0  0  0  0  0  0
   -5.2710   22.3620  -30.9080 C   0  0  0  0  0  0  0  0  0  0  0  0
   -3.9500   22.3620  -31.3770 C   0  0  0  0  0  0  0  0  0  0  0  0
   -3.5460   21.4600  -32.3610 C   0  0  0  0  0  0  0  0  0  0  0  0
   -4.4570   20.5530  -32.9060 C   0  0  0  0  0  0  0  0  0  0  0  0
   -4.0060   19.6460  -33.8760 O   0  0  0  0  0  0  0  0  0  0  0  0
   -4.3980   18.3040  -33.9790 C   0  0  0  0  0  0  0  0  0  0  0  0
   -5.7510   18.0120  -34.1920 C   0  0  0  0  0  0  0  0  0  0  0  0
   -6.1820   16.6850  -34.2860 C   0  0  0  0  0  0  0  0  0  0  0  0
   -5.2650   15.6390  -34.1550 C   0  0  0  0  0  0  0  0  0  0  0  0
   -3.9140   15.9200  -33.9230 C   0  0  0  0  0  0  0  0  0  0  0  0
   -3.4810   17.2460  -33.8290 C   0  0  0  0  0  0  0  0  0  0  0  0
   -5.7830   20.5460  -32.4400 C   0  0  0  0  0  0  0  0  0  0  0  0
   -6.2100   21.4610  -31.4620 C   0  0  0  0  0  0  0  0  0  0  0  0
   -7.5910   21.4700  -31.0580 N   0  0  0  0  0  0  0  0  0  0  0  0
   -8.2410   20.4050  -31.0260 O   0  0  0  0  0  0  0  0  0  0  0  0
   -8.2610   22.6580  -30.8860 O   0  0  0  0  0  0  0  0  0  0  0  0
   -3.3060   22.9970  -28.2000 C   0  0  0  0  0  0  0  0  0  0  0  0
   -3.8900   22.0220  -27.6590 O   0  0  0  0  0  0  0  0  0  0  0  0
   -2.0110   23.2610  -27.8820 N   0  0  0  0  0  0  0  0  0  0  0  0
   -3.2255   23.0799  -30.9652 H   0  0  0  0  0  0  0  0  0  0  0  0
   -2.5028   21.4631  -32.7100 H   0  0  0  0  0  0  0  0  0  0  0  0
   -6.4790   18.8313  -34.2859 H   0  0  0  0  0  0  0  0  0  0  0  0
   -7.2449   16.4643  -34.4634 H   0  0  0  0  0  0  0  0  0  0  0  0
   -5.6047   14.5958  -34.2342 H   0  0  0  0  0  0  0  0  0  0  0  0
   -3.1922   15.0971  -33.8145 H   0  0  0  0  0  0  0  0  0  0  0  0
   -2.4199   17.4636  -33.6371 H   0  0  0  0  0  0  0  0  0  0  0  0
   -6.4967   19.8142  -32.8463 H   0  0  0  0  0  0  0  0  0  0  0  0
  1  2  2  0
  2  3  1  0
  3  4  1  0
  4  5  1  0
  4  6  2  0
  6  7  1  0
  7  8  1  0
  8  9  2  0
  9 10  1  0
 10 11  2  0
 11 12  1  0
 12 13  1  0
 13 14  2  0
 14 15  1  0
 15 16  2  0
 16 17  1  0
 17 18  2  0
 11 19  1  0
 19 20  2  0
 20 21  1  0
 21 22  2  0
 21 23  1  0
  6 24  1  0
 24 25  2  0
 24 26  1  0
 26  2  1  0
 20  8  1  0
 18 13  1  0
  9 27  1  0
 10 28  1  0
 14 29  1  0
 15 30  1  0
 16 31  1  0
 17 32  1  0
 18 33  1  0
 19 34  1  0
M  CHG  5   3  -1   5  -1  21   1  23  -1  26  -1
M  END
>  <UniqueID>  (1) 
1

>  <SMILES>  (1) 
O=c1[n-]c([O-])c(Sc2ccc(Oc3ccccc3)cc2[N+](=O)[O-])c(=O)[n-]1

>  <Energy>  (1) 
47.1115121090761

>  <Genealogy>  (1) 
O=c1[n-]c([O-])c(Sc2ccc(Oc3ccccc3)cc2[N+](=O)[O-])c(=O)[n-]1 (protonated)
O=c1[n-]c([O-])c(Sc2ccc(Oc3ccccc3)cc2[N+](=O)[O-])c(=O)[n-]1 (3D coordinates assigned)
O=c1[n-]c([O-])c(Sc2ccc(Oc3ccccc3)cc2[N+](=O)[O-])c(=O)[n-]1 (optimized conformer: 47.1115121090761 kcal/mol)

>  <smiles>  (1) 
O=c1[nH]c(O)c(Sc2ccc(Oc3ccccc3)cc2[N+](=O)[O-])c(=O)[nH]1

>  <score_type>  (1) 
oracle

>  <origin>  (1) 
adgpu

>  <m_score__min__energy>  (1) 
-13.23

>  <m_primary>  (1) 
energy

$$$$
1:0
     RDKit          3D

 54 57  0  0  0  0  0  0  0  0999 V2000
   -0.7710   15.2910  -36.2200 O   0  0  0  0  0  0  0  0  0  0  0  0
   -0.9530   15.6910  -34.7820 S   0  0  0  0  0  0  0  0  0  0  0  0
   -0.5790   14.5320  -33.9020 O   0  0  0  0  0  0  0  0  0  0  0  0
    0.0950   17.0310  -34.4270 N   0  0  0  0  0  0  0  0  0  0  0  0
   -0.3640   18.3650  -34.1230 C   0  0  0  0  0  0  0  0  0  0  0  0
   -1.1110   18.6310  -32.9550 C   0  0  0  0  0  0  0  0  0  0  0  0
   -1.5410   19.9270  -32.6650 C   0  0  0  0  0  0  0  0  0  0  0  0
   -1.2370   20.9780  -33.5290 C   0  0  0  0  0  0  0  0  0  0  0  0
   -0.5010   20.7350  -34.6880 C   0  0  0  0  0  0  0  0  0  0  0  0
   -0.0640   19.4390  -34.9920 C   0  0  0  0  0  0  0  0  0  0  0  0
    0.8590   19.2110  -36.4750 Cl  0  0  0  0  0  0  0  0  0  0  0  0
   -2.6310   16.1180  -34.4680 C   0  0  0  0  0  0  0  0  0  0  0  0
   -3.2730   17.0930  -35.2440 C   0  0  0  0  0  0  0  0  0  0  0  0
   -4.6070   17.4260  -34.9920 C   0  0  0  0  0  0  0  0  0  0  0  0
   -5.3160   16.7900  -33.9670 C   0  0  0  0  0  0  0  0  0  0  0  0
   -6.6450   17.1670  -33.7340 O   0  0  0  0  0  0  0  0  0  0  0  0
   -7.0580   18.3350  -33.0740 C   0  0  0  0  0  0  0  0  0  0  0  0
   -7.9690   18.3030  -32.0030 C   0  0  0  0  0  0  0  0  0  0  0  0
   -8.3680   19.4900  -31.3820 C   0  0  0  0  0  0  0  0  0  0  0  0
   -7.8800   20.7240  -31.8330 C   0  0  0  0  0  0  0  0  0  0  0  0
   -8.4040   22.2240  -31.0620 S   0  0  0  0  0  0  0  0  0  0  0  0
   -8.9390   23.1590  -32.1110 O   0  0  0  0  0  0  0  0  0  0  0  0
   -9.5170   21.9250  -30.0970 O   0  0  0  0  0  0  0  0  0  0  0  0
   -7.0910   23.0050  -30.2090 N   0  0  0  0  0  0  0  0  0  0  0  0
   -7.1030   24.4570  -30.4660 C   0  0  0  0  0  0  0  0  0  0  0  0
   -5.7340   25.0760  -30.1410 C   0  0  0  0  0  0  0  0  0  0  0  0
   -4.6450   24.5230  -30.8710 O   0  0  0  0  0  0  0  0  0  0  0  0
   -4.9190   23.2460  -31.4290 C   0  0  0  0  0  0  0  0  0  0  0  0
   -5.7890   22.3700  -30.5110 C   0  0  0  0  0  0  0  0  0  0  0  0
   -6.9820   20.7570  -32.9090 C   0  0  0  0  0  0  0  0  0  0  0  0
   -6.5810   19.5690  -33.5300 C   0  0  0  0  0  0  0  0  0  0  0  0
   -4.6620   15.8340  -33.1690 C   0  0  0  0  0  0  0  0  0  0  0  0
   -3.3290   15.4980  -33.4240 C   0  0  0  0  0  0  0  0  0  0  0  0
    1.1150   16.8120  -34.4140 H   0  0  0  0  0  0  0  0  0  0  0  0
   -1.3566   17.8089  -32.2667 H   0  0  0  0  0  0  0  0  0  0  0  0
   -2.1220   20.1197  -31.7511 H   0  0  0  0  0  0  0  0  0  0  0  0
   -1.5774   21.9979  -33.2966 H   0  0  0  0  0  0  0  0  0  0  0  0
   -0.2619   21.5660  -35.3679 H   0  0  0  0  0  0  0  0  0  0  0  0
   -2.7254   17.5976  -36.0537 H   0  0  0  0  0  0  0  0  0  0  0  0
   -5.1030   18.1937  -35.6040 H   0  0  0  0  0  0  0  0  0  0  0  0
   -8.3691   17.3401  -31.6527 H   0  0  0  0  0  0  0  0  0  0  0  0
   -9.0688   19.4554  -30.5348 H   0  0  0  0  0  0  0  0  0  0  0  0
   -7.3374   24.6345  -31.5260 H   0  0  0  0  0  0  0  0  0  0  0  0
   -7.8645   24.9242  -29.8242 H   0  0  0  0  0  0  0  0  0  0  0  0
   -5.7833   26.1525  -30.3615 H   0  0  0  0  0  0  0  0  0  0  0  0
   -5.5389   24.8611  -29.0800 H   0  0  0  0  0  0  0  0  0  0  0  0
   -5.4457   23.3854  -32.3846 H   0  0  0  0  0  0  0  0  0  0  0  0
   -3.9570   22.7303  -31.5655 H   0  0  0  0  0  0  0  0  0  0  0  0
   -5.9711   21.4060  -31.0085 H   0  0  0  0  0  0  0  0  0  0  0  0
   -5.2499   22.2328  -29.5620 H   0  0  0  0  0  0  0  0  0  0  0  0
   -6.5910   21.7210  -33.2666 H   0  0  0  0  0  0  0  0  0  0  0  0
   -5.8863   19.6053  -34.3821 H   0  0  0  0  0  0  0  0  0  0  0  0
   -5.2010   15.3492  -32.3417 H   0  0  0  0  0  0  0  0  0  0  0  0
   -2.8261   14.7431  -32.8017 H   0  0  0  0  0  0  0  0  0  0  0  0
  1  2  2  0
  2  3  2  0
  2  4  1  0
  4  5  1  0
  5  6  2  0
  6  7  1  0
  7  8  2  0
  8  9  1  0
  9 10  2  0
 10 11  1  0
  2 12  1  0
 12 13  2  0
 13 14  1  0
 14 15  2  0
 15 16  1  0
 16 17  1  0
 17 18  2  0
 18 19  1  0
 19 20  2  0
 20 21  1  0
 21 22  2  0
 21 23  2  0
 21 24  1  0
 24 25  1  0
 25 26  1  0
 26 27  1  0
 27 28  1  0
 28 29  1  0
 20 30  1  0
 30 31  2  0
 15 32  1  0
 32 33  2  0
 10  5  1  0
 33 12  1  0
 31 17  1  0
 29 24  1  0
  4 34  1  0
  6 35  1  0
  7 36  1  0
  8 37  1  0
  9 38  1  0
 13 39  1  0
 14 40  1  0
 18 41  1  0
 19 42  1  0
 25 43  1  0
 25 44  1  0
 26 45  1  0
 26 46  1  0
 28 47  1  0
 28 48  1  0
 29 49  1  0
 29 50  1  0
 30 51  1  0
 31 52  1  0
 32 53  1  0
 33 54  1  0
M  END
>  <UniqueID>  (2) 
2

>  <SMILES>  (2) 
O=S(=O)(Nc1ccccc1Cl)c1ccc(Oc2ccc(S(=O)(=O)N3CCOCC3)cc2)cc1

>  <Energy>  (2) 
80.24187344833464

>  <Genealogy>  (2) 
O=S(=O)(Nc1ccccc1Cl)c1ccc(Oc2ccc(S(=O)(=O)N3CCOCC3)cc2)cc1 (3D coordinates assigned)
O=S(=O)(Nc1ccccc1Cl)c1ccc(Oc2ccc(S(=O)(=O)N3CCOCC3)cc2)cc1 (nonaromatic ring conformer: 80.24187344833464 kcal/mol)

>  <smiles>  (2) 
O=S(=O)(Nc1ccccc1Cl)c1ccc(Oc2ccc(S(=O)(=O)N3CCOCC3)cc2)cc1

>  <score_type>  (2) 
oracle

>  <origin>  (2) 
adgpu

>  <m_score__min__energy>  (2) 
-10.619999999999999

>  <m_primary>  (2) 
energy

$$$$
2:0
     RDKit          3D

 45 47  0  0  0  0  0  0  0  0999 V2000
   -4.4940   12.0270  -35.5480 C   0  0  0  0  0  0  0  0  0  0  0  0
   -5.8930   12.0900  -34.9440 C   0  0  0  0  0  0  0  0  0  0  0  0
   -6.4260   13.4510  -35.0180 N   0  0  0  0  0  0  0  0  0  0  0  0
   -6.0710   14.5150  -34.1190 C   0  0  0  0  0  0  0  0  0  0  0  0
   -5.0150   14.2570  -32.8800 S   0  0  0  0  0  0  0  0  0  0  0  0
   -6.7640   15.7700  -34.2270 N   0  0  0  0  0  0  0  0  0  0  0  0
   -6.2540   17.0300  -33.7590 C   0  0  0  0  0  0  0  0  0  0  0  0
   -4.9320   17.4220  -34.0260 C   0  0  0  0  0  0  0  0  0  0  0  0
   -4.4620   18.6610  -33.5890 C   0  0  0  0  0  0  0  0  0  0  0  0
   -5.3070   19.5310  -32.8940 C   0  0  0  0  0  0  0  0  0  0  0  0
   -4.8330   20.7310  -32.4750 N   0  0  0  0  0  0  0  0  0  0  0  0
   -5.6000   21.6270  -31.7970 C   0  0  0  0  0  0  0  0  0  0  0  0
   -5.0240   22.8850  -31.3820 N   0  0  0  0  0  0  0  0  0  0  0  0
   -3.5950   22.9480  -31.0510 C   0  0  0  0  0  0  0  0  0  0  0  0
   -3.3300   24.0790  -30.0530 C   0  0  0  0  0  0  0  0  0  0  0  0
   -3.8870   25.2950  -30.5150 O   0  0  0  0  0  0  0  0  0  0  0  0
   -5.2960   25.1860  -30.5470 C   0  0  0  0  0  0  0  0  0  0  0  0
   -5.7400   24.1510  -31.5860 C   0  0  0  0  0  0  0  0  0  0  0  0
   -6.9410   21.3090  -31.5260 C   0  0  0  0  0  0  0  0  0  0  0  0
   -7.4770   20.0790  -31.9390 C   0  0  0  0  0  0  0  0  0  0  0  0
   -8.9210   19.7690  -31.6340 C   0  0  0  0  0  0  0  0  0  0  0  0
   -6.6480   19.1660  -32.6350 C   0  0  0  0  0  0  0  0  0  0  0  0
   -7.1110   17.9110  -33.0830 C   0  0  0  0  0  0  0  0  0  0  0  0
   -3.7473   11.9934  -34.7409 H   0  0  0  0  0  0  0  0  0  0  0  0
   -4.4032   11.1239  -36.1694 H   0  0  0  0  0  0  0  0  0  0  0  0
   -4.3224   12.9183  -36.1694 H   0  0  0  0  0  0  0  0  0  0  0  0
   -6.5571   11.4111  -35.4990 H   0  0  0  0  0  0  0  0  0  0  0  0
   -5.8367   11.7885  -33.8876 H   0  0  0  0  0  0  0  0  0  0  0  0
   -7.0660   13.6760  -35.8130 H   0  0  0  0  0  0  0  0  0  0  0  0
   -7.7170   15.7580  -34.6550 H   0  0  0  0  0  0  0  0  0  0  0  0
   -4.2636   16.7487  -34.5826 H   0  0  0  0  0  0  0  0  0  0  0  0
   -3.4216   18.9545  -33.7924 H   0  0  0  0  0  0  0  0  0  0  0  0
   -3.2829   21.9914  -30.6066 H   0  0  0  0  0  0  0  0  0  0  0  0
   -3.0229   23.1408  -31.9705 H   0  0  0  0  0  0  0  0  0  0  0  0
   -3.7827   23.8194  -29.0847 H   0  0  0  0  0  0  0  0  0  0  0  0
   -2.2429   24.2070  -29.9443 H   0  0  0  0  0  0  0  0  0  0  0  0
   -5.6562   24.8775  -29.5545 H   0  0  0  0  0  0  0  0  0  0  0  0
   -5.7184   26.1638  -30.8217 H   0  0  0  0  0  0  0  0  0  0  0  0
   -6.8214   23.9766  -31.4854 H   0  0  0  0  0  0  0  0  0  0  0  0
   -5.5120   24.5331  -32.5920 H   0  0  0  0  0  0  0  0  0  0  0  0
   -7.5751   22.0282  -30.9868 H   0  0  0  0  0  0  0  0  0  0  0  0
   -9.0670   19.7377  -30.5442 H   0  0  0  0  0  0  0  0  0  0  0  0
   -9.5631   20.5497  -32.0677 H   0  0  0  0  0  0  0  0  0  0  0  0
   -9.1861   18.7935  -32.0677 H   0  0  0  0  0  0  0  0  0  0  0  0
   -8.1559   17.6200  -32.9001 H   0  0  0  0  0  0  0  0  0  0  0  0
  1  2  1  0
  2  3  1  0
  3  4  1  0
  4  5  2  0
  4  6  1  0
  6  7  1  0
  7  8  2  0
  8  9  1  0
  9 10  2  0
 10 11  1  0
 11 12  2  0
 12 13  1  0
 13 14  1  0
 14 15  1  0
 15 16  1  0
 16 17  1  0
 17 18  1  0
 12 19  1  0
 19 20  2  0
 20 21  1  0
 20 22  1  0
 22 23  2  0
 23  7  1  0
 22 10  1  0
 18 13  1  0
  1 24  1  0
  1 25  1  0
  1 26  1  0
  2 27  1  0
  2 28  1  0
  3 29  1  0
  6 30  1  0
  8 31  1  0
  9 32  1  0
 14 33  1  0
 14 34  1  0
 15 35  1  0
 15 36  1  0
 17 37  1  0
 17 38  1  0
 18 39  1  0
 18 40  1  0
 19 41  1  0
 21 42  1  0
 21 43  1  0
 21 44  1  0
 23 45  1  0
M  END
>  <UniqueID>  (3) 
3

>  <SMILES>  (3) 
CCNC(=S)Nc1ccc2nc(N3CCOCC3)cc(C)c2c1

>  <Energy>  (3) 
56.02743519862094

>  <Genealogy>  (3) 
CCNC(=S)Nc1ccc2nc(N3CCOCC3)cc(C)c2c1 (3D coordinates assigned)
CCNC(=S)Nc1ccc2nc(N3CCOCC3)cc(C)c2c1 (nonaromatic ring conformer: 56.02743519862094 kcal/mol)

>  <smiles>  (3) 
CCNC(=S)Nc1ccc2nc(N3CCOCC3)cc(C)c2c1

>  <score_type>  (3) 
oracle

>  <origin>  (3) 
adgpu

>  <m_score__min__energy>  (3) 
-8.0099999999999998

>  <m_primary>  (3) 
energy

$$$$
3:0
     RDKit          3D

 35 37  0  0  0  0  0  0  0  0999 V2000
   -0.5210   23.2180  -28.6900 H   0  0  0  0  0  0  0  0  0  0  0  0
   -1.1610   22.5610  -29.1190 O   0  0  0  0  0  0  0  0  0  0  0  0
   -2.3450   22.9710  -29.7320 C   0  0  0  0  0  0  0  0  0  0  0  0
   -3.2000   22.0060  -30.2770 C   0  0  0  0  0  0  0  0  0  0  0  0
   -2.9313   20.9415  -30.2084 H   0  0  0  0  0  0  0  0  0  0  0  0
   -4.3980   22.3800  -30.9110 C   0  0  0  0  0  0  0  0  0  0  0  0
   -5.2910   21.3360  -31.4760 C   0  0  0  0  0  0  0  0  0  0  0  0
   -4.7620   20.3440  -32.2460 N   0  0  0  0  0  0  0  0  0  0  0  0
   -5.5230   19.3610  -32.7940 C   0  0  0  0  0  0  0  0  0  0  0  0
   -4.9370   18.4450  -33.5130 N   0  0  0  0  0  0  0  0  0  0  0  0
   -5.5670   17.2980  -34.1700 C   0  0  0  0  0  0  0  0  0  0  0  0
   -5.4453   17.3950  -35.2589 H   0  0  0  0  0  0  0  0  0  0  0  0
   -6.6339   17.2820  -33.9028 H   0  0  0  0  0  0  0  0  0  0  0  0
   -4.9370   16.0060  -33.7160 C   0  0  0  0  0  0  0  0  0  0  0  0
   -5.0430   15.6030  -32.3750 C   0  0  0  0  0  0  0  0  0  0  0  0
   -5.5955   16.2274  -31.6574 H   0  0  0  0  0  0  0  0  0  0  0  0
   -4.4490   14.4110  -31.9480 C   0  0  0  0  0  0  0  0  0  0  0  0
   -4.5410   14.0973  -30.8977 H   0  0  0  0  0  0  0  0  0  0  0  0
   -3.7390   13.6180  -32.8530 C   0  0  0  0  0  0  0  0  0  0  0  0
   -3.1500   12.4330  -32.4270 O   0  0  0  0  0  0  0  0  0  0  0  0
   -3.6180   14.0190  -34.1870 C   0  0  0  0  0  0  0  0  0  0  0  0
   -3.0560   13.3963  -34.8987 H   0  0  0  0  0  0  0  0  0  0  0  0
   -4.2100   15.2100  -34.6180 C   0  0  0  0  0  0  0  0  0  0  0  0
   -4.1065   15.5253  -35.6668 H   0  0  0  0  0  0  0  0  0  0  0  0
   -6.9110   19.3780  -32.5620 C   0  0  0  0  0  0  0  0  0  0  0  0
   -7.5548   18.5952  -32.9895 H   0  0  0  0  0  0  0  0  0  0  0  0
   -7.4480   20.3690  -31.8060 N   0  0  0  0  0  0  0  0  0  0  0  0
   -6.6790   21.3450  -31.2590 C   0  0  0  0  0  0  0  0  0  0  0  0
   -7.1394   22.1371  -30.6503 H   0  0  0  0  0  0  0  0  0  0  0  0
   -4.7350   23.7460  -30.9710 C   0  0  0  0  0  0  0  0  0  0  0  0
   -5.6749   24.0553  -31.4515 H   0  0  0  0  0  0  0  0  0  0  0  0
   -3.8850   24.7120  -30.4250 C   0  0  0  0  0  0  0  0  0  0  0  0
   -4.2350   26.0550  -30.4950 O   0  0  0  0  0  0  0  0  0  0  0  0
   -2.6880   24.3290  -29.8090 C   0  0  0  0  0  0  0  0  0  0  0  0
   -1.8490   25.2990  -29.2710 O   0  0  0  0  0  0  0  0  0  0  0  0
  1  2  1  0
  2  3  1  0
  3  4  2  0
  4  5  1  0
  4  6  1  0
  6  7  1  0
  7  8  1  0
  8  9  1  0
  9 10  2  0
 10 11  1  0
 11 12  1  0
 11 13  1  0
 11 14  1  0
 14 15  2  0
 15 16  1  0
 15 17  1  0
 17 18  1  0
 17 19  2  0
 19 20  1  0
 19 21  1  0
 21 22  1  0
 21 23  2  0
 23 24  1  0
  9 25  1  0
 25 26  1  0
 25 27  2  0
 27 28  1  0
 28 29  1  0
  6 30  2  0
 30 31  1  0
 30 32  1  0
 32 33  1  0
 32 34  2  0
 34 35  1  0
 34  3  1  0
 28  7  2  0
 23 14  1  0
M  CHG  4   8  -1  20  -1  33  -1  35  -1
M  END
>  <UniqueID>  (4) 
4

>  <SMILES>  (4) 
[O-]c1ccc(C/N=c2\cncc(-c3cc([O-])c([O-])c(O)c3)[n-]2)cc1

>  <Energy>  (4) 
46.04090187290892

>  <Genealogy>  (4) 
[O-]c1ccc(CN=c2cncc(-c3cc([O-])c([O-])c(O)c3)[n-]2)cc1 (protonated)
[O-]c1ccc(C/N=c2\cncc(-c3cc([O-])c([O-])c(O)c3)[n-]2)cc1 (cis-trans isomerization)
[O-]c1ccc(C/N=c2\cncc(-c3cc([O-])c([O-])c(O)c3)[n-]2)cc1 (3D coordinates assigned)
[O-]c1ccc(C/N=c2\cncc(-c3cc([O-])c([O-])c(O)c3)[n-]2)cc1 (optimized conformer: 46.04090187290892 kcal/mol)

>  <smiles>  (4) 
Oc1ccc(CN=c2cncc(-c3cc(O)c(O)c(O)c3)[nH]2)cc1

>  <score_type>  (4) 
oracle

>  <origin>  (4) 
adgpu

>  <m_score__min__energy>  (4) 
-11.470000000000001

>  <m_primary>  (4) 
energy

$$$$
4:0
     RDKit          3D

 47 50  0  0  0  0  0  0  0  0999 V2000
   -7.6780   24.1320  -31.0760 O   0  0  0  0  0  0  0  0  0  0  0  0
   -6.5990   23.6190  -31.4730 C   0  0  0  0  0  0  0  0  0  0  0  0
   -6.6510   22.5880  -32.4680 N   0  0  0  0  0  0  0  0  0  0  0  0
   -7.2630   21.2960  -32.3220 C   0  0  0  0  0  0  0  0  0  0  0  0
   -6.5100   20.1170  -32.4700 C   0  0  0  0  0  0  0  0  0  0  0  0
   -7.1150   18.8620  -32.3270 C   0  0  0  0  0  0  0  0  0  0  0  0
   -6.1530   17.3920  -32.4900 S   0  0  0  0  0  0  0  0  0  0  0  0
   -6.0650   16.7100  -31.1520 O   0  0  0  0  0  0  0  0  0  0  0  0
   -6.8430   16.4530  -33.4410 O   0  0  0  0  0  0  0  0  0  0  0  0
   -4.5370   17.7230  -33.0800 N   0  0  0  0  0  0  0  0  0  0  0  0
   -4.5690   18.2600  -34.4450 C   0  0  0  0  0  0  0  0  0  0  0  0
   -4.2820   17.1260  -35.4180 C   0  0  0  0  0  0  0  0  0  0  0  0
   -3.7710   15.9750  -34.5730 C   0  0  0  0  0  0  0  0  0  0  0  0
   -3.7370   16.4950  -33.1440 C   0  0  0  0  0  0  0  0  0  0  0  0
   -8.4860   18.7840  -32.0550 C   0  0  0  0  0  0  0  0  0  0  0  0
   -9.2470   19.9490  -31.9410 C   0  0  0  0  0  0  0  0  0  0  0  0
   -8.6460   21.2040  -32.0770 C   0  0  0  0  0  0  0  0  0  0  0  0
   -9.4390   22.3450  -31.9560 O   0  0  0  0  0  0  0  0  0  0  0  0
   -5.3310   24.0580  -30.8610 C   0  0  0  0  0  0  0  0  0  0  0  0
   -4.6090   23.3950  -29.8890 C   0  0  0  0  0  0  0  0  0  0  0  0
   -3.5170   24.2130  -29.6640 C   0  0  0  0  0  0  0  0  0  0  0  0
   -2.3760   23.9560  -28.7520 C   0  0  0  0  0  0  0  0  0  0  0  0
   -2.3470   22.7540  -28.0200 C   0  0  0  0  0  0  0  0  0  0  0  0
   -1.2980   22.4810  -27.1400 C   0  0  0  0  0  0  0  0  0  0  0  0
   -0.2600   23.4010  -26.9800 C   0  0  0  0  0  0  0  0  0  0  0  0
   -0.2660   24.5910  -27.7100 C   0  0  0  0  0  0  0  0  0  0  0  0
   -1.3100   24.8710  -28.6000 C   0  0  0  0  0  0  0  0  0  0  0  0
   -1.2560   26.0470  -29.3400 O   0  0  0  0  0  0  0  0  0  0  0  0
   -3.6030   25.2970  -30.4620 N   0  0  0  0  0  0  0  0  0  0  0  0
   -4.7100   25.2080  -31.1810 N   0  0  0  0  0  0  0  0  0  0  0  0
   -5.4363   20.1814  -32.7001 H   0  0  0  0  0  0  0  0  0  0  0  0
   -5.5620   18.6849  -34.6532 H   0  0  0  0  0  0  0  0  0  0  0  0
   -3.8132   19.0515  -34.5559 H   0  0  0  0  0  0  0  0  0  0  0  0
   -5.2009   16.8339  -35.9474 H   0  0  0  0  0  0  0  0  0  0  0  0
   -3.5485   17.4240  -36.1817 H   0  0  0  0  0  0  0  0  0  0  0  0
   -4.4486   15.1120  -34.6508 H   0  0  0  0  0  0  0  0  0  0  0  0
   -2.7782   15.6376  -34.9054 H   0  0  0  0  0  0  0  0  0  0  0  0
   -4.1591   15.7406  -32.4638 H   0  0  0  0  0  0  0  0  0  0  0  0
   -2.7000   16.7028  -32.8415 H   0  0  0  0  0  0  0  0  0  0  0  0
   -8.9653   17.8017  -31.9307 H   0  0  0  0  0  0  0  0  0  0  0  0
  -10.3267   19.8790  -31.7428 H   0  0  0  0  0  0  0  0  0  0  0  0
   -9.0460   23.2780  -31.9160 H   0  0  0  0  0  0  0  0  0  0  0  0
   -4.8475   22.4365  -29.4048 H   0  0  0  0  0  0  0  0  0  0  0  0
   -3.1591   22.0223  -28.1426 H   0  0  0  0  0  0  0  0  0  0  0  0
   -1.2893   21.5393  -26.5716 H   0  0  0  0  0  0  0  0  0  0  0  0
    0.5613   23.1885  -26.2798 H   0  0  0  0  0  0  0  0  0  0  0  0
    0.5544   25.3130  -27.5852 H   0  0  0  0  0  0  0  0  0  0  0  0
  1  2  2  0
  2  3  1  0
  3  4  1  0
  4  5  2  0
  5  6  1  0
  6  7  1  0
  7  8  2  0
  7  9  2  0
  7 10  1  0
 10 11  1  0
 11 12  1  0
 12 13  1  0
 13 14  1  0
  6 15  2  0
 15 16  1  0
 16 17  2  0
 17 18  1  0
  2 19  1  0
 19 20  1  0
 20 21  2  0
 21 22  1  0
 22 23  2  0
 23 24  1  0
 24 25  2  0
 25 26  1  0
 26 27  2  0
 27 28  1  0
 21 29  1  0
 29 30  1  0
 17  4  1  0
 30 19  2  0
 14 10  1  0
 27 22  1  0
  5 31  1  0
 11 32  1  0
 11 33  1  0
 12 34  1  0
 12 35  1  0
 13 36  1  0
 13 37  1  0
 14 38  1  0
 14 39  1  0
 15 40  1  0
 16 41  1  0
 18 42  1  0
 20 43  1  0
 23 44  1  0
 24 45  1  0
 25 46  1  0
 26 47  1  0
M  CHG  3   3  -1  28  -1  29  -1
M  END
>  <UniqueID>  (5) 
5

>  <SMILES>  (5) 
O=C([N-]c1cc(S(=O)(=O)N2CCCC2)ccc1O)c1cc(-c2ccccc2[O-])[n-]n1

>  <Energy>  (5) 
88.32858854495014

>  <Genealogy>  (5) 
O=C([N-]c1cc(S(=O)(=O)N2CCCC2)ccc1O)c1cc(-c2ccccc2[O-])[n-]n1 (protonated)
O=C([N-]c1cc(S(=O)(=O)N2CCCC2)ccc1O)c1cc(-c2ccccc2[O-])[n-]n1 (3D coordinates assigned)
O=C([N-]c1cc(S(=O)(=O)N2CCCC2)ccc1O)c1cc(-c2ccccc2[O-])[n-]n1 (nonaromatic ring conformer: 88.32858854495014 kcal/mol)

>  <smiles>  (5) 
O=C(Nc1cc(S(=O)(=O)N2CCCC2)ccc1O)c1cc(-c2ccccc2O)[nH]n1

>  <score_type>  (5) 
oracle

>  <origin>  (5) 
adgpu

>  <m_score__min__energy>  (5) 
-15.050000000000001

>  <m_primary>  (5) 
energy

$$$$
5:0
     RDKit          3D

 47 49  0  0  0  0  0  0  0  0999 V2000
   -1.2880   25.6620  -25.5240 C   0  0  0  0  0  0  0  0  0  0  0  0
   -1.2320   24.9670  -26.8530 C   0  0  0  0  0  0  0  0  0  0  0  0
   -0.0230   24.4260  -27.3170 C   0  0  0  0  0  0  0  0  0  0  0  0
    0.0390   23.8270  -28.5760 C   0  0  0  0  0  0  0  0  0  0  0  0
   -1.1000   23.7660  -29.3820 C   0  0  0  0  0  0  0  0  0  0  0  0
   -2.3170   24.2990  -28.9320 C   0  0  0  0  0  0  0  0  0  0  0  0
   -3.4740   24.2520  -29.7830 N   0  0  0  0  0  0  0  0  0  0  0  0
   -3.9040   25.2880  -30.4880 N   0  0  0  0  0  0  0  0  0  0  0  0
   -4.9870   24.9690  -31.1820 N   0  0  0  0  0  0  0  0  0  0  0  0
   -5.2530   23.6760  -30.9130 C   0  0  0  0  0  0  0  0  0  0  0  0
   -6.5930   22.7810  -31.6100 S   0  0  0  0  0  0  0  0  0  0  0  0
   -7.5590   22.4520  -30.5050 O   0  0  0  0  0  0  0  0  0  0  0  0
   -7.3040   23.6360  -32.6200 O   0  0  0  0  0  0  0  0  0  0  0  0
   -6.0190   21.3000  -32.4000 C   0  0  0  0  0  0  0  0  0  0  0  0
   -4.6510   21.1770  -32.6890 C   0  0  0  0  0  0  0  0  0  0  0  0
   -4.1640   20.0270  -33.3370 C   0  0  0  0  0  0  0  0  0  0  0  0
   -2.7610   19.8680  -33.6580 N   0  0  0  0  0  0  0  0  0  0  0  0
   -2.2300   18.5910  -34.1510 C   0  0  0  0  0  0  0  0  0  0  0  0
   -1.8560   21.0100  -33.4820 C   0  0  0  0  0  0  0  0  0  0  0  0
   -5.0430   19.0440  -33.6740 N   0  0  0  0  0  0  0  0  0  0  0  0
   -6.3700   19.1260  -33.4050 C   0  0  0  0  0  0  0  0  0  0  0  0
   -6.8960   20.2490  -32.7510 C   0  0  0  0  0  0  0  0  0  0  0  0
   -8.3790   20.3150  -32.4980 C   0  0  0  0  0  0  0  0  0  0  0  0
   -4.2930   23.2080  -30.0390 C   0  0  0  0  0  0  0  0  0  0  0  0
   -4.1690   21.8180  -29.4870 C   0  0  0  0  0  0  0  0  0  0  0  0
   -2.3700   24.9210  -27.6730 C   0  0  0  0  0  0  0  0  0  0  0  0
   -1.2279   24.9164  -24.7175 H   0  0  0  0  0  0  0  0  0  0  0  0
   -0.4433   26.3616  -25.4402 H   0  0  0  0  0  0  0  0  0  0  0  0
   -2.2338   26.2174  -25.4402 H   0  0  0  0  0  0  0  0  0  0  0  0
    0.8775   24.4742  -26.6871 H   0  0  0  0  0  0  0  0  0  0  0  0
    0.9879   23.4016  -28.9346 H   0  0  0  0  0  0  0  0  0  0  0  0
   -1.0424   23.2973  -30.3755 H   0  0  0  0  0  0  0  0  0  0  0  0
   -3.9570   21.9828  -32.4078 H   0  0  0  0  0  0  0  0  0  0  0  0
   -1.9637   17.9506  -33.2972 H   0  0  0  0  0  0  0  0  0  0  0  0
   -2.9935   18.0880  -34.7626 H   0  0  0  0  0  0  0  0  0  0  0  0
   -1.3349   18.7777  -34.7626 H   0  0  0  0  0  0  0  0  0  0  0  0
   -1.7072   21.1978  -32.4084 H   0  0  0  0  0  0  0  0  0  0  0  0
   -0.8874   20.7862  -33.9528 H   0  0  0  0  0  0  0  0  0  0  0  0
   -2.2952   21.9019  -33.9528 H   0  0  0  0  0  0  0  0  0  0  0  0
   -7.0387   18.3048  -33.7024 H   0  0  0  0  0  0  0  0  0  0  0  0
   -8.5660   20.3233  -31.4140 H   0  0  0  0  0  0  0  0  0  0  0  0
   -8.7872   21.2322  -32.9476 H   0  0  0  0  0  0  0  0  0  0  0  0
   -8.8671   19.4377  -32.9476 H   0  0  0  0  0  0  0  0  0  0  0  0
   -4.1726   21.8583  -28.3877 H   0  0  0  0  0  0  0  0  0  0  0  0
   -5.0163   21.2086  -29.8343 H   0  0  0  0  0  0  0  0  0  0  0  0
   -3.2272   21.3682  -29.8343 H   0  0  0  0  0  0  0  0  0  0  0  0
   -3.3104   25.3752  -27.3276 H   0  0  0  0  0  0  0  0  0  0  0  0
  1  2  1  0
  2  3  2  0
  3  4  1  0
  4  5  2  0
  5  6  1  0
  6  7  1  0
  7  8  1  0
  8  9  2  0
  9 10  1  0
 10 11  1  0
 11 12  2  0
 11 13  2  0
 11 14  1  0
 14 15  2  0
 15 16  1  0
 16 17  1  0
 17 18  1  0
 17 19  1  0
 16 20  2  0
 20 21  1  0
 21 22  2  0
 22 23  1  0
 10 24  2  0
 24 25  1  0
  6 26  2  0
 26  2  1  0
 24  7  1  0
 22 14  1  0
  1 27  1  0
  1 28  1  0
  1 29  1  0
  3 30  1  0
  4 31  1  0
  5 32  1  0
 15 33  1  0
 18 34  1  0
 18 35  1  0
 18 36  1  0
 19 37  1  0
 19 38  1  0
 19 39  1  0
 21 40  1  0
 23 41  1  0
 23 42  1  0
 23 43  1  0
 25 44  1  0
 25 45  1  0
 25 46  1  0
 26 47  1  0
M  END
>  <UniqueID>  (6) 
6

>  <SMILES>  (6) 
Cc1cccc(-n2nnc(S(=O)(=O)c3cc(N(C)C)ncc3C)c2C)c1

>  <Energy>  (6) 
90.28431279610173

>  <Genealogy>  (6) 
Cc1cccc(-n2nnc(S(=O)(=O)c3cc(N(C)C)ncc3C)c2C)c1 (3D coordinates assigned)
Cc1cccc(-n2nnc(S(=O)(=O)c3cc(N(C)C)ncc3C)c2C)c1 (optimized conformer: 90.28431279610173 kcal/mol)

>  <smiles>  (6) 
Cc1cccc(-n2nnc(S(=O)(=O)c3cc(N(C)C)ncc3C)c2C)c1

>  <score_type>  (6) 
oracle

>  <origin>  (6) 
adgpu

>  <m_score__min__energy>  (6) 
-9.1799999999999997

>  <m_primary>  (6) 
energy

$$$$
6:0
     RDKit          3D

 53 56  0  0  0  0  0  0  0  0999 V2000
   -8.7300   23.3180  -31.7700 O   0  0  0  0  0  0  0  0  0  0  0  0
   -7.5780   22.3760  -31.5360 S   0  0  0  0  0  0  0  0  0  0  0  0
   -7.9810   21.3610  -30.5060 O   0  0  0  0  0  0  0  0  0  0  0  0
   -7.1920   21.5640  -33.0210 N   0  0  0  0  0  0  0  0  0  0  0  0
   -6.8370   20.1780  -33.1250 C   0  0  0  0  0  0  0  0  0  0  0  0
   -5.5800   19.7740  -33.6130 C   0  0  0  0  0  0  0  0  0  0  0  0
   -5.2260   18.4200  -33.6220 C   0  0  0  0  0  0  0  0  0  0  0  0
   -6.1370   17.4550  -33.1650 C   0  0  0  0  0  0  0  0  0  0  0  0
   -7.4060   17.8490  -32.7220 C   0  0  0  0  0  0  0  0  0  0  0  0
   -7.7550   19.2060  -32.6980 C   0  0  0  0  0  0  0  0  0  0  0  0
   -9.0060   19.5960  -32.2260 O   0  0  0  0  0  0  0  0  0  0  0  0
   -5.6780   16.0250  -33.0650 C   0  0  0  0  0  0  0  0  0  0  0  0
   -4.8460   15.5900  -34.2910 C   0  0  0  0  0  0  0  0  0  0  0  0
   -3.9890   16.7090  -34.9370 C   0  0  0  0  0  0  0  0  0  0  0  0
   -3.8650   17.9730  -34.0750 C   0  0  0  0  0  0  0  0  0  0  0  0
   -6.1600   23.2450  -30.9490 C   0  0  0  0  0  0  0  0  0  0  0  0
   -6.1340   24.6450  -30.9250 C   0  0  0  0  0  0  0  0  0  0  0  0
   -4.9830   25.3200  -30.5100 C   0  0  0  0  0  0  0  0  0  0  0  0
   -3.8490   24.6020  -30.1180 C   0  0  0  0  0  0  0  0  0  0  0  0
   -2.7140   25.2980  -29.7140 O   0  0  0  0  0  0  0  0  0  0  0  0
   -3.8610   23.1930  -30.1470 C   0  0  0  0  0  0  0  0  0  0  0  0
   -2.4590   22.2490  -29.6260 S   0  0  0  0  0  0  0  0  0  0  0  0
   -1.2140   22.9990  -30.0140 O   0  0  0  0  0  0  0  0  0  0  0  0
   -2.4370   20.9360  -30.3600 O   0  0  0  0  0  0  0  0  0  0  0  0
   -2.4210   21.9480  -27.9020 N   0  0  0  0  0  0  0  0  0  0  0  0
   -1.1140   22.2350  -27.2790 C   0  0  0  0  0  0  0  0  0  0  0  0
   -0.1990   21.0040  -27.2420 C   0  0  0  0  0  0  0  0  0  0  0  0
   -0.8570   19.9100  -26.6450 O   0  0  0  0  0  0  0  0  0  0  0  0
   -1.9470   19.5300  -27.4580 C   0  0  0  0  0  0  0  0  0  0  0  0
   -2.9960   20.6450  -27.5230 C   0  0  0  0  0  0  0  0  0  0  0  0
   -5.0270   22.5250  -30.5540 C   0  0  0  0  0  0  0  0  0  0  0  0
   -4.8718   20.5269  -33.9895 H   0  0  0  0  0  0  0  0  0  0  0  0
   -8.1312   17.0906  -32.3918 H   0  0  0  0  0  0  0  0  0  0  0  0
   -9.2300   20.5710  -32.0660 H   0  0  0  0  0  0  0  0  0  0  0  0
   -5.0610   15.9138  -32.1612 H   0  0  0  0  0  0  0  0  0  0  0  0
   -6.5726   15.3865  -33.0214 H   0  0  0  0  0  0  0  0  0  0  0  0
   -4.1692   14.7829  -33.9741 H   0  0  0  0  0  0  0  0  0  0  0  0
   -5.5710   15.2793  -35.0577 H   0  0  0  0  0  0  0  0  0  0  0  0
   -2.9791   16.3118  -35.1167 H   0  0  0  0  0  0  0  0  0  0  0  0
   -4.4978   17.0048  -35.8663 H   0  0  0  0  0  0  0  0  0  0  0  0
   -3.2416   17.7547  -33.1954 H   0  0  0  0  0  0  0  0  0  0  0  0
   -3.4013   18.7730  -34.6708 H   0  0  0  0  0  0  0  0  0  0  0  0
   -7.0226   25.2152  -31.2338 H   0  0  0  0  0  0  0  0  0  0  0  0
   -4.9690   26.4198  -30.4916 H   0  0  0  0  0  0  0  0  0  0  0  0
   -0.6151   23.0284  -27.8549 H   0  0  0  0  0  0  0  0  0  0  0  0
   -1.2994   22.5456  -26.2402 H   0  0  0  0  0  0  0  0  0  0  0  0
    0.0869   20.7359  -28.2698 H   0  0  0  0  0  0  0  0  0  0  0  0
    0.6942   21.2459  -26.6473 H   0  0  0  0  0  0  0  0  0  0  0  0
   -1.5821   19.3193  -28.4741 H   0  0  0  0  0  0  0  0  0  0  0  0
   -2.4136   18.6336  -27.0235 H   0  0  0  0  0  0  0  0  0  0  0  0
   -3.7583   20.3676  -28.2660 H   0  0  0  0  0  0  0  0  0  0  0  0
   -3.4275   20.7532  -26.5170 H   0  0  0  0  0  0  0  0  0  0  0  0
   -5.0501   21.4253  -30.5624 H   0  0  0  0  0  0  0  0  0  0  0  0
  1  2  2  0
  2  3  2  0
  2  4  1  0
  4  5  1  0
  5  6  2  0
  6  7  1  0
  7  8  2  0
  8  9  1  0
  9 10  2  0
 10 11  1  0
  8 12  1  0
 12 13  1  0
 13 14  1  0
 14 15  1  0
  2 16  1  0
 16 17  2  0
 17 18  1  0
 18 19  2  0
 19 20  1  0
 19 21  1  0
 21 22  1  0
 22 23  2  0
 22 24  2  0
 22 25  1  0
 25 26  1  0
 26 27  1  0
 27 28  1  0
 28 29  1  0
 29 30  1  0
 21 31  2  0
 10  5  1  0
 31 16  1  0
 15  7  1  0
 30 25  1  0
  6 32  1  0
  9 33  1  0
 11 34  1  0
 12 35  1  0
 12 36  1  0
 13 37  1  0
 13 38  1  0
 14 39  1  0
 14 40  1  0
 15 41  1  0
 15 42  1  0
 17 43  1  0
 18 44  1  0
 26 45  1  0
 26 46  1  0
 27 47  1  0
 27 48  1  0
 29 49  1  0
 29 50  1  0
 30 51  1  0
 30 52  1  0
 31 53  1  0
M  CHG  2   4  -1  20  -1
M  END
>  <UniqueID>  (7) 
7

>  <SMILES>  (7) 
O=S(=O)([N-]c1cc2c(cc1O)CCCC2)c1ccc([O-])c(S(=O)(=O)N2CCOCC2)c1

>  <Energy>  (7) 
65.2931799819761

>  <Genealogy>  (7) 
O=S(=O)([N-]c1cc2c(cc1O)CCCC2)c1ccc([O-])c(S(=O)(=O)N2CCOCC2)c1 (protonated)
O=S(=O)([N-]c1cc2c(cc1O)CCCC2)c1ccc([O-])c(S(=O)(=O)N2CCOCC2)c1 (3D coordinates assigned)
O=S(=O)([N-]c1cc2c(cc1O)CCCC2)c1ccc([O-])c(S(=O)(=O)N2CCOCC2)c1 (nonaromatic ring conformer: 65.2931799819761 kcal/mol)

>  <smiles>  (7) 
O=S(=O)(Nc1cc2c(cc1O)CCCC2)c1ccc(O)c(S(=O)(=O)N2CCOCC2)c1

>  <score_type>  (7) 
oracle

>  <origin>  (7) 
adgpu

>  <m_score__min__energy>  (7) 
-12.27

>  <m_primary>  (7) 
energy

$$$$
7:0
     RDKit          3D

 59 62  0  0  0  0  0  0  0  0999 V2000
   -5.6790   25.8820  -29.7440 O   0  0  0  0  0  0  0  0  0  0  0  0
   -5.0390   24.9290  -30.2680 C   0  0  0  0  0  0  0  0  0  0  0  0
   -3.6260   25.0490  -30.4710 N   0  0  0  0  0  0  0  0  0  0  0  0
   -2.6140   24.3520  -29.7310 C   0  0  0  0  0  0  0  0  0  0  0  0
   -2.6670   22.9530  -29.6790 C   0  0  0  0  0  0  0  0  0  0  0  0
   -1.7220   22.2290  -28.9390 C   0  0  0  0  0  0  0  0  0  0  0  0
   -1.8070   20.4680  -28.8690 S   0  0  0  0  0  0  0  0  0  0  0  0
   -3.1420   20.0570  -28.3110 O   0  0  0  0  0  0  0  0  0  0  0  0
   -0.7400   19.9570  -27.9420 O   0  0  0  0  0  0  0  0  0  0  0  0
   -1.6040   19.7520  -30.4520 N   0  0  0  0  0  0  0  0  0  0  0  0
   -0.2260   19.9700  -30.9440 C   0  0  0  0  0  0  0  0  0  0  0  0
   -0.1300   19.7490  -32.4560 C   0  0  0  0  0  0  0  0  0  0  0  0
   -1.0120   20.7550  -33.2190 C   0  0  0  0  0  0  0  0  0  0  0  0
   -2.2060   21.2510  -32.3840 C   0  0  0  0  0  0  0  0  0  0  0  0
   -2.6740   20.1800  -31.3880 C   0  0  0  0  0  0  0  0  0  0  0  0
   -0.7160   22.9150  -28.2440 C   0  0  0  0  0  0  0  0  0  0  0  0
   -0.6720   24.3110  -28.2700 C   0  0  0  0  0  0  0  0  0  0  0  0
   -1.6240   25.0340  -28.9930 C   0  0  0  0  0  0  0  0  0  0  0  0
   -1.5980   26.4230  -28.9440 O   0  0  0  0  0  0  0  0  0  0  0  0
   -5.7540   23.7130  -30.7190 C   0  0  0  0  0  0  0  0  0  0  0  0
   -6.8420   23.2060  -29.9840 C   0  0  0  0  0  0  0  0  0  0  0  0
   -7.5020   22.0480  -30.4020 C   0  0  0  0  0  0  0  0  0  0  0  0
   -7.0890   21.3790  -31.5600 C   0  0  0  0  0  0  0  0  0  0  0  0
   -7.8860   19.8800  -32.0400 S   0  0  0  0  0  0  0  0  0  0  0  0
   -9.0990   19.6870  -31.1740 O   0  0  0  0  0  0  0  0  0  0  0  0
   -8.3380   19.9840  -33.4700 O   0  0  0  0  0  0  0  0  0  0  0  0
   -6.8040   18.5160  -31.8320 N   0  0  0  0  0  0  0  0  0  0  0  0
   -7.2510   17.3400  -32.6120 C   0  0  0  0  0  0  0  0  0  0  0  0
   -6.4760   17.1720  -33.9330 C   0  0  0  0  0  0  0  0  0  0  0  0
   -6.1220   18.4310  -34.4550 O   0  0  0  0  0  0  0  0  0  0  0  0
   -5.1430   19.0480  -33.6370 C   0  0  0  0  0  0  0  0  0  0  0  0
   -5.4030   18.8760  -32.1200 C   0  0  0  0  0  0  0  0  0  0  0  0
   -6.0090   21.8770  -32.2980 C   0  0  0  0  0  0  0  0  0  0  0  0
   -5.3460   23.0350  -31.8830 C   0  0  0  0  0  0  0  0  0  0  0  0
   -3.4581   22.4174  -30.2243 H   0  0  0  0  0  0  0  0  0  0  0  0
    0.0771   21.0020  -30.7134 H   0  0  0  0  0  0  0  0  0  0  0  0
    0.4372   19.2473  -30.4462 H   0  0  0  0  0  0  0  0  0  0  0  0
    0.9159   19.8758  -32.7722 H   0  0  0  0  0  0  0  0  0  0  0  0
   -0.4815   18.7319  -32.6841 H   0  0  0  0  0  0  0  0  0  0  0  0
   -0.3952   21.6213  -33.5002 H   0  0  0  0  0  0  0  0  0  0  0  0
   -1.4160   20.2392  -34.1026 H   0  0  0  0  0  0  0  0  0  0  0  0
   -1.9048   22.1507  -31.8274 H   0  0  0  0  0  0  0  0  0  0  0  0
   -3.0378   21.4764  -33.0676 H   0  0  0  0  0  0  0  0  0  0  0  0
   -3.5103   20.5881  -30.8015 H   0  0  0  0  0  0  0  0  0  0  0  0
   -2.9742   19.2968  -31.9710 H   0  0  0  0  0  0  0  0  0  0  0  0
    0.0404   22.3526  -27.6769 H   0  0  0  0  0  0  0  0  0  0  0  0
    0.1164   24.8438  -27.7183 H   0  0  0  0  0  0  0  0  0  0  0  0
   -7.1751   23.7256  -29.0735 H   0  0  0  0  0  0  0  0  0  0  0  0
   -8.3500   21.6602  -29.8185 H   0  0  0  0  0  0  0  0  0  0  0  0
   -7.1052   16.4368  -32.0013 H   0  0  0  0  0  0  0  0  0  0  0  0
   -8.3103   17.4933  -32.8659 H   0  0  0  0  0  0  0  0  0  0  0  0
   -5.5634   16.5868  -33.7465 H   0  0  0  0  0  0  0  0  0  0  0  0
   -7.1161   16.6503  -34.6597 H   0  0  0  0  0  0  0  0  0  0  0  0
   -4.1637   18.6066  -33.8740 H   0  0  0  0  0  0  0  0  0  0  0  0
   -5.1789   20.1267  -33.8497 H   0  0  0  0  0  0  0  0  0  0  0  0
   -4.7469   18.0809  -31.7361 H   0  0  0  0  0  0  0  0  0  0  0  0
   -5.1943   19.8387  -31.6304 H   0  0  0  0  0  0  0  0  0  0  0  0
   -5.6807   21.3546  -33.2086 H   0  0  0  0  0  0  0  0  0  0  0  0
   -4.4991   23.4195  -32.4703 H   0  0  0  0  0  0  0  0  0  0  0  0
  1  2  2  0
  2  3  1  0
  3  4  1  0
  4  5  2  0
  5  6  1  0
  6  7  1  0
  7  8  2  0
  7  9  2  0
  7 10  1  0
 10 11  1  0
 11 12  1  0
 12 13  1  0
 13 14  1  0
 14 15  1  0
  6 16  2  0
 16 17  1  0
 17 18  2  0
 18 19  1  0
  2 20  1  0
 20 21  2  0
 21 22  1  0
 22 23  2  0
 23 24  1  0
 24 25  2  0
 24 26  2  0
 24 27  1  0
 27 28  1  0
 28 29  1  0
 29 30  1  0
 30 31  1  0
 31 32  1  0
 23 33  1  0
 33 34  2  0
 18  4  1  0
 34 20  1  0
 15 10  1  0
 32 27  1  0
  5 35  1  0
 11 36  1  0
 11 37  1  0
 12 38  1  0
 12 39  1  0
 13 40  1  0
 13 41  1  0
 14 42  1  0
 14 43  1  0
 15 44  1  0
 15 45  1  0
 16 46  1  0
 17 47  1  0
 21 48  1  0
 22 49  1  0
 28 50  1  0
 28 51  1  0
 29 52  1  0
 29 53  1  0
 31 54  1  0
 31 55  1  0
 32 56  1  0
 32 57  1  0
 33 58  1  0
 34 59  1  0
M  CHG  2   3  -1  19  -1
M  END
>  <UniqueID>  (8) 
8

>  <SMILES>  (8) 
O=C([N-]c1cc(S(=O)(=O)N2CCCCC2)ccc1[O-])c1ccc(S(=O)(=O)N2CCOCC2)cc1

>  <Energy>  (8) 
83.01092302756065

>  <Genealogy>  (8) 
O=C([N-]c1cc(S(=O)(=O)N2CCCCC2)ccc1[O-])c1ccc(S(=O)(=O)N2CCOCC2)cc1 (protonated)
O=C([N-]c1cc(S(=O)(=O)N2CCCCC2)ccc1[O-])c1ccc(S(=O)(=O)N2CCOCC2)cc1 (3D coordinates assigned)
O=C([N-]c1cc(S(=O)(=O)N2CCCCC2)ccc1[O-])c1ccc(S(=O)(=O)N2CCOCC2)cc1 (nonaromatic ring conformer: 83.01092302756065 kcal/mol)

>  <smiles>  (8) 
O=C(Nc1cc(S(=O)(=O)N2CCCCC2)ccc1O)c1ccc(S(=O)(=O)N2CCOCC2)cc1

>  <score_type>  (8) 
oracle

>  <origin>  (8) 
adgpu

>  <m_score__min__energy>  (8) 
-15.449999999999999

>  <m_primary>  (8) 
energy

$$$$
8:0
     RDKit          3D

 56 59  0  0  0  0  0  0  0  0999 V2000
   -4.3920   20.4240  -32.9370 O   0  0  0  0  0  0  0  0  0  0  0  0
   -5.6540   20.4730  -32.9150 C   0  0  0  0  0  0  0  0  0  0  0  0
   -6.4200   19.4420  -33.5600 N   0  0  0  0  0  0  0  0  0  0  0  0
   -5.8930   18.1430  -33.8830 C   0  0  0  0  0  0  0  0  0  0  0  0
   -4.6780   18.0450  -34.5750 C   0  0  0  0  0  0  0  0  0  0  0  0
   -4.1480   16.7930  -34.9020 C   0  0  0  0  0  0  0  0  0  0  0  0
   -4.8320   15.6230  -34.5470 C   0  0  0  0  0  0  0  0  0  0  0  0
   -4.1420   14.0400  -34.9190 S   0  0  0  0  0  0  0  0  0  0  0  0
   -2.9240   14.2200  -35.7840 O   0  0  0  0  0  0  0  0  0  0  0  0
   -5.1470   13.2310  -35.6920 O   0  0  0  0  0  0  0  0  0  0  0  0
   -3.7010   13.1740  -33.4640 N   0  0  0  0  0  0  0  0  0  0  0  0
   -3.7210   14.0790  -32.2980 C   0  0  0  0  0  0  0  0  0  0  0  0
   -3.8480   13.2750  -30.9930 C   0  0  0  0  0  0  0  0  0  0  0  0
   -5.0370   12.4970  -30.9070 O   0  0  0  0  0  0  0  0  0  0  0  0
   -5.5890   12.1530  -32.1720 C   0  0  0  0  0  0  0  0  0  0  0  0
   -4.5300   11.9630  -33.2730 C   0  0  0  0  0  0  0  0  0  0  0  0
   -6.0670   15.7180  -33.8890 C   0  0  0  0  0  0  0  0  0  0  0  0
   -6.5960   16.9680  -33.5620 C   0  0  0  0  0  0  0  0  0  0  0  0
   -6.3260   21.6320  -32.2820 C   0  0  0  0  0  0  0  0  0  0  0  0
   -7.7290   21.7150  -32.2640 C   0  0  0  0  0  0  0  0  0  0  0  0
   -8.3660   22.7870  -31.6320 C   0  0  0  0  0  0  0  0  0  0  0  0
   -7.6120   23.7840  -31.0100 C   0  0  0  0  0  0  0  0  0  0  0  0
   -6.2140   23.7260  -31.0350 C   0  0  0  0  0  0  0  0  0  0  0  0
   -5.2460   24.9550  -30.2230 S   0  0  0  0  0  0  0  0  0  0  0  0
   -6.1400   26.0700  -29.7570 O   0  0  0  0  0  0  0  0  0  0  0  0
   -4.2440   25.5150  -31.1940 O   0  0  0  0  0  0  0  0  0  0  0  0
   -4.4120   24.3000  -28.8490 N   0  0  0  0  0  0  0  0  0  0  0  0
   -3.1850   23.5700  -28.9660 C   0  0  0  0  0  0  0  0  0  0  0  0
   -3.1690   22.1720  -28.8180 C   0  0  0  0  0  0  0  0  0  0  0  0
   -1.9660   21.4650  -28.9520 C   0  0  0  0  0  0  0  0  0  0  0  0
   -0.7740   22.1540  -29.2130 C   0  0  0  0  0  0  0  0  0  0  0  0
   -0.7800   23.5520  -29.3290 C   0  0  0  0  0  0  0  0  0  0  0  0
   -1.9830   24.2610  -29.2030 C   0  0  0  0  0  0  0  0  0  0  0  0
   -1.9820   25.6500  -29.3250 O   0  0  0  0  0  0  0  0  0  0  0  0
   -5.5750   22.6620  -31.6880 C   0  0  0  0  0  0  0  0  0  0  0  0
   -7.3650   19.6890  -33.9330 H   0  0  0  0  0  0  0  0  0  0  0  0
   -4.1378   18.9590  -34.8627 H   0  0  0  0  0  0  0  0  0  0  0  0
   -3.1907   16.7265  -35.4398 H   0  0  0  0  0  0  0  0  0  0  0  0
   -2.7876   14.6605  -32.2753 H   0  0  0  0  0  0  0  0  0  0  0  0
   -4.5861   14.7528  -32.3859 H   0  0  0  0  0  0  0  0  0  0  0  0
   -2.9848   12.5973  -30.9186 H   0  0  0  0  0  0  0  0  0  0  0  0
   -3.8846   14.0051  -30.1710 H   0  0  0  0  0  0  0  0  0  0  0  0
   -6.1504   11.2133  -32.0630 H   0  0  0  0  0  0  0  0  0  0  0  0
   -6.2321   12.9896  -32.4826 H   0  0  0  0  0  0  0  0  0  0  0  0
   -3.8745   11.1250  -32.9936 H   0  0  0  0  0  0  0  0  0  0  0  0
   -5.0563   11.7608  -34.2175 H   0  0  0  0  0  0  0  0  0  0  0  0
   -6.6211   14.8039  -33.6295 H   0  0  0  0  0  0  0  0  0  0  0  0
   -7.5677   17.0342  -33.0506 H   0  0  0  0  0  0  0  0  0  0  0  0
   -8.3293   20.9318  -32.7501 H   0  0  0  0  0  0  0  0  0  0  0  0
   -9.4644   22.8452  -31.6247 H   0  0  0  0  0  0  0  0  0  0  0  0
   -8.1178   24.6167  -30.4993 H   0  0  0  0  0  0  0  0  0  0  0  0
   -4.1016   21.6323  -28.5968 H   0  0  0  0  0  0  0  0  0  0  0  0
   -1.9577   20.3696  -28.8523 H   0  0  0  0  0  0  0  0  0  0  0  0
    0.1680   21.5976  -29.3271 H   0  0  0  0  0  0  0  0  0  0  0  0
    0.1593   24.0921  -29.5189 H   0  0  0  0  0  0  0  0  0  0  0  0
   -4.4764   22.6328  -31.7360 H   0  0  0  0  0  0  0  0  0  0  0  0
  1  2  2  0
  2  3  1  0
  3  4  1  0
  4  5  2  0
  5  6  1  0
  6  7  2  0
  7  8  1  0
  8  9  2  0
  8 10  2  0
  8 11  1  0
 11 12  1  0
 12 13  1  0
 13 14  1  0
 14 15  1  0
 15 16  1  0
  7 17  1  0
 17 18  2  0
  2 19  1  0
 19 20  2  0
 20 21  1  0
 21 22  2  0
 22 23  1  0
 23 24  1  0
 24 25  2  0
 24 26  2  0
 24 27  1  0
 27 28  1  0
 28 29  2  0
 29 30  1  0
 30 31  2  0
 31 32  1  0
 32 33  2  0
 33 34  1  0
 23 35  2  0
 18  4  1  0
 35 19  1  0
 16 11  1  0
 33 28  1  0
  3 36  1  0
  5 37  1  0
  6 38  1  0
 12 39  1  0
 12 40  1  0
 13 41  1  0
 13 42  1  0
 15 43  1  0
 15 44  1  0
 16 45  1  0
 16 46  1  0
 17 47  1  0
 18 48  1  0
 20 49  1  0
 21 50  1  0
 22 51  1  0
 29 52  1  0
 30 53  1  0
 31 54  1  0
 32 55  1  0
 35 56  1  0
M  CHG  2  27  -1  34  -1
M  END
>  <UniqueID>  (9) 
9

>  <SMILES>  (9) 
O=C(Nc1ccc(S(=O)(=O)N2CCOCC2)cc1)c1cccc(S(=O)(=O)[N-]c2ccccc2[O-])c1

>  <Energy>  (9) 
85.02082086822142

>  <Genealogy>  (9) 
O=C(Nc1ccc(S(=O)(=O)N2CCOCC2)cc1)c1cccc(S(=O)(=O)[N-]c2ccccc2[O-])c1 (protonated)
O=C(Nc1ccc(S(=O)(=O)N2CCOCC2)cc1)c1cccc(S(=O)(=O)[N-]c2ccccc2[O-])c1 (3D coordinates assigned)
O=C(Nc1ccc(S(=O)(=O)N2CCOCC2)cc1)c1cccc(S(=O)(=O)[N-]c2ccccc2[O-])c1 (nonaromatic ring conformer: 85.02082086822142 kcal/mol)

>  <smiles>  (9) 
O=C(Nc1ccc(S(=O)(=O)N2CCOCC2)cc1)c1cccc(S(=O)(=O)Nc2ccccc2O)c1

>  <score_type>  (9) 
oracle

>  <origin>  (9) 
adgpu

>  <m_score__min__energy>  (9) 
-14.789999999999999

>  <m_primary>  (9) 
energy

$$$$
9:0
     RDKit          3D

 42 44  0  0  0  0  0  0  0  0999 V2000
   -2.1800   23.1060  -29.8490 O   0  0  0  0  0  0  0  0  0  0  0  0
   -3.0680   22.4370  -30.4410 C   0  0  0  0  0  0  0  0  0  0  0  0
   -2.7490   21.1120  -30.8910 N   0  0  0  0  0  0  0  0  0  0  0  0
   -2.1300   20.7850  -32.1430 C   0  0  0  0  0  0  0  0  0  0  0  0
   -2.6000   19.7280  -32.9410 C   0  0  0  0  0  0  0  0  0  0  0  0
   -1.9630   19.4180  -34.1440 C   0  0  0  0  0  0  0  0  0  0  0  0
   -0.8500   20.1560  -34.5620 C   0  0  0  0  0  0  0  0  0  0  0  0
   -0.2300   19.8390  -35.7660 O   0  0  0  0  0  0  0  0  0  0  0  0
   -0.3670   21.2060  -33.7640 C   0  0  0  0  0  0  0  0  0  0  0  0
    0.7410   21.9580  -34.1550 O   0  0  0  0  0  0  0  0  0  0  0  0
   -1.0020   21.5070  -32.5530 C   0  0  0  0  0  0  0  0  0  0  0  0
   -4.3880   23.0530  -30.7210 C   0  0  0  0  0  0  0  0  0  0  0  0
   -5.4940   22.2320  -30.9980 C   0  0  0  0  0  0  0  0  0  0  0  0
   -6.7510   22.7910  -31.2610 C   0  0  0  0  0  0  0  0  0  0  0  0
   -8.1310   21.7440  -31.6090 S   0  0  0  0  0  0  0  0  0  0  0  0
   -8.7620   21.3110  -30.3140 O   0  0  0  0  0  0  0  0  0  0  0  0
   -9.1560   22.5200  -32.3870 O   0  0  0  0  0  0  0  0  0  0  0  0
   -7.6640   20.3320  -32.5250 N   0  0  0  0  0  0  0  0  0  0  0  0
   -6.4470   20.6050  -33.3090 C   0  0  0  0  0  0  0  0  0  0  0  0
   -5.8960   19.3030  -33.9280 C   0  0  0  0  0  0  0  0  0  0  0  0
   -6.8400   18.2550  -33.8310 O   0  0  0  0  0  0  0  0  0  0  0  0
   -7.0730   17.9400  -32.4670 C   0  0  0  0  0  0  0  0  0  0  0  0
   -7.4430   19.1870  -31.6330 C   0  0  0  0  0  0  0  0  0  0  0  0
   -6.9050   24.1830  -31.2540 C   0  0  0  0  0  0  0  0  0  0  0  0
   -5.8090   25.0080  -30.9910 C   0  0  0  0  0  0  0  0  0  0  0  0
   -4.5530   24.4520  -30.7290 C   0  0  0  0  0  0  0  0  0  0  0  0
   -3.4820   25.2980  -30.4640 O   0  0  0  0  0  0  0  0  0  0  0  0
   -3.4730   19.1427  -32.6166 H   0  0  0  0  0  0  0  0  0  0  0  0
   -2.3372   18.5910  -34.7653 H   0  0  0  0  0  0  0  0  0  0  0  0
    1.2500   21.7630  -35.0090 H   0  0  0  0  0  0  0  0  0  0  0  0
   -0.6120   22.3167  -31.9187 H   0  0  0  0  0  0  0  0  0  0  0  0
   -5.3714   21.1389  -31.0084 H   0  0  0  0  0  0  0  0  0  0  0  0
   -6.6874   21.3146  -34.1144 H   0  0  0  0  0  0  0  0  0  0  0  0
   -5.6835   21.0312  -32.6416 H   0  0  0  0  0  0  0  0  0  0  0  0
   -5.6629   19.4797  -34.9884 H   0  0  0  0  0  0  0  0  0  0  0  0
   -4.9901   19.0099  -33.3771 H   0  0  0  0  0  0  0  0  0  0  0  0
   -7.8992   17.2163  -32.4071 H   0  0  0  0  0  0  0  0  0  0  0  0
   -6.1429   17.5224  -32.0541 H   0  0  0  0  0  0  0  0  0  0  0  0
   -8.3615   18.9857  -31.0623 H   0  0  0  0  0  0  0  0  0  0  0  0
   -6.6206   19.4187  -30.9402 H   0  0  0  0  0  0  0  0  0  0  0  0
   -7.8908   24.6274  -31.4560 H   0  0  0  0  0  0  0  0  0  0  0  0
   -5.9346   26.1008  -30.9900 H   0  0  0  0  0  0  0  0  0  0  0  0
  1  2  2  0
  2  3  1  0
  3  4  1  0
  4  5  2  0
  5  6  1  0
  6  7  2  0
  7  8  1  0
  7  9  1  0
  9 10  1  0
  9 11  2  0
  2 12  1  0
 12 13  2  0
 13 14  1  0
 14 15  1  0
 15 16  2  0
 15 17  2  0
 15 18  1  0
 18 19  1  0
 19 20  1  0
 20 21  1  0
 21 22  1  0
 22 23  1  0
 14 24  2  0
 24 25  1  0
 25 26  2  0
 26 27  1  0
 11  4  1  0
 26 12  1  0
 23 18  1  0
  5 28  1  0
  6 29  1  0
 10 30  1  0
 11 31  1  0
 13 32  1  0
 19 33  1  0
 19 34  1  0
 20 35  1  0
 20 36  1  0
 22 37  1  0
 22 38  1  0
 23 39  1  0
 23 40  1  0
 24 41  1  0
 25 42  1  0
M  CHG  3   3  -1   8  -1  27  -1
M  END
>  <UniqueID>  (10) 
10

>  <SMILES>  (10) 
O=C([N-]c1ccc([O-])c(O)c1)c1cc(S(=O)(=O)N2CCOCC2)ccc1[O-]

>  <Energy>  (10) 
55.763852297075715

>  <Genealogy>  (10) 
O=C([N-]c1ccc([O-])c(O)c1)c1cc(S(=O)(=O)N2CCOCC2)ccc1[O-] (protonated)
O=C([N-]c1ccc([O-])c(O)c1)c1cc(S(=O)(=O)N2CCOCC2)ccc1[O-] (3D coordinates assigned)
O=C([N-]c1ccc([O-])c(O)c1)c1cc(S(=O)(=O)N2CCOCC2)ccc1[O-] (nonaromatic ring conformer: 55.763852297075715 kcal/mol)

>  <smiles>  (10) 
O=C(Nc1ccc(O)c(O)c1)c1cc(S(=O)(=O)N2CCOCC2)ccc1O

>  <score_type>  (10) 
oracle

>  <origin>  (10) 
adgpu

>  <m_score__min__energy>  (10) 
-11.83

>  <m_primary>  (10) 
energy

$$$$
10:0
     RDKit          3D

 35 37  0  0  0  0  0  0  0  0999 V2000
   -1.9040   21.3940  -31.1700 C   0  0  0  0  0  0  0  0  0  0  0  0
   -3.2040   21.3040  -31.9200 C   0  0  0  0  0  0  0  0  0  0  0  0
   -4.4190   21.8620  -31.5440 C   0  0  0  0  0  0  0  0  0  0  0  0
   -4.7370   22.7250  -30.3880 C   0  0  0  0  0  0  0  0  0  0  0  0
   -5.9420   23.0240  -30.1690 O   0  0  0  0  0  0  0  0  0  0  0  0
   -3.6960   23.2390  -29.4750 C   0  0  0  0  0  0  0  0  0  0  0  0
   -3.2530   22.4350  -28.4130 C   0  0  0  0  0  0  0  0  0  0  0  0
   -2.2720   22.9020  -27.5340 C   0  0  0  0  0  0  0  0  0  0  0  0
   -1.7120   24.1730  -27.7110 C   0  0  0  0  0  0  0  0  0  0  0  0
   -0.7380   24.6450  -26.8350 O   0  0  0  0  0  0  0  0  0  0  0  0
   -2.1310   24.9730  -28.7820 C   0  0  0  0  0  0  0  0  0  0  0  0
   -1.5670   26.2310  -28.9690 O   0  0  0  0  0  0  0  0  0  0  0  0
   -3.1120   24.5080  -29.6690 C   0  0  0  0  0  0  0  0  0  0  0  0
   -3.4870   25.3040  -30.7470 O   0  0  0  0  0  0  0  0  0  0  0  0
   -5.3170   21.4430  -32.5070 C   0  0  0  0  0  0  0  0  0  0  0  0
   -4.6880   20.6460  -33.3900 N   0  0  0  0  0  0  0  0  0  0  0  0
   -3.4140   20.5680  -33.0350 N   0  0  0  0  0  0  0  0  0  0  0  0
   -2.4590   19.7790  -33.7570 C   0  0  0  0  0  0  0  0  0  0  0  0
   -1.2930   20.3790  -34.2570 C   0  0  0  0  0  0  0  0  0  0  0  0
   -0.3430   19.6110  -34.9370 C   0  0  0  0  0  0  0  0  0  0  0  0
   -0.5430   18.2370  -35.1070 C   0  0  0  0  0  0  0  0  0  0  0  0
    0.7570   17.1890  -36.0330 Br  0  0  0  0  0  0  0  0  0  0  0  0
   -1.6920   17.6290  -34.5880 C   0  0  0  0  0  0  0  0  0  0  0  0
   -2.6430   18.3960  -33.9090 C   0  0  0  0  0  0  0  0  0  0  0  0
   -2.1031   21.3802  -30.0882 H   0  0  0  0  0  0  0  0  0  0  0  0
   -1.2669   20.5378  -31.4365 H   0  0  0  0  0  0  0  0  0  0  0  0
   -1.3909   22.3298  -31.4365 H   0  0  0  0  0  0  0  0  0  0  0  0
   -3.6806   21.4314  -28.2718 H   0  0  0  0  0  0  0  0  0  0  0  0
   -1.9383   22.2681  -26.6992 H   0  0  0  0  0  0  0  0  0  0  0  0
   -0.3500   25.5770  -26.9260 H   0  0  0  0  0  0  0  0  0  0  0  0
   -6.3813   21.7184  -32.5458 H   0  0  0  0  0  0  0  0  0  0  0  0
   -1.1260   21.4567  -34.1135 H   0  0  0  0  0  0  0  0  0  0  0  0
    0.5631   20.0879  -35.3389 H   0  0  0  0  0  0  0  0  0  0  0  0
   -1.8466   16.5473  -34.7145 H   0  0  0  0  0  0  0  0  0  0  0  0
   -3.5394   17.9136  -33.4920 H   0  0  0  0  0  0  0  0  0  0  0  0
  1  2  1  0
  2  3  2  0
  3  4  1  0
  4  5  2  0
  4  6  1  0
  6  7  2  0
  7  8  1  0
  8  9  2  0
  9 10  1  0
  9 11  1  0
 11 12  1  0
 11 13  2  0
 13 14  1  0
  3 15  1  0
 15 16  2  0
 16 17  1  0
 17 18  1  0
 18 19  2  0
 19 20  1  0
 20 21  2  0
 21 22  1  0
 21 23  1  0
 23 24  2  0
 17  2  1  0
 24 18  1  0
 13  6  1  0
  1 25  1  0
  1 26  1  0
  1 27  1  0
  7 28  1  0
  8 29  1  0
 10 30  1  0
 15 31  1  0
 19 32  1  0
 20 33  1  0
 23 34  1  0
 24 35  1  0
M  CHG  2  12  -1  14  -1
M  END
>  <UniqueID>  (11) 
11

>  <SMILES>  (11) 
Cc1c(C(=O)c2ccc(O)c([O-])c2[O-])cnn1-c1ccc(Br)cc1

>  <Energy>  (11) 
81.58131150122531

>  <Genealogy>  (11) 
Cc1c(C(=O)c2ccc(O)c([O-])c2[O-])cnn1-c1ccc(Br)cc1 (protonated)
Cc1c(C(=O)c2ccc(O)c([O-])c2[O-])cnn1-c1ccc(Br)cc1 (3D coordinates assigned)
Cc1c(C(=O)c2ccc(O)c([O-])c2[O-])cnn1-c1ccc(Br)cc1 (optimized conformer: 81.58131150122531 kcal/mol)

>  <smiles>  (11) 
Cc1c(C(=O)c2ccc(O)c(O)c2O)cnn1-c1ccc(Br)cc1

>  <score_type>  (11) 
oracle

>  <origin>  (11) 
adgpu

>  <m_score__min__energy>  (11) 
-14.57

>  <m_primary>  (11) 
energy

$$$$
11:0
     RDKit          3D

 41 43  0  0  0  0  0  0  0  0999 V2000
    1.4470   19.9720  -27.6580 O   0  0  0  0  0  0  0  0  0  0  0  0
    0.2950   20.3870  -27.9670 C   0  0  0  0  0  0  0  0  0  0  0  0
   -0.5550   20.9410  -26.9550 N   0  0  0  0  0  0  0  0  0  0  0  0
   -0.5650   22.3530  -26.5900 C   0  0  0  0  0  0  0  0  0  0  0  0
   -1.3550   23.1460  -27.5940 C   0  0  0  0  0  0  0  0  0  0  0  0
   -2.5110   22.5940  -28.1700 C   0  0  0  0  0  0  0  0  0  0  0  0
   -3.2390   23.3170  -29.1190 C   0  0  0  0  0  0  0  0  0  0  0  0
   -2.8180   24.5930  -29.5050 C   0  0  0  0  0  0  0  0  0  0  0  0
   -3.5460   25.3070  -30.4490 O   0  0  0  0  0  0  0  0  0  0  0  0
   -1.6630   25.1480  -28.9380 C   0  0  0  0  0  0  0  0  0  0  0  0
   -1.2390   26.4150  -29.3190 O   0  0  0  0  0  0  0  0  0  0  0  0
   -0.9330   24.4270  -27.9880 C   0  0  0  0  0  0  0  0  0  0  0  0
   -0.1760   20.2970  -29.3680 C   0  0  0  0  0  0  0  0  0  0  0  0
   -0.4210   19.0440  -29.9590 C   0  0  0  0  0  0  0  0  0  0  0  0
   -0.8720   18.9570  -31.2800 C   0  0  0  0  0  0  0  0  0  0  0  0
   -1.0830   20.1210  -32.0300 C   0  0  0  0  0  0  0  0  0  0  0  0
   -1.6760   20.0290  -33.6840 S   0  0  0  0  0  0  0  0  0  0  0  0
   -1.2790   21.2730  -34.4290 O   0  0  0  0  0  0  0  0  0  0  0  0
   -1.0760   18.8450  -34.3920 O   0  0  0  0  0  0  0  0  0  0  0  0
   -3.4270   19.8670  -33.6560 C   0  0  0  0  0  0  0  0  0  0  0  0
   -4.2150   20.8840  -33.0990 C   0  0  0  0  0  0  0  0  0  0  0  0
   -5.6090   20.7720  -33.0970 C   0  0  0  0  0  0  0  0  0  0  0  0
   -6.2220   19.6450  -33.6560 C   0  0  0  0  0  0  0  0  0  0  0  0
   -5.4410   18.6320  -34.2190 C   0  0  0  0  0  0  0  0  0  0  0  0
   -4.0460   18.7420  -34.2220 C   0  0  0  0  0  0  0  0  0  0  0  0
   -0.8470   21.3710  -31.4470 C   0  0  0  0  0  0  0  0  0  0  0  0
   -0.3960   21.4610  -30.1270 C   0  0  0  0  0  0  0  0  0  0  0  0
   -1.0223   22.4677  -25.5962 H   0  0  0  0  0  0  0  0  0  0  0  0
    0.4698   22.7257  -26.5740 H   0  0  0  0  0  0  0  0  0  0  0  0
   -2.8446   21.5888  -27.8730 H   0  0  0  0  0  0  0  0  0  0  0  0
   -4.1458   22.8808  -29.5634 H   0  0  0  0  0  0  0  0  0  0  0  0
   -0.0249   24.8643  -27.5474 H   0  0  0  0  0  0  0  0  0  0  0  0
   -0.2565   18.1251  -29.3772 H   0  0  0  0  0  0  0  0  0  0  0  0
   -1.0615   17.9719  -31.7312 H   0  0  0  0  0  0  0  0  0  0  0  0
   -3.7355   21.7725  -32.6623 H   0  0  0  0  0  0  0  0  0  0  0  0
   -6.2240   21.5702  -32.6558 H   0  0  0  0  0  0  0  0  0  0  0  0
   -7.3184   19.5565  -33.6523 H   0  0  0  0  0  0  0  0  0  0  0  0
   -5.9233   17.7473  -34.6602 H   0  0  0  0  0  0  0  0  0  0  0  0
   -3.4335   17.9451  -34.6689 H   0  0  0  0  0  0  0  0  0  0  0  0
   -1.0173   22.2877  -32.0306 H   0  0  0  0  0  0  0  0  0  0  0  0
   -0.2119   22.4485  -29.6787 H   0  0  0  0  0  0  0  0  0  0  0  0
  1  2  2  0
  2  3  1  0
  3  4  1  0
  4  5  1  0
  5  6  2  0
  6  7  1  0
  7  8  2  0
  8  9  1  0
  8 10  1  0
 10 11  1  0
 10 12  2  0
  2 13  1  0
 13 14  2  0
 14 15  1  0
 15 16  2  0
 16 17  1  0
 17 18  2  0
 17 19  2  0
 17 20  1  0
 20 21  2  0
 21 22  1  0
 22 23  2  0
 23 24  1  0
 24 25  2  0
 16 26  1  0
 26 27  2  0
 12  5  1  0
 27 13  1  0
 25 20  1  0
  4 28  1  0
  4 29  1  0
  6 30  1  0
  7 31  1  0
 12 32  1  0
 14 33  1  0
 15 34  1  0
 21 35  1  0
 22 36  1  0
 23 37  1  0
 24 38  1  0
 25 39  1  0
 26 40  1  0
 27 41  1  0
M  CHG  3   3  -1   9  -1  11  -1
M  END
>  <UniqueID>  (12) 
12

>  <SMILES>  (12) 
O=C([N-]Cc1ccc([O-])c([O-])c1)c1ccc(S(=O)(=O)c2ccccc2)cc1

>  <Energy>  (12) 
44.71521275099487

>  <Genealogy>  (12) 
O=C([N-]Cc1ccc([O-])c([O-])c1)c1ccc(S(=O)(=O)c2ccccc2)cc1 (protonated)
O=C([N-]Cc1ccc([O-])c([O-])c1)c1ccc(S(=O)(=O)c2ccccc2)cc1 (3D coordinates assigned)
O=C([N-]Cc1ccc([O-])c([O-])c1)c1ccc(S(=O)(=O)c2ccccc2)cc1 (optimized conformer: 44.71521275099487 kcal/mol)

>  <smiles>  (12) 
O=C(NCc1ccc(O)c(O)c1)c1ccc(S(=O)(=O)c2ccccc2)cc1

>  <score_type>  (12) 
oracle

>  <origin>  (12) 
adgpu

>  <m_score__min__energy>  (12) 
-14.24

>  <m_primary>  (12) 
energy

$$$$
12:0
     RDKit          3D

 59 62  0  0  0  0  0  0  0  0999 V2000
   -1.9390   25.6620  -28.9630 O   0  0  0  0  0  0  0  0  0  0  0  0
   -2.6230   24.6160  -29.1190 C   0  0  0  0  0  0  0  0  0  0  0  0
   -2.1180   23.3860  -28.5820 N   0  0  0  0  0  0  0  0  0  0  0  0
   -1.6820   22.2470  -29.3380 C   0  0  0  0  0  0  0  0  0  0  0  0
   -1.7800   20.9410  -28.8270 C   0  0  0  0  0  0  0  0  0  0  0  0
   -1.3170   19.8550  -29.5760 C   0  0  0  0  0  0  0  0  0  0  0  0
   -0.7250   20.0630  -30.8290 C   0  0  0  0  0  0  0  0  0  0  0  0
   -0.1300   18.6920  -31.7700 S   0  0  0  0  0  0  0  0  0  0  0  0
    1.2870   18.9620  -32.1910 O   0  0  0  0  0  0  0  0  0  0  0  0
   -0.1280   17.4650  -30.9020 O   0  0  0  0  0  0  0  0  0  0  0  0
   -1.1090   18.3910  -33.1910 N   0  0  0  0  0  0  0  0  0  0  0  0
   -2.4630   18.9310  -33.0270 C   0  0  0  0  0  0  0  0  0  0  0  0
   -2.5250   20.2860  -33.7150 C   0  0  0  0  0  0  0  0  0  0  0  0
   -1.2840   20.3670  -34.5820 C   0  0  0  0  0  0  0  0  0  0  0  0
   -0.5460   19.0530  -34.3730 C   0  0  0  0  0  0  0  0  0  0  0  0
   -0.6060   21.3660  -31.3290 C   0  0  0  0  0  0  0  0  0  0  0  0
   -1.0740   22.4520  -30.5820 C   0  0  0  0  0  0  0  0  0  0  0  0
   -3.8950   24.6700  -29.8790 C   0  0  0  0  0  0  0  0  0  0  0  0
   -4.8860   25.2820  -29.4000 O   0  0  0  0  0  0  0  0  0  0  0  0
   -4.0200   24.0780  -31.1790 N   0  0  0  0  0  0  0  0  0  0  0  0
   -4.7990   22.9200  -31.5050 C   0  0  0  0  0  0  0  0  0  0  0  0
   -6.0960   23.0910  -32.0010 C   0  0  0  0  0  0  0  0  0  0  0  0
   -6.8870   21.9800  -32.3090 C   0  0  0  0  0  0  0  0  0  0  0  0
   -6.3930   20.6840  -32.1050 C   0  0  0  0  0  0  0  0  0  0  0  0
   -7.3880   19.2800  -32.4830 S   0  0  0  0  0  0  0  0  0  0  0  0
   -8.0360   18.7680  -31.2260 O   0  0  0  0  0  0  0  0  0  0  0  0
   -8.4690   19.6970  -33.4400 O   0  0  0  0  0  0  0  0  0  0  0  0
   -6.4090   18.0320  -33.2120 N   0  0  0  0  0  0  0  0  0  0  0  0
   -7.2390   16.8560  -33.5180 C   0  0  0  0  0  0  0  0  0  0  0  0
   -6.3930   15.7700  -34.2190 C   0  0  0  0  0  0  0  0  0  0  0  0
   -5.0770   16.2130  -34.4960 O   0  0  0  0  0  0  0  0  0  0  0  0
   -5.1270   17.4090  -35.2480 C   0  0  0  0  0  0  0  0  0  0  0  0
   -5.7840   18.5480  -34.4430 C   0  0  0  0  0  0  0  0  0  0  0  0
   -5.1080   20.5100  -31.5740 C   0  0  0  0  0  0  0  0  0  0  0  0
   -4.3150   21.6210  -31.2710 C   0  0  0  0  0  0  0  0  0  0  0  0
   -2.2226   20.7729  -27.8341 H   0  0  0  0  0  0  0  0  0  0  0  0
   -1.4178   18.8336  -29.1803 H   0  0  0  0  0  0  0  0  0  0  0  0
   -3.1936   18.2479  -33.4849 H   0  0  0  0  0  0  0  0  0  0  0  0
   -2.7008   19.0381  -31.9584 H   0  0  0  0  0  0  0  0  0  0  0  0
   -3.4307   20.3596  -34.3349 H   0  0  0  0  0  0  0  0  0  0  0  0
   -2.5634   21.1086  -32.9857 H   0  0  0  0  0  0  0  0  0  0  0  0
   -1.5626   20.4859  -35.6395 H   0  0  0  0  0  0  0  0  0  0  0  0
   -0.6577   21.2304  -34.3130 H   0  0  0  0  0  0  0  0  0  0  0  0
   -0.6745   18.4098  -35.2560 H   0  0  0  0  0  0  0  0  0  0  0  0
    0.5279   19.2408  -34.2265 H   0  0  0  0  0  0  0  0  0  0  0  0
   -0.1430   21.5358  -32.3123 H   0  0  0  0  0  0  0  0  0  0  0  0
   -0.9635   23.4736  -30.9746 H   0  0  0  0  0  0  0  0  0  0  0  0
   -6.4956   24.1050  -32.1495 H   0  0  0  0  0  0  0  0  0  0  0  0
   -7.9002   22.1233  -32.7127 H   0  0  0  0  0  0  0  0  0  0  0  0
   -7.6496   16.4484  -32.5825 H   0  0  0  0  0  0  0  0  0  0  0  0
   -8.0569   17.1600  -34.1878 H   0  0  0  0  0  0  0  0  0  0  0  0
   -6.3392   14.8865  -33.5660 H   0  0  0  0  0  0  0  0  0  0  0  0
   -6.8774   15.5308  -35.1772 H   0  0  0  0  0  0  0  0  0  0  0  0
   -4.1029   17.7056  -35.5186 H   0  0  0  0  0  0  0  0  0  0  0  0
   -5.7300   17.2278  -36.1500 H   0  0  0  0  0  0  0  0  0  0  0  0
   -5.0157   19.2877  -34.1736 H   0  0  0  0  0  0  0  0  0  0  0  0
   -6.5642   19.0118  -35.0645 H   0  0  0  0  0  0  0  0  0  0  0  0
   -4.7217   19.4957  -31.3949 H   0  0  0  0  0  0  0  0  0  0  0  0
   -3.3095   21.4782  -30.8483 H   0  0  0  0  0  0  0  0  0  0  0  0
  1  2  2  0
  2  3  1  0
  3  4  1  0
  4  5  2  0
  5  6  1  0
  6  7  2  0
  7  8  1  0
  8  9  2  0
  8 10  2  0
  8 11  1  0
 11 12  1  0
 12 13  1  0
 13 14  1  0
 14 15  1  0
  7 16  1  0
 16 17  2  0
  2 18  1  0
 18 19  2  0
 18 20  1  0
 20 21  1  0
 21 22  2  0
 22 23  1  0
 23 24  2  0
 24 25  1  0
 25 26  2  0
 25 27  2  0
 25 28  1  0
 28 29  1  0
 29 30  1  0
 30 31  1  0
 31 32  1  0
 32 33  1  0
 24 34  1  0
 34 35  2  0
 17  4  1  0
 35 21  1  0
 15 11  1  0
 33 28  1  0
  5 36  1  0
  6 37  1  0
 12 38  1  0
 12 39  1  0
 13 40  1  0
 13 41  1  0
 14 42  1  0
 14 43  1  0
 15 44  1  0
 15 45  1  0
 16 46  1  0
 17 47  1  0
 22 48  1  0
 23 49  1  0
 29 50  1  0
 29 51  1  0
 30 52  1  0
 30 53  1  0
 32 54  1  0
 32 55  1  0
 33 56  1  0
 33 57  1  0
 34 58  1  0
 35 59  1  0
M  CHG  2   3  -1  20  -1
M  END
>  <UniqueID>  (13) 
13

>  <SMILES>  (13) 
O=C([N-]c1ccc(S(=O)(=O)N2CCCC2)cc1)C(=O)[N-]c1ccc(S(=O)(=O)N2CCOCC2)cc1

>  <Energy>  (13) 
80.4360713873623

>  <Genealogy>  (13) 
O=C([N-]c1ccc(S(=O)(=O)N2CCCC2)cc1)C(=O)[N-]c1ccc(S(=O)(=O)N2CCOCC2)cc1 (protonated)
O=C([N-]c1ccc(S(=O)(=O)N2CCCC2)cc1)C(=O)[N-]c1ccc(S(=O)(=O)N2CCOCC2)cc1 (3D coordinates assigned)
O=C([N-]c1ccc(S(=O)(=O)N2CCCC2)cc1)C(=O)[N-]c1ccc(S(=O)(=O)N2CCOCC2)cc1 (nonaromatic ring conformer: 80.4360713873623 kcal/mol)

>  <smiles>  (13) 
O=C(Nc1ccc(S(=O)(=O)N2CCCC2)cc1)C(=O)Nc1ccc(S(=O)(=O)N2CCOCC2)cc1

>  <score_type>  (13) 
oracle

>  <origin>  (13) 
adgpu

>  <m_score__min__energy>  (13) 
-12.390000000000001

>  <m_primary>  (13) 
energy

$$$$
13:0
     RDKit          3D

 44 46  0  0  0  0  0  0  0  0999 V2000
   -6.0800   18.1360  -34.8310 N   0  0  0  0  0  0  0  0  0  0  0  0
   -4.9250   18.6240  -33.6420 S   0  0  0  0  0  0  0  0  0  0  0  0
   -3.5430   18.5540  -34.2300 O   0  0  0  0  0  0  0  0  0  0  0  0
   -4.9940   17.6940  -32.4640 O   0  0  0  0  0  0  0  0  0  0  0  0
   -5.2710   20.2710  -33.1260 C   0  0  0  0  0  0  0  0  0  0  0  0
   -4.2740   21.2500  -33.1870 C   0  0  0  0  0  0  0  0  0  0  0  0
   -4.5430   22.5540  -32.7670 C   0  0  0  0  0  0  0  0  0  0  0  0
   -5.8090   22.8940  -32.2610 C   0  0  0  0  0  0  0  0  0  0  0  0
   -6.1060   24.2380  -31.8490 N   0  0  0  0  0  0  0  0  0  0  0  0
   -5.4010   24.9830  -30.8510 C   0  0  0  0  0  0  0  0  0  0  0  0
   -6.0570   25.6850  -30.0350 O   0  0  0  0  0  0  0  0  0  0  0  0
   -3.9820   24.8530  -30.7130 N   0  0  0  0  0  0  0  0  0  0  0  0
   -3.3130   24.0030  -29.7710 C   0  0  0  0  0  0  0  0  0  0  0  0
   -3.7840   22.6980  -29.6050 C   0  0  0  0  0  0  0  0  0  0  0  0
   -3.1550   21.8280  -28.7190 C   0  0  0  0  0  0  0  0  0  0  0  0
   -2.0390   22.2440  -27.9880 C   0  0  0  0  0  0  0  0  0  0  0  0
   -1.2730   21.0630  -26.9280 Cl  0  0  0  0  0  0  0  0  0  0  0  0
   -1.5350   23.5550  -28.1500 C   0  0  0  0  0  0  0  0  0  0  0  0
   -0.1000   24.0920  -27.2430 S   0  0  0  0  0  0  0  0  0  0  0  0
    0.6760   22.9050  -26.7460 O   0  0  0  0  0  0  0  0  0  0  0  0
    0.8030   24.8620  -28.1660 O   0  0  0  0  0  0  0  0  0  0  0  0
   -0.5030   25.1330  -25.8380 C   0  0  0  0  0  0  0  0  0  0  0  0
   -1.0590   26.5190  -26.1330 C   0  0  0  0  0  0  0  0  0  0  0  0
   -1.9920   25.4050  -25.6910 C   0  0  0  0  0  0  0  0  0  0  0  0
   -2.1610   24.4200  -29.0750 C   0  0  0  0  0  0  0  0  0  0  0  0
   -1.6180   25.6740  -29.3370 O   0  0  0  0  0  0  0  0  0  0  0  0
   -6.8210   21.9150  -32.2170 C   0  0  0  0  0  0  0  0  0  0  0  0
   -8.4310   22.3140  -31.6070 S   0  0  0  0  0  0  0  0  0  0  0  0
   -9.5760   21.1660  -32.2030 N   0  0  0  0  0  0  0  0  0  0  0  0
   -8.8390   23.6880  -32.0600 O   0  0  0  0  0  0  0  0  0  0  0  0
   -8.4180   22.2800  -30.1050 O   0  0  0  0  0  0  0  0  0  0  0  0
   -6.5410   20.6050  -32.6400 C   0  0  0  0  0  0  0  0  0  0  0  0
   -6.5280   19.0070  -35.1940 H   0  0  0  0  0  0  0  0  0  0  0  0
   -3.2746   20.9917  -33.5672 H   0  0  0  0  0  0  0  0  0  0  0  0
   -3.7576   23.3214  -32.8327 H   0  0  0  0  0  0  0  0  0  0  0  0
   -4.6580   22.3558  -30.1785 H   0  0  0  0  0  0  0  0  0  0  0  0
   -3.5394   20.8050  -28.5933 H   0  0  0  0  0  0  0  0  0  0  0  0
    0.3114   24.7626  -25.1980 H   0  0  0  0  0  0  0  0  0  0  0  0
   -0.8403   27.3555  -25.4530 H   0  0  0  0  0  0  0  0  0  0  0  0
   -1.0199   27.2063  -26.9910 H   0  0  0  0  0  0  0  0  0  0  0  0
   -2.4492   25.4352  -24.6910 H   0  0  0  0  0  0  0  0  0  0  0  0
   -2.9086   24.9520  -26.0968 H   0  0  0  0  0  0  0  0  0  0  0  0
  -10.5130   21.4550  -31.8430 H   0  0  0  0  0  0  0  0  0  0  0  0
   -7.3255   19.8356  -32.5890 H   0  0  0  0  0  0  0  0  0  0  0  0
  1  2  1  0
  2  3  2  0
  2  4  2  0
  2  5  1  0
  5  6  2  0
  6  7  1  0
  7  8  2  0
  8  9  1  0
  9 10  1  0
 10 11  2  0
 10 12  1  0
 12 13  1  0
 13 14  2  0
 14 15  1  0
 15 16  2  0
 16 17  1  0
 16 18  1  0
 18 19  1  0
 19 20  2  0
 19 21  2  0
 19 22  1  0
 22 23  1  0
 23 24  1  0
 18 25  2  0
 25 26  1  0
  8 27  1  0
 27 28  1  0
 28 29  1  0
 28 30  2  0
 28 31  2  0
 27 32  2  0
 32  5  1  0
 25 13  1  0
 24 22  1  0
  1 33  1  0
  6 34  1  0
  7 35  1  0
 14 36  1  0
 15 37  1  0
 22 38  1  0
 23 39  1  0
 23 40  1  0
 24 41  1  0
 24 42  1  0
 29 43  1  0
 32 44  1  0
M  CHG  5   1  -1   9  -1  12  -1  26  -1  29  -1
M  END
>  <UniqueID>  (14) 
14

>  <SMILES>  (14) 
[NH-]S(=O)(=O)c1ccc([N-]C(=O)[N-]c2ccc(Cl)c(S(=O)(=O)C3CC3)c2[O-])c(S([NH-])(=O)=O)c1

>  <Energy>  (14) 
321.27163172324947

>  <Genealogy>  (14) 
[NH-]S(=O)(=O)c1ccc([N-]C(=O)[N-]c2ccc(Cl)c(S(=O)(=O)C3CC3)c2[O-])c(S([NH-])(=O)=O)c1 (protonated)
[NH-]S(=O)(=O)c1ccc([N-]C(=O)[N-]c2ccc(Cl)c(S(=O)(=O)C3CC3)c2[O-])c(S([NH-])(=O)=O)c1 (3D coordinates assigned)
[NH-]S(=O)(=O)c1ccc([N-]C(=O)[N-]c2ccc(Cl)c(S(=O)(=O)C3CC3)c2[O-])c(S([NH-])(=O)=O)c1 (nonaromatic ring conformer: 321.27163172324947 kcal/mol)

>  <smiles>  (14) 
NS(=O)(=O)c1ccc(NC(=O)Nc2ccc(Cl)c(S(=O)(=O)C3CC3)c2O)c(S(N)(=O)=O)c1

>  <score_type>  (14) 
oracle

>  <origin>  (14) 
adgpu

>  <m_score__min__energy>  (14) 
-15.82

>  <m_primary>  (14) 
energy

$$$$
14:0
     RDKit          3D

 28 29  0  0  0  0  0  0  0  0999 V2000
   -5.4142   23.7347  -31.8623 H   0  0  0  0  0  0  0  0  0  0  0  0
   -5.5900   23.3860  -30.8340 C   0  0  0  0  0  0  0  0  0  0  0  0
   -6.7330   22.8530  -30.5270 N   0  0  0  0  0  0  0  0  0  0  0  0
   -7.8140   22.6800  -31.4940 C   0  0  0  0  0  0  0  0  0  0  0  0
   -8.7664   22.9753  -31.0295 H   0  0  0  0  0  0  0  0  0  0  0  0
   -7.6105   23.3096  -32.3727 H   0  0  0  0  0  0  0  0  0  0  0  0
   -7.9010   21.2430  -31.9330 C   0  0  0  0  0  0  0  0  0  0  0  0
   -9.0160   20.4650  -31.5790 C   0  0  0  0  0  0  0  0  0  0  0  0
   -9.8370   20.9149  -31.0015 H   0  0  0  0  0  0  0  0  0  0  0  0
   -9.0860   19.1210  -31.9580 C   0  0  0  0  0  0  0  0  0  0  0  0
   -9.9653   18.5186  -31.6861 H   0  0  0  0  0  0  0  0  0  0  0  0
   -8.0400   18.5420  -32.6820 C   0  0  0  0  0  0  0  0  0  0  0  0
   -8.0964   17.4845  -32.9796 H   0  0  0  0  0  0  0  0  0  0  0  0
   -6.9220   19.3070  -33.0280 C   0  0  0  0  0  0  0  0  0  0  0  0
   -6.0990   18.8507  -33.5975 H   0  0  0  0  0  0  0  0  0  0  0  0
   -6.8490   20.6510  -32.6510 C   0  0  0  0  0  0  0  0  0  0  0  0
   -5.9641   21.2474  -32.9177 H   0  0  0  0  0  0  0  0  0  0  0  0
   -4.5200   23.5320  -29.8230 C   0  0  0  0  0  0  0  0  0  0  0  0
   -4.3120   22.5390  -28.8450 C   0  0  0  0  0  0  0  0  0  0  0  0
   -4.9519   21.6444  -28.8295 H   0  0  0  0  0  0  0  0  0  0  0  0
   -3.2970   22.6840  -27.8940 C   0  0  0  0  0  0  0  0  0  0  0  0
   -3.1411   21.9036  -27.1346 H   0  0  0  0  0  0  0  0  0  0  0  0
   -2.4810   23.8170  -27.9060 C   0  0  0  0  0  0  0  0  0  0  0  0
   -1.6842   23.9292  -27.1560 H   0  0  0  0  0  0  0  0  0  0  0  0
   -2.6770   24.8080  -28.8710 C   0  0  0  0  0  0  0  0  0  0  0  0
   -2.0331   25.6998  -28.8787 H   0  0  0  0  0  0  0  0  0  0  0  0
   -3.6890   24.6710  -29.8280 C   0  0  0  0  0  0  0  0  0  0  0  0
   -3.8620   25.6740  -30.7770 O   0  0  0  0  0  0  0  0  0  0  0  0
  1  2  1  0
  2  3  2  0
  3  4  1  0
  4  5  1  0
  4  6  1  0
  4  7  1  0
  7  8  2  0
  8  9  1  0
  8 10  1  0
 10 11  1  0
 10 12  2  0
 12 13  1  0
 12 14  1  0
 14 15  1  0
 14 16  2  0
 16 17  1  0
  2 18  1  0
 18 19  2  0
 19 20  1  0
 19 21  1  0
 21 22  1  0
 21 23  2  0
 23 24  1  0
 23 25  1  0
 25 26  1  0
 25 27  2  0
 27 28  1  0
 16  7  1  0
 27 18  1  0
M  CHG  1  28  -1
M  END
>  <UniqueID>  (15) 
15

>  <SMILES>  (15) 
[O-]c1ccccc1/C=N/Cc1ccccc1

>  <Energy>  (15) 
27.265424882559007

>  <Genealogy>  (15) 
[O-]c1ccccc1C=NCc1ccccc1 (protonated)
[O-]c1ccccc1/C=N/Cc1ccccc1 (cis-trans isomerization)
[O-]c1ccccc1/C=N/Cc1ccccc1 (3D coordinates assigned)
[O-]c1ccccc1/C=N/Cc1ccccc1 (optimized conformer: 27.265424882559007 kcal/mol)

>  <smiles>  (15) 
Oc1ccccc1C=NCc1ccccc1

>  <score_type>  (15) 
oracle

>  <origin>  (15) 
adgpu

>  <m_score__min__energy>  (15) 
-9.9199999999999999

>  <m_primary>  (15) 
energy

$$$$
15:0
     RDKit          3D

 55 58  0  0  0  0  0  0  0  0999 V2000
   -2.8290   20.2980  -33.8180 C   0  0  0  0  0  0  0  0  0  0  0  0
   -2.7530   20.1610  -32.3300 C   0  0  0  0  0  0  0  0  0  0  0  0
   -3.8250   20.0910  -31.6710 O   0  0  0  0  0  0  0  0  0  0  0  0
   -1.4840   20.1600  -31.6410 N   0  0  0  0  0  0  0  0  0  0  0  0
   -0.4530   19.2010  -32.0600 C   0  0  0  0  0  0  0  0  0  0  0  0
    0.0890   18.4750  -30.8290 C   0  0  0  0  0  0  0  0  0  0  0  0
    0.6990   19.4770  -29.8340 C   0  0  0  0  0  0  0  0  0  0  0  0
   -0.1860   20.6810  -29.5970 C   0  0  0  0  0  0  0  0  0  0  0  0
    0.0960   21.5310  -28.5140 C   0  0  0  0  0  0  0  0  0  0  0  0
   -0.6250   22.7170  -28.3380 C   0  0  0  0  0  0  0  0  0  0  0  0
   -1.6250   23.0770  -29.2530 C   0  0  0  0  0  0  0  0  0  0  0  0
   -2.4620   24.6190  -29.0750 S   0  0  0  0  0  0  0  0  0  0  0  0
   -3.2920   24.6250  -27.8160 O   0  0  0  0  0  0  0  0  0  0  0  0
   -1.4330   25.7130  -28.9650 O   0  0  0  0  0  0  0  0  0  0  0  0
   -3.4930   24.9530  -30.4310 N   0  0  0  0  0  0  0  0  0  0  0  0
   -4.7150   24.2550  -30.7110 C   0  0  0  0  0  0  0  0  0  0  0  0
   -4.8230   23.3590  -31.7890 C   0  0  0  0  0  0  0  0  0  0  0  0
   -6.0280   22.6940  -32.0300 C   0  0  0  0  0  0  0  0  0  0  0  0
   -7.1420   22.9150  -31.1970 C   0  0  0  0  0  0  0  0  0  0  0  0
   -8.6540   22.0540  -31.4710 S   0  0  0  0  0  0  0  0  0  0  0  0
   -9.3690   21.8280  -30.1660 O   0  0  0  0  0  0  0  0  0  0  0  0
   -9.5300   22.8910  -32.3630 O   0  0  0  0  0  0  0  0  0  0  0  0
   -8.3150   20.5260  -32.2420 N   0  0  0  0  0  0  0  0  0  0  0  0
   -7.1200   19.9020  -31.6760 C   0  0  0  0  0  0  0  0  0  0  0  0
   -7.2530   18.4200  -31.9710 C   0  0  0  0  0  0  0  0  0  0  0  0
   -8.7540   18.1710  -32.0170 C   0  0  0  0  0  0  0  0  0  0  0  0
   -9.3970   19.5620  -32.0140 C   0  0  0  0  0  0  0  0  0  0  0  0
   -7.0470   23.8280  -30.1370 C   0  0  0  0  0  0  0  0  0  0  0  0
   -5.8450   24.5070  -29.9050 C   0  0  0  0  0  0  0  0  0  0  0  0
   -1.9140   22.2330  -30.3350 C   0  0  0  0  0  0  0  0  0  0  0  0
   -1.2100   21.0250  -30.5130 C   0  0  0  0  0  0  0  0  0  0  0  0
   -3.3479   21.2335  -34.0741 H   0  0  0  0  0  0  0  0  0  0  0  0
   -1.8121   20.3163  -34.2370 H   0  0  0  0  0  0  0  0  0  0  0  0
   -3.3829   19.4449  -34.2370 H   0  0  0  0  0  0  0  0  0  0  0  0
   -0.8916   18.4697  -32.7549 H   0  0  0  0  0  0  0  0  0  0  0  0
    0.3658   19.7356  -32.5637 H   0  0  0  0  0  0  0  0  0  0  0  0
   -0.7327   17.9329  -30.3381 H   0  0  0  0  0  0  0  0  0  0  0  0
    0.8719   17.7714  -31.1485 H   0  0  0  0  0  0  0  0  0  0  0  0
    0.8602   18.9649  -28.8739 H   0  0  0  0  0  0  0  0  0  0  0  0
    1.6430   19.8400  -30.2666 H   0  0  0  0  0  0  0  0  0  0  0  0
    0.8886   21.2622  -27.8002 H   0  0  0  0  0  0  0  0  0  0  0  0
   -0.4069   23.3691  -27.4794 H   0  0  0  0  0  0  0  0  0  0  0  0
   -3.9573   23.1812  -32.4439 H   0  0  0  0  0  0  0  0  0  0  0  0
   -6.1070   21.9941  -32.8749 H   0  0  0  0  0  0  0  0  0  0  0  0
   -6.2141   20.3078  -32.1501 H   0  0  0  0  0  0  0  0  0  0  0  0
   -7.0331   20.0953  -30.5966 H   0  0  0  0  0  0  0  0  0  0  0  0
   -6.7886   18.1731  -32.9371 H   0  0  0  0  0  0  0  0  0  0  0  0
   -6.7498   17.7976  -31.2164 H   0  0  0  0  0  0  0  0  0  0  0  0
   -9.0255   17.6234  -32.9315 H   0  0  0  0  0  0  0  0  0  0  0  0
   -9.0939   17.5611  -31.1670 H   0  0  0  0  0  0  0  0  0  0  0  0
  -10.1458   19.6354  -32.8165 H   0  0  0  0  0  0  0  0  0  0  0  0
   -9.9091   19.7596  -31.0607 H   0  0  0  0  0  0  0  0  0  0  0  0
   -7.9164   24.0105  -29.4882 H   0  0  0  0  0  0  0  0  0  0  0  0
   -5.7812   25.2418  -29.0889 H   0  0  0  0  0  0  0  0  0  0  0  0
   -2.6983   22.5167  -31.0522 H   0  0  0  0  0  0  0  0  0  0  0  0
  1  2  1  0
  2  3  2  0
  2  4  1  0
  4  5  1  0
  5  6  1  0
  6  7  1  0
  7  8  1  0
  8  9  2  0
  9 10  1  0
 10 11  2  0
 11 12  1  0
 12 13  2  0
 12 14  2  0
 12 15  1  0
 15 16  1  0
 16 17  2  0
 17 18  1  0
 18 19  2  0
 19 20  1  0
 20 21  2  0
 20 22  2  0
 20 23  1  0
 23 24  1  0
 24 25  1  0
 25 26  1  0
 26 27  1  0
 19 28  1  0
 28 29  2  0
 11 30  1  0
 30 31  2  0
 31  4  1  0
 31  8  1  0
 29 16  1  0
 27 23  1  0
  1 32  1  0
  1 33  1  0
  1 34  1  0
  5 35  1  0
  5 36  1  0
  6 37  1  0
  6 38  1  0
  7 39  1  0
  7 40  1  0
  9 41  1  0
 10 42  1  0
 17 43  1  0
 18 44  1  0
 24 45  1  0
 24 46  1  0
 25 47  1  0
 25 48  1  0
 26 49  1  0
 26 50  1  0
 27 51  1  0
 27 52  1  0
 28 53  1  0
 29 54  1  0
 30 55  1  0
M  CHG  1  15  -1
M  END
>  <UniqueID>  (16) 
16

>  <SMILES>  (16) 
CC(=O)N1CCCc2ccc(S(=O)(=O)[N-]c3ccc(S(=O)(=O)N4CCCC4)cc3)cc21

>  <Energy>  (16) 
69.73324456113316

>  <Genealogy>  (16) 
CC(=O)N1CCCc2ccc(S(=O)(=O)[N-]c3ccc(S(=O)(=O)N4CCCC4)cc3)cc21 (protonated)
CC(=O)N1CCCc2ccc(S(=O)(=O)[N-]c3ccc(S(=O)(=O)N4CCCC4)cc3)cc21 (3D coordinates assigned)
CC(=O)N1CCCc2ccc(S(=O)(=O)[N-]c3ccc(S(=O)(=O)N4CCCC4)cc3)cc21 (nonaromatic ring conformer: 69.73324456113316 kcal/mol)

>  <smiles>  (16) 
CC(=O)N1CCCc2ccc(S(=O)(=O)Nc3ccc(S(=O)(=O)N4CCCC4)cc3)cc21

>  <score_type>  (16) 
oracle

>  <origin>  (16) 
adgpu

>  <m_score__min__energy>  (16) 
-12.32

>  <m_primary>  (16) 
energy

$$$$
16:0
     RDKit          3D

 50 52  0  0  0  0  0  0  0  0999 V2000
    0.6565   28.4553  -26.5344 H   0  0  0  0  0  0  0  0  0  0  0  0
   -0.0120   27.5820  -26.5520 C   0  0  0  0  0  0  0  0  0  0  0  0
   -0.4470   27.0860  -27.7400 N   0  0  0  0  0  0  0  0  0  0  0  0
   -1.2770   26.0110  -27.8210 C   0  0  0  0  0  0  0  0  0  0  0  0
   -1.6590   25.6100  -29.0010 N   0  0  0  0  0  0  0  0  0  0  0  0
   -2.4620   24.4600  -29.3060 C   0  0  0  0  0  0  0  0  0  0  0  0
   -3.8200   24.1750  -28.4220 S   0  0  0  0  0  0  0  0  0  0  0  0
   -1.8490   23.3790  -30.0240 N   0  0  0  0  0  0  0  0  0  0  0  0
   -0.8050   23.3390  -30.0350 H   0  0  0  0  0  0  0  0  0  0  0  0
   -2.5750   22.3760  -30.7570 C   0  0  0  0  0  0  0  0  0  0  0  0
   -3.6000   22.7230  -31.6540 C   0  0  0  0  0  0  0  0  0  0  0  0
   -3.8758   23.7795  -31.7871 H   0  0  0  0  0  0  0  0  0  0  0  0
   -4.2710   21.7330  -32.3780 C   0  0  0  0  0  0  0  0  0  0  0  0
   -5.0792   22.0130  -33.0697 H   0  0  0  0  0  0  0  0  0  0  0  0
   -3.9180   20.3850  -32.2260 C   0  0  0  0  0  0  0  0  0  0  0  0
   -4.7400   19.1380  -33.1640 S   0  0  0  0  0  0  0  0  0  0  0  0
   -4.4180   17.7850  -32.5910 O   0  0  0  0  0  0  0  0  0  0  0  0
   -4.2400   19.1700  -34.5820 O   0  0  0  0  0  0  0  0  0  0  0  0
   -6.4720   19.3900  -33.1430 N   0  0  0  0  0  0  0  0  0  0  0  0
   -6.8190   20.2990  -32.0290 C   0  0  0  0  0  0  0  0  0  0  0  0
   -7.0505   19.6968  -31.1381 H   0  0  0  0  0  0  0  0  0  0  0  0
   -5.9586   20.9604  -31.8494 H   0  0  0  0  0  0  0  0  0  0  0  0
   -8.0300   21.1770  -32.3610 C   0  0  0  0  0  0  0  0  0  0  0  0
   -7.9267   22.1290  -31.8197 H   0  0  0  0  0  0  0  0  0  0  0  0
   -8.0379   21.3114  -33.4527 H   0  0  0  0  0  0  0  0  0  0  0  0
   -9.3770   20.5470  -31.9790 C   0  0  0  0  0  0  0  0  0  0  0  0
   -9.4670   20.5378  -30.8827 H   0  0  0  0  0  0  0  0  0  0  0  0
  -10.1763   21.1476  -32.4377 H   0  0  0  0  0  0  0  0  0  0  0  0
   -9.5050   19.1070  -32.5000 C   0  0  0  0  0  0  0  0  0  0  0  0
  -10.4546   18.6894  -32.1340 H   0  0  0  0  0  0  0  0  0  0  0  0
   -9.4620   19.1598  -33.5979 H   0  0  0  0  0  0  0  0  0  0  0  0
   -8.3640   18.1790  -32.0530 C   0  0  0  0  0  0  0  0  0  0  0  0
   -7.9927   18.5417  -31.0831 H   0  0  0  0  0  0  0  0  0  0  0  0
   -8.7957   17.1680  -32.0133 H   0  0  0  0  0  0  0  0  0  0  0  0
   -7.1690   18.0890  -33.0130 C   0  0  0  0  0  0  0  0  0  0  0  0
   -6.4593   17.3410  -32.6298 H   0  0  0  0  0  0  0  0  0  0  0  0
   -7.5469   17.8015  -34.0053 H   0  0  0  0  0  0  0  0  0  0  0  0
   -2.8820   20.0380  -31.3480 C   0  0  0  0  0  0  0  0  0  0  0  0
   -2.5963   18.9826  -31.2279 H   0  0  0  0  0  0  0  0  0  0  0  0
   -2.2100   21.0280  -30.6240 C   0  0  0  0  0  0  0  0  0  0  0  0
   -1.3902   20.7480  -29.9461 H   0  0  0  0  0  0  0  0  0  0  0  0
   -1.7260   25.4030  -26.6300 C   0  0  0  0  0  0  0  0  0  0  0  0
   -2.4127   24.5446  -26.6714 H   0  0  0  0  0  0  0  0  0  0  0  0
   -1.2930   25.8980  -25.3980 C   0  0  0  0  0  0  0  0  0  0  0  0
   -1.6443   25.4336  -24.4648 H   0  0  0  0  0  0  0  0  0  0  0  0
   -0.4120   26.9850  -25.3500 C   0  0  0  0  0  0  0  0  0  0  0  0
    0.0290   27.5580  -24.0350 C   0  0  0  0  0  0  0  0  0  0  0  0
   -0.4175   26.9778  -23.2140 H   0  0  0  0  0  0  0  0  0  0  0  0
    1.1256   27.5103  -23.9635 H   0  0  0  0  0  0  0  0  0  0  0  0
   -0.2979   28.6059  -23.9635 H   0  0  0  0  0  0  0  0  0  0  0  0
  1  2  1  0
  2  3  1  0
  3  4  1  0
  4  5  2  0
  5  6  1  0
  6  7  2  0
  6  8  1  0
  8  9  1  0
  8 10  1  0
 10 11  2  0
 11 12  1  0
 11 13  1  0
 13 14  1  0
 13 15  2  0
 15 16  1  0
 16 17  2  0
 16 18  2  0
 16 19  1  0
 19 20  1  0
 20 21  1  0
 20 22  1  0
 20 23  1  0
 23 24  1  0
 23 25  1  0
 23 26  1  0
 26 27  1  0
 26 28  1  0
 26 29  1  0
 29 30  1  0
 29 31  1  0
 29 32  1  0
 32 33  1  0
 32 34  1  0
 32 35  1  0
 35 36  1  0
 35 37  1  0
 15 38  1  0
 38 39  1  0
 38 40  2  0
 40 41  1  0
  4 42  1  0
 42 43  1  0
 42 44  2  0
 44 45  1  0
 44 46  1  0
 46 47  1  0
 47 48  1  0
 47 49  1  0
 47 50  1  0
 46  2  2  0
 40 10  1  0
 35 19  1  0
M  CHG  1   3  -1
M  END
>  <UniqueID>  (17) 
17

>  <SMILES>  (17) 
Cc1cc/c(=N\C(=S)Nc2ccc(S(=O)(=O)N3CCCCCC3)cc2)[n-]c1

>  <Energy>  (17) 
66.67887412772471

>  <Genealogy>  (17) 
Cc1ccc(=NC(=S)Nc2ccc(S(=O)(=O)N3CCCCCC3)cc2)[n-]c1 (protonated)
Cc1cc/c(=N\C(=S)Nc2ccc(S(=O)(=O)N3CCCCCC3)cc2)[n-]c1 (cis-trans isomerization)
Cc1cc/c(=N\C(=S)Nc2ccc(S(=O)(=O)N3CCCCCC3)cc2)[n-]c1 (3D coordinates assigned)
Cc1cc/c(=N\C(=S)Nc2ccc(S(=O)(=O)N3CCCCCC3)cc2)[n-]c1 (nonaromatic ring conformer: 66.67887412772471 kcal/mol)

>  <smiles>  (17) 
Cc1ccc(=NC(=S)Nc2ccc(S(=O)(=O)N3CCCCCC3)cc2)[nH]c1

>  <score_type>  (17) 
oracle

>  <origin>  (17) 
adgpu

>  <m_score__min__energy>  (17) 
-8.7699999999999996

>  <m_primary>  (17) 
energy

$$$$
17:0
     RDKit          3D

 44 46  0  0  0  0  0  0  0  0999 V2000
   -3.5230   14.5720  -35.7050 C   0  0  0  0  0  0  0  0  0  0  0  0
   -4.2350   15.6240  -34.9070 C   0  0  0  0  0  0  0  0  0  0  0  0
   -5.4180   15.3120  -34.2270 C   0  0  0  0  0  0  0  0  0  0  0  0
   -6.0680   16.2820  -33.4630 C   0  0  0  0  0  0  0  0  0  0  0  0
   -5.5440   17.5800  -33.3530 C   0  0  0  0  0  0  0  0  0  0  0  0
   -6.2930   18.5790  -32.5580 C   0  0  0  0  0  0  0  0  0  0  0  0
   -6.5020   18.3650  -31.3320 O   0  0  0  0  0  0  0  0  0  0  0  0
   -6.8550   19.7390  -33.1900 N   0  0  0  0  0  0  0  0  0  0  0  0
   -7.2130   20.9410  -32.4860 C   0  0  0  0  0  0  0  0  0  0  0  0
   -8.5680   21.2760  -32.3410 C   0  0  0  0  0  0  0  0  0  0  0  0
   -8.9390   22.4490  -31.6790 C   0  0  0  0  0  0  0  0  0  0  0  0
   -7.9620   23.3060  -31.1690 C   0  0  0  0  0  0  0  0  0  0  0  0
   -6.6050   23.0000  -31.3280 C   0  0  0  0  0  0  0  0  0  0  0  0
   -5.3770   24.0890  -30.6920 S   0  0  0  0  0  0  0  0  0  0  0  0
   -5.7390   24.4980  -29.2920 O   0  0  0  0  0  0  0  0  0  0  0  0
   -5.2960   25.3040  -31.5740 O   0  0  0  0  0  0  0  0  0  0  0  0
   -3.8460   23.2730  -30.6660 N   0  0  0  0  0  0  0  0  0  0  0  0
   -2.8110   23.7010  -30.0110 C   0  0  0  0  0  0  0  0  0  0  0  0
   -2.8690   24.8500  -29.2820 N   0  0  0  0  0  0  0  0  0  0  0  0
   -1.7860   25.2980  -28.5940 C   0  0  0  0  0  0  0  0  0  0  0  0
   -0.5930   24.5770  -28.6290 C   0  0  0  0  0  0  0  0  0  0  0  0
   -0.5490   23.4030  -29.3790 C   0  0  0  0  0  0  0  0  0  0  0  0
   -1.6540   22.9880  -30.0530 N   0  0  0  0  0  0  0  0  0  0  0  0
   -6.2320   21.8180  -31.9870 C   0  0  0  0  0  0  0  0  0  0  0  0
   -4.3110   17.8850  -33.9870 C   0  0  0  0  0  0  0  0  0  0  0  0
   -3.6480   19.2300  -33.8430 C   0  0  0  0  0  0  0  0  0  0  0  0
   -3.6800   16.9030  -34.7720 C   0  0  0  0  0  0  0  0  0  0  0  0
   -3.0398   13.8580  -35.0219 H   0  0  0  0  0  0  0  0  0  0  0  0
   -4.2474   14.0399  -36.3391 H   0  0  0  0  0  0  0  0  0  0  0  0
   -2.7598   15.0467  -36.3391 H   0  0  0  0  0  0  0  0  0  0  0  0
   -5.8373   14.2973  -34.2952 H   0  0  0  0  0  0  0  0  0  0  0  0
   -7.0019   16.0268  -32.9408 H   0  0  0  0  0  0  0  0  0  0  0  0
   -7.0860   19.6740  -34.2070 H   0  0  0  0  0  0  0  0  0  0  0  0
   -9.3425   20.6111  -32.7510 H   0  0  0  0  0  0  0  0  0  0  0  0
  -10.0037   22.6980  -31.5593 H   0  0  0  0  0  0  0  0  0  0  0  0
   -8.2591   24.2240  -30.6409 H   0  0  0  0  0  0  0  0  0  0  0  0
   -1.8505   26.2281  -28.0103 H   0  0  0  0  0  0  0  0  0  0  0  0
    0.2924   24.9265  -28.0778 H   0  0  0  0  0  0  0  0  0  0  0  0
    0.3784   22.8133  -29.4254 H   0  0  0  0  0  0  0  0  0  0  0  0
   -5.1665   21.5758  -32.1141 H   0  0  0  0  0  0  0  0  0  0  0  0
   -3.5305   19.4685  -32.7756 H   0  0  0  0  0  0  0  0  0  0  0  0
   -2.6591   19.2047  -34.3241 H   0  0  0  0  0  0  0  0  0  0  0  0
   -4.2703   19.9989  -34.3241 H   0  0  0  0  0  0  0  0  0  0  0  0
   -2.7379   17.1427  -35.2868 H   0  0  0  0  0  0  0  0  0  0  0  0
  1  2  1  0
  2  3  2  0
  3  4  1  0
  4  5  2  0
  5  6  1  0
  6  7  2  0
  6  8  1  0
  8  9  1  0
  9 10  2  0
 10 11  1  0
 11 12  2  0
 12 13  1  0
 13 14  1  0
 14 15  2  0
 14 16  2  0
 14 17  1  0
 17 18  2  3
 18 19  1  0
 19 20  2  0
 20 21  1  0
 21 22  2  0
 22 23  1  0
 13 24  2  0
  5 25  1  0
 25 26  1  0
 25 27  2  0
 27  2  1  0
 24  9  1  0
 23 18  1  0
  1 28  1  0
  1 29  1  0
  1 30  1  0
  3 31  1  0
  4 32  1  0
  8 33  1  0
 10 34  1  0
 11 35  1  0
 12 36  1  0
 20 37  1  0
 21 38  1  0
 22 39  1  0
 24 40  1  0
 26 41  1  0
 26 42  1  0
 26 43  1  0
 27 44  1  0
M  CHG  1  23  -1
M  END
>  <UniqueID>  (18) 
18

>  <SMILES>  (18) 
Cc1ccc(C(=O)Nc2cccc(S(=O)(=O)N=c3nccc[n-]3)c2)c(C)c1

>  <Energy>  (18) 
59.02699905783243

>  <Genealogy>  (18) 
Cc1ccc(C(=O)Nc2cccc(S(=O)(=O)N=c3nccc[n-]3)c2)c(C)c1 (protonated)
Cc1ccc(C(=O)Nc2cccc(S(=O)(=O)N=c3nccc[n-]3)c2)c(C)c1 (3D coordinates assigned)
Cc1ccc(C(=O)Nc2cccc(S(=O)(=O)N=c3nccc[n-]3)c2)c(C)c1 (optimized conformer: 59.02699905783243 kcal/mol)

>  <smiles>  (18) 
Cc1ccc(C(=O)Nc2cccc(S(=O)(=O)N=c3nccc[nH]3)c2)c(C)c1

>  <score_type>  (18) 
oracle

>  <origin>  (18) 
adgpu

>  <m_score__min__energy>  (18) 
-10.34

>  <m_primary>  (18) 
energy

$$$$
18:0
     RDKit          3D

 73 77  0  0  0  0  0  0  0  0999 V2000
   -4.7360   24.4370  -30.0300 C   0  0  0  0  0  0  0  0  0  0  0  0
   -3.4990   23.6370  -29.7600 C   0  0  0  0  0  0  0  0  0  0  0  0
   -2.8740   23.7700  -28.5630 N   0  0  0  0  0  0  0  0  0  0  0  0
   -1.7760   23.0820  -28.2430 N   0  0  0  0  0  0  0  0  0  0  0  0
   -1.2260   23.2740  -26.9220 C   0  0  0  0  0  0  0  0  0  0  0  0
   -0.9190   22.1760  -26.0980 C   0  0  0  0  0  0  0  0  0  0  0  0
   -0.4300   22.3780  -24.8040 C   0  0  0  0  0  0  0  0  0  0  0  0
   -0.2660   23.6730  -24.3100 C   0  0  0  0  0  0  0  0  0  0  0  0
   -0.5990   24.7760  -25.1060 C   0  0  0  0  0  0  0  0  0  0  0  0
   -0.4250   26.4160  -24.4890 S   0  0  0  0  0  0  0  0  0  0  0  0
   -0.2890   27.3600  -25.6510 O   0  0  0  0  0  0  0  0  0  0  0  0
   -1.6450   26.7970  -23.6970 O   0  0  0  0  0  0  0  0  0  0  0  0
    1.0010   26.5110  -23.4870 N   0  0  0  0  0  0  0  0  0  0  0  0
    2.2130   26.1700  -24.2360 C   0  0  0  0  0  0  0  0  0  0  0  0
    3.3630   26.9010  -23.5580 C   0  0  0  0  0  0  0  0  0  0  0  0
    2.7150   28.0270  -22.7630 C   0  0  0  0  0  0  0  0  0  0  0  0
    1.2150   27.8650  -22.9690 C   0  0  0  0  0  0  0  0  0  0  0  0
   -1.0710   24.5740  -26.4090 C   0  0  0  0  0  0  0  0  0  0  0  0
   -1.2010   22.2330  -29.1540 C   0  0  0  0  0  0  0  0  0  0  0  0
   -0.1040   21.6650  -28.8930 O   0  0  0  0  0  0  0  0  0  0  0  0
   -1.8180   22.0210  -30.4020 C   0  0  0  0  0  0  0  0  0  0  0  0
   -1.2210   21.0850  -31.3910 C   0  0  0  0  0  0  0  0  0  0  0  0
   -1.0830   19.7200  -31.0830 C   0  0  0  0  0  0  0  0  0  0  0  0
   -0.5460   18.8350  -32.0230 C   0  0  0  0  0  0  0  0  0  0  0  0
   -0.1420   19.3060  -33.2760 C   0  0  0  0  0  0  0  0  0  0  0  0
   -0.2730   20.6610  -33.5890 C   0  0  0  0  0  0  0  0  0  0  0  0
   -0.8070   21.5480  -32.6510 C   0  0  0  0  0  0  0  0  0  0  0  0
   -3.0020   22.7240  -30.6970 C   0  0  0  0  0  0  0  0  0  0  0  0
   -3.7170   22.4950  -31.9230 N   0  0  0  0  0  0  0  0  0  0  0  0
   -4.3210   21.2330  -32.2590 C   0  0  0  0  0  0  0  0  0  0  0  0
   -5.3930   20.7050  -31.5130 C   0  0  0  0  0  0  0  0  0  0  0  0
   -5.9730   19.4860  -31.8730 C   0  0  0  0  0  0  0  0  0  0  0  0
   -5.5000   18.7800  -32.9860 C   0  0  0  0  0  0  0  0  0  0  0  0
   -6.2620   17.2700  -33.4800 S   0  0  0  0  0  0  0  0  0  0  0  0
   -7.6160   17.1810  -32.8300 O   0  0  0  0  0  0  0  0  0  0  0  0
   -6.4450   17.2500  -34.9720 O   0  0  0  0  0  0  0  0  0  0  0  0
   -5.2700   15.9250  -32.9790 N   0  0  0  0  0  0  0  0  0  0  0  0
   -3.8530   16.2710  -33.1380 C   0  0  0  0  0  0  0  0  0  0  0  0
   -5.5950   14.7500  -33.7960 C   0  0  0  0  0  0  0  0  0  0  0  0
   -4.4390   19.3040  -33.7360 C   0  0  0  0  0  0  0  0  0  0  0  0
   -3.8540   20.5200  -33.3740 C   0  0  0  0  0  0  0  0  0  0  0  0
   -5.1958   24.7344  -29.0760 H   0  0  0  0  0  0  0  0  0  0  0  0
   -4.4726   25.3363  -30.6062 H   0  0  0  0  0  0  0  0  0  0  0  0
   -5.4481   23.8279  -30.6062 H   0  0  0  0  0  0  0  0  0  0  0  0
   -1.0645   21.1526  -26.4740 H   0  0  0  0  0  0  0  0  0  0  0  0
   -0.1738   21.5139  -24.1734 H   0  0  0  0  0  0  0  0  0  0  0  0
    0.1255   23.8275  -23.2937 H   0  0  0  0  0  0  0  0  0  0  0  0
    0.8920   25.8440  -22.6860 H   0  0  0  0  0  0  0  0  0  0  0  0
    2.3841   25.0838  -24.2071 H   0  0  0  0  0  0  0  0  0  0  0  0
    2.1230   26.4648  -25.2919 H   0  0  0  0  0  0  0  0  0  0  0  0
    3.9088   26.2212  -22.8873 H   0  0  0  0  0  0  0  0  0  0  0  0
    4.0916   27.2830  -24.2882 H   0  0  0  0  0  0  0  0  0  0  0  0
    2.9676   27.9382  -21.6961 H   0  0  0  0  0  0  0  0  0  0  0  0
    3.0667   29.0145  -23.0963 H   0  0  0  0  0  0  0  0  0  0  0  0
    0.6858   27.9925  -22.0131 H   0  0  0  0  0  0  0  0  0  0  0  0
    0.8296   28.6204  -23.6696 H   0  0  0  0  0  0  0  0  0  0  0  0
   -1.3230   25.4410  -27.0374 H   0  0  0  0  0  0  0  0  0  0  0  0
   -1.3990   19.3466  -30.0978 H   0  0  0  0  0  0  0  0  0  0  0  0
   -0.4414   17.7680  -31.7767 H   0  0  0  0  0  0  0  0  0  0  0  0
    0.2792   18.6092  -34.0156 H   0  0  0  0  0  0  0  0  0  0  0  0
    0.0447   21.0301  -34.5753 H   0  0  0  0  0  0  0  0  0  0  0  0
   -0.9038   22.6149  -32.9005 H   0  0  0  0  0  0  0  0  0  0  0  0
   -3.8530   23.3080  -32.5660 H   0  0  0  0  0  0  0  0  0  0  0  0
   -5.7759   21.2560  -30.6414 H   0  0  0  0  0  0  0  0  0  0  0  0
   -6.8049   19.0790  -31.2795 H   0  0  0  0  0  0  0  0  0  0  0  0
   -3.3897   16.3841  -32.1467 H   0  0  0  0  0  0  0  0  0  0  0  0
   -3.3404   15.4716  -33.6932 H   0  0  0  0  0  0  0  0  0  0  0  0
   -3.7665   17.2166  -33.6932 H   0  0  0  0  0  0  0  0  0  0  0  0
   -5.8301   13.9000  -33.1386 H   0  0  0  0  0  0  0  0  0  0  0  0
   -6.4649   14.9741  -34.4309 H   0  0  0  0  0  0  0  0  0  0  0  0
   -4.7336   14.4952  -34.4309 H   0  0  0  0  0  0  0  0  0  0  0  0
   -4.0651   18.7559  -34.6133 H   0  0  0  0  0  0  0  0  0  0  0  0
   -3.0201   20.9221  -33.9681 H   0  0  0  0  0  0  0  0  0  0  0  0
  1  2  1  0
  2  3  2  0
  3  4  1  0
  4  5  1  0
  5  6  2  0
  6  7  1  0
  7  8  2  0
  8  9  1  0
  9 10  1  0
 10 11  2  0
 10 12  2  0
 10 13  1  0
 13 14  1  0
 14 15  1  0
 15 16  1  0
 16 17  1  0
  9 18  2  0
  4 19  1  0
 19 20  2  0
 19 21  1  0
 21 22  1  0
 22 23  2  0
 23 24  1  0
 24 25  2  0
 25 26  1  0
 26 27  2  0
 21 28  2  0
 28 29  1  0
 29 30  1  0
 30 31  2  0
 31 32  1  0
 32 33  2  0
 33 34  1  0
 34 35  2  0
 34 36  2  0
 34 37  1  0
 37 38  1  0
 37 39  1  0
 33 40  1  0
 40 41  2  0
 28  2  1  0
 41 30  1  0
 18  5  1  0
 27 22  1  0
 17 13  1  0
  1 42  1  0
  1 43  1  0
  1 44  1  0
  6 45  1  0
  7 46  1  0
  8 47  1  0
 13 48  1  0
 14 49  1  0
 14 50  1  0
 15 51  1  0
 15 52  1  0
 16 53  1  0
 16 54  1  0
 17 55  1  0
 17 56  1  0
 18 57  1  0
 23 58  1  0
 24 59  1  0
 25 60  1  0
 26 61  1  0
 27 62  1  0
 29 63  1  0
 31 64  1  0
 32 65  1  0
 38 66  1  0
 38 67  1  0
 38 68  1  0
 39 69  1  0
 39 70  1  0
 39 71  1  0
 40 72  1  0
 41 73  1  0
M  CHG  1  13   1
M  END
>  <UniqueID>  (19) 
19

>  <SMILES>  (19) 
Cc1nn(-c2cccc(S(=O)(=O)[NH+]3CCCC3)c2)c(=O)c(-c2ccccc2)c1Nc1ccc(S(=O)(=O)N(C)C)cc1

>  <Energy>  (19) 
96.30538811554229

>  <Genealogy>  (19) 
Cc1nn(-c2cccc(S(=O)(=O)[NH+]3CCCC3)c2)c(=O)c(-c2ccccc2)c1Nc1ccc(S(=O)(=O)N(C)C)cc1 (protonated)
Cc1nn(-c2cccc(S(=O)(=O)[NH+]3CCCC3)c2)c(=O)c(-c2ccccc2)c1Nc1ccc(S(=O)(=O)N(C)C)cc1 (3D coordinates assigned)
Cc1nn(-c2cccc(S(=O)(=O)[NH+]3CCCC3)c2)c(=O)c(-c2ccccc2)c1Nc1ccc(S(=O)(=O)N(C)C)cc1 (nonaromatic ring conformer: 96.30538811554229 kcal/mol)

>  <smiles>  (19) 
Cc1nn(-c2cccc(S(=O)(=O)N3CCCC3)c2)c(=O)c(-c2ccccc2)c1Nc1ccc(S(=O)(=O)N(C)C)cc1

>  <score_type>  (19) 
oracle

>  <origin>  (19) 
adgpu

>  <m_score__min__energy>  (19) 
-11.529999999999999

>  <m_primary>  (19) 
energy

$$$$
19:0
     RDKit          3D

 45 47  0  0  0  0  0  0  0  0999 V2000
   -0.8520   19.7030  -28.5500 C   0  0  0  0  0  0  0  0  0  0  0  0
   -1.3160   20.2360  -29.7850 O   0  0  0  0  0  0  0  0  0  0  0  0
   -1.9290   21.4900  -29.9350 C   0  0  0  0  0  0  0  0  0  0  0  0
   -1.8140   22.4870  -28.9480 C   0  0  0  0  0  0  0  0  0  0  0  0
   -2.4420   23.7230  -29.1100 C   0  0  0  0  0  0  0  0  0  0  0  0
   -3.2120   23.9800  -30.2530 C   0  0  0  0  0  0  0  0  0  0  0  0
   -3.8600   25.2440  -30.4560 N   0  0  0  0  0  0  0  0  0  0  0  0
   -5.2750   25.4720  -30.4920 C   0  0  0  0  0  0  0  0  0  0  0  0
   -5.7020   26.6450  -30.3280 O   0  0  0  0  0  0  0  0  0  0  0  0
   -6.2440   24.3880  -30.7570 C   0  0  0  0  0  0  0  0  0  0  0  0
   -6.8160   23.6340  -29.7190 C   0  0  0  0  0  0  0  0  0  0  0  0
   -7.6900   22.6380  -30.0170 N   0  0  0  0  0  0  0  0  0  0  0  0
   -8.0190   22.3500  -31.3030 C   0  0  0  0  0  0  0  0  0  0  0  0
   -7.4410   23.0830  -32.3390 C   0  0  0  0  0  0  0  0  0  0  0  0
   -6.5660   24.0800  -32.0440 N   0  0  0  0  0  0  0  0  0  0  0  0
   -3.3100   23.0030  -31.2480 C   0  0  0  0  0  0  0  0  0  0  0  0
   -2.6740   21.7590  -31.1020 C   0  0  0  0  0  0  0  0  0  0  0  0
   -2.8260   20.5620  -32.4020 S   0  0  0  0  0  0  0  0  0  0  0  0
   -1.5410   19.7880  -32.5040 O   0  0  0  0  0  0  0  0  0  0  0  0
   -3.0430   21.2600  -33.7160 O   0  0  0  0  0  0  0  0  0  0  0  0
   -4.1420   19.4460  -32.1120 N   0  0  0  0  0  0  0  0  0  0  0  0
   -4.4040   18.5780  -33.2870 C   0  0  0  0  0  0  0  0  0  0  0  0
   -5.6270   19.0280  -34.1000 C   0  0  0  0  0  0  0  0  0  0  0  0
   -6.8980   19.0370  -33.2310 C   0  0  0  0  0  0  0  0  0  0  0  0
   -6.6040   19.3300  -31.7490 C   0  0  0  0  0  0  0  0  0  0  0  0
   -5.3290   20.1670  -31.5970 C   0  0  0  0  0  0  0  0  0  0  0  0
   -1.3235   20.2446  -27.7167 H   0  0  0  0  0  0  0  0  0  0  0  0
   -1.1143   18.6365  -28.4893 H   0  0  0  0  0  0  0  0  0  0  0  0
    0.2405   19.8159  -28.4893 H   0  0  0  0  0  0  0  0  0  0  0  0
   -1.2239   22.2903  -28.0408 H   0  0  0  0  0  0  0  0  0  0  0  0
   -2.3323   24.4986  -28.3377 H   0  0  0  0  0  0  0  0  0  0  0  0
   -6.5577   23.8488  -28.6715 H   0  0  0  0  0  0  0  0  0  0  0  0
   -8.7353   21.5454  -31.5254 H   0  0  0  0  0  0  0  0  0  0  0  0
   -7.6912   22.8561  -33.3859 H   0  0  0  0  0  0  0  0  0  0  0  0
   -3.8929   23.2111  -32.1574 H   0  0  0  0  0  0  0  0  0  0  0  0
   -3.5204   18.5973  -33.9419 H   0  0  0  0  0  0  0  0  0  0  0  0
   -4.6116   17.5655  -32.9105 H   0  0  0  0  0  0  0  0  0  0  0  0
   -5.4484   20.0426  -34.4857 H   0  0  0  0  0  0  0  0  0  0  0  0
   -5.7754   18.3198  -34.9285 H   0  0  0  0  0  0  0  0  0  0  0  0
   -7.5802   19.8104  -33.6137 H   0  0  0  0  0  0  0  0  0  0  0  0
   -7.3459   18.0339  -33.2882 H   0  0  0  0  0  0  0  0  0  0  0  0
   -7.4510   19.8830  -31.3167 H   0  0  0  0  0  0  0  0  0  0  0  0
   -6.4601   18.3738  -31.2246 H   0  0  0  0  0  0  0  0  0  0  0  0
   -5.4485   21.1055  -32.1581 H   0  0  0  0  0  0  0  0  0  0  0  0
   -5.1734   20.3679  -30.5267 H   0  0  0  0  0  0  0  0  0  0  0  0
  1  2  1  0
  2  3  1  0
  3  4  2  0
  4  5  1  0
  5  6  2  0
  6  7  1  0
  7  8  1  0
  8  9  2  0
  8 10  1  0
 10 11  2  0
 11 12  1  0
 12 13  2  0
 13 14  1  0
 14 15  2  0
  6 16  1  0
 16 17  2  0
 17 18  1  0
 18 19  2  0
 18 20  2  0
 18 21  1  0
 21 22  1  0
 22 23  1  0
 23 24  1  0
 24 25  1  0
 25 26  1  0
 17  3  1  0
 26 21  1  0
 15 10  1  0
  1 27  1  0
  1 28  1  0
  1 29  1  0
  4 30  1  0
  5 31  1  0
 11 32  1  0
 13 33  1  0
 14 34  1  0
 16 35  1  0
 22 36  1  0
 22 37  1  0
 23 38  1  0
 23 39  1  0
 24 40  1  0
 24 41  1  0
 25 42  1  0
 25 43  1  0
 26 44  1  0
 26 45  1  0
M  CHG  1   7  -1
M  END
>  <UniqueID>  (20) 
20

>  <SMILES>  (20) 
COc1ccc([N-]C(=O)c2cnccn2)cc1S(=O)(=O)N1CCCCC1

>  <Energy>  (20) 
59.46750663661366

>  <Genealogy>  (20) 
COc1ccc([N-]C(=O)c2cnccn2)cc1S(=O)(=O)N1CCCCC1 (protonated)
COc1ccc([N-]C(=O)c2cnccn2)cc1S(=O)(=O)N1CCCCC1 (3D coordinates assigned)
COc1ccc([N-]C(=O)c2cnccn2)cc1S(=O)(=O)N1CCCCC1 (nonaromatic ring conformer: 59.46750663661366 kcal/mol)

>  <smiles>  (20) 
COc1ccc(NC(=O)c2cnccn2)cc1S(=O)(=O)N1CCCCC1

>  <score_type>  (20) 
oracle

>  <origin>  (20) 
adgpu

>  <m_score__min__energy>  (20) 
-9.7300000000000004

>  <m_primary>  (20) 
energy

$$$$
20:0
     RDKit          3D

 62 65  0  0  1  0  0  0  0  0999 V2000
   -5.4450   16.9020  -32.1270 C   0  0  0  0  0  0  0  0  0  0  0  0
   -5.4730   17.0200  -33.5610 N   0  0  0  0  0  0  0  0  0  0  0  0
   -5.6610   18.6770  -34.0140 S   0  0  0  0  0  0  0  0  0  0  0  0
   -6.1100   18.6470  -35.4710 O   0  0  0  0  0  0  0  0  0  0  0  0
   -4.3910   19.4490  -33.8390 O   0  0  0  0  0  0  0  0  0  0  0  0
   -6.9850   19.3540  -33.0700 C   0  0  0  0  0  0  0  0  0  0  0  0
   -8.0780   18.5630  -32.7030 C   0  0  0  0  0  0  0  0  0  0  0  0
   -9.1160   19.0990  -31.9550 C   0  0  0  0  0  0  0  0  0  0  0  0
   -9.1130   20.4180  -31.5480 C   0  0  0  0  0  0  0  0  0  0  0  0
   -8.0370   21.2040  -31.9070 C   0  0  0  0  0  0  0  0  0  0  0  0
   -7.9070   22.5720  -31.5600 N   0  0  0  0  0  0  0  0  0  0  0  0
   -6.8890   22.9890  -30.9200 C   0  0  0  0  0  0  0  0  0  0  0  0
   -5.8860   22.1870  -30.5340 N   0  0  0  0  0  0  0  0  0  0  0  0
   -4.8010   22.6250  -29.8440 C   0  0  0  0  0  0  0  0  0  0  0  0
   -3.8280   21.7120  -29.4630 N   0  0  0  0  0  0  0  0  0  0  0  0
   -2.8160   21.1120  -30.2490 C   0  0  0  0  0  0  0  0  0  0  0  0
   -1.7000   20.4890  -29.7420 C   0  0  0  0  0  0  0  0  0  0  0  0
   -0.7710   19.9220  -30.6220 C   0  0  0  0  0  0  0  0  0  0  0  0
   -0.9660   19.9810  -32.0000 C   0  0  0  0  0  0  0  0  0  0  0  0
    0.1520   19.2890  -33.1410 S   0  0  0  0  0  0  0  0  0  0  0  0
    1.5110   19.1390  -32.4920 O   0  0  0  0  0  0  0  0  0  0  0  0
    0.3090   20.2260  -34.3120 O   0  0  0  0  0  0  0  0  0  0  0  0
   -0.3190   17.7530  -33.7030 N   0  0  0  0  0  0  0  0  0  0  0  0
   -1.0300   16.9600  -32.7520 C   0  0  0  0  0  0  0  0  0  0  0  0
   -1.6260   15.7430  -33.4690 C   0  0  0  0  0  0  0  0  0  0  0  0
   -2.5700   16.1030  -34.3980 O   0  0  0  0  0  0  0  0  0  0  0  0
   -2.4760   17.3950  -34.8520 C   0  0  0  0  0  0  0  0  0  0  0  0
   -1.0320   17.8670  -34.9400 C   0  0  0  0  0  0  0  0  0  0  0  0
   -2.1070   20.6190  -32.5060 C   0  0  0  0  0  0  0  0  0  0  0  0
   -3.0300   21.1820  -31.6440 C   0  0  0  0  0  0  0  0  0  0  0  0
   -4.7800   23.9680  -29.5550 C   0  0  0  0  0  0  0  0  0  0  0  0
   -3.7400   24.6110  -28.8380 N   0  0  0  0  0  0  0  0  0  0  0  0
   -2.7920   25.2220  -29.3660 O   0  0  0  0  0  0  0  0  0  0  0  0
   -3.7890   24.5270  -27.4650 O   0  0  0  0  0  0  0  0  0  0  0  0
   -5.8280   24.8130  -29.9580 C   0  0  0  0  0  0  0  0  0  0  0  0
   -5.7950   26.0750  -29.6810 N   0  0  0  0  0  0  0  0  0  0  0  0
   -6.8770   24.3270  -30.6360 N   0  0  0  0  0  0  0  0  0  0  0  0
   -6.9720   20.6810  -32.6650 C   0  0  0  0  0  0  0  0  0  0  0  0
   -5.6765   17.8774  -31.6742 H   0  0  0  0  0  0  0  0  0  0  0  0
   -6.1925   16.1618  -31.8053 H   0  0  0  0  0  0  0  0  0  0  0  0
   -4.4447   16.5766  -31.8053 H   0  0  0  0  0  0  0  0  0  0  0  0
   -4.5880   16.6610  -33.9960 H   0  0  0  0  0  0  0  0  0  0  0  0
   -8.1151   17.5073  -33.0099 H   0  0  0  0  0  0  0  0  0  0  0  0
   -9.9644   18.4556  -31.6787 H   0  0  0  0  0  0  0  0  0  0  0  0
   -9.9431   20.8301  -30.9555 H   0  0  0  0  0  0  0  0  0  0  0  0
   -5.9460   21.1930  -30.7760 H   0  0  0  0  0  0  0  0  0  0  0  0
   -3.8200   21.4010  -28.4410 H   0  0  0  0  0  0  0  0  0  0  0  0
   -1.5389   20.4367  -28.6551 H   0  0  0  0  0  0  0  0  0  0  0  0
    0.1238   19.4238  -30.2206 H   0  0  0  0  0  0  0  0  0  0  0  0
   -0.3414   16.6234  -31.9630 H   0  0  0  0  0  0  0  0  0  0  0  0
   -1.8346   17.5558  -32.2963 H   0  0  0  0  0  0  0  0  0  0  0  0
   -0.8164   15.1995  -33.9781 H   0  0  0  0  0  0  0  0  0  0  0  0
   -2.1170   15.1115  -32.7139 H   0  0  0  0  0  0  0  0  0  0  0  0
   -2.9299   17.4534  -35.8523 H   0  0  0  0  0  0  0  0  0  0  0  0
   -3.0018   18.0446  -34.1367 H   0  0  0  0  0  0  0  0  0  0  0  0
   -0.5132   17.2621  -35.6983 H   0  0  0  0  0  0  0  0  0  0  0  0
   -1.0553   18.9347  -35.2037 H   0  0  0  0  0  0  0  0  0  0  0  0
   -2.2687   20.6720  -33.5928 H   0  0  0  0  0  0  0  0  0  0  0  0
   -3.9257   21.6815  -32.0419 H   0  0  0  0  0  0  0  0  0  0  0  0
   -6.5370   26.7370  -29.9530 H   0  0  0  0  0  0  0  0  0  0  0  0
   -7.6490   24.9300  -30.9360 H   0  0  0  0  0  0  0  0  0  0  0  0
   -6.1251   21.3279  -32.9376 H   0  0  0  0  0  0  0  0  0  0  0  0
  1  2  1  0
  2  3  1  0
  3  4  2  0
  3  5  2  0
  3  6  1  0
  6  7  2  0
  7  8  1  0
  8  9  2  0
  9 10  1  0
 10 11  1  0
 11 12  2  0
 12 13  1  0
 13 14  1  0
 14 15  1  0
 15 16  1  0
 16 17  2  0
 17 18  1  0
 18 19  2  0
 19 20  1  0
 20 21  2  0
 20 22  2  0
 20 23  1  0
 23 24  1  0
 24 25  1  0
 25 26  1  0
 26 27  1  0
 27 28  1  0
 19 29  1  0
 29 30  2  0
 14 31  2  0
 31 32  1  0
 32 33  2  0
 32 34  1  0
 31 35  1  0
 35 36  2  3
 35 37  1  0
 10 38  2  0
 38  6  1  0
 37 12  1  0
 30 16  1  0
 28 23  1  0
  1 39  1  0
  1 40  1  0
  1 41  1  0
  2 42  1  0
  7 43  1  0
  8 44  1  0
  9 45  1  0
 13 46  1  0
 15 47  1  0
 17 48  1  0
 18 49  1  0
 24 50  1  0
 24 51  1  0
 25 52  1  0
 25 53  1  0
 27 54  1  0
 27 55  1  0
 28 56  1  0
 28 57  1  0
 29 58  1  0
 30 59  1  0
 36 60  1  0
 37 61  1  0
 38 62  1  0
M  CHG  2  32   1  34  -1
M  END
>  <smiles>  (21) 
CNS(=O)(=O)c1cccc(N=c2[nH]c(Nc3ccc(S(=O)(=O)N4CCOCC4)cc3)c([N+](=O)[O-])c(=N)[nH]2)c1

>  <score_type>  (21) 
oracle

>  <origin>  (21) 
adgpu

>  <m_score__min__energy>  (21) 
-11.140000000000001

>  <m_primary>  (21) 
energy

$$$$
21:0
     RDKit          3D

 68 72  0  0  0  0  0  0  0  0999 V2000
   -9.0010   18.4940  -31.6740 C   0  0  0  0  0  0  0  0  0  0  0  0
   -8.4380   19.8870  -31.7170 C   0  0  0  0  0  0  0  0  0  0  0  0
   -9.2810   20.9960  -31.8490 C   0  0  0  0  0  0  0  0  0  0  0  0
   -8.7410   22.2820  -31.9520 C   0  0  0  0  0  0  0  0  0  0  0  0
   -7.3470   22.4840  -31.9370 C   0  0  0  0  0  0  0  0  0  0  0  0
   -6.8180   23.8840  -32.1070 C   0  0  0  0  0  0  0  0  0  0  0  0
   -6.4880   21.3610  -31.8110 C   0  0  0  0  0  0  0  0  0  0  0  0
   -4.7120   21.4410  -31.8790 S   0  0  0  0  0  0  0  0  0  0  0  0
   -4.3660   22.1340  -33.1650 O   0  0  0  0  0  0  0  0  0  0  0  0
   -4.0680   20.0820  -31.8820 O   0  0  0  0  0  0  0  0  0  0  0  0
   -4.1300   22.3580  -30.4710 C   0  0  0  0  0  0  0  0  0  0  0  0
   -5.0980   23.0030  -29.6790 C   0  0  0  0  0  0  0  0  0  0  0  0
   -4.7250   23.7740  -28.5790 C   0  0  0  0  0  0  0  0  0  0  0  0
   -3.3820   23.9140  -28.2460 C   0  0  0  0  0  0  0  0  0  0  0  0
   -2.4050   23.2620  -28.9990 C   0  0  0  0  0  0  0  0  0  0  0  0
   -2.7580   22.4650  -30.1040 C   0  0  0  0  0  0  0  0  0  0  0  0
   -1.4620   21.5740  -30.9180 S   0  0  0  0  0  0  0  0  0  0  0  0
   -1.5820   20.1020  -30.6360 O   0  0  0  0  0  0  0  0  0  0  0  0
   -0.1270   22.0320  -30.4140 O   0  0  0  0  0  0  0  0  0  0  0  0
   -1.5590   21.8080  -32.6370 N   0  0  0  0  0  0  0  0  0  0  0  0
   -1.0060   20.9180  -33.6130 C   0  0  0  0  0  0  0  0  0  0  0  0
   -0.2400   21.3910  -34.7140 C   0  0  0  0  0  0  0  0  0  0  0  0
    0.2780   20.4940  -35.6640 C   0  0  0  0  0  0  0  0  0  0  0  0
    0.0230   19.1370  -35.4920 C   0  0  0  0  0  0  0  0  0  0  0  0
    0.4120   18.1290  -36.2900 N   0  0  0  0  0  0  0  0  0  0  0  0
   -0.0920   17.0000  -35.7420 C   0  0  0  0  0  0  0  0  0  0  0  0
   -0.8100   17.3000  -34.5860 C   0  0  0  0  0  0  0  0  0  0  0  0
   -1.5960   16.3350  -33.7440 C   0  0  0  0  0  0  0  0  0  0  0  0
   -2.6640   17.0090  -32.8410 C   0  0  0  0  0  0  0  0  0  0  0  0
   -3.7730   17.7510  -33.5080 N   0  0  0  0  0  0  0  0  0  0  0  0
   -5.1090   17.6140  -32.9140 C   0  0  0  0  0  0  0  0  0  0  0  0
   -6.0970   18.0310  -33.9970 C   0  0  0  0  0  0  0  0  0  0  0  0
   -5.3680   17.7950  -35.3140 C   0  0  0  0  0  0  0  0  0  0  0  0
   -3.9240   17.4650  -34.9420 C   0  0  0  0  0  0  0  0  0  0  0  0
   -0.7160   18.6720  -34.4340 C   0  0  0  0  0  0  0  0  0  0  0  0
   -1.2410   19.5330  -33.4700 C   0  0  0  0  0  0  0  0  0  0  0  0
   -7.0500   20.0770  -31.7000 C   0  0  0  0  0  0  0  0  0  0  0  0
   -9.1272   18.1817  -30.6268 H   0  0  0  0  0  0  0  0  0  0  0  0
   -9.9766   18.4770  -32.1818 H   0  0  0  0  0  0  0  0  0  0  0  0
   -8.3112   17.8039  -32.1818 H   0  0  0  0  0  0  0  0  0  0  0  0
  -10.3718   20.8559  -31.8718 H   0  0  0  0  0  0  0  0  0  0  0  0
   -9.4138   23.1472  -32.0460 H   0  0  0  0  0  0  0  0  0  0  0  0
   -6.6479   24.3343  -31.1179 H   0  0  0  0  0  0  0  0  0  0  0  0
   -5.8697   23.8526  -32.6636 H   0  0  0  0  0  0  0  0  0  0  0  0
   -7.5501   24.4875  -32.6636 H   0  0  0  0  0  0  0  0  0  0  0  0
   -6.1635   22.8974  -29.9313 H   0  0  0  0  0  0  0  0  0  0  0  0
   -5.4952   24.2731  -27.9727 H   0  0  0  0  0  0  0  0  0  0  0  0
   -3.0900   24.5387  -27.3890 H   0  0  0  0  0  0  0  0  0  0  0  0
   -1.3453   23.3723  -28.7255 H   0  0  0  0  0  0  0  0  0  0  0  0
   -0.0511   22.4692  -34.8231 H   0  0  0  0  0  0  0  0  0  0  0  0
    0.8683   20.8546  -36.5193 H   0  0  0  0  0  0  0  0  0  0  0  0
    0.9820   18.1970  -37.1640 H   0  0  0  0  0  0  0  0  0  0  0  0
    0.0454   15.9881  -36.1509 H   0  0  0  0  0  0  0  0  0  0  0  0
   -2.1063   15.6275  -34.4141 H   0  0  0  0  0  0  0  0  0  0  0  0
   -0.8782   15.8406  -33.0729 H   0  0  0  0  0  0  0  0  0  0  0  0
   -3.1209   16.2183  -32.2278 H   0  0  0  0  0  0  0  0  0  0  0  0
   -2.1098   17.7805  -32.2864 H   0  0  0  0  0  0  0  0  0  0  0  0
   -3.5240   18.7690  -33.4370 H   0  0  0  0  0  0  0  0  0  0  0  0
   -5.2886   16.5709  -32.6143 H   0  0  0  0  0  0  0  0  0  0  0  0
   -5.2141   18.2358  -32.0127 H   0  0  0  0  0  0  0  0  0  0  0  0
   -7.0083   17.4172  -33.9450 H   0  0  0  0  0  0  0  0  0  0  0  0
   -6.4136   19.0784  -33.8839 H   0  0  0  0  0  0  0  0  0  0  0  0
   -5.8241   16.9549  -35.8582 H   0  0  0  0  0  0  0  0  0  0  0  0
   -5.4240   18.6767  -35.9694 H   0  0  0  0  0  0  0  0  0  0  0  0
   -3.7165   16.4029  -35.1392 H   0  0  0  0  0  0  0  0  0  0  0  0
   -3.2189   18.0632  -35.5378 H   0  0  0  0  0  0  0  0  0  0  0  0
   -1.8224   19.1434  -32.6213 H   0  0  0  0  0  0  0  0  0  0  0  0
   -6.3873   19.2050  -31.5979 H   0  0  0  0  0  0  0  0  0  0  0  0
  1  2  1  0
  2  3  2  0
  3  4  1  0
  4  5  2  0
  5  6  1  0
  5  7  1  0
  7  8  1  0
  8  9  2  0
  8 10  2  0
  8 11  1  0
 11 12  2  0
 12 13  1  0
 13 14  2  0
 14 15  1  0
 15 16  2  0
 16 17  1  0
 17 18  2  0
 17 19  2  0
 17 20  1  0
 20 21  1  0
 21 22  2  0
 22 23  1  0
 23 24  2  0
 24 25  1  0
 25 26  1  0
 26 27  2  0
 27 28  1  0
 28 29  1  0
 29 30  1  0
 30 31  1  0
 31 32  1  0
 32 33  1  0
 33 34  1  0
 27 35  1  0
 35 36  2  0
  7 37  2  0
 37  2  1  0
 16 11  1  0
 36 21  1  0
 35 24  1  0
 34 30  1  0
  1 38  1  0
  1 39  1  0
  1 40  1  0
  3 41  1  0
  4 42  1  0
  6 43  1  0
  6 44  1  0
  6 45  1  0
 12 46  1  0
 13 47  1  0
 14 48  1  0
 15 49  1  0
 22 50  1  0
 23 51  1  0
 25 52  1  0
 26 53  1  0
 28 54  1  0
 28 55  1  0
 29 56  1  0
 29 57  1  0
 30 58  1  0
 31 59  1  0
 31 60  1  0
 32 61  1  0
 32 62  1  0
 33 63  1  0
 33 64  1  0
 34 65  1  0
 34 66  1  0
 36 67  1  0
 37 68  1  0
M  CHG  2  20  -1  30   1
M  END
>  <UniqueID>  (22) 
21

>  <SMILES>  (22) 
Cc1ccc(C)c(S(=O)(=O)c2ccccc2S(=O)(=O)[N-]c2ccc3[nH]cc(CC[NH+]4CCCC4)c3c2)c1

>  <Energy>  (22) 
125.55660804892557

>  <Genealogy>  (22) 
Cc1ccc(C)c(S(=O)(=O)c2ccccc2S(=O)(=O)[N-]c2ccc3[nH]cc(CC[NH+]4CCCC4)c3c2)c1 (protonated)
Cc1ccc(C)c(S(=O)(=O)c2ccccc2S(=O)(=O)[N-]c2ccc3[nH]cc(CC[NH+]4CCCC4)c3c2)c1 (3D coordinates assigned)
Cc1ccc(C)c(S(=O)(=O)c2ccccc2S(=O)(=O)[N-]c2ccc3[nH]cc(CC[NH+]4CCCC4)c3c2)c1 (nonaromatic ring conformer: 125.55660804892557 kcal/mol)

>  <smiles>  (22) 
Cc1ccc(C)c(S(=O)(=O)c2ccccc2S(=O)(=O)Nc2ccc3[nH]cc(CCN4CCCC4)c3c2)c1

>  <score_type>  (22) 
oracle

>  <origin>  (22) 
adgpu

>  <m_score__min__energy>  (22) 
-13.56

>  <m_primary>  (22) 
energy

$$$$
22:0
     RDKit          3D

 76 80  0  0  0  0  0  0  0  0999 V2000
   -8.8290   22.8340  -31.9470 C   0  0  0  0  0  0  0  0  0  0  0  0
   -7.8290   21.8570  -31.4960 N   0  0  0  0  0  0  0  0  0  0  0  0
   -8.1520   20.4550  -31.5740 C   0  0  0  0  0  0  0  0  0  0  0  0
   -9.1190   20.0030  -30.9000 O   0  0  0  0  0  0  0  0  0  0  0  0
   -7.3820   19.5270  -32.4360 C   0  0  0  0  0  0  0  0  0  0  0  0
   -6.8390   19.9620  -33.6570 C   0  0  0  0  0  0  0  0  0  0  0  0
   -6.0980   19.0860  -34.4550 C   0  0  0  0  0  0  0  0  0  0  0  0
   -5.8560   17.7750  -34.0300 C   0  0  0  0  0  0  0  0  0  0  0  0
   -5.1040   16.8940  -34.8720 N   0  0  0  0  0  0  0  0  0  0  0  0
   -3.8020   16.3660  -34.5900 C   0  0  0  0  0  0  0  0  0  0  0  0
   -3.7120   15.1770  -34.1830 O   0  0  0  0  0  0  0  0  0  0  0  0
   -2.5460   17.1230  -34.9410 C   0  0  0  0  0  0  0  0  0  0  0  0
   -2.2660   18.2270  -33.9530 C   0  0  0  0  0  0  0  0  0  0  0  0
   -1.2010   18.1100  -33.0450 C   0  0  0  0  0  0  0  0  0  0  0  0
   -0.9360   19.1330  -32.1320 C   0  0  0  0  0  0  0  0  0  0  0  0
   -1.7420   20.2790  -32.0930 C   0  0  0  0  0  0  0  0  0  0  0  0
   -1.4140   21.3380  -31.1780 N   0  0  0  0  0  0  0  0  0  0  0  0
   -2.3690   21.9890  -30.3240 C   0  0  0  0  0  0  0  0  0  0  0  0
   -3.4820   21.4450  -30.0820 O   0  0  0  0  0  0  0  0  0  0  0  0
   -2.0390   23.3130  -29.6790 C   0  0  0  0  0  0  0  0  0  0  0  0
   -3.2870   23.9440  -29.0030 C   0  0  0  0  0  0  0  0  0  0  0  0
   -3.1460   24.0800  -27.4820 C   0  0  0  0  0  0  0  0  0  0  0  0
   -1.8890   24.7690  -27.1500 N   0  0  0  0  0  0  0  0  0  0  0  0
   -1.8640   25.7520  -26.0890 C   0  0  0  0  0  0  0  0  0  0  0  0
   -2.8430   25.8300  -25.2950 O   0  0  0  0  0  0  0  0  0  0  0  0
   -0.7330   26.7610  -25.9720 C   0  0  0  0  0  0  0  0  0  0  0  0
    0.5930   26.1210  -25.5570 C   0  0  0  0  0  0  0  0  0  0  0  0
    0.6430   26.1840  -24.0340 C   0  0  0  0  0  0  0  0  0  0  0  0
   -0.4270   27.1820  -23.5950 C   0  0  0  0  0  0  0  0  0  0  0  0
   -1.0290   27.7680  -24.8660 C   0  0  0  0  0  0  0  0  0  0  0  0
   -0.6480   24.3890  -27.8450 C   0  0  0  0  0  0  0  0  0  0  0  0
   -0.8440   23.1440  -28.7180 C   0  0  0  0  0  0  0  0  0  0  0  0
   -2.8080   20.3980  -33.0030 C   0  0  0  0  0  0  0  0  0  0  0  0
   -3.0720   19.3760  -33.9190 C   0  0  0  0  0  0  0  0  0  0  0  0
   -6.4070   17.3310  -32.8200 C   0  0  0  0  0  0  0  0  0  0  0  0
   -7.1530   18.2030  -32.0220 C   0  0  0  0  0  0  0  0  0  0  0  0
   -6.4190   22.2240  -31.2540 C   0  0  0  0  0  0  0  0  0  0  0  0
   -6.2370   23.6550  -30.7680 C   0  0  0  0  0  0  0  0  0  0  0  0
   -5.7810   23.2690  -32.1680 C   0  0  0  0  0  0  0  0  0  0  0  0
   -9.3064   23.3004  -31.0726 H   0  0  0  0  0  0  0  0  0  0  0  0
   -8.3371   23.6090  -32.5531 H   0  0  0  0  0  0  0  0  0  0  0  0
   -9.5924   22.3242  -32.5531 H   0  0  0  0  0  0  0  0  0  0  0  0
   -6.9983   20.9992  -33.9869 H   0  0  0  0  0  0  0  0  0  0  0  0
   -5.7028   19.4291  -35.4226 H   0  0  0  0  0  0  0  0  0  0  0  0
   -1.6971   16.4234  -34.9439 H   0  0  0  0  0  0  0  0  0  0  0  0
   -2.6854   17.5776  -35.9329 H   0  0  0  0  0  0  0  0  0  0  0  0
   -0.5721   17.2076  -33.0530 H   0  0  0  0  0  0  0  0  0  0  0  0
   -0.0879   19.0386  -31.4379 H   0  0  0  0  0  0  0  0  0  0  0  0
   -0.4120   21.6270  -31.1060 H   0  0  0  0  0  0  0  0  0  0  0  0
   -1.7338   24.0287  -30.4566 H   0  0  0  0  0  0  0  0  0  0  0  0
   -3.4475   24.9449  -29.4302 H   0  0  0  0  0  0  0  0  0  0  0  0
   -4.1369   23.2723  -29.1938 H   0  0  0  0  0  0  0  0  0  0  0  0
   -3.9937   24.6601  -27.0885 H   0  0  0  0  0  0  0  0  0  0  0  0
   -3.1368   23.0771  -27.0303 H   0  0  0  0  0  0  0  0  0  0  0  0
   -0.6557   27.2183  -26.9694 H   0  0  0  0  0  0  0  0  0  0  0  0
    0.6334   25.0754  -25.8961 H   0  0  0  0  0  0  0  0  0  0  0  0
    1.4480   26.6474  -26.0064 H   0  0  0  0  0  0  0  0  0  0  0  0
    0.4327   25.1921  -23.6074 H   0  0  0  0  0  0  0  0  0  0  0  0
    1.6386   26.4960  -23.6856 H   0  0  0  0  0  0  0  0  0  0  0  0
   -1.2044   26.6704  -23.0085 H   0  0  0  0  0  0  0  0  0  0  0  0
    0.0048   27.9713  -22.9620 H   0  0  0  0  0  0  0  0  0  0  0  0
   -2.1148   27.9000  -24.7494 H   0  0  0  0  0  0  0  0  0  0  0  0
   -0.6040   28.7563  -25.0955 H   0  0  0  0  0  0  0  0  0  0  0  0
   -0.3271   25.2251  -28.4837 H   0  0  0  0  0  0  0  0  0  0  0  0
    0.1130   24.1580  -27.0851 H   0  0  0  0  0  0  0  0  0  0  0  0
    0.0685   22.9734  -29.3081 H   0  0  0  0  0  0  0  0  0  0  0  0
   -1.0483   22.2875  -28.0587 H   0  0  0  0  0  0  0  0  0  0  0  0
   -3.4372   21.3002  -32.9936 H   0  0  0  0  0  0  0  0  0  0  0  0
   -3.9163   19.4724  -34.6175 H   0  0  0  0  0  0  0  0  0  0  0  0
   -6.2515   16.2911  -32.4968 H   0  0  0  0  0  0  0  0  0  0  0  0
   -7.5635   17.8512  -31.0640 H   0  0  0  0  0  0  0  0  0  0  0  0
   -6.1137   21.2181  -30.9302 H   0  0  0  0  0  0  0  0  0  0  0  0
   -7.1138   24.3059  -30.6358 H   0  0  0  0  0  0  0  0  0  0  0  0
   -5.7564   24.1238  -29.8966 H   0  0  0  0  0  0  0  0  0  0  0  0
   -6.3289   23.6394  -33.0470 H   0  0  0  0  0  0  0  0  0  0  0  0
   -4.8363   23.3418  -32.7268 H   0  0  0  0  0  0  0  0  0  0  0  0
  1  2  1  0
  2  3  1  0
  3  4  2  0
  3  5  1  0
  5  6  2  0
  6  7  1  0
  7  8  2  0
  8  9  1  0
  9 10  1  0
 10 11  2  0
 10 12  1  0
 12 13  1  0
 13 14  2  0
 14 15  1  0
 15 16  2  0
 16 17  1  0
 17 18  1  0
 18 19  2  0
 18 20  1  0
 20 21  1  0
 21 22  1  0
 22 23  1  0
 23 24  1  0
 24 25  2  0
 24 26  1  0
 26 27  1  0
 27 28  1  0
 28 29  1  0
 29 30  1  0
 23 31  1  0
 31 32  1  0
 16 33  1  0
 33 34  2  0
  8 35  1  0
 35 36  2  0
  2 37  1  0
 37 38  1  0
 38 39  1  0
 36  5  1  0
 39 37  1  0
 34 13  1  0
 32 20  1  0
 30 26  1  0
  1 40  1  0
  1 41  1  0
  1 42  1  0
  6 43  1  0
  7 44  1  0
 12 45  1  0
 12 46  1  0
 14 47  1  0
 15 48  1  0
 17 49  1  0
 20 50  1  0
 21 51  1  0
 21 52  1  0
 22 53  1  0
 22 54  1  0
 26 55  1  0
 27 56  1  0
 27 57  1  0
 28 58  1  0
 28 59  1  0
 29 60  1  0
 29 61  1  0
 30 62  1  0
 30 63  1  0
 31 64  1  0
 31 65  1  0
 32 66  1  0
 32 67  1  0
 33 68  1  0
 34 69  1  0
 35 70  1  0
 36 71  1  0
 37 72  1  0
 38 73  1  0
 38 74  1  0
 39 75  1  0
 39 76  1  0
M  CHG  1   9  -1
M  END
>  <UniqueID>  (23) 
22

>  <SMILES>  (23) 
CN(C(=O)c1ccc([N-]C(=O)Cc2ccc(NC(=O)C3CCN(C(=O)C4CCCC4)CC3)cc2)cc1)C1CC1

>  <Energy>  (23) 
363.0656331837642

>  <Genealogy>  (23) 
CN(C(=O)c1ccc([N-]C(=O)Cc2ccc(NC(=O)C3CCN(C(=O)C4CCCC4)CC3)cc2)cc1)C1CC1 (protonated)
CN(C(=O)c1ccc([N-]C(=O)Cc2ccc(NC(=O)C3CCN(C(=O)C4CCCC4)CC3)cc2)cc1)C1CC1 (3D coordinates assigned)
CN(C(=O)c1ccc([N-]C(=O)Cc2ccc(NC(=O)C3CCN(C(=O)C4CCCC4)CC3)cc2)cc1)C1CC1 (nonaromatic ring conformer: 363.0656331837642 kcal/mol)

>  <smiles>  (23) 
CN(C(=O)c1ccc(NC(=O)Cc2ccc(NC(=O)C3CCN(C(=O)C4CCCC4)CC3)cc2)cc1)C1CC1

>  <score_type>  (23) 
oracle

>  <origin>  (23) 
adgpu

>  <m_score__min__energy>  (23) 
-11.34

>  <m_primary>  (23) 
energy

$$$$
23:0
     RDKit          3D

 34 37  0  0  0  0  0  0  0  0999 V2000
   -1.6950   24.9880  -29.2860 O   0  0  0  0  0  0  0  0  0  0  0  0
   -1.8280   23.6110  -29.4820 C   0  0  0  0  0  0  0  0  0  0  0  0
   -0.7860   22.7780  -29.0560 C   0  0  0  0  0  0  0  0  0  0  0  0
   -0.8850   21.3930  -29.1940 C   0  0  0  0  0  0  0  0  0  0  0  0
   -2.0250   20.8270  -29.7650 C   0  0  0  0  0  0  0  0  0  0  0  0
   -3.0670   21.6460  -30.2050 C   0  0  0  0  0  0  0  0  0  0  0  0
   -2.9830   23.0420  -30.0690 C   0  0  0  0  0  0  0  0  0  0  0  0
   -4.0830   23.8830  -30.5850 C   0  0  0  0  0  0  0  0  0  0  0  0
   -4.1130   25.2240  -30.4700 N   0  0  0  0  0  0  0  0  0  0  0  0
   -5.1660   25.6130  -31.1760 N   0  0  0  0  0  0  0  0  0  0  0  0
   -5.7610   24.5610  -31.7170 N   0  0  0  0  0  0  0  0  0  0  0  0
   -5.1050   23.4690  -31.3650 N   0  0  0  0  0  0  0  0  0  0  0  0
   -5.4950   22.1370  -31.7400 C   0  0  0  0  0  0  0  0  0  0  0  0
   -6.6700   21.5540  -31.2270 C   0  0  0  0  0  0  0  0  0  0  0  0
   -7.0400   20.2590  -31.6010 C   0  0  0  0  0  0  0  0  0  0  0  0
   -6.2470   19.5410  -32.4990 C   0  0  0  0  0  0  0  0  0  0  0  0
   -5.1020   20.1300  -33.0510 C   0  0  0  0  0  0  0  0  0  0  0  0
   -4.7220   21.4180  -32.6680 C   0  0  0  0  0  0  0  0  0  0  0  0
   -4.3520   19.4090  -33.9860 O   0  0  0  0  0  0  0  0  0  0  0  0
   -4.8670   18.2200  -34.5880 C   0  0  0  0  0  0  0  0  0  0  0  0
   -5.6500   17.3970  -33.5550 C   0  0  0  0  0  0  0  0  0  0  0  0
   -6.5820   18.2320  -32.8620 O   0  0  0  0  0  0  0  0  0  0  0  0
   -2.0470   25.6740  -29.9410 H   0  0  0  0  0  0  0  0  0  0  0  0
    0.1174   23.2188  -28.6092 H   0  0  0  0  0  0  0  0  0  0  0  0
   -0.0631   20.7467  -28.8521 H   0  0  0  0  0  0  0  0  0  0  0  0
   -2.1032   19.7347  -29.8687 H   0  0  0  0  0  0  0  0  0  0  0  0
   -3.9603   21.1948  -30.6615 H   0  0  0  0  0  0  0  0  0  0  0  0
   -7.3009   22.1217  -30.5272 H   0  0  0  0  0  0  0  0  0  0  0  0
   -7.9539   19.8063  -31.1889 H   0  0  0  0  0  0  0  0  0  0  0  0
   -3.8148   21.8714  -33.0939 H   0  0  0  0  0  0  0  0  0  0  0  0
   -5.5362   18.4934  -35.4171 H   0  0  0  0  0  0  0  0  0  0  0  0
   -4.0278   17.6169  -34.9649 H   0  0  0  0  0  0  0  0  0  0  0  0
   -6.1958   16.5924  -34.0696 H   0  0  0  0  0  0  0  0  0  0  0  0
   -4.9442   16.9672  -32.8289 H   0  0  0  0  0  0  0  0  0  0  0  0
  1  2  1  0
  2  3  2  0
  3  4  1  0
  4  5  2  0
  5  6  1  0
  6  7  2  0
  7  8  1  0
  8  9  2  0
  9 10  1  0
 10 11  2  0
 11 12  1  0
 12 13  1  0
 13 14  2  0
 14 15  1  0
 15 16  2  0
 16 17  1  0
 17 18  2  0
 17 19  1  0
 19 20  1  0
 20 21  1  0
 21 22  1  0
  7  2  1  0
 12  8  1  0
 18 13  1  0
 22 16  1  0
  1 23  1  0
  3 24  1  0
  4 25  1  0
  5 26  1  0
  6 27  1  0
 14 28  1  0
 15 29  1  0
 18 30  1  0
 20 31  1  0
 20 32  1  0
 21 33  1  0
 21 34  1  0
M  END
>  <UniqueID>  (24) 
23

>  <SMILES>  (24) 
Oc1ccccc1-c1nnnn1-c1ccc2c(c1)OCCO2

>  <Energy>  (24) 
89.52417580588411

>  <Genealogy>  (24) 
Oc1ccccc1-c1nnnn1-c1ccc2c(c1)OCCO2 (3D coordinates assigned)
Oc1ccccc1-c1nnnn1-c1ccc2c(c1)OCCO2 (nonaromatic ring conformer: 89.52417580588411 kcal/mol)

>  <smiles>  (24) 
Oc1ccccc1-c1nnnn1-c1ccc2c(c1)OCCO2

>  <score_type>  (24) 
oracle

>  <origin>  (24) 
adgpu

>  <m_score__min__energy>  (24) 
-8.4800000000000004

>  <m_primary>  (24) 
energy

$$$$
24:0
     RDKit          3D

 53 56  0  0  0  0  0  0  0  0999 V2000
   -1.5910   23.3210  -30.0680 O   0  0  0  0  0  0  0  0  0  0  0  0
   -2.1690   24.2120  -29.3900 C   0  0  0  0  0  0  0  0  0  0  0  0
   -3.3780   24.8090  -29.8790 N   0  0  0  0  0  0  0  0  0  0  0  0
   -4.5850   24.1240  -30.2440 C   0  0  0  0  0  0  0  0  0  0  0  0
   -5.6860   24.8820  -30.6630 C   0  0  0  0  0  0  0  0  0  0  0  0
   -6.8890   24.2560  -31.0050 C   0  0  0  0  0  0  0  0  0  0  0  0
   -7.0090   22.8640  -30.9100 C   0  0  0  0  0  0  0  0  0  0  0  0
   -8.5130   22.0610  -31.3480 S   0  0  0  0  0  0  0  0  0  0  0  0
   -9.3850   21.9380  -30.1300 O   0  0  0  0  0  0  0  0  0  0  0  0
   -9.2570   22.8650  -32.3790 O   0  0  0  0  0  0  0  0  0  0  0  0
   -8.1450   20.4710  -32.0060 C   0  0  0  0  0  0  0  0  0  0  0  0
   -9.0210   19.4040  -31.7760 C   0  0  0  0  0  0  0  0  0  0  0  0
   -8.7490   18.1450  -32.3140 C   0  0  0  0  0  0  0  0  0  0  0  0
   -7.5990   17.9430  -33.0820 C   0  0  0  0  0  0  0  0  0  0  0  0
   -6.7040   19.0000  -33.3120 C   0  0  0  0  0  0  0  0  0  0  0  0
   -5.4900   18.8000  -34.1360 C   0  0  0  0  0  0  0  0  0  0  0  0
   -5.6070   18.2820  -35.2800 O   0  0  0  0  0  0  0  0  0  0  0  0
   -4.1840   19.1950  -33.6700 N   0  0  0  0  0  0  0  0  0  0  0  0
   -3.9950   20.3840  -32.8340 C   0  0  0  0  0  0  0  0  0  0  0  0
   -2.7400   21.1350  -33.2910 C   0  0  0  0  0  0  0  0  0  0  0  0
   -1.6230   20.2650  -33.3380 O   0  0  0  0  0  0  0  0  0  0  0  0
   -1.8270   19.2740  -34.3280 C   0  0  0  0  0  0  0  0  0  0  0  0
   -3.0080   18.3700  -33.9620 C   0  0  0  0  0  0  0  0  0  0  0  0
   -6.9940   20.2710  -32.7830 C   0  0  0  0  0  0  0  0  0  0  0  0
   -5.9180   22.1030  -30.4750 C   0  0  0  0  0  0  0  0  0  0  0  0
   -4.7130   22.7270  -30.1350 C   0  0  0  0  0  0  0  0  0  0  0  0
   -1.5750   24.6840  -28.1100 C   0  0  0  0  0  0  0  0  0  0  0  0
   -1.4410   23.7860  -27.0310 C   0  0  0  0  0  0  0  0  0  0  0  0
   -0.8850   24.2040  -25.8190 C   0  0  0  0  0  0  0  0  0  0  0  0
   -0.4540   25.5210  -25.6630 C   0  0  0  0  0  0  0  0  0  0  0  0
   -0.5770   26.4250  -26.7190 C   0  0  0  0  0  0  0  0  0  0  0  0
   -1.1320   26.0180  -27.9380 C   0  0  0  0  0  0  0  0  0  0  0  0
   -1.2330   26.9500  -28.9660 O   0  0  0  0  0  0  0  0  0  0  0  0
   -5.6038   25.9773  -30.7235 H   0  0  0  0  0  0  0  0  0  0  0  0
   -7.7426   24.8583  -31.3493 H   0  0  0  0  0  0  0  0  0  0  0  0
   -9.9259   19.5579  -31.1699 H   0  0  0  0  0  0  0  0  0  0  0  0
   -9.4416   17.3098  -32.1330 H   0  0  0  0  0  0  0  0  0  0  0  0
   -7.3939   16.9501  -33.5088 H   0  0  0  0  0  0  0  0  0  0  0  0
   -4.8712   21.0422  -32.9290 H   0  0  0  0  0  0  0  0  0  0  0  0
   -3.8779   20.0791  -31.7836 H   0  0  0  0  0  0  0  0  0  0  0  0
   -2.9145   21.5525  -34.2936 H   0  0  0  0  0  0  0  0  0  0  0  0
   -2.5297   21.9408  -32.5723 H   0  0  0  0  0  0  0  0  0  0  0  0
   -2.0336   19.7641  -35.2909 H   0  0  0  0  0  0  0  0  0  0  0  0
   -0.9199   18.6557  -34.3981 H   0  0  0  0  0  0  0  0  0  0  0  0
   -3.2310   17.6992  -34.8048 H   0  0  0  0  0  0  0  0  0  0  0  0
   -2.7506   17.7723  -33.0752 H   0  0  0  0  0  0  0  0  0  0  0  0
   -6.3142   21.1131  -32.9798 H   0  0  0  0  0  0  0  0  0  0  0  0
   -6.0084   21.0093  -30.4001 H   0  0  0  0  0  0  0  0  0  0  0  0
   -3.8635   22.1241  -29.7816 H   0  0  0  0  0  0  0  0  0  0  0  0
   -1.7778   22.7450  -27.1446 H   0  0  0  0  0  0  0  0  0  0  0  0
   -0.7871   23.4924  -24.9859 H   0  0  0  0  0  0  0  0  0  0  0  0
   -0.0171   25.8473  -24.7077 H   0  0  0  0  0  0  0  0  0  0  0  0
   -0.2359   27.4631  -26.5928 H   0  0  0  0  0  0  0  0  0  0  0  0
  1  2  2  0
  2  3  1  0
  3  4  1  0
  4  5  2  0
  5  6  1  0
  6  7  2  0
  7  8  1  0
  8  9  2  0
  8 10  2  0
  8 11  1  0
 11 12  2  0
 12 13  1  0
 13 14  2  0
 14 15  1  0
 15 16  1  0
 16 17  2  0
 16 18  1  0
 18 19  1  0
 19 20  1  0
 20 21  1  0
 21 22  1  0
 22 23  1  0
 15 24  2  0
  7 25  1  0
 25 26  2  0
  2 27  1  0
 27 28  2  0
 28 29  1  0
 29 30  2  0
 30 31  1  0
 31 32  2  0
 32 33  1  0
 26  4  1  0
 32 27  1  0
 24 11  1  0
 23 18  1  0
  5 34  1  0
  6 35  1  0
 12 36  1  0
 13 37  1  0
 14 38  1  0
 19 39  1  0
 19 40  1  0
 20 41  1  0
 20 42  1  0
 22 43  1  0
 22 44  1  0
 23 45  1  0
 23 46  1  0
 24 47  1  0
 25 48  1  0
 26 49  1  0
 28 50  1  0
 29 51  1  0
 30 52  1  0
 31 53  1  0
M  CHG  2   3  -1  33  -1
M  END
>  <UniqueID>  (25) 
24

>  <SMILES>  (25) 
O=C([N-]c1ccc(S(=O)(=O)c2cccc(C(=O)N3CCOCC3)c2)cc1)c1ccccc1[O-]

>  <Energy>  (25) 
71.69799782862165

>  <Genealogy>  (25) 
O=C([N-]c1ccc(S(=O)(=O)c2cccc(C(=O)N3CCOCC3)c2)cc1)c1ccccc1[O-] (protonated)
O=C([N-]c1ccc(S(=O)(=O)c2cccc(C(=O)N3CCOCC3)c2)cc1)c1ccccc1[O-] (3D coordinates assigned)
O=C([N-]c1ccc(S(=O)(=O)c2cccc(C(=O)N3CCOCC3)c2)cc1)c1ccccc1[O-] (nonaromatic ring conformer: 71.69799782862165 kcal/mol)

>  <smiles>  (25) 
O=C(Nc1ccc(S(=O)(=O)c2cccc(C(=O)N3CCOCC3)c2)cc1)c1ccccc1O

>  <score_type>  (25) 
oracle

>  <origin>  (25) 
adgpu

>  <m_score__min__energy>  (25) 
-14.69

>  <m_primary>  (25) 
energy

$$$$
25:0
     RDKit          3D

 62 65  0  0  0  0  0  0  0  0999 V2000
   -0.5360   21.2700  -34.2890 C   0  0  0  0  0  0  0  0  0  0  0  0
   -0.2940   20.7470  -32.9120 C   0  0  0  0  0  0  0  0  0  0  0  0
   -0.1900   21.5410  -31.8260 N   0  0  0  0  0  0  0  0  0  0  0  0
   -0.0480   20.7630  -30.7610 N   0  0  0  0  0  0  0  0  0  0  0  0
    0.1240   21.2890  -29.4060 C   0  0  0  0  0  0  0  0  0  0  0  0
   -0.8440   20.6250  -28.4640 C   0  0  0  0  0  0  0  0  0  0  0  0
   -0.3960   19.6410  -27.5680 C   0  0  0  0  0  0  0  0  0  0  0  0
   -1.3010   19.0060  -26.7080 C   0  0  0  0  0  0  0  0  0  0  0  0
   -2.6620   19.3350  -26.7540 C   0  0  0  0  0  0  0  0  0  0  0  0
   -3.7960   18.5300  -25.6810 Cl  0  0  0  0  0  0  0  0  0  0  0  0
   -3.1160   20.2990  -27.6610 C   0  0  0  0  0  0  0  0  0  0  0  0
   -2.2130   20.9430  -28.5140 C   0  0  0  0  0  0  0  0  0  0  0  0
   -0.0490   19.4670  -31.1430 C   0  0  0  0  0  0  0  0  0  0  0  0
    0.0970   18.2890  -30.2290 C   0  0  0  0  0  0  0  0  0  0  0  0
   -0.1760   19.4250  -32.5140 C   0  0  0  0  0  0  0  0  0  0  0  0
   -0.2760   18.2430  -33.3170 N   0  0  0  0  0  0  0  0  0  0  0  0
   -1.0900   18.0960  -34.4890 C   0  0  0  0  0  0  0  0  0  0  0  0
   -0.5810   18.3370  -35.6190 O   0  0  0  0  0  0  0  0  0  0  0  0
   -2.5440   17.7180  -34.4080 C   0  0  0  0  0  0  0  0  0  0  0  0
   -3.3870   18.9020  -34.5380 N   0  0  0  0  0  0  0  0  0  0  0  0
   -4.5320   19.1540  -33.7130 C   0  0  0  0  0  0  0  0  0  0  0  0
   -5.5090   18.3550  -33.7350 O   0  0  0  0  0  0  0  0  0  0  0  0
   -4.5620   20.3390  -32.8240 C   0  0  0  0  0  0  0  0  0  0  0  0
   -5.7480   21.0770  -32.6530 C   0  0  0  0  0  0  0  0  0  0  0  0
   -5.7690   22.2060  -31.8250 C   0  0  0  0  0  0  0  0  0  0  0  0
   -4.6070   22.6170  -31.1590 C   0  0  0  0  0  0  0  0  0  0  0  0
   -4.6450   24.0280  -30.0970 S   0  0  0  0  0  0  0  0  0  0  0  0
   -6.0590   24.2610  -29.6420 O   0  0  0  0  0  0  0  0  0  0  0  0
   -4.2050   25.2380  -30.8750 O   0  0  0  0  0  0  0  0  0  0  0  0
   -3.6210   23.8530  -28.6910 N   0  0  0  0  0  0  0  0  0  0  0  0
   -2.3140   24.4810  -28.8810 C   0  0  0  0  0  0  0  0  0  0  0  0
   -1.7930   24.8080  -27.4890 C   0  0  0  0  0  0  0  0  0  0  0  0
   -3.0180   24.8050  -26.5870 C   0  0  0  0  0  0  0  0  0  0  0  0
   -4.1930   24.4900  -27.5060 C   0  0  0  0  0  0  0  0  0  0  0  0
   -3.4250   21.8760  -31.3160 C   0  0  0  0  0  0  0  0  0  0  0  0
   -3.4030   20.7470  -32.1410 C   0  0  0  0  0  0  0  0  0  0  0  0
   -0.9972   22.2667  -34.2269 H   0  0  0  0  0  0  0  0  0  0  0  0
    0.4205   21.3415  -34.8274 H   0  0  0  0  0  0  0  0  0  0  0  0
   -1.2097   20.5872  -34.8274 H   0  0  0  0  0  0  0  0  0  0  0  0
    1.1523   21.0931  -29.0680 H   0  0  0  0  0  0  0  0  0  0  0  0
   -0.0687   22.3720  -29.4142 H   0  0  0  0  0  0  0  0  0  0  0  0
    0.6692   19.3680  -27.5414 H   0  0  0  0  0  0  0  0  0  0  0  0
   -0.9427   18.2482  -25.9957 H   0  0  0  0  0  0  0  0  0  0  0  0
   -4.1858   20.5512  -27.7035 H   0  0  0  0  0  0  0  0  0  0  0  0
   -2.5748   21.6999  -29.2255 H   0  0  0  0  0  0  0  0  0  0  0  0
    0.0549   18.6286  -29.1836 H   0  0  0  0  0  0  0  0  0  0  0  0
   -0.7197   17.5763  -30.4162 H   0  0  0  0  0  0  0  0  0  0  0  0
    1.0630   17.7972  -30.4162 H   0  0  0  0  0  0  0  0  0  0  0  0
   -2.7809   17.0139  -35.2193 H   0  0  0  0  0  0  0  0  0  0  0  0
   -2.7363   17.2494  -33.4316 H   0  0  0  0  0  0  0  0  0  0  0  0
   -6.6653   20.7646  -33.1736 H   0  0  0  0  0  0  0  0  0  0  0  0
   -6.7027   22.7732  -31.6968 H   0  0  0  0  0  0  0  0  0  0  0  0
   -1.6288   23.7883  -29.3915 H   0  0  0  0  0  0  0  0  0  0  0  0
   -2.3906   25.3852  -29.5027 H   0  0  0  0  0  0  0  0  0  0  0  0
   -1.0710   24.0462  -27.1597 H   0  0  0  0  0  0  0  0  0  0  0  0
   -1.2703   25.7756  -27.4652 H   0  0  0  0  0  0  0  0  0  0  0  0
   -2.9209   24.0347  -25.8078 H   0  0  0  0  0  0  0  0  0  0  0  0
   -3.1485   25.7667  -26.0691 H   0  0  0  0  0  0  0  0  0  0  0  0
   -4.8957   23.8066  -27.0068 H   0  0  0  0  0  0  0  0  0  0  0  0
   -4.7526   25.3997  -27.7692 H   0  0  0  0  0  0  0  0  0  0  0  0
   -2.5113   22.1851  -30.7873 H   0  0  0  0  0  0  0  0  0  0  0  0
   -2.4714   20.1736  -32.2564 H   0  0  0  0  0  0  0  0  0  0  0  0
  1  2  1  0
  2  3  2  0
  3  4  1  0
  4  5  1  0
  5  6  1  0
  6  7  2  0
  7  8  1  0
  8  9  2  0
  9 10  1  0
  9 11  1  0
 11 12  2  0
  4 13  1  0
 13 14  1  0
 13 15  2  0
 15 16  1  0
 16 17  1  0
 17 18  2  0
 17 19  1  0
 19 20  1  0
 20 21  1  0
 21 22  2  0
 21 23  1  0
 23 24  2  0
 24 25  1  0
 25 26  2  0
 26 27  1  0
 27 28  2  0
 27 29  2  0
 27 30  1  0
 30 31  1  0
 31 32  1  0
 32 33  1  0
 33 34  1  0
 26 35  1  0
 35 36  2  0
 15  2  1  0
 36 23  1  0
 12  6  1  0
 34 30  1  0
  1 37  1  0
  1 38  1  0
  1 39  1  0
  5 40  1  0
  5 41  1  0
  7 42  1  0
  8 43  1  0
 11 44  1  0
 12 45  1  0
 14 46  1  0
 14 47  1  0
 14 48  1  0
 19 49  1  0
 19 50  1  0
 24 51  1  0
 25 52  1  0
 31 53  1  0
 31 54  1  0
 32 55  1  0
 32 56  1  0
 33 57  1  0
 33 58  1  0
 34 59  1  0
 34 60  1  0
 35 61  1  0
 36 62  1  0
M  CHG  2  16  -1  20  -1
M  END
>  <UniqueID>  (26) 
25

>  <SMILES>  (26) 
Cc1nn(Cc2ccc(Cl)cc2)c(C)c1[N-]C(=O)C[N-]C(=O)c1ccc(S(=O)(=O)N2CCCC2)cc1

>  <Energy>  (26) 
98.71806269011198

>  <Genealogy>  (26) 
Cc1nn(Cc2ccc(Cl)cc2)c(C)c1[N-]C(=O)C[N-]C(=O)c1ccc(S(=O)(=O)N2CCCC2)cc1 (protonated)
Cc1nn(Cc2ccc(Cl)cc2)c(C)c1[N-]C(=O)C[N-]C(=O)c1ccc(S(=O)(=O)N2CCCC2)cc1 (3D coordinates assigned)
Cc1nn(Cc2ccc(Cl)cc2)c(C)c1[N-]C(=O)C[N-]C(=O)c1ccc(S(=O)(=O)N2CCCC2)cc1 (nonaromatic ring conformer: 98.71806269011198 kcal/mol)

>  <smiles>  (26) 
Cc1nn(Cc2ccc(Cl)cc2)c(C)c1NC(=O)CNC(=O)c1ccc(S(=O)(=O)N2CCCC2)cc1

>  <score_type>  (26) 
oracle

>  <origin>  (26) 
adgpu

>  <m_score__min__energy>  (26) 
-13.81

>  <m_primary>  (26) 
energy

$$$$
26:0
     RDKit          3D

 56 60  0  0  0  0  0  0  0  0999 V2000
   -3.2180   23.9240  -27.3290 O   0  0  0  0  0  0  0  0  0  0  0  0
   -3.2170   24.5280  -28.4380 C   0  0  0  0  0  0  0  0  0  0  0  0
   -2.0180   25.1490  -28.9170 N   0  0  0  0  0  0  0  0  0  0  0  0
   -0.7690   25.0820  -28.1570 C   0  0  0  0  0  0  0  0  0  0  0  0
    0.0720   23.8610  -28.5540 C   0  0  0  0  0  0  0  0  0  0  0  0
   -0.7870   22.7350  -29.0690 C   0  0  0  0  0  0  0  0  0  0  0  0
   -1.2990   21.7750  -28.1830 C   0  0  0  0  0  0  0  0  0  0  0  0
   -2.1080   20.7470  -28.6720 C   0  0  0  0  0  0  0  0  0  0  0  0
   -2.4010   20.6820  -29.9990 N   0  0  0  0  0  0  0  0  0  0  0  0
   -1.9210   21.6000  -30.8800 C   0  0  0  0  0  0  0  0  0  0  0  0
   -1.1070   22.6420  -30.4330 C   0  0  0  0  0  0  0  0  0  0  0  0
   -4.4910   24.6490  -29.2230 C   0  0  2  0  0  0  0  0  0  0  0  0
   -5.1740   23.2860  -29.4310 C   0  0  0  0  0  0  0  0  0  0  0  0
   -5.1780   23.1660  -30.9210 C   0  0  0  0  0  0  0  0  0  0  0  0
   -5.7060   22.0280  -31.7030 C   0  0  0  0  0  0  0  0  0  0  0  0
   -4.9390   21.1990  -32.5150 C   0  0  0  0  0  0  0  0  0  0  0  0
   -5.7060   20.2400  -33.0800 N   0  0  0  0  0  0  0  0  0  0  0  0
   -5.2170   19.1550  -33.9330 C   0  0  0  0  0  0  0  0  0  0  0  0
   -3.7560   18.9020  -33.6660 C   0  0  0  0  0  0  0  0  0  0  0  0
   -2.7950   19.8570  -34.0420 C   0  0  0  0  0  0  0  0  0  0  0  0
   -1.4350   19.6120  -33.8280 C   0  0  0  0  0  0  0  0  0  0  0  0
   -1.0220   18.4100  -33.2480 C   0  0  0  0  0  0  0  0  0  0  0  0
   -1.9680   17.4520  -32.8770 C   0  0  0  0  0  0  0  0  0  0  0  0
   -3.3320   17.6920  -33.0840 C   0  0  0  0  0  0  0  0  0  0  0  0
   -4.2320   16.7470  -32.7140 F   0  0  0  0  0  0  0  0  0  0  0  0
   -6.9630   20.4450  -32.6300 C   0  0  0  0  0  0  0  0  0  0  0  0
   -8.1130   19.7080  -32.9290 C   0  0  0  0  0  0  0  0  0  0  0  0
   -9.3260   20.1050  -32.3440 C   0  0  0  0  0  0  0  0  0  0  0  0
   -9.3710   21.2190  -31.4820 C   0  0  0  0  0  0  0  0  0  0  0  0
   -8.2040   21.9470  -31.1950 C   0  0  0  0  0  0  0  0  0  0  0  0
   -7.0030   21.5340  -31.7860 C   0  0  0  0  0  0  0  0  0  0  0  0
   -4.6410   24.1880  -31.4910 N   0  0  0  0  0  0  0  0  0  0  0  0
   -4.2230   25.0850  -30.5440 O   0  0  0  0  0  0  0  0  0  0  0  0
   -2.0560   25.6740  -29.8210 H   0  0  0  0  0  0  0  0  0  0  0  0
   -0.1855   25.9945  -28.3489 H   0  0  0  0  0  0  0  0  0  0  0  0
   -1.0211   24.9926  -27.0900 H   0  0  0  0  0  0  0  0  0  0  0  0
    0.7808   24.1573  -29.3413 H   0  0  0  0  0  0  0  0  0  0  0  0
    0.6028   23.5050  -27.6587 H   0  0  0  0  0  0  0  0  0  0  0  0
   -1.0646   21.8317  -27.1098 H   0  0  0  0  0  0  0  0  0  0  0  0
   -2.5089   19.9888  -27.9833 H   0  0  0  0  0  0  0  0  0  0  0  0
   -2.1748   21.5212  -31.9474 H   0  0  0  0  0  0  0  0  0  0  0  0
   -0.7187   23.3855  -31.1447 H   0  0  0  0  0  0  0  0  0  0  0  0
   -5.1186   25.3451  -28.6473 H   0  0  0  0  0  0  0  0  0  0  0  0
   -4.5959   22.4739  -28.9660 H   0  0  0  0  0  0  0  0  0  0  0  0
   -6.1736   23.2164  -28.9773 H   0  0  0  0  0  0  0  0  0  0  0  0
   -3.8563   21.3088  -32.6754 H   0  0  0  0  0  0  0  0  0  0  0  0
   -5.7891   18.2398  -33.7206 H   0  0  0  0  0  0  0  0  0  0  0  0
   -5.3450   19.4415  -34.9873 H   0  0  0  0  0  0  0  0  0  0  0  0
   -3.1145   20.8014  -34.5067 H   0  0  0  0  0  0  0  0  0  0  0  0
   -0.6890   20.3670  -34.1168 H   0  0  0  0  0  0  0  0  0  0  0  0
    0.0486   18.2181  -33.0835 H   0  0  0  0  0  0  0  0  0  0  0  0
   -1.6407   16.5061  -32.4208 H   0  0  0  0  0  0  0  0  0  0  0  0
   -8.0686   18.8407  -33.6042 H   0  0  0  0  0  0  0  0  0  0  0  0
  -10.2467   19.5432  -32.5598 H   0  0  0  0  0  0  0  0  0  0  0  0
  -10.3274   21.5210  -31.0302 H   0  0  0  0  0  0  0  0  0  0  0  0
   -8.2327   22.8182  -30.5240 H   0  0  0  0  0  0  0  0  0  0  0  0
  1  2  2  0
  2  3  1  0
  3  4  1  0
  4  5  1  0
  5  6  1  0
  6  7  2  0
  7  8  1  0
  8  9  2  0
  9 10  1  0
 10 11  2  0
  2 12  1  0
 12 13  1  0
 13 14  1  0
 14 15  1  0
 15 16  2  0
 16 17  1  0
 17 18  1  0
 18 19  1  0
 19 20  2  0
 20 21  1  0
 21 22  2  0
 22 23  1  0
 23 24  2  0
 24 25  1  0
 17 26  1  0
 26 27  2  0
 27 28  1  0
 28 29  2  0
 29 30  1  0
 30 31  2  0
 14 32  2  0
 32 33  1  0
 11  6  1  0
 33 12  1  0
 31 15  1  0
 24 19  1  0
 31 26  1  0
  3 34  1  0
  4 35  1  0
  4 36  1  0
  5 37  1  0
  5 38  1  0
  7 39  1  0
  8 40  1  0
 10 41  1  0
 11 42  1  0
 12 43  1  1
 13 44  1  0
 13 45  1  0
 16 46  1  0
 18 47  1  0
 18 48  1  0
 20 49  1  0
 21 50  1  0
 22 51  1  0
 23 52  1  0
 27 53  1  0
 28 54  1  0
 29 55  1  0
 30 56  1  0
M  END
>  <UniqueID>  (27) 
26

>  <SMILES>  (27) 
O=C(NCCc1ccncc1)[C@@H]1CC(c2cn(Cc3ccccc3F)c3ccccc23)=NO1

>  <Energy>  (27) 
104.47034422424102

>  <Genealogy>  (27) 
O=C(NCCc1ccncc1)[C@@H]1CC(c2cn(Cc3ccccc3F)c3ccccc23)=NO1 (chirality)
O=C(NCCc1ccncc1)[C@@H]1CC(c2cn(Cc3ccccc3F)c3ccccc23)=NO1 (3D coordinates assigned)
O=C(NCCc1ccncc1)[C@@H]1CC(c2cn(Cc3ccccc3F)c3ccccc23)=NO1 (nonaromatic ring conformer: 104.47034422424102 kcal/mol)

>  <smiles>  (27) 
O=C(NCCc1ccncc1)C1CC(c2cn(Cc3ccccc3F)c3ccccc23)=NO1

>  <score_type>  (27) 
oracle

>  <origin>  (27) 
adgpu

>  <m_score__min__energy>  (27) 
-11.220000000000001

>  <m_primary>  (27) 
energy

$$$$
27:0
     RDKit          3D

 54 57  0  0  0  0  0  0  0  0999 V2000
   -4.3850   23.2320  -31.7090 O   0  0  0  0  0  0  0  0  0  0  0  0
   -3.7160   22.4470  -30.9840 C   0  0  0  0  0  0  0  0  0  0  0  0
   -3.8010   21.0260  -31.1930 N   0  0  0  0  0  0  0  0  0  0  0  0
   -4.7740   20.4120  -32.0560 C   0  0  0  0  0  0  0  0  0  0  0  0
   -6.1380   20.4320  -31.7160 C   0  0  0  0  0  0  0  0  0  0  0  0
   -7.0810   19.7620  -32.5050 C   0  0  0  0  0  0  0  0  0  0  0  0
   -8.7850   19.7650  -32.0460 S   0  0  0  0  0  0  0  0  0  0  0  0
   -9.6030   19.2130  -33.1810 O   0  0  0  0  0  0  0  0  0  0  0  0
   -8.9780   18.8650  -30.8580 O   0  0  0  0  0  0  0  0  0  0  0  0
   -9.3550   21.3730  -31.6490 N   0  0  0  0  0  0  0  0  0  0  0  0
   -8.5580   22.4020  -32.3260 C   0  0  0  0  0  0  0  0  0  0  0  0
   -7.5240   22.9350  -31.3450 C   0  0  0  0  0  0  0  0  0  0  0  0
   -7.9500   22.4290  -29.9810 C   0  0  0  0  0  0  0  0  0  0  0  0
   -9.2290   21.6400  -30.2120 C   0  0  0  0  0  0  0  0  0  0  0  0
   -6.6610   19.0690  -33.6460 C   0  0  0  0  0  0  0  0  0  0  0  0
   -5.3080   19.0330  -33.9860 C   0  0  0  0  0  0  0  0  0  0  0  0
   -4.3590   19.6980  -33.1980 C   0  0  0  0  0  0  0  0  0  0  0  0
   -2.9810   19.6610  -33.5910 N   0  0  0  0  0  0  0  0  0  0  0  0
   -2.3770   18.4040  -34.0330 C   0  0  0  0  0  0  0  0  0  0  0  0
   -0.8810   18.4110  -33.7030 C   0  0  0  0  0  0  0  0  0  0  0  0
   -0.2630   19.5850  -34.1980 O   0  0  0  0  0  0  0  0  0  0  0  0
   -0.7760   20.7190  -33.5220 C   0  0  0  0  0  0  0  0  0  0  0  0
   -2.2620   20.9120  -33.8330 C   0  0  0  0  0  0  0  0  0  0  0  0
   -2.8730   23.0110  -29.9060 C   0  0  0  0  0  0  0  0  0  0  0  0
   -2.1820   22.1340  -29.0520 C   0  0  0  0  0  0  0  0  0  0  0  0
   -1.3660   22.6310  -28.0310 C   0  0  0  0  0  0  0  0  0  0  0  0
   -1.2390   24.0080  -27.8470 C   0  0  0  0  0  0  0  0  0  0  0  0
   -1.9340   24.8910  -28.6760 C   0  0  0  0  0  0  0  0  0  0  0  0
   -2.7570   24.4020  -29.6970 C   0  0  0  0  0  0  0  0  0  0  0  0
   -3.4770   25.3070  -30.4690 O   0  0  0  0  0  0  0  0  0  0  0  0
   -3.1570   20.3950  -30.6670 H   0  0  0  0  0  0  0  0  0  0  0  0
   -6.4679   20.9797  -30.8209 H   0  0  0  0  0  0  0  0  0  0  0  0
   -8.0507   21.9642  -33.1984 H   0  0  0  0  0  0  0  0  0  0  0  0
   -9.2099   23.2195  -32.6676 H   0  0  0  0  0  0  0  0  0  0  0  0
   -6.5234   22.5553  -31.5991 H   0  0  0  0  0  0  0  0  0  0  0  0
   -7.4697   24.0334  -31.3707 H   0  0  0  0  0  0  0  0  0  0  0  0
   -7.1717   21.7800  -29.5531 H   0  0  0  0  0  0  0  0  0  0  0  0
   -8.1073   23.2565  -29.2735 H   0  0  0  0  0  0  0  0  0  0  0  0
   -9.1840   20.6896  -29.6601 H   0  0  0  0  0  0  0  0  0  0  0  0
  -10.0971   22.2147  -29.8567 H   0  0  0  0  0  0  0  0  0  0  0  0
   -7.3991   18.5514  -34.2763 H   0  0  0  0  0  0  0  0  0  0  0  0
   -4.9841   18.4785  -34.8791 H   0  0  0  0  0  0  0  0  0  0  0  0
   -2.8623   17.5627  -33.5165 H   0  0  0  0  0  0  0  0  0  0  0  0
   -2.5118   18.2951  -35.1193 H   0  0  0  0  0  0  0  0  0  0  0  0
   -0.7522   18.3683  -32.6114 H   0  0  0  0  0  0  0  0  0  0  0  0
   -0.4107   17.5375  -34.1782 H   0  0  0  0  0  0  0  0  0  0  0  0
   -0.6496   20.5803  -32.4381 H   0  0  0  0  0  0  0  0  0  0  0  0
   -0.2266   21.6096  -33.8611 H   0  0  0  0  0  0  0  0  0  0  0  0
   -2.6720   21.7010  -33.1854 H   0  0  0  0  0  0  0  0  0  0  0  0
   -2.3796   21.2027  -34.8874 H   0  0  0  0  0  0  0  0  0  0  0  0
   -2.2841   21.0472  -29.1881 H   0  0  0  0  0  0  0  0  0  0  0  0
   -0.8241   21.9360  -27.3727 H   0  0  0  0  0  0  0  0  0  0  0  0
   -0.5910   24.3984  -27.0484 H   0  0  0  0  0  0  0  0  0  0  0  0
   -1.8342   25.9761  -28.5259 H   0  0  0  0  0  0  0  0  0  0  0  0
  1  2  2  0
  2  3  1  0
  3  4  1  0
  4  5  2  0
  5  6  1  0
  6  7  1  0
  7  8  2  0
  7  9  2  0
  7 10  1  0
 10 11  1  0
 11 12  1  0
 12 13  1  0
 13 14  1  0
  6 15  2  0
 15 16  1  0
 16 17  2  0
 17 18  1  0
 18 19  1  0
 19 20  1  0
 20 21  1  0
 21 22  1  0
 22 23  1  0
  2 24  1  0
 24 25  2  0
 25 26  1  0
 26 27  2  0
 27 28  1  0
 28 29  2  0
 29 30  1  0
 17  4  1  0
 23 18  1  0
 29 24  1  0
 14 10  1  0
  3 31  1  0
  5 32  1  0
 11 33  1  0
 11 34  1  0
 12 35  1  0
 12 36  1  0
 13 37  1  0
 13 38  1  0
 14 39  1  0
 14 40  1  0
 15 41  1  0
 16 42  1  0
 19 43  1  0
 19 44  1  0
 20 45  1  0
 20 46  1  0
 22 47  1  0
 22 48  1  0
 23 49  1  0
 23 50  1  0
 25 51  1  0
 26 52  1  0
 27 53  1  0
 28 54  1  0
M  CHG  1  30  -1
M  END
>  <UniqueID>  (28) 
27

>  <SMILES>  (28) 
O=C(Nc1cc(S(=O)(=O)N2CCCC2)ccc1N1CCOCC1)c1ccccc1[O-]

>  <Energy>  (28) 
71.14148631367965

>  <Genealogy>  (28) 
O=C(Nc1cc(S(=O)(=O)N2CCCC2)ccc1N1CCOCC1)c1ccccc1[O-] (protonated)
O=C(Nc1cc(S(=O)(=O)N2CCCC2)ccc1N1CCOCC1)c1ccccc1[O-] (3D coordinates assigned)
O=C(Nc1cc(S(=O)(=O)N2CCCC2)ccc1N1CCOCC1)c1ccccc1[O-] (nonaromatic ring conformer: 71.14148631367965 kcal/mol)

>  <smiles>  (28) 
O=C(Nc1cc(S(=O)(=O)N2CCCC2)ccc1N1CCOCC1)c1ccccc1O

>  <score_type>  (28) 
oracle

>  <origin>  (28) 
adgpu

>  <m_score__min__energy>  (28) 
-12.67

>  <m_primary>  (28) 
energy

$$$$
28:0
     RDKit          3D

 56 59  0  0  0  0  0  0  0  0999 V2000
   -3.8660   25.2670  -30.3690 N   0  0  0  0  0  0  0  0  0  0  0  0
   -3.9840   23.5580  -30.5820 S   0  0  0  0  0  0  0  0  0  0  0  0
   -3.6860   22.8780  -29.2750 O   0  0  0  0  0  0  0  0  0  0  0  0
   -2.9830   23.1020  -31.6040 O   0  0  0  0  0  0  0  0  0  0  0  0
   -5.6130   23.1480  -31.1260 C   0  0  0  0  0  0  0  0  0  0  0  0
   -6.6350   24.1090  -31.0470 C   0  0  0  0  0  0  0  0  0  0  0  0
   -7.9290   23.8000  -31.4740 C   0  0  0  0  0  0  0  0  0  0  0  0
   -8.2110   22.5350  -31.9890 C   0  0  0  0  0  0  0  0  0  0  0  0
   -7.2020   21.5720  -32.0800 C   0  0  0  0  0  0  0  0  0  0  0  0
   -5.8960   21.8680  -31.6460 C   0  0  0  0  0  0  0  0  0  0  0  0
   -4.8440   20.8930  -31.7210 N   0  0  0  0  0  0  0  0  0  0  0  0
   -3.6860   20.7490  -33.0020 S   0  0  0  0  0  0  0  0  0  0  0  0
   -3.9890   19.5430  -33.8430 O   0  0  0  0  0  0  0  0  0  0  0  0
   -3.7320   21.9820  -33.8570 O   0  0  0  0  0  0  0  0  0  0  0  0
   -2.0920   20.5580  -32.2850 C   0  0  0  0  0  0  0  0  0  0  0  0
   -0.9360   20.8940  -33.0020 C   0  0  0  0  0  0  0  0  0  0  0  0
    0.3200   20.7700  -32.4030 C   0  0  0  0  0  0  0  0  0  0  0  0
    0.4290   20.3140  -31.0860 C   0  0  0  0  0  0  0  0  0  0  0  0
   -0.7210   19.9690  -30.3560 C   0  0  0  0  0  0  0  0  0  0  0  0
   -0.6050   19.4950  -28.9600 C   0  0  0  0  0  0  0  0  0  0  0  0
    0.5270   19.2080  -28.4820 O   0  0  0  0  0  0  0  0  0  0  0  0
   -1.7560   19.3530  -28.1750 O   0  0  0  0  0  0  0  0  0  0  0  0
   -1.7850   19.6060  -26.7700 C   0  0  0  0  0  0  0  0  0  0  0  0
   -1.4550   21.0390  -26.4640 C   0  0  0  0  0  0  0  0  0  0  0  0
   -0.9220   21.3350  -25.3590 O   0  0  0  0  0  0  0  0  0  0  0  0
   -1.7400   22.0580  -27.4360 N   0  0  0  0  0  0  0  0  0  0  0  0
   -1.5500   23.4660  -27.2110 C   0  0  0  0  0  0  0  0  0  0  0  0
   -2.6170   24.2300  -26.7120 C   0  0  0  0  0  0  0  0  0  0  0  0
   -2.4620   25.6000  -26.4800 C   0  0  0  0  0  0  0  0  0  0  0  0
   -1.2330   26.2140  -26.7350 C   0  0  0  0  0  0  0  0  0  0  0  0
   -0.1470   25.4510  -27.1830 C   0  0  0  0  0  0  0  0  0  0  0  0
   -0.3040   24.0840  -27.4270 C   0  0  0  0  0  0  0  0  0  0  0  0
    1.0880   26.0750  -27.3760 O   0  0  0  0  0  0  0  0  0  0  0  0
    1.3340   27.3960  -26.8820 C   0  0  0  0  0  0  0  0  0  0  0  0
    0.0850   28.2690  -27.0520 C   0  0  0  0  0  0  0  0  0  0  0  0
   -1.0650   27.5880  -26.5450 O   0  0  0  0  0  0  0  0  0  0  0  0
   -1.9820   20.0930  -30.9680 C   0  0  0  0  0  0  0  0  0  0  0  0
   -3.3850   25.6470  -31.2120 H   0  0  0  0  0  0  0  0  0  0  0  0
   -6.4152   25.1098  -30.6469 H   0  0  0  0  0  0  0  0  0  0  0  0
   -8.7259   24.5550  -31.4039 H   0  0  0  0  0  0  0  0  0  0  0  0
   -9.2305   22.2944  -32.3246 H   0  0  0  0  0  0  0  0  0  0  0  0
   -7.4296   20.5781  -32.4927 H   0  0  0  0  0  0  0  0  0  0  0  0
   -1.0175   21.2558  -34.0376 H   0  0  0  0  0  0  0  0  0  0  0  0
    1.2259   21.0320  -32.9693 H   0  0  0  0  0  0  0  0  0  0  0  0
    1.4207   20.2248  -30.6185 H   0  0  0  0  0  0  0  0  0  0  0  0
   -2.7911   19.3807  -26.3865 H   0  0  0  0  0  0  0  0  0  0  0  0
   -1.0310   18.9666  -26.2876 H   0  0  0  0  0  0  0  0  0  0  0  0
   -2.0070   21.7490  -28.3990 H   0  0  0  0  0  0  0  0  0  0  0  0
   -3.5826   23.7469  -26.5019 H   0  0  0  0  0  0  0  0  0  0  0  0
   -3.3057   26.1932  -26.0976 H   0  0  0  0  0  0  0  0  0  0  0  0
    0.5480   23.4897  -27.7887 H   0  0  0  0  0  0  0  0  0  0  0  0
    1.5961   27.3414  -25.8151 H   0  0  0  0  0  0  0  0  0  0  0  0
    2.1627   27.8423  -27.4513 H   0  0  0  0  0  0  0  0  0  0  0  0
    0.2221   29.2110  -26.5007 H   0  0  0  0  0  0  0  0  0  0  0  0
   -0.0640   28.4786  -28.1215 H   0  0  0  0  0  0  0  0  0  0  0  0
   -2.8891   19.8225  -30.4076 H   0  0  0  0  0  0  0  0  0  0  0  0
  1  2  1  0
  2  3  2  0
  2  4  2  0
  2  5  1  0
  5  6  2  0
  6  7  1  0
  7  8  2  0
  8  9  1  0
  9 10  2  0
 10 11  1  0
 11 12  1  0
 12 13  2  0
 12 14  2  0
 12 15  1  0
 15 16  2  0
 16 17  1  0
 17 18  2  0
 18 19  1  0
 19 20  1  0
 20 21  2  0
 20 22  1  0
 22 23  1  0
 23 24  1  0
 24 25  2  0
 24 26  1  0
 26 27  1  0
 27 28  2  0
 28 29  1  0
 29 30  2  0
 30 31  1  0
 31 32  2  0
 31 33  1  0
 33 34  1  0
 34 35  1  0
 35 36  1  0
 19 37  2  0
 10  5  1  0
 37 15  1  0
 32 27  1  0
 36 30  1  0
  1 38  1  0
  6 39  1  0
  7 40  1  0
  8 41  1  0
  9 42  1  0
 16 43  1  0
 17 44  1  0
 18 45  1  0
 23 46  1  0
 23 47  1  0
 26 48  1  0
 28 49  1  0
 29 50  1  0
 32 51  1  0
 34 52  1  0
 34 53  1  0
 35 54  1  0
 35 55  1  0
 37 56  1  0
M  CHG  2   1  -1  11  -1
M  END
>  <UniqueID>  (29) 
28

>  <SMILES>  (29) 
[NH-]S(=O)(=O)c1ccccc1[N-]S(=O)(=O)c1cccc(C(=O)OCC(=O)Nc2ccc3c(c2)OCCO3)c1

>  <Energy>  (29) 
67.8558912601096

>  <Genealogy>  (29) 
[NH-]S(=O)(=O)c1ccccc1[N-]S(=O)(=O)c1cccc(C(=O)OCC(=O)Nc2ccc3c(c2)OCCO3)c1 (protonated)
[NH-]S(=O)(=O)c1ccccc1[N-]S(=O)(=O)c1cccc(C(=O)OCC(=O)Nc2ccc3c(c2)OCCO3)c1 (3D coordinates assigned)
[NH-]S(=O)(=O)c1ccccc1[N-]S(=O)(=O)c1cccc(C(=O)OCC(=O)Nc2ccc3c(c2)OCCO3)c1 (nonaromatic ring conformer: 67.8558912601096 kcal/mol)

>  <smiles>  (29) 
NS(=O)(=O)c1ccccc1NS(=O)(=O)c1cccc(C(=O)OCC(=O)Nc2ccc3c(c2)OCCO3)c1

>  <score_type>  (29) 
oracle

>  <origin>  (29) 
adgpu

>  <m_score__min__energy>  (29) 
-13

>  <m_primary>  (29) 
energy

$$$$
29:0
     RDKit          3D

 59 62  0  0  0  0  0  0  0  0999 V2000
   -3.8620   25.3320  -30.4470 O   0  0  0  0  0  0  0  0  0  0  0  0
   -3.5280   24.1170  -30.3820 C   0  0  0  0  0  0  0  0  0  0  0  0
   -4.2670   23.1350  -31.1200 N   0  0  0  0  0  0  0  0  0  0  0  0
   -3.7480   21.9320  -31.7040 C   0  0  0  0  0  0  0  0  0  0  0  0
   -4.4500   20.7360  -31.5140 C   0  0  0  0  0  0  0  0  0  0  0  0
   -3.9680   19.5380  -32.0470 C   0  0  0  0  0  0  0  0  0  0  0  0
   -2.7630   19.5180  -32.7600 C   0  0  0  0  0  0  0  0  0  0  0  0
   -2.1650   17.9960  -33.4170 S   0  0  0  0  0  0  0  0  0  0  0  0
   -1.2930   18.3000  -34.6010 O   0  0  0  0  0  0  0  0  0  0  0  0
   -1.3500   17.2710  -32.3800 O   0  0  0  0  0  0  0  0  0  0  0  0
   -3.5120   17.0000  -33.9100 N   0  0  0  0  0  0  0  0  0  0  0  0
   -4.5990   17.8570  -34.4180 C   0  0  0  0  0  0  0  0  0  0  0  0
   -5.7680   16.9960  -34.9090 C   0  0  0  0  0  0  0  0  0  0  0  0
   -6.2740   16.0870  -33.7860 C   0  0  0  0  0  0  0  0  0  0  0  0
   -5.1220   15.2760  -33.1870 C   0  0  0  0  0  0  0  0  0  0  0  0
   -3.9760   16.2010  -32.7620 C   0  0  0  0  0  0  0  0  0  0  0  0
   -2.0430   20.7070  -32.9350 C   0  0  0  0  0  0  0  0  0  0  0  0
   -2.5270   21.9080  -32.4050 C   0  0  0  0  0  0  0  0  0  0  0  0
   -2.4150   23.7090  -29.4830 C   0  0  0  0  0  0  0  0  0  0  0  0
   -2.1600   22.3380  -29.2760 C   0  0  0  0  0  0  0  0  0  0  0  0
   -1.1110   21.9190  -28.4480 C   0  0  0  0  0  0  0  0  0  0  0  0
   -0.8200   20.1980  -28.2040 S   0  0  0  0  0  0  0  0  0  0  0  0
   -0.7510   19.9360  -26.7250 O   0  0  0  0  0  0  0  0  0  0  0  0
   -1.9650   19.4040  -28.7690 O   0  0  0  0  0  0  0  0  0  0  0  0
    0.6920   19.7170  -28.9470 N   0  0  0  0  0  0  0  0  0  0  0  0
    0.4840   18.7630  -30.0510 C   0  0  0  0  0  0  0  0  0  0  0  0
    0.1110   17.3490  -29.5440 C   0  0  0  0  0  0  0  0  0  0  0  0
    0.4330   17.1320  -28.1810 O   0  0  0  0  0  0  0  0  0  0  0  0
    1.7010   17.6700  -27.8880 C   0  0  0  0  0  0  0  0  0  0  0  0
    1.6570   19.2090  -27.9460 C   0  0  0  0  0  0  0  0  0  0  0  0
   -0.3150   22.8710  -27.8020 C   0  0  0  0  0  0  0  0  0  0  0  0
   -0.5590   24.2320  -27.9900 C   0  0  0  0  0  0  0  0  0  0  0  0
   -1.6000   24.6570  -28.8220 C   0  0  0  0  0  0  0  0  0  0  0  0
   -1.8140   26.0240  -28.9690 O   0  0  0  0  0  0  0  0  0  0  0  0
   -5.3886   20.7395  -30.9405 H   0  0  0  0  0  0  0  0  0  0  0  0
   -4.5370   18.6072  -31.9061 H   0  0  0  0  0  0  0  0  0  0  0  0
   -4.9484   18.5173  -33.6105 H   0  0  0  0  0  0  0  0  0  0  0  0
   -4.2191   18.4579  -35.2574 H   0  0  0  0  0  0  0  0  0  0  0  0
   -6.5865   17.6520  -35.2401 H   0  0  0  0  0  0  0  0  0  0  0  0
   -5.4219   16.3698  -35.7445 H   0  0  0  0  0  0  0  0  0  0  0  0
   -6.7286   16.7053  -32.9979 H   0  0  0  0  0  0  0  0  0  0  0  0
   -7.0180   15.3915  -34.2016 H   0  0  0  0  0  0  0  0  0  0  0  0
   -5.4867   14.7246  -32.3078 H   0  0  0  0  0  0  0  0  0  0  0  0
   -4.7486   14.5746  -33.9476 H   0  0  0  0  0  0  0  0  0  0  0  0
   -4.3296   16.8763  -31.9690 H   0  0  0  0  0  0  0  0  0  0  0  0
   -3.1408   15.5890  -32.3907 H   0  0  0  0  0  0  0  0  0  0  0  0
   -1.0939   20.6963  -33.4910 H   0  0  0  0  0  0  0  0  0  0  0  0
   -1.9519   22.8364  -32.5363 H   0  0  0  0  0  0  0  0  0  0  0  0
   -2.7934   21.5874  -29.7714 H   0  0  0  0  0  0  0  0  0  0  0  0
   -0.3294   19.1350  -30.6913 H   0  0  0  0  0  0  0  0  0  0  0  0
    1.4291   18.6820  -30.6079 H   0  0  0  0  0  0  0  0  0  0  0  0
   -0.9724   17.2081  -29.6721 H   0  0  0  0  0  0  0  0  0  0  0  0
    0.6988   16.6296  -30.1329 H   0  0  0  0  0  0  0  0  0  0  0  0
    2.0048   17.3537  -26.8792 H   0  0  0  0  0  0  0  0  0  0  0  0
    2.4244   17.3051  -28.6320 H   0  0  0  0  0  0  0  0  0  0  0  0
    1.3692   19.5901  -26.9551 H   0  0  0  0  0  0  0  0  0  0  0  0
    2.6570   19.5584  -28.2423 H   0  0  0  0  0  0  0  0  0  0  0  0
    0.5049   22.5460  -27.1446 H   0  0  0  0  0  0  0  0  0  0  0  0
    0.0715   24.9756  -27.4805 H   0  0  0  0  0  0  0  0  0  0  0  0
  1  2  2  0
  2  3  1  0
  3  4  1  0
  4  5  2  0
  5  6  1  0
  6  7  2  0
  7  8  1  0
  8  9  2  0
  8 10  2  0
  8 11  1  0
 11 12  1  0
 12 13  1  0
 13 14  1  0
 14 15  1  0
 15 16  1  0
  7 17  1  0
 17 18  2  0
  2 19  1  0
 19 20  2  0
 20 21  1  0
 21 22  1  0
 22 23  2  0
 22 24  2  0
 22 25  1  0
 25 26  1  0
 26 27  1  0
 27 28  1  0
 28 29  1  0
 29 30  1  0
 21 31  2  0
 31 32  1  0
 32 33  2  0
 33 34  1  0
 18  4  1  0
 33 19  1  0
 16 11  1  0
 30 25  1  0
  5 35  1  0
  6 36  1  0
 12 37  1  0
 12 38  1  0
 13 39  1  0
 13 40  1  0
 14 41  1  0
 14 42  1  0
 15 43  1  0
 15 44  1  0
 16 45  1  0
 16 46  1  0
 17 47  1  0
 18 48  1  0
 20 49  1  0
 26 50  1  0
 26 51  1  0
 27 52  1  0
 27 53  1  0
 29 54  1  0
 29 55  1  0
 30 56  1  0
 30 57  1  0
 31 58  1  0
 32 59  1  0
M  CHG  2   3  -1  34  -1
M  END
>  <UniqueID>  (30) 
29

>  <SMILES>  (30) 
O=C([N-]c1ccc(S(=O)(=O)N2CCCCC2)cc1)c1cc(S(=O)(=O)N2CCOCC2)ccc1[O-]

>  <Energy>  (30) 
72.73777233471603

>  <Genealogy>  (30) 
O=C([N-]c1ccc(S(=O)(=O)N2CCCCC2)cc1)c1cc(S(=O)(=O)N2CCOCC2)ccc1[O-] (protonated)
O=C([N-]c1ccc(S(=O)(=O)N2CCCCC2)cc1)c1cc(S(=O)(=O)N2CCOCC2)ccc1[O-] (3D coordinates assigned)
O=C([N-]c1ccc(S(=O)(=O)N2CCCCC2)cc1)c1cc(S(=O)(=O)N2CCOCC2)ccc1[O-] (nonaromatic ring conformer: 72.73777233471603 kcal/mol)

>  <smiles>  (30) 
O=C(Nc1ccc(S(=O)(=O)N2CCCCC2)cc1)c1cc(S(=O)(=O)N2CCOCC2)ccc1O

>  <score_type>  (30) 
oracle

>  <origin>  (30) 
adgpu

>  <m_score__min__energy>  (30) 
-14.59

>  <m_primary>  (30) 
energy

$$$$
30:0
     RDKit          3D

 47 49  0  0  0  0  0  0  0  0999 V2000
   -2.2100   25.2350  -28.8890 O   0  0  0  0  0  0  0  0  0  0  0  0
   -2.8800   24.5810  -29.7310 C   0  0  0  0  0  0  0  0  0  0  0  0
   -3.8620   25.2610  -30.5230 N   0  0  0  0  0  0  0  0  0  0  0  0
   -5.2590   25.4680  -30.1490 C   0  0  0  0  0  0  0  0  0  0  0  0
   -6.1230   24.3320  -30.6350 C   0  0  0  0  0  0  0  0  0  0  0  0
   -6.7050   23.4410  -29.7180 C   0  0  0  0  0  0  0  0  0  0  0  0
   -7.5470   22.4200  -30.1660 C   0  0  0  0  0  0  0  0  0  0  0  0
   -7.8010   22.2690  -31.5310 C   0  0  0  0  0  0  0  0  0  0  0  0
   -7.2090   23.1380  -32.4530 C   0  0  0  0  0  0  0  0  0  0  0  0
   -6.3700   24.1650  -32.0090 C   0  0  0  0  0  0  0  0  0  0  0  0
   -2.6480   23.1310  -29.8580 C   0  0  0  0  0  0  0  0  0  0  0  0
   -2.7420   22.5280  -31.1220 C   0  0  0  0  0  0  0  0  0  0  0  0
   -2.4980   21.1550  -31.2730 C   0  0  0  0  0  0  0  0  0  0  0  0
   -2.5730   20.3900  -32.8580 S   0  0  0  0  0  0  0  0  0  0  0  0
   -1.9870   19.0110  -32.7470 O   0  0  0  0  0  0  0  0  0  0  0  0
   -1.7690   21.1800  -33.8520 O   0  0  0  0  0  0  0  0  0  0  0  0
   -4.2320   20.2800  -33.3970 N   0  0  0  0  0  0  0  0  0  0  0  0
   -5.1690   20.6050  -32.2940 C   0  0  0  0  0  0  0  0  0  0  0  0
   -5.7720   19.3560  -31.6340 C   0  0  0  0  0  0  0  0  0  0  0  0
   -6.5420   18.5060  -32.6600 C   0  0  0  0  0  0  0  0  0  0  0  0
   -5.9570   18.6130  -34.0790 C   0  0  0  0  0  0  0  0  0  0  0  0
   -4.4670   18.9660  -34.0370 C   0  0  0  0  0  0  0  0  0  0  0  0
   -2.1690   20.3840  -30.1520 C   0  0  0  0  0  0  0  0  0  0  0  0
   -2.0810   20.9760  -28.8920 C   0  0  0  0  0  0  0  0  0  0  0  0
   -2.3160   22.3460  -28.7330 C   0  0  0  0  0  0  0  0  0  0  0  0
   -2.2310   22.8930  -27.4510 O   0  0  0  0  0  0  0  0  0  0  0  0
   -5.3322   25.5322  -29.0533 H   0  0  0  0  0  0  0  0  0  0  0  0
   -5.6117   26.4002  -30.6144 H   0  0  0  0  0  0  0  0  0  0  0  0
   -6.4970   23.5476  -28.6431 H   0  0  0  0  0  0  0  0  0  0  0  0
   -8.0108   21.7337  -29.4422 H   0  0  0  0  0  0  0  0  0  0  0  0
   -8.4668   21.4664  -31.8809 H   0  0  0  0  0  0  0  0  0  0  0  0
   -7.4035   23.0136  -33.5285 H   0  0  0  0  0  0  0  0  0  0  0  0
   -5.9020   24.8441  -32.7369 H   0  0  0  0  0  0  0  0  0  0  0  0
   -3.0086   23.1357  -31.9993 H   0  0  0  0  0  0  0  0  0  0  0  0
   -4.6250   21.1782  -31.5288 H   0  0  0  0  0  0  0  0  0  0  0  0
   -5.9991   21.1833  -32.7258 H   0  0  0  0  0  0  0  0  0  0  0  0
   -4.9614   18.7509  -31.2018 H   0  0  0  0  0  0  0  0  0  0  0  0
   -6.4731   19.6784  -30.8500 H   0  0  0  0  0  0  0  0  0  0  0  0
   -6.5056   17.4533  -32.3429 H   0  0  0  0  0  0  0  0  0  0  0  0
   -7.5742   18.8845  -32.6970 H   0  0  0  0  0  0  0  0  0  0  0  0
   -6.0832   17.6488  -34.5931 H   0  0  0  0  0  0  0  0  0  0  0  0
   -6.4897   19.4111  -34.6169 H   0  0  0  0  0  0  0  0  0  0  0  0
   -3.9334   18.1915  -33.4666 H   0  0  0  0  0  0  0  0  0  0  0  0
   -4.0984   19.0186  -35.0721 H   0  0  0  0  0  0  0  0  0  0  0  0
   -1.9790   19.3065  -30.2652 H   0  0  0  0  0  0  0  0  0  0  0  0
   -1.8249   20.3610  -28.0167 H   0  0  0  0  0  0  0  0  0  0  0  0
   -2.2250   23.8900  -27.2810 H   0  0  0  0  0  0  0  0  0  0  0  0
  1  2  2  0
  2  3  1  0
  3  4  1  0
  4  5  1  0
  5  6  2  0
  6  7  1  0
  7  8  2  0
  8  9  1  0
  9 10  2  0
  2 11  1  0
 11 12  2  0
 12 13  1  0
 13 14  1  0
 14 15  2  0
 14 16  2  0
 14 17  1  0
 17 18  1  0
 18 19  1  0
 19 20  1  0
 20 21  1  0
 21 22  1  0
 13 23  2  0
 23 24  1  0
 24 25  2  0
 25 26  1  0
 10  5  1  0
 25 11  1  0
 22 17  1  0
  4 27  1  0
  4 28  1  0
  6 29  1  0
  7 30  1  0
  8 31  1  0
  9 32  1  0
 10 33  1  0
 12 34  1  0
 18 35  1  0
 18 36  1  0
 19 37  1  0
 19 38  1  0
 20 39  1  0
 20 40  1  0
 21 41  1  0
 21 42  1  0
 22 43  1  0
 22 44  1  0
 23 45  1  0
 24 46  1  0
 26 47  1  0
M  CHG  1   3  -1
M  END
>  <UniqueID>  (31) 
30

>  <SMILES>  (31) 
O=C([N-]Cc1ccccc1)c1cc(S(=O)(=O)N2CCCCC2)ccc1O

>  <Energy>  (31) 
55.08960787907263

>  <Genealogy>  (31) 
O=C([N-]Cc1ccccc1)c1cc(S(=O)(=O)N2CCCCC2)ccc1O (protonated)
O=C([N-]Cc1ccccc1)c1cc(S(=O)(=O)N2CCCCC2)ccc1O (3D coordinates assigned)
O=C([N-]Cc1ccccc1)c1cc(S(=O)(=O)N2CCCCC2)ccc1O (nonaromatic ring conformer: 55.08960787907263 kcal/mol)

>  <smiles>  (31) 
O=C(NCc1ccccc1)c1cc(S(=O)(=O)N2CCCCC2)ccc1O

>  <score_type>  (31) 
oracle

>  <origin>  (31) 
adgpu

>  <m_score__min__energy>  (31) 
-9.8300000000000001

>  <m_primary>  (31) 
energy

$$$$
31:0
     RDKit          3D

 59 62  0  0  0  0  0  0  0  0999 V2000
   -8.0240   21.7250  -30.7470 C   0  0  0  0  0  0  0  0  0  0  0  0
   -6.9190   22.7370  -30.6470 C   0  0  0  0  0  0  0  0  0  0  0  0
   -7.1910   24.0350  -30.2030 C   0  0  0  0  0  0  0  0  0  0  0  0
   -6.1720   24.9840  -30.1430 C   0  0  0  0  0  0  0  0  0  0  0  0
   -4.8670   24.6630  -30.5360 C   0  0  0  0  0  0  0  0  0  0  0  0
   -3.9090   25.6770  -30.4530 O   0  0  0  0  0  0  0  0  0  0  0  0
   -4.5790   23.3510  -31.0010 C   0  0  0  0  0  0  0  0  0  0  0  0
   -3.1940   22.8950  -31.4110 C   0  0  0  0  0  0  0  0  0  0  0  0
   -2.4210   22.3950  -30.2130 C   0  0  0  0  0  0  0  0  0  0  0  0
   -2.4410   21.0280  -29.8940 C   0  0  0  0  0  0  0  0  0  0  0  0
   -1.7620   20.5530  -28.7730 C   0  0  0  0  0  0  0  0  0  0  0  0
   -1.0620   21.4330  -27.9460 C   0  0  0  0  0  0  0  0  0  0  0  0
   -0.4160   20.9350  -26.8190 O   0  0  0  0  0  0  0  0  0  0  0  0
   -1.0320   22.8090  -28.2420 C   0  0  0  0  0  0  0  0  0  0  0  0
   -0.3030   23.7490  -27.3590 C   0  0  0  0  0  0  0  0  0  0  0  0
    1.0920   23.6920  -27.2580 C   0  0  0  0  0  0  0  0  0  0  0  0
    1.7770   24.5960  -26.4450 C   0  0  0  0  0  0  0  0  0  0  0  0
    1.0800   25.5670  -25.7150 C   0  0  0  0  0  0  0  0  0  0  0  0
    2.0330   26.6860  -24.7490 Cl  0  0  0  0  0  0  0  0  0  0  0  0
   -0.3310   25.6230  -25.7940 C   0  0  0  0  0  0  0  0  0  0  0  0
   -1.3050   26.8280  -24.9290 S   0  0  0  0  0  0  0  0  0  0  0  0
   -0.8520   26.9860  -23.5040 O   0  0  0  0  0  0  0  0  0  0  0  0
   -2.7320   26.3520  -24.9110 O   0  0  0  0  0  0  0  0  0  0  0  0
   -1.2250   28.3630  -25.7590 N   0  0  0  0  0  0  0  0  0  0  0  0
   -0.4180   28.2330  -26.9890 C   0  0  0  0  0  0  0  0  0  0  0  0
    0.0320   29.6080  -27.4980 C   0  0  0  0  0  0  0  0  0  0  0  0
    0.8680   30.3320  -26.5070 N   0  0  0  0  0  0  0  0  0  0  0  0
    2.2900   30.3030  -26.8800 C   0  0  0  0  0  0  0  0  0  0  0  0
    0.6940   29.8490  -25.1180 C   0  0  0  0  0  0  0  0  0  0  0  0
   -0.7620   29.4380  -24.8500 C   0  0  0  0  0  0  0  0  0  0  0  0
   -1.0060   24.7160  -26.6240 C   0  0  0  0  0  0  0  0  0  0  0  0
   -1.7110   23.2860  -29.3840 C   0  0  0  0  0  0  0  0  0  0  0  0
   -1.6660   24.6400  -29.6990 O   0  0  0  0  0  0  0  0  0  0  0  0
   -5.6210   22.4070  -31.0580 C   0  0  0  0  0  0  0  0  0  0  0  0
   -8.3447   21.4313  -29.7366 H   0  0  0  0  0  0  0  0  0  0  0  0
   -8.8749   22.1636  -31.2888 H   0  0  0  0  0  0  0  0  0  0  0  0
   -7.6617   20.8389  -31.2888 H   0  0  0  0  0  0  0  0  0  0  0  0
   -8.2127   24.3079  -29.9001 H   0  0  0  0  0  0  0  0  0  0  0  0
   -6.3960   25.9987  -29.7821 H   0  0  0  0  0  0  0  0  0  0  0  0
   -3.1140   25.6680  -29.8340 H   0  0  0  0  0  0  0  0  0  0  0  0
   -3.2843   22.0828  -32.1473 H   0  0  0  0  0  0  0  0  0  0  0  0
   -2.6554   23.7484  -31.8489 H   0  0  0  0  0  0  0  0  0  0  0  0
   -2.9967   20.3264  -30.5335 H   0  0  0  0  0  0  0  0  0  0  0  0
   -1.7780   19.4783  -28.5388 H   0  0  0  0  0  0  0  0  0  0  0  0
    1.6510   22.9309  -27.8222 H   0  0  0  0  0  0  0  0  0  0  0  0
    2.8737   24.5455  -26.3769 H   0  0  0  0  0  0  0  0  0  0  0  0
    0.4701   27.6207  -26.7737 H   0  0  0  0  0  0  0  0  0  0  0  0
   -1.0353   27.7565  -27.7648 H   0  0  0  0  0  0  0  0  0  0  0  0
    0.6165   29.4697  -28.4196 H   0  0  0  0  0  0  0  0  0  0  0  0
   -0.8703   30.2104  -27.6799 H   0  0  0  0  0  0  0  0  0  0  0  0
    2.9076   30.2904  -25.9698 H   0  0  0  0  0  0  0  0  0  0  0  0
    2.4948   29.4005  -27.4746 H   0  0  0  0  0  0  0  0  0  0  0  0
    2.5314   31.1964  -27.4746 H   0  0  0  0  0  0  0  0  0  0  0  0
    1.3477   28.9793  -24.9562 H   0  0  0  0  0  0  0  0  0  0  0  0
    0.9572   30.6659  -24.4300 H   0  0  0  0  0  0  0  0  0  0  0  0
   -0.8426   29.0816  -23.8125 H   0  0  0  0  0  0  0  0  0  0  0  0
   -1.3958   30.3198  -25.0253 H   0  0  0  0  0  0  0  0  0  0  0  0
   -2.1024   24.7633  -26.7000 H   0  0  0  0  0  0  0  0  0  0  0  0
   -5.4130   21.3934  -31.4314 H   0  0  0  0  0  0  0  0  0  0  0  0
  1  2  1  0
  2  3  2  0
  3  4  1  0
  4  5  2  0
  5  6  1  0
  5  7  1  0
  7  8  1  0
  8  9  1  0
  9 10  2  0
 10 11  1  0
 11 12  2  0
 12 13  1  0
 12 14  1  0
 14 15  1  0
 15 16  2  0
 16 17  1  0
 17 18  2  0
 18 19  1  0
 18 20  1  0
 20 21  1  0
 21 22  2  0
 21 23  2  0
 21 24  1  0
 24 25  1  0
 25 26  1  0
 26 27  1  0
 27 28  1  0
 27 29  1  0
 29 30  1  0
 20 31  2  0
 14 32  2  0
 32 33  1  0
  7 34  2  0
 34  2  1  0
 32  9  1  0
 31 15  1  0
 30 24  1  0
  1 35  1  0
  1 36  1  0
  1 37  1  0
  3 38  1  0
  4 39  1  0
  6 40  1  0
  8 41  1  0
  8 42  1  0
 10 43  1  0
 11 44  1  0
 16 45  1  0
 17 46  1  0
 25 47  1  0
 25 48  1  0
 26 49  1  0
 26 50  1  0
 28 51  1  0
 28 52  1  0
 28 53  1  0
 29 54  1  0
 29 55  1  0
 30 56  1  0
 30 57  1  0
 31 58  1  0
 34 59  1  0
M  CHG  2  13  -1  33  -1
M  END
>  <UniqueID>  (32) 
31

>  <SMILES>  (32) 
Cc1ccc(O)c(Cc2ccc([O-])c(-c3ccc(Cl)c(S(=O)(=O)N4CCN(C)CC4)c3)c2[O-])c1

>  <Energy>  (32) 
84.81276427918283

>  <Genealogy>  (32) 
Cc1ccc(O)c(Cc2ccc([O-])c(-c3ccc(Cl)c(S(=O)(=O)N4CCN(C)CC4)c3)c2[O-])c1 (protonated)
Cc1ccc(O)c(Cc2ccc([O-])c(-c3ccc(Cl)c(S(=O)(=O)N4CCN(C)CC4)c3)c2[O-])c1 (3D coordinates assigned)
Cc1ccc(O)c(Cc2ccc([O-])c(-c3ccc(Cl)c(S(=O)(=O)N4CCN(C)CC4)c3)c2[O-])c1 (nonaromatic ring conformer: 84.81276427918283 kcal/mol)

>  <smiles>  (32) 
Cc1ccc(O)c(Cc2ccc(O)c(-c3ccc(Cl)c(S(=O)(=O)N4CCN(C)CC4)c3)c2O)c1

>  <score_type>  (32) 
oracle

>  <origin>  (32) 
adgpu

>  <m_score__min__energy>  (32) 
-13.140000000000001

>  <m_primary>  (32) 
energy

$$$$
32:0
     RDKit          3D

 40 42  0  0  0  0  0  0  0  0999 V2000
   -5.0440   25.5600  -31.4480 H   0  0  0  0  0  0  0  0  0  0  0  0
   -4.2140   25.6690  -30.8300 N   0  0  0  0  0  0  0  0  0  0  0  0
   -3.7020   24.7030  -30.1360 C   0  0  0  0  0  0  0  0  0  0  0  0
   -2.6570   24.9070  -29.2950 N   0  0  0  0  0  0  0  0  0  0  0  0
   -2.4950   23.7000  -28.7240 C   0  0  0  0  0  0  0  0  0  0  0  0
   -1.5690   23.3510  -27.7460 C   0  0  0  0  0  0  0  0  0  0  0  0
   -0.8343   24.0800  -27.3735 H   0  0  0  0  0  0  0  0  0  0  0  0
   -1.6030   22.0350  -27.2490 C   0  0  0  0  0  0  0  0  0  0  0  0
   -0.8792   21.7217  -26.4822 H   0  0  0  0  0  0  0  0  0  0  0  0
   -2.5620   21.1120  -27.7290 C   0  0  0  0  0  0  0  0  0  0  0  0
   -2.5990   19.7750  -27.1990 C   0  0  0  0  0  0  0  0  0  0  0  0
   -2.6280   18.6990  -26.7730 N   0  0  0  0  0  0  0  0  0  0  0  0
   -3.4870   21.4990  -28.7200 C   0  0  0  0  0  0  0  0  0  0  0  0
   -4.2422   20.7947  -29.0990 H   0  0  0  0  0  0  0  0  0  0  0  0
   -3.4120   22.8090  -29.2050 C   0  0  0  0  0  0  0  0  0  0  0  0
   -4.1800   23.4250  -30.1230 N   0  0  0  0  0  0  0  0  0  0  0  0
   -5.4810   22.7280  -31.0540 S   0  0  0  0  0  0  0  0  0  0  0  0
   -6.5670   22.2440  -30.1330 O   0  0  0  0  0  0  0  0  0  0  0  0
   -6.0660   23.7910  -31.9420 O   0  0  0  0  0  0  0  0  0  0  0  0
   -4.8870   21.3810  -32.0440 C   0  0  0  0  0  0  0  0  0  0  0  0
   -3.5140   21.3060  -32.2990 C   0  0  0  0  0  0  0  0  0  0  0  0
   -2.8399   22.0567  -31.8608 H   0  0  0  0  0  0  0  0  0  0  0  0
   -2.9880   20.2970  -33.0980 C   0  0  0  0  0  0  0  0  0  0  0  0
   -1.9021   20.2450  -33.2657 H   0  0  0  0  0  0  0  0  0  0  0  0
   -3.8290   19.3450  -33.6920 C   0  0  0  0  0  0  0  0  0  0  0  0
   -3.3120   18.3230  -34.5080 O   0  0  0  0  0  0  0  0  0  0  0  0
   -2.8890   17.0460  -34.0400 C   0  0  0  0  0  0  0  0  0  0  0  0
   -2.8873   17.0407  -32.9400 H   0  0  0  0  0  0  0  0  0  0  0  0
   -3.5791   16.2731  -34.4093 H   0  0  0  0  0  0  0  0  0  0  0  0
   -1.8739   16.8379  -34.4093 H   0  0  0  0  0  0  0  0  0  0  0  0
   -5.2220   19.4090  -33.4670 C   0  0  0  0  0  0  0  0  0  0  0  0
   -6.1270   18.3990  -34.1380 C   0  0  0  0  0  0  0  0  0  0  0  0
   -6.6532   17.8117  -33.3711 H   0  0  0  0  0  0  0  0  0  0  0  0
   -6.8618   18.9249  -34.7654 H   0  0  0  0  0  0  0  0  0  0  0  0
   -5.5240   17.7261  -34.7654 H   0  0  0  0  0  0  0  0  0  0  0  0
   -5.7540   20.3950  -32.5870 C   0  0  0  0  0  0  0  0  0  0  0  0
   -7.2380   20.4270  -32.2860 C   0  0  0  0  0  0  0  0  0  0  0  0
   -7.3912   20.4303  -31.1967 H   0  0  0  0  0  0  0  0  0  0  0  0
   -7.6809   21.3349  -32.7213 H   0  0  0  0  0  0  0  0  0  0  0  0
   -7.7197   19.5390  -32.7213 H   0  0  0  0  0  0  0  0  0  0  0  0
  1  2  1  0
  2  3  2  0
  3  4  1  0
  4  5  1  0
  5  6  2  0
  6  7  1  0
  6  8  1  0
  8  9  1  0
  8 10  2  0
 10 11  1  0
 11 12  3  0
 10 13  1  0
 13 14  1  0
 13 15  2  0
 15 16  1  0
 16 17  1  0
 17 18  2  0
 17 19  2  0
 17 20  1  0
 20 21  2  0
 21 22  1  0
 21 23  1  0
 23 24  1  0
 23 25  2  0
 25 26  1  0
 26 27  1  0
 27 28  1  0
 27 29  1  0
 27 30  1  0
 25 31  1  0
 31 32  1  0
 32 33  1  0
 32 34  1  0
 32 35  1  0
 31 36  2  0
 36 37  1  0
 37 38  1  0
 37 39  1  0
 37 40  1  0
 16  3  1  0
 36 20  1  0
 15  5  1  0
M  CHG  1   4  -1
M  END
>  <UniqueID>  (33) 
32

>  <SMILES>  (33) 
[H]/N=c1/[n-]c2ccc(C#N)cc2n1S(=O)(=O)c1ccc(OC)c(C)c1C

>  <Energy>  (33) 
89.11171648480894

>  <Genealogy>  (33) 
COc1ccc(S(=O)(=O)n2c(=N)[n-]c3ccc(C#N)cc32)c(C)c1C (protonated)
[H]/N=c1/[n-]c2ccc(C#N)cc2n1S(=O)(=O)c1ccc(OC)c(C)c1C (cis-trans isomerization)
[H]/N=c1/[n-]c2ccc(C#N)cc2n1S(=O)(=O)c1ccc(OC)c(C)c1C (3D coordinates assigned)
[H]/N=c1/[n-]c2ccc(C#N)cc2n1S(=O)(=O)c1ccc(OC)c(C)c1C (optimized conformer: 89.11171648480894 kcal/mol)

>  <smiles>  (33) 
COc1ccc(S(=O)(=O)n2c(=N)[nH]c3ccc(C#N)cc32)c(C)c1C

>  <score_type>  (33) 
oracle

>  <origin>  (33) 
adgpu

>  <m_score__min__energy>  (33) 
-9.9600000000000009

>  <m_primary>  (33) 
energy

$$$$
33:0
     RDKit          3D

 46 48  0  0  0  0  0  0  0  0999 V2000
    3.0530   24.9130  -27.4380 C   0  0  0  0  0  0  0  0  0  0  0  0
    1.7950   24.7010  -26.8070 O   0  0  0  0  0  0  0  0  0  0  0  0
    0.5630   24.6480  -27.4810 C   0  0  0  0  0  0  0  0  0  0  0  0
    0.2140   23.5630  -28.3060 C   0  0  0  0  0  0  0  0  0  0  0  0
   -1.0220   23.5350  -28.9530 C   0  0  0  0  0  0  0  0  0  0  0  0
   -1.9310   24.5900  -28.7990 C   0  0  0  0  0  0  0  0  0  0  0  0
   -3.2420   24.5220  -29.4810 C   0  0  0  0  0  0  0  0  0  0  0  0
   -3.5690   25.2950  -30.4940 O   0  0  0  0  0  0  0  0  0  0  0  0
   -4.7730   25.0410  -30.9200 N   0  0  0  0  0  0  0  0  0  0  0  0
   -5.2630   24.0510  -30.1510 C   0  0  0  0  0  0  0  0  0  0  0  0
   -6.6450   23.4990  -30.2870 C   0  0  0  0  0  0  0  0  0  0  0  0
   -4.3250   23.7020  -29.1970 C   0  0  0  0  0  0  0  0  0  0  0  0
   -4.4810   22.6900  -28.1030 C   0  0  0  0  0  0  0  0  0  0  0  0
   -1.5950   25.6640  -27.9600 C   0  0  0  0  0  0  0  0  0  0  0  0
   -0.3490   25.7070  -27.3150 C   0  0  0  0  0  0  0  0  0  0  0  0
    0.0460   27.0670  -26.2590 S   0  0  0  0  0  0  0  0  0  0  0  0
    0.7010   28.1370  -27.0870 O   0  0  0  0  0  0  0  0  0  0  0  0
   -1.2260   27.6330  -25.6890 O   0  0  0  0  0  0  0  0  0  0  0  0
    1.1160   26.4950  -24.9840 N   0  0  0  0  0  0  0  0  0  0  0  0
    2.1610   27.4800  -24.6330 C   0  0  0  0  0  0  0  0  0  0  0  0
    1.6150   28.6170  -23.7560 C   0  0  0  0  0  0  0  0  0  0  0  0
    0.9820   28.0860  -22.5450 N   0  0  0  0  0  0  0  0  0  0  0  0
   -0.1130   27.1780  -22.8990 C   0  0  0  0  0  0  0  0  0  0  0  0
    0.3800   26.0230  -23.7920 C   0  0  0  0  0  0  0  0  0  0  0  0
    3.8305   25.0440  -26.6710 H   0  0  0  0  0  0  0  0  0  0  0  0
    3.2996   24.0438  -28.0654 H   0  0  0  0  0  0  0  0  0  0  0  0
    3.0011   25.8151  -28.0654 H   0  0  0  0  0  0  0  0  0  0  0  0
    0.9205   22.7309  -28.4419 H   0  0  0  0  0  0  0  0  0  0  0  0
   -1.2850   22.6772  -29.5894 H   0  0  0  0  0  0  0  0  0  0  0  0
   -7.0717   23.3285  -29.2876 H   0  0  0  0  0  0  0  0  0  0  0  0
   -7.2734   24.2151  -30.8368 H   0  0  0  0  0  0  0  0  0  0  0  0
   -6.6071   22.5470  -30.8368 H   0  0  0  0  0  0  0  0  0  0  0  0
   -4.4038   23.1907  -27.1266 H   0  0  0  0  0  0  0  0  0  0  0  0
   -5.4645   22.2050  -28.1896 H   0  0  0  0  0  0  0  0  0  0  0  0
   -3.6892   21.9314  -28.1896 H   0  0  0  0  0  0  0  0  0  0  0  0
   -2.3158   26.4806  -27.8063 H   0  0  0  0  0  0  0  0  0  0  0  0
    1.6130   25.6630  -25.3790 H   0  0  0  0  0  0  0  0  0  0  0  0
    2.9641   26.9647  -24.0857 H   0  0  0  0  0  0  0  0  0  0  0  0
    2.5346   27.9238  -25.5676 H   0  0  0  0  0  0  0  0  0  0  0  0
    2.4444   29.2796  -23.4679 H   0  0  0  0  0  0  0  0  0  0  0  0
    0.8607   29.1735  -24.3316 H   0  0  0  0  0  0  0  0  0  0  0  0
    1.6960   27.5580  -21.9910 H   0  0  0  0  0  0  0  0  0  0  0  0
   -0.5427   26.7591  -21.9771 H   0  0  0  0  0  0  0  0  0  0  0  0
   -0.8689   27.7491  -23.4580 H   0  0  0  0  0  0  0  0  0  0  0  0
    1.0469   25.3801  -23.1988 H   0  0  0  0  0  0  0  0  0  0  0  0
   -0.5064   25.4756  -24.1451 H   0  0  0  0  0  0  0  0  0  0  0  0
  1  2  1  0
  2  3  1  0
  3  4  2  0
  4  5  1  0
  5  6  2  0
  6  7  1  0
  7  8  1  0
  8  9  1  0
  9 10  2  0
 10 11  1  0
 10 12  1  0
 12 13  1  0
  6 14  1  0
 14 15  2  0
 15 16  1  0
 16 17  2  0
 16 18  2  0
 16 19  1  0
 19 20  1  0
 20 21  1  0
 21 22  1  0
 22 23  1  0
 23 24  1  0
 15  3  1  0
 24 19  1  0
 12  7  2  0
  1 25  1  0
  1 26  1  0
  1 27  1  0
  4 28  1  0
  5 29  1  0
 11 30  1  0
 11 31  1  0
 11 32  1  0
 13 33  1  0
 13 34  1  0
 13 35  1  0
 14 36  1  0
 19 37  1  0
 20 38  1  0
 20 39  1  0
 21 40  1  0
 21 41  1  0
 22 42  1  0
 23 43  1  0
 23 44  1  0
 24 45  1  0
 24 46  1  0
M  CHG  1  19   1
M  END
>  <UniqueID>  (34) 
33

>  <SMILES>  (34) 
COc1ccc(-c2onc(C)c2C)cc1S(=O)(=O)[NH+]1CCNCC1

>  <Energy>  (34) 
82.79814676879911

>  <Genealogy>  (34) 
COc1ccc(-c2onc(C)c2C)cc1S(=O)(=O)[NH+]1CCNCC1 (protonated)
COc1ccc(-c2onc(C)c2C)cc1S(=O)(=O)[NH+]1CCNCC1 (3D coordinates assigned)
COc1ccc(-c2onc(C)c2C)cc1S(=O)(=O)[NH+]1CCNCC1 (nonaromatic ring conformer: 82.79814676879911 kcal/mol)

>  <smiles>  (34) 
COc1ccc(-c2onc(C)c2C)cc1S(=O)(=O)N1CCNCC1

>  <score_type>  (34) 
oracle

>  <origin>  (34) 
adgpu

>  <m_score__min__energy>  (34) 
-7.8200000000000003

>  <m_primary>  (34) 
energy

$$$$
34:0
     RDKit          3D

 62 65  0  0  0  0  0  0  0  0999 V2000
   -8.2590   23.4320  -32.0300 C   0  0  0  0  0  0  0  0  0  0  0  0
   -6.9480   23.4090  -31.2910 C   0  0  0  0  0  0  0  0  0  0  0  0
   -6.4970   24.5780  -30.6610 C   0  0  0  0  0  0  0  0  0  0  0  0
   -5.3080   24.5930  -30.0040 N   0  0  0  0  0  0  0  0  0  0  0  0
   -4.5070   23.4960  -29.9280 C   0  0  0  0  0  0  0  0  0  0  0  0
   -3.2670   23.5710  -29.2020 N   0  0  0  0  0  0  0  0  0  0  0  0
   -3.2100   24.0720  -27.8250 C   0  0  0  0  0  0  0  0  0  0  0  0
   -2.1100   25.1340  -27.6830 C   0  0  0  0  0  0  0  0  0  0  0  0
   -0.8510   24.8920  -28.5730 C   0  0  0  0  0  0  0  0  0  0  0  0
    0.3800   25.3330  -27.8500 N   0  0  0  0  0  0  0  0  0  0  0  0
    1.1010   24.1690  -27.2930 C   0  0  0  0  0  0  0  0  0  0  0  0
    0.0860   26.2670  -26.7430 C   0  0  0  0  0  0  0  0  0  0  0  0
   -0.7910   23.4020  -29.0110 C   0  0  0  0  0  0  0  0  0  0  0  0
   -2.0500   23.0170  -29.8060 C   0  0  0  0  0  0  0  0  0  0  0  0
   -4.9340   22.2930  -30.5100 C   0  0  0  0  0  0  0  0  0  0  0  0
   -6.1620   22.2370  -31.1860 C   0  0  0  0  0  0  0  0  0  0  0  0
   -6.5990   20.9430  -31.7560 C   0  0  0  0  0  0  0  0  0  0  0  0
   -7.8610   20.4200  -31.4310 C   0  0  0  0  0  0  0  0  0  0  0  0
   -8.2830   19.2070  -31.9810 C   0  0  0  0  0  0  0  0  0  0  0  0
   -7.4570   18.5130  -32.8670 C   0  0  0  0  0  0  0  0  0  0  0  0
   -6.2020   19.0310  -33.2110 C   0  0  0  0  0  0  0  0  0  0  0  0
   -5.1780   18.1530  -34.3440 S   0  0  0  0  0  0  0  0  0  0  0  0
   -5.7250   18.2410  -35.7420 O   0  0  0  0  0  0  0  0  0  0  0  0
   -3.8120   18.7810  -34.3320 O   0  0  0  0  0  0  0  0  0  0  0  0
   -5.0860   16.4500  -33.8700 C   0  0  0  0  0  0  0  0  0  0  0  0
   -6.1530   15.5980  -34.2000 C   0  0  0  0  0  0  0  0  0  0  0  0
   -6.1180   14.2460  -33.8520 C   0  0  0  0  0  0  0  0  0  0  0  0
   -5.0170   13.7280  -33.1730 C   0  0  0  0  0  0  0  0  0  0  0  0
   -3.9460   14.5590  -32.8410 C   0  0  0  0  0  0  0  0  0  0  0  0
   -3.9650   15.9210  -33.1830 C   0  0  0  0  0  0  0  0  0  0  0  0
   -2.8400   16.7350  -32.8220 N   0  0  0  0  0  0  0  0  0  0  0  0
   -5.7750   20.2450  -32.6540 C   0  0  0  0  0  0  0  0  0  0  0  0
   -9.0875   23.4465  -31.3066 H   0  0  0  0  0  0  0  0  0  0  0  0
   -8.3081   24.3311  -32.6618 H   0  0  0  0  0  0  0  0  0  0  0  0
   -8.3396   22.5351  -32.6618 H   0  0  0  0  0  0  0  0  0  0  0  0
   -7.1109   25.4900  -30.6991 H   0  0  0  0  0  0  0  0  0  0  0  0
   -4.1802   24.5187  -27.5621 H   0  0  0  0  0  0  0  0  0  0  0  0
   -2.9830   23.2330  -27.1508 H   0  0  0  0  0  0  0  0  0  0  0  0
   -2.5389   26.1099  -27.9543 H   0  0  0  0  0  0  0  0  0  0  0  0
   -1.7661   25.0874  -26.6392 H   0  0  0  0  0  0  0  0  0  0  0  0
   -0.9172   25.4958  -29.4901 H   0  0  0  0  0  0  0  0  0  0  0  0
    1.0741   24.2125  -26.1942 H   0  0  0  0  0  0  0  0  0  0  0  0
    0.6192   23.2412  -27.6352 H   0  0  0  0  0  0  0  0  0  0  0  0
    2.1463   24.1871  -27.6352 H   0  0  0  0  0  0  0  0  0  0  0  0
    0.2463   25.7578  -25.7812 H   0  0  0  0  0  0  0  0  0  0  0  0
    0.7531   27.1389  -26.8119 H   0  0  0  0  0  0  0  0  0  0  0  0
   -0.9603   26.5995  -26.8119 H   0  0  0  0  0  0  0  0  0  0  0  0
    0.0961   23.2469  -29.6426 H   0  0  0  0  0  0  0  0  0  0  0  0
   -0.7346   22.7714  -28.1115 H   0  0  0  0  0  0  0  0  0  0  0  0
   -1.9547   23.4021  -30.8320 H   0  0  0  0  0  0  0  0  0  0  0  0
   -2.1350   21.9203  -29.8014 H   0  0  0  0  0  0  0  0  0  0  0  0
   -4.3056   21.3932  -30.4362 H   0  0  0  0  0  0  0  0  0  0  0  0
   -8.5198   20.9674  -30.7408 H   0  0  0  0  0  0  0  0  0  0  0  0
   -9.2688   18.7977  -31.7152 H   0  0  0  0  0  0  0  0  0  0  0  0
   -7.7925   17.5572  -33.2959 H   0  0  0  0  0  0  0  0  0  0  0  0
   -7.0245   15.9997  -34.7377 H   0  0  0  0  0  0  0  0  0  0  0  0
   -6.9606   13.5892  -34.1142 H   0  0  0  0  0  0  0  0  0  0  0  0
   -4.9919   12.6631  -32.8984 H   0  0  0  0  0  0  0  0  0  0  0  0
   -3.0790   14.1434  -32.3066 H   0  0  0  0  0  0  0  0  0  0  0  0
   -2.7710   17.7430  -33.0730 H   0  0  0  0  0  0  0  0  0  0  0  0
   -2.0470   16.3290  -32.2780 H   0  0  0  0  0  0  0  0  0  0  0  0
   -4.7892   20.6529  -32.9219 H   0  0  0  0  0  0  0  0  0  0  0  0
  1  2  1  0
  2  3  2  0
  3  4  1  0
  4  5  2  0
  5  6  1  0
  6  7  1  0
  7  8  1  0
  8  9  1  0
  9 10  1  0
 10 11  1  0
 10 12  1  0
  9 13  1  0
 13 14  1  0
  5 15  1  0
 15 16  2  0
 16 17  1  0
 17 18  2  0
 18 19  1  0
 19 20  2  0
 20 21  1  0
 21 22  1  0
 22 23  2  0
 22 24  2  0
 22 25  1  0
 25 26  2  0
 26 27  1  0
 27 28  2  0
 28 29  1  0
 29 30  2  0
 30 31  1  0
 21 32  2  0
 16  2  1  0
 32 17  1  0
 14  6  1  0
 30 25  1  0
  1 33  1  0
  1 34  1  0
  1 35  1  0
  3 36  1  0
  7 37  1  0
  7 38  1  0
  8 39  1  0
  8 40  1  0
  9 41  1  0
 11 42  1  0
 11 43  1  0
 11 44  1  0
 12 45  1  0
 12 46  1  0
 12 47  1  0
 13 48  1  0
 13 49  1  0
 14 50  1  0
 14 51  1  0
 15 52  1  0
 18 53  1  0
 19 54  1  0
 20 55  1  0
 26 56  1  0
 27 57  1  0
 28 58  1  0
 29 59  1  0
 31 60  1  0
 31 61  1  0
 32 62  1  0
M  END
>  <UniqueID>  (35) 
34

>  <SMILES>  (35) 
Cc1cnc(N2CCC(N(C)C)CC2)cc1-c1cccc(S(=O)(=O)c2ccccc2N)c1

>  <Energy>  (35) 
86.81821800846792

>  <Genealogy>  (35) 
Cc1cnc(N2CCC(N(C)C)CC2)cc1-c1cccc(S(=O)(=O)c2ccccc2N)c1 (3D coordinates assigned)
Cc1cnc(N2CCC(N(C)C)CC2)cc1-c1cccc(S(=O)(=O)c2ccccc2N)c1 (nonaromatic ring conformer: 86.81821800846792 kcal/mol)

>  <smiles>  (35) 
Cc1cnc(N2CCC(N(C)C)CC2)cc1-c1cccc(S(=O)(=O)c2ccccc2N)c1

>  <score_type>  (35) 
oracle

>  <origin>  (35) 
adgpu

>  <m_score__min__energy>  (35) 
-10.779999999999999

>  <m_primary>  (35) 
energy

$$$$
35:0
     RDKit          3D

 57 60  0  0  0  0  0  0  0  0999 V2000
   -6.9170   11.5960  -34.7940 C   0  0  0  0  0  0  0  0  0  0  0  0
   -6.6050   13.0110  -34.4110 C   0  0  0  0  0  0  0  0  0  0  0  0
   -5.3420   13.3620  -33.9200 C   0  0  0  0  0  0  0  0  0  0  0  0
   -5.0670   14.6570  -33.6190 N   0  0  0  0  0  0  0  0  0  0  0  0
   -5.9970   15.6380  -33.7900 C   0  0  0  0  0  0  0  0  0  0  0  0
   -5.6860   17.0090  -33.4630 N   0  0  0  0  0  0  0  0  0  0  0  0
   -6.6090   17.8250  -32.6590 C   0  0  0  0  0  0  0  0  0  0  0  0
   -6.7340   19.2340  -33.2560 C   0  0  0  0  0  0  0  0  0  0  0  0
   -5.3640   19.8850  -33.5960 C   0  0  0  0  0  0  0  0  0  0  0  0
   -5.2030   21.2130  -32.8980 C   0  0  0  0  0  0  0  0  0  0  0  0
   -4.2440   21.9650  -33.2250 O   0  0  0  0  0  0  0  0  0  0  0  0
   -6.1640   21.6440  -31.9200 N   0  0  0  0  0  0  0  0  0  0  0  0
   -5.9800   22.7810  -31.0590 C   0  0  0  0  0  0  0  0  0  0  0  0
   -6.9960   23.7450  -30.9660 C   0  0  0  0  0  0  0  0  0  0  0  0
   -6.8480   24.8490  -30.1220 C   0  0  0  0  0  0  0  0  0  0  0  0
   -5.6900   24.9950  -29.3550 C   0  0  0  0  0  0  0  0  0  0  0  0
   -4.6740   24.0320  -29.4240 C   0  0  0  0  0  0  0  0  0  0  0  0
   -3.2300   24.1900  -28.4280 S   0  0  0  0  0  0  0  0  0  0  0  0
   -3.6180   24.5900  -27.0300 O   0  0  0  0  0  0  0  0  0  0  0  0
   -2.3490   25.2640  -29.0060 O   0  0  0  0  0  0  0  0  0  0  0  0
   -2.3670   22.6720  -28.4190 N   0  0  0  0  0  0  0  0  0  0  0  0
   -3.1810   21.5980  -27.8510 C   0  0  0  0  0  0  0  0  0  0  0  0
   -2.2100   20.5720  -27.2890 C   0  0  0  0  0  0  0  0  0  0  0  0
   -0.9080   21.3290  -27.0780 C   0  0  0  0  0  0  0  0  0  0  0  0
   -1.1750   22.7430  -27.5730 C   0  0  0  0  0  0  0  0  0  0  0  0
   -4.8280   22.9210  -30.2660 C   0  0  0  0  0  0  0  0  0  0  0  0
   -4.1620   18.9690  -33.2900 C   0  0  0  0  0  0  0  0  0  0  0  0
   -4.3850   17.5660  -33.8690 C   0  0  0  0  0  0  0  0  0  0  0  0
   -7.2250   15.3120  -34.2830 N   0  0  0  0  0  0  0  0  0  0  0  0
   -7.5420   14.0300  -34.6000 C   0  0  0  0  0  0  0  0  0  0  0  0
   -7.0504   10.9910  -33.8850 H   0  0  0  0  0  0  0  0  0  0  0  0
   -7.8419   11.5726  -35.3890 H   0  0  0  0  0  0  0  0  0  0  0  0
   -6.0877   11.1858  -35.3890 H   0  0  0  0  0  0  0  0  0  0  0  0
   -4.5725   12.5888  -33.7781 H   0  0  0  0  0  0  0  0  0  0  0  0
   -7.5996   17.3469  -32.6472 H   0  0  0  0  0  0  0  0  0  0  0  0
   -6.2162   17.9044  -31.6346 H   0  0  0  0  0  0  0  0  0  0  0  0
   -7.3281   19.1698  -34.1795 H   0  0  0  0  0  0  0  0  0  0  0  0
   -7.2142   19.8672  -32.4954 H   0  0  0  0  0  0  0  0  0  0  0  0
   -5.3701   20.0491  -34.6837 H   0  0  0  0  0  0  0  0  0  0  0  0
   -7.0910   21.1620  -31.9010 H   0  0  0  0  0  0  0  0  0  0  0  0
   -7.9141   23.6308  -31.5610 H   0  0  0  0  0  0  0  0  0  0  0  0
   -7.6452   25.6045  -30.0617 H   0  0  0  0  0  0  0  0  0  0  0  0
   -5.5751   25.8677  -28.6953 H   0  0  0  0  0  0  0  0  0  0  0  0
   -3.8240   21.9915  -27.0499 H   0  0  0  0  0  0  0  0  0  0  0  0
   -3.8365   21.1502  -28.6125 H   0  0  0  0  0  0  0  0  0  0  0  0
   -2.5821   20.1710  -26.3347 H   0  0  0  0  0  0  0  0  0  0  0  0
   -2.0817   19.7138  -27.9651 H   0  0  0  0  0  0  0  0  0  0  0  0
   -0.6379   21.3395  -26.0117 H   0  0  0  0  0  0  0  0  0  0  0  0
   -0.0712   20.8595  -27.6159 H   0  0  0  0  0  0  0  0  0  0  0  0
   -1.3536   23.4158  -26.7213 H   0  0  0  0  0  0  0  0  0  0  0  0
   -0.3139   23.1363  -28.1332 H   0  0  0  0  0  0  0  0  0  0  0  0
   -4.0412   22.1533  -30.3061 H   0  0  0  0  0  0  0  0  0  0  0  0
   -3.2550   19.4032  -33.7359 H   0  0  0  0  0  0  0  0  0  0  0  0
   -4.0504   18.8865  -32.1988 H   0  0  0  0  0  0  0  0  0  0  0  0
   -4.3491   17.6237  -34.9669 H   0  0  0  0  0  0  0  0  0  0  0  0
   -3.5942   16.9062  -33.4825 H   0  0  0  0  0  0  0  0  0  0  0  0
   -8.5368   13.7938  -35.0057 H   0  0  0  0  0  0  0  0  0  0  0  0
  1  2  1  0
  2  3  2  0
  3  4  1  0
  4  5  2  0
  5  6  1  0
  6  7  1  0
  7  8  1  0
  8  9  1  0
  9 10  1  0
 10 11  2  0
 10 12  1  0
 12 13  1  0
 13 14  2  0
 14 15  1  0
 15 16  2  0
 16 17  1  0
 17 18  1  0
 18 19  2  0
 18 20  2  0
 18 21  1  0
 21 22  1  0
 22 23  1  0
 23 24  1  0
 24 25  1  0
 17 26  2  0
  9 27  1  0
 27 28  1  0
  5 29  1  0
 29 30  2  0
 30  2  1  0
 28  6  1  0
 26 13  1  0
 25 21  1  0
  1 31  1  0
  1 32  1  0
  1 33  1  0
  3 34  1  0
  7 35  1  0
  7 36  1  0
  8 37  1  0
  8 38  1  0
  9 39  1  0
 12 40  1  0
 14 41  1  0
 15 42  1  0
 16 43  1  0
 22 44  1  0
 22 45  1  0
 23 46  1  0
 23 47  1  0
 24 48  1  0
 24 49  1  0
 25 50  1  0
 25 51  1  0
 26 52  1  0
 27 53  1  0
 27 54  1  0
 28 55  1  0
 28 56  1  0
 30 57  1  0
M  END
>  <UniqueID>  (36) 
35

>  <SMILES>  (36) 
Cc1cnc(N2CCC(C(=O)Nc3cccc(S(=O)(=O)N4CCCC4)c3)CC2)nc1

>  <Energy>  (36) 
64.56727259631616

>  <Genealogy>  (36) 
Cc1cnc(N2CCC(C(=O)Nc3cccc(S(=O)(=O)N4CCCC4)c3)CC2)nc1 (3D coordinates assigned)
Cc1cnc(N2CCC(C(=O)Nc3cccc(S(=O)(=O)N4CCCC4)c3)CC2)nc1 (nonaromatic ring conformer: 64.56727259631616 kcal/mol)

>  <smiles>  (36) 
Cc1cnc(N2CCC(C(=O)Nc3cccc(S(=O)(=O)N4CCCC4)c3)CC2)nc1

>  <score_type>  (36) 
oracle

>  <origin>  (36) 
adgpu

>  <m_score__min__energy>  (36) 
-9.3699999999999992

>  <m_primary>  (36) 
energy

$$$$
36:0
     RDKit          3D

 62 65  0  0  0  0  0  0  0  0999 V2000
   -4.2734   24.1826  -27.6692 H   0  0  0  0  0  0  0  0  0  0  0  0
   -3.4520   23.6520  -28.1730 C   0  0  0  0  0  0  0  0  0  0  0  0
   -2.8860   22.5240  -27.5740 C   0  0  0  0  0  0  0  0  0  0  0  0
   -3.2742   22.1668  -26.6087 H   0  0  0  0  0  0  0  0  0  0  0  0
   -1.8260   21.8420  -28.1930 C   0  0  0  0  0  0  0  0  0  0  0  0
   -1.3550   20.5420  -27.5970 C   0  0  0  0  0  0  0  0  0  0  0  0
   -1.3801   20.6114  -26.4995 H   0  0  0  0  0  0  0  0  0  0  0  0
   -2.0148   19.7265  -27.9281 H   0  0  0  0  0  0  0  0  0  0  0  0
   -0.3260   20.3384  -27.9281 H   0  0  0  0  0  0  0  0  0  0  0  0
   -1.3300   22.3190  -29.4280 C   0  0  0  0  0  0  0  0  0  0  0  0
   -0.3030   21.6230  -30.1470 N   0  0  0  0  0  0  0  0  0  0  0  0
   -0.3700   21.0060  -31.2950 C   0  0  0  0  0  0  0  0  0  0  0  0
    0.7880   20.4950  -31.7940 N   0  0  0  0  0  0  0  0  0  0  0  0
    0.8500   19.8720  -32.9980 C   0  0  0  0  0  0  0  0  0  0  0  0
    2.0640   19.3660  -33.4770 C   0  0  0  0  0  0  0  0  0  0  0  0
    2.9758   19.4693  -32.8704 H   0  0  0  0  0  0  0  0  0  0  0  0
    2.1270   18.7240  -34.7330 C   0  0  0  0  0  0  0  0  0  0  0  0
    3.3830   18.1960  -35.2350 N   0  0  0  0  0  0  0  0  0  0  0  0
    3.4290   16.8870  -35.9000 C   0  0  0  0  0  0  0  0  0  0  0  0
    3.4570   16.0911  -35.1413 H   0  0  0  0  0  0  0  0  0  0  0  0
    2.5346   16.7633  -36.5284 H   0  0  0  0  0  0  0  0  0  0  0  0
    4.3298   16.8264  -36.5284 H   0  0  0  0  0  0  0  0  0  0  0  0
    4.6270   18.9600  -35.0860 C   0  0  0  0  0  0  0  0  0  0  0  0
    4.8481   19.0958  -34.0170 H   0  0  0  0  0  0  0  0  0  0  0  0
    5.4527   18.4131  -35.5646 H   0  0  0  0  0  0  0  0  0  0  0  0
    4.5127   19.9438  -35.5646 H   0  0  0  0  0  0  0  0  0  0  0  0
    0.9400   18.6090  -35.4900 C   0  0  0  0  0  0  0  0  0  0  0  0
    0.9678   18.1136  -36.4718 H   0  0  0  0  0  0  0  0  0  0  0  0
   -0.2700   19.1170  -35.0070 C   0  0  0  0  0  0  0  0  0  0  0  0
   -1.1864   19.0193  -35.6076 H   0  0  0  0  0  0  0  0  0  0  0  0
   -0.3150   19.7480  -33.7630 C   0  0  0  0  0  0  0  0  0  0  0  0
   -1.4830   20.2340  -33.2760 N   0  0  0  0  0  0  0  0  0  0  0  0
   -1.5620   20.8490  -32.0650 C   0  0  0  0  0  0  0  0  0  0  0  0
   -2.8570   21.2750  -31.6090 N   0  0  0  0  0  0  0  0  0  0  0  0
   -3.6370   22.1800  -32.4560 C   0  0  0  0  0  0  0  0  0  0  0  0
   -4.2207   22.8590  -31.8171 H   0  0  0  0  0  0  0  0  0  0  0  0
   -2.9456   22.7532  -33.0912 H   0  0  0  0  0  0  0  0  0  0  0  0
   -4.5990   21.3860  -33.3620 C   0  0  0  0  0  0  0  0  0  0  0  0
   -5.5458   21.9407  -33.4394 H   0  0  0  0  0  0  0  0  0  0  0  0
   -4.1098   21.2705  -34.3404 H   0  0  0  0  0  0  0  0  0  0  0  0
   -4.9020   19.9640  -32.8240 C   0  0  0  0  0  0  0  0  0  0  0  0
   -4.0856   19.3007  -33.1457 H   0  0  0  0  0  0  0  0  0  0  0  0
   -6.2110   19.4250  -33.4100 C   0  0  0  0  0  0  0  0  0  0  0  0
   -6.8910   19.1450  -32.5920 H   0  0  0  0  0  0  0  0  0  0  0  0
   -6.6828   20.2020  -34.0294 H   0  0  0  0  0  0  0  0  0  0  0  0
   -5.9989   18.5410  -34.0294 H   0  0  0  0  0  0  0  0  0  0  0  0
   -4.9430   19.9510  -31.2840 C   0  0  0  0  0  0  0  0  0  0  0  0
   -5.7442   20.6230  -30.9427 H   0  0  0  0  0  0  0  0  0  0  0  0
   -5.1286   18.9183  -30.9539 H   0  0  0  0  0  0  0  0  0  0  0  0
   -3.6060   20.4180  -30.6760 C   0  0  0  0  0  0  0  0  0  0  0  0
   -3.8109   20.9853  -29.7561 H   0  0  0  0  0  0  0  0  0  0  0  0
   -2.9962   19.5281  -30.4609 H   0  0  0  0  0  0  0  0  0  0  0  0
   -1.9440   23.4170  -30.0460 C   0  0  0  0  0  0  0  0  0  0  0  0
   -1.6080   23.7381  -31.0430 H   0  0  0  0  0  0  0  0  0  0  0  0
   -2.9840   24.1120  -29.4060 C   0  0  0  0  0  0  0  0  0  0  0  0
   -3.6500   25.2190  -30.0290 N   0  0  0  0  0  0  0  0  0  0  0  0
   -5.0100   25.2710  -30.4820 C   0  0  0  0  0  0  0  0  0  0  0  0
   -5.2990   24.7660  -31.5990 O   0  0  0  0  0  0  0  0  0  0  0  0
   -6.1060   25.8600  -29.6490 C   0  0  0  0  0  0  0  0  0  0  0  0
   -5.8662   25.7311  -28.5832 H   0  0  0  0  0  0  0  0  0  0  0  0
   -6.2033   26.9319  -29.8759 H   0  0  0  0  0  0  0  0  0  0  0  0
   -7.0537   25.3497  -29.8759 H   0  0  0  0  0  0  0  0  0  0  0  0
  1  2  1  0
  2  3  2  0
  3  4  1  0
  3  5  1  0
  5  6  1  0
  6  7  1  0
  6  8  1  0
  6  9  1  0
  5 10  2  0
 10 11  1  0
 11 12  2  0
 12 13  1  0
 13 14  1  0
 14 15  2  0
 15 16  1  0
 15 17  1  0
 17 18  1  0
 18 19  1  0
 19 20  1  0
 19 21  1  0
 19 22  1  0
 18 23  1  0
 23 24  1  0
 23 25  1  0
 23 26  1  0
 17 27  2  0
 27 28  1  0
 27 29  1  0
 29 30  1  0
 29 31  2  0
 31 32  1  0
 32 33  2  0
 33 34  1  0
 34 35  1  0
 35 36  1  0
 35 37  1  0
 35 38  1  0
 38 39  1  0
 38 40  1  0
 38 41  1  0
 41 42  1  0
 41 43  1  0
 43 44  1  0
 43 45  1  0
 43 46  1  0
 41 47  1  0
 47 48  1  0
 47 49  1  0
 47 50  1  0
 50 51  1  0
 50 52  1  0
 10 53  1  0
 53 54  1  0
 53 55  2  0
 55 56  1  0
 56 57  1  0
 57 58  2  0
 57 59  1  0
 59 60  1  0
 59 61  1  0
 59 62  1  0
 55  2  1  0
 33 12  1  0
 50 34  1  0
 31 14  1  0
M  CHG  2  13  -1  56  -1
M  END
>  <UniqueID>  (37) 
36

>  <SMILES>  (37) 
CC(=O)[N-]c1ccc(C)c(/N=c2/[n-]c3cc(N(C)C)ccc3nc2N2CCC(C)CC2)c1

>  <Energy>  (37) 
92.32388278890252

>  <Genealogy>  (37) 
CC(=O)[N-]c1ccc(C)c(N=c2[n-]c3cc(N(C)C)ccc3nc2N2CCC(C)CC2)c1 (protonated)
CC(=O)[N-]c1ccc(C)c(/N=c2/[n-]c3cc(N(C)C)ccc3nc2N2CCC(C)CC2)c1 (cis-trans isomerization)
CC(=O)[N-]c1ccc(C)c(/N=c2/[n-]c3cc(N(C)C)ccc3nc2N2CCC(C)CC2)c1 (3D coordinates assigned)
CC(=O)[N-]c1ccc(C)c(/N=c2/[n-]c3cc(N(C)C)ccc3nc2N2CCC(C)CC2)c1 (nonaromatic ring conformer: 92.32388278890252 kcal/mol)

>  <smiles>  (37) 
CC(=O)Nc1ccc(C)c(N=c2[nH]c3cc(N(C)C)ccc3nc2N2CCC(C)CC2)c1

>  <score_type>  (37) 
oracle

>  <origin>  (37) 
adgpu

>  <m_score__min__energy>  (37) 
-9.2300000000000004

>  <m_primary>  (37) 
energy

$$$$
37:0
     RDKit          3D

 59 62  0  0  0  0  0  0  0  0999 V2000
   -5.1940   25.8430  -31.2310 O   0  0  0  0  0  0  0  0  0  0  0  0
   -4.6360   24.8220  -30.7540 C   0  0  0  0  0  0  0  0  0  0  0  0
   -4.6960   23.5850  -31.4700 N   0  0  0  0  0  0  0  0  0  0  0  0
   -5.9240   22.8750  -31.6370 C   0  0  0  0  0  0  0  0  0  0  0  0
   -7.1290   23.5740  -31.7600 C   0  0  0  0  0  0  0  0  0  0  0  0
   -8.3290   22.8750  -31.9080 C   0  0  0  0  0  0  0  0  0  0  0  0
   -8.3260   21.4780  -31.9640 C   0  0  0  0  0  0  0  0  0  0  0  0
   -7.1190   20.7700  -31.8670 C   0  0  0  0  0  0  0  0  0  0  0  0
   -7.1000   19.0060  -32.0000 S   0  0  0  0  0  0  0  0  0  0  0  0
   -8.3940   18.4630  -31.4600 O   0  0  0  0  0  0  0  0  0  0  0  0
   -5.9810   18.4580  -31.1570 O   0  0  0  0  0  0  0  0  0  0  0  0
   -6.8610   18.4550  -33.6480 N   0  0  0  0  0  0  0  0  0  0  0  0
   -6.6950   17.0010  -33.7020 C   0  0  0  0  0  0  0  0  0  0  0  0
   -5.2160   16.7050  -33.8310 C   0  0  0  0  0  0  0  0  0  0  0  0
   -4.6090   17.9560  -34.4220 C   0  0  0  0  0  0  0  0  0  0  0  0
   -5.6620   19.0450  -34.2600 C   0  0  0  0  0  0  0  0  0  0  0  0
   -5.9200   21.4750  -31.7030 C   0  0  0  0  0  0  0  0  0  0  0  0
   -3.9510   24.9120  -29.4990 N   0  0  0  0  0  0  0  0  0  0  0  0
   -2.7020   24.2680  -29.1950 C   0  0  0  0  0  0  0  0  0  0  0  0
   -2.6300   22.8670  -29.2630 C   0  0  0  0  0  0  0  0  0  0  0  0
   -1.4170   22.2000  -29.0240 C   0  0  0  0  0  0  0  0  0  0  0  0
   -1.3160   20.4400  -29.1470 S   0  0  0  0  0  0  0  0  0  0  0  0
   -0.0130   19.9780  -28.5520 O   0  0  0  0  0  0  0  0  0  0  0  0
   -2.4320   19.8280  -28.3480 O   0  0  0  0  0  0  0  0  0  0  0  0
   -1.4320   19.8880  -30.8030 N   0  0  0  0  0  0  0  0  0  0  0  0
   -0.2710   20.3670  -31.5830 C   0  0  0  0  0  0  0  0  0  0  0  0
   -0.5350   20.2660  -33.0880 C   0  0  0  0  0  0  0  0  0  0  0  0
   -1.7050   21.1760  -33.5000 C   0  0  0  0  0  0  0  0  0  0  0  0
   -2.7010   21.4170  -32.3520 C   0  0  0  0  0  0  0  0  0  0  0  0
   -2.7530   20.2090  -31.4010 C   0  0  0  0  0  0  0  0  0  0  0  0
   -0.2690   22.9440  -28.7250 C   0  0  0  0  0  0  0  0  0  0  0  0
   -0.3260   24.3360  -28.6710 C   0  0  0  0  0  0  0  0  0  0  0  0
   -1.5260   25.0040  -28.9270 C   0  0  0  0  0  0  0  0  0  0  0  0
   -1.5240   26.3930  -28.9480 O   0  0  0  0  0  0  0  0  0  0  0  0
   -7.1317   24.6738  -31.7402 H   0  0  0  0  0  0  0  0  0  0  0  0
   -9.2789   23.4249  -31.9807 H   0  0  0  0  0  0  0  0  0  0  0  0
   -9.2734   20.9322  -32.0845 H   0  0  0  0  0  0  0  0  0  0  0  0
   -7.0882   16.5457  -32.7811 H   0  0  0  0  0  0  0  0  0  0  0  0
   -7.2449   16.5845  -34.5589 H   0  0  0  0  0  0  0  0  0  0  0  0
   -4.7780   16.4932  -32.8444 H   0  0  0  0  0  0  0  0  0  0  0  0
   -5.0278   15.8218  -34.4591 H   0  0  0  0  0  0  0  0  0  0  0  0
   -3.6903   18.2281  -33.8816 H   0  0  0  0  0  0  0  0  0  0  0  0
   -4.3339   17.8128  -35.4774 H   0  0  0  0  0  0  0  0  0  0  0  0
   -5.2713   19.8441  -33.6128 H   0  0  0  0  0  0  0  0  0  0  0  0
   -5.9141   19.4712  -35.2423 H   0  0  0  0  0  0  0  0  0  0  0  0
   -4.9695   20.9267  -31.6255 H   0  0  0  0  0  0  0  0  0  0  0  0
   -3.5322   22.2864  -29.5058 H   0  0  0  0  0  0  0  0  0  0  0  0
   -0.0730   21.4174  -31.3232 H   0  0  0  0  0  0  0  0  0  0  0  0
    0.5967   19.7366  -31.3386 H   0  0  0  0  0  0  0  0  0  0  0  0
    0.3695   20.5721  -33.6341 H   0  0  0  0  0  0  0  0  0  0  0  0
   -0.7954   19.2253  -33.3311 H   0  0  0  0  0  0  0  0  0  0  0  0
   -1.2996   22.1459  -33.8239 H   0  0  0  0  0  0  0  0  0  0  0  0
   -2.2490   20.6715  -34.3122 H   0  0  0  0  0  0  0  0  0  0  0  0
   -2.3882   22.3067  -31.7858 H   0  0  0  0  0  0  0  0  0  0  0  0
   -3.7020   21.5654  -32.7833 H   0  0  0  0  0  0  0  0  0  0  0  0
   -3.4612   20.4314  -30.5892 H   0  0  0  0  0  0  0  0  0  0  0  0
   -3.0690   19.3366  -31.9918 H   0  0  0  0  0  0  0  0  0  0  0  0
    0.6828   22.4275  -28.5317 H   0  0  0  0  0  0  0  0  0  0  0  0
    0.5788   24.9114  -28.4255 H   0  0  0  0  0  0  0  0  0  0  0  0
  1  2  2  0
  2  3  1  0
  3  4  1  0
  4  5  2  0
  5  6  1  0
  6  7  2  0
  7  8  1  0
  8  9  1  0
  9 10  2  0
  9 11  2  0
  9 12  1  0
 12 13  1  0
 13 14  1  0
 14 15  1  0
 15 16  1  0
  8 17  2  0
  2 18  1  0
 18 19  1  0
 19 20  2  0
 20 21  1  0
 21 22  1  0
 22 23  2  0
 22 24  2  0
 22 25  1  0
 25 26  1  0
 26 27  1  0
 27 28  1  0
 28 29  1  0
 29 30  1  0
 21 31  2  0
 31 32  1  0
 32 33  2  0
 33 34  1  0
 17  4  1  0
 33 19  1  0
 16 12  1  0
 30 25  1  0
  5 35  1  0
  6 36  1  0
  7 37  1  0
 13 38  1  0
 13 39  1  0
 14 40  1  0
 14 41  1  0
 15 42  1  0
 15 43  1  0
 16 44  1  0
 16 45  1  0
 17 46  1  0
 20 47  1  0
 26 48  1  0
 26 49  1  0
 27 50  1  0
 27 51  1  0
 28 52  1  0
 28 53  1  0
 29 54  1  0
 29 55  1  0
 30 56  1  0
 30 57  1  0
 31 58  1  0
 32 59  1  0
M  CHG  3   3  -1  18  -1  34  -1
M  END
>  <UniqueID>  (38) 
37

>  <SMILES>  (38) 
O=C([N-]c1cccc(S(=O)(=O)N2CCCC2)c1)[N-]c1cc(S(=O)(=O)N2CCCCC2)ccc1[O-]

>  <Energy>  (38) 
74.46124980728847

>  <Genealogy>  (38) 
O=C([N-]c1cccc(S(=O)(=O)N2CCCC2)c1)[N-]c1cc(S(=O)(=O)N2CCCCC2)ccc1[O-] (protonated)
O=C([N-]c1cccc(S(=O)(=O)N2CCCC2)c1)[N-]c1cc(S(=O)(=O)N2CCCCC2)ccc1[O-] (3D coordinates assigned)
O=C([N-]c1cccc(S(=O)(=O)N2CCCC2)c1)[N-]c1cc(S(=O)(=O)N2CCCCC2)ccc1[O-] (nonaromatic ring conformer: 74.46124980728847 kcal/mol)

>  <smiles>  (38) 
O=C(Nc1cccc(S(=O)(=O)N2CCCC2)c1)Nc1cc(S(=O)(=O)N2CCCCC2)ccc1O

>  <score_type>  (38) 
oracle

>  <origin>  (38) 
adgpu

>  <m_score__min__energy>  (38) 
-16.100000000000001

>  <m_primary>  (38) 
energy

$$$$
38:0
     RDKit          3D

 43 45  0  0  0  0  0  0  0  0999 V2000
   -1.9920   25.8540  -28.9650 O   0  0  0  0  0  0  0  0  0  0  0  0
   -2.2340   24.5430  -29.3590 C   0  0  0  0  0  0  0  0  0  0  0  0
   -1.4600   23.5080  -28.8230 C   0  0  0  0  0  0  0  0  0  0  0  0
   -1.6850   22.1860  -29.2150 C   0  0  0  0  0  0  0  0  0  0  0  0
   -2.6900   21.8900  -30.1480 C   0  0  0  0  0  0  0  0  0  0  0  0
   -2.9420   20.4760  -30.5880 C   0  0  0  0  0  0  0  0  0  0  0  0
   -4.3450   20.3370  -30.9980 N   0  0  0  0  0  0  0  0  0  0  0  0
   -4.4760   20.2750  -32.4580 C   0  0  0  0  0  0  0  0  0  0  0  0
   -5.4180   19.1660  -32.8470 C   0  0  0  0  0  0  0  0  0  0  0  0
   -5.2110   18.4270  -34.0210 C   0  0  0  0  0  0  0  0  0  0  0  0
   -6.1180   17.4240  -34.3720 C   0  0  0  0  0  0  0  0  0  0  0  0
   -7.1930   17.1700  -33.5800 N   0  0  0  0  0  0  0  0  0  0  0  0
   -7.4210   17.8740  -32.4390 C   0  0  0  0  0  0  0  0  0  0  0  0
   -6.5410   18.8870  -32.0540 C   0  0  0  0  0  0  0  0  0  0  0  0
   -3.4770   22.9280  -30.6680 C   0  0  0  0  0  0  0  0  0  0  0  0
   -3.2470   24.2640  -30.2860 C   0  0  0  0  0  0  0  0  0  0  0  0
   -3.9970   25.3340  -30.8030 O   0  0  0  0  0  0  0  0  0  0  0  0
   -5.3830   25.5700  -30.5500 C   0  0  0  0  0  0  0  0  0  0  0  0
   -6.2030   24.3350  -30.8200 C   0  0  0  0  0  0  0  0  0  0  0  0
   -6.3100   23.8240  -32.1250 C   0  0  0  0  0  0  0  0  0  0  0  0
   -7.0700   22.6760  -32.3700 C   0  0  0  0  0  0  0  0  0  0  0  0
   -7.7160   22.0250  -31.3180 C   0  0  0  0  0  0  0  0  0  0  0  0
   -7.6000   22.5180  -30.0140 C   0  0  0  0  0  0  0  0  0  0  0  0
   -6.8420   23.6650  -29.7640 C   0  0  0  0  0  0  0  0  0  0  0  0
   -0.6717   23.7359  -28.0905 H   0  0  0  0  0  0  0  0  0  0  0  0
   -1.0732   21.3759  -28.7914 H   0  0  0  0  0  0  0  0  0  0  0  0
   -2.2856   20.2329  -31.4366 H   0  0  0  0  0  0  0  0  0  0  0  0
   -2.7321   19.7885  -29.7554 H   0  0  0  0  0  0  0  0  0  0  0  0
   -4.7080   19.4390  -30.6000 H   0  0  0  0  0  0  0  0  0  0  0  0
   -4.8691   21.2330  -32.8289 H   0  0  0  0  0  0  0  0  0  0  0  0
   -3.4879   20.0794  -32.8999 H   0  0  0  0  0  0  0  0  0  0  0  0
   -4.3408   18.6356  -34.6607 H   0  0  0  0  0  0  0  0  0  0  0  0
   -5.9619   16.8391  -35.2905 H   0  0  0  0  0  0  0  0  0  0  0  0
   -8.3000   17.6449  -31.8186 H   0  0  0  0  0  0  0  0  0  0  0  0
   -6.7269   19.4625  -31.1351 H   0  0  0  0  0  0  0  0  0  0  0  0
   -4.2818   22.6964  -31.3812 H   0  0  0  0  0  0  0  0  0  0  0  0
   -5.5110   25.8629  -29.4975 H   0  0  0  0  0  0  0  0  0  0  0  0
   -5.7283   26.3713  -31.2198 H   0  0  0  0  0  0  0  0  0  0  0  0
   -5.7946   24.3284  -32.9557 H   0  0  0  0  0  0  0  0  0  0  0  0
   -7.1589   22.2851  -33.3944 H   0  0  0  0  0  0  0  0  0  0  0  0
   -8.3163   21.1244  -31.5142 H   0  0  0  0  0  0  0  0  0  0  0  0
   -8.1060   22.0022  -29.1846 H   0  0  0  0  0  0  0  0  0  0  0  0
   -6.7454   24.0446  -28.7361 H   0  0  0  0  0  0  0  0  0  0  0  0
  1  2  1  0
  2  3  2  0
  3  4  1  0
  4  5  2  0
  5  6  1  0
  6  7  1  0
  7  8  1  0
  8  9  1  0
  9 10  2  0
 10 11  1  0
 11 12  2  0
 12 13  1  0
 13 14  2  0
  5 15  1  0
 15 16  2  0
 16 17  1  0
 17 18  1  0
 18 19  1  0
 19 20  2  0
 20 21  1  0
 21 22  2  0
 22 23  1  0
 23 24  2  0
 16  2  1  0
 24 19  1  0
 14  9  1  0
  3 25  1  0
  4 26  1  0
  6 27  1  0
  6 28  1  0
  7 29  1  0
  8 30  1  0
  8 31  1  0
 10 32  1  0
 11 33  1  0
 13 34  1  0
 14 35  1  0
 15 36  1  0
 18 37  1  0
 18 38  1  0
 20 39  1  0
 21 40  1  0
 22 41  1  0
 23 42  1  0
 24 43  1  0
M  CHG  1   1  -1
M  END
>  <UniqueID>  (39) 
38

>  <SMILES>  (39) 
[O-]c1ccc(CNCc2ccncc2)cc1OCc1ccccc1

>  <Energy>  (39) 
42.45365423144025

>  <Genealogy>  (39) 
[O-]c1ccc(CNCc2ccncc2)cc1OCc1ccccc1 (protonated)
[O-]c1ccc(CNCc2ccncc2)cc1OCc1ccccc1 (3D coordinates assigned)
[O-]c1ccc(CNCc2ccncc2)cc1OCc1ccccc1 (optimized conformer: 42.45365423144025 kcal/mol)

>  <smiles>  (39) 
Oc1ccc(CNCc2ccncc2)cc1OCc1ccccc1

>  <score_type>  (39) 
oracle

>  <origin>  (39) 
adgpu

>  <m_score__min__energy>  (39) 
-11.42

>  <m_primary>  (39) 
energy

$$$$
39:0
     RDKit          3D

 47 49  0  0  0  0  0  0  0  0999 V2000
   -8.8790   21.0790  -31.9820 C   0  0  0  0  0  0  0  0  0  0  0  0
   -7.3940   21.1190  -32.2330 C   0  0  0  0  0  0  0  0  0  0  0  0
   -6.7720   22.3730  -32.3550 C   0  0  0  0  0  0  0  0  0  0  0  0
   -5.4020   22.4720  -32.5940 C   0  0  0  0  0  0  0  0  0  0  0  0
   -4.6210   21.3160  -32.7260 C   0  0  0  0  0  0  0  0  0  0  0  0
   -3.2040   21.3930  -32.9580 N   0  0  0  0  0  0  0  0  0  0  0  0
   -2.2590   21.8440  -31.9760 C   0  0  0  0  0  0  0  0  0  0  0  0
   -0.6650   21.5370  -32.2170 S   0  0  0  0  0  0  0  0  0  0  0  0
   -2.6620   22.7940  -30.9750 N   0  0  0  0  0  0  0  0  0  0  0  0
   -2.0460   22.9120  -29.6810 C   0  0  0  0  0  0  0  0  0  0  0  0
   -1.5410   21.7800  -29.0140 C   0  0  0  0  0  0  0  0  0  0  0  0
   -0.9710   21.9030  -27.7430 C   0  0  0  0  0  0  0  0  0  0  0  0
   -0.9110   23.1520  -27.1210 C   0  0  0  0  0  0  0  0  0  0  0  0
   -1.4260   24.2800  -27.7660 C   0  0  0  0  0  0  0  0  0  0  0  0
   -1.9960   24.1630  -29.0390 C   0  0  0  0  0  0  0  0  0  0  0  0
   -2.5050   25.2970  -29.6640 O   0  0  0  0  0  0  0  0  0  0  0  0
   -5.2270   20.0640  -32.5760 C   0  0  0  0  0  0  0  0  0  0  0  0
   -6.6040   19.9440  -32.3320 C   0  0  0  0  0  0  0  0  0  0  0  0
   -7.2460   18.2930  -32.1960 S   0  0  0  0  0  0  0  0  0  0  0  0
   -6.8980   17.7700  -30.8300 O   0  0  0  0  0  0  0  0  0  0  0  0
   -8.7390   18.2360  -32.3530 O   0  0  0  0  0  0  0  0  0  0  0  0
   -6.4910   17.2890  -33.4110 N   0  0  0  0  0  0  0  0  0  0  0  0
   -5.3700   16.5080  -32.8440 C   0  0  0  0  0  0  0  0  0  0  0  0
   -4.0000   17.0920  -33.2340 C   0  0  0  0  0  0  0  0  0  0  0  0
   -3.7990   17.1620  -34.6380 O   0  0  0  0  0  0  0  0  0  0  0  0
   -4.9870   17.4150  -35.3780 C   0  0  0  0  0  0  0  0  0  0  0  0
   -6.0910   18.1140  -34.5670 C   0  0  0  0  0  0  0  0  0  0  0  0
   -9.0677   21.0739  -30.8983 H   0  0  0  0  0  0  0  0  0  0  0  0
   -9.3510   21.9648  -32.4322 H   0  0  0  0  0  0  0  0  0  0  0  0
   -9.3026   20.1691  -32.4322 H   0  0  0  0  0  0  0  0  0  0  0  0
   -7.3740   23.2888  -32.2607 H   0  0  0  0  0  0  0  0  0  0  0  0
   -4.9317   23.4627  -32.6794 H   0  0  0  0  0  0  0  0  0  0  0  0
   -2.8440   21.1260  -33.9030 H   0  0  0  0  0  0  0  0  0  0  0  0
   -3.4550   23.4340  -31.2080 H   0  0  0  0  0  0  0  0  0  0  0  0
   -1.5951   20.7925  -29.4955 H   0  0  0  0  0  0  0  0  0  0  0  0
   -0.5695   21.0151  -27.2326 H   0  0  0  0  0  0  0  0  0  0  0  0
   -0.4583   23.2481  -26.1231 H   0  0  0  0  0  0  0  0  0  0  0  0
   -1.3832   25.2619  -27.2720 H   0  0  0  0  0  0  0  0  0  0  0  0
   -4.6118   19.1552  -32.6508 H   0  0  0  0  0  0  0  0  0  0  0  0
   -5.4564   16.5087  -31.7474 H   0  0  0  0  0  0  0  0  0  0  0  0
   -5.4301   15.4871  -33.2491 H   0  0  0  0  0  0  0  0  0  0  0  0
   -3.9224   18.1077  -32.8190 H   0  0  0  0  0  0  0  0  0  0  0  0
   -3.2309   16.4187  -32.8277 H   0  0  0  0  0  0  0  0  0  0  0  0
   -4.7308   18.0538  -36.2361 H   0  0  0  0  0  0  0  0  0  0  0  0
   -5.3867   16.4367  -35.6833 H   0  0  0  0  0  0  0  0  0  0  0  0
   -5.7155   19.0830  -34.2063 H   0  0  0  0  0  0  0  0  0  0  0  0
   -6.9668   18.2615  -35.2160 H   0  0  0  0  0  0  0  0  0  0  0  0
  1  2  1  0
  2  3  2  0
  3  4  1  0
  4  5  2  0
  5  6  1  0
  6  7  1  0
  7  8  2  0
  7  9  1  0
  9 10  1  0
 10 11  2  0
 11 12  1  0
 12 13  2  0
 13 14  1  0
 14 15  2  0
 15 16  1  0
  5 17  1  0
 17 18  2  0
 18 19  1  0
 19 20  2  0
 19 21  2  0
 19 22  1  0
 22 23  1  0
 23 24  1  0
 24 25  1  0
 25 26  1  0
 26 27  1  0
 18  2  1  0
 27 22  1  0
 15 10  1  0
  1 28  1  0
  1 29  1  0
  1 30  1  0
  3 31  1  0
  4 32  1  0
  6 33  1  0
  9 34  1  0
 11 35  1  0
 12 36  1  0
 13 37  1  0
 14 38  1  0
 17 39  1  0
 23 40  1  0
 23 41  1  0
 24 42  1  0
 24 43  1  0
 26 44  1  0
 26 45  1  0
 27 46  1  0
 27 47  1  0
M  CHG  1  16  -1
M  END
>  <UniqueID>  (40) 
39

>  <SMILES>  (40) 
Cc1ccc(NC(=S)Nc2ccccc2[O-])cc1S(=O)(=O)N1CCOCC1

>  <Energy>  (40) 
72.0040645997042

>  <Genealogy>  (40) 
Cc1ccc(NC(=S)Nc2ccccc2[O-])cc1S(=O)(=O)N1CCOCC1 (protonated)
Cc1ccc(NC(=S)Nc2ccccc2[O-])cc1S(=O)(=O)N1CCOCC1 (3D coordinates assigned)
Cc1ccc(NC(=S)Nc2ccccc2[O-])cc1S(=O)(=O)N1CCOCC1 (nonaromatic ring conformer: 72.0040645997042 kcal/mol)

>  <smiles>  (40) 
Cc1ccc(NC(=S)Nc2ccccc2O)cc1S(=O)(=O)N1CCOCC1

>  <score_type>  (40) 
oracle

>  <origin>  (40) 
adgpu

>  <m_score__min__energy>  (40) 
-12.039999999999999

>  <m_primary>  (40) 
energy

$$$$
40:0
     RDKit          3D

 67 70  0  0  1  0  0  0  0  0999 V2000
   -8.7380   19.3090  -32.3100 C   0  0  0  0  0  0  0  0  0  0  0  0
   -7.5750   20.0500  -32.6340 O   0  0  0  0  0  0  0  0  0  0  0  0
   -7.4000   21.2860  -32.0120 C   0  0  0  0  0  0  0  0  0  0  0  0
   -7.8190   21.4490  -30.6890 C   0  0  0  0  0  0  0  0  0  0  0  0
   -7.6310   22.6910  -30.1010 C   0  0  0  0  0  0  0  0  0  0  0  0
   -7.0420   23.7470  -30.7990 C   0  0  0  0  0  0  0  0  0  0  0  0
   -6.8810   25.0450  -30.0830 C   0  0  0  0  0  0  0  0  0  0  0  0
   -5.2530   25.6940  -30.5080 S   0  0  0  0  0  0  0  0  0  0  0  0
   -4.0230   24.5190  -29.9650 C   0  0  0  0  0  0  0  0  0  0  0  0
   -3.6010   23.6030  -30.8750 N   0  0  0  0  0  0  0  0  0  0  0  0
   -2.6780   22.6880  -30.5400 C   0  0  0  0  0  0  0  0  0  0  0  0
   -2.1480   22.6670  -29.2740 C   0  0  0  0  0  0  0  0  0  0  0  0
   -1.2660   21.6800  -29.1920 N   0  0  0  0  0  0  0  0  0  0  0  0
   -1.2030   21.0420  -30.3970 C   0  0  0  0  0  0  0  0  0  0  0  0
   -2.0890   21.6910  -31.2070 N   0  0  0  0  0  0  0  0  0  0  0  0
   -2.2970   21.2850  -32.5860 C   0  0  2  0  0  0  0  0  0  0  0  0
   -3.7080   21.5120  -33.0870 C   0  0  0  0  0  0  0  0  0  0  0  0
   -3.6460   20.1380  -33.7230 C   0  0  2  0  0  0  0  0  0  0  0  0
   -4.8390   19.3390  -33.4900 N   0  0  0  0  0  0  0  0  0  0  0  0
   -5.1690   18.1960  -34.2630 C   0  0  0  0  0  0  0  0  0  0  0  0
   -6.4420   17.4900  -33.8800 C   0  0  0  0  0  0  0  0  0  0  0  0
   -4.4690   17.7670  -35.2120 O   0  0  0  0  0  0  0  0  0  0  0  0
   -2.5010   19.8110  -32.7870 C   0  0  0  0  0  0  0  0  0  0  0  0
   -2.5920   23.6040  -28.3740 C   0  0  0  0  0  0  0  0  0  0  0  0
   -2.1140   23.6020  -27.2010 N   0  0  0  0  0  0  0  0  0  0  0  0
   -1.1010   22.6480  -26.7280 C   0  0  0  0  0  0  0  0  0  0  0  0
   -0.2180   23.3790  -25.7260 C   0  0  0  0  0  0  0  0  0  0  0  0
   -0.1810   24.8540  -25.9760 C   0  0  0  0  0  0  0  0  0  0  0  0
    0.2130   25.2260  -27.3020 N   0  0  0  0  0  0  0  0  0  0  0  0
    1.6530   25.2960  -27.4650 C   0  0  0  0  0  0  0  0  0  0  0  0
   -0.4760   26.3280  -27.8630 C   0  0  0  0  0  0  0  0  0  0  0  0
   -3.5290   24.5400  -28.7010 N   0  0  0  0  0  0  0  0  0  0  0  0
   -6.6310   23.5700  -32.1090 C   0  0  0  0  0  0  0  0  0  0  0  0
   -6.8170   22.3300  -32.7040 C   0  0  0  0  0  0  0  0  0  0  0  0
   -8.8390   19.2447  -31.2165 H   0  0  0  0  0  0  0  0  0  0  0  0
   -9.6217   19.8109  -32.7309 H   0  0  0  0  0  0  0  0  0  0  0  0
   -8.6564   18.2960  -32.7309 H   0  0  0  0  0  0  0  0  0  0  0  0
   -8.2821   20.6206  -30.1329 H   0  0  0  0  0  0  0  0  0  0  0  0
   -7.9533   22.8476  -29.0610 H   0  0  0  0  0  0  0  0  0  0  0  0
   -7.6624   25.7503  -30.4022 H   0  0  0  0  0  0  0  0  0  0  0  0
   -6.9722   24.9039  -28.9959 H   0  0  0  0  0  0  0  0  0  0  0  0
   -0.5692   20.1825  -30.6607 H   0  0  0  0  0  0  0  0  0  0  0  0
   -1.4359   21.7994  -33.0375 H   0  0  0  0  0  0  0  0  0  0  0  0
   -3.8112   22.3420  -33.8015 H   0  0  0  0  0  0  0  0  0  0  0  0
   -4.5224   21.7920  -32.4027 H   0  0  0  0  0  0  0  0  0  0  0  0
   -3.5505   20.0094  -34.8113 H   0  0  0  0  0  0  0  0  0  0  0  0
   -5.4550   19.6580  -32.7090 H   0  0  0  0  0  0  0  0  0  0  0  0
   -6.5213   17.4460  -32.7837 H   0  0  0  0  0  0  0  0  0  0  0  0
   -7.3031   18.0395  -34.2882 H   0  0  0  0  0  0  0  0  0  0  0  0
   -6.4319   16.4686  -34.2882 H   0  0  0  0  0  0  0  0  0  0  0  0
   -1.6551   19.2957  -33.2655 H   0  0  0  0  0  0  0  0  0  0  0  0
   -2.6395   19.1328  -31.9321 H   0  0  0  0  0  0  0  0  0  0  0  0
   -1.5900   21.7906  -26.2425 H   0  0  0  0  0  0  0  0  0  0  0  0
   -0.5018   22.2696  -27.5693 H   0  0  0  0  0  0  0  0  0  0  0  0
   -0.6089   23.2010  -24.7133 H   0  0  0  0  0  0  0  0  0  0  0  0
    0.8062   22.9924  -25.8333 H   0  0  0  0  0  0  0  0  0  0  0  0
   -1.1872   25.2583  -25.7913 H   0  0  0  0  0  0  0  0  0  0  0  0
    0.5814   25.2653  -25.2981 H   0  0  0  0  0  0  0  0  0  0  0  0
    2.1333   25.3193  -26.4757 H   0  0  0  0  0  0  0  0  0  0  0  0
    2.0023   24.4138  -28.0215 H   0  0  0  0  0  0  0  0  0  0  0  0
    1.9151   26.2079  -28.0215 H   0  0  0  0  0  0  0  0  0  0  0  0
   -0.8724   26.9619  -27.0561 H   0  0  0  0  0  0  0  0  0  0  0  0
    0.2160   26.9153  -28.4844 H   0  0  0  0  0  0  0  0  0  0  0  0
   -1.3071   25.9631  -28.4844 H   0  0  0  0  0  0  0  0  0  0  0  0
   -3.8570   25.2420  -28.0150 H   0  0  0  0  0  0  0  0  0  0  0  0
   -6.1661   24.3959  -32.6674 H   0  0  0  0  0  0  0  0  0  0  0  0
   -6.4947   22.1758  -33.7444 H   0  0  0  0  0  0  0  0  0  0  0  0
  1  2  1  0
  2  3  1  0
  3  4  2  0
  4  5  1  0
  5  6  2  0
  6  7  1  0
  7  8  1  0
  8  9  1  0
  9 10  2  0
 10 11  1  0
 11 12  2  0
 12 13  1  0
 13 14  2  0
 14 15  1  0
 15 16  1  0
 16 17  1  0
 17 18  1  0
 18 19  1  0
 19 20  1  0
 20 21  1  0
 20 22  2  0
 18 23  1  0
 12 24  1  0
 24 25  2  0
 25 26  1  0
 26 27  1  0
 27 28  1  0
 28 29  1  0
 29 30  1  0
 29 31  1  0
 24 32  1  0
  6 33  1  0
 33 34  2  0
 34  3  1  0
 32  9  1  0
 15 11  1  0
 23 16  1  0
  1 35  1  0
  1 36  1  0
  1 37  1  0
  4 38  1  0
  5 39  1  0
  7 40  1  0
  7 41  1  0
 14 42  1  0
 16 43  1  6
 17 44  1  0
 17 45  1  0
 18 46  1  6
 19 47  1  0
 21 48  1  0
 21 49  1  0
 21 50  1  0
 23 51  1  0
 23 52  1  0
 26 53  1  0
 26 54  1  0
 27 55  1  0
 27 56  1  0
 28 57  1  0
 28 58  1  0
 30 59  1  0
 30 60  1  0
 30 61  1  0
 31 62  1  0
 31 63  1  0
 31 64  1  0
 32 65  1  0
 33 66  1  0
 34 67  1  0
M  END
>  <smiles>  (41) 
COc1ccc(CSc2nc3c(ncn3C3CC(NC(C)=O)C3)c(=NCCCN(C)C)[nH]2)cc1

>  <score_type>  (41) 
oracle

>  <origin>  (41) 
adgpu

>  <m_score__min__energy>  (41) 
-9.5700000000000003

>  <m_primary>  (41) 
energy

$$$$
41:0
     RDKit          3D

 59 62  0  0  0  0  0  0  0  0999 V2000
   -9.0800   22.2120  -32.3010 O   0  0  0  0  0  0  0  0  0  0  0  0
   -7.8210   21.4790  -31.9320 S   0  0  0  0  0  0  0  0  0  0  0  0
   -8.1320   20.5580  -30.7850 O   0  0  0  0  0  0  0  0  0  0  0  0
   -7.2540   20.5430  -33.2780 N   0  0  0  0  0  0  0  0  0  0  0  0
   -6.6090   19.2710  -33.1140 C   0  0  0  0  0  0  0  0  0  0  0  0
   -6.1090   18.5960  -34.2390 C   0  0  0  0  0  0  0  0  0  0  0  0
   -5.4940   17.3480  -34.1010 C   0  0  0  0  0  0  0  0  0  0  0  0
   -5.3680   16.7590  -32.8350 C   0  0  0  0  0  0  0  0  0  0  0  0
   -4.6230   15.1700  -32.6540 S   0  0  0  0  0  0  0  0  0  0  0  0
   -5.2500   14.2330  -33.6480 O   0  0  0  0  0  0  0  0  0  0  0  0
   -4.9180   14.6410  -31.2780 O   0  0  0  0  0  0  0  0  0  0  0  0
   -2.8900   15.1950  -32.9210 N   0  0  0  0  0  0  0  0  0  0  0  0
   -2.3800   13.9310  -33.4920 C   0  0  0  0  0  0  0  0  0  0  0  0
   -2.1900   13.9980  -35.0200 C   0  0  0  0  0  0  0  0  0  0  0  0
   -3.0540   14.9520  -35.5900 O   0  0  0  0  0  0  0  0  0  0  0  0
   -2.6620   16.2520  -35.1910 C   0  0  0  0  0  0  0  0  0  0  0  0
   -2.4440   16.3830  -33.6680 C   0  0  0  0  0  0  0  0  0  0  0  0
   -5.8380   17.4450  -31.7070 C   0  0  0  0  0  0  0  0  0  0  0  0
   -6.4520   18.6900  -31.8450 C   0  0  0  0  0  0  0  0  0  0  0  0
   -6.5590   22.6020  -31.4390 C   0  0  0  0  0  0  0  0  0  0  0  0
   -6.8350   23.9650  -31.2710 C   0  0  0  0  0  0  0  0  0  0  0  0
   -5.8090   24.8540  -30.9460 C   0  0  0  0  0  0  0  0  0  0  0  0
   -4.4990   24.3910  -30.7830 C   0  0  0  0  0  0  0  0  0  0  0  0
   -3.4950   25.2990  -30.4640 O   0  0  0  0  0  0  0  0  0  0  0  0
   -4.2110   23.0230  -30.9500 C   0  0  0  0  0  0  0  0  0  0  0  0
   -2.5750   22.3870  -30.7380 S   0  0  0  0  0  0  0  0  0  0  0  0
   -2.6400   21.2200  -29.7930 O   0  0  0  0  0  0  0  0  0  0  0  0
   -1.7050   23.4330  -30.1000 O   0  0  0  0  0  0  0  0  0  0  0  0
   -1.8450   21.8490  -32.2360 N   0  0  0  0  0  0  0  0  0  0  0  0
   -0.8400   20.7830  -32.0500 C   0  0  0  0  0  0  0  0  0  0  0  0
   -1.4380   19.3720  -32.1660 C   0  0  0  0  0  0  0  0  0  0  0  0
   -2.1770   19.2410  -33.3600 O   0  0  0  0  0  0  0  0  0  0  0  0
   -3.2860   20.1100  -33.3130 C   0  0  0  0  0  0  0  0  0  0  0  0
   -2.8240   21.5710  -33.3060 C   0  0  0  0  0  0  0  0  0  0  0  0
   -5.2490   22.1360  -31.2720 C   0  0  0  0  0  0  0  0  0  0  0  0
   -7.6100   20.8100  -34.2240 H   0  0  0  0  0  0  0  0  0  0  0  0
   -6.2017   19.0521  -35.2357 H   0  0  0  0  0  0  0  0  0  0  0  0
   -5.1076   16.8263  -34.9890 H   0  0  0  0  0  0  0  0  0  0  0  0
   -1.4097   13.7019  -33.0272 H   0  0  0  0  0  0  0  0  0  0  0  0
   -3.1267   13.1500  -33.2857 H   0  0  0  0  0  0  0  0  0  0  0  0
   -1.1491   14.2759  -35.2421 H   0  0  0  0  0  0  0  0  0  0  0  0
   -2.4227   13.0116  -35.4477 H   0  0  0  0  0  0  0  0  0  0  0  0
   -1.7211   16.5052  -35.7016 H   0  0  0  0  0  0  0  0  0  0  0  0
   -3.4785   16.9369  -35.4636 H   0  0  0  0  0  0  0  0  0  0  0  0
   -1.3710   16.5342  -33.4788 H   0  0  0  0  0  0  0  0  0  0  0  0
   -3.0452   17.2362  -33.3207 H   0  0  0  0  0  0  0  0  0  0  0  0
   -5.7222   16.9996  -30.7079 H   0  0  0  0  0  0  0  0  0  0  0  0
   -6.8160   19.2208  -30.9530 H   0  0  0  0  0  0  0  0  0  0  0  0
   -7.8631   24.3358  -31.3955 H   0  0  0  0  0  0  0  0  0  0  0  0
   -6.0316   25.9235  -30.8175 H   0  0  0  0  0  0  0  0  0  0  0  0
   -0.0600   20.8980  -32.8170 H   0  0  0  0  0  0  0  0  0  0  0  0
   -0.4323   20.8867  -31.0336 H   0  0  0  0  0  0  0  0  0  0  0  0
   -0.6232   18.6330  -32.1626 H   0  0  0  0  0  0  0  0  0  0  0  0
   -2.1110   19.2016  -31.3128 H   0  0  0  0  0  0  0  0  0  0  0  0
   -3.9203   19.9353  -34.1946 H   0  0  0  0  0  0  0  0  0  0  0  0
   -3.8537   19.9123  -32.3918 H   0  0  0  0  0  0  0  0  0  0  0  0
   -2.3598   21.7989  -34.2769 H   0  0  0  0  0  0  0  0  0  0  0  0
   -3.7074   22.2002  -33.1227 H   0  0  0  0  0  0  0  0  0  0  0  0
   -5.0320   21.0646  -31.3944 H   0  0  0  0  0  0  0  0  0  0  0  0
  1  2  2  0
  2  3  2  0
  2  4  1  0
  4  5  1  0
  5  6  2  0
  6  7  1  0
  7  8  2  0
  8  9  1  0
  9 10  2  0
  9 11  2  0
  9 12  1  0
 12 13  1  0
 13 14  1  0
 14 15  1  0
 15 16  1  0
 16 17  1  0
  8 18  1  0
 18 19  2  0
  2 20  1  0
 20 21  2  0
 21 22  1  0
 22 23  2  0
 23 24  1  0
 23 25  1  0
 25 26  1  0
 26 27  2  0
 26 28  2  0
 26 29  1  0
 29 30  1  0
 30 31  1  0
 31 32  1  0
 32 33  1  0
 33 34  1  0
 25 35  2  0
 19  5  1  0
 35 20  1  0
 17 12  1  0
 34 29  1  0
  4 36  1  0
  6 37  1  0
  7 38  1  0
 13 39  1  0
 13 40  1  0
 14 41  1  0
 14 42  1  0
 16 43  1  0
 16 44  1  0
 17 45  1  0
 17 46  1  0
 18 47  1  0
 19 48  1  0
 21 49  1  0
 22 50  1  0
 30 51  1  0
 30 52  1  0
 31 53  1  0
 31 54  1  0
 33 55  1  0
 33 56  1  0
 34 57  1  0
 34 58  1  0
 35 59  1  0
M  CHG  1  24  -1
M  END
>  <UniqueID>  (42) 
40

>  <SMILES>  (42) 
O=S(=O)(Nc1ccc(S(=O)(=O)N2CCOCC2)cc1)c1ccc([O-])c(S(=O)(=O)N2CCOCC2)c1

>  <Energy>  (42) 
77.13968161150925

>  <Genealogy>  (42) 
O=S(=O)(Nc1ccc(S(=O)(=O)N2CCOCC2)cc1)c1ccc([O-])c(S(=O)(=O)N2CCOCC2)c1 (protonated)
O=S(=O)(Nc1ccc(S(=O)(=O)N2CCOCC2)cc1)c1ccc([O-])c(S(=O)(=O)N2CCOCC2)c1 (3D coordinates assigned)
O=S(=O)(Nc1ccc(S(=O)(=O)N2CCOCC2)cc1)c1ccc([O-])c(S(=O)(=O)N2CCOCC2)c1 (nonaromatic ring conformer: 77.13968161150925 kcal/mol)

>  <smiles>  (42) 
O=S(=O)(Nc1ccc(S(=O)(=O)N2CCOCC2)cc1)c1ccc(O)c(S(=O)(=O)N2CCOCC2)c1

>  <score_type>  (42) 
oracle

>  <origin>  (42) 
adgpu

>  <m_score__min__energy>  (42) 
-12.390000000000001

>  <m_primary>  (42) 
energy

$$$$
42:0
     RDKit          3D

 45 48  0  0  0  0  0  0  0  0999 V2000
    1.2690   24.3170  -27.3500 C   0  0  0  0  0  0  0  0  0  0  0  0
    0.5390   24.5260  -28.5930 N   0  0  0  0  0  0  0  0  0  0  0  0
   -0.8640   24.8030  -28.7040 C   0  0  0  0  0  0  0  0  0  0  0  0
   -1.2130   25.9590  -29.0640 O   0  0  0  0  0  0  0  0  0  0  0  0
   -1.9040   23.7860  -28.4040 C   0  0  0  0  0  0  0  0  0  0  0  0
   -1.6190   22.7810  -27.5320 N   0  0  0  0  0  0  0  0  0  0  0  0
   -2.5410   21.8410  -27.2020 C   0  0  0  0  0  0  0  0  0  0  0  0
   -3.7800   21.8830  -27.7500 N   0  0  0  0  0  0  0  0  0  0  0  0
   -4.1240   22.8650  -28.6210 C   0  0  0  0  0  0  0  0  0  0  0  0
   -3.1980   23.8630  -28.9600 C   0  0  0  0  0  0  0  0  0  0  0  0
   -3.5280   24.8840  -29.9170 N   0  0  0  0  0  0  0  0  0  0  0  0
   -4.7090   24.9230  -30.7300 C   0  0  0  0  0  0  0  0  0  0  0  0
   -5.3130   26.0190  -30.8580 O   0  0  0  0  0  0  0  0  0  0  0  0
   -5.2640   23.6880  -31.3330 C   0  0  0  0  0  0  0  0  0  0  0  0
   -6.6170   23.5720  -31.4300 N   0  0  0  0  0  0  0  0  0  0  0  0
   -7.2390   22.4700  -31.9280 C   0  0  0  0  0  0  0  0  0  0  0  0
   -8.7520   22.4880  -31.9670 C   0  0  0  0  0  0  0  0  0  0  0  0
   -9.4570   21.1750  -32.2800 C   0  0  0  0  0  0  0  0  0  0  0  0
   -9.4920   21.7400  -30.8660 C   0  0  0  0  0  0  0  0  0  0  0  0
   -6.4530   21.3880  -32.3660 C   0  0  0  0  0  0  0  0  0  0  0  0
   -5.0650   21.4700  -32.2800 C   0  0  0  0  0  0  0  0  0  0  0  0
   -4.4510   22.6190  -31.7660 C   0  0  0  0  0  0  0  0  0  0  0  0
   -3.0200   22.6820  -31.6860 N   0  0  0  0  0  0  0  0  0  0  0  0
   -2.1590   21.6160  -32.1260 C   0  0  0  0  0  0  0  0  0  0  0  0
   -1.3300   20.9590  -31.2090 C   0  0  0  0  0  0  0  0  0  0  0  0
   -0.5280   19.9430  -31.6200 N   0  0  0  0  0  0  0  0  0  0  0  0
   -0.5220   19.5400  -32.9170 C   0  0  0  0  0  0  0  0  0  0  0  0
   -1.3280   20.1510  -33.8240 N   0  0  0  0  0  0  0  0  0  0  0  0
   -2.1430   21.1740  -33.4580 C   0  0  0  0  0  0  0  0  0  0  0  0
    0.6019   24.5080  -26.4965 H   0  0  0  0  0  0  0  0  0  0  0  0
    1.6310   23.2791  -27.3074 H   0  0  0  0  0  0  0  0  0  0  0  0
    2.1254   25.0060  -27.3074 H   0  0  0  0  0  0  0  0  0  0  0  0
   -2.2823   21.0443  -26.4890 H   0  0  0  0  0  0  0  0  0  0  0  0
   -5.1315   22.8786  -29.0624 H   0  0  0  0  0  0  0  0  0  0  0  0
   -8.7900   23.5095  -32.3734 H   0  0  0  0  0  0  0  0  0  0  0  0
  -10.3694   21.1735  -32.8944 H   0  0  0  0  0  0  0  0  0  0  0  0
   -9.1541   20.2169  -32.7275 H   0  0  0  0  0  0  0  0  0  0  0  0
  -10.4297   22.1466  -30.4592 H   0  0  0  0  0  0  0  0  0  0  0  0
   -9.2248   21.3590  -29.8693 H   0  0  0  0  0  0  0  0  0  0  0  0
   -6.9308   20.4847  -32.7730 H   0  0  0  0  0  0  0  0  0  0  0  0
   -4.4464   20.6257  -32.6184 H   0  0  0  0  0  0  0  0  0  0  0  0
   -2.5880   23.5790  -31.3680 H   0  0  0  0  0  0  0  0  0  0  0  0
   -1.3282   21.2665  -30.1528 H   0  0  0  0  0  0  0  0  0  0  0  0
    0.1365   18.7177  -33.2335 H   0  0  0  0  0  0  0  0  0  0  0  0
   -2.7904   21.6560  -34.2054 H   0  0  0  0  0  0  0  0  0  0  0  0
  1  2  1  0
  2  3  1  0
  3  4  2  0
  3  5  1  0
  5  6  2  0
  6  7  1  0
  7  8  2  0
  8  9  1  0
  9 10  2  0
 10 11  1  0
 11 12  1  0
 12 13  2  0
 12 14  1  0
 14 15  2  0
 15 16  1  0
 16 17  1  0
 17 18  1  0
 18 19  1  0
 16 20  2  0
 20 21  1  0
 21 22  2  0
 22 23  1  0
 23 24  1  0
 24 25  2  0
 25 26  1  0
 26 27  2  0
 27 28  1  0
 28 29  2  0
 10  5  1  0
 22 14  1  0
 29 24  1  0
 19 17  1  0
  1 30  1  0
  1 31  1  0
  1 32  1  0
  7 33  1  0
  9 34  1  0
 17 35  1  0
 18 36  1  0
 18 37  1  0
 19 38  1  0
 19 39  1  0
 20 40  1  0
 21 41  1  0
 23 42  1  0
 25 43  1  0
 27 44  1  0
 29 45  1  0
M  CHG  2   2  -1  11  -1
M  END
>  <UniqueID>  (43) 
41

>  <SMILES>  (43) 
C[N-]C(=O)c1ncncc1[N-]C(=O)c1nc(C2CC2)ccc1Nc1cncnc1

>  <Energy>  (43) 
335.3461878911158

>  <Genealogy>  (43) 
C[N-]C(=O)c1ncncc1[N-]C(=O)c1nc(C2CC2)ccc1Nc1cncnc1 (protonated)
C[N-]C(=O)c1ncncc1[N-]C(=O)c1nc(C2CC2)ccc1Nc1cncnc1 (3D coordinates assigned)
C[N-]C(=O)c1ncncc1[N-]C(=O)c1nc(C2CC2)ccc1Nc1cncnc1 (nonaromatic ring conformer: 335.3461878911158 kcal/mol)

>  <smiles>  (43) 
CNC(=O)c1ncncc1NC(=O)c1nc(C2CC2)ccc1Nc1cncnc1

>  <score_type>  (43) 
oracle

>  <origin>  (43) 
adgpu

>  <m_score__min__energy>  (43) 
-10.51

>  <m_primary>  (43) 
energy

$$$$
43:0
     RDKit          3D

 54 57  0  0  0  0  0  0  0  0999 V2000
   -4.1800   23.8590  -27.6670 O   0  0  0  0  0  0  0  0  0  0  0  0
   -3.1390   24.3280  -28.2050 C   0  0  0  0  0  0  0  0  0  0  0  0
   -2.8510   24.0390  -29.5830 N   0  0  0  0  0  0  0  0  0  0  0  0
   -3.5630   23.0490  -30.3460 C   0  0  0  0  0  0  0  0  0  0  0  0
   -4.5750   23.4350  -31.2420 C   0  0  0  0  0  0  0  0  0  0  0  0
   -5.3240   22.4720  -31.9230 C   0  0  0  0  0  0  0  0  0  0  0  0
   -5.0900   21.1110  -31.7050 C   0  0  0  0  0  0  0  0  0  0  0  0
   -6.0660   19.8950  -32.5320 S   0  0  0  0  0  0  0  0  0  0  0  0
   -6.5150   20.4400  -33.8590 O   0  0  0  0  0  0  0  0  0  0  0  0
   -5.2230   18.6770  -32.7930 O   0  0  0  0  0  0  0  0  0  0  0  0
   -7.4680   19.4310  -31.5880 N   0  0  0  0  0  0  0  0  0  0  0  0
   -8.2640   20.6050  -31.2110 C   0  0  0  0  0  0  0  0  0  0  0  0
   -9.4050   20.7460  -32.2050 C   0  0  0  0  0  0  0  0  0  0  0  0
   -9.5170   19.3990  -32.8930 C   0  0  0  0  0  0  0  0  0  0  0  0
   -8.3620   18.5590  -32.3600 C   0  0  0  0  0  0  0  0  0  0  0  0
   -4.0880   20.7180  -30.8100 C   0  0  0  0  0  0  0  0  0  0  0  0
   -3.3260   21.6760  -30.1270 C   0  0  0  0  0  0  0  0  0  0  0  0
   -2.2920   21.2360  -29.2350 N   0  0  0  0  0  0  0  0  0  0  0  0
   -2.6080   20.3880  -28.0860 C   0  0  0  0  0  0  0  0  0  0  0  0
   -1.7070   20.7750  -26.9090 C   0  0  0  0  0  0  0  0  0  0  0  0
   -0.3440   20.7820  -27.2970 O   0  0  0  0  0  0  0  0  0  0  0  0
   -0.1240   21.7940  -28.2640 C   0  0  0  0  0  0  0  0  0  0  0  0
   -0.8860   21.4850  -29.5560 C   0  0  0  0  0  0  0  0  0  0  0  0
   -2.2160   25.1450  -27.3850 C   0  0  0  0  0  0  0  0  0  0  0  0
   -2.2880   25.0520  -25.9830 C   0  0  0  0  0  0  0  0  0  0  0  0
   -1.4210   25.7940  -25.1770 C   0  0  0  0  0  0  0  0  0  0  0  0
   -0.4810   26.6470  -25.7580 C   0  0  0  0  0  0  0  0  0  0  0  0
   -0.4130   26.7670  -27.1480 C   0  0  0  0  0  0  0  0  0  0  0  0
   -1.2800   26.0320  -27.9630 C   0  0  0  0  0  0  0  0  0  0  0  0
   -1.2220   26.2160  -29.3390 O   0  0  0  0  0  0  0  0  0  0  0  0
   -2.0610   24.5300  -30.0560 H   0  0  0  0  0  0  0  0  0  0  0  0
   -4.7787   24.5031  -31.4082 H   0  0  0  0  0  0  0  0  0  0  0  0
   -6.1019   22.7863  -32.6344 H   0  0  0  0  0  0  0  0  0  0  0  0
   -8.6684   20.4704  -30.1969 H   0  0  0  0  0  0  0  0  0  0  0  0
   -7.6366   21.5085  -31.2229 H   0  0  0  0  0  0  0  0  0  0  0  0
  -10.3418   20.9889  -31.6820 H   0  0  0  0  0  0  0  0  0  0  0  0
   -9.2188   21.5562  -32.9254 H   0  0  0  0  0  0  0  0  0  0  0  0
  -10.4791   18.9243  -32.6500 H   0  0  0  0  0  0  0  0  0  0  0  0
   -9.4710   19.4999  -33.9874 H   0  0  0  0  0  0  0  0  0  0  0  0
   -8.7523   17.7607  -31.7116 H   0  0  0  0  0  0  0  0  0  0  0  0
   -7.8123   18.1014  -33.1957 H   0  0  0  0  0  0  0  0  0  0  0  0
   -3.8969   19.6480  -30.6412 H   0  0  0  0  0  0  0  0  0  0  0  0
   -3.6619   20.5288  -27.8040 H   0  0  0  0  0  0  0  0  0  0  0  0
   -2.4390   19.3332  -28.3485 H   0  0  0  0  0  0  0  0  0  0  0  0
   -1.9863   21.7788  -26.5564 H   0  0  0  0  0  0  0  0  0  0  0  0
   -1.8402   20.0351  -26.1060 H   0  0  0  0  0  0  0  0  0  0  0  0
   -0.4701   22.7579  -27.8627 H   0  0  0  0  0  0  0  0  0  0  0  0
    0.9515   21.8381  -28.4904 H   0  0  0  0  0  0  0  0  0  0  0  0
   -0.8109   22.3418  -30.2418 H   0  0  0  0  0  0  0  0  0  0  0  0
   -0.4529   20.5961  -30.0380 H   0  0  0  0  0  0  0  0  0  0  0  0
   -3.0329   24.3897  -25.5177 H   0  0  0  0  0  0  0  0  0  0  0  0
   -1.4792   25.7059  -24.0821 H   0  0  0  0  0  0  0  0  0  0  0  0
    0.2058   27.2243  -25.1215 H   0  0  0  0  0  0  0  0  0  0  0  0
    0.3258   27.4426  -27.6037 H   0  0  0  0  0  0  0  0  0  0  0  0
  1  2  2  0
  2  3  1  0
  3  4  1  0
  4  5  2  0
  5  6  1  0
  6  7  2  0
  7  8  1  0
  8  9  2  0
  8 10  2  0
  8 11  1  0
 11 12  1  0
 12 13  1  0
 13 14  1  0
 14 15  1  0
  7 16  1  0
 16 17  2  0
 17 18  1  0
 18 19  1  0
 19 20  1  0
 20 21  1  0
 21 22  1  0
 22 23  1  0
  2 24  1  0
 24 25  2  0
 25 26  1  0
 26 27  2  0
 27 28  1  0
 28 29  2  0
 29 30  1  0
 17  4  1  0
 23 18  1  0
 29 24  1  0
 15 11  1  0
  3 31  1  0
  5 32  1  0
  6 33  1  0
 12 34  1  0
 12 35  1  0
 13 36  1  0
 13 37  1  0
 14 38  1  0
 14 39  1  0
 15 40  1  0
 15 41  1  0
 16 42  1  0
 19 43  1  0
 19 44  1  0
 20 45  1  0
 20 46  1  0
 22 47  1  0
 22 48  1  0
 23 49  1  0
 23 50  1  0
 25 51  1  0
 26 52  1  0
 27 53  1  0
 28 54  1  0
M  CHG  1  30  -1
M  END
>  <UniqueID>  (44) 
42

>  <SMILES>  (44) 
O=C(Nc1ccc(S(=O)(=O)N2CCCC2)cc1N1CCOCC1)c1ccccc1[O-]

>  <Energy>  (44) 
71.07739029172384

>  <Genealogy>  (44) 
O=C(Nc1ccc(S(=O)(=O)N2CCCC2)cc1N1CCOCC1)c1ccccc1[O-] (protonated)
O=C(Nc1ccc(S(=O)(=O)N2CCCC2)cc1N1CCOCC1)c1ccccc1[O-] (3D coordinates assigned)
O=C(Nc1ccc(S(=O)(=O)N2CCCC2)cc1N1CCOCC1)c1ccccc1[O-] (nonaromatic ring conformer: 71.07739029172384 kcal/mol)

>  <smiles>  (44) 
O=C(Nc1ccc(S(=O)(=O)N2CCCC2)cc1N1CCOCC1)c1ccccc1O

>  <score_type>  (44) 
oracle

>  <origin>  (44) 
adgpu

>  <m_score__min__energy>  (44) 
-12.539999999999999

>  <m_primary>  (44) 
energy

$$$$
44:0
     RDKit          3D

 60 62  0  0  0  0  0  0  0  0999 V2000
    0.1160   29.3510  -24.4910 C   0  0  0  0  0  0  0  0  0  0  0  0
   -0.2050   28.1080  -25.2790 C   0  0  0  0  0  0  0  0  0  0  0  0
   -0.2110   28.1660  -26.6830 C   0  0  0  0  0  0  0  0  0  0  0  0
   -0.5090   27.0310  -27.4400 C   0  0  0  0  0  0  0  0  0  0  0  0
   -0.8120   25.8220  -26.8070 C   0  0  0  0  0  0  0  0  0  0  0  0
   -1.1600   24.3730  -27.7480 S   0  0  0  0  0  0  0  0  0  0  0  0
   -1.0500   23.1490  -26.8800 O   0  0  0  0  0  0  0  0  0  0  0  0
   -0.1440   24.2700  -28.8540 O   0  0  0  0  0  0  0  0  0  0  0  0
   -2.7670   24.4880  -28.4290 N   0  0  0  0  0  0  0  0  0  0  0  0
   -3.7830   24.2190  -27.4060 C   0  0  0  0  0  0  0  0  0  0  0  0
   -4.1420   22.7470  -27.4780 C   0  0  0  0  0  0  0  0  0  0  0  0
   -3.7330   22.3000  -28.8680 C   0  0  0  0  0  0  0  0  0  0  0  0
   -2.9660   23.4780  -29.4820 C   0  0  1  0  0  0  0  0  0  0  0  0
   -3.7280   24.0740  -30.6370 C   0  0  0  0  0  0  0  0  0  0  0  0
   -3.8700   25.3230  -30.7300 O   0  0  0  0  0  0  0  0  0  0  0  0
   -4.2420   23.2100  -31.6590 N   0  0  0  0  0  0  0  0  0  0  0  0
   -5.5750   22.6810  -31.7230 C   0  0  0  0  0  0  0  0  0  0  0  0
   -6.7010   23.5140  -31.6970 C   0  0  0  0  0  0  0  0  0  0  0  0
   -7.9830   22.9670  -31.7790 C   0  0  0  0  0  0  0  0  0  0  0  0
   -8.1670   21.5770  -31.8850 C   0  0  0  0  0  0  0  0  0  0  0  0
   -9.5730   21.0550  -31.9830 C   0  0  0  0  0  0  0  0  0  0  0  0
   -7.0280   20.7230  -31.8570 C   0  0  0  0  0  0  0  0  0  0  0  0
   -7.1290   18.9470  -31.9510 S   0  0  0  0  0  0  0  0  0  0  0  0
   -6.0990   18.3760  -31.0170 O   0  0  0  0  0  0  0  0  0  0  0  0
   -8.4690   18.4540  -31.4850 O   0  0  0  0  0  0  0  0  0  0  0  0
   -6.8530   18.3480  -33.5760 N   0  0  0  0  0  0  0  0  0  0  0  0
   -6.5620   16.9050  -33.5500 C   0  0  0  0  0  0  0  0  0  0  0  0
   -5.7490   19.0750  -34.2200 C   0  0  0  0  0  0  0  0  0  0  0  0
   -5.7490   21.2950  -31.7620 C   0  0  0  0  0  0  0  0  0  0  0  0
   -0.8150   25.7530  -25.4080 C   0  0  0  0  0  0  0  0  0  0  0  0
   -0.5240   26.8900  -24.6320 C   0  0  0  0  0  0  0  0  0  0  0  0
   -0.5310   26.7800  -23.1300 C   0  0  0  0  0  0  0  0  0  0  0  0
    0.0585   29.1283  -23.4153 H   0  0  0  0  0  0  0  0  0  0  0  0
    1.1316   29.6916  -24.7411 H   0  0  0  0  0  0  0  0  0  0  0  0
   -0.6077   30.1408  -24.7411 H   0  0  0  0  0  0  0  0  0  0  0  0
    0.0211   29.1140  -27.1903 H   0  0  0  0  0  0  0  0  0  0  0  0
   -0.5053   27.0885  -28.5385 H   0  0  0  0  0  0  0  0  0  0  0  0
   -3.3819   24.4572  -26.4098 H   0  0  0  0  0  0  0  0  0  0  0  0
   -4.6747   24.8389  -27.5806 H   0  0  0  0  0  0  0  0  0  0  0  0
   -3.5916   22.1789  -26.7136 H   0  0  0  0  0  0  0  0  0  0  0  0
   -5.2130   22.5777  -27.2926 H   0  0  0  0  0  0  0  0  0  0  0  0
   -3.0865   21.4120  -28.8092 H   0  0  0  0  0  0  0  0  0  0  0  0
   -4.6073   22.0270  -29.4771 H   0  0  0  0  0  0  0  0  0  0  0  0
   -1.9975   23.1293  -29.8699 H   0  0  0  0  0  0  0  0  0  0  0  0
   -6.5747   24.6034  -31.6116 H   0  0  0  0  0  0  0  0  0  0  0  0
   -8.8595   23.6314  -31.7605 H   0  0  0  0  0  0  0  0  0  0  0  0
   -9.9794   20.9041  -30.9720 H   0  0  0  0  0  0  0  0  0  0  0  0
  -10.1969   21.7814  -32.5244 H   0  0  0  0  0  0  0  0  0  0  0  0
   -9.5717   20.0974  -32.5244 H   0  0  0  0  0  0  0  0  0  0  0  0
   -6.4931   16.5636  -32.5066 H   0  0  0  0  0  0  0  0  0  0  0  0
   -7.3681   16.3591  -34.0620 H   0  0  0  0  0  0  0  0  0  0  0  0
   -5.6073   16.7142  -34.0620 H   0  0  0  0  0  0  0  0  0  0  0  0
   -5.0943   19.5061  -33.4483 H   0  0  0  0  0  0  0  0  0  0  0  0
   -5.1694   18.3813  -34.8468 H   0  0  0  0  0  0  0  0  0  0  0  0
   -6.1573   19.8815  -34.8468 H   0  0  0  0  0  0  0  0  0  0  0  0
   -4.8669   20.6393  -31.7174 H   0  0  0  0  0  0  0  0  0  0  0  0
   -1.0473   24.7997  -24.9107 H   0  0  0  0  0  0  0  0  0  0  0  0
   -0.4670   27.7854  -22.6884 H   0  0  0  0  0  0  0  0  0  0  0  0
   -1.4619   26.2941  -22.8023 H   0  0  0  0  0  0  0  0  0  0  0  0
    0.3308   26.1801  -22.8023 H   0  0  0  0  0  0  0  0  0  0  0  0
  1  2  1  0
  2  3  2  0
  3  4  1  0
  4  5  2  0
  5  6  1  0
  6  7  2  0
  6  8  2  0
  6  9  1  0
  9 10  1  0
 10 11  1  0
 11 12  1  0
 12 13  1  0
 13 14  1  0
 14 15  2  0
 14 16  1  0
 16 17  1  0
 17 18  2  0
 18 19  1  0
 19 20  2  0
 20 21  1  0
 20 22  1  0
 22 23  1  0
 23 24  2  0
 23 25  2  0
 23 26  1  0
 26 27  1  0
 26 28  1  0
 22 29  2  0
  5 30  1  0
 30 31  2  0
 31 32  1  0
 31  2  1  0
 13  9  1  0
 29 17  1  0
  1 33  1  0
  1 34  1  0
  1 35  1  0
  3 36  1  0
  4 37  1  0
 10 38  1  0
 10 39  1  0
 11 40  1  0
 11 41  1  0
 12 42  1  0
 12 43  1  0
 13 44  1  6
 18 45  1  0
 19 46  1  0
 21 47  1  0
 21 48  1  0
 21 49  1  0
 27 50  1  0
 27 51  1  0
 27 52  1  0
 28 53  1  0
 28 54  1  0
 28 55  1  0
 29 56  1  0
 30 57  1  0
 32 58  1  0
 32 59  1  0
 32 60  1  0
M  CHG  1  16  -1
M  END
>  <UniqueID>  (45) 
43

>  <SMILES>  (45) 
Cc1ccc(S(=O)(=O)N2CCC[C@H]2C(=O)[N-]c2ccc(C)c(S(=O)(=O)N(C)C)c2)cc1C

>  <Energy>  (45) 
68.37209393713391

>  <Genealogy>  (45) 
Cc1ccc(S(=O)(=O)N2CCCC2C(=O)[N-]c2ccc(C)c(S(=O)(=O)N(C)C)c2)cc1C (protonated)
Cc1ccc(S(=O)(=O)N2CCC[C@H]2C(=O)[N-]c2ccc(C)c(S(=O)(=O)N(C)C)c2)cc1C (chirality)
Cc1ccc(S(=O)(=O)N2CCC[C@H]2C(=O)[N-]c2ccc(C)c(S(=O)(=O)N(C)C)c2)cc1C (3D coordinates assigned)
Cc1ccc(S(=O)(=O)N2CCC[C@H]2C(=O)[N-]c2ccc(C)c(S(=O)(=O)N(C)C)c2)cc1C (nonaromatic ring conformer: 68.37209393713391 kcal/mol)

>  <smiles>  (45) 
Cc1ccc(S(=O)(=O)N2CCCC2C(=O)Nc2ccc(C)c(S(=O)(=O)N(C)C)c2)cc1C

>  <score_type>  (45) 
oracle

>  <origin>  (45) 
adgpu

>  <m_score__min__energy>  (45) 
-12.210000000000001

>  <m_primary>  (45) 
energy

$$$$
45:0
     RDKit          3D

 42 44  0  0  0  0  0  0  0  0999 V2000
   -4.0180   24.4140  -26.9580 O   0  0  0  0  0  0  0  0  0  0  0  0
   -3.1270   24.7750  -27.7730 C   0  0  0  0  0  0  0  0  0  0  0  0
   -3.4570   24.9490  -29.1610 N   0  0  0  0  0  0  0  0  0  0  0  0
   -4.5820   24.3230  -29.8020 C   0  0  0  0  0  0  0  0  0  0  0  0
   -4.8930   22.9890  -29.4980 C   0  0  0  0  0  0  0  0  0  0  0  0
   -5.9970   22.3670  -30.0870 C   0  0  0  0  0  0  0  0  0  0  0  0
   -6.8180   23.0760  -30.9730 C   0  0  0  0  0  0  0  0  0  0  0  0
   -8.2240   22.2980  -31.7020 S   0  0  0  0  0  0  0  0  0  0  0  0
   -9.0890   23.3470  -32.3450 O   0  0  0  0  0  0  0  0  0  0  0  0
   -9.0300   21.6420  -30.6160 O   0  0  0  0  0  0  0  0  0  0  0  0
   -7.7850   21.0960  -32.8990 N   0  0  0  0  0  0  0  0  0  0  0  0
   -6.4020   20.6120  -32.7360 C   0  0  0  0  0  0  0  0  0  0  0  0
   -6.2690   19.5040  -31.6630 C   0  0  0  0  0  0  0  0  0  0  0  0
   -7.5150   19.0210  -31.2010 O   0  0  0  0  0  0  0  0  0  0  0  0
   -8.3430   18.7190  -32.3000 C   0  0  0  0  0  0  0  0  0  0  0  0
   -8.7810   20.0090  -33.0120 C   0  0  0  0  0  0  0  0  0  0  0  0
   -6.5180   24.4120  -31.2720 C   0  0  0  0  0  0  0  0  0  0  0  0
   -5.4130   25.0350  -30.6850 C   0  0  0  0  0  0  0  0  0  0  0  0
   -1.7670   25.0870  -27.2730 C   0  0  0  0  0  0  0  0  0  0  0  0
   -1.3340   24.5310  -26.0550 C   0  0  0  0  0  0  0  0  0  0  0  0
   -0.0580   24.8160  -25.5580 C   0  0  0  0  0  0  0  0  0  0  0  0
    0.8010   25.6510  -26.2730 C   0  0  0  0  0  0  0  0  0  0  0  0
    0.3920   26.1950  -27.4920 C   0  0  0  0  0  0  0  0  0  0  0  0
   -0.8810   25.9130  -28.0000 C   0  0  0  0  0  0  0  0  0  0  0  0
   -1.2390   26.4360  -29.2380 O   0  0  0  0  0  0  0  0  0  0  0  0
   -2.9090   25.6530  -29.7080 H   0  0  0  0  0  0  0  0  0  0  0  0
   -4.2633   22.4289  -28.7910 H   0  0  0  0  0  0  0  0  0  0  0  0
   -6.2223   21.3159  -29.8538 H   0  0  0  0  0  0  0  0  0  0  0  0
   -6.0560   20.2096  -33.6995 H   0  0  0  0  0  0  0  0  0  0  0  0
   -5.7928   21.4654  -32.4036 H   0  0  0  0  0  0  0  0  0  0  0  0
   -5.7077   18.6633  -32.0968 H   0  0  0  0  0  0  0  0  0  0  0  0
   -5.7506   19.9467  -30.7997 H   0  0  0  0  0  0  0  0  0  0  0  0
   -7.7889   18.0848  -33.0076 H   0  0  0  0  0  0  0  0  0  0  0  0
   -9.2371   18.1902  -31.9382 H   0  0  0  0  0  0  0  0  0  0  0  0
   -8.9373   19.7858  -34.0777 H   0  0  0  0  0  0  0  0  0  0  0  0
   -9.7048   20.3564  -32.5263 H   0  0  0  0  0  0  0  0  0  0  0  0
   -7.1550   24.9728  -31.9718 H   0  0  0  0  0  0  0  0  0  0  0  0
   -5.1923   26.0878  -30.9150 H   0  0  0  0  0  0  0  0  0  0  0  0
   -2.0042   23.8671  -25.4893 H   0  0  0  0  0  0  0  0  0  0  0  0
    0.2687   24.3811  -24.6019 H   0  0  0  0  0  0  0  0  0  0  0  0
    1.8009   25.8808  -25.8762 H   0  0  0  0  0  0  0  0  0  0  0  0
    1.0738   26.8485  -28.0559 H   0  0  0  0  0  0  0  0  0  0  0  0
  1  2  2  0
  2  3  1  0
  3  4  1  0
  4  5  2  0
  5  6  1  0
  6  7  2  0
  7  8  1  0
  8  9  2  0
  8 10  2  0
  8 11  1  0
 11 12  1  0
 12 13  1  0
 13 14  1  0
 14 15  1  0
 15 16  1  0
  7 17  1  0
 17 18  2  0
  2 19  1  0
 19 20  2  0
 20 21  1  0
 21 22  2  0
 22 23  1  0
 23 24  2  0
 24 25  1  0
 18  4  1  0
 24 19  1  0
 16 11  1  0
  3 26  1  0
  5 27  1  0
  6 28  1  0
 12 29  1  0
 12 30  1  0
 13 31  1  0
 13 32  1  0
 15 33  1  0
 15 34  1  0
 16 35  1  0
 16 36  1  0
 17 37  1  0
 18 38  1  0
 20 39  1  0
 21 40  1  0
 22 41  1  0
 23 42  1  0
M  CHG  1  25  -1
M  END
>  <UniqueID>  (46) 
44

>  <SMILES>  (46) 
O=C(Nc1ccc(S(=O)(=O)N2CCOCC2)cc1)c1ccccc1[O-]

>  <Energy>  (46) 
61.70214104083472

>  <Genealogy>  (46) 
O=C(Nc1ccc(S(=O)(=O)N2CCOCC2)cc1)c1ccccc1[O-] (protonated)
O=C(Nc1ccc(S(=O)(=O)N2CCOCC2)cc1)c1ccccc1[O-] (3D coordinates assigned)
O=C(Nc1ccc(S(=O)(=O)N2CCOCC2)cc1)c1ccccc1[O-] (nonaromatic ring conformer: 61.70214104083472 kcal/mol)

>  <smiles>  (46) 
O=C(Nc1ccc(S(=O)(=O)N2CCOCC2)cc1)c1ccccc1O

>  <score_type>  (46) 
oracle

>  <origin>  (46) 
adgpu

>  <m_score__min__energy>  (46) 
-11.130000000000001

>  <m_primary>  (46) 
energy

$$$$
46:0
     RDKit          3D

 52 55  0  0  0  0  0  0  0  0999 V2000
   -3.0750   20.7100  -33.8140 C   0  0  0  0  0  0  0  0  0  0  0  0
   -2.4470   21.1450  -32.5300 C   0  0  0  0  0  0  0  0  0  0  0  0
   -1.3940   21.8380  -32.5560 O   0  0  0  0  0  0  0  0  0  0  0  0
   -3.0100   20.7230  -31.2800 N   0  0  0  0  0  0  0  0  0  0  0  0
   -2.5260   21.1850  -30.0090 C   0  0  0  0  0  0  0  0  0  0  0  0
   -1.6480   20.3710  -29.2810 C   0  0  0  0  0  0  0  0  0  0  0  0
   -1.1310   20.8090  -28.0620 C   0  0  0  0  0  0  0  0  0  0  0  0
   -1.5020   22.0590  -27.5730 C   0  0  0  0  0  0  0  0  0  0  0  0
   -2.3790   22.8290  -28.2680 N   0  0  0  0  0  0  0  0  0  0  0  0
   -2.9140   22.4310  -29.4570 C   0  0  0  0  0  0  0  0  0  0  0  0
   -3.9310   23.2970  -30.0950 C   0  0  0  0  0  0  0  0  0  0  0  0
   -5.0260   22.7230  -30.7650 C   0  0  0  0  0  0  0  0  0  0  0  0
   -6.0040   23.5360  -31.3650 C   0  0  0  0  0  0  0  0  0  0  0  0
   -7.1190   22.9830  -32.0790 N   0  0  0  0  0  0  0  0  0  0  0  0
   -8.0380   21.9930  -31.5970 C   0  0  0  0  0  0  0  0  0  0  0  0
   -9.1300   22.3450  -31.0740 O   0  0  0  0  0  0  0  0  0  0  0  0
   -7.7310   20.5520  -31.7620 C   0  0  0  0  0  0  0  0  0  0  0  0
   -8.7670   19.6020  -31.8070 C   0  0  0  0  0  0  0  0  0  0  0  0
   -8.4760   18.2430  -31.9560 C   0  0  0  0  0  0  0  0  0  0  0  0
   -7.1510   17.8180  -32.0730 C   0  0  0  0  0  0  0  0  0  0  0  0
   -6.1060   18.7460  -32.0490 C   0  0  0  0  0  0  0  0  0  0  0  0
   -4.7880   18.2800  -32.1590 O   0  0  0  0  0  0  0  0  0  0  0  0
   -4.2640   17.5710  -33.2490 C   0  0  0  0  0  0  0  0  0  0  0  0
   -3.2060   16.6550  -33.1010 C   0  0  0  0  0  0  0  0  0  0  0  0
   -2.6980   15.9810  -34.2180 C   0  0  0  0  0  0  0  0  0  0  0  0
   -3.2320   16.2250  -35.4860 C   0  0  0  0  0  0  0  0  0  0  0  0
   -4.2750   17.1440  -35.6400 C   0  0  0  0  0  0  0  0  0  0  0  0
   -4.7830   17.8190  -34.5260 C   0  0  0  0  0  0  0  0  0  0  0  0
   -6.3980   20.1120  -31.8750 C   0  0  0  0  0  0  0  0  0  0  0  0
   -5.8610   24.9270  -31.3200 C   0  0  0  0  0  0  0  0  0  0  0  0
   -4.7830   25.5040  -30.6460 C   0  0  0  0  0  0  0  0  0  0  0  0
   -3.8220   24.6980  -30.0300 C   0  0  0  0  0  0  0  0  0  0  0  0
   -2.7500   25.2960  -29.3770 O   0  0  0  0  0  0  0  0  0  0  0  0
   -3.9618   20.0957  -33.5988 H   0  0  0  0  0  0  0  0  0  0  0  0
   -3.3742   21.5953  -34.3943 H   0  0  0  0  0  0  0  0  0  0  0  0
   -2.3514   20.1187  -34.3943 H   0  0  0  0  0  0  0  0  0  0  0  0
   -3.6870   19.9270  -31.2900 H   0  0  0  0  0  0  0  0  0  0  0  0
   -1.3654   19.3826  -29.6725 H   0  0  0  0  0  0  0  0  0  0  0  0
   -0.4370   20.1734  -27.4924 H   0  0  0  0  0  0  0  0  0  0  0  0
   -1.0844   22.4232  -26.6228 H   0  0  0  0  0  0  0  0  0  0  0  0
   -5.1184   21.6283  -30.8203 H   0  0  0  0  0  0  0  0  0  0  0  0
   -9.8135   19.9307  -31.7244 H   0  0  0  0  0  0  0  0  0  0  0  0
   -9.2927   17.5065  -31.9812 H   0  0  0  0  0  0  0  0  0  0  0  0
   -6.9283   16.7466  -32.1847 H   0  0  0  0  0  0  0  0  0  0  0  0
   -2.7772   16.4681  -32.1054 H   0  0  0  0  0  0  0  0  0  0  0  0
   -1.8774   15.2584  -34.0973 H   0  0  0  0  0  0  0  0  0  0  0  0
   -2.8322   15.6945  -36.3628 H   0  0  0  0  0  0  0  0  0  0  0  0
   -4.6958   17.3358  -36.6381 H   0  0  0  0  0  0  0  0  0  0  0  0
   -5.5955   18.5495  -34.6533 H   0  0  0  0  0  0  0  0  0  0  0  0
   -5.5772   20.8427  -31.8268 H   0  0  0  0  0  0  0  0  0  0  0  0
   -6.6019   25.5695  -31.8183 H   0  0  0  0  0  0  0  0  0  0  0  0
   -4.6897   26.5991  -30.5996 H   0  0  0  0  0  0  0  0  0  0  0  0
  1  2  1  0
  2  3  2  0
  2  4  1  0
  4  5  1  0
  5  6  2  0
  6  7  1  0
  7  8  2  0
  8  9  1  0
  9 10  2  0
 10 11  1  0
 11 12  2  0
 12 13  1  0
 13 14  1  0
 14 15  1  0
 15 16  2  0
 15 17  1  0
 17 18  2  0
 18 19  1  0
 19 20  2  0
 20 21  1  0
 21 22  1  0
 22 23  1  0
 23 24  2  0
 24 25  1  0
 25 26  2  0
 26 27  1  0
 27 28  2  0
 21 29  2  0
 13 30  2  0
 30 31  1  0
 31 32  2  0
 32 33  1  0
 10  5  1  0
 32 11  1  0
 29 17  1  0
 28 23  1  0
  1 34  1  0
  1 35  1  0
  1 36  1  0
  4 37  1  0
  6 38  1  0
  7 39  1  0
  8 40  1  0
 12 41  1  0
 18 42  1  0
 19 43  1  0
 20 44  1  0
 24 45  1  0
 25 46  1  0
 26 47  1  0
 27 48  1  0
 28 49  1  0
 29 50  1  0
 30 51  1  0
 31 52  1  0
M  CHG  2  14  -1  33  -1
M  END
>  <UniqueID>  (47) 
45

>  <SMILES>  (47) 
CC(=O)Nc1cccnc1-c1cc([N-]C(=O)c2cccc(Oc3ccccc3)c2)ccc1[O-]

>  <Energy>  (47) 
77.40694330803046

>  <Genealogy>  (47) 
CC(=O)Nc1cccnc1-c1cc([N-]C(=O)c2cccc(Oc3ccccc3)c2)ccc1[O-] (protonated)
CC(=O)Nc1cccnc1-c1cc([N-]C(=O)c2cccc(Oc3ccccc3)c2)ccc1[O-] (3D coordinates assigned)
CC(=O)Nc1cccnc1-c1cc([N-]C(=O)c2cccc(Oc3ccccc3)c2)ccc1[O-] (optimized conformer: 77.40694330803046 kcal/mol)

>  <smiles>  (47) 
CC(=O)Nc1cccnc1-c1cc(NC(=O)c2cccc(Oc3ccccc3)c2)ccc1O

>  <score_type>  (47) 
oracle

>  <origin>  (47) 
adgpu

>  <m_score__min__energy>  (47) 
-13.24

>  <m_primary>  (47) 
energy

$$$$
47:0
     RDKit          3D

 56 59  0  0  0  0  0  0  0  0999 V2000
    0.8010   27.7180  -23.9350 C   0  0  0  0  0  0  0  0  0  0  0  0
   -0.5760   27.6590  -24.4610 N   0  0  0  0  0  0  0  0  0  0  0  0
   -1.2610   26.3890  -24.1210 C   0  0  0  0  0  0  0  0  0  0  0  0
   -1.1650   25.3250  -25.2340 C   0  0  0  0  0  0  0  0  0  0  0  0
    0.0440   25.5480  -26.0340 N   0  0  0  0  0  0  0  0  0  0  0  0
    0.3060   24.2170  -27.1340 S   0  0  0  0  0  0  0  0  0  0  0  0
    1.4640   24.5340  -28.0390 O   0  0  0  0  0  0  0  0  0  0  0  0
    0.6590   22.9880  -26.3430 O   0  0  0  0  0  0  0  0  0  0  0  0
   -1.1240   23.8800  -28.1110 C   0  0  0  0  0  0  0  0  0  0  0  0
   -1.9480   24.9240  -28.5440 C   0  0  0  0  0  0  0  0  0  0  0  0
   -3.0670   24.6550  -29.3370 C   0  0  0  0  0  0  0  0  0  0  0  0
   -3.3730   23.3370  -29.7160 C   0  0  0  0  0  0  0  0  0  0  0  0
   -4.5290   23.0640  -30.5270 N   0  0  0  0  0  0  0  0  0  0  0  0
   -5.3330   24.0930  -31.1290 C   0  0  0  0  0  0  0  0  0  0  0  0
   -4.8990   25.2720  -31.2040 O   0  0  0  0  0  0  0  0  0  0  0  0
   -6.5940   23.7780  -31.7320 N   0  0  0  0  0  0  0  0  0  0  0  0
   -7.1990   22.4790  -31.7850 C   0  0  0  0  0  0  0  0  0  0  0  0
   -8.4610   22.2300  -31.2180 C   0  0  0  0  0  0  0  0  0  0  0  0
   -9.0270   20.9560  -31.2990 C   0  0  0  0  0  0  0  0  0  0  0  0
   -8.3540   19.9290  -31.9670 C   0  0  0  0  0  0  0  0  0  0  0  0
   -7.1160   20.1750  -32.5870 C   0  0  0  0  0  0  0  0  0  0  0  0
   -6.3770   19.0550  -33.2770 C   0  0  0  0  0  0  0  0  0  0  0  0
   -5.1840   18.7750  -32.6330 F   0  0  0  0  0  0  0  0  0  0  0  0
   -7.1670   17.9200  -33.2740 F   0  0  0  0  0  0  0  0  0  0  0  0
   -6.0890   19.4020  -34.5860 F   0  0  0  0  0  0  0  0  0  0  0  0
   -6.5390   21.4540  -32.4770 C   0  0  0  0  0  0  0  0  0  0  0  0
   -2.5530   22.2830  -29.2620 C   0  0  0  0  0  0  0  0  0  0  0  0
   -2.8770   20.5780  -29.7230 S   0  0  0  0  0  0  0  0  0  0  0  0
   -2.5590   20.9010  -31.4520 C   0  0  0  0  0  0  0  0  0  0  0  0
   -1.3290   20.8830  -31.9980 N   0  0  0  0  0  0  0  0  0  0  0  0
   -1.5960   21.1940  -33.2810 C   0  0  0  0  0  0  0  0  0  0  0  0
   -2.9110   21.3890  -33.4970 N   0  0  0  0  0  0  0  0  0  0  0  0
   -3.5200   21.2020  -32.3410 N   0  0  0  0  0  0  0  0  0  0  0  0
   -1.4340   22.5610  -28.4670 C   0  0  0  0  0  0  0  0  0  0  0  0
   -0.0460   26.8210  -26.7750 C   0  0  0  0  0  0  0  0  0  0  0  0
   -0.6310   27.9580  -25.9060 C   0  0  0  0  0  0  0  0  0  0  0  0
    0.7738   27.7168  -22.8353 H   0  0  0  0  0  0  0  0  0  0  0  0
    1.3664   26.8433  -24.2887 H   0  0  0  0  0  0  0  0  0  0  0  0
    1.2895   28.6379  -24.2887 H   0  0  0  0  0  0  0  0  0  0  0  0
   -0.8047   25.9803  -23.2074 H   0  0  0  0  0  0  0  0  0  0  0  0
   -2.3275   26.6213  -23.9845 H   0  0  0  0  0  0  0  0  0  0  0  0
   -1.1222   24.3243  -24.7794 H   0  0  0  0  0  0  0  0  0  0  0  0
   -2.0489   25.4001  -25.8844 H   0  0  0  0  0  0  0  0  0  0  0  0
   -1.7145   25.9606  -28.2594 H   0  0  0  0  0  0  0  0  0  0  0  0
   -3.7133   25.4817  -29.6671 H   0  0  0  0  0  0  0  0  0  0  0  0
   -4.7510   22.0710  -30.7660 H   0  0  0  0  0  0  0  0  0  0  0  0
   -9.0038   23.0404  -30.7095 H   0  0  0  0  0  0  0  0  0  0  0  0
  -10.0053   20.7601  -30.8358 H   0  0  0  0  0  0  0  0  0  0  0  0
   -8.7954   18.9223  -32.0079 H   0  0  0  0  0  0  0  0  0  0  0  0
   -5.5603   21.6513  -32.9387 H   0  0  0  0  0  0  0  0  0  0  0  0
   -0.8275   21.2791  -34.0634 H   0  0  0  0  0  0  0  0  0  0  0  0
   -0.7934   21.7371  -28.1193 H   0  0  0  0  0  0  0  0  0  0  0  0
    0.9620   27.1106  -27.1068 H   0  0  0  0  0  0  0  0  0  0  0  0
   -0.7189   26.6681  -27.6317 H   0  0  0  0  0  0  0  0  0  0  0  0
   -0.0575   28.8771  -26.0969 H   0  0  0  0  0  0  0  0  0  0  0  0
   -1.6899   28.0737  -26.1805 H   0  0  0  0  0  0  0  0  0  0  0  0
  1  2  1  0
  2  3  1  0
  3  4  1  0
  4  5  1  0
  5  6  1  0
  6  7  2  0
  6  8  2  0
  6  9  1  0
  9 10  2  0
 10 11  1  0
 11 12  2  0
 12 13  1  0
 13 14  1  0
 14 15  2  0
 14 16  1  0
 16 17  1  0
 17 18  2  0
 18 19  1  0
 19 20  2  0
 20 21  1  0
 21 22  1  0
 22 23  1  0
 22 24  1  0
 22 25  1  0
 21 26  2  0
 12 27  1  0
 27 28  1  0
 28 29  1  0
 29 30  1  0
 30 31  2  0
 31 32  1  0
 32 33  1  0
 27 34  2  0
  5 35  1  0
 35 36  1  0
 36  2  1  0
 34  9  1  0
 26 17  1  0
 33 29  2  0
  1 37  1  0
  1 38  1  0
  1 39  1  0
  3 40  1  0
  3 41  1  0
  4 42  1  0
  4 43  1  0
 10 44  1  0
 11 45  1  0
 13 46  1  0
 18 47  1  0
 19 48  1  0
 20 49  1  0
 26 50  1  0
 31 51  1  0
 34 52  1  0
 35 53  1  0
 35 54  1  0
 36 55  1  0
 36 56  1  0
M  CHG  2  16  -1  32  -1
M  END
>  <UniqueID>  (48) 
46

>  <SMILES>  (48) 
CN1CCN(S(=O)(=O)c2ccc(NC(=O)[N-]c3cccc(C(F)(F)F)c3)c(Sc3nc[n-]n3)c2)CC1

>  <Energy>  (48) 
103.26674528916303

>  <Genealogy>  (48) 
CN1CCN(S(=O)(=O)c2ccc(NC(=O)[N-]c3cccc(C(F)(F)F)c3)c(Sc3nc[n-]n3)c2)CC1 (protonated)
CN1CCN(S(=O)(=O)c2ccc(NC(=O)[N-]c3cccc(C(F)(F)F)c3)c(Sc3nc[n-]n3)c2)CC1 (3D coordinates assigned)
CN1CCN(S(=O)(=O)c2ccc(NC(=O)[N-]c3cccc(C(F)(F)F)c3)c(Sc3nc[n-]n3)c2)CC1 (nonaromatic ring conformer: 103.26674528916303 kcal/mol)

>  <smiles>  (48) 
CN1CCN(S(=O)(=O)c2ccc(NC(=O)Nc3cccc(C(F)(F)F)c3)c(Sc3nc[nH]n3)c2)CC1

>  <score_type>  (48) 
oracle

>  <origin>  (48) 
adgpu

>  <m_score__min__energy>  (48) 
-11.41

>  <m_primary>  (48) 
energy

$$$$
48:0
     RDKit          3D

 57 60  0  0  0  0  0  0  0  0999 V2000
   -1.8840   25.2620  -29.0780 O   0  0  0  0  0  0  0  0  0  0  0  0
   -2.7340   24.5690  -29.7030 C   0  0  0  0  0  0  0  0  0  0  0  0
   -3.9470   25.1750  -30.1620 N   0  0  0  0  0  0  0  0  0  0  0  0
   -5.1040   24.4040  -30.4930 C   0  0  0  0  0  0  0  0  0  0  0  0
   -5.7270   24.5770  -31.7360 C   0  0  0  0  0  0  0  0  0  0  0  0
   -6.8530   23.8150  -32.0680 C   0  0  0  0  0  0  0  0  0  0  0  0
   -7.3820   22.8940  -31.1480 C   0  0  0  0  0  0  0  0  0  0  0  0
   -8.7960   21.9140  -31.5720 S   0  0  0  0  0  0  0  0  0  0  0  0
   -9.4220   21.3860  -30.3070 O   0  0  0  0  0  0  0  0  0  0  0  0
   -9.8150   22.7840  -32.2590 O   0  0  0  0  0  0  0  0  0  0  0  0
   -8.4040   20.5810  -32.6450 N   0  0  0  0  0  0  0  0  0  0  0  0
   -6.9800   20.2320  -32.5630 C   0  0  0  0  0  0  0  0  0  0  0  0
   -6.8420   19.0450  -31.6320 C   0  0  0  0  0  0  0  0  0  0  0  0
   -8.2010   18.3900  -31.6160 C   0  0  0  0  0  0  0  0  0  0  0  0
   -9.1490   19.3620  -32.3070 C   0  0  0  0  0  0  0  0  0  0  0  0
   -6.7870   22.7630  -29.8840 C   0  0  0  0  0  0  0  0  0  0  0  0
   -5.6390   23.4950  -29.5670 C   0  0  0  0  0  0  0  0  0  0  0  0
   -2.4420   23.1620  -30.0280 C   0  0  0  0  0  0  0  0  0  0  0  0
   -2.8630   22.6670  -31.2710 C   0  0  0  0  0  0  0  0  0  0  0  0
   -2.6520   21.3220  -31.6130 C   0  0  0  0  0  0  0  0  0  0  0  0
   -3.1600   20.7060  -33.1950 S   0  0  0  0  0  0  0  0  0  0  0  0
   -4.2610   21.5780  -33.7300 O   0  0  0  0  0  0  0  0  0  0  0  0
   -2.0020   20.7840  -34.1490 O   0  0  0  0  0  0  0  0  0  0  0  0
   -3.7110   19.0490  -33.1140 N   0  0  0  0  0  0  0  0  0  0  0  0
   -4.7040   18.7970  -34.1680 C   0  0  0  0  0  0  0  0  0  0  0  0
   -5.1460   17.3210  -34.1440 C   0  0  0  0  0  0  0  0  0  0  0  0
   -4.1030   16.3720  -33.9280 O   0  0  0  0  0  0  0  0  0  0  0  0
   -2.8140   16.9310  -34.1120 C   0  0  0  0  0  0  0  0  0  0  0  0
   -2.5810   18.0920  -33.1400 C   0  0  0  0  0  0  0  0  0  0  0  0
   -2.0090   20.4720  -30.7010 C   0  0  0  0  0  0  0  0  0  0  0  0
   -1.5800   20.9560  -29.4640 C   0  0  0  0  0  0  0  0  0  0  0  0
   -1.7900   22.2980  -29.1160 C   0  0  0  0  0  0  0  0  0  0  0  0
   -1.3620   22.7350  -27.8620 O   0  0  0  0  0  0  0  0  0  0  0  0
   -5.3307   25.3124  -32.4516 H   0  0  0  0  0  0  0  0  0  0  0  0
   -7.3260   23.9376  -33.0535 H   0  0  0  0  0  0  0  0  0  0  0  0
   -6.6020   19.9689  -33.5619 H   0  0  0  0  0  0  0  0  0  0  0  0
   -6.3986   21.0852  -32.1833 H   0  0  0  0  0  0  0  0  0  0  0  0
   -6.0818   18.3455  -32.0099 H   0  0  0  0  0  0  0  0  0  0  0  0
   -6.5222   19.3496  -30.6246 H   0  0  0  0  0  0  0  0  0  0  0  0
   -8.1704   17.4348  -32.1607 H   0  0  0  0  0  0  0  0  0  0  0  0
   -8.5289   18.1718  -30.5889 H   0  0  0  0  0  0  0  0  0  0  0  0
   -9.5459   18.9036  -33.2248 H   0  0  0  0  0  0  0  0  0  0  0  0
   -9.9886   19.6070  -31.6399 H   0  0  0  0  0  0  0  0  0  0  0  0
   -7.2255   22.0818  -29.1398 H   0  0  0  0  0  0  0  0  0  0  0  0
   -5.1537   23.3582  -28.5893 H   0  0  0  0  0  0  0  0  0  0  0  0
   -3.3630   23.3388  -31.9842 H   0  0  0  0  0  0  0  0  0  0  0  0
   -5.5803   19.4410  -34.0025 H   0  0  0  0  0  0  0  0  0  0  0  0
   -4.2523   19.0195  -35.1460 H   0  0  0  0  0  0  0  0  0  0  0  0
   -5.8854   17.2015  -33.3384 H   0  0  0  0  0  0  0  0  0  0  0  0
   -5.5454   17.1085  -35.1467 H   0  0  0  0  0  0  0  0  0  0  0  0
   -2.0554   16.1544  -33.9347 H   0  0  0  0  0  0  0  0  0  0  0  0
   -2.7384   17.3120  -35.1411 H   0  0  0  0  0  0  0  0  0  0  0  0
   -2.4431   17.6823  -32.1285 H   0  0  0  0  0  0  0  0  0  0  0  0
   -1.6896   18.6385  -33.4816 H   0  0  0  0  0  0  0  0  0  0  0  0
   -1.8417   19.4167  -30.9624 H   0  0  0  0  0  0  0  0  0  0  0  0
   -1.0743   20.2807  -28.7581 H   0  0  0  0  0  0  0  0  0  0  0  0
   -1.3240   23.7140  -27.6100 H   0  0  0  0  0  0  0  0  0  0  0  0
  1  2  2  0
  2  3  1  0
  3  4  1  0
  4  5  2  0
  5  6  1  0
  6  7  2  0
  7  8  1  0
  8  9  2  0
  8 10  2  0
  8 11  1  0
 11 12  1  0
 12 13  1  0
 13 14  1  0
 14 15  1  0
  7 16  1  0
 16 17  2  0
  2 18  1  0
 18 19  2  0
 19 20  1  0
 20 21  1  0
 21 22  2  0
 21 23  2  0
 21 24  1  0
 24 25  1  0
 25 26  1  0
 26 27  1  0
 27 28  1  0
 28 29  1  0
 20 30  2  0
 30 31  1  0
 31 32  2  0
 32 33  1  0
 17  4  1  0
 32 18  1  0
 15 11  1  0
 29 24  1  0
  5 34  1  0
  6 35  1  0
 12 36  1  0
 12 37  1  0
 13 38  1  0
 13 39  1  0
 14 40  1  0
 14 41  1  0
 15 42  1  0
 15 43  1  0
 16 44  1  0
 17 45  1  0
 19 46  1  0
 25 47  1  0
 25 48  1  0
 26 49  1  0
 26 50  1  0
 28 51  1  0
 28 52  1  0
 29 53  1  0
 29 54  1  0
 30 55  1  0
 31 56  1  0
 33 57  1  0
M  CHG  1   3  -1
M  END
>  <UniqueID>  (49) 
47

>  <SMILES>  (49) 
O=C([N-]c1ccc(S(=O)(=O)N2CCCC2)cc1)c1cc(S(=O)(=O)N2CCOCC2)ccc1O

>  <Energy>  (49) 
78.89840425278274

>  <Genealogy>  (49) 
O=C([N-]c1ccc(S(=O)(=O)N2CCCC2)cc1)c1cc(S(=O)(=O)N2CCOCC2)ccc1O (protonated)
O=C([N-]c1ccc(S(=O)(=O)N2CCCC2)cc1)c1cc(S(=O)(=O)N2CCOCC2)ccc1O (3D coordinates assigned)
O=C([N-]c1ccc(S(=O)(=O)N2CCCC2)cc1)c1cc(S(=O)(=O)N2CCOCC2)ccc1O (nonaromatic ring conformer: 78.89840425278274 kcal/mol)

>  <smiles>  (49) 
O=C(Nc1ccc(S(=O)(=O)N2CCCC2)cc1)c1cc(S(=O)(=O)N2CCOCC2)ccc1O

>  <score_type>  (49) 
oracle

>  <origin>  (49) 
adgpu

>  <m_score__min__energy>  (49) 
-11.5

>  <m_primary>  (49) 
energy

$$$$
