0:0
     RDKit          3D

 44 46  0  0  0  0  0  0  0  0999 V2000
   -5.7860   25.1140  -30.0630 C   0  0  0  0  0  0  0  0  0  0  0  0
   -4.5980   24.9550  -30.8330 O   0  0  0  0  0  0  0  0  0  0  0  0
   -3.8070   23.7940  -30.8490 C   0  0  0  0  0  0  0  0  0  0  0  0
   -4.1530   22.6740  -31.6230 C   0  0  0  0  0  0  0  0  0  0  0  0
   -3.3370   21.5360  -31.6410 C   0  0  0  0  0  0  0  0  0  0  0  0
   -3.6980   20.3530  -32.4560 C   0  0  0  0  0  0  0  0  0  0  0  0
   -2.8420   19.9420  -33.4330 N   0  0  0  0  0  0  0  0  0  0  0  0
   -3.0950   18.8580  -34.2130 C   0  0  0  0  0  0  0  0  0  0  0  0
   -4.2680   18.1270  -34.0310 C   0  0  0  0  0  0  0  0  0  0  0  0
   -5.1760   18.5260  -33.0510 C   0  0  0  0  0  0  0  0  0  0  0  0
   -4.9010   19.6460  -32.2480 C   0  0  0  0  0  0  0  0  0  0  0  0
   -5.8330   20.1050  -31.3050 O   0  0  0  0  0  0  0  0  0  0  0  0
   -7.1490   20.4980  -31.5880 C   0  0  0  0  0  0  0  0  0  0  0  0
   -8.1200   19.5850  -32.0430 C   0  0  0  0  0  0  0  0  0  0  0  0
   -9.4270   20.0150  -32.2920 C   0  0  0  0  0  0  0  0  0  0  0  0
   -9.7780   21.3510  -32.0800 C   0  0  0  0  0  0  0  0  0  0  0  0
   -8.8230   22.2580  -31.6120 C   0  0  0  0  0  0  0  0  0  0  0  0
   -7.5150   21.8300  -31.3610 C   0  0  0  0  0  0  0  0  0  0  0  0
   -2.1880   21.5060  -30.8420 C   0  0  0  0  0  0  0  0  0  0  0  0
   -1.8240   22.6150  -30.0510 C   0  0  0  0  0  0  0  0  0  0  0  0
   -0.6650   22.5820  -29.2590 O   0  0  0  0  0  0  0  0  0  0  0  0
   -0.4660   21.7320  -28.1330 C   0  0  0  0  0  0  0  0  0  0  0  0
   -2.6430   23.7720  -30.0610 C   0  0  0  0  0  0  0  0  0  0  0  0
   -2.3660   24.9340  -29.3150 O   0  0  0  0  0  0  0  0  0  0  0  0
   -1.9920   24.9930  -27.9430 C   0  0  0  0  0  0  0  0  0  0  0  0
   -5.5362   25.0806  -28.9923 H   0  0  0  0  0  0  0  0  0  0  0  0
   -6.2504   26.0823  -30.3011 H   0  0  0  0  0  0  0  0  0  0  0  0
   -6.4887   24.3019  -30.3011 H   0  0  0  0  0  0  0  0  0  0  0  0
   -5.0755   22.6910  -32.2219 H   0  0  0  0  0  0  0  0  0  0  0  0
   -2.3743   18.5576  -34.9878 H   0  0  0  0  0  0  0  0  0  0  0  0
   -4.4751   17.2445  -34.6541 H   0  0  0  0  0  0  0  0  0  0  0  0
   -6.1097   17.9628  -32.9061 H   0  0  0  0  0  0  0  0  0  0  0  0
   -7.8495   18.5308  -32.2029 H   0  0  0  0  0  0  0  0  0  0  0  0
  -10.1802   19.3004  -32.6554 H   0  0  0  0  0  0  0  0  0  0  0  0
  -10.8054   21.6886  -32.2813 H   0  0  0  0  0  0  0  0  0  0  0  0
   -9.1000   23.3087  -31.4410 H   0  0  0  0  0  0  0  0  0  0  0  0
   -6.7693   22.5447  -30.9828 H   0  0  0  0  0  0  0  0  0  0  0  0
   -1.5594   20.6034  -30.8311 H   0  0  0  0  0  0  0  0  0  0  0  0
   -0.6016   22.3113  -27.2078 H   0  0  0  0  0  0  0  0  0  0  0  0
   -1.1959   20.9095  -28.1609 H   0  0  0  0  0  0  0  0  0  0  0  0
    0.5531   21.3190  -28.1609 H   0  0  0  0  0  0  0  0  0  0  0  0
   -2.8832   24.8524  -27.3137 H   0  0  0  0  0  0  0  0  0  0  0  0
   -1.2619   24.1989  -27.7275 H   0  0  0  0  0  0  0  0  0  0  0  0
   -1.5419   25.9733  -27.7275 H   0  0  0  0  0  0  0  0  0  0  0  0
  1  2  1  0
  2  3  1  0
  3  4  2  0
  4  5  1  0
  5  6  1  0
  6  7  2  0
  7  8  1  0
  8  9  2  0
  9 10  1  0
 10 11  2  0
 11 12  1  0
 12 13  1  0
 13 14  2  0
 14 15  1  0
 15 16  2  0
 16 17  1  0
 17 18  2  0
  5 19  2  0
 19 20  1  0
 20 21  1  0
 21 22  1  0
 20 23  2  0
 23 24  1  0
 24 25  1  0
 23  3  1  0
 11  6  1  0
 18 13  1  0
  1 26  1  0
  1 27  1  0
  1 28  1  0
  4 29  1  0
  8 30  1  0
  9 31  1  0
 10 32  1  0
 14 33  1  0
 15 34  1  0
 16 35  1  0
 17 36  1  0
 18 37  1  0
 19 38  1  0
 22 39  1  0
 22 40  1  0
 22 41  1  0
 25 42  1  0
 25 43  1  0
 25 44  1  0
M  END
>  <UniqueID>  (1) 
1

>  <SMILES>  (1) 
COc1cc(-c2ncccc2Oc2ccccc2)cc(OC)c1OC

>  <Energy>  (1) 
59.91571575026446

>  <Genealogy>  (1) 
COc1cc(-c2ncccc2Oc2ccccc2)cc(OC)c1OC (3D coordinates assigned)
COc1cc(-c2ncccc2Oc2ccccc2)cc(OC)c1OC (optimized conformer: 59.91571575026446 kcal/mol)

>  <smiles>  (1) 
COc1cc(-c2ncccc2Oc2ccccc2)cc(OC)c1OC

>  <score_type>  (1) 
oracle

>  <origin>  (1) 
adgpu

>  <m_score__min__energy>  (1) 
-7.96

>  <m_primary>  (1) 
energy

$$$$
1:0
     RDKit          3D

 37 38  0  0  0  0  0  0  0  0999 V2000
   -1.2240   25.7820  -25.0040 C   0  0  0  0  0  0  0  0  0  0  0  0
   -1.3450   24.8660  -26.1870 C   0  0  0  0  0  0  0  0  0  0  0  0
   -0.8190   23.5690  -26.1320 C   0  0  0  0  0  0  0  0  0  0  0  0
   -0.9170   22.7220  -27.2370 C   0  0  0  0  0  0  0  0  0  0  0  0
   -1.5270   23.1650  -28.4210 C   0  0  0  0  0  0  0  0  0  0  0  0
   -1.6220   22.2440  -29.6070 C   0  0  0  0  0  0  0  0  0  0  0  0
   -2.0180   24.4840  -28.5020 C   0  0  0  0  0  0  0  0  0  0  0  0
   -2.6430   24.9260  -29.7160 N   0  0  0  0  0  0  0  0  0  0  0  0
   -4.0290   24.8130  -30.0620 C   0  0  0  0  0  0  0  0  0  0  0  0
   -4.5660   25.6300  -30.8560 O   0  0  0  0  0  0  0  0  0  0  0  0
   -4.8220   23.6640  -29.5280 C   0  0  0  0  0  0  0  0  0  0  0  0
   -5.7390   23.1740  -30.5550 N   0  0  0  0  0  0  0  0  0  0  0  0
   -7.0560   23.1810  -30.4140 N   0  0  0  0  0  0  0  0  0  0  0  0
   -7.5800   22.5790  -31.4990 C   0  0  0  0  0  0  0  0  0  0  0  0
   -9.0370   22.3160  -31.6810 C   0  0  0  0  0  0  0  0  0  0  0  0
   -6.5720   22.1440  -32.3380 C   0  0  0  0  0  0  0  0  0  0  0  0
   -5.4120   22.5450  -31.7050 C   0  0  0  0  0  0  0  0  0  0  0  0
   -4.0180   22.2710  -32.1760 C   0  0  0  0  0  0  0  0  0  0  0  0
   -1.9360   25.3230  -27.3740 C   0  0  0  0  0  0  0  0  0  0  0  0
   -1.3015   25.1954  -24.0767 H   0  0  0  0  0  0  0  0  0  0  0  0
   -0.2505   26.2933  -25.0342 H   0  0  0  0  0  0  0  0  0  0  0  0
   -2.0313   26.5285  -25.0342 H   0  0  0  0  0  0  0  0  0  0  0  0
   -0.3265   23.2164  -25.2138 H   0  0  0  0  0  0  0  0  0  0  0  0
   -0.5134   21.7003  -27.1796 H   0  0  0  0  0  0  0  0  0  0  0  0
   -1.7290   21.2064  -29.2578 H   0  0  0  0  0  0  0  0  0  0  0  0
   -2.4966   22.5183  -30.2151 H   0  0  0  0  0  0  0  0  0  0  0  0
   -0.7098   22.3340  -30.2151 H   0  0  0  0  0  0  0  0  0  0  0  0
   -4.1382   22.8544  -29.2330 H   0  0  0  0  0  0  0  0  0  0  0  0
   -5.4010   23.9979  -28.6543 H   0  0  0  0  0  0  0  0  0  0  0  0
   -9.5197   22.2289  -30.6964 H   0  0  0  0  0  0  0  0  0  0  0  0
   -9.4924   23.1465  -32.2404 H   0  0  0  0  0  0  0  0  0  0  0  0
   -9.1733   21.3787  -32.2404 H   0  0  0  0  0  0  0  0  0  0  0  0
   -6.6708   21.6029  -33.2906 H   0  0  0  0  0  0  0  0  0  0  0  0
   -3.3563   22.1409  -31.3070 H   0  0  0  0  0  0  0  0  0  0  0  0
   -4.0098   21.3541  -32.7836 H   0  0  0  0  0  0  0  0  0  0  0  0
   -3.6634   23.1166  -32.7836 H   0  0  0  0  0  0  0  0  0  0  0  0
   -2.3388   26.3453  -27.4243 H   0  0  0  0  0  0  0  0  0  0  0  0
  1  2  1  0
  2  3  2  0
  3  4  1  0
  4  5  2  0
  5  6  1  0
  5  7  1  0
  7  8  1  0
  8  9  1  0
  9 10  2  0
  9 11  1  0
 11 12  1  0
 12 13  1  0
 13 14  2  0
 14 15  1  0
 14 16  1  0
 16 17  2  0
 17 18  1  0
  7 19  2  0
 19  2  1  0
 17 12  1  0
  1 20  1  0
  1 21  1  0
  1 22  1  0
  3 23  1  0
  4 24  1  0
  6 25  1  0
  6 26  1  0
  6 27  1  0
 11 28  1  0
 11 29  1  0
 15 30  1  0
 15 31  1  0
 15 32  1  0
 16 33  1  0
 18 34  1  0
 18 35  1  0
 18 36  1  0
 19 37  1  0
M  CHG  1   8  -1
M  END
>  <UniqueID>  (2) 
2

>  <SMILES>  (2) 
Cc1ccc(C)c([N-]C(=O)Cn2nc(C)cc2C)c1

>  <Energy>  (2) 
64.25261359117096

>  <Genealogy>  (2) 
Cc1ccc(C)c([N-]C(=O)Cn2nc(C)cc2C)c1 (protonated)
Cc1ccc(C)c([N-]C(=O)Cn2nc(C)cc2C)c1 (3D coordinates assigned)
Cc1ccc(C)c([N-]C(=O)Cn2nc(C)cc2C)c1 (optimized conformer: 64.25261359117096 kcal/mol)

>  <smiles>  (2) 
Cc1ccc(C)c(NC(=O)Cn2nc(C)cc2C)c1

>  <score_type>  (2) 
oracle

>  <origin>  (2) 
adgpu

>  <m_score__min__energy>  (2) 
-8.7799999999999994

>  <m_primary>  (2) 
energy

$$$$
2:0
     RDKit          3D

 18 19  0  0  0  0  0  0  0  0999 V2000
   -6.0740   25.2930  -30.4660 C   0  0  0  0  0  0  0  0  0  0  0  0
   -6.3340   23.9370  -31.0300 C   0  0  0  0  0  0  0  0  0  0  0  0
   -7.5810   23.3150  -31.0910 C   0  0  0  0  0  0  0  0  0  0  0  0
   -7.5260   22.0780  -31.7440 C   0  0  0  0  0  0  0  0  0  0  0  0
   -8.5990   21.2080  -31.9630 C   0  0  0  0  0  0  0  0  0  0  0  0
   -9.8460   21.5180  -31.5250 F   0  0  0  0  0  0  0  0  0  0  0  0
   -8.3670   20.0020  -32.6480 C   0  0  0  0  0  0  0  0  0  0  0  0
   -9.3940   19.1440  -32.8680 F   0  0  0  0  0  0  0  0  0  0  0  0
   -7.0730   19.6780  -33.1050 C   0  0  0  0  0  0  0  0  0  0  0  0
   -6.8610   18.5140  -33.7650 F   0  0  0  0  0  0  0  0  0  0  0  0
   -6.0030   20.5610  -32.8820 C   0  0  0  0  0  0  0  0  0  0  0  0
   -4.7550   20.2620  -33.3210 F   0  0  0  0  0  0  0  0  0  0  0  0
   -6.2570   21.7490  -32.2000 C   0  0  0  0  0  0  0  0  0  0  0  0
   -5.1800   22.9780  -31.8090 S   0  0  0  0  0  0  0  0  0  0  0  0
   -6.0839   25.2412  -29.3673 H   0  0  0  0  0  0  0  0  0  0  0  0
   -5.0911   25.6498  -30.8074 H   0  0  0  0  0  0  0  0  0  0  0  0
   -6.8552   25.9881  -30.8074 H   0  0  0  0  0  0  0  0  0  0  0  0
   -8.5024   23.7472  -30.6736 H   0  0  0  0  0  0  0  0  0  0  0  0
  1  2  1  0
  2  3  2  0
  3  4  1  0
  4  5  2  0
  5  6  1  0
  5  7  1  0
  7  8  1  0
  7  9  2  0
  9 10  1  0
  9 11  1  0
 11 12  1  0
 11 13  2  0
 13 14  1  0
 14  2  1  0
 13  4  1  0
  1 15  1  0
  1 16  1  0
  1 17  1  0
  3 18  1  0
M  END
>  <UniqueID>  (3) 
3

>  <SMILES>  (3) 
Cc1cc2c(F)c(F)c(F)c(F)c2s1

>  <Energy>  (3) 
48.5285408321684

>  <Genealogy>  (3) 
Cc1cc2c(F)c(F)c(F)c(F)c2s1 (3D coordinates assigned)
Cc1cc2c(F)c(F)c(F)c(F)c2s1 (optimized conformer: 48.5285408321684 kcal/mol)

>  <smiles>  (3) 
Cc1cc2c(F)c(F)c(F)c(F)c2s1

>  <score_type>  (3) 
oracle

>  <origin>  (3) 
adgpu

>  <m_score__min__energy>  (3) 
-5.25

>  <m_primary>  (3) 
energy

$$$$
3:0
     RDKit          3D

 43 45  0  0  0  0  0  0  0  0999 V2000
   -1.5580   25.5590  -28.9690 O   0  0  0  0  0  0  0  0  0  0  0  0
   -2.5230   24.7930  -29.2280 C   0  0  0  0  0  0  0  0  0  0  0  0
   -3.5760   25.2700  -30.0750 N   0  0  0  0  0  0  0  0  0  0  0  0
   -4.7410   24.5200  -30.4420 C   0  0  0  0  0  0  0  0  0  0  0  0
   -4.6420   23.3360  -31.1910 C   0  0  0  0  0  0  0  0  0  0  0  0
   -5.7860   22.5920  -31.4860 C   0  0  0  0  0  0  0  0  0  0  0  0
   -7.0410   23.0230  -31.0380 C   0  0  0  0  0  0  0  0  0  0  0  0
   -8.4610   22.0070  -31.2820 S   0  0  0  0  0  0  0  0  0  0  0  0
   -9.2240   21.8960  -29.9910 O   0  0  0  0  0  0  0  0  0  0  0  0
   -9.3620   22.6530  -32.2970 O   0  0  0  0  0  0  0  0  0  0  0  0
   -7.9980   20.4060  -31.8200 N   0  0  0  0  0  0  0  0  0  0  0  0
   -7.4270   20.4510  -33.1910 C   0  0  0  0  0  0  0  0  0  0  0  0
   -6.2230   19.5100  -33.4430 C   0  0  0  0  0  0  0  0  0  0  0  0
   -6.4650   18.0010  -33.1810 C   0  0  0  0  0  0  0  0  0  0  0  0
   -7.2400   17.6720  -31.8960 C   0  0  0  0  0  0  0  0  0  0  0  0
   -8.7440   18.0100  -31.9580 C   0  0  0  0  0  0  0  0  0  0  0  0
   -9.1170   19.4630  -31.6190 C   0  0  0  0  0  0  0  0  0  0  0  0
   -7.1470   24.2330  -30.3350 C   0  0  0  0  0  0  0  0  0  0  0  0
   -6.0030   24.9820  -30.0500 C   0  0  0  0  0  0  0  0  0  0  0  0
   -2.5630   23.4530  -28.6120 C   0  0  0  0  0  0  0  0  0  0  0  0
   -3.6560   22.8580  -27.9840 C   0  0  0  0  0  0  0  0  0  0  0  0
   -3.3780   21.5850  -27.4730 C   0  0  0  0  0  0  0  0  0  0  0  0
   -2.0690   21.1870  -27.6890 C   0  0  0  0  0  0  0  0  0  0  0  0
   -1.3660   19.6660  -27.1800 Cl  0  0  0  0  0  0  0  0  0  0  0  0
   -1.2490   22.4040  -28.5060 S   0  0  0  0  0  0  0  0  0  0  0  0
   -3.6591   22.9935  -31.5467 H   0  0  0  0  0  0  0  0  0  0  0  0
   -5.7014   21.6648  -32.0718 H   0  0  0  0  0  0  0  0  0  0  0  0
   -8.2237   20.1790  -33.8990 H   0  0  0  0  0  0  0  0  0  0  0  0
   -7.0444   21.4735  -33.3254 H   0  0  0  0  0  0  0  0  0  0  0  0
   -5.9230   19.6238  -34.4952 H   0  0  0  0  0  0  0  0  0  0  0  0
   -5.4550   19.8147  -32.7168 H   0  0  0  0  0  0  0  0  0  0  0  0
   -7.0312   17.5952  -34.0323 H   0  0  0  0  0  0  0  0  0  0  0  0
   -5.4689   17.5508  -33.0582 H   0  0  0  0  0  0  0  0  0  0  0  0
   -7.1368   16.5950  -31.6975 H   0  0  0  0  0  0  0  0  0  0  0  0
   -6.8092   18.2965  -31.0995 H   0  0  0  0  0  0  0  0  0  0  0  0
   -9.0953   17.8006  -32.9791 H   0  0  0  0  0  0  0  0  0  0  0  0
   -9.2220   17.3903  -31.1851 H   0  0  0  0  0  0  0  0  0  0  0  0
   -9.9544   19.7697  -32.2630 H   0  0  0  0  0  0  0  0  0  0  0  0
   -9.3873   19.4941  -30.5532 H   0  0  0  0  0  0  0  0  0  0  0  0
   -8.1337   24.5925  -30.0075 H   0  0  0  0  0  0  0  0  0  0  0  0
   -6.0941   25.9390  -29.5153 H   0  0  0  0  0  0  0  0  0  0  0  0
   -4.6403   23.3415  -27.8984 H   0  0  0  0  0  0  0  0  0  0  0  0
   -4.1227   20.9643  -26.9532 H   0  0  0  0  0  0  0  0  0  0  0  0
  1  2  2  0
  2  3  1  0
  3  4  1  0
  4  5  2  0
  5  6  1  0
  6  7  2  0
  7  8  1  0
  8  9  2  0
  8 10  2  0
  8 11  1  0
 11 12  1  0
 12 13  1  0
 13 14  1  0
 14 15  1  0
 15 16  1  0
 16 17  1  0
  7 18  1  0
 18 19  2  0
  2 20  1  0
 20 21  2  0
 21 22  1  0
 22 23  2  0
 23 24  1  0
 23 25  1  0
 19  4  1  0
 25 20  1  0
 17 11  1  0
  5 26  1  0
  6 27  1  0
 12 28  1  0
 12 29  1  0
 13 30  1  0
 13 31  1  0
 14 32  1  0
 14 33  1  0
 15 34  1  0
 15 35  1  0
 16 36  1  0
 16 37  1  0
 17 38  1  0
 17 39  1  0
 18 40  1  0
 19 41  1  0
 21 42  1  0
 22 43  1  0
M  CHG  1   3  -1
M  END
>  <UniqueID>  (4) 
4

>  <SMILES>  (4) 
O=C([N-]c1ccc(S(=O)(=O)N2CCCCCC2)cc1)c1ccc(Cl)s1

>  <Energy>  (4) 
86.41669516204298

>  <Genealogy>  (4) 
O=C([N-]c1ccc(S(=O)(=O)N2CCCCCC2)cc1)c1ccc(Cl)s1 (protonated)
O=C([N-]c1ccc(S(=O)(=O)N2CCCCCC2)cc1)c1ccc(Cl)s1 (3D coordinates assigned)
O=C([N-]c1ccc(S(=O)(=O)N2CCCCCC2)cc1)c1ccc(Cl)s1 (nonaromatic ring conformer: 86.41669516204298 kcal/mol)

>  <smiles>  (4) 
O=C(Nc1ccc(S(=O)(=O)N2CCCCCC2)cc1)c1ccc(Cl)s1

>  <score_type>  (4) 
oracle

>  <origin>  (4) 
adgpu

>  <m_score__min__energy>  (4) 
-9.6300000000000008

>  <m_primary>  (4) 
energy

$$$$
4:0
     RDKit          3D

 47 49  0  0  0  0  0  0  0  0999 V2000
   -6.2930   24.7240  -30.8540 C   0  0  0  0  0  0  0  0  0  0  0  0
   -6.3310   23.8220  -31.9560 O   0  0  0  0  0  0  0  0  0  0  0  0
   -6.9950   22.5830  -31.9520 C   0  0  0  0  0  0  0  0  0  0  0  0
   -8.3950   22.4930  -31.9400 C   0  0  0  0  0  0  0  0  0  0  0  0
   -9.0150   21.2400  -31.9580 C   0  0  0  0  0  0  0  0  0  0  0  0
  -10.2760   21.1820  -31.9590 O   0  0  0  0  0  0  0  0  0  0  0  0
   -8.2640   20.0950  -31.9750 N   0  0  0  0  0  0  0  0  0  0  0  0
   -8.9240   18.7840  -32.0080 C   0  0  0  0  0  0  0  0  0  0  0  0
   -6.8990   20.1620  -31.9900 C   0  0  0  0  0  0  0  0  0  0  0  0
   -6.2370   21.4000  -31.9760 C   0  0  0  0  0  0  0  0  0  0  0  0
   -4.7540   21.4440  -31.9750 C   0  0  0  0  0  0  0  0  0  0  0  0
   -4.0840   22.2390  -31.0310 C   0  0  0  0  0  0  0  0  0  0  0  0
   -2.6800   22.3050  -31.0140 C   0  0  0  0  0  0  0  0  0  0  0  0
   -1.9630   23.1200  -30.0780 N   0  0  0  0  0  0  0  0  0  0  0  0
   -2.5540   24.5740  -29.3390 S   0  0  0  0  0  0  0  0  0  0  0  0
   -3.4290   24.1870  -27.8370 C   0  0  0  0  0  0  0  0  0  0  0  0
   -3.5040   25.2450  -30.2890 O   0  0  0  0  0  0  0  0  0  0  0  0
   -1.4120   25.5080  -29.0540 O   0  0  0  0  0  0  0  0  0  0  0  0
   -1.9510   21.5460  -31.9350 C   0  0  0  0  0  0  0  0  0  0  0  0
   -2.6060   20.7490  -32.8740 C   0  0  0  0  0  0  0  0  0  0  0  0
   -4.0100   20.7080  -32.9190 C   0  0  0  0  0  0  0  0  0  0  0  0
   -4.6840   19.9200  -33.8660 O   0  0  0  0  0  0  0  0  0  0  0  0
   -4.9350   18.5450  -33.7520 C   0  0  0  0  0  0  0  0  0  0  0  0
   -4.0140   17.6670  -33.1500 C   0  0  0  0  0  0  0  0  0  0  0  0
   -4.2940   16.2980  -33.0730 C   0  0  0  0  0  0  0  0  0  0  0  0
   -5.4850   15.7970  -33.6050 C   0  0  0  0  0  0  0  0  0  0  0  0
   -6.3950   16.6620  -34.2200 C   0  0  0  0  0  0  0  0  0  0  0  0
   -6.1170   18.0300  -34.2990 C   0  0  0  0  0  0  0  0  0  0  0  0
   -6.3170   24.1546  -29.9131 H   0  0  0  0  0  0  0  0  0  0  0  0
   -5.3690   25.3191  -30.8990 H   0  0  0  0  0  0  0  0  0  0  0  0
   -7.1637   25.3947  -30.8990 H   0  0  0  0  0  0  0  0  0  0  0  0
   -9.0048   23.4082  -31.9164 H   0  0  0  0  0  0  0  0  0  0  0  0
   -9.0993   18.4358  -30.9794 H   0  0  0  0  0  0  0  0  0  0  0  0
   -9.8858   18.8709  -32.5347 H   0  0  0  0  0  0  0  0  0  0  0  0
   -8.2814   18.0631  -32.5347 H   0  0  0  0  0  0  0  0  0  0  0  0
   -6.3107   19.2328  -32.0134 H   0  0  0  0  0  0  0  0  0  0  0  0
   -4.6645   22.8166  -30.2965 H   0  0  0  0  0  0  0  0  0  0  0  0
   -2.8092   24.4611  -26.9706 H   0  0  0  0  0  0  0  0  0  0  0  0
   -4.3724   24.7518  -27.8063 H   0  0  0  0  0  0  0  0  0  0  0  0
   -3.6458   23.1090  -27.8063 H   0  0  0  0  0  0  0  0  0  0  0  0
   -0.8516   21.5777  -31.9188 H   0  0  0  0  0  0  0  0  0  0  0  0
   -2.0192   20.1482  -33.5844 H   0  0  0  0  0  0  0  0  0  0  0  0
   -3.0716   18.0580  -32.7390 H   0  0  0  0  0  0  0  0  0  0  0  0
   -3.5763   15.6161  -32.5935 H   0  0  0  0  0  0  0  0  0  0  0  0
   -5.7067   14.7215  -33.5399 H   0  0  0  0  0  0  0  0  0  0  0  0
   -7.3304   16.2660  -34.6421 H   0  0  0  0  0  0  0  0  0  0  0  0
   -6.8306   18.7055  -34.7935 H   0  0  0  0  0  0  0  0  0  0  0  0
  1  2  1  0
  2  3  1  0
  3  4  2  0
  4  5  1  0
  5  6  2  0
  5  7  1  0
  7  8  1  0
  7  9  1  0
  9 10  2  0
 10 11  1  0
 11 12  2  0
 12 13  1  0
 13 14  1  0
 14 15  1  0
 15 16  1  0
 15 17  2  0
 15 18  2  0
 13 19  2  0
 19 20  1  0
 20 21  2  0
 21 22  1  0
 22 23  1  0
 23 24  2  0
 24 25  1  0
 25 26  2  0
 26 27  1  0
 27 28  2  0
 10  3  1  0
 21 11  1  0
 28 23  1  0
  1 29  1  0
  1 30  1  0
  1 31  1  0
  4 32  1  0
  8 33  1  0
  8 34  1  0
  8 35  1  0
  9 36  1  0
 12 37  1  0
 16 38  1  0
 16 39  1  0
 16 40  1  0
 19 41  1  0
 20 42  1  0
 24 43  1  0
 25 44  1  0
 26 45  1  0
 27 46  1  0
 28 47  1  0
M  CHG  1  14  -1
M  END
>  <UniqueID>  (5) 
5

>  <SMILES>  (5) 
COc1cc(=O)n(C)cc1-c1cc([N-]S(C)(=O)=O)ccc1Oc1ccccc1

>  <Energy>  (5) 
62.139627809264354

>  <Genealogy>  (5) 
COc1cc(=O)n(C)cc1-c1cc([N-]S(C)(=O)=O)ccc1Oc1ccccc1 (protonated)
COc1cc(=O)n(C)cc1-c1cc([N-]S(C)(=O)=O)ccc1Oc1ccccc1 (3D coordinates assigned)
COc1cc(=O)n(C)cc1-c1cc([N-]S(C)(=O)=O)ccc1Oc1ccccc1 (optimized conformer: 62.139627809264354 kcal/mol)

>  <smiles>  (5) 
COc1cc(=O)n(C)cc1-c1cc(NS(C)(=O)=O)ccc1Oc1ccccc1

>  <score_type>  (5) 
oracle

>  <origin>  (5) 
adgpu

>  <m_score__min__energy>  (5) 
-10.02

>  <m_primary>  (5) 
energy

$$$$
5:0
     RDKit          3D

 39 41  0  0  0  0  0  0  0  0999 V2000
   -4.4987   22.7485  -30.2607 H   0  0  0  0  0  0  0  0  0  0  0  0
   -3.6520   23.0380  -29.6210 C   0  0  0  0  0  0  0  0  0  0  0  0
   -3.0420   22.0840  -28.8080 C   0  0  0  0  0  0  0  0  0  0  0  0
   -3.4200   21.0510  -28.8014 H   0  0  0  0  0  0  0  0  0  0  0  0
   -1.9540   22.4290  -28.0010 C   0  0  0  0  0  0  0  0  0  0  0  0
   -1.3830   21.4320  -27.1940 O   0  0  0  0  0  0  0  0  0  0  0  0
   -2.0000   20.1840  -26.8990 C   0  0  0  0  0  0  0  0  0  0  0  0
   -2.0637   20.0552  -25.8084 H   0  0  0  0  0  0  0  0  0  0  0  0
   -3.0117   20.1641  -27.3303 H   0  0  0  0  0  0  0  0  0  0  0  0
   -1.4015   19.3680  -27.3303 H   0  0  0  0  0  0  0  0  0  0  0  0
   -1.4680   23.7490  -28.0310 C   0  0  0  0  0  0  0  0  0  0  0  0
   -0.6084   24.0270  -27.4034 H   0  0  0  0  0  0  0  0  0  0  0  0
   -2.0720   24.7200  -28.8580 C   0  0  0  0  0  0  0  0  0  0  0  0
   -1.5620   26.0250  -28.9550 O   0  0  0  0  0  0  0  0  0  0  0  0
   -0.8610   26.7030  -27.9180 C   0  0  0  0  0  0  0  0  0  0  0  0
   -1.2235   26.3524  -26.9404 H   0  0  0  0  0  0  0  0  0  0  0  0
    0.2155   26.4947  -28.0061 H   0  0  0  0  0  0  0  0  0  0  0  0
   -1.0333   27.7858  -28.0061 H   0  0  0  0  0  0  0  0  0  0  0  0
   -3.1960   24.3610  -29.6300 C   0  0  0  0  0  0  0  0  0  0  0  0
   -3.8610   25.3040  -30.4840 N   0  0  0  0  0  0  0  0  0  0  0  0
   -5.2760   25.5160  -30.5360 C   0  0  0  0  0  0  0  0  0  0  0  0
   -5.8250   26.3760  -29.7950 O   0  0  0  0  0  0  0  0  0  0  0  0
   -6.1190   24.6500  -31.4190 C   0  0  0  0  0  0  0  0  0  0  0  0
   -6.9430   24.2236  -30.8281 H   0  0  0  0  0  0  0  0  0  0  0  0
   -6.5194   25.2619  -32.2407 H   0  0  0  0  0  0  0  0  0  0  0  0
   -5.3200   23.5650  -31.9830 N   0  0  0  0  0  0  0  0  0  0  0  0
   -5.7580   22.3570  -32.1750 C   0  0  0  0  0  0  0  0  0  0  0  0
   -7.0220   21.9590  -31.8790 N   0  0  0  0  0  0  0  0  0  0  0  0
   -7.1880   20.6470  -32.1830 C   0  0  0  0  0  0  0  0  0  0  0  0
   -8.3760   19.9390  -31.9930 C   0  0  0  0  0  0  0  0  0  0  0  0
   -9.2636   20.4354  -31.5739 H   0  0  0  0  0  0  0  0  0  0  0  0
   -8.4160   18.5780  -32.3480 C   0  0  0  0  0  0  0  0  0  0  0  0
   -9.3428   18.0030  -32.2055 H   0  0  0  0  0  0  0  0  0  0  0  0
   -7.2760   17.9470  -32.8850 C   0  0  0  0  0  0  0  0  0  0  0  0
   -7.3182   16.8828  -33.1599 H   0  0  0  0  0  0  0  0  0  0  0  0
   -6.0860   18.6700  -33.0710 C   0  0  0  0  0  0  0  0  0  0  0  0
   -5.1900   18.1871  -33.4882 H   0  0  0  0  0  0  0  0  0  0  0  0
   -6.0730   20.0160  -32.7120 C   0  0  0  0  0  0  0  0  0  0  0  0
   -4.8080   21.1160  -32.8190 S   0  0  0  0  0  0  0  0  0  0  0  0
  1  2  1  0
  2  3  2  0
  3  4  1  0
  3  5  1  0
  5  6  1  0
  6  7  1  0
  7  8  1  0
  7  9  1  0
  7 10  1  0
  5 11  2  0
 11 12  1  0
 11 13  1  0
 13 14  1  0
 14 15  1  0
 15 16  1  0
 15 17  1  0
 15 18  1  0
 13 19  2  0
 19 20  1  0
 20 21  1  0
 21 22  2  0
 21 23  1  0
 23 24  1  0
 23 25  1  0
 23 26  1  0
 26 27  2  0
 27 28  1  0
 28 29  1  0
 29 30  2  0
 30 31  1  0
 30 32  1  0
 32 33  1  0
 32 34  2  0
 34 35  1  0
 34 36  1  0
 36 37  1  0
 36 38  2  0
 38 39  1  0
 19  2  1  0
 39 27  1  0
 38 29  1  0
M  CHG  2  20  -1  28  -1
M  END
>  <UniqueID>  (6) 
6

>  <SMILES>  (6) 
COc1ccc([N-]C(=O)C/N=c2\[n-]c3ccccc3s2)c(OC)c1

>  <Energy>  (6) 
78.46485349936435

>  <Genealogy>  (6) 
COc1ccc([N-]C(=O)CN=c2[n-]c3ccccc3s2)c(OC)c1 (protonated)
COc1ccc([N-]C(=O)C/N=c2\[n-]c3ccccc3s2)c(OC)c1 (cis-trans isomerization)
COc1ccc([N-]C(=O)C/N=c2\[n-]c3ccccc3s2)c(OC)c1 (3D coordinates assigned)
COc1ccc([N-]C(=O)C/N=c2\[n-]c3ccccc3s2)c(OC)c1 (optimized conformer: 78.46485349936435 kcal/mol)

>  <smiles>  (6) 
COc1ccc(NC(=O)CN=c2[nH]c3ccccc3s2)c(OC)c1

>  <score_type>  (6) 
oracle

>  <origin>  (6) 
adgpu

>  <m_score__min__energy>  (6) 
-10.960000000000001

>  <m_primary>  (6) 
energy

$$$$
6:0
     RDKit          3D

 33 35  0  0  0  0  0  0  0  0999 V2000
   -9.1060   18.6060  -31.9430 C   0  0  0  0  0  0  0  0  0  0  0  0
   -7.9550   19.5150  -32.2580 C   0  0  0  0  0  0  0  0  0  0  0  0
   -6.7940   19.0030  -32.8550 C   0  0  0  0  0  0  0  0  0  0  0  0
   -5.7060   19.8420  -33.1140 C   0  0  0  0  0  0  0  0  0  0  0  0
   -5.7600   21.2020  -32.7790 C   0  0  0  0  0  0  0  0  0  0  0  0
   -4.6200   22.0410  -33.0380 N   0  0  0  0  0  0  0  0  0  0  0  0
   -3.3670   21.9250  -32.3430 C   0  0  0  0  0  0  0  0  0  0  0  0
   -2.3740   21.0720  -32.8570 C   0  0  0  0  0  0  0  0  0  0  0  0
   -1.1820   20.8700  -32.1610 C   0  0  0  0  0  0  0  0  0  0  0  0
   -0.9700   21.5060  -30.9400 C   0  0  0  0  0  0  0  0  0  0  0  0
   -1.9480   22.3520  -30.4120 C   0  0  0  0  0  0  0  0  0  0  0  0
   -3.1520   22.5800  -31.1040 C   0  0  0  0  0  0  0  0  0  0  0  0
   -4.1380   23.5290  -30.5290 C   0  0  0  0  0  0  0  0  0  0  0  0
   -4.6230   24.5990  -31.2000 N   0  0  0  0  0  0  0  0  0  0  0  0
   -5.4900   25.1270  -30.3160 C   0  0  0  0  0  0  0  0  0  0  0  0
   -5.5320   24.4130  -29.1830 N   0  0  0  0  0  0  0  0  0  0  0  0
   -4.6900   23.4030  -29.3050 N   0  0  0  0  0  0  0  0  0  0  0  0
   -6.9130   21.7060  -32.1470 C   0  0  0  0  0  0  0  0  0  0  0  0
   -8.0010   20.8670  -31.8880 C   0  0  0  0  0  0  0  0  0  0  0  0
   -9.2164   18.5188  -30.8520 H   0  0  0  0  0  0  0  0  0  0  0  0
  -10.0294   19.0212  -32.3730 H   0  0  0  0  0  0  0  0  0  0  0  0
   -8.9161   17.6115  -32.3730 H   0  0  0  0  0  0  0  0  0  0  0  0
   -6.7391   17.9370  -33.1206 H   0  0  0  0  0  0  0  0  0  0  0  0
   -4.8004   19.4315  -33.5844 H   0  0  0  0  0  0  0  0  0  0  0  0
   -4.7210   22.8180  -33.7290 H   0  0  0  0  0  0  0  0  0  0  0  0
   -2.5387   20.5596  -33.8163 H   0  0  0  0  0  0  0  0  0  0  0  0
   -0.4085   20.2076  -32.5769 H   0  0  0  0  0  0  0  0  0  0  0  0
   -0.0311   21.3418  -30.3909 H   0  0  0  0  0  0  0  0  0  0  0  0
   -1.7751   22.8456  -29.4443 H   0  0  0  0  0  0  0  0  0  0  0  0
   -6.0888   26.0311  -30.5006 H   0  0  0  0  0  0  0  0  0  0  0  0
   -6.1210   24.6010  -28.3420 H   0  0  0  0  0  0  0  0  0  0  0  0
   -6.9579   22.7657  -31.8554 H   0  0  0  0  0  0  0  0  0  0  0  0
   -8.8968   21.2690  -31.3920 H   0  0  0  0  0  0  0  0  0  0  0  0
  1  2  1  0
  2  3  2  0
  3  4  1  0
  4  5  2  0
  5  6  1  0
  6  7  1  0
  7  8  2  0
  8  9  1  0
  9 10  2  0
 10 11  1  0
 11 12  2  0
 12 13  1  0
 13 14  1  0
 14 15  2  0
 15 16  1  0
 16 17  1  0
  5 18  1  0
 18 19  2  0
 19  2  1  0
 12  7  1  0
 17 13  2  0
  1 20  1  0
  1 21  1  0
  1 22  1  0
  3 23  1  0
  4 24  1  0
  6 25  1  0
  8 26  1  0
  9 27  1  0
 10 28  1  0
 11 29  1  0
 15 30  1  0
 16 31  1  0
 18 32  1  0
 19 33  1  0
M  END
>  <UniqueID>  (7) 
7

>  <SMILES>  (7) 
Cc1ccc(Nc2ccccc2-c2nc[nH]n2)cc1

>  <Energy>  (7) 
76.11244960213456

>  <Genealogy>  (7) 
Cc1ccc(Nc2ccccc2-c2nc[nH]n2)cc1 (3D coordinates assigned)
Cc1ccc(Nc2ccccc2-c2nc[nH]n2)cc1 (optimized conformer: 76.11244960213456 kcal/mol)

>  <smiles>  (7) 
Cc1ccc(Nc2ccccc2-c2nc[nH]n2)cc1

>  <score_type>  (7) 
oracle

>  <origin>  (7) 
adgpu

>  <m_score__min__energy>  (7) 
-8.0399999999999991

>  <m_primary>  (7) 
energy

$$$$
7:0
     RDKit          3D

 47 49  0  0  0  0  0  0  0  0999 V2000
   -1.6600   24.4190  -27.0450 C   0  0  0  0  0  0  0  0  0  0  0  0
   -0.9720   24.4270  -28.6900 S   0  0  0  0  0  0  0  0  0  0  0  0
    0.5120   24.2210  -28.5780 O   0  0  0  0  0  0  0  0  0  0  0  0
   -1.2460   25.7690  -29.3070 O   0  0  0  0  0  0  0  0  0  0  0  0
   -1.6590   23.1610  -29.7220 C   0  0  0  0  0  0  0  0  0  0  0  0
   -0.8690   22.0760  -30.1270 C   0  0  0  0  0  0  0  0  0  0  0  0
   -1.3990   21.0740  -30.9400 C   0  0  0  0  0  0  0  0  0  0  0  0
   -2.7330   21.1360  -31.3840 C   0  0  0  0  0  0  0  0  0  0  0  0
   -3.3660   20.0310  -32.2300 C   0  0  2  0  0  0  0  0  0  0  0  0
   -2.7570   20.0050  -33.5830 N   0  0  0  0  0  0  0  0  0  0  0  0
   -2.5240   18.6880  -34.2060 C   0  0  0  0  0  0  0  0  0  0  0  0
   -3.6980   17.7500  -34.0630 C   0  0  0  0  0  0  0  0  0  0  0  0
   -4.8850   17.9740  -34.7820 C   0  0  0  0  0  0  0  0  0  0  0  0
   -5.9820   17.1260  -34.6150 C   0  0  0  0  0  0  0  0  0  0  0  0
   -5.9030   16.0420  -33.7360 C   0  0  0  0  0  0  0  0  0  0  0  0
   -4.7200   15.7980  -33.0290 C   0  0  0  0  0  0  0  0  0  0  0  0
   -4.6400   14.6830  -32.1230 C   0  0  0  0  0  0  0  0  0  0  0  0
   -4.5750   13.7860  -31.3950 N   0  0  0  0  0  0  0  0  0  0  0  0
   -3.6170   16.6460  -33.1960 C   0  0  0  0  0  0  0  0  0  0  0  0
   -4.8990   19.9460  -32.2270 C   0  0  0  0  0  0  0  0  0  0  0  0
   -5.5980   18.8970  -31.5870 C   0  0  0  0  0  0  0  0  0  0  0  0
   -6.9950   18.8360  -31.6300 C   0  0  0  0  0  0  0  0  0  0  0  0
   -7.7180   19.7850  -32.3550 C   0  0  0  0  0  0  0  0  0  0  0  0
   -9.4690   19.7120  -32.3980 Cl  0  0  0  0  0  0  0  0  0  0  0  0
   -7.0410   20.7710  -33.0720 C   0  0  0  0  0  0  0  0  0  0  0  0
   -5.6450   20.8330  -33.0320 C   0  0  0  0  0  0  0  0  0  0  0  0
   -3.5290   22.2150  -30.9590 C   0  0  0  0  0  0  0  0  0  0  0  0
   -3.0030   23.2230  -30.1420 C   0  0  0  0  0  0  0  0  0  0  0  0
   -4.0670   24.5420  -29.6640 Cl  0  0  0  0  0  0  0  0  0  0  0  0
   -0.8448   24.4285  -26.3066 H   0  0  0  0  0  0  0  0  0  0  0  0
   -2.2903   25.3099  -26.9068 H   0  0  0  0  0  0  0  0  0  0  0  0
   -2.2694   23.5137  -26.9068 H   0  0  0  0  0  0  0  0  0  0  0  0
    0.1796   22.0142  -29.8003 H   0  0  0  0  0  0  0  0  0  0  0  0
   -0.7664   20.2248  -31.2378 H   0  0  0  0  0  0  0  0  0  0  0  0
   -3.1145   19.0921  -31.7150 H   0  0  0  0  0  0  0  0  0  0  0  0
   -1.9000   20.6000  -33.6330 H   0  0  0  0  0  0  0  0  0  0  0  0
   -2.3239   18.8378  -35.2772 H   0  0  0  0  0  0  0  0  0  0  0  0
   -1.6701   18.2265  -33.6884 H   0  0  0  0  0  0  0  0  0  0  0  0
   -4.9501   18.8218  -35.4799 H   0  0  0  0  0  0  0  0  0  0  0  0
   -6.9098   17.3114  -35.1761 H   0  0  0  0  0  0  0  0  0  0  0  0
   -6.7711   15.3803  -33.5999 H   0  0  0  0  0  0  0  0  0  0  0  0
   -2.6847   16.4473  -32.6470 H   0  0  0  0  0  0  0  0  0  0  0  0
   -5.0366   18.1192  -31.0486 H   0  0  0  0  0  0  0  0  0  0  0  0
   -7.5256   18.0375  -31.0907 H   0  0  0  0  0  0  0  0  0  0  0  0
   -7.6063   21.5010  -33.6699 H   0  0  0  0  0  0  0  0  0  0  0  0
   -5.1194   21.5856  -33.6380 H   0  0  0  0  0  0  0  0  0  0  0  0
   -4.5817   22.2677  -31.2736 H   0  0  0  0  0  0  0  0  0  0  0  0
  1  2  1  0
  2  3  2  0
  2  4  2  0
  2  5  1  0
  5  6  2  0
  6  7  1  0
  7  8  2  0
  8  9  1  0
  9 10  1  0
 10 11  1  0
 11 12  1  0
 12 13  2  0
 13 14  1  0
 14 15  2  0
 15 16  1  0
 16 17  1  0
 17 18  3  0
 16 19  2  0
  9 20  1  0
 20 21  2  0
 21 22  1  0
 22 23  2  0
 23 24  1  0
 23 25  1  0
 25 26  2  0
  8 27  1  0
 27 28  2  0
 28 29  1  0
 28  5  1  0
 19 12  1  0
 26 20  1  0
  1 30  1  0
  1 31  1  0
  1 32  1  0
  6 33  1  0
  7 34  1  0
  9 35  1  1
 10 36  1  0
 11 37  1  0
 11 38  1  0
 13 39  1  0
 14 40  1  0
 15 41  1  0
 19 42  1  0
 21 43  1  0
 22 44  1  0
 25 45  1  0
 26 46  1  0
 27 47  1  0
M  END
>  <UniqueID>  (8) 
8

>  <SMILES>  (8) 
CS(=O)(=O)c1ccc([C@H](NCc2cccc(C#N)c2)c2ccc(Cl)cc2)cc1Cl

>  <Energy>  (8) 
59.59000302370943

>  <Genealogy>  (8) 
CS(=O)(=O)c1ccc([C@H](NCc2cccc(C#N)c2)c2ccc(Cl)cc2)cc1Cl (chirality)
CS(=O)(=O)c1ccc([C@H](NCc2cccc(C#N)c2)c2ccc(Cl)cc2)cc1Cl (3D coordinates assigned)
CS(=O)(=O)c1ccc([C@H](NCc2cccc(C#N)c2)c2ccc(Cl)cc2)cc1Cl (optimized conformer: 59.59000302370943 kcal/mol)

>  <smiles>  (8) 
CS(=O)(=O)c1ccc(C(NCc2cccc(C#N)c2)c2ccc(Cl)cc2)cc1Cl

>  <score_type>  (8) 
oracle

>  <origin>  (8) 
adgpu

>  <m_score__min__energy>  (8) 
-10.359999999999999

>  <m_primary>  (8) 
energy

$$$$
8:0
     RDKit          3D

 47 49  0  0  1  0  0  0  0  0999 V2000
   -3.0290   20.0380  -27.9830 C   0  0  0  0  0  0  0  0  0  0  0  0
   -2.8940   21.2850  -27.2940 O   0  0  0  0  0  0  0  0  0  0  0  0
   -2.6730   22.4640  -28.0020 C   0  0  0  0  0  0  0  0  0  0  0  0
   -3.5010   22.9270  -28.9750 C   0  0  0  0  0  0  0  0  0  0  0  0
   -3.2710   24.0890  -29.6630 C   0  0  0  0  0  0  0  0  0  0  0  0
   -4.0930   24.4660  -30.5680 N   0  0  0  0  0  0  0  0  0  0  0  0
   -5.5090   23.6570  -31.0390 S   0  0  0  0  0  0  0  0  0  0  0  0
   -6.6740   23.8230  -30.1110 O   0  0  0  0  0  0  0  0  0  0  0  0
   -5.9660   24.3580  -32.3230 O   0  0  0  0  0  0  0  0  0  0  0  0
   -5.2450   21.9920  -31.5140 C   0  0  0  0  0  0  0  0  0  0  0  0
   -4.0850   21.5470  -32.1000 C   0  0  0  0  0  0  0  0  0  0  0  0
   -3.8930   20.2210  -32.4750 C   0  0  0  0  0  0  0  0  0  0  0  0
   -4.8720   19.2940  -32.2690 C   0  0  0  0  0  0  0  0  0  0  0  0
   -4.7510   17.9190  -32.6230 N   0  0  0  0  0  0  0  0  0  0  0  0
   -5.7560   17.3860  -33.4760 C   0  0  0  0  0  0  0  0  0  0  0  0
   -6.6800   18.1390  -33.8640 O   0  0  0  0  0  0  0  0  0  0  0  0
   -5.7690   16.0000  -33.9240 C   0  0  0  0  0  0  0  0  0  0  0  0
   -4.5690   15.3540  -34.0640 C   0  0  0  0  0  0  0  0  0  0  0  0
   -4.4860   14.0360  -34.4850 C   0  0  0  0  0  0  0  0  0  0  0  0
   -5.6580   13.3460  -34.7740 C   0  0  0  0  0  0  0  0  0  0  0  0
   -5.5980   12.0760  -35.1800 F   0  0  0  0  0  0  0  0  0  0  0  0
   -6.8710   14.0210  -34.6250 C   0  0  0  0  0  0  0  0  0  0  0  0
   -6.9320   15.3190  -34.2090 C   0  0  0  0  0  0  0  0  0  0  0  0
   -6.0500   19.7060  -31.6820 C   0  0  0  0  0  0  0  0  0  0  0  0
   -6.2330   21.0170  -31.3150 C   0  0  0  0  0  0  0  0  0  0  0  0
   -2.1670   24.7880  -29.3460 N   0  0  0  0  0  0  0  0  0  0  0  0
   -1.3170   24.3580  -28.3820 C   0  0  0  0  0  0  0  0  0  0  0  0
   -0.1980   25.1380  -28.1130 O   0  0  0  0  0  0  0  0  0  0  0  0
    0.5350   24.8500  -26.9410 C   0  0  0  0  0  0  0  0  0  0  0  0
   -1.5720   23.2040  -27.7180 N   0  0  0  0  0  0  0  0  0  0  0  0
   -3.1173   19.2221  -27.2506 H   0  0  0  0  0  0  0  0  0  0  0  0
   -3.9296   20.0634  -28.6140 H   0  0  0  0  0  0  0  0  0  0  0  0
   -2.1438   19.8700  -28.6140 H   0  0  0  0  0  0  0  0  0  0  0  0
   -4.3985   22.3409  -29.2219 H   0  0  0  0  0  0  0  0  0  0  0  0
   -3.2746   22.2687  -32.2802 H   0  0  0  0  0  0  0  0  0  0  0  0
   -2.9440   19.9178  -32.9414 H   0  0  0  0  0  0  0  0  0  0  0  0
   -3.9810   17.3140  -32.2920 H   0  0  0  0  0  0  0  0  0  0  0  0
   -3.6413   15.8989  -33.8349 H   0  0  0  0  0  0  0  0  0  0  0  0
   -3.5079   13.5435  -34.5889 H   0  0  0  0  0  0  0  0  0  0  0  0
   -7.8073   13.4894  -34.8502 H   0  0  0  0  0  0  0  0  0  0  0  0
   -7.9056   15.8195  -34.1017 H   0  0  0  0  0  0  0  0  0  0  0  0
   -6.8532   18.9755  -31.5054 H   0  0  0  0  0  0  0  0  0  0  0  0
   -7.1854   21.3115  -30.8500 H   0  0  0  0  0  0  0  0  0  0  0  0
   -1.9980   25.6720  -29.8750 H   0  0  0  0  0  0  0  0  0  0  0  0
   -0.0758   25.0900  -26.0582 H   0  0  0  0  0  0  0  0  0  0  0  0
    0.7975   23.7819  -26.9259 H   0  0  0  0  0  0  0  0  0  0  0  0
    1.4544   25.4538  -26.9259 H   0  0  0  0  0  0  0  0  0  0  0  0
  1  2  1  0
  2  3  1  0
  3  4  2  0
  4  5  1  0
  5  6  2  0
  6  7  1  0
  7  8  2  0
  7  9  2  0
  7 10  1  0
 10 11  2  0
 11 12  1  0
 12 13  2  0
 13 14  1  0
 14 15  1  0
 15 16  2  0
 15 17  1  0
 17 18  2  0
 18 19  1  0
 19 20  2  0
 20 21  1  0
 20 22  1  0
 22 23  2  0
 13 24  1  0
 24 25  2  0
  5 26  1  0
 26 27  1  0
 27 28  1  0
 28 29  1  0
 27 30  2  0
 30  3  1  0
 25 10  1  0
 23 17  1  0
  1 31  1  0
  1 32  1  0
  1 33  1  0
  4 34  1  0
 11 35  1  0
 12 36  1  0
 14 37  1  0
 18 38  1  0
 19 39  1  0
 22 40  1  0
 23 41  1  0
 24 42  1  0
 25 43  1  0
 26 44  1  0
 29 45  1  0
 29 46  1  0
 29 47  1  0
M  END
>  <smiles>  (9) 
COc1cc(=NS(=O)(=O)c2ccc(NC(=O)c3ccc(F)cc3)cc2)[nH]c(OC)n1

>  <score_type>  (9) 
oracle

>  <origin>  (9) 
adgpu

>  <m_score__min__energy>  (9) 
-8.4299999999999997

>  <m_primary>  (9) 
energy

$$$$
9:0
     RDKit          3D

 15 15  0  0  0  0  0  0  0  0999 V2000
   -3.1750   22.6290  -31.4850 C   0  0  0  0  0  0  0  0  0  0  0  0
   -4.5210   23.2050  -31.1470 C   0  0  0  0  0  0  0  0  0  0  0  0
   -5.6860   22.4390  -31.3270 C   0  0  0  0  0  0  0  0  0  0  0  0
   -6.9400   22.9780  -31.0140 C   0  0  0  0  0  0  0  0  0  0  0  0
   -8.5180   21.9310  -31.2600 Br  0  0  0  0  0  0  0  0  0  0  0  0
   -7.0370   24.2830  -30.5220 C   0  0  0  0  0  0  0  0  0  0  0  0
   -5.8840   25.0500  -30.3410 C   0  0  0  0  0  0  0  0  0  0  0  0
   -4.6270   24.5180  -30.6520 C   0  0  0  0  0  0  0  0  0  0  0  0
   -3.4900   25.2970  -30.4670 O   0  0  0  0  0  0  0  0  0  0  0  0
   -2.6321   22.3967  -30.5570 H   0  0  0  0  0  0  0  0  0  0  0  0
   -3.3071   21.7086  -32.0727 H   0  0  0  0  0  0  0  0  0  0  0  0
   -2.6004   23.3600  -32.0727 H   0  0  0  0  0  0  0  0  0  0  0  0
   -5.6122   21.4124  -31.7152 H   0  0  0  0  0  0  0  0  0  0  0  0
   -8.0224   24.7061  -30.2772 H   0  0  0  0  0  0  0  0  0  0  0  0
   -5.9639   26.0760  -29.9526 H   0  0  0  0  0  0  0  0  0  0  0  0
  1  2  1  0
  2  3  2  0
  3  4  1  0
  4  5  1  0
  4  6  2  0
  6  7  1  0
  7  8  2  0
  8  9  1  0
  8  2  1  0
  1 10  1  0
  1 11  1  0
  1 12  1  0
  3 13  1  0
  6 14  1  0
  7 15  1  0
M  CHG  1   9  -1
M  END
>  <UniqueID>  (10) 
9

>  <SMILES>  (10) 
Cc1cc(Br)ccc1[O-]

>  <Energy>  (10) 
13.242881844047739

>  <Genealogy>  (10) 
Cc1cc(Br)ccc1[O-] (protonated)
Cc1cc(Br)ccc1[O-] (3D coordinates assigned)
Cc1cc(Br)ccc1[O-] (optimized conformer: 13.242881844047739 kcal/mol)

>  <smiles>  (10) 
Cc1cc(Br)ccc1O

>  <score_type>  (10) 
oracle

>  <origin>  (10) 
adgpu

>  <m_score__min__energy>  (10) 
-8.2400000000000002

>  <m_primary>  (10) 
energy

$$$$
10:0
     RDKit          3D

 17 18  0  0  0  0  0  0  0  0999 V2000
   -7.9860   20.7180  -32.3350 C   0  0  0  0  0  0  0  0  0  0  0  0
   -6.6350   20.7780  -32.6860 C   0  0  0  0  0  0  0  0  0  0  0  0
   -5.8580   21.8750  -32.3020 C   0  0  0  0  0  0  0  0  0  0  0  0
   -6.4250   22.9270  -31.5590 C   0  0  0  0  0  0  0  0  0  0  0  0
   -5.5910   24.0830  -31.1580 C   0  0  0  0  0  0  0  0  0  0  0  0
   -6.0090   25.3150  -30.6970 C   0  0  0  0  0  0  0  0  0  0  0  0
   -4.9090   26.0490  -30.4580 N   0  0  0  0  0  0  0  0  0  0  0  0
   -3.8650   25.2920  -30.7600 N   0  0  0  0  0  0  0  0  0  0  0  0
   -4.2450   24.0970  -31.1860 N   0  0  0  0  0  0  0  0  0  0  0  0
   -7.7890   22.8550  -31.2100 C   0  0  0  0  0  0  0  0  0  0  0  0
   -8.5610   21.7550  -31.5980 C   0  0  0  0  0  0  0  0  0  0  0  0
   -8.5960   19.8546  -32.6390 H   0  0  0  0  0  0  0  0  0  0  0  0
   -6.1817   19.9604  -33.2657 H   0  0  0  0  0  0  0  0  0  0  0  0
   -4.7952   21.9161  -32.5828 H   0  0  0  0  0  0  0  0  0  0  0  0
   -7.0508   25.6368  -30.5519 H   0  0  0  0  0  0  0  0  0  0  0  0
   -8.2487   23.6683  -30.6294 H   0  0  0  0  0  0  0  0  0  0  0  0
   -9.6246   21.7068  -31.3216 H   0  0  0  0  0  0  0  0  0  0  0  0
  1  2  2  0
  2  3  1  0
  3  4  2  0
  4  5  1  0
  5  6  1  0
  6  7  2  0
  7  8  1  0
  8  9  1  0
  4 10  1  0
 10 11  2  0
 11  1  1  0
  9  5  2  0
  1 12  1  0
  2 13  1  0
  3 14  1  0
  6 15  1  0
 10 16  1  0
 11 17  1  0
M  CHG  1   8  -1
M  END
>  <UniqueID>  (11) 
10

>  <SMILES>  (11) 
c1ccc(-c2cn[n-]n2)cc1

>  <Energy>  (11) 
52.882663871149816

>  <Genealogy>  (11) 
c1ccc(-c2cn[n-]n2)cc1 (protonated)
c1ccc(-c2cn[n-]n2)cc1 (3D coordinates assigned)
c1ccc(-c2cn[n-]n2)cc1 (optimized conformer: 52.882663871149816 kcal/mol)

>  <smiles>  (11) 
c1ccc(-c2cn[nH]n2)cc1

>  <score_type>  (11) 
oracle

>  <origin>  (11) 
adgpu

>  <m_score__min__energy>  (11) 
-7.7800000000000002

>  <m_primary>  (11) 
energy

$$$$
11:0
     RDKit          3D

 28 30  0  0  0  0  0  0  0  0999 V2000
   -8.9560   18.5620  -31.5820 Cl  0  0  0  0  0  0  0  0  0  0  0  0
   -8.7550   20.3020  -31.6290 C   0  0  0  0  0  0  0  0  0  0  0  0
   -9.7390   21.1580  -32.0990 C   0  0  0  0  0  0  0  0  0  0  0  0
   -9.1420   22.7220  -31.9710 S   0  0  0  0  0  0  0  0  0  0  0  0
   -7.6550   22.2500  -31.3230 C   0  0  0  0  0  0  0  0  0  0  0  0
   -6.5240   23.1350  -30.9240 C   0  0  0  0  0  0  0  0  0  0  0  0
   -6.6910   23.9870  -29.8160 C   0  0  0  0  0  0  0  0  0  0  0  0
   -5.6610   24.8310  -29.4080 C   0  0  0  0  0  0  0  0  0  0  0  0
   -4.4610   24.8260  -30.1090 C   0  0  0  0  0  0  0  0  0  0  0  0
   -4.3040   24.0050  -31.1770 N   0  0  0  0  0  0  0  0  0  0  0  0
   -5.2830   23.1630  -31.6100 C   0  0  0  0  0  0  0  0  0  0  0  0
   -5.0820   22.3270  -32.7210 O   0  0  0  0  0  0  0  0  0  0  0  0
   -5.1590   20.9240  -32.8410 C   0  0  0  0  0  0  0  0  0  0  0  0
   -6.1290   20.4250  -33.7220 C   0  0  0  0  0  0  0  0  0  0  0  0
   -6.2880   19.0500  -33.9140 C   0  0  0  0  0  0  0  0  0  0  0  0
   -5.4750   18.1500  -33.2240 C   0  0  0  0  0  0  0  0  0  0  0  0
   -5.6900   16.2700  -33.4840 Br  0  0  0  0  0  0  0  0  0  0  0  0
   -4.5020   18.6280  -32.3420 C   0  0  0  0  0  0  0  0  0  0  0  0
   -4.3400   20.0040  -32.1480 C   0  0  0  0  0  0  0  0  0  0  0  0
   -7.6110   20.9020  -31.2040 N   0  0  0  0  0  0  0  0  0  0  0  0
  -10.7273   20.8667  -32.4842 H   0  0  0  0  0  0  0  0  0  0  0  0
   -7.6442   23.9862  -29.2671 H   0  0  0  0  0  0  0  0  0  0  0  0
   -5.7958   25.4941  -28.5407 H   0  0  0  0  0  0  0  0  0  0  0  0
   -3.6391   25.4875  -29.7978 H   0  0  0  0  0  0  0  0  0  0  0  0
   -6.7747   21.1266  -34.2704 H   0  0  0  0  0  0  0  0  0  0  0  0
   -7.0544   18.6770  -34.6094 H   0  0  0  0  0  0  0  0  0  0  0  0
   -3.8606   17.9191  -31.7978 H   0  0  0  0  0  0  0  0  0  0  0  0
   -3.5712   20.3717  -31.4525 H   0  0  0  0  0  0  0  0  0  0  0  0
  1  2  1  0
  2  3  2  0
  3  4  1  0
  4  5  1  0
  5  6  1  0
  6  7  2  0
  7  8  1  0
  8  9  2  0
  9 10  1  0
 10 11  2  0
 11 12  1  0
 12 13  1  0
 13 14  2  0
 14 15  1  0
 15 16  2  0
 16 17  1  0
 16 18  1  0
 18 19  2  0
  5 20  2  0
 20  2  1  0
 11  6  1  0
 19 13  1  0
  3 21  1  0
  7 22  1  0
  8 23  1  0
  9 24  1  0
 14 25  1  0
 15 26  1  0
 18 27  1  0
 19 28  1  0
M  END
>  <UniqueID>  (12) 
11

>  <SMILES>  (12) 
Clc1csc(-c2cccnc2Oc2ccc(Br)cc2)n1

>  <Energy>  (12) 
71.7033725544324

>  <Genealogy>  (12) 
Clc1csc(-c2cccnc2Oc2ccc(Br)cc2)n1 (3D coordinates assigned)
Clc1csc(-c2cccnc2Oc2ccc(Br)cc2)n1 (optimized conformer: 71.7033725544324 kcal/mol)

>  <smiles>  (12) 
Clc1csc(-c2cccnc2Oc2ccc(Br)cc2)n1

>  <score_type>  (12) 
oracle

>  <origin>  (12) 
adgpu

>  <m_score__min__energy>  (12) 
-7.9699999999999998

>  <m_primary>  (12) 
energy

$$$$
12:0
     RDKit          3D

 36 38  0  0  0  0  0  0  0  0999 V2000
   -6.4080   16.3580  -33.5620 C   0  0  0  0  0  0  0  0  0  0  0  0
   -6.1980   17.6100  -34.2030 O   0  0  0  0  0  0  0  0  0  0  0  0
   -6.1430   18.8470  -33.5400 C   0  0  0  0  0  0  0  0  0  0  0  0
   -5.0180   19.6870  -33.6200 C   0  0  0  0  0  0  0  0  0  0  0  0
   -4.9930   20.9120  -32.9410 C   0  0  0  0  0  0  0  0  0  0  0  0
   -6.1170   21.3390  -32.2080 C   0  0  0  0  0  0  0  0  0  0  0  0
   -7.2300   20.4820  -32.1090 C   0  0  0  0  0  0  0  0  0  0  0  0
   -7.2490   19.2420  -32.7770 C   0  0  0  0  0  0  0  0  0  0  0  0
   -8.3490   18.3720  -32.7030 O   0  0  0  0  0  0  0  0  0  0  0  0
   -9.1530   18.1800  -31.5430 C   0  0  0  0  0  0  0  0  0  0  0  0
   -6.0640   22.6600  -31.5090 C   0  0  0  0  0  0  0  0  0  0  0  0
   -7.2390   23.3350  -31.1250 C   0  0  0  0  0  0  0  0  0  0  0  0
   -7.1680   24.5510  -30.4480 C   0  0  0  0  0  0  0  0  0  0  0  0
   -5.9320   25.1050  -30.1280 C   0  0  0  0  0  0  0  0  0  0  0  0
   -4.7440   24.4670  -30.5080 C   0  0  0  0  0  0  0  0  0  0  0  0
   -3.4950   25.0440  -30.0990 N   0  0  0  0  0  0  0  0  0  0  0  0
   -4.8050   23.2640  -31.2580 C   0  0  0  0  0  0  0  0  0  0  0  0
   -3.5470   22.5780  -31.7530 C   0  0  0  0  0  0  0  0  0  0  0  0
   -3.7940   21.8130  -33.0590 C   0  0  0  0  0  0  0  0  0  0  0  0
   -6.3848   16.4962  -32.4710 H   0  0  0  0  0  0  0  0  0  0  0  0
   -7.3866   15.9533  -33.8596 H   0  0  0  0  0  0  0  0  0  0  0  0
   -5.6150   15.6561  -33.8596 H   0  0  0  0  0  0  0  0  0  0  0  0
   -4.1498   19.3793  -34.2212 H   0  0  0  0  0  0  0  0  0  0  0  0
   -8.0960   20.7849  -31.5020 H   0  0  0  0  0  0  0  0  0  0  0  0
   -8.5385   18.3268  -30.6425 H   0  0  0  0  0  0  0  0  0  0  0  0
   -9.9793   18.9061  -31.5453 H   0  0  0  0  0  0  0  0  0  0  0  0
   -9.5621   17.1589  -31.5453 H   0  0  0  0  0  0  0  0  0  0  0  0
   -8.2207   22.8988  -31.3614 H   0  0  0  0  0  0  0  0  0  0  0  0
   -8.0928   25.0752  -30.1653 H   0  0  0  0  0  0  0  0  0  0  0  0
   -5.8875   26.0528  -29.5715 H   0  0  0  0  0  0  0  0  0  0  0  0
   -3.1330   24.9560  -29.1260 H   0  0  0  0  0  0  0  0  0  0  0  0
   -2.9680   25.6720  -30.7450 H   0  0  0  0  0  0  0  0  0  0  0  0
   -2.7712   23.3383  -31.9266 H   0  0  0  0  0  0  0  0  0  0  0  0
   -3.2269   21.8554  -30.9878 H   0  0  0  0  0  0  0  0  0  0  0  0
   -3.9657   22.5348  -33.8711 H   0  0  0  0  0  0  0  0  0  0  0  0
   -2.9109   21.1929  -33.2728 H   0  0  0  0  0  0  0  0  0  0  0  0
  1  2  1  0
  2  3  1  0
  3  4  2  0
  4  5  1  0
  5  6  2  0
  6  7  1  0
  7  8  2  0
  8  9  1  0
  9 10  1  0
  6 11  1  0
 11 12  2  0
 12 13  1  0
 13 14  2  0
 14 15  1  0
 15 16  1  0
 15 17  2  0
 17 18  1  0
 18 19  1  0
  8  3  1  0
 17 11  1  0
 19  5  1  0
  1 20  1  0
  1 21  1  0
  1 22  1  0
  4 23  1  0
  7 24  1  0
 10 25  1  0
 10 26  1  0
 10 27  1  0
 12 28  1  0
 13 29  1  0
 14 30  1  0
 16 31  1  0
 16 32  1  0
 18 33  1  0
 18 34  1  0
 19 35  1  0
 19 36  1  0
M  END
>  <UniqueID>  (13) 
12

>  <SMILES>  (13) 
COc1cc2c(cc1OC)-c1cccc(N)c1CC2

>  <Energy>  (13) 
45.1195328003588

>  <Genealogy>  (13) 
COc1cc2c(cc1OC)-c1cccc(N)c1CC2 (3D coordinates assigned)
COc1cc2c(cc1OC)-c1cccc(N)c1CC2 (nonaromatic ring conformer: 45.1195328003588 kcal/mol)

>  <smiles>  (13) 
COc1cc2c(cc1OC)-c1cccc(N)c1CC2

>  <score_type>  (13) 
oracle

>  <origin>  (13) 
adgpu

>  <m_score__min__energy>  (13) 
-7.6399999999999997

>  <m_primary>  (13) 
energy

$$$$
13:0
     RDKit          3D

 34 36  0  0  0  0  0  0  0  0999 V2000
   -0.2136   26.8642  -24.7032 H   0  0  0  0  0  0  0  0  0  0  0  0
   -0.7170   26.4130  -25.5710 C   0  0  0  0  0  0  0  0  0  0  0  0
   -1.9750   25.8270  -25.4220 C   0  0  0  0  0  0  0  0  0  0  0  0
   -2.4634   25.8190  -24.4364 H   0  0  0  0  0  0  0  0  0  0  0  0
   -2.6160   25.2500  -26.5230 C   0  0  0  0  0  0  0  0  0  0  0  0
   -3.6071   24.7894  -26.3978 H   0  0  0  0  0  0  0  0  0  0  0  0
   -2.0030   25.2540  -27.7900 C   0  0  0  0  0  0  0  0  0  0  0  0
   -2.6800   24.6450  -28.9620 C   0  0  0  0  0  0  0  0  0  0  0  0
   -2.5750   23.3270  -29.3780 C   0  0  0  0  0  0  0  0  0  0  0  0
   -1.9839   22.5172  -28.9254 H   0  0  0  0  0  0  0  0  0  0  0  0
   -3.3850   23.2690  -30.4920 C   0  0  0  0  0  0  0  0  0  0  0  0
   -3.5730   22.1990  -31.2060 N   0  0  0  0  0  0  0  0  0  0  0  0
   -4.4070   22.0950  -32.3720 C   0  0  0  0  0  0  0  0  0  0  0  0
   -3.8970   22.1070  -33.5260 O   0  0  0  0  0  0  0  0  0  0  0  0
   -5.8770   21.9690  -32.2200 C   0  0  0  0  0  0  0  0  0  0  0  0
   -6.6460   23.0600  -31.7730 C   0  0  0  0  0  0  0  0  0  0  0  0
   -6.1532   24.0139  -31.5338 H   0  0  0  0  0  0  0  0  0  0  0  0
   -8.0310   22.9400  -31.6310 C   0  0  0  0  0  0  0  0  0  0  0  0
   -8.6224   23.7989  -31.2808 H   0  0  0  0  0  0  0  0  0  0  0  0
   -8.6670   21.7340  -31.9320 C   0  0  0  0  0  0  0  0  0  0  0  0
  -10.0130   21.6380  -31.7890 F   0  0  0  0  0  0  0  0  0  0  0  0
   -7.9180   20.6360  -32.3810 C   0  0  0  0  0  0  0  0  0  0  0  0
   -8.5620   19.3970  -32.6920 N   0  0  0  0  0  0  0  0  0  0  0  0
   -8.9800   19.2260  -33.6340 H   0  0  0  0  0  0  0  0  0  0  0  0
   -8.6260   18.6350  -31.9800 H   0  0  0  0  0  0  0  0  0  0  0  0
   -6.5280   20.7580  -32.5220 C   0  0  0  0  0  0  0  0  0  0  0  0
   -5.9396   19.8973  -32.8727 H   0  0  0  0  0  0  0  0  0  0  0  0
   -3.9490   24.4680  -30.7350 N   0  0  0  0  0  0  0  0  0  0  0  0
   -3.5130   25.2990  -29.8010 N   0  0  0  0  0  0  0  0  0  0  0  0
   -3.8100   26.2970  -29.7400 H   0  0  0  0  0  0  0  0  0  0  0  0
   -0.7350   25.8520  -27.9270 C   0  0  0  0  0  0  0  0  0  0  0  0
   -0.2423   25.8674  -28.9103 H   0  0  0  0  0  0  0  0  0  0  0  0
   -0.0980   26.4260  -26.8230 C   0  0  0  0  0  0  0  0  0  0  0  0
    0.8929   26.8889  -26.9405 H   0  0  0  0  0  0  0  0  0  0  0  0
  1  2  1  0
  2  3  2  0
  3  4  1  0
  3  5  1  0
  5  6  1  0
  5  7  2  0
  7  8  1  0
  8  9  2  0
  9 10  1  0
  9 11  1  0
 11 12  2  0
 12 13  1  0
 13 14  2  0
 13 15  1  0
 15 16  2  0
 16 17  1  0
 16 18  1  0
 18 19  1  0
 18 20  2  0
 20 21  1  0
 20 22  1  0
 22 23  1  0
 23 24  1  0
 23 25  1  0
 22 26  2  0
 26 27  1  0
 11 28  1  0
 28 29  1  0
 29 30  1  0
  7 31  1  0
 31 32  1  0
 31 33  2  0
 33 34  1  0
 33  2  1  0
 29  8  1  0
 26 15  1  0
M  CHG  1  28  -1
M  END
>  <UniqueID>  (14) 
13

>  <SMILES>  (14) 
Nc1cc(C(=O)/N=c2/cc(-c3ccccc3)[nH][n-]2)ccc1F

>  <Energy>  (14) 
72.07219714602346

>  <Genealogy>  (14) 
Nc1cc(C(=O)N=c2cc(-c3ccccc3)[nH][n-]2)ccc1F (protonated)
Nc1cc(C(=O)/N=c2/cc(-c3ccccc3)[nH][n-]2)ccc1F (cis-trans isomerization)
Nc1cc(C(=O)/N=c2/cc(-c3ccccc3)[nH][n-]2)ccc1F (3D coordinates assigned)
Nc1cc(C(=O)/N=c2/cc(-c3ccccc3)[nH][n-]2)ccc1F (optimized conformer: 72.07219714602346 kcal/mol)

>  <smiles>  (14) 
Nc1cc(C(=O)N=c2cc(-c3ccccc3)[nH][nH]2)ccc1F

>  <score_type>  (14) 
oracle

>  <origin>  (14) 
adgpu

>  <m_score__min__energy>  (14) 
-9.25

>  <m_primary>  (14) 
energy

$$$$
14:0
     RDKit          3D

 26 28  0  0  0  0  0  0  0  0999 V2000
   -9.4560   21.7660  -31.5900 C   0  0  0  0  0  0  0  0  0  0  0  0
   -7.9990   21.6550  -31.9080 C   0  0  0  0  0  0  0  0  0  0  0  0
   -7.3230   20.3760  -32.7910 S   0  0  0  0  0  0  0  0  0  0  0  0
   -5.7600   20.9710  -32.7040 C   0  0  0  0  0  0  0  0  0  0  0  0
   -4.6490   20.4100  -33.2310 N   0  0  0  0  0  0  0  0  0  0  0  0
   -3.4540   21.0440  -33.0570 C   0  0  0  0  0  0  0  0  0  0  0  0
   -2.2200   20.4640  -33.6170 C   0  0  0  0  0  0  0  0  0  0  0  0
   -1.0470   21.2080  -33.8270 C   0  0  0  0  0  0  0  0  0  0  0  0
   -0.0060   20.4640  -34.3630 C   0  0  0  0  0  0  0  0  0  0  0  0
   -0.5440   18.8880  -34.5750 S   0  0  0  0  0  0  0  0  0  0  0  0
   -2.1010   19.1280  -33.9900 C   0  0  0  0  0  0  0  0  0  0  0  0
   -3.3980   22.1950  -32.3770 O   0  0  0  0  0  0  0  0  0  0  0  0
   -4.4770   22.7710  -31.8450 C   0  0  0  0  0  0  0  0  0  0  0  0
   -4.3550   23.8550  -31.2170 O   0  0  0  0  0  0  0  0  0  0  0  0
   -5.7230   22.1550  -32.0000 C   0  0  0  0  0  0  0  0  0  0  0  0
   -6.9920   22.5630  -31.5370 C   0  0  0  0  0  0  0  0  0  0  0  0
   -7.2360   23.8160  -30.7440 C   0  0  0  0  0  0  0  0  0  0  0  0
   -9.5933   21.7765  -30.4987 H   0  0  0  0  0  0  0  0  0  0  0  0
   -9.8550   22.6971  -32.0187 H   0  0  0  0  0  0  0  0  0  0  0  0
   -9.9914   20.9060  -32.0187 H   0  0  0  0  0  0  0  0  0  0  0  0
   -0.9621   22.2786  -33.5891 H   0  0  0  0  0  0  0  0  0  0  0  0
    0.9981   20.8414  -34.6069 H   0  0  0  0  0  0  0  0  0  0  0  0
   -2.8883   18.3634  -33.9149 H   0  0  0  0  0  0  0  0  0  0  0  0
   -7.1909   23.5845  -29.6696 H   0  0  0  0  0  0  0  0  0  0  0  0
   -6.4663   24.5620  -30.9910 H   0  0  0  0  0  0  0  0  0  0  0  0
   -8.2294   24.2186  -30.9910 H   0  0  0  0  0  0  0  0  0  0  0  0
  1  2  1  0
  2  3  1  0
  3  4  1  0
  4  5  1  0
  5  6  2  0
  6  7  1  0
  7  8  1  0
  8  9  2  0
  9 10  1  0
 10 11  1  0
  6 12  1  0
 12 13  1  0
 13 14  2  0
 13 15  1  0
 15 16  1  0
 16 17  1  0
 16  2  2  0
 15  4  2  0
 11  7  2  0
  1 18  1  0
  1 19  1  0
  1 20  1  0
  8 21  1  0
  9 22  1  0
 11 23  1  0
 17 24  1  0
 17 25  1  0
 17 26  1  0
M  END
>  <UniqueID>  (15) 
14

>  <SMILES>  (15) 
Cc1sc2nc(-c3ccsc3)oc(=O)c2c1C

>  <Energy>  (15) 
87.97839261913643

>  <Genealogy>  (15) 
Cc1sc2nc(-c3ccsc3)oc(=O)c2c1C (3D coordinates assigned)
Cc1sc2nc(-c3ccsc3)oc(=O)c2c1C (optimized conformer: 87.97839261913643 kcal/mol)

>  <smiles>  (15) 
Cc1sc2nc(-c3ccsc3)oc(=O)c2c1C

>  <score_type>  (15) 
oracle

>  <origin>  (15) 
adgpu

>  <m_score__min__energy>  (15) 
-6.5099999999999998

>  <m_primary>  (15) 
energy

$$$$
15:0
     RDKit          3D

 31 33  0  0  0  0  0  0  0  0999 V2000
   -2.9100   20.9030  -27.4890 C   0  0  0  0  0  0  0  0  0  0  0  0
   -2.6020   22.3260  -27.8490 C   0  0  0  0  0  0  0  0  0  0  0  0
   -1.6550   23.0540  -27.1120 C   0  0  0  0  0  0  0  0  0  0  0  0
   -1.3520   24.3710  -27.4660 C   0  0  0  0  0  0  0  0  0  0  0  0
   -1.9700   24.9610  -28.5710 C   0  0  0  0  0  0  0  0  0  0  0  0
   -2.8830   24.2340  -29.3430 C   0  0  0  0  0  0  0  0  0  0  0  0
   -3.4890   24.8700  -30.4790 N   0  0  0  0  0  0  0  0  0  0  0  0
   -4.8940   24.9900  -30.7330 C   0  0  0  0  0  0  0  0  0  0  0  0
   -5.4300   26.1260  -30.6550 O   0  0  0  0  0  0  0  0  0  0  0  0
   -5.7300   23.8310  -31.0970 C   0  0  0  0  0  0  0  0  0  0  0  0
   -7.4060   23.7760  -30.8670 S   0  0  0  0  0  0  0  0  0  0  0  0
   -7.5970   22.2300  -31.4850 C   0  0  0  0  0  0  0  0  0  0  0  0
   -8.7730   21.4960  -31.6140 C   0  0  0  0  0  0  0  0  0  0  0  0
   -8.6960   20.2140  -32.1770 C   0  0  0  0  0  0  0  0  0  0  0  0
   -7.4570   19.6960  -32.6010 C   0  0  0  0  0  0  0  0  0  0  0  0
   -6.2830   20.4570  -32.4620 C   0  0  0  0  0  0  0  0  0  0  0  0
   -6.3660   21.7340  -31.8950 C   0  0  0  0  0  0  0  0  0  0  0  0
   -5.3070   22.6320  -31.6860 C   0  0  0  0  0  0  0  0  0  0  0  0
   -3.6590   22.3150  -32.2180 Cl  0  0  0  0  0  0  0  0  0  0  0  0
   -3.2100   22.9180  -28.9670 C   0  0  0  0  0  0  0  0  0  0  0  0
   -2.9326   20.7984  -26.3942 H   0  0  0  0  0  0  0  0  0  0  0  0
   -3.8894   20.6235  -27.9044 H   0  0  0  0  0  0  0  0  0  0  0  0
   -2.1338   20.2435  -27.9044 H   0  0  0  0  0  0  0  0  0  0  0  0
   -1.1503   22.5865  -26.2537 H   0  0  0  0  0  0  0  0  0  0  0  0
   -0.6248   24.9449  -26.8729 H   0  0  0  0  0  0  0  0  0  0  0  0
   -1.7377   26.0031  -28.8358 H   0  0  0  0  0  0  0  0  0  0  0  0
   -9.7367   21.9106  -31.2832 H   0  0  0  0  0  0  0  0  0  0  0  0
   -9.6084   19.6097  -32.2881 H   0  0  0  0  0  0  0  0  0  0  0  0
   -7.4074   18.6902  -33.0435 H   0  0  0  0  0  0  0  0  0  0  0  0
   -5.3143   20.0550  -32.7937 H   0  0  0  0  0  0  0  0  0  0  0  0
   -3.9470   22.3495  -29.5532 H   0  0  0  0  0  0  0  0  0  0  0  0
  1  2  1  0
  2  3  2  0
  3  4  1  0
  4  5  2  0
  5  6  1  0
  6  7  1  0
  7  8  1  0
  8  9  2  0
  8 10  1  0
 10 11  1  0
 11 12  1  0
 12 13  2  0
 13 14  1  0
 14 15  2  0
 15 16  1  0
 16 17  2  0
 17 18  1  0
 18 19  1  0
  6 20  2  0
 20  2  1  0
 18 10  2  0
 17 12  1  0
  1 21  1  0
  1 22  1  0
  1 23  1  0
  3 24  1  0
  4 25  1  0
  5 26  1  0
 13 27  1  0
 14 28  1  0
 15 29  1  0
 16 30  1  0
 20 31  1  0
M  CHG  1   7  -1
M  END
>  <UniqueID>  (16) 
15

>  <SMILES>  (16) 
Cc1cccc([N-]C(=O)c2sc3ccccc3c2Cl)c1

>  <Energy>  (16) 
71.01722769679236

>  <Genealogy>  (16) 
Cc1cccc([N-]C(=O)c2sc3ccccc3c2Cl)c1 (protonated)
Cc1cccc([N-]C(=O)c2sc3ccccc3c2Cl)c1 (3D coordinates assigned)
Cc1cccc([N-]C(=O)c2sc3ccccc3c2Cl)c1 (optimized conformer: 71.01722769679236 kcal/mol)

>  <smiles>  (16) 
Cc1cccc(NC(=O)c2sc3ccccc3c2Cl)c1

>  <score_type>  (16) 
oracle

>  <origin>  (16) 
adgpu

>  <m_score__min__energy>  (16) 
-9.9700000000000006

>  <m_primary>  (16) 
energy

$$$$
16:0
     RDKit          3D

 32 33  0  0  0  0  0  0  0  0999 V2000
   -2.2430   24.6720  -28.1830 C   0  0  0  0  0  0  0  0  0  0  0  0
   -2.8090   25.2640  -29.3490 O   0  0  0  0  0  0  0  0  0  0  0  0
   -3.8680   24.7120  -30.0860 C   0  0  0  0  0  0  0  0  0  0  0  0
   -5.1320   25.3280  -30.1540 C   0  0  0  0  0  0  0  0  0  0  0  0
   -6.1580   24.7520  -30.9040 C   0  0  0  0  0  0  0  0  0  0  0  0
   -5.9490   23.5550  -31.6010 C   0  0  0  0  0  0  0  0  0  0  0  0
   -7.0260   22.9980  -32.3760 N   0  0  0  0  0  0  0  0  0  0  0  0
   -8.2250   21.9190  -31.7330 S   0  0  0  0  0  0  0  0  0  0  0  0
   -8.2950   22.0890  -30.2410 O   0  0  0  0  0  0  0  0  0  0  0  0
   -9.5650   22.2490  -32.3290 O   0  0  0  0  0  0  0  0  0  0  0  0
   -7.8190   20.2620  -32.1380 C   0  0  0  0  0  0  0  0  0  0  0  0
   -8.4780   19.1350  -31.6760 C   0  0  0  0  0  0  0  0  0  0  0  0
   -7.9650   17.9460  -32.2090 C   0  0  0  0  0  0  0  0  0  0  0  0
   -6.9080   18.1420  -33.0890 C   0  0  0  0  0  0  0  0  0  0  0  0
   -6.6120   19.7950  -33.2080 S   0  0  0  0  0  0  0  0  0  0  0  0
   -4.6930   22.9290  -31.5170 C   0  0  0  0  0  0  0  0  0  0  0  0
   -3.6470   23.5090  -30.7720 C   0  0  0  0  0  0  0  0  0  0  0  0
   -2.3750   22.9190  -30.6930 O   0  0  0  0  0  0  0  0  0  0  0  0
   -2.0600   21.6120  -31.1630 C   0  0  0  0  0  0  0  0  0  0  0  0
   -2.6838   25.1331  -27.2868 H   0  0  0  0  0  0  0  0  0  0  0  0
   -2.4533   23.5923  -28.1810 H   0  0  0  0  0  0  0  0  0  0  0  0
   -1.1549   24.8336  -28.1810 H   0  0  0  0  0  0  0  0  0  0  0  0
   -5.3118   26.2687  -29.6129 H   0  0  0  0  0  0  0  0  0  0  0  0
   -7.1413   25.2430  -30.9484 H   0  0  0  0  0  0  0  0  0  0  0  0
   -7.0500   23.1680  -33.4070 H   0  0  0  0  0  0  0  0  0  0  0  0
   -9.3165   19.1701  -30.9649 H   0  0  0  0  0  0  0  0  0  0  0  0
   -8.3611   16.9517  -31.9551 H   0  0  0  0  0  0  0  0  0  0  0  0
   -6.3574   17.3506  -33.6187 H   0  0  0  0  0  0  0  0  0  0  0  0
   -4.5249   21.9754  -32.0389 H   0  0  0  0  0  0  0  0  0  0  0  0
   -1.8987   20.9428  -30.3050 H   0  0  0  0  0  0  0  0  0  0  0  0
   -2.8921   21.2314  -31.7735 H   0  0  0  0  0  0  0  0  0  0  0  0
   -1.1459   21.6523  -31.7735 H   0  0  0  0  0  0  0  0  0  0  0  0
  1  2  1  0
  2  3  1  0
  3  4  2  0
  4  5  1  0
  5  6  2  0
  6  7  1  0
  7  8  1  0
  8  9  2  0
  8 10  2  0
  8 11  1  0
 11 12  2  0
 12 13  1  0
 13 14  2  0
 14 15  1  0
  6 16  1  0
 16 17  2  0
 17 18  1  0
 18 19  1  0
 17  3  1  0
 15 11  1  0
  1 20  1  0
  1 21  1  0
  1 22  1  0
  4 23  1  0
  5 24  1  0
  7 25  1  0
 12 26  1  0
 13 27  1  0
 14 28  1  0
 16 29  1  0
 19 30  1  0
 19 31  1  0
 19 32  1  0
M  END
>  <UniqueID>  (17) 
16

>  <SMILES>  (17) 
COc1ccc(NS(=O)(=O)c2cccs2)cc1OC

>  <Energy>  (17) 
59.22127612616713

>  <Genealogy>  (17) 
COc1ccc(NS(=O)(=O)c2cccs2)cc1OC (3D coordinates assigned)
COc1ccc(NS(=O)(=O)c2cccs2)cc1OC (optimized conformer: 59.22127612616713 kcal/mol)

>  <smiles>  (17) 
COc1ccc(NS(=O)(=O)c2cccs2)cc1OC

>  <score_type>  (17) 
oracle

>  <origin>  (17) 
adgpu

>  <m_score__min__energy>  (17) 
-7.5099999999999998

>  <m_primary>  (17) 
energy

$$$$
17:0
     RDKit          3D

 29 31  0  0  0  0  0  0  0  0999 V2000
   -0.4310   20.2280  -30.9190 F   0  0  0  0  0  0  0  0  0  0  0  0
   -1.4830   20.7760  -31.5770 C   0  0  0  0  0  0  0  0  0  0  0  0
   -1.8140   20.3290  -32.8580 C   0  0  0  0  0  0  0  0  0  0  0  0
   -2.8870   20.9060  -33.5430 C   0  0  0  0  0  0  0  0  0  0  0  0
   -3.6360   21.9240  -32.9430 C   0  0  0  0  0  0  0  0  0  0  0  0
   -3.3230   22.3650  -31.6470 C   0  0  0  0  0  0  0  0  0  0  0  0
   -4.1180   23.4500  -31.0290 C   0  0  0  0  0  0  0  0  0  0  0  0
   -3.5710   24.6190  -30.6280 N   0  0  0  0  0  0  0  0  0  0  0  0
   -4.5560   25.3330  -30.1080 N   0  0  0  0  0  0  0  0  0  0  0  0
   -5.6840   24.6120  -30.1970 C   0  0  0  0  0  0  0  0  0  0  0  0
   -7.1610   25.1880  -29.7760 S   0  0  0  0  0  0  0  0  0  0  0  0
   -5.4510   23.4140  -30.7760 N   0  0  0  0  0  0  0  0  0  0  0  0
   -6.4170   22.4290  -31.1810 C   0  0  0  0  0  0  0  0  0  0  0  0
   -7.7150   22.8180  -31.5490 C   0  0  0  0  0  0  0  0  0  0  0  0
   -8.6500   21.8600  -31.9550 C   0  0  0  0  0  0  0  0  0  0  0  0
   -8.2950   20.5070  -31.9950 C   0  0  0  0  0  0  0  0  0  0  0  0
   -9.4670   19.3070  -32.5050 Cl  0  0  0  0  0  0  0  0  0  0  0  0
   -7.0040   20.1130  -31.6270 C   0  0  0  0  0  0  0  0  0  0  0  0
   -6.0680   21.0690  -31.2220 C   0  0  0  0  0  0  0  0  0  0  0  0
   -2.2270   21.7950  -30.9750 C   0  0  0  0  0  0  0  0  0  0  0  0
   -1.2306   19.5233  -33.3276 H   0  0  0  0  0  0  0  0  0  0  0  0
   -3.1429   20.5593  -34.5551 H   0  0  0  0  0  0  0  0  0  0  0  0
   -4.4743   22.3812  -33.4891 H   0  0  0  0  0  0  0  0  0  0  0  0
   -4.4520   26.3000  -29.7260 H   0  0  0  0  0  0  0  0  0  0  0  0
   -7.9978   23.8806  -31.5179 H   0  0  0  0  0  0  0  0  0  0  0  0
   -9.6652   22.1705  -32.2431 H   0  0  0  0  0  0  0  0  0  0  0  0
   -6.7251   19.0494  -31.6564 H   0  0  0  0  0  0  0  0  0  0  0  0
   -5.0538   20.7549  -30.9342 H   0  0  0  0  0  0  0  0  0  0  0  0
   -1.9539   22.1526  -29.9712 H   0  0  0  0  0  0  0  0  0  0  0  0
  1  2  1  0
  2  3  2  0
  3  4  1  0
  4  5  2  0
  5  6  1  0
  6  7  1  0
  7  8  2  0
  8  9  1  0
  9 10  1  0
 10 11  2  0
 10 12  1  0
 12 13  1  0
 13 14  2  0
 14 15  1  0
 15 16  2  0
 16 17  1  0
 16 18  1  0
 18 19  2  0
  6 20  2  0
 20  2  1  0
 12  7  1  0
 19 13  1  0
  3 21  1  0
  4 22  1  0
  5 23  1  0
  9 24  1  0
 14 25  1  0
 15 26  1  0
 18 27  1  0
 19 28  1  0
 20 29  1  0
M  END
>  <UniqueID>  (18) 
17

>  <SMILES>  (18) 
Fc1cccc(-c2n[nH]c(=S)n2-c2ccc(Cl)cc2)c1

>  <Energy>  (18) 
77.97844232899817

>  <Genealogy>  (18) 
Fc1cccc(-c2n[nH]c(=S)n2-c2ccc(Cl)cc2)c1 (3D coordinates assigned)
Fc1cccc(-c2n[nH]c(=S)n2-c2ccc(Cl)cc2)c1 (optimized conformer: 77.97844232899817 kcal/mol)

>  <smiles>  (18) 
Fc1cccc(-c2n[nH]c(=S)n2-c2ccc(Cl)cc2)c1

>  <score_type>  (18) 
oracle

>  <origin>  (18) 
adgpu

>  <m_score__min__energy>  (18) 
-7.71

>  <m_primary>  (18) 
energy

$$$$
18:0
     RDKit          3D

 49 51  0  0  0  0  0  0  0  0999 V2000
   -0.3380   23.7890  -25.5440 C   0  0  0  0  0  0  0  0  0  0  0  0
   -0.5790   22.2910  -25.4420 C   0  0  0  0  0  0  0  0  0  0  0  0
   -1.3580   21.8600  -26.5550 O   0  0  0  0  0  0  0  0  0  0  0  0
   -1.9370   22.7210  -27.4970 C   0  0  0  0  0  0  0  0  0  0  0  0
   -1.2520   22.9490  -28.6970 C   0  0  0  0  0  0  0  0  0  0  0  0
   -1.7970   23.7830  -29.6760 C   0  0  0  0  0  0  0  0  0  0  0  0
   -3.0440   24.3910  -29.4730 C   0  0  0  0  0  0  0  0  0  0  0  0
   -3.6160   25.2550  -30.4610 N   0  0  0  0  0  0  0  0  0  0  0  0
   -5.0110   25.3300  -30.7820 C   0  0  0  0  0  0  0  0  0  0  0  0
   -5.6580   26.3590  -30.4530 O   0  0  0  0  0  0  0  0  0  0  0  0
   -5.7390   24.1750  -31.4050 C   0  0  0  0  0  0  0  0  0  0  0  0
   -5.9710   22.8610  -30.1570 S   0  0  0  0  0  0  0  0  0  0  0  0
   -6.3490   21.5740  -31.3590 C   0  0  0  0  0  0  0  0  0  0  0  0
   -7.6510   21.2020  -31.4580 N   0  0  0  0  0  0  0  0  0  0  0  0
   -8.0540   20.2400  -32.3220 C   0  0  0  0  0  0  0  0  0  0  0  0
   -9.4890   19.8410  -32.3810 C   0  0  0  0  0  0  0  0  0  0  0  0
   -7.1400   19.6070  -33.0950 N   0  0  0  0  0  0  0  0  0  0  0  0
   -5.8160   19.9270  -33.0550 C   0  0  0  0  0  0  0  0  0  0  0  0
   -5.3740   20.9380  -32.1750 C   0  0  0  0  0  0  0  0  0  0  0  0
   -3.9960   21.2390  -32.1600 C   0  0  0  0  0  0  0  0  0  0  0  0
   -3.5560   22.1730  -31.4350 O   0  0  0  0  0  0  0  0  0  0  0  0
   -3.1240   20.5210  -32.9360 N   0  0  0  0  0  0  0  0  0  0  0  0
   -1.6840   20.8400  -32.9050 C   0  0  0  0  0  0  0  0  0  0  0  0
   -3.5900   19.5580  -33.7950 C   0  0  0  0  0  0  0  0  0  0  0  0
   -2.7740   18.9270  -34.5260 O   0  0  0  0  0  0  0  0  0  0  0  0
   -4.9290   19.2760  -33.8710 N   0  0  0  0  0  0  0  0  0  0  0  0
   -5.4130   18.2180  -34.7790 C   0  0  0  0  0  0  0  0  0  0  0  0
   -3.7150   24.1980  -28.2600 C   0  0  0  0  0  0  0  0  0  0  0  0
   -3.1740   23.3590  -27.2810 C   0  0  0  0  0  0  0  0  0  0  0  0
   -0.2688   24.2189  -24.5338 H   0  0  0  0  0  0  0  0  0  0  0  0
    0.6013   23.9732  -26.0860 H   0  0  0  0  0  0  0  0  0  0  0  0
   -1.1722   24.2585  -26.0860 H   0  0  0  0  0  0  0  0  0  0  0  0
    0.3861   21.7631  -25.4431 H   0  0  0  0  0  0  0  0  0  0  0  0
   -1.1168   22.0681  -24.5087 H   0  0  0  0  0  0  0  0  0  0  0  0
   -0.2780   22.4679  -28.8698 H   0  0  0  0  0  0  0  0  0  0  0  0
   -1.2454   23.9636  -30.6104 H   0  0  0  0  0  0  0  0  0  0  0  0
   -6.7204   24.5129  -31.7691 H   0  0  0  0  0  0  0  0  0  0  0  0
   -5.1520   23.7819  -32.2482 H   0  0  0  0  0  0  0  0  0  0  0  0
   -9.8815   19.7319  -31.3592 H   0  0  0  0  0  0  0  0  0  0  0  0
  -10.0628   20.6137  -32.9137 H   0  0  0  0  0  0  0  0  0  0  0  0
   -9.5816   18.8830  -32.9137 H   0  0  0  0  0  0  0  0  0  0  0  0
   -1.3474   20.9146  -31.8604 H   0  0  0  0  0  0  0  0  0  0  0  0
   -1.1212   20.0448  -33.4157 H   0  0  0  0  0  0  0  0  0  0  0  0
   -1.5097   21.7985  -33.4157 H   0  0  0  0  0  0  0  0  0  0  0  0
   -5.7987   17.3749  -34.1870 H   0  0  0  0  0  0  0  0  0  0  0  0
   -6.2173   18.6189  -35.4134 H   0  0  0  0  0  0  0  0  0  0  0  0
   -4.5838   17.8716  -35.4134 H   0  0  0  0  0  0  0  0  0  0  0  0
   -4.6719   24.7084  -28.0761 H   0  0  0  0  0  0  0  0  0  0  0  0
   -3.7168   23.1965  -26.3381 H   0  0  0  0  0  0  0  0  0  0  0  0
  1  2  1  0
  2  3  1  0
  3  4  1  0
  4  5  2  0
  5  6  1  0
  6  7  2  0
  7  8  1  0
  8  9  1  0
  9 10  2  0
  9 11  1  0
 11 12  1  0
 12 13  1  0
 13 14  2  0
 14 15  1  0
 15 16  1  0
 15 17  2  0
 17 18  1  0
 18 19  2  0
 19 20  1  0
 20 21  2  0
 20 22  1  0
 22 23  1  0
 22 24  1  0
 24 25  2  0
 24 26  1  0
 26 27  1  0
  7 28  1  0
 28 29  2  0
 29  4  1  0
 19 13  1  0
 26 18  1  0
  1 30  1  0
  1 31  1  0
  1 32  1  0
  2 33  1  0
  2 34  1  0
  5 35  1  0
  6 36  1  0
 11 37  1  0
 11 38  1  0
 16 39  1  0
 16 40  1  0
 16 41  1  0
 23 42  1  0
 23 43  1  0
 23 44  1  0
 27 45  1  0
 27 46  1  0
 27 47  1  0
 28 48  1  0
 29 49  1  0
M  CHG  1   8  -1
M  END
>  <UniqueID>  (19) 
18

>  <SMILES>  (19) 
CCOc1ccc([N-]C(=O)CSc2nc(C)nc3c2c(=O)n(C)c(=O)n3C)cc1

>  <Energy>  (19) 
60.726987264290486

>  <Genealogy>  (19) 
CCOc1ccc([N-]C(=O)CSc2nc(C)nc3c2c(=O)n(C)c(=O)n3C)cc1 (protonated)
CCOc1ccc([N-]C(=O)CSc2nc(C)nc3c2c(=O)n(C)c(=O)n3C)cc1 (3D coordinates assigned)
CCOc1ccc([N-]C(=O)CSc2nc(C)nc3c2c(=O)n(C)c(=O)n3C)cc1 (optimized conformer: 60.726987264290486 kcal/mol)

>  <smiles>  (19) 
CCOc1ccc(NC(=O)CSc2nc(C)nc3c2c(=O)n(C)c(=O)n3C)cc1

>  <score_type>  (19) 
oracle

>  <origin>  (19) 
adgpu

>  <m_score__min__energy>  (19) 
-10.4

>  <m_primary>  (19) 
energy

$$$$
19:0
     RDKit          3D

 46 49  0  0  1  0  0  0  0  0999 V2000
   -5.0640   23.4460  -29.1280 C   0  0  0  0  0  0  0  0  0  0  0  0
   -5.3190   24.4760  -30.5370 S   0  0  0  0  0  0  0  0  0  0  0  0
   -6.3080   25.5420  -30.1890 O   0  0  0  0  0  0  0  0  0  0  0  0
   -4.0100   25.1910  -30.8400 O   0  0  0  0  0  0  0  0  0  0  0  0
   -5.8600   23.6260  -31.9220 N   0  0  0  0  0  0  0  0  0  0  0  0
   -7.0640   22.8790  -31.9530 C   0  0  0  0  0  0  0  0  0  0  0  0
   -8.3180   23.4230  -31.9380 C   0  0  0  0  0  0  0  0  0  0  0  0
   -9.4760   22.6810  -31.9680 C   0  0  0  0  0  0  0  0  0  0  0  0
   -9.3540   21.3060  -32.0170 C   0  0  0  0  0  0  0  0  0  0  0  0
   -8.0790   20.7310  -32.0330 C   0  0  0  0  0  0  0  0  0  0  0  0
   -8.0630   19.2970  -32.0850 N   0  0  0  0  0  0  0  0  0  0  0  0
   -7.0860   18.6570  -32.6170 C   0  0  0  0  0  0  0  0  0  0  0  0
   -6.0670   19.3420  -33.1320 N   0  0  0  0  0  0  0  0  0  0  0  0
   -5.0320   18.6640  -33.6980 C   0  0  0  0  0  0  0  0  0  0  0  0
   -3.9820   19.4820  -34.2250 N   0  0  0  0  0  0  0  0  0  0  0  0
   -3.3250   20.2230  -33.4080 C   0  0  0  0  0  0  0  0  0  0  0  0
   -3.5050   20.3380  -32.0460 C   0  0  0  0  0  0  0  0  0  0  0  0
   -2.5590   21.2600  -31.5990 C   0  0  0  0  0  0  0  0  0  0  0  0
   -2.3540   21.7230  -30.1890 C   0  0  0  0  0  0  0  0  0  0  0  0
   -1.6910   23.0660  -29.9910 C   0  0  0  0  0  0  0  0  0  0  0  0
   -1.0170   21.7490  -29.6020 C   0  0  0  0  0  0  0  0  0  0  0  0
   -1.8620   21.6510  -32.6990 N   0  0  0  0  0  0  0  0  0  0  0  0
   -2.3220   21.0320  -33.7710 N   0  0  0  0  0  0  0  0  0  0  0  0
   -5.0260   17.3050  -33.7420 C   0  0  0  0  0  0  0  0  0  0  0  0
   -6.0950   16.6070  -33.2000 C   0  0  0  0  0  0  0  0  0  0  0  0
   -7.1120   17.3100  -32.6450 N   0  0  0  0  0  0  0  0  0  0  0  0
   -6.9500   21.4870  -32.0020 C   0  0  0  0  0  0  0  0  0  0  0  0
   -5.2101   24.0361  -28.2112 H   0  0  0  0  0  0  0  0  0  0  0  0
   -5.7833   22.6140  -29.1470 H   0  0  0  0  0  0  0  0  0  0  0  0
   -4.0396   23.0456  -29.1470 H   0  0  0  0  0  0  0  0  0  0  0  0
   -5.2960   23.6340  -32.8190 H   0  0  0  0  0  0  0  0  0  0  0  0
   -8.4063   24.5188  -31.8997 H   0  0  0  0  0  0  0  0  0  0  0  0
  -10.4636   23.1653  -31.9535 H   0  0  0  0  0  0  0  0  0  0  0  0
  -10.2507   20.6694  -32.0432 H   0  0  0  0  0  0  0  0  0  0  0  0
   -4.2482   19.8072  -31.4328 H   0  0  0  0  0  0  0  0  0  0  0  0
   -3.2995   21.2588  -29.8720 H   0  0  0  0  0  0  0  0  0  0  0  0
   -1.3304   23.6421  -30.8559 H   0  0  0  0  0  0  0  0  0  0  0  0
   -1.9441   24.0076  -29.4818 H   0  0  0  0  0  0  0  0  0  0  0  0
   -0.1569   21.3814  -30.1809 H   0  0  0  0  0  0  0  0  0  0  0  0
   -0.5689   21.3518  -28.6792 H   0  0  0  0  0  0  0  0  0  0  0  0
   -1.0880   22.3480  -32.6240 H   0  0  0  0  0  0  0  0  0  0  0  0
   -1.9690   21.1450  -34.7530 H   0  0  0  0  0  0  0  0  0  0  0  0
   -4.1843   16.7662  -34.2015 H   0  0  0  0  0  0  0  0  0  0  0  0
   -6.1168   15.5074  -33.2202 H   0  0  0  0  0  0  0  0  0  0  0  0
   -7.9040   16.7450  -32.2460 H   0  0  0  0  0  0  0  0  0  0  0  0
   -5.9592   21.0093  -32.0153 H   0  0  0  0  0  0  0  0  0  0  0  0
  1  2  1  0
  2  3  2  0
  2  4  2  0
  2  5  1  0
  5  6  1  0
  6  7  2  0
  7  8  1  0
  8  9  2  0
  9 10  1  0
 10 11  1  0
 11 12  2  0
 12 13  1  0
 13 14  2  0
 14 15  1  0
 15 16  2  0
 16 17  1  0
 17 18  2  0
 18 19  1  0
 19 20  1  0
 20 21  1  0
 18 22  1  0
 22 23  1  0
 14 24  1  0
 24 25  2  0
 25 26  1  0
 10 27  2  0
 27  6  1  0
 26 12  1  0
 23 16  1  0
 21 19  1  0
  1 28  1  0
  1 29  1  0
  1 30  1  0
  5 31  1  0
  7 32  1  0
  8 33  1  0
  9 34  1  0
 17 35  1  0
 19 36  1  0
 20 37  1  0
 20 38  1  0
 21 39  1  0
 21 40  1  0
 22 41  1  0
 23 42  1  0
 24 43  1  0
 25 44  1  0
 26 45  1  0
 27 46  1  0
M  END
>  <smiles>  (20) 
CS(=O)(=O)Nc1cccc(N=c2nc(N=c3cc(C4CC4)[nH][nH]3)cc[nH]2)c1

>  <score_type>  (20) 
oracle

>  <origin>  (20) 
adgpu

>  <m_score__min__energy>  (20) 
-9.6300000000000008

>  <m_primary>  (20) 
energy

$$$$
20:0
     RDKit          3D

 29 31  0  0  0  0  0  0  0  0999 V2000
   -9.5342   21.9088  -30.4847 H   0  0  0  0  0  0  0  0  0  0  0  0
   -8.5400   21.7970  -30.9420 C   0  0  0  0  0  0  0  0  0  0  0  0
   -8.3270   20.8310  -31.8730 N   0  0  0  0  0  0  0  0  0  0  0  0
   -7.1120   20.6620  -32.4590 C   0  0  0  0  0  0  0  0  0  0  0  0
   -6.9698   19.8699  -33.2088 H   0  0  0  0  0  0  0  0  0  0  0  0
   -6.0440   21.4920  -32.1110 C   0  0  0  0  0  0  0  0  0  0  0  0
   -5.0612   21.3565  -32.5862 H   0  0  0  0  0  0  0  0  0  0  0  0
   -6.2310   22.5020  -31.1500 C   0  0  0  0  0  0  0  0  0  0  0  0
   -5.1200   23.3980  -30.7580 C   0  0  0  0  0  0  0  0  0  0  0  0
   -4.9770   24.6620  -31.2250 N   0  0  0  0  0  0  0  0  0  0  0  0
   -3.9080   25.2940  -30.7440 N   0  0  0  0  0  0  0  0  0  0  0  0
   -3.1830   24.5450  -29.8890 C   0  0  0  0  0  0  0  0  0  0  0  0
   -2.1030   24.9970  -29.3200 N   0  0  0  0  0  0  0  0  0  0  0  0
   -1.2410   24.3100  -28.3950 C   0  0  0  0  0  0  0  0  0  0  0  0
   -0.5970   23.2870  -28.7540 O   0  0  0  0  0  0  0  0  0  0  0  0
   -1.1100   24.8070  -27.0050 C   0  0  0  0  0  0  0  0  0  0  0  0
   -1.5740   26.0890  -26.6530 C   0  0  0  0  0  0  0  0  0  0  0  0
   -2.0383   26.7302  -27.4167 H   0  0  0  0  0  0  0  0  0  0  0  0
   -1.4490   26.5530  -25.3400 C   0  0  0  0  0  0  0  0  0  0  0  0
   -1.8157   27.5557  -25.0753 H   0  0  0  0  0  0  0  0  0  0  0  0
   -0.8600   25.7470  -24.3640 C   0  0  0  0  0  0  0  0  0  0  0  0
   -0.7380   26.2000  -23.0920 F   0  0  0  0  0  0  0  0  0  0  0  0
   -0.3950   24.4740  -24.6990 C   0  0  0  0  0  0  0  0  0  0  0  0
    0.0693   23.8395  -23.9296 H   0  0  0  0  0  0  0  0  0  0  0  0
   -0.5180   24.0030  -26.0110 C   0  0  0  0  0  0  0  0  0  0  0  0
   -0.1501   22.9987  -26.2678 H   0  0  0  0  0  0  0  0  0  0  0  0
   -3.8680   23.0130  -29.6900 S   0  0  0  0  0  0  0  0  0  0  0  0
   -7.4990   22.6490  -30.5640 C   0  0  0  0  0  0  0  0  0  0  0  0
   -7.6718   23.4316  -29.8106 H   0  0  0  0  0  0  0  0  0  0  0  0
  1  2  1  0
  2  3  2  0
  3  4  1  0
  4  5  1  0
  4  6  2  0
  6  7  1  0
  6  8  1  0
  8  9  1  0
  9 10  2  0
 10 11  1  0
 11 12  1  0
 12 13  2  0
 13 14  1  0
 14 15  2  0
 14 16  1  0
 16 17  2  0
 17 18  1  0
 17 19  1  0
 19 20  1  0
 19 21  2  0
 21 22  1  0
 21 23  1  0
 23 24  1  0
 23 25  2  0
 25 26  1  0
 12 27  1  0
  8 28  2  0
 28 29  1  0
 28  2  1  0
 27  9  1  0
 25 16  1  0
M  CHG  1  11  -1
M  END
>  <UniqueID>  (21) 
19

>  <SMILES>  (21) 
O=C(/N=c1/[n-]nc(-c2ccncc2)s1)c1ccc(F)cc1

>  <Energy>  (21) 
72.57479796160018

>  <Genealogy>  (21) 
O=C(N=c1[n-]nc(-c2ccncc2)s1)c1ccc(F)cc1 (protonated)
O=C(/N=c1/[n-]nc(-c2ccncc2)s1)c1ccc(F)cc1 (cis-trans isomerization)
O=C(/N=c1/[n-]nc(-c2ccncc2)s1)c1ccc(F)cc1 (3D coordinates assigned)
O=C(/N=c1/[n-]nc(-c2ccncc2)s1)c1ccc(F)cc1 (optimized conformer: 72.57479796160018 kcal/mol)

>  <smiles>  (21) 
O=C(N=c1[nH]nc(-c2ccncc2)s1)c1ccc(F)cc1

>  <score_type>  (21) 
oracle

>  <origin>  (21) 
adgpu

>  <m_score__min__energy>  (21) 
-9.3200000000000003

>  <m_primary>  (21) 
energy

$$$$
21:0
     RDKit          3D

 40 42  0  0  0  0  0  0  0  0999 V2000
   -6.0960   26.0270  -29.8370 C   0  0  0  0  0  0  0  0  0  0  0  0
   -5.9590   24.6870  -30.4090 N   0  0  0  0  0  0  0  0  0  0  0  0
   -7.1240   23.8040  -30.5500 C   0  0  0  0  0  0  0  0  0  0  0  0
   -7.0800   23.0620  -31.8900 C   0  0  0  0  0  0  0  0  0  0  0  0
   -5.7530   22.3680  -32.0870 C   0  0  0  0  0  0  0  0  0  0  0  0
   -5.6810   21.1950  -32.8540 C   0  0  0  0  0  0  0  0  0  0  0  0
   -4.4420   20.5720  -33.0940 C   0  0  0  0  0  0  0  0  0  0  0  0
   -4.3160   19.3890  -33.8400 O   0  0  0  0  0  0  0  0  0  0  0  0
   -5.3460   18.4220  -34.0480 C   0  0  0  0  0  0  0  0  0  0  0  0
   -5.9880   17.9960  -32.7210 C   0  0  0  0  0  0  0  0  0  0  0  0
   -7.5030   17.8090  -32.8610 C   0  0  0  0  0  0  0  0  0  0  0  0
   -8.2300   19.0030  -32.3270 C   0  0  0  0  0  0  0  0  0  0  0  0
   -9.4230   19.5000  -32.8010 C   0  0  0  0  0  0  0  0  0  0  0  0
   -9.7760   20.5330  -32.0200 N   0  0  0  0  0  0  0  0  0  0  0  0
   -8.8070   20.6310  -31.0920 C   0  0  0  0  0  0  0  0  0  0  0  0
   -7.8390   19.7020  -31.2420 N   0  0  0  0  0  0  0  0  0  0  0  0
   -3.2760   21.1540  -32.5830 C   0  0  0  0  0  0  0  0  0  0  0  0
   -3.3360   22.3310  -31.8350 C   0  0  0  0  0  0  0  0  0  0  0  0
   -4.5720   22.9470  -31.5830 C   0  0  0  0  0  0  0  0  0  0  0  0
   -4.6640   24.1920  -30.7920 C   0  0  0  0  0  0  0  0  0  0  0  0
   -3.6200   24.8230  -30.4690 O   0  0  0  0  0  0  0  0  0  0  0  0
   -6.0891   25.9595  -28.7391 H   0  0  0  0  0  0  0  0  0  0  0  0
   -5.2575   26.6557  -30.1710 H   0  0  0  0  0  0  0  0  0  0  0  0
   -7.0444   26.4730  -30.1710 H   0  0  0  0  0  0  0  0  0  0  0  0
   -7.1227   23.0703  -29.7304 H   0  0  0  0  0  0  0  0  0  0  0  0
   -8.0381   24.4147  -30.5129 H   0  0  0  0  0  0  0  0  0  0  0  0
   -7.8840   22.3115  -31.9111 H   0  0  0  0  0  0  0  0  0  0  0  0
   -7.2127   23.7956  -32.6988 H   0  0  0  0  0  0  0  0  0  0  0  0
   -6.6006   20.7588  -33.2711 H   0  0  0  0  0  0  0  0  0  0  0  0
   -6.1202   18.8573  -34.6970 H   0  0  0  0  0  0  0  0  0  0  0  0
   -4.8982   17.5338  -34.5176 H   0  0  0  0  0  0  0  0  0  0  0  0
   -5.5395   17.0454  -32.3965 H   0  0  0  0  0  0  0  0  0  0  0  0
   -5.8064   18.7892  -31.9808 H   0  0  0  0  0  0  0  0  0  0  0  0
   -7.7548   17.6772  -33.9237 H   0  0  0  0  0  0  0  0  0  0  0  0
   -7.8065   16.9214  -32.2865 H   0  0  0  0  0  0  0  0  0  0  0  0
   -9.9864   19.1187  -33.6654 H   0  0  0  0  0  0  0  0  0  0  0  0
  -10.6310   21.1270  -32.1080 H   0  0  0  0  0  0  0  0  0  0  0  0
   -8.8037   21.3887  -30.2946 H   0  0  0  0  0  0  0  0  0  0  0  0
   -2.3023   20.6789  -32.7729 H   0  0  0  0  0  0  0  0  0  0  0  0
   -2.4110   22.7776  -31.4414 H   0  0  0  0  0  0  0  0  0  0  0  0
  1  2  1  0
  2  3  1  0
  3  4  1  0
  4  5  1  0
  5  6  2  0
  6  7  1  0
  7  8  1  0
  8  9  1  0
  9 10  1  0
 10 11  1  0
 11 12  1  0
 12 13  2  0
 13 14  1  0
 14 15  1  0
 15 16  2  0
  7 17  2  0
 17 18  1  0
 18 19  2  0
 19 20  1  0
 20 21  2  0
 20  2  1  0
 19  5  1  0
 16 12  1  0
  1 22  1  0
  1 23  1  0
  1 24  1  0
  3 25  1  0
  3 26  1  0
  4 27  1  0
  4 28  1  0
  6 29  1  0
  9 30  1  0
  9 31  1  0
 10 32  1  0
 10 33  1  0
 11 34  1  0
 11 35  1  0
 13 36  1  0
 14 37  1  0
 15 38  1  0
 17 39  1  0
 18 40  1  0
M  END
>  <UniqueID>  (22) 
20

>  <SMILES>  (22) 
CN1CCc2cc(OCCCc3c[nH]cn3)ccc2C1=O

>  <Energy>  (22) 
64.5599424494874

>  <Genealogy>  (22) 
CN1CCc2cc(OCCCc3c[nH]cn3)ccc2C1=O (3D coordinates assigned)
CN1CCc2cc(OCCCc3c[nH]cn3)ccc2C1=O (nonaromatic ring conformer: 64.5599424494874 kcal/mol)

>  <smiles>  (22) 
CN1CCc2cc(OCCCc3c[nH]cn3)ccc2C1=O

>  <score_type>  (22) 
oracle

>  <origin>  (22) 
adgpu

>  <m_score__min__energy>  (22) 
-7.7300000000000004

>  <m_primary>  (22) 
energy

$$$$
22:0
     RDKit          3D

 30 31  0  0  0  0  0  0  0  0999 V2000
   -2.7020   20.3530  -27.8230 C   0  0  0  0  0  0  0  0  0  0  0  0
   -3.1200   20.9120  -29.1290 C   0  0  0  0  0  0  0  0  0  0  0  0
   -2.8130   22.3380  -29.3440 C   0  0  0  0  0  0  0  0  0  0  0  0
   -1.6090   22.8000  -28.8880 N   0  0  0  0  0  0  0  0  0  0  0  0
   -1.2550   24.0950  -29.0210 C   0  0  0  0  0  0  0  0  0  0  0  0
   -0.1000   24.4590  -28.5640 N   0  0  0  0  0  0  0  0  0  0  0  0
   -2.0950   24.9570  -29.6130 N   0  0  0  0  0  0  0  0  0  0  0  0
   -3.3040   24.5600  -30.0880 C   0  0  0  0  0  0  0  0  0  0  0  0
   -4.0790   25.4230  -30.6470 N   0  0  0  0  0  0  0  0  0  0  0  0
   -3.6860   23.2260  -29.9590 C   0  0  0  0  0  0  0  0  0  0  0  0
   -4.9680   22.8390  -30.5040 C   0  0  0  0  0  0  0  0  0  0  0  0
   -6.0890   23.0950  -29.7400 C   0  0  0  0  0  0  0  0  0  0  0  0
   -7.3670   22.7340  -30.1310 C   0  0  0  0  0  0  0  0  0  0  0  0
   -7.5350   22.0870  -31.3350 C   0  0  0  0  0  0  0  0  0  0  0  0
   -9.1560   21.6350  -31.8150 Cl  0  0  0  0  0  0  0  0  0  0  0  0
   -6.4190   21.8400  -32.0850 C   0  0  0  0  0  0  0  0  0  0  0  0
   -5.1460   22.1950  -31.7080 C   0  0  0  0  0  0  0  0  0  0  0  0
   -3.7580   21.8820  -32.7630 Cl  0  0  0  0  0  0  0  0  0  0  0  0
   -3.1462   20.9471  -27.0108 H   0  0  0  0  0  0  0  0  0  0  0  0
   -3.0439   19.3105  -27.7440 H   0  0  0  0  0  0  0  0  0  0  0  0
   -1.6053   20.3862  -27.7440 H   0  0  0  0  0  0  0  0  0  0  0  0
   -2.6172   20.3355  -29.9195 H   0  0  0  0  0  0  0  0  0  0  0  0
   -4.2172   20.8361  -29.1493 H   0  0  0  0  0  0  0  0  0  0  0  0
   -0.9480   22.1380  -28.4260 H   0  0  0  0  0  0  0  0  0  0  0  0
    0.1670   25.4670  -28.6740 H   0  0  0  0  0  0  0  0  0  0  0  0
   -1.7900   25.9550  -29.7010 H   0  0  0  0  0  0  0  0  0  0  0  0
   -3.8690   26.4120  -30.7760 H   0  0  0  0  0  0  0  0  0  0  0  0
   -5.9608   23.6095  -28.7762 H   0  0  0  0  0  0  0  0  0  0  0  0
   -8.2329   22.9599  -29.4913 H   0  0  0  0  0  0  0  0  0  0  0  0
   -6.5478   21.3258  -33.0489 H   0  0  0  0  0  0  0  0  0  0  0  0
  1  2  1  0
  2  3  1  0
  3  4  1  0
  4  5  1  0
  5  6  2  3
  5  7  1  0
  7  8  1  0
  8  9  2  3
  8 10  1  0
 10 11  1  0
 11 12  2  0
 12 13  1  0
 13 14  2  0
 14 15  1  0
 14 16  1  0
 16 17  2  0
 17 18  1  0
 10  3  2  0
 17 11  1  0
  1 19  1  0
  1 20  1  0
  1 21  1  0
  2 22  1  0
  2 23  1  0
  4 24  1  0
  6 25  1  0
  7 26  1  0
  9 27  1  0
 12 28  1  0
 13 29  1  0
 16 30  1  0
M  END
>  <smiles>  (23) 
CCc1[nH]c(=N)[nH]c(=N)c1-c1ccc(Cl)cc1Cl

>  <score_type>  (23) 
oracle

>  <origin>  (23) 
adgpu

>  <m_score__min__energy>  (23) 
-7.6699999999999999

>  <m_primary>  (23) 
energy

$$$$
23:0
     RDKit          3D

 40 43  0  0  0  0  0  0  0  0999 V2000
   -7.5690   22.9040  -31.9300 C   0  0  0  0  0  0  0  0  0  0  0  0
   -7.6860   21.4100  -32.0820 C   0  0  0  0  0  0  0  0  0  0  0  0
   -8.9540   20.8520  -32.3290 C   0  0  0  0  0  0  0  0  0  0  0  0
   -9.1090   19.4700  -32.4530 C   0  0  0  0  0  0  0  0  0  0  0  0
   -8.0040   18.6290  -32.3410 C   0  0  0  0  0  0  0  0  0  0  0  0
   -6.7360   19.1660  -32.1150 C   0  0  0  0  0  0  0  0  0  0  0  0
   -6.5570   20.5550  -31.9990 C   0  0  0  0  0  0  0  0  0  0  0  0
   -5.1890   21.0810  -31.7910 C   0  0  0  0  0  0  0  0  0  0  0  0
   -4.9030   21.9060  -30.6930 C   0  0  0  0  0  0  0  0  0  0  0  0
   -3.6010   22.3990  -30.5110 C   0  0  0  0  0  0  0  0  0  0  0  0
   -3.2490   23.2660  -29.3580 C   0  0  0  0  0  0  0  0  0  0  0  0
   -4.1710   23.4470  -28.3100 C   0  0  0  0  0  0  0  0  0  0  0  0
   -3.8580   24.2670  -27.2210 C   0  0  0  0  0  0  0  0  0  0  0  0
   -2.6260   24.9210  -27.1680 C   0  0  0  0  0  0  0  0  0  0  0  0
   -2.3260   25.7160  -26.1110 F   0  0  0  0  0  0  0  0  0  0  0  0
   -1.7060   24.7610  -28.2070 C   0  0  0  0  0  0  0  0  0  0  0  0
   -2.0130   23.9430  -29.2980 C   0  0  0  0  0  0  0  0  0  0  0  0
   -2.6420   22.0890  -31.4280 N   0  0  0  0  0  0  0  0  0  0  0  0
   -2.8880   21.3060  -32.5120 C   0  0  0  0  0  0  0  0  0  0  0  0
   -1.7980   21.0180  -33.4600 C   0  0  0  0  0  0  0  0  0  0  0  0
   -0.8660   21.9220  -33.8390 N   0  0  0  0  0  0  0  0  0  0  0  0
    0.0250   21.3960  -34.7220 C   0  0  0  0  0  0  0  0  0  0  0  0
   -0.1890   20.0640  -35.0550 C   0  0  0  0  0  0  0  0  0  0  0  0
   -1.5420   19.5340  -34.2110 S   0  0  0  0  0  0  0  0  0  0  0  0
   -4.1730   20.7870  -32.7100 C   0  0  0  0  0  0  0  0  0  0  0  0
   -7.5487   23.1633  -30.8612 H   0  0  0  0  0  0  0  0  0  0  0  0
   -6.6410   23.2497  -32.4089 H   0  0  0  0  0  0  0  0  0  0  0  0
   -8.4318   23.3900  -32.4089 H   0  0  0  0  0  0  0  0  0  0  0  0
   -9.8302   21.5100  -32.4252 H   0  0  0  0  0  0  0  0  0  0  0  0
  -10.1059   19.0442  -32.6396 H   0  0  0  0  0  0  0  0  0  0  0  0
   -8.1312   17.5401  -32.4308 H   0  0  0  0  0  0  0  0  0  0  0  0
   -5.8683   18.4957  -32.0268 H   0  0  0  0  0  0  0  0  0  0  0  0
   -5.6964   22.1659  -29.9768 H   0  0  0  0  0  0  0  0  0  0  0  0
   -5.1461   22.9392  -28.3478 H   0  0  0  0  0  0  0  0  0  0  0  0
   -4.5840   24.3967  -26.4049 H   0  0  0  0  0  0  0  0  0  0  0  0
   -0.7371   25.2803  -28.1664 H   0  0  0  0  0  0  0  0  0  0  0  0
   -1.2859   23.8264  -30.1152 H   0  0  0  0  0  0  0  0  0  0  0  0
    0.8551   21.9828  -35.1422 H   0  0  0  0  0  0  0  0  0  0  0  0
    0.4189   19.4635  -35.7477 H   0  0  0  0  0  0  0  0  0  0  0  0
   -4.3840   20.1515  -33.5827 H   0  0  0  0  0  0  0  0  0  0  0  0
  1  2  1  0
  2  3  2  0
  3  4  1  0
  4  5  2  0
  5  6  1  0
  6  7  2  0
  7  8  1  0
  8  9  2  0
  9 10  1  0
 10 11  1  0
 11 12  2  0
 12 13  1  0
 13 14  2  0
 14 15  1  0
 14 16  1  0
 16 17  2  0
 10 18  2  0
 18 19  1  0
 19 20  1  0
 20 21  2  0
 21 22  1  0
 22 23  2  0
 23 24  1  0
 19 25  2  0
  7  2  1  0
 25  8  1  0
 17 11  1  0
 24 20  1  0
  1 26  1  0
  1 27  1  0
  1 28  1  0
  3 29  1  0
  4 30  1  0
  5 31  1  0
  6 32  1  0
  9 33  1  0
 12 34  1  0
 13 35  1  0
 16 36  1  0
 17 37  1  0
 22 38  1  0
 23 39  1  0
 25 40  1  0
M  END
>  <UniqueID>  (24) 
21

>  <SMILES>  (24) 
Cc1ccccc1-c1cc(-c2ccc(F)cc2)nc(-c2nccs2)c1

>  <Energy>  (24) 
85.42359619142316

>  <Genealogy>  (24) 
Cc1ccccc1-c1cc(-c2ccc(F)cc2)nc(-c2nccs2)c1 (3D coordinates assigned)
Cc1ccccc1-c1cc(-c2ccc(F)cc2)nc(-c2nccs2)c1 (optimized conformer: 85.42359619142316 kcal/mol)

>  <smiles>  (24) 
Cc1ccccc1-c1cc(-c2ccc(F)cc2)nc(-c2nccs2)c1

>  <score_type>  (24) 
oracle

>  <origin>  (24) 
adgpu

>  <m_score__min__energy>  (24) 
-8.2100000000000009

>  <m_primary>  (24) 
energy

$$$$
24:0
     RDKit          3D

 37 39  0  0  0  0  0  0  0  0999 V2000
   -2.1660   25.6690  -28.9720 O   0  0  0  0  0  0  0  0  0  0  0  0
   -2.1090   24.4280  -28.3390 C   0  0  0  0  0  0  0  0  0  0  0  0
   -1.1640   24.1980  -27.3280 C   0  0  0  0  0  0  0  0  0  0  0  0
   -1.1200   22.9640  -26.6730 C   0  0  0  0  0  0  0  0  0  0  0  0
   -2.0200   21.9550  -27.0230 C   0  0  0  0  0  0  0  0  0  0  0  0
   -2.9610   22.1750  -28.0320 C   0  0  0  0  0  0  0  0  0  0  0  0
   -3.0090   23.4090  -28.7000 C   0  0  0  0  0  0  0  0  0  0  0  0
   -3.9750   23.6150  -29.7430 N   0  0  0  0  0  0  0  0  0  0  0  0
   -3.8300   22.8910  -31.0150 C   0  0  0  0  0  0  0  0  0  0  0  0
   -5.0660   23.0740  -31.9010 C   0  0  0  0  0  0  0  0  0  0  0  0
   -6.2810   22.9050  -31.0930 N   0  0  0  0  0  0  0  0  0  0  0  0
   -7.2930   21.9560  -31.4780 C   0  0  0  0  0  0  0  0  0  0  0  0
   -8.6440   22.3440  -31.5500 C   0  0  0  0  0  0  0  0  0  0  0  0
   -9.6240   21.4260  -31.9370 C   0  0  0  0  0  0  0  0  0  0  0  0
   -9.2670   20.1150  -32.2600 C   0  0  0  0  0  0  0  0  0  0  0  0
   -7.9270   19.7190  -32.1990 C   0  0  0  0  0  0  0  0  0  0  0  0
   -7.4810   18.0720  -32.6040 Cl  0  0  0  0  0  0  0  0  0  0  0  0
   -6.9440   20.6350  -31.8120 C   0  0  0  0  0  0  0  0  0  0  0  0
   -6.4330   23.6550  -29.8350 C   0  0  0  0  0  0  0  0  0  0  0  0
   -5.1620   24.4440  -29.4930 C   0  0  0  0  0  0  0  0  0  0  0  0
   -3.0380   26.0440  -29.3270 H   0  0  0  0  0  0  0  0  0  0  0  0
   -0.4550   24.9917  -27.0497 H   0  0  0  0  0  0  0  0  0  0  0  0
   -0.3765   22.7876  -25.8818 H   0  0  0  0  0  0  0  0  0  0  0  0
   -1.9879   20.9859  -26.5036 H   0  0  0  0  0  0  0  0  0  0  0  0
   -3.6678   21.3774  -28.3044 H   0  0  0  0  0  0  0  0  0  0  0  0
   -2.9471   23.2744  -31.5474 H   0  0  0  0  0  0  0  0  0  0  0  0
   -3.7152   21.8194  -30.7946 H   0  0  0  0  0  0  0  0  0  0  0  0
   -5.0557   24.0826  -32.3400 H   0  0  0  0  0  0  0  0  0  0  0  0
   -5.0541   22.3226  -32.7043 H   0  0  0  0  0  0  0  0  0  0  0  0
   -8.9303   23.3763  -31.3001 H   0  0  0  0  0  0  0  0  0  0  0  0
  -10.6781   21.7364  -31.9873 H   0  0  0  0  0  0  0  0  0  0  0  0
  -10.0402   19.3934  -32.5626 H   0  0  0  0  0  0  0  0  0  0  0  0
   -5.8908   20.3205  -31.7685 H   0  0  0  0  0  0  0  0  0  0  0  0
   -7.2732   24.3576  -29.9371 H   0  0  0  0  0  0  0  0  0  0  0  0
   -6.6206   22.9351  -29.0247 H   0  0  0  0  0  0  0  0  0  0  0  0
   -5.1142   25.3473  -30.1189 H   0  0  0  0  0  0  0  0  0  0  0  0
   -5.1875   24.7280  -28.4306 H   0  0  0  0  0  0  0  0  0  0  0  0
  1  2  1  0
  2  3  2  0
  3  4  1  0
  4  5  2  0
  5  6  1  0
  6  7  2  0
  7  8  1  0
  8  9  1  0
  9 10  1  0
 10 11  1  0
 11 12  1  0
 12 13  2  0
 13 14  1  0
 14 15  2  0
 15 16  1  0
 16 17  1  0
 16 18  2  0
 11 19  1  0
 19 20  1  0
  7  2  1  0
 20  8  1  0
 18 12  1  0
  1 21  1  0
  3 22  1  0
  4 23  1  0
  5 24  1  0
  6 25  1  0
  9 26  1  0
  9 27  1  0
 10 28  1  0
 10 29  1  0
 13 30  1  0
 14 31  1  0
 15 32  1  0
 18 33  1  0
 19 34  1  0
 19 35  1  0
 20 36  1  0
 20 37  1  0
M  END
>  <UniqueID>  (25) 
22

>  <SMILES>  (25) 
Oc1ccccc1N1CCN(c2cccc(Cl)c2)CC1

>  <Energy>  (25) 
48.270109530326984

>  <Genealogy>  (25) 
Oc1ccccc1N1CCN(c2cccc(Cl)c2)CC1 (3D coordinates assigned)
Oc1ccccc1N1CCN(c2cccc(Cl)c2)CC1 (nonaromatic ring conformer: 48.270109530326984 kcal/mol)

>  <smiles>  (25) 
Oc1ccccc1N1CCN(c2cccc(Cl)c2)CC1

>  <score_type>  (25) 
oracle

>  <origin>  (25) 
adgpu

>  <m_score__min__energy>  (25) 
-8.6600000000000001

>  <m_primary>  (25) 
energy

$$$$
25:0
     RDKit          3D

 32 34  0  0  0  0  0  0  0  0999 V2000
   -5.9044   21.9630  -33.1492 H   0  0  0  0  0  0  0  0  0  0  0  0
   -6.0290   22.7190  -32.3600 C   0  0  0  0  0  0  0  0  0  0  0  0
   -4.9490   23.4060  -31.9010 N   0  0  0  0  0  0  0  0  0  0  0  0
   -5.0600   24.3650  -30.9400 C   0  0  0  0  0  0  0  0  0  0  0  0
   -3.8720   25.0110  -30.4580 N   0  0  0  0  0  0  0  0  0  0  0  0
   -3.0320   24.5690  -29.5630 C   0  0  0  0  0  0  0  0  0  0  0  0
   -1.9110   25.2970  -29.3180 N   0  0  0  0  0  0  0  0  0  0  0  0
   -0.9880   24.9240  -28.3950 C   0  0  0  0  0  0  0  0  0  0  0  0
   -0.0934   25.5437  -28.2349 H   0  0  0  0  0  0  0  0  0  0  0  0
   -1.1680   23.7570  -27.6470 C   0  0  0  0  0  0  0  0  0  0  0  0
   -0.1670   23.3960  -26.6730 C   0  0  0  0  0  0  0  0  0  0  0  0
    0.6390   23.1080  -25.8930 N   0  0  0  0  0  0  0  0  0  0  0  0
   -2.3210   22.9710  -27.8620 C   0  0  0  0  0  0  0  0  0  0  0  0
   -2.5860   21.7820  -27.0840 N   0  0  0  0  0  0  0  0  0  0  0  0
   -3.6000   21.7260  -26.8270 H   0  0  0  0  0  0  0  0  0  0  0  0
   -2.0520   21.8310  -26.1860 H   0  0  0  0  0  0  0  0  0  0  0  0
   -2.1220   20.6010  -27.8290 C   0  0  0  0  0  0  0  0  0  0  0  0
   -2.3541   20.9913  -28.8309 H   0  0  0  0  0  0  0  0  0  0  0  0
   -0.9460   19.8950  -27.1690 C   0  0  0  0  0  0  0  0  0  0  0  0
   -0.1509   19.4548  -27.7887 H   0  0  0  0  0  0  0  0  0  0  0  0
   -0.2008   20.1714  -26.4085 H   0  0  0  0  0  0  0  0  0  0  0  0
   -2.3270   19.2580  -27.1390 C   0  0  0  0  0  0  0  0  0  0  0  0
   -2.5305   18.3576  -27.7373 H   0  0  0  0  0  0  0  0  0  0  0  0
   -2.9938   18.8834  -26.3484 H   0  0  0  0  0  0  0  0  0  0  0  0
   -3.2620   23.3960  -28.8160 C   0  0  0  0  0  0  0  0  0  0  0  0
   -4.1796   22.8120  -28.9799 H   0  0  0  0  0  0  0  0  0  0  0  0
   -6.3140   24.6190  -30.3610 C   0  0  0  0  0  0  0  0  0  0  0  0
   -6.4124   25.3577  -29.5519 H   0  0  0  0  0  0  0  0  0  0  0  0
   -7.4350   23.9250  -30.8220 C   0  0  0  0  0  0  0  0  0  0  0  0
   -8.4259   24.1294  -30.3904 H   0  0  0  0  0  0  0  0  0  0  0  0
   -7.2950   22.9720  -31.8310 C   0  0  0  0  0  0  0  0  0  0  0  0
   -8.1733   22.4258  -32.2056 H   0  0  0  0  0  0  0  0  0  0  0  0
  1  2  1  0
  2  3  2  0
  3  4  1  0
  4  5  1  0
  5  6  2  0
  6  7  1  0
  7  8  1  0
  8  9  1  0
  8 10  2  0
 10 11  1  0
 11 12  3  0
 10 13  1  0
 13 14  1  0
 14 15  1  0
 14 16  1  0
 14 17  1  0
 17 18  1  0
 17 19  1  0
 19 20  1  0
 19 21  1  0
 19 22  1  0
 22 23  1  0
 22 24  1  0
 13 25  2  0
 25 26  1  0
  4 27  2  0
 27 28  1  0
 27 29  1  0
 29 30  1  0
 29 31  2  0
 31 32  1  0
 31  2  1  0
 25  6  1  0
 22 17  1  0
M  CHG  2   7  -1  14   1
M  END
>  <UniqueID>  (26) 
23

>  <SMILES>  (26) 
N#Cc1c[n-]/c(=N/c2ccccn2)cc1[NH2+]C1CC1

>  <Energy>  (26) 
311.3508226799635

>  <Genealogy>  (26) 
N#Cc1c[n-]c(=Nc2ccccn2)cc1[NH2+]C1CC1 (protonated)
N#Cc1c[n-]/c(=N/c2ccccn2)cc1[NH2+]C1CC1 (cis-trans isomerization)
N#Cc1c[n-]/c(=N/c2ccccn2)cc1[NH2+]C1CC1 (3D coordinates assigned)
N#Cc1c[n-]/c(=N/c2ccccn2)cc1[NH2+]C1CC1 (nonaromatic ring conformer: 311.3508226799635 kcal/mol)

>  <smiles>  (26) 
N#Cc1c[nH]c(=Nc2ccccn2)cc1NC1CC1

>  <score_type>  (26) 
oracle

>  <origin>  (26) 
adgpu

>  <m_score__min__energy>  (26) 
-7.8700000000000001

>  <m_primary>  (26) 
energy

$$$$
26:0
     RDKit          3D

 54 56  0  0  0  0  0  0  0  0999 V2000
   -0.9400   21.1840  -33.1840 C   0  0  0  0  0  0  0  0  0  0  0  0
   -2.3970   20.8110  -33.4360 C   0  0  0  0  0  0  0  0  0  0  0  0
   -3.1740   20.9700  -32.2490 O   0  0  0  0  0  0  0  0  0  0  0  0
   -4.5070   21.4150  -32.1910 C   0  0  0  0  0  0  0  0  0  0  0  0
   -5.5770   20.6580  -32.7050 C   0  0  0  0  0  0  0  0  0  0  0  0
   -6.8850   21.1470  -32.6330 C   0  0  0  0  0  0  0  0  0  0  0  0
   -7.1380   22.3910  -32.0530 C   0  0  0  0  0  0  0  0  0  0  0  0
   -6.0870   23.1510  -31.5390 C   0  0  0  0  0  0  0  0  0  0  0  0
   -4.7630   22.6710  -31.6090 C   0  0  0  0  0  0  0  0  0  0  0  0
   -3.6660   23.4090  -31.0480 N   0  0  0  0  0  0  0  0  0  0  0  0
   -3.7600   24.4760  -30.0960 C   0  0  0  0  0  0  0  0  0  0  0  0
   -3.9170   25.6700  -30.4780 O   0  0  0  0  0  0  0  0  0  0  0  0
   -3.5500   24.1740  -28.6440 C   0  0  0  0  0  0  0  0  0  0  0  0
   -2.1690   23.7440  -28.3940 N   0  0  0  0  0  0  0  0  0  0  0  0
   -1.8160   22.3500  -28.4810 C   0  0  0  0  0  0  0  0  0  0  0  0
   -1.2820   21.8220  -29.6680 C   0  0  0  0  0  0  0  0  0  0  0  0
   -0.9730   20.4630  -29.7590 C   0  0  0  0  0  0  0  0  0  0  0  0
   -1.2010   19.6140  -28.6740 C   0  0  0  0  0  0  0  0  0  0  0  0
   -1.7370   20.1270  -27.4760 C   0  0  0  0  0  0  0  0  0  0  0  0
   -1.9950   19.3180  -26.3580 O   0  0  0  0  0  0  0  0  0  0  0  0
   -3.2740   18.7810  -26.0330 C   0  0  0  0  0  0  0  0  0  0  0  0
   -2.0320   21.4940  -27.3890 C   0  0  0  0  0  0  0  0  0  0  0  0
   -0.9450   24.9580  -28.1480 S   0  0  0  0  0  0  0  0  0  0  0  0
   -1.2430   26.1760  -28.9780 O   0  0  0  0  0  0  0  0  0  0  0  0
    0.3890   24.4140  -28.5810 O   0  0  0  0  0  0  0  0  0  0  0  0
   -0.8830   25.4020  -26.4430 C   0  0  0  0  0  0  0  0  0  0  0  0
   -1.1860   26.7110  -26.0360 C   0  0  0  0  0  0  0  0  0  0  0  0
   -1.1690   27.0450  -24.6770 C   0  0  0  0  0  0  0  0  0  0  0  0
   -0.8540   26.0750  -23.7210 C   0  0  0  0  0  0  0  0  0  0  0  0
   -0.5490   24.7730  -24.1220 C   0  0  0  0  0  0  0  0  0  0  0  0
   -0.5650   24.4350  -25.4790 C   0  0  0  0  0  0  0  0  0  0  0  0
   -0.7557   21.2312  -32.1006 H   0  0  0  0  0  0  0  0  0  0  0  0
   -0.2839   20.4249  -33.6348 H   0  0  0  0  0  0  0  0  0  0  0  0
   -0.7294   22.1650  -33.6348 H   0  0  0  0  0  0  0  0  0  0  0  0
   -2.8047   21.4617  -34.2237 H   0  0  0  0  0  0  0  0  0  0  0  0
   -2.4421   19.7572  -33.7482 H   0  0  0  0  0  0  0  0  0  0  0  0
   -5.3832   19.6778  -33.1651 H   0  0  0  0  0  0  0  0  0  0  0  0
   -7.7168   20.5496  -33.0346 H   0  0  0  0  0  0  0  0  0  0  0  0
   -8.1682   22.7730  -32.0010 H   0  0  0  0  0  0  0  0  0  0  0  0
   -6.2919   24.1282  -31.0774 H   0  0  0  0  0  0  0  0  0  0  0  0
   -3.7581   25.0787  -28.0540 H   0  0  0  0  0  0  0  0  0  0  0  0
   -4.2303   23.3605  -28.3517 H   0  0  0  0  0  0  0  0  0  0  0  0
   -1.1063   22.4821  -30.5302 H   0  0  0  0  0  0  0  0  0  0  0  0
   -0.5480   20.0595  -30.6899 H   0  0  0  0  0  0  0  0  0  0  0  0
   -0.9619   18.5433  -28.7546 H   0  0  0  0  0  0  0  0  0  0  0  0
   -3.3850   18.7344  -24.9396 H   0  0  0  0  0  0  0  0  0  0  0  0
   -4.0599   19.4251  -26.4542 H   0  0  0  0  0  0  0  0  0  0  0  0
   -3.3645   17.7689  -26.4542 H   0  0  0  0  0  0  0  0  0  0  0  0
   -2.4385   21.9024  -26.4520 H   0  0  0  0  0  0  0  0  0  0  0  0
   -1.4371   27.4752  -26.7863 H   0  0  0  0  0  0  0  0  0  0  0  0
   -1.4038   28.0721  -24.3608 H   0  0  0  0  0  0  0  0  0  0  0  0
   -0.8464   26.3376  -22.6528 H   0  0  0  0  0  0  0  0  0  0  0  0
   -0.2957   24.0118  -23.3694 H   0  0  0  0  0  0  0  0  0  0  0  0
   -0.3273   23.4073  -25.7909 H   0  0  0  0  0  0  0  0  0  0  0  0
  1  2  1  0
  2  3  1  0
  3  4  1  0
  4  5  2  0
  5  6  1  0
  6  7  2  0
  7  8  1  0
  8  9  2  0
  9 10  1  0
 10 11  1  0
 11 12  2  0
 11 13  1  0
 13 14  1  0
 14 15  1  0
 15 16  2  0
 16 17  1  0
 17 18  2  0
 18 19  1  0
 19 20  1  0
 20 21  1  0
 19 22  2  0
 14 23  1  0
 23 24  2  0
 23 25  2  0
 23 26  1  0
 26 27  2  0
 27 28  1  0
 28 29  2  0
 29 30  1  0
 30 31  2  0
  9  4  1  0
 22 15  1  0
 31 26  1  0
  1 32  1  0
  1 33  1  0
  1 34  1  0
  2 35  1  0
  2 36  1  0
  5 37  1  0
  6 38  1  0
  7 39  1  0
  8 40  1  0
 13 41  1  0
 13 42  1  0
 16 43  1  0
 17 44  1  0
 18 45  1  0
 21 46  1  0
 21 47  1  0
 21 48  1  0
 22 49  1  0
 27 50  1  0
 28 51  1  0
 29 52  1  0
 30 53  1  0
 31 54  1  0
M  CHG  1  10  -1
M  END
>  <UniqueID>  (27) 
24

>  <SMILES>  (27) 
CCOc1ccccc1[N-]C(=O)CN(c1cccc(OC)c1)S(=O)(=O)c1ccccc1

>  <Energy>  (27) 
59.08806314256114

>  <Genealogy>  (27) 
CCOc1ccccc1[N-]C(=O)CN(c1cccc(OC)c1)S(=O)(=O)c1ccccc1 (protonated)
CCOc1ccccc1[N-]C(=O)CN(c1cccc(OC)c1)S(=O)(=O)c1ccccc1 (3D coordinates assigned)
CCOc1ccccc1[N-]C(=O)CN(c1cccc(OC)c1)S(=O)(=O)c1ccccc1 (optimized conformer: 59.08806314256114 kcal/mol)

>  <smiles>  (27) 
CCOc1ccccc1NC(=O)CN(c1cccc(OC)c1)S(=O)(=O)c1ccccc1

>  <score_type>  (27) 
oracle

>  <origin>  (27) 
adgpu

>  <m_score__min__energy>  (27) 
-11.130000000000001

>  <m_primary>  (27) 
energy

$$$$
27:0
     RDKit          3D

 45 48  0  0  0  0  0  0  0  0999 V2000
   -0.1090   25.7040  -27.4510 C   0  0  0  0  0  0  0  0  0  0  0  0
   -1.5430   25.2660  -27.4990 C   0  0  0  0  0  0  0  0  0  0  0  0
   -2.3200   25.2660  -26.3320 C   0  0  0  0  0  0  0  0  0  0  0  0
   -3.6670   24.9000  -26.3840 C   0  0  0  0  0  0  0  0  0  0  0  0
   -4.2500   24.5410  -27.6020 C   0  0  0  0  0  0  0  0  0  0  0  0
   -3.4900   24.5460  -28.7820 C   0  0  0  0  0  0  0  0  0  0  0  0
   -4.0950   24.1990  -30.0420 N   0  0  0  0  0  0  0  0  0  0  0  0
   -5.2330   24.9690  -30.5650 C   0  0  0  0  0  0  0  0  0  0  0  0
   -6.4010   24.0230  -30.8660 C   0  0  0  0  0  0  0  0  0  0  0  0
   -5.9430   22.7940  -31.5330 N   0  0  0  0  0  0  0  0  0  0  0  0
   -6.9070   21.7680  -31.8370 C   0  0  0  0  0  0  0  0  0  0  0  0
   -8.2780   21.9630  -31.6030 C   0  0  0  0  0  0  0  0  0  0  0  0
   -9.1800   20.9510  -31.9300 C   0  0  0  0  0  0  0  0  0  0  0  0
   -8.7220   19.7610  -32.4960 C   0  0  0  0  0  0  0  0  0  0  0  0
   -7.3480   19.5980  -32.7380 C   0  0  0  0  0  0  0  0  0  0  0  0
   -6.8010   18.3700  -33.3460 C   0  0  0  0  0  0  0  0  0  0  0  0
   -5.7940   18.2800  -34.2930 C   0  0  0  0  0  0  0  0  0  0  0  0
   -5.6390   16.9330  -34.5440 C   0  0  0  0  0  0  0  0  0  0  0  0
   -6.5530   16.2850  -33.7410 C   0  0  0  0  0  0  0  0  0  0  0  0
   -7.2290   17.1670  -33.0410 O   0  0  0  0  0  0  0  0  0  0  0  0
   -6.4910   20.6020  -32.4070 N   0  0  0  0  0  0  0  0  0  0  0  0
   -4.5380   22.6780  -31.9530 C   0  0  0  0  0  0  0  0  0  0  0  0
   -3.6150   23.0180  -30.7780 C   0  0  0  0  0  0  0  0  0  0  0  0
   -2.1360   24.9220  -28.7230 C   0  0  0  0  0  0  0  0  0  0  0  0
    0.2098   25.8014  -26.4027 H   0  0  0  0  0  0  0  0  0  0  0  0
    0.5197   24.9569  -27.9575 H   0  0  0  0  0  0  0  0  0  0  0  0
   -0.0050   26.6749  -27.9575 H   0  0  0  0  0  0  0  0  0  0  0  0
   -1.8673   25.5552  -25.3721 H   0  0  0  0  0  0  0  0  0  0  0  0
   -4.2701   24.8944  -25.4641 H   0  0  0  0  0  0  0  0  0  0  0  0
   -5.3110   24.2527  -27.6363 H   0  0  0  0  0  0  0  0  0  0  0  0
   -5.5471   25.7115  -29.8167 H   0  0  0  0  0  0  0  0  0  0  0  0
   -4.9317   25.4823  -31.4901 H   0  0  0  0  0  0  0  0  0  0  0  0
   -6.8951   23.7536  -29.9209 H   0  0  0  0  0  0  0  0  0  0  0  0
   -7.0992   24.5411  -31.5399 H   0  0  0  0  0  0  0  0  0  0  0  0
   -8.6373   22.9061  -31.1654 H   0  0  0  0  0  0  0  0  0  0  0  0
  -10.2546   21.0913  -31.7413 H   0  0  0  0  0  0  0  0  0  0  0  0
   -9.4299   18.9583  -32.7502 H   0  0  0  0  0  0  0  0  0  0  0  0
   -5.2347   19.1099  -34.7495 H   0  0  0  0  0  0  0  0  0  0  0  0
   -4.9288   16.4689  -35.2442 H   0  0  0  0  0  0  0  0  0  0  0  0
   -6.6946   15.1952  -33.6937 H   0  0  0  0  0  0  0  0  0  0  0  0
   -4.3404   21.6486  -32.2865 H   0  0  0  0  0  0  0  0  0  0  0  0
   -4.3470   23.3786  -32.7793 H   0  0  0  0  0  0  0  0  0  0  0  0
   -3.5782   22.1592  -30.0917 H   0  0  0  0  0  0  0  0  0  0  0  0
   -2.6147   23.2419  -31.1772 H   0  0  0  0  0  0  0  0  0  0  0  0
   -1.5365   24.9466  -29.6450 H   0  0  0  0  0  0  0  0  0  0  0  0
  1  2  1  0
  2  3  2  0
  3  4  1  0
  4  5  2  0
  5  6  1  0
  6  7  1  0
  7  8  1  0
  8  9  1  0
  9 10  1  0
 10 11  1  0
 11 12  2  0
 12 13  1  0
 13 14  2  0
 14 15  1  0
 15 16  1  0
 16 17  2  0
 17 18  1  0
 18 19  2  0
 19 20  1  0
 15 21  2  0
 10 22  1  0
 22 23  1  0
  6 24  2  0
 24  2  1  0
 23  7  1  0
 21 11  1  0
 20 16  1  0
  1 25  1  0
  1 26  1  0
  1 27  1  0
  3 28  1  0
  4 29  1  0
  5 30  1  0
  8 31  1  0
  8 32  1  0
  9 33  1  0
  9 34  1  0
 12 35  1  0
 13 36  1  0
 14 37  1  0
 17 38  1  0
 18 39  1  0
 19 40  1  0
 22 41  1  0
 22 42  1  0
 23 43  1  0
 23 44  1  0
 24 45  1  0
M  END
>  <UniqueID>  (28) 
25

>  <SMILES>  (28) 
Cc1cccc(N2CCN(c3cccc(-c4ccco4)n3)CC2)c1

>  <Energy>  (28) 
82.37528476821686

>  <Genealogy>  (28) 
Cc1cccc(N2CCN(c3cccc(-c4ccco4)n3)CC2)c1 (3D coordinates assigned)
Cc1cccc(N2CCN(c3cccc(-c4ccco4)n3)CC2)c1 (nonaromatic ring conformer: 82.37528476821686 kcal/mol)

>  <smiles>  (28) 
Cc1cccc(N2CCN(c3cccc(-c4ccco4)n3)CC2)c1

>  <score_type>  (28) 
oracle

>  <origin>  (28) 
adgpu

>  <m_score__min__energy>  (28) 
-8.4000000000000004

>  <m_primary>  (28) 
energy

$$$$
28:0
     RDKit          3D

 51 54  0  0  0  0  0  0  0  0999 V2000
   -1.1270   21.6870  -26.4010 C   0  0  0  0  0  0  0  0  0  0  0  0
   -1.7410   22.5380  -27.4720 C   0  0  0  0  0  0  0  0  0  0  0  0
   -2.8380   23.3580  -27.1700 C   0  0  0  0  0  0  0  0  0  0  0  0
   -3.4030   24.1700  -28.1590 C   0  0  0  0  0  0  0  0  0  0  0  0
   -2.8590   24.1970  -29.4490 C   0  0  0  0  0  0  0  0  0  0  0  0
   -3.4920   25.0030  -30.4520 N   0  0  0  0  0  0  0  0  0  0  0  0
   -4.8860   24.9730  -30.7780 C   0  0  0  0  0  0  0  0  0  0  0  0
   -5.5200   26.0610  -30.8170 O   0  0  0  0  0  0  0  0  0  0  0  0
   -5.5760   23.7120  -31.1360 C   0  0  0  0  0  0  0  0  0  0  0  0
   -4.8900   22.4900  -31.0640 C   0  0  0  0  0  0  0  0  0  0  0  0
   -5.5550   21.2880  -31.3210 C   0  0  0  0  0  0  0  0  0  0  0  0
   -6.9190   21.2830  -31.6580 C   0  0  0  0  0  0  0  0  0  0  0  0
   -7.6530   19.9710  -31.8150 C   0  0  0  0  0  0  0  0  0  0  0  0
   -7.4470   19.2680  -33.1090 N   0  0  2  0  0  0  0  0  0  0  0  0
   -7.6230   17.7980  -33.0640 C   0  0  0  0  0  0  0  0  0  0  0  0
   -6.3990   17.0270  -32.5420 C   0  0  0  0  0  0  0  0  0  0  0  0
   -5.0880   17.6020  -32.9960 C   0  0  0  0  0  0  0  0  0  0  0  0
   -3.9150   16.8540  -32.8060 C   0  0  0  0  0  0  0  0  0  0  0  0
   -2.6760   17.3760  -33.1810 C   0  0  0  0  0  0  0  0  0  0  0  0
   -2.5920   18.6610  -33.7180 C   0  0  0  0  0  0  0  0  0  0  0  0
   -3.7510   19.4170  -33.9020 C   0  0  0  0  0  0  0  0  0  0  0  0
   -5.0050   18.8980  -33.5370 C   0  0  0  0  0  0  0  0  0  0  0  0
   -6.2420   19.6940  -33.8580 C   0  0  0  0  0  0  0  0  0  0  0  0
   -7.6080   22.5060  -31.7190 C   0  0  0  0  0  0  0  0  0  0  0  0
   -6.9400   23.7090  -31.4750 C   0  0  0  0  0  0  0  0  0  0  0  0
   -1.7520   23.3850  -29.7490 C   0  0  0  0  0  0  0  0  0  0  0  0
   -1.2000   22.5590  -28.7670 C   0  0  0  0  0  0  0  0  0  0  0  0
   -1.4103   22.0796  -25.4133 H   0  0  0  0  0  0  0  0  0  0  0  0
   -1.4885   20.6530  -26.5020 H   0  0  0  0  0  0  0  0  0  0  0  0
   -0.0318   21.7040  -26.5020 H   0  0  0  0  0  0  0  0  0  0  0  0
   -3.2554   23.3626  -26.1523 H   0  0  0  0  0  0  0  0  0  0  0  0
   -4.2796   24.7908  -27.9220 H   0  0  0  0  0  0  0  0  0  0  0  0
   -3.8214   22.4781  -30.8035 H   0  0  0  0  0  0  0  0  0  0  0  0
   -5.0055   20.3371  -31.2589 H   0  0  0  0  0  0  0  0  0  0  0  0
   -7.3215   19.2997  -31.0091 H   0  0  0  0  0  0  0  0  0  0  0  0
   -8.7238   20.2198  -31.7760 H   0  0  0  0  0  0  0  0  0  0  0  0
   -8.2490   19.6050  -33.6960 H   0  0  0  0  0  0  0  0  0  0  0  0
   -8.4765   17.5737  -32.4073 H   0  0  0  0  0  0  0  0  0  0  0  0
   -7.7820   17.4691  -34.1016 H   0  0  0  0  0  0  0  0  0  0  0  0
   -6.4225   17.0405  -31.4423 H   0  0  0  0  0  0  0  0  0  0  0  0
   -6.4623   16.0071  -32.9493 H   0  0  0  0  0  0  0  0  0  0  0  0
   -3.9728   15.8506  -32.3589 H   0  0  0  0  0  0  0  0  0  0  0  0
   -1.7646   16.7735  -33.0530 H   0  0  0  0  0  0  0  0  0  0  0  0
   -1.6129   19.0782  -33.9962 H   0  0  0  0  0  0  0  0  0  0  0  0
   -3.6823   20.4256  -34.3356 H   0  0  0  0  0  0  0  0  0  0  0  0
   -6.0441   20.7500  -33.6221 H   0  0  0  0  0  0  0  0  0  0  0  0
   -6.4569   19.5298  -34.9242 H   0  0  0  0  0  0  0  0  0  0  0  0
   -8.6811   22.5166  -31.9606 H   0  0  0  0  0  0  0  0  0  0  0  0
   -7.4860   24.6611  -31.5488 H   0  0  0  0  0  0  0  0  0  0  0  0
   -1.3189   23.3999  -30.7600 H   0  0  0  0  0  0  0  0  0  0  0  0
   -0.3369   21.9217  -29.0098 H   0  0  0  0  0  0  0  0  0  0  0  0
  1  2  1  0
  2  3  2  0
  3  4  1  0
  4  5  2  0
  5  6  1  0
  6  7  1  0
  7  8  2  0
  7  9  1  0
  9 10  2  0
 10 11  1  0
 11 12  2  0
 12 13  1  0
 13 14  1  0
 14 15  1  0
 15 16  1  0
 16 17  1  0
 17 18  2  0
 18 19  1  0
 19 20  2  0
 20 21  1  0
 21 22  2  0
 22 23  1  0
 12 24  1  0
 24 25  2  0
  5 26  1  0
 26 27  2  0
 27  2  1  0
 25  9  1  0
 23 14  1  0
 22 17  1  0
  1 28  1  0
  1 29  1  0
  1 30  1  0
  3 31  1  0
  4 32  1  0
 10 33  1  0
 11 34  1  0
 13 35  1  0
 13 36  1  0
 14 37  1  6
 15 38  1  0
 15 39  1  0
 16 40  1  0
 16 41  1  0
 18 42  1  0
 19 43  1  0
 20 44  1  0
 21 45  1  0
 23 46  1  0
 23 47  1  0
 24 48  1  0
 25 49  1  0
 26 50  1  0
 27 51  1  0
M  CHG  2   6  -1  14   1
M  END
>  <UniqueID>  (29) 
26

>  <SMILES>  (29) 
Cc1ccc([N-]C(=O)c2ccc(C[N@@H+]3CCc4ccccc4C3)cc2)cc1

>  <Energy>  (29) 
69.81774529572083

>  <Genealogy>  (29) 
Cc1ccc([N-]C(=O)c2ccc(C[NH+]3CCc4ccccc4C3)cc2)cc1 (protonated)
Cc1ccc([N-]C(=O)c2ccc(C[N@@H+]3CCc4ccccc4C3)cc2)cc1 (chirality)
Cc1ccc([N-]C(=O)c2ccc(C[N@@H+]3CCc4ccccc4C3)cc2)cc1 (3D coordinates assigned)
Cc1ccc([N-]C(=O)c2ccc(C[N@@H+]3CCc4ccccc4C3)cc2)cc1 (nonaromatic ring conformer: 69.81774529572083 kcal/mol)

>  <smiles>  (29) 
Cc1ccc(NC(=O)c2ccc(CN3CCc4ccccc4C3)cc2)cc1

>  <score_type>  (29) 
oracle

>  <origin>  (29) 
adgpu

>  <m_score__min__energy>  (29) 
-10.710000000000001

>  <m_primary>  (29) 
energy

$$$$
29:0
     RDKit          3D

 38 40  0  0  1  0  0  0  0  0999 V2000
   -0.4890   27.0720  -27.4390 C   0  0  0  0  0  0  0  0  0  0  0  0
   -0.7050   25.6690  -27.8780 C   0  0  0  0  0  0  0  0  0  0  0  0
    0.2790   24.9270  -28.1280 O   0  0  0  0  0  0  0  0  0  0  0  0
   -1.9980   25.0950  -28.0360 N   0  0  0  0  0  0  0  0  0  0  0  0
   -2.1060   23.7500  -28.4590 C   0  0  0  0  0  0  0  0  0  0  0  0
   -1.6530   22.7570  -27.5910 C   0  0  0  0  0  0  0  0  0  0  0  0
   -1.7510   21.4390  -27.9840 C   0  0  0  0  0  0  0  0  0  0  0  0
   -2.2860   21.0870  -29.2160 C   0  0  0  0  0  0  0  0  0  0  0  0
   -2.7350   22.0620  -30.0820 C   0  0  0  0  0  0  0  0  0  0  0  0
   -3.2930   21.6650  -31.3700 C   0  0  0  0  0  0  0  0  0  0  0  0
   -4.5100   21.1070  -31.6480 C   0  0  0  0  0  0  0  0  0  0  0  0
   -4.5700   20.9150  -33.0100 C   0  0  0  0  0  0  0  0  0  0  0  0
   -5.5130   20.4200  -33.7370 N   0  0  0  0  0  0  0  0  0  0  0  0
   -6.7030   19.9880  -33.0860 C   0  0  0  0  0  0  0  0  0  0  0  0
   -7.6570   20.8200  -32.5890 C   0  0  0  0  0  0  0  0  0  0  0  0
   -8.7750   20.2780  -31.9730 C   0  0  0  0  0  0  0  0  0  0  0  0
   -8.9740   18.9250  -31.8360 C   0  0  0  0  0  0  0  0  0  0  0  0
   -7.9920   18.0710  -32.3480 C   0  0  0  0  0  0  0  0  0  0  0  0
   -6.8780   18.6080  -32.9610 C   0  0  0  0  0  0  0  0  0  0  0  0
   -5.6610   17.4880  -33.5930 Cl  0  0  0  0  0  0  0  0  0  0  0  0
   -3.4060   21.3550  -33.5100 N   0  0  0  0  0  0  0  0  0  0  0  0
   -2.6250   21.8110  -32.5290 N   0  0  0  0  0  0  0  0  0  0  0  0
   -2.6380   23.3790  -29.6870 C   0  0  0  0  0  0  0  0  0  0  0  0
   -0.4823   27.1154  -26.3399 H   0  0  0  0  0  0  0  0  0  0  0  0
    0.4753   27.4330  -27.8261 H   0  0  0  0  0  0  0  0  0  0  0  0
   -1.3001   27.7063  -27.8261 H   0  0  0  0  0  0  0  0  0  0  0  0
   -2.8110   25.7150  -27.8260 H   0  0  0  0  0  0  0  0  0  0  0  0
   -1.2259   23.0200  -26.6120 H   0  0  0  0  0  0  0  0  0  0  0  0
   -1.3973   20.6483  -27.3060 H   0  0  0  0  0  0  0  0  0  0  0  0
   -2.3520   20.0270  -29.5023 H   0  0  0  0  0  0  0  0  0  0  0  0
   -5.2951   20.8578  -30.9190 H   0  0  0  0  0  0  0  0  0  0  0  0
   -7.5431   21.9107  -32.6747 H   0  0  0  0  0  0  0  0  0  0  0  0
   -9.5383   20.9630  -31.5754 H   0  0  0  0  0  0  0  0  0  0  0  0
   -9.8730   18.5283  -31.3416 H   0  0  0  0  0  0  0  0  0  0  0  0
   -8.1065   16.9803  -32.2629 H   0  0  0  0  0  0  0  0  0  0  0  0
   -3.1330   21.3510  -34.5150 H   0  0  0  0  0  0  0  0  0  0  0  0
   -1.6650   22.2050  -32.6940 H   0  0  0  0  0  0  0  0  0  0  0  0
   -2.9949   24.1646  -30.3692 H   0  0  0  0  0  0  0  0  0  0  0  0
  1  2  1  0
  2  3  2  0
  2  4  1  0
  4  5  1  0
  5  6  2  0
  6  7  1  0
  7  8  2  0
  8  9  1  0
  9 10  1  0
 10 11  2  0
 11 12  1  0
 12 13  2  0
 13 14  1  0
 14 15  2  0
 15 16  1  0
 16 17  2  0
 17 18  1  0
 18 19  2  0
 19 20  1  0
 12 21  1  0
 21 22  1  0
  9 23  2  0
 23  5  1  0
 22 10  1  0
 19 14  1  0
  1 24  1  0
  1 25  1  0
  1 26  1  0
  4 27  1  0
  6 28  1  0
  7 29  1  0
  8 30  1  0
 11 31  1  0
 15 32  1  0
 16 33  1  0
 17 34  1  0
 18 35  1  0
 21 36  1  0
 22 37  1  0
 23 38  1  0
M  END
>  <smiles>  (30) 
CC(=O)Nc1cccc(-c2cc(=Nc3ccccc3Cl)[nH][nH]2)c1

>  <score_type>  (30) 
oracle

>  <origin>  (30) 
adgpu

>  <m_score__min__energy>  (30) 
-9.1099999999999994

>  <m_primary>  (30) 
energy

$$$$
30:0
     RDKit          3D

 28 30  0  0  0  0  0  0  0  0999 V2000
   -6.3330   14.2100  -34.4360 O   0  0  0  0  0  0  0  0  0  0  0  0
   -5.9030   15.5010  -34.1580 C   0  0  0  0  0  0  0  0  0  0  0  0
   -4.5430   15.8180  -34.2330 C   0  0  0  0  0  0  0  0  0  0  0  0
   -4.1080   17.1170  -33.9530 C   0  0  0  0  0  0  0  0  0  0  0  0
   -5.0340   18.1130  -33.5940 C   0  0  0  0  0  0  0  0  0  0  0  0
   -4.5700   19.4830  -33.2990 C   0  0  0  0  0  0  0  0  0  0  0  0
   -3.4180   20.0130  -33.7560 N   0  0  0  0  0  0  0  0  0  0  0  0
   -3.3620   21.2470  -33.2790 N   0  0  0  0  0  0  0  0  0  0  0  0
   -4.4810   21.4250  -32.5500 C   0  0  0  0  0  0  0  0  0  0  0  0
   -4.8250   22.6690  -31.8350 C   0  0  0  0  0  0  0  0  0  0  0  0
   -6.1510   23.1340  -31.8270 C   0  0  0  0  0  0  0  0  0  0  0  0
   -6.4810   24.3120  -31.1510 C   0  0  0  0  0  0  0  0  0  0  0  0
   -5.4970   25.0390  -30.4750 C   0  0  0  0  0  0  0  0  0  0  0  0
   -5.8550   26.2100  -29.8080 O   0  0  0  0  0  0  0  0  0  0  0  0
   -4.1700   24.5800  -30.4770 C   0  0  0  0  0  0  0  0  0  0  0  0
   -3.1770   25.2900  -29.8100 O   0  0  0  0  0  0  0  0  0  0  0  0
   -3.8370   23.4010  -31.1530 C   0  0  0  0  0  0  0  0  0  0  0  0
   -5.2260   20.3450  -32.5600 O   0  0  0  0  0  0  0  0  0  0  0  0
   -6.3990   17.7860  -33.5190 C   0  0  0  0  0  0  0  0  0  0  0  0
   -6.8290   16.4860  -33.8010 C   0  0  0  0  0  0  0  0  0  0  0  0
   -3.8137   15.0435  -34.5130 H   0  0  0  0  0  0  0  0  0  0  0  0
   -3.0371   17.3610  -34.0137 H   0  0  0  0  0  0  0  0  0  0  0  0
   -6.9328   22.5684  -32.3551 H   0  0  0  0  0  0  0  0  0  0  0  0
   -7.5214   24.6691  -31.1510 H   0  0  0  0  0  0  0  0  0  0  0  0
   -5.3640   26.5300  -28.9820 H   0  0  0  0  0  0  0  0  0  0  0  0
   -2.7963   23.0447  -31.1509 H   0  0  0  0  0  0  0  0  0  0  0  0
   -7.1320   18.5563  -33.2372 H   0  0  0  0  0  0  0  0  0  0  0  0
   -7.8989   16.2373  -33.7419 H   0  0  0  0  0  0  0  0  0  0  0  0
  1  2  1  0
  2  3  2  0
  3  4  1  0
  4  5  2  0
  5  6  1  0
  6  7  2  0
  7  8  1  0
  8  9  2  0
  9 10  1  0
 10 11  2  0
 11 12  1  0
 12 13  2  0
 13 14  1  0
 13 15  1  0
 15 16  1  0
 15 17  2  0
  9 18  1  0
  5 19  1  0
 19 20  2  0
 20  2  1  0
 18  6  1  0
 17 10  1  0
  3 21  1  0
  4 22  1  0
 11 23  1  0
 12 24  1  0
 14 25  1  0
 17 26  1  0
 19 27  1  0
 20 28  1  0
M  CHG  2   1  -1  16  -1
M  END
>  <UniqueID>  (31) 
27

>  <SMILES>  (31) 
[O-]c1ccc(-c2nnc(-c3ccc(O)c([O-])c3)o2)cc1

>  <Energy>  (31) 
66.11998305181743

>  <Genealogy>  (31) 
[O-]c1ccc(-c2nnc(-c3ccc(O)c([O-])c3)o2)cc1 (protonated)
[O-]c1ccc(-c2nnc(-c3ccc(O)c([O-])c3)o2)cc1 (3D coordinates assigned)
[O-]c1ccc(-c2nnc(-c3ccc(O)c([O-])c3)o2)cc1 (optimized conformer: 66.11998305181743 kcal/mol)

>  <smiles>  (31) 
Oc1ccc(-c2nnc(-c3ccc(O)c(O)c3)o2)cc1

>  <score_type>  (31) 
oracle

>  <origin>  (31) 
adgpu

>  <m_score__min__energy>  (31) 
-9.8399999999999999

>  <m_primary>  (31) 
energy

$$$$
31:0
     RDKit          3D

 40 41  0  0  0  0  0  0  0  0999 V2000
   -5.3460   25.7680  -30.4650 C   0  0  0  0  0  0  0  0  0  0  0  0
   -3.9970   25.3120  -30.4810 O   0  0  0  0  0  0  0  0  0  0  0  0
   -3.5770   24.0450  -30.0440 C   0  0  0  0  0  0  0  0  0  0  0  0
   -2.7050   23.8940  -28.9480 C   0  0  0  0  0  0  0  0  0  0  0  0
   -2.3120   22.6240  -28.5260 C   0  0  0  0  0  0  0  0  0  0  0  0
   -2.7770   21.4920  -29.1930 C   0  0  0  0  0  0  0  0  0  0  0  0
   -3.6390   21.6240  -30.2820 C   0  0  0  0  0  0  0  0  0  0  0  0
   -4.0520   22.8980  -30.7190 C   0  0  0  0  0  0  0  0  0  0  0  0
   -4.9510   23.0500  -31.8350 N   0  0  0  0  0  0  0  0  0  0  0  0
   -6.6000   22.5060  -31.8290 S   0  0  0  0  0  0  0  0  0  0  0  0
   -7.3930   23.4630  -32.6720 O   0  0  0  0  0  0  0  0  0  0  0  0
   -7.1330   22.5580  -30.4260 O   0  0  0  0  0  0  0  0  0  0  0  0
   -6.6900   20.8120  -32.4060 C   0  0  0  0  0  0  0  0  0  0  0  0
   -7.8800   20.0600  -32.1990 C   0  0  0  0  0  0  0  0  0  0  0  0
   -9.1160   20.6470  -31.5640 C   0  0  0  0  0  0  0  0  0  0  0  0
   -7.9170   18.7020  -32.5510 C   0  0  0  0  0  0  0  0  0  0  0  0
   -6.8260   18.0880  -33.1660 C   0  0  0  0  0  0  0  0  0  0  0  0
   -6.8720   16.6260  -33.5000 C   0  0  0  0  0  0  0  0  0  0  0  0
   -5.6720   18.8310  -33.4180 C   0  0  0  0  0  0  0  0  0  0  0  0
   -5.5960   20.1900  -33.0730 C   0  0  0  0  0  0  0  0  0  0  0  0
   -4.3290   20.9280  -33.4220 C   0  0  0  0  0  0  0  0  0  0  0  0
   -5.6823   25.8817  -29.4239 H   0  0  0  0  0  0  0  0  0  0  0  0
   -5.4112   26.7381  -30.9794 H   0  0  0  0  0  0  0  0  0  0  0  0
   -5.9865   25.0364  -30.9794 H   0  0  0  0  0  0  0  0  0  0  0  0
   -2.3312   24.7843  -28.4211 H   0  0  0  0  0  0  0  0  0  0  0  0
   -1.6346   22.5158  -27.6661 H   0  0  0  0  0  0  0  0  0  0  0  0
   -2.4635   20.4917  -28.8598 H   0  0  0  0  0  0  0  0  0  0  0  0
   -3.9994   20.7253  -30.8040 H   0  0  0  0  0  0  0  0  0  0  0  0
   -4.6390   23.5720  -32.6850 H   0  0  0  0  0  0  0  0  0  0  0  0
   -9.0221   20.6024  -30.4689 H   0  0  0  0  0  0  0  0  0  0  0  0
   -9.2283   21.6946  -31.8800 H   0  0  0  0  0  0  0  0  0  0  0  0
   -9.9989   20.0720  -31.8800 H   0  0  0  0  0  0  0  0  0  0  0  0
   -8.8209   18.1123  -32.3385 H   0  0  0  0  0  0  0  0  0  0  0  0
   -6.8905   16.0380  -32.5706 H   0  0  0  0  0  0  0  0  0  0  0  0
   -7.7773   16.4123  -34.0872 H   0  0  0  0  0  0  0  0  0  0  0  0
   -5.9819   16.3558  -34.0872 H   0  0  0  0  0  0  0  0  0  0  0  0
   -4.8082   18.3444  -33.8945 H   0  0  0  0  0  0  0  0  0  0  0  0
   -3.8133   21.2284  -32.4980 H   0  0  0  0  0  0  0  0  0  0  0  0
   -3.6725   20.2710  -34.0114 H   0  0  0  0  0  0  0  0  0  0  0  0
   -4.5766   21.8232  -34.0114 H   0  0  0  0  0  0  0  0  0  0  0  0
  1  2  1  0
  2  3  1  0
  3  4  2  0
  4  5  1  0
  5  6  2  0
  6  7  1  0
  7  8  2  0
  8  9  1  0
  9 10  1  0
 10 11  2  0
 10 12  2  0
 10 13  1  0
 13 14  2  0
 14 15  1  0
 14 16  1  0
 16 17  2  0
 17 18  1  0
 17 19  1  0
 19 20  2  0
 20 21  1  0
  8  3  1  0
 20 13  1  0
  1 22  1  0
  1 23  1  0
  1 24  1  0
  4 25  1  0
  5 26  1  0
  6 27  1  0
  7 28  1  0
  9 29  1  0
 15 30  1  0
 15 31  1  0
 15 32  1  0
 16 33  1  0
 18 34  1  0
 18 35  1  0
 18 36  1  0
 19 37  1  0
 21 38  1  0
 21 39  1  0
 21 40  1  0
M  END
>  <UniqueID>  (32) 
28

>  <SMILES>  (32) 
COc1ccccc1NS(=O)(=O)c1c(C)cc(C)cc1C

>  <Energy>  (32) 
47.34776679792609

>  <Genealogy>  (32) 
COc1ccccc1NS(=O)(=O)c1c(C)cc(C)cc1C (3D coordinates assigned)
COc1ccccc1NS(=O)(=O)c1c(C)cc(C)cc1C (optimized conformer: 47.34776679792609 kcal/mol)

>  <smiles>  (32) 
COc1ccccc1NS(=O)(=O)c1c(C)cc(C)cc1C

>  <score_type>  (32) 
oracle

>  <origin>  (32) 
adgpu

>  <m_score__min__energy>  (32) 
-8.6099999999999994

>  <m_primary>  (32) 
energy

$$$$
32:0
     RDKit          3D

 26 27  0  0  0  0  0  0  0  0999 V2000
   -4.9670   24.4890  -28.5960 N   0  0  0  0  0  0  0  0  0  0  0  0
   -5.1340   24.7260  -30.3010 S   0  0  0  0  0  0  0  0  0  0  0  0
   -3.8690   25.3200  -30.8560 O   0  0  0  0  0  0  0  0  0  0  0  0
   -6.2680   25.6740  -30.5670 O   0  0  0  0  0  0  0  0  0  0  0  0
   -5.4530   23.1790  -31.0780 C   0  0  0  0  0  0  0  0  0  0  0  0
   -6.7630   22.7090  -31.2150 C   0  0  0  0  0  0  0  0  0  0  0  0
   -7.0030   21.4740  -31.8210 C   0  0  0  0  0  0  0  0  0  0  0  0
   -5.9200   20.7090  -32.2900 C   0  0  0  0  0  0  0  0  0  0  0  0
   -6.1200   19.3870  -32.9390 C   0  0  0  0  0  0  0  0  0  0  0  0
   -5.5480   19.1320  -34.2000 C   0  0  0  0  0  0  0  0  0  0  0  0
   -5.7310   17.8950  -34.8260 C   0  0  0  0  0  0  0  0  0  0  0  0
   -6.4920   16.9020  -34.2060 C   0  0  0  0  0  0  0  0  0  0  0  0
   -7.0750   17.1440  -32.9610 C   0  0  0  0  0  0  0  0  0  0  0  0
   -6.8950   18.3790  -32.3290 C   0  0  0  0  0  0  0  0  0  0  0  0
   -4.6540   21.1860  -32.1260 N   0  0  0  0  0  0  0  0  0  0  0  0
   -4.3980   22.3860  -31.5400 C   0  0  0  0  0  0  0  0  0  0  0  0
   -4.7820   25.4260  -28.1750 H   0  0  0  0  0  0  0  0  0  0  0  0
   -5.8970   24.1750  -28.2400 H   0  0  0  0  0  0  0  0  0  0  0  0
   -7.6050   23.3126  -30.8451 H   0  0  0  0  0  0  0  0  0  0  0  0
   -8.0323   21.1019  -31.9308 H   0  0  0  0  0  0  0  0  0  0  0  0
   -4.9524   19.9121  -34.6967 H   0  0  0  0  0  0  0  0  0  0  0  0
   -5.2747   17.7039  -35.8085 H   0  0  0  0  0  0  0  0  0  0  0  0
   -6.6322   15.9286  -34.6988 H   0  0  0  0  0  0  0  0  0  0  0  0
   -7.6773   16.3619  -32.4757 H   0  0  0  0  0  0  0  0  0  0  0  0
   -7.3609   18.5650  -31.3501 H   0  0  0  0  0  0  0  0  0  0  0  0
   -3.3601   22.7332  -31.4293 H   0  0  0  0  0  0  0  0  0  0  0  0
  1  2  1  0
  2  3  2  0
  2  4  2  0
  2  5  1  0
  5  6  2  0
  6  7  1  0
  7  8  2  0
  8  9  1  0
  9 10  2  0
 10 11  1  0
 11 12  2  0
 12 13  1  0
 13 14  2  0
  8 15  1  0
 15 16  2  0
 16  5  1  0
 14  9  1  0
  1 17  1  0
  1 18  1  0
  6 19  1  0
  7 20  1  0
 10 21  1  0
 11 22  1  0
 12 23  1  0
 13 24  1  0
 14 25  1  0
 16 26  1  0
M  END
>  <UniqueID>  (33) 
29

>  <SMILES>  (33) 
NS(=O)(=O)c1ccc(-c2ccccc2)nc1

>  <Energy>  (33) 
30.111195335587347

>  <Genealogy>  (33) 
NS(=O)(=O)c1ccc(-c2ccccc2)nc1 (3D coordinates assigned)
NS(=O)(=O)c1ccc(-c2ccccc2)nc1 (optimized conformer: 30.111195335587347 kcal/mol)

>  <smiles>  (33) 
NS(=O)(=O)c1ccc(-c2ccccc2)nc1

>  <score_type>  (33) 
oracle

>  <origin>  (33) 
adgpu

>  <m_score__min__energy>  (33) 
-8.0899999999999999

>  <m_primary>  (33) 
energy

$$$$
33:0
     RDKit          3D

 36 38  0  0  0  0  0  0  0  0999 V2000
   -4.5710   24.5460  -27.8460 N   0  0  0  0  0  0  0  0  0  0  0  0
   -3.4190   23.8160  -28.2860 C   0  0  0  0  0  0  0  0  0  0  0  0
   -2.8370   22.8640  -27.4340 C   0  0  0  0  0  0  0  0  0  0  0  0
   -1.7220   22.1320  -27.8470 C   0  0  0  0  0  0  0  0  0  0  0  0
   -1.1700   22.3540  -29.1090 C   0  0  0  0  0  0  0  0  0  0  0  0
   -1.7380   23.2980  -29.9650 C   0  0  0  0  0  0  0  0  0  0  0  0
   -2.8820   24.0160  -29.5730 C   0  0  0  0  0  0  0  0  0  0  0  0
   -3.4860   24.9690  -30.4620 N   0  0  0  0  0  0  0  0  0  0  0  0
   -4.8940   25.1520  -30.6750 C   0  0  0  0  0  0  0  0  0  0  0  0
   -5.4110   26.2560  -30.3580 O   0  0  0  0  0  0  0  0  0  0  0  0
   -5.7590   24.0550  -31.1760 C   0  0  0  0  0  0  0  0  0  0  0  0
   -7.1540   24.1130  -31.0560 C   0  0  0  0  0  0  0  0  0  0  0  0
   -7.9250   23.0440  -31.5170 C   0  0  0  0  0  0  0  0  0  0  0  0
   -7.3100   21.9370  -32.1030 C   0  0  0  0  0  0  0  0  0  0  0  0
   -5.9090   21.9080  -32.2270 C   0  0  0  0  0  0  0  0  0  0  0  0
   -5.1810   20.7830  -32.8760 C   0  0  0  0  0  0  0  0  0  0  0  0
   -3.7880   20.8230  -33.0950 C   0  0  0  0  0  0  0  0  0  0  0  0
   -3.1280   19.7340  -33.6730 C   0  0  0  0  0  0  0  0  0  0  0  0
   -3.8410   18.5880  -34.0280 C   0  0  0  0  0  0  0  0  0  0  0  0
   -5.2180   18.5250  -33.8060 C   0  0  0  0  0  0  0  0  0  0  0  0
   -6.1120   17.0780  -34.2320 Cl  0  0  0  0  0  0  0  0  0  0  0  0
   -5.8840   19.6140  -33.2360 C   0  0  0  0  0  0  0  0  0  0  0  0
   -5.1900   22.9560  -31.7410 N   0  0  0  0  0  0  0  0  0  0  0  0
   -4.9320   25.3690  -28.3760 H   0  0  0  0  0  0  0  0  0  0  0  0
   -5.0790   24.2650  -26.9770 H   0  0  0  0  0  0  0  0  0  0  0  0
   -3.2624   22.6935  -26.4340 H   0  0  0  0  0  0  0  0  0  0  0  0
   -1.2788   21.3803  -27.1774 H   0  0  0  0  0  0  0  0  0  0  0  0
   -0.2856   21.7839  -29.4296 H   0  0  0  0  0  0  0  0  0  0  0  0
   -1.2885   23.4817  -30.9520 H   0  0  0  0  0  0  0  0  0  0  0  0
   -7.6367   24.9917  -30.6033 H   0  0  0  0  0  0  0  0  0  0  0  0
   -9.0201   23.0746  -31.4180 H   0  0  0  0  0  0  0  0  0  0  0  0
   -7.9160   21.0935  -32.4652 H   0  0  0  0  0  0  0  0  0  0  0  0
   -3.2163   21.7181  -32.8088 H   0  0  0  0  0  0  0  0  0  0  0  0
   -2.0431   19.7808  -33.8485 H   0  0  0  0  0  0  0  0  0  0  0  0
   -3.3179   17.7340  -34.4829 H   0  0  0  0  0  0  0  0  0  0  0  0
   -6.9694   19.5587  -33.0661 H   0  0  0  0  0  0  0  0  0  0  0  0
  1  2  1  0
  2  3  2  0
  3  4  1  0
  4  5  2  0
  5  6  1  0
  6  7  2  0
  7  8  1  0
  8  9  1  0
  9 10  2  0
  9 11  1  0
 11 12  2  0
 12 13  1  0
 13 14  2  0
 14 15  1  0
 15 16  1  0
 16 17  2  0
 17 18  1  0
 18 19  2  0
 19 20  1  0
 20 21  1  0
 20 22  2  0
 15 23  2  0
  7  2  1  0
 23 11  1  0
 22 16  1  0
  1 24  1  0
  1 25  1  0
  3 26  1  0
  4 27  1  0
  5 28  1  0
  6 29  1  0
 12 30  1  0
 13 31  1  0
 14 32  1  0
 17 33  1  0
 18 34  1  0
 19 35  1  0
 22 36  1  0
M  CHG  1   8  -1
M  END
>  <UniqueID>  (34) 
30

>  <SMILES>  (34) 
Nc1ccccc1[N-]C(=O)c1cccc(-c2cccc(Cl)c2)n1

>  <Energy>  (34) 
46.950269920948436

>  <Genealogy>  (34) 
Nc1ccccc1[N-]C(=O)c1cccc(-c2cccc(Cl)c2)n1 (protonated)
Nc1ccccc1[N-]C(=O)c1cccc(-c2cccc(Cl)c2)n1 (3D coordinates assigned)
Nc1ccccc1[N-]C(=O)c1cccc(-c2cccc(Cl)c2)n1 (optimized conformer: 46.950269920948436 kcal/mol)

>  <smiles>  (34) 
Nc1ccccc1NC(=O)c1cccc(-c2cccc(Cl)c2)n1

>  <score_type>  (34) 
oracle

>  <origin>  (34) 
adgpu

>  <m_score__min__energy>  (34) 
-11.199999999999999

>  <m_primary>  (34) 
energy

$$$$
34:0
     RDKit          3D

 37 39  0  0  0  0  0  0  0  0999 V2000
   -4.4020   21.0030  -33.1270 C   0  0  0  0  0  0  0  0  0  0  0  0
   -5.3880   21.6940  -32.2890 N   0  0  0  0  0  0  0  0  0  0  0  0
   -4.9730   22.9030  -31.6340 C   0  0  0  0  0  0  0  0  0  0  0  0
   -5.6910   24.0410  -31.8320 N   0  0  0  0  0  0  0  0  0  0  0  0
   -5.3640   25.2050  -31.2150 C   0  0  0  0  0  0  0  0  0  0  0  0
   -4.3000   25.2560  -30.3740 N   0  0  0  0  0  0  0  0  0  0  0  0
   -3.5410   24.1550  -30.1400 C   0  0  0  0  0  0  0  0  0  0  0  0
   -2.4450   24.2330  -29.2730 C   0  0  0  0  0  0  0  0  0  0  0  0
   -1.6530   23.1060  -29.0420 C   0  0  0  0  0  0  0  0  0  0  0  0
   -1.9510   21.8970  -29.6780 C   0  0  0  0  0  0  0  0  0  0  0  0
   -3.0450   21.8070  -30.5440 C   0  0  0  0  0  0  0  0  0  0  0  0
   -3.8560   22.9320  -30.7750 C   0  0  0  0  0  0  0  0  0  0  0  0
   -6.8300   21.3940  -32.3660 C   0  0  0  0  0  0  0  0  0  0  0  0
   -7.5650   21.7140  -31.0470 C   0  0  0  0  0  0  0  0  0  0  0  0
   -9.0910   21.5590  -31.2120 C   0  0  0  0  0  0  0  0  0  0  0  0
   -9.4910   20.4700  -32.2300 C   0  0  0  0  0  0  0  0  0  0  0  0
   -8.4290   19.3680  -32.3390 C   0  0  0  0  0  0  0  0  0  0  0  0
   -7.0670   19.9270  -32.8000 C   0  0  0  0  0  0  0  0  0  0  0  0
   -3.6704   20.4903  -32.4852 H   0  0  0  0  0  0  0  0  0  0  0  0
   -4.9136   20.2648  -33.7621 H   0  0  0  0  0  0  0  0  0  0  0  0
   -3.8827   21.7358  -33.7621 H   0  0  0  0  0  0  0  0  0  0  0  0
   -5.9630   26.1094  -31.3971 H   0  0  0  0  0  0  0  0  0  0  0  0
   -2.2070   25.1833  -28.7728 H   0  0  0  0  0  0  0  0  0  0  0  0
   -0.7934   23.1697  -28.3586 H   0  0  0  0  0  0  0  0  0  0  0  0
   -1.3221   21.0130  -29.4963 H   0  0  0  0  0  0  0  0  0  0  0  0
   -3.2715   20.8545  -31.0454 H   0  0  0  0  0  0  0  0  0  0  0  0
   -7.2580   22.0534  -33.1354 H   0  0  0  0  0  0  0  0  0  0  0  0
   -7.2160   21.0242  -30.2644 H   0  0  0  0  0  0  0  0  0  0  0  0
   -7.3469   22.7556  -30.7684 H   0  0  0  0  0  0  0  0  0  0  0  0
   -9.5225   21.2976  -30.2345 H   0  0  0  0  0  0  0  0  0  0  0  0
   -9.4748   22.5165  -31.5938 H   0  0  0  0  0  0  0  0  0  0  0  0
  -10.4413   20.0172  -31.9108 H   0  0  0  0  0  0  0  0  0  0  0  0
   -9.5891   20.9464  -33.2166 H   0  0  0  0  0  0  0  0  0  0  0  0
   -8.3045   18.8951  -31.3537 H   0  0  0  0  0  0  0  0  0  0  0  0
   -8.7698   18.6382  -33.0882 H   0  0  0  0  0  0  0  0  0  0  0  0
   -6.2697   19.3025  -32.3707 H   0  0  0  0  0  0  0  0  0  0  0  0
   -7.0614   19.9071  -33.8998 H   0  0  0  0  0  0  0  0  0  0  0  0
  1  2  1  0
  2  3  1  0
  3  4  2  0
  4  5  1  0
  5  6  2  0
  6  7  1  0
  7  8  2  0
  8  9  1  0
  9 10  2  0
 10 11  1  0
 11 12  2  0
  2 13  1  0
 13 14  1  0
 14 15  1  0
 15 16  1  0
 16 17  1  0
 17 18  1  0
 12  3  1  0
 18 13  1  0
 12  7  1  0
  1 19  1  0
  1 20  1  0
  1 21  1  0
  5 22  1  0
  8 23  1  0
  9 24  1  0
 10 25  1  0
 11 26  1  0
 13 27  1  0
 14 28  1  0
 14 29  1  0
 15 30  1  0
 15 31  1  0
 16 32  1  0
 16 33  1  0
 17 34  1  0
 17 35  1  0
 18 36  1  0
 18 37  1  0
M  END
>  <UniqueID>  (35) 
31

>  <SMILES>  (35) 
CN(c1ncnc2ccccc12)C1CCCCC1

>  <Energy>  (35) 
49.75574035794393

>  <Genealogy>  (35) 
CN(c1ncnc2ccccc12)C1CCCCC1 (3D coordinates assigned)
CN(c1ncnc2ccccc12)C1CCCCC1 (nonaromatic ring conformer: 49.75574035794393 kcal/mol)

>  <smiles>  (35) 
CN(c1ncnc2ccccc12)C1CCCCC1

>  <score_type>  (35) 
oracle

>  <origin>  (35) 
adgpu

>  <m_score__min__energy>  (35) 
-7.3700000000000001

>  <m_primary>  (35) 
energy

$$$$
35:0
     RDKit          3D

 42 44  0  0  0  0  0  0  0  0999 V2000
   -1.3640   25.6650  -29.1000 O   0  0  0  0  0  0  0  0  0  0  0  0
   -2.2430   24.7630  -29.1060 C   0  0  0  0  0  0  0  0  0  0  0  0
   -3.4160   24.9580  -29.9090 N   0  0  0  0  0  0  0  0  0  0  0  0
   -4.7660   24.4890  -29.6000 C   0  0  0  0  0  0  0  0  0  0  0  0
   -5.7790   24.9500  -30.6600 C   0  0  0  0  0  0  0  0  0  0  0  0
   -5.8540   24.0700  -31.9320 C   0  0  0  0  0  0  0  0  0  0  0  0
   -6.7610   22.8970  -31.8050 N   0  0  1  0  0  0  0  0  0  0  0  0
   -8.1670   23.2620  -32.1240 C   0  0  0  0  0  0  0  0  0  0  0  0
   -9.1660   22.2860  -31.4900 C   0  0  0  0  0  0  0  0  0  0  0  0
   -9.1940   21.0240  -32.1500 O   0  0  0  0  0  0  0  0  0  0  0  0
   -8.1550   20.0940  -32.0920 C   0  0  0  0  0  0  0  0  0  0  0  0
   -8.4770   18.7940  -31.6830 C   0  0  0  0  0  0  0  0  0  0  0  0
   -7.4960   17.8070  -31.6100 C   0  0  0  0  0  0  0  0  0  0  0  0
   -6.1770   18.1120  -31.9370 C   0  0  0  0  0  0  0  0  0  0  0  0
   -5.8340   19.4090  -32.3230 C   0  0  0  0  0  0  0  0  0  0  0  0
   -6.8060   20.4240  -32.3980 C   0  0  0  0  0  0  0  0  0  0  0  0
   -6.2970   21.8240  -32.7170 C   0  0  0  0  0  0  0  0  0  0  0  0
   -2.0310   23.5640  -28.2770 C   0  0  0  0  0  0  0  0  0  0  0  0
   -1.1220   23.4190  -27.2300 C   0  0  0  0  0  0  0  0  0  0  0  0
   -1.1290   22.1400  -26.6610 C   0  0  0  0  0  0  0  0  0  0  0  0
   -2.0210   21.2750  -27.2760 C   0  0  0  0  0  0  0  0  0  0  0  0
   -2.2840   19.5990  -26.8460 Cl  0  0  0  0  0  0  0  0  0  0  0  0
   -2.7970   22.0840  -28.5250 S   0  0  0  0  0  0  0  0  0  0  0  0
   -4.7627   23.3896  -29.5630 H   0  0  0  0  0  0  0  0  0  0  0  0
   -5.0648   24.9126  -28.6298 H   0  0  0  0  0  0  0  0  0  0  0  0
   -6.7759   24.9607  -30.1951 H   0  0  0  0  0  0  0  0  0  0  0  0
   -5.4379   25.9405  -30.9956 H   0  0  0  0  0  0  0  0  0  0  0  0
   -6.2111   24.6947  -32.7640 H   0  0  0  0  0  0  0  0  0  0  0  0
   -4.8427   23.6727  -32.1037 H   0  0  0  0  0  0  0  0  0  0  0  0
   -6.6770   22.5360  -30.8310 H   0  0  0  0  0  0  0  0  0  0  0  0
   -8.3674   24.2743  -31.7431 H   0  0  0  0  0  0  0  0  0  0  0  0
   -8.2924   23.2188  -33.2160 H   0  0  0  0  0  0  0  0  0  0  0  0
   -8.8844   22.1274  -30.4386 H   0  0  0  0  0  0  0  0  0  0  0  0
  -10.1681   22.7307  -31.5794 H   0  0  0  0  0  0  0  0  0  0  0  0
   -9.5158   18.5492  -31.4164 H   0  0  0  0  0  0  0  0  0  0  0  0
   -7.7632   16.7877  -31.2943 H   0  0  0  0  0  0  0  0  0  0  0  0
   -5.4047   17.3301  -31.8911 H   0  0  0  0  0  0  0  0  0  0  0  0
   -4.7881   19.6412  -32.5723 H   0  0  0  0  0  0  0  0  0  0  0  0
   -5.1978   21.8010  -32.6810 H   0  0  0  0  0  0  0  0  0  0  0  0
   -6.7041   22.0740  -33.7078 H   0  0  0  0  0  0  0  0  0  0  0  0
   -0.4639   24.2300  -26.8849 H   0  0  0  0  0  0  0  0  0  0  0  0
   -0.4917   21.8508  -25.8124 H   0  0  0  0  0  0  0  0  0  0  0  0
  1  2  2  0
  2  3  1  0
  3  4  1  0
  4  5  1  0
  5  6  1  0
  6  7  1  0
  7  8  1  0
  8  9  1  0
  9 10  1  0
 10 11  1  0
 11 12  2  0
 12 13  1  0
 13 14  2  0
 14 15  1  0
 15 16  2  0
 16 17  1  0
  2 18  1  0
 18 19  2  0
 19 20  1  0
 20 21  2  0
 21 22  1  0
 21 23  1  0
 17  7  1  0
 23 18  1  0
 16 11  1  0
  4 24  1  0
  4 25  1  0
  5 26  1  0
  5 27  1  0
  6 28  1  0
  6 29  1  0
  7 30  1  1
  8 31  1  0
  8 32  1  0
  9 33  1  0
  9 34  1  0
 12 35  1  0
 13 36  1  0
 14 37  1  0
 15 38  1  0
 17 39  1  0
 17 40  1  0
 19 41  1  0
 20 42  1  0
M  CHG  2   3  -1   7   1
M  END
>  <UniqueID>  (36) 
32

>  <SMILES>  (36) 
O=C([N-]CCC[N@H+]1CCOc2ccccc2C1)c1ccc(Cl)s1

>  <Energy>  (36) 
86.88901892928315

>  <Genealogy>  (36) 
O=C([N-]CCC[NH+]1CCOc2ccccc2C1)c1ccc(Cl)s1 (protonated)
O=C([N-]CCC[N@H+]1CCOc2ccccc2C1)c1ccc(Cl)s1 (chirality)
O=C([N-]CCC[N@H+]1CCOc2ccccc2C1)c1ccc(Cl)s1 (3D coordinates assigned)
O=C([N-]CCC[N@H+]1CCOc2ccccc2C1)c1ccc(Cl)s1 (nonaromatic ring conformer: 86.88901892928315 kcal/mol)

>  <smiles>  (36) 
O=C(NCCCN1CCOc2ccccc2C1)c1ccc(Cl)s1

>  <score_type>  (36) 
oracle

>  <origin>  (36) 
adgpu

>  <m_score__min__energy>  (36) 
-7.6799999999999997

>  <m_primary>  (36) 
energy

$$$$
36:0
     RDKit          3D

 43 46  0  0  0  0  0  0  0  0999 V2000
   -6.3920   14.1100  -34.2370 C   0  0  0  0  0  0  0  0  0  0  0  0
   -5.4510   15.2380  -34.2280 N   0  0  0  0  0  0  0  0  0  0  0  0
   -4.0730   15.0160  -34.6840 C   0  0  0  0  0  0  0  0  0  0  0  0
   -5.8770   16.5510  -33.7780 C   0  0  0  0  0  0  0  0  0  0  0  0
   -6.4790   16.7240  -32.5160 C   0  0  0  0  0  0  0  0  0  0  0  0
   -6.8890   17.9890  -32.0840 C   0  0  0  0  0  0  0  0  0  0  0  0
   -6.7170   19.1160  -32.9030 C   0  0  0  0  0  0  0  0  0  0  0  0
   -7.1550   20.4530  -32.4220 C   0  0  0  0  0  0  0  0  0  0  0  0
   -6.2310   21.4480  -32.0620 C   0  0  0  0  0  0  0  0  0  0  0  0
   -6.7070   22.6920  -31.6290 C   0  0  0  0  0  0  0  0  0  0  0  0
   -5.7660   23.7540  -31.2180 C   0  0  0  0  0  0  0  0  0  0  0  0
   -6.1310   25.0350  -31.0160 N   0  0  0  0  0  0  0  0  0  0  0  0
   -5.0030   25.6890  -30.7760 N   0  0  0  0  0  0  0  0  0  0  0  0
   -3.9760   24.8540  -30.8250 N   0  0  0  0  0  0  0  0  0  0  0  0
   -4.4240   23.6410  -31.0960 N   0  0  0  0  0  0  0  0  0  0  0  0
   -3.5910   22.4740  -31.1450 C   0  0  0  0  0  0  0  0  0  0  0  0
   -3.1740   21.8630  -29.9510 C   0  0  0  0  0  0  0  0  0  0  0  0
   -2.3820   20.7110  -29.9880 C   0  0  0  0  0  0  0  0  0  0  0  0
   -2.0130   20.1530  -31.2150 C   0  0  0  0  0  0  0  0  0  0  0  0
   -2.4440   20.7410  -32.4090 C   0  0  0  0  0  0  0  0  0  0  0  0
   -1.9940   20.0320  -33.9490 Cl  0  0  0  0  0  0  0  0  0  0  0  0
   -3.2390   21.8920  -32.3750 C   0  0  0  0  0  0  0  0  0  0  0  0
   -8.0480   22.9020  -31.5540 N   0  0  0  0  0  0  0  0  0  0  0  0
   -8.9320   21.9370  -31.9140 C   0  0  0  0  0  0  0  0  0  0  0  0
   -8.4850   20.7310  -32.3460 N   0  0  0  0  0  0  0  0  0  0  0  0
   -6.1080   18.9520  -34.1580 C   0  0  0  0  0  0  0  0  0  0  0  0
   -5.6960   17.6890  -34.5910 C   0  0  0  0  0  0  0  0  0  0  0  0
   -6.6309   13.8236  -33.2022 H   0  0  0  0  0  0  0  0  0  0  0  0
   -7.3145   14.4062  -34.7578 H   0  0  0  0  0  0  0  0  0  0  0  0
   -5.9352   13.2555  -34.7578 H   0  0  0  0  0  0  0  0  0  0  0  0
   -3.4109   14.9093  -33.8120 H   0  0  0  0  0  0  0  0  0  0  0  0
   -4.0307   14.0995  -35.2908 H   0  0  0  0  0  0  0  0  0  0  0  0
   -3.7450   15.8729  -35.2908 H   0  0  0  0  0  0  0  0  0  0  0  0
   -6.6284   15.8523  -31.8619 H   0  0  0  0  0  0  0  0  0  0  0  0
   -7.3511   18.1022  -31.0922 H   0  0  0  0  0  0  0  0  0  0  0  0
   -5.1499   21.2530  -32.1193 H   0  0  0  0  0  0  0  0  0  0  0  0
   -3.4716   22.2923  -28.9830 H   0  0  0  0  0  0  0  0  0  0  0  0
   -2.0489   20.2433  -29.0498 H   0  0  0  0  0  0  0  0  0  0  0  0
   -1.3836   19.2513  -31.2420 H   0  0  0  0  0  0  0  0  0  0  0  0
   -3.5899   22.3432  -33.3148 H   0  0  0  0  0  0  0  0  0  0  0  0
  -10.0128   22.1330  -31.8554 H   0  0  0  0  0  0  0  0  0  0  0  0
   -5.9538   19.8269  -34.8067 H   0  0  0  0  0  0  0  0  0  0  0  0
   -5.2243   17.5810  -35.5789 H   0  0  0  0  0  0  0  0  0  0  0  0
  1  2  1  0
  2  3  1  0
  2  4  1  0
  4  5  2  0
  5  6  1  0
  6  7  2  0
  7  8  1  0
  8  9  2  0
  9 10  1  0
 10 11  1  0
 11 12  2  0
 12 13  1  0
 13 14  2  0
 14 15  1  0
 15 16  1  0
 16 17  2  0
 17 18  1  0
 18 19  2  0
 19 20  1  0
 20 21  1  0
 20 22  2  0
 10 23  2  0
 23 24  1  0
 24 25  2  0
  7 26  1  0
 26 27  2  0
 27  4  1  0
 25  8  1  0
 15 11  1  0
 22 16  1  0
  1 28  1  0
  1 29  1  0
  1 30  1  0
  3 31  1  0
  3 32  1  0
  3 33  1  0
  5 34  1  0
  6 35  1  0
  9 36  1  0
 17 37  1  0
 18 38  1  0
 19 39  1  0
 22 40  1  0
 24 41  1  0
 26 42  1  0
 27 43  1  0
M  END
>  <UniqueID>  (37) 
33

>  <SMILES>  (37) 
CN(C)c1ccc(-c2cc(-c3nnnn3-c3cccc(Cl)c3)ncn2)cc1

>  <Energy>  (37) 
101.07886204113005

>  <Genealogy>  (37) 
CN(C)c1ccc(-c2cc(-c3nnnn3-c3cccc(Cl)c3)ncn2)cc1 (3D coordinates assigned)
CN(C)c1ccc(-c2cc(-c3nnnn3-c3cccc(Cl)c3)ncn2)cc1 (optimized conformer: 101.07886204113005 kcal/mol)

>  <smiles>  (37) 
CN(C)c1ccc(-c2cc(-c3nnnn3-c3cccc(Cl)c3)ncn2)cc1

>  <score_type>  (37) 
oracle

>  <origin>  (37) 
adgpu

>  <m_score__min__energy>  (37) 
-9.6500000000000004

>  <m_primary>  (37) 
energy

$$$$
37:0
     RDKit          3D

 35 36  0  0  0  0  0  0  0  0999 V2000
   -5.4760   20.5190  -33.0010 C   0  0  0  0  0  0  0  0  0  0  0  0
   -4.2660   20.4420  -32.2550 O   0  0  0  0  0  0  0  0  0  0  0  0
   -3.7270   21.4960  -31.5010 C   0  0  0  0  0  0  0  0  0  0  0  0
   -2.5780   21.3450  -30.7070 C   0  0  0  0  0  0  0  0  0  0  0  0
   -2.0680   22.4290  -29.9680 C   0  0  0  0  0  0  0  0  0  0  0  0
   -0.8920   22.3170  -29.2080 O   0  0  0  0  0  0  0  0  0  0  0  0
   -0.7880   21.6160  -27.9740 C   0  0  0  0  0  0  0  0  0  0  0  0
   -2.7370   23.6700  -30.0080 C   0  0  0  0  0  0  0  0  0  0  0  0
   -2.2390   24.7930  -29.2620 N   0  0  0  0  0  0  0  0  0  0  0  0
   -2.2390   24.8330  -27.8260 C   0  0  0  0  0  0  0  0  0  0  0  0
   -2.8680   23.9600  -27.1690 O   0  0  0  0  0  0  0  0  0  0  0  0
   -1.5350   25.9000  -27.0970 C   0  0  0  0  0  0  0  0  0  0  0  0
   -1.5270   26.1010  -25.7280 C   0  0  0  0  0  0  0  0  0  0  0  0
   -0.7450   27.2160  -25.5210 C   0  0  0  0  0  0  0  0  0  0  0  0
   -0.3260   27.6290  -26.7680 C   0  0  0  0  0  0  0  0  0  0  0  0
   -0.8140   26.8260  -27.6860 O   0  0  0  0  0  0  0  0  0  0  0  0
   -3.8760   23.8310  -30.8170 C   0  0  0  0  0  0  0  0  0  0  0  0
   -4.5030   25.0890  -30.8520 O   0  0  0  0  0  0  0  0  0  0  0  0
   -5.7430   25.3920  -30.2210 C   0  0  0  0  0  0  0  0  0  0  0  0
   -4.3630   22.7380  -31.5550 C   0  0  0  0  0  0  0  0  0  0  0  0
   -6.3300   20.5733  -32.3099 H   0  0  0  0  0  0  0  0  0  0  0  0
   -5.4594   21.4179  -33.6348 H   0  0  0  0  0  0  0  0  0  0  0  0
   -5.5735   19.6252  -33.6348 H   0  0  0  0  0  0  0  0  0  0  0  0
   -2.0716   20.3695  -30.6623 H   0  0  0  0  0  0  0  0  0  0  0  0
   -0.8932   22.3250  -27.1396 H   0  0  0  0  0  0  0  0  0  0  0  0
   -1.5836   20.8588  -27.9143 H   0  0  0  0  0  0  0  0  0  0  0  0
    0.1932   21.1224  -27.9143 H   0  0  0  0  0  0  0  0  0  0  0  0
   -2.0140   25.6670  -29.7880 H   0  0  0  0  0  0  0  0  0  0  0  0
   -2.0384   25.4966  -24.9643 H   0  0  0  0  0  0  0  0  0  0  0  0
   -0.5033   27.6831  -24.5549 H   0  0  0  0  0  0  0  0  0  0  0  0
    0.3187   28.4984  -26.9642 H   0  0  0  0  0  0  0  0  0  0  0  0
   -5.6159   25.3609  -29.1288 H   0  0  0  0  0  0  0  0  0  0  0  0
   -6.0723   26.3970  -30.5234 H   0  0  0  0  0  0  0  0  0  0  0  0
   -6.4987   24.6521  -30.5234 H   0  0  0  0  0  0  0  0  0  0  0  0
   -5.2571   22.8628  -32.1835 H   0  0  0  0  0  0  0  0  0  0  0  0
  1  2  1  0
  2  3  1  0
  3  4  2  0
  4  5  1  0
  5  6  1  0
  6  7  1  0
  5  8  2  0
  8  9  1  0
  9 10  1  0
 10 11  2  0
 10 12  1  0
 12 13  2  0
 13 14  1  0
 14 15  2  0
 15 16  1  0
  8 17  1  0
 17 18  1  0
 18 19  1  0
 17 20  2  0
 20  3  1  0
 16 12  1  0
  1 21  1  0
  1 22  1  0
  1 23  1  0
  4 24  1  0
  7 25  1  0
  7 26  1  0
  7 27  1  0
  9 28  1  0
 13 29  1  0
 14 30  1  0
 15 31  1  0
 19 32  1  0
 19 33  1  0
 19 34  1  0
 20 35  1  0
M  END
>  <UniqueID>  (38) 
34

>  <SMILES>  (38) 
COc1cc(OC)c(NC(=O)c2ccco2)c(OC)c1

>  <Energy>  (38) 
64.06875095646366

>  <Genealogy>  (38) 
COc1cc(OC)c(NC(=O)c2ccco2)c(OC)c1 (3D coordinates assigned)
COc1cc(OC)c(NC(=O)c2ccco2)c(OC)c1 (optimized conformer: 64.06875095646366 kcal/mol)

>  <smiles>  (38) 
COc1cc(OC)c(NC(=O)c2ccco2)c(OC)c1

>  <score_type>  (38) 
oracle

>  <origin>  (38) 
adgpu

>  <m_score__min__energy>  (38) 
-5.6799999999999997

>  <m_primary>  (38) 
energy

$$$$
38:0
     RDKit          3D

 33 35  0  0  0  0  0  0  0  0999 V2000
   -4.6220   25.2990  -31.2170 O   0  0  0  0  0  0  0  0  0  0  0  0
   -5.4040   24.0960  -30.7670 S   0  0  0  0  0  0  0  0  0  0  0  0
   -6.5030   24.5480  -29.8470 O   0  0  0  0  0  0  0  0  0  0  0  0
   -6.1030   23.3260  -32.1560 N   0  0  0  0  0  0  0  0  0  0  0  0
   -7.1460   22.3390  -32.0580 C   0  0  0  0  0  0  0  0  0  0  0  0
   -8.4380   22.7300  -31.6600 C   0  0  0  0  0  0  0  0  0  0  0  0
   -9.4820   21.8070  -31.6130 C   0  0  0  0  0  0  0  0  0  0  0  0
   -9.2600   20.4770  -31.9620 C   0  0  0  0  0  0  0  0  0  0  0  0
   -7.9850   20.0530  -32.3530 C   0  0  0  0  0  0  0  0  0  0  0  0
   -7.7670   18.7080  -32.6930 C   0  0  0  0  0  0  0  0  0  0  0  0
   -6.4950   18.2730  -33.0620 C   0  0  0  0  0  0  0  0  0  0  0  0
   -5.4280   19.1700  -33.0900 C   0  0  0  0  0  0  0  0  0  0  0  0
   -5.6270   20.5130  -32.7570 C   0  0  0  0  0  0  0  0  0  0  0  0
   -6.9080   20.9820  -32.3990 C   0  0  0  0  0  0  0  0  0  0  0  0
   -4.3550   22.9710  -29.9130 C   0  0  0  0  0  0  0  0  0  0  0  0
   -4.2750   23.0030  -28.5130 C   0  0  0  0  0  0  0  0  0  0  0  0
   -3.4370   22.1120  -27.8370 C   0  0  0  0  0  0  0  0  0  0  0  0
   -2.6760   21.1840  -28.5550 C   0  0  0  0  0  0  0  0  0  0  0  0
   -2.7550   21.1450  -29.9500 C   0  0  0  0  0  0  0  0  0  0  0  0
   -2.0200   20.2430  -30.6470 F   0  0  0  0  0  0  0  0  0  0  0  0
   -3.5940   22.0360  -30.6290 C   0  0  0  0  0  0  0  0  0  0  0  0
   -5.7390   23.6130  -33.0900 H   0  0  0  0  0  0  0  0  0  0  0  0
   -8.6267   23.7775  -31.3824 H   0  0  0  0  0  0  0  0  0  0  0  0
  -10.4853   22.1306  -31.2989 H   0  0  0  0  0  0  0  0  0  0  0  0
  -10.0907   19.7566  -31.9301 H   0  0  0  0  0  0  0  0  0  0  0  0
   -8.6038   17.9944  -32.6680 H   0  0  0  0  0  0  0  0  0  0  0  0
   -6.3327   17.2190  -33.3318 H   0  0  0  0  0  0  0  0  0  0  0  0
   -4.4252   18.8194  -33.3754 H   0  0  0  0  0  0  0  0  0  0  0  0
   -4.7766   21.2105  -32.7743 H   0  0  0  0  0  0  0  0  0  0  0  0
   -4.8733   23.7312  -27.9458 H   0  0  0  0  0  0  0  0  0  0  0  0
   -3.3759   22.1406  -26.7391 H   0  0  0  0  0  0  0  0  0  0  0  0
   -2.0152   20.4847  -28.0219 H   0  0  0  0  0  0  0  0  0  0  0  0
   -3.6565   22.0027  -31.7267 H   0  0  0  0  0  0  0  0  0  0  0  0
  1  2  2  0
  2  3  2  0
  2  4  1  0
  4  5  1  0
  5  6  2  0
  6  7  1  0
  7  8  2  0
  8  9  1  0
  9 10  2  0
 10 11  1  0
 11 12  2  0
 12 13  1  0
 13 14  2  0
  2 15  1  0
 15 16  2  0
 16 17  1  0
 17 18  2  0
 18 19  1  0
 19 20  1  0
 19 21  2  0
 14  5  1  0
 21 15  1  0
 14  9  1  0
  4 22  1  0
  6 23  1  0
  7 24  1  0
  8 25  1  0
 10 26  1  0
 11 27  1  0
 12 28  1  0
 13 29  1  0
 16 30  1  0
 17 31  1  0
 18 32  1  0
 21 33  1  0
M  END
>  <UniqueID>  (39) 
35

>  <SMILES>  (39) 
O=S(=O)(Nc1cccc2ccccc12)c1cccc(F)c1

>  <Energy>  (39) 
45.65932021988979

>  <Genealogy>  (39) 
O=S(=O)(Nc1cccc2ccccc12)c1cccc(F)c1 (3D coordinates assigned)
O=S(=O)(Nc1cccc2ccccc12)c1cccc(F)c1 (optimized conformer: 45.65932021988979 kcal/mol)

>  <smiles>  (39) 
O=S(=O)(Nc1cccc2ccccc12)c1cccc(F)c1

>  <score_type>  (39) 
oracle

>  <origin>  (39) 
adgpu

>  <m_score__min__energy>  (39) 
-8.7699999999999996

>  <m_primary>  (39) 
energy

$$$$
39:0
     RDKit          3D

 35 37  0  0  0  0  0  0  0  0999 V2000
   -0.6585   23.0309  -26.1722 H   0  0  0  0  0  0  0  0  0  0  0  0
   -0.9630   24.0360  -25.8450 C   0  0  0  0  0  0  0  0  0  0  0  0
   -0.4790   24.6830  -24.7660 N   0  0  0  0  0  0  0  0  0  0  0  0
   -1.0730   25.8630  -24.7090 N   0  0  0  0  0  0  0  0  0  0  0  0
   -0.8610   26.8270  -23.6380 C   0  0  0  0  0  0  0  0  0  0  0  0
   -0.9714   26.3249  -22.6655 H   0  0  0  0  0  0  0  0  0  0  0  0
    0.1515   27.2492  -23.7198 H   0  0  0  0  0  0  0  0  0  0  0  0
   -1.6029   27.6350  -23.7198 H   0  0  0  0  0  0  0  0  0  0  0  0
   -1.9510   25.9910  -25.7190 C   0  0  0  0  0  0  0  0  0  0  0  0
   -2.5940   26.8632  -25.9082 H   0  0  0  0  0  0  0  0  0  0  0  0
   -1.9060   24.8350  -26.4800 C   0  0  0  0  0  0  0  0  0  0  0  0
   -2.6970   24.5170  -27.6960 C   0  0  0  0  0  0  0  0  0  0  0  0
   -2.1170   24.5480  -28.9710 C   0  0  0  0  0  0  0  0  0  0  0  0
   -1.0552   24.8125  -29.0837 H   0  0  0  0  0  0  0  0  0  0  0  0
   -2.8600   24.2530  -30.0670 N   0  0  0  0  0  0  0  0  0  0  0  0
   -4.1720   23.9240  -29.9690 C   0  0  0  0  0  0  0  0  0  0  0  0
   -4.8290   23.6540  -31.0600 N   0  0  0  0  0  0  0  0  0  0  0  0
   -6.5050   23.2160  -31.1700 S   0  0  0  0  0  0  0  0  0  0  0  0
   -7.2340   24.1690  -32.0760 O   0  0  0  0  0  0  0  0  0  0  0  0
   -7.1220   23.2580  -29.7990 O   0  0  0  0  0  0  0  0  0  0  0  0
   -6.6250   21.5840  -31.8380 C   0  0  0  0  0  0  0  0  0  0  0  0
   -5.4560   20.8970  -32.2070 C   0  0  0  0  0  0  0  0  0  0  0  0
   -4.4752   21.3775  -32.0763 H   0  0  0  0  0  0  0  0  0  0  0  0
   -5.5320   19.6070  -32.7390 C   0  0  0  0  0  0  0  0  0  0  0  0
   -4.6122   19.0766  -33.0265 H   0  0  0  0  0  0  0  0  0  0  0  0
   -6.7720   18.9910  -32.9060 C   0  0  0  0  0  0  0  0  0  0  0  0
   -6.8292   17.9751  -33.3239 H   0  0  0  0  0  0  0  0  0  0  0  0
   -7.9410   19.6630  -32.5430 C   0  0  0  0  0  0  0  0  0  0  0  0
   -8.9172   19.1739  -32.6765 H   0  0  0  0  0  0  0  0  0  0  0  0
   -7.8770   20.9560  -32.0100 C   0  0  0  0  0  0  0  0  0  0  0  0
   -9.3850   21.7520  -31.5700 Cl  0  0  0  0  0  0  0  0  0  0  0  0
   -4.7640   23.8860  -28.7370 N   0  0  0  0  0  0  0  0  0  0  0  0
   -5.7700   23.6370  -28.6180 H   0  0  0  0  0  0  0  0  0  0  0  0
   -4.0550   24.1740  -27.6140 C   0  0  0  0  0  0  0  0  0  0  0  0
   -4.5500   24.1379  -26.6323 H   0  0  0  0  0  0  0  0  0  0  0  0
  1  2  1  0
  2  3  2  0
  3  4  1  0
  4  5  1  0
  5  6  1  0
  5  7  1  0
  5  8  1  0
  4  9  1  0
  9 10  1  0
  9 11  2  0
 11 12  1  0
 12 13  1  0
 13 14  1  0
 13 15  2  0
 15 16  1  0
 16 17  2  0
 17 18  1  0
 18 19  2  0
 18 20  2  0
 18 21  1  0
 21 22  2  0
 22 23  1  0
 22 24  1  0
 24 25  1  0
 24 26  2  0
 26 27  1  0
 26 28  1  0
 28 29  1  0
 28 30  2  0
 30 31  1  0
 16 32  1  0
 32 33  1  0
 32 34  1  0
 34 35  1  0
 11  2  1  0
 34 12  2  0
 30 21  1  0
M  END
>  <UniqueID>  (40) 
36

>  <SMILES>  (40) 
Cn1cc(-c2cn/c(=N/S(=O)(=O)c3ccccc3Cl)[nH]c2)cn1

>  <Energy>  (40) 
76.15845806472919

>  <Genealogy>  (40) 
Cn1cc(-c2cn/c(=N/S(=O)(=O)c3ccccc3Cl)[nH]c2)cn1 (cis-trans isomerization)
Cn1cc(-c2cn/c(=N/S(=O)(=O)c3ccccc3Cl)[nH]c2)cn1 (3D coordinates assigned)
Cn1cc(-c2cn/c(=N/S(=O)(=O)c3ccccc3Cl)[nH]c2)cn1 (optimized conformer: 76.15845806472919 kcal/mol)

>  <smiles>  (40) 
Cn1cc(-c2cnc(=NS(=O)(=O)c3ccccc3Cl)[nH]c2)cn1

>  <score_type>  (40) 
oracle

>  <origin>  (40) 
adgpu

>  <m_score__min__energy>  (40) 
-8.4399999999999995

>  <m_primary>  (40) 
energy

$$$$
40:0
     RDKit          3D

 37 39  0  0  0  0  0  0  0  0999 V2000
   -9.5070   19.3810  -32.7380 C   0  0  0  0  0  0  0  0  0  0  0  0
   -9.4380   20.7890  -32.5350 O   0  0  0  0  0  0  0  0  0  0  0  0
   -8.3270   21.4600  -32.0050 C   0  0  0  0  0  0  0  0  0  0  0  0
   -8.3580   22.8240  -31.6660 C   0  0  0  0  0  0  0  0  0  0  0  0
   -7.2230   23.4480  -31.1400 C   0  0  0  0  0  0  0  0  0  0  0  0
   -6.0340   22.7240  -30.9430 C   0  0  0  0  0  0  0  0  0  0  0  0
   -4.8400   23.4020  -30.3830 C   0  0  0  0  0  0  0  0  0  0  0  0
   -4.0260   22.9540  -29.3570 C   0  0  0  0  0  0  0  0  0  0  0  0
   -3.0690   23.9460  -29.2290 C   0  0  0  0  0  0  0  0  0  0  0  0
   -1.9330   23.9900  -28.2710 C   0  0  0  0  0  0  0  0  0  0  0  0
   -1.7140   22.9270  -27.3730 C   0  0  0  0  0  0  0  0  0  0  0  0
   -0.6500   22.9610  -26.4700 C   0  0  0  0  0  0  0  0  0  0  0  0
    0.2240   24.0620  -26.4430 C   0  0  0  0  0  0  0  0  0  0  0  0
    1.3070   24.1410  -25.5540 O   0  0  0  0  0  0  0  0  0  0  0  0
    1.3990   25.0690  -24.4790 C   0  0  0  0  0  0  0  0  0  0  0  0
    0.0140   25.1190  -27.3300 C   0  0  0  0  0  0  0  0  0  0  0  0
   -1.0530   25.0940  -28.2410 C   0  0  0  0  0  0  0  0  0  0  0  0
   -1.2330   26.1690  -29.1120 O   0  0  0  0  0  0  0  0  0  0  0  0
   -3.3260   24.8800  -30.1170 O   0  0  0  0  0  0  0  0  0  0  0  0
   -4.3770   24.5880  -30.8250 N   0  0  0  0  0  0  0  0  0  0  0  0
   -6.0090   21.3590  -31.2840 C   0  0  0  0  0  0  0  0  0  0  0  0
   -7.1460   20.7370  -31.8090 C   0  0  0  0  0  0  0  0  0  0  0  0
   -9.5320   18.8709  -31.7638 H   0  0  0  0  0  0  0  0  0  0  0  0
  -10.4182   19.1363  -33.3035 H   0  0  0  0  0  0  0  0  0  0  0  0
   -8.6241   19.0484  -33.3035 H   0  0  0  0  0  0  0  0  0  0  0  0
   -9.2808   23.4037  -31.8155 H   0  0  0  0  0  0  0  0  0  0  0  0
   -7.2605   24.5156  -30.8777 H   0  0  0  0  0  0  0  0  0  0  0  0
   -4.1183   22.0239  -28.7770 H   0  0  0  0  0  0  0  0  0  0  0  0
   -2.3899   22.0592  -27.3835 H   0  0  0  0  0  0  0  0  0  0  0  0
   -0.4945   22.1219  -25.7759 H   0  0  0  0  0  0  0  0  0  0  0  0
    1.3454   24.5285  -23.5224 H   0  0  0  0  0  0  0  0  0  0  0  0
    2.3551   25.6093  -24.5418 H   0  0  0  0  0  0  0  0  0  0  0  0
    0.5676   25.7865  -24.5418 H   0  0  0  0  0  0  0  0  0  0  0  0
    0.6942   25.9834  -27.3147 H   0  0  0  0  0  0  0  0  0  0  0  0
   -1.6220   26.0450  -30.0390 H   0  0  0  0  0  0  0  0  0  0  0  0
   -5.0876   20.7766  -31.1364 H   0  0  0  0  0  0  0  0  0  0  0  0
   -7.1112   19.6690  -32.0703 H   0  0  0  0  0  0  0  0  0  0  0  0
  1  2  1  0
  2  3  1  0
  3  4  2  0
  4  5  1  0
  5  6  2  0
  6  7  1  0
  7  8  1  0
  8  9  2  0
  9 10  1  0
 10 11  2  0
 11 12  1  0
 12 13  2  0
 13 14  1  0
 14 15  1  0
 13 16  1  0
 16 17  2  0
 17 18  1  0
  9 19  1  0
 19 20  1  0
  6 21  1  0
 21 22  2  0
 22  3  1  0
 20  7  2  0
 17 10  1  0
  1 23  1  0
  1 24  1  0
  1 25  1  0
  4 26  1  0
  5 27  1  0
  8 28  1  0
 11 29  1  0
 12 30  1  0
 15 31  1  0
 15 32  1  0
 15 33  1  0
 16 34  1  0
 18 35  1  0
 21 36  1  0
 22 37  1  0
M  END
>  <UniqueID>  (41) 
37

>  <SMILES>  (41) 
COc1ccc(-c2cc(-c3ccc(OC)cc3O)on2)cc1

>  <Energy>  (41) 
72.12612195493928

>  <Genealogy>  (41) 
COc1ccc(-c2cc(-c3ccc(OC)cc3O)on2)cc1 (3D coordinates assigned)
COc1ccc(-c2cc(-c3ccc(OC)cc3O)on2)cc1 (optimized conformer: 72.12612195493928 kcal/mol)

>  <smiles>  (41) 
COc1ccc(-c2cc(-c3ccc(OC)cc3O)on2)cc1

>  <score_type>  (41) 
oracle

>  <origin>  (41) 
adgpu

>  <m_score__min__energy>  (41) 
-8.8699999999999992

>  <m_primary>  (41) 
energy

$$$$
41:0
     RDKit          3D

 22 23  0  0  0  0  0  0  0  0999 V2000
   -3.4256   24.2700  -25.6978 H   0  0  0  0  0  0  0  0  0  0  0  0
   -2.8120   24.5870  -26.5540 C   0  0  0  0  0  0  0  0  0  0  0  0
   -3.3260   24.5440  -27.8120 N   0  0  0  0  0  0  0  0  0  0  0  0
   -2.5990   24.9180  -28.9040 C   0  0  0  0  0  0  0  0  0  0  0  0
   -3.1130   24.8920  -30.1000 N   0  0  0  0  0  0  0  0  0  0  0  0
   -4.4140   24.4060  -30.4710 C   0  0  0  0  0  0  0  0  0  0  0  0
   -4.5040   23.2070  -31.1910 C   0  0  0  0  0  0  0  0  0  0  0  0
   -3.5861   22.6749  -31.4814 H   0  0  0  0  0  0  0  0  0  0  0  0
   -5.7500   22.6820  -31.5430 C   0  0  0  0  0  0  0  0  0  0  0  0
   -5.8094   21.7489  -32.1225 H   0  0  0  0  0  0  0  0  0  0  0  0
   -6.9220   23.3420  -31.1590 C   0  0  0  0  0  0  0  0  0  0  0  0
   -8.4860   22.6810  -31.5980 Cl  0  0  0  0  0  0  0  0  0  0  0  0
   -6.8450   24.5210  -30.4120 C   0  0  0  0  0  0  0  0  0  0  0  0
   -7.7663   25.0351  -30.1006 H   0  0  0  0  0  0  0  0  0  0  0  0
   -5.5980   25.0480  -30.0600 C   0  0  0  0  0  0  0  0  0  0  0  0
   -5.5420   25.9679  -29.4595 H   0  0  0  0  0  0  0  0  0  0  0  0
   -1.2900   25.3820  -28.7310 C   0  0  0  0  0  0  0  0  0  0  0  0
   -0.6974   25.7030  -29.6003 H   0  0  0  0  0  0  0  0  0  0  0  0
   -0.7410   25.4350  -27.4490 C   0  0  0  0  0  0  0  0  0  0  0  0
    0.2896   25.7915  -27.3048 H   0  0  0  0  0  0  0  0  0  0  0  0
   -1.5040   25.0340  -26.3490 C   0  0  0  0  0  0  0  0  0  0  0  0
   -0.8300   25.0970  -24.7310 Cl  0  0  0  0  0  0  0  0  0  0  0  0
  1  2  1  0
  2  3  1  0
  3  4  1  0
  4  5  2  0
  5  6  1  0
  6  7  2  0
  7  8  1  0
  7  9  1  0
  9 10  1  0
  9 11  2  0
 11 12  1  0
 11 13  1  0
 13 14  1  0
 13 15  2  0
 15 16  1  0
  4 17  1  0
 17 18  1  0
 17 19  2  0
 19 20  1  0
 19 21  1  0
 21 22  1  0
 21  2  2  0
 15  6  1  0
M  CHG  1   3  -1
M  END
>  <UniqueID>  (42) 
38

>  <SMILES>  (42) 
Clc1ccc(/N=c2/ccc(Cl)c[n-]2)cc1

>  <Energy>  (42) 
29.84385836246676

>  <Genealogy>  (42) 
Clc1ccc(N=c2ccc(Cl)c[n-]2)cc1 (protonated)
Clc1ccc(/N=c2/ccc(Cl)c[n-]2)cc1 (cis-trans isomerization)
Clc1ccc(/N=c2/ccc(Cl)c[n-]2)cc1 (3D coordinates assigned)
Clc1ccc(/N=c2/ccc(Cl)c[n-]2)cc1 (optimized conformer: 29.84385836246676 kcal/mol)

>  <smiles>  (42) 
Clc1ccc(N=c2ccc(Cl)c[nH]2)cc1

>  <score_type>  (42) 
oracle

>  <origin>  (42) 
adgpu

>  <m_score__min__energy>  (42) 
-7.2599999999999998

>  <m_primary>  (42) 
energy

$$$$
42:0
     RDKit          3D

 22 23  0  0  0  0  0  0  0  0999 V2000
   -9.1220   18.5200  -31.9640 C   0  0  0  0  0  0  0  0  0  0  0  0
   -9.0810   19.8560  -32.4560 O   0  0  0  0  0  0  0  0  0  0  0  0
   -8.1170   20.8060  -32.0880 C   0  0  0  0  0  0  0  0  0  0  0  0
   -8.4510   21.7470  -31.1090 C   0  0  0  0  0  0  0  0  0  0  0  0
   -7.5260   22.7160  -30.7070 C   0  0  0  0  0  0  0  0  0  0  0  0
   -6.2420   22.7600  -31.2810 C   0  0  0  0  0  0  0  0  0  0  0  0
   -5.2460   23.7790  -30.8690 C   0  0  0  0  0  0  0  0  0  0  0  0
   -5.3500   25.1520  -30.9970 C   0  0  0  0  0  0  0  0  0  0  0  0
   -4.2390   25.7290  -30.5040 N   0  0  0  0  0  0  0  0  0  0  0  0
   -3.4970   24.6830  -30.0920 C   0  0  0  0  0  0  0  0  0  0  0  0
   -2.3640   24.8210  -29.5630 O   0  0  0  0  0  0  0  0  0  0  0  0
   -4.0660   23.4800  -30.2920 N   0  0  0  0  0  0  0  0  0  0  0  0
   -5.9090   21.8120  -32.2650 C   0  0  0  0  0  0  0  0  0  0  0  0
   -6.8350   20.8450  -32.6650 C   0  0  0  0  0  0  0  0  0  0  0  0
   -9.1216   18.5341  -30.8641 H   0  0  0  0  0  0  0  0  0  0  0  0
  -10.0358   18.0246  -32.3240 H   0  0  0  0  0  0  0  0  0  0  0  0
   -8.2403   17.9695  -32.3240 H   0  0  0  0  0  0  0  0  0  0  0  0
   -9.4507   21.7249  -30.6507 H   0  0  0  0  0  0  0  0  0  0  0  0
   -7.8044   23.4495  -29.9360 H   0  0  0  0  0  0  0  0  0  0  0  0
   -6.2060   25.6879  -31.4331 H   0  0  0  0  0  0  0  0  0  0  0  0
   -4.9097   21.8319  -32.7243 H   0  0  0  0  0  0  0  0  0  0  0  0
   -6.5597   20.1100  -33.4357 H   0  0  0  0  0  0  0  0  0  0  0  0
  1  2  1  0
  2  3  1  0
  3  4  2  0
  4  5  1  0
  5  6  2  0
  6  7  1  0
  7  8  2  0
  8  9  1  0
  9 10  1  0
 10 11  2  0
 10 12  1  0
  6 13  1  0
 13 14  2  0
 14  3  1  0
 12  7  1  0
  1 15  1  0
  1 16  1  0
  1 17  1  0
  4 18  1  0
  5 19  1  0
  8 20  1  0
 13 21  1  0
 14 22  1  0
M  CHG  2   9  -1  12  -1
M  END
>  <UniqueID>  (43) 
39

>  <SMILES>  (43) 
COc1ccc(-c2c[n-]c(=O)[n-]2)cc1

>  <Energy>  (43) 
51.58077948916871

>  <Genealogy>  (43) 
COc1ccc(-c2c[n-]c(=O)[n-]2)cc1 (protonated)
COc1ccc(-c2c[n-]c(=O)[n-]2)cc1 (3D coordinates assigned)
COc1ccc(-c2c[n-]c(=O)[n-]2)cc1 (optimized conformer: 51.58077948916871 kcal/mol)

>  <smiles>  (43) 
COc1ccc(-c2c[nH]c(=O)[nH]2)cc1

>  <score_type>  (43) 
oracle

>  <origin>  (43) 
adgpu

>  <m_score__min__energy>  (43) 
-8.1300000000000008

>  <m_primary>  (43) 
energy

$$$$
43:0
     RDKit          3D

 43 45  0  0  0  0  0  0  0  0999 V2000
   -6.1980   16.8750  -34.1720 C   0  0  0  0  0  0  0  0  0  0  0  0
   -5.9870   18.3930  -34.0620 C   0  0  2  0  0  0  0  0  0  0  0  0
   -6.1090   18.9180  -35.3390 F   0  0  0  0  0  0  0  0  0  0  0  0
   -4.5820   18.7030  -33.5820 C   0  0  0  0  0  0  0  0  0  0  0  0
   -3.8570   17.7900  -33.0970 O   0  0  0  0  0  0  0  0  0  0  0  0
   -4.1020   20.0570  -33.6040 N   0  0  0  0  0  0  0  0  0  0  0  0
   -2.7830   20.4310  -33.1720 C   0  0  0  0  0  0  0  0  0  0  0  0
   -1.6950   20.1510  -34.0120 C   0  0  0  0  0  0  0  0  0  0  0  0
   -0.4030   20.5500  -33.6560 C   0  0  0  0  0  0  0  0  0  0  0  0
   -0.1880   21.2290  -32.4570 C   0  0  0  0  0  0  0  0  0  0  0  0
   -1.2590   21.4900  -31.5980 C   0  0  0  0  0  0  0  0  0  0  0  0
   -2.5530   21.0670  -31.9280 C   0  0  0  0  0  0  0  0  0  0  0  0
   -3.5790   21.3030  -31.0030 O   0  0  0  0  0  0  0  0  0  0  0  0
   -4.4130   22.4310  -30.9930 C   0  0  0  0  0  0  0  0  0  0  0  0
   -4.3480   23.2990  -29.8950 C   0  0  0  0  0  0  0  0  0  0  0  0
   -5.1680   24.4300  -29.8360 C   0  0  0  0  0  0  0  0  0  0  0  0
   -6.0630   24.6990  -30.8740 C   0  0  0  0  0  0  0  0  0  0  0  0
   -6.1450   23.8340  -31.9680 C   0  0  0  0  0  0  0  0  0  0  0  0
   -5.3290   22.7000  -32.0280 C   0  0  0  0  0  0  0  0  0  0  0  0
   -7.0470   18.9970  -33.1430 C   0  0  0  0  0  0  0  0  0  0  0  0
   -7.8300   18.1800  -32.3000 C   0  0  0  0  0  0  0  0  0  0  0  0
   -8.7970   18.7430  -31.4620 C   0  0  0  0  0  0  0  0  0  0  0  0
   -9.0000   20.1250  -31.4540 C   0  0  0  0  0  0  0  0  0  0  0  0
   -8.2370   20.9470  -32.2840 C   0  0  0  0  0  0  0  0  0  0  0  0
   -7.2680   20.3900  -33.1240 C   0  0  0  0  0  0  0  0  0  0  0  0
   -6.2586   16.4392  -33.1638 H   0  0  0  0  0  0  0  0  0  0  0  0
   -7.1328   16.6732  -34.7155 H   0  0  0  0  0  0  0  0  0  0  0  0
   -5.3536   16.4259  -34.7155 H   0  0  0  0  0  0  0  0  0  0  0  0
   -4.7980   20.8230  -33.7480 H   0  0  0  0  0  0  0  0  0  0  0  0
   -1.8594   19.6136  -34.9576 H   0  0  0  0  0  0  0  0  0  0  0  0
    0.4440   20.3282  -34.3219 H   0  0  0  0  0  0  0  0  0  0  0  0
    0.8258   21.5595  -32.1871 H   0  0  0  0  0  0  0  0  0  0  0  0
   -1.0847   22.0313  -30.6564 H   0  0  0  0  0  0  0  0  0  0  0  0
   -3.6470   23.0892  -29.0737 H   0  0  0  0  0  0  0  0  0  0  0  0
   -5.1082   25.1081  -28.9719 H   0  0  0  0  0  0  0  0  0  0  0  0
   -6.7035   25.5922  -30.8301 H   0  0  0  0  0  0  0  0  0  0  0  0
   -6.8525   24.0453  -32.7834 H   0  0  0  0  0  0  0  0  0  0  0  0
   -5.4029   22.0160  -32.8863 H   0  0  0  0  0  0  0  0  0  0  0  0
   -7.6781   17.0905  -32.3023 H   0  0  0  0  0  0  0  0  0  0  0  0
   -9.3995   18.0961  -30.8073 H   0  0  0  0  0  0  0  0  0  0  0  0
   -9.7614   20.5653  -30.7933 H   0  0  0  0  0  0  0  0  0  0  0  0
   -8.3981   22.0351  -32.2775 H   0  0  0  0  0  0  0  0  0  0  0  0
   -6.6719   21.0447  -33.7767 H   0  0  0  0  0  0  0  0  0  0  0  0
  1  2  1  0
  2  3  1  6
  2  4  1  0
  4  5  2  0
  4  6  1  0
  6  7  1  0
  7  8  2  0
  8  9  1  0
  9 10  2  0
 10 11  1  0
 11 12  2  0
 12 13  1  0
 13 14  1  0
 14 15  2  0
 15 16  1  0
 16 17  2  0
 17 18  1  0
 18 19  2  0
  2 20  1  0
 20 21  2  0
 21 22  1  0
 22 23  2  0
 23 24  1  0
 24 25  2  0
 12  7  1  0
 19 14  1  0
 25 20  1  0
  1 26  1  0
  1 27  1  0
  1 28  1  0
  6 29  1  0
  8 30  1  0
  9 31  1  0
 10 32  1  0
 11 33  1  0
 15 34  1  0
 16 35  1  0
 17 36  1  0
 18 37  1  0
 19 38  1  0
 21 39  1  0
 22 40  1  0
 23 41  1  0
 24 42  1  0
 25 43  1  0
M  END
>  <UniqueID>  (44) 
40

>  <SMILES>  (44) 
C[C@](F)(C(=O)Nc1ccccc1Oc1ccccc1)c1ccccc1

>  <Energy>  (44) 
56.41049105699443

>  <Genealogy>  (44) 
C[C@](F)(C(=O)Nc1ccccc1Oc1ccccc1)c1ccccc1 (chirality)
C[C@](F)(C(=O)Nc1ccccc1Oc1ccccc1)c1ccccc1 (3D coordinates assigned)
C[C@](F)(C(=O)Nc1ccccc1Oc1ccccc1)c1ccccc1 (optimized conformer: 56.41049105699443 kcal/mol)

>  <smiles>  (44) 
CC(F)(C(=O)Nc1ccccc1Oc1ccccc1)c1ccccc1

>  <score_type>  (44) 
oracle

>  <origin>  (44) 
adgpu

>  <m_score__min__energy>  (44) 
-8.1999999999999993

>  <m_primary>  (44) 
energy

$$$$
44:0
     RDKit          3D

 17 18  0  0  0  0  0  0  0  0999 V2000
   -8.2100   20.3400  -32.4180 C   0  0  0  0  0  0  0  0  0  0  0  0
   -8.8800   21.3020  -31.6570 C   0  0  0  0  0  0  0  0  0  0  0  0
   -8.2070   22.4500  -31.2280 C   0  0  0  0  0  0  0  0  0  0  0  0
   -6.8540   22.6460  -31.5580 C   0  0  0  0  0  0  0  0  0  0  0  0
   -6.1400   23.8600  -31.1050 C   0  0  0  0  0  0  0  0  0  0  0  0
   -6.6940   24.8120  -30.3250 N   0  0  0  0  0  0  0  0  0  0  0  0
   -5.6760   25.6840  -30.1920 C   0  0  0  0  0  0  0  0  0  0  0  0
   -4.6140   25.2750  -30.8410 O   0  0  0  0  0  0  0  0  0  0  0  0
   -4.8610   24.1420  -31.4230 N   0  0  0  0  0  0  0  0  0  0  0  0
   -6.1900   21.6720  -32.3240 C   0  0  0  0  0  0  0  0  0  0  0  0
   -6.8660   20.5250  -32.7510 C   0  0  0  0  0  0  0  0  0  0  0  0
   -8.7409   19.4373  -32.7547 H   0  0  0  0  0  0  0  0  0  0  0  0
   -9.9383   21.1557  -31.3952 H   0  0  0  0  0  0  0  0  0  0  0  0
   -8.7387   23.2040  -30.6291 H   0  0  0  0  0  0  0  0  0  0  0  0
   -5.7294   26.6181  -29.6136 H   0  0  0  0  0  0  0  0  0  0  0  0
   -5.1318   21.8132  -32.5891 H   0  0  0  0  0  0  0  0  0  0  0  0
   -6.3390   19.7675  -33.3497 H   0  0  0  0  0  0  0  0  0  0  0  0
  1  2  2  0
  2  3  1  0
  3  4  2  0
  4  5  1  0
  5  6  1  0
  6  7  2  0
  7  8  1  0
  8  9  1  0
  4 10  1  0
 10 11  2  0
 11  1  1  0
  9  5  2  0
  1 12  1  0
  2 13  1  0
  3 14  1  0
  7 15  1  0
 10 16  1  0
 11 17  1  0
M  END
>  <UniqueID>  (45) 
41

>  <SMILES>  (45) 
c1ccc(-c2ncon2)cc1

>  <Energy>  (45) 
50.98483871352763

>  <Genealogy>  (45) 
c1ccc(-c2ncon2)cc1 (3D coordinates assigned)
c1ccc(-c2ncon2)cc1 (optimized conformer: 50.98483871352763 kcal/mol)

>  <smiles>  (45) 
c1ccc(-c2ncon2)cc1

>  <score_type>  (45) 
oracle

>  <origin>  (45) 
adgpu

>  <m_score__min__energy>  (45) 
-6.1799999999999997

>  <m_primary>  (45) 
energy

$$$$
45:0
     RDKit          3D

 33 35  0  0  0  0  0  0  0  0999 V2000
   -5.0840   17.5240  -34.4890 C   0  0  0  0  0  0  0  0  0  0  0  0
   -6.0190   18.2870  -33.5970 C   0  0  0  0  0  0  0  0  0  0  0  0
   -6.8590   17.6030  -32.7050 C   0  0  0  0  0  0  0  0  0  0  0  0
   -7.7020   18.3140  -31.8480 C   0  0  0  0  0  0  0  0  0  0  0  0
   -7.7000   19.7110  -31.8640 C   0  0  0  0  0  0  0  0  0  0  0  0
   -6.8520   20.4110  -32.7310 C   0  0  0  0  0  0  0  0  0  0  0  0
   -6.8680   21.8440  -32.6980 N   0  0  0  0  0  0  0  0  0  0  0  0
   -6.7430   22.8120  -31.2640 S   0  0  0  0  0  0  0  0  0  0  0  0
   -7.2530   24.1960  -31.5610 O   0  0  0  0  0  0  0  0  0  0  0  0
   -7.5850   22.2010  -30.1810 O   0  0  0  0  0  0  0  0  0  0  0  0
   -5.0680   22.8700  -30.7210 C   0  0  0  0  0  0  0  0  0  0  0  0
   -4.2730   21.7160  -30.7900 C   0  0  0  0  0  0  0  0  0  0  0  0
   -2.9360   21.7530  -30.3790 C   0  0  0  0  0  0  0  0  0  0  0  0
   -2.3900   22.9450  -29.8930 C   0  0  0  0  0  0  0  0  0  0  0  0
   -1.0930   23.0000  -29.4910 N   0  0  0  0  0  0  0  0  0  0  0  0
   -0.5520   24.1540  -29.0190 C   0  0  0  0  0  0  0  0  0  0  0  0
    0.6540   24.1760  -28.6530 O   0  0  0  0  0  0  0  0  0  0  0  0
   -1.3440   25.3090  -28.9430 C   0  0  0  0  0  0  0  0  0  0  0  0
   -0.8670   26.3900  -28.5080 O   0  0  0  0  0  0  0  0  0  0  0  0
   -2.6420   25.2570  -29.3450 N   0  0  0  0  0  0  0  0  0  0  0  0
   -3.1870   24.1060  -29.8180 C   0  0  0  0  0  0  0  0  0  0  0  0
   -4.5230   24.0650  -30.2300 C   0  0  0  0  0  0  0  0  0  0  0  0
   -6.0080   19.6910  -33.5990 C   0  0  0  0  0  0  0  0  0  0  0  0
   -4.3780   16.9478  -33.8729 H   0  0  0  0  0  0  0  0  0  0  0  0
   -5.6622   16.8366  -35.1239 H   0  0  0  0  0  0  0  0  0  0  0  0
   -4.5265   18.2283  -35.1239 H   0  0  0  0  0  0  0  0  0  0  0  0
   -6.8535   16.5033  -32.6807 H   0  0  0  0  0  0  0  0  0  0  0  0
   -8.3683   17.7734  -31.1596 H   0  0  0  0  0  0  0  0  0  0  0  0
   -8.3698   20.2654  -31.1902 H   0  0  0  0  0  0  0  0  0  0  0  0
   -4.7030   20.7772  -31.1692 H   0  0  0  0  0  0  0  0  0  0  0  0
   -2.3158   20.8464  -30.4381 H   0  0  0  0  0  0  0  0  0  0  0  0
   -5.1458   24.9697  -30.1689 H   0  0  0  0  0  0  0  0  0  0  0  0
   -5.3365   20.2317  -34.2822 H   0  0  0  0  0  0  0  0  0  0  0  0
  1  2  1  0
  2  3  2  0
  3  4  1  0
  4  5  2  0
  5  6  1  0
  6  7  1  0
  7  8  1  0
  8  9  2  0
  8 10  2  0
  8 11  1  0
 11 12  2  0
 12 13  1  0
 13 14  2  0
 14 15  1  0
 15 16  1  0
 16 17  2  0
 16 18  1  0
 18 19  2  0
 18 20  1  0
 20 21  1  0
 21 22  2  0
  6 23  2  0
 23  2  1  0
 22 11  1  0
 21 14  1  0
  1 24  1  0
  1 25  1  0
  1 26  1  0
  3 27  1  0
  4 28  1  0
  5 29  1  0
 12 30  1  0
 13 31  1  0
 22 32  1  0
 23 33  1  0
M  CHG  3   7  -1  15  -1  20  -1
M  END
>  <UniqueID>  (46) 
42

>  <SMILES>  (46) 
Cc1cccc([N-]S(=O)(=O)c2ccc3[n-]c(=O)c(=O)[n-]c3c2)c1

>  <Energy>  (46) 
42.40696517722589

>  <Genealogy>  (46) 
Cc1cccc([N-]S(=O)(=O)c2ccc3[n-]c(=O)c(=O)[n-]c3c2)c1 (protonated)
Cc1cccc([N-]S(=O)(=O)c2ccc3[n-]c(=O)c(=O)[n-]c3c2)c1 (3D coordinates assigned)
Cc1cccc([N-]S(=O)(=O)c2ccc3[n-]c(=O)c(=O)[n-]c3c2)c1 (optimized conformer: 42.40696517722589 kcal/mol)

>  <smiles>  (46) 
Cc1cccc(NS(=O)(=O)c2ccc3[nH]c(=O)c(=O)[nH]c3c2)c1

>  <score_type>  (46) 
oracle

>  <origin>  (46) 
adgpu

>  <m_score__min__energy>  (46) 
-10.66

>  <m_primary>  (46) 
energy

$$$$
46:0
     RDKit          3D

 48 51  0  0  0  0  0  0  0  0999 V2000
   -4.9880   13.9320  -32.4190 C   0  0  0  0  0  0  0  0  0  0  0  0
   -5.4680   14.7680  -33.9140 S   0  0  0  0  0  0  0  0  0  0  0  0
   -4.8950   14.0460  -35.1010 O   0  0  0  0  0  0  0  0  0  0  0  0
   -6.9660   14.7710  -34.0290 O   0  0  0  0  0  0  0  0  0  0  0  0
   -4.8650   16.4220  -33.8770 C   0  0  0  0  0  0  0  0  0  0  0  0
   -3.6480   16.7420  -34.4900 C   0  0  0  0  0  0  0  0  0  0  0  0
   -3.1780   18.0570  -34.4710 C   0  0  0  0  0  0  0  0  0  0  0  0
   -3.9230   19.0630  -33.8490 C   0  0  0  0  0  0  0  0  0  0  0  0
   -3.4230   20.3250  -33.8150 F   0  0  0  0  0  0  0  0  0  0  0  0
   -5.1570   18.7590  -33.2410 C   0  0  0  0  0  0  0  0  0  0  0  0
   -5.9670   19.8150  -32.5860 C   0  0  0  0  0  0  0  0  0  0  0  0
   -7.3420   19.6240  -32.3730 C   0  0  0  0  0  0  0  0  0  0  0  0
   -8.1050   20.6190  -31.7590 C   0  0  0  0  0  0  0  0  0  0  0  0
   -7.5080   21.8150  -31.3550 C   0  0  0  0  0  0  0  0  0  0  0  0
   -6.1350   22.0310  -31.5640 C   0  0  0  0  0  0  0  0  0  0  0  0
   -5.4960   23.3010  -31.1300 C   0  0  0  0  0  0  0  0  0  0  0  0
   -6.1540   24.5280  -31.3090 C   0  0  0  0  0  0  0  0  0  0  0  0
   -5.5300   25.7090  -30.9120 C   0  0  0  0  0  0  0  0  0  0  0  0
   -4.2960   25.6730  -30.3440 N   0  0  0  0  0  0  0  0  0  0  0  0
   -3.6280   24.5090  -30.1320 C   0  0  0  0  0  0  0  0  0  0  0  0
   -2.4430   24.5650  -29.5890 N   0  0  0  0  0  0  0  0  0  0  0  0
   -1.6080   23.4660  -29.1960 C   0  0  0  0  0  0  0  0  0  0  0  0
   -1.0170   23.4180  -27.9200 C   0  0  0  0  0  0  0  0  0  0  0  0
   -0.1660   22.3620  -27.5780 C   0  0  0  0  0  0  0  0  0  0  0  0
    0.1200   21.3630  -28.5130 C   0  0  0  0  0  0  0  0  0  0  0  0
   -0.4370   21.4240  -29.7940 C   0  0  0  0  0  0  0  0  0  0  0  0
   -1.2880   22.4790  -30.1380 C   0  0  0  0  0  0  0  0  0  0  0  0
   -4.2200   23.2940  -30.5410 C   0  0  0  0  0  0  0  0  0  0  0  0
   -5.3730   21.0240  -32.1870 C   0  0  0  0  0  0  0  0  0  0  0  0
   -5.6180   17.4290  -33.2600 C   0  0  0  0  0  0  0  0  0  0  0  0
   -5.3231   14.5156  -31.5488 H   0  0  0  0  0  0  0  0  0  0  0  0
   -5.4510   12.9345  -32.3919 H   0  0  0  0  0  0  0  0  0  0  0  0
   -3.8932   13.8290  -32.3919 H   0  0  0  0  0  0  0  0  0  0  0  0
   -3.0607   15.9563  -34.9876 H   0  0  0  0  0  0  0  0  0  0  0  0
   -2.2174   18.3021  -34.9476 H   0  0  0  0  0  0  0  0  0  0  0  0
   -7.8201   18.6859  -32.6915 H   0  0  0  0  0  0  0  0  0  0  0  0
   -9.1807   20.4602  -31.5928 H   0  0  0  0  0  0  0  0  0  0  0  0
   -8.1161   22.5929  -30.8702 H   0  0  0  0  0  0  0  0  0  0  0  0
   -7.1568   24.5571  -31.7602 H   0  0  0  0  0  0  0  0  0  0  0  0
   -6.0380   26.6736  -31.0589 H   0  0  0  0  0  0  0  0  0  0  0  0
   -1.2249   24.2134  -27.1892 H   0  0  0  0  0  0  0  0  0  0  0  0
    0.2784   22.3176  -26.5728 H   0  0  0  0  0  0  0  0  0  0  0  0
    0.7834   20.5288  -28.2409 H   0  0  0  0  0  0  0  0  0  0  0  0
   -0.2056   20.6416  -30.5317 H   0  0  0  0  0  0  0  0  0  0  0  0
   -1.7083   22.5344  -31.1530 H   0  0  0  0  0  0  0  0  0  0  0  0
   -3.6837   22.3442  -30.3989 H   0  0  0  0  0  0  0  0  0  0  0  0
   -4.2994   21.1860  -32.3634 H   0  0  0  0  0  0  0  0  0  0  0  0
   -6.5784   17.1783  -32.7859 H   0  0  0  0  0  0  0  0  0  0  0  0
  1  2  1  0
  2  3  2  0
  2  4  2  0
  2  5  1  0
  5  6  2  0
  6  7  1  0
  7  8  2  0
  8  9  1  0
  8 10  1  0
 10 11  1  0
 11 12  2  0
 12 13  1  0
 13 14  2  0
 14 15  1  0
 15 16  1  0
 16 17  1  0
 17 18  2  0
 18 19  1  0
 19 20  1  0
 20 21  2  3
 21 22  1  0
 22 23  2  0
 23 24  1  0
 24 25  2  0
 25 26  1  0
 26 27  2  0
 20 28  1  0
 15 29  2  0
 10 30  2  0
 30  5  1  0
 29 11  1  0
 28 16  2  0
 27 22  1  0
  1 31  1  0
  1 32  1  0
  1 33  1  0
  6 34  1  0
  7 35  1  0
 12 36  1  0
 13 37  1  0
 14 38  1  0
 17 39  1  0
 18 40  1  0
 23 41  1  0
 24 42  1  0
 25 43  1  0
 26 44  1  0
 27 45  1  0
 28 46  1  0
 29 47  1  0
 30 48  1  0
M  CHG  1  19  -1
M  END
>  <UniqueID>  (47) 
43

>  <SMILES>  (47) 
CS(=O)(=O)c1ccc(F)c(-c2cccc(-c3cc[n-]c(=Nc4ccccc4)c3)c2)c1

>  <Energy>  (47) 
71.41231268061092

>  <Genealogy>  (47) 
CS(=O)(=O)c1ccc(F)c(-c2cccc(-c3cc[n-]c(=Nc4ccccc4)c3)c2)c1 (protonated)
CS(=O)(=O)c1ccc(F)c(-c2cccc(-c3cc[n-]c(=Nc4ccccc4)c3)c2)c1 (3D coordinates assigned)
CS(=O)(=O)c1ccc(F)c(-c2cccc(-c3cc[n-]c(=Nc4ccccc4)c3)c2)c1 (optimized conformer: 71.41231268061092 kcal/mol)

>  <smiles>  (47) 
CS(=O)(=O)c1ccc(F)c(-c2cccc(-c3cc[nH]c(=Nc4ccccc4)c3)c2)c1

>  <score_type>  (47) 
oracle

>  <origin>  (47) 
adgpu

>  <m_score__min__energy>  (47) 
-11.460000000000001

>  <m_primary>  (47) 
energy

$$$$
47:0
     RDKit          3D

 34 35  0  0  0  0  0  0  0  0999 V2000
   -8.7670   18.9420  -31.6560 C   0  0  0  0  0  0  0  0  0  0  0  0
   -8.1720   19.7720  -32.7870 C   0  0  0  0  0  0  0  0  0  0  0  0
   -8.2850   21.1650  -32.5030 O   0  0  0  0  0  0  0  0  0  0  0  0
   -7.2990   21.9040  -31.8380 C   0  0  0  0  0  0  0  0  0  0  0  0
   -7.6500   22.6640  -30.7210 C   0  0  0  0  0  0  0  0  0  0  0  0
   -6.6690   23.4010  -30.0540 C   0  0  0  0  0  0  0  0  0  0  0  0
   -5.3390   23.3800  -30.5070 C   0  0  0  0  0  0  0  0  0  0  0  0
   -4.2770   24.1480  -29.8130 C   0  0  0  0  0  0  0  0  0  0  0  0
   -3.5920   24.9850  -30.4610 O   0  0  0  0  0  0  0  0  0  0  0  0
   -4.0310   23.9650  -28.4080 N   0  0  0  0  0  0  0  0  0  0  0  0
   -2.9010   24.5550  -27.7480 C   0  0  0  0  0  0  0  0  0  0  0  0
   -3.0910   25.1660  -26.4990 C   0  0  0  0  0  0  0  0  0  0  0  0
   -2.0230   25.7820  -25.8410 C   0  0  0  0  0  0  0  0  0  0  0  0
   -2.2220   26.3840  -24.6430 F   0  0  0  0  0  0  0  0  0  0  0  0
   -0.7540   25.7840  -26.4210 C   0  0  0  0  0  0  0  0  0  0  0  0
   -0.5440   25.1540  -27.6500 C   0  0  0  0  0  0  0  0  0  0  0  0
   -1.6050   24.5230  -28.3170 C   0  0  0  0  0  0  0  0  0  0  0  0
   -1.3420   23.8140  -29.5340 N   0  0  0  0  0  0  0  0  0  0  0  0
   -5.0300   22.5910  -31.6280 C   0  0  0  0  0  0  0  0  0  0  0  0
   -6.0040   21.8830  -32.2590 N   0  0  0  0  0  0  0  0  0  0  0  0
   -8.4617   19.3679  -30.6888 H   0  0  0  0  0  0  0  0  0  0  0  0
   -9.8644   18.9528  -31.7314 H   0  0  0  0  0  0  0  0  0  0  0  0
   -8.4044   17.9062  -31.7314 H   0  0  0  0  0  0  0  0  0  0  0  0
   -7.1096   19.5125  -32.9051 H   0  0  0  0  0  0  0  0  0  0  0  0
   -8.7232   19.5540  -33.7136 H   0  0  0  0  0  0  0  0  0  0  0  0
   -8.6919   22.6823  -30.3686 H   0  0  0  0  0  0  0  0  0  0  0  0
   -6.9383   23.9997  -29.1714 H   0  0  0  0  0  0  0  0  0  0  0  0
   -4.8110   23.6130  -27.8090 H   0  0  0  0  0  0  0  0  0  0  0  0
   -4.0881   25.1600  -26.0344 H   0  0  0  0  0  0  0  0  0  0  0  0
    0.0826   26.2826  -25.9096 H   0  0  0  0  0  0  0  0  0  0  0  0
    0.4606   25.1526  -28.0982 H   0  0  0  0  0  0  0  0  0  0  0  0
   -1.5760   24.2190  -30.4680 H   0  0  0  0  0  0  0  0  0  0  0  0
   -0.9810   22.8350  -29.5100 H   0  0  0  0  0  0  0  0  0  0  0  0
   -3.9947   22.5460  -31.9968 H   0  0  0  0  0  0  0  0  0  0  0  0
  1  2  1  0
  2  3  1  0
  3  4  1  0
  4  5  2  0
  5  6  1  0
  6  7  2  0
  7  8  1  0
  8  9  2  0
  8 10  1  0
 10 11  1  0
 11 12  2  0
 12 13  1  0
 13 14  1  0
 13 15  2  0
 15 16  1  0
 16 17  2  0
 17 18  1  0
  7 19  1  0
 19 20  2  0
 20  4  1  0
 17 11  1  0
  1 21  1  0
  1 22  1  0
  1 23  1  0
  2 24  1  0
  2 25  1  0
  5 26  1  0
  6 27  1  0
 10 28  1  0
 12 29  1  0
 15 30  1  0
 16 31  1  0
 18 32  1  0
 18 33  1  0
 19 34  1  0
M  END
>  <UniqueID>  (48) 
44

>  <SMILES>  (48) 
CCOc1ccc(C(=O)Nc2cc(F)ccc2N)cn1

>  <Energy>  (48) 
38.79391996839747

>  <Genealogy>  (48) 
CCOc1ccc(C(=O)Nc2cc(F)ccc2N)cn1 (3D coordinates assigned)
CCOc1ccc(C(=O)Nc2cc(F)ccc2N)cn1 (optimized conformer: 38.79391996839747 kcal/mol)

>  <smiles>  (48) 
CCOc1ccc(C(=O)Nc2cc(F)ccc2N)cn1

>  <score_type>  (48) 
oracle

>  <origin>  (48) 
adgpu

>  <m_score__min__energy>  (48) 
-6.5899999999999999

>  <m_primary>  (48) 
energy

$$$$
48:0
     RDKit          3D

 27 28  0  0  0  0  0  0  0  0999 V2000
   -7.6100   18.1250  -32.4590 C   0  0  0  0  0  0  0  0  0  0  0  0
   -6.7450   19.0690  -33.0210 C   0  0  0  0  0  0  0  0  0  0  0  0
   -7.0040   20.4350  -32.8680 C   0  0  0  0  0  0  0  0  0  0  0  0
   -8.1300   20.8660  -32.1460 C   0  0  0  0  0  0  0  0  0  0  0  0
   -8.4100   22.3380  -31.9910 C   0  0  0  0  0  0  0  0  0  0  0  0
   -7.2600   23.1330  -32.4240 N   0  0  0  0  0  0  0  0  0  0  0  0
   -6.2100   23.5920  -31.5510 C   0  0  0  0  0  0  0  0  0  0  0  0
   -4.9120   23.0430  -31.5930 C   0  0  0  0  0  0  0  0  0  0  0  0
   -3.9170   23.5160  -30.7310 C   0  0  0  0  0  0  0  0  0  0  0  0
   -4.2040   24.5340  -29.8200 C   0  0  0  0  0  0  0  0  0  0  0  0
   -5.4870   25.0810  -29.7660 C   0  0  0  0  0  0  0  0  0  0  0  0
   -6.4860   24.6120  -30.6250 C   0  0  0  0  0  0  0  0  0  0  0  0
   -9.0000   19.9100  -31.5960 C   0  0  0  0  0  0  0  0  0  0  0  0
   -8.7380   18.5460  -31.7490 C   0  0  0  0  0  0  0  0  0  0  0  0
   -7.4028   17.0510  -32.5756 H   0  0  0  0  0  0  0  0  0  0  0  0
   -5.8601   18.7371  -33.5839 H   0  0  0  0  0  0  0  0  0  0  0  0
   -6.3235   21.1749  -33.3146 H   0  0  0  0  0  0  0  0  0  0  0  0
   -9.2844   22.6054  -32.6026 H   0  0  0  0  0  0  0  0  0  0  0  0
   -8.6065   22.5502  -30.9297 H   0  0  0  0  0  0  0  0  0  0  0  0
   -7.1840   23.3420  -33.4460 H   0  0  0  0  0  0  0  0  0  0  0  0
   -4.6807   22.2389  -32.3070 H   0  0  0  0  0  0  0  0  0  0  0  0
   -2.9059   23.0847  -30.7711 H   0  0  0  0  0  0  0  0  0  0  0  0
   -3.4190   24.9051  -29.1447 H   0  0  0  0  0  0  0  0  0  0  0  0
   -5.7127   25.8821  -29.0468 H   0  0  0  0  0  0  0  0  0  0  0  0
   -7.4959   25.0451  -30.5753 H   0  0  0  0  0  0  0  0  0  0  0  0
   -9.8923   20.2369  -31.0419 H   0  0  0  0  0  0  0  0  0  0  0  0
   -9.4201   17.8029  -31.3103 H   0  0  0  0  0  0  0  0  0  0  0  0
  1  2  2  0
  2  3  1  0
  3  4  2  0
  4  5  1  0
  5  6  1  0
  6  7  1  0
  7  8  2  0
  8  9  1  0
  9 10  2  0
 10 11  1  0
 11 12  2  0
  4 13  1  0
 13 14  2  0
 14  1  1  0
 12  7  1  0
  1 15  1  0
  2 16  1  0
  3 17  1  0
  5 18  1  0
  5 19  1  0
  6 20  1  0
  8 21  1  0
  9 22  1  0
 10 23  1  0
 11 24  1  0
 12 25  1  0
 13 26  1  0
 14 27  1  0
M  END
>  <UniqueID>  (49) 
45

>  <SMILES>  (49) 
c1ccc(CNc2ccccc2)cc1

>  <Energy>  (49) 
26.785191486105482

>  <Genealogy>  (49) 
c1ccc(CNc2ccccc2)cc1 (3D coordinates assigned)
c1ccc(CNc2ccccc2)cc1 (optimized conformer: 26.785191486105482 kcal/mol)

>  <smiles>  (49) 
c1ccc(CNc2ccccc2)cc1

>  <score_type>  (49) 
oracle

>  <origin>  (49) 
adgpu

>  <m_score__min__energy>  (49) 
-6.3600000000000003

>  <m_primary>  (49) 
energy

$$$$
