0:0
     RDKit          3D

 38 39  0  0  0  0  0  0  0  0999 V2000
   -1.6200   21.1090  -26.6460 C   0  0  0  0  0  0  0  0  0  0  0  0
   -1.5500   22.4330  -27.3480 C   0  0  0  0  0  0  0  0  0  0  0  0
   -0.6310   23.4030  -26.9300 C   0  0  0  0  0  0  0  0  0  0  0  0
   -0.5410   24.6210  -27.6040 C   0  0  0  0  0  0  0  0  0  0  0  0
   -1.3560   24.8820  -28.7100 C   0  0  0  0  0  0  0  0  0  0  0  0
   -1.2350   26.1140  -29.3430 O   0  0  0  0  0  0  0  0  0  0  0  0
   -2.2750   23.9070  -29.1630 C   0  0  0  0  0  0  0  0  0  0  0  0
   -3.1530   24.1340  -30.3430 C   0  0  0  0  0  0  0  0  0  0  0  0
   -3.2020   23.2720  -31.2630 O   0  0  0  0  0  0  0  0  0  0  0  0
   -3.9380   25.3270  -30.4560 N   0  0  0  0  0  0  0  0  0  0  0  0
   -5.2980   25.3560  -30.9840 C   0  0  0  0  0  0  0  0  0  0  0  0
   -6.2510   24.6070  -30.0490 C   0  0  0  0  0  0  0  0  0  0  0  0
   -6.6570   23.2900  -30.6520 C   0  0  0  0  0  0  0  0  0  0  0  0
   -7.8250   22.6430  -30.2220 C   0  0  0  0  0  0  0  0  0  0  0  0
   -8.2190   21.4340  -30.8060 C   0  0  0  0  0  0  0  0  0  0  0  0
   -7.4550   20.8670  -31.8350 C   0  0  0  0  0  0  0  0  0  0  0  0
   -7.9410   19.3400  -32.5620 S   0  0  0  0  0  0  0  0  0  0  0  0
   -6.8500   18.9360  -33.8400 N   0  0  0  0  0  0  0  0  0  0  0  0
   -7.9200   18.2510  -31.5260 O   0  0  0  0  0  0  0  0  0  0  0  0
   -9.3350   19.4570  -33.1100 O   0  0  0  0  0  0  0  0  0  0  0  0
   -6.2900   21.5140  -32.2700 C   0  0  0  0  0  0  0  0  0  0  0  0
   -5.8970   22.7220  -31.6880 C   0  0  0  0  0  0  0  0  0  0  0  0
   -2.3560   22.6820  -28.4680 C   0  0  0  0  0  0  0  0  0  0  0  0
   -1.6115   21.2700  -25.5579 H   0  0  0  0  0  0  0  0  0  0  0  0
   -2.5468   20.5905  -26.9327 H   0  0  0  0  0  0  0  0  0  0  0  0
   -0.7530   20.4957  -26.9327 H   0  0  0  0  0  0  0  0  0  0  0  0
    0.0221   23.2040  -26.0675 H   0  0  0  0  0  0  0  0  0  0  0  0
    0.1764   25.3819  -27.2629 H   0  0  0  0  0  0  0  0  0  0  0  0
   -5.6284   26.4011  -31.0765 H   0  0  0  0  0  0  0  0  0  0  0  0
   -5.3081   24.8670  -31.9693 H   0  0  0  0  0  0  0  0  0  0  0  0
   -5.7465   24.4248  -29.0886 H   0  0  0  0  0  0  0  0  0  0  0  0
   -7.1516   25.2196  -29.8952 H   0  0  0  0  0  0  0  0  0  0  0  0
   -8.4342   23.0883  -29.4217 H   0  0  0  0  0  0  0  0  0  0  0  0
   -9.1307   20.9273  -30.4565 H   0  0  0  0  0  0  0  0  0  0  0  0
   -7.1420   19.4880  -34.6770 H   0  0  0  0  0  0  0  0  0  0  0  0
   -5.6831   21.0692  -33.0723 H   0  0  0  0  0  0  0  0  0  0  0  0
   -4.9884   23.2305  -32.0427 H   0  0  0  0  0  0  0  0  0  0  0  0
   -3.0619   21.9107  -28.8098 H   0  0  0  0  0  0  0  0  0  0  0  0
  1  2  1  0
  2  3  2  0
  3  4  1  0
  4  5  2  0
  5  6  1  0
  5  7  1  0
  7  8  1  0
  8  9  2  0
  8 10  1  0
 10 11  1  0
 11 12  1  0
 12 13  1  0
 13 14  2  0
 14 15  1  0
 15 16  2  0
 16 17  1  0
 17 18  1  0
 17 19  2  0
 17 20  2  0
 16 21  1  0
 21 22  2  0
  7 23  2  0
 23  2  1  0
 22 13  1  0
  1 24  1  0
  1 25  1  0
  1 26  1  0
  3 27  1  0
  4 28  1  0
 11 29  1  0
 11 30  1  0
 12 31  1  0
 12 32  1  0
 14 33  1  0
 15 34  1  0
 18 35  1  0
 21 36  1  0
 22 37  1  0
 23 38  1  0
M  CHG  3   6  -1  10  -1  18  -1
M  END
>  <UniqueID>  (1) 
1

>  <SMILES>  (1) 
Cc1ccc([O-])c(C(=O)[N-]CCc2ccc(S([NH-])(=O)=O)cc2)c1

>  <Energy>  (1) 
35.82930922976305

>  <Genealogy>  (1) 
Cc1ccc([O-])c(C(=O)[N-]CCc2ccc(S([NH-])(=O)=O)cc2)c1 (protonated)
Cc1ccc([O-])c(C(=O)[N-]CCc2ccc(S([NH-])(=O)=O)cc2)c1 (3D coordinates assigned)
Cc1ccc([O-])c(C(=O)[N-]CCc2ccc(S([NH-])(=O)=O)cc2)c1 (optimized conformer: 35.82930922976305 kcal/mol)

>  <smiles>  (1) 
Cc1ccc(O)c(C(=O)NCCc2ccc(S(N)(=O)=O)cc2)c1

>  <score_type>  (1) 
oracle

>  <origin>  (1) 
adgpu

>  <m_score__min__energy>  (1) 
-13.02

>  <m_primary>  (1) 
energy

$$$$
1:0
     RDKit          3D

 43 46  0  0  0  0  0  0  0  0999 V2000
   -4.4200   22.4750  -33.2690 O   0  0  0  0  0  0  0  0  0  0  0  0
   -4.8720   22.7290  -31.8580 S   0  0  0  0  0  0  0  0  0  0  0  0
   -5.0960   24.2040  -31.6730 O   0  0  0  0  0  0  0  0  0  0  0  0
   -3.6060   22.2180  -30.7410 C   0  0  0  0  0  0  0  0  0  0  0  0
   -3.1040   20.9120  -30.8020 C   0  0  0  0  0  0  0  0  0  0  0  0
   -2.0820   20.5120  -29.9380 C   0  0  0  0  0  0  0  0  0  0  0  0
   -1.5540   21.4140  -29.0100 C   0  0  0  0  0  0  0  0  0  0  0  0
   -2.0430   22.7290  -28.9420 C   0  0  0  0  0  0  0  0  0  0  0  0
   -1.4950   23.6620  -27.9920 N   0  0  0  0  0  0  0  0  0  0  0  0
   -1.3040   24.9860  -28.1670 C   0  0  0  0  0  0  0  0  0  0  0  0
   -1.6440   25.6810  -29.3220 O   0  0  0  0  0  0  0  0  0  0  0  0
   -0.7540   25.5620  -27.0390 C   0  0  0  0  0  0  0  0  0  0  0  0
   -0.5980   24.5390  -26.1230 C   0  0  0  0  0  0  0  0  0  0  0  0
   -1.0610   23.3940  -26.7430 C   0  0  0  0  0  0  0  0  0  0  0  0
   -1.0600   22.1230  -26.1730 O   0  0  0  0  0  0  0  0  0  0  0  0
   -3.0720   23.1240  -29.8140 C   0  0  0  0  0  0  0  0  0  0  0  0
   -6.3590   21.8640  -31.5590 N   0  0  0  0  0  0  0  0  0  0  0  0
   -7.4740   22.6250  -30.9770 C   0  0  0  0  0  0  0  0  0  0  0  0
   -8.6040   21.7140  -30.4930 C   0  0  0  0  0  0  0  0  0  0  0  0
   -9.0370   20.7700  -31.6110 C   0  0  0  0  0  0  0  0  0  0  0  0
   -7.8640   19.9670  -32.0990 C   0  0  0  0  0  0  0  0  0  0  0  0
   -8.0730   18.6820  -32.6250 C   0  0  0  0  0  0  0  0  0  0  0  0
   -6.9970   17.9260  -33.0860 C   0  0  0  0  0  0  0  0  0  0  0  0
   -5.7050   18.4460  -33.0300 C   0  0  0  0  0  0  0  0  0  0  0  0
   -5.4850   19.7310  -32.5250 C   0  0  0  0  0  0  0  0  0  0  0  0
   -6.5620   20.5220  -32.0750 C   0  0  0  0  0  0  0  0  0  0  0  0
   -3.5155   20.1995  -31.5321 H   0  0  0  0  0  0  0  0  0  0  0  0
   -1.6918   19.4848  -29.9880 H   0  0  0  0  0  0  0  0  0  0  0  0
   -0.7517   21.0925  -28.3296 H   0  0  0  0  0  0  0  0  0  0  0  0
   -0.4928   26.6212  -26.8980 H   0  0  0  0  0  0  0  0  0  0  0  0
   -0.1879   24.6198  -25.1055 H   0  0  0  0  0  0  0  0  0  0  0  0
   -0.5660   21.9420  -25.3070 H   0  0  0  0  0  0  0  0  0  0  0  0
   -3.4613   24.1518  -29.7688 H   0  0  0  0  0  0  0  0  0  0  0  0
   -7.0979   23.2075  -30.1230 H   0  0  0  0  0  0  0  0  0  0  0  0
   -7.8808   23.2812  -31.7605 H   0  0  0  0  0  0  0  0  0  0  0  0
   -8.2516   21.1230  -29.6348 H   0  0  0  0  0  0  0  0  0  0  0  0
   -9.4621   22.3345  -30.1954 H   0  0  0  0  0  0  0  0  0  0  0  0
   -9.8109   20.0873  -31.2302 H   0  0  0  0  0  0  0  0  0  0  0  0
   -9.4365   21.3639  -32.4463 H   0  0  0  0  0  0  0  0  0  0  0  0
   -9.0917   18.2698  -32.6734 H   0  0  0  0  0  0  0  0  0  0  0  0
   -7.1673   16.9188  -33.4941 H   0  0  0  0  0  0  0  0  0  0  0  0
   -4.8557   17.8434  -33.3843 H   0  0  0  0  0  0  0  0  0  0  0  0
   -4.4607   20.1292  -32.4782 H   0  0  0  0  0  0  0  0  0  0  0  0
  1  2  2  0
  2  3  2  0
  2  4  1  0
  4  5  2  0
  5  6  1  0
  6  7  2  0
  7  8  1  0
  8  9  1  0
  9 10  1  0
 10 11  1  0
 10 12  2  0
 12 13  1  0
 13 14  2  0
 14 15  1  0
  8 16  2  0
  2 17  1  0
 17 18  1  0
 18 19  1  0
 19 20  1  0
 20 21  1  0
 21 22  2  0
 22 23  1  0
 23 24  2  0
 24 25  1  0
 25 26  2  0
 16  4  1  0
 26 17  1  0
 14  9  1  0
 26 21  1  0
  5 27  1  0
  6 28  1  0
  7 29  1  0
 12 30  1  0
 13 31  1  0
 15 32  1  0
 16 33  1  0
 18 34  1  0
 18 35  1  0
 19 36  1  0
 19 37  1  0
 20 38  1  0
 20 39  1  0
 22 40  1  0
 23 41  1  0
 24 42  1  0
 25 43  1  0
M  CHG  1  11  -1
M  END
>  <UniqueID>  (2) 
2

>  <SMILES>  (2) 
O=S(=O)(c1cccc(-n2c([O-])ccc2O)c1)N1CCCc2ccccc21

>  <Energy>  (2) 
83.36156470355552

>  <Genealogy>  (2) 
O=S(=O)(c1cccc(-n2c([O-])ccc2O)c1)N1CCCc2ccccc21 (protonated)
O=S(=O)(c1cccc(-n2c([O-])ccc2O)c1)N1CCCc2ccccc21 (3D coordinates assigned)
O=S(=O)(c1cccc(-n2c([O-])ccc2O)c1)N1CCCc2ccccc21 (nonaromatic ring conformer: 83.36156470355552 kcal/mol)

>  <smiles>  (2) 
O=S(=O)(c1cccc(-n2c(O)ccc2O)c1)N1CCCc2ccccc21

>  <score_type>  (2) 
oracle

>  <origin>  (2) 
adgpu

>  <m_score__min__energy>  (2) 
-12.109999999999999

>  <m_primary>  (2) 
energy

$$$$
2:0
     RDKit          3D

 40 41  0  0  0  0  0  0  0  0999 V2000
   -9.5340   21.6570  -31.2190 C   0  0  0  0  0  0  0  0  0  0  0  0
   -8.4060   20.9420  -31.8260 N   0  0  0  0  0  0  0  0  0  0  0  0
   -8.5930   19.5700  -32.3150 C   0  0  0  0  0  0  0  0  0  0  0  0
   -7.1240   21.6080  -31.9260 C   0  0  0  0  0  0  0  0  0  0  0  0
   -6.8900   22.8630  -31.3270 C   0  0  0  0  0  0  0  0  0  0  0  0
   -5.6330   23.4720  -31.4510 C   0  0  0  0  0  0  0  0  0  0  0  0
   -5.3720   24.8250  -30.8450 C   0  0  0  0  0  0  0  0  0  0  0  0
   -3.9370   25.0820  -30.7780 N   0  0  0  0  0  0  0  0  0  0  0  0
   -3.0800   24.5320  -29.7730 C   0  0  0  0  0  0  0  0  0  0  0  0
   -2.3930   25.2960  -29.0410 O   0  0  0  0  0  0  0  0  0  0  0  0
   -2.9820   23.1080  -29.6370 N   0  0  0  0  0  0  0  0  0  0  0  0
   -2.2900   22.4430  -28.5670 C   0  0  0  0  0  0  0  0  0  0  0  0
   -1.1600   23.0480  -28.0010 C   0  0  0  0  0  0  0  0  0  0  0  0
   -0.4680   22.4210  -26.9630 C   0  0  0  0  0  0  0  0  0  0  0  0
   -0.8820   21.1720  -26.4960 C   0  0  0  0  0  0  0  0  0  0  0  0
   -1.9810   20.5220  -27.0850 C   0  0  0  0  0  0  0  0  0  0  0  0
   -2.4500   19.1860  -26.5660 C   0  0  0  0  0  0  0  0  0  0  0  0
   -1.4730   18.2380  -26.8040 F   0  0  0  0  0  0  0  0  0  0  0  0
   -3.6200   18.7950  -27.1940 F   0  0  0  0  0  0  0  0  0  0  0  0
   -2.6920   19.2520  -25.2040 F   0  0  0  0  0  0  0  0  0  0  0  0
   -2.6900   21.1730  -28.1120 C   0  0  0  0  0  0  0  0  0  0  0  0
   -4.6260   22.8260  -32.1790 C   0  0  0  0  0  0  0  0  0  0  0  0
   -4.8870   21.5850  -32.7570 C   0  0  0  0  0  0  0  0  0  0  0  0
   -6.1110   21.0130  -32.6200 N   0  0  0  0  0  0  0  0  0  0  0  0
   -9.4535   21.6060  -30.1231 H   0  0  0  0  0  0  0  0  0  0  0  0
   -9.5163   22.7092  -31.5394 H   0  0  0  0  0  0  0  0  0  0  0  0
  -10.4780   21.1920  -31.5394 H   0  0  0  0  0  0  0  0  0  0  0  0
   -8.6863   18.8852  -31.4592 H   0  0  0  0  0  0  0  0  0  0  0  0
   -9.5063   19.5198  -32.9260 H   0  0  0  0  0  0  0  0  0  0  0  0
   -7.7265   19.2772  -32.9260 H   0  0  0  0  0  0  0  0  0  0  0  0
   -7.6917   23.3631  -30.7638 H   0  0  0  0  0  0  0  0  0  0  0  0
   -5.8506   25.5982  -31.4640 H   0  0  0  0  0  0  0  0  0  0  0  0
   -5.7872   24.8469  -29.8266 H   0  0  0  0  0  0  0  0  0  0  0  0
   -3.3600   22.5250  -30.4190 H   0  0  0  0  0  0  0  0  0  0  0  0
   -0.8160   24.0229  -28.3767 H   0  0  0  0  0  0  0  0  0  0  0  0
    0.4063   22.9127  -26.5116 H   0  0  0  0  0  0  0  0  0  0  0  0
   -0.3457   20.6940  -25.6630 H   0  0  0  0  0  0  0  0  0  0  0  0
   -3.5657   20.6839  -28.5635 H   0  0  0  0  0  0  0  0  0  0  0  0
   -3.6373   23.2942  -32.2936 H   0  0  0  0  0  0  0  0  0  0  0  0
   -4.0999   21.0678  -33.3253 H   0  0  0  0  0  0  0  0  0  0  0  0
  1  2  1  0
  2  3  1  0
  2  4  1  0
  4  5  2  0
  5  6  1  0
  6  7  1  0
  7  8  1  0
  8  9  1  0
  9 10  2  0
  9 11  1  0
 11 12  1  0
 12 13  2  0
 13 14  1  0
 14 15  2  0
 15 16  1  0
 16 17  1  0
 17 18  1  0
 17 19  1  0
 17 20  1  0
 16 21  2  0
  6 22  2  0
 22 23  1  0
 23 24  2  0
 24  4  1  0
 21 12  1  0
  1 25  1  0
  1 26  1  0
  1 27  1  0
  3 28  1  0
  3 29  1  0
  3 30  1  0
  5 31  1  0
  7 32  1  0
  7 33  1  0
 11 34  1  0
 13 35  1  0
 14 36  1  0
 15 37  1  0
 21 38  1  0
 22 39  1  0
 23 40  1  0
M  CHG  1   8  -1
M  END
>  <UniqueID>  (3) 
3

>  <SMILES>  (3) 
CN(C)c1cc(C[N-]C(=O)Nc2cccc(C(F)(F)F)c2)ccn1

>  <Energy>  (3) 
41.06924915441097

>  <Genealogy>  (3) 
CN(C)c1cc(C[N-]C(=O)Nc2cccc(C(F)(F)F)c2)ccn1 (protonated)
CN(C)c1cc(C[N-]C(=O)Nc2cccc(C(F)(F)F)c2)ccn1 (3D coordinates assigned)
CN(C)c1cc(C[N-]C(=O)Nc2cccc(C(F)(F)F)c2)ccn1 (optimized conformer: 41.06924915441097 kcal/mol)

>  <smiles>  (3) 
CN(C)c1cc(CNC(=O)Nc2cccc(C(F)(F)F)c2)ccn1

>  <score_type>  (3) 
oracle

>  <origin>  (3) 
adgpu

>  <m_score__min__energy>  (3) 
-8.5600000000000005

>  <m_primary>  (3) 
energy

$$$$
3:0
     RDKit          3D

 45 46  0  0  1  0  0  0  0  0999 V2000
   -6.5020   25.6810  -29.0400 C   0  0  0  0  0  0  0  0  0  0  0  0
   -6.4720   25.4680  -30.4370 O   0  0  0  0  0  0  0  0  0  0  0  0
   -6.7550   24.1910  -30.9010 C   0  0  0  0  0  0  0  0  0  0  0  0
   -7.1780   23.2150  -30.0240 C   0  0  0  0  0  0  0  0  0  0  0  0
   -7.4750   21.9220  -30.4260 C   0  0  0  0  0  0  0  0  0  0  0  0
   -7.3440   21.5910  -31.7590 C   0  0  0  0  0  0  0  0  0  0  0  0
   -7.6900   19.9940  -32.3820 S   0  0  0  0  0  0  0  0  0  0  0  0
   -8.9520   20.0470  -33.2140 O   0  0  0  0  0  0  0  0  0  0  0  0
   -7.9830   19.0960  -31.2080 O   0  0  0  0  0  0  0  0  0  0  0  0
   -6.3970   19.3240  -33.2830 N   0  0  0  0  0  0  0  0  0  0  0  0
   -6.7980   18.0180  -33.7490 C   0  0  0  0  0  0  0  0  0  0  0  0
   -5.6050   17.1710  -34.1450 C   0  0  0  0  0  0  0  0  0  0  0  0
   -4.4780   18.1480  -34.5080 C   0  0  0  0  0  0  0  0  0  0  0  0
   -3.5950   18.3430  -33.3810 N   0  0  0  0  0  0  0  0  0  0  0  0
   -3.4760   19.4940  -32.8230 C   0  0  0  0  0  0  0  0  0  0  0  0
   -2.6320   19.6230  -31.7670 N   0  0  0  0  0  0  0  0  0  0  0  0
   -2.4550   20.7840  -31.1360 C   0  0  0  0  0  0  0  0  0  0  0  0
   -3.1280   21.9180  -31.5300 C   0  0  0  0  0  0  0  0  0  0  0  0
   -2.9530   23.1990  -30.8570 C   0  0  0  0  0  0  0  0  0  0  0  0
   -1.7690   23.4130  -30.1560 O   0  0  0  0  0  0  0  0  0  0  0  0
   -3.8800   24.1060  -30.9160 N   0  0  0  0  0  0  0  0  0  0  0  0
   -3.6390   25.2860  -30.2550 O   0  0  0  0  0  0  0  0  0  0  0  0
   -3.9930   21.7960  -32.6080 C   0  0  0  0  0  0  0  0  0  0  0  0
   -4.1310   20.5960  -33.2080 N   0  0  0  0  0  0  0  0  0  0  0  0
   -6.9210   22.5620  -32.6510 C   0  0  0  0  0  0  0  0  0  0  0  0
   -6.6250   23.8490  -32.2510 C   0  0  0  0  0  0  0  0  0  0  0  0
   -6.3668   24.7213  -28.5198 H   0  0  0  0  0  0  0  0  0  0  0  0
   -5.6919   26.3690  -28.7565 H   0  0  0  0  0  0  0  0  0  0  0  0
   -7.4706   26.1185  -28.7565 H   0  0  0  0  0  0  0  0  0  0  0  0
   -7.2844   23.4732  -28.9600 H   0  0  0  0  0  0  0  0  0  0  0  0
   -7.8097   21.1721  -29.6941 H   0  0  0  0  0  0  0  0  0  0  0  0
   -5.5200   19.2770  -32.7430 H   0  0  0  0  0  0  0  0  0  0  0  0
   -7.3470   17.5061  -32.9449 H   0  0  0  0  0  0  0  0  0  0  0  0
   -7.4324   18.1519  -34.6376 H   0  0  0  0  0  0  0  0  0  0  0  0
   -5.2974   16.5313  -33.3046 H   0  0  0  0  0  0  0  0  0  0  0  0
   -5.8484   16.5122  -34.9916 H   0  0  0  0  0  0  0  0  0  0  0  0
   -3.9029   17.7398  -35.3521 H   0  0  0  0  0  0  0  0  0  0  0  0
   -4.9215   19.1160  -34.7843 H   0  0  0  0  0  0  0  0  0  0  0  0
   -1.7590   20.8365  -30.2858 H   0  0  0  0  0  0  0  0  0  0  0  0
   -1.5580   24.3740  -29.9160 H   0  0  0  0  0  0  0  0  0  0  0  0
   -4.4000   25.7000  -29.7170 H   0  0  0  0  0  0  0  0  0  0  0  0
   -4.5593   22.6673  -32.9688 H   0  0  0  0  0  0  0  0  0  0  0  0
   -4.7890   20.5420  -34.0140 H   0  0  0  0  0  0  0  0  0  0  0  0
   -6.8175   22.2986  -33.7140 H   0  0  0  0  0  0  0  0  0  0  0  0
   -6.2908   24.5970  -32.9850 H   0  0  0  0  0  0  0  0  0  0  0  0
  1  2  1  0
  2  3  1  0
  3  4  2  0
  4  5  1  0
  5  6  2  0
  6  7  1  0
  7  8  2  0
  7  9  2  0
  7 10  1  0
 10 11  1  0
 11 12  1  0
 12 13  1  0
 13 14  1  0
 14 15  2  3
 15 16  1  0
 16 17  2  0
 17 18  1  0
 18 19  1  0
 19 20  1  0
 19 21  2  0
 21 22  1  0
 18 23  2  0
 23 24  1  0
  6 25  1  0
 25 26  2  0
 26  3  1  0
 24 15  1  0
  1 27  1  0
  1 28  1  0
  1 29  1  0
  4 30  1  0
  5 31  1  0
 10 32  1  0
 11 33  1  0
 11 34  1  0
 12 35  1  0
 12 36  1  0
 13 37  1  0
 13 38  1  0
 17 39  1  0
 20 40  1  0
 22 41  1  0
 23 42  1  0
 24 43  1  0
 25 44  1  0
 26 45  1  0
M  END
>  <smiles>  (4) 
COc1ccc(S(=O)(=O)NCCCN=c2ncc(C(O)=NO)c[nH]2)cc1

>  <score_type>  (4) 
oracle

>  <origin>  (4) 
adgpu

>  <m_score__min__energy>  (4) 
-8.8599999999999994

>  <m_primary>  (4) 
energy

$$$$
4:0
     RDKit          3D

 45 47  0  0  0  0  0  0  0  0999 V2000
   -7.9130   18.2700  -31.3020 C   0  0  0  0  0  0  0  0  0  0  0  0
   -6.9630   18.4650  -32.4010 N   0  0  0  0  0  0  0  0  0  0  0  0
   -6.2270   17.3400  -32.9410 C   0  0  0  0  0  0  0  0  0  0  0  0
   -6.8850   16.3100  -33.6450 C   0  0  0  0  0  0  0  0  0  0  0  0
   -6.1650   15.2420  -34.1860 C   0  0  0  0  0  0  0  0  0  0  0  0
   -4.7780   15.1860  -34.0390 C   0  0  0  0  0  0  0  0  0  0  0  0
   -4.1090   16.1970  -33.3490 C   0  0  0  0  0  0  0  0  0  0  0  0
   -4.8250   17.2680  -32.8050 C   0  0  0  0  0  0  0  0  0  0  0  0
   -6.6920   20.0860  -32.9880 S   0  0  0  0  0  0  0  0  0  0  0  0
   -6.2590   20.0200  -34.4280 O   0  0  0  0  0  0  0  0  0  0  0  0
   -7.9600   20.8900  -32.9120 O   0  0  0  0  0  0  0  0  0  0  0  0
   -5.4530   20.8620  -32.0070 C   0  0  0  0  0  0  0  0  0  0  0  0
   -4.2860   20.1730  -31.6470 C   0  0  0  0  0  0  0  0  0  0  0  0
   -3.3450   20.7780  -30.8090 C   0  0  0  0  0  0  0  0  0  0  0  0
   -3.5680   22.0670  -30.3200 C   0  0  0  0  0  0  0  0  0  0  0  0
   -4.7320   22.7620  -30.6750 C   0  0  0  0  0  0  0  0  0  0  0  0
   -5.0360   24.3670  -30.0080 S   0  0  0  0  0  0  0  0  0  0  0  0
   -6.5000   24.4820  -29.6830 O   0  0  0  0  0  0  0  0  0  0  0  0
   -4.6660   25.4230  -31.0110 O   0  0  0  0  0  0  0  0  0  0  0  0
   -4.1150   24.6220  -28.5580 N   0  0  0  0  0  0  0  0  0  0  0  0
   -2.8880   23.9350  -28.2460 C   0  0  0  0  0  0  0  0  0  0  0  0
   -2.8830   22.7210  -27.5320 C   0  0  0  0  0  0  0  0  0  0  0  0
   -1.6780   22.0880  -27.2170 C   0  0  0  0  0  0  0  0  0  0  0  0
   -0.4650   22.6540  -27.6080 C   0  0  0  0  0  0  0  0  0  0  0  0
   -0.4540   23.8530  -28.3220 C   0  0  0  0  0  0  0  0  0  0  0  0
   -1.6540   24.4910  -28.6460 C   0  0  0  0  0  0  0  0  0  0  0  0
   -1.6150   25.6790  -29.3640 O   0  0  0  0  0  0  0  0  0  0  0  0
   -5.6600   22.1650  -31.5390 C   0  0  0  0  0  0  0  0  0  0  0  0
   -7.3889   18.3776  -30.3409 H   0  0  0  0  0  0  0  0  0  0  0  0
   -8.7121   19.0228  -31.3702 H   0  0  0  0  0  0  0  0  0  0  0  0
   -8.3509   17.2632  -31.3702 H   0  0  0  0  0  0  0  0  0  0  0  0
   -7.9773   16.3481  -33.7694 H   0  0  0  0  0  0  0  0  0  0  0  0
   -6.6921   14.4436  -34.7289 H   0  0  0  0  0  0  0  0  0  0  0  0
   -4.2128   14.3450  -34.4671 H   0  0  0  0  0  0  0  0  0  0  0  0
   -3.0161   16.1517  -33.2326 H   0  0  0  0  0  0  0  0  0  0  0  0
   -4.2891   18.0627  -32.2653 H   0  0  0  0  0  0  0  0  0  0  0  0
   -4.1108   19.1548  -32.0246 H   0  0  0  0  0  0  0  0  0  0  0  0
   -2.4270   20.2378  -30.5342 H   0  0  0  0  0  0  0  0  0  0  0  0
   -2.8288   22.5375  -29.6551 H   0  0  0  0  0  0  0  0  0  0  0  0
   -4.5220   25.2860  -27.8640 H   0  0  0  0  0  0  0  0  0  0  0  0
   -3.8354   22.2676  -27.2199 H   0  0  0  0  0  0  0  0  0  0  0  0
   -1.6861   21.1402  -26.6588 H   0  0  0  0  0  0  0  0  0  0  0  0
    0.4823   22.1559  -27.3539 H   0  0  0  0  0  0  0  0  0  0  0  0
    0.5035   24.2977  -28.6310 H   0  0  0  0  0  0  0  0  0  0  0  0
   -6.5552   22.7229  -31.8509 H   0  0  0  0  0  0  0  0  0  0  0  0
  1  2  1  0
  2  3  1  0
  3  4  2  0
  4  5  1  0
  5  6  2  0
  6  7  1  0
  7  8  2  0
  2  9  1  0
  9 10  2  0
  9 11  2  0
  9 12  1  0
 12 13  2  0
 13 14  1  0
 14 15  2  0
 15 16  1  0
 16 17  1  0
 17 18  2  0
 17 19  2  0
 17 20  1  0
 20 21  1  0
 21 22  2  0
 22 23  1  0
 23 24  2  0
 24 25  1  0
 25 26  2  0
 26 27  1  0
 16 28  2  0
  8  3  1  0
 28 12  1  0
 26 21  1  0
  1 29  1  0
  1 30  1  0
  1 31  1  0
  4 32  1  0
  5 33  1  0
  6 34  1  0
  7 35  1  0
  8 36  1  0
 13 37  1  0
 14 38  1  0
 15 39  1  0
 20 40  1  0
 22 41  1  0
 23 42  1  0
 24 43  1  0
 25 44  1  0
 28 45  1  0
M  CHG  1  27  -1
M  END
>  <UniqueID>  (5) 
4

>  <SMILES>  (5) 
CN(c1ccccc1)S(=O)(=O)c1cccc(S(=O)(=O)Nc2ccccc2[O-])c1

>  <Energy>  (5) 
50.37364546540015

>  <Genealogy>  (5) 
CN(c1ccccc1)S(=O)(=O)c1cccc(S(=O)(=O)Nc2ccccc2[O-])c1 (protonated)
CN(c1ccccc1)S(=O)(=O)c1cccc(S(=O)(=O)Nc2ccccc2[O-])c1 (3D coordinates assigned)
CN(c1ccccc1)S(=O)(=O)c1cccc(S(=O)(=O)Nc2ccccc2[O-])c1 (optimized conformer: 50.37364546540015 kcal/mol)

>  <smiles>  (5) 
CN(c1ccccc1)S(=O)(=O)c1cccc(S(=O)(=O)Nc2ccccc2O)c1

>  <score_type>  (5) 
oracle

>  <origin>  (5) 
adgpu

>  <m_score__min__energy>  (5) 
-12.960000000000001

>  <m_primary>  (5) 
energy

$$$$
5:0
     RDKit          3D

 40 42  0  0  0  0  0  0  0  0999 V2000
   -7.2200   15.9890  -34.1180 O   0  0  0  0  0  0  0  0  0  0  0  0
   -6.2800   16.6360  -33.5830 C   0  0  0  0  0  0  0  0  0  0  0  0
   -6.4500   18.0860  -33.3650 C   0  0  0  0  0  0  0  0  0  0  0  0
   -5.4510   18.9880  -33.7520 C   0  0  0  0  0  0  0  0  0  0  0  0
   -5.6100   20.3580  -33.5250 C   0  0  0  0  0  0  0  0  0  0  0  0
   -6.7630   20.8490  -32.8930 C   0  0  0  0  0  0  0  0  0  0  0  0
   -6.8910   22.2660  -32.6740 N   0  0  0  0  0  0  0  0  0  0  0  0
   -7.0720   22.9980  -31.1110 S   0  0  0  0  0  0  0  0  0  0  0  0
   -7.6480   21.9900  -30.1570 O   0  0  0  0  0  0  0  0  0  0  0  0
   -8.0180   24.1600  -31.2150 O   0  0  0  0  0  0  0  0  0  0  0  0
   -5.5120   23.5850  -30.5430 C   0  0  0  0  0  0  0  0  0  0  0  0
   -4.6910   22.7870  -29.7360 C   0  0  0  0  0  0  0  0  0  0  0  0
   -3.4500   23.2710  -29.3140 C   0  0  0  0  0  0  0  0  0  0  0  0
   -3.0440   24.5530  -29.7030 C   0  0  0  0  0  0  0  0  0  0  0  0
   -1.9290   25.0050  -29.3330 O   0  0  0  0  0  0  0  0  0  0  0  0
   -3.8570   25.3150  -30.4830 N   0  0  0  0  0  0  0  0  0  0  0  0
   -5.0700   24.8630  -30.9070 C   0  0  0  0  0  0  0  0  0  0  0  0
   -7.7580   19.9380  -32.4890 C   0  0  0  0  0  0  0  0  0  0  0  0
   -7.5970   18.5680  -32.7160 C   0  0  0  0  0  0  0  0  0  0  0  0
   -5.0690   15.9540  -33.2100 N   0  0  0  0  0  0  0  0  0  0  0  0
   -3.7730   16.6040  -33.0980 C   0  0  0  0  0  0  0  0  0  0  0  0
   -2.7730   15.4930  -32.8030 C   0  0  0  0  0  0  0  0  0  0  0  0
   -3.4890   14.1820  -33.1160 C   0  0  0  0  0  0  0  0  0  0  0  0
   -4.9780   14.5060  -33.1390 C   0  0  0  0  0  0  0  0  0  0  0  0
   -4.5364   18.6163  -34.2372 H   0  0  0  0  0  0  0  0  0  0  0  0
   -4.8240   21.0580  -33.8447 H   0  0  0  0  0  0  0  0  0  0  0  0
   -6.8350   22.9120  -33.4940 H   0  0  0  0  0  0  0  0  0  0  0  0
   -5.0223   21.7821  -29.4353 H   0  0  0  0  0  0  0  0  0  0  0  0
   -2.7980   22.6503  -28.6819 H   0  0  0  0  0  0  0  0  0  0  0  0
   -5.7043   25.5038  -31.5372 H   0  0  0  0  0  0  0  0  0  0  0  0
   -8.6674   20.3066  -31.9918 H   0  0  0  0  0  0  0  0  0  0  0  0
   -8.3740   17.8637  -32.3839 H   0  0  0  0  0  0  0  0  0  0  0  0
   -3.5159   17.1099  -34.0403 H   0  0  0  0  0  0  0  0  0  0  0  0
   -3.7717   17.3690  -32.3076 H   0  0  0  0  0  0  0  0  0  0  0  0
   -1.8825   15.6026  -33.4394 H   0  0  0  0  0  0  0  0  0  0  0  0
   -2.4348   15.5253  -31.7568 H   0  0  0  0  0  0  0  0  0  0  0  0
   -3.1675   13.7961  -34.0946 H   0  0  0  0  0  0  0  0  0  0  0  0
   -3.2581   13.4103  -32.3669 H   0  0  0  0  0  0  0  0  0  0  0  0
   -5.4555   14.0490  -34.0183 H   0  0  0  0  0  0  0  0  0  0  0  0
   -5.4909   14.1121  -32.2492 H   0  0  0  0  0  0  0  0  0  0  0  0
  1  2  2  0
  2  3  1  0
  3  4  2  0
  4  5  1  0
  5  6  2  0
  6  7  1  0
  7  8  1  0
  8  9  2  0
  8 10  2  0
  8 11  1  0
 11 12  1  0
 12 13  2  0
 13 14  1  0
 14 15  2  0
 14 16  1  0
 16 17  1  0
  6 18  1  0
 18 19  2  0
  2 20  1  0
 20 21  1  0
 21 22  1  0
 22 23  1  0
 23 24  1  0
 19  3  1  0
 24 20  1  0
 17 11  2  0
  4 25  1  0
  5 26  1  0
  7 27  1  0
 12 28  1  0
 13 29  1  0
 17 30  1  0
 18 31  1  0
 19 32  1  0
 21 33  1  0
 21 34  1  0
 22 35  1  0
 22 36  1  0
 23 37  1  0
 23 38  1  0
 24 39  1  0
 24 40  1  0
M  CHG  1  16  -1
M  END
>  <UniqueID>  (6) 
5

>  <SMILES>  (6) 
O=C(c1ccc(NS(=O)(=O)c2ccc(=O)[n-]c2)cc1)N1CCCC1

>  <Energy>  (6) 
49.81328003424987

>  <Genealogy>  (6) 
O=C(c1ccc(NS(=O)(=O)c2ccc(=O)[n-]c2)cc1)N1CCCC1 (protonated)
O=C(c1ccc(NS(=O)(=O)c2ccc(=O)[n-]c2)cc1)N1CCCC1 (3D coordinates assigned)
O=C(c1ccc(NS(=O)(=O)c2ccc(=O)[n-]c2)cc1)N1CCCC1 (nonaromatic ring conformer: 49.81328003424987 kcal/mol)

>  <smiles>  (6) 
O=C(c1ccc(NS(=O)(=O)c2ccc(=O)[nH]c2)cc1)N1CCCC1

>  <score_type>  (6) 
oracle

>  <origin>  (6) 
adgpu

>  <m_score__min__energy>  (6) 
-10.460000000000001

>  <m_primary>  (6) 
energy

$$$$
6:0
     RDKit          3D

 45 47  0  0  0  0  0  0  0  0999 V2000
   -6.2200   14.6390  -34.2290 C   0  0  0  0  0  0  0  0  0  0  0  0
   -6.9610   15.8350  -34.4410 O   0  0  0  0  0  0  0  0  0  0  0  0
   -6.6590   17.0700  -33.8480 C   0  0  0  0  0  0  0  0  0  0  0  0
   -5.7300   17.9680  -34.4050 C   0  0  0  0  0  0  0  0  0  0  0  0
   -5.4620   19.1870  -33.7760 C   0  0  0  0  0  0  0  0  0  0  0  0
   -6.1150   19.5340  -32.5800 C   0  0  0  0  0  0  0  0  0  0  0  0
   -5.8300   20.8290  -31.9110 C   0  0  0  0  0  0  0  0  0  0  0  0
   -4.5440   21.3960  -31.9670 C   0  0  0  0  0  0  0  0  0  0  0  0
   -4.2770   22.6140  -31.3360 C   0  0  0  0  0  0  0  0  0  0  0  0
   -5.2890   23.2820  -30.6370 C   0  0  0  0  0  0  0  0  0  0  0  0
   -4.9490   24.8100  -29.8320 S   0  0  0  0  0  0  0  0  0  0  0  0
   -4.0060   25.6410  -30.6570 O   0  0  0  0  0  0  0  0  0  0  0  0
   -6.2340   25.5670  -29.6520 O   0  0  0  0  0  0  0  0  0  0  0  0
   -4.2360   24.5210  -28.2770 N   0  0  0  0  0  0  0  0  0  0  0  0
   -3.4050   23.3810  -27.9820 C   0  0  0  0  0  0  0  0  0  0  0  0
   -3.9590   22.0850  -27.9580 C   0  0  0  0  0  0  0  0  0  0  0  0
   -3.1710   20.9780  -27.6410 C   0  0  0  0  0  0  0  0  0  0  0  0
   -1.8220   21.1440  -27.3370 C   0  0  0  0  0  0  0  0  0  0  0  0
   -1.2530   22.4170  -27.3550 C   0  0  0  0  0  0  0  0  0  0  0  0
   -2.0280   23.5440  -27.6790 C   0  0  0  0  0  0  0  0  0  0  0  0
   -1.2470   25.1310  -27.7280 S   0  0  0  0  0  0  0  0  0  0  0  0
   -1.2380   25.7560  -29.3400 N   0  0  0  0  0  0  0  0  0  0  0  0
   -1.9990   26.0910  -26.8490 O   0  0  0  0  0  0  0  0  0  0  0  0
    0.1710   25.0060  -27.2450 O   0  0  0  0  0  0  0  0  0  0  0  0
   -6.5730   22.7280  -30.5800 C   0  0  0  0  0  0  0  0  0  0  0  0
   -6.8420   21.5110  -31.2110 C   0  0  0  0  0  0  0  0  0  0  0  0
   -7.0420   18.6320  -32.0270 C   0  0  0  0  0  0  0  0  0  0  0  0
   -7.3090   17.4140  -32.6580 C   0  0  0  0  0  0  0  0  0  0  0  0
   -6.1104   14.4621  -33.1489 H   0  0  0  0  0  0  0  0  0  0  0  0
   -6.7518   13.7921  -34.6871 H   0  0  0  0  0  0  0  0  0  0  0  0
   -5.2249   14.7381  -34.6871 H   0  0  0  0  0  0  0  0  0  0  0  0
   -5.2120   17.7093  -35.3403 H   0  0  0  0  0  0  0  0  0  0  0  0
   -4.7337   19.8812  -34.2206 H   0  0  0  0  0  0  0  0  0  0  0  0
   -3.7420   20.8765  -32.5119 H   0  0  0  0  0  0  0  0  0  0  0  0
   -3.2681   23.0492  -31.3889 H   0  0  0  0  0  0  0  0  0  0  0  0
   -4.4220   25.2400  -27.5440 H   0  0  0  0  0  0  0  0  0  0  0  0
   -5.0247   21.9448  -28.1918 H   0  0  0  0  0  0  0  0  0  0  0  0
   -3.6161   19.9721  -27.6312 H   0  0  0  0  0  0  0  0  0  0  0  0
   -1.2047   20.2699  -27.0824 H   0  0  0  0  0  0  0  0  0  0  0  0
   -0.1870   22.5404  -27.1132 H   0  0  0  0  0  0  0  0  0  0  0  0
   -2.0350   25.3070  -29.8460 H   0  0  0  0  0  0  0  0  0  0  0  0
   -7.3728   23.2525  -30.0367 H   0  0  0  0  0  0  0  0  0  0  0  0
   -7.8537   21.0823  -31.1601 H   0  0  0  0  0  0  0  0  0  0  0  0
   -7.5605   18.8872  -31.0911 H   0  0  0  0  0  0  0  0  0  0  0  0
   -8.0373   16.7190  -32.2146 H   0  0  0  0  0  0  0  0  0  0  0  0
  1  2  1  0
  2  3  1  0
  3  4  2  0
  4  5  1  0
  5  6  2  0
  6  7  1  0
  7  8  2  0
  8  9  1  0
  9 10  2  0
 10 11  1  0
 11 12  2  0
 11 13  2  0
 11 14  1  0
 14 15  1  0
 15 16  2  0
 16 17  1  0
 17 18  2  0
 18 19  1  0
 19 20  2  0
 20 21  1  0
 21 22  1  0
 21 23  2  0
 21 24  2  0
 10 25  1  0
 25 26  2  0
  6 27  1  0
 27 28  2  0
 28  3  1  0
 26  7  1  0
 20 15  1  0
  1 29  1  0
  1 30  1  0
  1 31  1  0
  4 32  1  0
  5 33  1  0
  8 34  1  0
  9 35  1  0
 14 36  1  0
 16 37  1  0
 17 38  1  0
 18 39  1  0
 19 40  1  0
 22 41  1  0
 25 42  1  0
 26 43  1  0
 27 44  1  0
 28 45  1  0
M  CHG  1  22  -1
M  END
>  <UniqueID>  (7) 
6

>  <SMILES>  (7) 
COc1ccc(-c2ccc(S(=O)(=O)Nc3ccccc3S([NH-])(=O)=O)cc2)cc1

>  <Energy>  (7) 
57.74049291565913

>  <Genealogy>  (7) 
COc1ccc(-c2ccc(S(=O)(=O)Nc3ccccc3S([NH-])(=O)=O)cc2)cc1 (protonated)
COc1ccc(-c2ccc(S(=O)(=O)Nc3ccccc3S([NH-])(=O)=O)cc2)cc1 (3D coordinates assigned)
COc1ccc(-c2ccc(S(=O)(=O)Nc3ccccc3S([NH-])(=O)=O)cc2)cc1 (optimized conformer: 57.74049291565913 kcal/mol)

>  <smiles>  (7) 
COc1ccc(-c2ccc(S(=O)(=O)Nc3ccccc3S(N)(=O)=O)cc2)cc1

>  <score_type>  (7) 
oracle

>  <origin>  (7) 
adgpu

>  <m_score__min__energy>  (7) 
-12.720000000000001

>  <m_primary>  (7) 
energy

$$$$
7:0
     RDKit          3D

 45 48  0  0  0  0  0  0  0  0999 V2000
   -7.2570   25.6720  -29.6810 O   0  0  0  0  0  0  0  0  0  0  0  0
   -6.6250   24.7540  -30.2700 C   0  0  0  0  0  0  0  0  0  0  0  0
   -7.2980   23.8550  -31.1600 N   0  0  0  0  0  0  0  0  0  0  0  0
   -6.7550   22.6610  -31.7420 C   0  0  0  0  0  0  0  0  0  0  0  0
   -7.4620   21.4450  -31.7490 C   0  0  0  0  0  0  0  0  0  0  0  0
   -6.9040   20.3090  -32.3450 C   0  0  0  0  0  0  0  0  0  0  0  0
   -5.6450   20.3780  -32.9550 C   0  0  0  0  0  0  0  0  0  0  0  0
   -4.9400   18.9420  -33.6890 S   0  0  0  0  0  0  0  0  0  0  0  0
   -5.7400   18.5510  -34.9020 O   0  0  0  0  0  0  0  0  0  0  0  0
   -4.9610   17.8120  -32.6990 O   0  0  0  0  0  0  0  0  0  0  0  0
   -3.3060   19.2940  -34.1510 N   0  0  0  0  0  0  0  0  0  0  0  0
   -2.4100   19.7640  -33.3380 C   0  0  0  0  0  0  0  0  0  0  0  0
   -1.1160   20.0180  -33.8070 C   0  0  0  0  0  0  0  0  0  0  0  0
   -0.1540   20.5230  -32.9290 C   0  0  0  0  0  0  0  0  0  0  0  0
   -0.4900   20.7700  -31.5970 C   0  0  0  0  0  0  0  0  0  0  0  0
   -1.7910   20.5050  -31.1610 C   0  0  0  0  0  0  0  0  0  0  0  0
   -2.7130   20.0130  -32.0310 N   0  0  0  0  0  0  0  0  0  0  0  0
   -4.9460   21.5920  -32.9620 C   0  0  0  0  0  0  0  0  0  0  0  0
   -5.5040   22.7280  -32.3680 C   0  0  0  0  0  0  0  0  0  0  0  0
   -5.1950   24.5660  -30.0010 C   0  0  0  0  0  0  0  0  0  0  0  0
   -4.6380   23.5930  -29.1980 C   0  0  0  0  0  0  0  0  0  0  0  0
   -3.2810   23.8420  -29.2670 C   0  0  0  0  0  0  0  0  0  0  0  0
   -2.2170   23.1380  -28.5210 C   0  0  0  0  0  0  0  0  0  0  0  0
   -2.5500   21.9550  -27.8370 C   0  0  0  0  0  0  0  0  0  0  0  0
   -1.5650   21.2150  -27.1790 C   0  0  0  0  0  0  0  0  0  0  0  0
   -0.2390   21.6460  -27.1930 C   0  0  0  0  0  0  0  0  0  0  0  0
    0.1030   22.8300  -27.8470 C   0  0  0  0  0  0  0  0  0  0  0  0
   -0.8760   23.5960  -28.4930 C   0  0  0  0  0  0  0  0  0  0  0  0
   -0.4880   24.8130  -29.0560 O   0  0  0  0  0  0  0  0  0  0  0  0
   -3.0600   24.9200  -30.0470 N   0  0  0  0  0  0  0  0  0  0  0  0
   -4.2250   25.3550  -30.5020 N   0  0  0  0  0  0  0  0  0  0  0  0
   -8.4573   21.3871  -31.2841 H   0  0  0  0  0  0  0  0  0  0  0  0
   -7.4562   19.3577  -32.3345 H   0  0  0  0  0  0  0  0  0  0  0  0
   -0.8587   19.8216  -34.8583 H   0  0  0  0  0  0  0  0  0  0  0  0
    0.8663   20.7256  -33.2867 H   0  0  0  0  0  0  0  0  0  0  0  0
    0.2605   21.1686  -30.8986 H   0  0  0  0  0  0  0  0  0  0  0  0
   -2.0693   20.6945  -30.1138 H   0  0  0  0  0  0  0  0  0  0  0  0
   -3.9553   21.6517  -33.4362 H   0  0  0  0  0  0  0  0  0  0  0  0
   -4.9563   23.6816  -32.3925 H   0  0  0  0  0  0  0  0  0  0  0  0
   -5.1543   22.8024  -28.6337 H   0  0  0  0  0  0  0  0  0  0  0  0
   -3.5943   21.6099  -27.8201 H   0  0  0  0  0  0  0  0  0  0  0  0
   -1.8359   20.2902  -26.6486 H   0  0  0  0  0  0  0  0  0  0  0  0
    0.5375   21.0524  -26.6883 H   0  0  0  0  0  0  0  0  0  0  0  0
    1.1507   23.1650  -27.8555 H   0  0  0  0  0  0  0  0  0  0  0  0
   -0.9110   25.1970  -29.8890 H   0  0  0  0  0  0  0  0  0  0  0  0
  1  2  2  0
  2  3  1  0
  3  4  1  0
  4  5  2  0
  5  6  1  0
  6  7  2  0
  7  8  1  0
  8  9  2  0
  8 10  2  0
  8 11  1  0
 11 12  2  3
 12 13  1  0
 13 14  2  0
 14 15  1  0
 15 16  2  0
 16 17  1  0
  7 18  1  0
 18 19  2  0
  2 20  1  0
 20 21  1  0
 21 22  2  0
 22 23  1  0
 23 24  2  0
 24 25  1  0
 25 26  2  0
 26 27  1  0
 27 28  2  0
 28 29  1  0
 22 30  1  0
 30 31  1  0
 19  4  1  0
 31 20  2  0
 17 12  1  0
 28 23  1  0
  5 32  1  0
  6 33  1  0
 13 34  1  0
 14 35  1  0
 15 36  1  0
 16 37  1  0
 18 38  1  0
 19 39  1  0
 21 40  1  0
 24 41  1  0
 25 42  1  0
 26 43  1  0
 27 44  1  0
 29 45  1  0
M  CHG  3   3  -1  17  -1  30  -1
M  END
>  <UniqueID>  (8) 
7

>  <SMILES>  (8) 
O=C([N-]c1ccc(S(=O)(=O)N=c2cccc[n-]2)cc1)c1cc(-c2ccccc2O)[n-]n1

>  <Energy>  (8) 
92.88258917592898

>  <Genealogy>  (8) 
O=C([N-]c1ccc(S(=O)(=O)N=c2cccc[n-]2)cc1)c1cc(-c2ccccc2O)[n-]n1 (protonated)
O=C([N-]c1ccc(S(=O)(=O)N=c2cccc[n-]2)cc1)c1cc(-c2ccccc2O)[n-]n1 (3D coordinates assigned)
O=C([N-]c1ccc(S(=O)(=O)N=c2cccc[n-]2)cc1)c1cc(-c2ccccc2O)[n-]n1 (optimized conformer: 92.88258917592898 kcal/mol)

>  <smiles>  (8) 
O=C(Nc1ccc(S(=O)(=O)N=c2cccc[nH]2)cc1)c1cc(-c2ccccc2O)[nH]n1

>  <score_type>  (8) 
oracle

>  <origin>  (8) 
adgpu

>  <m_score__min__energy>  (8) 
-12.130000000000001

>  <m_primary>  (8) 
energy

$$$$
8:0
     RDKit          3D

 35 37  0  0  0  0  0  0  0  0999 V2000
   -9.6070   22.0420  -31.9170 C   0  0  0  0  0  0  0  0  0  0  0  0
   -8.2570   22.5280  -31.4750 C   0  0  0  0  0  0  0  0  0  0  0  0
   -7.8120   22.2870  -30.1670 C   0  0  0  0  0  0  0  0  0  0  0  0
   -6.5710   22.7710  -29.7450 C   0  0  0  0  0  0  0  0  0  0  0  0
   -5.7700   23.5170  -30.6190 C   0  0  0  0  0  0  0  0  0  0  0  0
   -4.2000   24.1130  -30.0920 S   0  0  0  0  0  0  0  0  0  0  0  0
   -3.8760   25.3940  -30.8100 O   0  0  0  0  0  0  0  0  0  0  0  0
   -4.2340   24.3840  -28.6130 O   0  0  0  0  0  0  0  0  0  0  0  0
   -2.9580   22.8870  -30.4530 C   0  0  0  0  0  0  0  0  0  0  0  0
   -3.4500   21.9540  -31.5080 C   0  0  0  0  0  0  0  0  0  0  0  0
   -4.3480   20.9760  -31.2900 N   0  0  0  0  0  0  0  0  0  0  0  0
   -4.4320   20.4130  -32.5160 C   0  0  0  0  0  0  0  0  0  0  0  0
   -5.3030   19.2620  -32.8340 C   0  0  0  0  0  0  0  0  0  0  0  0
   -6.6540   19.2550  -32.4490 C   0  0  0  0  0  0  0  0  0  0  0  0
   -7.4640   18.1610  -32.7580 C   0  0  0  0  0  0  0  0  0  0  0  0
   -6.9180   17.0790  -33.4500 C   0  0  0  0  0  0  0  0  0  0  0  0
   -5.6100   17.0970  -33.8180 N   0  0  0  0  0  0  0  0  0  0  0  0
   -4.7990   18.1500  -33.5300 C   0  0  0  0  0  0  0  0  0  0  0  0
   -3.6250   21.0170  -33.4130 N   0  0  0  0  0  0  0  0  0  0  0  0
   -3.0340   21.9630  -32.7500 O   0  0  0  0  0  0  0  0  0  0  0  0
   -6.2170   23.7670  -31.9240 C   0  0  0  0  0  0  0  0  0  0  0  0
   -7.4580   23.2840  -32.3480 C   0  0  0  0  0  0  0  0  0  0  0  0
  -10.2240   21.8199  -31.0338 H   0  0  0  0  0  0  0  0  0  0  0  0
  -10.0973   22.8201  -32.5205 H   0  0  0  0  0  0  0  0  0  0  0  0
   -9.4888   21.1300  -32.5205 H   0  0  0  0  0  0  0  0  0  0  0  0
   -8.4424   21.7147  -29.4706 H   0  0  0  0  0  0  0  0  0  0  0  0
   -6.2217   22.5654  -28.7224 H   0  0  0  0  0  0  0  0  0  0  0  0
   -2.0448   23.3876  -30.8071 H   0  0  0  0  0  0  0  0  0  0  0  0
   -2.7407   22.3147  -29.5391 H   0  0  0  0  0  0  0  0  0  0  0  0
   -7.0741   20.1128  -31.9033 H   0  0  0  0  0  0  0  0  0  0  0  0
   -8.5225   18.1518  -32.4589 H   0  0  0  0  0  0  0  0  0  0  0  0
   -7.5468   16.2111  -33.6977 H   0  0  0  0  0  0  0  0  0  0  0  0
   -3.7446   18.1313  -33.8430 H   0  0  0  0  0  0  0  0  0  0  0  0
   -5.5885   24.3456  -32.6170 H   0  0  0  0  0  0  0  0  0  0  0  0
   -7.8099   23.4966  -33.3683 H   0  0  0  0  0  0  0  0  0  0  0  0
  1  2  1  0
  2  3  2  0
  3  4  1  0
  4  5  2  0
  5  6  1  0
  6  7  2  0
  6  8  2  0
  6  9  1  0
  9 10  1  0
 10 11  2  0
 11 12  1  0
 12 13  1  0
 13 14  2  0
 14 15  1  0
 15 16  2  0
 16 17  1  0
 17 18  2  0
 12 19  2  0
 19 20  1  0
  5 21  1  0
 21 22  2  0
 22  2  1  0
 20 10  1  0
 18 13  1  0
  1 23  1  0
  1 24  1  0
  1 25  1  0
  3 26  1  0
  4 27  1  0
  9 28  1  0
  9 29  1  0
 14 30  1  0
 15 31  1  0
 16 32  1  0
 18 33  1  0
 21 34  1  0
 22 35  1  0
M  END
>  <UniqueID>  (9) 
8

>  <SMILES>  (9) 
Cc1ccc(S(=O)(=O)Cc2nc(-c3cccnc3)no2)cc1

>  <Energy>  (9) 
67.18664431364759

>  <Genealogy>  (9) 
Cc1ccc(S(=O)(=O)Cc2nc(-c3cccnc3)no2)cc1 (3D coordinates assigned)
Cc1ccc(S(=O)(=O)Cc2nc(-c3cccnc3)no2)cc1 (optimized conformer: 67.18664431364759 kcal/mol)

>  <smiles>  (9) 
Cc1ccc(S(=O)(=O)Cc2nc(-c3cccnc3)no2)cc1

>  <score_type>  (9) 
oracle

>  <origin>  (9) 
adgpu

>  <m_score__min__energy>  (9) 
-9.1400000000000006

>  <m_primary>  (9) 
energy

$$$$
9:0
     RDKit          3D

 56 59  0  0  0  0  0  0  0  0999 V2000
   -8.5150   22.6780  -31.1170 C   0  0  0  0  0  0  0  0  0  0  0  0
   -7.1870   23.3450  -30.9080 C   0  0  0  0  0  0  0  0  0  0  0  0
   -7.1280   24.6700  -30.4570 C   0  0  0  0  0  0  0  0  0  0  0  0
   -5.8940   25.3040  -30.2970 C   0  0  0  0  0  0  0  0  0  0  0  0
   -4.7080   24.6290  -30.5960 C   0  0  0  0  0  0  0  0  0  0  0  0
   -3.4950   25.2960  -30.4560 O   0  0  0  0  0  0  0  0  0  0  0  0
   -4.7510   23.2960  -31.0580 C   0  0  0  0  0  0  0  0  0  0  0  0
   -3.5080   22.5550  -31.3780 C   0  0  0  0  0  0  0  0  0  0  0  0
   -2.3300   22.8000  -30.6540 C   0  0  0  0  0  0  0  0  0  0  0  0
   -1.1550   22.1120  -30.9600 C   0  0  0  0  0  0  0  0  0  0  0  0
   -1.1330   21.1610  -31.9930 C   0  0  0  0  0  0  0  0  0  0  0  0
    0.1020   20.4970  -32.3260 N   0  0  0  0  0  0  0  0  0  0  0  0
    0.7150   19.5830  -31.3570 C   0  0  0  0  0  0  0  0  0  0  0  0
    2.1490   19.2460  -31.7710 C   0  0  0  0  0  0  0  0  0  0  0  0
    2.1800   18.7070  -33.1460 N   0  0  0  0  0  0  0  0  0  0  0  0
    3.5700   18.4770  -33.5690 C   0  0  0  0  0  0  0  0  0  0  0  0
    1.4340   19.5200  -34.1480 C   0  0  0  0  0  0  0  0  0  0  0  0
    0.8040   20.8000  -33.5770 C   0  0  0  0  0  0  0  0  0  0  0  0
   -2.3100   20.9200  -32.7300 C   0  0  0  0  0  0  0  0  0  0  0  0
   -2.2960   20.0160  -33.8350 N   0  0  0  0  0  0  0  0  0  0  0  0
   -3.0780   18.4770  -33.7290 S   0  0  0  0  0  0  0  0  0  0  0  0
   -2.3610   17.6000  -32.7420 O   0  0  0  0  0  0  0  0  0  0  0  0
   -3.0450   17.8120  -35.0760 O   0  0  0  0  0  0  0  0  0  0  0  0
   -4.7470   18.7270  -33.2300 C   0  0  0  0  0  0  0  0  0  0  0  0
   -5.3390   17.8770  -32.2840 C   0  0  0  0  0  0  0  0  0  0  0  0
   -6.6800   18.0500  -31.9280 C   0  0  0  0  0  0  0  0  0  0  0  0
   -7.4360   19.0670  -32.5190 C   0  0  0  0  0  0  0  0  0  0  0  0
   -6.8530   19.9100  -33.4690 C   0  0  0  0  0  0  0  0  0  0  0  0
   -5.5120   19.7390  -33.8270 C   0  0  0  0  0  0  0  0  0  0  0  0
   -3.4850   21.6180  -32.4220 C   0  0  0  0  0  0  0  0  0  0  0  0
   -5.9990   22.6690  -31.2250 C   0  0  0  0  0  0  0  0  0  0  0  0
   -8.9685   22.4502  -30.1411 H   0  0  0  0  0  0  0  0  0  0  0  0
   -9.1780   23.3500  -31.6816 H   0  0  0  0  0  0  0  0  0  0  0  0
   -8.3718   21.7448  -31.6816 H   0  0  0  0  0  0  0  0  0  0  0  0
   -8.0569   25.2129  -30.2281 H   0  0  0  0  0  0  0  0  0  0  0  0
   -5.8556   26.3414  -29.9333 H   0  0  0  0  0  0  0  0  0  0  0  0
   -2.3334   23.5396  -29.8397 H   0  0  0  0  0  0  0  0  0  0  0  0
   -0.2384   22.3164  -30.3872 H   0  0  0  0  0  0  0  0  0  0  0  0
    0.7271   20.0607  -30.3662 H   0  0  0  0  0  0  0  0  0  0  0  0
    0.1269   18.6540  -31.3229 H   0  0  0  0  0  0  0  0  0  0  0  0
    2.7620   20.1582  -31.7264 H   0  0  0  0  0  0  0  0  0  0  0  0
    2.5475   18.4858  -31.0830 H   0  0  0  0  0  0  0  0  0  0  0  0
    4.2107   18.3710  -32.6811 H   0  0  0  0  0  0  0  0  0  0  0  0
    3.6227   17.5579  -34.1711 H   0  0  0  0  0  0  0  0  0  0  0  0
    3.9160   19.3301  -34.1711 H   0  0  0  0  0  0  0  0  0  0  0  0
    2.1320   19.8064  -34.9485 H   0  0  0  0  0  0  0  0  0  0  0  0
    0.6051   18.8937  -34.5094 H   0  0  0  0  0  0  0  0  0  0  0  0
    1.5946   21.5395  -33.3815 H   0  0  0  0  0  0  0  0  0  0  0  0
    0.0863   21.2057  -34.3052 H   0  0  0  0  0  0  0  0  0  0  0  0
   -4.7473   17.0732  -31.8216 H   0  0  0  0  0  0  0  0  0  0  0  0
   -7.1407   17.3854  -31.1823 H   0  0  0  0  0  0  0  0  0  0  0  0
   -8.4902   19.2036  -32.2360 H   0  0  0  0  0  0  0  0  0  0  0  0
   -7.4491   20.7083  -33.9353 H   0  0  0  0  0  0  0  0  0  0  0  0
   -5.0563   20.4001  -34.5788 H   0  0  0  0  0  0  0  0  0  0  0  0
   -4.3988   21.4295  -33.0046 H   0  0  0  0  0  0  0  0  0  0  0  0
   -6.0441   21.6387  -31.6078 H   0  0  0  0  0  0  0  0  0  0  0  0
  1  2  1  0
  2  3  2  0
  3  4  1  0
  4  5  2  0
  5  6  1  0
  5  7  1  0
  7  8  1  0
  8  9  2  0
  9 10  1  0
 10 11  2  0
 11 12  1  0
 12 13  1  0
 13 14  1  0
 14 15  1  0
 15 16  1  0
 15 17  1  0
 17 18  1  0
 11 19  1  0
 19 20  1  0
 20 21  1  0
 21 22  2  0
 21 23  2  0
 21 24  1  0
 24 25  2  0
 25 26  1  0
 26 27  2  0
 27 28  1  0
 28 29  2  0
 19 30  2  0
  7 31  2  0
 31  2  1  0
 30  8  1  0
 18 12  1  0
 29 24  1  0
  1 32  1  0
  1 33  1  0
  1 34  1  0
  3 35  1  0
  4 36  1  0
  9 37  1  0
 10 38  1  0
 13 39  1  0
 13 40  1  0
 14 41  1  0
 14 42  1  0
 16 43  1  0
 16 44  1  0
 16 45  1  0
 17 46  1  0
 17 47  1  0
 18 48  1  0
 18 49  1  0
 25 50  1  0
 26 51  1  0
 27 52  1  0
 28 53  1  0
 29 54  1  0
 30 55  1  0
 31 56  1  0
M  CHG  2   6  -1  20  -1
M  END
>  <UniqueID>  (10) 
9

>  <SMILES>  (10) 
Cc1ccc([O-])c(-c2ccc(N3CCN(C)CC3)c([N-]S(=O)(=O)c3ccccc3)c2)c1

>  <Energy>  (10) 
80.9246022358944

>  <Genealogy>  (10) 
Cc1ccc([O-])c(-c2ccc(N3CCN(C)CC3)c([N-]S(=O)(=O)c3ccccc3)c2)c1 (protonated)
Cc1ccc([O-])c(-c2ccc(N3CCN(C)CC3)c([N-]S(=O)(=O)c3ccccc3)c2)c1 (3D coordinates assigned)
Cc1ccc([O-])c(-c2ccc(N3CCN(C)CC3)c([N-]S(=O)(=O)c3ccccc3)c2)c1 (nonaromatic ring conformer: 80.9246022358944 kcal/mol)

>  <smiles>  (10) 
Cc1ccc(O)c(-c2ccc(N3CCN(C)CC3)c(NS(=O)(=O)c3ccccc3)c2)c1

>  <score_type>  (10) 
oracle

>  <origin>  (10) 
adgpu

>  <m_score__min__energy>  (10) 
-12.609999999999999

>  <m_primary>  (10) 
energy

$$$$
10:0
     RDKit          3D

 38 40  0  0  0  0  0  0  0  0999 V2000
   -7.6620   19.5290  -31.6270 C   0  0  0  0  0  0  0  0  0  0  0  0
   -6.7580   18.7310  -32.5320 C   0  0  0  0  0  0  0  0  0  0  0  0
   -7.1450   17.4280  -32.8930 C   0  0  0  0  0  0  0  0  0  0  0  0
   -6.3620   16.6690  -33.7680 C   0  0  0  0  0  0  0  0  0  0  0  0
   -6.8660   15.0500  -34.2170 Cl  0  0  0  0  0  0  0  0  0  0  0  0
   -5.1840   17.2030  -34.2910 C   0  0  0  0  0  0  0  0  0  0  0  0
   -4.7770   18.4890  -33.9300 C   0  0  0  0  0  0  0  0  0  0  0  0
   -5.5400   19.2590  -33.0350 C   0  0  0  0  0  0  0  0  0  0  0  0
   -5.0500   20.6040  -32.6640 C   0  0  0  0  0  0  0  0  0  0  0  0
   -3.8660   20.7470  -32.2520 O   0  0  0  0  0  0  0  0  0  0  0  0
   -5.9370   21.7290  -32.6970 N   0  0  0  0  0  0  0  0  0  0  0  0
   -5.9230   22.8260  -31.7760 C   0  0  0  0  0  0  0  0  0  0  0  0
   -7.1400   23.3320  -31.3040 C   0  0  0  0  0  0  0  0  0  0  0  0
   -7.1620   24.4330  -30.4440 C   0  0  0  0  0  0  0  0  0  0  0  0
   -5.9680   25.0610  -30.0790 C   0  0  0  0  0  0  0  0  0  0  0  0
   -4.7450   24.6000  -30.5820 C   0  0  0  0  0  0  0  0  0  0  0  0
   -3.5400   25.2900  -30.2220 N   0  0  0  0  0  0  0  0  0  0  0  0
   -2.5210   24.8000  -29.3380 C   0  0  0  0  0  0  0  0  0  0  0  0
   -1.6170   25.5890  -28.9600 O   0  0  0  0  0  0  0  0  0  0  0  0
   -2.4750   23.3920  -28.8960 C   0  0  0  0  0  0  0  0  0  0  0  0
   -1.4940   22.4550  -29.2040 C   0  0  0  0  0  0  0  0  0  0  0  0
   -1.7280   21.2000  -28.6290 C   0  0  0  0  0  0  0  0  0  0  0  0
   -2.8820   21.1450  -27.8570 C   0  0  0  0  0  0  0  0  0  0  0  0
   -3.6080   22.6610  -27.8900 S   0  0  0  0  0  0  0  0  0  0  0  0
   -4.7250   23.4620  -31.4070 C   0  0  0  0  0  0  0  0  0  0  0  0
   -7.4151   19.3111  -30.5774 H   0  0  0  0  0  0  0  0  0  0  0  0
   -7.5208   20.6024  -31.8216 H   0  0  0  0  0  0  0  0  0  0  0  0
   -8.7096   19.2557  -31.8216 H   0  0  0  0  0  0  0  0  0  0  0  0
   -8.0726   17.0019  -32.4830 H   0  0  0  0  0  0  0  0  0  0  0  0
   -4.5748   16.6099  -34.9889 H   0  0  0  0  0  0  0  0  0  0  0  0
   -3.8492   18.9041  -34.3506 H   0  0  0  0  0  0  0  0  0  0  0  0
   -8.0846   22.8600  -31.6120 H   0  0  0  0  0  0  0  0  0  0  0  0
   -8.1204   24.8060  -30.0537 H   0  0  0  0  0  0  0  0  0  0  0  0
   -5.9889   25.9211  -29.3936 H   0  0  0  0  0  0  0  0  0  0  0  0
   -0.6217   22.6778  -29.8361 H   0  0  0  0  0  0  0  0  0  0  0  0
   -1.0605   20.3379  -28.7748 H   0  0  0  0  0  0  0  0  0  0  0  0
   -3.2559   20.2623  -27.3176 H   0  0  0  0  0  0  0  0  0  0  0  0
   -3.7639   23.0659  -31.7668 H   0  0  0  0  0  0  0  0  0  0  0  0
  1  2  1  0
  2  3  2  0
  3  4  1  0
  4  5  1  0
  4  6  2  0
  6  7  1  0
  7  8  2  0
  8  9  1  0
  9 10  2  0
  9 11  1  0
 11 12  1  0
 12 13  2  0
 13 14  1  0
 14 15  2  0
 15 16  1  0
 16 17  1  0
 17 18  1  0
 18 19  2  0
 18 20  1  0
 20 21  2  0
 21 22  1  0
 22 23  2  0
 23 24  1  0
 16 25  2  0
  8  2  1  0
 25 12  1  0
 24 20  1  0
  1 26  1  0
  1 27  1  0
  1 28  1  0
  3 29  1  0
  6 30  1  0
  7 31  1  0
 13 32  1  0
 14 33  1  0
 15 34  1  0
 21 35  1  0
 22 36  1  0
 23 37  1  0
 25 38  1  0
M  CHG  2  11  -1  17  -1
M  END
>  <UniqueID>  (11) 
10

>  <SMILES>  (11) 
Cc1cc(Cl)ccc1C(=O)[N-]c1cccc([N-]C(=O)c2cccs2)c1

>  <Energy>  (11) 
78.9365058200899

>  <Genealogy>  (11) 
Cc1cc(Cl)ccc1C(=O)[N-]c1cccc([N-]C(=O)c2cccs2)c1 (protonated)
Cc1cc(Cl)ccc1C(=O)[N-]c1cccc([N-]C(=O)c2cccs2)c1 (3D coordinates assigned)
Cc1cc(Cl)ccc1C(=O)[N-]c1cccc([N-]C(=O)c2cccs2)c1 (optimized conformer: 78.9365058200899 kcal/mol)

>  <smiles>  (11) 
Cc1cc(Cl)ccc1C(=O)Nc1cccc(NC(=O)c2cccs2)c1

>  <score_type>  (11) 
oracle

>  <origin>  (11) 
adgpu

>  <m_score__min__energy>  (11) 
-11.029999999999999

>  <m_primary>  (11) 
energy

$$$$
11:0
     RDKit          3D

 37 38  0  0  0  0  0  0  0  0999 V2000
   -9.8350   21.1530  -32.0780 C   0  0  0  0  0  0  0  0  0  0  0  0
   -8.7000   21.6490  -31.1840 C   0  0  0  0  0  0  0  0  0  0  0  0
   -8.2140   23.0500  -31.5790 C   0  0  0  0  0  0  0  0  0  0  0  0
   -6.7300   23.1990  -31.3940 C   0  0  0  0  0  0  0  0  0  0  0  0
   -6.1700   24.4220  -31.0080 C   0  0  0  0  0  0  0  0  0  0  0  0
   -4.7830   24.5040  -30.8590 C   0  0  0  0  0  0  0  0  0  0  0  0
   -4.2530   25.5910  -30.5100 O   0  0  0  0  0  0  0  0  0  0  0  0
   -4.0090   23.4090  -31.0900 N   0  0  0  0  0  0  0  0  0  0  0  0
   -4.5710   22.2290  -31.4700 C   0  0  0  0  0  0  0  0  0  0  0  0
   -3.5490   20.7810  -31.7380 S   0  0  0  0  0  0  0  0  0  0  0  0
   -4.1620   20.4780  -33.4340 C   0  0  0  0  0  0  0  0  0  0  0  0
   -5.1190   19.3170  -33.4630 C   0  0  0  0  0  0  0  0  0  0  0  0
   -4.8700   18.2100  -34.2890 C   0  0  0  0  0  0  0  0  0  0  0  0
   -5.7370   17.1140  -34.2800 C   0  0  0  0  0  0  0  0  0  0  0  0
   -6.8580   17.1140  -33.4440 C   0  0  0  0  0  0  0  0  0  0  0  0
   -7.1100   18.2060  -32.6010 C   0  0  0  0  0  0  0  0  0  0  0  0
   -8.3310   18.2190  -31.7300 C   0  0  0  0  0  0  0  0  0  0  0  0
   -6.2460   19.3120  -32.6240 C   0  0  0  0  0  0  0  0  0  0  0  0
   -5.9180   22.1360  -31.6270 N   0  0  0  0  0  0  0  0  0  0  0  0
  -10.6636   20.7909  -31.4517 H   0  0  0  0  0  0  0  0  0  0  0  0
  -10.1890   21.9785  -32.7131 H   0  0  0  0  0  0  0  0  0  0  0  0
   -9.4697   20.3325  -32.7131 H   0  0  0  0  0  0  0  0  0  0  0  0
   -9.0569   21.6791  -30.1439 H   0  0  0  0  0  0  0  0  0  0  0  0
   -7.8541   20.9554  -31.2999 H   0  0  0  0  0  0  0  0  0  0  0  0
   -8.4606   23.2274  -32.6362 H   0  0  0  0  0  0  0  0  0  0  0  0
   -8.7148   23.7817  -30.9279 H   0  0  0  0  0  0  0  0  0  0  0  0
   -6.8077   25.2996  -30.8259 H   0  0  0  0  0  0  0  0  0  0  0  0
   -2.9730   23.4720  -30.9700 H   0  0  0  0  0  0  0  0  0  0  0  0
   -4.6788   21.3791  -33.7959 H   0  0  0  0  0  0  0  0  0  0  0  0
   -3.3035   20.2403  -34.0793 H   0  0  0  0  0  0  0  0  0  0  0  0
   -3.9882   18.2050  -34.9466 H   0  0  0  0  0  0  0  0  0  0  0  0
   -5.5374   16.2503  -34.9313 H   0  0  0  0  0  0  0  0  0  0  0  0
   -7.5445   16.2545  -33.4476 H   0  0  0  0  0  0  0  0  0  0  0  0
   -8.0273   18.2158  -30.6728 H   0  0  0  0  0  0  0  0  0  0  0  0
   -8.9210   19.1235  -31.9392 H   0  0  0  0  0  0  0  0  0  0  0  0
   -8.9402   17.3273  -31.9392 H   0  0  0  0  0  0  0  0  0  0  0  0
   -6.4526   20.1803  -31.9811 H   0  0  0  0  0  0  0  0  0  0  0  0
  1  2  1  0
  2  3  1  0
  3  4  1  0
  4  5  2  0
  5  6  1  0
  6  7  2  0
  6  8  1  0
  8  9  1  0
  9 10  1  0
 10 11  1  0
 11 12  1  0
 12 13  2  0
 13 14  1  0
 14 15  2  0
 15 16  1  0
 16 17  1  0
 16 18  2  0
  9 19  2  0
 19  4  1  0
 18 12  1  0
  1 20  1  0
  1 21  1  0
  1 22  1  0
  2 23  1  0
  2 24  1  0
  3 25  1  0
  3 26  1  0
  5 27  1  0
  8 28  1  0
 11 29  1  0
 11 30  1  0
 13 31  1  0
 14 32  1  0
 15 33  1  0
 17 34  1  0
 17 35  1  0
 17 36  1  0
 18 37  1  0
M  END
>  <UniqueID>  (12) 
11

>  <SMILES>  (12) 
CCCc1cc(=O)[nH]c(SCc2cccc(C)c2)n1

>  <Energy>  (12) 
25.78189477501663

>  <Genealogy>  (12) 
CCCc1cc(=O)[nH]c(SCc2cccc(C)c2)n1 (3D coordinates assigned)
CCCc1cc(=O)[nH]c(SCc2cccc(C)c2)n1 (optimized conformer: 25.78189477501663 kcal/mol)

>  <smiles>  (12) 
CCCc1cc(=O)[nH]c(SCc2cccc(C)c2)n1

>  <score_type>  (12) 
oracle

>  <origin>  (12) 
adgpu

>  <m_score__min__energy>  (12) 
-7.9199999999999999

>  <m_primary>  (12) 
energy

$$$$
12:0
     RDKit          3D

 23 24  0  0  0  0  0  0  0  0999 V2000
   -9.0940   22.2260  -31.6750 C   0  0  0  0  0  0  0  0  0  0  0  0
   -7.7050   21.7630  -31.7640 N   0  0  0  0  0  0  0  0  0  0  0  0
   -6.6320   22.6620  -31.4280 C   0  0  0  0  0  0  0  0  0  0  0  0
   -6.8990   24.0110  -31.1360 C   0  0  0  0  0  0  0  0  0  0  0  0
   -5.8560   24.8850  -30.8160 C   0  0  0  0  0  0  0  0  0  0  0  0
   -4.5370   24.4210  -30.7880 C   0  0  0  0  0  0  0  0  0  0  0  0
   -3.5010   25.2910  -30.4700 O   0  0  0  0  0  0  0  0  0  0  0  0
   -4.2610   23.0830  -31.0830 C   0  0  0  0  0  0  0  0  0  0  0  0
   -5.3020   22.2060  -31.4040 C   0  0  0  0  0  0  0  0  0  0  0  0
   -7.4140   20.4540  -32.2930 C   0  0  0  0  0  0  0  0  0  0  0  0
   -7.9570   19.2590  -31.8620 C   0  0  0  0  0  0  0  0  0  0  0  0
   -7.3900   18.3190  -32.6940 C   0  0  0  0  0  0  0  0  0  0  0  0
   -6.5650   18.9270  -33.5670 N   0  0  0  0  0  0  0  0  0  0  0  0
   -6.5800   20.2290  -33.3270 N   0  0  0  0  0  0  0  0  0  0  0  0
   -9.3815   22.3218  -30.6176 H   0  0  0  0  0  0  0  0  0  0  0  0
   -9.1870   23.2037  -32.1703 H   0  0  0  0  0  0  0  0  0  0  0  0
   -9.7551   21.4996  -32.1703 H   0  0  0  0  0  0  0  0  0  0  0  0
   -7.9347   24.3809  -31.1595 H   0  0  0  0  0  0  0  0  0  0  0  0
   -6.0729   25.9386  -30.5860 H   0  0  0  0  0  0  0  0  0  0  0  0
   -3.2231   22.7191  -31.0627 H   0  0  0  0  0  0  0  0  0  0  0  0
   -5.0794   21.1547  -31.6388 H   0  0  0  0  0  0  0  0  0  0  0  0
   -8.6750   19.0961  -31.0447 H   0  0  0  0  0  0  0  0  0  0  0  0
   -7.5820   17.2367  -32.6516 H   0  0  0  0  0  0  0  0  0  0  0  0
  1  2  1  0
  2  3  1  0
  3  4  2  0
  4  5  1  0
  5  6  2  0
  6  7  1  0
  6  8  1  0
  8  9  2  0
  2 10  1  0
 10 11  1  0
 11 12  2  0
 12 13  1  0
 13 14  1  0
  9  3  1  0
 14 10  2  0
  1 15  1  0
  1 16  1  0
  1 17  1  0
  4 18  1  0
  5 19  1  0
  8 20  1  0
  9 21  1  0
 11 22  1  0
 12 23  1  0
M  CHG  2   7  -1  13  -1
M  END
>  <UniqueID>  (13) 
12

>  <SMILES>  (13) 
CN(c1ccc([O-])cc1)c1cc[n-]n1

>  <Energy>  (13) 
58.46161382274999

>  <Genealogy>  (13) 
CN(c1ccc([O-])cc1)c1cc[n-]n1 (protonated)
CN(c1ccc([O-])cc1)c1cc[n-]n1 (3D coordinates assigned)
CN(c1ccc([O-])cc1)c1cc[n-]n1 (optimized conformer: 58.46161382274999 kcal/mol)

>  <smiles>  (13) 
CN(c1ccc(O)cc1)c1cc[nH]n1

>  <score_type>  (13) 
oracle

>  <origin>  (13) 
adgpu

>  <m_score__min__energy>  (13) 
-8.5700000000000003

>  <m_primary>  (13) 
energy

$$$$
13:0
     RDKit          3D

 32 34  0  0  0  0  0  0  0  0999 V2000
   -3.8810   25.2470  -30.5190 O   0  0  0  0  0  0  0  0  0  0  0  0
   -3.5730   24.0300  -30.6130 C   0  0  0  0  0  0  0  0  0  0  0  0
   -4.2220   23.2260  -31.6090 N   0  0  0  0  0  0  0  0  0  0  0  0
   -5.6640   22.9860  -31.6940 C   0  0  2  0  0  0  0  0  0  0  0  0
   -6.2560   23.0150  -30.3030 C   0  0  0  0  0  0  0  0  0  0  0  0
   -7.5320   22.6430  -30.1040 C   0  0  0  0  0  0  0  0  0  0  0  0
   -8.5900   22.2580  -31.5120 S   0  0  0  0  0  0  0  0  0  0  0  0
   -7.3420   21.1990  -32.2650 C   0  0  0  0  0  0  0  0  0  0  0  0
   -7.6930   19.9300  -32.7370 C   0  0  0  0  0  0  0  0  0  0  0  0
   -6.7270   19.1140  -33.3280 C   0  0  0  0  0  0  0  0  0  0  0  0
   -5.4060   19.5540  -33.4330 C   0  0  0  0  0  0  0  0  0  0  0  0
   -5.0400   20.8090  -32.9360 C   0  0  0  0  0  0  0  0  0  0  0  0
   -6.0040   21.6490  -32.3440 C   0  0  0  0  0  0  0  0  0  0  0  0
   -2.5740   23.4680  -29.6850 C   0  0  0  0  0  0  0  0  0  0  0  0
   -1.6260   24.3100  -29.0740 C   0  0  0  0  0  0  0  0  0  0  0  0
   -1.6240   25.6780  -29.3300 O   0  0  0  0  0  0  0  0  0  0  0  0
   -0.6790   23.7770  -28.1930 C   0  0  0  0  0  0  0  0  0  0  0  0
   -0.6610   22.4060  -27.9250 C   0  0  0  0  0  0  0  0  0  0  0  0
    0.2800   21.8830  -27.0470 O   0  0  0  0  0  0  0  0  0  0  0  0
   -1.5860   21.5610  -28.5430 C   0  0  0  0  0  0  0  0  0  0  0  0
   -2.5370   22.0830  -29.4310 C   0  0  0  0  0  0  0  0  0  0  0  0
   -3.4390   21.2300  -30.0680 O   0  0  0  0  0  0  0  0  0  0  0  0
   -6.0880   23.7803  -32.3259 H   0  0  0  0  0  0  0  0  0  0  0  0
   -5.6407   23.3414  -29.4517 H   0  0  0  0  0  0  0  0  0  0  0  0
   -7.9311   22.5734  -29.0813 H   0  0  0  0  0  0  0  0  0  0  0  0
   -8.7299   19.5752  -32.6425 H   0  0  0  0  0  0  0  0  0  0  0  0
   -7.0071   18.1220  -33.7119 H   0  0  0  0  0  0  0  0  0  0  0  0
   -4.6504   18.9112  -33.9083 H   0  0  0  0  0  0  0  0  0  0  0  0
   -3.9941   21.1421  -33.0076 H   0  0  0  0  0  0  0  0  0  0  0  0
    0.0540   24.4396  -27.7096 H   0  0  0  0  0  0  0  0  0  0  0  0
   -1.5681   20.4816  -28.3320 H   0  0  0  0  0  0  0  0  0  0  0  0
   -4.0320   21.5520  -30.8230 H   0  0  0  0  0  0  0  0  0  0  0  0
  1  2  2  0
  2  3  1  0
  3  4  1  0
  4  5  1  0
  5  6  2  0
  6  7  1  0
  7  8  1  0
  8  9  2  0
  9 10  1  0
 10 11  2  0
 11 12  1  0
 12 13  2  0
  2 14  1  0
 14 15  2  0
 15 16  1  0
 15 17  1  0
 17 18  2  0
 18 19  1  0
 18 20  1  0
 20 21  2  0
 21 22  1  0
 13  4  1  0
 21 14  1  0
 13  8  1  0
  4 23  1  6
  5 24  1  0
  6 25  1  0
  9 26  1  0
 10 27  1  0
 11 28  1  0
 12 29  1  0
 17 30  1  0
 20 31  1  0
 22 32  1  0
M  CHG  3   3  -1  16  -1  19  -1
M  END
>  <UniqueID>  (14) 
13

>  <SMILES>  (14) 
O=C([N-][C@@H]1C=CSc2ccccc21)c1c([O-])cc([O-])cc1O

>  <Energy>  (14) 
51.75115143238211

>  <Genealogy>  (14) 
O=C([N-]C1C=CSc2ccccc21)c1c([O-])cc([O-])cc1O (protonated)
O=C([N-][C@@H]1C=CSc2ccccc21)c1c([O-])cc([O-])cc1O (chirality)
O=C([N-][C@@H]1C=CSc2ccccc21)c1c([O-])cc([O-])cc1O (3D coordinates assigned)
O=C([N-][C@@H]1C=CSc2ccccc21)c1c([O-])cc([O-])cc1O (nonaromatic ring conformer: 51.75115143238211 kcal/mol)

>  <smiles>  (14) 
O=C(NC1C=CSc2ccccc21)c1c(O)cc(O)cc1O

>  <score_type>  (14) 
oracle

>  <origin>  (14) 
adgpu

>  <m_score__min__energy>  (14) 
-12.029999999999999

>  <m_primary>  (14) 
energy

$$$$
14:0
     RDKit          3D

 40 42  0  0  1  0  0  0  0  0999 V2000
   -9.4630   19.1740  -32.6690 C   0  0  0  0  0  0  0  0  0  0  0  0
   -8.5950   20.2510  -32.1690 C   0  0  0  0  0  0  0  0  0  0  0  0
   -9.0020   21.2220  -31.2830 C   0  0  0  0  0  0  0  0  0  0  0  0
   -8.1150   22.2020  -30.8630 C   0  0  0  0  0  0  0  0  0  0  0  0
   -6.8060   22.2610  -31.2950 C   0  0  0  0  0  0  0  0  0  0  0  0
   -5.8720   23.3010  -30.8470 C   0  0  0  0  0  0  0  0  0  0  0  0
   -4.7430   23.0180  -30.1200 C   0  0  0  0  0  0  0  0  0  0  0  0
   -3.8790   24.0120  -29.7100 C   0  0  0  0  0  0  0  0  0  0  0  0
   -2.8390   23.7460  -29.0400 N   0  0  0  0  0  0  0  0  0  0  0  0
   -2.4440   22.4390  -28.6380 C   0  0  0  0  0  0  0  0  0  0  0  0
   -1.6720   21.7340  -29.7220 C   0  0  0  0  0  0  0  0  0  0  0  0
   -0.6870   20.7950  -29.4010 C   0  0  0  0  0  0  0  0  0  0  0  0
    0.0360   20.1330  -30.3720 C   0  0  0  0  0  0  0  0  0  0  0  0
   -0.2160   20.4020  -31.6770 N   0  0  0  0  0  0  0  0  0  0  0  0
   -1.1560   21.3000  -32.0350 C   0  0  0  0  0  0  0  0  0  0  0  0
   -1.8810   21.9630  -31.0500 C   0  0  0  0  0  0  0  0  0  0  0  0
   -4.1400   25.2820  -30.0260 N   0  0  0  0  0  0  0  0  0  0  0  0
   -5.2520   25.5280  -30.7370 C   0  0  0  0  0  0  0  0  0  0  0  0
   -6.1090   24.5850  -31.1490 N   0  0  0  0  0  0  0  0  0  0  0  0
   -6.3990   21.2900  -32.1810 C   0  0  0  0  0  0  0  0  0  0  0  0
   -5.0190   21.2330  -32.7270 C   0  0  0  0  0  0  0  0  0  0  0  0
   -7.2940   20.3010  -32.6060 C   0  0  0  0  0  0  0  0  0  0  0  0
   -9.9006   18.6310  -31.8183 H   0  0  0  0  0  0  0  0  0  0  0  0
  -10.2681   19.6064  -33.2813 H   0  0  0  0  0  0  0  0  0  0  0  0
   -8.8695   18.4792  -33.2813 H   0  0  0  0  0  0  0  0  0  0  0  0
  -10.0354   21.2210  -30.9062 H   0  0  0  0  0  0  0  0  0  0  0  0
   -8.4704   22.9651  -30.1550 H   0  0  0  0  0  0  0  0  0  0  0  0
   -4.5216   21.9729  -29.8578 H   0  0  0  0  0  0  0  0  0  0  0  0
   -1.8105   22.5175  -27.7422 H   0  0  0  0  0  0  0  0  0  0  0  0
   -3.3522   21.8551  -28.4277 H   0  0  0  0  0  0  0  0  0  0  0  0
   -0.4823   20.5775  -28.3423 H   0  0  0  0  0  0  0  0  0  0  0  0
    0.8051   19.3982  -30.0918 H   0  0  0  0  0  0  0  0  0  0  0  0
   -1.3482   21.5068  -33.0981 H   0  0  0  0  0  0  0  0  0  0  0  0
   -2.6458   22.6939  -31.3514 H   0  0  0  0  0  0  0  0  0  0  0  0
   -3.4820   26.0510  -29.7150 H   0  0  0  0  0  0  0  0  0  0  0  0
   -5.4738   26.5732  -30.9984 H   0  0  0  0  0  0  0  0  0  0  0  0
   -4.2974   21.2032  -31.8973 H   0  0  0  0  0  0  0  0  0  0  0  0
   -4.9058   20.3294  -33.3440 H   0  0  0  0  0  0  0  0  0  0  0  0
   -4.8317   22.1242  -33.3440 H   0  0  0  0  0  0  0  0  0  0  0  0
   -6.9428   19.5369  -33.3151 H   0  0  0  0  0  0  0  0  0  0  0  0
  1  2  1  0
  2  3  2  0
  3  4  1  0
  4  5  2  0
  5  6  1  0
  6  7  2  0
  7  8  1  0
  8  9  2  0
  9 10  1  0
 10 11  1  0
 11 12  2  0
 12 13  1  0
 13 14  2  0
 14 15  1  0
 15 16  2  0
  8 17  1  0
 17 18  1  0
 18 19  2  0
  5 20  1  0
 20 21  1  0
 20 22  2  0
 22  2  1  0
 19  6  1  0
 16 11  1  0
  1 23  1  0
  1 24  1  0
  1 25  1  0
  3 26  1  0
  4 27  1  0
  7 28  1  0
 10 29  1  0
 10 30  1  0
 12 31  1  0
 13 32  1  0
 15 33  1  0
 16 34  1  0
 17 35  1  0
 18 36  1  0
 21 37  1  0
 21 38  1  0
 21 39  1  0
 22 40  1  0
M  END
>  <smiles>  (15) 
Cc1ccc(-c2cc(=NCc3ccncc3)[nH]cn2)c(C)c1

>  <score_type>  (15) 
oracle

>  <origin>  (15) 
adgpu

>  <m_score__min__energy>  (15) 
-8.4100000000000001

>  <m_primary>  (15) 
energy

$$$$
15:0
     RDKit          3D

 57 60  0  0  0  0  0  0  0  0999 V2000
    0.7720   20.5120  -27.9020 C   0  0  0  0  0  0  0  0  0  0  0  0
   -0.7070   20.7180  -27.7910 C   0  0  0  0  0  0  0  0  0  0  0  0
   -1.3880   19.9080  -27.1080 O   0  0  0  0  0  0  0  0  0  0  0  0
   -1.3570   21.9060  -28.3890 C   0  0  0  0  0  0  0  0  0  0  0  0
   -1.6770   22.9770  -27.5430 C   0  0  0  0  0  0  0  0  0  0  0  0
   -2.3610   24.0890  -28.0240 C   0  0  0  0  0  0  0  0  0  0  0  0
   -2.7430   24.1600  -29.3690 C   0  0  0  0  0  0  0  0  0  0  0  0
   -3.4930   25.2790  -29.8670 N   0  0  0  0  0  0  0  0  0  0  0  0
   -4.8120   25.2340  -30.4200 C   0  0  0  0  0  0  0  0  0  0  0  0
   -5.7300   25.8870  -29.8570 O   0  0  0  0  0  0  0  0  0  0  0  0
   -5.0830   24.4550  -31.5930 N   0  0  0  0  0  0  0  0  0  0  0  0
   -5.7940   23.2100  -31.6540 C   0  0  0  0  0  0  0  0  0  0  0  0
   -5.5870   22.2800  -32.6890 C   0  0  0  0  0  0  0  0  0  0  0  0
   -6.3190   21.0890  -32.7220 C   0  0  0  0  0  0  0  0  0  0  0  0
   -7.2720   20.8190  -31.7330 C   0  0  0  0  0  0  0  0  0  0  0  0
   -8.1960   19.3200  -31.8030 S   0  0  0  0  0  0  0  0  0  0  0  0
   -8.9900   19.2590  -33.0780 O   0  0  0  0  0  0  0  0  0  0  0  0
   -9.1450   19.2930  -30.6370 O   0  0  0  0  0  0  0  0  0  0  0  0
   -7.1040   17.9550  -31.7080 N   0  0  0  0  0  0  0  0  0  0  0  0
   -5.7090   18.4080  -31.7370 C   0  0  0  0  0  0  0  0  0  0  0  0
   -5.2260   18.3690  -33.1790 C   0  0  0  0  0  0  0  0  0  0  0  0
   -6.2380   17.5200  -33.9260 C   0  0  0  0  0  0  0  0  0  0  0  0
   -7.2600   17.0900  -32.8830 C   0  0  0  0  0  0  0  0  0  0  0  0
   -7.4980   21.7550  -30.7140 C   0  0  0  0  0  0  0  0  0  0  0  0
   -6.7660   22.9450  -30.6820 C   0  0  0  0  0  0  0  0  0  0  0  0
   -2.4430   23.0880  -30.2330 C   0  0  0  0  0  0  0  0  0  0  0  0
   -2.8670   23.1220  -31.5640 O   0  0  0  0  0  0  0  0  0  0  0  0
   -1.7120   21.9730  -29.7620 C   0  0  0  0  0  0  0  0  0  0  0  0
   -1.2310   20.7070  -30.9180 S   0  0  0  0  0  0  0  0  0  0  0  0
   -0.0180   21.1560  -31.6860 O   0  0  0  0  0  0  0  0  0  0  0  0
   -0.8620   19.4440  -30.1900 O   0  0  0  0  0  0  0  0  0  0  0  0
   -2.5770   20.4350  -32.0710 C   0  0  0  0  0  0  0  0  0  0  0  0
   -2.3310   21.0350  -33.4460 C   0  0  0  0  0  0  0  0  0  0  0  0
   -2.2800   19.5280  -33.2560 C   0  0  0  0  0  0  0  0  0  0  0  0
    1.2103   20.4510  -26.8949 H   0  0  0  0  0  0  0  0  0  0  0  0
    0.9722   19.5773  -28.4463 H   0  0  0  0  0  0  0  0  0  0  0  0
    1.2200   21.3564  -28.4463 H   0  0  0  0  0  0  0  0  0  0  0  0
   -1.3831   22.9377  -26.4837 H   0  0  0  0  0  0  0  0  0  0  0  0
   -2.6033   24.9180  -27.3428 H   0  0  0  0  0  0  0  0  0  0  0  0
   -4.8468   22.4904  -33.4750 H   0  0  0  0  0  0  0  0  0  0  0  0
   -6.1452   20.3614  -33.5284 H   0  0  0  0  0  0  0  0  0  0  0  0
   -5.6431   19.4356  -31.3500 H   0  0  0  0  0  0  0  0  0  0  0  0
   -5.0845   17.7551  -31.1095 H   0  0  0  0  0  0  0  0  0  0  0  0
   -5.1917   19.3847  -33.6000 H   0  0  0  0  0  0  0  0  0  0  0  0
   -4.2103   17.9539  -33.2568 H   0  0  0  0  0  0  0  0  0  0  0  0
   -6.7227   18.1087  -34.7188 H   0  0  0  0  0  0  0  0  0  0  0  0
   -5.7638   16.6548  -34.4125 H   0  0  0  0  0  0  0  0  0  0  0  0
   -8.2761   17.1952  -33.2911 H   0  0  0  0  0  0  0  0  0  0  0  0
   -7.1012   16.0376  -32.6052 H   0  0  0  0  0  0  0  0  0  0  0  0
   -8.2520   21.5526  -29.9391 H   0  0  0  0  0  0  0  0  0  0  0  0
   -6.9553   23.6801  -29.8859 H   0  0  0  0  0  0  0  0  0  0  0  0
   -3.5260   23.8070  -31.9130 H   0  0  0  0  0  0  0  0  0  0  0  0
   -3.3784   20.4710  -31.3184 H   0  0  0  0  0  0  0  0  0  0  0  0
   -3.1623   21.4910  -34.0036 H   0  0  0  0  0  0  0  0  0  0  0  0
   -1.6432   21.7910  -33.8526 H   0  0  0  0  0  0  0  0  0  0  0  0
   -3.0745   18.8935  -33.6757 H   0  0  0  0  0  0  0  0  0  0  0  0
   -1.5404   18.7418  -33.4677 H   0  0  0  0  0  0  0  0  0  0  0  0
  1  2  1  0
  2  3  2  0
  2  4  1  0
  4  5  2  0
  5  6  1  0
  6  7  2  0
  7  8  1  0
  8  9  1  0
  9 10  2  0
  9 11  1  0
 11 12  1  0
 12 13  2  0
 13 14  1  0
 14 15  2  0
 15 16  1  0
 16 17  2  0
 16 18  2  0
 16 19  1  0
 19 20  1  0
 20 21  1  0
 21 22  1  0
 22 23  1  0
 15 24  1  0
 24 25  2  0
  7 26  1  0
 26 27  1  0
 26 28  2  0
 28 29  1  0
 29 30  2  0
 29 31  2  0
 29 32  1  0
 32 33  1  0
 33 34  1  0
 28  4  1  0
 34 32  1  0
 25 12  1  0
 23 19  1  0
  1 35  1  0
  1 36  1  0
  1 37  1  0
  5 38  1  0
  6 39  1  0
 13 40  1  0
 14 41  1  0
 20 42  1  0
 20 43  1  0
 21 44  1  0
 21 45  1  0
 22 46  1  0
 22 47  1  0
 23 48  1  0
 23 49  1  0
 24 50  1  0
 25 51  1  0
 27 52  1  0
 32 53  1  0
 33 54  1  0
 33 55  1  0
 34 56  1  0
 34 57  1  0
M  CHG  2   8  -1  11  -1
M  END
>  <UniqueID>  (16) 
14

>  <SMILES>  (16) 
CC(=O)c1ccc([N-]C(=O)[N-]c2ccc(S(=O)(=O)N3CCCC3)cc2)c(O)c1S(=O)(=O)C1CC1

>  <Energy>  (16) 
338.1100162435884

>  <Genealogy>  (16) 
CC(=O)c1ccc([N-]C(=O)[N-]c2ccc(S(=O)(=O)N3CCCC3)cc2)c(O)c1S(=O)(=O)C1CC1 (protonated)
CC(=O)c1ccc([N-]C(=O)[N-]c2ccc(S(=O)(=O)N3CCCC3)cc2)c(O)c1S(=O)(=O)C1CC1 (3D coordinates assigned)
CC(=O)c1ccc([N-]C(=O)[N-]c2ccc(S(=O)(=O)N3CCCC3)cc2)c(O)c1S(=O)(=O)C1CC1 (nonaromatic ring conformer: 338.1100162435884 kcal/mol)

>  <smiles>  (16) 
CC(=O)c1ccc(NC(=O)Nc2ccc(S(=O)(=O)N3CCCC3)cc2)c(O)c1S(=O)(=O)C1CC1

>  <score_type>  (16) 
oracle

>  <origin>  (16) 
adgpu

>  <m_score__min__energy>  (16) 
-14.279999999999999

>  <m_primary>  (16) 
energy

$$$$
16:0
     RDKit          3D

 49 51  0  0  0  0  0  0  0  0999 V2000
   -3.1100   20.8960  -28.2710 C   0  0  0  0  0  0  0  0  0  0  0  0
   -2.6630   22.3030  -28.5350 C   0  0  0  0  0  0  0  0  0  0  0  0
   -1.5180   22.8110  -27.9040 C   0  0  0  0  0  0  0  0  0  0  0  0
   -1.1310   24.1370  -28.1130 C   0  0  0  0  0  0  0  0  0  0  0  0
   -1.8820   24.9650  -28.9510 C   0  0  0  0  0  0  0  0  0  0  0  0
   -3.0280   24.4670  -29.5950 C   0  0  0  0  0  0  0  0  0  0  0  0
   -3.8480   25.2900  -30.4380 N   0  0  0  0  0  0  0  0  0  0  0  0
   -5.2800   25.3620  -30.4400 C   0  0  0  0  0  0  0  0  0  0  0  0
   -5.9020   25.7870  -29.4310 O   0  0  0  0  0  0  0  0  0  0  0  0
   -6.0260   24.9480  -31.5890 N   0  0  0  0  0  0  0  0  0  0  0  0
   -6.5150   23.6230  -31.8480 C   0  0  0  0  0  0  0  0  0  0  0  0
   -7.8760   23.3230  -31.7270 C   0  0  0  0  0  0  0  0  0  0  0  0
   -8.3360   22.0310  -31.9520 C   0  0  0  0  0  0  0  0  0  0  0  0
   -7.4520   21.0000  -32.3060 C   0  0  0  0  0  0  0  0  0  0  0  0
   -8.0260   19.6190  -32.4900 C   0  0  0  0  0  0  0  0  0  0  0  0
   -6.0610   21.2790  -32.4080 C   0  0  0  0  0  0  0  0  0  0  0  0
   -4.8600   20.0240  -32.8420 S   0  0  0  0  0  0  0  0  0  0  0  0
   -4.8780   18.9460  -31.7940 O   0  0  0  0  0  0  0  0  0  0  0  0
   -5.2150   19.3670  -34.1460 O   0  0  0  0  0  0  0  0  0  0  0  0
   -3.2390   20.6700  -32.9600 N   0  0  0  0  0  0  0  0  0  0  0  0
   -2.5550   20.6170  -31.6570 C   0  0  0  0  0  0  0  0  0  0  0  0
   -1.0700   21.0080  -31.8060 C   0  0  0  0  0  0  0  0  0  0  0  0
   -0.8100   21.5510  -33.0870 O   0  0  0  0  0  0  0  0  0  0  0  0
   -1.0440   20.5680  -34.0820 C   0  0  0  0  0  0  0  0  0  0  0  0
   -2.4530   19.9470  -33.9690 C   0  0  0  0  0  0  0  0  0  0  0  0
   -5.6040   22.5960  -32.1590 C   0  0  0  0  0  0  0  0  0  0  0  0
   -4.2370   22.8780  -32.2320 O   0  0  0  0  0  0  0  0  0  0  0  0
   -3.4260   23.1430  -29.3620 C   0  0  0  0  0  0  0  0  0  0  0  0
   -3.1640   20.7260  -27.1856 H   0  0  0  0  0  0  0  0  0  0  0  0
   -4.1029   20.7369  -28.7169 H   0  0  0  0  0  0  0  0  0  0  0  0
   -2.3909   20.1931  -28.7169 H   0  0  0  0  0  0  0  0  0  0  0  0
   -0.9232   22.1637  -27.2428 H   0  0  0  0  0  0  0  0  0  0  0  0
   -0.2320   24.5305  -27.6161 H   0  0  0  0  0  0  0  0  0  0  0  0
   -1.5756   26.0098  -29.1073 H   0  0  0  0  0  0  0  0  0  0  0  0
   -8.5874   24.1156  -31.4517 H   0  0  0  0  0  0  0  0  0  0  0  0
   -9.4095   21.8131  -31.8511 H   0  0  0  0  0  0  0  0  0  0  0  0
   -8.2143   19.1660  -31.5054 H   0  0  0  0  0  0  0  0  0  0  0  0
   -8.9707   19.6861  -33.0494 H   0  0  0  0  0  0  0  0  0  0  0  0
   -7.3120   18.9967  -33.0494 H   0  0  0  0  0  0  0  0  0  0  0  0
   -3.0448   21.3159  -30.9631 H   0  0  0  0  0  0  0  0  0  0  0  0
   -2.6136   19.5899  -31.2677 H   0  0  0  0  0  0  0  0  0  0  0  0
   -0.8176   21.7569  -31.0408 H   0  0  0  0  0  0  0  0  0  0  0  0
   -0.4571   20.1033  -31.6801 H   0  0  0  0  0  0  0  0  0  0  0  0
   -0.9413   21.0352  -35.0725 H   0  0  0  0  0  0  0  0  0  0  0  0
   -0.3080   19.7628  -33.9406 H   0  0  0  0  0  0  0  0  0  0  0  0
   -2.9601   20.0137  -34.9429 H   0  0  0  0  0  0  0  0  0  0  0  0
   -2.3610   18.8927  -33.6690 H   0  0  0  0  0  0  0  0  0  0  0  0
   -3.8440   23.7720  -31.9640 H   0  0  0  0  0  0  0  0  0  0  0  0
   -4.3439   22.7590  -29.8311 H   0  0  0  0  0  0  0  0  0  0  0  0
  1  2  1  0
  2  3  2  0
  3  4  1  0
  4  5  2  0
  5  6  1  0
  6  7  1  0
  7  8  1  0
  8  9  2  0
  8 10  1  0
 10 11  1  0
 11 12  2  0
 12 13  1  0
 13 14  2  0
 14 15  1  0
 14 16  1  0
 16 17  1  0
 17 18  2  0
 17 19  2  0
 17 20  1  0
 20 21  1  0
 21 22  1  0
 22 23  1  0
 23 24  1  0
 24 25  1  0
 16 26  2  0
 26 27  1  0
  6 28  2  0
 28  2  1  0
 26 11  1  0
 25 20  1  0
  1 29  1  0
  1 30  1  0
  1 31  1  0
  3 32  1  0
  4 33  1  0
  5 34  1  0
 12 35  1  0
 13 36  1  0
 15 37  1  0
 15 38  1  0
 15 39  1  0
 21 40  1  0
 21 41  1  0
 22 42  1  0
 22 43  1  0
 24 44  1  0
 24 45  1  0
 25 46  1  0
 25 47  1  0
 27 48  1  0
 28 49  1  0
M  CHG  2   7  -1  10  -1
M  END
>  <UniqueID>  (17) 
15

>  <SMILES>  (17) 
Cc1cccc([N-]C(=O)[N-]c2ccc(C)c(S(=O)(=O)N3CCOCC3)c2O)c1

>  <Energy>  (17) 
68.7981718504842

>  <Genealogy>  (17) 
Cc1cccc([N-]C(=O)[N-]c2ccc(C)c(S(=O)(=O)N3CCOCC3)c2O)c1 (protonated)
Cc1cccc([N-]C(=O)[N-]c2ccc(C)c(S(=O)(=O)N3CCOCC3)c2O)c1 (3D coordinates assigned)
Cc1cccc([N-]C(=O)[N-]c2ccc(C)c(S(=O)(=O)N3CCOCC3)c2O)c1 (nonaromatic ring conformer: 68.7981718504842 kcal/mol)

>  <smiles>  (17) 
Cc1cccc(NC(=O)Nc2ccc(C)c(S(=O)(=O)N3CCOCC3)c2O)c1

>  <score_type>  (17) 
oracle

>  <origin>  (17) 
adgpu

>  <m_score__min__energy>  (17) 
-12.76

>  <m_primary>  (17) 
energy

$$$$
17:0
     RDKit          3D

 75 79  0  0  0  0  0  0  0  0999 V2000
   -2.9550   25.0050  -26.6020 C   0  0  0  0  0  0  0  0  0  0  0  0
   -1.5630   24.5140  -26.9070 C   0  0  0  0  0  0  0  0  0  0  0  0
   -0.6160   24.4790  -25.8690 C   0  0  0  0  0  0  0  0  0  0  0  0
    0.7040   24.0960  -26.1240 C   0  0  0  0  0  0  0  0  0  0  0  0
    1.0890   23.7310  -27.4140 C   0  0  0  0  0  0  0  0  0  0  0  0
    0.1560   23.7320  -28.4500 C   0  0  0  0  0  0  0  0  0  0  0  0
   -1.1820   24.0920  -28.2070 C   0  0  0  0  0  0  0  0  0  0  0  0
   -2.1030   24.0940  -29.3100 N   0  0  0  0  0  0  0  0  0  0  0  0
   -3.0210   23.0180  -29.5660 C   0  0  0  0  0  0  0  0  0  0  0  0
   -2.7690   21.8710  -29.1030 O   0  0  0  0  0  0  0  0  0  0  0  0
   -4.2490   23.2450  -30.3790 C   0  0  0  0  0  0  0  0  0  0  0  0
   -5.0540   22.1540  -30.7560 C   0  0  0  0  0  0  0  0  0  0  0  0
   -6.2270   22.3360  -31.5120 C   0  0  0  0  0  0  0  0  0  0  0  0
   -7.0770   21.1690  -31.8640 C   0  0  0  0  0  0  0  0  0  0  0  0
   -8.4730   21.2170  -31.7020 C   0  0  0  0  0  0  0  0  0  0  0  0
   -9.2670   20.1400  -32.1000 C   0  0  0  0  0  0  0  0  0  0  0  0
   -8.6820   19.0040  -32.6680 C   0  0  0  0  0  0  0  0  0  0  0  0
   -7.2900   18.9230  -32.8140 C   0  0  0  0  0  0  0  0  0  0  0  0
   -6.6620   17.7400  -33.4360 C   0  0  0  0  0  0  0  0  0  0  0  0
   -7.1630   16.5950  -33.2730 O   0  0  0  0  0  0  0  0  0  0  0  0
   -5.4700   17.8920  -34.2130 N   0  0  0  0  0  0  0  0  0  0  0  0
   -4.2830   17.1160  -34.0180 C   0  0  0  0  0  0  0  0  0  0  0  0
   -3.2420   17.4660  -33.1870 C   0  0  0  0  0  0  0  0  0  0  0  0
   -2.2210   16.5720  -33.4700 C   0  0  0  0  0  0  0  0  0  0  0  0
   -0.8630   16.6360  -32.8940 C   0  0  0  0  0  0  0  0  0  0  0  0
   -0.5140   15.7700  -32.0500 O   0  0  0  0  0  0  0  0  0  0  0  0
    0.0800   17.6470  -33.2770 N   0  0  0  0  0  0  0  0  0  0  0  0
    0.4240   18.8270  -32.4870 C   0  0  0  0  0  0  0  0  0  0  0  0
   -0.6450   19.0640  -31.4110 C   0  0  0  0  0  0  0  0  0  0  0  0
   -1.3310   20.3710  -31.5310 N   0  0  0  0  0  0  0  0  0  0  0  0
   -0.5870   21.3930  -32.2990 C   0  0  0  0  0  0  0  0  0  0  0  0
   -0.9870   21.4470  -33.7930 C   0  0  0  0  0  0  0  0  0  0  0  0
   -2.0500   20.5740  -34.1150 O   0  0  0  0  0  0  0  0  0  0  0  0
   -3.1230   20.8010  -33.2340 C   0  0  0  0  0  0  0  0  0  0  0  0
   -2.7790   20.2890  -31.8290 C   0  0  0  0  0  0  0  0  0  0  0  0
   -2.6110   15.7170  -34.4450 N   0  0  0  0  0  0  0  0  0  0  0  0
   -1.7960   14.7120  -35.1200 C   0  0  0  0  0  0  0  0  0  0  0  0
   -3.8700   16.0490  -34.7900 C   0  0  0  0  0  0  0  0  0  0  0  0
   -6.4940   20.0040  -32.4000 C   0  0  0  0  0  0  0  0  0  0  0  0
   -6.5770   23.6320  -31.9220 C   0  0  0  0  0  0  0  0  0  0  0  0
   -5.7780   24.7200  -31.5740 C   0  0  0  0  0  0  0  0  0  0  0  0
   -4.6250   24.5390  -30.8040 C   0  0  0  0  0  0  0  0  0  0  0  0
   -3.8690   25.6570  -30.4620 O   0  0  0  0  0  0  0  0  0  0  0  0
   -3.0957   25.0546  -25.5122 H   0  0  0  0  0  0  0  0  0  0  0  0
   -3.0938   26.0063  -27.0356 H   0  0  0  0  0  0  0  0  0  0  0  0
   -3.6914   24.3124  -27.0356 H   0  0  0  0  0  0  0  0  0  0  0  0
   -0.9161   24.7553  -24.8474 H   0  0  0  0  0  0  0  0  0  0  0  0
    1.4398   24.0825  -25.3065 H   0  0  0  0  0  0  0  0  0  0  0  0
    2.1312   23.4417  -27.6144 H   0  0  0  0  0  0  0  0  0  0  0  0
    0.4687   23.4489  -29.4659 H   0  0  0  0  0  0  0  0  0  0  0  0
   -1.9570   24.8060  -30.0610 H   0  0  0  0  0  0  0  0  0  0  0  0
   -4.7603   21.1380  -30.4535 H   0  0  0  0  0  0  0  0  0  0  0  0
   -8.9420   22.1081  -31.2592 H   0  0  0  0  0  0  0  0  0  0  0  0
  -10.3579   20.1852  -31.9662 H   0  0  0  0  0  0  0  0  0  0  0  0
   -9.3169   18.1701  -33.0018 H   0  0  0  0  0  0  0  0  0  0  0  0
   -3.2244   18.2842  -32.4520 H   0  0  0  0  0  0  0  0  0  0  0  0
    1.3998   18.6709  -32.0038 H   0  0  0  0  0  0  0  0  0  0  0  0
    0.4733   19.7045  -33.1485 H   0  0  0  0  0  0  0  0  0  0  0  0
   -1.3994   18.2673  -31.4896 H   0  0  0  0  0  0  0  0  0  0  0  0
   -0.1295   19.0595  -30.4393 H   0  0  0  0  0  0  0  0  0  0  0  0
   -0.7817   22.3779  -31.8495 H   0  0  0  0  0  0  0  0  0  0  0  0
    0.4781   21.1214  -32.2564 H   0  0  0  0  0  0  0  0  0  0  0  0
   -1.2927   22.4752  -34.0364 H   0  0  0  0  0  0  0  0  0  0  0  0
   -0.1120   21.1274  -34.3781 H   0  0  0  0  0  0  0  0  0  0  0  0
   -3.3303   21.8802  -33.1858 H   0  0  0  0  0  0  0  0  0  0  0  0
   -4.0080   20.2622  -33.6033 H   0  0  0  0  0  0  0  0  0  0  0  0
   -3.3254   20.8937  -31.0902 H   0  0  0  0  0  0  0  0  0  0  0  0
   -3.0692   19.2291  -31.7807 H   0  0  0  0  0  0  0  0  0  0  0  0
   -1.2891   14.0869  -34.3701 H   0  0  0  0  0  0  0  0  0  0  0  0
   -2.4399   14.0801  -35.7493 H   0  0  0  0  0  0  0  0  0  0  0  0
   -1.0447   15.2115  -35.7493 H   0  0  0  0  0  0  0  0  0  0  0  0
   -4.4725   15.5497  -35.5631 H   0  0  0  0  0  0  0  0  0  0  0  0
   -5.4001   19.9398  -32.4957 H   0  0  0  0  0  0  0  0  0  0  0  0
   -7.4861   23.7899  -32.5208 H   0  0  0  0  0  0  0  0  0  0  0  0
   -6.0571   25.7301  -31.9082 H   0  0  0  0  0  0  0  0  0  0  0  0
  1  2  1  0
  2  3  2  0
  3  4  1  0
  4  5  2  0
  5  6  1  0
  6  7  2  0
  7  8  1  0
  8  9  1  0
  9 10  2  0
  9 11  1  0
 11 12  2  0
 12 13  1  0
 13 14  1  0
 14 15  2  0
 15 16  1  0
 16 17  2  0
 17 18  1  0
 18 19  1  0
 19 20  2  0
 19 21  1  0
 21 22  1  0
 22 23  1  0
 23 24  2  0
 24 25  1  0
 25 26  2  0
 25 27  1  0
 27 28  1  0
 28 29  1  0
 29 30  1  0
 30 31  1  0
 31 32  1  0
 32 33  1  0
 33 34  1  0
 34 35  1  0
 24 36  1  0
 36 37  1  0
 36 38  1  0
 18 39  2  0
 13 40  2  0
 40 41  1  0
 41 42  2  0
 42 43  1  0
  7  2  1  0
 42 11  1  0
 39 14  1  0
 38 22  2  0
 35 30  1  0
  1 44  1  0
  1 45  1  0
  1 46  1  0
  3 47  1  0
  4 48  1  0
  5 49  1  0
  6 50  1  0
  8 51  1  0
 12 52  1  0
 15 53  1  0
 16 54  1  0
 17 55  1  0
 23 56  1  0
 28 57  1  0
 28 58  1  0
 29 59  1  0
 29 60  1  0
 31 61  1  0
 31 62  1  0
 32 63  1  0
 32 64  1  0
 34 65  1  0
 34 66  1  0
 35 67  1  0
 35 68  1  0
 37 69  1  0
 37 70  1  0
 37 71  1  0
 38 72  1  0
 39 73  1  0
 40 74  1  0
 41 75  1  0
M  CHG  3  21  -1  27  -1  43  -1
M  END
>  <UniqueID>  (18) 
16

>  <SMILES>  (18) 
Cc1ccccc1NC(=O)c1cc(-c2cccc(C(=O)[N-]c3cc(C(=O)[N-]CCN4CCOCC4)n(C)c3)c2)ccc1[O-]

>  <Energy>  (18) 
145.7510848360444

>  <Genealogy>  (18) 
Cc1ccccc1NC(=O)c1cc(-c2cccc(C(=O)[N-]c3cc(C(=O)[N-]CCN4CCOCC4)n(C)c3)c2)ccc1[O-] (protonated)
Cc1ccccc1NC(=O)c1cc(-c2cccc(C(=O)[N-]c3cc(C(=O)[N-]CCN4CCOCC4)n(C)c3)c2)ccc1[O-] (3D coordinates assigned)
Cc1ccccc1NC(=O)c1cc(-c2cccc(C(=O)[N-]c3cc(C(=O)[N-]CCN4CCOCC4)n(C)c3)c2)ccc1[O-] (nonaromatic ring conformer: 145.7510848360444 kcal/mol)

>  <smiles>  (18) 
Cc1ccccc1NC(=O)c1cc(-c2cccc(C(=O)Nc3cc(C(=O)NCCN4CCOCC4)n(C)c3)c2)ccc1O

>  <score_type>  (18) 
oracle

>  <origin>  (18) 
adgpu

>  <m_score__min__energy>  (18) 
-15.07

>  <m_primary>  (18) 
energy

$$$$
18:0
     RDKit          3D

 58 61  0  0  0  0  0  0  0  0999 V2000
    0.2350   22.7980  -25.7930 C   0  0  0  0  0  0  0  0  0  0  0  0
   -0.8990   23.2460  -26.6770 C   0  0  0  0  0  0  0  0  0  0  0  0
   -1.9760   22.3660  -26.8660 C   0  0  0  0  0  0  0  0  0  0  0  0
   -3.0380   22.7050  -27.6990 C   0  0  0  0  0  0  0  0  0  0  0  0
   -3.0640   23.9390  -28.3490 C   0  0  0  0  0  0  0  0  0  0  0  0
   -4.1670   24.2150  -29.2240 N   0  0  0  0  0  0  0  0  0  0  0  0
   -4.1120   24.4820  -30.6330 C   0  0  0  0  0  0  0  0  0  0  0  0
   -4.2820   25.6610  -31.0360 O   0  0  0  0  0  0  0  0  0  0  0  0
   -3.8580   23.4500  -31.5970 N   0  0  0  0  0  0  0  0  0  0  0  0
   -4.6980   22.3230  -31.8770 C   0  0  0  0  0  0  0  0  0  0  0  0
   -6.0060   22.5510  -32.3220 C   0  0  0  0  0  0  0  0  0  0  0  0
   -6.8610   21.4770  -32.5780 C   0  0  0  0  0  0  0  0  0  0  0  0
   -6.4140   20.1620  -32.3970 C   0  0  0  0  0  0  0  0  0  0  0  0
   -7.5410   18.8220  -32.5860 S   0  0  0  0  0  0  0  0  0  0  0  0
   -8.8800   19.3390  -33.0460 O   0  0  0  0  0  0  0  0  0  0  0  0
   -7.7190   18.1420  -31.2550 O   0  0  0  0  0  0  0  0  0  0  0  0
   -6.9000   17.6870  -33.7520 N   0  0  0  0  0  0  0  0  0  0  0  0
   -6.1900   16.5990  -33.0510 C   0  0  0  0  0  0  0  0  0  0  0  0
   -5.2400   15.8570  -34.0110 C   0  0  0  0  0  0  0  0  0  0  0  0
   -4.2730   16.6800  -34.6550 O   0  0  0  0  0  0  0  0  0  0  0  0
   -4.5620   18.0680  -34.5770 C   0  0  0  0  0  0  0  0  0  0  0  0
   -6.0610   18.3720  -34.7610 C   0  0  0  0  0  0  0  0  0  0  0  0
   -5.0930   19.9290  -31.9950 C   0  0  0  0  0  0  0  0  0  0  0  0
   -4.2320   21.0030  -31.7550 C   0  0  0  0  0  0  0  0  0  0  0  0
   -1.9850   24.8320  -28.1890 C   0  0  0  0  0  0  0  0  0  0  0  0
   -1.9910   26.0400  -28.8800 O   0  0  0  0  0  0  0  0  0  0  0  0
   -0.8890   24.4930  -27.3590 C   0  0  0  0  0  0  0  0  0  0  0  0
    0.4750   25.6280  -27.1800 S   0  0  0  0  0  0  0  0  0  0  0  0
    0.1610   26.9440  -27.8400 O   0  0  0  0  0  0  0  0  0  0  0  0
    1.7010   25.0710  -27.8460 O   0  0  0  0  0  0  0  0  0  0  0  0
    0.8190   25.8920  -25.4370 C   0  0  0  0  0  0  0  0  0  0  0  0
   -0.4070   25.7290  -24.5440 C   0  0  0  0  0  0  0  0  0  0  0  0
   -0.3440   27.2080  -24.1870 C   0  0  0  0  0  0  0  0  0  0  0  0
    0.8930   27.3700  -25.0590 C   0  0  0  0  0  0  0  0  0  0  0  0
   -0.0551   22.9126  -24.7381 H   0  0  0  0  0  0  0  0  0  0  0  0
    0.4642   21.7418  -25.9976 H   0  0  0  0  0  0  0  0  0  0  0  0
    1.1242   23.4124  -25.9976 H   0  0  0  0  0  0  0  0  0  0  0  0
   -1.9807   21.3952  -26.3487 H   0  0  0  0  0  0  0  0  0  0  0  0
   -3.8641   21.9937  -27.8461 H   0  0  0  0  0  0  0  0  0  0  0  0
   -6.3617   23.5812  -32.4706 H   0  0  0  0  0  0  0  0  0  0  0  0
   -7.8886   21.6643  -32.9228 H   0  0  0  0  0  0  0  0  0  0  0  0
   -5.6049   17.0253  -32.2228 H   0  0  0  0  0  0  0  0  0  0  0  0
   -6.9324   15.8837  -32.6673 H   0  0  0  0  0  0  0  0  0  0  0  0
   -4.7045   15.0881  -33.4348 H   0  0  0  0  0  0  0  0  0  0  0  0
   -5.8722   15.4422  -34.8100 H   0  0  0  0  0  0  0  0  0  0  0  0
   -4.2457   18.4389  -33.5909 H   0  0  0  0  0  0  0  0  0  0  0  0
   -4.0181   18.5680  -35.3919 H   0  0  0  0  0  0  0  0  0  0  0  0
   -6.2156   19.4574  -34.6719 H   0  0  0  0  0  0  0  0  0  0  0  0
   -6.3601   18.0044  -35.7537 H   0  0  0  0  0  0  0  0  0  0  0  0
   -4.7322   18.8977  -31.8678 H   0  0  0  0  0  0  0  0  0  0  0  0
   -3.1865   20.8146  -31.4698 H   0  0  0  0  0  0  0  0  0  0  0  0
    1.6915   25.2342  -25.3102 H   0  0  0  0  0  0  0  0  0  0  0  0
   -1.3197   25.4358  -25.0835 H   0  0  0  0  0  0  0  0  0  0  0  0
   -0.4214   24.9654  -23.7523 H   0  0  0  0  0  0  0  0  0  0  0  0
   -1.2130   27.7893  -24.5289 H   0  0  0  0  0  0  0  0  0  0  0  0
   -0.3264   27.5248  -23.1338 H   0  0  0  0  0  0  0  0  0  0  0  0
    0.7580   28.0578  -25.9068 H   0  0  0  0  0  0  0  0  0  0  0  0
    1.8184   27.7922  -24.6402 H   0  0  0  0  0  0  0  0  0  0  0  0
  1  2  1  0
  2  3  2  0
  3  4  1  0
  4  5  2  0
  5  6  1  0
  6  7  1  0
  7  8  2  0
  7  9  1  0
  9 10  1  0
 10 11  2  0
 11 12  1  0
 12 13  2  0
 13 14  1  0
 14 15  2  0
 14 16  2  0
 14 17  1  0
 17 18  1  0
 18 19  1  0
 19 20  1  0
 20 21  1  0
 21 22  1  0
 13 23  1  0
 23 24  2  0
  5 25  1  0
 25 26  1  0
 25 27  2  0
 27 28  1  0
 28 29  2  0
 28 30  2  0
 28 31  1  0
 31 32  1  0
 32 33  1  0
 33 34  1  0
 27  2  1  0
 34 31  1  0
 24 10  1  0
 22 17  1  0
  1 35  1  0
  1 36  1  0
  1 37  1  0
  3 38  1  0
  4 39  1  0
 11 40  1  0
 12 41  1  0
 18 42  1  0
 18 43  1  0
 19 44  1  0
 19 45  1  0
 21 46  1  0
 21 47  1  0
 22 48  1  0
 22 49  1  0
 23 50  1  0
 24 51  1  0
 31 52  1  0
 32 53  1  0
 32 54  1  0
 33 55  1  0
 33 56  1  0
 34 57  1  0
 34 58  1  0
M  CHG  3   6  -1   9  -1  26  -1
M  END
>  <UniqueID>  (19) 
17

>  <SMILES>  (19) 
Cc1ccc([N-]C(=O)[N-]c2ccc(S(=O)(=O)N3CCOCC3)cc2)c([O-])c1S(=O)(=O)C1CCC1

>  <Energy>  (19) 
136.39409251308766

>  <Genealogy>  (19) 
Cc1ccc([N-]C(=O)[N-]c2ccc(S(=O)(=O)N3CCOCC3)cc2)c([O-])c1S(=O)(=O)C1CCC1 (protonated)
Cc1ccc([N-]C(=O)[N-]c2ccc(S(=O)(=O)N3CCOCC3)cc2)c([O-])c1S(=O)(=O)C1CCC1 (3D coordinates assigned)
Cc1ccc([N-]C(=O)[N-]c2ccc(S(=O)(=O)N3CCOCC3)cc2)c([O-])c1S(=O)(=O)C1CCC1 (nonaromatic ring conformer: 136.39409251308766 kcal/mol)

>  <smiles>  (19) 
Cc1ccc(NC(=O)Nc2ccc(S(=O)(=O)N3CCOCC3)cc2)c(O)c1S(=O)(=O)C1CCC1

>  <score_type>  (19) 
oracle

>  <origin>  (19) 
adgpu

>  <m_score__min__energy>  (19) 
-17.109999999999999

>  <m_primary>  (19) 
energy

$$$$
19:0
     RDKit          3D

 55 57  0  0  0  0  0  0  0  0999 V2000
  -10.1293   20.0441  -31.7873 H   0  0  0  0  0  0  0  0  0  0  0  0
   -9.1160   20.4710  -31.8200 C   0  0  0  0  0  0  0  0  0  0  0  0
   -8.0010   19.5410  -32.1050 C   0  0  0  0  0  0  0  0  0  0  0  0
   -7.7100   18.6720  -31.2390 O   0  0  0  0  0  0  0  0  0  0  0  0
   -7.3320   19.5370  -33.3780 N   0  0  0  0  0  0  0  0  0  0  0  0
   -7.7900   20.0430  -34.1690 H   0  0  0  0  0  0  0  0  0  0  0  0
   -6.3380   18.5600  -33.7250 C   0  0  0  0  0  0  0  0  0  0  0  0
   -6.7410   17.2290  -33.9130 C   0  0  0  0  0  0  0  0  0  0  0  0
   -7.8039   16.9630  -33.8160 H   0  0  0  0  0  0  0  0  0  0  0  0
   -5.8060   16.2390  -34.2220 C   0  0  0  0  0  0  0  0  0  0  0  0
   -6.1327   15.1974  -34.3575 H   0  0  0  0  0  0  0  0  0  0  0  0
   -4.4580   16.5700  -34.3590 C   0  0  0  0  0  0  0  0  0  0  0  0
   -3.7208   15.7877  -34.5924 H   0  0  0  0  0  0  0  0  0  0  0  0
   -4.0440   17.8940  -34.2000 C   0  0  0  0  0  0  0  0  0  0  0  0
   -2.9800   18.1495  -34.3124 H   0  0  0  0  0  0  0  0  0  0  0  0
   -4.9730   18.9020  -33.8980 C   0  0  0  0  0  0  0  0  0  0  0  0
   -4.5240   20.2600  -33.8230 N   0  0  0  0  0  0  0  0  0  0  0  0
   -5.0920   21.0480  -34.1990 H   0  0  0  0  0  0  0  0  0  0  0  0
   -3.5770   20.4850  -33.4440 H   0  0  0  0  0  0  0  0  0  0  0  0
   -9.0000   21.7890  -31.5980 C   0  0  0  0  0  0  0  0  0  0  0  0
   -9.9267   22.3805  -31.5613 H   0  0  0  0  0  0  0  0  0  0  0  0
   -7.7250   22.5080  -31.3990 C   0  0  0  0  0  0  0  0  0  0  0  0
   -6.9510   22.8610  -32.5120 C   0  0  0  0  0  0  0  0  0  0  0  0
   -7.2921   22.5941  -33.5232 H   0  0  0  0  0  0  0  0  0  0  0  0
   -5.7470   23.5510  -32.3430 C   0  0  0  0  0  0  0  0  0  0  0  0
   -5.1409   23.8176  -33.2214 H   0  0  0  0  0  0  0  0  0  0  0  0
   -5.3070   23.9060  -31.0550 C   0  0  0  0  0  0  0  0  0  0  0  0
   -4.1100   24.6040  -30.8350 O   0  0  0  0  0  0  0  0  0  0  0  0
   -3.1160   24.2460  -29.9120 C   0  0  0  0  0  0  0  0  0  0  0  0
   -2.7410   25.0670  -29.0300 O   0  0  0  0  0  0  0  0  0  0  0  0
   -2.4640   22.9220  -30.0140 C   0  0  0  0  0  0  0  0  0  0  0  0
   -1.9610   22.2820  -28.8720 C   0  0  0  0  0  0  0  0  0  0  0  0
   -2.0544   22.7668  -27.8890 H   0  0  0  0  0  0  0  0  0  0  0  0
   -1.3430   21.0350  -28.9730 C   0  0  0  0  0  0  0  0  0  0  0  0
   -0.9486   20.5493  -28.0682 H   0  0  0  0  0  0  0  0  0  0  0  0
   -1.2180   20.3910  -30.2180 C   0  0  0  0  0  0  0  0  0  0  0  0
   -0.4940   19.1490  -30.3260 N   0  0  0  0  0  0  0  0  0  0  0  0
   -0.6780   18.5260  -31.1440 H   0  0  0  0  0  0  0  0  0  0  0  0
    0.5620   18.7380  -29.4010 C   0  0  0  0  0  0  0  0  0  0  0  0
    1.1705   19.6142  -29.1325 H   0  0  0  0  0  0  0  0  0  0  0  0
    1.1900   17.9785  -29.8896 H   0  0  0  0  0  0  0  0  0  0  0  0
   -0.0450   18.1410  -28.1370 C   0  0  0  0  0  0  0  0  0  0  0  0
    0.4222   18.6005  -27.2535 H   0  0  0  0  0  0  0  0  0  0  0  0
   -1.1275   18.3361  -28.1226 H   0  0  0  0  0  0  0  0  0  0  0  0
    0.1321   17.0554  -28.1226 H   0  0  0  0  0  0  0  0  0  0  0  0
   -1.7410   21.0200  -31.3740 C   0  0  0  0  0  0  0  0  0  0  0  0
   -1.6990   20.3810  -32.6610 N   0  0  0  0  0  0  0  0  0  0  0  0
   -1.9500   19.1640  -32.7730 O   0  0  0  0  0  0  0  0  0  0  0  0
   -1.5750   21.1380  -33.8040 O   0  0  0  0  0  0  0  0  0  0  0  0
   -2.3470   22.2840  -31.2600 C   0  0  0  0  0  0  0  0  0  0  0  0
   -2.7356   22.7810  -32.1611 H   0  0  0  0  0  0  0  0  0  0  0  0
   -6.1090   23.5980  -29.9500 C   0  0  0  0  0  0  0  0  0  0  0  0
   -5.7898   23.9009  -28.9419 H   0  0  0  0  0  0  0  0  0  0  0  0
   -7.3130   22.9080  -30.1190 C   0  0  0  0  0  0  0  0  0  0  0  0
   -7.9398   22.6778  -29.2449 H   0  0  0  0  0  0  0  0  0  0  0  0
  1  2  1  0
  2  3  1  0
  3  4  2  0
  3  5  1  0
  5  6  1  0
  5  7  1  0
  7  8  2  0
  8  9  1  0
  8 10  1  0
 10 11  1  0
 10 12  2  0
 12 13  1  0
 12 14  1  0
 14 15  1  0
 14 16  2  0
 16 17  1  0
 17 18  1  0
 17 19  1  0
  2 20  2  0
 20 21  1  0
 20 22  1  0
 22 23  2  0
 23 24  1  0
 23 25  1  0
 25 26  1  0
 25 27  2  0
 27 28  1  0
 28 29  1  0
 29 30  2  0
 29 31  1  0
 31 32  2  0
 32 33  1  0
 32 34  1  0
 34 35  1  0
 34 36  2  0
 36 37  1  0
 37 38  1  0
 37 39  1  0
 39 40  1  0
 39 41  1  0
 39 42  1  0
 42 43  1  0
 42 44  1  0
 42 45  1  0
 36 46  1  0
 46 47  1  0
 47 48  2  0
 47 49  1  0
 46 50  2  0
 50 51  1  0
 27 52  1  0
 52 53  1  0
 52 54  2  0
 54 55  1  0
 16  7  1  0
 54 22  1  0
 50 31  1  0
M  CHG  2  47   1  49  -1
M  END
>  <UniqueID>  (20) 
18

>  <SMILES>  (20) 
CCNc1ccc(C(=O)Oc2ccc(/C=C\C(=O)Nc3ccccc3N)cc2)cc1[N+](=O)[O-]

>  <Energy>  (20) 
79.48941412069699

>  <Genealogy>  (20) 
CCNc1ccc(C(=O)Oc2ccc(/C=C\C(=O)Nc3ccccc3N)cc2)cc1[N+](=O)[O-] (cis-trans isomerization)
CCNc1ccc(C(=O)Oc2ccc(/C=C\C(=O)Nc3ccccc3N)cc2)cc1[N+](=O)[O-] (3D coordinates assigned)
CCNc1ccc(C(=O)Oc2ccc(/C=C\C(=O)Nc3ccccc3N)cc2)cc1[N+](=O)[O-] (optimized conformer: 79.48941412069699 kcal/mol)

>  <smiles>  (20) 
CCNc1ccc(C(=O)Oc2ccc(C=CC(=O)Nc3ccccc3N)cc2)cc1[N+](=O)[O-]

>  <score_type>  (20) 
oracle

>  <origin>  (20) 
adgpu

>  <m_score__min__energy>  (20) 
-10.1

>  <m_primary>  (20) 
energy

$$$$
20:0
     RDKit          3D

 55 57  0  0  0  0  0  0  0  0999 V2000
    1.1270   17.9420  -28.1480 C   0  0  0  0  0  0  0  0  0  0  0  0
   -0.0780   18.8220  -27.9910 C   0  0  0  0  0  0  0  0  0  0  0  0
   -1.1100   18.4500  -27.1170 C   0  0  0  0  0  0  0  0  0  0  0  0
   -2.2450   19.2640  -26.9710 C   0  0  0  0  0  0  0  0  0  0  0  0
   -3.3180   18.8910  -25.9920 C   0  0  0  0  0  0  0  0  0  0  0  0
   -2.3310   20.4650  -27.6880 C   0  0  0  0  0  0  0  0  0  0  0  0
   -1.3100   20.8370  -28.5730 C   0  0  0  0  0  0  0  0  0  0  0  0
   -1.4170   22.3630  -29.4400 S   0  0  0  0  0  0  0  0  0  0  0  0
   -1.7390   22.0830  -30.8810 O   0  0  0  0  0  0  0  0  0  0  0  0
   -0.0990   23.0840  -29.3860 O   0  0  0  0  0  0  0  0  0  0  0  0
   -2.6430   23.4070  -28.7100 C   0  0  0  0  0  0  0  0  0  0  0  0
   -3.9280   23.6140  -29.1890 C   0  0  0  0  0  0  0  0  0  0  0  0
   -4.4760   23.1920  -30.4860 C   0  0  0  0  0  0  0  0  0  0  0  0
   -4.9120   24.0570  -31.2920 O   0  0  0  0  0  0  0  0  0  0  0  0
   -4.4360   21.8100  -30.8620 N   0  0  0  0  0  0  0  0  0  0  0  0
   -5.3780   21.1980  -31.7610 C   0  0  0  0  0  0  0  0  0  0  0  0
   -6.7590   21.3090  -31.5180 C   0  0  0  0  0  0  0  0  0  0  0  0
   -7.6860   20.6540  -32.3390 C   0  0  0  0  0  0  0  0  0  0  0  0
   -9.1530   20.7380  -32.0360 C   0  0  0  0  0  0  0  0  0  0  0  0
   -7.2300   19.8500  -33.3910 C   0  0  0  0  0  0  0  0  0  0  0  0
   -5.8630   19.7300  -33.6410 C   0  0  0  0  0  0  0  0  0  0  0  0
   -4.9270   20.4050  -32.8430 C   0  0  0  0  0  0  0  0  0  0  0  0
   -3.4590   20.2540  -33.1390 C   0  0  0  0  0  0  0  0  0  0  0  0
   -4.6140   24.3190  -28.2200 C   0  0  0  0  0  0  0  0  0  0  0  0
   -3.7970   24.5680  -27.1780 N   0  0  0  0  0  0  0  0  0  0  0  0
   -4.1690   25.2960  -25.9680 C   0  0  0  0  0  0  0  0  0  0  0  0
   -2.5890   24.0300  -27.4690 C   0  0  0  0  0  0  0  0  0  0  0  0
   -1.4060   24.0460  -26.5450 C   0  0  0  0  0  0  0  0  0  0  0  0
   -0.1950   20.0030  -28.7360 C   0  0  0  0  0  0  0  0  0  0  0  0
    1.5091   17.6629  -27.1550 H   0  0  0  0  0  0  0  0  0  0  0  0
    0.8480   17.0336  -28.7021 H   0  0  0  0  0  0  0  0  0  0  0  0
    1.9074   18.4843  -28.7021 H   0  0  0  0  0  0  0  0  0  0  0  0
   -1.0299   17.5153  -26.5426 H   0  0  0  0  0  0  0  0  0  0  0  0
   -2.9408   19.0221  -24.9670 H   0  0  0  0  0  0  0  0  0  0  0  0
   -4.1950   19.5370  -26.1454 H   0  0  0  0  0  0  0  0  0  0  0  0
   -3.6052   17.8403  -26.1454 H   0  0  0  0  0  0  0  0  0  0  0  0
   -3.2050   21.1196  -27.5554 H   0  0  0  0  0  0  0  0  0  0  0  0
   -3.6710   21.2280  -30.4550 H   0  0  0  0  0  0  0  0  0  0  0  0
   -7.1152   21.9172  -30.6735 H   0  0  0  0  0  0  0  0  0  0  0  0
   -9.3024   20.7466  -30.9462 H   0  0  0  0  0  0  0  0  0  0  0  0
   -9.5647   21.6612  -32.4698 H   0  0  0  0  0  0  0  0  0  0  0  0
   -9.6674   19.8678  -32.4698 H   0  0  0  0  0  0  0  0  0  0  0  0
   -7.9521   19.3114  -34.0222 H   0  0  0  0  0  0  0  0  0  0  0  0
   -5.5151   19.0995  -34.4726 H   0  0  0  0  0  0  0  0  0  0  0  0
   -2.8985   20.1963  -32.1943 H   0  0  0  0  0  0  0  0  0  0  0  0
   -3.2947   19.3342  -33.7195 H   0  0  0  0  0  0  0  0  0  0  0  0
   -3.1109   21.1211  -33.7195 H   0  0  0  0  0  0  0  0  0  0  0  0
   -5.6669   24.6299  -28.2884 H   0  0  0  0  0  0  0  0  0  0  0  0
   -3.8714   24.7136  -25.0836 H   0  0  0  0  0  0  0  0  0  0  0  0
   -3.6581   26.2701  -25.9545 H   0  0  0  0  0  0  0  0  0  0  0  0
   -5.2577   25.4527  -25.9545 H   0  0  0  0  0  0  0  0  0  0  0  0
   -1.7553   24.0413  -25.5020 H   0  0  0  0  0  0  0  0  0  0  0  0
   -0.7858   23.1562  -26.7280 H   0  0  0  0  0  0  0  0  0  0  0  0
   -0.8100   24.9523  -26.7280 H   0  0  0  0  0  0  0  0  0  0  0  0
    0.5928   20.2774  -29.4530 H   0  0  0  0  0  0  0  0  0  0  0  0
  1  2  1  0
  2  3  2  0
  3  4  1  0
  4  5  1  0
  4  6  2  0
  6  7  1  0
  7  8  1  0
  8  9  2  0
  8 10  2  0
  8 11  1  0
 11 12  1  0
 12 13  1  0
 13 14  2  0
 13 15  1  0
 15 16  1  0
 16 17  2  0
 17 18  1  0
 18 19  1  0
 18 20  2  0
 20 21  1  0
 21 22  2  0
 22 23  1  0
 12 24  2  0
 24 25  1  0
 25 26  1  0
 25 27  1  0
 27 28  1  0
  7 29  2  0
 29  2  1  0
 27 11  2  0
 22 16  1  0
  1 30  1  0
  1 31  1  0
  1 32  1  0
  3 33  1  0
  5 34  1  0
  5 35  1  0
  5 36  1  0
  6 37  1  0
 15 38  1  0
 17 39  1  0
 19 40  1  0
 19 41  1  0
 19 42  1  0
 20 43  1  0
 21 44  1  0
 23 45  1  0
 23 46  1  0
 23 47  1  0
 24 48  1  0
 26 49  1  0
 26 50  1  0
 26 51  1  0
 28 52  1  0
 28 53  1  0
 28 54  1  0
 29 55  1  0
M  END
>  <UniqueID>  (21) 
19

>  <SMILES>  (21) 
Cc1cc(C)cc(S(=O)(=O)c2c(C(=O)Nc3cc(C)ccc3C)cn(C)c2C)c1

>  <Energy>  (21) 
84.51694644658433

>  <Genealogy>  (21) 
Cc1cc(C)cc(S(=O)(=O)c2c(C(=O)Nc3cc(C)ccc3C)cn(C)c2C)c1 (3D coordinates assigned)
Cc1cc(C)cc(S(=O)(=O)c2c(C(=O)Nc3cc(C)ccc3C)cn(C)c2C)c1 (optimized conformer: 84.51694644658433 kcal/mol)

>  <smiles>  (21) 
Cc1cc(C)cc(S(=O)(=O)c2c(C(=O)Nc3cc(C)ccc3C)cn(C)c2C)c1

>  <score_type>  (21) 
oracle

>  <origin>  (21) 
adgpu

>  <m_score__min__energy>  (21) 
-9.6400000000000006

>  <m_primary>  (21) 
energy

$$$$
21:0
     RDKit          3D

 48 50  0  0  0  0  0  0  0  0999 V2000
   -2.4330   21.1250  -33.4360 C   0  0  0  0  0  0  0  0  0  0  0  0
   -2.9500   20.3370  -32.2350 C   0  0  0  0  0  0  0  0  0  0  0  0
   -4.4670   20.3410  -32.1890 C   0  0  0  0  0  0  0  0  0  0  0  0
   -5.1700   21.2920  -31.5130 C   0  0  0  0  0  0  0  0  0  0  0  0
   -6.6520   21.3700  -31.5810 C   0  0  0  0  0  0  0  0  0  0  0  0
   -7.2750   22.5520  -32.0130 C   0  0  0  0  0  0  0  0  0  0  0  0
   -8.6690   22.6280  -32.0870 C   0  0  0  0  0  0  0  0  0  0  0  0
   -9.4500   21.5220  -31.7420 C   0  0  0  0  0  0  0  0  0  0  0  0
   -8.8380   20.3370  -31.3270 C   0  0  0  0  0  0  0  0  0  0  0  0
   -7.4450   20.2560  -31.2520 C   0  0  0  0  0  0  0  0  0  0  0  0
   -4.4940   22.3350  -30.7130 C   0  0  0  0  0  0  0  0  0  0  0  0
   -4.7810   23.6910  -30.9240 C   0  0  0  0  0  0  0  0  0  0  0  0
   -4.1320   24.6740  -30.1710 C   0  0  0  0  0  0  0  0  0  0  0  0
   -3.1800   24.3120  -29.2000 C   0  0  0  0  0  0  0  0  0  0  0  0
   -2.4980   25.2510  -28.4110 O   0  0  0  0  0  0  0  0  0  0  0  0
   -2.5030   25.2940  -26.7000 S   0  0  0  0  0  0  0  0  0  0  0  0
   -4.1280   25.2960  -26.1080 N   0  0  0  0  0  0  0  0  0  0  0  0
   -1.8010   24.0680  -26.1850 O   0  0  0  0  0  0  0  0  0  0  0  0
   -1.7750   26.5140  -26.2080 O   0  0  0  0  0  0  0  0  0  0  0  0
   -2.8820   22.9570  -29.0110 C   0  0  0  0  0  0  0  0  0  0  0  0
   -3.5300   21.9730  -29.7630 C   0  0  0  0  0  0  0  0  0  0  0  0
   -5.1620   19.2140  -32.8630 C   0  0  0  0  0  0  0  0  0  0  0  0
   -5.5410   18.0750  -32.1350 C   0  0  0  0  0  0  0  0  0  0  0  0
   -6.1940   17.0160  -32.7740 C   0  0  0  0  0  0  0  0  0  0  0  0
   -6.4770   17.0900  -34.1410 C   0  0  0  0  0  0  0  0  0  0  0  0
   -6.1090   18.2230  -34.8710 C   0  0  0  0  0  0  0  0  0  0  0  0
   -5.4570   19.2840  -34.2360 C   0  0  0  0  0  0  0  0  0  0  0  0
   -1.8613   21.9964  -33.0842 H   0  0  0  0  0  0  0  0  0  0  0  0
   -1.7817   20.4805  -34.0446 H   0  0  0  0  0  0  0  0  0  0  0  0
   -3.2836   21.4659  -34.0446 H   0  0  0  0  0  0  0  0  0  0  0  0
   -2.5958   19.2981  -32.3078 H   0  0  0  0  0  0  0  0  0  0  0  0
   -2.5720   20.8117  -31.3175 H   0  0  0  0  0  0  0  0  0  0  0  0
   -6.6635   23.4220  -32.2944 H   0  0  0  0  0  0  0  0  0  0  0  0
   -9.1516   23.5597  -32.4173 H   0  0  0  0  0  0  0  0  0  0  0  0
  -10.5468   21.5845  -31.7972 H   0  0  0  0  0  0  0  0  0  0  0  0
   -9.4538   19.4659  -31.0587 H   0  0  0  0  0  0  0  0  0  0  0  0
   -6.9669   19.3176  -30.9345 H   0  0  0  0  0  0  0  0  0  0  0  0
   -5.5198   23.9826  -31.6850 H   0  0  0  0  0  0  0  0  0  0  0  0
   -4.3667   25.7356  -30.3384 H   0  0  0  0  0  0  0  0  0  0  0  0
   -4.7160   25.7610  -26.8360 H   0  0  0  0  0  0  0  0  0  0  0  0
   -4.1580   25.9070  -25.2620 H   0  0  0  0  0  0  0  0  0  0  0  0
   -2.1304   22.6640  -28.2632 H   0  0  0  0  0  0  0  0  0  0  0  0
   -3.2826   20.9124  -29.6086 H   0  0  0  0  0  0  0  0  0  0  0  0
   -5.3236   18.0152  -31.0583 H   0  0  0  0  0  0  0  0  0  0  0  0
   -6.4852   16.1238  -32.2002 H   0  0  0  0  0  0  0  0  0  0  0  0
   -6.9897   16.2557  -34.6422 H   0  0  0  0  0  0  0  0  0  0  0  0
   -6.3326   18.2802  -35.9465 H   0  0  0  0  0  0  0  0  0  0  0  0
   -5.1737   20.1769  -34.8125 H   0  0  0  0  0  0  0  0  0  0  0  0
  1  2  1  0
  2  3  1  0
  3  4  2  3
  4  5  1  0
  5  6  2  0
  6  7  1  0
  7  8  2  0
  8  9  1  0
  9 10  2  0
  4 11  1  0
 11 12  2  0
 12 13  1  0
 13 14  2  0
 14 15  1  0
 15 16  1  0
 16 17  1  0
 16 18  2  0
 16 19  2  0
 14 20  1  0
 20 21  2  0
  3 22  1  0
 22 23  2  0
 23 24  1  0
 24 25  2  0
 25 26  1  0
 26 27  2  0
 10  5  1  0
 21 11  1  0
 27 22  1  0
  1 28  1  0
  1 29  1  0
  1 30  1  0
  2 31  1  0
  2 32  1  0
  6 33  1  0
  7 34  1  0
  8 35  1  0
  9 36  1  0
 10 37  1  0
 12 38  1  0
 13 39  1  0
 17 40  1  0
 17 41  1  0
 20 42  1  0
 21 43  1  0
 23 44  1  0
 24 45  1  0
 25 46  1  0
 26 47  1  0
 27 48  1  0
M  END
>  <UniqueID>  (22) 
20

>  <SMILES>  (22) 
CCC(=C(c1ccccc1)c1ccc(OS(N)(=O)=O)cc1)c1ccccc1

>  <Energy>  (22) 
64.80941607038157

>  <Genealogy>  (22) 
CCC(=C(c1ccccc1)c1ccc(OS(N)(=O)=O)cc1)c1ccccc1 (3D coordinates assigned)
CCC(=C(c1ccccc1)c1ccc(OS(N)(=O)=O)cc1)c1ccccc1 (optimized conformer: 64.80941607038157 kcal/mol)

>  <smiles>  (22) 
CCC(=C(c1ccccc1)c1ccc(OS(N)(=O)=O)cc1)c1ccccc1

>  <score_type>  (22) 
oracle

>  <origin>  (22) 
adgpu

>  <m_score__min__energy>  (22) 
-9.5500000000000007

>  <m_primary>  (22) 
energy

$$$$
22:0
     RDKit          3D

 52 54  0  0  0  0  0  0  0  0999 V2000
   -0.4880   22.3850  -25.6070 C   0  0  0  0  0  0  0  0  0  0  0  0
   -1.4870   23.0060  -26.5690 C   0  0  0  0  0  0  0  0  0  0  0  0
   -1.0000   22.8790  -27.9010 O   0  0  0  0  0  0  0  0  0  0  0  0
   -1.7080   22.3390  -28.9890 C   0  0  0  0  0  0  0  0  0  0  0  0
   -2.4910   23.0870  -29.8480 C   0  0  0  0  0  0  0  0  0  0  0  0
   -2.7510   24.5370  -29.7770 C   0  0  0  0  0  0  0  0  0  0  0  0
   -1.9970   25.2770  -29.0880 O   0  0  0  0  0  0  0  0  0  0  0  0
   -3.8680   25.1020  -30.4660 N   0  0  0  0  0  0  0  0  0  0  0  0
   -5.5100   24.7820  -30.0230 S   0  0  0  0  0  0  0  0  0  0  0  0
   -6.4070   24.2710  -31.4730 C   0  0  0  0  0  0  0  0  0  0  0  0
   -5.5550   23.6900  -28.9910 O   0  0  0  0  0  0  0  0  0  0  0  0
   -6.1430   26.0300  -29.4750 O   0  0  0  0  0  0  0  0  0  0  0  0
   -2.9820   22.1580  -30.7570 C   0  0  0  0  0  0  0  0  0  0  0  0
   -4.0050   22.4750  -32.1950 S   0  0  0  0  0  0  0  0  0  0  0  0
   -4.5190   20.7570  -32.3170 C   0  0  0  0  0  0  0  0  0  0  0  0
   -5.7350   20.3500  -31.7450 C   0  0  0  0  0  0  0  0  0  0  0  0
   -6.5200   21.2430  -31.0900 F   0  0  0  0  0  0  0  0  0  0  0  0
   -6.1420   19.0140  -31.8410 C   0  0  0  0  0  0  0  0  0  0  0  0
   -5.3420   18.0840  -32.5110 C   0  0  0  0  0  0  0  0  0  0  0  0
   -4.1340   18.4870  -33.0860 C   0  0  0  0  0  0  0  0  0  0  0  0
   -3.7200   19.8200  -32.9910 C   0  0  0  0  0  0  0  0  0  0  0  0
   -2.5500   20.1950  -33.5660 F   0  0  0  0  0  0  0  0  0  0  0  0
   -2.5260   20.9290  -30.4450 N   0  0  0  0  0  0  0  0  0  0  0  0
   -1.7540   21.0410  -29.3760 N   0  0  0  0  0  0  0  0  0  0  0  0
   -1.0570   19.9180  -28.8250 C   0  0  0  0  0  0  0  0  0  0  0  0
    0.0640   19.3850  -29.4990 C   0  0  0  0  0  0  0  0  0  0  0  0
    0.5500   20.0000  -30.7830 C   0  0  0  0  0  0  0  0  0  0  0  0
    0.7450   18.2890  -28.9490 C   0  0  0  0  0  0  0  0  0  0  0  0
    0.2980   17.7040  -27.7640 C   0  0  0  0  0  0  0  0  0  0  0  0
   -0.8370   18.2000  -27.1190 C   0  0  0  0  0  0  0  0  0  0  0  0
   -1.5250   19.3040  -27.6430 C   0  0  0  0  0  0  0  0  0  0  0  0
   -2.7650   19.8110  -26.9570 C   0  0  0  0  0  0  0  0  0  0  0  0
   -0.8046   22.5818  -24.5721 H   0  0  0  0  0  0  0  0  0  0  0  0
   -0.4423   21.2991  -25.7763 H   0  0  0  0  0  0  0  0  0  0  0  0
    0.5060   22.8246  -25.7763 H   0  0  0  0  0  0  0  0  0  0  0  0
   -2.4533   22.4879  -26.4802 H   0  0  0  0  0  0  0  0  0  0  0  0
   -1.6199   24.0704  -26.3255 H   0  0  0  0  0  0  0  0  0  0  0  0
   -7.3259   23.7475  -31.1702 H   0  0  0  0  0  0  0  0  0  0  0  0
   -6.6693   25.1552  -32.0724 H   0  0  0  0  0  0  0  0  0  0  0  0
   -5.7802   23.5944  -32.0724 H   0  0  0  0  0  0  0  0  0  0  0  0
   -7.0927   18.6956  -31.3885 H   0  0  0  0  0  0  0  0  0  0  0  0
   -5.6635   17.0347  -32.5856 H   0  0  0  0  0  0  0  0  0  0  0  0
   -3.5068   17.7542  -33.6148 H   0  0  0  0  0  0  0  0  0  0  0  0
    1.2173   20.8444  -30.5556 H   0  0  0  0  0  0  0  0  0  0  0  0
    1.0987   19.2458  -31.3662 H   0  0  0  0  0  0  0  0  0  0  0  0
   -0.3106   20.3595  -31.3662 H   0  0  0  0  0  0  0  0  0  0  0  0
    1.6361   17.8887  -29.4546 H   0  0  0  0  0  0  0  0  0  0  0  0
    0.8416   16.8488  -27.3361 H   0  0  0  0  0  0  0  0  0  0  0  0
   -1.1934   17.7220  -26.1946 H   0  0  0  0  0  0  0  0  0  0  0  0
   -2.6295   19.7556  -25.8668 H   0  0  0  0  0  0  0  0  0  0  0  0
   -2.9459   20.8553  -27.2514 H   0  0  0  0  0  0  0  0  0  0  0  0
   -3.6258   19.1926  -27.2514 H   0  0  0  0  0  0  0  0  0  0  0  0
  1  2  1  0
  2  3  1  0
  3  4  1  0
  4  5  2  0
  5  6  1  0
  6  7  2  0
  6  8  1  0
  8  9  1  0
  9 10  1  0
  9 11  2  0
  9 12  2  0
  5 13  1  0
 13 14  1  0
 14 15  1  0
 15 16  2  0
 16 17  1  0
 16 18  1  0
 18 19  2  0
 19 20  1  0
 20 21  2  0
 21 22  1  0
 13 23  2  0
 23 24  1  0
 24 25  1  0
 25 26  2  0
 26 27  1  0
 26 28  1  0
 28 29  2  0
 29 30  1  0
 30 31  2  0
 31 32  1  0
 24  4  1  0
 31 25  1  0
 21 15  1  0
  1 33  1  0
  1 34  1  0
  1 35  1  0
  2 36  1  0
  2 37  1  0
 10 38  1  0
 10 39  1  0
 10 40  1  0
 18 41  1  0
 19 42  1  0
 20 43  1  0
 27 44  1  0
 27 45  1  0
 27 46  1  0
 28 47  1  0
 29 48  1  0
 30 49  1  0
 32 50  1  0
 32 51  1  0
 32 52  1  0
M  CHG  1   8  -1
M  END
>  <UniqueID>  (23) 
21

>  <SMILES>  (23) 
CCOc1c(C(=O)[N-]S(C)(=O)=O)c(Sc2c(F)cccc2F)nn1-c1c(C)cccc1C

>  <Energy>  (23) 
82.31263004031632

>  <Genealogy>  (23) 
CCOc1c(C(=O)[N-]S(C)(=O)=O)c(Sc2c(F)cccc2F)nn1-c1c(C)cccc1C (protonated)
CCOc1c(C(=O)[N-]S(C)(=O)=O)c(Sc2c(F)cccc2F)nn1-c1c(C)cccc1C (3D coordinates assigned)
CCOc1c(C(=O)[N-]S(C)(=O)=O)c(Sc2c(F)cccc2F)nn1-c1c(C)cccc1C (optimized conformer: 82.31263004031632 kcal/mol)

>  <smiles>  (23) 
CCOc1c(C(=O)NS(C)(=O)=O)c(Sc2c(F)cccc2F)nn1-c1c(C)cccc1C

>  <score_type>  (23) 
oracle

>  <origin>  (23) 
adgpu

>  <m_score__min__energy>  (23) 
-10.65

>  <m_primary>  (23) 
energy

$$$$
23:0
     RDKit          3D

 36 38  0  0  0  0  0  0  0  0999 V2000
   -3.9130   25.3830  -30.7170 O   0  0  0  0  0  0  0  0  0  0  0  0
   -3.8620   24.1500  -30.4620 C   0  0  0  0  0  0  0  0  0  0  0  0
   -4.5850   23.2230  -31.2840 N   0  0  0  0  0  0  0  0  0  0  0  0
   -4.0420   22.1000  -31.9930 C   0  0  0  0  0  0  0  0  0  0  0  0
   -2.6510   21.9060  -32.0920 C   0  0  0  0  0  0  0  0  0  0  0  0
   -2.1390   20.8530  -32.8540 C   0  0  0  0  0  0  0  0  0  0  0  0
   -3.0020   20.0000  -33.5410 C   0  0  0  0  0  0  0  0  0  0  0  0
   -4.3820   20.1940  -33.4660 C   0  0  0  0  0  0  0  0  0  0  0  0
   -4.9140   21.2290  -32.6860 C   0  0  0  0  0  0  0  0  0  0  0  0
   -6.3080   21.3850  -32.6490 O   0  0  0  0  0  0  0  0  0  0  0  0
   -7.2300   20.3610  -32.3810 C   0  0  0  0  0  0  0  0  0  0  0  0
   -8.6050   20.5100  -32.6440 C   0  0  0  0  0  0  0  0  0  0  0  0
   -9.4880   19.4590  -32.3790 C   0  0  0  0  0  0  0  0  0  0  0  0
   -9.0120   18.2640  -31.8350 C   0  0  0  0  0  0  0  0  0  0  0  0
   -7.6520   18.1200  -31.5460 C   0  0  0  0  0  0  0  0  0  0  0  0
   -6.7650   19.1690  -31.8130 C   0  0  0  0  0  0  0  0  0  0  0  0
   -3.0020   23.6630  -29.3490 C   0  0  0  0  0  0  0  0  0  0  0  0
   -3.2620   22.4000  -28.7770 C   0  0  0  0  0  0  0  0  0  0  0  0
   -2.4830   21.9180  -27.7240 C   0  0  0  0  0  0  0  0  0  0  0  0
   -1.4320   22.6850  -27.2210 C   0  0  0  0  0  0  0  0  0  0  0  0
   -1.1580   23.9370  -27.7730 C   0  0  0  0  0  0  0  0  0  0  0  0
   -1.9310   24.4320  -28.8300 C   0  0  0  0  0  0  0  0  0  0  0  0
   -1.6210   25.6850  -29.3450 O   0  0  0  0  0  0  0  0  0  0  0  0
   -1.9644   22.5865  -31.5671 H   0  0  0  0  0  0  0  0  0  0  0  0
   -1.0518   20.6963  -32.9122 H   0  0  0  0  0  0  0  0  0  0  0  0
   -2.5949   19.1738  -34.1424 H   0  0  0  0  0  0  0  0  0  0  0  0
   -5.0575   19.5288  -34.0239 H   0  0  0  0  0  0  0  0  0  0  0  0
   -8.9853   21.4552  -33.0588 H   0  0  0  0  0  0  0  0  0  0  0  0
  -10.5596   19.5735  -32.5994 H   0  0  0  0  0  0  0  0  0  0  0  0
   -9.7075   17.4359  -31.6339 H   0  0  0  0  0  0  0  0  0  0  0  0
   -7.2789   17.1821  -31.1087 H   0  0  0  0  0  0  0  0  0  0  0  0
   -5.6969   19.0563  -31.5753 H   0  0  0  0  0  0  0  0  0  0  0  0
   -4.0889   21.7875  -29.1657 H   0  0  0  0  0  0  0  0  0  0  0  0
   -2.6984   20.9306  -27.2896 H   0  0  0  0  0  0  0  0  0  0  0  0
   -0.8201   22.3034  -26.3904 H   0  0  0  0  0  0  0  0  0  0  0  0
   -0.3284   24.5395  -27.3746 H   0  0  0  0  0  0  0  0  0  0  0  0
  1  2  2  0
  2  3  1  0
  3  4  1  0
  4  5  2  0
  5  6  1  0
  6  7  2  0
  7  8  1  0
  8  9  2  0
  9 10  1  0
 10 11  1  0
 11 12  2  0
 12 13  1  0
 13 14  2  0
 14 15  1  0
 15 16  2  0
  2 17  1  0
 17 18  2  0
 18 19  1  0
 19 20  2  0
 20 21  1  0
 21 22  2  0
 22 23  1  0
  9  4  1  0
 16 11  1  0
 22 17  1  0
  5 24  1  0
  6 25  1  0
  7 26  1  0
  8 27  1  0
 12 28  1  0
 13 29  1  0
 14 30  1  0
 15 31  1  0
 16 32  1  0
 18 33  1  0
 19 34  1  0
 20 35  1  0
 21 36  1  0
M  CHG  2   3  -1  23  -1
M  END
>  <UniqueID>  (24) 
22

>  <SMILES>  (24) 
O=C([N-]c1ccccc1Oc1ccccc1)c1ccccc1[O-]

>  <Energy>  (24) 
51.79081399582652

>  <Genealogy>  (24) 
O=C([N-]c1ccccc1Oc1ccccc1)c1ccccc1[O-] (protonated)
O=C([N-]c1ccccc1Oc1ccccc1)c1ccccc1[O-] (3D coordinates assigned)
O=C([N-]c1ccccc1Oc1ccccc1)c1ccccc1[O-] (optimized conformer: 51.79081399582652 kcal/mol)

>  <smiles>  (24) 
O=C(Nc1ccccc1Oc1ccccc1)c1ccccc1O

>  <score_type>  (24) 
oracle

>  <origin>  (24) 
adgpu

>  <m_score__min__energy>  (24) 
-12.41

>  <m_primary>  (24) 
energy

$$$$
24:0
     RDKit          3D

 43 45  0  0  0  0  0  0  0  0999 V2000
   -6.3010   25.3380  -29.6930 C   0  0  0  0  0  0  0  0  0  0  0  0
   -5.3010   25.6850  -30.7900 C   0  0  0  0  0  0  0  0  0  0  0  0
   -4.0040   25.1790  -30.4730 O   0  0  0  0  0  0  0  0  0  0  0  0
   -3.7250   24.0360  -29.7000 C   0  0  0  0  0  0  0  0  0  0  0  0
   -3.5450   24.1220  -28.3030 C   0  0  0  0  0  0  0  0  0  0  0  0
   -3.2580   22.9850  -27.5500 C   0  0  0  0  0  0  0  0  0  0  0  0
   -3.1470   21.7460  -28.1720 C   0  0  0  0  0  0  0  0  0  0  0  0
   -3.3290   21.6350  -29.5500 C   0  0  0  0  0  0  0  0  0  0  0  0
   -3.6260   22.7690  -30.3340 C   0  0  0  0  0  0  0  0  0  0  0  0
   -3.8360   22.5950  -31.8000 C   0  0  0  0  0  0  0  0  0  0  0  0
   -2.9680   21.9910  -32.4860 O   0  0  0  0  0  0  0  0  0  0  0  0
   -5.0500   23.0380  -32.4210 N   0  0  0  0  0  0  0  0  0  0  0  0
   -6.3740   22.5510  -32.1620 C   0  0  0  0  0  0  0  0  0  0  0  0
   -7.4770   23.4250  -32.1390 C   0  0  0  0  0  0  0  0  0  0  0  0
   -8.7480   22.9500  -31.8090 C   0  0  0  0  0  0  0  0  0  0  0  0
   -8.9290   21.6060  -31.4780 C   0  0  0  0  0  0  0  0  0  0  0  0
   -7.8390   20.7340  -31.4780 C   0  0  0  0  0  0  0  0  0  0  0  0
   -6.5630   21.1890  -31.8300 C   0  0  0  0  0  0  0  0  0  0  0  0
   -5.5020   20.2700  -31.8040 O   0  0  0  0  0  0  0  0  0  0  0  0
   -5.1300   19.4280  -32.8630 C   0  0  0  0  0  0  0  0  0  0  0  0
   -3.7950   19.0290  -33.0630 C   0  0  0  0  0  0  0  0  0  0  0  0
   -3.4700   18.1640  -34.1130 C   0  0  0  0  0  0  0  0  0  0  0  0
   -4.4680   17.7080  -34.9800 C   0  0  0  0  0  0  0  0  0  0  0  0
   -5.7890   18.1290  -34.8060 C   0  0  0  0  0  0  0  0  0  0  0  0
   -6.1160   18.9940  -33.7570 C   0  0  0  0  0  0  0  0  0  0  0  0
   -5.8365   25.4992  -28.7090 H   0  0  0  0  0  0  0  0  0  0  0  0
   -7.1885   25.9807  -29.7892 H   0  0  0  0  0  0  0  0  0  0  0  0
   -6.5996   24.2837  -29.7892 H   0  0  0  0  0  0  0  0  0  0  0  0
   -5.6387   25.2425  -31.7388 H   0  0  0  0  0  0  0  0  0  0  0  0
   -5.2403   26.7798  -30.8780 H   0  0  0  0  0  0  0  0  0  0  0  0
   -3.6322   25.0977  -27.8026 H   0  0  0  0  0  0  0  0  0  0  0  0
   -3.1190   23.0676  -26.4619 H   0  0  0  0  0  0  0  0  0  0  0  0
   -2.9151   20.8514  -27.5754 H   0  0  0  0  0  0  0  0  0  0  0  0
   -3.2398   20.6502  -30.0318 H   0  0  0  0  0  0  0  0  0  0  0  0
   -7.3370   24.4886  -32.3824 H   0  0  0  0  0  0  0  0  0  0  0  0
   -9.6079   23.6360  -31.8099 H   0  0  0  0  0  0  0  0  0  0  0  0
   -9.9308   21.2340  -31.2171 H   0  0  0  0  0  0  0  0  0  0  0  0
   -7.9841   19.6799  -31.1989 H   0  0  0  0  0  0  0  0  0  0  0  0
   -3.0055   19.3983  -32.3920 H   0  0  0  0  0  0  0  0  0  0  0  0
   -2.4281   17.8420  -34.2570 H   0  0  0  0  0  0  0  0  0  0  0  0
   -4.2133   17.0184  -35.7983 H   0  0  0  0  0  0  0  0  0  0  0  0
   -6.5723   17.7797  -35.4948 H   0  0  0  0  0  0  0  0  0  0  0  0
   -7.1543   19.3355  -33.6336 H   0  0  0  0  0  0  0  0  0  0  0  0
  1  2  1  0
  2  3  1  0
  3  4  1  0
  4  5  2  0
  5  6  1  0
  6  7  2  0
  7  8  1  0
  8  9  2  0
  9 10  1  0
 10 11  2  0
 10 12  1  0
 12 13  1  0
 13 14  2  0
 14 15  1  0
 15 16  2  0
 16 17  1  0
 17 18  2  0
 18 19  1  0
 19 20  1  0
 20 21  2  0
 21 22  1  0
 22 23  2  0
 23 24  1  0
 24 25  2  0
  9  4  1  0
 18 13  1  0
 25 20  1  0
  1 26  1  0
  1 27  1  0
  1 28  1  0
  2 29  1  0
  2 30  1  0
  5 31  1  0
  6 32  1  0
  7 33  1  0
  8 34  1  0
 14 35  1  0
 15 36  1  0
 16 37  1  0
 17 38  1  0
 21 39  1  0
 22 40  1  0
 23 41  1  0
 24 42  1  0
 25 43  1  0
M  CHG  1  12  -1
M  END
>  <UniqueID>  (25) 
23

>  <SMILES>  (25) 
CCOc1ccccc1C(=O)[N-]c1ccccc1Oc1ccccc1

>  <Energy>  (25) 
55.220763666467015

>  <Genealogy>  (25) 
CCOc1ccccc1C(=O)[N-]c1ccccc1Oc1ccccc1 (protonated)
CCOc1ccccc1C(=O)[N-]c1ccccc1Oc1ccccc1 (3D coordinates assigned)
CCOc1ccccc1C(=O)[N-]c1ccccc1Oc1ccccc1 (optimized conformer: 55.220763666467015 kcal/mol)

>  <smiles>  (25) 
CCOc1ccccc1C(=O)Nc1ccccc1Oc1ccccc1

>  <score_type>  (25) 
oracle

>  <origin>  (25) 
adgpu

>  <m_score__min__energy>  (25) 
-9.6300000000000008

>  <m_primary>  (25) 
energy

$$$$
25:0
     RDKit          3D

 41 43  0  0  0  0  0  0  0  0999 V2000
   -7.9914   25.0893  -29.6391 H   0  0  0  0  0  0  0  0  0  0  0  0
   -7.0950   24.6060  -30.0550 C   0  0  0  0  0  0  0  0  0  0  0  0
   -5.8600   25.2560  -29.9940 C   0  0  0  0  0  0  0  0  0  0  0  0
   -5.7839   26.2495  -29.5281 H   0  0  0  0  0  0  0  0  0  0  0  0
   -4.7210   24.6440  -30.5250 C   0  0  0  0  0  0  0  0  0  0  0  0
   -3.4940   25.2940  -30.4680 O   0  0  0  0  0  0  0  0  0  0  0  0
   -4.8140   23.3770  -31.1120 C   0  0  0  0  0  0  0  0  0  0  0  0
   -3.9161   22.9028  -31.5350 H   0  0  0  0  0  0  0  0  0  0  0  0
   -6.0490   22.7070  -31.1640 C   0  0  0  0  0  0  0  0  0  0  0  0
   -6.1400   21.3600  -31.7770 C   0  0  0  0  0  0  0  0  0  0  0  0
   -7.1570   21.0570  -32.4570 O   0  0  0  0  0  0  0  0  0  0  0  0
   -5.1210   20.3690  -31.5870 N   0  0  0  0  0  0  0  0  0  0  0  0
   -3.8370   20.3730  -32.2240 C   0  0  0  0  0  0  0  0  0  0  0  0
   -2.7040   20.7070  -31.4720 C   0  0  0  0  0  0  0  0  0  0  0  0
   -2.8006   20.9086  -30.3950 H   0  0  0  0  0  0  0  0  0  0  0  0
   -1.4500   20.7850  -32.0860 C   0  0  0  0  0  0  0  0  0  0  0  0
   -0.5658   21.0625  -31.4933 H   0  0  0  0  0  0  0  0  0  0  0  0
   -1.3160   20.5110  -33.4530 C   0  0  0  0  0  0  0  0  0  0  0  0
    0.2460   20.7030  -34.2360 S   0  0  0  0  0  0  0  0  0  0  0  0
    1.2750   20.9210  -33.1630 O   0  0  0  0  0  0  0  0  0  0  0  0
    0.6300   19.4760  -35.0150 O   0  0  0  0  0  0  0  0  0  0  0  0
    0.2500   22.0830  -35.2890 N   0  0  0  0  0  0  0  0  0  0  0  0
    1.2450   22.7040  -35.8580 C   0  0  0  0  0  0  0  0  0  0  0  0
    1.0430   23.7430  -36.6330 O   0  0  0  0  0  0  0  0  0  0  0  0
    2.1590   24.2010  -37.1180 N   0  0  0  0  0  0  0  0  0  0  0  0
    3.1470   23.4230  -36.6380 C   0  0  0  0  0  0  0  0  0  0  0  0
    4.5880   23.6150  -36.9870 C   0  0  0  0  0  0  0  0  0  0  0  0
    5.1814   23.6941  -36.0642 H   0  0  0  0  0  0  0  0  0  0  0  0
    4.9400   22.7558  -37.5768 H   0  0  0  0  0  0  0  0  0  0  0  0
    4.7028   24.5364  -37.5768 H   0  0  0  0  0  0  0  0  0  0  0  0
    2.6190   22.4480  -35.8040 C   0  0  0  0  0  0  0  0  0  0  0  0
    3.4080   21.3520  -35.1510 C   0  0  0  0  0  0  0  0  0  0  0  0
    3.3371   21.4505  -34.0577 H   0  0  0  0  0  0  0  0  0  0  0  0
    3.0038   20.3762  -35.4582 H   0  0  0  0  0  0  0  0  0  0  0  0
    4.4617   21.4256  -35.4582 H   0  0  0  0  0  0  0  0  0  0  0  0
   -2.4370   20.1120  -34.1940 C   0  0  0  0  0  0  0  0  0  0  0  0
   -2.3287   19.8514  -35.2572 H   0  0  0  0  0  0  0  0  0  0  0  0
   -3.6920   20.0450  -33.5830 C   0  0  0  0  0  0  0  0  0  0  0  0
   -4.5701   19.7342  -34.1681 H   0  0  0  0  0  0  0  0  0  0  0  0
   -7.1930   23.3420  -30.6440 C   0  0  0  0  0  0  0  0  0  0  0  0
   -8.1702   22.8402  -30.7016 H   0  0  0  0  0  0  0  0  0  0  0  0
  1  2  1  0
  2  3  2  0
  3  4  1  0
  3  5  1  0
  5  6  1  0
  5  7  2  0
  7  8  1  0
  7  9  1  0
  9 10  1  0
 10 11  2  0
 10 12  1  0
 12 13  1  0
 13 14  2  0
 14 15  1  0
 14 16  1  0
 16 17  1  0
 16 18  2  0
 18 19  1  0
 19 20  2  0
 19 21  2  0
 19 22  1  0
 22 23  2  0
 23 24  1  0
 24 25  1  0
 25 26  1  0
 26 27  1  0
 27 28  1  0
 27 29  1  0
 27 30  1  0
 26 31  2  0
 31 32  1  0
 32 33  1  0
 32 34  1  0
 32 35  1  0
 18 36  1  0
 36 37  1  0
 36 38  2  0
 38 39  1  0
  9 40  2  0
 40 41  1  0
 40  2  1  0
 38 13  1  0
 31 23  1  0
M  CHG  3   6  -1  12  -1  25  -1
M  END
>  <UniqueID>  (26) 
24

>  <SMILES>  (26) 
Cc1[n-]o/c(=N/S(=O)(=O)c2ccc([N-]C(=O)c3cccc([O-])c3)cc2)c1C

>  <Energy>  (26) 
88.83727539775434

>  <Genealogy>  (26) 
Cc1[n-]oc(=NS(=O)(=O)c2ccc([N-]C(=O)c3cccc([O-])c3)cc2)c1C (protonated)
Cc1[n-]o/c(=N/S(=O)(=O)c2ccc([N-]C(=O)c3cccc([O-])c3)cc2)c1C (cis-trans isomerization)
Cc1[n-]o/c(=N/S(=O)(=O)c2ccc([N-]C(=O)c3cccc([O-])c3)cc2)c1C (3D coordinates assigned)
Cc1[n-]o/c(=N/S(=O)(=O)c2ccc([N-]C(=O)c3cccc([O-])c3)cc2)c1C (optimized conformer: 88.83727539775434 kcal/mol)

>  <smiles>  (26) 
Cc1[nH]oc(=NS(=O)(=O)c2ccc(NC(=O)c3cccc(O)c3)cc2)c1C

>  <score_type>  (26) 
oracle

>  <origin>  (26) 
adgpu

>  <m_score__min__energy>  (26) 
-12.609999999999999

>  <m_primary>  (26) 
energy

$$$$
26:0
     RDKit          3D

 59 62  0  0  0  0  0  0  0  0999 V2000
   -7.5850   22.3950  -31.9100 C   0  0  0  0  0  0  0  0  0  0  0  0
   -6.7100   22.1080  -30.8240 O   0  0  0  0  0  0  0  0  0  0  0  0
   -5.6020   22.8920  -30.4700 C   0  0  0  0  0  0  0  0  0  0  0  0
   -5.7200   23.7470  -29.3620 C   0  0  0  0  0  0  0  0  0  0  0  0
   -4.6430   24.5450  -28.9690 C   0  0  0  0  0  0  0  0  0  0  0  0
   -3.4280   24.5050  -29.6820 C   0  0  0  0  0  0  0  0  0  0  0  0
   -2.2970   25.3040  -29.3080 N   0  0  0  0  0  0  0  0  0  0  0  0
   -1.2900   25.0310  -27.9220 S   0  0  0  0  0  0  0  0  0  0  0  0
   -2.0810   25.1730  -26.6510 O   0  0  0  0  0  0  0  0  0  0  0  0
   -0.1950   26.0630  -27.9070 O   0  0  0  0  0  0  0  0  0  0  0  0
   -0.5700   23.4290  -28.0410 C   0  0  0  0  0  0  0  0  0  0  0  0
    0.2980   22.9630  -27.0440 C   0  0  0  0  0  0  0  0  0  0  0  0
    0.8150   21.6670  -27.1130 C   0  0  0  0  0  0  0  0  0  0  0  0
    0.4630   20.8240  -28.1720 C   0  0  0  0  0  0  0  0  0  0  0  0
   -0.4150   21.2740  -29.1780 C   0  0  0  0  0  0  0  0  0  0  0  0
   -0.8020   20.3900  -30.3040 C   0  0  0  0  0  0  0  0  0  0  0  0
   -0.1210   19.3540  -30.5400 O   0  0  0  0  0  0  0  0  0  0  0  0
   -1.9050   20.7310  -31.1610 N   0  0  0  0  0  0  0  0  0  0  0  0
   -2.5070   19.8180  -32.0960 C   0  0  0  0  0  0  0  0  0  0  0  0
   -3.7710   20.0720  -32.6590 C   0  0  0  0  0  0  0  0  0  0  0  0
   -4.3280   19.1720  -33.5740 C   0  0  0  0  0  0  0  0  0  0  0  0
   -3.6300   18.0110  -33.9400 C   0  0  0  0  0  0  0  0  0  0  0  0
   -4.3630   16.8590  -35.0530 S   0  0  0  0  0  0  0  0  0  0  0  0
   -3.3060   15.9320  -35.5900 O   0  0  0  0  0  0  0  0  0  0  0  0
   -4.9800   17.6190  -36.1940 O   0  0  0  0  0  0  0  0  0  0  0  0
   -5.5960   15.9280  -34.2280 N   0  0  0  0  0  0  0  0  0  0  0  0
   -6.8500   16.6870  -34.1300 C   0  0  0  0  0  0  0  0  0  0  0  0
   -7.0000   17.2050  -32.7040 C   0  0  0  0  0  0  0  0  0  0  0  0
   -5.7880   16.6990  -31.9510 C   0  0  0  0  0  0  0  0  0  0  0  0
   -5.1850   15.6380  -32.8510 C   0  0  0  0  0  0  0  0  0  0  0  0
   -2.3520   17.7750  -33.4140 C   0  0  0  0  0  0  0  0  0  0  0  0
   -1.7940   18.6750  -32.5020 C   0  0  0  0  0  0  0  0  0  0  0  0
   -0.9210   22.5850  -29.1050 C   0  0  0  0  0  0  0  0  0  0  0  0
   -3.3180   23.6680  -30.8000 C   0  0  0  0  0  0  0  0  0  0  0  0
   -4.3880   22.8560  -31.1900 C   0  0  0  0  0  0  0  0  0  0  0  0
   -8.5619   22.7154  -31.5189 H   0  0  0  0  0  0  0  0  0  0  0  0
   -7.1546   23.1991  -32.5250 H   0  0  0  0  0  0  0  0  0  0  0  0
   -7.7144   21.4922  -32.5250 H   0  0  0  0  0  0  0  0  0  0  0  0
   -6.6652   23.7884  -28.8009 H   0  0  0  0  0  0  0  0  0  0  0  0
   -4.7438   25.2087  -28.0976 H   0  0  0  0  0  0  0  0  0  0  0  0
    0.5728   23.6194  -26.2052 H   0  0  0  0  0  0  0  0  0  0  0  0
    1.5013   21.3083  -26.3317 H   0  0  0  0  0  0  0  0  0  0  0  0
    0.8736   19.8046  -28.2198 H   0  0  0  0  0  0  0  0  0  0  0  0
   -2.1920   21.7350  -31.2120 H   0  0  0  0  0  0  0  0  0  0  0  0
   -4.3232   20.9812  -32.3789 H   0  0  0  0  0  0  0  0  0  0  0  0
   -5.3178   19.3755  -34.0086 H   0  0  0  0  0  0  0  0  0  0  0  0
   -6.8249   17.5346  -34.8306 H   0  0  0  0  0  0  0  0  0  0  0  0
   -7.7009   16.0376  -34.3834 H   0  0  0  0  0  0  0  0  0  0  0  0
   -7.0238   18.3047  -32.6966 H   0  0  0  0  0  0  0  0  0  0  0  0
   -7.9366   16.8573  -32.2436 H   0  0  0  0  0  0  0  0  0  0  0  0
   -5.0703   17.5148  -31.7797 H   0  0  0  0  0  0  0  0  0  0  0  0
   -6.0523   16.3005  -30.9604 H   0  0  0  0  0  0  0  0  0  0  0  0
   -4.0879   15.6633  -32.7753 H   0  0  0  0  0  0  0  0  0  0  0  0
   -5.5318   14.6384  -32.5502 H   0  0  0  0  0  0  0  0  0  0  0  0
   -1.7883   16.8811  -33.7193 H   0  0  0  0  0  0  0  0  0  0  0  0
   -0.7881   18.4881  -32.0979 H   0  0  0  0  0  0  0  0  0  0  0  0
   -1.5986   22.9516  -29.8902 H   0  0  0  0  0  0  0  0  0  0  0  0
   -2.3814   23.6492  -31.3765 H   0  0  0  0  0  0  0  0  0  0  0  0
   -4.2836   22.1888  -32.0583 H   0  0  0  0  0  0  0  0  0  0  0  0
  1  2  1  0
  2  3  1  0
  3  4  2  0
  4  5  1  0
  5  6  2  0
  6  7  1  0
  7  8  1  0
  8  9  2  0
  8 10  2  0
  8 11  1  0
 11 12  2  0
 12 13  1  0
 13 14  2  0
 14 15  1  0
 15 16  1  0
 16 17  2  0
 16 18  1  0
 18 19  1  0
 19 20  2  0
 20 21  1  0
 21 22  2  0
 22 23  1  0
 23 24  2  0
 23 25  2  0
 23 26  1  0
 26 27  1  0
 27 28  1  0
 28 29  1  0
 29 30  1  0
 22 31  1  0
 31 32  2  0
 15 33  2  0
  6 34  1  0
 34 35  2  0
 35  3  1  0
 33 11  1  0
 32 19  1  0
 30 26  1  0
  1 36  1  0
  1 37  1  0
  1 38  1  0
  4 39  1  0
  5 40  1  0
 12 41  1  0
 13 42  1  0
 14 43  1  0
 18 44  1  0
 20 45  1  0
 21 46  1  0
 27 47  1  0
 27 48  1  0
 28 49  1  0
 28 50  1  0
 29 51  1  0
 29 52  1  0
 30 53  1  0
 30 54  1  0
 31 55  1  0
 32 56  1  0
 33 57  1  0
 34 58  1  0
 35 59  1  0
M  CHG  1   7  -1
M  END
>  <UniqueID>  (27) 
25

>  <SMILES>  (27) 
COc1ccc([N-]S(=O)(=O)c2cccc(C(=O)Nc3ccc(S(=O)(=O)N4CCCC4)cc3)c2)cc1

>  <Energy>  (27) 
73.57989513505302

>  <Genealogy>  (27) 
COc1ccc([N-]S(=O)(=O)c2cccc(C(=O)Nc3ccc(S(=O)(=O)N4CCCC4)cc3)c2)cc1 (protonated)
COc1ccc([N-]S(=O)(=O)c2cccc(C(=O)Nc3ccc(S(=O)(=O)N4CCCC4)cc3)c2)cc1 (3D coordinates assigned)
COc1ccc([N-]S(=O)(=O)c2cccc(C(=O)Nc3ccc(S(=O)(=O)N4CCCC4)cc3)c2)cc1 (nonaromatic ring conformer: 73.57989513505302 kcal/mol)

>  <smiles>  (27) 
COc1ccc(NS(=O)(=O)c2cccc(C(=O)Nc3ccc(S(=O)(=O)N4CCCC4)cc3)c2)cc1

>  <score_type>  (27) 
oracle

>  <origin>  (27) 
adgpu

>  <m_score__min__energy>  (27) 
-10.6

>  <m_primary>  (27) 
energy

$$$$
27:0
     RDKit          3D

 35 37  0  0  0  0  0  0  0  0999 V2000
   -8.2299   22.4133  -32.2413 H   0  0  0  0  0  0  0  0  0  0  0  0
   -7.1710   22.5970  -32.0070 C   0  0  0  0  0  0  0  0  0  0  0  0
   -6.5270   24.0340  -31.4150 S   0  0  0  0  0  0  0  0  0  0  0  0
   -4.9570   23.4470  -31.3940 C   0  0  0  0  0  0  0  0  0  0  0  0
   -3.8490   24.1760  -30.8470 N   0  0  0  0  0  0  0  0  0  0  0  0
   -3.4520   24.2610  -29.6050 C   0  0  0  0  0  0  0  0  0  0  0  0
   -4.0220   23.4920  -28.5670 C   0  0  0  0  0  0  0  0  0  0  0  0
   -4.8334   22.7821  -28.7856 H   0  0  0  0  0  0  0  0  0  0  0  0
   -3.5500   23.6380  -27.2630 C   0  0  0  0  0  0  0  0  0  0  0  0
   -3.9980   23.0512  -26.4476 H   0  0  0  0  0  0  0  0  0  0  0  0
   -2.5120   24.5260  -26.9920 C   0  0  0  0  0  0  0  0  0  0  0  0
   -2.1490   24.6579  -25.9620 H   0  0  0  0  0  0  0  0  0  0  0  0
   -1.9350   25.2490  -28.0420 C   0  0  0  0  0  0  0  0  0  0  0  0
   -0.8340   26.2280  -27.7620 C   0  0  0  0  0  0  0  0  0  0  0  0
   -0.7095   26.3387  -26.6747 H   0  0  0  0  0  0  0  0  0  0  0  0
    0.1044   25.8605  -28.2030 H   0  0  0  0  0  0  0  0  0  0  0  0
   -1.0893   27.2029  -28.2030 H   0  0  0  0  0  0  0  0  0  0  0  0
   -2.4200   25.1060  -29.3100 N   0  0  0  0  0  0  0  0  0  0  0  0
   -1.9950   25.6710  -30.0820 H   0  0  0  0  0  0  0  0  0  0  0  0
   -4.9050   22.1560  -31.7850 N   0  0  0  0  0  0  0  0  0  0  0  0
   -6.1280   21.6760  -32.1500 C   0  0  0  0  0  0  0  0  0  0  0  0
   -6.2960   20.2780  -32.6270 C   0  0  0  0  0  0  0  0  0  0  0  0
   -7.2630   19.4470  -32.0300 C   0  0  0  0  0  0  0  0  0  0  0  0
   -7.8894   19.8396  -31.2155 H   0  0  0  0  0  0  0  0  0  0  0  0
   -7.4360   18.1280  -32.4610 C   0  0  0  0  0  0  0  0  0  0  0  0
   -8.2057   17.4962  -31.9937 H   0  0  0  0  0  0  0  0  0  0  0  0
   -6.6340   17.6070  -33.4850 C   0  0  0  0  0  0  0  0  0  0  0  0
   -6.8450   16.2050  -33.9730 C   0  0  0  0  0  0  0  0  0  0  0  0
   -6.9468   15.5284  -33.1117 H   0  0  0  0  0  0  0  0  0  0  0  0
   -7.7596   16.1627  -34.5826 H   0  0  0  0  0  0  0  0  0  0  0  0
   -5.9833   15.8954  -34.5826 H   0  0  0  0  0  0  0  0  0  0  0  0
   -5.6760   18.4310  -34.0930 C   0  0  0  0  0  0  0  0  0  0  0  0
   -5.0576   18.0370  -34.9130 H   0  0  0  0  0  0  0  0  0  0  0  0
   -5.5020   19.7490  -33.6640 C   0  0  0  0  0  0  0  0  0  0  0  0
   -4.7375   20.3802  -34.1405 H   0  0  0  0  0  0  0  0  0  0  0  0
  1  2  1  0
  2  3  1  0
  3  4  1  0
  4  5  1  0
  5  6  2  0
  6  7  1  0
  7  8  1  0
  7  9  2  0
  9 10  1  0
  9 11  1  0
 11 12  1  0
 11 13  2  0
 13 14  1  0
 14 15  1  0
 14 16  1  0
 14 17  1  0
 13 18  1  0
 18 19  1  0
  4 20  2  0
 20 21  1  0
 21 22  1  0
 22 23  2  0
 23 24  1  0
 23 25  1  0
 25 26  1  0
 25 27  2  0
 27 28  1  0
 28 29  1  0
 28 30  1  0
 28 31  1  0
 27 32  1  0
 32 33  1  0
 32 34  2  0
 34 35  1  0
 21  2  2  0
 34 22  1  0
 18  6  1  0
M  END
>  <UniqueID>  (28) 
26

>  <SMILES>  (28) 
Cc1ccc(-c2csc(/N=c3\cccc(C)[nH]3)n2)cc1

>  <Energy>  (28) 
75.59113651805916

>  <Genealogy>  (28) 
Cc1ccc(-c2csc(/N=c3\cccc(C)[nH]3)n2)cc1 (cis-trans isomerization)
Cc1ccc(-c2csc(/N=c3\cccc(C)[nH]3)n2)cc1 (3D coordinates assigned)
Cc1ccc(-c2csc(/N=c3\cccc(C)[nH]3)n2)cc1 (optimized conformer: 75.59113651805916 kcal/mol)

>  <smiles>  (28) 
Cc1ccc(-c2csc(N=c3cccc(C)[nH]3)n2)cc1

>  <score_type>  (28) 
oracle

>  <origin>  (28) 
adgpu

>  <m_score__min__energy>  (28) 
-9.1799999999999997

>  <m_primary>  (28) 
energy

$$$$
28:0
     RDKit          3D

 38 40  0  0  0  0  0  0  0  0999 V2000
   -3.9290   24.0520  -28.6990 O   0  0  0  0  0  0  0  0  0  0  0  0
   -3.3120   24.8200  -29.4830 C   0  0  0  0  0  0  0  0  0  0  0  0
   -3.9780   25.2650  -30.6720 N   0  0  0  0  0  0  0  0  0  0  0  0
   -5.4210   25.4010  -30.8340 C   0  0  0  0  0  0  0  0  0  0  0  0
   -6.0350   24.1150  -31.2910 C   0  0  0  0  0  0  0  0  0  0  0  0
   -7.2840   23.6410  -30.9380 C   0  0  0  0  0  0  0  0  0  0  0  0
   -7.4360   22.4560  -31.6240 C   0  0  0  0  0  0  0  0  0  0  0  0
   -6.2760   22.2820  -32.3530 C   0  0  0  0  0  0  0  0  0  0  0  0
   -5.4600   23.2880  -32.1340 O   0  0  0  0  0  0  0  0  0  0  0  0
   -1.9800   25.2580  -29.1620 N   0  0  0  0  0  0  0  0  0  0  0  0
   -1.3280   24.8890  -27.9390 C   0  0  0  0  0  0  0  0  0  0  0  0
   -1.3270   25.7980  -26.8700 C   0  0  0  0  0  0  0  0  0  0  0  0
   -0.7180   25.4650  -25.6580 C   0  0  0  0  0  0  0  0  0  0  0  0
   -0.0960   24.2240  -25.5040 C   0  0  0  0  0  0  0  0  0  0  0  0
   -0.0670   23.3220  -26.5690 C   0  0  0  0  0  0  0  0  0  0  0  0
   -0.6650   23.6490  -27.7930 C   0  0  0  0  0  0  0  0  0  0  0  0
   -0.5040   22.4970  -29.1650 S   0  0  0  0  0  0  0  0  0  0  0  0
   -1.2200   21.1420  -28.2330 C   0  0  0  0  0  0  0  0  0  0  0  0
   -2.5720   21.1760  -27.8740 C   0  0  0  0  0  0  0  0  0  0  0  0
   -3.1320   20.1200  -27.1490 C   0  0  0  0  0  0  0  0  0  0  0  0
   -2.3400   19.0290  -26.7800 C   0  0  0  0  0  0  0  0  0  0  0  0
   -0.9870   18.9920  -27.1360 C   0  0  0  0  0  0  0  0  0  0  0  0
   -0.4270   20.0490  -27.8610 C   0  0  0  0  0  0  0  0  0  0  0  0
   -5.8653   25.6886  -29.8697 H   0  0  0  0  0  0  0  0  0  0  0  0
   -5.6163   26.1713  -31.5946 H   0  0  0  0  0  0  0  0  0  0  0  0
   -8.0053   24.1110  -30.2532 H   0  0  0  0  0  0  0  0  0  0  0  0
   -8.3062   21.7837  -31.5966 H   0  0  0  0  0  0  0  0  0  0  0  0
   -6.0670   21.4300  -33.0166 H   0  0  0  0  0  0  0  0  0  0  0  0
   -1.5560   26.0370  -29.7110 H   0  0  0  0  0  0  0  0  0  0  0  0
   -1.8092   26.7797  -26.9874 H   0  0  0  0  0  0  0  0  0  0  0  0
   -0.7283   26.1814  -24.8233 H   0  0  0  0  0  0  0  0  0  0  0  0
    0.3707   23.9576  -24.5442 H   0  0  0  0  0  0  0  0  0  0  0  0
    0.4288   22.3478  -26.4463 H   0  0  0  0  0  0  0  0  0  0  0  0
   -3.1953   22.0351  -28.1628 H   0  0  0  0  0  0  0  0  0  0  0  0
   -4.1954   20.1477  -26.8691 H   0  0  0  0  0  0  0  0  0  0  0  0
   -2.7807   18.1984  -26.2091 H   0  0  0  0  0  0  0  0  0  0  0  0
   -0.3647   18.1326  -26.8460 H   0  0  0  0  0  0  0  0  0  0  0  0
    0.6369   20.0219  -28.1392 H   0  0  0  0  0  0  0  0  0  0  0  0
  1  2  2  0
  2  3  1  0
  3  4  1  0
  4  5  1  0
  5  6  2  0
  6  7  1  0
  7  8  2  0
  8  9  1  0
  2 10  1  0
 10 11  1  0
 11 12  2  0
 12 13  1  0
 13 14  2  0
 14 15  1  0
 15 16  2  0
 16 17  1  0
 17 18  1  0
 18 19  2  0
 19 20  1  0
 20 21  2  0
 21 22  1  0
 22 23  2  0
  9  5  1  0
 16 11  1  0
 23 18  1  0
  4 24  1  0
  4 25  1  0
  6 26  1  0
  7 27  1  0
  8 28  1  0
 10 29  1  0
 12 30  1  0
 13 31  1  0
 14 32  1  0
 15 33  1  0
 19 34  1  0
 20 35  1  0
 21 36  1  0
 22 37  1  0
 23 38  1  0
M  CHG  1   3  -1
M  END
>  <UniqueID>  (29) 
27

>  <SMILES>  (29) 
O=C([N-]Cc1ccco1)Nc1ccccc1Sc1ccccc1

>  <Energy>  (29) 
62.924627560985044

>  <Genealogy>  (29) 
O=C([N-]Cc1ccco1)Nc1ccccc1Sc1ccccc1 (protonated)
O=C([N-]Cc1ccco1)Nc1ccccc1Sc1ccccc1 (3D coordinates assigned)
O=C([N-]Cc1ccco1)Nc1ccccc1Sc1ccccc1 (optimized conformer: 62.924627560985044 kcal/mol)

>  <smiles>  (29) 
O=C(NCc1ccco1)Nc1ccccc1Sc1ccccc1

>  <score_type>  (29) 
oracle

>  <origin>  (29) 
adgpu

>  <m_score__min__energy>  (29) 
-10.15

>  <m_primary>  (29) 
energy

$$$$
29:0
     RDKit          3D

 53 56  0  0  0  0  0  0  0  0999 V2000
   -8.3090   12.9330  -36.2640 C   0  0  0  0  0  0  0  0  0  0  0  0
   -7.2670   13.2400  -35.1940 C   0  0  0  0  0  0  0  0  0  0  0  0
   -7.6050   14.4330  -34.4860 O   0  0  0  0  0  0  0  0  0  0  0  0
   -6.7000   15.4300  -34.0880 C   0  0  0  0  0  0  0  0  0  0  0  0
   -5.3190   15.1630  -34.2240 C   0  0  0  0  0  0  0  0  0  0  0  0
   -4.3580   16.1170  -33.8480 C   0  0  0  0  0  0  0  0  0  0  0  0
   -4.7960   17.3350  -33.3300 C   0  0  0  0  0  0  0  0  0  0  0  0
   -6.1400   17.5960  -33.1900 C   0  0  0  0  0  0  0  0  0  0  0  0
   -7.1170   16.6730  -33.5580 C   0  0  0  0  0  0  0  0  0  0  0  0
   -6.2660   18.9220  -32.6430 C   0  0  0  0  0  0  0  0  0  0  0  0
   -7.3520   19.5330  -32.4590 O   0  0  0  0  0  0  0  0  0  0  0  0
   -4.9660   19.4760  -32.4200 N   0  0  0  0  0  0  0  0  0  0  0  0
   -4.6460   20.7960  -31.9460 C   0  0  0  0  0  0  0  0  0  0  0  0
   -3.3730   21.3550  -32.1370 C   0  0  0  0  0  0  0  0  0  0  0  0
   -3.1050   22.6380  -31.6550 C   0  0  0  0  0  0  0  0  0  0  0  0
   -4.1010   23.3560  -30.9850 C   0  0  0  0  0  0  0  0  0  0  0  0
   -3.8300   24.6940  -30.4270 C   0  0  0  0  0  0  0  0  0  0  0  0
   -4.5020   25.6760  -30.8380 O   0  0  0  0  0  0  0  0  0  0  0  0
   -2.8570   24.9040  -29.3950 N   0  0  0  0  0  0  0  0  0  0  0  0
   -1.5510   24.2510  -29.3040 C   0  0  0  0  0  0  0  0  0  0  0  0
   -1.6930   22.8190  -28.8550 C   0  0  0  0  0  0  0  0  0  0  0  0
   -2.6980   22.4570  -27.9420 C   0  0  0  0  0  0  0  0  0  0  0  0
   -2.8030   21.1360  -27.5010 C   0  0  0  0  0  0  0  0  0  0  0  0
   -1.9160   20.1660  -27.9740 C   0  0  0  0  0  0  0  0  0  0  0  0
   -0.9180   20.5030  -28.8930 C   0  0  0  0  0  0  0  0  0  0  0  0
   -0.0530   19.4920  -29.3380 O   0  0  0  0  0  0  0  0  0  0  0  0
   -0.0930   18.9150  -30.6390 C   0  0  0  0  0  0  0  0  0  0  0  0
   -0.8120   21.8370  -29.3360 C   0  0  0  0  0  0  0  0  0  0  0  0
   -5.3730   22.7860  -30.8540 C   0  0  0  0  0  0  0  0  0  0  0  0
   -5.6100   21.5330  -31.3280 N   0  0  0  0  0  0  0  0  0  0  0  0
   -3.9670   18.5020  -32.8790 C   0  0  0  0  0  0  0  0  0  0  0  0
   -9.2577   12.6535  -35.7825 H   0  0  0  0  0  0  0  0  0  0  0  0
   -8.4644   13.8235  -36.8907 H   0  0  0  0  0  0  0  0  0  0  0  0
   -7.9567   12.1005  -36.8907 H   0  0  0  0  0  0  0  0  0  0  0  0
   -7.2200   12.4005  -34.4847 H   0  0  0  0  0  0  0  0  0  0  0  0
   -6.2916   13.3834  -35.6819 H   0  0  0  0  0  0  0  0  0  0  0  0
   -4.9915   14.1945  -34.6300 H   0  0  0  0  0  0  0  0  0  0  0  0
   -3.2840   15.9073  -33.9599 H   0  0  0  0  0  0  0  0  0  0  0  0
   -8.1856   16.9054  -33.4392 H   0  0  0  0  0  0  0  0  0  0  0  0
   -2.5917   20.7865  -32.6627 H   0  0  0  0  0  0  0  0  0  0  0  0
   -2.1103   23.0841  -31.8023 H   0  0  0  0  0  0  0  0  0  0  0  0
   -1.0687   24.2719  -30.2924 H   0  0  0  0  0  0  0  0  0  0  0  0
   -0.9400   24.7908  -28.5656 H   0  0  0  0  0  0  0  0  0  0  0  0
   -3.4038   23.2160  -27.5737 H   0  0  0  0  0  0  0  0  0  0  0  0
   -3.5858   20.8588  -26.7797 H   0  0  0  0  0  0  0  0  0  0  0  0
   -2.0036   19.1281  -27.6203 H   0  0  0  0  0  0  0  0  0  0  0  0
   -0.1688   17.8210  -30.5527 H   0  0  0  0  0  0  0  0  0  0  0  0
   -0.9665   19.3012  -31.1847 H   0  0  0  0  0  0  0  0  0  0  0  0
    0.8255   19.1770  -31.1847 H   0  0  0  0  0  0  0  0  0  0  0  0
   -0.0337   22.1107  -30.0636 H   0  0  0  0  0  0  0  0  0  0  0  0
   -6.1813   23.3516  -30.3675 H   0  0  0  0  0  0  0  0  0  0  0  0
   -3.3751   18.9090  -33.7121 H   0  0  0  0  0  0  0  0  0  0  0  0
   -3.2397   18.2344  -32.0984 H   0  0  0  0  0  0  0  0  0  0  0  0
  1  2  1  0
  2  3  1  0
  3  4  1  0
  4  5  2  0
  5  6  1  0
  6  7  2  0
  7  8  1  0
  8  9  2  0
  8 10  1  0
 10 11  2  0
 10 12  1  0
 12 13  1  0
 13 14  2  0
 14 15  1  0
 15 16  2  0
 16 17  1  0
 17 18  2  0
 17 19  1  0
 19 20  1  0
 20 21  1  0
 21 22  2  0
 22 23  1  0
 23 24  2  0
 24 25  1  0
 25 26  1  0
 26 27  1  0
 25 28  2  0
 16 29  1  0
 29 30  2  0
 12 31  1  0
  9  4  1  0
 30 13  1  0
 31  7  1  0
 28 21  1  0
  1 32  1  0
  1 33  1  0
  1 34  1  0
  2 35  1  0
  2 36  1  0
  5 37  1  0
  6 38  1  0
  9 39  1  0
 14 40  1  0
 15 41  1  0
 20 42  1  0
 20 43  1  0
 22 44  1  0
 23 45  1  0
 24 46  1  0
 27 47  1  0
 27 48  1  0
 27 49  1  0
 28 50  1  0
 29 51  1  0
 31 52  1  0
 31 53  1  0
M  CHG  1  19  -1
M  END
>  <UniqueID>  (30) 
28

>  <SMILES>  (30) 
CCOc1ccc2c(c1)C(=O)N(c1ccc(C(=O)[N-]Cc3cccc(OC)c3)cn1)C2

>  <Energy>  (30) 
81.47368418397063

>  <Genealogy>  (30) 
CCOc1ccc2c(c1)C(=O)N(c1ccc(C(=O)[N-]Cc3cccc(OC)c3)cn1)C2 (protonated)
CCOc1ccc2c(c1)C(=O)N(c1ccc(C(=O)[N-]Cc3cccc(OC)c3)cn1)C2 (3D coordinates assigned)
CCOc1ccc2c(c1)C(=O)N(c1ccc(C(=O)[N-]Cc3cccc(OC)c3)cn1)C2 (nonaromatic ring conformer: 81.47368418397063 kcal/mol)

>  <smiles>  (30) 
CCOc1ccc2c(c1)C(=O)N(c1ccc(C(=O)NCc3cccc(OC)c3)cn1)C2

>  <score_type>  (30) 
oracle

>  <origin>  (30) 
adgpu

>  <m_score__min__energy>  (30) 
-9.3399999999999999

>  <m_primary>  (30) 
energy

$$$$
30:0
     RDKit          3D

 44 46  0  0  0  0  0  0  0  0999 V2000
   -2.8210   23.7510  -27.3130 C   0  0  0  0  0  0  0  0  0  0  0  0
   -3.3520   24.1840  -28.6410 C   0  0  0  0  0  0  0  0  0  0  0  0
   -2.8260   25.1980  -29.3530 N   0  0  0  0  0  0  0  0  0  0  0  0
   -3.5120   25.2870  -30.4550 O   0  0  0  0  0  0  0  0  0  0  0  0
   -4.4630   24.3840  -30.5030 C   0  0  0  0  0  0  0  0  0  0  0  0
   -5.2660   24.3000  -31.5270 N   0  0  0  0  0  0  0  0  0  0  0  0
   -6.6030   23.2290  -31.8070 S   0  0  0  0  0  0  0  0  0  0  0  0
   -7.3960   23.1260  -30.5350 O   0  0  0  0  0  0  0  0  0  0  0  0
   -7.4950   23.7900  -32.8770 O   0  0  0  0  0  0  0  0  0  0  0  0
   -6.0420   21.6130  -32.2250 C   0  0  0  0  0  0  0  0  0  0  0  0
   -6.9340   20.6780  -32.7650 C   0  0  0  0  0  0  0  0  0  0  0  0
   -6.4890   19.3980  -33.1100 C   0  0  0  0  0  0  0  0  0  0  0  0
   -5.1470   19.0320  -32.9010 C   0  0  0  0  0  0  0  0  0  0  0  0
   -4.6550   17.7350  -33.2780 N   0  0  0  0  0  0  0  0  0  0  0  0
   -5.0400   16.5110  -32.6280 C   0  0  0  0  0  0  0  0  0  0  0  0
   -5.6960   16.5410  -31.5510 O   0  0  0  0  0  0  0  0  0  0  0  0
   -4.6240   15.2030  -33.1810 C   0  0  0  0  0  0  0  0  0  0  0  0
   -4.9410   14.0320  -32.4700 C   0  0  0  0  0  0  0  0  0  0  0  0
   -4.6450   12.7750  -33.0010 C   0  0  0  0  0  0  0  0  0  0  0  0
   -4.0360   12.6700  -34.2510 C   0  0  0  0  0  0  0  0  0  0  0  0
   -3.7100   13.8210  -34.9690 C   0  0  0  0  0  0  0  0  0  0  0  0
   -3.9840   15.0970  -34.4440 C   0  0  0  0  0  0  0  0  0  0  0  0
   -3.5720   16.2620  -35.1810 N   0  0  0  0  0  0  0  0  0  0  0  0
   -2.3910   16.6610  -35.1180 O   0  0  0  0  0  0  0  0  0  0  0  0
   -4.5050   17.0520  -35.8150 O   0  0  0  0  0  0  0  0  0  0  0  0
   -4.2550   19.9790  -32.3740 C   0  0  0  0  0  0  0  0  0  0  0  0
   -4.7010   21.2570  -32.0280 C   0  0  0  0  0  0  0  0  0  0  0  0
   -4.4180   23.6250  -29.3320 C   0  0  0  0  0  0  0  0  0  0  0  0
   -5.2060   22.4230  -28.8990 C   0  0  0  0  0  0  0  0  0  0  0  0
   -3.4050   24.2272  -26.5116 H   0  0  0  0  0  0  0  0  0  0  0  0
   -2.9012   22.6575  -27.2249 H   0  0  0  0  0  0  0  0  0  0  0  0
   -1.7660   24.0496  -27.2249 H   0  0  0  0  0  0  0  0  0  0  0  0
   -7.9884   20.9515  -32.9183 H   0  0  0  0  0  0  0  0  0  0  0  0
   -7.1920   18.6736  -33.5471 H   0  0  0  0  0  0  0  0  0  0  0  0
   -3.9410   17.6930  -34.0400 H   0  0  0  0  0  0  0  0  0  0  0  0
   -5.4269   14.1069  -31.4860 H   0  0  0  0  0  0  0  0  0  0  0  0
   -4.8925   11.8664  -32.4325 H   0  0  0  0  0  0  0  0  0  0  0  0
   -3.8123   11.6785  -34.6715 H   0  0  0  0  0  0  0  0  0  0  0  0
   -3.2336   13.7297  -35.9563 H   0  0  0  0  0  0  0  0  0  0  0  0
   -3.1971   19.7130  -32.2324 H   0  0  0  0  0  0  0  0  0  0  0  0
   -3.9974   21.9860  -31.5996 H   0  0  0  0  0  0  0  0  0  0  0  0
   -5.2345   22.3796  -27.8002 H   0  0  0  0  0  0  0  0  0  0  0  0
   -6.2316   22.4967  -29.2897 H   0  0  0  0  0  0  0  0  0  0  0  0
   -4.7294   21.5119  -29.2897 H   0  0  0  0  0  0  0  0  0  0  0  0
  1  2  1  0
  2  3  1  0
  3  4  1  0
  4  5  1  0
  5  6  2  3
  6  7  1  0
  7  8  2  0
  7  9  2  0
  7 10  1  0
 10 11  2  0
 11 12  1  0
 12 13  2  0
 13 14  1  0
 14 15  1  0
 15 16  2  0
 15 17  1  0
 17 18  2  0
 18 19  1  0
 19 20  2  0
 20 21  1  0
 21 22  2  0
 22 23  1  0
 23 24  2  0
 23 25  1  0
 13 26  1  0
 26 27  2  0
  5 28  1  0
 28 29  1  0
 28  2  2  0
 27 10  1  0
 22 17  1  0
  1 30  1  0
  1 31  1  0
  1 32  1  0
 11 33  1  0
 12 34  1  0
 14 35  1  0
 18 36  1  0
 19 37  1  0
 20 38  1  0
 21 39  1  0
 26 40  1  0
 27 41  1  0
 29 42  1  0
 29 43  1  0
 29 44  1  0
M  CHG  3   3  -1  23   1  25  -1
M  END
>  <UniqueID>  (31) 
29

>  <SMILES>  (31) 
Cc1[n-]oc(=NS(=O)(=O)c2ccc(NC(=O)c3ccccc3[N+](=O)[O-])cc2)c1C

>  <Energy>  (31) 
98.86516932651031

>  <Genealogy>  (31) 
Cc1[n-]oc(=NS(=O)(=O)c2ccc(NC(=O)c3ccccc3[N+](=O)[O-])cc2)c1C (protonated)
Cc1[n-]oc(=NS(=O)(=O)c2ccc(NC(=O)c3ccccc3[N+](=O)[O-])cc2)c1C (3D coordinates assigned)
Cc1[n-]oc(=NS(=O)(=O)c2ccc(NC(=O)c3ccccc3[N+](=O)[O-])cc2)c1C (optimized conformer: 98.86516932651031 kcal/mol)

>  <smiles>  (31) 
Cc1[nH]oc(=NS(=O)(=O)c2ccc(NC(=O)c3ccccc3[N+](=O)[O-])cc2)c1C

>  <score_type>  (31) 
oracle

>  <origin>  (31) 
adgpu

>  <m_score__min__energy>  (31) 
-10.609999999999999

>  <m_primary>  (31) 
energy

$$$$
31:0
     RDKit          3D

 60 62  0  0  0  0  0  0  0  0999 V2000
   -0.8240   18.5870  -27.6520 C   0  0  0  0  0  0  0  0  0  0  0  0
   -0.9030   20.0820  -27.7210 C   0  0  0  0  0  0  0  0  0  0  0  0
   -1.9270   20.7640  -27.0460 C   0  0  0  0  0  0  0  0  0  0  0  0
   -2.0270   22.1560  -27.1380 C   0  0  0  0  0  0  0  0  0  0  0  0
   -1.1140   22.8780  -27.9170 C   0  0  0  0  0  0  0  0  0  0  0  0
   -1.2230   24.6340  -28.0220 S   0  0  0  0  0  0  0  0  0  0  0  0
   -1.7920   25.1690  -26.7400 O   0  0  0  0  0  0  0  0  0  0  0  0
    0.1460   25.2240  -28.2170 O   0  0  0  0  0  0  0  0  0  0  0  0
   -2.2490   25.1080  -29.3410 N   0  0  0  0  0  0  0  0  0  0  0  0
   -3.5910   24.5630  -29.1540 C   0  0  0  0  0  0  0  0  0  0  0  0
   -3.6820   23.2000  -29.8330 C   0  0  0  0  0  0  0  0  0  0  0  0
   -3.5010   23.3430  -31.2750 N   0  0  0  0  0  0  0  0  0  0  0  0
   -3.7100   22.3040  -32.2400 C   0  0  0  0  0  0  0  0  0  0  0  0
   -4.6150   22.4510  -33.1020 O   0  0  0  0  0  0  0  0  0  0  0  0
   -2.9050   21.0660  -32.2470 C   0  0  0  0  0  0  0  0  0  0  0  0
   -1.6530   21.0340  -31.6150 C   0  0  0  0  0  0  0  0  0  0  0  0
   -0.8890   19.8640  -31.6250 C   0  0  0  0  0  0  0  0  0  0  0  0
   -1.3590   18.7240  -32.2820 C   0  0  0  0  0  0  0  0  0  0  0  0
   -2.5940   18.7500  -32.9400 C   0  0  0  0  0  0  0  0  0  0  0  0
   -3.1680   17.3170  -33.7900 S   0  0  0  0  0  0  0  0  0  0  0  0
   -2.8350   17.4420  -35.2500 O   0  0  0  0  0  0  0  0  0  0  0  0
   -2.4890   16.0830  -33.2600 O   0  0  0  0  0  0  0  0  0  0  0  0
   -4.8910   17.1530  -33.5800 N   0  0  0  0  0  0  0  0  0  0  0  0
   -5.5080   15.8460  -33.8110 C   0  0  0  0  0  0  0  0  0  0  0  0
   -5.6970   18.2830  -33.1740 C   0  0  0  0  0  0  0  0  0  0  0  0
   -6.1050   19.2500  -34.1120 C   0  0  0  0  0  0  0  0  0  0  0  0
   -6.8850   20.3410  -33.7180 C   0  0  0  0  0  0  0  0  0  0  0  0
   -7.2790   20.4810  -32.3840 C   0  0  0  0  0  0  0  0  0  0  0  0
   -8.2550   21.8570  -31.8790 S   0  0  0  0  0  0  0  0  0  0  0  0
   -7.6120   23.3110  -32.5570 N   0  0  0  0  0  0  0  0  0  0  0  0
   -9.6700   21.6650  -32.3510 O   0  0  0  0  0  0  0  0  0  0  0  0
   -8.2430   21.9750  -30.3790 O   0  0  0  0  0  0  0  0  0  0  0  0
   -6.8790   19.5260  -31.4410 C   0  0  0  0  0  0  0  0  0  0  0  0
   -6.0960   18.4350  -31.8330 C   0  0  0  0  0  0  0  0  0  0  0  0
   -3.3620   19.9230  -32.9230 C   0  0  0  0  0  0  0  0  0  0  0  0
   -0.0970   22.1990  -28.6000 C   0  0  0  0  0  0  0  0  0  0  0  0
    0.0040   20.8070  -28.5090 C   0  0  0  0  0  0  0  0  0  0  0  0
   -0.8072   18.2689  -26.5991 H   0  0  0  0  0  0  0  0  0  0  0  0
   -1.7003   18.1500  -28.1531 H   0  0  0  0  0  0  0  0  0  0  0  0
    0.0935   18.2448  -28.1531 H   0  0  0  0  0  0  0  0  0  0  0  0
   -2.6541   20.2014  -26.4420 H   0  0  0  0  0  0  0  0  0  0  0  0
   -2.8251   22.6854  -26.5969 H   0  0  0  0  0  0  0  0  0  0  0  0
   -3.7958   24.4521  -28.0789 H   0  0  0  0  0  0  0  0  0  0  0  0
   -4.3306   25.2455  -29.5981 H   0  0  0  0  0  0  0  0  0  0  0  0
   -2.8980   22.5409  -29.4318 H   0  0  0  0  0  0  0  0  0  0  0  0
   -4.6735   22.7661  -29.6365 H   0  0  0  0  0  0  0  0  0  0  0  0
   -1.2712   21.9334  -31.1096 H   0  0  0  0  0  0  0  0  0  0  0  0
    0.0850   19.8404  -31.1143 H   0  0  0  0  0  0  0  0  0  0  0  0
   -0.7567   17.8035  -32.2821 H   0  0  0  0  0  0  0  0  0  0  0  0
   -5.7324   15.3706  -32.8448 H   0  0  0  0  0  0  0  0  0  0  0  0
   -6.4398   15.9760  -34.3809 H   0  0  0  0  0  0  0  0  0  0  0  0
   -4.8154   15.2092  -34.3809 H   0  0  0  0  0  0  0  0  0  0  0  0
   -5.8070   19.1461  -35.1658 H   0  0  0  0  0  0  0  0  0  0  0  0
   -7.1901   21.0927  -34.4609 H   0  0  0  0  0  0  0  0  0  0  0  0
   -6.7640   23.0440  -33.1050 H   0  0  0  0  0  0  0  0  0  0  0  0
   -7.1814   19.6341  -30.3889 H   0  0  0  0  0  0  0  0  0  0  0  0
   -5.7891   17.6885  -31.0856 H   0  0  0  0  0  0  0  0  0  0  0  0
   -4.3307   19.9482  -33.4436 H   0  0  0  0  0  0  0  0  0  0  0  0
    0.6246   22.7623  -29.2099 H   0  0  0  0  0  0  0  0  0  0  0  0
    0.7976   20.2784  -29.0574 H   0  0  0  0  0  0  0  0  0  0  0  0
  1  2  1  0
  2  3  2  0
  3  4  1  0
  4  5  2  0
  5  6  1  0
  6  7  2  0
  6  8  2  0
  6  9  1  0
  9 10  1  0
 10 11  1  0
 11 12  1  0
 12 13  1  0
 13 14  2  0
 13 15  1  0
 15 16  2  0
 16 17  1  0
 17 18  2  0
 18 19  1  0
 19 20  1  0
 20 21  2  0
 20 22  2  0
 20 23  1  0
 23 24  1  0
 23 25  1  0
 25 26  2  0
 26 27  1  0
 27 28  2  0
 28 29  1  0
 29 30  1  0
 29 31  2  0
 29 32  2  0
 28 33  1  0
 33 34  2  0
 19 35  2  0
  5 36  1  0
 36 37  2  0
 37  2  1  0
 35 15  1  0
 34 25  1  0
  1 38  1  0
  1 39  1  0
  1 40  1  0
  3 41  1  0
  4 42  1  0
 10 43  1  0
 10 44  1  0
 11 45  1  0
 11 46  1  0
 16 47  1  0
 17 48  1  0
 18 49  1  0
 24 50  1  0
 24 51  1  0
 24 52  1  0
 26 53  1  0
 27 54  1  0
 30 55  1  0
 33 56  1  0
 34 57  1  0
 35 58  1  0
 36 59  1  0
 37 60  1  0
M  CHG  3   9  -1  12  -1  30  -1
M  END
>  <UniqueID>  (32) 
30

>  <SMILES>  (32) 
Cc1ccc(S(=O)(=O)[N-]CC[N-]C(=O)c2cccc(S(=O)(=O)N(C)c3ccc(S([NH-])(=O)=O)cc3)c2)cc1

>  <Energy>  (32) 
66.57298579630107

>  <Genealogy>  (32) 
Cc1ccc(S(=O)(=O)[N-]CC[N-]C(=O)c2cccc(S(=O)(=O)N(C)c3ccc(S([NH-])(=O)=O)cc3)c2)cc1 (protonated)
Cc1ccc(S(=O)(=O)[N-]CC[N-]C(=O)c2cccc(S(=O)(=O)N(C)c3ccc(S([NH-])(=O)=O)cc3)c2)cc1 (3D coordinates assigned)
Cc1ccc(S(=O)(=O)[N-]CC[N-]C(=O)c2cccc(S(=O)(=O)N(C)c3ccc(S([NH-])(=O)=O)cc3)c2)cc1 (optimized conformer: 66.57298579630107 kcal/mol)

>  <smiles>  (32) 
Cc1ccc(S(=O)(=O)NCCNC(=O)c2cccc(S(=O)(=O)N(C)c3ccc(S(N)(=O)=O)cc3)c2)cc1

>  <score_type>  (32) 
oracle

>  <origin>  (32) 
adgpu

>  <m_score__min__energy>  (32) 
-13.77

>  <m_primary>  (32) 
energy

$$$$
32:0
     RDKit          3D

 55 58  0  0  0  0  0  0  0  0999 V2000
   -1.3700   18.5570  -32.0230 O   0  0  0  0  0  0  0  0  0  0  0  0
   -2.1540   19.2050  -32.7700 C   0  0  0  0  0  0  0  0  0  0  0  0
   -2.2530   18.8600  -34.1600 N   0  0  0  0  0  0  0  0  0  0  0  0
   -1.5820   17.6770  -34.6960 C   0  0  0  0  0  0  0  0  0  0  0  0
   -2.4190   16.4470  -34.4840 C   0  0  0  0  0  0  0  0  0  0  0  0
   -1.9390   15.2350  -34.0240 C   0  0  0  0  0  0  0  0  0  0  0  0
   -3.0280   14.3900  -33.9390 C   0  0  0  0  0  0  0  0  0  0  0  0
   -4.1290   15.1200  -34.3410 C   0  0  0  0  0  0  0  0  0  0  0  0
   -3.7580   16.3750  -34.6620 N   0  0  0  0  0  0  0  0  0  0  0  0
   -4.6540   17.4280  -35.1470 C   0  0  0  0  0  0  0  0  0  0  0  0
   -5.4340   18.0260  -34.0050 C   0  0  0  0  0  0  0  0  0  0  0  0
   -5.4670   17.3890  -32.7520 C   0  0  0  0  0  0  0  0  0  0  0  0
   -6.1900   17.9520  -31.6960 C   0  0  0  0  0  0  0  0  0  0  0  0
   -6.8870   19.1490  -31.8820 C   0  0  0  0  0  0  0  0  0  0  0  0
   -6.8640   19.7830  -33.1270 C   0  0  0  0  0  0  0  0  0  0  0  0
   -6.1430   19.2250  -34.1860 C   0  0  0  0  0  0  0  0  0  0  0  0
   -2.9390   20.3250  -32.1990 C   0  0  0  0  0  0  0  0  0  0  0  0
   -3.6640   21.1810  -33.0470 C   0  0  0  0  0  0  0  0  0  0  0  0
   -4.4040   22.2430  -32.5220 C   0  0  0  0  0  0  0  0  0  0  0  0
   -4.4210   22.4790  -31.1420 C   0  0  0  0  0  0  0  0  0  0  0  0
   -5.3630   23.8200  -30.4780 S   0  0  0  0  0  0  0  0  0  0  0  0
   -5.0010   24.0010  -29.0290 O   0  0  0  0  0  0  0  0  0  0  0  0
   -4.9980   25.0810  -31.2080 O   0  0  0  0  0  0  0  0  0  0  0  0
   -7.0880   23.5680  -30.6040 N   0  0  0  0  0  0  0  0  0  0  0  0
   -7.5250   23.4400  -31.9930 C   0  0  0  0  0  0  0  0  0  0  0  0
   -8.8130   22.6330  -31.9640 C   0  0  0  0  0  0  0  0  0  0  0  0
   -8.8070   21.9130  -30.6240 C   0  0  0  0  0  0  0  0  0  0  0  0
   -7.5140   22.3360  -29.9460 C   0  0  0  0  0  0  0  0  0  0  0  0
   -3.7000   21.6330  -30.2900 C   0  0  0  0  0  0  0  0  0  0  0  0
   -2.9590   20.5680  -30.8130 C   0  0  0  0  0  0  0  0  0  0  0  0
   -2.7700   19.4940  -34.8110 H   0  0  0  0  0  0  0  0  0  0  0  0
   -1.4119   17.8161  -35.7738 H   0  0  0  0  0  0  0  0  0  0  0  0
   -0.6242   17.5466  -34.1710 H   0  0  0  0  0  0  0  0  0  0  0  0
   -0.8956   14.9917  -33.7748 H   0  0  0  0  0  0  0  0  0  0  0  0
   -3.0199   13.3391  -33.6140 H   0  0  0  0  0  0  0  0  0  0  0  0
   -5.1577   14.7338  -34.3917 H   0  0  0  0  0  0  0  0  0  0  0  0
   -4.0578   18.2163  -35.6299 H   0  0  0  0  0  0  0  0  0  0  0  0
   -5.3596   16.9898  -35.8682 H   0  0  0  0  0  0  0  0  0  0  0  0
   -4.9225   16.4451  -32.6021 H   0  0  0  0  0  0  0  0  0  0  0  0
   -6.2103   17.4517  -30.7166 H   0  0  0  0  0  0  0  0  0  0  0  0
   -7.4531   19.5916  -31.0492 H   0  0  0  0  0  0  0  0  0  0  0  0
   -7.4149   20.7237  -33.2738 H   0  0  0  0  0  0  0  0  0  0  0  0
   -6.1306   19.7265  -35.1649 H   0  0  0  0  0  0  0  0  0  0  0  0
   -3.6482   21.0127  -34.1339 H   0  0  0  0  0  0  0  0  0  0  0  0
   -4.9763   22.8972  -33.1961 H   0  0  0  0  0  0  0  0  0  0  0  0
   -7.7082   24.4338  -32.4275 H   0  0  0  0  0  0  0  0  0  0  0  0
   -6.7586   22.9466  -32.6088 H   0  0  0  0  0  0  0  0  0  0  0  0
   -9.6859   23.2980  -32.0399 H   0  0  0  0  0  0  0  0  0  0  0  0
   -8.8743   21.9290  -32.8070 H   0  0  0  0  0  0  0  0  0  0  0  0
   -9.6753   22.2157  -30.0203 H   0  0  0  0  0  0  0  0  0  0  0  0
   -8.8680   20.8214  -30.7452 H   0  0  0  0  0  0  0  0  0  0  0  0
   -7.6875   22.5170  -28.8750 H   0  0  0  0  0  0  0  0  0  0  0  0
   -6.7456   21.5533  -30.0286 H   0  0  0  0  0  0  0  0  0  0  0  0
   -3.7165   21.8069  -29.2040 H   0  0  0  0  0  0  0  0  0  0  0  0
   -2.3878   19.9158  -30.1360 H   0  0  0  0  0  0  0  0  0  0  0  0
  1  2  2  0
  2  3  1  0
  3  4  1  0
  4  5  1  0
  5  6  2  0
  6  7  1  0
  7  8  2  0
  8  9  1  0
  9 10  1  0
 10 11  1  0
 11 12  2  0
 12 13  1  0
 13 14  2  0
 14 15  1  0
 15 16  2  0
  2 17  1  0
 17 18  2  0
 18 19  1  0
 19 20  2  0
 20 21  1  0
 21 22  2  0
 21 23  2  0
 21 24  1  0
 24 25  1  0
 25 26  1  0
 26 27  1  0
 27 28  1  0
 20 29  1  0
 29 30  2  0
  9  5  1  0
 16 11  1  0
 30 17  1  0
 28 24  1  0
  3 31  1  0
  4 32  1  0
  4 33  1  0
  6 34  1  0
  7 35  1  0
  8 36  1  0
 10 37  1  0
 10 38  1  0
 12 39  1  0
 13 40  1  0
 14 41  1  0
 15 42  1  0
 16 43  1  0
 18 44  1  0
 19 45  1  0
 25 46  1  0
 25 47  1  0
 26 48  1  0
 26 49  1  0
 27 50  1  0
 27 51  1  0
 28 52  1  0
 28 53  1  0
 29 54  1  0
 30 55  1  0
M  END
>  <UniqueID>  (33) 
31

>  <SMILES>  (33) 
O=C(NCc1cccn1Cc1ccccc1)c1ccc(S(=O)(=O)N2CCCC2)cc1

>  <Energy>  (33) 
82.93705403162694

>  <Genealogy>  (33) 
O=C(NCc1cccn1Cc1ccccc1)c1ccc(S(=O)(=O)N2CCCC2)cc1 (3D coordinates assigned)
O=C(NCc1cccn1Cc1ccccc1)c1ccc(S(=O)(=O)N2CCCC2)cc1 (nonaromatic ring conformer: 82.93705403162694 kcal/mol)

>  <smiles>  (33) 
O=C(NCc1cccn1Cc1ccccc1)c1ccc(S(=O)(=O)N2CCCC2)cc1

>  <score_type>  (33) 
oracle

>  <origin>  (33) 
adgpu

>  <m_score__min__energy>  (33) 
-10.119999999999999

>  <m_primary>  (33) 
energy

$$$$
33:0
     RDKit          3D

 59 62  0  0  0  0  0  0  0  0999 V2000
   -1.4620   21.5820  -26.7770 C   0  0  0  0  0  0  0  0  0  0  0  0
   -2.0510   22.6020  -27.7150 C   0  0  0  0  0  0  0  0  0  0  0  0
   -3.2040   22.2470  -28.4340 C   0  0  0  0  0  0  0  0  0  0  0  0
   -3.7900   23.1360  -29.3310 C   0  0  0  0  0  0  0  0  0  0  0  0
   -3.2280   24.3930  -29.5500 C   0  0  0  0  0  0  0  0  0  0  0  0
   -3.8760   25.2760  -30.4750 N   0  0  0  0  0  0  0  0  0  0  0  0
   -5.2670   25.2480  -30.8180 C   0  0  0  0  0  0  0  0  0  0  0  0
   -6.0960   25.9340  -30.1640 O   0  0  0  0  0  0  0  0  0  0  0  0
   -5.7180   24.5250  -31.9690 N   0  0  0  0  0  0  0  0  0  0  0  0
   -6.4980   23.3210  -31.9560 C   0  0  0  0  0  0  0  0  0  0  0  0
   -7.8920   23.3440  -31.7880 C   0  0  0  0  0  0  0  0  0  0  0  0
   -8.6190   22.1520  -31.7950 C   0  0  0  0  0  0  0  0  0  0  0  0
   -7.9730   20.9240  -31.9880 C   0  0  0  0  0  0  0  0  0  0  0  0
   -8.7720   19.7250  -31.9590 C   0  0  0  0  0  0  0  0  0  0  0  0
   -9.4190   18.7650  -31.9320 N   0  0  0  0  0  0  0  0  0  0  0  0
   -6.5730   20.8940  -32.1970 C   0  0  0  0  0  0  0  0  0  0  0  0
   -5.6610   19.3950  -32.4600 S   0  0  0  0  0  0  0  0  0  0  0  0
   -5.7530   18.5700  -31.2060 O   0  0  0  0  0  0  0  0  0  0  0  0
   -4.2080   19.6830  -32.7200 O   0  0  0  0  0  0  0  0  0  0  0  0
   -6.3680   18.5100  -33.7960 N   0  0  0  0  0  0  0  0  0  0  0  0
   -5.4610   18.4290  -34.9620 C   0  0  0  0  0  0  0  0  0  0  0  0
   -4.6940   17.0960  -35.0310 C   0  0  0  0  0  0  0  0  0  0  0  0
   -4.4720   16.5890  -33.7340 O   0  0  0  0  0  0  0  0  0  0  0  0
   -5.6970   16.1770  -33.1550 C   0  0  0  0  0  0  0  0  0  0  0  0
   -6.8530   17.1830  -33.3750 C   0  0  0  0  0  0  0  0  0  0  0  0
   -5.8540   22.1000  -32.1780 C   0  0  0  0  0  0  0  0  0  0  0  0
   -2.0960   24.7860  -28.8110 C   0  0  0  0  0  0  0  0  0  0  0  0
   -1.5980   26.0780  -28.9520 O   0  0  0  0  0  0  0  0  0  0  0  0
   -1.4840   23.8930  -27.9040 C   0  0  0  0  0  0  0  0  0  0  0  0
   -0.0470   24.4700  -27.0180 S   0  0  0  0  0  0  0  0  0  0  0  0
    1.0700   24.6820  -28.0010 O   0  0  0  0  0  0  0  0  0  0  0  0
    0.4280   23.4920  -25.9820 O   0  0  0  0  0  0  0  0  0  0  0  0
   -0.4340   26.0370  -26.2310 C   0  0  0  0  0  0  0  0  0  0  0  0
    0.3890   26.3010  -24.9740 C   0  0  0  0  0  0  0  0  0  0  0  0
   -0.8840   26.2650  -24.1390 C   0  0  0  0  0  0  0  0  0  0  0  0
   -1.7060   26.0000  -25.3920 C   0  0  0  0  0  0  0  0  0  0  0  0
   -1.6416   21.8931  -25.7373 H   0  0  0  0  0  0  0  0  0  0  0  0
   -1.9348   20.6047  -26.9542 H   0  0  0  0  0  0  0  0  0  0  0  0
   -0.3792   21.5030  -26.9542 H   0  0  0  0  0  0  0  0  0  0  0  0
   -3.6504   21.2525  -28.2864 H   0  0  0  0  0  0  0  0  0  0  0  0
   -4.7030   22.8445  -29.8708 H   0  0  0  0  0  0  0  0  0  0  0  0
   -8.4124   24.3033  -31.6506 H   0  0  0  0  0  0  0  0  0  0  0  0
   -9.7088   22.1774  -31.6476 H   0  0  0  0  0  0  0  0  0  0  0  0
   -6.0578   18.5388  -35.8795 H   0  0  0  0  0  0  0  0  0  0  0  0
   -4.7177   19.2333  -34.8593 H   0  0  0  0  0  0  0  0  0  0  0  0
   -5.2830   16.3684  -35.6087 H   0  0  0  0  0  0  0  0  0  0  0  0
   -3.7228   17.2679  -35.5180 H   0  0  0  0  0  0  0  0  0  0  0  0
   -5.9852   15.2128  -33.5992 H   0  0  0  0  0  0  0  0  0  0  0  0
   -5.5336   16.1040  -32.0696 H   0  0  0  0  0  0  0  0  0  0  0  0
   -7.5224   16.7878  -34.1533 H   0  0  0  0  0  0  0  0  0  0  0  0
   -7.3790   17.3057  -32.4167 H   0  0  0  0  0  0  0  0  0  0  0  0
   -4.7662   22.0839  -32.3405 H   0  0  0  0  0  0  0  0  0  0  0  0
   -0.3603   26.7083  -27.0993 H   0  0  0  0  0  0  0  0  0  0  0  0
    1.1084   25.5048  -24.7319 H   0  0  0  0  0  0  0  0  0  0  0  0
    1.0668   27.1658  -24.9218 H   0  0  0  0  0  0  0  0  0  0  0  0
   -0.9139   25.4485  -23.4025 H   0  0  0  0  0  0  0  0  0  0  0  0
   -1.1372   27.1064  -23.4773 H   0  0  0  0  0  0  0  0  0  0  0  0
   -2.2187   25.0268  -25.3957 H   0  0  0  0  0  0  0  0  0  0  0  0
   -2.5601   26.6452  -25.6454 H   0  0  0  0  0  0  0  0  0  0  0  0
  1  2  1  0
  2  3  2  0
  3  4  1  0
  4  5  2  0
  5  6  1  0
  6  7  1  0
  7  8  2  0
  7  9  1  0
  9 10  1  0
 10 11  2  0
 11 12  1  0
 12 13  2  0
 13 14  1  0
 14 15  3  0
 13 16  1  0
 16 17  1  0
 17 18  2  0
 17 19  2  0
 17 20  1  0
 20 21  1  0
 21 22  1  0
 22 23  1  0
 23 24  1  0
 24 25  1  0
 16 26  2  0
  5 27  1  0
 27 28  1  0
 27 29  2  0
 29 30  1  0
 30 31  2  0
 30 32  2  0
 30 33  1  0
 33 34  1  0
 34 35  1  0
 35 36  1  0
 29  2  1  0
 36 33  1  0
 26 10  1  0
 25 20  1  0
  1 37  1  0
  1 38  1  0
  1 39  1  0
  3 40  1  0
  4 41  1  0
 11 42  1  0
 12 43  1  0
 21 44  1  0
 21 45  1  0
 22 46  1  0
 22 47  1  0
 24 48  1  0
 24 49  1  0
 25 50  1  0
 25 51  1  0
 26 52  1  0
 33 53  1  0
 34 54  1  0
 34 55  1  0
 35 56  1  0
 35 57  1  0
 36 58  1  0
 36 59  1  0
M  CHG  3   6  -1   9  -1  28  -1
M  END
>  <UniqueID>  (34) 
32

>  <SMILES>  (34) 
Cc1ccc([N-]C(=O)[N-]c2ccc(C#N)c(S(=O)(=O)N3CCOCC3)c2)c([O-])c1S(=O)(=O)C1CCC1

>  <Energy>  (34) 
144.42436006602148

>  <Genealogy>  (34) 
Cc1ccc([N-]C(=O)[N-]c2ccc(C#N)c(S(=O)(=O)N3CCOCC3)c2)c([O-])c1S(=O)(=O)C1CCC1 (protonated)
Cc1ccc([N-]C(=O)[N-]c2ccc(C#N)c(S(=O)(=O)N3CCOCC3)c2)c([O-])c1S(=O)(=O)C1CCC1 (3D coordinates assigned)
Cc1ccc([N-]C(=O)[N-]c2ccc(C#N)c(S(=O)(=O)N3CCOCC3)c2)c([O-])c1S(=O)(=O)C1CCC1 (nonaromatic ring conformer: 144.42436006602148 kcal/mol)

>  <smiles>  (34) 
Cc1ccc(NC(=O)Nc2ccc(C#N)c(S(=O)(=O)N3CCOCC3)c2)c(O)c1S(=O)(=O)C1CCC1

>  <score_type>  (34) 
oracle

>  <origin>  (34) 
adgpu

>  <m_score__min__energy>  (34) 
-17.760000000000002

>  <m_primary>  (34) 
energy

$$$$
34:0
     RDKit          3D

 60 64  0  0  0  0  0  0  0  0999 V2000
   -1.7210   23.9450  -28.7210 C   0  0  0  0  0  0  0  0  0  0  0  0
   -2.6930   23.3580  -29.7000 C   0  0  0  0  0  0  0  0  0  0  0  0
   -2.3930   22.5000  -30.7430 C   0  0  0  0  0  0  0  0  0  0  0  0
   -1.1090   22.0180  -31.1330 N   0  0  0  0  0  0  0  0  0  0  0  0
   -0.6190   20.4020  -30.7570 S   0  0  0  0  0  0  0  0  0  0  0  0
    0.8730   20.3360  -30.5840 O   0  0  0  0  0  0  0  0  0  0  0  0
   -1.2650   19.9850  -29.4660 O   0  0  0  0  0  0  0  0  0  0  0  0
   -1.1260   19.3330  -32.0630 C   0  0  0  0  0  0  0  0  0  0  0  0
   -1.7440   19.8600  -33.2030 C   0  0  0  0  0  0  0  0  0  0  0  0
   -2.1020   19.0220  -34.2620 C   0  0  0  0  0  0  0  0  0  0  0  0
   -1.8340   17.6460  -34.2050 C   0  0  0  0  0  0  0  0  0  0  0  0
   -2.1720   16.8170  -35.3340 N   0  0  0  0  0  0  0  0  0  0  0  0
   -3.4330   16.0840  -35.4670 C   0  0  0  0  0  0  0  0  0  0  0  0
   -4.4560   16.5840  -34.4830 C   0  0  0  0  0  0  0  0  0  0  0  0
   -4.8030   15.8080  -33.3670 C   0  0  0  0  0  0  0  0  0  0  0  0
   -5.7350   16.2940  -32.4500 C   0  0  0  0  0  0  0  0  0  0  0  0
   -6.3140   17.5540  -32.6470 C   0  0  0  0  0  0  0  0  0  0  0  0
   -7.2540   18.0770  -31.7450 C   0  0  0  0  0  0  0  0  0  0  0  0
   -7.8130   19.3400  -31.9710 C   0  0  0  0  0  0  0  0  0  0  0  0
   -7.4310   20.0890  -33.0880 C   0  0  0  0  0  0  0  0  0  0  0  0
   -6.4910   19.5770  -33.9910 C   0  0  0  0  0  0  0  0  0  0  0  0
   -5.9320   18.3140  -33.7760 C   0  0  0  0  0  0  0  0  0  0  0  0
   -5.0150   17.8150  -34.6470 N   0  0  0  0  0  0  0  0  0  0  0  0
   -1.2190   17.1180  -33.0540 C   0  0  0  0  0  0  0  0  0  0  0  0
   -0.8680   17.9550  -31.9920 C   0  0  0  0  0  0  0  0  0  0  0  0
   -0.2670   17.4190  -30.8990 F   0  0  0  0  0  0  0  0  0  0  0  0
   -3.5930   22.2430  -31.3610 C   0  0  0  0  0  0  0  0  0  0  0  0
   -3.7630   21.5020  -32.3650 O   0  0  0  0  0  0  0  0  0  0  0  0
   -4.5730   22.9150  -30.7250 N   0  0  0  0  0  0  0  0  0  0  0  0
   -5.9670   22.9060  -31.0760 C   0  0  0  0  0  0  0  0  0  0  0  0
   -6.3960   23.4790  -32.2840 C   0  0  0  0  0  0  0  0  0  0  0  0
   -7.7500   23.4470  -32.6340 C   0  0  0  0  0  0  0  0  0  0  0  0
   -8.6800   22.8400  -31.7820 C   0  0  0  0  0  0  0  0  0  0  0  0
   -8.2590   22.2700  -30.5780 C   0  0  0  0  0  0  0  0  0  0  0  0
   -6.9080   22.3140  -30.2160 C   0  0  0  0  0  0  0  0  0  0  0  0
   -4.0270   23.6060  -29.7260 N   0  0  0  0  0  0  0  0  0  0  0  0
   -4.7560   24.4790  -28.8010 C   0  0  0  0  0  0  0  0  0  0  0  0
   -2.0630   23.7385  -27.6961 H   0  0  0  0  0  0  0  0  0  0  0  0
   -0.7291   23.4948  -28.8743 H   0  0  0  0  0  0  0  0  0  0  0  0
   -1.6577   25.0324  -28.8743 H   0  0  0  0  0  0  0  0  0  0  0  0
   -1.9487   20.9390  -33.2654 H   0  0  0  0  0  0  0  0  0  0  0  0
   -2.5982   19.4446  -35.1481 H   0  0  0  0  0  0  0  0  0  0  0  0
   -1.4510   16.6660  -36.0760 H   0  0  0  0  0  0  0  0  0  0  0  0
   -3.8206   16.2180  -36.4877 H   0  0  0  0  0  0  0  0  0  0  0  0
   -3.2422   15.0201  -35.2628 H   0  0  0  0  0  0  0  0  0  0  0  0
   -4.3422   14.8207  -33.2158 H   0  0  0  0  0  0  0  0  0  0  0  0
   -6.0144   15.6894  -31.5746 H   0  0  0  0  0  0  0  0  0  0  0  0
   -7.5512   17.4942  -30.8607 H   0  0  0  0  0  0  0  0  0  0  0  0
   -8.5554   19.7447  -31.2674 H   0  0  0  0  0  0  0  0  0  0  0  0
   -7.8700   21.0832  -33.2580 H   0  0  0  0  0  0  0  0  0  0  0  0
   -6.1927   20.1685  -34.8691 H   0  0  0  0  0  0  0  0  0  0  0  0
   -1.0135   16.0392  -32.9904 H   0  0  0  0  0  0  0  0  0  0  0  0
   -5.6662   23.9538  -32.9562 H   0  0  0  0  0  0  0  0  0  0  0  0
   -8.0841   23.8992  -33.5795 H   0  0  0  0  0  0  0  0  0  0  0  0
   -9.7437   22.8117  -32.0608 H   0  0  0  0  0  0  0  0  0  0  0  0
   -8.9903   21.7861  -29.9139 H   0  0  0  0  0  0  0  0  0  0  0  0
   -6.5820   21.8847  -29.2571 H   0  0  0  0  0  0  0  0  0  0  0  0
   -4.5189   24.1951  -27.7651 H   0  0  0  0  0  0  0  0  0  0  0  0
   -4.4587   25.5242  -28.9719 H   0  0  0  0  0  0  0  0  0  0  0  0
   -5.8374   24.3728  -28.9719 H   0  0  0  0  0  0  0  0  0  0  0  0
  1  2  1  0
  2  3  2  0
  3  4  1  0
  4  5  1  0
  5  6  2  0
  5  7  2  0
  5  8  1  0
  8  9  2  0
  9 10  1  0
 10 11  2  0
 11 12  1  0
 12 13  1  0
 13 14  1  0
 14 15  2  0
 15 16  1  0
 16 17  2  0
 17 18  1  0
 18 19  2  0
 19 20  1  0
 20 21  2  0
 21 22  1  0
 22 23  2  0
 11 24  1  0
 24 25  2  0
 25 26  1  0
  3 27  1  0
 27 28  2  0
 27 29  1  0
 29 30  1  0
 30 31  2  0
 31 32  1  0
 32 33  2  0
 33 34  1  0
 34 35  2  0
 29 36  1  0
 36 37  1  0
 36  2  1  0
 25  8  1  0
 35 30  1  0
 23 14  1  0
 22 17  1  0
  1 38  1  0
  1 39  1  0
  1 40  1  0
  9 41  1  0
 10 42  1  0
 12 43  1  0
 13 44  1  0
 13 45  1  0
 15 46  1  0
 16 47  1  0
 18 48  1  0
 19 49  1  0
 20 50  1  0
 21 51  1  0
 24 52  1  0
 31 53  1  0
 32 54  1  0
 33 55  1  0
 34 56  1  0
 35 57  1  0
 37 58  1  0
 37 59  1  0
 37 60  1  0
M  CHG  1   4  -1
M  END
>  <UniqueID>  (35) 
33

>  <SMILES>  (35) 
Cc1c([N-]S(=O)(=O)c2ccc(NCc3ccc4ccccc4n3)cc2F)c(=O)n(-c2ccccc2)n1C

>  <Energy>  (35) 
115.44734116512367

>  <Genealogy>  (35) 
Cc1c([N-]S(=O)(=O)c2ccc(NCc3ccc4ccccc4n3)cc2F)c(=O)n(-c2ccccc2)n1C (protonated)
Cc1c([N-]S(=O)(=O)c2ccc(NCc3ccc4ccccc4n3)cc2F)c(=O)n(-c2ccccc2)n1C (3D coordinates assigned)
Cc1c([N-]S(=O)(=O)c2ccc(NCc3ccc4ccccc4n3)cc2F)c(=O)n(-c2ccccc2)n1C (optimized conformer: 115.44734116512367 kcal/mol)

>  <smiles>  (35) 
Cc1c(NS(=O)(=O)c2ccc(NCc3ccc4ccccc4n3)cc2F)c(=O)n(-c2ccccc2)n1C

>  <score_type>  (35) 
oracle

>  <origin>  (35) 
adgpu

>  <m_score__min__energy>  (35) 
-11.5

>  <m_primary>  (35) 
energy

$$$$
35:0
     RDKit          3D

 53 56  0  0  0  0  0  0  0  0999 V2000
   -3.5631   20.6759  -34.3369 H   0  0  0  0  0  0  0  0  0  0  0  0
   -3.6480   21.2100  -33.3790 C   0  0  0  0  0  0  0  0  0  0  0  0
   -4.8270   21.7740  -33.0110 N   0  0  0  0  0  0  0  0  0  0  0  0
   -4.9740   22.4370  -31.8300 C   0  0  0  0  0  0  0  0  0  0  0  0
   -6.2400   23.0650  -31.5240 N   0  0  0  0  0  0  0  0  0  0  0  0
   -7.0950   23.5980  -32.5950 C   0  0  0  0  0  0  0  0  0  0  0  0
   -6.8766   24.6680  -32.7268 H   0  0  0  0  0  0  0  0  0  0  0  0
   -6.8816   23.0367  -33.5166 H   0  0  0  0  0  0  0  0  0  0  0  0
   -8.5920   23.4300  -32.2640 C   0  0  0  0  0  0  0  0  0  0  0  0
   -8.9164   24.2888  -31.6580 H   0  0  0  0  0  0  0  0  0  0  0  0
   -9.1376   23.3739  -33.2175 H   0  0  0  0  0  0  0  0  0  0  0  0
   -8.8780   22.1860  -31.5130 N   0  0  0  0  0  0  0  0  0  0  0  0
   -9.2080   20.9980  -32.3340 C   0  0  0  0  0  0  0  0  0  0  0  0
  -10.0781   20.4967  -31.8851 H   0  0  0  0  0  0  0  0  0  0  0  0
   -9.4103   21.3584  -33.3534 H   0  0  0  0  0  0  0  0  0  0  0  0
   -8.0790   19.9950  -32.4360 C   0  0  0  0  0  0  0  0  0  0  0  0
   -7.1360   20.0740  -33.4760 C   0  0  0  0  0  0  0  0  0  0  0  0
   -7.1974   20.8913  -34.2097 H   0  0  0  0  0  0  0  0  0  0  0  0
   -6.1210   19.1190  -33.5820 C   0  0  0  0  0  0  0  0  0  0  0  0
   -5.3958   19.1785  -34.4070 H   0  0  0  0  0  0  0  0  0  0  0  0
   -6.0250   18.0890  -32.6430 C   0  0  0  0  0  0  0  0  0  0  0  0
   -5.2318   17.3324  -32.7347 H   0  0  0  0  0  0  0  0  0  0  0  0
   -6.9380   18.0210  -31.5870 C   0  0  0  0  0  0  0  0  0  0  0  0
   -6.8539   17.2185  -30.8394 H   0  0  0  0  0  0  0  0  0  0  0  0
   -7.9580   18.9710  -31.4790 C   0  0  0  0  0  0  0  0  0  0  0  0
   -8.6694   18.9175  -30.6417 H   0  0  0  0  0  0  0  0  0  0  0  0
   -8.0290   21.9200  -30.3250 C   0  0  0  0  0  0  0  0  0  0  0  0
   -8.6508   22.0126  -29.4223 H   0  0  0  0  0  0  0  0  0  0  0  0
   -7.6151   20.9071  -30.4374 H   0  0  0  0  0  0  0  0  0  0  0  0
   -6.8470   22.8860  -30.2040 C   0  0  0  0  0  0  0  0  0  0  0  0
   -7.2012   23.8565  -29.8264 H   0  0  0  0  0  0  0  0  0  0  0  0
   -6.1026   22.4764  -29.5054 H   0  0  0  0  0  0  0  0  0  0  0  0
   -3.8630   22.5170  -30.9600 C   0  0  0  0  0  0  0  0  0  0  0  0
   -3.9660   23.0980  -29.8030 N   0  0  0  0  0  0  0  0  0  0  0  0
   -2.6520   23.2650  -28.6850 S   0  0  0  0  0  0  0  0  0  0  0  0
   -3.1220   24.0290  -27.4790 O   0  0  0  0  0  0  0  0  0  0  0  0
   -1.5360   24.0260  -29.3410 O   0  0  0  0  0  0  0  0  0  0  0  0
   -2.0690   21.6680  -28.2300 C   0  0  0  0  0  0  0  0  0  0  0  0
   -0.7780   21.2490  -28.5820 C   0  0  0  0  0  0  0  0  0  0  0  0
   -0.1216   21.9183  -29.1575 H   0  0  0  0  0  0  0  0  0  0  0  0
   -0.3230   19.9820  -28.2030 C   0  0  0  0  0  0  0  0  0  0  0  0
    0.6912   19.6586  -28.4800 H   0  0  0  0  0  0  0  0  0  0  0  0
   -1.1550   19.1220  -27.4710 C   0  0  0  0  0  0  0  0  0  0  0  0
   -0.6900   17.8270  -27.0830 N   0  0  0  0  0  0  0  0  0  0  0  0
    0.1580   17.4090  -27.5250 H   0  0  0  0  0  0  0  0  0  0  0  0
   -1.1920   17.2760  -26.3510 H   0  0  0  0  0  0  0  0  0  0  0  0
   -2.4470   19.5410  -27.1230 C   0  0  0  0  0  0  0  0  0  0  0  0
   -3.1062   18.8697  -26.5531 H   0  0  0  0  0  0  0  0  0  0  0  0
   -2.9000   20.8090  -27.4980 C   0  0  0  0  0  0  0  0  0  0  0  0
   -3.9128   21.1340  -27.2175 H   0  0  0  0  0  0  0  0  0  0  0  0
   -2.6810   21.9580  -31.3470 N   0  0  0  0  0  0  0  0  0  0  0  0
   -2.5480   21.3140  -32.5330 C   0  0  0  0  0  0  0  0  0  0  0  0
   -1.5806   20.8783  -32.8233 H   0  0  0  0  0  0  0  0  0  0  0  0
  1  2  1  0
  2  3  1  0
  3  4  2  0
  4  5  1  0
  5  6  1  0
  6  7  1  0
  6  8  1  0
  6  9  1  0
  9 10  1  0
  9 11  1  0
  9 12  1  0
 12 13  1  0
 13 14  1  0
 13 15  1  0
 13 16  1  0
 16 17  2  0
 17 18  1  0
 17 19  1  0
 19 20  1  0
 19 21  2  0
 21 22  1  0
 21 23  1  0
 23 24  1  0
 23 25  2  0
 25 26  1  0
 12 27  1  0
 27 28  1  0
 27 29  1  0
 27 30  1  0
 30 31  1  0
 30 32  1  0
  4 33  1  0
 33 34  2  0
 34 35  1  0
 35 36  2  0
 35 37  2  0
 35 38  1  0
 38 39  2  0
 39 40  1  0
 39 41  1  0
 41 42  1  0
 41 43  2  0
 43 44  1  0
 44 45  1  0
 44 46  1  0
 43 47  1  0
 47 48  1  0
 47 49  2  0
 49 50  1  0
 33 51  1  0
 51 52  1  0
 52 53  1  0
 52  2  2  0
 30  5  1  0
 49 38  1  0
 25 16  1  0
M  CHG  1  51  -1
M  END
>  <UniqueID>  (36) 
34

>  <SMILES>  (36) 
Nc1ccc(S(=O)(=O)/N=c2\[n-]ccnc2N2CCN(Cc3ccccc3)CC2)cc1

>  <Energy>  (36) 
72.13562496551184

>  <Genealogy>  (36) 
Nc1ccc(S(=O)(=O)N=c2[n-]ccnc2N2CCN(Cc3ccccc3)CC2)cc1 (protonated)
Nc1ccc(S(=O)(=O)/N=c2\[n-]ccnc2N2CCN(Cc3ccccc3)CC2)cc1 (cis-trans isomerization)
Nc1ccc(S(=O)(=O)/N=c2\[n-]ccnc2N2CCN(Cc3ccccc3)CC2)cc1 (3D coordinates assigned)
Nc1ccc(S(=O)(=O)/N=c2\[n-]ccnc2N2CCN(Cc3ccccc3)CC2)cc1 (nonaromatic ring conformer: 72.13562496551184 kcal/mol)

>  <smiles>  (36) 
Nc1ccc(S(=O)(=O)N=c2[nH]ccnc2N2CCN(Cc3ccccc3)CC2)cc1

>  <score_type>  (36) 
oracle

>  <origin>  (36) 
adgpu

>  <m_score__min__energy>  (36) 
-9.9800000000000004

>  <m_primary>  (36) 
energy

$$$$
36:0
     RDKit          3D

 38 40  0  0  0  0  0  0  0  0999 V2000
   -4.3590   20.7020  -33.4730 O   0  0  0  0  0  0  0  0  0  0  0  0
   -5.2760   20.7710  -32.6100 C   0  0  0  0  0  0  0  0  0  0  0  0
   -6.0970   19.6190  -32.3380 N   0  0  0  0  0  0  0  0  0  0  0  0
   -5.9110   18.3410  -32.9660 C   0  0  0  0  0  0  0  0  0  0  0  0
   -5.7110   17.1710  -32.2160 C   0  0  0  0  0  0  0  0  0  0  0  0
   -5.5090   15.9510  -32.8660 C   0  0  0  0  0  0  0  0  0  0  0  0
   -5.4950   15.9140  -34.2610 C   0  0  0  0  0  0  0  0  0  0  0  0
   -5.6650   17.0590  -34.9740 N   0  0  0  0  0  0  0  0  0  0  0  0
   -5.8620   18.2580  -34.3650 C   0  0  0  0  0  0  0  0  0  0  0  0
   -5.4740   22.0480  -31.8790 C   0  0  0  0  0  0  0  0  0  0  0  0
   -6.7760   22.4940  -31.5980 C   0  0  0  0  0  0  0  0  0  0  0  0
   -6.9820   23.7030  -30.9310 C   0  0  0  0  0  0  0  0  0  0  0  0
   -5.8940   24.4910  -30.5470 C   0  0  0  0  0  0  0  0  0  0  0  0
   -6.1930   26.0100  -29.7150 Cl  0  0  0  0  0  0  0  0  0  0  0  0
   -4.5840   24.0710  -30.8290 C   0  0  0  0  0  0  0  0  0  0  0  0
   -3.4850   24.9090  -30.4410 N   0  0  0  0  0  0  0  0  0  0  0  0
   -2.3580   24.5670  -29.1680 S   0  0  0  0  0  0  0  0  0  0  0  0
   -1.1420   25.4300  -29.3430 O   0  0  0  0  0  0  0  0  0  0  0  0
   -2.9990   24.8850  -27.8470 O   0  0  0  0  0  0  0  0  0  0  0  0
   -1.8700   22.8760  -29.2290 C   0  0  0  0  0  0  0  0  0  0  0  0
   -2.4780   21.9360  -28.3880 C   0  0  0  0  0  0  0  0  0  0  0  0
   -2.0740   20.6000  -28.4320 C   0  0  0  0  0  0  0  0  0  0  0  0
   -1.0670   20.2190  -29.3210 C   0  0  0  0  0  0  0  0  0  0  0  0
   -0.4900   21.1440  -30.1340 N   0  0  0  0  0  0  0  0  0  0  0  0
   -0.8660   22.4510  -30.1080 C   0  0  0  0  0  0  0  0  0  0  0  0
   -4.3830   22.8480  -31.4960 C   0  0  0  0  0  0  0  0  0  0  0  0
   -6.8260   19.6750  -31.5940 H   0  0  0  0  0  0  0  0  0  0  0  0
   -5.7134   17.2150  -31.1169 H   0  0  0  0  0  0  0  0  0  0  0  0
   -5.3625   15.0290  -32.2842 H   0  0  0  0  0  0  0  0  0  0  0  0
   -5.3463   14.9578  -34.7840 H   0  0  0  0  0  0  0  0  0  0  0  0
   -5.9835   19.1672  -34.9721 H   0  0  0  0  0  0  0  0  0  0  0  0
   -7.6396   21.8862  -31.9058 H   0  0  0  0  0  0  0  0  0  0  0  0
   -8.0058   24.0368  -30.7067 H   0  0  0  0  0  0  0  0  0  0  0  0
   -3.2721   22.2492  -27.6942 H   0  0  0  0  0  0  0  0  0  0  0  0
   -2.5443   19.8553  -27.7730 H   0  0  0  0  0  0  0  0  0  0  0  0
   -0.7400   19.1696  -29.3638 H   0  0  0  0  0  0  0  0  0  0  0  0
   -0.3806   23.1754  -30.7786 H   0  0  0  0  0  0  0  0  0  0  0  0
   -3.3593   22.5138  -31.7205 H   0  0  0  0  0  0  0  0  0  0  0  0
  1  2  2  0
  2  3  1  0
  3  4  1  0
  4  5  2  0
  5  6  1  0
  6  7  2  0
  7  8  1  0
  8  9  2  0
  2 10  1  0
 10 11  2  0
 11 12  1  0
 12 13  2  0
 13 14  1  0
 13 15  1  0
 15 16  1  0
 16 17  1  0
 17 18  2  0
 17 19  2  0
 17 20  1  0
 20 21  2  0
 21 22  1  0
 22 23  2  0
 23 24  1  0
 24 25  2  0
 15 26  2  0
  9  4  1  0
 26 10  1  0
 25 20  1  0
  3 27  1  0
  5 28  1  0
  6 29  1  0
  7 30  1  0
  9 31  1  0
 11 32  1  0
 12 33  1  0
 21 34  1  0
 22 35  1  0
 23 36  1  0
 25 37  1  0
 26 38  1  0
M  CHG  1  16  -1
M  END
>  <UniqueID>  (37) 
35

>  <SMILES>  (37) 
O=C(Nc1cccnc1)c1ccc(Cl)c([N-]S(=O)(=O)c2cccnc2)c1

>  <Energy>  (37) 
52.70736410574105

>  <Genealogy>  (37) 
O=C(Nc1cccnc1)c1ccc(Cl)c([N-]S(=O)(=O)c2cccnc2)c1 (protonated)
O=C(Nc1cccnc1)c1ccc(Cl)c([N-]S(=O)(=O)c2cccnc2)c1 (3D coordinates assigned)
O=C(Nc1cccnc1)c1ccc(Cl)c([N-]S(=O)(=O)c2cccnc2)c1 (optimized conformer: 52.70736410574105 kcal/mol)

>  <smiles>  (37) 
O=C(Nc1cccnc1)c1ccc(Cl)c(NS(=O)(=O)c2cccnc2)c1

>  <score_type>  (37) 
oracle

>  <origin>  (37) 
adgpu

>  <m_score__min__energy>  (37) 
-9.6999999999999993

>  <m_primary>  (37) 
energy

$$$$
37:0
     RDKit          3D

 42 44  0  0  0  0  0  0  0  0999 V2000
   -5.7550   26.2850  -30.3480 O   0  0  0  0  0  0  0  0  0  0  0  0
   -5.1000   25.2320  -30.5780 C   0  0  0  0  0  0  0  0  0  0  0  0
   -3.6720   25.2510  -30.4860 N   0  0  0  0  0  0  0  0  0  0  0  0
   -2.9150   24.2710  -29.7210 C   0  0  0  0  0  0  0  0  0  0  0  0
   -2.3490   24.9260  -28.4990 C   0  0  0  0  0  0  0  0  0  0  0  0
   -2.8240   24.5880  -27.2230 C   0  0  0  0  0  0  0  0  0  0  0  0
   -2.2510   25.1880  -26.0990 C   0  0  0  0  0  0  0  0  0  0  0  0
   -1.2100   26.1050  -26.2560 C   0  0  0  0  0  0  0  0  0  0  0  0
   -0.7530   26.4060  -27.5410 C   0  0  0  0  0  0  0  0  0  0  0  0
   -1.3220   25.8130  -28.6240 N   0  0  0  0  0  0  0  0  0  0  0  0
   -5.8070   23.9800  -30.9410 C   0  0  0  0  0  0  0  0  0  0  0  0
   -5.3470   23.1800  -32.0020 C   0  0  0  0  0  0  0  0  0  0  0  0
   -6.0150   21.9990  -32.3410 C   0  0  0  0  0  0  0  0  0  0  0  0
   -7.1450   21.5930  -31.6210 C   0  0  0  0  0  0  0  0  0  0  0  0
   -7.9910   20.1030  -32.0540 S   0  0  0  0  0  0  0  0  0  0  0  0
   -8.7820   19.6270  -30.8680 O   0  0  0  0  0  0  0  0  0  0  0  0
   -8.9580   20.3960  -33.1680 O   0  0  0  0  0  0  0  0  0  0  0  0
   -6.9080   18.8300  -32.5620 N   0  0  0  0  0  0  0  0  0  0  0  0
   -6.3190   19.1000  -33.8730 C   0  0  0  0  0  0  0  0  0  0  0  0
   -5.9460   17.7480  -34.4600 C   0  0  0  0  0  0  0  0  0  0  0  0
   -6.7850   16.7320  -33.6970 C   0  0  0  0  0  0  0  0  0  0  0  0
   -7.5910   17.5460  -32.6970 C   0  0  0  0  0  0  0  0  0  0  0  0
   -7.6140   22.3920  -30.5690 C   0  0  0  0  0  0  0  0  0  0  0  0
   -6.9500   23.5740  -30.2290 C   0  0  0  0  0  0  0  0  0  0  0  0
   -3.5787   23.4464  -29.4218 H   0  0  0  0  0  0  0  0  0  0  0  0
   -2.0960   23.8744  -30.3390 H   0  0  0  0  0  0  0  0  0  0  0  0
   -3.6391   23.8582  -27.1087 H   0  0  0  0  0  0  0  0  0  0  0  0
   -2.6191   24.9386  -25.0929 H   0  0  0  0  0  0  0  0  0  0  0  0
   -0.7547   26.5852  -25.3773 H   0  0  0  0  0  0  0  0  0  0  0  0
    0.0689   27.1243  -27.6771 H   0  0  0  0  0  0  0  0  0  0  0  0
   -4.4554   23.4853  -32.5694 H   0  0  0  0  0  0  0  0  0  0  0  0
   -5.6505   21.3856  -33.1781 H   0  0  0  0  0  0  0  0  0  0  0  0
   -7.0483   19.6083  -34.5208 H   0  0  0  0  0  0  0  0  0  0  0  0
   -5.4397   19.7556  -33.7889 H   0  0  0  0  0  0  0  0  0  0  0  0
   -6.1839   17.7154  -35.5335 H   0  0  0  0  0  0  0  0  0  0  0  0
   -4.8693   17.5435  -34.3657 H   0  0  0  0  0  0  0  0  0  0  0  0
   -7.4545   16.1924  -34.3830 H   0  0  0  0  0  0  0  0  0  0  0  0
   -6.1603   15.9750  -33.2004 H   0  0  0  0  0  0  0  0  0  0  0  0
   -8.6154   17.6975  -33.0680 H   0  0  0  0  0  0  0  0  0  0  0  0
   -7.6622   17.0293  -31.7285 H   0  0  0  0  0  0  0  0  0  0  0  0
   -8.5096   22.0870  -30.0079 H   0  0  0  0  0  0  0  0  0  0  0  0
   -7.3240   24.1911  -29.3987 H   0  0  0  0  0  0  0  0  0  0  0  0
  1  2  2  0
  2  3  1  0
  3  4  1  0
  4  5  1  0
  5  6  2  0
  6  7  1  0
  7  8  2  0
  8  9  1  0
  9 10  2  0
  2 11  1  0
 11 12  2  0
 12 13  1  0
 13 14  2  0
 14 15  1  0
 15 16  2  0
 15 17  2  0
 15 18  1  0
 18 19  1  0
 19 20  1  0
 20 21  1  0
 21 22  1  0
 14 23  1  0
 23 24  2  0
 10  5  1  0
 24 11  1  0
 22 18  1  0
  4 25  1  0
  4 26  1  0
  6 27  1  0
  7 28  1  0
  8 29  1  0
  9 30  1  0
 12 31  1  0
 13 32  1  0
 19 33  1  0
 19 34  1  0
 20 35  1  0
 20 36  1  0
 21 37  1  0
 21 38  1  0
 22 39  1  0
 22 40  1  0
 23 41  1  0
 24 42  1  0
M  CHG  1   3  -1
M  END
>  <UniqueID>  (38) 
36

>  <SMILES>  (38) 
O=C([N-]Cc1ccccn1)c1ccc(S(=O)(=O)N2CCCC2)cc1

>  <Energy>  (38) 
42.70252623374269

>  <Genealogy>  (38) 
O=C([N-]Cc1ccccn1)c1ccc(S(=O)(=O)N2CCCC2)cc1 (protonated)
O=C([N-]Cc1ccccn1)c1ccc(S(=O)(=O)N2CCCC2)cc1 (3D coordinates assigned)
O=C([N-]Cc1ccccn1)c1ccc(S(=O)(=O)N2CCCC2)cc1 (nonaromatic ring conformer: 42.70252623374269 kcal/mol)

>  <smiles>  (38) 
O=C(NCc1ccccn1)c1ccc(S(=O)(=O)N2CCCC2)cc1

>  <score_type>  (38) 
oracle

>  <origin>  (38) 
adgpu

>  <m_score__min__energy>  (38) 
-11.609999999999999

>  <m_primary>  (38) 
energy

$$$$
38:0
     RDKit          3D

 53 56  0  0  0  0  0  0  0  0999 V2000
    2.0480   12.6000  -37.1840 C   0  0  0  0  0  0  0  0  0  0  0  0
    1.1140   13.7060  -36.7660 C   0  0  0  0  0  0  0  0  0  0  0  0
    1.2750   14.3020  -35.5060 C   0  0  0  0  0  0  0  0  0  0  0  0
    0.4210   15.3250  -35.0900 C   0  0  0  0  0  0  0  0  0  0  0  0
   -0.6030   15.7830  -35.9280 C   0  0  0  0  0  0  0  0  0  0  0  0
   -1.4780   16.8270  -35.4660 N   0  0  0  0  0  0  0  0  0  0  0  0
   -2.8710   16.6300  -35.1750 C   0  0  0  0  0  0  0  0  0  0  0  0
   -3.4740   15.6160  -35.6200 O   0  0  0  0  0  0  0  0  0  0  0  0
   -3.6280   17.6260  -34.3970 C   0  0  0  0  0  0  0  0  0  0  0  0
   -3.1350   18.7910  -33.8480 C   0  0  0  0  0  0  0  0  0  0  0  0
   -4.1400   19.3970  -33.1900 N   0  0  0  0  0  0  0  0  0  0  0  0
   -4.0080   20.5750  -32.3770 C   0  0  0  0  0  0  0  0  0  0  0  0
   -3.2220   20.5450  -31.2140 C   0  0  0  0  0  0  0  0  0  0  0  0
   -3.0950   21.6850  -30.4160 C   0  0  0  0  0  0  0  0  0  0  0  0
   -3.7570   22.8690  -30.7670 C   0  0  0  0  0  0  0  0  0  0  0  0
   -3.6060   24.3010  -29.7540 S   0  0  0  0  0  0  0  0  0  0  0  0
   -4.2490   25.6700  -30.5900 N   0  0  0  0  0  0  0  0  0  0  0  0
   -4.3590   24.0980  -28.4690 O   0  0  0  0  0  0  0  0  0  0  0  0
   -2.1600   24.5470  -29.4320 O   0  0  0  0  0  0  0  0  0  0  0  0
   -4.5630   22.8970  -31.9120 C   0  0  0  0  0  0  0  0  0  0  0  0
   -4.6910   21.7570  -32.7110 C   0  0  0  0  0  0  0  0  0  0  0  0
   -5.2210   18.5940  -33.3620 C   0  0  0  0  0  0  0  0  0  0  0  0
   -6.5890   18.8790  -32.8760 C   0  0  0  0  0  0  0  0  0  0  0  0
   -7.2080   20.0960  -33.2090 C   0  0  0  0  0  0  0  0  0  0  0  0
   -8.4950   20.3830  -32.7440 C   0  0  0  0  0  0  0  0  0  0  0  0
   -9.1680   19.4650  -31.9340 C   0  0  0  0  0  0  0  0  0  0  0  0
   -8.5520   18.2620  -31.5790 C   0  0  0  0  0  0  0  0  0  0  0  0
   -7.2640   17.9720  -32.0410 C   0  0  0  0  0  0  0  0  0  0  0  0
   -4.9350   17.4940  -34.0920 N   0  0  0  0  0  0  0  0  0  0  0  0
   -0.7890   15.1710  -37.1790 C   0  0  0  0  0  0  0  0  0  0  0  0
    0.0610   14.1350  -37.6090 C   0  0  0  0  0  0  0  0  0  0  0  0
   -0.1640   13.5080  -38.9590 C   0  0  0  0  0  0  0  0  0  0  0  0
    2.4609   12.1110  -36.2893 H   0  0  0  0  0  0  0  0  0  0  0  0
    1.4963   11.8613  -37.7839 H   0  0  0  0  0  0  0  0  0  0  0  0
    2.8687   13.0202  -37.7839 H   0  0  0  0  0  0  0  0  0  0  0  0
    2.0811   13.9602  -34.8402 H   0  0  0  0  0  0  0  0  0  0  0  0
    0.5537   15.7752  -34.0952 H   0  0  0  0  0  0  0  0  0  0  0  0
   -1.1000   17.8000  -35.4390 H   0  0  0  0  0  0  0  0  0  0  0  0
   -2.1022   19.1598  -33.9330 H   0  0  0  0  0  0  0  0  0  0  0  0
   -2.7028   19.6180  -30.9292 H   0  0  0  0  0  0  0  0  0  0  0  0
   -2.4732   21.6528  -29.5092 H   0  0  0  0  0  0  0  0  0  0  0  0
   -3.4970   26.0180  -31.2270 H   0  0  0  0  0  0  0  0  0  0  0  0
   -5.0973   23.8194  -32.1836 H   0  0  0  0  0  0  0  0  0  0  0  0
   -5.3298   21.7853  -33.6060 H   0  0  0  0  0  0  0  0  0  0  0  0
   -6.6777   20.8259  -33.8382 H   0  0  0  0  0  0  0  0  0  0  0  0
   -8.9783   21.3329  -33.0163 H   0  0  0  0  0  0  0  0  0  0  0  0
  -10.1834   19.6893  -31.5755 H   0  0  0  0  0  0  0  0  0  0  0  0
   -9.0803   17.5427  -30.9359 H   0  0  0  0  0  0  0  0  0  0  0  0
   -6.7771   17.0297  -31.7495 H   0  0  0  0  0  0  0  0  0  0  0  0
   -1.6095   15.5059  -37.8307 H   0  0  0  0  0  0  0  0  0  0  0  0
   -0.5329   12.4799  -38.8289 H   0  0  0  0  0  0  0  0  0  0  0  0
   -0.9071   14.0963  -39.5173 H   0  0  0  0  0  0  0  0  0  0  0  0
    0.7836   13.4896  -39.5173 H   0  0  0  0  0  0  0  0  0  0  0  0
  1  2  1  0
  2  3  2  0
  3  4  1  0
  4  5  2  0
  5  6  1  0
  6  7  1  0
  7  8  2  0
  7  9  1  0
  9 10  2  0
 10 11  1  0
 11 12  1  0
 12 13  2  0
 13 14  1  0
 14 15  2  0
 15 16  1  0
 16 17  1  0
 16 18  2  0
 16 19  2  0
 15 20  1  0
 20 21  2  0
 11 22  1  0
 22 23  1  0
 23 24  2  0
 24 25  1  0
 25 26  2  0
 26 27  1  0
 27 28  2  0
 22 29  2  0
  5 30  1  0
 30 31  2  0
 31 32  1  0
 31  2  1  0
 29  9  1  0
 21 12  1  0
 28 23  1  0
  1 33  1  0
  1 34  1  0
  1 35  1  0
  3 36  1  0
  4 37  1  0
  6 38  1  0
 10 39  1  0
 13 40  1  0
 14 41  1  0
 17 42  1  0
 20 43  1  0
 21 44  1  0
 24 45  1  0
 25 46  1  0
 26 47  1  0
 27 48  1  0
 28 49  1  0
 30 50  1  0
 32 51  1  0
 32 52  1  0
 32 53  1  0
M  CHG  1  17  -1
M  END
>  <UniqueID>  (39) 
37

>  <SMILES>  (39) 
Cc1ccc(NC(=O)c2cn(-c3ccc(S([NH-])(=O)=O)cc3)c(-c3ccccc3)n2)cc1C

>  <Energy>  (39) 
98.78483314546035

>  <Genealogy>  (39) 
Cc1ccc(NC(=O)c2cn(-c3ccc(S([NH-])(=O)=O)cc3)c(-c3ccccc3)n2)cc1C (protonated)
Cc1ccc(NC(=O)c2cn(-c3ccc(S([NH-])(=O)=O)cc3)c(-c3ccccc3)n2)cc1C (3D coordinates assigned)
Cc1ccc(NC(=O)c2cn(-c3ccc(S([NH-])(=O)=O)cc3)c(-c3ccccc3)n2)cc1C (optimized conformer: 98.78483314546035 kcal/mol)

>  <smiles>  (39) 
Cc1ccc(NC(=O)c2cn(-c3ccc(S(N)(=O)=O)cc3)c(-c3ccccc3)n2)cc1C

>  <score_type>  (39) 
oracle

>  <origin>  (39) 
adgpu

>  <m_score__min__energy>  (39) 
-10.48

>  <m_primary>  (39) 
energy

$$$$
39:0
     RDKit          3D

 28 29  0  0  0  0  0  0  0  0999 V2000
   -1.1630   26.0600  -28.0670 C   0  0  0  0  0  0  0  0  0  0  0  0
   -1.6350   25.3930  -29.2340 O   0  0  0  0  0  0  0  0  0  0  0  0
   -1.7730   24.0000  -29.3670 C   0  0  0  0  0  0  0  0  0  0  0  0
   -0.7910   23.1270  -28.8590 C   0  0  0  0  0  0  0  0  0  0  0  0
   -0.9270   21.7440  -28.9900 C   0  0  0  0  0  0  0  0  0  0  0  0
    0.0470   20.8850  -28.4850 O   0  0  0  0  0  0  0  0  0  0  0  0
   -2.0430   21.2120  -29.6310 C   0  0  0  0  0  0  0  0  0  0  0  0
   -3.0420   22.0520  -30.1520 C   0  0  0  0  0  0  0  0  0  0  0  0
   -4.1680   21.5000  -30.7970 C   0  0  0  0  0  0  0  0  0  0  0  0
   -4.2920   20.1140  -30.9000 O   0  0  0  0  0  0  0  0  0  0  0  0
   -5.1740   22.3370  -31.3250 C   0  0  0  0  0  0  0  0  0  0  0  0
   -6.3640   21.7690  -32.0220 C   0  0  0  0  0  0  0  0  0  0  0  0
   -6.2410   20.6300  -32.9890 C   0  0  0  0  0  0  0  0  0  0  0  0
   -7.5150   22.2210  -31.7790 O   0  0  0  0  0  0  0  0  0  0  0  0
   -5.0360   23.7270  -31.1880 C   0  0  0  0  0  0  0  0  0  0  0  0
   -3.9290   24.2880  -30.5500 C   0  0  0  0  0  0  0  0  0  0  0  0
   -3.8630   25.6750  -30.4580 O   0  0  0  0  0  0  0  0  0  0  0  0
   -2.9120   23.4620  -30.0210 C   0  0  0  0  0  0  0  0  0  0  0  0
   -1.5323   25.5382  -27.1718 H   0  0  0  0  0  0  0  0  0  0  0  0
   -0.0630   26.0596  -28.0641 H   0  0  0  0  0  0  0  0  0  0  0  0
   -1.5293   27.0972  -28.0641 H   0  0  0  0  0  0  0  0  0  0  0  0
    0.0939   23.5403  -28.3529 H   0  0  0  0  0  0  0  0  0  0  0  0
    0.4880   20.1820  -29.0680 H   0  0  0  0  0  0  0  0  0  0  0  0
   -2.1438   20.1212  -29.7307 H   0  0  0  0  0  0  0  0  0  0  0  0
   -6.1391   19.6864  -32.4330 H   0  0  0  0  0  0  0  0  0  0  0  0
   -7.1398   20.5875  -33.6218 H   0  0  0  0  0  0  0  0  0  0  0  0
   -5.3539   20.7804  -33.6218 H   0  0  0  0  0  0  0  0  0  0  0  0
   -5.8169   24.3880  -31.5920 H   0  0  0  0  0  0  0  0  0  0  0  0
  1  2  1  0
  2  3  1  0
  3  4  2  0
  4  5  1  0
  5  6  1  0
  5  7  2  0
  7  8  1  0
  8  9  2  0
  9 10  1  0
  9 11  1  0
 11 12  1  0
 12 13  1  0
 12 14  2  0
 11 15  2  0
 15 16  1  0
 16 17  1  0
 16 18  2  0
 18  3  1  0
 18  8  1  0
  1 19  1  0
  1 20  1  0
  1 21  1  0
  4 22  1  0
  6 23  1  0
  7 24  1  0
 13 25  1  0
 13 26  1  0
 13 27  1  0
 15 28  1  0
M  CHG  2  10  -1  17  -1
M  END
>  <UniqueID>  (40) 
38

>  <SMILES>  (40) 
COc1cc(O)cc2c([O-])c(C(C)=O)cc([O-])c12

>  <Energy>  (40) 
37.59460381693585

>  <Genealogy>  (40) 
COc1cc(O)cc2c([O-])c(C(C)=O)cc([O-])c12 (protonated)
COc1cc(O)cc2c([O-])c(C(C)=O)cc([O-])c12 (3D coordinates assigned)
COc1cc(O)cc2c([O-])c(C(C)=O)cc([O-])c12 (optimized conformer: 37.59460381693585 kcal/mol)

>  <smiles>  (40) 
COc1cc(O)cc2c(O)c(C(C)=O)cc(O)c12

>  <score_type>  (40) 
oracle

>  <origin>  (40) 
adgpu

>  <m_score__min__energy>  (40) 
-8.5800000000000001

>  <m_primary>  (40) 
energy

$$$$
40:0
     RDKit          3D

 52 54  0  0  0  0  0  0  0  0999 V2000
   -1.4180   24.9560  -25.5820 C   0  0  0  0  0  0  0  0  0  0  0  0
   -1.7630   24.5650  -26.9980 C   0  0  0  0  0  0  0  0  0  0  0  0
   -0.7230   24.2310  -27.8830 C   0  0  0  0  0  0  0  0  0  0  0  0
   -1.0000   23.8580  -29.1970 C   0  0  0  0  0  0  0  0  0  0  0  0
   -2.3200   23.8120  -29.6490 C   0  0  0  0  0  0  0  0  0  0  0  0
   -3.3760   24.1430  -28.7880 C   0  0  0  0  0  0  0  0  0  0  0  0
   -4.7220   24.0360  -29.2750 N   0  0  0  0  0  0  0  0  0  0  0  0
   -5.4380   25.2310  -29.7290 C   0  0  0  0  0  0  0  0  0  0  0  0
   -6.1100   24.9230  -31.0680 C   0  0  0  0  0  0  0  0  0  0  0  0
   -7.0870   23.8040  -30.9600 N   0  0  0  0  0  0  0  0  0  0  0  0
   -7.4310   23.2040  -32.2810 C   0  0  0  0  0  0  0  0  0  0  0  0
   -7.3180   21.6780  -32.3460 C   0  0  0  0  0  0  0  0  0  0  0  0
   -6.0830   21.1270  -32.6950 C   0  0  0  0  0  0  0  0  0  0  0  0
   -5.9500   19.7510  -32.8030 C   0  0  0  0  0  0  0  0  0  0  0  0
   -4.8360   19.2750  -33.1560 O   0  0  0  0  0  0  0  0  0  0  0  0
   -7.0080   18.9320  -32.5270 N   0  0  0  0  0  0  0  0  0  0  0  0
   -6.8690   17.4730  -32.6700 C   0  0  0  0  0  0  0  0  0  0  0  0
   -8.2150   19.4720  -32.1560 C   0  0  0  0  0  0  0  0  0  0  0  0
   -9.1900   18.7010  -31.9130 O   0  0  0  0  0  0  0  0  0  0  0  0
   -8.3680   20.8370  -32.0380 N   0  0  0  0  0  0  0  0  0  0  0  0
   -9.6270   21.3790  -31.4800 C   0  0  0  0  0  0  0  0  0  0  0  0
   -6.7560   22.7880  -29.9150 C   0  0  0  0  0  0  0  0  0  0  0  0
   -5.2570   22.7080  -29.5820 C   0  0  0  0  0  0  0  0  0  0  0  0
   -3.1080   24.5560  -27.4610 C   0  0  0  0  0  0  0  0  0  0  0  0
   -4.2460   24.9200  -26.5330 C   0  0  0  0  0  0  0  0  0  0  0  0
   -1.9781   24.3213  -24.8795 H   0  0  0  0  0  0  0  0  0  0  0  0
   -0.3388   24.8216  -25.4171 H   0  0  0  0  0  0  0  0  0  0  0  0
   -1.6857   26.0101  -25.4171 H   0  0  0  0  0  0  0  0  0  0  0  0
    0.3199   24.2644  -27.5349 H   0  0  0  0  0  0  0  0  0  0  0  0
   -0.1769   23.5993  -29.8793 H   0  0  0  0  0  0  0  0  0  0  0  0
   -2.5329   23.5144  -30.6864 H   0  0  0  0  0  0  0  0  0  0  0  0
   -6.2014   25.5089  -28.9873 H   0  0  0  0  0  0  0  0  0  0  0  0
   -4.7330   26.0670  -29.8478 H   0  0  0  0  0  0  0  0  0  0  0  0
   -6.6385   25.8231  -31.4150 H   0  0  0  0  0  0  0  0  0  0  0  0
   -5.3266   24.6214  -31.7788 H   0  0  0  0  0  0  0  0  0  0  0  0
   -7.9820   24.2480  -30.6340 H   0  0  0  0  0  0  0  0  0  0  0  0
   -8.4681   23.4803  -32.5219 H   0  0  0  0  0  0  0  0  0  0  0  0
   -6.6969   23.5983  -32.9991 H   0  0  0  0  0  0  0  0  0  0  0  0
   -5.2195   21.7818  -32.8834 H   0  0  0  0  0  0  0  0  0  0  0  0
   -6.8248   17.0095  -31.6734 H   0  0  0  0  0  0  0  0  0  0  0  0
   -7.7333   17.0747  -33.2217 H   0  0  0  0  0  0  0  0  0  0  0  0
   -5.9451   17.2450  -33.2217 H   0  0  0  0  0  0  0  0  0  0  0  0
   -9.5798   21.3587  -30.3812 H   0  0  0  0  0  0  0  0  0  0  0  0
   -9.7634   22.4155  -31.8220 H   0  0  0  0  0  0  0  0  0  0  0  0
  -10.4737   20.7656  -31.8220 H   0  0  0  0  0  0  0  0  0  0  0  0
   -7.3025   23.0450  -28.9956 H   0  0  0  0  0  0  0  0  0  0  0  0
   -7.0483   21.8068  -30.3173 H   0  0  0  0  0  0  0  0  0  0  0  0
   -5.1155   22.0517  -28.7107 H   0  0  0  0  0  0  0  0  0  0  0  0
   -4.7224   22.3052  -30.4549 H   0  0  0  0  0  0  0  0  0  0  0  0
   -3.9159   24.8144  -25.4890 H   0  0  0  0  0  0  0  0  0  0  0  0
   -4.5512   25.9606  -26.7176 H   0  0  0  0  0  0  0  0  0  0  0  0
   -5.0984   24.2497  -26.7176 H   0  0  0  0  0  0  0  0  0  0  0  0
  1  2  1  0
  2  3  2  0
  3  4  1  0
  4  5  2  0
  5  6  1  0
  6  7  1  0
  7  8  1  0
  8  9  1  0
  9 10  1  0
 10 11  1  0
 11 12  1  0
 12 13  2  0
 13 14  1  0
 14 15  2  0
 14 16  1  0
 16 17  1  0
 16 18  1  0
 18 19  2  0
 18 20  1  0
 20 21  1  0
 10 22  1  0
 22 23  1  0
  6 24  2  0
 24 25  1  0
 24  2  1  0
 23  7  1  0
 20 12  1  0
  1 26  1  0
  1 27  1  0
  1 28  1  0
  3 29  1  0
  4 30  1  0
  5 31  1  0
  8 32  1  0
  8 33  1  0
  9 34  1  0
  9 35  1  0
 10 36  1  0
 11 37  1  0
 11 38  1  0
 13 39  1  0
 17 40  1  0
 17 41  1  0
 17 42  1  0
 21 43  1  0
 21 44  1  0
 21 45  1  0
 22 46  1  0
 22 47  1  0
 23 48  1  0
 23 49  1  0
 25 50  1  0
 25 51  1  0
 25 52  1  0
M  CHG  1  10   1
M  END
>  <UniqueID>  (41) 
39

>  <SMILES>  (41) 
Cc1cccc(N2CC[NH+](Cc3cc(=O)n(C)c(=O)n3C)CC2)c1C

>  <Energy>  (41) 
82.28332386390711

>  <Genealogy>  (41) 
Cc1cccc(N2CC[NH+](Cc3cc(=O)n(C)c(=O)n3C)CC2)c1C (protonated)
Cc1cccc(N2CC[NH+](Cc3cc(=O)n(C)c(=O)n3C)CC2)c1C (3D coordinates assigned)
Cc1cccc(N2CC[NH+](Cc3cc(=O)n(C)c(=O)n3C)CC2)c1C (nonaromatic ring conformer: 82.28332386390711 kcal/mol)

>  <smiles>  (41) 
Cc1cccc(N2CCN(Cc3cc(=O)n(C)c(=O)n3C)CC2)c1C

>  <score_type>  (41) 
oracle

>  <origin>  (41) 
adgpu

>  <m_score__min__energy>  (41) 
-7.21

>  <m_primary>  (41) 
energy

$$$$
41:0
     RDKit          3D

 44 47  0  0  0  0  0  0  0  0999 V2000
   -9.8610   20.9010  -32.6860 O   0  0  0  0  0  0  0  0  0  0  0  0
   -9.0770   20.5020  -31.7840 C   0  0  0  0  0  0  0  0  0  0  0  0
   -8.8560   21.3450  -30.5690 C   0  0  0  0  0  0  0  0  0  0  0  0
   -7.7520   22.3330  -30.8270 C   0  0  0  0  0  0  0  0  0  0  0  0
   -6.9220   22.7610  -29.7770 C   0  0  0  0  0  0  0  0  0  0  0  0
   -5.9190   23.7070  -30.0140 C   0  0  0  0  0  0  0  0  0  0  0  0
   -5.7450   24.2390  -31.2930 C   0  0  0  0  0  0  0  0  0  0  0  0
   -6.5750   23.8290  -32.3400 C   0  0  0  0  0  0  0  0  0  0  0  0
   -7.5790   22.8830  -32.1090 C   0  0  0  0  0  0  0  0  0  0  0  0
   -8.3860   19.2520  -31.9100 N   0  0  0  0  0  0  0  0  0  0  0  0
   -7.0410   19.0640  -32.3730 C   0  0  0  0  0  0  0  0  0  0  0  0
   -6.3360   17.8690  -32.1520 C   0  0  0  0  0  0  0  0  0  0  0  0
   -5.0170   17.7360  -32.5960 C   0  0  0  0  0  0  0  0  0  0  0  0
   -4.3790   18.7980  -33.2550 C   0  0  0  0  0  0  0  0  0  0  0  0
   -2.9850   18.6510  -33.7220 C   0  0  0  0  0  0  0  0  0  0  0  0
   -2.2540   17.5250  -33.6020 N   0  0  0  0  0  0  0  0  0  0  0  0
   -1.0720   17.7910  -34.1350 N   0  0  0  0  0  0  0  0  0  0  0  0
   -1.1230   19.0690  -34.5620 C   0  0  0  0  0  0  0  0  0  0  0  0
   -0.0110   19.7880  -35.2240 C   0  0  0  0  0  0  0  0  0  0  0  0
    0.9360   19.0520  -35.9590 C   0  0  0  0  0  0  0  0  0  0  0  0
    1.9980   19.6980  -36.6000 C   0  0  0  0  0  0  0  0  0  0  0  0
    2.1280   21.0840  -36.5160 C   0  0  0  0  0  0  0  0  0  0  0  0
    3.1840   21.7220  -37.1560 O   0  0  0  0  0  0  0  0  0  0  0  0
    1.1970   21.8300  -35.7900 C   0  0  0  0  0  0  0  0  0  0  0  0
    0.1270   21.1930  -35.1420 C   0  0  0  0  0  0  0  0  0  0  0  0
   -0.7910   21.9570  -34.4200 O   0  0  0  0  0  0  0  0  0  0  0  0
   -2.2960   19.6000  -34.3100 O   0  0  0  0  0  0  0  0  0  0  0  0
   -5.0770   19.9990  -33.4550 C   0  0  0  0  0  0  0  0  0  0  0  0
   -6.3960   20.1310  -33.0090 C   0  0  0  0  0  0  0  0  0  0  0  0
   -9.7821   21.8873  -30.3277 H   0  0  0  0  0  0  0  0  0  0  0  0
   -8.5740   20.6982  -29.7252 H   0  0  0  0  0  0  0  0  0  0  0  0
   -7.0613   22.3510  -28.7658 H   0  0  0  0  0  0  0  0  0  0  0  0
   -5.2660   24.0324  -29.1908 H   0  0  0  0  0  0  0  0  0  0  0  0
   -4.9542   24.9812  -31.4767 H   0  0  0  0  0  0  0  0  0  0  0  0
   -6.4385   24.2507  -33.3467 H   0  0  0  0  0  0  0  0  0  0  0  0
   -8.2356   22.5683  -32.9335 H   0  0  0  0  0  0  0  0  0  0  0  0
   -6.8240   17.0344  -31.6273 H   0  0  0  0  0  0  0  0  0  0  0  0
   -4.4760   16.7931  -32.4277 H   0  0  0  0  0  0  0  0  0  0  0  0
    0.8404   17.9585  -36.0303 H   0  0  0  0  0  0  0  0  0  0  0  0
    2.7324   19.1116  -37.1717 H   0  0  0  0  0  0  0  0  0  0  0  0
    1.3028   22.9230  -35.7256 H   0  0  0  0  0  0  0  0  0  0  0  0
   -1.7780   21.7320  -34.4070 H   0  0  0  0  0  0  0  0  0  0  0  0
   -4.5845   20.8402  -33.9648 H   0  0  0  0  0  0  0  0  0  0  0  0
   -6.9305   21.0806  -33.1592 H   0  0  0  0  0  0  0  0  0  0  0  0
  1  2  2  0
  2  3  1  0
  3  4  1  0
  4  5  2  0
  5  6  1  0
  6  7  2  0
  7  8  1  0
  8  9  2  0
  2 10  1  0
 10 11  1  0
 11 12  2  0
 12 13  1  0
 13 14  2  0
 14 15  1  0
 15 16  2  0
 16 17  1  0
 17 18  2  0
 18 19  1  0
 19 20  2  0
 20 21  1  0
 21 22  2  0
 22 23  1  0
 22 24  1  0
 24 25  2  0
 25 26  1  0
 18 27  1  0
 14 28  1  0
 28 29  2  0
  9  4  1  0
 29 11  1  0
 27 15  1  0
 25 19  1  0
  3 30  1  0
  3 31  1  0
  5 32  1  0
  6 33  1  0
  7 34  1  0
  8 35  1  0
  9 36  1  0
 12 37  1  0
 13 38  1  0
 20 39  1  0
 21 40  1  0
 24 41  1  0
 26 42  1  0
 28 43  1  0
 29 44  1  0
M  CHG  2  10  -1  23  -1
M  END
>  <UniqueID>  (42) 
40

>  <SMILES>  (42) 
O=C(Cc1ccccc1)[N-]c1ccc(-c2nnc(-c3ccc([O-])cc3O)o2)cc1

>  <Energy>  (42) 
86.34997305003961

>  <Genealogy>  (42) 
O=C(Cc1ccccc1)[N-]c1ccc(-c2nnc(-c3ccc([O-])cc3O)o2)cc1 (protonated)
O=C(Cc1ccccc1)[N-]c1ccc(-c2nnc(-c3ccc([O-])cc3O)o2)cc1 (3D coordinates assigned)
O=C(Cc1ccccc1)[N-]c1ccc(-c2nnc(-c3ccc([O-])cc3O)o2)cc1 (optimized conformer: 86.34997305003961 kcal/mol)

>  <smiles>  (42) 
O=C(Cc1ccccc1)Nc1ccc(-c2nnc(-c3ccc(O)cc3O)o2)cc1

>  <score_type>  (42) 
oracle

>  <origin>  (42) 
adgpu

>  <m_score__min__energy>  (42) 
-9.3200000000000003

>  <m_primary>  (42) 
energy

$$$$
42:0
     RDKit          3D

 38 39  0  0  0  0  0  0  0  0999 V2000
   -0.9600   26.7960  -24.1390 C   0  0  0  0  0  0  0  0  0  0  0  0
   -1.3000   26.3270  -25.3420 C   0  0  0  0  0  0  0  0  0  0  0  0
   -0.2700   25.8570  -26.3320 C   0  0  0  0  0  0  0  0  0  0  0  0
   -0.8370   24.7880  -27.2460 C   0  0  0  0  0  0  0  0  0  0  0  0
   -0.9420   23.4370  -26.8370 C   0  0  0  0  0  0  0  0  0  0  0  0
   -0.4640   22.9680  -25.4940 C   0  0  0  0  0  0  0  0  0  0  0  0
   -1.4800   22.5200  -27.6860 N   0  0  0  0  0  0  0  0  0  0  0  0
   -1.9310   22.8700  -28.9150 C   0  0  0  0  0  0  0  0  0  0  0  0
   -2.6380   21.6310  -29.9930 S   0  0  0  0  0  0  0  0  0  0  0  0
   -3.1340   22.8500  -31.2560 C   0  0  0  0  0  0  0  0  0  0  0  0
   -4.5370   23.3250  -30.9790 C   0  0  0  0  0  0  0  0  0  0  0  0
   -5.5720   22.3770  -30.8840 C   0  0  0  0  0  0  0  0  0  0  0  0
   -6.8890   22.7770  -30.6110 C   0  0  0  0  0  0  0  0  0  0  0  0
   -7.9900   21.7610  -30.5570 C   0  0  0  0  0  0  0  0  0  0  0  0
   -7.1770   24.1390  -30.4570 C   0  0  0  0  0  0  0  0  0  0  0  0
   -6.1560   25.0870  -30.5350 C   0  0  0  0  0  0  0  0  0  0  0  0
   -4.8360   24.6950  -30.7840 C   0  0  0  0  0  0  0  0  0  0  0  0
   -3.8540   25.6870  -30.8260 O   0  0  0  0  0  0  0  0  0  0  0  0
   -1.8470   24.1590  -29.3280 N   0  0  0  0  0  0  0  0  0  0  0  0
   -1.3180   25.1190  -28.5290 C   0  0  0  0  0  0  0  0  0  0  0  0
   -1.2620   26.3050  -28.9530 O   0  0  0  0  0  0  0  0  0  0  0  0
   -1.7394   27.1316  -23.4391 H   0  0  0  0  0  0  0  0  0  0  0  0
    0.0995   26.8468  -23.8478 H   0  0  0  0  0  0  0  0  0  0  0  0
   -2.3642   26.2831  -25.6169 H   0  0  0  0  0  0  0  0  0  0  0  0
    0.0593   26.7120  -26.9407 H   0  0  0  0  0  0  0  0  0  0  0  0
    0.5770   25.4277  -25.7768 H   0  0  0  0  0  0  0  0  0  0  0  0
   -1.0097   23.5034  -24.7031 H   0  0  0  0  0  0  0  0  0  0  0  0
   -0.6450   21.8873  -25.3973 H   0  0  0  0  0  0  0  0  0  0  0  0
    0.6131   23.1695  -25.3973 H   0  0  0  0  0  0  0  0  0  0  0  0
   -2.4453   23.7072  -31.2274 H   0  0  0  0  0  0  0  0  0  0  0  0
   -3.0976   22.3804  -32.2501 H   0  0  0  0  0  0  0  0  0  0  0  0
   -5.3463   21.3097  -31.0254 H   0  0  0  0  0  0  0  0  0  0  0  0
   -8.2318   21.5378  -29.5074 H   0  0  0  0  0  0  0  0  0  0  0  0
   -8.8821   22.1599  -31.0620 H   0  0  0  0  0  0  0  0  0  0  0  0
   -7.6639   20.8398  -31.0620 H   0  0  0  0  0  0  0  0  0  0  0  0
   -8.2122   24.4627  -30.2738 H   0  0  0  0  0  0  0  0  0  0  0  0
   -6.3911   26.1530  -30.3994 H   0  0  0  0  0  0  0  0  0  0  0  0
   -3.0190   25.6700  -30.2550 H   0  0  0  0  0  0  0  0  0  0  0  0
  1  2  2  0
  2  3  1  0
  3  4  1  0
  4  5  2  0
  5  6  1  0
  5  7  1  0
  7  8  1  0
  8  9  1  0
  9 10  1  0
 10 11  1  0
 11 12  2  0
 12 13  1  0
 13 14  1  0
 13 15  2  0
 15 16  1  0
 16 17  2  0
 17 18  1  0
  8 19  2  0
 19 20  1  0
 20 21  2  0
 20  4  1  0
 17 11  1  0
  1 22  1  0
  1 23  1  0
  2 24  1  0
  3 25  1  0
  3 26  1  0
  6 27  1  0
  6 28  1  0
  6 29  1  0
 10 30  1  0
 10 31  1  0
 12 32  1  0
 14 33  1  0
 14 34  1  0
 14 35  1  0
 15 36  1  0
 16 37  1  0
 18 38  1  0
M  CHG  1   7  -1
M  END
>  <UniqueID>  (43) 
41

>  <SMILES>  (43) 
C=CCc1c(C)[n-]c(SCc2cc(C)ccc2O)nc1=O

>  <Energy>  (43) 
33.37698696435829

>  <Genealogy>  (43) 
C=CCc1c(C)[n-]c(SCc2cc(C)ccc2O)nc1=O (protonated)
C=CCc1c(C)[n-]c(SCc2cc(C)ccc2O)nc1=O (3D coordinates assigned)
C=CCc1c(C)[n-]c(SCc2cc(C)ccc2O)nc1=O (optimized conformer: 33.37698696435829 kcal/mol)

>  <smiles>  (43) 
C=CCc1c(C)[nH]c(SCc2cc(C)ccc2O)nc1=O

>  <score_type>  (43) 
oracle

>  <origin>  (43) 
adgpu

>  <m_score__min__energy>  (43) 
-8.9299999999999997

>  <m_primary>  (43) 
energy

$$$$
43:0
     RDKit          3D

 47 50  0  0  0  0  0  0  0  0999 V2000
   -9.1140   19.6570  -31.6250 C   0  0  0  0  0  0  0  0  0  0  0  0
   -8.4160   18.4910  -31.3010 C   0  0  0  0  0  0  0  0  0  0  0  0
   -7.3160   18.1040  -32.0690 C   0  0  0  0  0  0  0  0  0  0  0  0
   -6.9300   18.8950  -33.1570 C   0  0  0  0  0  0  0  0  0  0  0  0
   -5.5330   18.4170  -34.1680 S   0  0  0  0  0  0  0  0  0  0  0  0
   -4.5500   19.7940  -33.5950 C   0  0  0  0  0  0  0  0  0  0  0  0
   -5.1460   20.8320  -32.9580 N   0  0  0  0  0  0  0  0  0  0  0  0
   -4.4040   21.8750  -32.5030 C   0  0  0  0  0  0  0  0  0  0  0  0
   -5.0330   22.9800  -31.8200 N   0  0  0  0  0  0  0  0  0  0  0  0
   -4.2900   23.6930  -30.7690 C   0  0  0  0  0  0  0  0  0  0  0  0
   -4.9800   25.0050  -30.3810 C   0  0  0  0  0  0  0  0  0  0  0  0
   -6.4560   24.7820  -30.0180 C   0  0  0  0  0  0  0  0  0  0  0  0
   -7.1870   23.8010  -30.9590 C   0  0  0  0  0  0  0  0  0  0  0  0
   -6.3740   23.4410  -32.2080 C   0  0  0  0  0  0  0  0  0  0  0  0
   -3.0580   21.8680  -32.6970 N   0  0  0  0  0  0  0  0  0  0  0  0
   -2.4520   20.8330  -33.3350 C   0  0  0  0  0  0  0  0  0  0  0  0
   -1.0220   20.8330  -33.5330 N   0  0  0  0  0  0  0  0  0  0  0  0
   -0.1320   20.4680  -32.4210 C   0  0  0  0  0  0  0  0  0  0  0  0
    1.2240   19.9940  -32.9520 C   0  0  0  0  0  0  0  0  0  0  0  0
    1.7580   20.9270  -33.8700 O   0  0  0  0  0  0  0  0  0  0  0  0
    0.9400   20.9760  -35.0210 C   0  0  0  0  0  0  0  0  0  0  0  0
   -0.4430   21.5420  -34.6830 C   0  0  0  0  0  0  0  0  0  0  0  0
   -3.2080   19.7950  -33.7830 N   0  0  0  0  0  0  0  0  0  0  0  0
   -7.6220   20.0270  -33.4540 N   0  0  0  0  0  0  0  0  0  0  0  0
   -8.6970   20.4210  -32.7180 C   0  0  0  0  0  0  0  0  0  0  0  0
   -9.9821   19.9701  -31.0264 H   0  0  0  0  0  0  0  0  0  0  0  0
   -8.7322   17.8794  -30.4431 H   0  0  0  0  0  0  0  0  0  0  0  0
   -6.7593   17.1881  -31.8217 H   0  0  0  0  0  0  0  0  0  0  0  0
   -4.2225   23.0487  -29.8800 H   0  0  0  0  0  0  0  0  0  0  0  0
   -3.2892   23.9326  -31.1576 H   0  0  0  0  0  0  0  0  0  0  0  0
   -4.4607   25.4385  -29.5136 H   0  0  0  0  0  0  0  0  0  0  0  0
   -4.9371   25.6848  -31.2447 H   0  0  0  0  0  0  0  0  0  0  0  0
   -6.5049   24.3823  -28.9943 H   0  0  0  0  0  0  0  0  0  0  0  0
   -6.9604   25.7548  -30.1144 H   0  0  0  0  0  0  0  0  0  0  0  0
   -7.4003   22.8764  -30.4025 H   0  0  0  0  0  0  0  0  0  0  0  0
   -8.1060   24.2999  -31.3004 H   0  0  0  0  0  0  0  0  0  0  0  0
   -6.8889   22.6405  -32.7595 H   0  0  0  0  0  0  0  0  0  0  0  0
   -6.2787   24.3321  -32.8458 H   0  0  0  0  0  0  0  0  0  0  0  0
    0.0189   21.3456  -31.7752 H   0  0  0  0  0  0  0  0  0  0  0  0
   -0.5950   19.6508  -31.8485 H   0  0  0  0  0  0  0  0  0  0  0  0
    1.9210   19.8784  -32.1089 H   0  0  0  0  0  0  0  0  0  0  0  0
    1.0839   19.0326  -33.4679 H   0  0  0  0  0  0  0  0  0  0  0  0
    1.4177   21.6181  -35.7756 H   0  0  0  0  0  0  0  0  0  0  0  0
    0.8171   19.9542  -35.4095 H   0  0  0  0  0  0  0  0  0  0  0  0
   -0.3472   22.6103  -34.4389 H   0  0  0  0  0  0  0  0  0  0  0  0
   -1.1039   21.4096  -35.5523 H   0  0  0  0  0  0  0  0  0  0  0  0
   -9.2377   21.3413  -32.9838 H   0  0  0  0  0  0  0  0  0  0  0  0
  1  2  2  0
  2  3  1  0
  3  4  2  0
  4  5  1  0
  5  6  1  0
  6  7  2  0
  7  8  1  0
  8  9  1  0
  9 10  1  0
 10 11  1  0
 11 12  1  0
 12 13  1  0
 13 14  1  0
  8 15  2  0
 15 16  1  0
 16 17  1  0
 17 18  1  0
 18 19  1  0
 19 20  1  0
 20 21  1  0
 21 22  1  0
 16 23  2  0
  4 24  1  0
 24 25  2  0
 25  1  1  0
 23  6  1  0
 14  9  1  0
 22 17  1  0
  1 26  1  0
  2 27  1  0
  3 28  1  0
 10 29  1  0
 10 30  1  0
 11 31  1  0
 11 32  1  0
 12 33  1  0
 12 34  1  0
 13 35  1  0
 13 36  1  0
 14 37  1  0
 14 38  1  0
 18 39  1  0
 18 40  1  0
 19 41  1  0
 19 42  1  0
 21 43  1  0
 21 44  1  0
 22 45  1  0
 22 46  1  0
 25 47  1  0
M  END
>  <UniqueID>  (44) 
42

>  <SMILES>  (44) 
c1ccc(Sc2nc(N3CCCCC3)nc(N3CCOCC3)n2)nc1

>  <Energy>  (44) 
48.42649518966572

>  <Genealogy>  (44) 
c1ccc(Sc2nc(N3CCCCC3)nc(N3CCOCC3)n2)nc1 (3D coordinates assigned)
c1ccc(Sc2nc(N3CCCCC3)nc(N3CCOCC3)n2)nc1 (nonaromatic ring conformer: 48.42649518966572 kcal/mol)

>  <smiles>  (44) 
c1ccc(Sc2nc(N3CCCCC3)nc(N3CCOCC3)n2)nc1

>  <score_type>  (44) 
oracle

>  <origin>  (44) 
adgpu

>  <m_score__min__energy>  (44) 
-8.1999999999999993

>  <m_primary>  (44) 
energy

$$$$
44:0
     RDKit          3D

 37 39  0  0  0  0  0  0  0  0999 V2000
    0.0885   26.0850  -27.7812 H   0  0  0  0  0  0  0  0  0  0  0  0
   -0.6850   25.3350  -28.0030 C   0  0  0  0  0  0  0  0  0  0  0  0
   -1.6270   25.5900  -28.9470 N   0  0  0  0  0  0  0  0  0  0  0  0
   -2.5890   24.6780  -29.2440 C   0  0  0  0  0  0  0  0  0  0  0  0
   -3.4890   24.9740  -30.1350 N   0  0  0  0  0  0  0  0  0  0  0  0
   -4.5470   24.1240  -30.6110 C   0  0  0  0  0  0  0  0  0  0  0  0
   -5.9040   24.4440  -30.4200 C   0  0  0  0  0  0  0  0  0  0  0  0
   -6.1796   25.3826  -29.9169 H   0  0  0  0  0  0  0  0  0  0  0  0
   -6.9040   23.5740  -30.8670 C   0  0  0  0  0  0  0  0  0  0  0  0
   -7.9631   23.8375  -30.7293 H   0  0  0  0  0  0  0  0  0  0  0  0
   -6.5590   22.3690  -31.4890 C   0  0  0  0  0  0  0  0  0  0  0  0
   -7.5880   21.4720  -31.9480 C   0  0  0  0  0  0  0  0  0  0  0  0
   -8.4160   20.7520  -32.3160 N   0  0  0  0  0  0  0  0  0  0  0  0
   -5.2100   22.0320  -31.6540 C   0  0  0  0  0  0  0  0  0  0  0  0
   -4.9361   21.0823  -32.1367 H   0  0  0  0  0  0  0  0  0  0  0  0
   -4.2110   22.9010  -31.2060 C   0  0  0  0  0  0  0  0  0  0  0  0
   -3.1531   22.6225  -31.3215 H   0  0  0  0  0  0  0  0  0  0  0  0
   -2.6210   23.4930  -28.5720 N   0  0  0  0  0  0  0  0  0  0  0  0
   -1.6920   23.1850  -27.6290 C   0  0  0  0  0  0  0  0  0  0  0  0
   -1.7870   21.9550  -26.9650 O   0  0  0  0  0  0  0  0  0  0  0  0
   -1.1110   20.7790  -27.3260 C   0  0  0  0  0  0  0  0  0  0  0  0
    0.0250   20.8090  -28.1560 C   0  0  0  0  0  0  0  0  0  0  0  0
    0.4081   21.7718  -28.5252 H   0  0  0  0  0  0  0  0  0  0  0  0
    0.6680   19.6220  -28.5130 C   0  0  0  0  0  0  0  0  0  0  0  0
    1.5611   19.6528  -29.1544 H   0  0  0  0  0  0  0  0  0  0  0  0
    0.1800   18.3980  -28.0580 C   0  0  0  0  0  0  0  0  0  0  0  0
    0.6926   17.4652  -28.3356 H   0  0  0  0  0  0  0  0  0  0  0  0
   -0.9590   18.3540  -27.2500 C   0  0  0  0  0  0  0  0  0  0  0  0
   -1.3446   17.3855  -26.8989 H   0  0  0  0  0  0  0  0  0  0  0  0
   -1.6160   19.5460  -26.8830 C   0  0  0  0  0  0  0  0  0  0  0  0
   -2.7660   19.5450  -26.0780 O   0  0  0  0  0  0  0  0  0  0  0  0
   -3.8510   18.6330  -26.2220 C   0  0  0  0  0  0  0  0  0  0  0  0
   -4.2105   18.3308  -25.2273 H   0  0  0  0  0  0  0  0  0  0  0  0
   -4.6680   19.1195  -26.7750 H   0  0  0  0  0  0  0  0  0  0  0  0
   -3.5122   17.7445  -26.7750 H   0  0  0  0  0  0  0  0  0  0  0  0
   -0.6980   24.1230  -27.3150 C   0  0  0  0  0  0  0  0  0  0  0  0
    0.0549   23.9070  -26.5427 H   0  0  0  0  0  0  0  0  0  0  0  0
  1  2  1  0
  2  3  1  0
  3  4  1  0
  4  5  2  0
  5  6  1  0
  6  7  2  0
  7  8  1  0
  7  9  1  0
  9 10  1  0
  9 11  2  0
 11 12  1  0
 12 13  3  0
 11 14  1  0
 14 15  1  0
 14 16  2  0
 16 17  1  0
  4 18  1  0
 18 19  2  0
 19 20  1  0
 20 21  1  0
 21 22  2  0
 22 23  1  0
 22 24  1  0
 24 25  1  0
 24 26  2  0
 26 27  1  0
 26 28  1  0
 28 29  1  0
 28 30  2  0
 30 31  1  0
 31 32  1  0
 32 33  1  0
 32 34  1  0
 32 35  1  0
 19 36  1  0
 36 37  1  0
 36  2  2  0
 16  6  1  0
 30 21  1  0
M  CHG  1   3  -1
M  END
>  <UniqueID>  (45) 
43

>  <SMILES>  (45) 
COc1ccccc1Oc1cc[n-]/c(=N/c2ccc(C#N)cc2)n1

>  <Energy>  (45) 
52.47574374355034

>  <Genealogy>  (45) 
COc1ccccc1Oc1cc[n-]c(=Nc2ccc(C#N)cc2)n1 (protonated)
COc1ccccc1Oc1cc[n-]/c(=N/c2ccc(C#N)cc2)n1 (cis-trans isomerization)
COc1ccccc1Oc1cc[n-]/c(=N/c2ccc(C#N)cc2)n1 (3D coordinates assigned)
COc1ccccc1Oc1cc[n-]/c(=N/c2ccc(C#N)cc2)n1 (optimized conformer: 52.47574374355034 kcal/mol)

>  <smiles>  (45) 
COc1ccccc1Oc1cc[nH]c(=Nc2ccc(C#N)cc2)n1

>  <score_type>  (45) 
oracle

>  <origin>  (45) 
adgpu

>  <m_score__min__energy>  (45) 
-9.1699999999999999

>  <m_primary>  (45) 
energy

$$$$
45:0
     RDKit          3D

 38 40  0  0  0  0  0  0  0  0999 V2000
   -8.6690   20.0260  -33.0050 N   0  0  0  0  0  0  0  0  0  0  0  0
   -7.2410   20.1060  -33.0140 C   0  0  0  0  0  0  0  0  0  0  0  0
   -6.5960   21.2580  -32.5390 C   0  0  0  0  0  0  0  0  0  0  0  0
   -5.2000   21.3350  -32.5460 C   0  0  0  0  0  0  0  0  0  0  0  0
   -4.4360   20.2620  -33.0250 C   0  0  0  0  0  0  0  0  0  0  0  0
   -2.6790   20.3500  -33.0250 S   0  0  0  0  0  0  0  0  0  0  0  0
   -2.2140   21.6790  -33.5560 O   0  0  0  0  0  0  0  0  0  0  0  0
   -2.1370   19.2560  -33.9000 O   0  0  0  0  0  0  0  0  0  0  0  0
   -2.0710   20.1420  -31.4140 N   0  0  0  0  0  0  0  0  0  0  0  0
   -2.4210   20.9570  -30.2870 C   0  0  0  0  0  0  0  0  0  0  0  0
   -2.6940   20.4070  -29.0230 C   0  0  0  0  0  0  0  0  0  0  0  0
   -3.0290   21.2390  -27.9520 C   0  0  0  0  0  0  0  0  0  0  0  0
   -3.0880   22.6230  -28.1300 C   0  0  0  0  0  0  0  0  0  0  0  0
   -2.8000   23.1900  -29.3810 C   0  0  0  0  0  0  0  0  0  0  0  0
   -2.8720   24.6530  -29.5890 C   0  0  0  0  0  0  0  0  0  0  0  0
   -2.0950   25.4020  -28.9400 O   0  0  0  0  0  0  0  0  0  0  0  0
   -3.8190   25.2550  -30.4800 N   0  0  0  0  0  0  0  0  0  0  0  0
   -5.0990   24.6600  -30.8440 C   0  0  0  0  0  0  0  0  0  0  0  0
   -5.7690   23.9750  -29.6670 C   0  0  0  0  0  0  0  0  0  0  0  0
   -6.2940   25.3090  -30.1720 C   0  0  0  0  0  0  0  0  0  0  0  0
   -2.4850   22.3460  -30.4580 C   0  0  0  0  0  0  0  0  0  0  0  0
   -5.0810   19.1140  -33.5050 C   0  0  0  0  0  0  0  0  0  0  0  0
   -6.4760   19.0350  -33.4970 C   0  0  0  0  0  0  0  0  0  0  0  0
   -9.2120   20.2480  -32.1410 H   0  0  0  0  0  0  0  0  0  0  0  0
   -9.1930   19.7430  -33.8630 H   0  0  0  0  0  0  0  0  0  0  0  0
   -7.1902   22.1027  -32.1602 H   0  0  0  0  0  0  0  0  0  0  0  0
   -4.6994   22.2412  -32.1742 H   0  0  0  0  0  0  0  0  0  0  0  0
   -2.6438   19.3180  -28.8764 H   0  0  0  0  0  0  0  0  0  0  0  0
   -3.2469   20.8030  -26.9659 H   0  0  0  0  0  0  0  0  0  0  0  0
   -3.3617   23.2721  -27.2851 H   0  0  0  0  0  0  0  0  0  0  0  0
   -4.8510   24.3884  -31.8807 H   0  0  0  0  0  0  0  0  0  0  0  0
   -6.3550   23.0576  -29.8250 H   0  0  0  0  0  0  0  0  0  0  0  0
   -5.4295   23.5901  -28.6941 H   0  0  0  0  0  0  0  0  0  0  0  0
   -7.2603   25.3573  -30.6954 H   0  0  0  0  0  0  0  0  0  0  0  0
   -6.4921   26.2901  -29.7158 H   0  0  0  0  0  0  0  0  0  0  0  0
   -2.2860   22.7809  -31.4486 H   0  0  0  0  0  0  0  0  0  0  0  0
   -4.4867   18.2720  -33.8895 H   0  0  0  0  0  0  0  0  0  0  0  0
   -6.9758   18.1293  -33.8710 H   0  0  0  0  0  0  0  0  0  0  0  0
  1  2  1  0
  2  3  2  0
  3  4  1  0
  4  5  2  0
  5  6  1  0
  6  7  2  0
  6  8  2  0
  6  9  1  0
  9 10  1  0
 10 11  2  0
 11 12  1  0
 12 13  2  0
 13 14  1  0
 14 15  1  0
 15 16  2  0
 15 17  1  0
 17 18  1  0
 18 19  1  0
 19 20  1  0
 14 21  2  0
  5 22  1  0
 22 23  2  0
 23  2  1  0
 21 10  1  0
 20 18  1  0
  1 24  1  0
  1 25  1  0
  3 26  1  0
  4 27  1  0
 11 28  1  0
 12 29  1  0
 13 30  1  0
 18 31  1  0
 19 32  1  0
 19 33  1  0
 20 34  1  0
 20 35  1  0
 21 36  1  0
 22 37  1  0
 23 38  1  0
M  CHG  2   9  -1  17  -1
M  END
>  <UniqueID>  (46) 
44

>  <SMILES>  (46) 
Nc1ccc(S(=O)(=O)[N-]c2cccc(C(=O)[N-]C3CC3)c2)cc1

>  <Energy>  (46) 
309.42312291605845

>  <Genealogy>  (46) 
Nc1ccc(S(=O)(=O)[N-]c2cccc(C(=O)[N-]C3CC3)c2)cc1 (protonated)
Nc1ccc(S(=O)(=O)[N-]c2cccc(C(=O)[N-]C3CC3)c2)cc1 (3D coordinates assigned)
Nc1ccc(S(=O)(=O)[N-]c2cccc(C(=O)[N-]C3CC3)c2)cc1 (nonaromatic ring conformer: 309.42312291605845 kcal/mol)

>  <smiles>  (46) 
Nc1ccc(S(=O)(=O)Nc2cccc(C(=O)NC3CC3)c2)cc1

>  <score_type>  (46) 
oracle

>  <origin>  (46) 
adgpu

>  <m_score__min__energy>  (46) 
-9.6899999999999995

>  <m_primary>  (46) 
energy

$$$$
46:0
     RDKit          3D

 56 58  0  0  0  0  0  0  0  0999 V2000
   -1.6920   25.5210  -28.0770 C   0  0  0  0  0  0  0  0  0  0  0  0
   -2.0960   24.0730  -27.9060 C   0  0  0  0  0  0  0  0  0  0  0  0
   -1.1280   23.0710  -27.6230 C   0  0  0  0  0  0  0  0  0  0  0  0
    0.3460   23.3840  -27.4970 C   0  0  0  0  0  0  0  0  0  0  0  0
    0.7610   24.1980  -28.5580 O   0  0  0  0  0  0  0  0  0  0  0  0
   -1.5450   21.7480  -27.4050 C   0  0  0  0  0  0  0  0  0  0  0  0
   -2.8890   21.4000  -27.5110 C   0  0  0  0  0  0  0  0  0  0  0  0
   -3.8360   22.3640  -27.8430 C   0  0  0  0  0  0  0  0  0  0  0  0
   -3.4570   23.6990  -28.0520 C   0  0  0  0  0  0  0  0  0  0  0  0
   -4.4530   24.6660  -28.4230 N   0  0  0  0  0  0  0  0  0  0  0  0
   -5.0990   24.7440  -30.0310 S   0  0  0  0  0  0  0  0  0  0  0  0
   -4.2520   25.6660  -30.8620 O   0  0  0  0  0  0  0  0  0  0  0  0
   -6.5030   25.2770  -29.9820 O   0  0  0  0  0  0  0  0  0  0  0  0
   -5.1310   23.1250  -30.7250 C   0  0  0  0  0  0  0  0  0  0  0  0
   -6.3380   22.4180  -30.7680 C   0  0  0  0  0  0  0  0  0  0  0  0
   -6.3740   21.1150  -31.2710 C   0  0  0  0  0  0  0  0  0  0  0  0
   -5.1990   20.4990  -31.7420 C   0  0  0  0  0  0  0  0  0  0  0  0
   -5.2320   19.1080  -32.2620 C   0  0  0  0  0  0  0  0  0  0  0  0
   -5.9570   18.1120  -31.5920 C   0  0  0  0  0  0  0  0  0  0  0  0
   -5.9930   16.8040  -32.0820 C   0  0  0  0  0  0  0  0  0  0  0  0
   -5.3020   16.4490  -33.2640 C   0  0  0  0  0  0  0  0  0  0  0  0
   -5.3170   15.0190  -33.8420 C   0  0  0  0  0  0  0  0  0  0  0  0
   -6.7220   14.7050  -34.4020 C   0  0  0  0  0  0  0  0  0  0  0  0
   -4.2770   14.9120  -34.9790 C   0  0  0  0  0  0  0  0  0  0  0  0
   -4.9770   13.9350  -32.7920 C   0  0  0  0  0  0  0  0  0  0  0  0
   -4.5750   17.4620  -33.9260 C   0  0  0  0  0  0  0  0  0  0  0  0
   -4.5400   18.7680  -33.4330 C   0  0  0  0  0  0  0  0  0  0  0  0
   -3.9920   21.2200  -31.7030 C   0  0  0  0  0  0  0  0  0  0  0  0
   -3.9590   22.5230  -31.1970 C   0  0  0  0  0  0  0  0  0  0  0  0
   -1.5626   25.9848  -27.0880 H   0  0  0  0  0  0  0  0  0  0  0  0
   -0.7447   25.5741  -28.6337 H   0  0  0  0  0  0  0  0  0  0  0  0
   -2.4749   26.0568  -28.6337 H   0  0  0  0  0  0  0  0  0  0  0  0
    0.5262   23.9069  -26.5461 H   0  0  0  0  0  0  0  0  0  0  0  0
    0.9157   22.4433  -27.5228 H   0  0  0  0  0  0  0  0  0  0  0  0
    1.7510   24.2530  -28.5030 H   0  0  0  0  0  0  0  0  0  0  0  0
   -0.8022   20.9785  -27.1478 H   0  0  0  0  0  0  0  0  0  0  0  0
   -3.2028   20.3610  -27.3319 H   0  0  0  0  0  0  0  0  0  0  0  0
   -4.8931   22.0766  -27.9427 H   0  0  0  0  0  0  0  0  0  0  0  0
   -4.9050   25.2600  -27.6930 H   0  0  0  0  0  0  0  0  0  0  0  0
   -7.2625   22.8902  -30.4042 H   0  0  0  0  0  0  0  0  0  0  0  0
   -7.3271   20.5666  -31.2992 H   0  0  0  0  0  0  0  0  0  0  0  0
   -6.5032   18.3632  -30.6708 H   0  0  0  0  0  0  0  0  0  0  0  0
   -6.5677   16.0384  -31.5401 H   0  0  0  0  0  0  0  0  0  0  0  0
   -7.4224   14.5485  -33.5684 H   0  0  0  0  0  0  0  0  0  0  0  0
   -7.0679   15.5480  -35.0182 H   0  0  0  0  0  0  0  0  0  0  0  0
   -6.6761   13.7949  -35.0182 H   0  0  0  0  0  0  0  0  0  0  0  0
   -3.2707   14.8085  -34.5469 H   0  0  0  0  0  0  0  0  0  0  0  0
   -4.5017   14.0322  -35.5999 H   0  0  0  0  0  0  0  0  0  0  0  0
   -4.3179   15.8191  -35.5999 H   0  0  0  0  0  0  0  0  0  0  0  0
   -5.1071   14.3497  -31.7815 H   0  0  0  0  0  0  0  0  0  0  0  0
   -5.6481   13.0734  -32.9239 H   0  0  0  0  0  0  0  0  0  0  0  0
   -3.9341   13.6110  -32.9239 H   0  0  0  0  0  0  0  0  0  0  0  0
   -4.0259   17.2180  -34.8474 H   0  0  0  0  0  0  0  0  0  0  0  0
   -3.9641   19.5372  -33.9684 H   0  0  0  0  0  0  0  0  0  0  0  0
   -3.0665   20.7550  -32.0736 H   0  0  0  0  0  0  0  0  0  0  0  0
   -3.0089   23.0767  -31.1698 H   0  0  0  0  0  0  0  0  0  0  0  0
  1  2  1  0
  2  3  2  0
  3  4  1  0
  4  5  1  0
  3  6  1  0
  6  7  2  0
  7  8  1  0
  8  9  2  0
  9 10  1  0
 10 11  1  0
 11 12  2  0
 11 13  2  0
 11 14  1  0
 14 15  2  0
 15 16  1  0
 16 17  2  0
 17 18  1  0
 18 19  2  0
 19 20  1  0
 20 21  2  0
 21 22  1  0
 22 23  1  0
 22 24  1  0
 22 25  1  0
 21 26  1  0
 26 27  2  0
 17 28  1  0
 28 29  2  0
  9  2  1  0
 29 14  1  0
 27 18  1  0
  1 30  1  0
  1 31  1  0
  1 32  1  0
  4 33  1  0
  4 34  1  0
  5 35  1  0
  6 36  1  0
  7 37  1  0
  8 38  1  0
 10 39  1  0
 15 40  1  0
 16 41  1  0
 19 42  1  0
 20 43  1  0
 23 44  1  0
 23 45  1  0
 23 46  1  0
 24 47  1  0
 24 48  1  0
 24 49  1  0
 25 50  1  0
 25 51  1  0
 25 52  1  0
 26 53  1  0
 27 54  1  0
 28 55  1  0
 29 56  1  0
M  END
>  <UniqueID>  (47) 
45

>  <SMILES>  (47) 
Cc1c(CO)cccc1NS(=O)(=O)c1ccc(-c2ccc(C(C)(C)C)cc2)cc1

>  <Energy>  (47) 
70.61559646062331

>  <Genealogy>  (47) 
Cc1c(CO)cccc1NS(=O)(=O)c1ccc(-c2ccc(C(C)(C)C)cc2)cc1 (3D coordinates assigned)
Cc1c(CO)cccc1NS(=O)(=O)c1ccc(-c2ccc(C(C)(C)C)cc2)cc1 (optimized conformer: 70.61559646062331 kcal/mol)

>  <smiles>  (47) 
Cc1c(CO)cccc1NS(=O)(=O)c1ccc(-c2ccc(C(C)(C)C)cc2)cc1

>  <score_type>  (47) 
oracle

>  <origin>  (47) 
adgpu

>  <m_score__min__energy>  (47) 
-9.6999999999999993

>  <m_primary>  (47) 
energy

$$$$
47:0
     RDKit          3D

 33 34  0  0  0  0  0  0  0  0999 V2000
   -9.2210   19.3200  -32.7090 C   0  0  0  0  0  0  0  0  0  0  0  0
   -7.9200   20.0630  -32.5420 C   0  0  0  0  0  0  0  0  0  0  0  0
   -6.7200   19.4460  -32.9280 C   0  0  0  0  0  0  0  0  0  0  0  0
   -5.5020   20.1100  -32.7840 C   0  0  0  0  0  0  0  0  0  0  0  0
   -5.4560   21.4020  -32.2540 C   0  0  0  0  0  0  0  0  0  0  0  0
   -4.1780   22.0380  -32.1120 N   0  0  0  0  0  0  0  0  0  0  0  0
   -2.9700   21.6070  -30.9450 S   0  0  0  0  0  0  0  0  0  0  0  0
   -3.5900   20.7280  -29.8970 O   0  0  0  0  0  0  0  0  0  0  0  0
   -1.8920   20.8270  -31.6440 O   0  0  0  0  0  0  0  0  0  0  0  0
   -2.3220   23.0660  -30.1580 C   0  0  0  0  0  0  0  0  0  0  0  0
   -3.1390   24.1920  -29.9010 C   0  0  0  0  0  0  0  0  0  0  0  0
   -4.5910   24.2390  -30.2800 C   0  0  0  0  0  0  0  0  0  0  0  0
   -2.5960   25.2950  -29.3200 N   0  0  0  0  0  0  0  0  0  0  0  0
   -1.2900   25.3370  -28.9600 C   0  0  0  0  0  0  0  0  0  0  0  0
   -0.8200   26.3720  -28.4220 O   0  0  0  0  0  0  0  0  0  0  0  0
   -0.4920   24.2650  -29.1770 N   0  0  0  0  0  0  0  0  0  0  0  0
   -0.9710   23.1370  -29.7600 C   0  0  0  0  0  0  0  0  0  0  0  0
   -0.1910   22.1650  -29.9380 O   0  0  0  0  0  0  0  0  0  0  0  0
   -6.6520   22.0330  -31.8750 C   0  0  0  0  0  0  0  0  0  0  0  0
   -7.8870   21.3750  -32.0120 C   0  0  0  0  0  0  0  0  0  0  0  0
   -9.1500   22.0770  -31.5860 C   0  0  0  0  0  0  0  0  0  0  0  0
   -9.6372   19.0823  -31.7189 H   0  0  0  0  0  0  0  0  0  0  0  0
   -9.9330   19.9477  -33.2650 H   0  0  0  0  0  0  0  0  0  0  0  0
   -9.0421   18.3878  -33.2650 H   0  0  0  0  0  0  0  0  0  0  0  0
   -6.7403   18.4295  -33.3479 H   0  0  0  0  0  0  0  0  0  0  0  0
   -4.5699   19.6125  -33.0902 H   0  0  0  0  0  0  0  0  0  0  0  0
   -5.2073   24.2589  -29.3691 H   0  0  0  0  0  0  0  0  0  0  0  0
   -4.7857   25.1439  -30.8743 H   0  0  0  0  0  0  0  0  0  0  0  0
   -4.8438   23.3486  -30.8743 H   0  0  0  0  0  0  0  0  0  0  0  0
   -6.6223   23.0538  -31.4662 H   0  0  0  0  0  0  0  0  0  0  0  0
   -9.2011   22.1054  -30.4876 H   0  0  0  0  0  0  0  0  0  0  0  0
   -9.1492   23.1041  -31.9797 H   0  0  0  0  0  0  0  0  0  0  0  0
  -10.0219   21.5341  -31.9797 H   0  0  0  0  0  0  0  0  0  0  0  0
  1  2  1  0
  2  3  2  0
  3  4  1  0
  4  5  2  0
  5  6  1  0
  6  7  1  0
  7  8  2  0
  7  9  2  0
  7 10  1  0
 10 11  2  0
 11 12  1  0
 11 13  1  0
 13 14  1  0
 14 15  2  0
 14 16  1  0
 16 17  1  0
 17 18  2  0
  5 19  1  0
 19 20  2  0
 20 21  1  0
 20  2  1  0
 17 10  1  0
  1 22  1  0
  1 23  1  0
  1 24  1  0
  3 25  1  0
  4 26  1  0
 12 27  1  0
 12 28  1  0
 12 29  1  0
 19 30  1  0
 21 31  1  0
 21 32  1  0
 21 33  1  0
M  CHG  3   6  -1  13  -1  16  -1
M  END
>  <UniqueID>  (48) 
46

>  <SMILES>  (48) 
Cc1ccc([N-]S(=O)(=O)c2c(C)[n-]c(=O)[n-]c2=O)cc1C

>  <Energy>  (48) 
39.69902910888962

>  <Genealogy>  (48) 
Cc1ccc([N-]S(=O)(=O)c2c(C)[n-]c(=O)[n-]c2=O)cc1C (protonated)
Cc1ccc([N-]S(=O)(=O)c2c(C)[n-]c(=O)[n-]c2=O)cc1C (3D coordinates assigned)
Cc1ccc([N-]S(=O)(=O)c2c(C)[n-]c(=O)[n-]c2=O)cc1C (optimized conformer: 39.69902910888962 kcal/mol)

>  <smiles>  (48) 
Cc1ccc(NS(=O)(=O)c2c(C)[nH]c(=O)[nH]c2=O)cc1C

>  <score_type>  (48) 
oracle

>  <origin>  (48) 
adgpu

>  <m_score__min__energy>  (48) 
-10.26

>  <m_primary>  (48) 
energy

$$$$
48:0
     RDKit          3D

 39 41  0  0  0  0  0  0  0  0999 V2000
    0.8619   22.8555  -27.5648 H   0  0  0  0  0  0  0  0  0  0  0  0
   -0.0090   23.2940  -28.0740 C   0  0  0  0  0  0  0  0  0  0  0  0
   -0.1070   24.6400  -28.2270 N   0  0  0  0  0  0  0  0  0  0  0  0
   -1.1750   25.2030  -28.8520 C   0  0  0  0  0  0  0  0  0  0  0  0
   -1.2346   26.2949  -28.9710 H   0  0  0  0  0  0  0  0  0  0  0  0
   -2.1980   24.3840  -29.3430 C   0  0  0  0  0  0  0  0  0  0  0  0
   -3.2120   24.9200  -29.9600 N   0  0  0  0  0  0  0  0  0  0  0  0
   -4.3660   24.2330  -30.4750 C   0  0  0  0  0  0  0  0  0  0  0  0
   -4.1730   23.1460  -31.3350 C   0  0  0  0  0  0  0  0  0  0  0  0
   -3.1519   22.8227  -31.5855 H   0  0  0  0  0  0  0  0  0  0  0  0
   -5.2680   22.4680  -31.8780 C   0  0  0  0  0  0  0  0  0  0  0  0
   -5.1030   21.6099  -32.5461 H   0  0  0  0  0  0  0  0  0  0  0  0
   -6.5730   22.8740  -31.5770 C   0  0  0  0  0  0  0  0  0  0  0  0
   -7.6450   22.1750  -32.1500 O   0  0  0  0  0  0  0  0  0  0  0  0
   -7.7670   20.7790  -32.2110 C   0  0  0  0  0  0  0  0  0  0  0  0
   -6.8620   20.0590  -33.0010 C   0  0  0  0  0  0  0  0  0  0  0  0
   -6.0845   20.5934  -33.5666 H   0  0  0  0  0  0  0  0  0  0  0  0
   -6.9410   18.6640  -33.0750 C   0  0  0  0  0  0  0  0  0  0  0  0
   -6.2328   18.1058  -33.7050 H   0  0  0  0  0  0  0  0  0  0  0  0
   -7.9190   17.9800  -32.3490 C   0  0  0  0  0  0  0  0  0  0  0  0
   -7.9840   16.8837  -32.4116 H   0  0  0  0  0  0  0  0  0  0  0  0
   -8.8150   18.6880  -31.5430 C   0  0  0  0  0  0  0  0  0  0  0  0
   -9.5819   18.1482  -30.9682 H   0  0  0  0  0  0  0  0  0  0  0  0
   -8.7370   20.0820  -31.4670 C   0  0  0  0  0  0  0  0  0  0  0  0
   -9.4363   20.6358  -30.8234 H   0  0  0  0  0  0  0  0  0  0  0  0
   -6.7710   23.9980  -30.7560 C   0  0  0  0  0  0  0  0  0  0  0  0
   -7.7921   24.3463  -30.5415 H   0  0  0  0  0  0  0  0  0  0  0  0
   -5.6760   24.6750  -30.2110 C   0  0  0  0  0  0  0  0  0  0  0  0
   -5.8388   25.5565  -29.5734 H   0  0  0  0  0  0  0  0  0  0  0  0
   -2.0870   23.0340  -29.2000 N   0  0  0  0  0  0  0  0  0  0  0  0
   -1.0240   22.4710  -28.5690 C   0  0  0  0  0  0  0  0  0  0  0  0
   -0.9240   20.6890  -28.4030 S   0  0  0  0  0  0  0  0  0  0  0  0
   -1.9190   20.6120  -26.8710 C   0  0  0  0  0  0  0  0  0  0  0  0
   -2.7088   21.3763  -26.9168 H   0  0  0  0  0  0  0  0  0  0  0  0
   -1.2545   20.7935  -26.0134 H   0  0  0  0  0  0  0  0  0  0  0  0
   -2.5620   19.2420  -26.7030 C   0  0  0  0  0  0  0  0  0  0  0  0
   -2.6682   19.0157  -25.6318 H   0  0  0  0  0  0  0  0  0  0  0  0
   -3.5542   19.2419  -27.1779 H   0  0  0  0  0  0  0  0  0  0  0  0
   -1.9281   18.4787  -27.1779 H   0  0  0  0  0  0  0  0  0  0  0  0
  1  2  1  0
  2  3  1  0
  3  4  2  0
  4  5  1  0
  4  6  1  0
  6  7  2  0
  7  8  1  0
  8  9  2  0
  9 10  1  0
  9 11  1  0
 11 12  1  0
 11 13  2  0
 13 14  1  0
 14 15  1  0
 15 16  2  0
 16 17  1  0
 16 18  1  0
 18 19  1  0
 18 20  2  0
 20 21  1  0
 20 22  1  0
 22 23  1  0
 22 24  2  0
 24 25  1  0
 13 26  1  0
 26 27  1  0
 26 28  2  0
 28 29  1  0
  6 30  1  0
 30 31  1  0
 31 32  1  0
 32 33  1  0
 33 34  1  0
 33 35  1  0
 33 36  1  0
 36 37  1  0
 36 38  1  0
 36 39  1  0
 31  2  2  0
 28  8  1  0
 24 15  1  0
M  CHG  1  30  -1
M  END
>  <UniqueID>  (49) 
47

>  <SMILES>  (49) 
CCSc1cnc/c(=N/c2ccc(Oc3ccccc3)cc2)[n-]1

>  <Energy>  (49) 
49.65191908762626

>  <Genealogy>  (49) 
CCSc1cncc(=Nc2ccc(Oc3ccccc3)cc2)[n-]1 (protonated)
CCSc1cnc/c(=N/c2ccc(Oc3ccccc3)cc2)[n-]1 (cis-trans isomerization)
CCSc1cnc/c(=N/c2ccc(Oc3ccccc3)cc2)[n-]1 (3D coordinates assigned)
CCSc1cnc/c(=N/c2ccc(Oc3ccccc3)cc2)[n-]1 (optimized conformer: 49.65191908762626 kcal/mol)

>  <smiles>  (49) 
CCSc1cncc(=Nc2ccc(Oc3ccccc3)cc2)[nH]1

>  <score_type>  (49) 
oracle

>  <origin>  (49) 
adgpu

>  <m_score__min__energy>  (49) 
-9.5199999999999996

>  <m_primary>  (49) 
energy

$$$$
49:0
     RDKit          3D

 54 58  0  0  0  0  0  0  0  0999 V2000
   -3.0940   24.9300  -26.5750 C   0  0  0  0  0  0  0  0  0  0  0  0
   -1.9700   25.9210  -26.4440 C   0  0  0  0  0  0  0  0  0  0  0  0
   -1.6470   26.4500  -25.1830 C   0  0  0  0  0  0  0  0  0  0  0  0
   -0.6140   27.3800  -25.0510 C   0  0  0  0  0  0  0  0  0  0  0  0
    0.0980   27.7980  -26.1740 C   0  0  0  0  0  0  0  0  0  0  0  0
   -0.2110   27.2790  -27.4330 C   0  0  0  0  0  0  0  0  0  0  0  0
   -1.2350   26.3230  -27.5790 C   0  0  0  0  0  0  0  0  0  0  0  0
   -1.5960   25.8070  -28.8710 N   0  0  0  0  0  0  0  0  0  0  0  0
   -1.5120   24.4450  -29.2970 C   0  0  0  0  0  0  0  0  0  0  0  0
   -0.3860   23.9670  -29.5970 O   0  0  0  0  0  0  0  0  0  0  0  0
   -2.6990   23.6640  -29.4820 N   0  0  0  0  0  0  0  0  0  0  0  0
   -3.7980   24.0140  -30.3310 C   0  0  0  0  0  0  0  0  0  0  0  0
   -4.3880   25.2670  -30.4300 C   0  0  0  0  0  0  0  0  0  0  0  0
   -5.4960   25.1880  -31.2070 N   0  0  0  0  0  0  0  0  0  0  0  0
   -5.6150   23.9240  -31.5780 N   0  0  0  0  0  0  0  0  0  0  0  0
   -6.6130   23.3780  -32.3140 C   0  0  0  0  0  0  0  0  0  0  0  0
   -6.5890   21.9930  -32.5280 C   0  0  0  0  0  0  0  0  0  0  0  0
   -5.5390   21.2270  -31.9660 C   0  0  0  0  0  0  0  0  0  0  0  0
   -5.4920   19.7980  -32.1650 N   0  0  0  0  0  0  0  0  0  0  0  0
   -6.7480   19.0350  -32.1050 C   0  0  0  0  0  0  0  0  0  0  0  0
   -6.7710   17.9690  -33.2140 C   0  0  0  0  0  0  0  0  0  0  0  0
   -6.2090   18.4890  -34.4050 O   0  0  0  0  0  0  0  0  0  0  0  0
   -4.8160   18.7710  -34.2750 C   0  0  0  0  0  0  0  0  0  0  0  0
   -4.3650   19.1160  -32.8310 C   0  0  1  0  0  0  0  0  0  0  0  0
   -3.0250   19.8370  -32.6900 C   0  0  0  0  0  0  0  0  0  0  0  0
   -2.4030   20.0500  -31.4390 C   0  0  0  0  0  0  0  0  0  0  0  0
   -1.2010   20.7590  -31.3570 C   0  0  0  0  0  0  0  0  0  0  0  0
   -0.6110   21.2820  -32.5090 C   0  0  0  0  0  0  0  0  0  0  0  0
   -1.2320   21.1110  -33.7480 C   0  0  0  0  0  0  0  0  0  0  0  0
   -0.6690   21.6330  -34.8650 F   0  0  0  0  0  0  0  0  0  0  0  0
   -2.4380   20.4110  -33.8350 C   0  0  0  0  0  0  0  0  0  0  0  0
   -4.5660   21.8500  -31.2340 N   0  0  0  0  0  0  0  0  0  0  0  0
   -4.6200   23.1920  -31.0660 C   0  0  0  0  0  0  0  0  0  0  0  0
   -3.4357   24.6287  -25.5738 H   0  0  0  0  0  0  0  0  0  0  0  0
   -3.9281   25.3920  -27.1235 H   0  0  0  0  0  0  0  0  0  0  0  0
   -2.7401   24.0446  -27.1235 H   0  0  0  0  0  0  0  0  0  0  0  0
   -2.2112   26.1296  -24.2947 H   0  0  0  0  0  0  0  0  0  0  0  0
   -0.3617   27.7834  -24.0592 H   0  0  0  0  0  0  0  0  0  0  0  0
    0.9049   28.5381  -26.0683 H   0  0  0  0  0  0  0  0  0  0  0  0
    0.3490   27.6190  -28.3166 H   0  0  0  0  0  0  0  0  0  0  0  0
   -4.0135   26.1837  -29.9511 H   0  0  0  0  0  0  0  0  0  0  0  0
   -7.4171   24.0023  -32.7307 H   0  0  0  0  0  0  0  0  0  0  0  0
   -7.3754   21.5076  -33.1246 H   0  0  0  0  0  0  0  0  0  0  0  0
   -6.8282   18.5423  -31.1248 H   0  0  0  0  0  0  0  0  0  0  0  0
   -7.5947   19.7225  -32.2481 H   0  0  0  0  0  0  0  0  0  0  0  0
   -6.1883   17.0944  -32.8892 H   0  0  0  0  0  0  0  0  0  0  0  0
   -7.8133   17.6756  -33.4077 H   0  0  0  0  0  0  0  0  0  0  0  0
   -4.2532   17.8871  -34.6095 H   0  0  0  0  0  0  0  0  0  0  0  0
   -4.6172   19.6625  -34.8879 H   0  0  0  0  0  0  0  0  0  0  0  0
   -4.1298   18.1721  -32.3174 H   0  0  0  0  0  0  0  0  0  0  0  0
   -2.8679   19.6552  -30.5236 H   0  0  0  0  0  0  0  0  0  0  0  0
   -0.7177   20.9055  -30.3798 H   0  0  0  0  0  0  0  0  0  0  0  0
    0.3415   21.8279  -32.4409 H   0  0  0  0  0  0  0  0  0  0  0  0
   -2.9358   20.3066  -34.8103 H   0  0  0  0  0  0  0  0  0  0  0  0
  1  2  1  0
  2  3  2  0
  3  4  1  0
  4  5  2  0
  5  6  1  0
  6  7  2  0
  7  8  1  0
  8  9  1  0
  9 10  2  0
  9 11  1  0
 11 12  1  0
 12 13  1  0
 13 14  2  0
 14 15  1  0
 15 16  1  0
 16 17  2  0
 17 18  1  0
 18 19  1  0
 19 20  1  0
 20 21  1  0
 21 22  1  0
 22 23  1  0
 23 24  1  0
 24 25  1  0
 25 26  2  0
 26 27  1  0
 27 28  2  0
 28 29  1  0
 29 30  1  0
 29 31  2  0
 18 32  2  0
 32 33  1  0
  7  2  1  0
 33 12  2  0
 33 15  1  0
 24 19  1  0
 31 25  1  0
  1 34  1  0
  1 35  1  0
  1 36  1  0
  3 37  1  0
  4 38  1  0
  5 39  1  0
  6 40  1  0
 13 41  1  0
 16 42  1  0
 17 43  1  0
 20 44  1  0
 20 45  1  0
 21 46  1  0
 21 47  1  0
 23 48  1  0
 23 49  1  0
 24 50  1  1
 26 51  1  0
 27 52  1  0
 28 53  1  0
 31 54  1  0
M  CHG  2   8  -1  11  -1
M  END
>  <UniqueID>  (50) 
48

>  <SMILES>  (50) 
Cc1ccccc1[N-]C(=O)[N-]c1cnn2ccc(N3CCOC[C@H]3c3cccc(F)c3)nc12

>  <Energy>  (50) 
120.05824875596471

>  <Genealogy>  (50) 
Cc1ccccc1[N-]C(=O)[N-]c1cnn2ccc(N3CCOCC3c3cccc(F)c3)nc12 (protonated)
Cc1ccccc1[N-]C(=O)[N-]c1cnn2ccc(N3CCOC[C@H]3c3cccc(F)c3)nc12 (chirality)
Cc1ccccc1[N-]C(=O)[N-]c1cnn2ccc(N3CCOC[C@H]3c3cccc(F)c3)nc12 (3D coordinates assigned)
Cc1ccccc1[N-]C(=O)[N-]c1cnn2ccc(N3CCOC[C@H]3c3cccc(F)c3)nc12 (nonaromatic ring conformer: 120.05824875596471 kcal/mol)

>  <smiles>  (50) 
Cc1ccccc1NC(=O)Nc1cnn2ccc(N3CCOCC3c3cccc(F)c3)nc12

>  <score_type>  (50) 
oracle

>  <origin>  (50) 
adgpu

>  <m_score__min__energy>  (50) 
-11.56

>  <m_primary>  (50) 
energy

$$$$
