0:0
     RDKit          3D

 61 65  0  0  0  0  0  0  0  0999 V2000
   -5.1150   13.1590  -32.7130 C   0  0  0  0  0  0  0  0  0  0  0  0
   -4.8510   14.5900  -33.0760 C   0  0  0  0  0  0  0  0  0  0  0  0
   -3.6170   15.1840  -32.7690 C   0  0  0  0  0  0  0  0  0  0  0  0
   -3.3590   16.5080  -33.1410 C   0  0  0  0  0  0  0  0  0  0  0  0
   -4.3230   17.2470  -33.8430 C   0  0  0  0  0  0  0  0  0  0  0  0
   -4.0450   18.6740  -34.2440 C   0  0  0  0  0  0  0  0  0  0  0  0
   -4.9950   19.5940  -33.6010 N   0  0  0  0  0  0  0  0  0  0  0  0
   -6.3660   19.6790  -34.1210 C   0  0  0  0  0  0  0  0  0  0  0  0
   -7.3510   19.7130  -32.9830 C   0  0  0  0  0  0  0  0  0  0  0  0
   -7.8580   18.5190  -32.4500 C   0  0  0  0  0  0  0  0  0  0  0  0
   -8.7330   18.5690  -31.3630 C   0  0  0  0  0  0  0  0  0  0  0  0
   -9.0900   19.7670  -30.8280 N   0  0  0  0  0  0  0  0  0  0  0  0
   -8.6150   20.9410  -31.3260 C   0  0  0  0  0  0  0  0  0  0  0  0
   -7.7350   20.9350  -32.4100 C   0  0  0  0  0  0  0  0  0  0  0  0
   -4.5580   20.4890  -32.5550 C   0  0  0  0  0  0  0  0  0  0  0  0
   -4.1010   20.0570  -31.3520 N   0  0  0  0  0  0  0  0  0  0  0  0
   -3.7530   21.0980  -30.5570 C   0  0  0  0  0  0  0  0  0  0  0  0
   -3.2320   20.9690  -29.2710 C   0  0  0  0  0  0  0  0  0  0  0  0
   -2.8870   22.1310  -28.5590 C   0  0  0  0  0  0  0  0  0  0  0  0
   -3.0810   23.4120  -29.1260 C   0  0  0  0  0  0  0  0  0  0  0  0
   -2.6940   24.5800  -28.3810 N   0  0  0  0  0  0  0  0  0  0  0  0
   -1.3330   25.0230  -28.2440 C   0  0  0  0  0  0  0  0  0  0  0  0
   -0.4880   24.7210  -29.1320 O   0  0  0  0  0  0  0  0  0  0  0  0
   -0.9160   25.8580  -27.0910 C   0  0  0  0  0  0  0  0  0  0  0  0
   -0.1030   26.9870  -27.2930 C   0  0  0  0  0  0  0  0  0  0  0  0
    0.3140   27.7660  -26.2100 C   0  0  0  0  0  0  0  0  0  0  0  0
   -0.0570   27.4180  -24.9050 C   0  0  0  0  0  0  0  0  0  0  0  0
    0.3700   28.2650  -23.7420 C   0  0  0  0  0  0  0  0  0  0  0  0
   -0.8810   26.3010  -24.7000 C   0  0  0  0  0  0  0  0  0  0  0  0
   -1.3010   25.5220  -25.7810 C   0  0  0  0  0  0  0  0  0  0  0  0
   -3.5990   23.5190  -30.4360 C   0  0  0  0  0  0  0  0  0  0  0  0
   -3.9280   22.3520  -31.1160 C   0  0  0  0  0  0  0  0  0  0  0  0
   -4.5440   22.1830  -32.6660 S   0  0  0  0  0  0  0  0  0  0  0  0
   -5.5540   16.6480  -34.1560 C   0  0  0  0  0  0  0  0  0  0  0  0
   -5.8120   15.3250  -33.7870 C   0  0  0  0  0  0  0  0  0  0  0  0
   -5.1340   13.0560  -31.6180 H   0  0  0  0  0  0  0  0  0  0  0  0
   -6.0856   12.8487  -33.1274 H   0  0  0  0  0  0  0  0  0  0  0  0
   -4.3191   12.5228  -33.1274 H   0  0  0  0  0  0  0  0  0  0  0  0
   -2.8493   14.6061  -32.2336 H   0  0  0  0  0  0  0  0  0  0  0  0
   -2.3957   16.9716  -32.8818 H   0  0  0  0  0  0  0  0  0  0  0  0
   -3.0224   18.9411  -33.9391 H   0  0  0  0  0  0  0  0  0  0  0  0
   -4.1555   18.7605  -35.3350 H   0  0  0  0  0  0  0  0  0  0  0  0
   -6.4713   20.5952  -34.7206 H   0  0  0  0  0  0  0  0  0  0  0  0
   -6.5689   18.7967  -34.7458 H   0  0  0  0  0  0  0  0  0  0  0  0
   -7.5687   17.5509  -32.8848 H   0  0  0  0  0  0  0  0  0  0  0  0
   -9.1345   17.6370  -30.9385 H   0  0  0  0  0  0  0  0  0  0  0  0
   -8.9245   21.8951  -30.8744 H   0  0  0  0  0  0  0  0  0  0  0  0
   -7.3454   21.8818  -32.8121 H   0  0  0  0  0  0  0  0  0  0  0  0
   -3.0931   19.9750  -28.8207 H   0  0  0  0  0  0  0  0  0  0  0  0
   -2.4610   22.0428  -27.5487 H   0  0  0  0  0  0  0  0  0  0  0  0
   -3.4500   25.1930  -27.9970 H   0  0  0  0  0  0  0  0  0  0  0  0
    0.2077   27.2597  -28.3124 H   0  0  0  0  0  0  0  0  0  0  0  0
    0.9363   28.6563  -26.3833 H   0  0  0  0  0  0  0  0  0  0  0  0
    0.1125   27.7543  -22.8024 H   0  0  0  0  0  0  0  0  0  0  0  0
    1.4572   28.4264  -23.7856 H   0  0  0  0  0  0  0  0  0  0  0  0
   -0.1468   29.2351  -23.7856 H   0  0  0  0  0  0  0  0  0  0  0  0
   -1.1987   26.0367  -23.6806 H   0  0  0  0  0  0  0  0  0  0  0  0
   -1.9363   24.6411  -25.6064 H   0  0  0  0  0  0  0  0  0  0  0  0
   -3.7388   24.5031  -30.9071 H   0  0  0  0  0  0  0  0  0  0  0  0
   -6.3204   17.2241  -34.6953 H   0  0  0  0  0  0  0  0  0  0  0  0
   -6.7714   14.8583  -34.0547 H   0  0  0  0  0  0  0  0  0  0  0  0
  1  2  1  0
  2  3  2  0
  3  4  1  0
  4  5  2  0
  5  6  1  0
  6  7  1  0
  7  8  1  0
  8  9  1  0
  9 10  2  0
 10 11  1  0
 11 12  2  0
 12 13  1  0
 13 14  2  0
  7 15  1  0
 15 16  2  0
 16 17  1  0
 17 18  2  0
 18 19  1  0
 19 20  2  0
 20 21  1  0
 21 22  1  0
 22 23  2  0
 22 24  1  0
 24 25  2  0
 25 26  1  0
 26 27  2  0
 27 28  1  0
 27 29  1  0
 29 30  2  0
 20 31  1  0
 31 32  2  0
 32 33  1  0
  5 34  1  0
 34 35  2  0
 35  2  1  0
 14  9  1  0
 33 15  1  0
 32 17  1  0
 30 24  1  0
  1 36  1  0
  1 37  1  0
  1 38  1  0
  3 39  1  0
  4 40  1  0
  6 41  1  0
  6 42  1  0
  8 43  1  0
  8 44  1  0
 10 45  1  0
 11 46  1  0
 13 47  1  0
 14 48  1  0
 18 49  1  0
 19 50  1  0
 21 51  1  0
 25 52  1  0
 26 53  1  0
 28 54  1  0
 28 55  1  0
 28 56  1  0
 29 57  1  0
 30 58  1  0
 31 59  1  0
 34 60  1  0
 35 61  1  0
M  END
>  <UniqueID>  (1) 
1

>  <SMILES>  (1) 
Cc1ccc(CN(Cc2ccncc2)c2nc3ccc(NC(=O)c4ccc(C)cc4)cc3s2)cc1

>  <Energy>  (1) 
103.79173719607137

>  <Genealogy>  (1) 
Cc1ccc(CN(Cc2ccncc2)c2nc3ccc(NC(=O)c4ccc(C)cc4)cc3s2)cc1 (3D coordinates assigned)
Cc1ccc(CN(Cc2ccncc2)c2nc3ccc(NC(=O)c4ccc(C)cc4)cc3s2)cc1 (optimized conformer: 103.79173719607137 kcal/mol)

>  <smiles>  (1) 
Cc1ccc(CN(Cc2ccncc2)c2nc3ccc(NC(=O)c4ccc(C)cc4)cc3s2)cc1

>  <score_type>  (1) 
oracle

>  <origin>  (1) 
adgpu

>  <m_score__min__energy>  (1) 
-10.369999999999999

>  <m_primary>  (1) 
energy

$$$$
1:0
     RDKit          3D

 45 48  0  0  0  0  0  0  0  0999 V2000
   -4.9930   22.0310  -30.0380 O   0  0  0  0  0  0  0  0  0  0  0  0
   -4.3650   22.6800  -31.2380 S   0  0  0  0  0  0  0  0  0  0  0  0
   -4.6770   24.1490  -31.2420 O   0  0  0  0  0  0  0  0  0  0  0  0
   -4.8840   21.9650  -32.7310 N   0  0  0  0  0  0  0  0  0  0  0  0
   -5.5690   20.6780  -32.4950 C   0  0  0  0  0  0  0  0  0  0  0  0
   -7.0500   20.8860  -32.3060 C   0  0  0  0  0  0  0  0  0  0  0  0
   -7.9500   19.8240  -32.5010 C   0  0  0  0  0  0  0  0  0  0  0  0
   -9.3240   20.0260  -32.3390 C   0  0  0  0  0  0  0  0  0  0  0  0
   -9.8100   21.2890  -31.9900 C   0  0  0  0  0  0  0  0  0  0  0  0
   -8.9230   22.3530  -31.8070 C   0  0  0  0  0  0  0  0  0  0  0  0
   -7.5480   22.1560  -31.9690 C   0  0  0  0  0  0  0  0  0  0  0  0
   -3.6110   21.7590  -33.4460 C   0  0  0  0  0  0  0  0  0  0  0  0
   -2.4770   21.5140  -32.4320 C   0  0  0  0  0  0  0  0  0  0  0  0
   -2.6580   22.4440  -31.3110 N   0  0  0  0  0  0  0  0  0  0  0  0
   -2.0120   22.0950  -30.0240 C   0  0  0  0  0  0  0  0  0  0  0  0
   -2.0590   23.1610  -28.9440 C   0  0  0  0  0  0  0  0  0  0  0  0
   -3.1420   23.2330  -28.0470 C   0  0  0  0  0  0  0  0  0  0  0  0
   -3.1840   24.2240  -27.0610 C   0  0  0  0  0  0  0  0  0  0  0  0
   -2.1590   25.1680  -26.9800 C   0  0  0  0  0  0  0  0  0  0  0  0
   -1.1130   25.1510  -27.9110 C   0  0  0  0  0  0  0  0  0  0  0  0
   -1.0610   24.1530  -28.8890 C   0  0  0  0  0  0  0  0  0  0  0  0
   -0.1290   26.1420  -27.8460 O   0  0  0  0  0  0  0  0  0  0  0  0
   -0.3080   27.3080  -27.0400 C   0  0  0  0  0  0  0  0  0  0  0  0
   -1.0040   26.9420  -25.7220 C   0  0  0  0  0  0  0  0  0  0  0  0
   -2.1630   26.1470  -25.9800 O   0  0  0  0  0  0  0  0  0  0  0  0
   -5.4050   20.0184  -33.3599 H   0  0  0  0  0  0  0  0  0  0  0  0
   -5.1579   20.2222  -31.5822 H   0  0  0  0  0  0  0  0  0  0  0  0
   -7.5718   18.8301  -32.7822 H   0  0  0  0  0  0  0  0  0  0  0  0
  -10.0233   19.1898  -32.4864 H   0  0  0  0  0  0  0  0  0  0  0  0
  -10.8909   21.4455  -31.8594 H   0  0  0  0  0  0  0  0  0  0  0  0
   -9.3069   23.3473  -31.5350 H   0  0  0  0  0  0  0  0  0  0  0  0
   -6.8538   22.9982  -31.8321 H   0  0  0  0  0  0  0  0  0  0  0  0
   -3.7020   20.8867  -34.1100 H   0  0  0  0  0  0  0  0  0  0  0  0
   -3.3793   22.6548  -34.0408 H   0  0  0  0  0  0  0  0  0  0  0  0
   -2.5209   20.4772  -32.0670 H   0  0  0  0  0  0  0  0  0  0  0  0
   -1.4988   21.6770  -32.9079 H   0  0  0  0  0  0  0  0  0  0  0  0
   -2.5092   21.1959  -29.6310 H   0  0  0  0  0  0  0  0  0  0  0  0
   -0.9459   21.9554  -30.2561 H   0  0  0  0  0  0  0  0  0  0  0  0
   -3.9620   22.5036  -28.1224 H   0  0  0  0  0  0  0  0  0  0  0  0
   -4.0232   24.2594  -26.3507 H   0  0  0  0  0  0  0  0  0  0  0  0
   -0.2374   24.1427  -29.6181 H   0  0  0  0  0  0  0  0  0  0  0  0
    0.6742   27.7520  -26.8207 H   0  0  0  0  0  0  0  0  0  0  0  0
   -0.9334   28.0289  -27.5870 H   0  0  0  0  0  0  0  0  0  0  0  0
   -0.3070   26.3735  -25.0888 H   0  0  0  0  0  0  0  0  0  0  0  0
   -1.3095   27.8658  -25.2089 H   0  0  0  0  0  0  0  0  0  0  0  0
  1  2  2  0
  2  3  2  0
  2  4  1  0
  4  5  1  0
  5  6  1  0
  6  7  2  0
  7  8  1  0
  8  9  2  0
  9 10  1  0
 10 11  2  0
  4 12  1  0
 12 13  1  0
 13 14  1  0
 14 15  1  0
 15 16  1  0
 16 17  2  0
 17 18  1  0
 18 19  2  0
 19 20  1  0
 20 21  2  0
 20 22  1  0
 22 23  1  0
 23 24  1  0
 24 25  1  0
 14  2  1  0
 21 16  1  0
 11  6  1  0
 25 19  1  0
  5 26  1  0
  5 27  1  0
  7 28  1  0
  8 29  1  0
  9 30  1  0
 10 31  1  0
 11 32  1  0
 12 33  1  0
 12 34  1  0
 13 35  1  0
 13 36  1  0
 15 37  1  0
 15 38  1  0
 17 39  1  0
 18 40  1  0
 21 41  1  0
 23 42  1  0
 23 43  1  0
 24 44  1  0
 24 45  1  0
M  END
>  <UniqueID>  (2) 
2

>  <SMILES>  (2) 
O=S1(=O)N(Cc2ccccc2)CCN1Cc1ccc2c(c1)OCCO2

>  <Energy>  (2) 
58.71869627089125

>  <Genealogy>  (2) 
O=S1(=O)N(Cc2ccccc2)CCN1Cc1ccc2c(c1)OCCO2 (3D coordinates assigned)
O=S1(=O)N(Cc2ccccc2)CCN1Cc1ccc2c(c1)OCCO2 (nonaromatic ring conformer: 58.71869627089125 kcal/mol)

>  <smiles>  (2) 
O=S1(=O)N(Cc2ccccc2)CCN1Cc1ccc2c(c1)OCCO2

>  <score_type>  (2) 
oracle

>  <origin>  (2) 
adgpu

>  <m_score__min__energy>  (2) 
-8.8200000000000003

>  <m_primary>  (2) 
energy

$$$$
2:0
     RDKit          3D

 54 57  0  0  0  0  0  0  0  0999 V2000
   -7.9310   23.3180  -31.8060 C   0  0  0  0  0  0  0  0  0  0  0  0
   -6.5690   23.6500  -31.2670 C   0  0  0  0  0  0  0  0  0  0  0  0
   -6.4170   24.7140  -30.3640 C   0  0  0  0  0  0  0  0  0  0  0  0
   -5.1510   25.0390  -29.8640 C   0  0  0  0  0  0  0  0  0  0  0  0
   -4.0190   24.3200  -30.2740 C   0  0  0  0  0  0  0  0  0  0  0  0
   -2.7300   24.6710  -29.7410 N   0  0  0  0  0  0  0  0  0  0  0  0
   -1.7880   23.7100  -29.2390 C   0  0  0  0  0  0  0  0  0  0  0  0
   -0.5230   24.2430  -28.3380 S   0  0  0  0  0  0  0  0  0  0  0  0
   -1.7840   22.3690  -29.7590 N   0  0  0  0  0  0  0  0  0  0  0  0
   -1.2930   21.2260  -29.0350 C   0  0  0  0  0  0  0  0  0  0  0  0
   -1.3020   21.2110  -27.6280 C   0  0  0  0  0  0  0  0  0  0  0  0
   -0.8740   20.0820  -26.9300 C   0  0  0  0  0  0  0  0  0  0  0  0
   -0.4390   18.9530  -27.6260 C   0  0  0  0  0  0  0  0  0  0  0  0
   -0.4330   18.9500  -29.0220 C   0  0  0  0  0  0  0  0  0  0  0  0
   -0.8710   20.0820  -29.7410 C   0  0  0  0  0  0  0  0  0  0  0  0
   -0.8900   20.1130  -31.1480 O   0  0  0  0  0  0  0  0  0  0  0  0
   -1.1490   18.9970  -32.0000 C   0  0  0  0  0  0  0  0  0  0  0  0
   -2.3840   19.2400  -32.8100 C   0  0  0  0  0  0  0  0  0  0  0  0
   -3.2820   18.2930  -33.2480 C   0  0  0  0  0  0  0  0  0  0  0  0
   -4.2780   18.9750  -33.8390 N   0  0  0  0  0  0  0  0  0  0  0  0
   -5.5400   18.4230  -34.3160 C   0  0  0  0  0  0  0  0  0  0  0  0
   -6.6390   18.7710  -33.3510 C   0  0  0  0  0  0  0  0  0  0  0  0
   -7.2460   20.0380  -33.3980 C   0  0  0  0  0  0  0  0  0  0  0  0
   -8.3140   20.3390  -32.5460 C   0  0  0  0  0  0  0  0  0  0  0  0
   -8.7890   19.3780  -31.6470 C   0  0  0  0  0  0  0  0  0  0  0  0
   -8.1980   18.1120  -31.6030 C   0  0  0  0  0  0  0  0  0  0  0  0
   -7.1310   17.8050  -32.4560 C   0  0  0  0  0  0  0  0  0  0  0  0
   -4.0110   20.2700  -33.7540 N   0  0  0  0  0  0  0  0  0  0  0  0
   -2.8540   20.4620  -33.1340 N   0  0  0  0  0  0  0  0  0  0  0  0
   -4.1770   23.2380  -31.1600 C   0  0  0  0  0  0  0  0  0  0  0  0
   -5.4420   22.9110  -31.6600 C   0  0  0  0  0  0  0  0  0  0  0  0
   -8.6251   23.1488  -30.9696 H   0  0  0  0  0  0  0  0  0  0  0  0
   -8.2954   24.1536  -32.4216 H   0  0  0  0  0  0  0  0  0  0  0  0
   -7.8700   22.4084  -32.4216 H   0  0  0  0  0  0  0  0  0  0  0  0
   -7.2964   25.2945  -30.0482 H   0  0  0  0  0  0  0  0  0  0  0  0
   -5.0431   25.8640  -29.1445 H   0  0  0  0  0  0  0  0  0  0  0  0
   -2.4510   25.6800  -29.7470 H   0  0  0  0  0  0  0  0  0  0  0  0
   -2.1590   22.2230  -30.7240 H   0  0  0  0  0  0  0  0  0  0  0  0
   -1.6491   22.0961  -27.0747 H   0  0  0  0  0  0  0  0  0  0  0  0
   -0.8792   20.0813  -25.8300 H   0  0  0  0  0  0  0  0  0  0  0  0
   -0.1003   18.0641  -27.0736 H   0  0  0  0  0  0  0  0  0  0  0  0
   -0.0844   18.0591  -29.5650 H   0  0  0  0  0  0  0  0  0  0  0  0
   -0.2940   18.8502  -32.6764 H   0  0  0  0  0  0  0  0  0  0  0  0
   -1.2968   18.0998  -31.3810 H   0  0  0  0  0  0  0  0  0  0  0  0
   -3.2010   17.2016  -33.1370 H   0  0  0  0  0  0  0  0  0  0  0  0
   -5.7737   18.8447  -35.3047 H   0  0  0  0  0  0  0  0  0  0  0  0
   -5.4544   17.3291  -34.3934 H   0  0  0  0  0  0  0  0  0  0  0  0
   -6.8801   20.7952  -34.1070 H   0  0  0  0  0  0  0  0  0  0  0  0
   -8.7816   21.3340  -32.5830 H   0  0  0  0  0  0  0  0  0  0  0  0
   -9.6265   19.6184  -30.9756 H   0  0  0  0  0  0  0  0  0  0  0  0
   -8.5718   17.3557  -30.8971 H   0  0  0  0  0  0  0  0  0  0  0  0
   -6.6759   16.8040  -32.4257 H   0  0  0  0  0  0  0  0  0  0  0  0
   -3.3004   22.6457  -31.4612 H   0  0  0  0  0  0  0  0  0  0  0  0
   -5.5539   22.0724  -32.3631 H   0  0  0  0  0  0  0  0  0  0  0  0
  1  2  1  0
  2  3  2  0
  3  4  1  0
  4  5  2  0
  5  6  1  0
  6  7  1  0
  7  8  2  0
  7  9  1  0
  9 10  1  0
 10 11  2  0
 11 12  1  0
 12 13  2  0
 13 14  1  0
 14 15  2  0
 15 16  1  0
 16 17  1  0
 17 18  1  0
 18 19  2  0
 19 20  1  0
 20 21  1  0
 21 22  1  0
 22 23  2  0
 23 24  1  0
 24 25  2  0
 25 26  1  0
 26 27  2  0
 20 28  1  0
 28 29  2  0
  5 30  1  0
 30 31  2  0
 31  2  1  0
 15 10  1  0
 29 18  1  0
 27 22  1  0
  1 32  1  0
  1 33  1  0
  1 34  1  0
  3 35  1  0
  4 36  1  0
  6 37  1  0
  9 38  1  0
 11 39  1  0
 12 40  1  0
 13 41  1  0
 14 42  1  0
 17 43  1  0
 17 44  1  0
 19 45  1  0
 21 46  1  0
 21 47  1  0
 23 48  1  0
 24 49  1  0
 25 50  1  0
 26 51  1  0
 27 52  1  0
 30 53  1  0
 31 54  1  0
M  END
>  <UniqueID>  (3) 
3

>  <SMILES>  (3) 
Cc1ccc(NC(=S)Nc2ccccc2OCc2cn(Cc3ccccc3)nn2)cc1

>  <Energy>  (3) 
97.13866789613215

>  <Genealogy>  (3) 
Cc1ccc(NC(=S)Nc2ccccc2OCc2cn(Cc3ccccc3)nn2)cc1 (3D coordinates assigned)
Cc1ccc(NC(=S)Nc2ccccc2OCc2cn(Cc3ccccc3)nn2)cc1 (optimized conformer: 97.13866789613215 kcal/mol)

>  <smiles>  (3) 
Cc1ccc(NC(=S)Nc2ccccc2OCc2cn(Cc3ccccc3)nn2)cc1

>  <score_type>  (3) 
oracle

>  <origin>  (3) 
adgpu

>  <m_score__min__energy>  (3) 
-10.16

>  <m_primary>  (3) 
energy

$$$$
3:0
     RDKit          3D

 33 36  0  0  1  0  0  0  0  0999 V2000
   -3.8580   15.3950  -34.7870 C   0  0  0  0  0  0  0  0  0  0  0  0
   -2.8720   16.2140  -35.2980 C   0  0  0  0  0  0  0  0  0  0  0  0
   -3.1970   17.4490  -35.0640 O   0  0  0  0  0  0  0  0  0  0  0  0
   -4.3190   17.5820  -34.4360 C   0  0  0  0  0  0  0  0  0  0  0  0
   -5.0710   18.7820  -33.9660 C   0  0  0  0  0  0  0  0  0  0  0  0
   -6.4160   18.6360  -33.7030 N   0  0  0  0  0  0  0  0  0  0  0  0
   -7.2460   19.3540  -33.1550 C   0  0  0  0  0  0  0  0  0  0  0  0
   -8.5270   18.9140  -33.0440 N   0  0  0  0  0  0  0  0  0  0  0  0
   -9.4920   19.6080  -32.4240 C   0  0  0  0  0  0  0  0  0  0  0  0
   -9.1860   20.7980  -31.8850 N   0  0  0  0  0  0  0  0  0  0  0  0
   -7.9270   21.2520  -31.9850 C   0  0  0  0  0  0  0  0  0  0  0  0
   -7.6660   22.4810  -31.4170 C   0  0  0  0  0  0  0  0  0  0  0  0
   -6.3710   22.9370  -31.5340 C   0  0  0  0  0  0  0  0  0  0  0  0
   -6.0720   24.2320  -30.9370 C   0  0  0  0  0  0  0  0  0  0  0  0
   -4.9710   24.9750  -31.1580 N   0  0  0  0  0  0  0  0  0  0  0  0
   -4.9940   26.1020  -30.4660 N   0  0  0  0  0  0  0  0  0  0  0  0
   -6.1300   26.0830  -29.7860 N   0  0  0  0  0  0  0  0  0  0  0  0
   -6.8010   24.9550  -30.0570 N   0  0  0  0  0  0  0  0  0  0  0  0
   -5.3630   22.2780  -32.1530 C   0  0  0  0  0  0  0  0  0  0  0  0
   -5.6370   21.0200  -32.7320 C   0  0  0  0  0  0  0  0  0  0  0  0
   -6.9080   20.5640  -32.6170 C   0  0  0  0  0  0  0  0  0  0  0  0
   -4.7820   16.2900  -34.2360 C   0  0  0  0  0  0  0  0  0  0  0  0
   -3.9064   14.2963  -34.8079 H   0  0  0  0  0  0  0  0  0  0  0  0
   -1.9626   15.8768  -35.8169 H   0  0  0  0  0  0  0  0  0  0  0  0
   -4.5911   19.1272  -33.0384 H   0  0  0  0  0  0  0  0  0  0  0  0
   -5.0291   19.4836  -34.8121 H   0  0  0  0  0  0  0  0  0  0  0  0
   -8.8100   17.9920  -33.4500 H   0  0  0  0  0  0  0  0  0  0  0  0
  -10.5152   19.2094  -32.3584 H   0  0  0  0  0  0  0  0  0  0  0  0
   -8.4446   23.0624  -30.9015 H   0  0  0  0  0  0  0  0  0  0  0  0
   -6.5150   26.8030  -29.1180 H   0  0  0  0  0  0  0  0  0  0  0  0
   -4.3539   22.7129  -32.2035 H   0  0  0  0  0  0  0  0  0  0  0  0
   -4.8590   20.4398  -33.2498 H   0  0  0  0  0  0  0  0  0  0  0  0
   -5.7187   16.0149  -33.7291 H   0  0  0  0  0  0  0  0  0  0  0  0
  1  2  2  0
  2  3  1  0
  3  4  1  0
  4  5  1  0
  5  6  1  0
  6  7  2  0
  7  8  1  0
  8  9  1  0
  9 10  2  0
 10 11  1  0
 11 12  2  0
 12 13  1  0
 13 14  1  0
 14 15  1  0
 15 16  2  0
 16 17  1  0
 17 18  1  0
 13 19  2  0
 19 20  1  0
 20 21  2  0
  4 22  2  0
 22  1  1  0
 21  7  1  0
 21 11  1  0
 18 14  2  0
  1 23  1  0
  2 24  1  0
  5 25  1  0
  5 26  1  0
  8 27  1  0
  9 28  1  0
 12 29  1  0
 17 30  1  0
 19 31  1  0
 20 32  1  0
 22 33  1  0
M  END
>  <smiles>  (4) 
c1coc(CN=c2[nH]cnc3cc(-c4nn[nH]n4)ccc23)c1

>  <score_type>  (4) 
oracle

>  <origin>  (4) 
adgpu

>  <m_score__min__energy>  (4) 
-8.5600000000000005

>  <m_primary>  (4) 
energy

$$$$
4:0
     RDKit          3D

 34 35  0  0  0  0  0  0  0  0999 V2000
   -5.2220   20.8380  -31.7140 C   0  0  0  0  0  0  0  0  0  0  0  0
   -3.7550   21.1200  -31.8020 C   0  0  0  0  0  0  0  0  0  0  0  0
   -3.0490   20.8030  -32.9100 N   0  0  0  0  0  0  0  0  0  0  0  0
   -1.8000   21.1940  -32.7260 N   0  0  0  0  0  0  0  0  0  0  0  0
   -0.7540   21.0790  -33.7340 C   0  0  0  0  0  0  0  0  0  0  0  0
   -1.6960   21.7800  -31.5250 C   0  0  0  0  0  0  0  0  0  0  0  0
   -0.6330   22.2910  -31.0780 O   0  0  0  0  0  0  0  0  0  0  0  0
   -2.9150   21.7540  -30.8690 C   0  0  0  0  0  0  0  0  0  0  0  0
   -3.1440   22.3760  -29.4910 C   0  0  1  0  0  0  0  0  0  0  0  0
   -1.8460   22.8590  -28.8340 C   0  0  0  0  0  0  0  0  0  0  0  0
   -1.3800   24.1870  -28.9570 C   0  0  0  0  0  0  0  0  0  0  0  0
   -2.0770   25.1260  -29.7080 O   0  0  0  0  0  0  0  0  0  0  0  0
   -0.2340   24.5660  -28.3320 N   0  0  0  0  0  0  0  0  0  0  0  0
    0.4760   23.6980  -27.5730 C   0  0  0  0  0  0  0  0  0  0  0  0
    1.8480   24.1890  -26.8390 S   0  0  0  0  0  0  0  0  0  0  0  0
    0.0430   22.4240  -27.4160 N   0  0  0  0  0  0  0  0  0  0  0  0
   -1.0940   21.9870  -28.0150 C   0  0  0  0  0  0  0  0  0  0  0  0
   -1.4640   20.7980  -27.8260 O   0  0  0  0  0  0  0  0  0  0  0  0
   -4.3020   23.4020  -29.3190 C   0  0  1  0  0  0  0  0  0  0  0  0
   -4.1610   24.2280  -28.1050 C   0  0  0  0  0  0  0  0  0  0  0  0
   -4.0610   24.8710  -27.1490 N   0  0  0  0  0  0  0  0  0  0  0  0
   -4.5550   24.2480  -30.5480 C   0  0  0  0  0  0  0  0  0  0  0  0
   -4.2170   25.6350  -30.5560 N   0  0  0  0  0  0  0  0  0  0  0  0
   -4.9890   23.7160  -31.6060 O   0  0  0  0  0  0  0  0  0  0  0  0
   -5.5216   20.7804  -30.6571 H   0  0  0  0  0  0  0  0  0  0  0  0
   -5.7809   21.6451  -32.2101 H   0  0  0  0  0  0  0  0  0  0  0  0
   -5.4419   19.8811  -32.2101 H   0  0  0  0  0  0  0  0  0  0  0  0
    0.2223   20.9717  -33.2387 H   0  0  0  0  0  0  0  0  0  0  0  0
   -0.9455   20.1965  -34.3621 H   0  0  0  0  0  0  0  0  0  0  0  0
   -0.7492   21.9820  -34.3621 H   0  0  0  0  0  0  0  0  0  0  0  0
   -3.5305   21.5078  -28.9370 H   0  0  0  0  0  0  0  0  0  0  0  0
   -2.3830   24.9190  -30.6500 H   0  0  0  0  0  0  0  0  0  0  0  0
   -5.2032   22.7855  -29.1855 H   0  0  0  0  0  0  0  0  0  0  0  0
   -3.4970   26.0070  -31.2130 H   0  0  0  0  0  0  0  0  0  0  0  0
  1  2  1  0
  2  3  1  0
  3  4  1  0
  4  5  1  0
  4  6  1  0
  6  7  2  0
  6  8  1  0
  8  9  1  0
  9 10  1  0
 10 11  2  0
 11 12  1  0
 11 13  1  0
 13 14  1  0
 14 15  2  0
 14 16  1  0
 16 17  1  0
 17 18  2  0
  9 19  1  0
 19 20  1  0
 20 21  3  0
 19 22  1  0
 22 23  1  0
 22 24  2  0
  8  2  2  0
 17 10  1  0
  1 25  1  0
  1 26  1  0
  1 27  1  0
  5 28  1  0
  5 29  1  0
  5 30  1  0
  9 31  1  1
 12 32  1  0
 19 33  1  1
 23 34  1  0
M  CHG  4   3  -1  13  -1  16  -1  23  -1
M  END
>  <UniqueID>  (5) 
4

>  <SMILES>  (5) 
Cc1[n-]n(C)c(=O)c1[C@@H](c1c(O)[n-]c(=S)[n-]c1=O)[C@@H](C#N)C([NH-])=O

>  <Energy>  (5) 
76.8340797320085

>  <Genealogy>  (5) 
Cc1[n-]n(C)c(=O)c1C(c1c(O)[n-]c(=S)[n-]c1=O)C(C#N)C([NH-])=O (protonated)
Cc1[n-]n(C)c(=O)c1[C@@H](c1c(O)[n-]c(=S)[n-]c1=O)[C@@H](C#N)C([NH-])=O (chirality)
Cc1[n-]n(C)c(=O)c1[C@@H](c1c(O)[n-]c(=S)[n-]c1=O)[C@@H](C#N)C([NH-])=O (3D coordinates assigned)
Cc1[n-]n(C)c(=O)c1[C@@H](c1c(O)[n-]c(=S)[n-]c1=O)[C@@H](C#N)C([NH-])=O (optimized conformer: 76.8340797320085 kcal/mol)

>  <smiles>  (5) 
Cc1[nH]n(C)c(=O)c1C(c1c(O)[nH]c(=S)[nH]c1=O)C(C#N)C(N)=O

>  <score_type>  (5) 
oracle

>  <origin>  (5) 
adgpu

>  <m_score__min__energy>  (5) 
-11.24

>  <m_primary>  (5) 
energy

$$$$
5:0
     RDKit          3D

 48 50  0  0  0  0  0  0  0  0999 V2000
   -1.5850   19.5140  -33.7280 C   0  0  0  0  0  0  0  0  0  0  0  0
   -1.1220   20.2950  -32.5760 N   0  0  0  0  0  0  0  0  0  0  0  0
    0.2810   20.7190  -32.4840 C   0  0  0  0  0  0  0  0  0  0  0  0
   -2.0480   20.6210  -31.5150 C   0  0  0  0  0  0  0  0  0  0  0  0
   -3.2200   20.1460  -31.5200 O   0  0  0  0  0  0  0  0  0  0  0  0
   -1.6570   21.5150  -30.4120 C   0  0  0  0  0  0  0  0  0  0  0  0
   -0.5320   21.1880  -29.6390 C   0  0  0  0  0  0  0  0  0  0  0  0
   -0.1290   22.0200  -28.5930 C   0  0  0  0  0  0  0  0  0  0  0  0
    0.9590   21.6970  -27.8480 F   0  0  0  0  0  0  0  0  0  0  0  0
   -0.8570   23.1750  -28.3020 C   0  0  0  0  0  0  0  0  0  0  0  0
   -1.9840   23.5050  -29.0590 C   0  0  0  0  0  0  0  0  0  0  0  0
   -2.3900   22.6900  -30.1320 C   0  0  0  0  0  0  0  0  0  0  0  0
   -3.5860   22.9940  -30.8770 N   0  0  0  0  0  0  0  0  0  0  0  0
   -4.2830   24.2480  -30.8080 C   0  0  0  0  0  0  0  0  0  0  0  0
   -3.6700   25.2960  -30.4760 O   0  0  0  0  0  0  0  0  0  0  0  0
   -5.6580   24.3400  -31.2010 N   0  0  0  0  0  0  0  0  0  0  0  0
   -6.5710   23.2370  -31.2940 C   0  0  0  0  0  0  0  0  0  0  0  0
   -7.6150   23.0640  -30.3670 C   0  0  0  0  0  0  0  0  0  0  0  0
   -8.4870   21.9810  -30.4890 C   0  0  0  0  0  0  0  0  0  0  0  0
   -8.3360   21.0690  -31.5370 C   0  0  0  0  0  0  0  0  0  0  0  0
   -7.3210   21.2540  -32.4930 C   0  0  0  0  0  0  0  0  0  0  0  0
   -7.1210   20.3530  -33.5510 O   0  0  0  0  0  0  0  0  0  0  0  0
   -6.5220   19.0900  -33.4450 C   0  0  0  0  0  0  0  0  0  0  0  0
   -6.6840   18.3680  -32.2560 C   0  0  0  0  0  0  0  0  0  0  0  0
   -6.0940   17.1090  -32.1070 C   0  0  0  0  0  0  0  0  0  0  0  0
   -5.3230   16.5680  -33.1420 C   0  0  0  0  0  0  0  0  0  0  0  0
   -4.5800   14.9910  -32.9540 Cl  0  0  0  0  0  0  0  0  0  0  0  0
   -5.1360   17.2940  -34.3240 C   0  0  0  0  0  0  0  0  0  0  0  0
   -5.7290   18.5510  -34.4750 C   0  0  0  0  0  0  0  0  0  0  0  0
   -6.4430   22.3380  -32.3600 C   0  0  0  0  0  0  0  0  0  0  0  0
   -2.1161   18.6181  -33.3740 H   0  0  0  0  0  0  0  0  0  0  0  0
   -2.2656   20.1271  -34.3370 H   0  0  0  0  0  0  0  0  0  0  0  0
   -0.7205   19.2111  -34.3370 H   0  0  0  0  0  0  0  0  0  0  0  0
    0.5691   20.8061  -31.4260 H   0  0  0  0  0  0  0  0  0  0  0  0
    0.9222   19.9745  -32.9786 H   0  0  0  0  0  0  0  0  0  0  0  0
    0.4026   21.6940  -32.9786 H   0  0  0  0  0  0  0  0  0  0  0  0
    0.0351   20.2714  -29.8586 H   0  0  0  0  0  0  0  0  0  0  0  0
   -0.5424   23.8274  -27.4741 H   0  0  0  0  0  0  0  0  0  0  0  0
   -2.5592   24.4101  -28.8140 H   0  0  0  0  0  0  0  0  0  0  0  0
   -3.9690   22.2720  -31.5270 H   0  0  0  0  0  0  0  0  0  0  0  0
   -7.7443   23.7833  -29.5449 H   0  0  0  0  0  0  0  0  0  0  0  0
   -9.2967   21.8448  -29.7570 H   0  0  0  0  0  0  0  0  0  0  0  0
   -9.0122   20.2048  -31.6144 H   0  0  0  0  0  0  0  0  0  0  0  0
   -7.2788   18.7938  -31.4345 H   0  0  0  0  0  0  0  0  0  0  0  0
   -6.2362   16.5429  -31.1746 H   0  0  0  0  0  0  0  0  0  0  0  0
   -4.5219   16.8751  -35.1348 H   0  0  0  0  0  0  0  0  0  0  0  0
   -5.5750   19.1212  -35.4030 H   0  0  0  0  0  0  0  0  0  0  0  0
   -5.6439   22.4844  -33.1016 H   0  0  0  0  0  0  0  0  0  0  0  0
  1  2  1  0
  2  3  1  0
  2  4  1  0
  4  5  2  0
  4  6  1  0
  6  7  2  0
  7  8  1  0
  8  9  1  0
  8 10  2  0
 10 11  1  0
 11 12  2  0
 12 13  1  0
 13 14  1  0
 14 15  2  0
 14 16  1  0
 16 17  1  0
 17 18  2  0
 18 19  1  0
 19 20  2  0
 20 21  1  0
 21 22  1  0
 22 23  1  0
 23 24  2  0
 24 25  1  0
 25 26  2  0
 26 27  1  0
 26 28  1  0
 28 29  2  0
 21 30  2  0
 12  6  1  0
 30 17  1  0
 29 23  1  0
  1 31  1  0
  1 32  1  0
  1 33  1  0
  3 34  1  0
  3 35  1  0
  3 36  1  0
  7 37  1  0
 10 38  1  0
 11 39  1  0
 13 40  1  0
 18 41  1  0
 19 42  1  0
 20 43  1  0
 24 44  1  0
 25 45  1  0
 28 46  1  0
 29 47  1  0
 30 48  1  0
M  CHG  1  16  -1
M  END
>  <UniqueID>  (6) 
5

>  <SMILES>  (6) 
CN(C)C(=O)c1cc(F)ccc1NC(=O)[N-]c1cccc(Oc2ccc(Cl)cc2)c1

>  <Energy>  (6) 
68.91220982793146

>  <Genealogy>  (6) 
CN(C)C(=O)c1cc(F)ccc1NC(=O)[N-]c1cccc(Oc2ccc(Cl)cc2)c1 (protonated)
CN(C)C(=O)c1cc(F)ccc1NC(=O)[N-]c1cccc(Oc2ccc(Cl)cc2)c1 (3D coordinates assigned)
CN(C)C(=O)c1cc(F)ccc1NC(=O)[N-]c1cccc(Oc2ccc(Cl)cc2)c1 (optimized conformer: 68.91220982793146 kcal/mol)

>  <smiles>  (6) 
CN(C)C(=O)c1cc(F)ccc1NC(=O)Nc1cccc(Oc2ccc(Cl)cc2)c1

>  <score_type>  (6) 
oracle

>  <origin>  (6) 
adgpu

>  <m_score__min__energy>  (6) 
-10.130000000000001

>  <m_primary>  (6) 
energy

$$$$
6:0
     RDKit          3D

 55 57  0  0  0  0  0  0  0  0999 V2000
   -7.4530   19.6170  -32.1250 C   0  0  0  0  0  0  0  0  0  0  0  0
   -6.5590   20.7070  -32.6290 C   0  0  0  0  0  0  0  0  0  0  0  0
   -5.8630   20.4950  -33.6580 O   0  0  0  0  0  0  0  0  0  0  0  0
   -6.4710   22.0200  -31.9490 C   0  0  0  0  0  0  0  0  0  0  0  0
   -7.5420   22.7820  -31.5000 C   0  0  0  0  0  0  0  0  0  0  0  0
   -8.9940   22.4320  -31.6160 C   0  0  0  0  0  0  0  0  0  0  0  0
   -7.1000   23.9190  -30.9310 N   0  0  0  0  0  0  0  0  0  0  0  0
   -5.7560   23.9100  -31.0100 C   0  0  0  0  0  0  0  0  0  0  0  0
   -4.9240   25.0300  -30.5270 C   0  0  0  0  0  0  0  0  0  0  0  0
   -5.4860   26.0990  -30.1730 O   0  0  0  0  0  0  0  0  0  0  0  0
   -3.4950   24.9360  -30.4430 N   0  0  0  0  0  0  0  0  0  0  0  0
   -2.7510   24.3840  -29.3480 C   0  0  0  0  0  0  0  0  0  0  0  0
   -3.2270   24.5700  -28.0450 C   0  0  0  0  0  0  0  0  0  0  0  0
   -2.5220   24.0530  -26.9550 C   0  0  0  0  0  0  0  0  0  0  0  0
   -1.3170   23.3680  -27.1560 C   0  0  0  0  0  0  0  0  0  0  0  0
   -0.3640   22.8020  -25.7870 S   0  0  0  0  0  0  0  0  0  0  0  0
   -1.0690   21.6850  -25.0720 O   0  0  0  0  0  0  0  0  0  0  0  0
    0.9610   22.3020  -26.2930 O   0  0  0  0  0  0  0  0  0  0  0  0
   -0.1020   24.1110  -24.6740 N   0  0  0  0  0  0  0  0  0  0  0  0
   -0.1850   25.4940  -25.0700 C   0  0  0  0  0  0  0  0  0  0  0  0
   -1.1050   26.3550  -24.4460 C   0  0  0  0  0  0  0  0  0  0  0  0
   -1.2130   27.6900  -24.8340 C   0  0  0  0  0  0  0  0  0  0  0  0
   -0.4030   28.1950  -25.8560 C   0  0  0  0  0  0  0  0  0  0  0  0
   -0.4980   29.6390  -26.2530 C   0  0  0  0  0  0  0  0  0  0  0  0
    0.5470   27.3600  -26.4590 C   0  0  0  0  0  0  0  0  0  0  0  0
    0.6590   26.0100  -26.0830 C   0  0  0  0  0  0  0  0  0  0  0  0
    1.6760   25.1380  -26.7650 C   0  0  0  0  0  0  0  0  0  0  0  0
   -0.8290   23.1930  -28.4570 C   0  0  0  0  0  0  0  0  0  0  0  0
   -1.5370   23.7030  -29.5480 C   0  0  0  0  0  0  0  0  0  0  0  0
   -5.3210   22.7370  -31.6220 C   0  0  0  0  0  0  0  0  0  0  0  0
   -3.9010   22.2690  -31.7720 C   0  0  0  0  0  0  0  0  0  0  0  0
   -7.4505   19.6200  -31.0250 H   0  0  0  0  0  0  0  0  0  0  0  0
   -8.4771   19.7846  -32.4898 H   0  0  0  0  0  0  0  0  0  0  0  0
   -7.0882   18.6455  -32.4898 H   0  0  0  0  0  0  0  0  0  0  0  0
   -9.4275   22.3275  -30.6104 H   0  0  0  0  0  0  0  0  0  0  0  0
   -9.5208   23.2289  -32.1614 H   0  0  0  0  0  0  0  0  0  0  0  0
   -9.0999   21.4826  -32.1614 H   0  0  0  0  0  0  0  0  0  0  0  0
   -7.6940   24.6750  -30.5210 H   0  0  0  0  0  0  0  0  0  0  0  0
   -4.1612   25.1262  -27.8781 H   0  0  0  0  0  0  0  0  0  0  0  0
   -2.9146   24.1844  -25.9359 H   0  0  0  0  0  0  0  0  0  0  0  0
    0.2620   23.8560  -23.7300 H   0  0  0  0  0  0  0  0  0  0  0  0
   -1.7482   25.9702  -23.6409 H   0  0  0  0  0  0  0  0  0  0  0  0
   -1.9384   28.3487  -24.3341 H   0  0  0  0  0  0  0  0  0  0  0  0
   -0.5392   30.2656  -25.3499 H   0  0  0  0  0  0  0  0  0  0  0  0
    0.3840   29.9139  -26.8501 H   0  0  0  0  0  0  0  0  0  0  0  0
   -1.4084   29.7960  -26.8501 H   0  0  0  0  0  0  0  0  0  0  0  0
    1.2126   27.7653  -27.2353 H   0  0  0  0  0  0  0  0  0  0  0  0
    2.2812   24.6190  -26.0071 H   0  0  0  0  0  0  0  0  0  0  0  0
    1.1609   24.3966  -27.3935 H   0  0  0  0  0  0  0  0  0  0  0  0
    2.3301   25.7603  -27.3935 H   0  0  0  0  0  0  0  0  0  0  0  0
    0.1149   22.6522  -28.6203 H   0  0  0  0  0  0  0  0  0  0  0  0
   -1.1436   23.5715  -30.5668 H   0  0  0  0  0  0  0  0  0  0  0  0
   -3.4562   22.1224  -30.7767 H   0  0  0  0  0  0  0  0  0  0  0  0
   -3.8848   21.3180  -32.3246 H   0  0  0  0  0  0  0  0  0  0  0  0
   -3.3225   23.0240  -32.3246 H   0  0  0  0  0  0  0  0  0  0  0  0
  1  2  1  0
  2  3  2  0
  2  4  1  0
  4  5  2  0
  5  6  1  0
  5  7  1  0
  7  8  1  0
  8  9  1  0
  9 10  2  0
  9 11  1  0
 11 12  1  0
 12 13  2  0
 13 14  1  0
 14 15  2  0
 15 16  1  0
 16 17  2  0
 16 18  2  0
 16 19  1  0
 19 20  1  0
 20 21  2  0
 21 22  1  0
 22 23  2  0
 23 24  1  0
 23 25  1  0
 25 26  2  0
 26 27  1  0
 15 28  1  0
 28 29  2  0
  8 30  2  0
 30 31  1  0
 30  4  1  0
 29 12  1  0
 26 20  1  0
  1 32  1  0
  1 33  1  0
  1 34  1  0
  6 35  1  0
  6 36  1  0
  6 37  1  0
  7 38  1  0
 13 39  1  0
 14 40  1  0
 19 41  1  0
 21 42  1  0
 22 43  1  0
 24 44  1  0
 24 45  1  0
 24 46  1  0
 25 47  1  0
 27 48  1  0
 27 49  1  0
 27 50  1  0
 28 51  1  0
 29 52  1  0
 31 53  1  0
 31 54  1  0
 31 55  1  0
M  CHG  1  11  -1
M  END
>  <UniqueID>  (7) 
6

>  <SMILES>  (7) 
CC(=O)c1c(C)[nH]c(C(=O)[N-]c2ccc(S(=O)(=O)Nc3ccc(C)cc3C)cc2)c1C

>  <Energy>  (7) 
92.0234874496814

>  <Genealogy>  (7) 
CC(=O)c1c(C)[nH]c(C(=O)[N-]c2ccc(S(=O)(=O)Nc3ccc(C)cc3C)cc2)c1C (protonated)
CC(=O)c1c(C)[nH]c(C(=O)[N-]c2ccc(S(=O)(=O)Nc3ccc(C)cc3C)cc2)c1C (3D coordinates assigned)
CC(=O)c1c(C)[nH]c(C(=O)[N-]c2ccc(S(=O)(=O)Nc3ccc(C)cc3C)cc2)c1C (optimized conformer: 92.0234874496814 kcal/mol)

>  <smiles>  (7) 
CC(=O)c1c(C)[nH]c(C(=O)Nc2ccc(S(=O)(=O)Nc3ccc(C)cc3C)cc2)c1C

>  <score_type>  (7) 
oracle

>  <origin>  (7) 
adgpu

>  <m_score__min__energy>  (7) 
-11.98

>  <m_primary>  (7) 
energy

$$$$
7:0
     RDKit          3D

 39 41  0  0  0  0  0  0  0  0999 V2000
   -6.8560   24.5440  -30.1700 C   0  0  0  0  0  0  0  0  0  0  0  0
   -7.2200   23.7880  -31.2090 C   0  0  0  0  0  0  0  0  0  0  0  0
   -6.3110   23.5820  -32.3880 C   0  0  0  0  0  0  0  0  0  0  0  0
   -5.0560   22.9630  -31.9640 N   0  0  0  0  0  0  0  0  0  0  0  0
   -4.2420   23.5150  -31.0790 N   0  0  0  0  0  0  0  0  0  0  0  0
   -3.2050   22.6740  -30.8860 C   0  0  0  0  0  0  0  0  0  0  0  0
   -2.1000   22.9470  -29.9360 C   0  0  0  0  0  0  0  0  0  0  0  0
   -1.2520   21.8900  -29.5560 C   0  0  0  0  0  0  0  0  0  0  0  0
   -0.1930   22.1110  -28.6710 C   0  0  0  0  0  0  0  0  0  0  0  0
    0.0300   23.3860  -28.1490 C   0  0  0  0  0  0  0  0  0  0  0  0
    1.0860   23.6030  -27.2710 O   0  0  0  0  0  0  0  0  0  0  0  0
   -0.8120   24.4420  -28.5050 C   0  0  0  0  0  0  0  0  0  0  0  0
   -1.8780   24.2300  -29.3860 C   0  0  0  0  0  0  0  0  0  0  0  0
   -2.7210   25.2960  -29.6820 O   0  0  0  0  0  0  0  0  0  0  0  0
   -3.3820   21.5380  -31.6620 C   0  0  0  0  0  0  0  0  0  0  0  0
   -4.5720   21.7550  -32.3270 C   0  0  0  0  0  0  0  0  0  0  0  0
   -5.1930   20.8160  -33.3230 C   0  0  0  0  0  0  0  0  0  0  0  0
   -6.3750   20.1050  -32.7190 C   0  0  0  0  0  0  0  0  0  0  0  0
   -6.2200   18.8270  -32.1580 C   0  0  0  0  0  0  0  0  0  0  0  0
   -7.3180   18.1590  -31.6060 C   0  0  0  0  0  0  0  0  0  0  0  0
   -8.5780   18.7660  -31.6060 C   0  0  0  0  0  0  0  0  0  0  0  0
   -8.7400   20.0400  -32.1570 C   0  0  0  0  0  0  0  0  0  0  0  0
   -7.6440   20.7090  -32.7100 C   0  0  0  0  0  0  0  0  0  0  0  0
   -7.5415   24.6776  -29.3201 H   0  0  0  0  0  0  0  0  0  0  0  0
   -5.8707   25.0331  -30.1641 H   0  0  0  0  0  0  0  0  0  0  0  0
   -8.2082   23.3048  -31.2017 H   0  0  0  0  0  0  0  0  0  0  0  0
   -6.8086   22.9278  -33.1190 H   0  0  0  0  0  0  0  0  0  0  0  0
   -6.0904   24.5591  -32.8426 H   0  0  0  0  0  0  0  0  0  0  0  0
   -1.4242   20.8811  -29.9590 H   0  0  0  0  0  0  0  0  0  0  0  0
    0.4662   21.2781  -28.3852 H   0  0  0  0  0  0  0  0  0  0  0  0
   -0.6361   25.4456  -28.0905 H   0  0  0  0  0  0  0  0  0  0  0  0
   -2.7220   20.6608  -31.7318 H   0  0  0  0  0  0  0  0  0  0  0  0
   -5.5263   21.3893  -34.2006 H   0  0  0  0  0  0  0  0  0  0  0  0
   -4.4431   20.0674  -33.6185 H   0  0  0  0  0  0  0  0  0  0  0  0
   -5.2295   18.3485  -32.1526 H   0  0  0  0  0  0  0  0  0  0  0  0
   -7.1905   17.1563  -31.1719 H   0  0  0  0  0  0  0  0  0  0  0  0
   -9.4416   18.2405  -31.1722 H   0  0  0  0  0  0  0  0  0  0  0  0
   -9.7312   20.5171  -32.1556 H   0  0  0  0  0  0  0  0  0  0  0  0
   -7.7755   21.7129  -33.1401 H   0  0  0  0  0  0  0  0  0  0  0  0
  1  2  2  0
  2  3  1  0
  3  4  1  0
  4  5  1  0
  5  6  2  0
  6  7  1  0
  7  8  2  0
  8  9  1  0
  9 10  2  0
 10 11  1  0
 10 12  1  0
 12 13  2  0
 13 14  1  0
  6 15  1  0
 15 16  2  0
 16 17  1  0
 17 18  1  0
 18 19  2  0
 19 20  1  0
 20 21  2  0
 21 22  1  0
 22 23  2  0
 16  4  1  0
 23 18  1  0
 13  7  1  0
  1 24  1  0
  1 25  1  0
  2 26  1  0
  3 27  1  0
  3 28  1  0
  8 29  1  0
  9 30  1  0
 12 31  1  0
 15 32  1  0
 17 33  1  0
 17 34  1  0
 19 35  1  0
 20 36  1  0
 21 37  1  0
 22 38  1  0
 23 39  1  0
M  CHG  2  11  -1  14  -1
M  END
>  <UniqueID>  (8) 
7

>  <SMILES>  (8) 
C=CCn1nc(-c2ccc([O-])cc2[O-])cc1Cc1ccccc1

>  <Energy>  (8) 
69.80841070425696

>  <Genealogy>  (8) 
C=CCn1nc(-c2ccc([O-])cc2[O-])cc1Cc1ccccc1 (protonated)
C=CCn1nc(-c2ccc([O-])cc2[O-])cc1Cc1ccccc1 (3D coordinates assigned)
C=CCn1nc(-c2ccc([O-])cc2[O-])cc1Cc1ccccc1 (optimized conformer: 69.80841070425696 kcal/mol)

>  <smiles>  (8) 
C=CCn1nc(-c2ccc(O)cc2O)cc1Cc1ccccc1

>  <score_type>  (8) 
oracle

>  <origin>  (8) 
adgpu

>  <m_score__min__energy>  (8) 
-11.609999999999999

>  <m_primary>  (8) 
energy

$$$$
8:0
     RDKit          3D

 38 40  0  0  0  0  0  0  0  0999 V2000
   -9.4850   18.6250  -32.3390 C   0  0  0  0  0  0  0  0  0  0  0  0
   -8.6740   19.8640  -32.0970 C   0  0  0  0  0  0  0  0  0  0  0  0
   -9.0920   20.8070  -31.1470 C   0  0  0  0  0  0  0  0  0  0  0  0
   -8.3150   21.9400  -30.8880 C   0  0  0  0  0  0  0  0  0  0  0  0
   -7.1040   22.1430  -31.5720 C   0  0  0  0  0  0  0  0  0  0  0  0
   -6.2810   23.2860  -31.2970 N   0  0  0  0  0  0  0  0  0  0  0  0
   -6.6910   24.3600  -30.6450 N   0  0  0  0  0  0  0  0  0  0  0  0
   -5.6810   25.2130  -30.5460 N   0  0  0  0  0  0  0  0  0  0  0  0
   -4.5990   24.7040  -31.1180 N   0  0  0  0  0  0  0  0  0  0  0  0
   -4.9810   23.5010  -31.5810 C   0  0  0  0  0  0  0  0  0  0  0  0
   -3.8530   22.3280  -32.3460 S   0  0  0  0  0  0  0  0  0  0  0  0
   -3.6290   21.3260  -30.8370 C   0  0  0  0  0  0  0  0  0  0  0  0
   -3.0230   22.1500  -29.7450 C   0  0  0  0  0  0  0  0  0  0  0  0
   -1.8140   21.9730  -29.4390 O   0  0  0  0  0  0  0  0  0  0  0  0
   -3.7990   23.1860  -29.1190 N   0  0  0  0  0  0  0  0  0  0  0  0
   -3.3250   24.0460  -28.0660 C   0  0  0  0  0  0  0  0  0  0  0  0
   -4.1580   24.4530  -27.0060 C   0  0  0  0  0  0  0  0  0  0  0  0
   -3.6650   25.2950  -26.0040 C   0  0  0  0  0  0  0  0  0  0  0  0
   -2.3480   25.7560  -26.0610 C   0  0  0  0  0  0  0  0  0  0  0  0
   -1.5250   25.3870  -27.1280 C   0  0  0  0  0  0  0  0  0  0  0  0
   -2.0120   24.5410  -28.1280 C   0  0  0  0  0  0  0  0  0  0  0  0
   -6.6760   21.1820  -32.5020 C   0  0  0  0  0  0  0  0  0  0  0  0
   -7.4560   20.0520  -32.7650 C   0  0  0  0  0  0  0  0  0  0  0  0
   -9.7748   18.1823  -31.3746 H   0  0  0  0  0  0  0  0  0  0  0  0
  -10.3889   18.8841  -32.9099 H   0  0  0  0  0  0  0  0  0  0  0  0
   -8.8859   17.9003  -32.9099 H   0  0  0  0  0  0  0  0  0  0  0  0
  -10.0358   20.6545  -30.6030 H   0  0  0  0  0  0  0  0  0  0  0  0
   -8.6533   22.6768  -30.1446 H   0  0  0  0  0  0  0  0  0  0  0  0
   -4.6073   20.9483  -30.5049 H   0  0  0  0  0  0  0  0  0  0  0  0
   -2.9554   20.4867  -31.0645 H   0  0  0  0  0  0  0  0  0  0  0  0
   -4.7300   23.4050  -29.5400 H   0  0  0  0  0  0  0  0  0  0  0  0
   -5.2014   24.1070  -26.9659 H   0  0  0  0  0  0  0  0  0  0  0  0
   -4.3159   25.5947  -25.1694 H   0  0  0  0  0  0  0  0  0  0  0  0
   -1.9588   26.4093  -25.2662 H   0  0  0  0  0  0  0  0  0  0  0  0
   -0.4925   25.7628  -27.1810 H   0  0  0  0  0  0  0  0  0  0  0  0
   -1.3621   24.2606  -28.9701 H   0  0  0  0  0  0  0  0  0  0  0  0
   -5.7196   21.3193  -33.0277 H   0  0  0  0  0  0  0  0  0  0  0  0
   -7.1128   19.3078  -33.4987 H   0  0  0  0  0  0  0  0  0  0  0  0
  1  2  1  0
  2  3  2  0
  3  4  1  0
  4  5  2  0
  5  6  1  0
  6  7  1  0
  7  8  2  0
  8  9  1  0
  9 10  2  0
 10 11  1  0
 11 12  1  0
 12 13  1  0
 13 14  2  0
 13 15  1  0
 15 16  1  0
 16 17  2  0
 17 18  1  0
 18 19  2  0
 19 20  1  0
 20 21  2  0
  5 22  1  0
 22 23  2  0
 23  2  1  0
 10  6  1  0
 21 16  1  0
  1 24  1  0
  1 25  1  0
  1 26  1  0
  3 27  1  0
  4 28  1  0
 12 29  1  0
 12 30  1  0
 15 31  1  0
 17 32  1  0
 18 33  1  0
 19 34  1  0
 20 35  1  0
 21 36  1  0
 22 37  1  0
 23 38  1  0
M  END
>  <UniqueID>  (9) 
8

>  <SMILES>  (9) 
Cc1ccc(-n2nnnc2SCC(=O)Nc2ccccc2)cc1

>  <Energy>  (9) 
77.77595402461952

>  <Genealogy>  (9) 
Cc1ccc(-n2nnnc2SCC(=O)Nc2ccccc2)cc1 (3D coordinates assigned)
Cc1ccc(-n2nnnc2SCC(=O)Nc2ccccc2)cc1 (optimized conformer: 77.77595402461952 kcal/mol)

>  <smiles>  (9) 
Cc1ccc(-n2nnnc2SCC(=O)Nc2ccccc2)cc1

>  <score_type>  (9) 
oracle

>  <origin>  (9) 
adgpu

>  <m_score__min__energy>  (9) 
-9.3599999999999994

>  <m_primary>  (9) 
energy

$$$$
9:0
     RDKit          3D

 50 53  0  0  0  0  0  0  0  0999 V2000
    1.6080   22.6290  -35.7140 C   0  0  0  0  0  0  0  0  0  0  0  0
    0.2180   22.3150  -35.3970 N   0  0  0  0  0  0  0  0  0  0  0  0
   -0.1720   21.3510  -34.4020 C   0  0  0  0  0  0  0  0  0  0  0  0
    0.6810   20.2980  -34.0170 C   0  0  0  0  0  0  0  0  0  0  0  0
    0.2750   19.3840  -33.0420 C   0  0  0  0  0  0  0  0  0  0  0  0
   -0.9810   19.5020  -32.4460 C   0  0  0  0  0  0  0  0  0  0  0  0
   -1.8540   20.5310  -32.8340 C   0  0  0  0  0  0  0  0  0  0  0  0
   -3.1440   20.6750  -32.2160 N   0  0  0  0  0  0  0  0  0  0  0  0
   -4.2130   20.0120  -32.6190 N   0  0  0  0  0  0  0  0  0  0  0  0
   -5.2450   20.4750  -31.8840 C   0  0  0  0  0  0  0  0  0  0  0  0
   -6.6460   20.0030  -32.0540 C   0  0  0  0  0  0  0  0  0  0  0  0
   -7.6580   20.9710  -32.2040 C   0  0  0  0  0  0  0  0  0  0  0  0
   -8.9940   20.5970  -32.3460 C   0  0  0  0  0  0  0  0  0  0  0  0
   -9.3460   19.2500  -32.3420 C   0  0  0  0  0  0  0  0  0  0  0  0
   -8.3630   18.2710  -32.2060 C   0  0  0  0  0  0  0  0  0  0  0  0
   -7.0070   18.6250  -32.0720 C   0  0  0  0  0  0  0  0  0  0  0  0
   -5.9880   17.5200  -31.9610 C   0  0  0  0  0  0  0  0  0  0  0  0
   -4.8590   21.4380  -31.0180 N   0  0  0  0  0  0  0  0  0  0  0  0
   -3.5330   21.5310  -31.2450 C   0  0  0  0  0  0  0  0  0  0  0  0
   -2.6510   22.4090  -30.4480 C   0  0  0  0  0  0  0  0  0  0  0  0
   -3.0830   23.6740  -30.0190 C   0  0  0  0  0  0  0  0  0  0  0  0
   -2.2310   24.4990  -29.2810 C   0  0  0  0  0  0  0  0  0  0  0  0
   -0.9310   24.0850  -28.9720 C   0  0  0  0  0  0  0  0  0  0  0  0
   -0.1140   24.9480  -28.2260 O   0  0  0  0  0  0  0  0  0  0  0  0
   -0.5610   25.7160  -27.1140 C   0  0  0  0  0  0  0  0  0  0  0  0
   -0.4870   22.8260  -29.4210 C   0  0  0  0  0  0  0  0  0  0  0  0
   -1.3400   22.0010  -30.1600 C   0  0  0  0  0  0  0  0  0  0  0  0
   -1.4350   21.4610  -33.7970 C   0  0  0  0  0  0  0  0  0  0  0  0
    2.1768   22.7575  -34.7813 H   0  0  0  0  0  0  0  0  0  0  0  0
    2.0452   21.8070  -36.2998 H   0  0  0  0  0  0  0  0  0  0  0  0
    1.6494   23.5591  -36.2998 H   0  0  0  0  0  0  0  0  0  0  0  0
   -0.5260   22.8220  -35.9280 H   0  0  0  0  0  0  0  0  0  0  0  0
    1.6706   20.1952  -34.4861 H   0  0  0  0  0  0  0  0  0  0  0  0
    0.9485   18.5674  -32.7427 H   0  0  0  0  0  0  0  0  0  0  0  0
   -1.2884   18.7863  -31.6693 H   0  0  0  0  0  0  0  0  0  0  0  0
   -7.3906   22.0380  -32.2092 H   0  0  0  0  0  0  0  0  0  0  0  0
   -9.7707   21.3673  -32.4613 H   0  0  0  0  0  0  0  0  0  0  0  0
  -10.4013   18.9578  -32.4463 H   0  0  0  0  0  0  0  0  0  0  0  0
   -8.6503   17.2092  -32.2034 H   0  0  0  0  0  0  0  0  0  0  0  0
   -5.7919   17.3073  -30.8997 H   0  0  0  0  0  0  0  0  0  0  0  0
   -6.3745   16.6142  -32.4511 H   0  0  0  0  0  0  0  0  0  0  0  0
   -5.0540   17.8320  -32.4511 H   0  0  0  0  0  0  0  0  0  0  0  0
   -4.0985   24.0175  -30.2655 H   0  0  0  0  0  0  0  0  0  0  0  0
   -2.5854   25.4829  -28.9398 H   0  0  0  0  0  0  0  0  0  0  0  0
   -0.2686   25.2136  -26.1801 H   0  0  0  0  0  0  0  0  0  0  0  0
   -0.1037   26.7157  -27.1513 H   0  0  0  0  0  0  0  0  0  0  0  0
   -1.6562   25.8121  -27.1513 H   0  0  0  0  0  0  0  0  0  0  0  0
    0.5347   22.4907  -29.1893 H   0  0  0  0  0  0  0  0  0  0  0  0
   -0.9807   21.0250  -30.5182 H   0  0  0  0  0  0  0  0  0  0  0  0
   -2.1037   22.2866  -34.0819 H   0  0  0  0  0  0  0  0  0  0  0  0
  1  2  1  0
  2  3  1  0
  3  4  2  0
  4  5  1  0
  5  6  2  0
  6  7  1  0
  7  8  1  0
  8  9  1  0
  9 10  2  0
 10 11  1  0
 11 12  2  0
 12 13  1  0
 13 14  2  0
 14 15  1  0
 15 16  2  0
 16 17  1  0
 10 18  1  0
 18 19  2  0
 19 20  1  0
 20 21  2  0
 21 22  1  0
 22 23  2  0
 23 24  1  0
 24 25  1  0
 23 26  1  0
 26 27  2  0
  7 28  2  0
 28  3  1  0
 19  8  1  0
 27 20  1  0
 16 11  1  0
  1 29  1  0
  1 30  1  0
  1 31  1  0
  2 32  1  0
  4 33  1  0
  5 34  1  0
  6 35  1  0
 12 36  1  0
 13 37  1  0
 14 38  1  0
 15 39  1  0
 17 40  1  0
 17 41  1  0
 17 42  1  0
 21 43  1  0
 22 44  1  0
 25 45  1  0
 25 46  1  0
 25 47  1  0
 26 48  1  0
 27 49  1  0
 28 50  1  0
M  END
>  <UniqueID>  (10) 
9

>  <SMILES>  (10) 
CNc1cccc(-n2nc(-c3ccccc3C)nc2-c2ccc(OC)cc2)c1

>  <Energy>  (10) 
97.79471665035939

>  <Genealogy>  (10) 
CNc1cccc(-n2nc(-c3ccccc3C)nc2-c2ccc(OC)cc2)c1 (3D coordinates assigned)
CNc1cccc(-n2nc(-c3ccccc3C)nc2-c2ccc(OC)cc2)c1 (optimized conformer: 97.79471665035939 kcal/mol)

>  <smiles>  (10) 
CNc1cccc(-n2nc(-c3ccccc3C)nc2-c2ccc(OC)cc2)c1

>  <score_type>  (10) 
oracle

>  <origin>  (10) 
adgpu

>  <m_score__min__energy>  (10) 
-8.5500000000000007

>  <m_primary>  (10) 
energy

$$$$
10:0
     RDKit          3D

 36 38  0  0  0  0  0  0  0  0999 V2000
   -8.9060   18.9590  -32.2700 C   0  0  0  0  0  0  0  0  0  0  0  0
   -7.9930   20.1210  -32.0120 C   0  0  0  0  0  0  0  0  0  0  0  0
   -8.4350   21.2100  -31.2490 C   0  0  0  0  0  0  0  0  0  0  0  0
   -7.5960   22.3020  -31.0320 C   0  0  0  0  0  0  0  0  0  0  0  0
   -6.3050   22.3280  -31.5780 C   0  0  0  0  0  0  0  0  0  0  0  0
   -5.4600   23.4520  -31.3040 N   0  0  0  0  0  0  0  0  0  0  0  0
   -5.7520   24.7060  -31.5950 N   0  0  0  0  0  0  0  0  0  0  0  0
   -4.7940   25.4860  -31.1150 N   0  0  0  0  0  0  0  0  0  0  0  0
   -3.8810   24.7550  -30.4890 N   0  0  0  0  0  0  0  0  0  0  0  0
   -4.3100   23.4850  -30.6080 C   0  0  0  0  0  0  0  0  0  0  0  0
   -3.5050   22.0720  -29.8460 S   0  0  0  0  0  0  0  0  0  0  0  0
   -1.8520   22.8470  -29.7880 C   0  0  0  0  0  0  0  0  0  0  0  0
   -1.7910   23.9020  -28.7250 C   0  0  0  0  0  0  0  0  0  0  0  0
   -2.6300   23.8360  -27.6030 C   0  0  0  0  0  0  0  0  0  0  0  0
   -2.5310   24.8180  -26.6160 C   0  0  0  0  0  0  0  0  0  0  0  0
   -1.5990   25.8490  -26.7520 C   0  0  0  0  0  0  0  0  0  0  0  0
   -0.7780   25.8820  -27.8810 C   0  0  0  0  0  0  0  0  0  0  0  0
   -0.8890   24.9170  -28.8320 N   0  0  0  0  0  0  0  0  0  0  0  0
   -5.8710   21.2620  -32.3980 C   0  0  0  0  0  0  0  0  0  0  0  0
   -4.5160   21.2680  -33.0520 C   0  0  0  0  0  0  0  0  0  0  0  0
   -6.7180   20.1590  -32.5950 C   0  0  0  0  0  0  0  0  0  0  0  0
   -9.2394   18.5347  -31.3114 H   0  0  0  0  0  0  0  0  0  0  0  0
   -9.7803   19.3000  -32.8439 H   0  0  0  0  0  0  0  0  0  0  0  0
   -8.3678   18.1902  -32.8439 H   0  0  0  0  0  0  0  0  0  0  0  0
   -9.4477   21.2032  -30.8197 H   0  0  0  0  0  0  0  0  0  0  0  0
   -7.9498   23.1501  -30.4275 H   0  0  0  0  0  0  0  0  0  0  0  0
   -1.0997   22.0742  -29.5716 H   0  0  0  0  0  0  0  0  0  0  0  0
   -1.6512   23.3180  -30.7615 H   0  0  0  0  0  0  0  0  0  0  0  0
   -3.3589   23.0184  -27.5019 H   0  0  0  0  0  0  0  0  0  0  0  0
   -3.1857   24.7798  -25.7329 H   0  0  0  0  0  0  0  0  0  0  0  0
   -1.5126   26.6263  -25.9785 H   0  0  0  0  0  0  0  0  0  0  0  0
   -0.0408   26.6895  -28.0010 H   0  0  0  0  0  0  0  0  0  0  0  0
   -3.7350   21.2715  -32.2774 H   0  0  0  0  0  0  0  0  0  0  0  0
   -4.4072   20.3703  -33.6784 H   0  0  0  0  0  0  0  0  0  0  0  0
   -4.4152   22.1666  -33.6784 H   0  0  0  0  0  0  0  0  0  0  0  0
   -6.3775   19.3155  -33.2135 H   0  0  0  0  0  0  0  0  0  0  0  0
  1  2  1  0
  2  3  2  0
  3  4  1  0
  4  5  2  0
  5  6  1  0
  6  7  1  0
  7  8  2  0
  8  9  1  0
  9 10  2  0
 10 11  1  0
 11 12  1  0
 12 13  1  0
 13 14  2  0
 14 15  1  0
 15 16  2  0
 16 17  1  0
 17 18  2  0
  5 19  1  0
 19 20  1  0
 19 21  2  0
 21  2  1  0
 10  6  1  0
 18 13  1  0
  1 22  1  0
  1 23  1  0
  1 24  1  0
  3 25  1  0
  4 26  1  0
 12 27  1  0
 12 28  1  0
 14 29  1  0
 15 30  1  0
 16 31  1  0
 17 32  1  0
 20 33  1  0
 20 34  1  0
 20 35  1  0
 21 36  1  0
M  END
>  <UniqueID>  (11) 
10

>  <SMILES>  (11) 
Cc1ccc(-n2nnnc2SCc2ccccn2)c(C)c1

>  <Energy>  (11) 
80.23778098342007

>  <Genealogy>  (11) 
Cc1ccc(-n2nnnc2SCc2ccccn2)c(C)c1 (3D coordinates assigned)
Cc1ccc(-n2nnnc2SCc2ccccn2)c(C)c1 (optimized conformer: 80.23778098342007 kcal/mol)

>  <smiles>  (11) 
Cc1ccc(-n2nnnc2SCc2ccccn2)c(C)c1

>  <score_type>  (11) 
oracle

>  <origin>  (11) 
adgpu

>  <m_score__min__energy>  (11) 
-9.0500000000000007

>  <m_primary>  (11) 
energy

$$$$
11:0
     RDKit          3D

 32 33  0  0  0  0  0  0  0  0999 V2000
   -7.2330   21.0830  -31.3260 C   0  0  0  0  0  0  0  0  0  0  0  0
   -6.3700   22.2860  -31.0830 C   0  0  0  0  0  0  0  0  0  0  0  0
   -6.9120   23.5740  -31.1830 C   0  0  0  0  0  0  0  0  0  0  0  0
   -6.0970   24.6950  -31.0050 C   0  0  0  0  0  0  0  0  0  0  0  0
   -4.7320   24.5420  -30.7280 C   0  0  0  0  0  0  0  0  0  0  0  0
   -3.9250   25.6640  -30.5510 O   0  0  0  0  0  0  0  0  0  0  0  0
   -4.1780   23.2540  -30.6230 C   0  0  0  0  0  0  0  0  0  0  0  0
   -2.7690   23.0970  -30.3800 N   0  0  0  0  0  0  0  0  0  0  0  0
   -2.1000   23.5860  -29.2080 C   0  0  0  0  0  0  0  0  0  0  0  0
   -0.8230   22.7300  -28.6280 S   0  0  0  0  0  0  0  0  0  0  0  0
   -2.5580   24.7860  -28.5540 N   0  0  0  0  0  0  0  0  0  0  0  0
   -1.8680   25.4480  -27.4820 C   0  0  0  0  0  0  0  0  0  0  0  0
   -0.7320   26.2380  -27.7270 C   0  0  0  0  0  0  0  0  0  0  0  0
   -0.0980   26.9050  -26.6750 C   0  0  0  0  0  0  0  0  0  0  0  0
   -0.6040   26.8030  -25.3760 C   0  0  0  0  0  0  0  0  0  0  0  0
   -1.7500   26.0420  -25.1290 C   0  0  0  0  0  0  0  0  0  0  0  0
   -2.3860   25.3740  -26.1800 C   0  0  0  0  0  0  0  0  0  0  0  0
   -5.0000   22.1300  -30.8280 C   0  0  0  0  0  0  0  0  0  0  0  0
   -7.5418   20.6525  -30.3620 H   0  0  0  0  0  0  0  0  0  0  0  0
   -8.1247   21.3808  -31.8971 H   0  0  0  0  0  0  0  0  0  0  0  0
   -6.6652   20.3337  -31.8971 H   0  0  0  0  0  0  0  0  0  0  0  0
   -7.9822   23.7032  -31.4023 H   0  0  0  0  0  0  0  0  0  0  0  0
   -6.5295   25.7034  -31.0828 H   0  0  0  0  0  0  0  0  0  0  0  0
   -2.9510   25.6670  -30.8320 H   0  0  0  0  0  0  0  0  0  0  0  0
   -2.2010   22.5770  -31.0870 H   0  0  0  0  0  0  0  0  0  0  0  0
   -3.4730   25.1970  -28.8450 H   0  0  0  0  0  0  0  0  0  0  0  0
   -0.3402   26.3318  -28.7506 H   0  0  0  0  0  0  0  0  0  0  0  0
    0.7996   27.5105  -26.8694 H   0  0  0  0  0  0  0  0  0  0  0  0
   -0.0999   27.3221  -24.5475 H   0  0  0  0  0  0  0  0  0  0  0  0
   -2.1517   25.9685  -24.1076 H   0  0  0  0  0  0  0  0  0  0  0  0
   -3.2963   24.7880  -25.9853 H   0  0  0  0  0  0  0  0  0  0  0  0
   -4.5641   21.1209  -30.7878 H   0  0  0  0  0  0  0  0  0  0  0  0
  1  2  1  0
  2  3  2  0
  3  4  1  0
  4  5  2  0
  5  6  1  0
  5  7  1  0
  7  8  1  0
  8  9  1  0
  9 10  2  0
  9 11  1  0
 11 12  1  0
 12 13  2  0
 13 14  1  0
 14 15  2  0
 15 16  1  0
 16 17  2  0
  7 18  2  0
 18  2  1  0
 17 12  1  0
  1 19  1  0
  1 20  1  0
  1 21  1  0
  3 22  1  0
  4 23  1  0
  6 24  1  0
  8 25  1  0
 11 26  1  0
 13 27  1  0
 14 28  1  0
 15 29  1  0
 16 30  1  0
 17 31  1  0
 18 32  1  0
M  END
>  <UniqueID>  (12) 
11

>  <SMILES>  (12) 
Cc1ccc(O)c(NC(=S)Nc2ccccc2)c1

>  <Energy>  (12) 
41.96699850067581

>  <Genealogy>  (12) 
Cc1ccc(O)c(NC(=S)Nc2ccccc2)c1 (3D coordinates assigned)
Cc1ccc(O)c(NC(=S)Nc2ccccc2)c1 (optimized conformer: 41.96699850067581 kcal/mol)

>  <smiles>  (12) 
Cc1ccc(O)c(NC(=S)Nc2ccccc2)c1

>  <score_type>  (12) 
oracle

>  <origin>  (12) 
adgpu

>  <m_score__min__energy>  (12) 
-8.3800000000000008

>  <m_primary>  (12) 
energy

$$$$
12:0
     RDKit          3D

 35 36  0  0  0  0  0  0  0  0999 V2000
   -3.0070   24.6170  -27.1350 C   0  0  0  0  0  0  0  0  0  0  0  0
   -1.8940   25.1910  -27.9950 C   0  0  0  0  0  0  0  0  0  0  0  0
   -2.3320   25.2950  -29.3460 O   0  0  0  0  0  0  0  0  0  0  0  0
   -3.1030   24.3050  -29.9640 C   0  0  0  0  0  0  0  0  0  0  0  0
   -2.6670   22.9800  -29.9490 C   0  0  0  0  0  0  0  0  0  0  0  0
   -3.4410   22.0160  -30.6000 C   0  0  0  0  0  0  0  0  0  0  0  0
   -3.0740   20.8120  -30.6120 O   0  0  0  0  0  0  0  0  0  0  0  0
   -4.5920   22.3790  -31.2240 N   0  0  0  0  0  0  0  0  0  0  0  0
   -5.0080   23.6710  -31.2200 C   0  0  0  0  0  0  0  0  0  0  0  0
   -6.5270   24.1320  -32.0510 S   0  0  0  0  0  0  0  0  0  0  0  0
   -7.5720   22.9260  -31.1580 C   0  0  0  0  0  0  0  0  0  0  0  0
   -7.7010   21.6510  -31.9370 C   0  0  0  0  0  0  0  0  0  0  0  0
   -8.8410   21.1330  -32.0820 O   0  0  0  0  0  0  0  0  0  0  0  0
   -6.5260   20.9970  -32.4440 N   0  0  0  0  0  0  0  0  0  0  0  0
   -6.5230   19.6520  -32.9500 C   0  0  0  0  0  0  0  0  0  0  0  0
   -7.2050   18.6500  -32.2430 C   0  0  0  0  0  0  0  0  0  0  0  0
   -7.2350   17.3380  -32.7270 C   0  0  0  0  0  0  0  0  0  0  0  0
   -6.5680   17.0130  -33.9110 C   0  0  0  0  0  0  0  0  0  0  0  0
   -6.6000   15.7420  -34.3810 F   0  0  0  0  0  0  0  0  0  0  0  0
   -5.8610   17.9980  -34.6060 C   0  0  0  0  0  0  0  0  0  0  0  0
   -5.8300   19.3110  -34.1260 C   0  0  0  0  0  0  0  0  0  0  0  0
   -4.2690   24.6220  -30.5900 N   0  0  0  0  0  0  0  0  0  0  0  0
   -2.7538   24.7476  -26.0725 H   0  0  0  0  0  0  0  0  0  0  0  0
   -3.9482   25.1421  -27.3549 H   0  0  0  0  0  0  0  0  0  0  0  0
   -3.1249   23.5457  -27.3549 H   0  0  0  0  0  0  0  0  0  0  0  0
   -1.6221   26.1893  -27.6216 H   0  0  0  0  0  0  0  0  0  0  0  0
   -1.0191   24.5260  -27.9474 H   0  0  0  0  0  0  0  0  0  0  0  0
   -1.7349   22.7004  -29.4362 H   0  0  0  0  0  0  0  0  0  0  0  0
   -7.1154   22.7070  -30.1815 H   0  0  0  0  0  0  0  0  0  0  0  0
   -8.5740   23.3597  -31.0244 H   0  0  0  0  0  0  0  0  0  0  0  0
   -5.6020   21.4380  -32.2370 H   0  0  0  0  0  0  0  0  0  0  0  0
   -7.7191   18.8977  -31.3026 H   0  0  0  0  0  0  0  0  0  0  0  0
   -7.7843   16.5612  -32.1749 H   0  0  0  0  0  0  0  0  0  0  0  0
   -5.3277   17.7398  -35.5328 H   0  0  0  0  0  0  0  0  0  0  0  0
   -5.2618   20.0800  -34.6698 H   0  0  0  0  0  0  0  0  0  0  0  0
  1  2  1  0
  2  3  1  0
  3  4  1  0
  4  5  2  0
  5  6  1  0
  6  7  2  0
  6  8  1  0
  8  9  2  0
  9 10  1  0
 10 11  1  0
 11 12  1  0
 12 13  2  0
 12 14  1  0
 14 15  1  0
 15 16  2  0
 16 17  1  0
 17 18  2  0
 18 19  1  0
 18 20  1  0
 20 21  2  0
  9 22  1  0
 22  4  1  0
 21 15  1  0
  1 23  1  0
  1 24  1  0
  1 25  1  0
  2 26  1  0
  2 27  1  0
  5 28  1  0
 11 29  1  0
 11 30  1  0
 14 31  1  0
 16 32  1  0
 17 33  1  0
 20 34  1  0
 21 35  1  0
M  CHG  1  22  -1
M  END
>  <UniqueID>  (13) 
12

>  <SMILES>  (13) 
CCOc1cc(=O)nc(SCC(=O)Nc2ccc(F)cc2)[n-]1

>  <Energy>  (13) 
27.785972308425652

>  <Genealogy>  (13) 
CCOc1cc(=O)nc(SCC(=O)Nc2ccc(F)cc2)[n-]1 (protonated)
CCOc1cc(=O)nc(SCC(=O)Nc2ccc(F)cc2)[n-]1 (3D coordinates assigned)
CCOc1cc(=O)nc(SCC(=O)Nc2ccc(F)cc2)[n-]1 (optimized conformer: 27.785972308425652 kcal/mol)

>  <smiles>  (13) 
CCOc1cc(=O)nc(SCC(=O)Nc2ccc(F)cc2)[nH]1

>  <score_type>  (13) 
oracle

>  <origin>  (13) 
adgpu

>  <m_score__min__energy>  (13) 
-8.1600000000000001

>  <m_primary>  (13) 
energy

$$$$
13:0
     RDKit          3D

 45 47  0  0  0  0  0  0  0  0999 V2000
   -0.8920   26.4170  -28.1250 C   0  0  0  0  0  0  0  0  0  0  0  0
   -1.7440   25.6360  -28.9550 O   0  0  0  0  0  0  0  0  0  0  0  0
   -1.9110   24.2460  -28.8420 C   0  0  0  0  0  0  0  0  0  0  0  0
   -0.8080   23.3690  -28.8610 C   0  0  0  0  0  0  0  0  0  0  0  0
   -1.0000   21.9880  -28.7860 C   0  0  0  0  0  0  0  0  0  0  0  0
   -2.2890   21.4650  -28.6980 C   0  0  0  0  0  0  0  0  0  0  0  0
   -3.3910   22.3220  -28.6760 C   0  0  0  0  0  0  0  0  0  0  0  0
   -3.2150   23.7140  -28.7270 C   0  0  0  0  0  0  0  0  0  0  0  0
   -4.3760   24.5580  -28.6710 N   0  0  0  0  0  0  0  0  0  0  0  0
   -5.2560   25.0530  -30.0840 S   0  0  0  0  0  0  0  0  0  0  0  0
   -6.0340   26.2990  -29.7650 O   0  0  0  0  0  0  0  0  0  0  0  0
   -4.2850   25.3530  -31.1920 O   0  0  0  0  0  0  0  0  0  0  0  0
   -6.3350   23.7680  -30.6240 C   0  0  0  0  0  0  0  0  0  0  0  0
   -7.0650   23.0320  -29.6830 C   0  0  0  0  0  0  0  0  0  0  0  0
   -7.9590   22.0450  -30.1020 C   0  0  0  0  0  0  0  0  0  0  0  0
   -8.1330   21.7770  -31.4700 C   0  0  0  0  0  0  0  0  0  0  0  0
   -9.0880   20.7380  -31.9200 C   0  0  0  0  0  0  0  0  0  0  0  0
  -10.2290   21.0790  -32.3290 O   0  0  0  0  0  0  0  0  0  0  0  0
   -8.7310   19.3490  -31.9490 N   0  0  0  0  0  0  0  0  0  0  0  0
   -7.6110   18.7940  -32.6520 C   0  0  0  0  0  0  0  0  0  0  0  0
   -7.2700   17.4340  -32.5360 C   0  0  0  0  0  0  0  0  0  0  0  0
   -6.1860   16.9180  -33.2510 C   0  0  0  0  0  0  0  0  0  0  0  0
   -5.4310   17.7510  -34.0820 C   0  0  0  0  0  0  0  0  0  0  0  0
   -4.3040   17.2210  -34.8050 C   0  0  0  0  0  0  0  0  0  0  0  0
   -3.3990   16.7930  -35.3850 N   0  0  0  0  0  0  0  0  0  0  0  0
   -5.7770   19.1020  -34.2140 C   0  0  0  0  0  0  0  0  0  0  0  0
   -6.8710   19.6160  -33.5110 C   0  0  0  0  0  0  0  0  0  0  0  0
   -7.3740   22.4950  -32.4090 C   0  0  0  0  0  0  0  0  0  0  0  0
   -6.4850   23.4870  -31.9890 C   0  0  0  0  0  0  0  0  0  0  0  0
   -1.1184   26.2095  -27.0687 H   0  0  0  0  0  0  0  0  0  0  0  0
    0.1574   26.1606  -28.3323 H   0  0  0  0  0  0  0  0  0  0  0  0
   -1.0564   27.4847  -28.3323 H   0  0  0  0  0  0  0  0  0  0  0  0
    0.2115   23.7753  -28.9354 H   0  0  0  0  0  0  0  0  0  0  0  0
   -0.1326   21.3117  -28.7964 H   0  0  0  0  0  0  0  0  0  0  0  0
   -2.4381   20.3764  -28.6459 H   0  0  0  0  0  0  0  0  0  0  0  0
   -4.4063   21.9028  -28.6182 H   0  0  0  0  0  0  0  0  0  0  0  0
   -4.5460   25.1120  -27.8020 H   0  0  0  0  0  0  0  0  0  0  0  0
   -6.9336   23.2322  -28.6094 H   0  0  0  0  0  0  0  0  0  0  0  0
   -8.5309   21.4735  -29.3561 H   0  0  0  0  0  0  0  0  0  0  0  0
   -7.8584   16.7750  -31.8806 H   0  0  0  0  0  0  0  0  0  0  0  0
   -5.9259   15.8531  -33.1597 H   0  0  0  0  0  0  0  0  0  0  0  0
   -5.1879   19.7588  -34.8709 H   0  0  0  0  0  0  0  0  0  0  0  0
   -7.1521   20.6724  -33.6334 H   0  0  0  0  0  0  0  0  0  0  0  0
   -7.4804   22.2747  -33.4814 H   0  0  0  0  0  0  0  0  0  0  0  0
   -5.9006   24.0496  -32.7319 H   0  0  0  0  0  0  0  0  0  0  0  0
  1  2  1  0
  2  3  1  0
  3  4  2  0
  4  5  1  0
  5  6  2  0
  6  7  1  0
  7  8  2  0
  8  9  1  0
  9 10  1  0
 10 11  2  0
 10 12  2  0
 10 13  1  0
 13 14  2  0
 14 15  1  0
 15 16  2  0
 16 17  1  0
 17 18  2  0
 17 19  1  0
 19 20  1  0
 20 21  2  0
 21 22  1  0
 22 23  2  0
 23 24  1  0
 24 25  3  0
 23 26  1  0
 26 27  2  0
 16 28  1  0
 28 29  2  0
  8  3  1  0
 29 13  1  0
 27 20  1  0
  1 30  1  0
  1 31  1  0
  1 32  1  0
  4 33  1  0
  5 34  1  0
  6 35  1  0
  7 36  1  0
  9 37  1  0
 14 38  1  0
 15 39  1  0
 21 40  1  0
 22 41  1  0
 26 42  1  0
 27 43  1  0
 28 44  1  0
 29 45  1  0
M  CHG  1  19  -1
M  END
>  <UniqueID>  (14) 
13

>  <SMILES>  (14) 
COc1ccccc1NS(=O)(=O)c1ccc(C(=O)[N-]c2ccc(C#N)cc2)cc1

>  <Energy>  (14) 
54.77870922730686

>  <Genealogy>  (14) 
COc1ccccc1NS(=O)(=O)c1ccc(C(=O)[N-]c2ccc(C#N)cc2)cc1 (protonated)
COc1ccccc1NS(=O)(=O)c1ccc(C(=O)[N-]c2ccc(C#N)cc2)cc1 (3D coordinates assigned)
COc1ccccc1NS(=O)(=O)c1ccc(C(=O)[N-]c2ccc(C#N)cc2)cc1 (optimized conformer: 54.77870922730686 kcal/mol)

>  <smiles>  (14) 
COc1ccccc1NS(=O)(=O)c1ccc(C(=O)Nc2ccc(C#N)cc2)cc1

>  <score_type>  (14) 
oracle

>  <origin>  (14) 
adgpu

>  <m_score__min__energy>  (14) 
-11.56

>  <m_primary>  (14) 
energy

$$$$
14:0
     RDKit          3D

 52 54  0  0  0  0  0  0  0  0999 V2000
   -9.2120   19.0950  -32.3710 C   0  0  0  0  0  0  0  0  0  0  0  0
   -9.4550   20.6000  -32.3700 C   0  0  0  0  0  0  0  0  0  0  0  0
   -8.1730   21.3460  -32.1140 C   0  0  0  0  0  0  0  0  0  0  0  0
   -8.1780   22.5240  -31.3510 C   0  0  0  0  0  0  0  0  0  0  0  0
   -6.9840   23.2000  -31.0880 C   0  0  0  0  0  0  0  0  0  0  0  0
   -5.7620   22.6960  -31.5610 C   0  0  0  0  0  0  0  0  0  0  0  0
   -4.5500   23.4230  -31.2940 N   0  0  0  0  0  0  0  0  0  0  0  0
   -4.4050   24.3950  -30.2500 C   0  0  0  0  0  0  0  0  0  0  0  0
   -5.4110   24.7930  -29.6020 O   0  0  0  0  0  0  0  0  0  0  0  0
   -3.1000   24.9000  -29.9460 N   0  0  0  0  0  0  0  0  0  0  0  0
   -2.2810   24.5360  -28.8230 C   0  0  0  0  0  0  0  0  0  0  0  0
   -2.4110   23.2910  -28.1910 C   0  0  0  0  0  0  0  0  0  0  0  0
   -1.6050   22.9700  -27.1000 C   0  0  0  0  0  0  0  0  0  0  0  0
   -0.6760   23.8890  -26.6040 C   0  0  0  0  0  0  0  0  0  0  0  0
    0.3320   23.3620  -25.2610 Cl  0  0  0  0  0  0  0  0  0  0  0  0
   -0.5660   25.1700  -27.1970 C   0  0  0  0  0  0  0  0  0  0  0  0
    0.5860   26.3890  -26.6060 S   0  0  0  0  0  0  0  0  0  0  0  0
    0.9140   26.1030  -25.1670 O   0  0  0  0  0  0  0  0  0  0  0  0
    1.8720   26.3480  -27.3820 O   0  0  0  0  0  0  0  0  0  0  0  0
   -0.1480   28.0230  -26.7250 C   0  0  0  0  0  0  0  0  0  0  0  0
   -0.8500   28.4040  -25.3990 C   0  0  0  0  0  0  0  0  0  0  0  0
   -0.9620   29.9270  -25.1780 C   0  0  0  0  0  0  0  0  0  0  0  0
   -1.0060   30.6940  -26.5030 C   0  0  0  0  0  0  0  0  0  0  0  0
    0.2710   30.4620  -27.3340 C   0  0  0  0  0  0  0  0  0  0  0  0
    0.9040   29.0720  -27.1210 C   0  0  0  0  0  0  0  0  0  0  0  0
   -1.3690   25.4740  -28.3170 C   0  0  0  0  0  0  0  0  0  0  0  0
   -1.2530   26.7090  -28.9500 O   0  0  0  0  0  0  0  0  0  0  0  0
   -5.7590   21.5220  -32.3350 C   0  0  0  0  0  0  0  0  0  0  0  0
   -6.9540   20.8470  -32.5980 C   0  0  0  0  0  0  0  0  0  0  0  0
   -9.1534   18.7324  -31.3341 H   0  0  0  0  0  0  0  0  0  0  0  0
  -10.0403   18.5902  -32.8898 H   0  0  0  0  0  0  0  0  0  0  0  0
   -8.2669   18.8765  -32.8898 H   0  0  0  0  0  0  0  0  0  0  0  0
   -9.8589   20.9012  -33.3478 H   0  0  0  0  0  0  0  0  0  0  0  0
  -10.1706   20.8420  -31.5704 H   0  0  0  0  0  0  0  0  0  0  0  0
   -9.1272   22.9171  -30.9579 H   0  0  0  0  0  0  0  0  0  0  0  0
   -7.0015   24.1335  -30.5064 H   0  0  0  0  0  0  0  0  0  0  0  0
   -3.7510   23.3090  -31.9580 H   0  0  0  0  0  0  0  0  0  0  0  0
   -3.1517   22.5651  -28.5575 H   0  0  0  0  0  0  0  0  0  0  0  0
   -1.7011   21.9829  -26.6243 H   0  0  0  0  0  0  0  0  0  0  0  0
   -0.9102   28.0013  -27.5178 H   0  0  0  0  0  0  0  0  0  0  0  0
   -1.8640   27.9777  -25.4068 H   0  0  0  0  0  0  0  0  0  0  0  0
   -0.2351   28.0023  -24.5801 H   0  0  0  0  0  0  0  0  0  0  0  0
   -1.8826   30.1379  -24.6141 H   0  0  0  0  0  0  0  0  0  0  0  0
   -0.0723   30.2574  -24.6219 H   0  0  0  0  0  0  0  0  0  0  0  0
   -1.8765   30.3546  -27.0835 H   0  0  0  0  0  0  0  0  0  0  0  0
   -1.0798   31.7680  -26.2772 H   0  0  0  0  0  0  0  0  0  0  0  0
    0.0167   30.5685  -28.3989 H   0  0  0  0  0  0  0  0  0  0  0  0
    1.0101   31.2064  -27.0030 H   0  0  0  0  0  0  0  0  0  0  0  0
    1.3899   28.7545  -28.0554 H   0  0  0  0  0  0  0  0  0  0  0  0
    1.6355   29.1499  -26.3032 H   0  0  0  0  0  0  0  0  0  0  0  0
   -4.8112   21.1330  -32.7355 H   0  0  0  0  0  0  0  0  0  0  0  0
   -6.9390   19.9188  -33.1881 H   0  0  0  0  0  0  0  0  0  0  0  0
  1  2  1  0
  2  3  1  0
  3  4  2  0
  4  5  1  0
  5  6  2  0
  6  7  1  0
  7  8  1  0
  8  9  2  0
  8 10  1  0
 10 11  1  0
 11 12  2  0
 12 13  1  0
 13 14  2  0
 14 15  1  0
 14 16  1  0
 16 17  1  0
 17 18  2  0
 17 19  2  0
 17 20  1  0
 20 21  1  0
 21 22  1  0
 22 23  1  0
 23 24  1  0
 24 25  1  0
 16 26  2  0
 26 27  1  0
  6 28  1  0
 28 29  2  0
 29  3  1  0
 26 11  1  0
 25 20  1  0
  1 30  1  0
  1 31  1  0
  1 32  1  0
  2 33  1  0
  2 34  1  0
  4 35  1  0
  5 36  1  0
  7 37  1  0
 12 38  1  0
 13 39  1  0
 20 40  1  0
 21 41  1  0
 21 42  1  0
 22 43  1  0
 22 44  1  0
 23 45  1  0
 23 46  1  0
 24 47  1  0
 24 48  1  0
 25 49  1  0
 25 50  1  0
 28 51  1  0
 29 52  1  0
M  CHG  2  10  -1  27  -1
M  END
>  <UniqueID>  (15) 
14

>  <SMILES>  (15) 
CCc1ccc(NC(=O)[N-]c2ccc(Cl)c(S(=O)(=O)C3CCCCC3)c2[O-])cc1

>  <Energy>  (15) 
59.41654148633563

>  <Genealogy>  (15) 
CCc1ccc(NC(=O)[N-]c2ccc(Cl)c(S(=O)(=O)C3CCCCC3)c2[O-])cc1 (protonated)
CCc1ccc(NC(=O)[N-]c2ccc(Cl)c(S(=O)(=O)C3CCCCC3)c2[O-])cc1 (3D coordinates assigned)
CCc1ccc(NC(=O)[N-]c2ccc(Cl)c(S(=O)(=O)C3CCCCC3)c2[O-])cc1 (nonaromatic ring conformer: 59.41654148633563 kcal/mol)

>  <smiles>  (15) 
CCc1ccc(NC(=O)Nc2ccc(Cl)c(S(=O)(=O)C3CCCCC3)c2O)cc1

>  <score_type>  (15) 
oracle

>  <origin>  (15) 
adgpu

>  <m_score__min__energy>  (15) 
-13.949999999999999

>  <m_primary>  (15) 
energy

$$$$
15:0
     RDKit          3D

 32 34  0  0  0  0  0  0  0  0999 V2000
   -8.9640   18.4680  -31.6910 C   0  0  0  0  0  0  0  0  0  0  0  0
   -7.6150   18.9310  -32.1610 C   0  0  0  0  0  0  0  0  0  0  0  0
   -7.1880   20.1630  -31.7800 N   0  0  0  0  0  0  0  0  0  0  0  0
   -6.0060   20.6680  -32.1400 N   0  0  0  0  0  0  0  0  0  0  0  0
   -5.6650   21.9850  -31.6670 C   0  0  0  0  0  0  0  0  0  0  0  0
   -4.5060   22.1740  -30.8960 C   0  0  0  0  0  0  0  0  0  0  0  0
   -4.1540   23.4510  -30.4500 C   0  0  0  0  0  0  0  0  0  0  0  0
   -4.9470   24.5580  -30.7790 C   0  0  0  0  0  0  0  0  0  0  0  0
   -4.5850   25.8650  -30.3240 N   0  0  0  0  0  0  0  0  0  0  0  0
   -6.0950   24.3770  -31.5620 C   0  0  0  0  0  0  0  0  0  0  0  0
   -6.4500   23.1000  -32.0080 C   0  0  0  0  0  0  0  0  0  0  0  0
   -5.1620   19.9530  -32.9500 C   0  0  0  0  0  0  0  0  0  0  0  0
   -4.0670   20.4540  -33.3300 O   0  0  0  0  0  0  0  0  0  0  0  0
   -5.5320   18.6640  -33.3750 C   0  0  0  0  0  0  0  0  0  0  0  0
   -4.6840   17.8930  -34.1950 C   0  0  0  0  0  0  0  0  0  0  0  0
   -5.0710   16.6170  -34.6090 C   0  0  0  0  0  0  0  0  0  0  0  0
   -6.3020   16.0960  -34.2120 C   0  0  0  0  0  0  0  0  0  0  0  0
   -7.1550   16.8460  -33.4010 C   0  0  0  0  0  0  0  0  0  0  0  0
   -6.7810   18.1380  -32.9730 C   0  0  0  0  0  0  0  0  0  0  0  0
   -8.9864   18.4603  -30.5913 H   0  0  0  0  0  0  0  0  0  0  0  0
   -9.7385   19.1518  -32.0687 H   0  0  0  0  0  0  0  0  0  0  0  0
   -9.1553   17.4528  -32.0687 H   0  0  0  0  0  0  0  0  0  0  0  0
   -3.8718   21.3119  -30.6418 H   0  0  0  0  0  0  0  0  0  0  0  0
   -3.2503   23.5874  -29.8379 H   0  0  0  0  0  0  0  0  0  0  0  0
   -3.8590   26.4230  -30.8260 H   0  0  0  0  0  0  0  0  0  0  0  0
   -5.0400   26.2820  -29.4820 H   0  0  0  0  0  0  0  0  0  0  0  0
   -6.7195   25.2430  -31.8269 H   0  0  0  0  0  0  0  0  0  0  0  0
   -7.3483   22.9674  -32.6289 H   0  0  0  0  0  0  0  0  0  0  0  0
   -3.7116   18.2988  -34.5107 H   0  0  0  0  0  0  0  0  0  0  0  0
   -4.4037   16.0216  -35.2495 H   0  0  0  0  0  0  0  0  0  0  0  0
   -6.6020   15.0896  -34.5394 H   0  0  0  0  0  0  0  0  0  0  0  0
   -8.1247   16.4277  -33.0934 H   0  0  0  0  0  0  0  0  0  0  0  0
  1  2  1  0
  2  3  2  0
  3  4  1  0
  4  5  1  0
  5  6  2  0
  6  7  1  0
  7  8  2  0
  8  9  1  0
  8 10  1  0
 10 11  2  0
  4 12  1  0
 12 13  2  0
 12 14  1  0
 14 15  2  0
 15 16  1  0
 16 17  2  0
 17 18  1  0
 18 19  2  0
 19  2  1  0
 11  5  1  0
 19 14  1  0
  1 20  1  0
  1 21  1  0
  1 22  1  0
  6 23  1  0
  7 24  1  0
  9 25  1  0
  9 26  1  0
 10 27  1  0
 11 28  1  0
 15 29  1  0
 16 30  1  0
 17 31  1  0
 18 32  1  0
M  END
>  <UniqueID>  (16) 
15

>  <SMILES>  (16) 
Cc1nn(-c2ccc(N)cc2)c(=O)c2ccccc12

>  <Energy>  (16) 
46.79137751909089

>  <Genealogy>  (16) 
Cc1nn(-c2ccc(N)cc2)c(=O)c2ccccc12 (3D coordinates assigned)
Cc1nn(-c2ccc(N)cc2)c(=O)c2ccccc12 (optimized conformer: 46.79137751909089 kcal/mol)

>  <smiles>  (16) 
Cc1nn(-c2ccc(N)cc2)c(=O)c2ccccc12

>  <score_type>  (16) 
oracle

>  <origin>  (16) 
adgpu

>  <m_score__min__energy>  (16) 
-8.1999999999999993

>  <m_primary>  (16) 
energy

$$$$
16:0
     RDKit          3D

 51 54  0  0  0  0  0  0  0  0999 V2000
   -1.9340   20.7890  -33.2670 C   0  0  0  0  0  0  0  0  0  0  0  0
   -3.3550   21.2480  -33.1400 C   0  0  0  0  0  0  0  0  0  0  0  0
   -3.7260   22.2660  -33.7810 O   0  0  0  0  0  0  0  0  0  0  0  0
   -4.3130   20.5430  -32.3410 N   0  0  0  0  0  0  0  0  0  0  0  0
   -5.6830   20.9170  -32.1250 C   0  0  0  0  0  0  0  0  0  0  0  0
   -6.7300   20.1150  -32.6090 C   0  0  0  0  0  0  0  0  0  0  0  0
   -8.0580   20.4360  -32.3280 C   0  0  0  0  0  0  0  0  0  0  0  0
   -8.3650   21.5440  -31.5270 C   0  0  0  0  0  0  0  0  0  0  0  0
   -9.7940   21.9030  -31.2470 C   0  0  0  0  0  0  0  0  0  0  0  0
   -7.3260   22.3480  -31.0380 C   0  0  0  0  0  0  0  0  0  0  0  0
   -5.9850   22.0420  -31.3270 C   0  0  0  0  0  0  0  0  0  0  0  0
   -4.9130   22.9030  -30.7720 C   0  0  0  0  0  0  0  0  0  0  0  0
   -3.8540   22.3180  -30.0640 C   0  0  0  0  0  0  0  0  0  0  0  0
   -2.8320   23.1170  -29.5350 C   0  0  0  0  0  0  0  0  0  0  0  0
   -1.7410   22.5900  -28.8210 C   0  0  0  0  0  0  0  0  0  0  0  0
   -1.6180   21.1820  -28.5910 N   0  0  0  0  0  0  0  0  0  0  0  0
   -1.6070   20.6720  -27.2190 C   0  0  0  0  0  0  0  0  0  0  0  0
   -1.5630   19.1370  -27.2120 C   0  0  0  0  0  0  0  0  0  0  0  0
   -0.5220   18.5970  -28.1180 N   0  0  0  0  0  0  0  0  0  0  0  0
    0.8060   18.6100  -27.4830 C   0  0  0  0  0  0  0  0  0  0  0  0
   -0.4860   19.2070  -29.4760 C   0  0  0  0  0  0  0  0  0  0  0  0
   -1.5810   20.2540  -29.7180 C   0  0  0  0  0  0  0  0  0  0  0  0
   -0.7940   23.4320  -28.3290 N   0  0  0  0  0  0  0  0  0  0  0  0
   -0.8760   24.7750  -28.5180 C   0  0  0  0  0  0  0  0  0  0  0  0
   -1.9200   25.3050  -29.2060 N   0  0  0  0  0  0  0  0  0  0  0  0
   -2.8960   24.5100  -29.7160 C   0  0  0  0  0  0  0  0  0  0  0  0
   -3.9370   25.0620  -30.3900 N   0  0  0  0  0  0  0  0  0  0  0  0
   -4.9390   24.3060  -30.9130 C   0  0  0  0  0  0  0  0  0  0  0  0
   -5.8950   24.8750  -31.5060 O   0  0  0  0  0  0  0  0  0  0  0  0
   -1.5027   20.6497  -32.2647 H   0  0  0  0  0  0  0  0  0  0  0  0
   -1.9042   19.8355  -33.8148 H   0  0  0  0  0  0  0  0  0  0  0  0
   -1.3521   21.5449  -33.8148 H   0  0  0  0  0  0  0  0  0  0  0  0
   -6.5005   19.2261  -33.2149 H   0  0  0  0  0  0  0  0  0  0  0  0
   -8.8689   19.8158  -32.7375 H   0  0  0  0  0  0  0  0  0  0  0  0
   -9.9556   21.9436  -30.1597 H   0  0  0  0  0  0  0  0  0  0  0  0
  -10.0184   22.8854  -31.6880 H   0  0  0  0  0  0  0  0  0  0  0  0
  -10.4561   21.1433  -31.6880 H   0  0  0  0  0  0  0  0  0  0  0  0
   -7.5627   23.2277  -30.4215 H   0  0  0  0  0  0  0  0  0  0  0  0
   -3.8253   21.2274  -29.9232 H   0  0  0  0  0  0  0  0  0  0  0  0
   -0.7210   21.0612  -26.6960 H   0  0  0  0  0  0  0  0  0  0  0  0
   -2.5251   21.0023  -26.7111 H   0  0  0  0  0  0  0  0  0  0  0  0
   -1.3524   18.7944  -26.1882 H   0  0  0  0  0  0  0  0  0  0  0  0
   -2.5382   18.7721  -27.5668 H   0  0  0  0  0  0  0  0  0  0  0  0
    0.6894   18.6089  -26.3892 H   0  0  0  0  0  0  0  0  0  0  0  0
    1.3692   17.7173  -27.7927 H   0  0  0  0  0  0  0  0  0  0  0  0
    1.3517   19.5135  -27.7927 H   0  0  0  0  0  0  0  0  0  0  0  0
    0.4922   19.6915  -29.6119 H   0  0  0  0  0  0  0  0  0  0  0  0
   -0.6587   18.3931  -30.1956 H   0  0  0  0  0  0  0  0  0  0  0  0
   -1.3622   20.8076  -30.6430 H   0  0  0  0  0  0  0  0  0  0  0  0
   -2.5554   19.7529  -29.8152 H   0  0  0  0  0  0  0  0  0  0  0  0
   -0.0947   25.4347  -28.1127 H   0  0  0  0  0  0  0  0  0  0  0  0
  1  2  1  0
  2  3  2  0
  2  4  1  0
  4  5  1  0
  5  6  2  0
  6  7  1  0
  7  8  2  0
  8  9  1  0
  8 10  1  0
 10 11  2  0
 11 12  1  0
 12 13  2  0
 13 14  1  0
 14 15  2  0
 15 16  1  0
 16 17  1  0
 17 18  1  0
 18 19  1  0
 19 20  1  0
 19 21  1  0
 21 22  1  0
 15 23  1  0
 23 24  2  0
 24 25  1  0
 25 26  2  0
 26 27  1  0
 27 28  1  0
 28 29  2  0
 11  5  1  0
 28 12  1  0
 26 14  1  0
 22 16  1  0
  1 30  1  0
  1 31  1  0
  1 32  1  0
  6 33  1  0
  7 34  1  0
  9 35  1  0
  9 36  1  0
  9 37  1  0
 10 38  1  0
 13 39  1  0
 17 40  1  0
 17 41  1  0
 18 42  1  0
 18 43  1  0
 20 44  1  0
 20 45  1  0
 20 46  1  0
 21 47  1  0
 21 48  1  0
 22 49  1  0
 22 50  1  0
 24 51  1  0
M  CHG  2   4  -1  27  -1
M  END
>  <UniqueID>  (17) 
16

>  <SMILES>  (17) 
CC(=O)[N-]c1ccc(C)cc1-c1cc2c(N3CCN(C)CC3)ncnc2[n-]c1=O

>  <Energy>  (17) 
81.158040924979

>  <Genealogy>  (17) 
CC(=O)[N-]c1ccc(C)cc1-c1cc2c(N3CCN(C)CC3)ncnc2[n-]c1=O (protonated)
CC(=O)[N-]c1ccc(C)cc1-c1cc2c(N3CCN(C)CC3)ncnc2[n-]c1=O (3D coordinates assigned)
CC(=O)[N-]c1ccc(C)cc1-c1cc2c(N3CCN(C)CC3)ncnc2[n-]c1=O (nonaromatic ring conformer: 81.158040924979 kcal/mol)

>  <smiles>  (17) 
CC(=O)Nc1ccc(C)cc1-c1cc2c(N3CCN(C)CC3)ncnc2[nH]c1=O

>  <score_type>  (17) 
oracle

>  <origin>  (17) 
adgpu

>  <m_score__min__energy>  (17) 
-10.630000000000001

>  <m_primary>  (17) 
energy

$$$$
17:0
     RDKit          3D

 52 55  0  0  0  0  0  0  0  0999 V2000
   -3.2680   19.8760  -33.9640 O   0  0  0  0  0  0  0  0  0  0  0  0
   -3.9230   20.5540  -33.1280 C   0  0  0  0  0  0  0  0  0  0  0  0
   -5.3320   20.7430  -33.2990 N   0  0  0  0  0  0  0  0  0  0  0  0
   -6.3900   19.9220  -32.7850 C   0  0  0  0  0  0  0  0  0  0  0  0
   -6.5370   18.5800  -33.1830 C   0  0  0  0  0  0  0  0  0  0  0  0
   -7.6160   17.8200  -32.7210 C   0  0  0  0  0  0  0  0  0  0  0  0
   -8.5680   18.3940  -31.8760 C   0  0  0  0  0  0  0  0  0  0  0  0
   -8.4440   19.7300  -31.4920 C   0  0  0  0  0  0  0  0  0  0  0  0
   -7.3590   20.4990  -31.9380 C   0  0  0  0  0  0  0  0  0  0  0  0
   -7.2590   21.8740  -31.5290 N   0  0  0  0  0  0  0  0  0  0  0  0
   -7.1390   22.9390  -32.5290 C   0  0  0  0  0  0  0  0  0  0  0  0
   -6.3880   24.1280  -31.9220 C   0  0  0  0  0  0  0  0  0  0  0  0
   -6.9840   24.5260  -30.7010 O   0  0  0  0  0  0  0  0  0  0  0  0
   -6.8400   23.4950  -29.7390 C   0  0  0  0  0  0  0  0  0  0  0  0
   -7.6170   22.2430  -30.1580 C   0  0  0  0  0  0  0  0  0  0  0  0
   -3.2480   21.0940  -31.9240 C   0  0  0  0  0  0  0  0  0  0  0  0
   -2.2550   20.3440  -31.2650 C   0  0  0  0  0  0  0  0  0  0  0  0
   -1.6060   20.8620  -30.1410 C   0  0  0  0  0  0  0  0  0  0  0  0
   -1.9390   22.1300  -29.6610 C   0  0  0  0  0  0  0  0  0  0  0  0
   -2.9300   22.8870  -30.2980 C   0  0  0  0  0  0  0  0  0  0  0  0
   -3.3580   24.4710  -29.6540 S   0  0  0  0  0  0  0  0  0  0  0  0
   -4.3880   24.3280  -28.5660 O   0  0  0  0  0  0  0  0  0  0  0  0
   -3.9350   25.3030  -30.7670 O   0  0  0  0  0  0  0  0  0  0  0  0
   -1.9670   25.2920  -29.0170 N   0  0  0  0  0  0  0  0  0  0  0  0
   -1.3960   25.0810  -27.7180 C   0  0  0  0  0  0  0  0  0  0  0  0
   -1.9570   25.6400  -26.5520 C   0  0  0  0  0  0  0  0  0  0  0  0
   -1.3680   25.4000  -25.3050 C   0  0  0  0  0  0  0  0  0  0  0  0
   -0.2230   24.6040  -25.2110 C   0  0  0  0  0  0  0  0  0  0  0  0
    0.3330   24.0410  -26.3650 C   0  0  0  0  0  0  0  0  0  0  0  0
   -0.2480   24.2850  -27.6130 C   0  0  0  0  0  0  0  0  0  0  0  0
   -3.5890   22.3630  -31.4220 C   0  0  0  0  0  0  0  0  0  0  0  0
   -5.7991   18.1266  -33.8612 H   0  0  0  0  0  0  0  0  0  0  0  0
   -7.7151   16.7672  -33.0240 H   0  0  0  0  0  0  0  0  0  0  0  0
   -9.4152   17.7935  -31.5132 H   0  0  0  0  0  0  0  0  0  0  0  0
   -9.2017   20.1827  -30.8356 H   0  0  0  0  0  0  0  0  0  0  0  0
   -6.5848   22.5621  -33.4012 H   0  0  0  0  0  0  0  0  0  0  0  0
   -8.1427   23.2614  -32.8432 H   0  0  0  0  0  0  0  0  0  0  0  0
   -5.3432   23.8384  -31.7363 H   0  0  0  0  0  0  0  0  0  0  0  0
   -6.4308   24.9708  -32.6276 H   0  0  0  0  0  0  0  0  0  0  0  0
   -5.7743   23.2411  -29.6402 H   0  0  0  0  0  0  0  0  0  0  0  0
   -7.2408   23.8521  -28.7789 H   0  0  0  0  0  0  0  0  0  0  0  0
   -7.3674   21.4140  -29.4795 H   0  0  0  0  0  0  0  0  0  0  0  0
   -8.6960   22.4507  -30.1073 H   0  0  0  0  0  0  0  0  0  0  0  0
   -1.9884   19.3439  -31.6374 H   0  0  0  0  0  0  0  0  0  0  0  0
   -0.8309   20.2692  -29.6332 H   0  0  0  0  0  0  0  0  0  0  0  0
   -1.4212   22.5358  -28.7794 H   0  0  0  0  0  0  0  0  0  0  0  0
   -2.8590   26.2657  -26.6221 H   0  0  0  0  0  0  0  0  0  0  0  0
   -1.8073   25.8389  -24.3970 H   0  0  0  0  0  0  0  0  0  0  0  0
    0.2407   24.4203  -24.2306 H   0  0  0  0  0  0  0  0  0  0  0  0
    1.2280   23.4059  -26.2902 H   0  0  0  0  0  0  0  0  0  0  0  0
    0.1993   23.8491  -28.5185 H   0  0  0  0  0  0  0  0  0  0  0  0
   -4.3786   22.9499  -31.9140 H   0  0  0  0  0  0  0  0  0  0  0  0
  1  2  2  0
  2  3  1  0
  3  4  1  0
  4  5  2  0
  5  6  1  0
  6  7  2  0
  7  8  1  0
  8  9  2  0
  9 10  1  0
 10 11  1  0
 11 12  1  0
 12 13  1  0
 13 14  1  0
 14 15  1  0
  2 16  1  0
 16 17  2  0
 17 18  1  0
 18 19  2  0
 19 20  1  0
 20 21  1  0
 21 22  2  0
 21 23  2  0
 21 24  1  0
 24 25  1  0
 25 26  2  0
 26 27  1  0
 27 28  2  0
 28 29  1  0
 29 30  2  0
 20 31  2  0
  9  4  1  0
 15 10  1  0
 31 16  1  0
 30 25  1  0
  5 32  1  0
  6 33  1  0
  7 34  1  0
  8 35  1  0
 11 36  1  0
 11 37  1  0
 12 38  1  0
 12 39  1  0
 14 40  1  0
 14 41  1  0
 15 42  1  0
 15 43  1  0
 17 44  1  0
 18 45  1  0
 19 46  1  0
 26 47  1  0
 27 48  1  0
 28 49  1  0
 29 50  1  0
 30 51  1  0
 31 52  1  0
M  CHG  2   3  -1  24  -1
M  END
>  <UniqueID>  (18) 
17

>  <SMILES>  (18) 
O=C([N-]c1ccccc1N1CCOCC1)c1cccc(S(=O)(=O)[N-]c2ccccc2)c1

>  <Energy>  (18) 
69.5122394262114

>  <Genealogy>  (18) 
O=C([N-]c1ccccc1N1CCOCC1)c1cccc(S(=O)(=O)[N-]c2ccccc2)c1 (protonated)
O=C([N-]c1ccccc1N1CCOCC1)c1cccc(S(=O)(=O)[N-]c2ccccc2)c1 (3D coordinates assigned)
O=C([N-]c1ccccc1N1CCOCC1)c1cccc(S(=O)(=O)[N-]c2ccccc2)c1 (nonaromatic ring conformer: 69.5122394262114 kcal/mol)

>  <smiles>  (18) 
O=C(Nc1ccccc1N1CCOCC1)c1cccc(S(=O)(=O)Nc2ccccc2)c1

>  <score_type>  (18) 
oracle

>  <origin>  (18) 
adgpu

>  <m_score__min__energy>  (18) 
-11.369999999999999

>  <m_primary>  (18) 
energy

$$$$
18:0
     RDKit          3D

 36 38  0  0  0  0  0  0  0  0999 V2000
   -6.1300   14.5960  -34.1900 C   0  0  0  0  0  0  0  0  0  0  0  0
   -6.8460   15.8370  -34.4600 N   0  0  0  0  0  0  0  0  0  0  0  0
   -6.5220   17.0950  -33.8410 C   0  0  0  0  0  0  0  0  0  0  0  0
   -7.0130   17.4440  -32.5700 C   0  0  0  0  0  0  0  0  0  0  0  0
   -6.6800   18.6740  -31.9950 C   0  0  0  0  0  0  0  0  0  0  0  0
   -5.8450   19.5790  -32.6710 C   0  0  0  0  0  0  0  0  0  0  0  0
   -5.5060   20.8830  -32.0490 C   0  0  0  0  0  0  0  0  0  0  0  0
   -4.2010   21.2260  -31.8950 N   0  0  0  0  0  0  0  0  0  0  0  0
   -3.8260   22.4010  -31.3320 C   0  0  0  0  0  0  0  0  0  0  0  0
   -2.5970   22.6540  -31.2180 O   0  0  0  0  0  0  0  0  0  0  0  0
   -4.8080   23.3120  -30.8890 C   0  0  0  0  0  0  0  0  0  0  0  0
   -4.4920   24.5580  -30.2890 C   0  0  0  0  0  0  0  0  0  0  0  0
   -3.1470   24.9260  -30.1090 O   0  0  0  0  0  0  0  0  0  0  0  0
   -2.3430   24.5480  -28.9970 C   0  0  0  0  0  0  0  0  0  0  0  0
   -5.5390   25.4080  -29.8830 C   0  0  0  0  0  0  0  0  0  0  0  0
   -6.8710   25.0360  -30.0660 C   0  0  0  0  0  0  0  0  0  0  0  0
   -7.1840   23.8130  -30.6540 C   0  0  0  0  0  0  0  0  0  0  0  0
   -6.1640   22.9430  -31.0670 C   0  0  0  0  0  0  0  0  0  0  0  0
   -6.4800   21.7480  -31.6420 N   0  0  0  0  0  0  0  0  0  0  0  0
   -5.3640   19.2330  -33.9470 C   0  0  0  0  0  0  0  0  0  0  0  0
   -5.6970   18.0040  -34.5220 C   0  0  0  0  0  0  0  0  0  0  0  0
   -6.0459   14.4503  -33.1029 H   0  0  0  0  0  0  0  0  0  0  0  0
   -6.6799   13.7519  -34.6317 H   0  0  0  0  0  0  0  0  0  0  0  0
   -5.1240   14.6496  -34.6317 H   0  0  0  0  0  0  0  0  0  0  0  0
   -7.6370   15.8000  -35.1440 H   0  0  0  0  0  0  0  0  0  0  0  0
   -7.6635   16.7443  -32.0247 H   0  0  0  0  0  0  0  0  0  0  0  0
   -7.0760   18.9359  -31.0027 H   0  0  0  0  0  0  0  0  0  0  0  0
   -2.8691   24.7954  -28.0632 H   0  0  0  0  0  0  0  0  0  0  0  0
   -2.1514   23.4655  -29.0342 H   0  0  0  0  0  0  0  0  0  0  0  0
   -1.3871   25.0910  -29.0342 H   0  0  0  0  0  0  0  0  0  0  0  0
   -5.3038   26.3760  -29.4164 H   0  0  0  0  0  0  0  0  0  0  0  0
   -7.6774   25.7115  -29.7445 H   0  0  0  0  0  0  0  0  0  0  0  0
   -8.2369   23.5276  -30.7954 H   0  0  0  0  0  0  0  0  0  0  0  0
   -7.4850   21.5090  -31.7960 H   0  0  0  0  0  0  0  0  0  0  0  0
   -4.7205   19.9358  -34.4965 H   0  0  0  0  0  0  0  0  0  0  0  0
   -5.3088   17.7460  -35.5184 H   0  0  0  0  0  0  0  0  0  0  0  0
  1  2  1  0
  2  3  1  0
  3  4  2  0
  4  5  1  0
  5  6  2  0
  6  7  1  0
  7  8  2  0
  8  9  1  0
  9 10  2  0
  9 11  1  0
 11 12  2  0
 12 13  1  0
 13 14  1  0
 12 15  1  0
 15 16  2  0
 16 17  1  0
 17 18  2  0
 18 19  1  0
  6 20  1  0
 20 21  2  0
 21  3  1  0
 19  7  1  0
 18 11  1  0
  1 22  1  0
  1 23  1  0
  1 24  1  0
  2 25  1  0
  4 26  1  0
  5 27  1  0
 14 28  1  0
 14 29  1  0
 14 30  1  0
 15 31  1  0
 16 32  1  0
 17 33  1  0
 19 34  1  0
 20 35  1  0
 21 36  1  0
M  END
>  <UniqueID>  (19) 
18

>  <SMILES>  (19) 
CNc1ccc(-c2nc(=O)c3c(OC)cccc3[nH]2)cc1

>  <Energy>  (19) 
46.83545974751341

>  <Genealogy>  (19) 
CNc1ccc(-c2nc(=O)c3c(OC)cccc3[nH]2)cc1 (3D coordinates assigned)
CNc1ccc(-c2nc(=O)c3c(OC)cccc3[nH]2)cc1 (optimized conformer: 46.83545974751341 kcal/mol)

>  <smiles>  (19) 
CNc1ccc(-c2nc(=O)c3c(OC)cccc3[nH]2)cc1

>  <score_type>  (19) 
oracle

>  <origin>  (19) 
adgpu

>  <m_score__min__energy>  (19) 
-7.4699999999999998

>  <m_primary>  (19) 
energy

$$$$
19:0
     RDKit          3D

 36 39  0  0  0  0  0  0  0  0999 V2000
   -6.7730   15.4650  -34.4180 N   0  0  0  0  0  0  0  0  0  0  0  0
   -6.4790   16.7660  -33.9010 C   0  0  0  0  0  0  0  0  0  0  0  0
   -5.2540   17.3820  -34.1990 C   0  0  0  0  0  0  0  0  0  0  0  0
   -4.9630   18.6530  -33.6970 C   0  0  0  0  0  0  0  0  0  0  0  0
   -5.8900   19.3210  -32.8930 C   0  0  0  0  0  0  0  0  0  0  0  0
   -5.6000   20.5290  -32.4190 O   0  0  0  0  0  0  0  0  0  0  0  0
   -6.4290   21.2280  -31.6450 C   0  0  0  0  0  0  0  0  0  0  0  0
   -6.0040   22.5690  -31.1720 C   0  0  0  0  0  0  0  0  0  0  0  0
   -6.8740   23.6750  -31.2080 C   0  0  0  0  0  0  0  0  0  0  0  0
   -6.4500   24.9230  -30.7480 C   0  0  0  0  0  0  0  0  0  0  0  0
   -5.1590   25.0860  -30.2410 C   0  0  0  0  0  0  0  0  0  0  0  0
   -4.2750   23.9940  -30.1820 C   0  0  0  0  0  0  0  0  0  0  0  0
   -2.9030   24.1390  -29.6430 C   0  0  0  0  0  0  0  0  0  0  0  0
   -1.9980   23.1240  -29.3710 C   0  0  0  0  0  0  0  0  0  0  0  0
   -0.8670   23.7460  -28.8890 C   0  0  0  0  0  0  0  0  0  0  0  0
   -1.1430   25.0970  -28.8920 C   0  0  0  0  0  0  0  0  0  0  0  0
   -2.3580   25.2990  -29.3450 O   0  0  0  0  0  0  0  0  0  0  0  0
   -4.7100   22.7410  -30.6470 C   0  0  0  0  0  0  0  0  0  0  0  0
   -7.6820   20.6860  -31.3070 C   0  0  0  0  0  0  0  0  0  0  0  0
   -8.0310   19.4200  -31.7810 C   0  0  0  0  0  0  0  0  0  0  0  0
   -9.1550   18.9320  -31.4810 O   0  0  0  0  0  0  0  0  0  0  0  0
   -7.1260   18.7130  -32.5860 C   0  0  0  0  0  0  0  0  0  0  0  0
   -7.4140   17.4330  -33.0950 C   0  0  0  0  0  0  0  0  0  0  0  0
   -6.0970   14.9730  -35.0430 H   0  0  0  0  0  0  0  0  0  0  0  0
   -7.6690   14.9850  -34.1790 H   0  0  0  0  0  0  0  0  0  0  0  0
   -4.5192   16.8617  -34.8309 H   0  0  0  0  0  0  0  0  0  0  0  0
   -4.0007   19.1294  -33.9356 H   0  0  0  0  0  0  0  0  0  0  0  0
   -7.8944   23.5552  -31.6011 H   0  0  0  0  0  0  0  0  0  0  0  0
   -7.1360   25.7821  -30.7851 H   0  0  0  0  0  0  0  0  0  0  0  0
   -4.8317   26.0743  -29.8858 H   0  0  0  0  0  0  0  0  0  0  0  0
   -2.1516   22.0439  -29.5113 H   0  0  0  0  0  0  0  0  0  0  0  0
    0.0671   23.2626  -28.5669 H   0  0  0  0  0  0  0  0  0  0  0  0
   -0.4499   25.8858  -28.5644 H   0  0  0  0  0  0  0  0  0  0  0  0
   -4.0270   21.8800  -30.5997 H   0  0  0  0  0  0  0  0  0  0  0  0
   -8.3805   21.2542  -30.6751 H   0  0  0  0  0  0  0  0  0  0  0  0
   -8.3758   16.9536  -32.8601 H   0  0  0  0  0  0  0  0  0  0  0  0
  1  2  1  0
  2  3  2  0
  3  4  1  0
  4  5  2  0
  5  6  1  0
  6  7  1  0
  7  8  1  0
  8  9  2  0
  9 10  1  0
 10 11  2  0
 11 12  1  0
 12 13  1  0
 13 14  2  0
 14 15  1  0
 15 16  2  0
 16 17  1  0
 12 18  2  0
  7 19  2  0
 19 20  1  0
 20 21  2  0
 20 22  1  0
 22 23  2  0
 23  2  1  0
 22  5  1  0
 18  8  1  0
 17 13  1  0
  1 24  1  0
  1 25  1  0
  3 26  1  0
  4 27  1  0
  9 28  1  0
 10 29  1  0
 11 30  1  0
 14 31  1  0
 15 32  1  0
 16 33  1  0
 18 34  1  0
 19 35  1  0
 23 36  1  0
M  END
>  <UniqueID>  (20) 
19

>  <SMILES>  (20) 
Nc1ccc2oc(-c3cccc(-c4ccco4)c3)cc(=O)c2c1

>  <Energy>  (20) 
75.66764132962653

>  <Genealogy>  (20) 
Nc1ccc2oc(-c3cccc(-c4ccco4)c3)cc(=O)c2c1 (3D coordinates assigned)
Nc1ccc2oc(-c3cccc(-c4ccco4)c3)cc(=O)c2c1 (optimized conformer: 75.66764132962653 kcal/mol)

>  <smiles>  (20) 
Nc1ccc2oc(-c3cccc(-c4ccco4)c3)cc(=O)c2c1

>  <score_type>  (20) 
oracle

>  <origin>  (20) 
adgpu

>  <m_score__min__energy>  (20) 
-8.5700000000000003

>  <m_primary>  (20) 
energy

$$$$
20:0
     RDKit          3D

 47 50  0  0  0  0  0  0  0  0999 V2000
   -6.1420   25.9480  -29.6450 C   0  0  0  0  0  0  0  0  0  0  0  0
   -5.2200   25.1650  -30.5320 C   0  0  0  0  0  0  0  0  0  0  0  0
   -4.1000   25.6670  -30.8220 O   0  0  0  0  0  0  0  0  0  0  0  0
   -5.5910   23.8280  -31.0680 C   0  0  0  0  0  0  0  0  0  0  0  0
   -4.7750   22.7000  -30.8560 C   0  0  0  0  0  0  0  0  0  0  0  0
   -5.1390   21.4520  -31.3680 C   0  0  0  0  0  0  0  0  0  0  0  0
   -6.3230   21.3010  -32.1050 C   0  0  0  0  0  0  0  0  0  0  0  0
   -6.7020   20.0110  -32.6200 N   0  0  0  0  0  0  0  0  0  0  0  0
   -6.4940   19.6810  -34.0350 C   0  0  0  0  0  0  0  0  0  0  0  0
   -5.7180   18.3680  -34.1440 C   0  0  0  0  0  0  0  0  0  0  0  0
   -6.2870   17.3280  -33.2740 N   0  0  0  0  0  0  0  0  0  0  0  0
   -5.7860   15.9830  -33.3910 C   0  0  0  0  0  0  0  0  0  0  0  0
   -4.6150   15.5830  -32.8500 N   0  0  0  0  0  0  0  0  0  0  0  0
   -4.3370   14.2730  -33.1050 C   0  0  0  0  0  0  0  0  0  0  0  0
   -3.0900   13.6360  -32.6020 C   0  0  0  0  0  0  0  0  0  0  0  0
   -3.0800   12.8450  -31.4340 C   0  0  0  0  0  0  0  0  0  0  0  0
   -1.8930   12.2570  -30.9830 C   0  0  0  0  0  0  0  0  0  0  0  0
   -0.7020   12.4520  -31.6860 C   0  0  0  0  0  0  0  0  0  0  0  0
    0.7840   11.7140  -31.1170 Cl  0  0  0  0  0  0  0  0  0  0  0  0
   -0.6960   13.2350  -32.8420 C   0  0  0  0  0  0  0  0  0  0  0  0
   -1.8790   13.8240  -33.2970 C   0  0  0  0  0  0  0  0  0  0  0  0
   -5.3100   13.6200  -33.8720 C   0  0  0  0  0  0  0  0  0  0  0  0
   -6.5300   14.7230  -34.2220 S   0  0  0  0  0  0  0  0  0  0  0  0
   -7.4340   17.6390  -32.4050 C   0  0  0  0  0  0  0  0  0  0  0  0
   -7.2330   18.9900  -31.7040 C   0  0  0  0  0  0  0  0  0  0  0  0
   -7.1430   22.4190  -32.3140 C   0  0  0  0  0  0  0  0  0  0  0  0
   -6.7810   23.6690  -31.8040 C   0  0  0  0  0  0  0  0  0  0  0  0
   -5.8999   25.7424  -28.5918 H   0  0  0  0  0  0  0  0  0  0  0  0
   -6.0197   27.0225  -29.8463 H   0  0  0  0  0  0  0  0  0  0  0  0
   -7.1825   25.6533  -29.8463 H   0  0  0  0  0  0  0  0  0  0  0  0
   -3.8423   22.8024  -30.2819 H   0  0  0  0  0  0  0  0  0  0  0  0
   -4.4916   20.5804  -31.1917 H   0  0  0  0  0  0  0  0  0  0  0  0
   -7.4687   19.5732  -34.5334 H   0  0  0  0  0  0  0  0  0  0  0  0
   -5.9216   20.4862  -34.5187 H   0  0  0  0  0  0  0  0  0  0  0  0
   -5.7520   18.0189  -35.1866 H   0  0  0  0  0  0  0  0  0  0  0  0
   -4.6818   18.5538  -33.8250 H   0  0  0  0  0  0  0  0  0  0  0  0
   -4.0132   12.6891  -30.8730 H   0  0  0  0  0  0  0  0  0  0  0  0
   -1.8979   11.6397  -30.0726 H   0  0  0  0  0  0  0  0  0  0  0  0
    0.2419   13.3887  -33.3959 H   0  0  0  0  0  0  0  0  0  0  0  0
   -1.8644   14.4410  -34.2076 H   0  0  0  0  0  0  0  0  0  0  0  0
   -5.2811   12.5675  -34.1904 H   0  0  0  0  0  0  0  0  0  0  0  0
   -8.3483   17.6813  -33.0151 H   0  0  0  0  0  0  0  0  0  0  0  0
   -7.5216   16.8533  -31.6402 H   0  0  0  0  0  0  0  0  0  0  0  0
   -8.2011   19.3340  -31.3111 H   0  0  0  0  0  0  0  0  0  0  0  0
   -6.5033   18.8475  -30.8933 H   0  0  0  0  0  0  0  0  0  0  0  0
   -8.0780   22.3116  -32.8835 H   0  0  0  0  0  0  0  0  0  0  0  0
   -7.4326   24.5377  -31.9794 H   0  0  0  0  0  0  0  0  0  0  0  0
  1  2  1  0
  2  3  2  0
  2  4  1  0
  4  5  2  0
  5  6  1  0
  6  7  2  0
  7  8  1  0
  8  9  1  0
  9 10  1  0
 10 11  1  0
 11 12  1  0
 12 13  2  0
 13 14  1  0
 14 15  1  0
 15 16  2  0
 16 17  1  0
 17 18  2  0
 18 19  1  0
 18 20  1  0
 20 21  2  0
 14 22  2  0
 22 23  1  0
 11 24  1  0
 24 25  1  0
  7 26  1  0
 26 27  2  0
 27  4  1  0
 25  8  1  0
 23 12  1  0
 21 15  1  0
  1 28  1  0
  1 29  1  0
  1 30  1  0
  5 31  1  0
  6 32  1  0
  9 33  1  0
  9 34  1  0
 10 35  1  0
 10 36  1  0
 16 37  1  0
 17 38  1  0
 20 39  1  0
 21 40  1  0
 22 41  1  0
 24 42  1  0
 24 43  1  0
 25 44  1  0
 25 45  1  0
 26 46  1  0
 27 47  1  0
M  END
>  <UniqueID>  (21) 
20

>  <SMILES>  (21) 
CC(=O)c1ccc(N2CCN(c3nc(-c4ccc(Cl)cc4)cs3)CC2)cc1

>  <Energy>  (21) 
87.64576867932396

>  <Genealogy>  (21) 
CC(=O)c1ccc(N2CCN(c3nc(-c4ccc(Cl)cc4)cs3)CC2)cc1 (3D coordinates assigned)
CC(=O)c1ccc(N2CCN(c3nc(-c4ccc(Cl)cc4)cs3)CC2)cc1 (nonaromatic ring conformer: 87.64576867932396 kcal/mol)

>  <smiles>  (21) 
CC(=O)c1ccc(N2CCN(c3nc(-c4ccc(Cl)cc4)cs3)CC2)cc1

>  <score_type>  (21) 
oracle

>  <origin>  (21) 
adgpu

>  <m_score__min__energy>  (21) 
-8.7799999999999994

>  <m_primary>  (21) 
energy

$$$$
21:0
     RDKit          3D

 44 46  0  0  0  0  0  0  0  0999 V2000
    0.5773   25.6618  -27.5024 H   0  0  0  0  0  0  0  0  0  0  0  0
   -0.4410   25.3230  -27.7440 C   0  0  0  0  0  0  0  0  0  0  0  0
   -1.0060   25.6480  -28.9370 N   0  0  0  0  0  0  0  0  0  0  0  0
   -2.2400   25.2510  -29.2530 N   0  0  0  0  0  0  0  0  0  0  0  0
   -2.9900   24.5000  -28.3960 C   0  0  0  0  0  0  0  0  0  0  0  0
   -4.1920   24.1220  -28.7110 N   0  0  0  0  0  0  0  0  0  0  0  0
   -4.9640   24.5210  -30.2140 S   0  0  0  0  0  0  0  0  0  0  0  0
   -6.3900   24.9140  -29.9430 O   0  0  0  0  0  0  0  0  0  0  0  0
   -4.2480   25.6800  -30.8470 O   0  0  0  0  0  0  0  0  0  0  0  0
   -4.8950   23.1390  -31.3050 C   0  0  0  0  0  0  0  0  0  0  0  0
   -6.0670   22.6080  -31.8600 C   0  0  0  0  0  0  0  0  0  0  0  0
   -7.0408   23.0614  -31.6233 H   0  0  0  0  0  0  0  0  0  0  0  0
   -6.0010   21.5030  -32.7140 C   0  0  0  0  0  0  0  0  0  0  0  0
   -6.9246   21.0831  -33.1389 H   0  0  0  0  0  0  0  0  0  0  0  0
   -4.7580   20.9260  -33.0320 C   0  0  0  0  0  0  0  0  0  0  0  0
   -4.6510   19.8040  -33.8670 O   0  0  0  0  0  0  0  0  0  0  0  0
   -5.3770   18.6120  -33.7250 C   0  0  0  0  0  0  0  0  0  0  0  0
   -6.6340   18.6140  -33.0900 C   0  0  0  0  0  0  0  0  0  0  0  0
   -7.0391   19.5534  -32.6858 H   0  0  0  0  0  0  0  0  0  0  0  0
   -7.3700   17.4350  -32.9690 C   0  0  0  0  0  0  0  0  0  0  0  0
   -8.3470   17.4463  -32.4637 H   0  0  0  0  0  0  0  0  0  0  0  0
   -6.8680   16.2430  -33.4880 C   0  0  0  0  0  0  0  0  0  0  0  0
   -7.4477   15.3135  -33.3887 H   0  0  0  0  0  0  0  0  0  0  0  0
   -5.6300   16.2270  -34.1340 C   0  0  0  0  0  0  0  0  0  0  0  0
   -5.2443   15.2821  -34.5444 H   0  0  0  0  0  0  0  0  0  0  0  0
   -4.8690   17.4040  -34.2670 C   0  0  0  0  0  0  0  0  0  0  0  0
   -3.5240   17.3330  -34.9770 C   0  0  0  0  0  0  0  0  0  0  0  0
   -3.5771   18.0241  -35.8311 H   0  0  0  0  0  0  0  0  0  0  0  0
   -2.3780   17.8110  -34.0750 C   0  0  0  0  0  0  0  0  0  0  0  0
   -2.6668   17.6906  -33.0204 H   0  0  0  0  0  0  0  0  0  0  0  0
   -1.4772   17.2136  -34.2790 H   0  0  0  0  0  0  0  0  0  0  0  0
   -2.1687   18.8715  -34.2790 H   0  0  0  0  0  0  0  0  0  0  0  0
   -3.2490   15.9340  -35.5450 C   0  0  0  0  0  0  0  0  0  0  0  0
   -3.1093   15.2232  -34.7172 H   0  0  0  0  0  0  0  0  0  0  0  0
   -4.1016   15.6148  -36.1624 H   0  0  0  0  0  0  0  0  0  0  0  0
   -2.3390   15.9613  -36.1624 H   0  0  0  0  0  0  0  0  0  0  0  0
   -3.5920   21.4510  -32.4620 C   0  0  0  0  0  0  0  0  0  0  0  0
   -2.6184   20.9911  -32.6869 H   0  0  0  0  0  0  0  0  0  0  0  0
   -3.6580   22.5560  -31.6090 C   0  0  0  0  0  0  0  0  0  0  0  0
   -2.7357   22.9693  -31.1749 H   0  0  0  0  0  0  0  0  0  0  0  0
   -2.4500   24.1400  -27.1590 C   0  0  0  0  0  0  0  0  0  0  0  0
   -3.0356   23.5334  -26.4525 H   0  0  0  0  0  0  0  0  0  0  0  0
   -1.1620   24.5570  -26.8290 C   0  0  0  0  0  0  0  0  0  0  0  0
   -0.7198   24.2853  -25.8591 H   0  0  0  0  0  0  0  0  0  0  0  0
  1  2  1  0
  2  3  2  0
  3  4  1  0
  4  5  1  0
  5  6  2  0
  6  7  1  0
  7  8  2  0
  7  9  2  0
  7 10  1  0
 10 11  2  0
 11 12  1  0
 11 13  1  0
 13 14  1  0
 13 15  2  0
 15 16  1  0
 16 17  1  0
 17 18  2  0
 18 19  1  0
 18 20  1  0
 20 21  1  0
 20 22  2  0
 22 23  1  0
 22 24  1  0
 24 25  1  0
 24 26  2  0
 26 27  1  0
 27 28  1  0
 27 29  1  0
 29 30  1  0
 29 31  1  0
 29 32  1  0
 27 33  1  0
 33 34  1  0
 33 35  1  0
 33 36  1  0
 15 37  1  0
 37 38  1  0
 37 39  2  0
 39 40  1  0
  5 41  1  0
 41 42  1  0
 41 43  2  0
 43 44  1  0
 43  2  1  0
 39 10  1  0
 26 17  1  0
M  CHG  1   4  -1
M  END
>  <UniqueID>  (22) 
21

>  <SMILES>  (22) 
CC(C)c1ccccc1Oc1ccc(S(=O)(=O)/N=c2/cccn[n-]2)cc1

>  <Energy>  (22) 
55.02648488947164

>  <Genealogy>  (22) 
CC(C)c1ccccc1Oc1ccc(S(=O)(=O)N=c2cccn[n-]2)cc1 (protonated)
CC(C)c1ccccc1Oc1ccc(S(=O)(=O)/N=c2/cccn[n-]2)cc1 (cis-trans isomerization)
CC(C)c1ccccc1Oc1ccc(S(=O)(=O)/N=c2/cccn[n-]2)cc1 (3D coordinates assigned)
CC(C)c1ccccc1Oc1ccc(S(=O)(=O)/N=c2/cccn[n-]2)cc1 (optimized conformer: 55.02648488947164 kcal/mol)

>  <smiles>  (22) 
CC(C)c1ccccc1Oc1ccc(S(=O)(=O)N=c2cccn[nH]2)cc1

>  <score_type>  (22) 
oracle

>  <origin>  (22) 
adgpu

>  <m_score__min__energy>  (22) 
-11.07

>  <m_primary>  (22) 
energy

$$$$
22:0
     RDKit          3D

 61 64  0  0  0  0  0  0  0  0999 V2000
   -1.8800   19.5990  -27.0510 C   0  0  0  0  0  0  0  0  0  0  0  0
   -1.1820   20.7150  -27.5960 O   0  0  0  0  0  0  0  0  0  0  0  0
   -1.8040   21.8150  -28.2040 C   0  0  0  0  0  0  0  0  0  0  0  0
   -1.7220   21.9400  -29.5970 C   0  0  0  0  0  0  0  0  0  0  0  0
   -2.3280   23.0170  -30.2510 C   0  0  0  0  0  0  0  0  0  0  0  0
   -3.0200   23.9920  -29.5140 C   0  0  0  0  0  0  0  0  0  0  0  0
   -3.6840   25.0830  -30.1580 N   0  0  0  0  0  0  0  0  0  0  0  0
   -5.4080   25.2240  -30.2960 S   0  0  0  0  0  0  0  0  0  0  0  0
   -5.9800   25.4960  -28.9310 O   0  0  0  0  0  0  0  0  0  0  0  0
   -5.7360   26.3910  -31.1850 O   0  0  0  0  0  0  0  0  0  0  0  0
   -6.1400   23.7500  -30.9220 C   0  0  0  0  0  0  0  0  0  0  0  0
   -7.5160   23.5310  -30.7900 C   0  0  0  0  0  0  0  0  0  0  0  0
   -8.0930   22.3700  -31.3070 C   0  0  0  0  0  0  0  0  0  0  0  0
   -7.3060   21.4110  -31.9520 C   0  0  0  0  0  0  0  0  0  0  0  0
   -8.1310   20.0240  -32.6620 Cl  0  0  0  0  0  0  0  0  0  0  0  0
   -5.9100   21.6110  -32.0730 C   0  0  0  0  0  0  0  0  0  0  0  0
   -5.0280   20.6180  -32.7290 C   0  0  0  0  0  0  0  0  0  0  0  0
   -5.2380   19.3870  -32.5560 O   0  0  0  0  0  0  0  0  0  0  0  0
   -3.9970   21.0440  -33.6290 N   0  0  0  0  0  0  0  0  0  0  0  0
   -2.6760   20.4740  -33.6860 C   0  0  0  0  0  0  0  0  0  0  0  0
   -1.5230   21.2740  -33.7950 C   0  0  0  0  0  0  0  0  0  0  0  0
   -0.2660   20.6840  -33.9400 C   0  0  0  0  0  0  0  0  0  0  0  0
   -0.1460   19.2950  -34.0060 C   0  0  0  0  0  0  0  0  0  0  0  0
   -1.2830   18.4860  -33.9130 C   0  0  0  0  0  0  0  0  0  0  0  0
   -1.1300   16.7440  -34.1230 S   0  0  0  0  0  0  0  0  0  0  0  0
   -0.9680   16.0500  -32.7990 O   0  0  0  0  0  0  0  0  0  0  0  0
    0.0810   16.4580  -34.9660 O   0  0  0  0  0  0  0  0  0  0  0  0
   -2.5440   16.1440  -34.9300 N   0  0  0  0  0  0  0  0  0  0  0  0
   -3.8980   16.4750  -34.5790 C   0  0  0  0  0  0  0  0  0  0  0  0
   -4.6290   17.4340  -35.3030 C   0  0  0  0  0  0  0  0  0  0  0  0
   -5.9480   17.7320  -34.9540 C   0  0  0  0  0  0  0  0  0  0  0  0
   -6.5500   17.0850  -33.8770 C   0  0  0  0  0  0  0  0  0  0  0  0
   -5.8410   16.1250  -33.1490 C   0  0  0  0  0  0  0  0  0  0  0  0
   -4.5110   15.8180  -33.4880 C   0  0  0  0  0  0  0  0  0  0  0  0
   -3.7560   14.7870  -32.6940 C   0  0  0  0  0  0  0  0  0  0  0  0
   -2.5420   19.0770  -33.7380 C   0  0  0  0  0  0  0  0  0  0  0  0
   -5.3440   22.7950  -31.5660 C   0  0  0  0  0  0  0  0  0  0  0  0
   -3.1210   23.8590  -28.1240 C   0  0  0  0  0  0  0  0  0  0  0  0
   -2.5100   22.7870  -27.4680 C   0  0  0  0  0  0  0  0  0  0  0  0
   -1.8493   19.6481  -25.9525 H   0  0  0  0  0  0  0  0  0  0  0  0
   -2.9263   19.6199  -27.3898 H   0  0  0  0  0  0  0  0  0  0  0  0
   -1.4034   18.6673  -27.3898 H   0  0  0  0  0  0  0  0  0  0  0  0
   -1.1762   21.1844  -30.1811 H   0  0  0  0  0  0  0  0  0  0  0  0
   -2.2626   23.1009  -31.3458 H   0  0  0  0  0  0  0  0  0  0  0  0
   -8.1438   24.2751  -30.2780 H   0  0  0  0  0  0  0  0  0  0  0  0
   -9.1763   22.2080  -31.2061 H   0  0  0  0  0  0  0  0  0  0  0  0
   -4.2000   21.8840  -34.2180 H   0  0  0  0  0  0  0  0  0  0  0  0
   -1.6128   22.3699  -33.7658 H   0  0  0  0  0  0  0  0  0  0  0  0
    0.6324   21.3157  -34.0024 H   0  0  0  0  0  0  0  0  0  0  0  0
    0.8455   18.8354  -34.1315 H   0  0  0  0  0  0  0  0  0  0  0  0
   -4.1581   17.9533  -36.1507 H   0  0  0  0  0  0  0  0  0  0  0  0
   -6.5128   18.4792  -35.5307 H   0  0  0  0  0  0  0  0  0  0  0  0
   -7.5856   17.3301  -33.5988 H   0  0  0  0  0  0  0  0  0  0  0  0
   -6.3253   15.6077  -32.3077 H   0  0  0  0  0  0  0  0  0  0  0  0
   -3.8954   14.9773  -31.6196 H   0  0  0  0  0  0  0  0  0  0  0  0
   -4.1349   13.7843  -32.9409 H   0  0  0  0  0  0  0  0  0  0  0  0
   -2.6857   14.8456  -32.9409 H   0  0  0  0  0  0  0  0  0  0  0  0
   -3.4337   18.4403  -33.6405 H   0  0  0  0  0  0  0  0  0  0  0  0
   -4.2641   22.9724  -31.6768 H   0  0  0  0  0  0  0  0  0  0  0  0
   -3.6855   24.6039  -27.5439 H   0  0  0  0  0  0  0  0  0  0  0  0
   -2.5805   22.7018  -26.3736 H   0  0  0  0  0  0  0  0  0  0  0  0
  1  2  1  0
  2  3  1  0
  3  4  2  0
  4  5  1  0
  5  6  2  0
  6  7  1  0
  7  8  1  0
  8  9  2  0
  8 10  2  0
  8 11  1  0
 11 12  2  0
 12 13  1  0
 13 14  2  0
 14 15  1  0
 14 16  1  0
 16 17  1  0
 17 18  2  0
 17 19  1  0
 19 20  1  0
 20 21  2  0
 21 22  1  0
 22 23  2  0
 23 24  1  0
 24 25  1  0
 25 26  2  0
 25 27  2  0
 25 28  1  0
 28 29  1  0
 29 30  2  0
 30 31  1  0
 31 32  2  0
 32 33  1  0
 33 34  2  0
 34 35  1  0
 24 36  2  0
 16 37  2  0
  6 38  1  0
 38 39  2  0
 39  3  1  0
 37 11  1  0
 36 20  1  0
 34 29  1  0
  1 40  1  0
  1 41  1  0
  1 42  1  0
  4 43  1  0
  5 44  1  0
 12 45  1  0
 13 46  1  0
 19 47  1  0
 21 48  1  0
 22 49  1  0
 23 50  1  0
 30 51  1  0
 31 52  1  0
 32 53  1  0
 33 54  1  0
 35 55  1  0
 35 56  1  0
 35 57  1  0
 36 58  1  0
 37 59  1  0
 38 60  1  0
 39 61  1  0
M  CHG  2   7  -1  28  -1
M  END
>  <UniqueID>  (23) 
22

>  <SMILES>  (23) 
COc1ccc([N-]S(=O)(=O)c2ccc(Cl)c(C(=O)Nc3cccc(S(=O)(=O)[N-]c4ccccc4C)c3)c2)cc1

>  <Energy>  (23) 
86.03597211305092

>  <Genealogy>  (23) 
COc1ccc([N-]S(=O)(=O)c2ccc(Cl)c(C(=O)Nc3cccc(S(=O)(=O)[N-]c4ccccc4C)c3)c2)cc1 (protonated)
COc1ccc([N-]S(=O)(=O)c2ccc(Cl)c(C(=O)Nc3cccc(S(=O)(=O)[N-]c4ccccc4C)c3)c2)cc1 (3D coordinates assigned)
COc1ccc([N-]S(=O)(=O)c2ccc(Cl)c(C(=O)Nc3cccc(S(=O)(=O)[N-]c4ccccc4C)c3)c2)cc1 (optimized conformer: 86.03597211305092 kcal/mol)

>  <smiles>  (23) 
COc1ccc(NS(=O)(=O)c2ccc(Cl)c(C(=O)Nc3cccc(S(=O)(=O)Nc4ccccc4C)c3)c2)cc1

>  <score_type>  (23) 
oracle

>  <origin>  (23) 
adgpu

>  <m_score__min__energy>  (23) 
-12.960000000000001

>  <m_primary>  (23) 
energy

$$$$
23:0
     RDKit          3D

 33 35  0  0  0  0  0  0  0  0999 V2000
   -8.4070   18.9600  -32.1750 N   0  0  0  0  0  0  0  0  0  0  0  0
   -7.3850   18.7780  -32.6860 C   0  0  0  0  0  0  0  0  0  0  0  0
   -6.1110   18.5510  -33.3210 C   0  0  0  0  0  0  0  0  0  0  0  0
   -6.0440   17.6990  -34.4330 C   0  0  0  0  0  0  0  0  0  0  0  0
   -4.8210   17.4650  -35.0670 C   0  0  0  0  0  0  0  0  0  0  0  0
   -3.6590   18.0800  -34.5970 C   0  0  0  0  0  0  0  0  0  0  0  0
   -3.7170   18.9310  -33.4910 C   0  0  0  0  0  0  0  0  0  0  0  0
   -4.9360   19.1650  -32.8400 C   0  0  0  0  0  0  0  0  0  0  0  0
   -4.9630   20.2640  -31.4120 S   0  0  0  0  0  0  0  0  0  0  0  0
   -4.4030   21.7440  -32.3300 C   0  0  0  0  0  0  0  0  0  0  0  0
   -4.5320   22.9870  -31.4980 C   0  0  0  0  0  0  0  0  0  0  0  0
   -3.4860   23.7880  -31.2090 N   0  0  0  0  0  0  0  0  0  0  0  0
   -3.9650   24.8330  -30.5480 N   0  0  0  0  0  0  0  0  0  0  0  0
   -5.2960   24.6580  -30.4560 C   0  0  0  0  0  0  0  0  0  0  0  0
   -6.2850   25.7080  -29.6830 S   0  0  0  0  0  0  0  0  0  0  0  0
   -5.6900   23.5050  -31.0360 N   0  0  0  0  0  0  0  0  0  0  0  0
   -7.0200   22.9870  -31.1810 C   0  0  0  0  0  0  0  0  0  0  0  0
   -7.4850   21.9740  -30.3260 C   0  0  0  0  0  0  0  0  0  0  0  0
   -8.7760   21.4600  -30.4810 C   0  0  0  0  0  0  0  0  0  0  0  0
   -9.6110   21.9540  -31.4870 C   0  0  0  0  0  0  0  0  0  0  0  0
   -9.1560   22.9630  -32.3400 C   0  0  0  0  0  0  0  0  0  0  0  0
   -7.8660   23.4800  -32.1880 C   0  0  0  0  0  0  0  0  0  0  0  0
   -6.9573   17.2134  -34.8073 H   0  0  0  0  0  0  0  0  0  0  0  0
   -4.7736   16.7950  -35.9381 H   0  0  0  0  0  0  0  0  0  0  0  0
   -2.6975   17.8942  -35.0979 H   0  0  0  0  0  0  0  0  0  0  0  0
   -2.8008   19.4203  -33.1288 H   0  0  0  0  0  0  0  0  0  0  0  0
   -3.3485   21.6112  -32.6137 H   0  0  0  0  0  0  0  0  0  0  0  0
   -5.0363   21.8577  -33.2222 H   0  0  0  0  0  0  0  0  0  0  0  0
   -6.8313   21.5839  -29.5320 H   0  0  0  0  0  0  0  0  0  0  0  0
   -9.1350   20.6656  -29.8102 H   0  0  0  0  0  0  0  0  0  0  0  0
  -10.6264   21.5485  -31.6073 H   0  0  0  0  0  0  0  0  0  0  0  0
   -9.8136   23.3509  -33.1319 H   0  0  0  0  0  0  0  0  0  0  0  0
   -7.5122   24.2760  -32.8597 H   0  0  0  0  0  0  0  0  0  0  0  0
  1  2  3  0
  2  3  1  0
  3  4  2  0
  4  5  1  0
  5  6  2  0
  6  7  1  0
  7  8  2  0
  8  9  1  0
  9 10  1  0
 10 11  1  0
 11 12  2  0
 12 13  1  0
 13 14  1  0
 14 15  2  0
 14 16  1  0
 16 17  1  0
 17 18  2  0
 18 19  1  0
 19 20  2  0
 20 21  1  0
 21 22  2  0
  8  3  1  0
 16 11  1  0
 22 17  1  0
  4 23  1  0
  5 24  1  0
  6 25  1  0
  7 26  1  0
 10 27  1  0
 10 28  1  0
 18 29  1  0
 19 30  1  0
 20 31  1  0
 21 32  1  0
 22 33  1  0
M  CHG  1  13  -1
M  END
>  <UniqueID>  (24) 
23

>  <SMILES>  (24) 
N#Cc1ccccc1SCc1n[n-]c(=S)n1-c1ccccc1

>  <Energy>  (24) 
72.0446672846425

>  <Genealogy>  (24) 
N#Cc1ccccc1SCc1n[n-]c(=S)n1-c1ccccc1 (protonated)
N#Cc1ccccc1SCc1n[n-]c(=S)n1-c1ccccc1 (3D coordinates assigned)
N#Cc1ccccc1SCc1n[n-]c(=S)n1-c1ccccc1 (optimized conformer: 72.0446672846425 kcal/mol)

>  <smiles>  (24) 
N#Cc1ccccc1SCc1n[nH]c(=S)n1-c1ccccc1

>  <score_type>  (24) 
oracle

>  <origin>  (24) 
adgpu

>  <m_score__min__energy>  (24) 
-10.109999999999999

>  <m_primary>  (24) 
energy

$$$$
24:0
     RDKit          3D

 31 31  0  0  0  0  0  0  0  0999 V2000
   -4.2420   24.8640  -26.6940 C   0  0  0  0  0  0  0  0  0  0  0  0
   -3.3870   23.7620  -27.3120 C   0  0  0  0  0  0  0  0  0  0  0  0
   -2.6960   24.2540  -28.5210 N   0  0  0  0  0  0  0  0  0  0  0  0
   -2.5320   23.2210  -29.5650 C   0  0  0  0  0  0  0  0  0  0  0  0
   -3.5030   23.3650  -30.7460 C   0  0  0  0  0  0  0  0  0  0  0  0
   -3.9700   24.7460  -30.8250 N   0  0  0  0  0  0  0  0  0  0  0  0
   -5.0810   25.1100  -30.3240 C   0  0  0  0  0  0  0  0  0  0  0  0
   -6.4880   25.5700  -29.6880 S   0  0  0  0  0  0  0  0  0  0  0  0
   -1.2190   25.1440  -28.1780 S   0  0  0  0  0  0  0  0  0  0  0  0
   -0.0310   24.3430  -28.6400 O   0  0  0  0  0  0  0  0  0  0  0  0
   -1.2320   26.4230  -28.9660 O   0  0  0  0  0  0  0  0  0  0  0  0
   -1.0000   25.5500  -26.4690 C   0  0  0  0  0  0  0  0  0  0  0  0
   -0.6440   24.5520  -25.5470 C   0  0  0  0  0  0  0  0  0  0  0  0
   -0.4920   24.8640  -24.1920 C   0  0  0  0  0  0  0  0  0  0  0  0
   -0.7150   26.1690  -23.7450 C   0  0  0  0  0  0  0  0  0  0  0  0
   -1.0980   27.1600  -24.6510 C   0  0  0  0  0  0  0  0  0  0  0  0
   -1.2500   26.8530  -26.0060 C   0  0  0  0  0  0  0  0  0  0  0  0
   -4.1900   24.7969  -25.5973 H   0  0  0  0  0  0  0  0  0  0  0  0
   -3.8667   25.8454  -27.0196 H   0  0  0  0  0  0  0  0  0  0  0  0
   -5.2859   24.7443  -27.0196 H   0  0  0  0  0  0  0  0  0  0  0  0
   -2.6381   23.4311  -26.5774 H   0  0  0  0  0  0  0  0  0  0  0  0
   -4.0406   22.9235  -27.5945 H   0  0  0  0  0  0  0  0  0  0  0  0
   -1.5045   23.2817  -29.9530 H   0  0  0  0  0  0  0  0  0  0  0  0
   -2.7499   22.2527  -29.0908 H   0  0  0  0  0  0  0  0  0  0  0  0
   -2.9868   23.0983  -31.6800 H   0  0  0  0  0  0  0  0  0  0  0  0
   -4.3625   22.6946  -30.5985 H   0  0  0  0  0  0  0  0  0  0  0  0
   -0.4839   23.5199  -25.8922 H   0  0  0  0  0  0  0  0  0  0  0  0
   -0.1967   24.0814  -23.4777 H   0  0  0  0  0  0  0  0  0  0  0  0
   -0.5889   26.4154  -22.6804 H   0  0  0  0  0  0  0  0  0  0  0  0
   -1.2806   28.1854  -24.2972 H   0  0  0  0  0  0  0  0  0  0  0  0
   -1.5665   27.6343  -26.7127 H   0  0  0  0  0  0  0  0  0  0  0  0
  1  2  1  0
  2  3  1  0
  3  4  1  0
  4  5  1  0
  5  6  1  0
  6  7  2  0
  7  8  2  0
  3  9  1  0
  9 10  2  0
  9 11  2  0
  9 12  1  0
 12 13  2  0
 13 14  1  0
 14 15  2  0
 15 16  1  0
 16 17  2  0
 17 12  1  0
  1 18  1  0
  1 19  1  0
  1 20  1  0
  2 21  1  0
  2 22  1  0
  4 23  1  0
  4 24  1  0
  5 25  1  0
  5 26  1  0
 13 27  1  0
 14 28  1  0
 15 29  1  0
 16 30  1  0
 17 31  1  0
M  END
>  <UniqueID>  (25) 
24

>  <SMILES>  (25) 
CCN(CCN=C=S)S(=O)(=O)c1ccccc1

>  <Energy>  (25) 
28.717813452365498

>  <Genealogy>  (25) 
CCN(CCN=C=S)S(=O)(=O)c1ccccc1 (3D coordinates assigned)
CCN(CCN=C=S)S(=O)(=O)c1ccccc1 (optimized conformer: 28.717813452365498 kcal/mol)

>  <smiles>  (25) 
CCN(CCN=C=S)S(=O)(=O)c1ccccc1

>  <score_type>  (25) 
oracle

>  <origin>  (25) 
adgpu

>  <m_score__min__energy>  (25) 
-6.9400000000000004

>  <m_primary>  (25) 
energy

$$$$
25:0
     RDKit          3D

 44 46  0  0  0  0  0  0  0  0999 V2000
   -3.6170   25.0730  -30.4660 N   0  0  0  0  0  0  0  0  0  0  0  0
   -2.4980   24.3700  -29.3530 S   0  0  0  0  0  0  0  0  0  0  0  0
   -3.2140   24.0880  -28.0610 O   0  0  0  0  0  0  0  0  0  0  0  0
   -1.3720   25.3330  -29.1000 O   0  0  0  0  0  0  0  0  0  0  0  0
   -1.8490   22.8720  -30.0140 C   0  0  0  0  0  0  0  0  0  0  0  0
   -0.7190   22.2780  -29.4380 C   0  0  0  0  0  0  0  0  0  0  0  0
   -0.1960   21.0970  -29.9730 C   0  0  0  0  0  0  0  0  0  0  0  0
   -0.7930   20.4950  -31.0870 C   0  0  0  0  0  0  0  0  0  0  0  0
   -0.2240   19.2840  -31.6020 N   0  0  0  0  0  0  0  0  0  0  0  0
    1.1220   19.1980  -32.6910 S   0  0  0  0  0  0  0  0  0  0  0  0
    1.0210   17.9380  -33.5020 O   0  0  0  0  0  0  0  0  0  0  0  0
    2.3980   19.1670  -31.8970 O   0  0  0  0  0  0  0  0  0  0  0  0
    1.0950   20.5810  -33.7810 C   0  0  0  0  0  0  0  0  0  0  0  0
   -0.1300   21.1050  -34.2080 C   0  0  0  0  0  0  0  0  0  0  0  0
   -0.1630   22.2060  -35.0690 C   0  0  0  0  0  0  0  0  0  0  0  0
    1.0310   22.8020  -35.5140 C   0  0  0  0  0  0  0  0  0  0  0  0
    0.9880   23.9620  -36.4390 C   0  0  0  0  0  0  0  0  0  0  0  0
    2.0080   24.2470  -37.1240 O   0  0  0  0  0  0  0  0  0  0  0  0
   -0.2140   24.7340  -36.5970 N   0  0  0  0  0  0  0  0  0  0  0  0
   -0.2360   26.0820  -37.0980 C   0  0  0  0  0  0  0  0  0  0  0  0
    0.2280   26.3410  -38.3980 C   0  0  0  0  0  0  0  0  0  0  0  0
    0.1950   27.6400  -38.9160 C   0  0  0  0  0  0  0  0  0  0  0  0
   -0.3180   28.6870  -38.1460 C   0  0  0  0  0  0  0  0  0  0  0  0
   -0.8000   28.4370  -36.8590 C   0  0  0  0  0  0  0  0  0  0  0  0
   -0.7660   27.1390  -36.3370 C   0  0  0  0  0  0  0  0  0  0  0  0
    2.2590   22.2620  -35.0890 C   0  0  0  0  0  0  0  0  0  0  0  0
    2.2890   21.1600  -34.2290 C   0  0  0  0  0  0  0  0  0  0  0  0
   -1.9240   21.0980  -31.6690 C   0  0  0  0  0  0  0  0  0  0  0  0
   -2.4440   22.2810  -31.1360 C   0  0  0  0  0  0  0  0  0  0  0  0
   -3.8800   26.0100  -30.0850 H   0  0  0  0  0  0  0  0  0  0  0  0
   -0.2417   22.7420  -28.5623 H   0  0  0  0  0  0  0  0  0  0  0  0
    0.6920   20.6370  -29.5148 H   0  0  0  0  0  0  0  0  0  0  0  0
   -1.0705   20.6491  -33.8651 H   0  0  0  0  0  0  0  0  0  0  0  0
   -1.1308   22.6096  -35.4013 H   0  0  0  0  0  0  0  0  0  0  0  0
   -1.1290   24.2530  -36.4430 H   0  0  0  0  0  0  0  0  0  0  0  0
    0.6198   25.5172  -39.0127 H   0  0  0  0  0  0  0  0  0  0  0  0
    0.5731   27.8373  -39.9300 H   0  0  0  0  0  0  0  0  0  0  0  0
   -0.3423   29.7085  -38.5534 H   0  0  0  0  0  0  0  0  0  0  0  0
   -1.2068   29.2615  -36.2550 H   0  0  0  0  0  0  0  0  0  0  0  0
   -1.1556   26.9447  -35.3268 H   0  0  0  0  0  0  0  0  0  0  0  0
    3.2019   22.7100  -35.4358 H   0  0  0  0  0  0  0  0  0  0  0  0
    3.2545   20.7460  -33.9029 H   0  0  0  0  0  0  0  0  0  0  0  0
   -2.4004   20.6365  -32.5465 H   0  0  0  0  0  0  0  0  0  0  0  0
   -3.3244   22.7499  -31.5997 H   0  0  0  0  0  0  0  0  0  0  0  0
  1  2  1  0
  2  3  2  0
  2  4  2  0
  2  5  1  0
  5  6  2  0
  6  7  1  0
  7  8  2  0
  8  9  1  0
  9 10  1  0
 10 11  2  0
 10 12  2  0
 10 13  1  0
 13 14  2  0
 14 15  1  0
 15 16  2  0
 16 17  1  0
 17 18  2  0
 17 19  1  0
 19 20  1  0
 20 21  2  0
 21 22  1  0
 22 23  2  0
 23 24  1  0
 24 25  2  0
 16 26  1  0
 26 27  2  0
  8 28  1  0
 28 29  2  0
 29  5  1  0
 27 13  1  0
 25 20  1  0
  1 30  1  0
  6 31  1  0
  7 32  1  0
 14 33  1  0
 15 34  1  0
 19 35  1  0
 21 36  1  0
 22 37  1  0
 23 38  1  0
 24 39  1  0
 25 40  1  0
 26 41  1  0
 27 42  1  0
 28 43  1  0
 29 44  1  0
M  CHG  2   1  -1   9  -1
M  END
>  <UniqueID>  (26) 
25

>  <SMILES>  (26) 
[NH-]S(=O)(=O)c1ccc([N-]S(=O)(=O)c2ccc(C(=O)Nc3ccccc3)cc2)cc1

>  <Energy>  (26) 
55.08026909877556

>  <Genealogy>  (26) 
[NH-]S(=O)(=O)c1ccc([N-]S(=O)(=O)c2ccc(C(=O)Nc3ccccc3)cc2)cc1 (protonated)
[NH-]S(=O)(=O)c1ccc([N-]S(=O)(=O)c2ccc(C(=O)Nc3ccccc3)cc2)cc1 (3D coordinates assigned)
[NH-]S(=O)(=O)c1ccc([N-]S(=O)(=O)c2ccc(C(=O)Nc3ccccc3)cc2)cc1 (optimized conformer: 55.08026909877556 kcal/mol)

>  <smiles>  (26) 
NS(=O)(=O)c1ccc(NS(=O)(=O)c2ccc(C(=O)Nc3ccccc3)cc2)cc1

>  <score_type>  (26) 
oracle

>  <origin>  (26) 
adgpu

>  <m_score__min__energy>  (26) 
-11.699999999999999

>  <m_primary>  (26) 
energy

$$$$
26:0
     RDKit          3D

 34 36  0  0  0  0  0  0  0  0999 V2000
   -4.5880   12.9950  -30.8240 C   0  0  0  0  0  0  0  0  0  0  0  0
   -4.5940   13.5280  -32.2170 C   0  0  0  0  0  0  0  0  0  0  0  0
   -4.0380   14.7200  -32.6290 C   0  0  0  0  0  0  0  0  0  0  0  0
   -4.2450   14.7120  -33.9920 C   0  0  0  0  0  0  0  0  0  0  0  0
   -3.8720   15.7940  -34.9520 C   0  0  0  0  0  0  0  0  0  0  0  0
   -4.4610   17.0920  -34.5070 C   0  0  0  0  0  0  0  0  0  0  0  0
   -5.5800   17.6250  -35.0390 N   0  0  0  0  0  0  0  0  0  0  0  0
   -5.8700   18.8440  -34.5090 C   0  0  0  0  0  0  0  0  0  0  0  0
   -4.9620   19.3040  -33.5500 C   0  0  0  0  0  0  0  0  0  0  0  0
   -5.0150   20.5940  -32.8150 C   0  0  0  0  0  0  0  0  0  0  0  0
   -3.8290   21.2110  -32.3810 C   0  0  0  0  0  0  0  0  0  0  0  0
   -3.8670   22.4230  -31.6900 C   0  0  0  0  0  0  0  0  0  0  0  0
   -5.0910   23.0460  -31.4100 C   0  0  0  0  0  0  0  0  0  0  0  0
   -5.1130   24.5830  -30.5340 S   0  0  0  0  0  0  0  0  0  0  0  0
   -3.5330   25.2840  -30.4790 N   0  0  0  0  0  0  0  0  0  0  0  0
   -5.5880   24.3530  -29.1260 O   0  0  0  0  0  0  0  0  0  0  0  0
   -6.0420   25.5380  -31.2290 O   0  0  0  0  0  0  0  0  0  0  0  0
   -6.2870   22.4370  -31.8410 C   0  0  0  0  0  0  0  0  0  0  0  0
   -7.8610   23.1630  -31.5360 Cl  0  0  0  0  0  0  0  0  0  0  0  0
   -6.2420   21.2210  -32.5340 C   0  0  0  0  0  0  0  0  0  0  0  0
   -3.7660   18.1250  -33.3800 S   0  0  0  0  0  0  0  0  0  0  0  0
   -4.8630   13.6020  -34.3240 O   0  0  0  0  0  0  0  0  0  0  0  0
   -5.0810   12.8570  -33.2790 N   0  0  0  0  0  0  0  0  0  0  0  0
   -4.5974   13.8325  -30.1109 H   0  0  0  0  0  0  0  0  0  0  0  0
   -5.4792   12.3696  -30.6669 H   0  0  0  0  0  0  0  0  0  0  0  0
   -3.6830   12.3898  -30.6669 H   0  0  0  0  0  0  0  0  0  0  0  0
   -3.5474   15.4917  -32.0176 H   0  0  0  0  0  0  0  0  0  0  0  0
   -2.7765   15.8849  -34.9917 H   0  0  0  0  0  0  0  0  0  0  0  0
   -4.2602   15.5429  -35.9501 H   0  0  0  0  0  0  0  0  0  0  0  0
   -6.7535   19.4249  -34.8124 H   0  0  0  0  0  0  0  0  0  0  0  0
   -2.8601   20.7333  -32.5883 H   0  0  0  0  0  0  0  0  0  0  0  0
   -2.9282   22.8934  -31.3623 H   0  0  0  0  0  0  0  0  0  0  0  0
   -3.5000   26.0240  -31.2160 H   0  0  0  0  0  0  0  0  0  0  0  0
   -7.1797   20.7496  -32.8632 H   0  0  0  0  0  0  0  0  0  0  0  0
  1  2  1  0
  2  3  1  0
  3  4  2  0
  4  5  1  0
  5  6  1  0
  6  7  2  0
  7  8  1  0
  8  9  2  0
  9 10  1  0
 10 11  2  0
 11 12  1  0
 12 13  2  0
 13 14  1  0
 14 15  1  0
 14 16  2  0
 14 17  2  0
 13 18  1  0
 18 19  1  0
 18 20  2  0
  9 21  1  0
  4 22  1  0
 22 23  1  0
 23  2  2  0
 21  6  1  0
 20 10  1  0
  1 24  1  0
  1 25  1  0
  1 26  1  0
  3 27  1  0
  5 28  1  0
  5 29  1  0
  8 30  1  0
 11 31  1  0
 12 32  1  0
 15 33  1  0
 20 34  1  0
M  CHG  1  15  -1
M  END
>  <UniqueID>  (27) 
26

>  <SMILES>  (27) 
Cc1cc(Cc2ncc(-c3ccc(S([NH-])(=O)=O)c(Cl)c3)s2)on1

>  <Energy>  (27) 
96.21692806625926

>  <Genealogy>  (27) 
Cc1cc(Cc2ncc(-c3ccc(S([NH-])(=O)=O)c(Cl)c3)s2)on1 (protonated)
Cc1cc(Cc2ncc(-c3ccc(S([NH-])(=O)=O)c(Cl)c3)s2)on1 (3D coordinates assigned)
Cc1cc(Cc2ncc(-c3ccc(S([NH-])(=O)=O)c(Cl)c3)s2)on1 (optimized conformer: 96.21692806625926 kcal/mol)

>  <smiles>  (27) 
Cc1cc(Cc2ncc(-c3ccc(S(N)(=O)=O)c(Cl)c3)s2)on1

>  <score_type>  (27) 
oracle

>  <origin>  (27) 
adgpu

>  <m_score__min__energy>  (27) 
-10.09

>  <m_primary>  (27) 
energy

$$$$
27:0
     RDKit          3D

 55 59  0  0  0  0  0  0  0  0999 V2000
   -5.4800   15.1170  -34.8940 F   0  0  0  0  0  0  0  0  0  0  0  0
   -5.8310   16.3000  -34.3330 C   0  0  0  0  0  0  0  0  0  0  0  0
   -6.5220   16.3180  -33.1170 C   0  0  0  0  0  0  0  0  0  0  0  0
   -6.8840   17.5360  -32.5350 C   0  0  0  0  0  0  0  0  0  0  0  0
   -6.5700   18.7490  -33.1750 C   0  0  0  0  0  0  0  0  0  0  0  0
   -6.9260   20.0100  -32.5830 N   0  0  0  0  0  0  0  0  0  0  0  0
   -8.1680   20.3250  -32.2480 N   0  0  0  0  0  0  0  0  0  0  0  0
   -8.1640   21.5770  -31.7500 C   0  0  0  0  0  0  0  0  0  0  0  0
   -6.8720   22.0760  -31.7550 C   0  0  0  0  0  0  0  0  0  0  0  0
   -6.4120   23.4090  -31.2010 C   0  0  0  0  0  0  0  0  0  0  0  0
   -5.7760   23.3250  -29.8610 N   0  0  0  0  0  0  0  0  0  0  0  0
   -5.3740   24.6600  -29.3510 C   0  0  0  0  0  0  0  0  0  0  0  0
   -4.4690   24.5440  -28.1200 C   0  0  0  0  0  0  0  0  0  0  0  0
   -3.2640   23.7710  -28.4570 N   0  0  0  0  0  0  0  0  0  0  0  0
   -2.0270   24.0080  -27.7530 C   0  0  0  0  0  0  0  0  0  0  0  0
   -1.5930   23.1080  -26.7620 C   0  0  0  0  0  0  0  0  0  0  0  0
   -0.3910   23.3250  -26.0820 C   0  0  0  0  0  0  0  0  0  0  0  0
    0.3900   24.4420  -26.3810 C   0  0  0  0  0  0  0  0  0  0  0  0
   -0.0300   25.3460  -27.3600 C   0  0  0  0  0  0  0  0  0  0  0  0
   -1.2310   25.1350  -28.0450 C   0  0  0  0  0  0  0  0  0  0  0  0
   -1.6280   26.0490  -28.9650 F   0  0  0  0  0  0  0  0  0  0  0  0
   -3.2970   22.8750  -29.6200 C   0  0  0  0  0  0  0  0  0  0  0  0
   -4.7060   22.2860  -29.7880 C   0  0  0  0  0  0  0  0  0  0  0  0
   -6.1140   21.0540  -32.3060 C   0  0  0  0  0  0  0  0  0  0  0  0
   -4.6840   21.0310  -32.4220 N   0  0  0  0  0  0  0  0  0  0  0  0
   -3.9290   21.9260  -33.0890 C   0  0  0  0  0  0  0  0  0  0  0  0
   -2.5970   21.5830  -32.9800 C   0  0  0  0  0  0  0  0  0  0  0  0
   -2.5470   20.4360  -32.2110 C   0  0  0  0  0  0  0  0  0  0  0  0
   -3.8510   20.1230  -31.8820 C   0  0  0  0  0  0  0  0  0  0  0  0
   -5.8600   18.7210  -34.3860 C   0  0  0  0  0  0  0  0  0  0  0  0
   -5.4980   17.5000  -34.9640 C   0  0  0  0  0  0  0  0  0  0  0  0
   -6.7808   15.3724  -32.6182 H   0  0  0  0  0  0  0  0  0  0  0  0
   -7.4166   17.5463  -31.5726 H   0  0  0  0  0  0  0  0  0  0  0  0
   -9.0517   22.1201  -31.3937 H   0  0  0  0  0  0  0  0  0  0  0  0
   -5.6830   23.8409  -31.9024 H   0  0  0  0  0  0  0  0  0  0  0  0
   -7.3121   24.0306  -31.0852 H   0  0  0  0  0  0  0  0  0  0  0  0
   -6.5400   22.9980  -29.2200 H   0  0  0  0  0  0  0  0  0  0  0  0
   -4.8317   25.1965  -30.1435 H   0  0  0  0  0  0  0  0  0  0  0  0
   -6.2837   25.2053  -29.0593 H   0  0  0  0  0  0  0  0  0  0  0  0
   -4.1756   25.5504  -27.7866 H   0  0  0  0  0  0  0  0  0  0  0  0
   -5.0157   24.0309  -27.3151 H   0  0  0  0  0  0  0  0  0  0  0  0
   -2.2048   22.2263  -26.5204 H   0  0  0  0  0  0  0  0  0  0  0  0
   -0.0604   22.6143  -25.3102 H   0  0  0  0  0  0  0  0  0  0  0  0
    1.3362   24.6108  -25.8460 H   0  0  0  0  0  0  0  0  0  0  0  0
    0.5862   26.2269  -27.5929 H   0  0  0  0  0  0  0  0  0  0  0  0
   -3.0284   23.4411  -30.5241 H   0  0  0  0  0  0  0  0  0  0  0  0
   -2.5787   22.0562  -29.4662 H   0  0  0  0  0  0  0  0  0  0  0  0
   -4.7291   21.6953  -30.7157 H   0  0  0  0  0  0  0  0  0  0  0  0
   -4.9098   21.6705  -28.8994 H   0  0  0  0  0  0  0  0  0  0  0  0
   -4.3159   22.7977  -33.6371 H   0  0  0  0  0  0  0  0  0  0  0  0
   -1.7421   22.1180  -33.4193 H   0  0  0  0  0  0  0  0  0  0  0  0
   -1.6440   19.8804  -31.9179 H   0  0  0  0  0  0  0  0  0  0  0  0
   -4.1614   19.2623  -31.2714 H   0  0  0  0  0  0  0  0  0  0  0  0
   -5.5872   19.6639  -34.8825 H   0  0  0  0  0  0  0  0  0  0  0  0
   -4.9499   17.4851  -35.9176 H   0  0  0  0  0  0  0  0  0  0  0  0
  1  2  1  0
  2  3  2  0
  3  4  1  0
  4  5  2  0
  5  6  1  0
  6  7  1  0
  7  8  2  0
  8  9  1  0
  9 10  1  0
 10 11  1  0
 11 12  1  0
 12 13  1  0
 13 14  1  0
 14 15  1  0
 15 16  2  0
 16 17  1  0
 17 18  2  0
 18 19  1  0
 19 20  2  0
 20 21  1  0
 14 22  1  0
 22 23  1  0
  9 24  2  0
 24 25  1  0
 25 26  1  0
 26 27  2  0
 27 28  1  0
 28 29  2  0
  5 30  1  0
 30 31  2  0
 31  2  1  0
 24  6  1  0
 29 25  1  0
 23 11  1  0
 20 15  1  0
  3 32  1  0
  4 33  1  0
  8 34  1  0
 10 35  1  0
 10 36  1  0
 11 37  1  0
 12 38  1  0
 12 39  1  0
 13 40  1  0
 13 41  1  0
 16 42  1  0
 17 43  1  0
 18 44  1  0
 19 45  1  0
 22 46  1  0
 22 47  1  0
 23 48  1  0
 23 49  1  0
 26 50  1  0
 27 51  1  0
 28 52  1  0
 29 53  1  0
 30 54  1  0
 31 55  1  0
M  CHG  1  11   1
M  END
>  <UniqueID>  (28) 
27

>  <SMILES>  (28) 
Fc1ccc(-n2ncc(C[NH+]3CCN(c4ccccc4F)CC3)c2-n2cccc2)cc1

>  <Energy>  (28) 
138.73638747054292

>  <Genealogy>  (28) 
Fc1ccc(-n2ncc(C[NH+]3CCN(c4ccccc4F)CC3)c2-n2cccc2)cc1 (protonated)
Fc1ccc(-n2ncc(C[NH+]3CCN(c4ccccc4F)CC3)c2-n2cccc2)cc1 (3D coordinates assigned)
Fc1ccc(-n2ncc(C[NH+]3CCN(c4ccccc4F)CC3)c2-n2cccc2)cc1 (nonaromatic ring conformer: 138.73638747054292 kcal/mol)

>  <smiles>  (28) 
Fc1ccc(-n2ncc(CN3CCN(c4ccccc4F)CC3)c2-n2cccc2)cc1

>  <score_type>  (28) 
oracle

>  <origin>  (28) 
adgpu

>  <m_score__min__energy>  (28) 
-7.9100000000000001

>  <m_primary>  (28) 
energy

$$$$
28:0
     RDKit          3D

 41 44  0  0  0  0  0  0  0  0999 V2000
   -0.6400   24.1280  -29.5350 O   0  0  0  0  0  0  0  0  0  0  0  0
   -1.7320   24.2060  -28.9060 C   0  0  0  0  0  0  0  0  0  0  0  0
   -2.9890   24.2210  -29.6830 C   0  0  0  0  0  0  0  0  0  0  0  0
   -3.8510   23.1550  -29.8340 C   0  0  0  0  0  0  0  0  0  0  0  0
   -4.8840   23.6620  -30.6040 C   0  0  0  0  0  0  0  0  0  0  0  0
   -6.0910   22.9370  -31.0720 C   0  0  0  0  0  0  0  0  0  0  0  0
   -7.3220   23.6000  -31.2460 C   0  0  0  0  0  0  0  0  0  0  0  0
   -8.4470   22.8980  -31.6880 C   0  0  0  0  0  0  0  0  0  0  0  0
   -8.3610   21.5320  -31.9610 C   0  0  0  0  0  0  0  0  0  0  0  0
   -7.1480   20.8630  -31.7920 C   0  0  0  0  0  0  0  0  0  0  0  0
   -6.0180   21.5580  -31.3500 C   0  0  0  0  0  0  0  0  0  0  0  0
   -4.6370   24.9580  -30.8790 N   0  0  0  0  0  0  0  0  0  0  0  0
   -3.4880   25.2980  -30.3170 N   0  0  0  0  0  0  0  0  0  0  0  0
   -1.7190   24.2830  -27.4640 N   0  0  0  0  0  0  0  0  0  0  0  0
   -2.7720   25.0160  -26.7410 C   0  0  0  0  0  0  0  0  0  0  0  0
   -2.3140   25.4390  -25.3350 C   0  0  0  0  0  0  0  0  0  0  0  0
   -0.8560   25.9460  -25.3280 C   0  0  0  0  0  0  0  0  0  0  0  0
   -0.7740   27.2750  -25.9500 N   0  0  0  0  0  0  0  0  0  0  0  0
   -0.8620   28.4920  -25.3770 C   0  0  0  0  0  0  0  0  0  0  0  0
   -0.6440   29.4680  -26.2790 N   0  0  0  0  0  0  0  0  0  0  0  0
   -0.4030   28.8770  -27.4410 N   0  0  0  0  0  0  0  0  0  0  0  0
   -0.4770   27.5490  -27.2330 C   0  0  0  0  0  0  0  0  0  0  0  0
    0.1370   24.9440  -25.9840 C   0  0  0  0  0  0  0  0  0  0  0  0
   -0.5610   23.7860  -26.7090 C   0  0  0  0  0  0  0  0  0  0  0  0
   -3.7427   22.1359  -29.4344 H   0  0  0  0  0  0  0  0  0  0  0  0
   -7.3982   24.6764  -31.0327 H   0  0  0  0  0  0  0  0  0  0  0  0
   -9.4038   23.4242  -31.8212 H   0  0  0  0  0  0  0  0  0  0  0  0
   -9.2485   20.9832  -32.3091 H   0  0  0  0  0  0  0  0  0  0  0  0
   -7.0806   19.7863  -32.0070 H   0  0  0  0  0  0  0  0  0  0  0  0
   -5.0653   21.0241  -31.2185 H   0  0  0  0  0  0  0  0  0  0  0  0
   -3.0366   25.9164  -27.3148 H   0  0  0  0  0  0  0  0  0  0  0  0
   -3.6385   24.3474  -26.6306 H   0  0  0  0  0  0  0  0  0  0  0  0
   -2.9714   26.2441  -24.9750 H   0  0  0  0  0  0  0  0  0  0  0  0
   -2.3692   24.5565  -24.6807 H   0  0  0  0  0  0  0  0  0  0  0  0
   -0.5458   26.0305  -24.2760 H   0  0  0  0  0  0  0  0  0  0  0  0
   -1.0827   28.6650  -24.3133 H   0  0  0  0  0  0  0  0  0  0  0  0
   -0.3157   26.7877  -28.0104 H   0  0  0  0  0  0  0  0  0  0  0  0
    0.7546   25.4904  -26.7121 H   0  0  0  0  0  0  0  0  0  0  0  0
    0.7404   24.5061  -25.1752 H   0  0  0  0  0  0  0  0  0  0  0  0
    0.1485   23.3117  -27.4030 H   0  0  0  0  0  0  0  0  0  0  0  0
   -0.9061   23.0532  -25.9647 H   0  0  0  0  0  0  0  0  0  0  0  0
  1  2  2  0
  2  3  1  0
  3  4  2  0
  4  5  1  0
  5  6  1  0
  6  7  2  0
  7  8  1  0
  8  9  2  0
  9 10  1  0
 10 11  2  0
  5 12  2  0
 12 13  1  0
  2 14  1  0
 14 15  1  0
 15 16  1  0
 16 17  1  0
 17 18  1  0
 18 19  1  0
 19 20  2  0
 20 21  1  0
 21 22  2  0
 17 23  1  0
 23 24  1  0
 13  3  1  0
 24 14  1  0
 11  6  1  0
 22 18  1  0
  4 25  1  0
  7 26  1  0
  8 27  1  0
  9 28  1  0
 10 29  1  0
 11 30  1  0
 15 31  1  0
 15 32  1  0
 16 33  1  0
 16 34  1  0
 17 35  1  0
 19 36  1  0
 22 37  1  0
 23 38  1  0
 23 39  1  0
 24 40  1  0
 24 41  1  0
M  CHG  1  13  -1
M  END
>  <UniqueID>  (29) 
28

>  <SMILES>  (29) 
O=C(c1cc(-c2ccccc2)n[n-]1)N1CCC(n2cnnc2)CC1

>  <Energy>  (29) 
114.61607688782918

>  <Genealogy>  (29) 
O=C(c1cc(-c2ccccc2)n[n-]1)N1CCC(n2cnnc2)CC1 (protonated)
O=C(c1cc(-c2ccccc2)n[n-]1)N1CCC(n2cnnc2)CC1 (3D coordinates assigned)
O=C(c1cc(-c2ccccc2)n[n-]1)N1CCC(n2cnnc2)CC1 (nonaromatic ring conformer: 114.61607688782918 kcal/mol)

>  <smiles>  (29) 
O=C(c1cc(-c2ccccc2)n[nH]1)N1CCC(n2cnnc2)CC1

>  <score_type>  (29) 
oracle

>  <origin>  (29) 
adgpu

>  <m_score__min__energy>  (29) 
-10.06

>  <m_primary>  (29) 
energy

$$$$
29:0
     RDKit          3D

 52 55  0  0  0  0  0  0  0  0999 V2000
   -9.2480   23.4160  -32.7020 O   0  0  0  0  0  0  0  0  0  0  0  0
   -8.4150   22.8950  -31.9120 C   0  0  0  0  0  0  0  0  0  0  0  0
   -7.6380   23.7600  -31.0690 N   0  0  0  0  0  0  0  0  0  0  0  0
   -6.3360   23.8300  -31.0000 C   0  0  0  0  0  0  0  0  0  0  0  0
   -5.7610   24.8070  -30.1770 C   0  0  0  0  0  0  0  0  0  0  0  0
   -4.3710   24.9080  -30.0850 C   0  0  0  0  0  0  0  0  0  0  0  0
   -3.5770   24.0520  -30.7810 N   0  0  0  0  0  0  0  0  0  0  0  0
   -4.1010   23.0830  -31.5760 C   0  0  0  0  0  0  0  0  0  0  0  0
   -5.4850   22.9450  -31.6970 C   0  0  0  0  0  0  0  0  0  0  0  0
   -8.2060   21.4260  -31.9330 C   0  0  0  0  0  0  0  0  0  0  0  0
   -9.0510   20.5820  -31.1940 C   0  0  0  0  0  0  0  0  0  0  0  0
   -8.8480   19.2000  -31.1970 C   0  0  0  0  0  0  0  0  0  0  0  0
   -7.8030   18.6450  -31.9370 C   0  0  0  0  0  0  0  0  0  0  0  0
   -6.9530   19.4680  -32.6950 C   0  0  0  0  0  0  0  0  0  0  0  0
   -5.8380   18.8800  -33.4800 C   0  0  0  0  0  0  0  0  0  0  0  0
   -6.1010   18.0570  -34.5880 C   0  0  0  0  0  0  0  0  0  0  0  0
   -5.0500   17.5130  -35.3300 C   0  0  0  0  0  0  0  0  0  0  0  0
   -3.7270   17.7880  -34.9800 C   0  0  0  0  0  0  0  0  0  0  0  0
   -3.4420   18.6110  -33.8800 C   0  0  0  0  0  0  0  0  0  0  0  0
   -2.0060   18.9230  -33.5180 C   0  0  0  0  0  0  0  0  0  0  0  0
   -1.7090   20.3760  -33.6260 N   0  0  0  0  0  0  0  0  0  0  0  0
   -0.3660   20.6020  -34.2070 C   0  0  0  0  0  0  0  0  0  0  0  0
    0.7680   20.1970  -33.2400 C   0  0  0  0  0  0  0  0  0  0  0  0
    0.4620   20.4690  -31.8230 N   0  0  0  0  0  0  0  0  0  0  0  0
   -0.5560   21.5100  -31.6640 C   0  0  0  0  0  0  0  0  0  0  0  0
   -1.8850   21.0960  -32.3300 C   0  0  0  0  0  0  0  0  0  0  0  0
   -4.5020   19.1500  -33.1310 C   0  0  0  0  0  0  0  0  0  0  0  0
   -7.1670   20.8580  -32.6930 C   0  0  0  0  0  0  0  0  0  0  0  0
   -6.4027   25.4930  -29.6046 H   0  0  0  0  0  0  0  0  0  0  0  0
   -3.9179   25.6819  -29.4480 H   0  0  0  0  0  0  0  0  0  0  0  0
   -3.4324   22.4047  -32.1264 H   0  0  0  0  0  0  0  0  0  0  0  0
   -5.9094   22.1524  -32.3308 H   0  0  0  0  0  0  0  0  0  0  0  0
   -9.8777   21.0119  -30.6093 H   0  0  0  0  0  0  0  0  0  0  0  0
   -9.5141   18.5469  -30.6141 H   0  0  0  0  0  0  0  0  0  0  0  0
   -7.6438   17.5566  -31.9268 H   0  0  0  0  0  0  0  0  0  0  0  0
   -7.1410   17.8397  -34.8729 H   0  0  0  0  0  0  0  0  0  0  0  0
   -5.2656   16.8658  -36.1929 H   0  0  0  0  0  0  0  0  0  0  0  0
   -2.9040   17.3575  -35.5693 H   0  0  0  0  0  0  0  0  0  0  0  0
   -1.8218   18.5985  -32.4832 H   0  0  0  0  0  0  0  0  0  0  0  0
   -1.3532   18.3887  -34.2239 H   0  0  0  0  0  0  0  0  0  0  0  0
   -2.3870   20.7860  -34.3100 H   0  0  0  0  0  0  0  0  0  0  0  0
   -0.2746   20.0073  -35.1279 H   0  0  0  0  0  0  0  0  0  0  0  0
   -0.2650   21.6781  -34.4113 H   0  0  0  0  0  0  0  0  0  0  0  0
    0.9542   19.1190  -33.3547 H   0  0  0  0  0  0  0  0  0  0  0  0
    1.6471   20.8040  -33.5021 H   0  0  0  0  0  0  0  0  0  0  0  0
    0.1170   19.5930  -31.3660 H   0  0  0  0  0  0  0  0  0  0  0  0
   -0.7300   21.6811  -30.5914 H   0  0  0  0  0  0  0  0  0  0  0  0
   -0.1942   22.4285  -32.1491 H   0  0  0  0  0  0  0  0  0  0  0  0
   -2.4296   20.4369  -31.6379 H   0  0  0  0  0  0  0  0  0  0  0  0
   -2.4364   22.0222  -32.5495 H   0  0  0  0  0  0  0  0  0  0  0  0
   -4.2849   19.7896  -32.2628 H   0  0  0  0  0  0  0  0  0  0  0  0
   -6.5141   21.5091  -33.2929 H   0  0  0  0  0  0  0  0  0  0  0  0
  1  2  2  0
  2  3  1  0
  3  4  2  3
  4  5  1  0
  5  6  2  0
  6  7  1  0
  7  8  1  0
  8  9  2  0
  2 10  1  0
 10 11  2  0
 11 12  1  0
 12 13  2  0
 13 14  1  0
 14 15  1  0
 15 16  2  0
 16 17  1  0
 17 18  2  0
 18 19  1  0
 19 20  1  0
 20 21  1  0
 21 22  1  0
 22 23  1  0
 23 24  1  0
 24 25  1  0
 25 26  1  0
 19 27  2  0
 14 28  2  0
  9  4  1  0
 28 10  1  0
 27 15  1  0
 26 21  1  0
  5 29  1  0
  6 30  1  0
  8 31  1  0
  9 32  1  0
 11 33  1  0
 12 34  1  0
 13 35  1  0
 16 36  1  0
 17 37  1  0
 18 38  1  0
 20 39  1  0
 20 40  1  0
 21 41  1  0
 22 42  1  0
 22 43  1  0
 23 44  1  0
 23 45  1  0
 24 46  1  0
 25 47  1  0
 25 48  1  0
 26 49  1  0
 26 50  1  0
 27 51  1  0
 28 52  1  0
M  CHG  2   7  -1  21   1
M  END
>  <UniqueID>  (30) 
29

>  <SMILES>  (30) 
O=C(N=c1cc[n-]cc1)c1cccc(-c2cccc(C[NH+]3CCNCC3)c2)c1

>  <Energy>  (30) 
83.59224775015862

>  <Genealogy>  (30) 
O=C(N=c1cc[n-]cc1)c1cccc(-c2cccc(C[NH+]3CCNCC3)c2)c1 (protonated)
O=C(N=c1cc[n-]cc1)c1cccc(-c2cccc(C[NH+]3CCNCC3)c2)c1 (3D coordinates assigned)
O=C(N=c1cc[n-]cc1)c1cccc(-c2cccc(C[NH+]3CCNCC3)c2)c1 (nonaromatic ring conformer: 83.59224775015862 kcal/mol)

>  <smiles>  (30) 
O=C(N=c1cc[nH]cc1)c1cccc(-c2cccc(CN3CCNCC3)c2)c1

>  <score_type>  (30) 
oracle

>  <origin>  (30) 
adgpu

>  <m_score__min__energy>  (30) 
-10.25

>  <m_primary>  (30) 
energy

$$$$
30:0
     RDKit          3D

 17 19  0  0  0  0  0  0  0  0999 V2000
   -6.2010   19.3800  -33.4350 C   0  0  0  0  0  0  0  0  0  0  0  0
   -5.2580   20.2570  -32.9870 N   0  0  0  0  0  0  0  0  0  0  0  0
   -6.0100   21.2480  -32.4810 C   0  0  0  0  0  0  0  0  0  0  0  0
   -7.3330   20.9730  -32.6220 C   0  0  0  0  0  0  0  0  0  0  0  0
   -8.3170   21.8160  -32.1920 N   0  0  0  0  0  0  0  0  0  0  0  0
   -7.9440   22.9920  -31.5910 C   0  0  0  0  0  0  0  0  0  0  0  0
   -6.6100   23.2660  -31.4500 N   0  0  0  0  0  0  0  0  0  0  0  0
   -5.9750   24.3200  -30.9120 C   0  0  0  0  0  0  0  0  0  0  0  0
   -4.6260   24.1820  -30.9820 N   0  0  0  0  0  0  0  0  0  0  0  0
   -4.4210   22.9870  -31.5910 C   0  0  0  0  0  0  0  0  0  0  0  0
   -5.6460   22.4360  -31.8740 C   0  0  0  0  0  0  0  0  0  0  0  0
   -7.4800   19.7920  -33.2260 N   0  0  0  0  0  0  0  0  0  0  0  0
   -5.9500   18.4258  -33.9213 H   0  0  0  0  0  0  0  0  0  0  0  0
   -8.7028   23.7014  -31.2292 H   0  0  0  0  0  0  0  0  0  0  0  0
   -6.4850   25.1882  -30.4691 H   0  0  0  0  0  0  0  0  0  0  0  0
   -3.4430   22.5377  -31.8184 H   0  0  0  0  0  0  0  0  0  0  0  0
   -8.3650   19.2990  -33.4780 H   0  0  0  0  0  0  0  0  0  0  0  0
  1  2  2  0
  2  3  1  0
  3  4  2  0
  4  5  1  0
  5  6  2  0
  6  7  1  0
  7  8  1  0
  8  9  2  0
  9 10  1  0
 10 11  2  0
  4 12  1  0
 12  1  1  0
 11  3  1  0
 11  7  1  0
  1 13  1  0
  6 14  1  0
  8 15  1  0
 10 16  1  0
 12 17  1  0
M  END
>  <UniqueID>  (31) 
30

>  <SMILES>  (31) 
c1nc2c(ncn3cncc23)[nH]1

>  <Energy>  (31) 
96.80003521293216

>  <Genealogy>  (31) 
c1nc2c(ncn3cncc23)[nH]1 (3D coordinates assigned)
c1nc2c(ncn3cncc23)[nH]1 (optimized conformer: 96.80003521293216 kcal/mol)

>  <smiles>  (31) 
c1nc2c(ncn3cncc23)[nH]1

>  <score_type>  (31) 
oracle

>  <origin>  (31) 
adgpu

>  <m_score__min__energy>  (31) 
-4.8200000000000003

>  <m_primary>  (31) 
energy

$$$$
31:0
     RDKit          3D

 53 56  0  0  0  0  0  0  0  0999 V2000
   -1.6700   20.7390  -26.6850 C   0  0  0  0  0  0  0  0  0  0  0  0
   -1.2210   20.8520  -28.1180 C   0  0  0  0  0  0  0  0  0  0  0  0
   -0.8380   19.6830  -28.7960 C   0  0  0  0  0  0  0  0  0  0  0  0
   -0.3580   19.7470  -30.1050 C   0  0  0  0  0  0  0  0  0  0  0  0
   -0.2320   20.9760  -30.7550 C   0  0  0  0  0  0  0  0  0  0  0  0
    0.2630   20.9950  -32.1020 N   0  0  0  0  0  0  0  0  0  0  0  0
   -0.5050   21.2220  -33.2920 C   0  0  0  0  0  0  0  0  0  0  0  0
    0.0180   21.8130  -34.2760 O   0  0  0  0  0  0  0  0  0  0  0  0
   -1.8950   20.7160  -33.3870 C   0  0  0  0  0  0  0  0  0  0  0  0
   -2.9820   21.5650  -33.1140 C   0  0  0  0  0  0  0  0  0  0  0  0
   -4.2910   21.0910  -33.2140 C   0  0  0  0  0  0  0  0  0  0  0  0
   -4.5350   19.7660  -33.5760 C   0  0  0  0  0  0  0  0  0  0  0  0
   -3.4660   18.8910  -33.8250 C   0  0  0  0  0  0  0  0  0  0  0  0
   -3.7270   17.4700  -34.2630 C   0  0  0  0  0  0  0  0  0  0  0  0
   -3.4750   16.5840  -33.2300 F   0  0  0  0  0  0  0  0  0  0  0  0
   -2.9140   17.1320  -35.3300 F   0  0  0  0  0  0  0  0  0  0  0  0
   -5.0490   17.3490  -34.6480 F   0  0  0  0  0  0  0  0  0  0  0  0
   -2.1490   19.3800  -33.7520 C   0  0  0  0  0  0  0  0  0  0  0  0
   -0.6560   22.1450  -30.1020 C   0  0  0  0  0  0  0  0  0  0  0  0
   -1.1780   22.0910  -28.8030 C   0  0  0  0  0  0  0  0  0  0  0  0
   -1.6300   23.3150  -28.2050 N   0  0  0  0  0  0  0  0  0  0  0  0
   -2.3550   24.3590  -28.8690 C   0  0  0  0  0  0  0  0  0  0  0  0
   -1.9250   25.5390  -28.7830 O   0  0  0  0  0  0  0  0  0  0  0  0
   -3.5690   24.0880  -29.6730 C   0  0  0  0  0  0  0  0  0  0  0  0
   -4.0920   25.0350  -30.5640 C   0  0  0  0  0  0  0  0  0  0  0  0
   -5.2060   24.7500  -31.2870 N   0  0  0  0  0  0  0  0  0  0  0  0
   -5.8370   23.5530  -31.1690 C   0  0  0  0  0  0  0  0  0  0  0  0
   -6.9090   23.3300  -31.8700 N   0  0  0  0  0  0  0  0  0  0  0  0
   -7.6760   22.1140  -31.9130 C   0  0  0  0  0  0  0  0  0  0  0  0
   -7.0750   20.8610  -32.1480 C   0  0  0  0  0  0  0  0  0  0  0  0
   -7.8610   19.7070  -32.2200 C   0  0  0  0  0  0  0  0  0  0  0  0
   -9.2480   19.7940  -32.0790 C   0  0  0  0  0  0  0  0  0  0  0  0
   -9.8530   21.0380  -31.8780 C   0  0  0  0  0  0  0  0  0  0  0  0
   -9.0700   22.1940  -31.8050 C   0  0  0  0  0  0  0  0  0  0  0  0
   -5.3620   22.6310  -30.2870 N   0  0  0  0  0  0  0  0  0  0  0  0
   -4.2540   22.8730  -29.5420 C   0  0  0  0  0  0  0  0  0  0  0  0
   -0.8223   20.9523  -26.0172 H   0  0  0  0  0  0  0  0  0  0  0  0
   -2.4770   21.4620  -26.4955 H   0  0  0  0  0  0  0  0  0  0  0  0
   -2.0386   19.7201  -26.4955 H   0  0  0  0  0  0  0  0  0  0  0  0
   -0.9170   18.7089  -28.2911 H   0  0  0  0  0  0  0  0  0  0  0  0
   -0.0767   18.8215  -30.6288 H   0  0  0  0  0  0  0  0  0  0  0  0
   -2.7997   22.6091  -32.8198 H   0  0  0  0  0  0  0  0  0  0  0  0
   -5.1346   21.7657  -33.0063 H   0  0  0  0  0  0  0  0  0  0  0  0
   -5.5702   19.4052  -33.6668 H   0  0  0  0  0  0  0  0  0  0  0  0
   -1.3073   18.7105  -33.9829 H   0  0  0  0  0  0  0  0  0  0  0  0
   -0.5773   23.1141  -30.6164 H   0  0  0  0  0  0  0  0  0  0  0  0
   -3.5990   26.0117  -30.6781 H   0  0  0  0  0  0  0  0  0  0  0  0
   -5.9846   20.7908  -32.2751 H   0  0  0  0  0  0  0  0  0  0  0  0
   -7.3864   18.7290  -32.3880 H   0  0  0  0  0  0  0  0  0  0  0  0
   -9.8640   18.8838  -32.1261 H   0  0  0  0  0  0  0  0  0  0  0  0
  -10.9462   21.1075  -31.7772 H   0  0  0  0  0  0  0  0  0  0  0  0
   -9.5519   23.1724  -31.6618 H   0  0  0  0  0  0  0  0  0  0  0  0
   -3.8927   22.1132  -28.8334 H   0  0  0  0  0  0  0  0  0  0  0  0
  1  2  1  0
  2  3  2  0
  3  4  1  0
  4  5  2  0
  5  6  1  0
  6  7  1  0
  7  8  2  0
  7  9  1  0
  9 10  2  0
 10 11  1  0
 11 12  2  0
 12 13  1  0
 13 14  1  0
 14 15  1  0
 14 16  1  0
 14 17  1  0
 13 18  2  0
  5 19  1  0
 19 20  2  0
 20 21  1  0
 21 22  1  0
 22 23  2  0
 22 24  1  0
 24 25  1  0
 25 26  2  0
 26 27  1  0
 27 28  2  3
 28 29  1  0
 29 30  2  0
 30 31  1  0
 31 32  2  0
 32 33  1  0
 33 34  2  0
 27 35  1  0
 35 36  1  0
 20  2  1  0
 36 24  2  0
 18  9  1  0
 34 29  1  0
  1 37  1  0
  1 38  1  0
  1 39  1  0
  3 40  1  0
  4 41  1  0
 10 42  1  0
 11 43  1  0
 12 44  1  0
 18 45  1  0
 19 46  1  0
 25 47  1  0
 30 48  1  0
 31 49  1  0
 32 50  1  0
 33 51  1  0
 34 52  1  0
 36 53  1  0
M  CHG  3   6  -1  21  -1  35  -1
M  END
>  <UniqueID>  (32) 
31

>  <SMILES>  (32) 
Cc1ccc([N-]C(=O)c2cccc(C(F)(F)F)c2)cc1[N-]C(=O)c1cnc(=Nc2ccccc2)[n-]c1

>  <Energy>  (32) 
79.81217455157163

>  <Genealogy>  (32) 
Cc1ccc([N-]C(=O)c2cccc(C(F)(F)F)c2)cc1[N-]C(=O)c1cnc(=Nc2ccccc2)[n-]c1 (protonated)
Cc1ccc([N-]C(=O)c2cccc(C(F)(F)F)c2)cc1[N-]C(=O)c1cnc(=Nc2ccccc2)[n-]c1 (3D coordinates assigned)
Cc1ccc([N-]C(=O)c2cccc(C(F)(F)F)c2)cc1[N-]C(=O)c1cnc(=Nc2ccccc2)[n-]c1 (optimized conformer: 79.81217455157163 kcal/mol)

>  <smiles>  (32) 
Cc1ccc(NC(=O)c2cccc(C(F)(F)F)c2)cc1NC(=O)c1cnc(=Nc2ccccc2)[nH]c1

>  <score_type>  (32) 
oracle

>  <origin>  (32) 
adgpu

>  <m_score__min__energy>  (32) 
-11.49

>  <m_primary>  (32) 
energy

$$$$
32:0
     RDKit          3D

 59 62  0  0  0  0  0  0  0  0999 V2000
   -4.6350   14.7330  -32.2510 C   0  0  0  0  0  0  0  0  0  0  0  0
   -3.9930   14.7880  -33.6120 C   0  0  0  0  0  0  0  0  0  0  0  0
   -3.2320   13.6890  -34.0500 C   0  0  0  0  0  0  0  0  0  0  0  0
   -2.6100   13.7110  -35.2980 C   0  0  0  0  0  0  0  0  0  0  0  0
   -2.7390   14.8260  -36.1240 C   0  0  0  0  0  0  0  0  0  0  0  0
   -2.1290   14.8460  -37.3340 F   0  0  0  0  0  0  0  0  0  0  0  0
   -3.4920   15.9230  -35.7060 C   0  0  0  0  0  0  0  0  0  0  0  0
   -4.1310   15.9180  -34.4540 C   0  0  0  0  0  0  0  0  0  0  0  0
   -5.0620   17.3440  -33.9620 S   0  0  0  0  0  0  0  0  0  0  0  0
   -6.3510   16.8920  -33.3360 O   0  0  0  0  0  0  0  0  0  0  0  0
   -5.3610   18.2070  -35.1530 O   0  0  0  0  0  0  0  0  0  0  0  0
   -4.1410   18.2780  -32.8270 N   0  0  0  0  0  0  0  0  0  0  0  0
   -2.8910   18.8990  -33.1330 C   0  0  0  0  0  0  0  0  0  0  0  0
   -2.1380   18.5210  -34.2550 C   0  0  0  0  0  0  0  0  0  0  0  0
   -0.9170   19.1470  -34.5220 C   0  0  0  0  0  0  0  0  0  0  0  0
   -0.4470   20.1580  -33.6770 C   0  0  0  0  0  0  0  0  0  0  0  0
   -1.1950   20.5490  -32.5600 C   0  0  0  0  0  0  0  0  0  0  0  0
   -0.7090   21.5810  -31.7440 O   0  0  0  0  0  0  0  0  0  0  0  0
   -1.4740   22.2740  -30.7960 C   0  0  0  0  0  0  0  0  0  0  0  0
   -2.6260   22.8740  -31.1980 N   0  0  0  0  0  0  0  0  0  0  0  0
   -3.4180   23.5760  -30.3470 C   0  0  0  0  0  0  0  0  0  0  0  0
   -4.5910   24.1580  -30.8450 O   0  0  0  0  0  0  0  0  0  0  0  0
   -5.7280   23.4500  -31.2600 C   0  0  0  0  0  0  0  0  0  0  0  0
   -6.9680   24.0930  -31.2260 C   0  0  0  0  0  0  0  0  0  0  0  0
   -8.1230   23.4170  -31.6230 C   0  0  0  0  0  0  0  0  0  0  0  0
   -8.0500   22.0900  -32.0500 C   0  0  0  0  0  0  0  0  0  0  0  0
   -6.8170   21.4180  -32.0740 C   0  0  0  0  0  0  0  0  0  0  0  0
   -6.7440   20.0070  -32.5290 C   0  0  0  0  0  0  0  0  0  0  0  0
   -7.2220   19.6510  -33.8320 N   0  0  0  0  0  0  0  0  0  0  0  0
   -6.2510   19.0850  -31.7550 N   0  0  0  0  0  0  0  0  0  0  0  0
   -5.6580   22.1070  -31.6750 C   0  0  0  0  0  0  0  0  0  0  0  0
   -3.0680   23.6690  -28.9890 C   0  0  0  0  0  0  0  0  0  0  0  0
   -3.8940   24.2960  -28.1110 F   0  0  0  0  0  0  0  0  0  0  0  0
   -1.8870   23.0610  -28.5360 C   0  0  0  0  0  0  0  0  0  0  0  0
   -1.5230   23.1070  -27.0780 C   0  0  0  0  0  0  0  0  0  0  0  0
   -1.0980   22.3360  -29.4420 C   0  0  0  0  0  0  0  0  0  0  0  0
   -0.0070   21.6580  -29.0020 F   0  0  0  0  0  0  0  0  0  0  0  0
   -2.3990   19.8830  -32.2710 C   0  0  0  0  0  0  0  0  0  0  0  0
   -3.8574   14.7996  -31.4758 H   0  0  0  0  0  0  0  0  0  0  0  0
   -5.3350   15.5745  -32.1415 H   0  0  0  0  0  0  0  0  0  0  0  0
   -5.1816   13.7847  -32.1415 H   0  0  0  0  0  0  0  0  0  0  0  0
   -3.1267   12.8055  -33.4032 H   0  0  0  0  0  0  0  0  0  0  0  0
   -2.0165   12.8468  -35.6310 H   0  0  0  0  0  0  0  0  0  0  0  0
   -3.5868   16.8006  -36.3624 H   0  0  0  0  0  0  0  0  0  0  0  0
   -2.5088   17.7314  -34.9251 H   0  0  0  0  0  0  0  0  0  0  0  0
   -0.3247   18.8441  -35.3980 H   0  0  0  0  0  0  0  0  0  0  0  0
    0.5144   20.6478  -33.8911 H   0  0  0  0  0  0  0  0  0  0  0  0
   -7.0344   25.1367  -30.8848 H   0  0  0  0  0  0  0  0  0  0  0  0
   -9.0946   23.9321  -31.5993 H   0  0  0  0  0  0  0  0  0  0  0  0
   -8.9637   21.5675  -32.3696 H   0  0  0  0  0  0  0  0  0  0  0  0
   -7.2150   18.6580  -34.1500 H   0  0  0  0  0  0  0  0  0  0  0  0
   -7.5440   20.3790  -34.5050 H   0  0  0  0  0  0  0  0  0  0  0  0
   -5.9270   19.2960  -30.7850 H   0  0  0  0  0  0  0  0  0  0  0  0
   -6.1940   18.0930  -32.0770 H   0  0  0  0  0  0  0  0  0  0  0  0
   -4.6866   21.5910  -31.6873 H   0  0  0  0  0  0  0  0  0  0  0  0
   -2.4320   22.9921  -26.4693 H   0  0  0  0  0  0  0  0  0  0  0  0
   -0.8227   22.2902  -26.8490 H   0  0  0  0  0  0  0  0  0  0  0  0
   -1.0479   24.0723  -26.8490 H   0  0  0  0  0  0  0  0  0  0  0  0
   -2.9584   20.1385  -31.3590 H   0  0  0  0  0  0  0  0  0  0  0  0
  1  2  1  0
  2  3  2  0
  3  4  1  0
  4  5  2  0
  5  6  1  0
  5  7  1  0
  7  8  2  0
  8  9  1  0
  9 10  2  0
  9 11  2  0
  9 12  1  0
 12 13  1  0
 13 14  2  0
 14 15  1  0
 15 16  2  0
 16 17  1  0
 17 18  1  0
 18 19  1  0
 19 20  2  0
 20 21  1  0
 21 22  1  0
 22 23  1  0
 23 24  2  0
 24 25  1  0
 25 26  2  0
 26 27  1  0
 27 28  1  0
 28 29  1  0
 28 30  2  0
 27 31  2  0
 21 32  2  0
 32 33  1  0
 32 34  1  0
 34 35  1  0
 34 36  2  0
 36 37  1  0
 17 38  2  0
  8  2  1  0
 38 13  1  0
 36 19  1  0
 31 23  1  0
  1 39  1  0
  1 40  1  0
  1 41  1  0
  3 42  1  0
  4 43  1  0
  7 44  1  0
 14 45  1  0
 15 46  1  0
 16 47  1  0
 24 48  1  0
 25 49  1  0
 26 50  1  0
 29 51  1  0
 29 52  1  0
 30 53  1  0
 30 54  1  0
 31 55  1  0
 35 56  1  0
 35 57  1  0
 35 58  1  0
 38 59  1  0
M  CHG  2  12  -1  30   1
M  END
>  <UniqueID>  (33) 
32

>  <SMILES>  (33) 
Cc1ccc(F)cc1S(=O)(=O)[N-]c1cccc(Oc2nc(Oc3cccc(C(N)=[NH2+])c3)c(F)c(C)c2F)c1

>  <Energy>  (33) 
90.10336379588014

>  <Genealogy>  (33) 
Cc1ccc(F)cc1S(=O)(=O)[N-]c1cccc(Oc2nc(Oc3cccc(C(N)=[NH2+])c3)c(F)c(C)c2F)c1 (protonated)
Cc1ccc(F)cc1S(=O)(=O)[N-]c1cccc(Oc2nc(Oc3cccc(C(N)=[NH2+])c3)c(F)c(C)c2F)c1 (3D coordinates assigned)
Cc1ccc(F)cc1S(=O)(=O)[N-]c1cccc(Oc2nc(Oc3cccc(C(N)=[NH2+])c3)c(F)c(C)c2F)c1 (optimized conformer: 90.10336379588014 kcal/mol)

>  <smiles>  (33) 
Cc1ccc(F)cc1S(=O)(=O)Nc1cccc(Oc2nc(Oc3cccc(C(=N)N)c3)c(F)c(C)c2F)c1

>  <score_type>  (33) 
oracle

>  <origin>  (33) 
adgpu

>  <m_score__min__energy>  (33) 
-10.16

>  <m_primary>  (33) 
energy

$$$$
33:0
     RDKit          3D

 42 44  0  0  0  0  0  0  0  0999 V2000
   -6.1320   25.6940  -29.2860 C   0  0  0  0  0  0  0  0  0  0  0  0
   -6.0570   24.5580  -30.2680 C   0  0  0  0  0  0  0  0  0  0  0  0
   -7.2250   23.8630  -30.6260 C   0  0  0  0  0  0  0  0  0  0  0  0
   -7.1690   22.8080  -31.5370 C   0  0  0  0  0  0  0  0  0  0  0  0
   -5.9500   22.4380  -32.1050 C   0  0  0  0  0  0  0  0  0  0  0  0
   -5.8990   21.4160  -32.9940 F   0  0  0  0  0  0  0  0  0  0  0  0
   -4.7810   23.1230  -31.7630 C   0  0  0  0  0  0  0  0  0  0  0  0
   -4.8220   24.1870  -30.8410 C   0  0  0  0  0  0  0  0  0  0  0  0
   -3.6340   24.9070  -30.4740 N   0  0  0  0  0  0  0  0  0  0  0  0
   -2.6400   24.5700  -29.0930 S   0  0  0  0  0  0  0  0  0  0  0  0
   -1.6810   25.7090  -28.8860 O   0  0  0  0  0  0  0  0  0  0  0  0
   -3.5120   24.4410  -27.8770 O   0  0  0  0  0  0  0  0  0  0  0  0
   -1.7780   23.0540  -29.3380 C   0  0  0  0  0  0  0  0  0  0  0  0
   -0.5820   22.8190  -28.6490 C   0  0  0  0  0  0  0  0  0  0  0  0
    0.0960   21.6090  -28.8120 C   0  0  0  0  0  0  0  0  0  0  0  0
   -0.4120   20.6310  -29.6710 C   0  0  0  0  0  0  0  0  0  0  0  0
   -1.5980   20.8610  -30.3870 C   0  0  0  0  0  0  0  0  0  0  0  0
   -2.1140   19.8290  -31.2460 N   0  0  0  0  0  0  0  0  0  0  0  0
   -2.9120   20.0860  -32.4130 C   0  0  0  0  0  0  0  0  0  0  0  0
   -2.8430   21.2100  -32.9830 O   0  0  0  0  0  0  0  0  0  0  0  0
   -3.7780   19.0290  -32.9900 C   0  0  0  0  0  0  0  0  0  0  0  0
   -3.2670   18.1420  -33.9540 C   0  0  0  0  0  0  0  0  0  0  0  0
   -4.0960   17.1540  -34.4940 C   0  0  0  0  0  0  0  0  0  0  0  0
   -3.4720   16.0390  -35.6930 Cl  0  0  0  0  0  0  0  0  0  0  0  0
   -5.3900   17.0560  -34.0950 N   0  0  0  0  0  0  0  0  0  0  0  0
   -5.9170   17.9020  -33.1720 C   0  0  0  0  0  0  0  0  0  0  0  0
   -7.5980   17.7350  -32.7040 Cl  0  0  0  0  0  0  0  0  0  0  0  0
   -5.1250   18.9050  -32.6060 C   0  0  0  0  0  0  0  0  0  0  0  0
   -2.2860   22.0750  -30.2030 C   0  0  0  0  0  0  0  0  0  0  0  0
   -6.1057   25.2951  -28.2612 H   0  0  0  0  0  0  0  0  0  0  0  0
   -5.2764   26.3682  -29.4392 H   0  0  0  0  0  0  0  0  0  0  0  0
   -7.0688   26.2498  -29.4392 H   0  0  0  0  0  0  0  0  0  0  0  0
   -8.1900   24.1530  -30.1848 H   0  0  0  0  0  0  0  0  0  0  0  0
   -8.0877   22.2670  -31.8078 H   0  0  0  0  0  0  0  0  0  0  0  0
   -3.8229   22.8294  -32.2166 H   0  0  0  0  0  0  0  0  0  0  0  0
   -0.1753   23.5895  -27.9775 H   0  0  0  0  0  0  0  0  0  0  0  0
    1.0315   21.4255  -28.2632 H   0  0  0  0  0  0  0  0  0  0  0  0
    0.1202   19.6753  -29.7871 H   0  0  0  0  0  0  0  0  0  0  0  0
   -1.8090   18.8460  -31.0660 H   0  0  0  0  0  0  0  0  0  0  0  0
   -2.2202   18.2250  -34.2817 H   0  0  0  0  0  0  0  0  0  0  0  0
   -5.5535   19.5943  -31.8635 H   0  0  0  0  0  0  0  0  0  0  0  0
   -3.2280   22.2566  -30.7412 H   0  0  0  0  0  0  0  0  0  0  0  0
  1  2  1  0
  2  3  2  0
  3  4  1  0
  4  5  2  0
  5  6  1  0
  5  7  1  0
  7  8  2  0
  8  9  1  0
  9 10  1  0
 10 11  2  0
 10 12  2  0
 10 13  1  0
 13 14  2  0
 14 15  1  0
 15 16  2  0
 16 17  1  0
 17 18  1  0
 18 19  1  0
 19 20  2  0
 19 21  1  0
 21 22  2  0
 22 23  1  0
 23 24  1  0
 23 25  2  0
 25 26  1  0
 26 27  1  0
 26 28  2  0
 17 29  2  0
  8  2  1  0
 29 13  1  0
 28 21  1  0
  1 30  1  0
  1 31  1  0
  1 32  1  0
  3 33  1  0
  4 34  1  0
  7 35  1  0
 14 36  1  0
 15 37  1  0
 16 38  1  0
 18 39  1  0
 22 40  1  0
 28 41  1  0
 29 42  1  0
M  CHG  1   9  -1
M  END
>  <UniqueID>  (34) 
33

>  <SMILES>  (34) 
Cc1ccc(F)cc1[N-]S(=O)(=O)c1cccc(NC(=O)c2cc(Cl)nc(Cl)c2)c1

>  <Energy>  (34) 
53.68633425516756

>  <Genealogy>  (34) 
Cc1ccc(F)cc1[N-]S(=O)(=O)c1cccc(NC(=O)c2cc(Cl)nc(Cl)c2)c1 (protonated)
Cc1ccc(F)cc1[N-]S(=O)(=O)c1cccc(NC(=O)c2cc(Cl)nc(Cl)c2)c1 (3D coordinates assigned)
Cc1ccc(F)cc1[N-]S(=O)(=O)c1cccc(NC(=O)c2cc(Cl)nc(Cl)c2)c1 (optimized conformer: 53.68633425516756 kcal/mol)

>  <smiles>  (34) 
Cc1ccc(F)cc1NS(=O)(=O)c1cccc(NC(=O)c2cc(Cl)nc(Cl)c2)c1

>  <score_type>  (34) 
oracle

>  <origin>  (34) 
adgpu

>  <m_score__min__energy>  (34) 
-10.300000000000001

>  <m_primary>  (34) 
energy

$$$$
34:0
     RDKit          3D

 50 52  0  0  0  0  0  0  0  0999 V2000
   -4.5300   16.6160  -34.9680 C   0  0  0  0  0  0  0  0  0  0  0  0
   -3.5580   16.7900  -33.8330 C   0  0  0  0  0  0  0  0  0  0  0  0
   -2.8030   18.0410  -33.9430 C   0  0  0  0  0  0  0  0  0  0  0  0
   -1.5110   17.9510  -34.3680 N   0  0  0  0  0  0  0  0  0  0  0  0
   -0.7750   19.0690  -34.4810 C   0  0  0  0  0  0  0  0  0  0  0  0
    0.4350   19.0010  -34.8770 N   0  0  0  0  0  0  0  0  0  0  0  0
   -1.2720   20.2920  -34.1840 N   0  0  0  0  0  0  0  0  0  0  0  0
   -2.5570   20.3800  -33.7610 C   0  0  0  0  0  0  0  0  0  0  0  0
   -3.0310   21.5650  -33.4740 N   0  0  0  0  0  0  0  0  0  0  0  0
   -3.3620   19.2590  -33.6270 C   0  0  0  0  0  0  0  0  0  0  0  0
   -4.7370   19.4080  -33.1710 C   0  0  0  0  0  0  0  0  0  0  0  0
   -5.1210   19.2940  -31.8510 C   0  0  0  0  0  0  0  0  0  0  0  0
   -6.4500   19.4480  -31.5040 C   0  0  0  0  0  0  0  0  0  0  0  0
   -7.4350   19.7150  -32.4310 C   0  0  0  0  0  0  0  0  0  0  0  0
   -8.8180   19.8700  -32.0520 N   0  0  0  0  0  0  0  0  0  0  0  0
   -9.4250   21.1860  -31.9400 C   0  0  0  0  0  0  0  0  0  0  0  0
   -8.3540   22.1310  -31.5270 C   0  0  0  0  0  0  0  0  0  0  0  0
   -8.0250   22.1840  -30.1830 C   0  0  0  0  0  0  0  0  0  0  0  0
   -7.0360   23.0410  -29.7270 C   0  0  0  0  0  0  0  0  0  0  0  0
   -6.3700   23.8540  -30.6350 C   0  0  0  0  0  0  0  0  0  0  0  0
   -5.1120   24.9370  -30.0290 S   0  0  0  0  0  0  0  0  0  0  0  0
   -4.8050   24.5370  -28.3780 N   0  0  0  0  0  0  0  0  0  0  0  0
   -3.8720   24.6450  -30.8220 O   0  0  0  0  0  0  0  0  0  0  0  0
   -5.5180   26.3710  -30.1850 O   0  0  0  0  0  0  0  0  0  0  0  0
   -6.6930   23.8050  -31.9720 C   0  0  0  0  0  0  0  0  0  0  0  0
   -7.6870   22.9390  -32.4230 C   0  0  0  0  0  0  0  0  0  0  0  0
   -7.0360   19.8260  -33.7510 C   0  0  0  0  0  0  0  0  0  0  0  0
   -5.7210   19.6780  -34.1190 C   0  0  0  0  0  0  0  0  0  0  0  0
   -5.5371   16.4357  -34.5639 H   0  0  0  0  0  0  0  0  0  0  0  0
   -4.5401   17.5266  -35.5850 H   0  0  0  0  0  0  0  0  0  0  0  0
   -4.2235   15.7584  -35.5850 H   0  0  0  0  0  0  0  0  0  0  0  0
   -4.1161   16.7943  -32.8851 H   0  0  0  0  0  0  0  0  0  0  0  0
   -2.8411   15.9565  -33.8692 H   0  0  0  0  0  0  0  0  0  0  0  0
   -1.1110   17.0010  -34.6030 H   0  0  0  0  0  0  0  0  0  0  0  0
    0.9720   18.1690  -35.1420 H   0  0  0  0  0  0  0  0  0  0  0  0
   -0.6670   21.1560  -34.2830 H   0  0  0  0  0  0  0  0  0  0  0  0
   -4.0190   21.6740  -33.1450 H   0  0  0  0  0  0  0  0  0  0  0  0
   -4.3705   19.0808  -31.0756 H   0  0  0  0  0  0  0  0  0  0  0  0
   -6.7333   19.3537  -30.4453 H   0  0  0  0  0  0  0  0  0  0  0  0
   -9.3460   18.9900  -31.8650 H   0  0  0  0  0  0  0  0  0  0  0  0
   -9.8436   21.4917  -32.9102 H   0  0  0  0  0  0  0  0  0  0  0  0
  -10.2428   21.1773  -31.2044 H   0  0  0  0  0  0  0  0  0  0  0  0
   -8.5554   21.5377  -29.4682 H   0  0  0  0  0  0  0  0  0  0  0  0
   -6.7812   23.0770  -28.6575 H   0  0  0  0  0  0  0  0  0  0  0  0
   -5.7240   24.3550  -27.9190 H   0  0  0  0  0  0  0  0  0  0  0  0
   -4.2790   25.3000  -27.9220 H   0  0  0  0  0  0  0  0  0  0  0  0
   -6.1643   24.4521  -32.6874 H   0  0  0  0  0  0  0  0  0  0  0  0
   -7.9393   22.9001  -33.4930 H   0  0  0  0  0  0  0  0  0  0  0  0
   -7.7895   20.0377  -34.5239 H   0  0  0  0  0  0  0  0  0  0  0  0
   -5.4408   19.7742  -35.1784 H   0  0  0  0  0  0  0  0  0  0  0  0
  1  2  1  0
  2  3  1  0
  3  4  1  0
  4  5  1  0
  5  6  2  3
  5  7  1  0
  7  8  1  0
  8  9  2  3
  8 10  1  0
 10 11  1  0
 11 12  2  0
 12 13  1  0
 13 14  2  0
 14 15  1  0
 15 16  1  0
 16 17  1  0
 17 18  2  0
 18 19  1  0
 19 20  2  0
 20 21  1  0
 21 22  1  0
 21 23  2  0
 21 24  2  0
 20 25  1  0
 25 26  2  0
 14 27  1  0
 27 28  2  0
 10  3  2  0
 28 11  1  0
 26 17  1  0
  1 29  1  0
  1 30  1  0
  1 31  1  0
  2 32  1  0
  2 33  1  0
  4 34  1  0
  6 35  1  0
  7 36  1  0
  9 37  1  0
 12 38  1  0
 13 39  1  0
 15 40  1  0
 16 41  1  0
 16 42  1  0
 18 43  1  0
 19 44  1  0
 22 45  1  0
 22 46  1  0
 25 47  1  0
 26 48  1  0
 27 49  1  0
 28 50  1  0
M  END
>  <smiles>  (35) 
CCc1[nH]c(=N)[nH]c(=N)c1-c1ccc(NCc2ccc(S(N)(=O)=O)cc2)cc1

>  <score_type>  (35) 
oracle

>  <origin>  (35) 
adgpu

>  <m_score__min__energy>  (35) 
-9.8599999999999994

>  <m_primary>  (35) 
energy

$$$$
35:0
     RDKit          3D

 32 33  0  0  0  0  0  0  0  0999 V2000
   -2.8560   23.7180  -28.3390 C   0  0  0  0  0  0  0  0  0  0  0  0
   -2.5830   24.9320  -29.1620 C   0  0  0  0  0  0  0  0  0  0  0  0
   -1.5250   25.5880  -28.9640 O   0  0  0  0  0  0  0  0  0  0  0  0
   -3.4810   25.2820  -30.2230 N   0  0  0  0  0  0  0  0  0  0  0  0
   -4.8090   24.7770  -30.4420 C   0  0  0  0  0  0  0  0  0  0  0  0
   -5.9290   25.3350  -29.7970 C   0  0  0  0  0  0  0  0  0  0  0  0
   -7.2030   24.8110  -30.0190 C   0  0  0  0  0  0  0  0  0  0  0  0
   -7.3710   23.7180  -30.8670 C   0  0  0  0  0  0  0  0  0  0  0  0
   -6.2650   23.1390  -31.4930 C   0  0  0  0  0  0  0  0  0  0  0  0
   -4.9760   23.6570  -31.2810 C   0  0  0  0  0  0  0  0  0  0  0  0
   -3.8180   23.0810  -31.9050 N   0  0  0  0  0  0  0  0  0  0  0  0
   -3.2170   21.4790  -31.6280 S   0  0  0  0  0  0  0  0  0  0  0  0
   -1.7370   21.4540  -31.8950 O   0  0  0  0  0  0  0  0  0  0  0  0
   -3.4550   21.1020  -30.1930 O   0  0  0  0  0  0  0  0  0  0  0  0
   -4.0080   20.3530  -32.7250 C   0  0  0  0  0  0  0  0  0  0  0  0
   -5.3790   20.4660  -32.9680 C   0  0  0  0  0  0  0  0  0  0  0  0
   -6.0110   19.5770  -33.8410 C   0  0  0  0  0  0  0  0  0  0  0  0
   -5.2560   18.5730  -34.4660 C   0  0  0  0  0  0  0  0  0  0  0  0
   -5.8080   17.7360  -35.2850 N   0  0  0  0  0  0  0  0  0  0  0  0
   -3.9220   18.4800  -34.2130 N   0  0  0  0  0  0  0  0  0  0  0  0
   -3.2860   19.3370  -33.3670 C   0  0  0  0  0  0  0  0  0  0  0  0
   -2.7976   23.9778  -27.2717 H   0  0  0  0  0  0  0  0  0  0  0  0
   -3.8621   23.3376  -28.5692 H   0  0  0  0  0  0  0  0  0  0  0  0
   -2.1096   22.9435  -28.5692 H   0  0  0  0  0  0  0  0  0  0  0  0
   -5.7992   26.1881  -29.1148 H   0  0  0  0  0  0  0  0  0  0  0  0
   -8.0760   25.2613  -29.5239 H   0  0  0  0  0  0  0  0  0  0  0  0
   -8.3772   23.3103  -31.0437 H   0  0  0  0  0  0  0  0  0  0  0  0
   -6.4037   22.2723  -32.1560 H   0  0  0  0  0  0  0  0  0  0  0  0
   -5.9617   21.2559  -32.4714 H   0  0  0  0  0  0  0  0  0  0  0  0
   -7.0900   19.6633  -34.0365 H   0  0  0  0  0  0  0  0  0  0  0  0
   -6.8290   17.7670  -35.5140 H   0  0  0  0  0  0  0  0  0  0  0  0
   -2.2058   19.2321  -33.1874 H   0  0  0  0  0  0  0  0  0  0  0  0
  1  2  1  0
  2  3  2  0
  2  4  1  0
  4  5  1  0
  5  6  2  0
  6  7  1  0
  7  8  2  0
  8  9  1  0
  9 10  2  0
 10 11  1  0
 11 12  1  0
 12 13  2  0
 12 14  2  0
 12 15  1  0
 15 16  1  0
 16 17  2  0
 17 18  1  0
 18 19  2  3
 18 20  1  0
 20 21  1  0
 10  5  1  0
 21 15  2  0
  1 22  1  0
  1 23  1  0
  1 24  1  0
  6 25  1  0
  7 26  1  0
  8 27  1  0
  9 28  1  0
 16 29  1  0
 17 30  1  0
 19 31  1  0
 21 32  1  0
M  CHG  3   4  -1  11  -1  20  -1
M  END
>  <UniqueID>  (36) 
34

>  <SMILES>  (36) 
CC(=O)[N-]c1ccccc1[N-]S(=O)(=O)c1ccc(=N)[n-]c1

>  <Energy>  (36) 
39.032097006989254

>  <Genealogy>  (36) 
CC(=O)[N-]c1ccccc1[N-]S(=O)(=O)c1ccc(=N)[n-]c1 (protonated)
CC(=O)[N-]c1ccccc1[N-]S(=O)(=O)c1ccc(=N)[n-]c1 (3D coordinates assigned)
CC(=O)[N-]c1ccccc1[N-]S(=O)(=O)c1ccc(=N)[n-]c1 (optimized conformer: 39.032097006989254 kcal/mol)

>  <smiles>  (36) 
CC(=O)Nc1ccccc1NS(=O)(=O)c1ccc(=N)[nH]c1

>  <score_type>  (36) 
oracle

>  <origin>  (36) 
adgpu

>  <m_score__min__energy>  (36) 
-9.9000000000000004

>  <m_primary>  (36) 
energy

$$$$
36:0
     RDKit          3D

 41 43  0  0  0  0  0  0  0  0999 V2000
   -3.5430   25.2970  -30.4580 N   0  0  0  0  0  0  0  0  0  0  0  0
   -4.6370   24.4560  -30.8220 C   0  0  0  0  0  0  0  0  0  0  0  0
   -5.8130   24.8940  -30.7040 O   0  0  0  0  0  0  0  0  0  0  0  0
   -4.3970   23.0830  -31.3240 C   0  0  0  0  0  0  0  0  0  0  0  0
   -4.9160   22.6740  -32.5640 C   0  0  0  0  0  0  0  0  0  0  0  0
   -4.6550   21.3900  -33.0510 C   0  0  0  0  0  0  0  0  0  0  0  0
   -3.8540   20.4990  -32.3240 C   0  0  0  0  0  0  0  0  0  0  0  0
   -3.5620   19.2060  -32.8820 N   0  0  0  0  0  0  0  0  0  0  0  0
   -2.7880   18.9950  -34.0780 C   0  0  0  0  0  0  0  0  0  0  0  0
   -2.0810   19.9180  -34.5630 O   0  0  0  0  0  0  0  0  0  0  0  0
   -2.8850   17.6910  -34.8140 C   0  0  0  0  0  0  0  0  0  0  0  0
   -4.5710   17.4290  -35.4760 S   0  0  0  0  0  0  0  0  0  0  0  0
   -5.3780   17.4520  -33.8760 C   0  0  0  0  0  0  0  0  0  0  0  0
   -6.2350   18.4610  -33.5720 N   0  0  0  0  0  0  0  0  0  0  0  0
   -6.8300   18.5530  -32.3510 C   0  0  0  0  0  0  0  0  0  0  0  0
   -7.7070   19.7210  -32.0600 C   0  0  0  0  0  0  0  0  0  0  0  0
   -9.0260   19.7440  -32.5570 C   0  0  0  0  0  0  0  0  0  0  0  0
   -9.8540   20.8480  -32.3350 C   0  0  0  0  0  0  0  0  0  0  0  0
   -9.3840   21.9400  -31.6060 C   0  0  0  0  0  0  0  0  0  0  0  0
   -8.0900   21.9250  -31.0860 C   0  0  0  0  0  0  0  0  0  0  0  0
   -7.2550   20.8250  -31.3050 C   0  0  0  0  0  0  0  0  0  0  0  0
   -6.5370   17.5730  -31.3850 C   0  0  0  0  0  0  0  0  0  0  0  0
   -5.6640   16.5360  -31.7210 C   0  0  0  0  0  0  0  0  0  0  0  0
   -5.3880   15.6430  -30.8780 O   0  0  0  0  0  0  0  0  0  0  0  0
   -5.1010   16.4940  -32.9560 N   0  0  0  0  0  0  0  0  0  0  0  0
   -3.3750   20.8880  -31.0620 C   0  0  0  0  0  0  0  0  0  0  0  0
   -3.6360   22.1700  -30.5710 C   0  0  0  0  0  0  0  0  0  0  0  0
   -3.4830   25.7180  -29.5060 H   0  0  0  0  0  0  0  0  0  0  0  0
   -5.5313   23.3683  -33.1550 H   0  0  0  0  0  0  0  0  0  0  0  0
   -5.0826   21.0758  -34.0145 H   0  0  0  0  0  0  0  0  0  0  0  0
   -4.1330   18.4010  -32.5380 H   0  0  0  0  0  0  0  0  0  0  0  0
   -2.1685   17.6958  -35.6486 H   0  0  0  0  0  0  0  0  0  0  0  0
   -2.6561   16.8763  -34.1112 H   0  0  0  0  0  0  0  0  0  0  0  0
   -9.4079   18.8835  -33.1259 H   0  0  0  0  0  0  0  0  0  0  0  0
  -10.8783   20.8555  -32.7361 H   0  0  0  0  0  0  0  0  0  0  0  0
  -10.0334   22.8125  -31.4413 H   0  0  0  0  0  0  0  0  0  0  0  0
   -7.7248   22.7821  -30.5012 H   0  0  0  0  0  0  0  0  0  0  0  0
   -6.2380   20.8198  -30.8858 H   0  0  0  0  0  0  0  0  0  0  0  0
   -6.9876   17.6227  -30.3828 H   0  0  0  0  0  0  0  0  0  0  0  0
   -2.7909   20.1792  -30.4567 H   0  0  0  0  0  0  0  0  0  0  0  0
   -3.2432   22.4679  -29.5876 H   0  0  0  0  0  0  0  0  0  0  0  0
  1  2  1  0
  2  3  2  0
  2  4  1  0
  4  5  2  0
  5  6  1  0
  6  7  2  0
  7  8  1  0
  8  9  1  0
  9 10  2  0
  9 11  1  0
 11 12  1  0
 12 13  1  0
 13 14  2  0
 14 15  1  0
 15 16  1  0
 16 17  2  0
 17 18  1  0
 18 19  2  0
 19 20  1  0
 20 21  2  0
 15 22  2  0
 22 23  1  0
 23 24  2  0
 23 25  1  0
  7 26  1  0
 26 27  2  0
 27  4  1  0
 25 13  1  0
 21 16  1  0
  1 28  1  0
  5 29  1  0
  6 30  1  0
  8 31  1  0
 11 32  1  0
 11 33  1  0
 17 34  1  0
 18 35  1  0
 19 36  1  0
 20 37  1  0
 21 38  1  0
 22 39  1  0
 26 40  1  0
 27 41  1  0
M  CHG  2   1  -1  25  -1
M  END
>  <UniqueID>  (37) 
35

>  <SMILES>  (37) 
[NH-]C(=O)c1ccc(NC(=O)CSc2nc(-c3ccccc3)cc(=O)[n-]2)cc1

>  <Energy>  (37) 
42.51739352261442

>  <Genealogy>  (37) 
[NH-]C(=O)c1ccc(NC(=O)CSc2nc(-c3ccccc3)cc(=O)[n-]2)cc1 (protonated)
[NH-]C(=O)c1ccc(NC(=O)CSc2nc(-c3ccccc3)cc(=O)[n-]2)cc1 (3D coordinates assigned)
[NH-]C(=O)c1ccc(NC(=O)CSc2nc(-c3ccccc3)cc(=O)[n-]2)cc1 (optimized conformer: 42.51739352261442 kcal/mol)

>  <smiles>  (37) 
NC(=O)c1ccc(NC(=O)CSc2nc(-c3ccccc3)cc(=O)[nH]2)cc1

>  <score_type>  (37) 
oracle

>  <origin>  (37) 
adgpu

>  <m_score__min__energy>  (37) 
-10.82

>  <m_primary>  (37) 
energy

$$$$
37:0
     RDKit          3D

 49 51  0  0  0  0  0  0  0  0999 V2000
   -0.2420   18.9000  -30.6760 C   0  0  0  0  0  0  0  0  0  0  0  0
   -0.7500   18.4810  -32.0240 C   0  0  0  0  0  0  0  0  0  0  0  0
   -1.1530   19.4480  -32.9570 C   0  0  0  0  0  0  0  0  0  0  0  0
   -1.6560   19.0570  -34.2000 C   0  0  0  0  0  0  0  0  0  0  0  0
   -1.7780   17.7010  -34.5140 C   0  0  0  0  0  0  0  0  0  0  0  0
   -1.4010   16.7210  -33.5780 C   0  0  0  0  0  0  0  0  0  0  0  0
   -1.5200   15.3180  -33.8520 N   0  0  0  0  0  0  0  0  0  0  0  0
   -2.4410   14.6260  -35.1480 S   0  0  0  0  0  0  0  0  0  0  0  0
   -2.0740   13.1760  -35.2940 O   0  0  0  0  0  0  0  0  0  0  0  0
   -2.1130   15.3340  -36.4320 O   0  0  0  0  0  0  0  0  0  0  0  0
   -4.1590   14.7420  -34.7780 C   0  0  0  0  0  0  0  0  0  0  0  0
   -4.9460   13.5830  -34.7830 C   0  0  0  0  0  0  0  0  0  0  0  0
   -6.3090   13.6610  -34.4870 C   0  0  0  0  0  0  0  0  0  0  0  0
   -6.8890   14.8910  -34.1680 C   0  0  0  0  0  0  0  0  0  0  0  0
   -6.1060   16.0530  -34.1270 C   0  0  0  0  0  0  0  0  0  0  0  0
   -6.7220   17.3110  -33.8060 N   0  0  0  0  0  0  0  0  0  0  0  0
   -6.0130   18.4800  -33.3630 C   0  0  0  0  0  0  0  0  0  0  0  0
   -4.4990   18.3580  -32.7230 S   0  0  0  0  0  0  0  0  0  0  0  0
   -6.6480   19.7630  -33.5010 N   0  0  0  0  0  0  0  0  0  0  0  0
   -6.3470   20.9190  -32.7010 C   0  0  0  0  0  0  0  0  0  0  0  0
   -7.2830   21.3690  -31.7590 C   0  0  0  0  0  0  0  0  0  0  0  0
   -7.0000   22.4730  -30.9500 C   0  0  0  0  0  0  0  0  0  0  0  0
   -5.7650   23.1270  -31.0570 C   0  0  0  0  0  0  0  0  0  0  0  0
   -5.4090   24.5240  -30.0480 S   0  0  0  0  0  0  0  0  0  0  0  0
   -3.9250   25.2430  -30.5610 N   0  0  0  0  0  0  0  0  0  0  0  0
   -5.2860   24.0960  -28.6120 O   0  0  0  0  0  0  0  0  0  0  0  0
   -6.5190   25.5320  -30.1560 O   0  0  0  0  0  0  0  0  0  0  0  0
   -4.8190   22.6690  -31.9840 C   0  0  0  0  0  0  0  0  0  0  0  0
   -5.1030   21.5660  -32.7930 C   0  0  0  0  0  0  0  0  0  0  0  0
   -4.7440   15.9770  -34.4620 C   0  0  0  0  0  0  0  0  0  0  0  0
   -0.8900   17.1200  -32.3370 C   0  0  0  0  0  0  0  0  0  0  0  0
   -0.8367   18.4095  -29.8913 H   0  0  0  0  0  0  0  0  0  0  0  0
    0.8131   18.6060  -30.5741 H   0  0  0  0  0  0  0  0  0  0  0  0
   -0.3299   19.9917  -30.5741 H   0  0  0  0  0  0  0  0  0  0  0  0
   -1.0727   20.5167  -32.7091 H   0  0  0  0  0  0  0  0  0  0  0  0
   -1.9570   19.8190  -34.9340 H   0  0  0  0  0  0  0  0  0  0  0  0
   -2.1701   17.3988  -35.4963 H   0  0  0  0  0  0  0  0  0  0  0  0
   -4.4901   12.6104  -35.0203 H   0  0  0  0  0  0  0  0  0  0  0  0
   -6.9272   12.7513  -34.5052 H   0  0  0  0  0  0  0  0  0  0  0  0
   -7.9652   14.9481  -33.9479 H   0  0  0  0  0  0  0  0  0  0  0  0
   -7.7660   17.3620  -33.8260 H   0  0  0  0  0  0  0  0  0  0  0  0
   -7.3540   19.8680  -34.2630 H   0  0  0  0  0  0  0  0  0  0  0  0
   -8.2470   20.8494  -31.6560 H   0  0  0  0  0  0  0  0  0  0  0  0
   -7.7487   22.8296  -30.2273 H   0  0  0  0  0  0  0  0  0  0  0  0
   -3.5020   25.7010  -29.7230 H   0  0  0  0  0  0  0  0  0  0  0  0
   -3.8491   23.1800  -32.0750 H   0  0  0  0  0  0  0  0  0  0  0  0
   -4.3486   21.2020  -33.5060 H   0  0  0  0  0  0  0  0  0  0  0  0
   -4.1326   16.8913  -34.4766 H   0  0  0  0  0  0  0  0  0  0  0  0
   -0.5952   16.3588  -31.5996 H   0  0  0  0  0  0  0  0  0  0  0  0
  1  2  1  0
  2  3  2  0
  3  4  1  0
  4  5  2  0
  5  6  1  0
  6  7  1  0
  7  8  1  0
  8  9  2  0
  8 10  2  0
  8 11  1  0
 11 12  2  0
 12 13  1  0
 13 14  2  0
 14 15  1  0
 15 16  1  0
 16 17  1  0
 17 18  2  0
 17 19  1  0
 19 20  1  0
 20 21  2  0
 21 22  1  0
 22 23  2  0
 23 24  1  0
 24 25  1  0
 24 26  2  0
 24 27  2  0
 23 28  1  0
 28 29  2  0
 15 30  2  0
  6 31  2  0
 31  2  1  0
 30 11  1  0
 29 20  1  0
  1 32  1  0
  1 33  1  0
  1 34  1  0
  3 35  1  0
  4 36  1  0
  5 37  1  0
 12 38  1  0
 13 39  1  0
 14 40  1  0
 16 41  1  0
 19 42  1  0
 21 43  1  0
 22 44  1  0
 25 45  1  0
 28 46  1  0
 29 47  1  0
 30 48  1  0
 31 49  1  0
M  CHG  2   7  -1  25  -1
M  END
>  <UniqueID>  (38) 
36

>  <SMILES>  (38) 
Cc1cccc([N-]S(=O)(=O)c2cccc(NC(=S)Nc3ccc(S([NH-])(=O)=O)cc3)c2)c1

>  <Energy>  (38) 
63.46032588652745

>  <Genealogy>  (38) 
Cc1cccc([N-]S(=O)(=O)c2cccc(NC(=S)Nc3ccc(S([NH-])(=O)=O)cc3)c2)c1 (protonated)
Cc1cccc([N-]S(=O)(=O)c2cccc(NC(=S)Nc3ccc(S([NH-])(=O)=O)cc3)c2)c1 (3D coordinates assigned)
Cc1cccc([N-]S(=O)(=O)c2cccc(NC(=S)Nc3ccc(S([NH-])(=O)=O)cc3)c2)c1 (optimized conformer: 63.46032588652745 kcal/mol)

>  <smiles>  (38) 
Cc1cccc(NS(=O)(=O)c2cccc(NC(=S)Nc3ccc(S(N)(=O)=O)cc3)c2)c1

>  <score_type>  (38) 
oracle

>  <origin>  (38) 
adgpu

>  <m_score__min__energy>  (38) 
-10.6

>  <m_primary>  (38) 
energy

$$$$
38:0
     RDKit          3D

 43 45  0  0  0  0  0  0  0  0999 V2000
   -9.3520   21.6660  -30.9940 C   0  0  0  0  0  0  0  0  0  0  0  0
   -9.4180   20.8010  -32.0060 C   0  0  0  0  0  0  0  0  0  0  0  0
   -8.2540   20.0260  -32.4630 C   0  0  0  0  0  0  0  0  0  0  0  0
   -8.2370   18.7690  -32.3490 O   0  0  0  0  0  0  0  0  0  0  0  0
   -7.1640   20.7160  -33.0860 N   0  0  0  0  0  0  0  0  0  0  0  0
   -5.7670   20.4740  -32.8660 C   0  0  0  0  0  0  0  0  0  0  0  0
   -5.0440   19.7760  -33.8410 C   0  0  0  0  0  0  0  0  0  0  0  0
   -3.6750   19.5500  -33.6790 C   0  0  0  0  0  0  0  0  0  0  0  0
   -3.0160   20.0210  -32.5410 C   0  0  0  0  0  0  0  0  0  0  0  0
   -3.7210   20.7150  -31.5520 C   0  0  0  0  0  0  0  0  0  0  0  0
   -2.9970   21.2230  -30.4170 N   0  0  0  0  0  0  0  0  0  0  0  0
   -2.9080   22.4660  -30.0410 C   0  0  0  0  0  0  0  0  0  0  0  0
   -3.6050   23.4490  -30.6730 N   0  0  0  0  0  0  0  0  0  0  0  0
   -3.5160   24.7340  -30.2450 C   0  0  0  0  0  0  0  0  0  0  0  0
   -4.1740   25.6700  -30.8490 N   0  0  0  0  0  0  0  0  0  0  0  0
   -2.7360   25.0380  -29.1780 N   0  0  0  0  0  0  0  0  0  0  0  0
   -2.0370   24.0630  -28.5390 C   0  0  0  0  0  0  0  0  0  0  0  0
   -1.3050   24.3270  -27.4960 N   0  0  0  0  0  0  0  0  0  0  0  0
   -1.0420   25.6230  -26.9310 C   0  0  0  0  0  0  0  0  0  0  0  0
   -1.4990   25.9850  -25.6490 C   0  0  0  0  0  0  0  0  0  0  0  0
   -1.2510   27.2680  -25.1500 C   0  0  0  0  0  0  0  0  0  0  0  0
   -0.5670   28.2100  -25.9290 C   0  0  0  0  0  0  0  0  0  0  0  0
   -0.2420   29.8200  -25.2960 S   0  0  0  0  0  0  0  0  0  0  0  0
    0.4470   30.8010  -26.5400 N   0  0  0  0  0  0  0  0  0  0  0  0
    0.7160   29.7310  -24.1420 O   0  0  0  0  0  0  0  0  0  0  0  0
   -1.5210   30.4450  -24.8130 O   0  0  0  0  0  0  0  0  0  0  0  0
   -0.1340   27.8580  -27.2140 C   0  0  0  0  0  0  0  0  0  0  0  0
   -0.3800   26.5770  -27.7150 C   0  0  0  0  0  0  0  0  0  0  0  0
   -2.1380   22.7790  -28.9670 N   0  0  0  0  0  0  0  0  0  0  0  0
   -5.0930   20.9730  -31.7360 C   0  0  0  0  0  0  0  0  0  0  0  0
  -10.2494   22.2234  -30.6875 H   0  0  0  0  0  0  0  0  0  0  0  0
   -8.4001   21.8224  -30.4654 H   0  0  0  0  0  0  0  0  0  0  0  0
  -10.3806   20.6611  -32.5196 H   0  0  0  0  0  0  0  0  0  0  0  0
   -5.5570   19.4034  -34.7399 H   0  0  0  0  0  0  0  0  0  0  0  0
   -3.1147   18.9999  -34.4493 H   0  0  0  0  0  0  0  0  0  0  0  0
   -1.9367   19.8452  -32.4219 H   0  0  0  0  0  0  0  0  0  0  0  0
   -4.7820   25.4630  -31.6740 H   0  0  0  0  0  0  0  0  0  0  0  0
   -2.0526   25.2566  -25.0383 H   0  0  0  0  0  0  0  0  0  0  0  0
   -1.5948   27.5386  -24.1408 H   0  0  0  0  0  0  0  0  0  0  0  0
    0.1240   30.4080  -27.4520 H   0  0  0  0  0  0  0  0  0  0  0  0
    0.4022   28.5936  -27.8315 H   0  0  0  0  0  0  0  0  0  0  0  0
   -0.0517   26.3158  -28.7318 H   0  0  0  0  0  0  0  0  0  0  0  0
   -5.6416   21.5686  -30.9915 H   0  0  0  0  0  0  0  0  0  0  0  0
  1  2  2  0
  2  3  1  0
  3  4  2  0
  3  5  1  0
  5  6  1  0
  6  7  2  0
  7  8  1  0
  8  9  2  0
  9 10  1  0
 10 11  1  0
 11 12  2  3
 12 13  1  0
 13 14  1  0
 14 15  2  3
 14 16  1  0
 16 17  1  0
 17 18  2  3
 18 19  1  0
 19 20  2  0
 20 21  1  0
 21 22  2  0
 22 23  1  0
 23 24  1  0
 23 25  2  0
 23 26  2  0
 22 27  1  0
 27 28  2  0
 17 29  1  0
 10 30  2  0
 30  6  1  0
 29 12  1  0
 28 19  1  0
  1 31  1  0
  1 32  1  0
  2 33  1  0
  7 34  1  0
  8 35  1  0
  9 36  1  0
 15 37  1  0
 20 38  1  0
 21 39  1  0
 24 40  1  0
 27 41  1  0
 28 42  1  0
 30 43  1  0
M  CHG  5   5  -1  13  -1  16  -1  24  -1  29  -1
M  END
>  <UniqueID>  (39) 
37

>  <SMILES>  (39) 
C=CC(=O)[N-]c1cccc(N=c2[n-]c(=N)[n-]c(=Nc3ccc(S([NH-])(=O)=O)cc3)[n-]2)c1

>  <Energy>  (39) 
59.37758022769537

>  <Genealogy>  (39) 
C=CC(=O)[N-]c1cccc(N=c2[n-]c(=N)[n-]c(=Nc3ccc(S([NH-])(=O)=O)cc3)[n-]2)c1 (protonated)
C=CC(=O)[N-]c1cccc(N=c2[n-]c(=N)[n-]c(=Nc3ccc(S([NH-])(=O)=O)cc3)[n-]2)c1 (3D coordinates assigned)
C=CC(=O)[N-]c1cccc(N=c2[n-]c(=N)[n-]c(=Nc3ccc(S([NH-])(=O)=O)cc3)[n-]2)c1 (optimized conformer: 59.37758022769537 kcal/mol)

>  <smiles>  (39) 
C=CC(=O)Nc1cccc(N=c2[nH]c(=N)[nH]c(=Nc3ccc(S(N)(=O)=O)cc3)[nH]2)c1

>  <score_type>  (39) 
oracle

>  <origin>  (39) 
adgpu

>  <m_score__min__energy>  (39) 
-10.800000000000001

>  <m_primary>  (39) 
energy

$$$$
39:0
     RDKit          3D

 58 61  0  0  0  0  0  0  0  0999 V2000
    4.0190   21.7990  -35.6040 C   0  0  0  0  0  0  0  0  0  0  0  0
    2.8130   21.1780  -36.0360 O   0  0  0  0  0  0  0  0  0  0  0  0
    1.7060   20.9380  -35.2090 C   0  0  0  0  0  0  0  0  0  0  0  0
    0.4250   21.1150  -35.7440 C   0  0  0  0  0  0  0  0  0  0  0  0
   -0.7090   20.8580  -34.9690 C   0  0  0  0  0  0  0  0  0  0  0  0
   -0.5800   20.4410  -33.6390 C   0  0  0  0  0  0  0  0  0  0  0  0
   -1.7650   20.1050  -32.9060 N   0  0  0  0  0  0  0  0  0  0  0  0
   -3.0790   20.6310  -33.1360 C   0  0  0  0  0  0  0  0  0  0  0  0
   -3.2540   21.8790  -33.1900 O   0  0  0  0  0  0  0  0  0  0  0  0
   -4.2250   19.7060  -33.2880 C   0  0  0  0  0  0  0  0  0  0  0  0
   -4.1760   18.6340  -34.1950 C   0  0  0  0  0  0  0  0  0  0  0  0
   -5.3090   17.8440  -34.4160 C   0  0  0  0  0  0  0  0  0  0  0  0
   -6.5100   18.1350  -33.7630 C   0  0  0  0  0  0  0  0  0  0  0  0
   -6.5830   19.2090  -32.8640 C   0  0  0  0  0  0  0  0  0  0  0  0
   -7.9030   19.5640  -32.2130 C   0  0  0  0  0  0  0  0  0  0  0  0
   -8.1370   21.0060  -32.2540 N   0  0  0  0  0  0  0  0  0  0  0  0
   -7.9540   21.8540  -31.1130 C   0  0  0  0  0  0  0  0  0  0  0  0
   -8.8620   21.9270  -30.2400 O   0  0  0  0  0  0  0  0  0  0  0  0
   -6.7620   22.7260  -31.0250 C   0  0  0  0  0  0  0  0  0  0  0  0
   -6.8660   24.1020  -31.2850 C   0  0  0  0  0  0  0  0  0  0  0  0
   -5.7650   24.9410  -31.1070 C   0  0  0  0  0  0  0  0  0  0  0  0
   -4.5480   24.4250  -30.6520 C   0  0  0  0  0  0  0  0  0  0  0  0
   -3.4860   25.2970  -30.4380 O   0  0  0  0  0  0  0  0  0  0  0  0
   -4.4190   23.0450  -30.3900 C   0  0  0  0  0  0  0  0  0  0  0  0
   -3.1490   22.4750  -29.8700 C   0  0  0  0  0  0  0  0  0  0  0  0
   -1.9390   22.7100  -30.5470 C   0  0  0  0  0  0  0  0  0  0  0  0
   -0.7420   22.1740  -30.0660 C   0  0  0  0  0  0  0  0  0  0  0  0
   -0.7380   21.4020  -28.9040 C   0  0  0  0  0  0  0  0  0  0  0  0
   -1.9350   21.1490  -28.2190 C   0  0  0  0  0  0  0  0  0  0  0  0
   -1.9250   20.3520  -26.9480 C   0  0  0  0  0  0  0  0  0  0  0  0
   -3.1330   21.7050  -28.6930 C   0  0  0  0  0  0  0  0  0  0  0  0
   -5.5310   22.2060  -30.5880 C   0  0  0  0  0  0  0  0  0  0  0  0
   -5.4180   19.9480  -32.5860 C   0  0  0  0  0  0  0  0  0  0  0  0
    0.7040   20.2660  -33.0960 C   0  0  0  0  0  0  0  0  0  0  0  0
    1.8390   20.5190  -33.8720 C   0  0  0  0  0  0  0  0  0  0  0  0
    4.0498   21.8149  -34.5045 H   0  0  0  0  0  0  0  0  0  0  0  0
    4.8807   21.2325  -35.9868 H   0  0  0  0  0  0  0  0  0  0  0  0
    4.0583   22.8295  -35.9868 H   0  0  0  0  0  0  0  0  0  0  0  0
    0.3099   21.4590  -36.7825 H   0  0  0  0  0  0  0  0  0  0  0  0
   -1.7100   20.9843  -35.4071 H   0  0  0  0  0  0  0  0  0  0  0  0
   -3.2423   18.4150  -34.7338 H   0  0  0  0  0  0  0  0  0  0  0  0
   -5.2545   16.9898  -35.1069 H   0  0  0  0  0  0  0  0  0  0  0  0
   -7.4012   17.5194  -33.9549 H   0  0  0  0  0  0  0  0  0  0  0  0
   -8.7168   19.0523  -32.7478 H   0  0  0  0  0  0  0  0  0  0  0  0
   -7.8718   19.2442  -31.1610 H   0  0  0  0  0  0  0  0  0  0  0  0
   -7.8220   24.5216  -31.6314 H   0  0  0  0  0  0  0  0  0  0  0  0
   -5.8554   26.0152  -31.3261 H   0  0  0  0  0  0  0  0  0  0  0  0
   -1.9351   23.3204  -31.4621 H   0  0  0  0  0  0  0  0  0  0  0  0
    0.1989   22.3609  -30.6043 H   0  0  0  0  0  0  0  0  0  0  0  0
    0.2083   20.9900  -28.5235 H   0  0  0  0  0  0  0  0  0  0  0  0
   -1.9336   21.0358  -26.0864 H   0  0  0  0  0  0  0  0  0  0  0  0
   -2.8151   19.7067  -26.9129 H   0  0  0  0  0  0  0  0  0  0  0  0
   -1.0190   19.7292  -26.9129 H   0  0  0  0  0  0  0  0  0  0  0  0
   -4.0683   21.5371  -28.1390 H   0  0  0  0  0  0  0  0  0  0  0  0
   -5.4358   21.1267  -30.3980 H   0  0  0  0  0  0  0  0  0  0  0  0
   -5.4416   20.7258  -31.8085 H   0  0  0  0  0  0  0  0  0  0  0  0
    0.8167   19.9283  -32.0552 H   0  0  0  0  0  0  0  0  0  0  0  0
    2.8405   20.3900  -33.4357 H   0  0  0  0  0  0  0  0  0  0  0  0
  1  2  1  0
  2  3  1  0
  3  4  2  0
  4  5  1  0
  5  6  2  0
  6  7  1  0
  7  8  1  0
  8  9  2  0
  8 10  1  0
 10 11  2  0
 11 12  1  0
 12 13  2  0
 13 14  1  0
 14 15  1  0
 15 16  1  0
 16 17  1  0
 17 18  2  0
 17 19  1  0
 19 20  2  0
 20 21  1  0
 21 22  2  0
 22 23  1  0
 22 24  1  0
 24 25  1  0
 25 26  2  0
 26 27  1  0
 27 28  2  0
 28 29  1  0
 29 30  1  0
 29 31  2  0
 24 32  2  0
 14 33  2  0
  6 34  1  0
 34 35  2  0
 35  3  1  0
 33 10  1  0
 32 19  1  0
 31 25  1  0
  1 36  1  0
  1 37  1  0
  1 38  1  0
  4 39  1  0
  5 40  1  0
 11 41  1  0
 12 42  1  0
 13 43  1  0
 15 44  1  0
 15 45  1  0
 20 46  1  0
 21 47  1  0
 26 48  1  0
 27 49  1  0
 28 50  1  0
 30 51  1  0
 30 52  1  0
 30 53  1  0
 31 54  1  0
 32 55  1  0
 33 56  1  0
 34 57  1  0
 35 58  1  0
M  CHG  3   7  -1  16  -1  23  -1
M  END
>  <UniqueID>  (40) 
38

>  <SMILES>  (40) 
COc1ccc([N-]C(=O)c2cccc(C[N-]C(=O)c3ccc([O-])c(-c4cccc(C)c4)c3)c2)cc1

>  <Energy>  (40) 
68.95536470911509

>  <Genealogy>  (40) 
COc1ccc([N-]C(=O)c2cccc(C[N-]C(=O)c3ccc([O-])c(-c4cccc(C)c4)c3)c2)cc1 (protonated)
COc1ccc([N-]C(=O)c2cccc(C[N-]C(=O)c3ccc([O-])c(-c4cccc(C)c4)c3)c2)cc1 (3D coordinates assigned)
COc1ccc([N-]C(=O)c2cccc(C[N-]C(=O)c3ccc([O-])c(-c4cccc(C)c4)c3)c2)cc1 (optimized conformer: 68.95536470911509 kcal/mol)

>  <smiles>  (40) 
COc1ccc(NC(=O)c2cccc(CNC(=O)c3ccc(O)c(-c4cccc(C)c4)c3)c2)cc1

>  <score_type>  (40) 
oracle

>  <origin>  (40) 
adgpu

>  <m_score__min__energy>  (40) 
-12.9

>  <m_primary>  (40) 
energy

$$$$
40:0
     RDKit          3D

 28 30  0  0  0  0  0  0  0  0999 V2000
   -1.4550   25.7450  -28.9790 O   0  0  0  0  0  0  0  0  0  0  0  0
   -2.3510   24.9020  -29.2460 C   0  0  0  0  0  0  0  0  0  0  0  0
   -3.4870   25.2660  -30.0430 N   0  0  0  0  0  0  0  0  0  0  0  0
   -4.5460   24.3970  -30.4680 C   0  0  0  0  0  0  0  0  0  0  0  0
   -5.8550   24.6930  -30.0730 C   0  0  0  0  0  0  0  0  0  0  0  0
   -6.9170   23.8640  -30.4480 C   0  0  0  0  0  0  0  0  0  0  0  0
   -6.6840   22.7090  -31.2160 C   0  0  0  0  0  0  0  0  0  0  0  0
   -7.7960   21.8160  -31.6250 C   0  0  0  0  0  0  0  0  0  0  0  0
   -9.0140   22.2640  -32.0020 N   0  0  0  0  0  0  0  0  0  0  0  0
   -9.7060   21.1970  -32.2790 O   0  0  0  0  0  0  0  0  0  0  0  0
   -8.9670   20.1350  -32.0890 C   0  0  0  0  0  0  0  0  0  0  0  0
   -9.4760   18.6010  -32.3280 S   0  0  0  0  0  0  0  0  0  0  0  0
   -7.7350   20.4670  -31.6700 N   0  0  0  0  0  0  0  0  0  0  0  0
   -5.3630   22.4010  -31.5890 C   0  0  0  0  0  0  0  0  0  0  0  0
   -4.3040   23.2310  -31.2140 C   0  0  0  0  0  0  0  0  0  0  0  0
   -2.2560   23.5490  -28.6880 C   0  0  0  0  0  0  0  0  0  0  0  0
   -3.1530   22.9630  -27.8160 C   0  0  0  0  0  0  0  0  0  0  0  0
   -2.6590   21.7010  -27.5690 C   0  0  0  0  0  0  0  0  0  0  0  0
   -1.4940   21.5930  -28.3020 C   0  0  0  0  0  0  0  0  0  0  0  0
   -1.2810   22.7110  -28.9580 O   0  0  0  0  0  0  0  0  0  0  0  0
   -6.0508   25.5863  -29.4617 H   0  0  0  0  0  0  0  0  0  0  0  0
   -7.9422   24.1171  -30.1400 H   0  0  0  0  0  0  0  0  0  0  0  0
   -6.9460   19.8260  -31.4400 H   0  0  0  0  0  0  0  0  0  0  0  0
   -5.1619   21.4968  -32.1823 H   0  0  0  0  0  0  0  0  0  0  0  0
   -3.2754   22.9706  -31.5041 H   0  0  0  0  0  0  0  0  0  0  0  0
   -4.0699   23.4105  -27.4049 H   0  0  0  0  0  0  0  0  0  0  0  0
   -3.1035   20.9334  -26.9184 H   0  0  0  0  0  0  0  0  0  0  0  0
   -0.8436   20.7064  -28.3321 H   0  0  0  0  0  0  0  0  0  0  0  0
  1  2  2  0
  2  3  1  0
  3  4  1  0
  4  5  2  0
  5  6  1  0
  6  7  2  0
  7  8  1  0
  8  9  2  0
  9 10  1  0
 10 11  1  0
 11 12  2  0
 11 13  1  0
  7 14  1  0
 14 15  2  0
  2 16  1  0
 16 17  2  0
 17 18  1  0
 18 19  2  0
 19 20  1  0
 15  4  1  0
 20 16  1  0
 13  8  1  0
  5 21  1  0
  6 22  1  0
 13 23  1  0
 14 24  1  0
 15 25  1  0
 17 26  1  0
 18 27  1  0
 19 28  1  0
M  CHG  1   3  -1
M  END
>  <UniqueID>  (41) 
39

>  <SMILES>  (41) 
O=C([N-]c1ccc(-c2noc(=S)[nH]2)cc1)c1ccco1

>  <Energy>  (41) 
95.75932955989407

>  <Genealogy>  (41) 
O=C([N-]c1ccc(-c2noc(=S)[nH]2)cc1)c1ccco1 (protonated)
O=C([N-]c1ccc(-c2noc(=S)[nH]2)cc1)c1ccco1 (3D coordinates assigned)
O=C([N-]c1ccc(-c2noc(=S)[nH]2)cc1)c1ccco1 (optimized conformer: 95.75932955989407 kcal/mol)

>  <smiles>  (41) 
O=C(Nc1ccc(-c2noc(=S)[nH]2)cc1)c1ccco1

>  <score_type>  (41) 
oracle

>  <origin>  (41) 
adgpu

>  <m_score__min__energy>  (41) 
-8.5299999999999994

>  <m_primary>  (41) 
energy

$$$$
41:0
     RDKit          3D

 36 38  0  0  0  0  0  0  0  0999 V2000
   -3.7390   22.3350  -31.5510 C   0  0  0  0  0  0  0  0  0  0  0  0
   -4.1870   23.2660  -30.4930 C   0  0  0  0  0  0  0  0  0  0  0  0
   -3.4740   23.3270  -29.3400 N   0  0  0  0  0  0  0  0  0  0  0  0
   -3.8160   24.1400  -28.3220 C   0  0  0  0  0  0  0  0  0  0  0  0
   -3.1660   24.2220  -27.2190 N   0  0  0  0  0  0  0  0  0  0  0  0
   -4.9190   24.9190  -28.4760 N   0  0  0  0  0  0  0  0  0  0  0  0
   -5.6560   24.8880  -29.6090 C   0  0  0  0  0  0  0  0  0  0  0  0
   -6.7150   25.6460  -29.7410 N   0  0  0  0  0  0  0  0  0  0  0  0
   -5.3170   24.0600  -30.6600 C   0  0  0  0  0  0  0  0  0  0  0  0
   -6.1130   24.0320  -31.9100 C   0  0  0  0  0  0  0  0  0  0  0  0
   -6.8660   22.7520  -32.0720 C   0  0  0  0  0  0  0  0  0  0  0  0
   -6.3940   21.5690  -32.6080 C   0  0  0  0  0  0  0  0  0  0  0  0
   -7.2270   20.5330  -32.6650 C   0  0  0  0  0  0  0  0  0  0  0  0
   -6.8350   19.2020  -33.2170 C   0  0  0  0  0  0  0  0  0  0  0  0
   -7.2180   18.0300  -32.6200 C   0  0  0  0  0  0  0  0  0  0  0  0
   -6.8840   16.7750  -33.0960 C   0  0  0  0  0  0  0  0  0  0  0  0
   -6.1230   16.7200  -34.2320 C   0  0  0  0  0  0  0  0  0  0  0  0
   -5.7450   17.9080  -34.8220 C   0  0  0  0  0  0  0  0  0  0  0  0
   -6.0880   19.1110  -34.3310 N   0  0  0  0  0  0  0  0  0  0  0  0
   -8.5070   20.7130  -32.1860 C   0  0  0  0  0  0  0  0  0  0  0  0
   -8.5350   22.4170  -31.6300 S   0  0  0  0  0  0  0  0  0  0  0  0
   -3.3062   21.4356  -31.0887 H   0  0  0  0  0  0  0  0  0  0  0  0
   -4.5981   22.0490  -32.1756 H   0  0  0  0  0  0  0  0  0  0  0  0
   -2.9795   22.8279  -32.1756 H   0  0  0  0  0  0  0  0  0  0  0  0
   -2.6160   22.7410  -29.1810 H   0  0  0  0  0  0  0  0  0  0  0  0
   -2.3250   23.6640  -27.0360 H   0  0  0  0  0  0  0  0  0  0  0  0
   -5.1860   25.5590  -27.6700 H   0  0  0  0  0  0  0  0  0  0  0  0
   -6.9960   26.2860  -28.9580 H   0  0  0  0  0  0  0  0  0  0  0  0
   -6.8309   24.8652  -31.8913 H   0  0  0  0  0  0  0  0  0  0  0  0
   -5.4158   24.1225  -32.7560 H   0  0  0  0  0  0  0  0  0  0  0  0
   -5.3608   21.4863  -32.9764 H   0  0  0  0  0  0  0  0  0  0  0  0
   -7.8281   18.0907  -31.7067 H   0  0  0  0  0  0  0  0  0  0  0  0
   -7.2159   15.8602  -32.5833 H   0  0  0  0  0  0  0  0  0  0  0  0
   -5.8208   15.7541  -34.6631 H   0  0  0  0  0  0  0  0  0  0  0  0
   -5.1348   17.8690  -35.7364 H   0  0  0  0  0  0  0  0  0  0  0  0
   -9.3250   19.9783  -32.1526 H   0  0  0  0  0  0  0  0  0  0  0  0
  1  2  1  0
  2  3  1  0
  3  4  1  0
  4  5  2  3
  4  6  1  0
  6  7  1  0
  7  8  2  3
  7  9  1  0
  9 10  1  0
 10 11  1  0
 11 12  2  0
 12 13  1  0
 13 14  1  0
 14 15  2  0
 15 16  1  0
 16 17  2  0
 17 18  1  0
 18 19  2  0
 13 20  2  0
 20 21  1  0
  9  2  2  0
 21 11  1  0
 19 14  1  0
  1 22  1  0
  1 23  1  0
  1 24  1  0
  3 25  1  0
  5 26  1  0
  6 27  1  0
  8 28  1  0
 10 29  1  0
 10 30  1  0
 12 31  1  0
 15 32  1  0
 16 33  1  0
 17 34  1  0
 18 35  1  0
 20 36  1  0
M  END
>  <smiles>  (42) 
Cc1[nH]c(=N)[nH]c(=N)c1Cc1cc(-c2ccccn2)cs1

>  <score_type>  (42) 
oracle

>  <origin>  (42) 
adgpu

>  <m_score__min__energy>  (42) 
-8.0700000000000003

>  <m_primary>  (42) 
energy

$$$$
42:0
     RDKit          3D

 31 32  0  0  0  0  0  0  0  0999 V2000
   -7.0296   16.0303  -34.2973 H   0  0  0  0  0  0  0  0  0  0  0  0
   -6.7340   17.0080  -33.8890 C   0  0  0  0  0  0  0  0  0  0  0  0
   -5.8040   17.7970  -34.5690 C   0  0  0  0  0  0  0  0  0  0  0  0
   -5.3653   17.4385  -35.5119 H   0  0  0  0  0  0  0  0  0  0  0  0
   -5.4290   19.0420  -34.0540 C   0  0  0  0  0  0  0  0  0  0  0  0
   -4.6902   19.6548  -34.5912 H   0  0  0  0  0  0  0  0  0  0  0  0
   -5.9900   19.5170  -32.8530 C   0  0  0  0  0  0  0  0  0  0  0  0
   -5.5750   20.8390  -32.3160 C   0  0  0  0  0  0  0  0  0  0  0  0
   -6.4840   21.8480  -32.2510 N   0  0  0  0  0  0  0  0  0  0  0  0
   -6.1780   23.0550  -31.7750 N   0  0  0  0  0  0  0  0  0  0  0  0
   -6.9370   23.7700  -31.7700 H   0  0  0  0  0  0  0  0  0  0  0  0
   -4.9220   23.3440  -31.3170 C   0  0  0  0  0  0  0  0  0  0  0  0
   -4.6150   24.5230  -30.8450 N   0  0  0  0  0  0  0  0  0  0  0  0
   -5.4970   25.6800  -30.6990 C   0  0  0  0  0  0  0  0  0  0  0  0
   -6.0523   25.8308  -31.6365 H   0  0  0  0  0  0  0  0  0  0  0  0
   -4.8838   26.5643  -30.4707 H   0  0  0  0  0  0  0  0  0  0  0  0
   -6.4880   25.4650  -29.5600 C   0  0  0  0  0  0  0  0  0  0  0  0
   -5.9693   25.5775  -28.5965 H   0  0  0  0  0  0  0  0  0  0  0  0
   -7.2952   26.2089  -29.6309 H   0  0  0  0  0  0  0  0  0  0  0  0
   -6.9143   24.4535  -29.6309 H   0  0  0  0  0  0  0  0  0  0  0  0
   -3.9360   22.3400  -31.3570 C   0  0  0  0  0  0  0  0  0  0  0  0
   -2.5420   22.5980  -30.8480 C   0  0  0  0  0  0  0  0  0  0  0  0
   -2.5473   22.5970  -29.7480 H   0  0  0  0  0  0  0  0  0  0  0  0
   -1.8669   21.8095  -31.2121 H   0  0  0  0  0  0  0  0  0  0  0  0
   -2.1938   23.5758  -31.2121 H   0  0  0  0  0  0  0  0  0  0  0  0
   -4.2750   21.0780  -31.8530 C   0  0  0  0  0  0  0  0  0  0  0  0
   -3.5234   20.2753  -31.8796 H   0  0  0  0  0  0  0  0  0  0  0  0
   -6.9190   18.7060  -32.1710 C   0  0  0  0  0  0  0  0  0  0  0  0
   -7.3567   19.0542  -31.2238 H   0  0  0  0  0  0  0  0  0  0  0  0
   -7.2880   17.4610  -32.6910 C   0  0  0  0  0  0  0  0  0  0  0  0
   -8.0173   16.8369  -32.1538 H   0  0  0  0  0  0  0  0  0  0  0  0
  1  2  1  0
  2  3  2  0
  3  4  1  0
  3  5  1  0
  5  6  1  0
  5  7  2  0
  7  8  1  0
  8  9  2  0
  9 10  1  0
 10 11  1  0
 10 12  1  0
 12 13  2  0
 13 14  1  0
 14 15  1  0
 14 16  1  0
 14 17  1  0
 17 18  1  0
 17 19  1  0
 17 20  1  0
 12 21  1  0
 21 22  1  0
 22 23  1  0
 22 24  1  0
 22 25  1  0
 21 26  2  0
 26 27  1  0
  7 28  1  0
 28 29  1  0
 28 30  2  0
 30 31  1  0
 30  2  1  0
 26  8  1  0
M  END
>  <UniqueID>  (43) 
40

>  <SMILES>  (43) 
CC/N=c1\[nH]nc(-c2ccccc2)cc1C

>  <Energy>  (43) 
35.353140571509506

>  <Genealogy>  (43) 
CC/N=c1\[nH]nc(-c2ccccc2)cc1C (cis-trans isomerization)
CC/N=c1\[nH]nc(-c2ccccc2)cc1C (3D coordinates assigned)
CC/N=c1\[nH]nc(-c2ccccc2)cc1C (optimized conformer: 35.353140571509506 kcal/mol)

>  <smiles>  (43) 
CCN=c1[nH]nc(-c2ccccc2)cc1C

>  <score_type>  (43) 
oracle

>  <origin>  (43) 
adgpu

>  <m_score__min__energy>  (43) 
-6.5499999999999998

>  <m_primary>  (43) 
energy

$$$$
43:0
     RDKit          3D

 53 55  0  0  0  0  0  0  0  0999 V2000
   -0.0321   23.6375  -29.0977 H   0  0  0  0  0  0  0  0  0  0  0  0
   -0.8700   24.0050  -28.4870 C   0  0  0  0  0  0  0  0  0  0  0  0
   -2.1690   23.9530  -28.9870 C   0  0  0  0  0  0  0  0  0  0  0  0
   -2.3501   23.5512  -29.9949 H   0  0  0  0  0  0  0  0  0  0  0  0
   -3.2460   24.4080  -28.2170 C   0  0  0  0  0  0  0  0  0  0  0  0
   -4.5600   24.3640  -28.7890 N   0  0  0  0  0  0  0  0  0  0  0  0
   -5.2900   23.7940  -28.3020 H   0  0  0  0  0  0  0  0  0  0  0  0
   -4.8280   24.8210  -30.1220 C   0  0  0  0  0  0  0  0  0  0  0  0
   -3.8990   25.2910  -30.8340 O   0  0  0  0  0  0  0  0  0  0  0  0
   -6.2190   24.7520  -30.6750 C   0  0  0  0  0  0  0  0  0  0  0  0
   -6.9085   24.4336  -29.8793 H   0  0  0  0  0  0  0  0  0  0  0  0
   -6.5008   25.7475  -31.0485 H   0  0  0  0  0  0  0  0  0  0  0  0
   -6.2890   23.7970  -31.7820 N   0  0  0  0  0  0  0  0  0  0  0  0
   -5.5980   23.8790  -32.5640 H   0  0  0  0  0  0  0  0  0  0  0  0
   -7.2740   22.7480  -31.8570 C   0  0  0  0  0  0  0  0  0  0  0  0
   -8.6540   23.0190  -31.7730 C   0  0  0  0  0  0  0  0  0  0  0  0
   -9.0013   24.0546  -31.6430 H   0  0  0  0  0  0  0  0  0  0  0  0
   -9.5840   21.9790  -31.8540 C   0  0  0  0  0  0  0  0  0  0  0  0
  -10.6597   22.1990  -31.7868 H   0  0  0  0  0  0  0  0  0  0  0  0
   -9.1520   20.6610  -32.0200 C   0  0  0  0  0  0  0  0  0  0  0  0
   -9.8875   19.8456  -32.0856 H   0  0  0  0  0  0  0  0  0  0  0  0
   -7.7830   20.3770  -32.1030 C   0  0  0  0  0  0  0  0  0  0  0  0
   -7.2210   18.7190  -32.2980 S   0  0  0  0  0  0  0  0  0  0  0  0
   -8.4030   17.7970  -32.1970 O   0  0  0  0  0  0  0  0  0  0  0  0
   -6.2390   18.3530  -31.2190 O   0  0  0  0  0  0  0  0  0  0  0  0
   -6.4720   18.5190  -33.8530 N   0  0  0  0  0  0  0  0  0  0  0  0
   -6.8670   19.0680  -34.6490 H   0  0  0  0  0  0  0  0  0  0  0  0
   -5.4600   17.7300  -34.0700 C   0  0  0  0  0  0  0  0  0  0  0  0
   -4.8930   17.5720  -35.3550 N   0  0  0  0  0  0  0  0  0  0  0  0
   -5.2120   18.0680  -36.2180 H   0  0  0  0  0  0  0  0  0  0  0  0
   -3.8160   16.6050  -35.3160 C   0  0  0  0  0  0  0  0  0  0  0  0
   -2.8754   17.0687  -35.6479 H   0  0  0  0  0  0  0  0  0  0  0  0
   -4.0174   15.7546  -35.9840 H   0  0  0  0  0  0  0  0  0  0  0  0
   -3.6980   16.1500  -33.8500 C   0  0  0  0  0  0  0  0  0  0  0  0
   -2.6999   16.3969  -33.4590 H   0  0  0  0  0  0  0  0  0  0  0  0
   -3.8380   15.0620  -33.7688 H   0  0  0  0  0  0  0  0  0  0  0  0
   -4.7760   16.8970  -33.0480 C   0  0  0  0  0  0  0  0  0  0  0  0
   -4.3202   17.5266  -32.2696 H   0  0  0  0  0  0  0  0  0  0  0  0
   -5.4630   16.2182  -32.5214 H   0  0  0  0  0  0  0  0  0  0  0  0
   -6.8510   21.4180  -32.0210 C   0  0  0  0  0  0  0  0  0  0  0  0
   -5.7763   21.1927  -32.0856 H   0  0  0  0  0  0  0  0  0  0  0  0
   -3.0230   24.8780  -26.8980 C   0  0  0  0  0  0  0  0  0  0  0  0
   -4.1860   25.2720  -26.0180 C   0  0  0  0  0  0  0  0  0  0  0  0
   -3.8961   25.1738  -24.9614 H   0  0  0  0  0  0  0  0  0  0  0  0
   -4.4662   26.3152  -26.2259 H   0  0  0  0  0  0  0  0  0  0  0  0
   -5.0425   24.6139  -26.2259 H   0  0  0  0  0  0  0  0  0  0  0  0
   -1.6890   24.9810  -26.4190 C   0  0  0  0  0  0  0  0  0  0  0  0
   -1.3810   25.5220  -25.0450 C   0  0  0  0  0  0  0  0  0  0  0  0
   -1.7735   24.8326  -24.2830 H   0  0  0  0  0  0  0  0  0  0  0  0
   -0.2919   25.6196  -24.9250 H   0  0  0  0  0  0  0  0  0  0  0  0
   -1.8530   26.5083  -24.9250 H   0  0  0  0  0  0  0  0  0  0  0  0
   -0.6290   24.5210  -27.2160 C   0  0  0  0  0  0  0  0  0  0  0  0
    0.4012   24.5685  -26.8333 H   0  0  0  0  0  0  0  0  0  0  0  0
  1  2  1  0
  2  3  2  0
  3  4  1  0
  3  5  1  0
  5  6  1  0
  6  7  1  0
  6  8  1  0
  8  9  2  0
  8 10  1  0
 10 11  1  0
 10 12  1  0
 10 13  1  0
 13 14  1  0
 13 15  1  0
 15 16  2  0
 16 17  1  0
 16 18  1  0
 18 19  1  0
 18 20  2  0
 20 21  1  0
 20 22  1  0
 22 23  1  0
 23 24  2  0
 23 25  2  0
 23 26  1  0
 26 27  1  0
 26 28  2  0
 28 29  1  0
 29 30  1  0
 29 31  1  0
 31 32  1  0
 31 33  1  0
 31 34  1  0
 34 35  1  0
 34 36  1  0
 34 37  1  0
 37 38  1  0
 37 39  1  0
 22 40  2  0
 40 41  1  0
  5 42  2  0
 42 43  1  0
 43 44  1  0
 43 45  1  0
 43 46  1  0
 42 47  1  0
 47 48  1  0
 48 49  1  0
 48 50  1  0
 48 51  1  0
 47 52  2  0
 52 53  1  0
 52  2  1  0
 40 15  1  0
 37 28  1  0
M  CHG  1  26   1
M  END
>  <UniqueID>  (44) 
41

>  <SMILES>  (44) 
Cc1cccc(NC(=O)CNc2cccc(S(=O)(=O)/[NH+]=C3\CCCN3)c2)c1C

>  <Energy>  (44) 
66.90483185323167

>  <Genealogy>  (44) 
Cc1cccc(NC(=O)CNc2cccc(S(=O)(=O)[NH+]=C3CCCN3)c2)c1C (protonated)
Cc1cccc(NC(=O)CNc2cccc(S(=O)(=O)/[NH+]=C3\CCCN3)c2)c1C (cis-trans isomerization)
Cc1cccc(NC(=O)CNc2cccc(S(=O)(=O)/[NH+]=C3\CCCN3)c2)c1C (3D coordinates assigned)
Cc1cccc(NC(=O)CNc2cccc(S(=O)(=O)/[NH+]=C3\CCCN3)c2)c1C (nonaromatic ring conformer: 66.90483185323167 kcal/mol)

>  <smiles>  (44) 
Cc1cccc(NC(=O)CNc2cccc(S(=O)(=O)N=C3CCCN3)c2)c1C

>  <score_type>  (44) 
oracle

>  <origin>  (44) 
adgpu

>  <m_score__min__energy>  (44) 
-10.630000000000001

>  <m_primary>  (44) 
energy

$$$$
44:0
     RDKit          3D

 30 31  0  0  0  0  0  0  0  0999 V2000
   -9.6980   21.1680  -31.9480 C   0  0  0  0  0  0  0  0  0  0  0  0
   -8.5670   22.1910  -31.9260 C   0  0  0  0  0  0  0  0  0  0  0  0
   -7.2330   21.5230  -32.1370 C   0  0  0  0  0  0  0  0  0  0  0  0
   -7.2270   20.3160  -32.7640 N   0  0  0  0  0  0  0  0  0  0  0  0
   -6.0750   19.6430  -33.0250 C   0  0  0  0  0  0  0  0  0  0  0  0
   -6.1150   18.3660  -33.6920 N   0  0  0  0  0  0  0  0  0  0  0  0
   -6.8650   17.2570  -33.0950 C   0  0  0  0  0  0  0  0  0  0  0  0
   -5.4080   18.1880  -34.9630 C   0  0  0  0  0  0  0  0  0  0  0  0
   -4.8870   20.1870  -32.6540 N   0  0  0  0  0  0  0  0  0  0  0  0
   -4.8290   21.3850  -32.0220 C   0  0  0  0  0  0  0  0  0  0  0  0
   -6.0040   22.0950  -31.7270 C   0  0  0  0  0  0  0  0  0  0  0  0
   -5.9070   23.3870  -31.0070 C   0  0  0  0  0  0  0  0  0  0  0  0
   -6.8570   23.8160  -30.0800 C   0  0  0  0  0  0  0  0  0  0  0  0
   -6.3910   25.3350  -29.5340 S   0  0  0  0  0  0  0  0  0  0  0  0
   -5.0160   25.3950  -30.4960 C   0  0  0  0  0  0  0  0  0  0  0  0
   -4.8970   24.2730  -31.2350 N   0  0  0  0  0  0  0  0  0  0  0  0
   -9.9810   20.9120  -30.9163 H   0  0  0  0  0  0  0  0  0  0  0  0
  -10.5668   21.5932  -32.4718 H   0  0  0  0  0  0  0  0  0  0  0  0
   -9.3619   20.2610  -32.4718 H   0  0  0  0  0  0  0  0  0  0  0  0
   -8.7317   22.9271  -32.7266 H   0  0  0  0  0  0  0  0  0  0  0  0
   -8.5604   22.6862  -30.9438 H   0  0  0  0  0  0  0  0  0  0  0  0
   -6.8160   17.3295  -31.9985 H   0  0  0  0  0  0  0  0  0  0  0  0
   -7.9149   17.3078  -33.4193 H   0  0  0  0  0  0  0  0  0  0  0  0
   -6.4269   16.3015  -33.4193 H   0  0  0  0  0  0  0  0  0  0  0  0
   -4.3587   17.9238  -34.7650 H   0  0  0  0  0  0  0  0  0  0  0  0
   -5.8865   17.3823  -35.5391 H   0  0  0  0  0  0  0  0  0  0  0  0
   -5.4480   19.1242  -35.5391 H   0  0  0  0  0  0  0  0  0  0  0  0
   -3.8527   21.8046  -31.7378 H   0  0  0  0  0  0  0  0  0  0  0  0
   -7.7513   23.2593  -29.7632 H   0  0  0  0  0  0  0  0  0  0  0  0
   -4.3076   26.2362  -30.5202 H   0  0  0  0  0  0  0  0  0  0  0  0
  1  2  1  0
  2  3  1  0
  3  4  2  0
  4  5  1  0
  5  6  1  0
  6  7  1  0
  6  8  1  0
  5  9  2  0
  9 10  1  0
 10 11  2  0
 11 12  1  0
 12 13  2  0
 13 14  1  0
 14 15  1  0
 15 16  2  0
 11  3  1  0
 16 12  1  0
  1 17  1  0
  1 18  1  0
  1 19  1  0
  2 20  1  0
  2 21  1  0
  7 22  1  0
  7 23  1  0
  7 24  1  0
  8 25  1  0
  8 26  1  0
  8 27  1  0
 10 28  1  0
 13 29  1  0
 15 30  1  0
M  END
>  <UniqueID>  (45) 
42

>  <SMILES>  (45) 
CCc1nc(N(C)C)ncc1-c1cscn1

>  <Energy>  (45) 
60.05160142031967

>  <Genealogy>  (45) 
CCc1nc(N(C)C)ncc1-c1cscn1 (3D coordinates assigned)
CCc1nc(N(C)C)ncc1-c1cscn1 (optimized conformer: 60.05160142031967 kcal/mol)

>  <smiles>  (45) 
CCc1nc(N(C)C)ncc1-c1cscn1

>  <score_type>  (45) 
oracle

>  <origin>  (45) 
adgpu

>  <m_score__min__energy>  (45) 
-6.21

>  <m_primary>  (45) 
energy

$$$$
45:0
     RDKit          3D

 31 33  0  0  0  0  0  0  0  0999 V2000
   -1.1930   18.6710  -27.1010 C   0  0  0  0  0  0  0  0  0  0  0  0
   -1.7470   19.8670  -27.8160 C   0  0  0  0  0  0  0  0  0  0  0  0
   -2.9550   20.4460  -27.3950 C   0  0  0  0  0  0  0  0  0  0  0  0
   -3.4890   21.5390  -28.0820 C   0  0  0  0  0  0  0  0  0  0  0  0
   -2.8320   22.0600  -29.2080 C   0  0  0  0  0  0  0  0  0  0  0  0
   -3.3680   23.2040  -29.8990 N   0  0  0  0  0  0  0  0  0  0  0  0
   -4.3340   23.2340  -30.8430 C   0  0  0  0  0  0  0  0  0  0  0  0
   -4.9890   22.0450  -31.4280 C   0  0  0  0  0  0  0  0  0  0  0  0
   -6.3420   21.7740  -31.1400 C   0  0  0  0  0  0  0  0  0  0  0  0
   -7.2560   22.8470  -30.0750 Cl  0  0  0  0  0  0  0  0  0  0  0  0
   -6.9580   20.6280  -31.6710 C   0  0  0  0  0  0  0  0  0  0  0  0
   -8.6490   20.2830  -31.2980 Cl  0  0  0  0  0  0  0  0  0  0  0  0
   -6.2270   19.7520  -32.4920 C   0  0  0  0  0  0  0  0  0  0  0  0
   -7.0020   18.3080  -33.1510 Cl  0  0  0  0  0  0  0  0  0  0  0  0
   -4.8820   20.0240  -32.7890 C   0  0  0  0  0  0  0  0  0  0  0  0
   -3.9700   18.9270  -33.8280 Cl  0  0  0  0  0  0  0  0  0  0  0  0
   -4.2630   21.1710  -32.2640 C   0  0  0  0  0  0  0  0  0  0  0  0
   -2.5870   21.5360  -32.6970 Cl  0  0  0  0  0  0  0  0  0  0  0  0
   -4.6240   24.4960  -31.2140 N   0  0  0  0  0  0  0  0  0  0  0  0
   -3.8440   25.2990  -30.5040 N   0  0  0  0  0  0  0  0  0  0  0  0
   -3.0860   24.5120  -29.7170 C   0  0  0  0  0  0  0  0  0  0  0  0
   -2.0430   25.1060  -28.6030 S   0  0  0  0  0  0  0  0  0  0  0  0
   -1.6340   21.4690  -29.6370 C   0  0  0  0  0  0  0  0  0  0  0  0
   -1.0990   20.3760  -28.9510 C   0  0  0  0  0  0  0  0  0  0  0  0
   -1.2654   18.8273  -26.0146 H   0  0  0  0  0  0  0  0  0  0  0  0
   -1.7686   17.7767  -27.3820 H   0  0  0  0  0  0  0  0  0  0  0  0
   -0.1387   18.5317  -27.3820 H   0  0  0  0  0  0  0  0  0  0  0  0
   -3.4830   20.0373  -26.5208 H   0  0  0  0  0  0  0  0  0  0  0  0
   -4.4298   21.9941  -27.7387 H   0  0  0  0  0  0  0  0  0  0  0  0
   -1.1127   21.8689  -30.5192 H   0  0  0  0  0  0  0  0  0  0  0  0
   -0.1654   19.9125  -29.3025 H   0  0  0  0  0  0  0  0  0  0  0  0
  1  2  1  0
  2  3  2  0
  3  4  1  0
  4  5  2  0
  5  6  1  0
  6  7  1  0
  7  8  1  0
  8  9  2  0
  9 10  1  0
  9 11  1  0
 11 12  1  0
 11 13  2  0
 13 14  1  0
 13 15  1  0
 15 16  1  0
 15 17  2  0
 17 18  1  0
  7 19  2  0
 19 20  1  0
 20 21  1  0
 21 22  2  0
  5 23  1  0
 23 24  2  0
 24  2  1  0
 21  6  1  0
 17  8  1  0
  1 25  1  0
  1 26  1  0
  1 27  1  0
  3 28  1  0
  4 29  1  0
 23 30  1  0
 24 31  1  0
M  CHG  1  20  -1
M  END
>  <UniqueID>  (46) 
43

>  <SMILES>  (46) 
Cc1ccc(-n2c(-c3c(Cl)c(Cl)c(Cl)c(Cl)c3Cl)n[n-]c2=S)cc1

>  <Energy>  (46) 
86.89176547574266

>  <Genealogy>  (46) 
Cc1ccc(-n2c(-c3c(Cl)c(Cl)c(Cl)c(Cl)c3Cl)n[n-]c2=S)cc1 (protonated)
Cc1ccc(-n2c(-c3c(Cl)c(Cl)c(Cl)c(Cl)c3Cl)n[n-]c2=S)cc1 (3D coordinates assigned)
Cc1ccc(-n2c(-c3c(Cl)c(Cl)c(Cl)c(Cl)c3Cl)n[n-]c2=S)cc1 (optimized conformer: 86.89176547574266 kcal/mol)

>  <smiles>  (46) 
Cc1ccc(-n2c(-c3c(Cl)c(Cl)c(Cl)c(Cl)c3Cl)n[nH]c2=S)cc1

>  <score_type>  (46) 
oracle

>  <origin>  (46) 
adgpu

>  <m_score__min__energy>  (46) 
-11.16

>  <m_primary>  (46) 
energy

$$$$
46:0
     RDKit          3D

 60 63  0  0  0  0  0  0  0  0999 V2000
   -6.1213   23.4644  -31.2930 H   0  0  0  0  0  0  0  0  0  0  0  0
   -6.8270   22.6310  -31.1610 C   0  0  0  0  0  0  0  0  0  0  0  0
   -6.6074   21.8340  -30.4353 H   0  0  0  0  0  0  0  0  0  0  0  0
   -7.9460   22.5870  -31.8790 C   0  0  0  0  0  0  0  0  0  0  0  0
   -8.1456   23.3944  -32.5989 H   0  0  0  0  0  0  0  0  0  0  0  0
   -8.9310   21.4930  -31.7450 C   0  0  0  0  0  0  0  0  0  0  0  0
   -9.8540   21.5770  -30.8900 O   0  0  0  0  0  0  0  0  0  0  0  0
   -8.9120   20.3620  -32.6230 N   0  0  0  0  0  0  0  0  0  0  0  0
   -7.8190   19.4520  -32.8130 C   0  0  0  0  0  0  0  0  0  0  0  0
   -7.9840   18.0630  -32.6750 C   0  0  0  0  0  0  0  0  0  0  0  0
   -8.9622   17.6535  -32.3825 H   0  0  0  0  0  0  0  0  0  0  0  0
   -6.9100   17.2010  -32.9080 C   0  0  0  0  0  0  0  0  0  0  0  0
   -7.0421   16.1154  -32.7895 H   0  0  0  0  0  0  0  0  0  0  0  0
   -5.6690   17.7140  -33.2910 C   0  0  0  0  0  0  0  0  0  0  0  0
   -4.8264   17.0301  -33.4704 H   0  0  0  0  0  0  0  0  0  0  0  0
   -5.4910   19.0940  -33.4480 C   0  0  0  0  0  0  0  0  0  0  0  0
   -4.2330   19.5650  -33.8510 O   0  0  0  0  0  0  0  0  0  0  0  0
   -3.3180   20.2070  -33.0100 C   0  0  0  0  0  0  0  0  0  0  0  0
   -3.7900   21.0060  -32.0170 N   0  0  0  0  0  0  0  0  0  0  0  0
   -2.9520   21.6630  -31.1730 C   0  0  0  0  0  0  0  0  0  0  0  0
   -3.4530   22.3950  -30.2230 N   0  0  0  0  0  0  0  0  0  0  0  0
   -2.6960   23.1820  -29.2890 C   0  0  0  0  0  0  0  0  0  0  0  0
   -1.9980   22.5270  -28.2750 C   0  0  0  0  0  0  0  0  0  0  0  0
   -2.0316   21.4292  -28.2136 H   0  0  0  0  0  0  0  0  0  0  0  0
   -1.2580   23.2470  -27.3380 C   0  0  0  0  0  0  0  0  0  0  0  0
   -0.7021   22.7061  -26.5580 H   0  0  0  0  0  0  0  0  0  0  0  0
   -1.2090   24.6590  -27.3720 C   0  0  0  0  0  0  0  0  0  0  0  0
   -0.4260   25.4150  -26.3930 N   0  0  0  0  0  0  0  0  0  0  0  0
    0.3230   24.6770  -25.3520 C   0  0  0  0  0  0  0  0  0  0  0  0
   -0.4027   24.1238  -24.7377 H   0  0  0  0  0  0  0  0  0  0  0  0
    1.0304   24.0262  -25.8869 H   0  0  0  0  0  0  0  0  0  0  0  0
    1.1700   25.5510  -24.4160 C   0  0  0  0  0  0  0  0  0  0  0  0
    1.3150   25.0108  -23.4688 H   0  0  0  0  0  0  0  0  0  0  0  0
    2.1233   25.7501  -24.9274 H   0  0  0  0  0  0  0  0  0  0  0  0
    0.5520   26.8490  -24.1230 N   0  0  0  0  0  0  0  0  0  0  0  0
   -0.6910   26.7310  -23.3410 C   0  0  0  0  0  0  0  0  0  0  0  0
   -0.4523   26.7537  -22.2674 H   0  0  0  0  0  0  0  0  0  0  0  0
   -1.3593   27.5697  -23.5858 H   0  0  0  0  0  0  0  0  0  0  0  0
   -1.1895   25.7815  -23.5858 H   0  0  0  0  0  0  0  0  0  0  0  0
    0.3750   27.6030  -25.3690 C   0  0  0  0  0  0  0  0  0  0  0  0
   -0.0677   28.5804  -25.1267 H   0  0  0  0  0  0  0  0  0  0  0  0
    1.3665   27.7035  -25.8347 H   0  0  0  0  0  0  0  0  0  0  0  0
   -0.5350   26.8920  -26.3800 C   0  0  0  0  0  0  0  0  0  0  0  0
   -1.5768   27.1548  -26.1444 H   0  0  0  0  0  0  0  0  0  0  0  0
   -0.2118   27.2318  -27.3750 H   0  0  0  0  0  0  0  0  0  0  0  0
   -1.9470   25.3130  -28.3890 C   0  0  0  0  0  0  0  0  0  0  0  0
   -1.9299   26.4115  -28.4436 H   0  0  0  0  0  0  0  0  0  0  0  0
   -2.7030   24.5880  -29.3330 C   0  0  0  0  0  0  0  0  0  0  0  0
   -3.4870   25.2300  -30.3070 O   0  0  0  0  0  0  0  0  0  0  0  0
   -4.9080   25.1700  -30.3770 C   0  0  0  0  0  0  0  0  0  0  0  0
   -5.3248   25.1524  -29.3592 H   0  0  0  0  0  0  0  0  0  0  0  0
   -5.2863   26.0530  -30.9129 H   0  0  0  0  0  0  0  0  0  0  0  0
   -5.2105   24.2583  -30.9129 H   0  0  0  0  0  0  0  0  0  0  0  0
   -1.6050   21.5180  -31.3160 N   0  0  0  0  0  0  0  0  0  0  0  0
   -1.0830   20.7470  -32.3030 C   0  0  0  0  0  0  0  0  0  0  0  0
    0.0079   20.6517  -32.4071 H   0  0  0  0  0  0  0  0  0  0  0  0
   -1.9290   20.0750  -33.1860 C   0  0  0  0  0  0  0  0  0  0  0  0
   -1.2360   19.1570  -34.5160 Cl  0  0  0  0  0  0  0  0  0  0  0  0
   -6.5800   19.9570  -33.2270 C   0  0  0  0  0  0  0  0  0  0  0  0
   -6.4571   21.0392  -33.3809 H   0  0  0  0  0  0  0  0  0  0  0  0
  1  2  1  0
  2  3  1  0
  2  4  2  0
  4  5  1  0
  4  6  1  0
  6  7  2  0
  6  8  1  0
  8  9  1  0
  9 10  2  0
 10 11  1  0
 10 12  1  0
 12 13  1  0
 12 14  2  0
 14 15  1  0
 14 16  1  0
 16 17  1  0
 17 18  1  0
 18 19  2  0
 19 20  1  0
 20 21  2  0
 21 22  1  0
 22 23  2  0
 23 24  1  0
 23 25  1  0
 25 26  1  0
 25 27  2  0
 27 28  1  0
 28 29  1  0
 29 30  1  0
 29 31  1  0
 29 32  1  0
 32 33  1  0
 32 34  1  0
 32 35  1  0
 35 36  1  0
 36 37  1  0
 36 38  1  0
 36 39  1  0
 35 40  1  0
 40 41  1  0
 40 42  1  0
 40 43  1  0
 43 44  1  0
 43 45  1  0
 27 46  1  0
 46 47  1  0
 46 48  2  0
 48 49  1  0
 49 50  1  0
 50 51  1  0
 50 52  1  0
 50 53  1  0
 20 54  1  0
 54 55  1  0
 55 56  1  0
 55 57  2  0
 57 58  1  0
 16 59  2  0
 59 60  1  0
 59  9  1  0
 57 18  1  0
 48 22  1  0
 43 28  1  0
M  CHG  2   8  -1  54  -1
M  END
>  <UniqueID>  (47) 
44

>  <SMILES>  (47) 
C=CC(=O)[N-]c1cccc(Oc2n/c(=N/c3ccc(N4CCN(C)CC4)cc3OC)[n-]cc2Cl)c1

>  <Energy>  (47) 
94.14991845932512

>  <Genealogy>  (47) 
C=CC(=O)[N-]c1cccc(Oc2nc(=Nc3ccc(N4CCN(C)CC4)cc3OC)[n-]cc2Cl)c1 (protonated)
C=CC(=O)[N-]c1cccc(Oc2n/c(=N/c3ccc(N4CCN(C)CC4)cc3OC)[n-]cc2Cl)c1 (cis-trans isomerization)
C=CC(=O)[N-]c1cccc(Oc2n/c(=N/c3ccc(N4CCN(C)CC4)cc3OC)[n-]cc2Cl)c1 (3D coordinates assigned)
C=CC(=O)[N-]c1cccc(Oc2n/c(=N/c3ccc(N4CCN(C)CC4)cc3OC)[n-]cc2Cl)c1 (nonaromatic ring conformer: 94.14991845932512 kcal/mol)

>  <smiles>  (47) 
C=CC(=O)Nc1cccc(Oc2nc(=Nc3ccc(N4CCN(C)CC4)cc3OC)[nH]cc2Cl)c1

>  <score_type>  (47) 
oracle

>  <origin>  (47) 
adgpu

>  <m_score__min__energy>  (47) 
-9.9700000000000006

>  <m_primary>  (47) 
energy

$$$$
47:0
     RDKit          3D

 22 23  0  0  0  0  0  0  0  0999 V2000
   -3.4320   18.3550  -25.9700 O   0  0  0  0  0  0  0  0  0  0  0  0
   -2.6500   19.0530  -26.6690 C   0  0  0  0  0  0  0  0  0  0  0  0
   -1.3200   18.6710  -26.8240 C   0  0  0  0  0  0  0  0  0  0  0  0
   -0.4840   19.4600  -27.6160 C   0  0  0  0  0  0  0  0  0  0  0  0
    0.8470   19.0950  -27.7910 O   0  0  0  0  0  0  0  0  0  0  0  0
   -0.9540   20.5570  -28.2040 O   0  0  0  0  0  0  0  0  0  0  0  0
   -2.2180   20.9670  -28.0760 C   0  0  0  0  0  0  0  0  0  0  0  0
   -2.6400   22.2070  -28.7750 C   0  0  0  0  0  0  0  0  0  0  0  0
   -3.8090   22.1970  -29.5560 C   0  0  0  0  0  0  0  0  0  0  0  0
   -4.2230   23.3500  -30.2300 C   0  0  0  0  0  0  0  0  0  0  0  0
   -3.4720   24.5250  -30.1410 C   0  0  0  0  0  0  0  0  0  0  0  0
   -3.8900   25.6660  -30.8130 O   0  0  0  0  0  0  0  0  0  0  0  0
   -2.2980   24.5440  -29.3800 C   0  0  0  0  0  0  0  0  0  0  0  0
   -1.5400   25.7070  -29.2980 O   0  0  0  0  0  0  0  0  0  0  0  0
   -1.8820   23.3930  -28.7030 C   0  0  0  0  0  0  0  0  0  0  0  0
   -3.1130   20.2090  -27.2990 C   0  0  0  0  0  0  0  0  0  0  0  0
   -0.9356   17.7653  -26.3320 H   0  0  0  0  0  0  0  0  0  0  0  0
    1.1520   18.6490  -28.6480 H   0  0  0  0  0  0  0  0  0  0  0  0
   -4.4028   21.2746  -29.6375 H   0  0  0  0  0  0  0  0  0  0  0  0
   -5.1432   23.3320  -30.8325 H   0  0  0  0  0  0  0  0  0  0  0  0
   -0.9559   23.4136  -28.1097 H   0  0  0  0  0  0  0  0  0  0  0  0
   -4.1616   20.5227  -27.1897 H   0  0  0  0  0  0  0  0  0  0  0  0
  1  2  2  0
  2  3  1  0
  3  4  2  0
  4  5  1  0
  4  6  1  0
  6  7  1  0
  7  8  1  0
  8  9  2  0
  9 10  1  0
 10 11  2  0
 11 12  1  0
 11 13  1  0
 13 14  1  0
 13 15  2  0
  7 16  2  0
 16  2  1  0
 15  8  1  0
  3 17  1  0
  5 18  1  0
  9 19  1  0
 10 20  1  0
 15 21  1  0
 16 22  1  0
M  CHG  2  12  -1  14  -1
M  END
>  <UniqueID>  (48) 
45

>  <SMILES>  (48) 
O=c1cc(O)oc(-c2ccc([O-])c([O-])c2)c1

>  <Energy>  (48) 
27.85317588675862

>  <Genealogy>  (48) 
O=c1cc(O)oc(-c2ccc([O-])c([O-])c2)c1 (protonated)
O=c1cc(O)oc(-c2ccc([O-])c([O-])c2)c1 (3D coordinates assigned)
O=c1cc(O)oc(-c2ccc([O-])c([O-])c2)c1 (optimized conformer: 27.85317588675862 kcal/mol)

>  <smiles>  (48) 
O=c1cc(O)oc(-c2ccc(O)c(O)c2)c1

>  <score_type>  (48) 
oracle

>  <origin>  (48) 
adgpu

>  <m_score__min__energy>  (48) 
-11.93

>  <m_primary>  (48) 
energy

$$$$
