0:0
     RDKit          3D

 56 60  0  0  0  0  0  0  0  0999 V2000
   -3.5230   24.1090  -31.1990 O   0  0  0  0  0  0  0  0  0  0  0  0
   -4.0590   23.0440  -31.6000 C   0  0  0  0  0  0  0  0  0  0  0  0
   -3.3380   22.2210  -32.5270 N   0  0  0  0  0  0  0  0  0  0  0  0
   -2.5410   21.0740  -32.1890 C   0  0  0  0  0  0  0  0  0  0  0  0
   -1.8220   21.0040  -30.9860 C   0  0  0  0  0  0  0  0  0  0  0  0
   -1.0060   19.8980  -30.7340 C   0  0  0  0  0  0  0  0  0  0  0  0
   -0.2540   19.7950  -29.5540 C   0  0  0  0  0  0  0  0  0  0  0  0
    0.5770   18.6880  -29.3510 C   0  0  0  0  0  0  0  0  0  0  0  0
    1.5140   18.5550  -27.8740 Cl  0  0  0  0  0  0  0  0  0  0  0  0
    0.6510   17.6800  -30.3190 C   0  0  0  0  0  0  0  0  0  0  0  0
   -0.1030   17.7730  -31.4930 C   0  0  0  0  0  0  0  0  0  0  0  0
   -0.9280   18.8830  -31.7090 C   0  0  0  0  0  0  0  0  0  0  0  0
   -1.6250   18.9820  -32.8380 O   0  0  0  0  0  0  0  0  0  0  0  0
   -2.4070   20.0230  -33.1090 C   0  0  0  0  0  0  0  0  0  0  0  0
   -3.0290   20.0580  -34.2040 O   0  0  0  0  0  0  0  0  0  0  0  0
   -5.4450   22.7110  -31.1890 C   0  0  0  0  0  0  0  0  0  0  0  0
   -6.1010   21.6560  -31.8450 C   0  0  0  0  0  0  0  0  0  0  0  0
   -7.3830   21.2580  -31.4610 C   0  0  0  0  0  0  0  0  0  0  0  0
   -8.1610   19.9250  -32.3040 S   0  0  0  0  0  0  0  0  0  0  0  0
   -8.2780   18.7120  -31.4190 O   0  0  0  0  0  0  0  0  0  0  0  0
   -9.5440   20.3520  -32.7160 O   0  0  0  0  0  0  0  0  0  0  0  0
   -7.2450   19.5200  -33.7240 N   0  0  0  0  0  0  0  0  0  0  0  0
   -6.1760   18.5580  -33.7500 C   0  0  0  0  0  0  0  0  0  0  0  0
   -5.7160   17.9210  -32.5810 C   0  0  0  0  0  0  0  0  0  0  0  0
   -4.6930   16.9700  -32.6520 C   0  0  0  0  0  0  0  0  0  0  0  0
   -4.1200   16.6460  -33.8830 C   0  0  0  0  0  0  0  0  0  0  0  0
   -4.5510   17.2880  -35.0460 C   0  0  0  0  0  0  0  0  0  0  0  0
   -5.5700   18.2420  -34.9800 C   0  0  0  0  0  0  0  0  0  0  0  0
   -8.0230   21.9120  -30.4050 C   0  0  0  0  0  0  0  0  0  0  0  0
   -7.3830   22.9590  -29.7400 C   0  0  0  0  0  0  0  0  0  0  0  0
   -6.1080   23.3850  -30.1360 C   0  0  0  0  0  0  0  0  0  0  0  0
   -5.3220   24.7130  -29.2030 S   0  0  0  0  0  0  0  0  0  0  0  0
   -4.0140   23.6670  -28.5490 C   0  0  0  0  0  0  0  0  0  0  0  0
   -4.2440   22.3080  -28.2940 C   0  0  0  0  0  0  0  0  0  0  0  0
   -3.2230   21.5090  -27.7690 C   0  0  0  0  0  0  0  0  0  0  0  0
   -1.9710   22.0660  -27.4880 C   0  0  0  0  0  0  0  0  0  0  0  0
   -1.7410   23.4250  -27.7280 C   0  0  0  0  0  0  0  0  0  0  0  0
   -2.7610   24.2250  -28.2540 C   0  0  0  0  0  0  0  0  0  0  0  0
   -1.9002   21.8144  -30.2463 H   0  0  0  0  0  0  0  0  0  0  0  0
   -0.3177   20.5835  -28.7896 H   0  0  0  0  0  0  0  0  0  0  0  0
    1.3051   16.8108  -30.1556 H   0  0  0  0  0  0  0  0  0  0  0  0
   -0.0478   16.9738  -32.2468 H   0  0  0  0  0  0  0  0  0  0  0  0
   -5.5973   21.1360  -32.6732 H   0  0  0  0  0  0  0  0  0  0  0  0
   -7.5370   19.9740  -34.6170 H   0  0  0  0  0  0  0  0  0  0  0  0
   -6.1633   18.1726  -31.6080 H   0  0  0  0  0  0  0  0  0  0  0  0
   -4.3389   16.4759  -31.7352 H   0  0  0  0  0  0  0  0  0  0  0  0
   -3.3282   15.8843  -33.9371 H   0  0  0  0  0  0  0  0  0  0  0  0
   -4.0886   17.0428  -36.0135 H   0  0  0  0  0  0  0  0  0  0  0  0
   -5.9013   18.7503  -35.8975 H   0  0  0  0  0  0  0  0  0  0  0  0
   -9.0324   21.6013  -30.0974 H   0  0  0  0  0  0  0  0  0  0  0  0
   -7.8847   23.4551  -28.8961 H   0  0  0  0  0  0  0  0  0  0  0  0
   -5.2297   21.8688  -28.5073 H   0  0  0  0  0  0  0  0  0  0  0  0
   -3.4048   20.4413  -27.5769 H   0  0  0  0  0  0  0  0  0  0  0  0
   -1.1677   21.4358  -27.0786 H   0  0  0  0  0  0  0  0  0  0  0  0
   -0.7580   23.8645  -27.5031 H   0  0  0  0  0  0  0  0  0  0  0  0
   -2.5801   25.2945  -28.4368 H   0  0  0  0  0  0  0  0  0  0  0  0
  1  2  2  0
  2  3  1  0
  3  4  1  0
  4  5  2  0
  5  6  1  0
  6  7  2  0
  7  8  1  0
  8  9  1  0
  8 10  2  0
 10 11  1  0
 11 12  2  0
 12 13  1  0
 13 14  1  0
 14 15  2  0
  2 16  1  0
 16 17  2  0
 17 18  1  0
 18 19  1  0
 19 20  2  0
 19 21  2  0
 19 22  1  0
 22 23  1  0
 23 24  2  0
 24 25  1  0
 25 26  2  0
 26 27  1  0
 27 28  2  0
 18 29  2  0
 29 30  1  0
 30 31  2  0
 31 32  1  0
 32 33  1  0
 33 34  2  0
 34 35  1  0
 35 36  2  0
 36 37  1  0
 37 38  2  0
 14  4  1  0
 31 16  1  0
 38 33  1  0
 12  6  1  0
 28 23  1  0
  5 39  1  0
  7 40  1  0
 10 41  1  0
 11 42  1  0
 17 43  1  0
 22 44  1  0
 24 45  1  0
 25 46  1  0
 26 47  1  0
 27 48  1  0
 28 49  1  0
 29 50  1  0
 30 51  1  0
 34 52  1  0
 35 53  1  0
 36 54  1  0
 37 55  1  0
 38 56  1  0
M  CHG  1   3  -1
M  END
>  <UniqueID>  (1) 
1

>  <SMILES>  (1) 
O=C([N-]c1cc2cc(Cl)ccc2oc1=O)c1cc(S(=O)(=O)Nc2ccccc2)ccc1Sc1ccccc1

>  <Energy>  (1) 
69.86172015548532

>  <Genealogy>  (1) 
O=C([N-]c1cc2cc(Cl)ccc2oc1=O)c1cc(S(=O)(=O)Nc2ccccc2)ccc1Sc1ccccc1 (protonated)
O=C([N-]c1cc2cc(Cl)ccc2oc1=O)c1cc(S(=O)(=O)Nc2ccccc2)ccc1Sc1ccccc1 (3D coordinates assigned)
O=C([N-]c1cc2cc(Cl)ccc2oc1=O)c1cc(S(=O)(=O)Nc2ccccc2)ccc1Sc1ccccc1 (optimized conformer: 69.86172015548532 kcal/mol)

>  <smiles>  (1) 
O=C(Nc1cc2cc(Cl)ccc2oc1=O)c1cc(S(=O)(=O)Nc2ccccc2)ccc1Sc1ccccc1

>  <score_type>  (1) 
oracle

>  <origin>  (1) 
adgpu

>  <m_score__min__energy>  (1) 
-13.050000000000001

>  <m_primary>  (1) 
energy

$$$$
1:0
     RDKit          3D

 40 43  0  0  0  0  0  0  0  0999 V2000
   -5.6691   26.2891  -29.8494 H   0  0  0  0  0  0  0  0  0  0  0  0
   -5.3560   25.3480  -30.3250 C   0  0  0  0  0  0  0  0  0  0  0  0
   -4.0560   24.9560  -30.2640 N   0  0  0  0  0  0  0  0  0  0  0  0
   -3.6290   23.8010  -30.8420 C   0  0  0  0  0  0  0  0  0  0  0  0
   -2.5689   23.5150  -30.7755 H   0  0  0  0  0  0  0  0  0  0  0  0
   -4.5360   22.9710  -31.5240 C   0  0  0  0  0  0  0  0  0  0  0  0
   -4.0860   21.7060  -32.1570 C   0  0  0  0  0  0  0  0  0  0  0  0
   -2.8670   21.6560  -32.8470 C   0  0  0  0  0  0  0  0  0  0  0  0
   -2.2220   22.5453  -32.9036 H   0  0  0  0  0  0  0  0  0  0  0  0
   -2.4810   20.4600  -33.4630 C   0  0  0  0  0  0  0  0  0  0  0  0
   -1.2090   20.3450  -34.2240 C   0  0  0  0  0  0  0  0  0  0  0  0
   -0.4570   21.4840  -34.5760 C   0  0  0  0  0  0  0  0  0  0  0  0
   -0.8078   22.4834  -34.2792 H   0  0  0  0  0  0  0  0  0  0  0  0
    0.7320   21.3520  -35.3000 C   0  0  0  0  0  0  0  0  0  0  0  0
    1.3142   22.2463  -35.5669 H   0  0  0  0  0  0  0  0  0  0  0  0
    1.1820   20.0870  -35.6850 C   0  0  0  0  0  0  0  0  0  0  0  0
    2.3350   19.9630  -36.3880 F   0  0  0  0  0  0  0  0  0  0  0  0
    0.4410   18.9510  -35.3530 C   0  0  0  0  0  0  0  0  0  0  0  0
    0.7943   17.9554  -35.6596 H   0  0  0  0  0  0  0  0  0  0  0  0
   -0.7500   19.0780  -34.6310 C   0  0  0  0  0  0  0  0  0  0  0  0
   -1.3332   18.1800  -34.3790 H   0  0  0  0  0  0  0  0  0  0  0  0
   -3.2850   19.3720  -33.3440 N   0  0  0  0  0  0  0  0  0  0  0  0
   -4.4560   19.4080  -32.6580 C   0  0  0  0  0  0  0  0  0  0  0  0
   -5.1690   18.3170  -32.5990 N   0  0  0  0  0  0  0  0  0  0  0  0
   -6.3740   18.0670  -31.8580 C   0  0  0  0  0  0  0  0  0  0  0  0
   -6.5110   17.0170  -31.1750 O   0  0  0  0  0  0  0  0  0  0  0  0
   -7.5020   18.9970  -31.9760 C   0  0  0  0  0  0  0  0  0  0  0  0
   -7.4210   20.2850  -31.7300 O   0  0  0  0  0  0  0  0  0  0  0  0
   -8.6000   20.8250  -31.9300 C   0  0  0  0  0  0  0  0  0  0  0  0
   -8.8380   21.8913  -31.8024 H   0  0  0  0  0  0  0  0  0  0  0  0
   -9.4970   19.8520  -32.3250 C   0  0  0  0  0  0  0  0  0  0  0  0
  -10.5608   19.9926  -32.5668 H   0  0  0  0  0  0  0  0  0  0  0  0
   -8.7900   18.6690  -32.3550 C   0  0  0  0  0  0  0  0  0  0  0  0
   -9.1710   17.6728  -32.6241 H   0  0  0  0  0  0  0  0  0  0  0  0
   -4.8620   20.5840  -32.0840 N   0  0  0  0  0  0  0  0  0  0  0  0
   -5.7760   20.6510  -31.5920 H   0  0  0  0  0  0  0  0  0  0  0  0
   -5.8820   23.3670  -31.5900 C   0  0  0  0  0  0  0  0  0  0  0  0
   -6.6141   22.7366  -32.1160 H   0  0  0  0  0  0  0  0  0  0  0  0
   -6.2930   24.5580  -30.9900 C   0  0  0  0  0  0  0  0  0  0  0  0
   -7.3464   24.8707  -31.0412 H   0  0  0  0  0  0  0  0  0  0  0  0
  1  2  1  0
  2  3  2  0
  3  4  1  0
  4  5  1  0
  4  6  2  0
  6  7  1  0
  7  8  2  0
  8  9  1  0
  8 10  1  0
 10 11  1  0
 11 12  2  0
 12 13  1  0
 12 14  1  0
 14 15  1  0
 14 16  2  0
 16 17  1  0
 16 18  1  0
 18 19  1  0
 18 20  2  0
 20 21  1  0
 10 22  2  0
 22 23  1  0
 23 24  2  0
 24 25  1  0
 25 26  2  0
 25 27  1  0
 27 28  1  0
 28 29  1  0
 29 30  1  0
 29 31  2  0
 31 32  1  0
 31 33  1  0
 33 34  1  0
 23 35  1  0
 35 36  1  0
  6 37  1  0
 37 38  1  0
 37 39  2  0
 39 40  1  0
 39  2  1  0
 35  7  1  0
 20 11  1  0
 33 27  2  0
M  END
>  <UniqueID>  (2) 
2

>  <SMILES>  (2) 
O=C(/N=c1/nc(-c2ccc(F)cc2)cc(-c2cccnc2)[nH]1)c1ccco1

>  <Energy>  (2) 
87.25846101315483

>  <Genealogy>  (2) 
O=C(/N=c1/nc(-c2ccc(F)cc2)cc(-c2cccnc2)[nH]1)c1ccco1 (cis-trans isomerization)
O=C(/N=c1/nc(-c2ccc(F)cc2)cc(-c2cccnc2)[nH]1)c1ccco1 (3D coordinates assigned)
O=C(/N=c1/nc(-c2ccc(F)cc2)cc(-c2cccnc2)[nH]1)c1ccco1 (optimized conformer: 87.25846101315483 kcal/mol)

>  <smiles>  (2) 
O=C(N=c1nc(-c2ccc(F)cc2)cc(-c2cccnc2)[nH]1)c1ccco1

>  <score_type>  (2) 
oracle

>  <origin>  (2) 
adgpu

>  <m_score__min__energy>  (2) 
-8.4700000000000006

>  <m_primary>  (2) 
energy

$$$$
2:0
     RDKit          3D

 45 48  0  0  0  0  0  0  0  0999 V2000
   -0.3568   24.0166  -26.3014 H   0  0  0  0  0  0  0  0  0  0  0  0
   -1.0480   24.2010  -27.1370 C   0  0  0  0  0  0  0  0  0  0  0  0
   -0.5670   24.5140  -28.3660 N   0  0  0  0  0  0  0  0  0  0  0  0
   -1.3830   24.7440  -29.3970 N   0  0  0  0  0  0  0  0  0  0  0  0
   -2.7360   24.6760  -29.2710 C   0  0  0  0  0  0  0  0  0  0  0  0
   -3.4710   24.9180  -30.3180 N   0  0  0  0  0  0  0  0  0  0  0  0
   -5.2070   24.9030  -30.3870 S   0  0  0  0  0  0  0  0  0  0  0  0
   -5.6780   26.0650  -31.2170 O   0  0  0  0  0  0  0  0  0  0  0  0
   -5.7530   25.0470  -28.9950 O   0  0  0  0  0  0  0  0  0  0  0  0
   -5.7780   23.3810  -31.0650 C   0  0  0  0  0  0  0  0  0  0  0  0
   -4.9040   22.5520  -31.7810 C   0  0  0  0  0  0  0  0  0  0  0  0
   -3.8597   22.8613  -31.9351 H   0  0  0  0  0  0  0  0  0  0  0  0
   -5.3520   21.3350  -32.3000 C   0  0  0  0  0  0  0  0  0  0  0  0
   -4.6604   20.6926  -32.8648 H   0  0  0  0  0  0  0  0  0  0  0  0
   -6.6860   20.9270  -32.1030 C   0  0  0  0  0  0  0  0  0  0  0  0
   -7.5690   21.7860  -31.4240 C   0  0  0  0  0  0  0  0  0  0  0  0
   -7.1120   22.9960  -30.8920 C   0  0  0  0  0  0  0  0  0  0  0  0
   -7.8031   23.6467  -30.3361 H   0  0  0  0  0  0  0  0  0  0  0  0
   -8.9110   21.4260  -31.2810 O   0  0  0  0  0  0  0  0  0  0  0  0
   -9.4840   20.3850  -32.0690 C   0  0  0  0  0  0  0  0  0  0  0  0
   -9.6933   20.7678  -33.0788 H   0  0  0  0  0  0  0  0  0  0  0  0
  -10.4164   20.0480  -31.5926 H   0  0  0  0  0  0  0  0  0  0  0  0
   -8.5200   19.2010  -32.1680 C   0  0  0  0  0  0  0  0  0  0  0  0
   -8.9024   18.4853  -32.9106 H   0  0  0  0  0  0  0  0  0  0  0  0
   -8.4449   18.7229  -31.1802 H   0  0  0  0  0  0  0  0  0  0  0  0
   -7.1830   19.6520  -32.5770 N   0  0  0  0  0  0  0  0  0  0  0  0
   -6.3170   18.6930  -33.2020 C   0  0  0  0  0  0  0  0  0  0  0  0
   -6.0100   18.8100  -34.5630 C   0  0  0  0  0  0  0  0  0  0  0  0
   -6.4225   19.6452  -35.1481 H   0  0  0  0  0  0  0  0  0  0  0  0
   -5.1810   17.8690  -35.1810 C   0  0  0  0  0  0  0  0  0  0  0  0
   -4.9400   17.9690  -36.2496 H   0  0  0  0  0  0  0  0  0  0  0  0
   -4.6530   16.7930  -34.4400 C   0  0  0  0  0  0  0  0  0  0  0  0
   -3.8150   15.8240  -35.0130 O   0  0  0  0  0  0  0  0  0  0  0  0
   -2.4030   15.9560  -35.1400 C   0  0  0  0  0  0  0  0  0  0  0  0
   -1.9473   15.9986  -34.1397 H   0  0  0  0  0  0  0  0  0  0  0  0
   -2.0018   15.0914  -35.6892 H   0  0  0  0  0  0  0  0  0  0  0  0
   -2.1690   16.8799  -35.6892 H   0  0  0  0  0  0  0  0  0  0  0  0
   -4.9720   16.6780  -33.0820 C   0  0  0  0  0  0  0  0  0  0  0  0
   -4.5655   15.8409  -32.4955 H   0  0  0  0  0  0  0  0  0  0  0  0
   -5.8020   17.6170  -32.4650 C   0  0  0  0  0  0  0  0  0  0  0  0
   -6.0521   17.5121  -31.3989 H   0  0  0  0  0  0  0  0  0  0  0  0
   -3.2800   24.3530  -28.0140 C   0  0  0  0  0  0  0  0  0  0  0  0
   -4.3699   24.2892  -27.8798 H   0  0  0  0  0  0  0  0  0  0  0  0
   -2.4240   24.1150  -26.9420 C   0  0  0  0  0  0  0  0  0  0  0  0
   -2.8304   23.8618  -25.9517 H   0  0  0  0  0  0  0  0  0  0  0  0
  1  2  1  0
  2  3  2  0
  3  4  1  0
  4  5  1  0
  5  6  2  0
  6  7  1  0
  7  8  2  0
  7  9  2  0
  7 10  1  0
 10 11  2  0
 11 12  1  0
 11 13  1  0
 13 14  1  0
 13 15  2  0
 15 16  1  0
 16 17  2  0
 17 18  1  0
 16 19  1  0
 19 20  1  0
 20 21  1  0
 20 22  1  0
 20 23  1  0
 23 24  1  0
 23 25  1  0
 23 26  1  0
 26 27  1  0
 27 28  2  0
 28 29  1  0
 28 30  1  0
 30 31  1  0
 30 32  2  0
 32 33  1  0
 33 34  1  0
 34 35  1  0
 34 36  1  0
 34 37  1  0
 32 38  1  0
 38 39  1  0
 38 40  2  0
 40 41  1  0
  5 42  1  0
 42 43  1  0
 42 44  2  0
 44 45  1  0
 44  2  1  0
 17 10  1  0
 40 27  1  0
 26 15  1  0
M  CHG  1   4  -1
M  END
>  <UniqueID>  (3) 
3

>  <SMILES>  (3) 
COc1ccc(N2CCOc3cc(S(=O)(=O)/N=c4\cccn[n-]4)ccc32)cc1

>  <Energy>  (3) 
63.595486122321326

>  <Genealogy>  (3) 
COc1ccc(N2CCOc3cc(S(=O)(=O)N=c4cccn[n-]4)ccc32)cc1 (protonated)
COc1ccc(N2CCOc3cc(S(=O)(=O)/N=c4\cccn[n-]4)ccc32)cc1 (cis-trans isomerization)
COc1ccc(N2CCOc3cc(S(=O)(=O)/N=c4\cccn[n-]4)ccc32)cc1 (3D coordinates assigned)
COc1ccc(N2CCOc3cc(S(=O)(=O)/N=c4\cccn[n-]4)ccc32)cc1 (nonaromatic ring conformer: 63.595486122321326 kcal/mol)

>  <smiles>  (3) 
COc1ccc(N2CCOc3cc(S(=O)(=O)N=c4cccn[nH]4)ccc32)cc1

>  <score_type>  (3) 
oracle

>  <origin>  (3) 
adgpu

>  <m_score__min__energy>  (3) 
-11.17

>  <m_primary>  (3) 
energy

$$$$
3:0
     RDKit          3D

 47 49  0  0  0  0  0  0  0  0999 V2000
   -8.7930   19.8060  -32.3270 C   0  0  0  0  0  0  0  0  0  0  0  0
   -8.9640   21.2140  -32.3040 O   0  0  0  0  0  0  0  0  0  0  0  0
   -8.0710   22.1080  -31.7030 C   0  0  0  0  0  0  0  0  0  0  0  0
   -7.8750   22.1610  -30.3130 C   0  0  0  0  0  0  0  0  0  0  0  0
   -6.9740   23.0750  -29.7610 C   0  0  0  0  0  0  0  0  0  0  0  0
   -6.2610   23.9480  -30.5870 C   0  0  0  0  0  0  0  0  0  0  0  0
   -5.0830   25.0560  -29.9020 S   0  0  0  0  0  0  0  0  0  0  0  0
   -5.0100   24.9010  -28.4120 O   0  0  0  0  0  0  0  0  0  0  0  0
   -5.4860   26.4640  -30.2220 O   0  0  0  0  0  0  0  0  0  0  0  0
   -3.5380   24.6980  -30.5950 N   0  0  0  0  0  0  0  0  0  0  0  0
   -2.9550   23.3960  -30.6180 C   0  0  0  0  0  0  0  0  0  0  0  0
   -3.5520   22.3730  -31.3720 C   0  0  0  0  0  0  0  0  0  0  0  0
   -3.0040   21.0900  -31.3840 C   0  0  0  0  0  0  0  0  0  0  0  0
   -1.8520   20.8160  -30.6480 C   0  0  0  0  0  0  0  0  0  0  0  0
   -1.2460   21.8250  -29.8970 C   0  0  0  0  0  0  0  0  0  0  0  0
   -1.7800   23.1280  -29.8790 C   0  0  0  0  0  0  0  0  0  0  0  0
   -1.1520   24.1570  -29.0100 C   0  0  0  0  0  0  0  0  0  0  0  0
    0.1060   24.2970  -29.0150 O   0  0  0  0  0  0  0  0  0  0  0  0
   -1.9510   25.0100  -28.1800 N   0  0  0  0  0  0  0  0  0  0  0  0
   -1.5340   25.4880  -26.8890 C   0  0  0  0  0  0  0  0  0  0  0  0
   -1.3190   24.5670  -25.8490 C   0  0  0  0  0  0  0  0  0  0  0  0
   -0.9100   25.0050  -24.5840 C   0  0  0  0  0  0  0  0  0  0  0  0
   -0.6750   26.3680  -24.3510 C   0  0  0  0  0  0  0  0  0  0  0  0
   -0.2930   26.8350  -22.9790 C   0  0  0  0  0  0  0  0  0  0  0  0
   -0.8680   27.2850  -25.3910 C   0  0  0  0  0  0  0  0  0  0  0  0
   -1.2890   26.8520  -26.6530 C   0  0  0  0  0  0  0  0  0  0  0  0
   -6.4410   23.8850  -31.9730 C   0  0  0  0  0  0  0  0  0  0  0  0
   -7.3450   22.9720  -32.5240 C   0  0  0  0  0  0  0  0  0  0  0  0
   -8.7468   19.4254  -31.2960 H   0  0  0  0  0  0  0  0  0  0  0  0
   -9.6414   19.3421  -32.8514 H   0  0  0  0  0  0  0  0  0  0  0  0
   -7.8582   19.5587  -32.8514 H   0  0  0  0  0  0  0  0  0  0  0  0
   -8.4341   21.4790  -29.6555 H   0  0  0  0  0  0  0  0  0  0  0  0
   -6.8252   23.1076  -28.6716 H   0  0  0  0  0  0  0  0  0  0  0  0
   -4.4587   22.5847  -31.9577 H   0  0  0  0  0  0  0  0  0  0  0  0
   -3.4812   20.2941  -31.9746 H   0  0  0  0  0  0  0  0  0  0  0  0
   -1.4203   19.8043  -30.6590 H   0  0  0  0  0  0  0  0  0  0  0  0
   -0.3415   21.5997  -29.3129 H   0  0  0  0  0  0  0  0  0  0  0  0
   -2.8680   25.3360  -28.5570 H   0  0  0  0  0  0  0  0  0  0  0  0
   -1.4735   23.4932  -26.0308 H   0  0  0  0  0  0  0  0  0  0  0  0
   -0.7725   24.2780  -23.7701 H   0  0  0  0  0  0  0  0  0  0  0  0
   -0.8006   26.2144  -22.2259 H   0  0  0  0  0  0  0  0  0  0  0  0
    0.7962   26.7480  -22.8521 H   0  0  0  0  0  0  0  0  0  0  0  0
   -0.5942   27.8853  -22.8521 H   0  0  0  0  0  0  0  0  0  0  0  0
   -0.6870   28.3555  -25.2144 H   0  0  0  0  0  0  0  0  0  0  0  0
   -1.4289   27.5819  -27.4640 H   0  0  0  0  0  0  0  0  0  0  0  0
   -5.8695   24.5559  -32.6312 H   0  0  0  0  0  0  0  0  0  0  0  0
   -7.4853   22.9343  -33.6144 H   0  0  0  0  0  0  0  0  0  0  0  0
  1  2  1  0
  2  3  1  0
  3  4  2  0
  4  5  1  0
  5  6  2  0
  6  7  1  0
  7  8  2  0
  7  9  2  0
  7 10  1  0
 10 11  1  0
 11 12  2  0
 12 13  1  0
 13 14  2  0
 14 15  1  0
 15 16  2  0
 16 17  1  0
 17 18  2  0
 17 19  1  0
 19 20  1  0
 20 21  2  0
 21 22  1  0
 22 23  2  0
 23 24  1  0
 23 25  1  0
 25 26  2  0
  6 27  1  0
 27 28  2  0
 28  3  1  0
 16 11  1  0
 26 20  1  0
  1 29  1  0
  1 30  1  0
  1 31  1  0
  4 32  1  0
  5 33  1  0
 12 34  1  0
 13 35  1  0
 14 36  1  0
 15 37  1  0
 19 38  1  0
 21 39  1  0
 22 40  1  0
 24 41  1  0
 24 42  1  0
 24 43  1  0
 25 44  1  0
 26 45  1  0
 27 46  1  0
 28 47  1  0
M  CHG  1  10  -1
M  END
>  <UniqueID>  (4) 
4

>  <SMILES>  (4) 
COc1ccc(S(=O)(=O)[N-]c2ccccc2C(=O)Nc2ccc(C)cc2)cc1

>  <Energy>  (4) 
58.827400762922196

>  <Genealogy>  (4) 
COc1ccc(S(=O)(=O)[N-]c2ccccc2C(=O)Nc2ccc(C)cc2)cc1 (protonated)
COc1ccc(S(=O)(=O)[N-]c2ccccc2C(=O)Nc2ccc(C)cc2)cc1 (3D coordinates assigned)
COc1ccc(S(=O)(=O)[N-]c2ccccc2C(=O)Nc2ccc(C)cc2)cc1 (optimized conformer: 58.827400762922196 kcal/mol)

>  <smiles>  (4) 
COc1ccc(S(=O)(=O)Nc2ccccc2C(=O)Nc2ccc(C)cc2)cc1

>  <score_type>  (4) 
oracle

>  <origin>  (4) 
adgpu

>  <m_score__min__energy>  (4) 
-10.26

>  <m_primary>  (4) 
energy

$$$$
4:0
     RDKit          3D

 18 18  0  0  0  0  0  0  0  0999 V2000
   -7.3630   20.8240  -31.9870 C   0  0  0  0  0  0  0  0  0  0  0  0
   -6.7710   22.0710  -32.4600 N   0  0  0  0  0  0  0  0  0  0  0  0
   -6.4810   23.1910  -31.6030 C   0  0  0  0  0  0  0  0  0  0  0  0
   -7.4710   23.7770  -30.7880 C   0  0  0  0  0  0  0  0  0  0  0  0
   -7.1560   24.8630  -29.9650 C   0  0  0  0  0  0  0  0  0  0  0  0
   -5.8570   25.3760  -29.9470 C   0  0  0  0  0  0  0  0  0  0  0  0
   -4.8650   24.8040  -30.7520 C   0  0  0  0  0  0  0  0  0  0  0  0
   -3.5650   25.3050  -30.7420 O   0  0  0  0  0  0  0  0  0  0  0  0
   -5.1770   23.7160  -31.5750 C   0  0  0  0  0  0  0  0  0  0  0  0
   -7.3676   20.8143  -30.8871 H   0  0  0  0  0  0  0  0  0  0  0  0
   -8.3952   20.7440  -32.3587 H   0  0  0  0  0  0  0  0  0  0  0  0
   -6.7725   19.9736  -32.3587 H   0  0  0  0  0  0  0  0  0  0  0  0
   -6.5500   22.1460  -33.4790 H   0  0  0  0  0  0  0  0  0  0  0  0
   -8.4961   23.3781  -30.7995 H   0  0  0  0  0  0  0  0  0  0  0  0
   -7.9330   25.3142  -29.3304 H   0  0  0  0  0  0  0  0  0  0  0  0
   -5.6132   26.2309  -29.2992 H   0  0  0  0  0  0  0  0  0  0  0  0
   -3.1130   25.6200  -31.5920 H   0  0  0  0  0  0  0  0  0  0  0  0
   -4.3951   23.2676  -32.2056 H   0  0  0  0  0  0  0  0  0  0  0  0
  1  2  1  0
  2  3  1  0
  3  4  2  0
  4  5  1  0
  5  6  2  0
  6  7  1  0
  7  8  1  0
  7  9  2  0
  9  3  1  0
  1 10  1  0
  1 11  1  0
  1 12  1  0
  2 13  1  0
  4 14  1  0
  5 15  1  0
  6 16  1  0
  8 17  1  0
  9 18  1  0
M  END
>  <UniqueID>  (5) 
5

>  <SMILES>  (5) 
CNc1cccc(O)c1

>  <Energy>  (5) 
14.502528518673769

>  <Genealogy>  (5) 
CNc1cccc(O)c1 (3D coordinates assigned)
CNc1cccc(O)c1 (optimized conformer: 14.502528518673769 kcal/mol)

>  <smiles>  (5) 
CNc1cccc(O)c1

>  <score_type>  (5) 
oracle

>  <origin>  (5) 
adgpu

>  <m_score__min__energy>  (5) 
-5.3099999999999996

>  <m_primary>  (5) 
energy

$$$$
5:0
     RDKit          3D

 48 51  0  0  0  0  0  0  0  0999 V2000
   -2.9980   25.6690  -30.2140 H   0  0  0  0  0  0  0  0  0  0  0  0
   -3.5650   25.1230  -30.8200 O   0  0  0  0  0  0  0  0  0  0  0  0
   -4.9130   25.3660  -30.4940 C   0  0  2  0  0  0  0  0  0  0  0  0
   -5.0254   26.4504  -30.6404 H   0  0  0  0  0  0  0  0  0  0  0  0
   -5.2570   24.9080  -29.0890 C   0  0  0  0  0  0  0  0  0  0  0  0
   -4.3359   24.7010  -28.5245 H   0  0  0  0  0  0  0  0  0  0  0  0
   -5.8183   25.6869  -28.5521 H   0  0  0  0  0  0  0  0  0  0  0  0
   -6.0220   23.7360  -29.2070 O   0  0  0  0  0  0  0  0  0  0  0  0
   -6.7330   23.8750  -30.3660 N   0  0  0  0  0  0  0  0  0  0  0  0
   -7.1290   22.5380  -30.8320 C   0  0  0  0  0  0  0  0  0  0  0  0
   -7.8295   22.6383  -31.6742 H   0  0  0  0  0  0  0  0  0  0  0  0
   -7.6139   21.9965  -30.0064 H   0  0  0  0  0  0  0  0  0  0  0  0
   -5.9200   21.7730  -31.2800 C   0  0  0  0  0  0  0  0  0  0  0  0
   -5.7580   21.0270  -32.4340 C   0  0  0  0  0  0  0  0  0  0  0  0
   -6.7930   20.7560  -33.4760 C   0  0  0  0  0  0  0  0  0  0  0  0
   -7.7471   20.5062  -32.9889 H   0  0  0  0  0  0  0  0  0  0  0  0
   -6.9246   21.6500  -34.1033 H   0  0  0  0  0  0  0  0  0  0  0  0
   -6.4696   19.9123  -34.1033 H   0  0  0  0  0  0  0  0  0  0  0  0
   -4.4940   20.5670  -32.4970 N   0  0  0  0  0  0  0  0  0  0  0  0
   -3.8490   21.0060  -31.4230 N   0  0  0  0  0  0  0  0  0  0  0  0
   -2.4650   20.7080  -31.1730 C   0  0  0  0  0  0  0  0  0  0  0  0
   -1.7930   21.4280  -30.2350 N   0  0  0  0  0  0  0  0  0  0  0  0
   -0.4780   21.2020  -29.9640 C   0  0  0  0  0  0  0  0  0  0  0  0
    0.1470   21.8960  -29.0610 N   0  0  0  0  0  0  0  0  0  0  0  0
   -0.4380   22.9720  -28.3120 C   0  0  0  0  0  0  0  0  0  0  0  0
   -0.7000   24.1800  -28.9710 C   0  0  0  0  0  0  0  0  0  0  0  0
   -0.4682   24.2786  -30.0418 H   0  0  0  0  0  0  0  0  0  0  0  0
   -1.2530   25.2600  -28.2800 C   0  0  0  0  0  0  0  0  0  0  0  0
   -1.4940   26.4590  -28.9410 O   0  0  0  0  0  0  0  0  0  0  0  0
   -1.5620   25.1370  -26.9240 C   0  0  0  0  0  0  0  0  0  0  0  0
   -1.9861   25.9921  -26.3773 H   0  0  0  0  0  0  0  0  0  0  0  0
   -1.3330   23.9290  -26.2610 C   0  0  0  0  0  0  0  0  0  0  0  0
   -1.5758   23.8393  -25.1919 H   0  0  0  0  0  0  0  0  0  0  0  0
   -0.7950   22.8270  -26.9480 C   0  0  0  0  0  0  0  0  0  0  0  0
   -0.5960   21.5330  -26.2060 C   0  0  0  0  0  0  0  0  0  0  0  0
   -0.6252   21.7231  -25.1230 H   0  0  0  0  0  0  0  0  0  0  0  0
   -1.3964   20.8285  -26.4763 H   0  0  0  0  0  0  0  0  0  0  0  0
    0.3791   21.1015  -26.4763 H   0  0  0  0  0  0  0  0  0  0  0  0
    0.1870   20.2260  -30.6330 N   0  0  0  0  0  0  0  0  0  0  0  0
   -0.4370   19.4760  -31.5780 C   0  0  0  0  0  0  0  0  0  0  0  0
    0.1186   18.6901  -32.1105 H   0  0  0  0  0  0  0  0  0  0  0  0
   -1.7810   19.7010  -31.8740 C   0  0  0  0  0  0  0  0  0  0  0  0
   -2.2949   19.1024  -32.6405 H   0  0  0  0  0  0  0  0  0  0  0  0
   -4.6860   21.7500  -30.6660 C   0  0  0  0  0  0  0  0  0  0  0  0
   -4.4268   22.2512  -29.7218 H   0  0  0  0  0  0  0  0  0  0  0  0
   -5.8560   24.5390  -31.3340 C   0  0  0  0  0  0  0  0  0  0  0  0
   -5.2993   23.7972  -31.9254 H   0  0  0  0  0  0  0  0  0  0  0  0
   -6.4191   25.1523  -32.0528 H   0  0  0  0  0  0  0  0  0  0  0  0
  1  2  1  0
  2  3  1  0
  3  4  1  1
  3  5  1  0
  5  6  1  0
  5  7  1  0
  5  8  1  0
  8  9  1  0
  9 10  1  0
 10 11  1  0
 10 12  1  0
 10 13  1  0
 13 14  1  0
 14 15  1  0
 15 16  1  0
 15 17  1  0
 15 18  1  0
 14 19  2  0
 19 20  1  0
 20 21  1  0
 21 22  2  0
 22 23  1  0
 23 24  2  0
 24 25  1  0
 25 26  2  0
 26 27  1  0
 26 28  1  0
 28 29  1  0
 28 30  2  0
 30 31  1  0
 30 32  1  0
 32 33  1  0
 32 34  2  0
 34 35  1  0
 35 36  1  0
 35 37  1  0
 35 38  1  0
 23 39  1  0
 39 40  1  0
 40 41  1  0
 40 42  2  0
 42 43  1  0
 20 44  1  0
 44 45  1  0
  9 46  1  0
 46 47  1  0
 46 48  1  0
 46  3  1  0
 44 13  2  0
 42 21  1  0
 34 25  1  0
M  CHG  2  29  -1  39  -1
M  END
>  <UniqueID>  (6) 
6

>  <SMILES>  (6) 
Cc1ccc([O-])cc1/N=c1\nc(-n2cc(CN3C[C@H](O)CO3)c(C)n2)cc[n-]1

>  <Energy>  (6) 
93.20441158307362

>  <Genealogy>  (6) 
Cc1ccc([O-])cc1N=c1nc(-n2cc(CN3CC(O)CO3)c(C)n2)cc[n-]1 (protonated)
Cc1ccc([O-])cc1N=c1nc(-n2cc(CN3C[C@H](O)CO3)c(C)n2)cc[n-]1 (chirality)
Cc1ccc([O-])cc1/N=c1\nc(-n2cc(CN3C[C@H](O)CO3)c(C)n2)cc[n-]1 (cis-trans isomerization)
Cc1ccc([O-])cc1/N=c1\nc(-n2cc(CN3C[C@H](O)CO3)c(C)n2)cc[n-]1 (3D coordinates assigned)
Cc1ccc([O-])cc1/N=c1\nc(-n2cc(CN3C[C@H](O)CO3)c(C)n2)cc[n-]1 (nonaromatic ring conformer: 93.20441158307362 kcal/mol)

>  <smiles>  (6) 
Cc1ccc(O)cc1N=c1nc(-n2cc(CN3CC(O)CO3)c(C)n2)cc[nH]1

>  <score_type>  (6) 
oracle

>  <origin>  (6) 
adgpu

>  <m_score__min__energy>  (6) 
-12.140000000000001

>  <m_primary>  (6) 
energy

$$$$
6:0
     RDKit          3D

 31 32  0  0  0  0  0  0  0  0999 V2000
   -2.7281   20.3820  -28.0203 H   0  0  0  0  0  0  0  0  0  0  0  0
   -2.2760   20.8270  -28.9190 C   0  0  0  0  0  0  0  0  0  0  0  0
   -1.9820   20.0330  -29.9100 N   0  0  0  0  0  0  0  0  0  0  0  0
   -1.4730   20.4220  -31.1960 C   0  0  0  0  0  0  0  0  0  0  0  0
   -0.0920   20.3560  -31.4110 C   0  0  0  0  0  0  0  0  0  0  0  0
    0.5683   19.9962  -30.6082 H   0  0  0  0  0  0  0  0  0  0  0  0
    0.4550   20.7430  -32.6360 C   0  0  0  0  0  0  0  0  0  0  0  0
    1.5425   20.6879  -32.7920 H   0  0  0  0  0  0  0  0  0  0  0  0
   -0.3750   21.2010  -33.6670 C   0  0  0  0  0  0  0  0  0  0  0  0
    0.2110   21.5920  -34.9910 C   0  0  0  0  0  0  0  0  0  0  0  0
    1.1159   22.1958  -34.8275 H   0  0  0  0  0  0  0  0  0  0  0  0
    0.4720   20.6864  -35.5583 H   0  0  0  0  0  0  0  0  0  0  0  0
   -0.5250   22.1806  -35.5583 H   0  0  0  0  0  0  0  0  0  0  0  0
   -1.7650   21.2150  -33.4780 C   0  0  0  0  0  0  0  0  0  0  0  0
   -2.4215   21.5491  -34.2949 H   0  0  0  0  0  0  0  0  0  0  0  0
   -2.3280   20.8070  -32.2570 C   0  0  0  0  0  0  0  0  0  0  0  0
   -3.8270   20.8090  -32.1160 C   0  0  0  0  0  0  0  0  0  0  0  0
   -4.0949   20.8094  -31.0491 H   0  0  0  0  0  0  0  0  0  0  0  0
   -4.2394   21.7077  -32.5979 H   0  0  0  0  0  0  0  0  0  0  0  0
   -4.2418   19.9114  -32.5979 H   0  0  0  0  0  0  0  0  0  0  0  0
   -2.0410   22.2900  -28.9240 C   0  0  0  0  0  0  0  0  0  0  0  0
   -1.0320   22.8820  -28.1430 C   0  0  0  0  0  0  0  0  0  0  0  0
   -0.3871   22.2520  -27.5128 H   0  0  0  0  0  0  0  0  0  0  0  0
   -0.8450   24.2670  -28.1640 C   0  0  0  0  0  0  0  0  0  0  0  0
   -0.0431   24.7219  -27.5639 H   0  0  0  0  0  0  0  0  0  0  0  0
   -1.6750   25.0750  -28.9460 C   0  0  0  0  0  0  0  0  0  0  0  0
   -1.4820   26.4510  -28.9650 O   0  0  0  0  0  0  0  0  0  0  0  0
   -2.7010   24.4970  -29.7020 C   0  0  0  0  0  0  0  0  0  0  0  0
   -3.5370   25.2970  -30.4740 O   0  0  0  0  0  0  0  0  0  0  0  0
   -2.8890   23.1110  -29.6820 C   0  0  0  0  0  0  0  0  0  0  0  0
   -3.7071   22.6620  -30.2644 H   0  0  0  0  0  0  0  0  0  0  0  0
  1  2  1  0
  2  3  2  0
  3  4  1  0
  4  5  2  0
  5  6  1  0
  5  7  1  0
  7  8  1  0
  7  9  2  0
  9 10  1  0
 10 11  1  0
 10 12  1  0
 10 13  1  0
  9 14  1  0
 14 15  1  0
 14 16  2  0
 16 17  1  0
 17 18  1  0
 17 19  1  0
 17 20  1  0
  2 21  1  0
 21 22  2  0
 22 23  1  0
 22 24  1  0
 24 25  1  0
 24 26  2  0
 26 27  1  0
 26 28  1  0
 28 29  1  0
 28 30  2  0
 30 31  1  0
 16  4  1  0
 30 21  1  0
M  CHG  2  27  -1  29  -1
M  END
>  <UniqueID>  (7) 
7

>  <SMILES>  (7) 
Cc1ccc(/N=C\c2ccc([O-])c([O-])c2)c(C)c1

>  <Energy>  (7) 
43.54021340924871

>  <Genealogy>  (7) 
Cc1ccc(N=Cc2ccc([O-])c([O-])c2)c(C)c1 (protonated)
Cc1ccc(/N=C\c2ccc([O-])c([O-])c2)c(C)c1 (cis-trans isomerization)
Cc1ccc(/N=C\c2ccc([O-])c([O-])c2)c(C)c1 (3D coordinates assigned)
Cc1ccc(/N=C\c2ccc([O-])c([O-])c2)c(C)c1 (optimized conformer: 43.54021340924871 kcal/mol)

>  <smiles>  (7) 
Cc1ccc(N=Cc2ccc(O)c(O)c2)c(C)c1

>  <score_type>  (7) 
oracle

>  <origin>  (7) 
adgpu

>  <m_score__min__energy>  (7) 
-11.880000000000001

>  <m_primary>  (7) 
energy

$$$$
7:0
     RDKit          3D

 46 49  0  0  0  0  0  0  0  0999 V2000
   -1.3050   25.3750  -29.2160 O   0  0  0  0  0  0  0  0  0  0  0  0
   -2.2970   24.6130  -29.3610 C   0  0  0  0  0  0  0  0  0  0  0  0
   -3.5580   25.1900  -29.7220 N   0  0  0  0  0  0  0  0  0  0  0  0
   -4.6950   24.4550  -30.1940 C   0  0  0  0  0  0  0  0  0  0  0  0
   -5.3860   24.9180  -31.3180 C   0  0  0  0  0  0  0  0  0  0  0  0
   -6.4850   24.2120  -31.8140 C   0  0  0  0  0  0  0  0  0  0  0  0
   -6.8950   23.0170  -31.2060 C   0  0  0  0  0  0  0  0  0  0  0  0
   -8.0650   22.2750  -31.7260 C   0  0  0  0  0  0  0  0  0  0  0  0
   -9.1570   22.8770  -31.9080 O   0  0  0  0  0  0  0  0  0  0  0  0
   -7.9760   20.8690  -32.0310 N   0  0  0  0  0  0  0  0  0  0  0  0
   -9.0800   20.0180  -31.5500 C   0  0  0  0  0  0  0  0  0  0  0  0
   -8.9190   18.5620  -31.9950 C   0  0  0  0  0  0  0  0  0  0  0  0
   -7.5320   18.0510  -31.6110 C   0  0  0  0  0  0  0  0  0  0  0  0
   -6.4690   18.9130  -32.2310 C   0  0  0  0  0  0  0  0  0  0  0  0
   -5.2270   18.3590  -32.5800 C   0  0  0  0  0  0  0  0  0  0  0  0
   -4.2410   19.1520  -33.1600 C   0  0  0  0  0  0  0  0  0  0  0  0
   -4.4820   20.5050  -33.3920 C   0  0  0  0  0  0  0  0  0  0  0  0
   -5.7010   21.0770  -33.0230 C   0  0  0  0  0  0  0  0  0  0  0  0
   -6.7030   20.2910  -32.4150 C   0  0  0  0  0  0  0  0  0  0  0  0
   -6.1930   22.5490  -30.0830 C   0  0  0  0  0  0  0  0  0  0  0  0
   -5.1010   23.2600  -29.5800 C   0  0  0  0  0  0  0  0  0  0  0  0
   -2.1530   23.1600  -29.0970 C   0  0  0  0  0  0  0  0  0  0  0  0
   -2.4540   22.6400  -27.8260 C   0  0  0  0  0  0  0  0  0  0  0  0
   -2.3640   21.2660  -27.5850 C   0  0  0  0  0  0  0  0  0  0  0  0
   -1.9820   20.3980  -28.6110 C   0  0  0  0  0  0  0  0  0  0  0  0
   -1.6880   20.9040  -29.8800 C   0  0  0  0  0  0  0  0  0  0  0  0
   -1.3290   20.0620  -30.8790 F   0  0  0  0  0  0  0  0  0  0  0  0
   -1.7730   22.2740  -30.1230 C   0  0  0  0  0  0  0  0  0  0  0  0
   -5.0622   25.8443  -31.8151 H   0  0  0  0  0  0  0  0  0  0  0  0
   -7.0322   24.5963  -32.6874 H   0  0  0  0  0  0  0  0  0  0  0  0
   -9.1020   20.0528  -30.4508 H   0  0  0  0  0  0  0  0  0  0  0  0
  -10.0168   20.4025  -31.9796 H   0  0  0  0  0  0  0  0  0  0  0  0
   -9.6844   17.9437  -31.5033 H   0  0  0  0  0  0  0  0  0  0  0  0
   -9.0373   18.5021  -33.0870 H   0  0  0  0  0  0  0  0  0  0  0  0
   -7.4264   18.0755  -30.5164 H   0  0  0  0  0  0  0  0  0  0  0  0
   -7.4161   17.0204  -31.9776 H   0  0  0  0  0  0  0  0  0  0  0  0
   -5.0321   17.2925  -32.3941 H   0  0  0  0  0  0  0  0  0  0  0  0
   -3.2716   18.7109  -33.4352 H   0  0  0  0  0  0  0  0  0  0  0  0
   -3.7082   21.1251  -33.8681 H   0  0  0  0  0  0  0  0  0  0  0  0
   -5.8814   22.1464  -33.2072 H   0  0  0  0  0  0  0  0  0  0  0  0
   -6.5061   21.6141  -29.5952 H   0  0  0  0  0  0  0  0  0  0  0  0
   -4.5581   22.8826  -28.7009 H   0  0  0  0  0  0  0  0  0  0  0  0
   -2.7621   23.3182  -27.0166 H   0  0  0  0  0  0  0  0  0  0  0  0
   -2.5943   20.8675  -26.5859 H   0  0  0  0  0  0  0  0  0  0  0  0
   -1.9127   19.3169  -28.4200 H   0  0  0  0  0  0  0  0  0  0  0  0
   -1.5413   22.6659  -31.1244 H   0  0  0  0  0  0  0  0  0  0  0  0
  1  2  2  0
  2  3  1  0
  3  4  1  0
  4  5  2  0
  5  6  1  0
  6  7  2  0
  7  8  1  0
  8  9  2  0
  8 10  1  0
 10 11  1  0
 11 12  1  0
 12 13  1  0
 13 14  1  0
 14 15  2  0
 15 16  1  0
 16 17  2  0
 17 18  1  0
 18 19  2  0
  7 20  1  0
 20 21  2  0
  2 22  1  0
 22 23  2  0
 23 24  1  0
 24 25  2  0
 25 26  1  0
 26 27  1  0
 26 28  2  0
 21  4  1  0
 28 22  1  0
 19 10  1  0
 19 14  1  0
  5 29  1  0
  6 30  1  0
 11 31  1  0
 11 32  1  0
 12 33  1  0
 12 34  1  0
 13 35  1  0
 13 36  1  0
 15 37  1  0
 16 38  1  0
 17 39  1  0
 18 40  1  0
 20 41  1  0
 21 42  1  0
 23 43  1  0
 24 44  1  0
 25 45  1  0
 28 46  1  0
M  CHG  1   3  -1
M  END
>  <UniqueID>  (8) 
8

>  <SMILES>  (8) 
O=C([N-]c1ccc(C(=O)N2CCCc3ccccc32)cc1)c1cccc(F)c1

>  <Energy>  (8) 
66.14590187208263

>  <Genealogy>  (8) 
O=C([N-]c1ccc(C(=O)N2CCCc3ccccc32)cc1)c1cccc(F)c1 (protonated)
O=C([N-]c1ccc(C(=O)N2CCCc3ccccc32)cc1)c1cccc(F)c1 (3D coordinates assigned)
O=C([N-]c1ccc(C(=O)N2CCCc3ccccc32)cc1)c1cccc(F)c1 (nonaromatic ring conformer: 66.14590187208263 kcal/mol)

>  <smiles>  (8) 
O=C(Nc1ccc(C(=O)N2CCCc3ccccc32)cc1)c1cccc(F)c1

>  <score_type>  (8) 
oracle

>  <origin>  (8) 
adgpu

>  <m_score__min__energy>  (8) 
-11.66

>  <m_primary>  (8) 
energy

$$$$
8:0
     RDKit          3D

 48 50  0  0  0  0  0  0  0  0999 V2000
   -0.4350   21.2160  -32.6210 C   0  0  0  0  0  0  0  0  0  0  0  0
   -1.7440   20.5310  -32.9090 C   0  0  0  0  0  0  0  0  0  0  0  0
   -1.7470   19.3130  -33.6080 C   0  0  0  0  0  0  0  0  0  0  0  0
   -2.9480   18.6580  -33.8870 C   0  0  0  0  0  0  0  0  0  0  0  0
   -4.1620   19.2030  -33.4610 C   0  0  0  0  0  0  0  0  0  0  0  0
   -5.6660   18.3550  -33.8120 S   0  0  0  0  0  0  0  0  0  0  0  0
   -6.0670   18.6540  -35.2290 O   0  0  0  0  0  0  0  0  0  0  0  0
   -5.4680   16.8710  -33.6600 O   0  0  0  0  0  0  0  0  0  0  0  0
   -6.9130   18.8980  -32.7160 N   0  0  0  0  0  0  0  0  0  0  0  0
   -7.8630   17.8070  -32.4530 C   0  0  0  0  0  0  0  0  0  0  0  0
   -8.9720   18.2920  -31.4950 C   0  0  0  0  0  0  0  0  0  0  0  0
   -8.9030   19.6860  -31.2540 O   0  0  0  0  0  0  0  0  0  0  0  0
   -8.8890   20.3840  -32.4820 C   0  0  0  0  0  0  0  0  0  0  0  0
   -7.6160   20.0570  -33.2910 C   0  0  0  0  0  0  0  0  0  0  0  0
   -4.1710   20.4080  -32.7470 C   0  0  0  0  0  0  0  0  0  0  0  0
   -2.9690   21.0870  -32.4740 C   0  0  0  0  0  0  0  0  0  0  0  0
   -2.9890   22.3080  -31.7120 N   0  0  0  0  0  0  0  0  0  0  0  0
   -2.8210   22.3550  -30.2870 C   0  0  0  0  0  0  0  0  0  0  0  0
   -2.8150   21.2940  -29.6050 O   0  0  0  0  0  0  0  0  0  0  0  0
   -2.6500   23.6710  -29.5990 C   0  0  0  0  0  0  0  0  0  0  0  0
   -4.1470   24.0430  -28.6300 S   0  0  0  0  0  0  0  0  0  0  0  0
   -5.2570   23.6700  -29.9850 C   0  0  0  0  0  0  0  0  0  0  0  0
   -6.4330   22.9480  -29.7570 C   0  0  0  0  0  0  0  0  0  0  0  0
   -7.2830   22.6710  -30.8300 C   0  0  0  0  0  0  0  0  0  0  0  0
   -6.9520   23.1170  -32.1110 C   0  0  0  0  0  0  0  0  0  0  0  0
   -5.7700   23.8390  -32.2990 C   0  0  0  0  0  0  0  0  0  0  0  0
   -4.9550   24.0990  -31.2420 N   0  0  0  0  0  0  0  0  0  0  0  0
   -0.2919   21.2909  -31.5329 H   0  0  0  0  0  0  0  0  0  0  0  0
    0.3882   20.6331  -33.0598 H   0  0  0  0  0  0  0  0  0  0  0  0
   -0.4446   22.2246  -33.0598 H   0  0  0  0  0  0  0  0  0  0  0  0
   -0.7953   18.8714  -33.9384 H   0  0  0  0  0  0  0  0  0  0  0  0
   -2.9385   17.7096  -34.4441 H   0  0  0  0  0  0  0  0  0  0  0  0
   -8.3168   17.4827  -33.4011 H   0  0  0  0  0  0  0  0  0  0  0  0
   -7.3273   16.9658  -31.9888 H   0  0  0  0  0  0  0  0  0  0  0  0
   -9.9506   18.0580  -31.9395 H   0  0  0  0  0  0  0  0  0  0  0  0
   -8.8341   17.7771  -30.5328 H   0  0  0  0  0  0  0  0  0  0  0  0
   -9.7727   20.0950  -33.0699 H   0  0  0  0  0  0  0  0  0  0  0  0
   -8.9019   21.4635  -32.2711 H   0  0  0  0  0  0  0  0  0  0  0  0
   -7.8977   19.8288  -34.3296 H   0  0  0  0  0  0  0  0  0  0  0  0
   -6.9447   20.9278  -33.2582 H   0  0  0  0  0  0  0  0  0  0  0  0
   -5.1258   20.8272  -32.3967 H   0  0  0  0  0  0  0  0  0  0  0  0
   -3.1850   23.2060  -32.2090 H   0  0  0  0  0  0  0  0  0  0  0  0
   -1.7799   23.6243  -28.9276 H   0  0  0  0  0  0  0  0  0  0  0  0
   -2.4905   24.4604  -30.3482 H   0  0  0  0  0  0  0  0  0  0  0  0
   -6.6856   22.6022  -28.7438 H   0  0  0  0  0  0  0  0  0  0  0  0
   -8.2107   22.1030  -30.6663 H   0  0  0  0  0  0  0  0  0  0  0  0
   -7.6141   22.9026  -32.9628 H   0  0  0  0  0  0  0  0  0  0  0  0
   -5.4988   24.1972  -33.3030 H   0  0  0  0  0  0  0  0  0  0  0  0
  1  2  1  0
  2  3  2  0
  3  4  1  0
  4  5  2  0
  5  6  1  0
  6  7  2  0
  6  8  2  0
  6  9  1  0
  9 10  1  0
 10 11  1  0
 11 12  1  0
 12 13  1  0
 13 14  1  0
  5 15  1  0
 15 16  2  0
 16 17  1  0
 17 18  1  0
 18 19  2  0
 18 20  1  0
 20 21  1  0
 21 22  1  0
 22 23  2  0
 23 24  1  0
 24 25  2  0
 25 26  1  0
 26 27  2  0
 16  2  1  0
 27 22  1  0
 14  9  1  0
  1 28  1  0
  1 29  1  0
  1 30  1  0
  3 31  1  0
  4 32  1  0
 10 33  1  0
 10 34  1  0
 11 35  1  0
 11 36  1  0
 13 37  1  0
 13 38  1  0
 14 39  1  0
 14 40  1  0
 15 41  1  0
 17 42  1  0
 20 43  1  0
 20 44  1  0
 23 45  1  0
 24 46  1  0
 25 47  1  0
 26 48  1  0
M  END
>  <UniqueID>  (9) 
9

>  <SMILES>  (9) 
Cc1ccc(S(=O)(=O)N2CCOCC2)cc1NC(=O)CSc1ccccn1

>  <Energy>  (9) 
55.477045984035485

>  <Genealogy>  (9) 
Cc1ccc(S(=O)(=O)N2CCOCC2)cc1NC(=O)CSc1ccccn1 (3D coordinates assigned)
Cc1ccc(S(=O)(=O)N2CCOCC2)cc1NC(=O)CSc1ccccn1 (nonaromatic ring conformer: 55.477045984035485 kcal/mol)

>  <smiles>  (9) 
Cc1ccc(S(=O)(=O)N2CCOCC2)cc1NC(=O)CSc1ccccn1

>  <score_type>  (9) 
oracle

>  <origin>  (9) 
adgpu

>  <m_score__min__energy>  (9) 
-9.0099999999999998

>  <m_primary>  (9) 
energy

$$$$
9:0
     RDKit          3D

 57 60  0  0  0  0  0  0  0  0999 V2000
   -1.4120   21.1070  -33.7590 C   0  0  0  0  0  0  0  0  0  0  0  0
   -1.3160   20.8320  -32.2920 C   0  0  0  0  0  0  0  0  0  0  0  0
   -0.5230   19.7820  -31.8170 C   0  0  0  0  0  0  0  0  0  0  0  0
   -0.4650   19.5520  -30.4350 C   0  0  0  0  0  0  0  0  0  0  0  0
    0.3550   18.4560  -29.8750 C   0  0  0  0  0  0  0  0  0  0  0  0
    0.9640   17.6710  -30.6520 O   0  0  0  0  0  0  0  0  0  0  0  0
    0.4290   18.2610  -28.4510 N   0  0  0  0  0  0  0  0  0  0  0  0
    1.3890   17.4030  -27.8110 C   0  0  0  0  0  0  0  0  0  0  0  0
    1.0630   16.0820  -27.4450 C   0  0  0  0  0  0  0  0  0  0  0  0
    2.0210   15.2640  -26.8370 C   0  0  0  0  0  0  0  0  0  0  0  0
    3.3100   15.7490  -26.6030 C   0  0  0  0  0  0  0  0  0  0  0  0
    3.6500   17.0480  -26.9870 C   0  0  0  0  0  0  0  0  0  0  0  0
    2.6960   17.8700  -27.5960 C   0  0  0  0  0  0  0  0  0  0  0  0
   -1.1760   20.3550  -29.5990 N   0  0  0  0  0  0  0  0  0  0  0  0
   -1.9420   21.3710  -30.0760 C   0  0  0  0  0  0  0  0  0  0  0  0
   -2.8630   22.3630  -28.9640 S   0  0  0  0  0  0  0  0  0  0  0  0
   -3.5090   21.4950  -27.9220 O   0  0  0  0  0  0  0  0  0  0  0  0
   -1.9320   23.3200  -28.2700 O   0  0  0  0  0  0  0  0  0  0  0  0
   -4.0960   23.2500  -29.8610 C   0  0  0  0  0  0  0  0  0  0  0  0
   -5.2610   22.5940  -30.2880 C   0  0  0  0  0  0  0  0  0  0  0  0
   -6.2560   23.2940  -30.9850 C   0  0  0  0  0  0  0  0  0  0  0  0
   -7.6980   22.4540  -31.5480 S   0  0  0  0  0  0  0  0  0  0  0  0
   -8.7400   23.4500  -31.9770 O   0  0  0  0  0  0  0  0  0  0  0  0
   -8.2600   21.6380  -30.4170 O   0  0  0  0  0  0  0  0  0  0  0  0
   -7.3340   21.4010  -32.8750 N   0  0  0  0  0  0  0  0  0  0  0  0
   -6.7000   20.1300  -32.6990 C   0  0  0  0  0  0  0  0  0  0  0  0
   -5.3110   20.0060  -32.8600 C   0  0  0  0  0  0  0  0  0  0  0  0
   -4.6900   18.7660  -32.6870 C   0  0  0  0  0  0  0  0  0  0  0  0
   -5.4480   17.6450  -32.3400 C   0  0  0  0  0  0  0  0  0  0  0  0
   -6.8280   17.7630  -32.1520 C   0  0  0  0  0  0  0  0  0  0  0  0
   -7.4630   19.0070  -32.3180 C   0  0  0  0  0  0  0  0  0  0  0  0
   -8.9510   19.1240  -32.1270 C   0  0  0  0  0  0  0  0  0  0  0  0
   -6.0810   24.6560  -31.2590 C   0  0  0  0  0  0  0  0  0  0  0  0
   -4.9250   25.3160  -30.8350 C   0  0  0  0  0  0  0  0  0  0  0  0
   -3.9340   24.6200  -30.1340 C   0  0  0  0  0  0  0  0  0  0  0  0
   -2.7960   25.2980  -29.7150 O   0  0  0  0  0  0  0  0  0  0  0  0
   -2.0110   21.6010  -31.4120 N   0  0  0  0  0  0  0  0  0  0  0  0
   -1.7708   22.1348  -33.9167 H   0  0  0  0  0  0  0  0  0  0  0  0
   -0.4199   20.9902  -34.2196 H   0  0  0  0  0  0  0  0  0  0  0  0
   -2.1159   20.3982  -34.2196 H   0  0  0  0  0  0  0  0  0  0  0  0
    0.0445   19.1486  -32.5147 H   0  0  0  0  0  0  0  0  0  0  0  0
   -0.3150   18.6860  -27.8550 H   0  0  0  0  0  0  0  0  0  0  0  0
    0.0524   15.6929  -27.6379 H   0  0  0  0  0  0  0  0  0  0  0  0
    1.7589   14.2370  -26.5426 H   0  0  0  0  0  0  0  0  0  0  0  0
    4.0583   15.1068  -26.1156 H   0  0  0  0  0  0  0  0  0  0  0  0
    4.6683   17.4248  -26.8105 H   0  0  0  0  0  0  0  0  0  0  0  0
    2.9711   18.8882  -27.9084 H   0  0  0  0  0  0  0  0  0  0  0  0
   -5.3944   21.5232  -30.0743 H   0  0  0  0  0  0  0  0  0  0  0  0
   -4.7091   20.8882  -33.1233 H   0  0  0  0  0  0  0  0  0  0  0  0
   -3.6026   18.6725  -32.8243 H   0  0  0  0  0  0  0  0  0  0  0  0
   -4.9581   16.6681  -32.2146 H   0  0  0  0  0  0  0  0  0  0  0  0
   -7.4201   16.8790  -31.8730 H   0  0  0  0  0  0  0  0  0  0  0  0
   -9.1823   19.1422  -31.0518 H   0  0  0  0  0  0  0  0  0  0  0  0
   -9.3088   20.0531  -32.5948 H   0  0  0  0  0  0  0  0  0  0  0  0
   -9.4496   18.2623  -32.5948 H   0  0  0  0  0  0  0  0  0  0  0  0
   -6.8565   25.2082  -31.8101 H   0  0  0  0  0  0  0  0  0  0  0  0
   -4.7934   26.3861  -31.0529 H   0  0  0  0  0  0  0  0  0  0  0  0
  1  2  1  0
  2  3  2  0
  3  4  1  0
  4  5  1  0
  5  6  2  0
  5  7  1  0
  7  8  1  0
  8  9  2  0
  9 10  1  0
 10 11  2  0
 11 12  1  0
 12 13  2  0
  4 14  2  0
 14 15  1  0
 15 16  1  0
 16 17  2  0
 16 18  2  0
 16 19  1  0
 19 20  2  0
 20 21  1  0
 21 22  1  0
 22 23  2  0
 22 24  2  0
 22 25  1  0
 25 26  1  0
 26 27  2  0
 27 28  1  0
 28 29  2  0
 29 30  1  0
 30 31  2  0
 31 32  1  0
 21 33  2  0
 33 34  1  0
 34 35  2  0
 35 36  1  0
 15 37  2  0
 37  2  1  0
 13  8  1  0
 35 19  1  0
 31 26  1  0
  1 38  1  0
  1 39  1  0
  1 40  1  0
  3 41  1  0
  7 42  1  0
  9 43  1  0
 10 44  1  0
 11 45  1  0
 12 46  1  0
 13 47  1  0
 20 48  1  0
 27 49  1  0
 28 50  1  0
 29 51  1  0
 30 52  1  0
 32 53  1  0
 32 54  1  0
 32 55  1  0
 33 56  1  0
 34 57  1  0
M  CHG  2  25  -1  36  -1
M  END
>  <UniqueID>  (10) 
10

>  <SMILES>  (10) 
Cc1cc(C(=O)Nc2ccccc2)nc(S(=O)(=O)c2cc(S(=O)(=O)[N-]c3ccccc3C)ccc2[O-])n1

>  <Energy>  (10) 
75.61284401996487

>  <Genealogy>  (10) 
Cc1cc(C(=O)Nc2ccccc2)nc(S(=O)(=O)c2cc(S(=O)(=O)[N-]c3ccccc3C)ccc2[O-])n1 (protonated)
Cc1cc(C(=O)Nc2ccccc2)nc(S(=O)(=O)c2cc(S(=O)(=O)[N-]c3ccccc3C)ccc2[O-])n1 (3D coordinates assigned)
Cc1cc(C(=O)Nc2ccccc2)nc(S(=O)(=O)c2cc(S(=O)(=O)[N-]c3ccccc3C)ccc2[O-])n1 (optimized conformer: 75.61284401996487 kcal/mol)

>  <smiles>  (10) 
Cc1cc(C(=O)Nc2ccccc2)nc(S(=O)(=O)c2cc(S(=O)(=O)Nc3ccccc3C)ccc2O)n1

>  <score_type>  (10) 
oracle

>  <origin>  (10) 
adgpu

>  <m_score__min__energy>  (10) 
-13.25

>  <m_primary>  (10) 
energy

$$$$
10:0
     RDKit          3D

 50 54  0  0  0  0  0  0  0  0999 V2000
   -4.7050   24.4140  -28.7060 N   0  0  0  0  0  0  0  0  0  0  0  0
   -3.9810   23.5870  -29.6230 C   0  0  0  0  0  0  0  0  0  0  0  0
   -4.4470   23.1940  -30.8870 C   0  0  0  0  0  0  0  0  0  0  0  0
   -5.7730   23.4400  -31.4920 C   0  0  0  0  0  0  0  0  0  0  0  0
   -6.1070   24.6240  -31.7660 O   0  0  0  0  0  0  0  0  0  0  0  0
   -6.7280   22.3390  -31.7570 C   0  0  0  0  0  0  0  0  0  0  0  0
   -8.0560   22.4340  -31.3050 C   0  0  0  0  0  0  0  0  0  0  0  0
   -8.9650   21.4020  -31.5580 C   0  0  0  0  0  0  0  0  0  0  0  0
   -8.5620   20.2720  -32.2740 C   0  0  0  0  0  0  0  0  0  0  0  0
   -9.4460   19.2730  -32.5180 F   0  0  0  0  0  0  0  0  0  0  0  0
   -7.2500   20.1740  -32.7430 C   0  0  0  0  0  0  0  0  0  0  0  0
   -6.3370   21.2040  -32.4920 C   0  0  0  0  0  0  0  0  0  0  0  0
   -3.4050   22.4640  -31.4240 C   0  0  0  0  0  0  0  0  0  0  0  0
   -3.3140   21.8190  -32.6120 N   0  0  0  0  0  0  0  0  0  0  0  0
   -2.1530   21.1580  -32.9040 C   0  0  0  0  0  0  0  0  0  0  0  0
   -2.0070   20.4890  -34.1220 C   0  0  0  0  0  0  0  0  0  0  0  0
   -0.8140   19.8180  -34.4110 C   0  0  0  0  0  0  0  0  0  0  0  0
    0.2360   19.8130  -33.4860 C   0  0  0  0  0  0  0  0  0  0  0  0
    0.1060   20.4780  -32.2620 C   0  0  0  0  0  0  0  0  0  0  0  0
   -1.0810   21.1530  -31.9590 C   0  0  0  0  0  0  0  0  0  0  0  0
   -1.2220   21.8030  -30.7650 N   0  0  0  0  0  0  0  0  0  0  0  0
   -2.3900   22.4460  -30.5160 C   0  0  0  0  0  0  0  0  0  0  0  0
   -2.7190   23.1220  -29.3990 N   0  0  0  0  0  0  0  0  0  0  0  0
   -1.8420   23.3690  -28.2510 C   0  0  0  0  0  0  0  0  0  0  0  0
   -1.3720   24.8350  -28.2340 C   0  0  1  0  0  0  0  0  0  0  0  0
   -2.2600   25.6700  -28.9370 O   0  0  0  0  0  0  0  0  0  0  0  0
   -1.1680   25.3380  -26.8180 C   0  0  0  0  0  0  0  0  0  0  0  0
   -1.2460   26.7100  -26.5150 C   0  0  0  0  0  0  0  0  0  0  0  0
   -1.0550   27.1390  -25.2000 C   0  0  0  0  0  0  0  0  0  0  0  0
   -0.7980   26.2360  -24.2170 N   0  0  0  0  0  0  0  0  0  0  0  0
   -0.7170   24.9050  -24.4770 C   0  0  0  0  0  0  0  0  0  0  0  0
   -0.9010   24.4320  -25.7780 C   0  0  0  0  0  0  0  0  0  0  0  0
   -5.6760   24.1690  -28.4150 H   0  0  0  0  0  0  0  0  0  0  0  0
   -4.2990   25.2970  -28.3290 H   0  0  0  0  0  0  0  0  0  0  0  0
   -8.3818   23.3255  -30.7490 H   0  0  0  0  0  0  0  0  0  0  0  0
   -9.9996   21.4800  -31.1925 H   0  0  0  0  0  0  0  0  0  0  0  0
   -6.9342   19.2861  -33.3103 H   0  0  0  0  0  0  0  0  0  0  0  0
   -5.3074   21.1264  -32.8713 H   0  0  0  0  0  0  0  0  0  0  0  0
   -2.8292   20.4900  -34.8528 H   0  0  0  0  0  0  0  0  0  0  0  0
   -0.7007   19.2916  -35.3702 H   0  0  0  0  0  0  0  0  0  0  0  0
    1.1701   19.2825  -33.7229 H   0  0  0  0  0  0  0  0  0  0  0  0
    0.9354   20.4700  -31.5395 H   0  0  0  0  0  0  0  0  0  0  0  0
   -2.3923   23.1550  -27.3229 H   0  0  0  0  0  0  0  0  0  0  0  0
   -0.9611   22.7150  -28.3303 H   0  0  0  0  0  0  0  0  0  0  0  0
   -0.3996   24.8679  -28.7471 H   0  0  0  0  0  0  0  0  0  0  0  0
   -1.9910   25.6710  -29.8910 H   0  0  0  0  0  0  0  0  0  0  0  0
   -1.4563   27.4407  -27.3099 H   0  0  0  0  0  0  0  0  0  0  0  0
   -1.1127   28.2107  -24.9589 H   0  0  0  0  0  0  0  0  0  0  0  0
   -0.5060   24.1983  -23.6609 H   0  0  0  0  0  0  0  0  0  0  0  0
   -0.8371   23.3541  -25.9877 H   0  0  0  0  0  0  0  0  0  0  0  0
  1  2  1  0
  2  3  2  0
  3  4  1  0
  4  5  2  0
  4  6  1  0
  6  7  2  0
  7  8  1  0
  8  9  2  0
  9 10  1  0
  9 11  1  0
 11 12  2  0
  3 13  1  0
 13 14  2  0
 14 15  1  0
 15 16  2  0
 16 17  1  0
 17 18  2  0
 18 19  1  0
 19 20  2  0
 20 21  1  0
 21 22  2  0
 22 23  1  0
 23 24  1  0
 24 25  1  0
 25 26  1  0
 25 27  1  0
 27 28  2  0
 28 29  1  0
 29 30  2  0
 30 31  1  0
 31 32  2  0
 23  2  1  0
 32 27  1  0
 12  6  1  0
 22 13  1  0
 20 15  1  0
  1 33  1  0
  1 34  1  0
  7 35  1  0
  8 36  1  0
 11 37  1  0
 12 38  1  0
 16 39  1  0
 17 40  1  0
 18 41  1  0
 19 42  1  0
 24 43  1  0
 24 44  1  0
 25 45  1  6
 26 46  1  0
 28 47  1  0
 29 48  1  0
 31 49  1  0
 32 50  1  0
M  END
>  <UniqueID>  (11) 
11

>  <SMILES>  (11) 
Nc1c(C(=O)c2ccc(F)cc2)c2nc3ccccc3nc2n1C[C@@H](O)c1ccncc1

>  <Energy>  (11) 
103.40055984546498

>  <Genealogy>  (11) 
Nc1c(C(=O)c2ccc(F)cc2)c2nc3ccccc3nc2n1C[C@@H](O)c1ccncc1 (chirality)
Nc1c(C(=O)c2ccc(F)cc2)c2nc3ccccc3nc2n1C[C@@H](O)c1ccncc1 (3D coordinates assigned)
Nc1c(C(=O)c2ccc(F)cc2)c2nc3ccccc3nc2n1C[C@@H](O)c1ccncc1 (optimized conformer: 103.40055984546498 kcal/mol)

>  <smiles>  (11) 
Nc1c(C(=O)c2ccc(F)cc2)c2nc3ccccc3nc2n1CC(O)c1ccncc1

>  <score_type>  (11) 
oracle

>  <origin>  (11) 
adgpu

>  <m_score__min__energy>  (11) 
-10.31

>  <m_primary>  (11) 
energy

$$$$
11:0
     RDKit          3D

 37 39  0  0  0  0  0  0  0  0999 V2000
   -5.8770   18.5760  -34.2660 C   0  0  0  0  0  0  0  0  0  0  0  0
   -5.8740   19.7710  -33.4940 O   0  0  0  0  0  0  0  0  0  0  0  0
   -6.9650   20.2340  -32.7390 C   0  0  0  0  0  0  0  0  0  0  0  0
   -8.0300   19.3880  -32.3700 C   0  0  0  0  0  0  0  0  0  0  0  0
   -9.0920   19.8820  -31.6110 C   0  0  0  0  0  0  0  0  0  0  0  0
   -9.1010   21.2170  -31.2050 C   0  0  0  0  0  0  0  0  0  0  0  0
  -10.1250   21.6870  -30.4490 F   0  0  0  0  0  0  0  0  0  0  0  0
   -8.0520   22.0660  -31.5660 C   0  0  0  0  0  0  0  0  0  0  0  0
   -6.9880   21.5860  -32.3510 C   0  0  0  0  0  0  0  0  0  0  0  0
   -5.8830   22.4270  -32.7170 N   0  0  0  0  0  0  0  0  0  0  0  0
   -5.0450   23.1800  -31.8290 C   0  0  0  0  0  0  0  0  0  0  0  0
   -5.4270   24.3050  -31.4030 O   0  0  0  0  0  0  0  0  0  0  0  0
   -3.7080   22.6640  -31.4570 C   0  0  0  0  0  0  0  0  0  0  0  0
   -3.1400   21.5840  -32.1570 C   0  0  0  0  0  0  0  0  0  0  0  0
   -1.8780   21.0990  -31.8070 C   0  0  0  0  0  0  0  0  0  0  0  0
   -1.1670   21.6820  -30.7570 C   0  0  0  0  0  0  0  0  0  0  0  0
   -1.7120   22.7610  -30.0450 C   0  0  0  0  0  0  0  0  0  0  0  0
   -0.9800   23.3630  -28.9610 N   0  0  0  0  0  0  0  0  0  0  0  0
   -0.9190   24.6730  -28.6450 C   0  0  0  0  0  0  0  0  0  0  0  0
   -1.5990   25.6760  -29.3270 O   0  0  0  0  0  0  0  0  0  0  0  0
   -0.1180   24.8820  -27.5400 C   0  0  0  0  0  0  0  0  0  0  0  0
    0.3360   23.6340  -27.1550 C   0  0  0  0  0  0  0  0  0  0  0  0
   -0.2120   22.7340  -28.0480 C   0  0  0  0  0  0  0  0  0  0  0  0
    0.0190   21.3630  -28.0280 O   0  0  0  0  0  0  0  0  0  0  0  0
   -2.9820   23.2470  -30.4010 C   0  0  0  0  0  0  0  0  0  0  0  0
   -5.8792   17.7053  -33.5938 H   0  0  0  0  0  0  0  0  0  0  0  0
   -6.7752   18.5516  -34.9005 H   0  0  0  0  0  0  0  0  0  0  0  0
   -4.9789   18.5471  -34.9005 H   0  0  0  0  0  0  0  0  0  0  0  0
   -8.0242   18.3331  -32.6817 H   0  0  0  0  0  0  0  0  0  0  0  0
   -9.9234   19.2178  -31.3324 H   0  0  0  0  0  0  0  0  0  0  0  0
   -8.0581   23.1149  -31.2348 H   0  0  0  0  0  0  0  0  0  0  0  0
   -3.6936   21.1184  -32.9857 H   0  0  0  0  0  0  0  0  0  0  0  0
   -1.4427   20.2543  -32.3610 H   0  0  0  0  0  0  0  0  0  0  0  0
   -0.1741   21.2935  -30.4863 H   0  0  0  0  0  0  0  0  0  0  0  0
    0.1123   25.8459  -27.0627 H   0  0  0  0  0  0  0  0  0  0  0  0
    0.9997   23.4043  -26.3084 H   0  0  0  0  0  0  0  0  0  0  0  0
   -3.4141   24.0937  -29.8474 H   0  0  0  0  0  0  0  0  0  0  0  0
  1  2  1  0
  2  3  1  0
  3  4  2  0
  4  5  1  0
  5  6  2  0
  6  7  1  0
  6  8  1  0
  8  9  2  0
  9 10  1  0
 10 11  1  0
 11 12  2  0
 11 13  1  0
 13 14  2  0
 14 15  1  0
 15 16  2  0
 16 17  1  0
 17 18  1  0
 18 19  1  0
 19 20  1  0
 19 21  2  0
 21 22  1  0
 22 23  2  0
 23 24  1  0
 17 25  2  0
  9  3  1  0
 25 13  1  0
 23 18  1  0
  1 26  1  0
  1 27  1  0
  1 28  1  0
  4 29  1  0
  5 30  1  0
  8 31  1  0
 14 32  1  0
 15 33  1  0
 16 34  1  0
 21 35  1  0
 22 36  1  0
 25 37  1  0
M  CHG  3  10  -1  20  -1  24  -1
M  END
>  <UniqueID>  (12) 
12

>  <SMILES>  (12) 
COc1ccc(F)cc1[N-]C(=O)c1cccc(-n2c([O-])ccc2[O-])c1

>  <Energy>  (12) 
77.16827755990084

>  <Genealogy>  (12) 
COc1ccc(F)cc1[N-]C(=O)c1cccc(-n2c([O-])ccc2[O-])c1 (protonated)
COc1ccc(F)cc1[N-]C(=O)c1cccc(-n2c([O-])ccc2[O-])c1 (3D coordinates assigned)
COc1ccc(F)cc1[N-]C(=O)c1cccc(-n2c([O-])ccc2[O-])c1 (optimized conformer: 77.16827755990084 kcal/mol)

>  <smiles>  (12) 
COc1ccc(F)cc1NC(=O)c1cccc(-n2c(O)ccc2O)c1

>  <score_type>  (12) 
oracle

>  <origin>  (12) 
adgpu

>  <m_score__min__energy>  (12) 
-10.67

>  <m_primary>  (12) 
energy

$$$$
12:0
     RDKit          3D

 53 56  0  0  0  0  0  0  0  0999 V2000
   -6.8230   22.6650  -32.4890 C   0  0  0  0  0  0  0  0  0  0  0  0
   -5.7230   23.3200  -31.6930 C   0  0  0  0  0  0  0  0  0  0  0  0
   -6.0180   24.4950  -30.9800 C   0  0  0  0  0  0  0  0  0  0  0  0
   -5.0430   25.1200  -30.2030 C   0  0  0  0  0  0  0  0  0  0  0  0
   -3.7610   24.5680  -30.0980 C   0  0  0  0  0  0  0  0  0  0  0  0
   -2.7820   25.2180  -29.2790 N   0  0  0  0  0  0  0  0  0  0  0  0
   -2.5810   24.9280  -27.8860 C   0  0  0  0  0  0  0  0  0  0  0  0
   -3.4770   24.3140  -27.2360 O   0  0  0  0  0  0  0  0  0  0  0  0
   -1.3440   25.3600  -27.1990 C   0  0  0  0  0  0  0  0  0  0  0  0
   -0.0830   25.0130  -27.7170 C   0  0  0  0  0  0  0  0  0  0  0  0
    1.0860   25.4400  -27.0860 C   0  0  0  0  0  0  0  0  0  0  0  0
    1.0170   26.2330  -25.9350 C   0  0  0  0  0  0  0  0  0  0  0  0
   -0.2320   26.6230  -25.4170 C   0  0  0  0  0  0  0  0  0  0  0  0
   -0.3100   27.4540  -24.1590 C   0  0  0  0  0  0  0  0  0  0  0  0
   -0.8320   28.6970  -24.4690 F   0  0  0  0  0  0  0  0  0  0  0  0
    0.9480   27.6170  -23.6040 F   0  0  0  0  0  0  0  0  0  0  0  0
   -1.1220   26.8450  -23.2140 F   0  0  0  0  0  0  0  0  0  0  0  0
   -1.4070   26.1520  -26.0300 C   0  0  0  0  0  0  0  0  0  0  0  0
   -3.4380   23.4270  -30.8440 C   0  0  0  0  0  0  0  0  0  0  0  0
   -4.4000   22.8040  -31.6640 C   0  0  0  0  0  0  0  0  0  0  0  0
   -3.9790   21.6420  -32.4890 C   0  0  0  0  0  0  0  0  0  0  0  0
   -2.7040   21.6160  -33.0770 C   0  0  0  0  0  0  0  0  0  0  0  0
   -2.3010   20.4980  -33.8030 C   0  0  0  0  0  0  0  0  0  0  0  0
   -3.1380   19.4360  -33.9310 N   0  0  0  0  0  0  0  0  0  0  0  0
   -4.3830   19.4140  -33.3750 C   0  0  0  0  0  0  0  0  0  0  0  0
   -5.2140   18.2380  -33.5310 N   0  0  0  0  0  0  0  0  0  0  0  0
   -4.7490   17.1730  -34.4380 C   0  0  0  0  0  0  0  0  0  0  0  0
   -5.4820   15.8610  -34.1540 C   0  0  0  0  0  0  0  0  0  0  0  0
   -6.8810   16.0640  -34.1530 O   0  0  0  0  0  0  0  0  0  0  0  0
   -7.2290   16.8780  -33.0510 C   0  0  0  0  0  0  0  0  0  0  0  0
   -6.6490   18.2940  -33.2030 C   0  0  0  0  0  0  0  0  0  0  0  0
   -4.8180   20.5240  -32.6290 C   0  0  0  0  0  0  0  0  0  0  0  0
   -7.5610   22.2255  -31.8019 H   0  0  0  0  0  0  0  0  0  0  0  0
   -7.3148   23.4175  -33.1230 H   0  0  0  0  0  0  0  0  0  0  0  0
   -6.3958   21.8741  -33.1230 H   0  0  0  0  0  0  0  0  0  0  0  0
   -7.0285   24.9260  -31.0355 H   0  0  0  0  0  0  0  0  0  0  0  0
   -5.2827   26.0518  -29.6698 H   0  0  0  0  0  0  0  0  0  0  0  0
   -0.0179   24.3995  -28.6277 H   0  0  0  0  0  0  0  0  0  0  0  0
    2.0657   25.1521  -27.4949 H   0  0  0  0  0  0  0  0  0  0  0  0
    1.9423   26.5526  -25.4334 H   0  0  0  0  0  0  0  0  0  0  0  0
   -2.3857   26.4028  -25.5949 H   0  0  0  0  0  0  0  0  0  0  0  0
   -2.4207   23.0122  -30.7890 H   0  0  0  0  0  0  0  0  0  0  0  0
   -2.0264   22.4752  -32.9646 H   0  0  0  0  0  0  0  0  0  0  0  0
   -1.3063   20.4750  -34.2721 H   0  0  0  0  0  0  0  0  0  0  0  0
   -4.9406   17.4756  -35.4781 H   0  0  0  0  0  0  0  0  0  0  0  0
   -3.6719   17.0177  -34.2773 H   0  0  0  0  0  0  0  0  0  0  0  0
   -5.2236   15.1267  -34.9312 H   0  0  0  0  0  0  0  0  0  0  0  0
   -5.1762   15.4904  -33.1645 H   0  0  0  0  0  0  0  0  0  0  0  0
   -8.3250   16.9440  -32.9852 H   0  0  0  0  0  0  0  0  0  0  0  0
   -6.8131   16.4265  -32.1383 H   0  0  0  0  0  0  0  0  0  0  0  0
   -7.1832   18.8181  -34.0092 H   0  0  0  0  0  0  0  0  0  0  0  0
   -6.7728   18.8303  -32.2506 H   0  0  0  0  0  0  0  0  0  0  0  0
   -5.8115   20.5168  -32.1569 H   0  0  0  0  0  0  0  0  0  0  0  0
  1  2  1  0
  2  3  2  0
  3  4  1  0
  4  5  2  0
  5  6  1  0
  6  7  1  0
  7  8  2  0
  7  9  1  0
  9 10  2  0
 10 11  1  0
 11 12  2  0
 12 13  1  0
 13 14  1  0
 14 15  1  0
 14 16  1  0
 14 17  1  0
 13 18  2  0
  5 19  1  0
 19 20  2  0
 20 21  1  0
 21 22  2  0
 22 23  1  0
 23 24  2  0
 24 25  1  0
 25 26  1  0
 26 27  1  0
 27 28  1  0
 28 29  1  0
 29 30  1  0
 30 31  1  0
 25 32  2  0
 20  2  1  0
 32 21  1  0
 18  9  1  0
 31 26  1  0
  1 33  1  0
  1 34  1  0
  1 35  1  0
  3 36  1  0
  4 37  1  0
 10 38  1  0
 11 39  1  0
 12 40  1  0
 18 41  1  0
 19 42  1  0
 22 43  1  0
 23 44  1  0
 27 45  1  0
 27 46  1  0
 28 47  1  0
 28 48  1  0
 30 49  1  0
 30 50  1  0
 31 51  1  0
 31 52  1  0
 32 53  1  0
M  CHG  1   6  -1
M  END
>  <UniqueID>  (13) 
13

>  <SMILES>  (13) 
Cc1ccc([N-]C(=O)c2cccc(C(F)(F)F)c2)cc1-c1ccnc(N2CCOCC2)c1

>  <Energy>  (13) 
75.17844257455079

>  <Genealogy>  (13) 
Cc1ccc([N-]C(=O)c2cccc(C(F)(F)F)c2)cc1-c1ccnc(N2CCOCC2)c1 (protonated)
Cc1ccc([N-]C(=O)c2cccc(C(F)(F)F)c2)cc1-c1ccnc(N2CCOCC2)c1 (3D coordinates assigned)
Cc1ccc([N-]C(=O)c2cccc(C(F)(F)F)c2)cc1-c1ccnc(N2CCOCC2)c1 (nonaromatic ring conformer: 75.17844257455079 kcal/mol)

>  <smiles>  (13) 
Cc1ccc(NC(=O)c2cccc(C(F)(F)F)c2)cc1-c1ccnc(N2CCOCC2)c1

>  <score_type>  (13) 
oracle

>  <origin>  (13) 
adgpu

>  <m_score__min__energy>  (13) 
-10.49

>  <m_primary>  (13) 
energy

$$$$
13:0
     RDKit          3D

 33 35  0  0  0  0  0  0  0  0999 V2000
   -4.8860   24.5520  -28.5100 N   0  0  0  0  0  0  0  0  0  0  0  0
   -5.3060   24.8540  -30.1600 S   0  0  0  0  0  0  0  0  0  0  0  0
   -4.2370   25.6910  -30.8040 O   0  0  0  0  0  0  0  0  0  0  0  0
   -6.6050   25.6070  -30.2160 O   0  0  0  0  0  0  0  0  0  0  0  0
   -5.4650   23.3260  -31.0190 C   0  0  0  0  0  0  0  0  0  0  0  0
   -6.7300   22.7570  -31.2170 C   0  0  0  0  0  0  0  0  0  0  0  0
   -6.8570   21.5360  -31.8870 C   0  0  0  0  0  0  0  0  0  0  0  0
   -5.7180   20.8590  -32.3650 C   0  0  0  0  0  0  0  0  0  0  0  0
   -5.8290   19.6000  -33.0600 N   0  0  0  0  0  0  0  0  0  0  0  0
   -5.6860   18.3570  -32.5580 C   0  0  0  0  0  0  0  0  0  0  0  0
   -5.8790   17.4830  -33.6120 C   0  0  0  0  0  0  0  0  0  0  0  0
   -5.8240   16.0020  -33.5860 C   0  0  0  0  0  0  0  0  0  0  0  0
   -6.7920   15.2220  -34.2480 C   0  0  0  0  0  0  0  0  0  0  0  0
   -6.7220   13.8270  -34.2130 C   0  0  0  0  0  0  0  0  0  0  0  0
   -5.6880   13.1920  -33.5210 C   0  0  0  0  0  0  0  0  0  0  0  0
   -4.7220   13.9530  -32.8610 C   0  0  0  0  0  0  0  0  0  0  0  0
   -4.7870   15.3500  -32.8920 C   0  0  0  0  0  0  0  0  0  0  0  0
   -6.1300   18.2140  -34.7170 N   0  0  0  0  0  0  0  0  0  0  0  0
   -6.0930   19.4880  -34.3530 N   0  0  0  0  0  0  0  0  0  0  0  0
   -4.4520   21.4380  -32.1570 C   0  0  0  0  0  0  0  0  0  0  0  0
   -4.3280   22.6580  -31.4870 C   0  0  0  0  0  0  0  0  0  0  0  0
   -5.7130   24.0970  -28.0630 H   0  0  0  0  0  0  0  0  0  0  0  0
   -4.7700   25.4840  -28.0500 H   0  0  0  0  0  0  0  0  0  0  0  0
   -7.6270   23.2729  -30.8439 H   0  0  0  0  0  0  0  0  0  0  0  0
   -7.8551   21.1005  -32.0421 H   0  0  0  0  0  0  0  0  0  0  0  0
   -5.4602   18.0905  -31.5149 H   0  0  0  0  0  0  0  0  0  0  0  0
   -7.6086   15.7144  -34.7963 H   0  0  0  0  0  0  0  0  0  0  0  0
   -7.4837   13.2267  -34.7321 H   0  0  0  0  0  0  0  0  0  0  0  0
   -5.6352   12.0935  -33.4963 H   0  0  0  0  0  0  0  0  0  0  0  0
   -3.9080   13.4533  -32.3154 H   0  0  0  0  0  0  0  0  0  0  0  0
   -4.0220   15.9437  -32.3701 H   0  0  0  0  0  0  0  0  0  0  0  0
   -3.5514   20.9251  -32.5255 H   0  0  0  0  0  0  0  0  0  0  0  0
   -3.3315   23.0955  -31.3267 H   0  0  0  0  0  0  0  0  0  0  0  0
  1  2  1  0
  2  3  2  0
  2  4  2  0
  2  5  1  0
  5  6  2  0
  6  7  1  0
  7  8  2  0
  8  9  1  0
  9 10  1  0
 10 11  2  0
 11 12  1  0
 12 13  2  0
 13 14  1  0
 14 15  2  0
 15 16  1  0
 16 17  2  0
 11 18  1  0
 18 19  2  0
  8 20  1  0
 20 21  2  0
 21  5  1  0
 19  9  1  0
 17 12  1  0
  1 22  1  0
  1 23  1  0
  6 24  1  0
  7 25  1  0
 10 26  1  0
 13 27  1  0
 14 28  1  0
 15 29  1  0
 16 30  1  0
 17 31  1  0
 20 32  1  0
 21 33  1  0
M  END
>  <UniqueID>  (14) 
14

>  <SMILES>  (14) 
NS(=O)(=O)c1ccc(-n2cc(-c3ccccc3)nn2)cc1

>  <Energy>  (14) 
72.95875983932974

>  <Genealogy>  (14) 
NS(=O)(=O)c1ccc(-n2cc(-c3ccccc3)nn2)cc1 (3D coordinates assigned)
NS(=O)(=O)c1ccc(-n2cc(-c3ccccc3)nn2)cc1 (optimized conformer: 72.95875983932974 kcal/mol)

>  <smiles>  (14) 
NS(=O)(=O)c1ccc(-n2cc(-c3ccccc3)nn2)cc1

>  <score_type>  (14) 
oracle

>  <origin>  (14) 
adgpu

>  <m_score__min__energy>  (14) 
-9

>  <m_primary>  (14) 
energy

$$$$
14:0
     RDKit          3D

 51 55  0  0  0  0  0  0  0  0999 V2000
   -1.6160   20.8190  -30.2230 C   0  0  0  0  0  0  0  0  0  0  0  0
   -2.0170   22.1910  -29.7730 C   0  0  0  0  0  0  0  0  0  0  0  0
   -2.8890   23.0440  -30.4260 C   0  0  0  0  0  0  0  0  0  0  0  0
   -3.4930   22.8090  -31.7050 N   0  0  0  0  0  0  0  0  0  0  0  0
   -4.8880   22.8950  -32.0120 C   0  0  0  0  0  0  0  0  0  0  0  0
   -5.4830   24.0070  -31.9700 O   0  0  0  0  0  0  0  0  0  0  0  0
   -5.6240   21.6680  -32.3900 C   0  0  0  0  0  0  0  0  0  0  0  0
   -4.8890   20.6150  -32.9580 C   0  0  0  0  0  0  0  0  0  0  0  0
   -5.5380   19.4500  -33.3930 C   0  0  0  0  0  0  0  0  0  0  0  0
   -4.8010   18.3260  -34.0040 C   0  0  0  0  0  0  0  0  0  0  0  0
   -5.3090   17.0910  -34.3730 C   0  0  0  0  0  0  0  0  0  0  0  0
   -4.2440   16.3910  -34.8940 C   0  0  0  0  0  0  0  0  0  0  0  0
   -3.1540   17.2330  -34.8140 C   0  0  0  0  0  0  0  0  0  0  0  0
   -3.5170   18.3750  -34.2810 O   0  0  0  0  0  0  0  0  0  0  0  0
   -6.8850   19.3470  -33.2540 N   0  0  0  0  0  0  0  0  0  0  0  0
   -7.6370   20.3280  -32.6950 C   0  0  0  0  0  0  0  0  0  0  0  0
   -9.0190   20.1440  -32.5670 C   0  0  0  0  0  0  0  0  0  0  0  0
   -9.8040   21.1240  -31.9610 C   0  0  0  0  0  0  0  0  0  0  0  0
   -9.2130   22.2890  -31.4710 C   0  0  0  0  0  0  0  0  0  0  0  0
   -7.8350   22.4880  -31.5950 C   0  0  0  0  0  0  0  0  0  0  0  0
   -7.0260   21.5200  -32.2300 C   0  0  0  0  0  0  0  0  0  0  0  0
   -2.9000   24.1950  -29.6600 C   0  0  0  0  0  0  0  0  0  0  0  0
   -3.4900   25.2720  -29.9390 O   0  0  0  0  0  0  0  0  0  0  0  0
   -2.1020   24.0230  -28.5870 N   0  0  0  0  0  0  0  0  0  0  0  0
   -1.8120   25.0160  -27.5910 C   0  0  0  0  0  0  0  0  0  0  0  0
   -0.7880   25.9520  -27.8050 C   0  0  0  0  0  0  0  0  0  0  0  0
   -0.4980   26.9110  -26.8300 C   0  0  0  0  0  0  0  0  0  0  0  0
   -1.2180   26.9310  -25.6320 C   0  0  0  0  0  0  0  0  0  0  0  0
   -2.2280   25.9930  -25.4060 C   0  0  0  0  0  0  0  0  0  0  0  0
   -2.5270   25.0390  -26.3830 C   0  0  0  0  0  0  0  0  0  0  0  0
   -1.5750   22.8010  -28.6460 N   0  0  0  0  0  0  0  0  0  0  0  0
   -0.6470   22.2300  -27.6660 C   0  0  0  0  0  0  0  0  0  0  0  0
   -1.4305   20.1844  -29.3439 H   0  0  0  0  0  0  0  0  0  0  0  0
   -2.4236   20.3808  -30.8277 H   0  0  0  0  0  0  0  0  0  0  0  0
   -0.6995   20.8847  -30.8277 H   0  0  0  0  0  0  0  0  0  0  0  0
   -3.7976   20.7042  -33.0625 H   0  0  0  0  0  0  0  0  0  0  0  0
   -6.3472   16.7422  -34.2710 H   0  0  0  0  0  0  0  0  0  0  0  0
   -4.2591   15.3663  -35.2937 H   0  0  0  0  0  0  0  0  0  0  0  0
   -2.1354   16.9843  -35.1467 H   0  0  0  0  0  0  0  0  0  0  0  0
   -9.4869   19.2234  -32.9457 H   0  0  0  0  0  0  0  0  0  0  0  0
  -10.8905   20.9785  -31.8691 H   0  0  0  0  0  0  0  0  0  0  0  0
   -9.8348   23.0550  -30.9845 H   0  0  0  0  0  0  0  0  0  0  0  0
   -7.3775   23.4050  -31.1952 H   0  0  0  0  0  0  0  0  0  0  0  0
   -0.2124   25.9308  -28.7421 H   0  0  0  0  0  0  0  0  0  0  0  0
    0.2973   27.6503  -27.0057 H   0  0  0  0  0  0  0  0  0  0  0  0
   -0.9888   27.6866  -24.8661 H   0  0  0  0  0  0  0  0  0  0  0  0
   -2.7880   26.0050  -24.4593 H   0  0  0  0  0  0  0  0  0  0  0  0
   -3.3254   24.3036  -26.2047 H   0  0  0  0  0  0  0  0  0  0  0  0
   -1.0055   22.4506  -26.6497 H   0  0  0  0  0  0  0  0  0  0  0  0
   -0.5901   21.1405  -27.8063 H   0  0  0  0  0  0  0  0  0  0  0  0
    0.3512   22.6704  -27.8063 H   0  0  0  0  0  0  0  0  0  0  0  0
  1  2  1  0
  2  3  2  0
  3  4  1  0
  4  5  1  0
  5  6  2  0
  5  7  1  0
  7  8  2  0
  8  9  1  0
  9 10  1  0
 10 11  2  0
 11 12  1  0
 12 13  2  0
 13 14  1  0
  9 15  2  0
 15 16  1  0
 16 17  2  0
 17 18  1  0
 18 19  2  0
 19 20  1  0
 20 21  2  0
  3 22  1  0
 22 23  2  0
 22 24  1  0
 24 25  1  0
 25 26  2  0
 26 27  1  0
 27 28  2  0
 28 29  1  0
 29 30  2  0
 24 31  1  0
 31 32  1  0
 31  2  1  0
 21  7  1  0
 30 25  1  0
 14 10  1  0
 21 16  1  0
  1 33  1  0
  1 34  1  0
  1 35  1  0
  8 36  1  0
 11 37  1  0
 12 38  1  0
 13 39  1  0
 17 40  1  0
 18 41  1  0
 19 42  1  0
 20 43  1  0
 26 44  1  0
 27 45  1  0
 28 46  1  0
 29 47  1  0
 30 48  1  0
 32 49  1  0
 32 50  1  0
 32 51  1  0
M  CHG  1   4  -1
M  END
>  <UniqueID>  (15) 
15

>  <SMILES>  (15) 
Cc1c([N-]C(=O)c2cc(-c3ccco3)nc3ccccc23)c(=O)n(-c2ccccc2)n1C

>  <Energy>  (15) 
138.05594974398457

>  <Genealogy>  (15) 
Cc1c([N-]C(=O)c2cc(-c3ccco3)nc3ccccc23)c(=O)n(-c2ccccc2)n1C (protonated)
Cc1c([N-]C(=O)c2cc(-c3ccco3)nc3ccccc23)c(=O)n(-c2ccccc2)n1C (3D coordinates assigned)
Cc1c([N-]C(=O)c2cc(-c3ccco3)nc3ccccc23)c(=O)n(-c2ccccc2)n1C (optimized conformer: 138.05594974398457 kcal/mol)

>  <smiles>  (15) 
Cc1c(NC(=O)c2cc(-c3ccco3)nc3ccccc23)c(=O)n(-c2ccccc2)n1C

>  <score_type>  (15) 
oracle

>  <origin>  (15) 
adgpu

>  <m_score__min__energy>  (15) 
-11.17

>  <m_primary>  (15) 
energy

$$$$
15:0
     RDKit          3D

 40 42  0  0  0  0  0  0  0  0999 V2000
   -2.1240   25.2970  -29.2250 N   0  0  0  0  0  0  0  0  0  0  0  0
   -3.4790   24.4580  -29.8960 S   0  0  0  0  0  0  0  0  0  0  0  0
   -4.3870   24.0300  -28.7780 O   0  0  0  0  0  0  0  0  0  0  0  0
   -4.2190   25.3870  -30.8170 O   0  0  0  0  0  0  0  0  0  0  0  0
   -2.9520   23.0300  -30.7960 C   0  0  0  0  0  0  0  0  0  0  0  0
   -1.6880   22.4720  -30.5410 C   0  0  0  0  0  0  0  0  0  0  0  0
   -1.2600   21.3450  -31.2460 C   0  0  0  0  0  0  0  0  0  0  0  0
   -2.0880   20.7640  -32.2050 C   0  0  0  0  0  0  0  0  0  0  0  0
   -3.3480   21.3050  -32.4650 C   0  0  0  0  0  0  0  0  0  0  0  0
   -3.7940   22.4430  -31.7640 C   0  0  0  0  0  0  0  0  0  0  0  0
   -5.0860   23.0180  -32.0140 N   0  0  0  0  0  0  0  0  0  0  0  0
   -6.6030   22.2020  -31.8300 S   0  0  0  0  0  0  0  0  0  0  0  0
   -7.6280   22.8570  -32.7110 O   0  0  0  0  0  0  0  0  0  0  0  0
   -7.0530   22.3100  -30.4010 O   0  0  0  0  0  0  0  0  0  0  0  0
   -6.4110   20.5000  -32.2400 C   0  0  0  0  0  0  0  0  0  0  0  0
   -6.6260   20.0770  -33.5560 C   0  0  0  0  0  0  0  0  0  0  0  0
   -6.4920   18.7270  -33.8930 C   0  0  0  0  0  0  0  0  0  0  0  0
   -6.1410   17.7790  -32.9150 C   0  0  0  0  0  0  0  0  0  0  0  0
   -6.0020   16.3440  -33.2700 C   0  0  0  0  0  0  0  0  0  0  0  0
   -6.8880   15.7440  -34.1850 C   0  0  0  0  0  0  0  0  0  0  0  0
   -6.7560   14.3910  -34.5160 C   0  0  0  0  0  0  0  0  0  0  0  0
   -5.7410   13.6220  -33.9380 C   0  0  0  0  0  0  0  0  0  0  0  0
   -5.5790   11.9260  -34.3530 Cl  0  0  0  0  0  0  0  0  0  0  0  0
   -4.8560   14.2080  -33.0300 C   0  0  0  0  0  0  0  0  0  0  0  0
   -4.9820   15.5600  -32.6970 C   0  0  0  0  0  0  0  0  0  0  0  0
   -5.9250   18.2120  -31.5950 C   0  0  0  0  0  0  0  0  0  0  0  0
   -6.0580   19.5640  -31.2600 C   0  0  0  0  0  0  0  0  0  0  0  0
   -1.5760   25.6890  -30.0240 H   0  0  0  0  0  0  0  0  0  0  0  0
   -1.0325   22.9249  -29.7826 H   0  0  0  0  0  0  0  0  0  0  0  0
   -0.2678   20.9151  -31.0441 H   0  0  0  0  0  0  0  0  0  0  0  0
   -1.7474   19.8765  -32.7585 H   0  0  0  0  0  0  0  0  0  0  0  0
   -3.9969   20.8401  -33.2218 H   0  0  0  0  0  0  0  0  0  0  0  0
   -6.9016   20.8097  -34.3288 H   0  0  0  0  0  0  0  0  0  0  0  0
   -6.6623   18.4037  -34.9305 H   0  0  0  0  0  0  0  0  0  0  0  0
   -7.6892   16.3428  -34.6426 H   0  0  0  0  0  0  0  0  0  0  0  0
   -7.4523   13.9310  -35.2326 H   0  0  0  0  0  0  0  0  0  0  0  0
   -4.0572   13.6037  -32.5754 H   0  0  0  0  0  0  0  0  0  0  0  0
   -4.2797   16.0144  -31.9826 H   0  0  0  0  0  0  0  0  0  0  0  0
   -5.6493   17.4822  -30.8195 H   0  0  0  0  0  0  0  0  0  0  0  0
   -5.8849   19.8924  -30.2245 H   0  0  0  0  0  0  0  0  0  0  0  0
  1  2  1  0
  2  3  2  0
  2  4  2  0
  2  5  1  0
  5  6  2  0
  6  7  1  0
  7  8  2  0
  8  9  1  0
  9 10  2  0
 10 11  1  0
 11 12  1  0
 12 13  2  0
 12 14  2  0
 12 15  1  0
 15 16  2  0
 16 17  1  0
 17 18  2  0
 18 19  1  0
 19 20  2  0
 20 21  1  0
 21 22  2  0
 22 23  1  0
 22 24  1  0
 24 25  2  0
 18 26  1  0
 26 27  2  0
 10  5  1  0
 27 15  1  0
 25 19  1  0
  1 28  1  0
  6 29  1  0
  7 30  1  0
  8 31  1  0
  9 32  1  0
 16 33  1  0
 17 34  1  0
 20 35  1  0
 21 36  1  0
 24 37  1  0
 25 38  1  0
 26 39  1  0
 27 40  1  0
M  CHG  2   1  -1  11  -1
M  END
>  <UniqueID>  (16) 
16

>  <SMILES>  (16) 
[NH-]S(=O)(=O)c1ccccc1[N-]S(=O)(=O)c1ccc(-c2ccc(Cl)cc2)cc1

>  <Energy>  (16) 
51.90078840380747

>  <Genealogy>  (16) 
[NH-]S(=O)(=O)c1ccccc1[N-]S(=O)(=O)c1ccc(-c2ccc(Cl)cc2)cc1 (protonated)
[NH-]S(=O)(=O)c1ccccc1[N-]S(=O)(=O)c1ccc(-c2ccc(Cl)cc2)cc1 (3D coordinates assigned)
[NH-]S(=O)(=O)c1ccccc1[N-]S(=O)(=O)c1ccc(-c2ccc(Cl)cc2)cc1 (optimized conformer: 51.90078840380747 kcal/mol)

>  <smiles>  (16) 
NS(=O)(=O)c1ccccc1NS(=O)(=O)c1ccc(-c2ccc(Cl)cc2)cc1

>  <score_type>  (16) 
oracle

>  <origin>  (16) 
adgpu

>  <m_score__min__energy>  (16) 
-12.91

>  <m_primary>  (16) 
energy

$$$$
16:0
     RDKit          3D

 65 69  0  0  0  0  0  0  0  0999 V2000
   -3.1701   20.1875  -26.2393 H   0  0  0  0  0  0  0  0  0  0  0  0
   -2.7790   20.4660  -27.2290 C   0  0  0  0  0  0  0  0  0  0  0  0
   -1.8640   19.6730  -27.8460 N   0  0  0  0  0  0  0  0  0  0  0  0
   -1.3610   20.0040  -29.0630 C   0  0  0  0  0  0  0  0  0  0  0  0
   -0.4950   19.2160  -29.6300 N   0  0  0  0  0  0  0  0  0  0  0  0
    0.1290   19.4930  -30.8910 C   0  0  0  0  0  0  0  0  0  0  0  0
   -0.6580   19.9280  -31.9600 C   0  0  0  0  0  0  0  0  0  0  0  0
   -1.7455   20.0323  -31.8313 H   0  0  0  0  0  0  0  0  0  0  0  0
   -0.0730   20.2310  -33.1900 C   0  0  0  0  0  0  0  0  0  0  0  0
   -0.7013   20.5837  -34.0212 H   0  0  0  0  0  0  0  0  0  0  0  0
    1.3130   20.0890  -33.3750 C   0  0  0  0  0  0  0  0  0  0  0  0
    1.9250   20.4360  -34.6370 N   0  0  0  0  0  0  0  0  0  0  0  0
    1.2690   20.0810  -35.9010 C   0  0  0  0  0  0  0  0  0  0  0  0
    0.7153   19.1393  -35.7717 H   0  0  0  0  0  0  0  0  0  0  0  0
    0.5760   20.8864  -36.1858 H   0  0  0  0  0  0  0  0  0  0  0  0
    2.3150   19.9060  -37.0050 C   0  0  0  0  0  0  0  0  0  0  0  0
    2.9837   19.0766  -36.7313 H   0  0  0  0  0  0  0  0  0  0  0  0
    1.7826   19.6975  -37.9447 H   0  0  0  0  0  0  0  0  0  0  0  0
    3.1270   21.1270  -37.2040 N   0  0  0  0  0  0  0  0  0  0  0  0
    4.3780   20.8000  -37.9030 C   0  0  0  0  0  0  0  0  0  0  0  0
    5.1672   20.5937  -37.1651 H   0  0  0  0  0  0  0  0  0  0  0  0
    4.2244   19.9118  -38.5335 H   0  0  0  0  0  0  0  0  0  0  0  0
    4.6786   21.6497  -38.5335 H   0  0  0  0  0  0  0  0  0  0  0  0
    3.3810   21.9120  -35.9680 C   0  0  0  0  0  0  0  0  0  0  0  0
    4.4040   22.3135  -36.0143 H   0  0  0  0  0  0  0  0  0  0  0  0
    2.6227   22.7078  -35.9279 H   0  0  0  0  0  0  0  0  0  0  0  0
    3.2400   21.0870  -34.6800 C   0  0  0  0  0  0  0  0  0  0  0  0
    4.0269   20.3189  -34.6524 H   0  0  0  0  0  0  0  0  0  0  0  0
    3.3381   21.7560  -33.8124 H   0  0  0  0  0  0  0  0  0  0  0  0
    2.0970   19.6120  -32.3090 C   0  0  0  0  0  0  0  0  0  0  0  0
    3.1806   19.4826  -32.4468 H   0  0  0  0  0  0  0  0  0  0  0  0
    1.5110   19.2980  -31.0670 C   0  0  0  0  0  0  0  0  0  0  0  0
    2.2620   18.7830  -29.9990 O   0  0  0  0  0  0  0  0  0  0  0  0
    2.0240   17.5230  -29.3780 C   0  0  0  0  0  0  0  0  0  0  0  0
    2.0467   17.6429  -28.2848 H   0  0  0  0  0  0  0  0  0  0  0  0
    1.0383   17.1433  -29.6849 H   0  0  0  0  0  0  0  0  0  0  0  0
    2.8033   16.8099  -29.6849 H   0  0  0  0  0  0  0  0  0  0  0  0
   -1.7930   21.1350  -29.6870 N   0  0  0  0  0  0  0  0  0  0  0  0
   -2.7230   21.9490  -29.1200 C   0  0  0  0  0  0  0  0  0  0  0  0
   -3.1740   23.1560  -29.8460 C   0  0  0  0  0  0  0  0  0  0  0  0
   -4.0570   23.2610  -30.9140 C   0  0  0  0  0  0  0  0  0  0  0  0
   -4.6650   22.1680  -31.7010 C   0  0  0  0  0  0  0  0  0  0  0  0
   -6.0610   22.0850  -31.8150 C   0  0  0  0  0  0  0  0  0  0  0  0
   -6.6954   22.8305  -31.3133 H   0  0  0  0  0  0  0  0  0  0  0  0
   -6.6510   21.0610  -32.5620 C   0  0  0  0  0  0  0  0  0  0  0  0
   -7.7467   20.9968  -32.6342 H   0  0  0  0  0  0  0  0  0  0  0  0
   -5.8480   20.1120  -33.2220 C   0  0  0  0  0  0  0  0  0  0  0  0
   -6.3880   19.0620  -33.9770 O   0  0  0  0  0  0  0  0  0  0  0  0
   -6.1190   17.6840  -33.7400 C   0  0  0  0  0  0  0  0  0  0  0  0
   -6.0828   17.4986  -32.6563 H   0  0  0  0  0  0  0  0  0  0  0  0
   -6.9147   17.0724  -34.1903 H   0  0  0  0  0  0  0  0  0  0  0  0
   -5.1517   17.4165  -34.1903 H   0  0  0  0  0  0  0  0  0  0  0  0
   -4.4560   20.2140  -33.1300 C   0  0  0  0  0  0  0  0  0  0  0  0
   -3.8200   19.4827  -33.6503 H   0  0  0  0  0  0  0  0  0  0  0  0
   -3.8660   21.2380  -32.3820 C   0  0  0  0  0  0  0  0  0  0  0  0
   -2.7700   21.3143  -32.3276 H   0  0  0  0  0  0  0  0  0  0  0  0
   -4.2470   24.5630  -31.2080 N   0  0  0  0  0  0  0  0  0  0  0  0
   -3.5150   25.2970  -30.3840 N   0  0  0  0  0  0  0  0  0  0  0  0
   -2.8520   24.4710  -29.5530 C   0  0  0  0  0  0  0  0  0  0  0  0
   -1.9550   24.9490  -28.4600 C   0  0  0  0  0  0  0  0  0  0  0  0
   -2.4049   24.7093  -27.4852 H   0  0  0  0  0  0  0  0  0  0  0  0
   -0.9771   24.4524  -28.5446 H   0  0  0  0  0  0  0  0  0  0  0  0
   -1.8219   26.0376  -28.5446 H   0  0  0  0  0  0  0  0  0  0  0  0
   -3.2220   21.6330  -27.8510 C   0  0  0  0  0  0  0  0  0  0  0  0
   -3.9492   22.2921  -27.3542 H   0  0  0  0  0  0  0  0  0  0  0  0
  1  2  1  0
  2  3  1  0
  3  4  1  0
  4  5  2  0
  5  6  1  0
  6  7  2  0
  7  8  1  0
  7  9  1  0
  9 10  1  0
  9 11  2  0
 11 12  1  0
 12 13  1  0
 13 14  1  0
 13 15  1  0
 13 16  1  0
 16 17  1  0
 16 18  1  0
 16 19  1  0
 19 20  1  0
 20 21  1  0
 20 22  1  0
 20 23  1  0
 19 24  1  0
 24 25  1  0
 24 26  1  0
 24 27  1  0
 27 28  1  0
 27 29  1  0
 11 30  1  0
 30 31  1  0
 30 32  2  0
 32 33  1  0
 33 34  1  0
 34 35  1  0
 34 36  1  0
 34 37  1  0
  4 38  1  0
 38 39  2  0
 39 40  1  0
 40 41  1  0
 41 42  1  0
 42 43  2  0
 43 44  1  0
 43 45  1  0
 45 46  1  0
 45 47  2  0
 47 48  1  0
 48 49  1  0
 49 50  1  0
 49 51  1  0
 49 52  1  0
 47 53  1  0
 53 54  1  0
 53 55  2  0
 55 56  1  0
 41 57  2  0
 57 58  1  0
 58 59  1  0
 59 60  1  0
 60 61  1  0
 60 62  1  0
 60 63  1  0
 39 64  1  0
 64 65  1  0
 64  2  2  0
 32  6  1  0
 59 40  2  0
 27 12  1  0
 55 42  1  0
M  CHG  2   3  -1  58  -1
M  END
>  <UniqueID>  (17) 
17

>  <SMILES>  (17) 
COc1ccc(-c2n[n-]c(C)c2-c2cc[n-]/c(=N/c3ccc(N4CCN(C)CC4)cc3OC)n2)cc1

>  <Energy>  (17) 
122.0249829540847

>  <Genealogy>  (17) 
COc1ccc(-c2n[n-]c(C)c2-c2cc[n-]c(=Nc3ccc(N4CCN(C)CC4)cc3OC)n2)cc1 (protonated)
COc1ccc(-c2n[n-]c(C)c2-c2cc[n-]/c(=N/c3ccc(N4CCN(C)CC4)cc3OC)n2)cc1 (cis-trans isomerization)
COc1ccc(-c2n[n-]c(C)c2-c2cc[n-]/c(=N/c3ccc(N4CCN(C)CC4)cc3OC)n2)cc1 (3D coordinates assigned)
COc1ccc(-c2n[n-]c(C)c2-c2cc[n-]/c(=N/c3ccc(N4CCN(C)CC4)cc3OC)n2)cc1 (nonaromatic ring conformer: 122.0249829540847 kcal/mol)

>  <smiles>  (17) 
COc1ccc(-c2n[nH]c(C)c2-c2cc[nH]c(=Nc3ccc(N4CCN(C)CC4)cc3OC)n2)cc1

>  <score_type>  (17) 
oracle

>  <origin>  (17) 
adgpu

>  <m_score__min__energy>  (17) 
-9.9900000000000002

>  <m_primary>  (17) 
energy

$$$$
17:0
     RDKit          3D

 23 24  0  0  0  0  0  0  0  0999 V2000
   -3.6140   24.8300  -30.7990 O   0  0  0  0  0  0  0  0  0  0  0  0
   -3.6470   24.1770  -29.7210 C   0  0  0  0  0  0  0  0  0  0  0  0
   -4.5180   23.0410  -29.5920 N   0  0  0  0  0  0  0  0  0  0  0  0
   -5.5960   22.7650  -30.5030 C   0  0  0  0  0  0  0  0  0  0  0  0
   -5.5970   21.5860  -31.2730 C   0  0  0  0  0  0  0  0  0  0  0  0
   -6.6300   21.3310  -32.1780 C   0  0  0  0  0  0  0  0  0  0  0  0
   -7.6680   22.2520  -32.3340 C   0  0  0  0  0  0  0  0  0  0  0  0
   -7.6720   23.4320  -31.5870 C   0  0  0  0  0  0  0  0  0  0  0  0
   -6.6400   23.6970  -30.6780 C   0  0  0  0  0  0  0  0  0  0  0  0
   -6.7050   25.1880  -29.7460 Cl  0  0  0  0  0  0  0  0  0  0  0  0
   -2.7540   24.5790  -28.6220 C   0  0  0  0  0  0  0  0  0  0  0  0
   -2.5630   23.9140  -27.4230 C   0  0  0  0  0  0  0  0  0  0  0  0
   -1.6490   24.6670  -26.7180 C   0  0  0  0  0  0  0  0  0  0  0  0
   -1.3420   25.7400  -27.5280 C   0  0  0  0  0  0  0  0  0  0  0  0
   -0.1250   27.1430  -27.0970 Br  0  0  0  0  0  0  0  0  0  0  0  0
   -2.0130   25.6640  -28.6520 O   0  0  0  0  0  0  0  0  0  0  0  0
   -4.3160   22.3430  -28.8420 H   0  0  0  0  0  0  0  0  0  0  0  0
   -4.7780   20.8603  -31.1609 H   0  0  0  0  0  0  0  0  0  0  0  0
   -6.6258   20.4031  -32.7688 H   0  0  0  0  0  0  0  0  0  0  0  0
   -8.4822   22.0482  -33.0450 H   0  0  0  0  0  0  0  0  0  0  0  0
   -8.4897   24.1569  -31.7132 H   0  0  0  0  0  0  0  0  0  0  0  0
   -3.0418   22.9779  -27.0997 H   0  0  0  0  0  0  0  0  0  0  0  0
   -1.2473   24.4557  -25.7160 H   0  0  0  0  0  0  0  0  0  0  0  0
  1  2  2  0
  2  3  1  0
  3  4  1  0
  4  5  2  0
  5  6  1  0
  6  7  2  0
  7  8  1  0
  8  9  2  0
  9 10  1  0
  2 11  1  0
 11 12  2  0
 12 13  1  0
 13 14  2  0
 14 15  1  0
 14 16  1  0
  9  4  1  0
 16 11  1  0
  3 17  1  0
  5 18  1  0
  6 19  1  0
  7 20  1  0
  8 21  1  0
 12 22  1  0
 13 23  1  0
M  END
>  <UniqueID>  (18) 
18

>  <SMILES>  (18) 
O=C(Nc1ccccc1Cl)c1ccc(Br)o1

>  <Energy>  (18) 
53.655759968841295

>  <Genealogy>  (18) 
O=C(Nc1ccccc1Cl)c1ccc(Br)o1 (3D coordinates assigned)
O=C(Nc1ccccc1Cl)c1ccc(Br)o1 (optimized conformer: 53.655759968841295 kcal/mol)

>  <smiles>  (18) 
O=C(Nc1ccccc1Cl)c1ccc(Br)o1

>  <score_type>  (18) 
oracle

>  <origin>  (18) 
adgpu

>  <m_score__min__energy>  (18) 
-7.0300000000000002

>  <m_primary>  (18) 
energy

$$$$
18:0
     RDKit          3D

 22 22  0  0  0  0  0  0  0  0999 V2000
   -9.1230   19.4750  -32.3300 C   0  0  0  0  0  0  0  0  0  0  0  0
   -8.1830   20.4240  -31.5890 C   0  0  0  0  0  0  0  0  0  0  0  0
   -8.5430   21.9060  -31.7870 C   0  0  0  0  0  0  0  0  0  0  0  0
   -7.6070   22.9090  -31.0850 C   0  0  0  0  0  0  0  0  0  0  0  0
   -6.6240   23.6190  -32.0350 C   0  0  0  0  0  0  0  0  0  0  0  0
   -5.3700   24.0470  -31.3370 C   0  0  0  0  0  0  0  0  0  0  0  0
   -5.0240   25.3310  -31.1200 N   0  0  0  0  0  0  0  0  0  0  0  0
   -3.8630   25.3020  -30.4830 N   0  0  0  0  0  0  0  0  0  0  0  0
   -3.5550   24.0010  -30.3360 C   0  0  0  0  0  0  0  0  0  0  0  0
   -2.2000   23.4620  -29.6030 S   0  0  0  0  0  0  0  0  0  0  0  0
   -4.4730   23.2220  -30.8530 O   0  0  0  0  0  0  0  0  0  0  0  0
   -9.7027   18.8898  -31.6010 H   0  0  0  0  0  0  0  0  0  0  0  0
   -9.8097   20.0580  -32.9613 H   0  0  0  0  0  0  0  0  0  0  0  0
   -8.5335   18.7939  -32.9613 H   0  0  0  0  0  0  0  0  0  0  0  0
   -8.2282   20.1933  -30.5144 H   0  0  0  0  0  0  0  0  0  0  0  0
   -7.1739   20.2737  -32.0003 H   0  0  0  0  0  0  0  0  0  0  0  0
   -8.5229   22.1197  -32.8659 H   0  0  0  0  0  0  0  0  0  0  0  0
   -9.5342   22.0426  -31.3299 H   0  0  0  0  0  0  0  0  0  0  0  0
   -8.2259   23.6737  -30.5930 H   0  0  0  0  0  0  0  0  0  0  0  0
   -6.9999   22.3323  -30.3717 H   0  0  0  0  0  0  0  0  0  0  0  0
   -6.3580   22.9291  -32.8494 H   0  0  0  0  0  0  0  0  0  0  0  0
   -7.1203   24.5219  -32.4203 H   0  0  0  0  0  0  0  0  0  0  0  0
  1  2  1  0
  2  3  1  0
  3  4  1  0
  4  5  1  0
  5  6  1  0
  6  7  2  0
  7  8  1  0
  8  9  1  0
  9 10  2  0
  9 11  1  0
 11  6  1  0
  1 12  1  0
  1 13  1  0
  1 14  1  0
  2 15  1  0
  2 16  1  0
  3 17  1  0
  3 18  1  0
  4 19  1  0
  4 20  1  0
  5 21  1  0
  5 22  1  0
M  CHG  1   8  -1
M  END
>  <UniqueID>  (19) 
19

>  <SMILES>  (19) 
CCCCCc1n[n-]c(=S)o1

>  <Energy>  (19) 
47.76370347852715

>  <Genealogy>  (19) 
CCCCCc1n[n-]c(=S)o1 (protonated)
CCCCCc1n[n-]c(=S)o1 (3D coordinates assigned)
CCCCCc1n[n-]c(=S)o1 (optimized conformer: 47.76370347852715 kcal/mol)

>  <smiles>  (19) 
CCCCCc1n[nH]c(=S)o1

>  <score_type>  (19) 
oracle

>  <origin>  (19) 
adgpu

>  <m_score__min__energy>  (19) 
-6.8200000000000003

>  <m_primary>  (19) 
energy

$$$$
19:0
     RDKit          3D

 54 56  0  0  0  0  0  0  0  0999 V2000
   -9.4430   20.1020  -32.3420 C   0  0  0  0  0  0  0  0  0  0  0  0
   -8.8650   18.8940  -31.6040 C   0  0  0  0  0  0  0  0  0  0  0  0
   -7.3440   18.7520  -31.8030 C   0  0  0  0  0  0  0  0  0  0  0  0
   -6.8350   19.3530  -33.1270 C   0  0  0  0  0  0  0  0  0  0  0  0
   -5.4540   20.0280  -33.0190 C   0  0  0  0  0  0  0  0  0  0  0  0
   -5.5380   21.4380  -32.4620 C   0  0  0  0  0  0  0  0  0  0  0  0
   -6.7220   22.1620  -32.6830 C   0  0  0  0  0  0  0  0  0  0  0  0
   -6.8760   23.4570  -32.1910 C   0  0  0  0  0  0  0  0  0  0  0  0
   -5.8550   24.0580  -31.4390 C   0  0  0  0  0  0  0  0  0  0  0  0
   -5.9780   25.3530  -30.9120 O   0  0  0  0  0  0  0  0  0  0  0  0
   -6.1660   25.6480  -29.5320 C   0  0  0  0  0  0  0  0  0  0  0  0
   -4.6760   23.3460  -31.1910 C   0  0  0  0  0  0  0  0  0  0  0  0
   -4.4850   22.0440  -31.7280 C   0  0  0  0  0  0  0  0  0  0  0  0
   -3.1700   21.3150  -31.4620 C   0  0  0  0  0  0  0  0  0  0  0  0
   -2.0540   22.2980  -31.0530 C   0  0  1  0  0  0  0  0  0  0  0  0
   -2.5930   23.1660  -29.9100 C   0  0  1  0  0  0  0  0  0  0  0  0
   -1.4810   24.0340  -29.3430 C   0  0  0  0  0  0  0  0  0  0  0  0
   -0.3620   23.1560  -28.7330 C   0  0  0  0  0  0  0  0  0  0  0  0
   -0.2820   21.7760  -29.2900 N   0  0  0  0  0  0  0  0  0  0  0  0
   -0.9180   20.7470  -28.4400 C   0  0  0  0  0  0  0  0  0  0  0  0
   -0.6420   21.6980  -30.7300 C   0  0  1  0  0  0  0  0  0  0  0  0
   -0.3820   20.3010  -31.3230 C   0  0  0  0  0  0  0  0  0  0  0  0
   -3.6760   23.9440  -30.4080 O   0  0  0  0  0  0  0  0  0  0  0  0
   -9.7976   20.8432  -31.6107 H   0  0  0  0  0  0  0  0  0  0  0  0
   -8.6634   20.5536  -32.9731 H   0  0  0  0  0  0  0  0  0  0  0  0
  -10.2838   19.7783  -32.9731 H   0  0  0  0  0  0  0  0  0  0  0  0
   -9.0710   19.0058  -30.5293 H   0  0  0  0  0  0  0  0  0  0  0  0
   -9.3411   17.9920  -32.0160 H   0  0  0  0  0  0  0  0  0  0  0  0
   -6.8356   19.2623  -30.9716 H   0  0  0  0  0  0  0  0  0  0  0  0
   -7.1223   17.6750  -31.8321 H   0  0  0  0  0  0  0  0  0  0  0  0
   -6.7679   18.5450  -33.8704 H   0  0  0  0  0  0  0  0  0  0  0  0
   -7.5505   20.1367  -33.4166 H   0  0  0  0  0  0  0  0  0  0  0  0
   -4.8171   19.4241  -32.3559 H   0  0  0  0  0  0  0  0  0  0  0  0
   -5.0339   20.0938  -34.0335 H   0  0  0  0  0  0  0  0  0  0  0  0
   -7.5406   21.6991  -33.2536 H   0  0  0  0  0  0  0  0  0  0  0  0
   -7.8041   24.0116  -32.3936 H   0  0  0  0  0  0  0  0  0  0  0  0
   -5.6741   24.8762  -28.9217 H   0  0  0  0  0  0  0  0  0  0  0  0
   -5.7271   26.6306  -29.3040 H   0  0  0  0  0  0  0  0  0  0  0  0
   -7.2420   25.6652  -29.3040 H   0  0  0  0  0  0  0  0  0  0  0  0
   -3.3217   20.5880  -30.6505 H   0  0  0  0  0  0  0  0  0  0  0  0
   -2.8620   20.8077  -32.3882 H   0  0  0  0  0  0  0  0  0  0  0  0
   -1.8258   22.8915  -31.9506 H   0  0  0  0  0  0  0  0  0  0  0  0
   -2.9605   22.5370  -29.0858 H   0  0  0  0  0  0  0  0  0  0  0  0
   -1.0574   24.6511  -30.1491 H   0  0  0  0  0  0  0  0  0  0  0  0
   -1.8993   24.6749  -28.5529 H   0  0  0  0  0  0  0  0  0  0  0  0
    0.6018   23.6548  -28.9129 H   0  0  0  0  0  0  0  0  0  0  0  0
   -0.5992   23.0472  -27.6644 H   0  0  0  0  0  0  0  0  0  0  0  0
   -0.7622   20.9990  -27.3806 H   0  0  0  0  0  0  0  0  0  0  0  0
   -1.9965   20.7104  -28.6535 H   0  0  0  0  0  0  0  0  0  0  0  0
   -0.4685   19.7660  -28.6535 H   0  0  0  0  0  0  0  0  0  0  0  0
    0.0502   22.3656  -31.2640 H   0  0  0  0  0  0  0  0  0  0  0  0
   -0.2470   19.5757  -30.5071 H   0  0  0  0  0  0  0  0  0  0  0  0
   -1.2396   20.0003  -31.9428 H   0  0  0  0  0  0  0  0  0  0  0  0
    0.5264   20.3290  -31.9428 H   0  0  0  0  0  0  0  0  0  0  0  0
  1  2  1  0
  2  3  1  0
  3  4  1  0
  4  5  1  0
  5  6  1  0
  6  7  2  0
  7  8  1  0
  8  9  2  0
  9 10  1  0
 10 11  1  0
  9 12  1  0
 12 13  2  0
 13 14  1  0
 14 15  1  0
 15 16  1  0
 16 17  1  0
 17 18  1  0
 18 19  1  0
 19 20  1  0
 19 21  1  0
 21 22  1  0
 16 23  1  0
 13  6  1  0
 21 15  1  0
 23 12  1  0
  1 24  1  0
  1 25  1  0
  1 26  1  0
  2 27  1  0
  2 28  1  0
  3 29  1  0
  3 30  1  0
  4 31  1  0
  4 32  1  0
  5 33  1  0
  5 34  1  0
  7 35  1  0
  8 36  1  0
 11 37  1  0
 11 38  1  0
 11 39  1  0
 14 40  1  0
 14 41  1  0
 15 42  1  6
 16 43  1  1
 17 44  1  0
 17 45  1  0
 18 46  1  0
 18 47  1  0
 20 48  1  0
 20 49  1  0
 20 50  1  0
 21 51  1  6
 22 52  1  0
 22 53  1  0
 22 54  1  0
M  END
>  <UniqueID>  (20) 
20

>  <SMILES>  (20) 
CCCCCc1ccc(OC)c2c1C[C@@H]1C(C)N(C)CC[C@H]1O2

>  <Energy>  (20) 
67.73822598523721

>  <Genealogy>  (20) 
CCCCCc1ccc(OC)c2c1C[C@@H]1C(C)N(C)CC[C@H]1O2 (chirality)
CCCCCc1ccc(OC)c2c1C[C@@H]1C(C)N(C)CC[C@H]1O2 (3D coordinates assigned)
CCCCCc1ccc(OC)c2c1C[C@@H]1C(C)N(C)CC[C@H]1O2 (nonaromatic ring conformer: 67.73822598523721 kcal/mol)

>  <smiles>  (20) 
CCCCCc1ccc(OC)c2c1CC1C(CCN(C)C1C)O2

>  <score_type>  (20) 
oracle

>  <origin>  (20) 
adgpu

>  <m_score__min__energy>  (20) 
-8.5700000000000003

>  <m_primary>  (20) 
energy

$$$$
20:0
     RDKit          3D

 52 54  0  0  0  0  0  0  0  0999 V2000
   -2.5780   20.3810  -27.4320 C   0  0  0  0  0  0  0  0  0  0  0  0
   -1.8150   21.1640  -28.4990 C   0  0  0  0  0  0  0  0  0  0  0  0
   -1.9870   22.6820  -28.3490 C   0  0  0  0  0  0  0  0  0  0  0  0
   -3.1070   23.2130  -29.2120 C   0  0  0  0  0  0  0  0  0  0  0  0
   -4.0730   22.3300  -29.7210 C   0  0  0  0  0  0  0  0  0  0  0  0
   -5.1030   22.7990  -30.5500 C   0  0  0  0  0  0  0  0  0  0  0  0
   -6.0880   21.8830  -31.0750 N   0  0  0  0  0  0  0  0  0  0  0  0
   -5.6810   20.7470  -31.7140 C   0  0  0  0  0  0  0  0  0  0  0  0
   -4.4480   20.4790  -31.8060 O   0  0  0  0  0  0  0  0  0  0  0  0
   -6.6220   19.8650  -32.2570 C   0  0  0  0  0  0  0  0  0  0  0  0
   -6.1610   18.6250  -32.9280 C   0  0  0  0  0  0  0  0  0  0  0  0
   -5.9750   18.6100  -34.3180 C   0  0  0  0  0  0  0  0  0  0  0  0
   -5.5460   17.4460  -34.9570 C   0  0  0  0  0  0  0  0  0  0  0  0
   -5.3010   16.2870  -34.2170 C   0  0  0  0  0  0  0  0  0  0  0  0
   -5.4840   16.2850  -32.8200 C   0  0  0  0  0  0  0  0  0  0  0  0
   -5.2500   15.1460  -32.0350 O   0  0  0  0  0  0  0  0  0  0  0  0
   -4.1750   14.2350  -32.2410 C   0  0  0  0  0  0  0  0  0  0  0  0
   -5.9160   17.4580  -32.1830 C   0  0  0  0  0  0  0  0  0  0  0  0
   -6.0820   17.4610  -30.8360 F   0  0  0  0  0  0  0  0  0  0  0  0
   -7.9940   20.1740  -32.1240 C   0  0  0  0  0  0  0  0  0  0  0  0
   -9.0360   19.2730  -32.7640 C   0  0  0  0  0  0  0  0  0  0  0  0
   -8.3730   21.2780  -31.3910 N   0  0  0  0  0  0  0  0  0  0  0  0
   -9.8010   21.5710  -31.1620 C   0  0  0  0  0  0  0  0  0  0  0  0
   -7.4210   22.1480  -30.9150 C   0  0  0  0  0  0  0  0  0  0  0  0
   -7.7770   23.2120  -30.3320 O   0  0  0  0  0  0  0  0  0  0  0  0
   -5.1650   24.1620  -30.8710 C   0  0  0  0  0  0  0  0  0  0  0  0
   -4.2070   25.0460  -30.3730 C   0  0  0  0  0  0  0  0  0  0  0  0
   -3.1750   24.5810  -29.5460 C   0  0  0  0  0  0  0  0  0  0  0  0
   -2.2170   25.4710  -29.0590 O   0  0  0  0  0  0  0  0  0  0  0  0
   -2.2556   20.7119  -26.4337 H   0  0  0  0  0  0  0  0  0  0  0  0
   -3.6571   20.5605  -27.5470 H   0  0  0  0  0  0  0  0  0  0  0  0
   -2.3707   19.3069  -27.5470 H   0  0  0  0  0  0  0  0  0  0  0  0
   -0.7454   20.9204  -28.4181 H   0  0  0  0  0  0  0  0  0  0  0  0
   -2.2219   20.8766  -29.4797 H   0  0  0  0  0  0  0  0  0  0  0  0
   -2.2101   22.9118  -27.2967 H   0  0  0  0  0  0  0  0  0  0  0  0
   -1.0521   23.1632  -28.6720 H   0  0  0  0  0  0  0  0  0  0  0  0
   -4.0216   21.2609  -29.4674 H   0  0  0  0  0  0  0  0  0  0  0  0
   -6.1680   19.5190  -34.9066 H   0  0  0  0  0  0  0  0  0  0  0  0
   -5.4003   17.4412  -36.0473 H   0  0  0  0  0  0  0  0  0  0  0  0
   -4.9639   15.3724  -34.7268 H   0  0  0  0  0  0  0  0  0  0  0  0
   -3.7838   13.9034  -31.2679 H   0  0  0  0  0  0  0  0  0  0  0  0
   -4.5361   13.3637  -32.8071 H   0  0  0  0  0  0  0  0  0  0  0  0
   -3.3748   14.7341  -32.8071 H   0  0  0  0  0  0  0  0  0  0  0  0
   -9.6181   18.7697  -31.9780 H   0  0  0  0  0  0  0  0  0  0  0  0
   -9.7097   19.8778  -33.3888 H   0  0  0  0  0  0  0  0  0  0  0  0
   -8.5348   18.5190  -33.3888 H   0  0  0  0  0  0  0  0  0  0  0  0
   -9.9982   21.6115  -30.0806 H   0  0  0  0  0  0  0  0  0  0  0  0
  -10.0541   22.5398  -31.6174 H   0  0  0  0  0  0  0  0  0  0  0  0
  -10.4152   20.7802  -31.6174 H   0  0  0  0  0  0  0  0  0  0  0  0
   -5.9720   24.5363  -31.5180 H   0  0  0  0  0  0  0  0  0  0  0  0
   -4.2619   26.1139  -30.6309 H   0  0  0  0  0  0  0  0  0  0  0  0
   -2.4130   26.4610  -28.9660 H   0  0  0  0  0  0  0  0  0  0  0  0
  1  2  1  0
  2  3  1  0
  3  4  1  0
  4  5  2  0
  5  6  1  0
  6  7  1  0
  7  8  1  0
  8  9  2  0
  8 10  1  0
 10 11  1  0
 11 12  2  0
 12 13  1  0
 13 14  2  0
 14 15  1  0
 15 16  1  0
 16 17  1  0
 15 18  2  0
 18 19  1  0
 10 20  2  0
 20 21  1  0
 20 22  1  0
 22 23  1  0
 22 24  1  0
 24 25  2  0
  6 26  2  0
 26 27  1  0
 27 28  2  0
 28 29  1  0
 28  4  1  0
 24  7  1  0
 18 11  1  0
  1 30  1  0
  1 31  1  0
  1 32  1  0
  2 33  1  0
  2 34  1  0
  3 35  1  0
  3 36  1  0
  5 37  1  0
 12 38  1  0
 13 39  1  0
 14 40  1  0
 17 41  1  0
 17 42  1  0
 17 43  1  0
 21 44  1  0
 21 45  1  0
 21 46  1  0
 23 47  1  0
 23 48  1  0
 23 49  1  0
 26 50  1  0
 27 51  1  0
 29 52  1  0
M  END
>  <UniqueID>  (21) 
21

>  <SMILES>  (21) 
CCCc1cc(-n2c(=O)c(-c3cccc(OC)c3F)c(C)n(C)c2=O)ccc1O

>  <Energy>  (21) 
73.91865301831943

>  <Genealogy>  (21) 
CCCc1cc(-n2c(=O)c(-c3cccc(OC)c3F)c(C)n(C)c2=O)ccc1O (3D coordinates assigned)
CCCc1cc(-n2c(=O)c(-c3cccc(OC)c3F)c(C)n(C)c2=O)ccc1O (optimized conformer: 73.91865301831943 kcal/mol)

>  <smiles>  (21) 
CCCc1cc(-n2c(=O)c(-c3cccc(OC)c3F)c(C)n(C)c2=O)ccc1O

>  <score_type>  (21) 
oracle

>  <origin>  (21) 
adgpu

>  <m_score__min__energy>  (21) 
-9.0099999999999998

>  <m_primary>  (21) 
energy

$$$$
21:0
     RDKit          3D

 49 52  0  0  0  0  0  0  0  0999 V2000
   -0.4980   30.7300  -24.8660 C   0  0  0  0  0  0  0  0  0  0  0  0
    0.1160   29.4470  -24.9250 O   0  0  0  0  0  0  0  0  0  0  0  0
   -0.3960   28.3570  -25.6440 C   0  0  0  0  0  0  0  0  0  0  0  0
   -0.1030   28.1420  -27.0030 C   0  0  0  0  0  0  0  0  0  0  0  0
   -0.6360   27.0380  -27.6760 C   0  0  0  0  0  0  0  0  0  0  0  0
   -1.4650   26.1230  -27.0030 C   0  0  0  0  0  0  0  0  0  0  0  0
   -2.0460   24.9490  -27.6970 C   0  0  0  0  0  0  0  0  0  0  0  0
   -1.9510   23.8140  -27.1550 O   0  0  0  0  0  0  0  0  0  0  0  0
   -2.7150   25.0840  -28.9660 N   0  0  0  0  0  0  0  0  0  0  0  0
   -3.2080   23.9750  -29.7350 C   0  0  0  0  0  0  0  0  0  0  0  0
   -4.4590   24.0640  -30.3560 C   0  0  0  0  0  0  0  0  0  0  0  0
   -4.9410   23.0050  -31.1240 C   0  0  0  0  0  0  0  0  0  0  0  0
   -4.1520   21.8550  -31.2940 C   0  0  0  0  0  0  0  0  0  0  0  0
   -4.6160   20.7310  -32.0710 N   0  0  0  0  0  0  0  0  0  0  0  0
   -5.9230   20.1410  -31.7430 C   0  0  0  0  0  0  0  0  0  0  0  0
   -6.4270   19.2190  -32.8560 C   0  0  0  0  0  0  0  0  0  0  0  0
   -5.3810   18.2610  -33.2410 N   0  0  0  0  0  0  0  0  0  0  0  0
   -5.7180   16.9160  -33.6330 C   0  0  0  0  0  0  0  0  0  0  0  0
   -6.9830   16.5160  -33.8960 N   0  0  0  0  0  0  0  0  0  0  0  0
   -7.0410   15.2000  -34.2300 C   0  0  0  0  0  0  0  0  0  0  0  0
   -5.8200   14.5360  -34.2330 C   0  0  0  0  0  0  0  0  0  0  0  0
   -4.6280   15.6400  -33.8000 S   0  0  0  0  0  0  0  0  0  0  0  0
   -3.9780   18.6930  -33.3200 C   0  0  0  0  0  0  0  0  0  0  0  0
   -3.8380   20.2150  -33.2070 C   0  0  0  0  0  0  0  0  0  0  0  0
   -2.9300   21.7980  -30.6950 N   0  0  0  0  0  0  0  0  0  0  0  0
   -2.4420   22.8160  -29.9370 C   0  0  0  0  0  0  0  0  0  0  0  0
   -1.7660   26.3510  -25.6490 C   0  0  0  0  0  0  0  0  0  0  0  0
   -1.2310   27.4540  -24.9780 C   0  0  0  0  0  0  0  0  0  0  0  0
   -0.6376   31.0217  -23.8146 H   0  0  0  0  0  0  0  0  0  0  0  0
    0.1447   31.4676  -25.3689 H   0  0  0  0  0  0  0  0  0  0  0  0
   -1.4756   30.6921  -25.3689 H   0  0  0  0  0  0  0  0  0  0  0  0
    0.5494   28.8466  -27.5396 H   0  0  0  0  0  0  0  0  0  0  0  0
   -0.4049   26.8842  -28.7404 H   0  0  0  0  0  0  0  0  0  0  0  0
   -2.9050   26.0390  -29.3420 H   0  0  0  0  0  0  0  0  0  0  0  0
   -5.0651   24.9743  -30.2375 H   0  0  0  0  0  0  0  0  0  0  0  0
   -5.9334   23.0694  -31.5942 H   0  0  0  0  0  0  0  0  0  0  0  0
   -5.8278   19.5589  -30.8145 H   0  0  0  0  0  0  0  0  0  0  0  0
   -6.6473   20.9603  -31.6241 H   0  0  0  0  0  0  0  0  0  0  0  0
   -7.3093   18.6679  -32.4984 H   0  0  0  0  0  0  0  0  0  0  0  0
   -6.6918   19.8292  -33.7321 H   0  0  0  0  0  0  0  0  0  0  0  0
   -7.9865   14.6964  -34.4800 H   0  0  0  0  0  0  0  0  0  0  0  0
   -5.6614   13.4749  -34.4759 H   0  0  0  0  0  0  0  0  0  0  0  0
   -3.4151   18.2229  -32.5002 H   0  0  0  0  0  0  0  0  0  0  0  0
   -3.5835   18.3876  -34.3004 H   0  0  0  0  0  0  0  0  0  0  0  0
   -2.7776   20.4693  -33.0623 H   0  0  0  0  0  0  0  0  0  0  0  0
   -4.2204   20.6725  -34.1314 H   0  0  0  0  0  0  0  0  0  0  0  0
   -1.4446   22.7312  -29.4810 H   0  0  0  0  0  0  0  0  0  0  0  0
   -2.4283   25.6553  -25.1130 H   0  0  0  0  0  0  0  0  0  0  0  0
   -1.4689   27.6135  -23.9159 H   0  0  0  0  0  0  0  0  0  0  0  0
  1  2  1  0
  2  3  1  0
  3  4  2  0
  4  5  1  0
  5  6  2  0
  6  7  1  0
  7  8  2  0
  7  9  1  0
  9 10  1  0
 10 11  2  0
 11 12  1  0
 12 13  2  0
 13 14  1  0
 14 15  1  0
 15 16  1  0
 16 17  1  0
 17 18  1  0
 18 19  2  0
 19 20  1  0
 20 21  2  0
 21 22  1  0
 17 23  1  0
 23 24  1  0
 13 25  1  0
 25 26  2  0
  6 27  1  0
 27 28  2  0
 28  3  1  0
 26 10  1  0
 24 14  1  0
 22 18  1  0
  1 29  1  0
  1 30  1  0
  1 31  1  0
  4 32  1  0
  5 33  1  0
  9 34  1  0
 11 35  1  0
 12 36  1  0
 15 37  1  0
 15 38  1  0
 16 39  1  0
 16 40  1  0
 20 41  1  0
 21 42  1  0
 23 43  1  0
 23 44  1  0
 24 45  1  0
 24 46  1  0
 26 47  1  0
 27 48  1  0
 28 49  1  0
M  END
>  <UniqueID>  (22) 
22

>  <SMILES>  (22) 
COc1ccc(C(=O)Nc2ccc(N3CCN(c4nccs4)CC3)nc2)cc1

>  <Energy>  (22) 
91.87674253105929

>  <Genealogy>  (22) 
COc1ccc(C(=O)Nc2ccc(N3CCN(c4nccs4)CC3)nc2)cc1 (3D coordinates assigned)
COc1ccc(C(=O)Nc2ccc(N3CCN(c4nccs4)CC3)nc2)cc1 (nonaromatic ring conformer: 91.87674253105929 kcal/mol)

>  <smiles>  (22) 
COc1ccc(C(=O)Nc2ccc(N3CCN(c4nccs4)CC3)nc2)cc1

>  <score_type>  (22) 
oracle

>  <origin>  (22) 
adgpu

>  <m_score__min__energy>  (22) 
-7.4500000000000002

>  <m_primary>  (22) 
energy

$$$$
22:0
     RDKit          3D

 41 43  0  0  1  0  0  0  0  0999 V2000
   -4.9690   15.5720  -31.9710 C   0  0  0  0  0  0  0  0  0  0  0  0
   -5.2800   16.7060  -32.9040 C   0  0  0  0  0  0  0  0  0  0  0  0
   -4.5530   16.8900  -34.0800 C   0  0  0  0  0  0  0  0  0  0  0  0
   -4.8930   17.9530  -34.8910 C   0  0  0  0  0  0  0  0  0  0  0  0
   -5.9210   18.8350  -34.5800 C   0  0  0  0  0  0  0  0  0  0  0  0
   -6.6580   18.6420  -33.3800 C   0  0  0  0  0  0  0  0  0  0  0  0
   -7.7510   19.3810  -33.0320 N   0  0  0  0  0  0  0  0  0  0  0  0
   -7.9250   20.4840  -32.5080 C   0  0  0  0  0  0  0  0  0  0  0  0
   -9.1880   20.9240  -32.3030 N   0  0  0  0  0  0  0  0  0  0  0  0
   -9.4880   22.1040  -31.7440 C   0  0  0  0  0  0  0  0  0  0  0  0
   -8.4690   22.8900  -31.3690 N   0  0  0  0  0  0  0  0  0  0  0  0
   -7.2020   22.4800  -31.5580 C   0  0  0  0  0  0  0  0  0  0  0  0
   -6.2060   23.3320  -31.1510 C   0  0  0  0  0  0  0  0  0  0  0  0
   -4.9120   22.9200  -31.3430 C   0  0  0  0  0  0  0  0  0  0  0  0
   -3.8790   23.8010  -30.9220 N   0  0  0  0  0  0  0  0  0  0  0  0
   -3.2120   23.3580  -29.5500 S   0  0  0  0  0  0  0  0  0  0  0  0
   -2.0240   24.4970  -28.9660 C   0  0  0  0  0  0  0  0  0  0  0  0
   -4.5680   23.1770  -28.3860 C   0  0  0  0  0  0  0  0  0  0  0  0
   -2.6950   21.9890  -29.8230 O   0  0  0  0  0  0  0  0  0  0  0  0
   -4.5350   21.7380  -31.9020 C   0  0  0  0  0  0  0  0  0  0  0  0
   -5.5750   20.8850  -32.3110 C   0  0  0  0  0  0  0  0  0  0  0  0
   -6.8730   21.2660  -32.1340 C   0  0  0  0  0  0  0  0  0  0  0  0
   -6.3040   17.5470  -32.5500 C   0  0  0  0  0  0  0  0  0  0  0  0
   -5.0635   15.9167  -30.9307 H   0  0  0  0  0  0  0  0  0  0  0  0
   -5.6739   14.7466  -32.1493 H   0  0  0  0  0  0  0  0  0  0  0  0
   -3.9416   15.2217  -32.1493 H   0  0  0  0  0  0  0  0  0  0  0  0
   -3.7337   16.2085  -34.3525 H   0  0  0  0  0  0  0  0  0  0  0  0
   -4.3275   18.1088  -35.8215 H   0  0  0  0  0  0  0  0  0  0  0  0
   -6.1610   19.6711  -35.2533 H   0  0  0  0  0  0  0  0  0  0  0  0
  -10.0010   20.3290  -32.5890 H   0  0  0  0  0  0  0  0  0  0  0  0
  -10.5325   22.4165  -31.5981 H   0  0  0  0  0  0  0  0  0  0  0  0
   -6.4358   24.3041  -30.6903 H   0  0  0  0  0  0  0  0  0  0  0  0
   -2.0249   24.4961  -27.8660 H   0  0  0  0  0  0  0  0  0  0  0  0
   -1.0278   24.2078  -29.3321 H   0  0  0  0  0  0  0  0  0  0  0  0
   -2.2710   25.5045  -29.3321 H   0  0  0  0  0  0  0  0  0  0  0  0
   -4.1786   23.2290  -27.3585 H   0  0  0  0  0  0  0  0  0  0  0  0
   -5.2967   23.9858  -28.5433 H   0  0  0  0  0  0  0  0  0  0  0  0
   -5.0591   22.2053  -28.5433 H   0  0  0  0  0  0  0  0  0  0  0  0
   -3.4766   21.4654  -32.0268 H   0  0  0  0  0  0  0  0  0  0  0  0
   -5.3430   19.9137  -32.7722 H   0  0  0  0  0  0  0  0  0  0  0  0
   -6.8555   17.3711  -31.6146 H   0  0  0  0  0  0  0  0  0  0  0  0
  1  2  1  0
  2  3  2  0
  3  4  1  0
  4  5  2  0
  5  6  1  0
  6  7  1  0
  7  8  2  0
  8  9  1  0
  9 10  1  0
 10 11  2  0
 11 12  1  0
 12 13  2  0
 13 14  1  0
 14 15  1  0
 15 16  2  0
 16 17  1  0
 16 18  1  0
 16 19  2  0
 14 20  2  0
 20 21  1  0
 21 22  2  0
  6 23  2  0
 23  2  1  0
 22  8  1  0
 22 12  1  0
  1 24  1  0
  1 25  1  0
  1 26  1  0
  3 27  1  0
  4 28  1  0
  5 29  1  0
  9 30  1  0
 10 31  1  0
 13 32  1  0
 17 33  1  0
 17 34  1  0
 17 35  1  0
 18 36  1  0
 18 37  1  0
 18 38  1  0
 20 39  1  0
 21 40  1  0
 23 41  1  0
M  END
>  <smiles>  (23) 
Cc1cccc(N=c2[nH]cnc3cc(N=S(C)(C)=O)ccc23)c1

>  <score_type>  (23) 
oracle

>  <origin>  (23) 
adgpu

>  <m_score__min__energy>  (23) 
-8.3000000000000007

>  <m_primary>  (23) 
energy

$$$$
23:0
     RDKit          3D

 43 46  0  0  0  0  0  0  0  0999 V2000
   -5.4630   25.6750  -30.5430 C   0  0  0  0  0  0  0  0  0  0  0  0
   -4.0760   25.4070  -30.7280 O   0  0  0  0  0  0  0  0  0  0  0  0
   -3.4070   24.2930  -30.1990 C   0  0  0  0  0  0  0  0  0  0  0  0
   -3.7660   22.9730  -30.5320 C   0  0  0  0  0  0  0  0  0  0  0  0
   -3.0740   21.8830  -29.9780 C   0  0  0  0  0  0  0  0  0  0  0  0
   -3.4970   20.4740  -30.3020 C   0  0  0  0  0  0  0  0  0  0  0  0
   -3.1610   20.1420  -31.7380 C   0  0  0  0  0  0  0  0  0  0  0  0
   -4.1050   19.6620  -32.6630 C   0  0  0  0  0  0  0  0  0  0  0  0
   -5.5140   19.3310  -32.3920 C   0  0  0  0  0  0  0  0  0  0  0  0
   -5.8400   18.1150  -31.7720 C   0  0  0  0  0  0  0  0  0  0  0  0
   -7.1770   17.7880  -31.5240 C   0  0  0  0  0  0  0  0  0  0  0  0
   -8.1980   18.6790  -31.8810 C   0  0  0  0  0  0  0  0  0  0  0  0
   -9.5320   18.3630  -31.6420 O   0  0  0  0  0  0  0  0  0  0  0  0
   -7.8740   19.9000  -32.4820 C   0  0  0  0  0  0  0  0  0  0  0  0
   -6.5380   20.2280  -32.7320 C   0  0  0  0  0  0  0  0  0  0  0  0
   -3.4140   19.5980  -34.2020 S   0  0  0  0  0  0  0  0  0  0  0  0
   -1.9130   20.1600  -33.7190 C   0  0  0  0  0  0  0  0  0  0  0  0
   -0.7930   20.3810  -34.5180 C   0  0  0  0  0  0  0  0  0  0  0  0
    0.3640   20.8900  -33.9140 C   0  0  0  0  0  0  0  0  0  0  0  0
    0.3790   21.1680  -32.5350 C   0  0  0  0  0  0  0  0  0  0  0  0
   -0.7620   20.9400  -31.7480 C   0  0  0  0  0  0  0  0  0  0  0  0
   -1.9200   20.4240  -32.3540 C   0  0  0  0  0  0  0  0  0  0  0  0
   -2.0170   22.1210  -29.0850 C   0  0  0  0  0  0  0  0  0  0  0  0
   -1.6570   23.4280  -28.7540 C   0  0  0  0  0  0  0  0  0  0  0  0
   -2.3460   24.5100  -29.3080 C   0  0  0  0  0  0  0  0  0  0  0  0
   -1.9770   25.8060  -28.9670 O   0  0  0  0  0  0  0  0  0  0  0  0
   -5.6877   25.7184  -29.4671 H   0  0  0  0  0  0  0  0  0  0  0  0
   -5.7157   26.6386  -31.0095 H   0  0  0  0  0  0  0  0  0  0  0  0
   -6.0565   24.8749  -31.0095 H   0  0  0  0  0  0  0  0  0  0  0  0
   -4.5954   22.7935  -31.2319 H   0  0  0  0  0  0  0  0  0  0  0  0
   -2.9709   19.7749  -29.6353 H   0  0  0  0  0  0  0  0  0  0  0  0
   -4.5841   20.3852  -30.1593 H   0  0  0  0  0  0  0  0  0  0  0  0
   -5.0415   17.4169  -31.4802 H   0  0  0  0  0  0  0  0  0  0  0  0
   -7.4278   16.8288  -31.0474 H   0  0  0  0  0  0  0  0  0  0  0  0
   -9.8090   17.8020  -30.8450 H   0  0  0  0  0  0  0  0  0  0  0  0
   -8.6726   20.6041  -32.7587 H   0  0  0  0  0  0  0  0  0  0  0  0
   -6.2887   21.1932  -33.1971 H   0  0  0  0  0  0  0  0  0  0  0  0
   -0.8167   20.1614  -35.5956 H   0  0  0  0  0  0  0  0  0  0  0  0
    1.2637   21.0729  -34.5199 H   0  0  0  0  0  0  0  0  0  0  0  0
    1.2920   21.5673  -32.0691 H   0  0  0  0  0  0  0  0  0  0  0  0
   -0.7491   21.1626  -30.6708 H   0  0  0  0  0  0  0  0  0  0  0  0
   -1.4706   21.2740  -28.6446 H   0  0  0  0  0  0  0  0  0  0  0  0
   -0.8275   23.6072  -28.0541 H   0  0  0  0  0  0  0  0  0  0  0  0
  1  2  1  0
  2  3  1  0
  3  4  2  0
  4  5  1  0
  5  6  1  0
  6  7  1  0
  7  8  2  0
  8  9  1  0
  9 10  2  0
 10 11  1  0
 11 12  2  0
 12 13  1  0
 12 14  1  0
 14 15  2  0
  8 16  1  0
 16 17  1  0
 17 18  2  0
 18 19  1  0
 19 20  2  0
 20 21  1  0
 21 22  2  0
  5 23  2  0
 23 24  1  0
 24 25  2  0
 25 26  1  0
 25  3  1  0
 22  7  1  0
 15  9  1  0
 22 17  1  0
  1 27  1  0
  1 28  1  0
  1 29  1  0
  4 30  1  0
  6 31  1  0
  6 32  1  0
 10 33  1  0
 11 34  1  0
 13 35  1  0
 14 36  1  0
 15 37  1  0
 18 38  1  0
 19 39  1  0
 20 40  1  0
 21 41  1  0
 23 42  1  0
 24 43  1  0
M  CHG  1  26  -1
M  END
>  <UniqueID>  (24) 
23

>  <SMILES>  (24) 
COc1cc(Cc2c(-c3ccc(O)cc3)sc3ccccc23)ccc1[O-]

>  <Energy>  (24) 
81.4859970668576

>  <Genealogy>  (24) 
COc1cc(Cc2c(-c3ccc(O)cc3)sc3ccccc23)ccc1[O-] (protonated)
COc1cc(Cc2c(-c3ccc(O)cc3)sc3ccccc23)ccc1[O-] (3D coordinates assigned)
COc1cc(Cc2c(-c3ccc(O)cc3)sc3ccccc23)ccc1[O-] (optimized conformer: 81.4859970668576 kcal/mol)

>  <smiles>  (24) 
COc1cc(Cc2c(-c3ccc(O)cc3)sc3ccccc23)ccc1O

>  <score_type>  (24) 
oracle

>  <origin>  (24) 
adgpu

>  <m_score__min__energy>  (24) 
-11.58

>  <m_primary>  (24) 
energy

$$$$
24:0
     RDKit          3D

 41 43  0  0  0  0  0  0  0  0999 V2000
   -3.7230   24.7980  -30.7270 O   0  0  0  0  0  0  0  0  0  0  0  0
   -3.4690   23.5790  -30.5340 C   0  0  0  0  0  0  0  0  0  0  0  0
   -3.9410   22.5870  -31.4570 N   0  0  0  0  0  0  0  0  0  0  0  0
   -5.2990   22.1570  -31.6290 C   0  0  0  0  0  0  0  0  0  0  0  0
   -6.3540   23.0700  -31.8120 C   0  0  0  0  0  0  0  0  0  0  0  0
   -7.6610   22.6060  -31.9960 C   0  0  0  0  0  0  0  0  0  0  0  0
   -7.9230   21.2340  -32.0160 C   0  0  0  0  0  0  0  0  0  0  0  0
   -6.8740   20.3160  -31.8640 C   0  0  0  0  0  0  0  0  0  0  0  0
   -7.1850   18.5830  -31.9090 S   0  0  0  0  0  0  0  0  0  0  0  0
   -8.5720   18.2970  -31.4020 O   0  0  0  0  0  0  0  0  0  0  0  0
   -6.1850   17.8980  -31.0180 O   0  0  0  0  0  0  0  0  0  0  0  0
   -7.0160   17.9980  -33.5500 N   0  0  0  0  0  0  0  0  0  0  0  0
   -6.0900   18.8450  -34.3060 C   0  0  0  0  0  0  0  0  0  0  0  0
   -4.7000   18.2340  -34.2040 C   0  0  0  0  0  0  0  0  0  0  0  0
   -4.9180   16.8040  -33.7480 C   0  0  0  0  0  0  0  0  0  0  0  0
   -6.4210   16.6560  -33.5600 C   0  0  0  0  0  0  0  0  0  0  0  0
   -5.5660   20.7840  -31.6750 C   0  0  0  0  0  0  0  0  0  0  0  0
   -2.7760   23.1540  -29.2980 C   0  0  0  0  0  0  0  0  0  0  0  0
   -2.9490   21.8320  -28.8480 C   0  0  0  0  0  0  0  0  0  0  0  0
   -2.3690   21.4040  -27.6500 C   0  0  0  0  0  0  0  0  0  0  0  0
   -2.6140   19.7570  -27.0940 Cl  0  0  0  0  0  0  0  0  0  0  0  0
   -1.6070   22.2910  -26.8880 C   0  0  0  0  0  0  0  0  0  0  0  0
   -1.4100   23.5990  -27.3300 C   0  0  0  0  0  0  0  0  0  0  0  0
   -1.9690   24.0380  -28.5370 C   0  0  0  0  0  0  0  0  0  0  0  0
   -1.6750   25.3380  -28.9580 O   0  0  0  0  0  0  0  0  0  0  0  0
   -6.1506   24.1510  -31.8104 H   0  0  0  0  0  0  0  0  0  0  0  0
   -8.4846   23.3236  -32.1253 H   0  0  0  0  0  0  0  0  0  0  0  0
   -8.9534   20.8734  -32.1511 H   0  0  0  0  0  0  0  0  0  0  0  0
   -6.4013   18.8895  -35.3601 H   0  0  0  0  0  0  0  0  0  0  0  0
   -6.0882   19.8665  -33.8979 H   0  0  0  0  0  0  0  0  0  0  0  0
   -4.1990   18.2531  -35.1831 H   0  0  0  0  0  0  0  0  0  0  0  0
   -4.0594   18.7919  -33.5051 H   0  0  0  0  0  0  0  0  0  0  0  0
   -4.5556   16.0989  -34.5105 H   0  0  0  0  0  0  0  0  0  0  0  0
   -4.3694   16.5859  -32.8198 H   0  0  0  0  0  0  0  0  0  0  0  0
   -6.8437   16.0674  -34.3876 H   0  0  0  0  0  0  0  0  0  0  0  0
   -6.6365   16.1376  -32.6141 H   0  0  0  0  0  0  0  0  0  0  0  0
   -4.7414   20.0648  -31.5617 H   0  0  0  0  0  0  0  0  0  0  0  0
   -3.5469   21.1278  -29.4451 H   0  0  0  0  0  0  0  0  0  0  0  0
   -1.1618   21.9584  -25.9387 H   0  0  0  0  0  0  0  0  0  0  0  0
   -0.8092   24.2934  -26.7243 H   0  0  0  0  0  0  0  0  0  0  0  0
   -1.9830   25.7200  -29.8410 H   0  0  0  0  0  0  0  0  0  0  0  0
  1  2  2  0
  2  3  1  0
  3  4  1  0
  4  5  2  0
  5  6  1  0
  6  7  2  0
  7  8  1  0
  8  9  1  0
  9 10  2  0
  9 11  2  0
  9 12  1  0
 12 13  1  0
 13 14  1  0
 14 15  1  0
 15 16  1  0
  8 17  2  0
  2 18  1  0
 18 19  2  0
 19 20  1  0
 20 21  1  0
 20 22  2  0
 22 23  1  0
 23 24  2  0
 24 25  1  0
 17  4  1  0
 24 18  1  0
 16 12  1  0
  5 26  1  0
  6 27  1  0
  7 28  1  0
 13 29  1  0
 13 30  1  0
 14 31  1  0
 14 32  1  0
 15 33  1  0
 15 34  1  0
 16 35  1  0
 16 36  1  0
 17 37  1  0
 19 38  1  0
 22 39  1  0
 23 40  1  0
 25 41  1  0
M  CHG  1   3  -1
M  END
>  <UniqueID>  (25) 
24

>  <SMILES>  (25) 
O=C([N-]c1cccc(S(=O)(=O)N2CCCC2)c1)c1cc(Cl)ccc1O

>  <Energy>  (25) 
52.186764252614374

>  <Genealogy>  (25) 
O=C([N-]c1cccc(S(=O)(=O)N2CCCC2)c1)c1cc(Cl)ccc1O (protonated)
O=C([N-]c1cccc(S(=O)(=O)N2CCCC2)c1)c1cc(Cl)ccc1O (3D coordinates assigned)
O=C([N-]c1cccc(S(=O)(=O)N2CCCC2)c1)c1cc(Cl)ccc1O (nonaromatic ring conformer: 52.186764252614374 kcal/mol)

>  <smiles>  (25) 
O=C(Nc1cccc(S(=O)(=O)N2CCCC2)c1)c1cc(Cl)ccc1O

>  <score_type>  (25) 
oracle

>  <origin>  (25) 
adgpu

>  <m_score__min__energy>  (25) 
-11.210000000000001

>  <m_primary>  (25) 
energy

$$$$
25:0
     RDKit          3D

 46 48  0  0  0  0  0  0  0  0999 V2000
    0.9370   23.5290  -27.4390 C   0  0  0  0  0  0  0  0  0  0  0  0
    0.3310   24.0420  -28.6210 O   0  0  0  0  0  0  0  0  0  0  0  0
   -0.9570   23.7040  -29.0660 C   0  0  0  0  0  0  0  0  0  0  0  0
   -1.3280   22.3740  -29.3370 C   0  0  0  0  0  0  0  0  0  0  0  0
   -2.6170   22.0760  -29.7800 C   0  0  0  0  0  0  0  0  0  0  0  0
   -3.5570   23.0990  -29.9700 C   0  0  0  0  0  0  0  0  0  0  0  0
   -4.9290   22.7860  -30.4300 C   0  0  0  0  0  0  0  0  0  0  0  0
   -6.0510   23.2650  -29.7540 C   0  0  0  0  0  0  0  0  0  0  0  0
   -7.4290   22.6420  -30.4840 S   0  0  0  0  0  0  0  0  0  0  0  0
   -6.6270   21.7620  -31.6720 C   0  0  0  0  0  0  0  0  0  0  0  0
   -7.2700   21.0230  -32.7230 N   0  0  0  0  0  0  0  0  0  0  0  0
   -7.8050   19.6770  -32.5280 C   0  0  0  0  0  0  0  0  0  0  0  0
   -6.8370   18.6490  -33.0500 C   0  0  0  0  0  0  0  0  0  0  0  0
   -6.6490   17.4320  -32.3740 C   0  0  0  0  0  0  0  0  0  0  0  0
   -5.7380   16.4890  -32.8600 C   0  0  0  0  0  0  0  0  0  0  0  0
   -5.0080   16.7550  -34.0230 C   0  0  0  0  0  0  0  0  0  0  0  0
   -4.1250   15.8390  -34.4920 F   0  0  0  0  0  0  0  0  0  0  0  0
   -5.1910   17.9630  -34.7010 C   0  0  0  0  0  0  0  0  0  0  0  0
   -6.1020   18.9070  -34.2190 C   0  0  0  0  0  0  0  0  0  0  0  0
   -5.2490   21.9460  -31.5270 C   0  0  0  0  0  0  0  0  0  0  0  0
   -4.2500   21.3510  -32.4390 C   0  0  0  0  0  0  0  0  0  0  0  0
   -3.8530   22.0290  -33.6310 N   0  0  0  0  0  0  0  0  0  0  0  0
   -3.7440   20.2290  -32.1670 O   0  0  0  0  0  0  0  0  0  0  0  0
   -3.1940   24.4250  -29.6870 C   0  0  0  0  0  0  0  0  0  0  0  0
   -1.8940   24.7330  -29.2390 C   0  0  0  0  0  0  0  0  0  0  0  0
   -1.4970   26.0500  -28.9570 O   0  0  0  0  0  0  0  0  0  0  0  0
   -0.9230   26.4740  -27.7240 C   0  0  0  0  0  0  0  0  0  0  0  0
    0.4360   23.9531  -26.5563 H   0  0  0  0  0  0  0  0  0  0  0  0
    0.8413   22.4333  -27.4238 H   0  0  0  0  0  0  0  0  0  0  0  0
    2.0019   23.8043  -27.4238 H   0  0  0  0  0  0  0  0  0  0  0  0
   -0.5969   21.5638  -29.1987 H   0  0  0  0  0  0  0  0  0  0  0  0
   -2.8977   21.0317  -29.9815 H   0  0  0  0  0  0  0  0  0  0  0  0
   -6.0357   23.9399  -28.8855 H   0  0  0  0  0  0  0  0  0  0  0  0
   -7.3740   21.4540  -33.6670 H   0  0  0  0  0  0  0  0  0  0  0  0
   -7.9728   19.5053  -31.4545 H   0  0  0  0  0  0  0  0  0  0  0  0
   -8.7538   19.5862  -33.0771 H   0  0  0  0  0  0  0  0  0  0  0  0
   -7.2208   17.2200  -31.4585 H   0  0  0  0  0  0  0  0  0  0  0  0
   -5.5954   15.5373  -32.3272 H   0  0  0  0  0  0  0  0  0  0  0  0
   -4.6169   18.1714  -35.6159 H   0  0  0  0  0  0  0  0  0  0  0  0
   -6.2440   19.8558  -34.7572 H   0  0  0  0  0  0  0  0  0  0  0  0
   -4.3190   22.9160  -33.9250 H   0  0  0  0  0  0  0  0  0  0  0  0
   -3.1180   21.6190  -34.2490 H   0  0  0  0  0  0  0  0  0  0  0  0
   -3.9312   25.2312  -29.8161 H   0  0  0  0  0  0  0  0  0  0  0  0
   -1.4972   26.0498  -26.8872 H   0  0  0  0  0  0  0  0  0  0  0  0
    0.1194   26.1274  -27.6664 H   0  0  0  0  0  0  0  0  0  0  0  0
   -0.9479   27.5722  -27.6664 H   0  0  0  0  0  0  0  0  0  0  0  0
  1  2  1  0
  2  3  1  0
  3  4  2  0
  4  5  1  0
  5  6  2  0
  6  7  1  0
  7  8  2  0
  8  9  1  0
  9 10  1  0
 10 11  1  0
 11 12  1  0
 12 13  1  0
 13 14  2  0
 14 15  1  0
 15 16  2  0
 16 17  1  0
 16 18  1  0
 18 19  2  0
 10 20  2  0
 20 21  1  0
 21 22  1  0
 21 23  2  0
  6 24  1  0
 24 25  2  0
 25 26  1  0
 26 27  1  0
 25  3  1  0
 20  7  1  0
 19 13  1  0
  1 28  1  0
  1 29  1  0
  1 30  1  0
  4 31  1  0
  5 32  1  0
  8 33  1  0
 11 34  1  0
 12 35  1  0
 12 36  1  0
 14 37  1  0
 15 38  1  0
 18 39  1  0
 19 40  1  0
 22 41  1  0
 22 42  1  0
 24 43  1  0
 27 44  1  0
 27 45  1  0
 27 46  1  0
M  END
>  <UniqueID>  (26) 
25

>  <SMILES>  (26) 
COc1ccc(-c2csc(NCc3ccc(F)cc3)c2C(N)=O)cc1OC

>  <Energy>  (26) 
79.77182359681844

>  <Genealogy>  (26) 
COc1ccc(-c2csc(NCc3ccc(F)cc3)c2C(N)=O)cc1OC (3D coordinates assigned)
COc1ccc(-c2csc(NCc3ccc(F)cc3)c2C(N)=O)cc1OC (optimized conformer: 79.77182359681844 kcal/mol)

>  <smiles>  (26) 
COc1ccc(-c2csc(NCc3ccc(F)cc3)c2C(N)=O)cc1OC

>  <score_type>  (26) 
oracle

>  <origin>  (26) 
adgpu

>  <m_score__min__energy>  (26) 
-9.2899999999999991

>  <m_primary>  (26) 
energy

$$$$
26:0
     RDKit          3D

 60 63  0  0  0  0  0  0  0  0999 V2000
   -4.3540   18.2610  -34.1640 C   0  0  0  0  0  0  0  0  0  0  0  0
   -3.1060   17.3920  -34.2830 C   0  0  0  0  0  0  0  0  0  0  0  0
   -1.9810   17.9130  -33.3850 C   0  0  0  0  0  0  0  0  0  0  0  0
   -0.9830   18.7180  -34.1700 C   0  0  0  0  0  0  0  0  0  0  0  0
   -0.5030   18.2960  -35.3600 N   0  0  0  0  0  0  0  0  0  0  0  0
    0.3410   19.2720  -35.7430 C   0  0  0  0  0  0  0  0  0  0  0  0
    1.2460   19.2390  -37.2450 Cl  0  0  0  0  0  0  0  0  0  0  0  0
    0.3680   20.2680  -34.7920 C   0  0  0  0  0  0  0  0  0  0  0  0
    1.1760   21.5340  -34.8650 C   0  0  0  0  0  0  0  0  0  0  0  0
    0.3320   22.6760  -35.2560 N   0  0  0  0  0  0  0  0  0  0  0  0
    0.9980   23.5900  -36.2120 C   0  0  0  0  0  0  0  0  0  0  0  0
    2.4800   23.7500  -35.8450 C   0  0  0  0  0  0  0  0  0  0  0  0
    0.3240   24.9710  -36.1940 C   0  0  0  0  0  0  0  0  0  0  0  0
   -0.4650   19.9140  -33.7890 N   0  0  0  0  0  0  0  0  0  0  0  0
   -0.7340   20.6650  -32.5540 C   0  0  0  0  0  0  0  0  0  0  0  0
   -2.2100   20.9310  -32.3640 C   0  0  0  0  0  0  0  0  0  0  0  0
   -2.8520   20.6890  -31.1360 C   0  0  0  0  0  0  0  0  0  0  0  0
   -4.2260   20.8940  -31.0040 C   0  0  0  0  0  0  0  0  0  0  0  0
   -4.9890   21.3140  -32.1040 C   0  0  0  0  0  0  0  0  0  0  0  0
   -6.4490   21.5200  -31.9660 C   0  0  0  0  0  0  0  0  0  0  0  0
   -7.3040   20.4690  -32.3390 C   0  0  0  0  0  0  0  0  0  0  0  0
   -8.6890   20.6370  -32.3160 C   0  0  0  0  0  0  0  0  0  0  0  0
   -9.2380   21.8550  -31.9230 C   0  0  0  0  0  0  0  0  0  0  0  0
   -8.4060   22.9060  -31.5350 C   0  0  0  0  0  0  0  0  0  0  0  0
   -7.0070   22.7540  -31.5320 C   0  0  0  0  0  0  0  0  0  0  0  0
   -6.1760   23.8770  -31.0330 C   0  0  0  0  0  0  0  0  0  0  0  0
   -4.9710   24.2110  -31.5390 N   0  0  0  0  0  0  0  0  0  0  0  0
   -4.5890   25.2720  -30.8460 N   0  0  0  0  0  0  0  0  0  0  0  0
   -5.5260   25.5710  -29.9640 N   0  0  0  0  0  0  0  0  0  0  0  0
   -6.5380   24.7280  -30.0520 N   0  0  0  0  0  0  0  0  0  0  0  0
   -4.3520   21.5600  -33.3280 C   0  0  0  0  0  0  0  0  0  0  0  0
   -2.9750   21.3610  -33.4600 C   0  0  0  0  0  0  0  0  0  0  0  0
   -4.5876   18.4237  -33.1015 H   0  0  0  0  0  0  0  0  0  0  0  0
   -4.1740   19.2301  -34.6524 H   0  0  0  0  0  0  0  0  0  0  0  0
   -5.2004   17.7559  -34.6524 H   0  0  0  0  0  0  0  0  0  0  0  0
   -3.3556   16.3630  -33.9850 H   0  0  0  0  0  0  0  0  0  0  0  0
   -2.7600   17.4204  -35.3268 H   0  0  0  0  0  0  0  0  0  0  0  0
   -2.4152   18.5486  -32.5992 H   0  0  0  0  0  0  0  0  0  0  0  0
   -1.4608   17.0497  -32.9445 H   0  0  0  0  0  0  0  0  0  0  0  0
    1.6195   21.7353  -33.8787 H   0  0  0  0  0  0  0  0  0  0  0  0
    1.9636   21.4044  -35.6219 H   0  0  0  0  0  0  0  0  0  0  0  0
   -0.5230   22.2680  -35.7020 H   0  0  0  0  0  0  0  0  0  0  0  0
    0.9114   23.1566  -37.2193 H   0  0  0  0  0  0  0  0  0  0  0  0
    2.5875   23.7616  -34.7503 H   0  0  0  0  0  0  0  0  0  0  0  0
    3.0536   22.9086  -36.2609 H   0  0  0  0  0  0  0  0  0  0  0  0
    2.8608   24.6945  -36.2609 H   0  0  0  0  0  0  0  0  0  0  0  0
    0.1685   25.2896  -35.1527 H   0  0  0  0  0  0  0  0  0  0  0  0
    0.9677   25.6999  -36.7082 H   0  0  0  0  0  0  0  0  0  0  0  0
   -0.6466   24.9120  -36.7082 H   0  0  0  0  0  0  0  0  0  0  0  0
   -0.3646   20.0831  -31.6967 H   0  0  0  0  0  0  0  0  0  0  0  0
   -0.2203   21.6349  -32.6270 H   0  0  0  0  0  0  0  0  0  0  0  0
   -2.2670   20.3358  -30.2740 H   0  0  0  0  0  0  0  0  0  0  0  0
   -4.7135   20.7254  -30.0324 H   0  0  0  0  0  0  0  0  0  0  0  0
   -6.8774   19.5047  -32.6521 H   0  0  0  0  0  0  0  0  0  0  0  0
   -9.3480   19.8063  -32.6087 H   0  0  0  0  0  0  0  0  0  0  0  0
  -10.3298   21.9889  -31.9184 H   0  0  0  0  0  0  0  0  0  0  0  0
   -8.8491   23.8648  -31.2278 H   0  0  0  0  0  0  0  0  0  0  0  0
   -5.4740   26.3680  -29.2910 H   0  0  0  0  0  0  0  0  0  0  0  0
   -4.9390   21.9116  -34.1893 H   0  0  0  0  0  0  0  0  0  0  0  0
   -2.4872   21.5425  -34.4291 H   0  0  0  0  0  0  0  0  0  0  0  0
  1  2  1  0
  2  3  1  0
  3  4  1  0
  4  5  2  0
  5  6  1  0
  6  7  1  0
  6  8  2  0
  8  9  1  0
  9 10  1  0
 10 11  1  0
 11 12  1  0
 11 13  1  0
  8 14  1  0
 14 15  1  0
 15 16  1  0
 16 17  2  0
 17 18  1  0
 18 19  2  0
 19 20  1  0
 20 21  2  0
 21 22  1  0
 22 23  2  0
 23 24  1  0
 24 25  2  0
 25 26  1  0
 26 27  1  0
 27 28  2  0
 28 29  1  0
 29 30  1  0
 19 31  1  0
 31 32  2  0
 14  4  1  0
 32 16  1  0
 25 20  1  0
 30 26  2  0
  1 33  1  0
  1 34  1  0
  1 35  1  0
  2 36  1  0
  2 37  1  0
  3 38  1  0
  3 39  1  0
  9 40  1  0
  9 41  1  0
 10 42  1  0
 11 43  1  0
 12 44  1  0
 12 45  1  0
 12 46  1  0
 13 47  1  0
 13 48  1  0
 13 49  1  0
 15 50  1  0
 15 51  1  0
 17 52  1  0
 18 53  1  0
 21 54  1  0
 22 55  1  0
 23 56  1  0
 24 57  1  0
 29 58  1  0
 31 59  1  0
 32 60  1  0
M  END
>  <UniqueID>  (27) 
26

>  <SMILES>  (27) 
CCCc1nc(Cl)c(CNC(C)C)n1Cc1ccc(-c2ccccc2-c2nn[nH]n2)cc1

>  <Energy>  (27) 
132.5747733903405

>  <Genealogy>  (27) 
CCCc1nc(Cl)c(CNC(C)C)n1Cc1ccc(-c2ccccc2-c2nn[nH]n2)cc1 (3D coordinates assigned)
CCCc1nc(Cl)c(CNC(C)C)n1Cc1ccc(-c2ccccc2-c2nn[nH]n2)cc1 (optimized conformer: 132.5747733903405 kcal/mol)

>  <smiles>  (27) 
CCCc1nc(Cl)c(CNC(C)C)n1Cc1ccc(-c2ccccc2-c2nn[nH]n2)cc1

>  <score_type>  (27) 
oracle

>  <origin>  (27) 
adgpu

>  <m_score__min__energy>  (27) 
-10.949999999999999

>  <m_primary>  (27) 
energy

$$$$
27:0
     RDKit          3D

 52 54  0  0  0  0  0  0  0  0999 V2000
   -4.5940   13.6720  -31.4390 C   0  0  0  0  0  0  0  0  0  0  0  0
   -4.9560   14.5520  -32.6490 C   0  0  1  0  0  0  0  0  0  0  0  0
   -4.0690   15.8260  -32.7020 C   0  0  0  0  0  0  0  0  0  0  0  0
   -3.7180   16.2260  -34.0790 N   0  0  0  0  0  0  0  0  0  0  0  0
   -4.6730   17.1280  -34.7650 C   0  0  0  0  0  0  0  0  0  0  0  0
   -4.9580   18.4110  -34.0150 C   0  0  0  0  0  0  0  0  0  0  0  0
   -3.9760   19.4120  -33.9510 C   0  0  0  0  0  0  0  0  0  0  0  0
   -4.2070   20.5920  -33.2400 C   0  0  0  0  0  0  0  0  0  0  0  0
   -5.4350   20.8060  -32.5930 C   0  0  0  0  0  0  0  0  0  0  0  0
   -5.6770   22.0550  -31.8280 C   0  0  0  0  0  0  0  0  0  0  0  0
   -6.9770   22.4150  -31.4380 C   0  0  0  0  0  0  0  0  0  0  0  0
   -7.1980   23.5830  -30.7060 C   0  0  0  0  0  0  0  0  0  0  0  0
   -6.1320   24.4190  -30.3620 C   0  0  0  0  0  0  0  0  0  0  0  0
   -6.4650   25.8120  -29.3420 Cl  0  0  0  0  0  0  0  0  0  0  0  0
   -4.8240   24.0860  -30.7730 C   0  0  0  0  0  0  0  0  0  0  0  0
   -3.6930   24.9030  -30.4530 N   0  0  0  0  0  0  0  0  0  0  0  0
   -2.5420   24.5060  -29.2190 S   0  0  0  0  0  0  0  0  0  0  0  0
   -3.4140   24.1180  -27.7190 C   0  0  0  0  0  0  0  0  0  0  0  0
   -1.6250   25.6730  -28.9860 O   0  0  0  0  0  0  0  0  0  0  0  0
   -1.7360   23.3070  -29.6340 O   0  0  0  0  0  0  0  0  0  0  0  0
   -4.6050   22.8970  -31.4810 C   0  0  0  0  0  0  0  0  0  0  0  0
   -6.4340   19.8220  -32.6900 C   0  0  0  0  0  0  0  0  0  0  0  0
   -6.2040   18.6400  -33.4010 C   0  0  0  0  0  0  0  0  0  0  0  0
   -7.2100   17.7370  -33.5050 F   0  0  0  0  0  0  0  0  0  0  0  0
   -3.1200   15.1570  -34.9070 C   0  0  0  0  0  0  0  0  0  0  0  0
   -3.5720   13.7390  -34.4880 C   0  0  2  0  0  0  0  0  0  0  0  0
   -3.5440   12.7850  -35.6880 C   0  0  0  0  0  0  0  0  0  0  0  0
   -4.9220   13.7900  -33.9130 N   0  0  0  0  0  0  0  0  0  0  0  0
   -4.8179   14.2163  -30.5097 H   0  0  0  0  0  0  0  0  0  0  0  0
   -5.1833   12.7437  -31.4713 H   0  0  0  0  0  0  0  0  0  0  0  0
   -3.5221   13.4271  -31.4713 H   0  0  0  0  0  0  0  0  0  0  0  0
   -5.9954   14.8875  -32.5183 H   0  0  0  0  0  0  0  0  0  0  0  0
   -4.6145   16.6534  -32.2247 H   0  0  0  0  0  0  0  0  0  0  0  0
   -3.1305   15.5964  -32.1761 H   0  0  0  0  0  0  0  0  0  0  0  0
   -4.2563   17.3884  -35.7492 H   0  0  0  0  0  0  0  0  0  0  0  0
   -5.6265   16.5845  -34.8379 H   0  0  0  0  0  0  0  0  0  0  0  0
   -3.0150   19.2658  -34.4659 H   0  0  0  0  0  0  0  0  0  0  0  0
   -3.4209   21.3596  -33.1865 H   0  0  0  0  0  0  0  0  0  0  0  0
   -7.8270   21.7724  -31.7111 H   0  0  0  0  0  0  0  0  0  0  0  0
   -8.2201   23.8477  -30.3972 H   0  0  0  0  0  0  0  0  0  0  0  0
   -2.7944   24.3937  -26.8529 H   0  0  0  0  0  0  0  0  0  0  0  0
   -4.3587   24.6807  -27.6880 H   0  0  0  0  0  0  0  0  0  0  0  0
   -3.6284   23.0395  -27.6880 H   0  0  0  0  0  0  0  0  0  0  0  0
   -3.5808   22.6181  -31.7694 H   0  0  0  0  0  0  0  0  0  0  0  0
   -7.4064   19.9833  -32.2018 H   0  0  0  0  0  0  0  0  0  0  0  0
   -3.4114   15.3217  -35.9548 H   0  0  0  0  0  0  0  0  0  0  0  0
   -2.0298   15.2072  -34.7692 H   0  0  0  0  0  0  0  0  0  0  0  0
   -2.8728   13.3605  -33.7278 H   0  0  0  0  0  0  0  0  0  0  0  0
   -3.5135   11.7455  -35.3294 H   0  0  0  0  0  0  0  0  0  0  0  0
   -4.4470   12.9362  -36.2977 H   0  0  0  0  0  0  0  0  0  0  0  0
   -2.6515   12.9889  -36.2977 H   0  0  0  0  0  0  0  0  0  0  0  0
   -5.2750   12.8180  -33.7460 H   0  0  0  0  0  0  0  0  0  0  0  0
  1  2  1  0
  2  3  1  0
  3  4  1  0
  4  5  1  0
  5  6  1  0
  6  7  2  0
  7  8  1  0
  8  9  2  0
  9 10  1  0
 10 11  2  0
 11 12  1  0
 12 13  2  0
 13 14  1  0
 13 15  1  0
 15 16  1  0
 16 17  1  0
 17 18  1  0
 17 19  2  0
 17 20  2  0
 15 21  2  0
  9 22  1  0
 22 23  2  0
 23 24  1  0
  4 25  1  0
 25 26  1  0
 26 27  1  0
 26 28  1  0
 28  2  1  0
 23  6  1  0
 21 10  1  0
  1 29  1  0
  1 30  1  0
  1 31  1  0
  2 32  1  1
  3 33  1  0
  3 34  1  0
  5 35  1  0
  5 36  1  0
  7 37  1  0
  8 38  1  0
 11 39  1  0
 12 40  1  0
 18 41  1  0
 18 42  1  0
 18 43  1  0
 21 44  1  0
 22 45  1  0
 25 46  1  0
 25 47  1  0
 26 48  1  1
 27 49  1  0
 27 50  1  0
 27 51  1  0
 28 52  1  0
M  CHG  1  16  -1
M  END
>  <UniqueID>  (28) 
27

>  <SMILES>  (28) 
C[C@H]1CN(Cc2ccc(-c3ccc(Cl)c([N-]S(C)(=O)=O)c3)cc2F)C[C@H](C)N1

>  <Energy>  (28) 
75.96938961943886

>  <Genealogy>  (28) 
CC1CN(Cc2ccc(-c3ccc(Cl)c([N-]S(C)(=O)=O)c3)cc2F)CC(C)N1 (protonated)
C[C@H]1CN(Cc2ccc(-c3ccc(Cl)c([N-]S(C)(=O)=O)c3)cc2F)C[C@H](C)N1 (chirality)
C[C@H]1CN(Cc2ccc(-c3ccc(Cl)c([N-]S(C)(=O)=O)c3)cc2F)C[C@H](C)N1 (3D coordinates assigned)
C[C@H]1CN(Cc2ccc(-c3ccc(Cl)c([N-]S(C)(=O)=O)c3)cc2F)C[C@H](C)N1 (nonaromatic ring conformer: 75.96938961943886 kcal/mol)

>  <smiles>  (28) 
CC1CN(Cc2ccc(-c3ccc(Cl)c(NS(C)(=O)=O)c3)cc2F)CC(C)N1

>  <score_type>  (28) 
oracle

>  <origin>  (28) 
adgpu

>  <m_score__min__energy>  (28) 
-10.970000000000001

>  <m_primary>  (28) 
energy

$$$$
28:0
     RDKit          3D

 28 29  0  0  0  0  0  0  0  0999 V2000
   -8.9680   21.9070  -31.4910 C   0  0  0  0  0  0  0  0  0  0  0  0
   -7.5530   21.5460  -31.6140 N   0  0  0  0  0  0  0  0  0  0  0  0
   -6.5080   22.4990  -31.3130 C   0  0  0  0  0  0  0  0  0  0  0  0
   -5.1860   22.0770  -31.0600 C   0  0  0  0  0  0  0  0  0  0  0  0
   -4.1860   23.0090  -30.7700 C   0  0  0  0  0  0  0  0  0  0  0  0
   -4.4860   24.3720  -30.7300 C   0  0  0  0  0  0  0  0  0  0  0  0
   -3.4890   25.2960  -30.4420 O   0  0  0  0  0  0  0  0  0  0  0  0
   -5.7900   24.8060  -30.9800 C   0  0  0  0  0  0  0  0  0  0  0  0
   -6.7950   23.8780  -31.2690 C   0  0  0  0  0  0  0  0  0  0  0  0
   -7.2250   20.3000  -32.2510 C   0  0  0  0  0  0  0  0  0  0  0  0
   -6.2490   20.2750  -33.2600 C   0  0  0  0  0  0  0  0  0  0  0  0
   -5.9280   19.0770  -33.9010 C   0  0  0  0  0  0  0  0  0  0  0  0
   -6.5770   17.8930  -33.5390 C   0  0  0  0  0  0  0  0  0  0  0  0
   -7.5430   17.9060  -32.5290 C   0  0  0  0  0  0  0  0  0  0  0  0
   -7.8680   19.1010  -31.8750 C   0  0  0  0  0  0  0  0  0  0  0  0
   -8.8130   19.0700  -30.8490 O   0  0  0  0  0  0  0  0  0  0  0  0
   -9.2377   21.9758  -30.4268 H   0  0  0  0  0  0  0  0  0  0  0  0
   -9.1422   22.8784  -31.9769 H   0  0  0  0  0  0  0  0  0  0  0  0
   -9.5862   21.1378  -31.9769 H   0  0  0  0  0  0  0  0  0  0  0  0
   -4.9402   21.0053  -31.0912 H   0  0  0  0  0  0  0  0  0  0  0  0
   -3.1591   22.6677  -30.5726 H   0  0  0  0  0  0  0  0  0  0  0  0
   -6.0266   25.8798  -30.9494 H   0  0  0  0  0  0  0  0  0  0  0  0
   -7.8196   24.2276  -31.4639 H   0  0  0  0  0  0  0  0  0  0  0  0
   -5.7346   21.2040  -33.5469 H   0  0  0  0  0  0  0  0  0  0  0  0
   -5.1635   19.0648  -34.6918 H   0  0  0  0  0  0  0  0  0  0  0  0
   -6.3274   16.9509  -34.0491 H   0  0  0  0  0  0  0  0  0  0  0  0
   -8.0510   16.9722  -32.2461 H   0  0  0  0  0  0  0  0  0  0  0  0
   -9.2190   18.2060  -30.5110 H   0  0  0  0  0  0  0  0  0  0  0  0
  1  2  1  0
  2  3  1  0
  3  4  2  0
  4  5  1  0
  5  6  2  0
  6  7  1  0
  6  8  1  0
  8  9  2  0
  2 10  1  0
 10 11  2  0
 11 12  1  0
 12 13  2  0
 13 14  1  0
 14 15  2  0
 15 16  1  0
  9  3  1  0
 15 10  1  0
  1 17  1  0
  1 18  1  0
  1 19  1  0
  4 20  1  0
  5 21  1  0
  8 22  1  0
  9 23  1  0
 11 24  1  0
 12 25  1  0
 13 26  1  0
 14 27  1  0
 16 28  1  0
M  CHG  1   7  -1
M  END
>  <UniqueID>  (29) 
28

>  <SMILES>  (29) 
CN(c1ccc([O-])cc1)c1ccccc1O

>  <Energy>  (29) 
38.07983635847387

>  <Genealogy>  (29) 
CN(c1ccc([O-])cc1)c1ccccc1O (protonated)
CN(c1ccc([O-])cc1)c1ccccc1O (3D coordinates assigned)
CN(c1ccc([O-])cc1)c1ccccc1O (optimized conformer: 38.07983635847387 kcal/mol)

>  <smiles>  (29) 
CN(c1ccc(O)cc1)c1ccccc1O

>  <score_type>  (29) 
oracle

>  <origin>  (29) 
adgpu

>  <m_score__min__energy>  (29) 
-9.6500000000000004

>  <m_primary>  (29) 
energy

$$$$
29:0
     RDKit          3D

 30 32  0  0  0  0  0  0  0  0999 V2000
   -8.0740   17.8650  -32.3660 O   0  0  0  0  0  0  0  0  0  0  0  0
   -7.2070   18.4470  -33.0720 C   0  0  0  0  0  0  0  0  0  0  0  0
   -7.3460   19.8550  -33.3060 N   0  0  0  0  0  0  0  0  0  0  0  0
   -7.4280   20.8790  -32.3030 C   0  0  0  0  0  0  0  0  0  0  0  0
   -8.5650   20.9390  -31.4910 C   0  0  0  0  0  0  0  0  0  0  0  0
   -8.6740   21.9180  -30.5030 C   0  0  0  0  0  0  0  0  0  0  0  0
   -7.6440   22.8410  -30.3110 C   0  0  0  0  0  0  0  0  0  0  0  0
   -6.4810   22.7870  -31.1030 C   0  0  0  0  0  0  0  0  0  0  0  0
   -5.3840   23.7680  -30.9040 C   0  0  0  0  0  0  0  0  0  0  0  0
   -4.0780   23.5150  -30.5310 C   0  0  0  0  0  0  0  0  0  0  0  0
   -3.4060   24.6790  -30.4550 N   0  0  0  0  0  0  0  0  0  0  0  0
   -4.2350   25.6660  -30.7630 N   0  0  0  0  0  0  0  0  0  0  0  0
   -5.4430   25.1420  -31.0400 C   0  0  0  0  0  0  0  0  0  0  0  0
   -6.3770   21.7880  -32.0870 C   0  0  0  0  0  0  0  0  0  0  0  0
   -6.1100   17.6520  -33.6730 C   0  0  0  0  0  0  0  0  0  0  0  0
   -5.7290   16.4130  -33.1320 C   0  0  0  0  0  0  0  0  0  0  0  0
   -4.6980   15.6780  -33.7200 C   0  0  0  0  0  0  0  0  0  0  0  0
   -4.0450   16.1930  -34.8410 C   0  0  0  0  0  0  0  0  0  0  0  0
   -4.4110   17.4010  -35.3460 N   0  0  0  0  0  0  0  0  0  0  0  0
   -5.4120   18.1350  -34.7920 C   0  0  0  0  0  0  0  0  0  0  0  0
   -9.3773   20.2108  -31.6320 H   0  0  0  0  0  0  0  0  0  0  0  0
   -9.5746   21.9629  -29.8730 H   0  0  0  0  0  0  0  0  0  0  0  0
   -7.7418   23.6154  -29.5359 H   0  0  0  0  0  0  0  0  0  0  0  0
   -3.6545   22.5202  -30.3283 H   0  0  0  0  0  0  0  0  0  0  0  0
   -6.3357   25.7161  -31.3288 H   0  0  0  0  0  0  0  0  0  0  0  0
   -5.4630   21.7167  -32.6949 H   0  0  0  0  0  0  0  0  0  0  0  0
   -6.2443   16.0209  -32.2428 H   0  0  0  0  0  0  0  0  0  0  0  0
   -4.4033   14.7032  -33.3042 H   0  0  0  0  0  0  0  0  0  0  0  0
   -3.2341   15.6213  -35.3159 H   0  0  0  0  0  0  0  0  0  0  0  0
   -5.6767   19.1122  -35.2222 H   0  0  0  0  0  0  0  0  0  0  0  0
  1  2  2  0
  2  3  1  0
  3  4  1  0
  4  5  2  0
  5  6  1  0
  6  7  2  0
  7  8  1  0
  8  9  1  0
  9 10  1  0
 10 11  2  0
 11 12  1  0
 12 13  1  0
  8 14  2  0
  2 15  1  0
 15 16  2  0
 16 17  1  0
 17 18  2  0
 18 19  1  0
 19 20  2  0
 14  4  1  0
 20 15  1  0
 13  9  2  0
  5 21  1  0
  6 22  1  0
  7 23  1  0
 10 24  1  0
 13 25  1  0
 14 26  1  0
 16 27  1  0
 17 28  1  0
 18 29  1  0
 20 30  1  0
M  CHG  2   3  -1  12  -1
M  END
>  <UniqueID>  (30) 
29

>  <SMILES>  (30) 
O=C([N-]c1cccc(-c2cn[n-]c2)c1)c1cccnc1

>  <Energy>  (30) 
71.75930757340264

>  <Genealogy>  (30) 
O=C([N-]c1cccc(-c2cn[n-]c2)c1)c1cccnc1 (protonated)
O=C([N-]c1cccc(-c2cn[n-]c2)c1)c1cccnc1 (3D coordinates assigned)
O=C([N-]c1cccc(-c2cn[n-]c2)c1)c1cccnc1 (optimized conformer: 71.75930757340264 kcal/mol)

>  <smiles>  (30) 
O=C(Nc1cccc(-c2cn[nH]c2)c1)c1cccnc1

>  <score_type>  (30) 
oracle

>  <origin>  (30) 
adgpu

>  <m_score__min__energy>  (30) 
-9.4600000000000009

>  <m_primary>  (30) 
energy

$$$$
30:0
     RDKit          3D

 40 42  0  0  0  0  0  0  0  0999 V2000
   -5.1750   26.9250  -30.2980 H   0  0  0  0  0  0  0  0  0  0  0  0
   -5.4220   26.0670  -30.8410 N   0  0  0  0  0  0  0  0  0  0  0  0
   -4.7400   24.9760  -30.7260 C   0  0  0  0  0  0  0  0  0  0  0  0
   -5.0920   23.8820  -31.4490 N   0  0  0  0  0  0  0  0  0  0  0  0
   -4.3980   22.7150  -31.3570 C   0  0  0  0  0  0  0  0  0  0  0  0
   -4.8320   21.5440  -32.1640 C   0  0  0  0  0  0  0  0  0  0  0  0
   -3.8960   20.7000  -32.7860 C   0  0  0  0  0  0  0  0  0  0  0  0
   -2.8204   20.9000  -32.6714 H   0  0  0  0  0  0  0  0  0  0  0  0
   -4.3200   19.6100  -33.5480 C   0  0  0  0  0  0  0  0  0  0  0  0
   -3.5764   18.9553  -34.0259 H   0  0  0  0  0  0  0  0  0  0  0  0
   -5.6920   19.3430  -33.7090 C   0  0  0  0  0  0  0  0  0  0  0  0
   -6.1540   18.2550  -34.4660 O   0  0  0  0  0  0  0  0  0  0  0  0
   -5.5360   16.9720  -34.4970 C   0  0  0  0  0  0  0  0  0  0  0  0
   -5.3671   16.6214  -33.4681 H   0  0  0  0  0  0  0  0  0  0  0  0
   -6.1910   16.2621  -35.0234 H   0  0  0  0  0  0  0  0  0  0  0  0
   -4.5726   17.0417  -35.0234 H   0  0  0  0  0  0  0  0  0  0  0  0
   -6.6370   20.1830  -33.1020 C   0  0  0  0  0  0  0  0  0  0  0  0
   -7.9980   19.8920  -33.2840 O   0  0  0  0  0  0  0  0  0  0  0  0
   -8.8330   19.2860  -32.3010 C   0  0  0  0  0  0  0  0  0  0  0  0
   -8.4689   19.5503  -31.2972 H   0  0  0  0  0  0  0  0  0  0  0  0
   -9.8649   19.6469  -32.4235 H   0  0  0  0  0  0  0  0  0  0  0  0
   -8.8098   18.1931  -32.4235 H   0  0  0  0  0  0  0  0  0  0  0  0
   -6.2020   21.2820  -32.3360 C   0  0  0  0  0  0  0  0  0  0  0  0
   -6.9444   21.9440  -31.8662 H   0  0  0  0  0  0  0  0  0  0  0  0
   -3.3000   22.6420  -30.4840 C   0  0  0  0  0  0  0  0  0  0  0  0
   -2.7309   21.7064  -30.3795 H   0  0  0  0  0  0  0  0  0  0  0  0
   -2.9400   23.7810  -29.7470 C   0  0  0  0  0  0  0  0  0  0  0  0
   -1.7820   23.7620  -28.8160 C   0  0  0  0  0  0  0  0  0  0  0  0
   -1.4720   22.5950  -28.0910 C   0  0  0  0  0  0  0  0  0  0  0  0
   -2.0992   21.6987  -28.2062 H   0  0  0  0  0  0  0  0  0  0  0  0
   -0.3750   22.5660  -27.2270 C   0  0  0  0  0  0  0  0  0  0  0  0
   -0.1447   21.6488  -26.6651 H   0  0  0  0  0  0  0  0  0  0  0  0
    0.4320   23.6980  -27.0730 C   0  0  0  0  0  0  0  0  0  0  0  0
    1.5270   23.6790  -26.2140 O   0  0  0  0  0  0  0  0  0  0  0  0
    1.5000   24.1360  -25.3100 H   0  0  0  0  0  0  0  0  0  0  0  0
    0.1360   24.8610  -27.7890 C   0  0  0  0  0  0  0  0  0  0  0  0
    0.7706   25.7516  -27.6703 H   0  0  0  0  0  0  0  0  0  0  0  0
   -0.9620   24.9010  -28.6560 C   0  0  0  0  0  0  0  0  0  0  0  0
   -1.2370   26.0820  -29.3380 O   0  0  0  0  0  0  0  0  0  0  0  0
   -3.6730   24.9190  -29.8870 N   0  0  0  0  0  0  0  0  0  0  0  0
  1  2  1  0
  2  3  2  0
  3  4  1  0
  4  5  2  0
  5  6  1  0
  6  7  2  0
  7  8  1  0
  7  9  1  0
  9 10  1  0
  9 11  2  0
 11 12  1  0
 12 13  1  0
 13 14  1  0
 13 15  1  0
 13 16  1  0
 11 17  1  0
 17 18  1  0
 18 19  1  0
 19 20  1  0
 19 21  1  0
 19 22  1  0
 17 23  2  0
 23 24  1  0
  5 25  1  0
 25 26  1  0
 25 27  2  0
 27 28  1  0
 28 29  2  0
 29 30  1  0
 29 31  1  0
 31 32  1  0
 31 33  2  0
 33 34  1  0
 34 35  1  0
 33 36  1  0
 36 37  1  0
 36 38  2  0
 38 39  1  0
 27 40  1  0
 40  3  1  0
 23  6  1  0
 38 28  1  0
M  CHG  2  39  -1  40  -1
M  END
>  <UniqueID>  (31) 
30

>  <SMILES>  (31) 
[H]/N=c1/nc(-c2ccc(OC)c(OC)c2)cc(-c2ccc(O)cc2[O-])[n-]1

>  <Energy>  (31) 
51.135760887866695

>  <Genealogy>  (31) 
COc1ccc(-c2cc(-c3ccc(O)cc3[O-])[n-]c(=N)n2)cc1OC (protonated)
[H]/N=c1/nc(-c2ccc(OC)c(OC)c2)cc(-c2ccc(O)cc2[O-])[n-]1 (cis-trans isomerization)
[H]/N=c1/nc(-c2ccc(OC)c(OC)c2)cc(-c2ccc(O)cc2[O-])[n-]1 (3D coordinates assigned)
[H]/N=c1/nc(-c2ccc(OC)c(OC)c2)cc(-c2ccc(O)cc2[O-])[n-]1 (optimized conformer: 51.135760887866695 kcal/mol)

>  <smiles>  (31) 
COc1ccc(-c2cc(-c3ccc(O)cc3O)[nH]c(=N)n2)cc1OC

>  <score_type>  (31) 
oracle

>  <origin>  (31) 
adgpu

>  <m_score__min__energy>  (31) 
-11.82

>  <m_primary>  (31) 
energy

$$$$
31:0
     RDKit          3D

 32 33  0  0  0  0  0  0  0  0999 V2000
   -9.2660   22.3150  -31.9070 C   0  0  0  0  0  0  0  0  0  0  0  0
   -7.9080   21.7660  -31.9730 N   0  0  0  0  0  0  0  0  0  0  0  0
   -7.6810   20.3940  -32.4350 C   0  0  0  0  0  0  0  0  0  0  0  0
   -6.7870   22.5830  -31.5790 C   0  0  0  0  0  0  0  0  0  0  0  0
   -6.9930   23.7980  -31.0020 N   0  0  0  0  0  0  0  0  0  0  0  0
   -5.9530   24.5870  -30.6250 C   0  0  0  0  0  0  0  0  0  0  0  0
   -4.6360   24.1520  -30.8280 C   0  0  0  0  0  0  0  0  0  0  0  0
   -3.4940   24.9340  -30.4580 N   0  0  0  0  0  0  0  0  0  0  0  0
   -2.4650   24.6110  -29.1010 S   0  0  0  0  0  0  0  0  0  0  0  0
   -3.2360   24.8440  -27.8330 O   0  0  0  0  0  0  0  0  0  0  0  0
   -1.2910   25.5490  -29.1410 O   0  0  0  0  0  0  0  0  0  0  0  0
   -1.9220   22.9360  -29.1380 C   0  0  0  0  0  0  0  0  0  0  0  0
   -2.4780   21.9980  -28.2560 C   0  0  0  0  0  0  0  0  0  0  0  0
   -2.0540   20.6660  -28.2870 C   0  0  0  0  0  0  0  0  0  0  0  0
   -1.0700   20.2660  -29.1980 C   0  0  0  0  0  0  0  0  0  0  0  0
   -0.6590   18.9740  -29.2270 F   0  0  0  0  0  0  0  0  0  0  0  0
   -0.5090   21.1990  -30.0740 C   0  0  0  0  0  0  0  0  0  0  0  0
   -0.9310   22.5320  -30.0450 C   0  0  0  0  0  0  0  0  0  0  0  0
   -4.4450   22.9010  -31.4180 C   0  0  0  0  0  0  0  0  0  0  0  0
   -5.5140   22.1460  -31.7810 N   0  0  0  0  0  0  0  0  0  0  0  0
   -9.5623   22.4348  -30.8545 H   0  0  0  0  0  0  0  0  0  0  0  0
   -9.2906   23.2937  -32.4085 H   0  0  0  0  0  0  0  0  0  0  0  0
   -9.9639   21.6284  -32.4085 H   0  0  0  0  0  0  0  0  0  0  0  0
   -7.5708   19.7281  -31.5664 H   0  0  0  0  0  0  0  0  0  0  0  0
   -8.5370   20.0654  -33.0427 H   0  0  0  0  0  0  0  0  0  0  0  0
   -6.7648   20.3586  -33.0427 H   0  0  0  0  0  0  0  0  0  0  0  0
   -6.1443   25.5659  -30.1611 H   0  0  0  0  0  0  0  0  0  0  0  0
   -3.2500   22.3112  -27.5377 H   0  0  0  0  0  0  0  0  0  0  0  0
   -2.4939   19.9325  -27.5953 H   0  0  0  0  0  0  0  0  0  0  0  0
    0.2663   20.8843  -30.7880 H   0  0  0  0  0  0  0  0  0  0  0  0
   -0.4854   23.2645  -30.7341 H   0  0  0  0  0  0  0  0  0  0  0  0
   -3.4253   22.5257  -31.5894 H   0  0  0  0  0  0  0  0  0  0  0  0
  1  2  1  0
  2  3  1  0
  2  4  1  0
  4  5  2  0
  5  6  1  0
  6  7  2  0
  7  8  1  0
  8  9  1  0
  9 10  2  0
  9 11  2  0
  9 12  1  0
 12 13  2  0
 13 14  1  0
 14 15  2  0
 15 16  1  0
 15 17  1  0
 17 18  2  0
  7 19  1  0
 19 20  2  0
 20  4  1  0
 18 12  1  0
  1 21  1  0
  1 22  1  0
  1 23  1  0
  3 24  1  0
  3 25  1  0
  3 26  1  0
  6 27  1  0
 13 28  1  0
 14 29  1  0
 17 30  1  0
 18 31  1  0
 19 32  1  0
M  CHG  1   8  -1
M  END
>  <UniqueID>  (32) 
31

>  <SMILES>  (32) 
CN(C)c1ncc([N-]S(=O)(=O)c2ccc(F)cc2)cn1

>  <Energy>  (32) 
33.65936963975348

>  <Genealogy>  (32) 
CN(C)c1ncc([N-]S(=O)(=O)c2ccc(F)cc2)cn1 (protonated)
CN(C)c1ncc([N-]S(=O)(=O)c2ccc(F)cc2)cn1 (3D coordinates assigned)
CN(C)c1ncc([N-]S(=O)(=O)c2ccc(F)cc2)cn1 (optimized conformer: 33.65936963975348 kcal/mol)

>  <smiles>  (32) 
CN(C)c1ncc(NS(=O)(=O)c2ccc(F)cc2)cn1

>  <score_type>  (32) 
oracle

>  <origin>  (32) 
adgpu

>  <m_score__min__energy>  (32) 
-7.5499999999999998

>  <m_primary>  (32) 
energy

$$$$
32:0
     RDKit          3D

 50 51  0  0  0  0  0  0  0  0999 V2000
   -3.4100   19.1350  -33.0300 C   0  0  0  0  0  0  0  0  0  0  0  0
   -4.6650   18.3040  -33.3210 C   0  0  1  0  0  0  0  0  0  0  0  0
   -5.4740   18.0790  -32.0230 C   0  0  0  0  0  0  0  0  0  0  0  0
   -6.9420   17.7640  -32.3400 C   0  0  0  0  0  0  0  0  0  0  0  0
   -7.6200   18.8590  -33.0870 N   0  0  1  0  0  0  0  0  0  0  0  0
   -8.6020   19.8310  -32.0150 S   0  0  0  0  0  0  0  0  0  0  0  0
   -9.8540   20.2690  -32.7230 O   0  0  0  0  0  0  0  0  0  0  0  0
   -8.9910   19.0260  -30.8060 O   0  0  0  0  0  0  0  0  0  0  0  0
   -7.6860   21.2390  -31.4820 C   0  0  0  0  0  0  0  0  0  0  0  0
   -6.3140   21.1170  -31.2280 C   0  0  0  0  0  0  0  0  0  0  0  0
   -5.5680   22.2330  -30.8410 C   0  0  0  0  0  0  0  0  0  0  0  0
   -6.1880   23.4840  -30.7120 C   0  0  0  0  0  0  0  0  0  0  0  0
   -5.2570   24.9100  -30.2690 S   0  0  0  0  0  0  0  0  0  0  0  0
   -5.7030   26.0400  -31.1540 O   0  0  0  0  0  0  0  0  0  0  0  0
   -5.5420   25.3060  -28.8460 O   0  0  0  0  0  0  0  0  0  0  0  0
   -3.5380   24.6830  -30.4960 N   0  0  0  0  0  0  0  0  0  0  0  0
   -2.8190   23.8700  -29.4930 C   0  0  0  0  0  0  0  0  0  0  0  0
   -1.8060   24.8110  -28.8160 C   0  0  0  0  0  0  0  0  0  0  0  0
   -2.0340   22.7280  -30.1700 C   0  0  0  0  0  0  0  0  0  0  0  0
   -3.7510   23.3060  -28.3990 C   0  0  0  0  0  0  0  0  0  0  0  0
   -7.5630   23.6040  -30.9560 C   0  0  0  0  0  0  0  0  0  0  0  0
   -8.3090   22.4870  -31.3420 C   0  0  0  0  0  0  0  0  0  0  0  0
   -6.7000   19.7390  -33.8490 C   0  0  0  0  0  0  0  0  0  0  0  0
   -5.5240   18.9500  -34.4370 C   0  0  0  0  0  0  0  0  0  0  0  0
   -3.2740   19.2251  -31.9422 H   0  0  0  0  0  0  0  0  0  0  0  0
   -2.5319   18.6392  -33.4695 H   0  0  0  0  0  0  0  0  0  0  0  0
   -3.5236   20.1370  -33.4695 H   0  0  0  0  0  0  0  0  0  0  0  0
   -4.3511   17.3185  -33.6955 H   0  0  0  0  0  0  0  0  0  0  0  0
   -5.0367   17.2362  -31.4677 H   0  0  0  0  0  0  0  0  0  0  0  0
   -5.4342   18.9984  -31.4204 H   0  0  0  0  0  0  0  0  0  0  0  0
   -6.9814   16.8477  -32.9474 H   0  0  0  0  0  0  0  0  0  0  0  0
   -7.4684   17.6421  -31.3818 H   0  0  0  0  0  0  0  0  0  0  0  0
   -8.2790   18.4180  -33.7710 H   0  0  0  0  0  0  0  0  0  0  0  0
   -5.8220   20.1388  -31.3336 H   0  0  0  0  0  0  0  0  0  0  0  0
   -4.4920   22.1301  -30.6371 H   0  0  0  0  0  0  0  0  0  0  0  0
   -1.8989   24.7247  -27.7233 H   0  0  0  0  0  0  0  0  0  0  0  0
   -0.7864   24.5323  -29.1205 H   0  0  0  0  0  0  0  0  0  0  0  0
   -2.0089   25.8484  -29.1205 H   0  0  0  0  0  0  0  0  0  0  0  0
   -1.5895   22.0814  -29.3991 H   0  0  0  0  0  0  0  0  0  0  0  0
   -2.7165   22.1353  -30.7969 H   0  0  0  0  0  0  0  0  0  0  0  0
   -1.2362   23.1528  -30.7969 H   0  0  0  0  0  0  0  0  0  0  0  0
   -3.3436   23.5525  -27.4074 H   0  0  0  0  0  0  0  0  0  0  0  0
   -4.7517   23.7502  -28.5051 H   0  0  0  0  0  0  0  0  0  0  0  0
   -3.8217   22.2134  -28.5051 H   0  0  0  0  0  0  0  0  0  0  0  0
   -8.0566   24.5806  -30.8433 H   0  0  0  0  0  0  0  0  0  0  0  0
   -9.3870   22.5873  -31.5363 H   0  0  0  0  0  0  0  0  0  0  0  0
   -7.2577   20.2136  -34.6698 H   0  0  0  0  0  0  0  0  0  0  0  0
   -6.2970   20.4956  -33.1597 H   0  0  0  0  0  0  0  0  0  0  0  0
   -5.9158   18.1575  -35.0915 H   0  0  0  0  0  0  0  0  0  0  0  0
   -4.8888   19.6456  -35.0051 H   0  0  0  0  0  0  0  0  0  0  0  0
  1  2  1  0
  2  3  1  0
  3  4  1  0
  4  5  1  0
  5  6  1  0
  6  7  2  0
  6  8  2  0
  6  9  1  0
  9 10  2  0
 10 11  1  0
 11 12  2  0
 12 13  1  0
 13 14  2  0
 13 15  2  0
 13 16  1  0
 16 17  1  0
 17 18  1  0
 17 19  1  0
 17 20  1  0
 12 21  1  0
 21 22  2  0
  5 23  1  0
 23 24  1  0
 24  2  1  0
 22  9  1  0
  1 25  1  0
  1 26  1  0
  1 27  1  0
  2 28  1  1
  3 29  1  0
  3 30  1  0
  4 31  1  0
  4 32  1  0
  5 33  1  1
 10 34  1  0
 11 35  1  0
 18 36  1  0
 18 37  1  0
 18 38  1  0
 19 39  1  0
 19 40  1  0
 19 41  1  0
 20 42  1  0
 20 43  1  0
 20 44  1  0
 21 45  1  0
 22 46  1  0
 23 47  1  0
 23 48  1  0
 24 49  1  0
 24 50  1  0
M  CHG  2   5   1  16  -1
M  END
>  <UniqueID>  (33) 
32

>  <SMILES>  (33) 
CC1CC[NH+](S(=O)(=O)c2ccc(S(=O)(=O)[N-]C(C)(C)C)cc2)CC1

>  <Energy>  (33) 
53.01922953014732

>  <Genealogy>  (33) 
CC1CC[NH+](S(=O)(=O)c2ccc(S(=O)(=O)[N-]C(C)(C)C)cc2)CC1 (protonated)
CC1CC[NH+](S(=O)(=O)c2ccc(S(=O)(=O)[N-]C(C)(C)C)cc2)CC1 (3D coordinates assigned)
CC1CC[NH+](S(=O)(=O)c2ccc(S(=O)(=O)[N-]C(C)(C)C)cc2)CC1 (nonaromatic ring conformer: 53.01922953014732 kcal/mol)

>  <smiles>  (33) 
CC1CCN(S(=O)(=O)c2ccc(S(=O)(=O)NC(C)(C)C)cc2)CC1

>  <score_type>  (33) 
oracle

>  <origin>  (33) 
adgpu

>  <m_score__min__energy>  (33) 
-10.51

>  <m_primary>  (33) 
energy

$$$$
33:0
     RDKit          3D

 64 66  0  0  0  0  0  0  0  0999 V2000
   -9.4850   19.0020  -32.3400 C   0  0  0  0  0  0  0  0  0  0  0  0
   -8.2780   18.5110  -31.7680 O   0  0  0  0  0  0  0  0  0  0  0  0
   -7.0430   18.4630  -32.4350 C   0  0  0  0  0  0  0  0  0  0  0  0
   -6.2370   17.3100  -32.4360 C   0  0  0  0  0  0  0  0  0  0  0  0
   -5.0170   17.2980  -33.1150 C   0  0  0  0  0  0  0  0  0  0  0  0
   -4.5830   18.4300  -33.8210 C   0  0  0  0  0  0  0  0  0  0  0  0
   -3.2340   18.4240  -34.5200 C   0  0  0  0  0  0  0  0  0  0  0  0
   -2.2500   19.3550  -33.9030 N   0  0  2  0  0  0  0  0  0  0  0  0
   -0.8460   19.2790  -34.4160 C   0  0  0  0  0  0  0  0  0  0  0  0
   -0.1120   20.6150  -34.6670 C   0  0  0  0  0  0  0  0  0  0  0  0
   -0.8650   21.7170  -34.2470 O   0  0  0  0  0  0  0  0  0  0  0  0
   -2.3450   19.3840  -32.4190 C   0  0  0  0  0  0  0  0  0  0  0  0
   -2.5680   20.7510  -31.8130 C   0  0  0  0  0  0  0  0  0  0  0  0
   -3.6230   21.5570  -32.2720 C   0  0  0  0  0  0  0  0  0  0  0  0
   -3.9000   22.7810  -31.6540 C   0  0  0  0  0  0  0  0  0  0  0  0
   -3.1220   23.2260  -30.5710 C   0  0  0  0  0  0  0  0  0  0  0  0
   -3.4410   24.5030  -29.8940 C   0  0  0  0  0  0  0  0  0  0  0  0
   -4.6290   24.9260  -29.8700 O   0  0  0  0  0  0  0  0  0  0  0  0
   -2.3840   25.2970  -29.3410 N   0  0  0  0  0  0  0  0  0  0  0  0
   -1.6410   25.0200  -28.1430 C   0  0  0  0  0  0  0  0  0  0  0  0
   -0.2360   24.9420  -28.1610 C   0  0  0  0  0  0  0  0  0  0  0  0
    0.4740   24.6950  -26.9840 C   0  0  0  0  0  0  0  0  0  0  0  0
   -0.2030   24.5540  -25.7650 C   0  0  0  0  0  0  0  0  0  0  0  0
    0.5630   24.2470  -24.5110 C   0  0  0  0  0  0  0  0  0  0  0  0
   -1.6030   24.6480  -25.7380 C   0  0  0  0  0  0  0  0  0  0  0  0
   -2.3260   24.8910  -26.9170 C   0  0  0  0  0  0  0  0  0  0  0  0
   -3.7570   24.9710  -26.8610 N   0  0  0  0  0  0  0  0  0  0  0  0
   -2.0560   22.4250  -30.1250 C   0  0  0  0  0  0  0  0  0  0  0  0
   -1.7930   21.1920  -30.7280 C   0  0  0  0  0  0  0  0  0  0  0  0
   -5.3680   19.5950  -33.7860 C   0  0  0  0  0  0  0  0  0  0  0  0
   -6.6050   19.6120  -33.1100 C   0  0  0  0  0  0  0  0  0  0  0  0
   -7.4240   20.7520  -33.0810 O   0  0  0  0  0  0  0  0  0  0  0  0
   -7.2130   21.8780  -32.2320 C   0  0  0  0  0  0  0  0  0  0  0  0
  -10.1821   19.2856  -31.5378 H   0  0  0  0  0  0  0  0  0  0  0  0
   -9.2645   19.8819  -32.9622 H   0  0  0  0  0  0  0  0  0  0  0  0
   -9.9414   18.2180  -32.9622 H   0  0  0  0  0  0  0  0  0  0  0  0
   -6.5706   16.4107  -31.8975 H   0  0  0  0  0  0  0  0  0  0  0  0
   -4.3911   16.3936  -33.0962 H   0  0  0  0  0  0  0  0  0  0  0  0
   -2.8236   17.4042  -34.4793 H   0  0  0  0  0  0  0  0  0  0  0  0
   -3.3998   18.7615  -35.5537 H   0  0  0  0  0  0  0  0  0  0  0  0
   -2.5680   20.3190  -34.1570 H   0  0  0  0  0  0  0  0  0  0  0  0
   -0.2560   18.7102  -33.6822 H   0  0  0  0  0  0  0  0  0  0  0  0
   -0.9319   18.8123  -35.4084 H   0  0  0  0  0  0  0  0  0  0  0  0
    0.8401   20.6054  -34.1161 H   0  0  0  0  0  0  0  0  0  0  0  0
    0.0541   20.7116  -35.7501 H   0  0  0  0  0  0  0  0  0  0  0  0
   -1.1820   22.1740  -35.0700 H   0  0  0  0  0  0  0  0  0  0  0  0
   -3.1837   18.7384  -32.1194 H   0  0  0  0  0  0  0  0  0  0  0  0
   -1.3693   19.0406  -32.0447 H   0  0  0  0  0  0  0  0  0  0  0  0
   -4.2352   21.2235  -33.1229 H   0  0  0  0  0  0  0  0  0  0  0  0
   -4.7331   23.4001  -32.0183 H   0  0  0  0  0  0  0  0  0  0  0  0
    0.3066   25.0765  -29.1084 H   0  0  0  0  0  0  0  0  0  0  0  0
    1.5704   24.6107  -27.0139 H   0  0  0  0  0  0  0  0  0  0  0  0
   -0.0541   24.4943  -23.6346 H   0  0  0  0  0  0  0  0  0  0  0  0
    0.8180   23.1772  -24.4898 H   0  0  0  0  0  0  0  0  0  0  0  0
    1.4863   24.8445  -24.4898 H   0  0  0  0  0  0  0  0  0  0  0  0
   -2.1388   24.5303  -24.7846 H   0  0  0  0  0  0  0  0  0  0  0  0
   -4.3100   25.2470  -27.7040 H   0  0  0  0  0  0  0  0  0  0  0  0
   -4.2780   24.8010  -25.9710 H   0  0  0  0  0  0  0  0  0  0  0  0
   -1.4237   22.7718  -29.2944 H   0  0  0  0  0  0  0  0  0  0  0  0
   -0.9736   20.5628  -30.3503 H   0  0  0  0  0  0  0  0  0  0  0  0
   -5.0130   20.5048  -34.2922 H   0  0  0  0  0  0  0  0  0  0  0  0
   -7.2725   21.5606  -31.1805 H   0  0  0  0  0  0  0  0  0  0  0  0
   -6.2191   22.3056  -32.4303 H   0  0  0  0  0  0  0  0  0  0  0  0
   -7.9847   22.6364  -32.4303 H   0  0  0  0  0  0  0  0  0  0  0  0
  1  2  1  0
  2  3  1  0
  3  4  2  0
  4  5  1  0
  5  6  2  0
  6  7  1  0
  7  8  1  0
  8  9  1  0
  9 10  1  0
 10 11  1  0
  8 12  1  0
 12 13  1  0
 13 14  2  0
 14 15  1  0
 15 16  2  0
 16 17  1  0
 17 18  2  0
 17 19  1  0
 19 20  1  0
 20 21  2  0
 21 22  1  0
 22 23  2  0
 23 24  1  0
 23 25  1  0
 25 26  2  0
 26 27  1  0
 16 28  1  0
 28 29  2  0
  6 30  1  0
 30 31  2  0
 31 32  1  0
 32 33  1  0
 31  3  1  0
 29 13  1  0
 26 20  1  0
  1 34  1  0
  1 35  1  0
  1 36  1  0
  4 37  1  0
  5 38  1  0
  7 39  1  0
  7 40  1  0
  8 41  1  6
  9 42  1  0
  9 43  1  0
 10 44  1  0
 10 45  1  0
 11 46  1  0
 12 47  1  0
 12 48  1  0
 14 49  1  0
 15 50  1  0
 21 51  1  0
 22 52  1  0
 24 53  1  0
 24 54  1  0
 24 55  1  0
 25 56  1  0
 27 57  1  0
 27 58  1  0
 28 59  1  0
 29 60  1  0
 30 61  1  0
 33 62  1  0
 33 63  1  0
 33 64  1  0
M  CHG  2   8   1  19  -1
M  END
>  <UniqueID>  (34) 
33

>  <SMILES>  (34) 
COc1ccc(C[N@H+](CCO)Cc2ccc(C(=O)[N-]c3ccc(C)cc3N)cc2)cc1OC

>  <Energy>  (34) 
82.2255962087305

>  <Genealogy>  (34) 
COc1ccc(C[NH+](CCO)Cc2ccc(C(=O)[N-]c3ccc(C)cc3N)cc2)cc1OC (protonated)
COc1ccc(C[N@H+](CCO)Cc2ccc(C(=O)[N-]c3ccc(C)cc3N)cc2)cc1OC (chirality)
COc1ccc(C[N@H+](CCO)Cc2ccc(C(=O)[N-]c3ccc(C)cc3N)cc2)cc1OC (3D coordinates assigned)
COc1ccc(C[N@H+](CCO)Cc2ccc(C(=O)[N-]c3ccc(C)cc3N)cc2)cc1OC (optimized conformer: 82.2255962087305 kcal/mol)

>  <smiles>  (34) 
COc1ccc(CN(CCO)Cc2ccc(C(=O)Nc3ccc(C)cc3N)cc2)cc1OC

>  <score_type>  (34) 
oracle

>  <origin>  (34) 
adgpu

>  <m_score__min__energy>  (34) 
-9.0500000000000007

>  <m_primary>  (34) 
energy

$$$$
34:0
     RDKit          3D

 63 67  0  0  1  0  0  0  0  0999 V2000
    2.1750   29.2670  -22.0840 C   0  0  0  0  0  0  0  0  0  0  0  0
    1.3710   28.7670  -23.1570 N   0  0  0  0  0  0  0  0  0  0  0  0
    0.6670   27.5590  -22.8670 C   0  0  0  0  0  0  0  0  0  0  0  0
    0.7560   26.5000  -23.9330 C   0  0  0  0  0  0  0  0  0  0  0  0
    0.6530   27.0200  -25.2810 N   0  0  0  0  0  0  0  0  0  0  0  0
    0.2780   26.1880  -26.3510 C   0  0  0  0  0  0  0  0  0  0  0  0
   -0.8770   26.4360  -27.0650 C   0  0  0  0  0  0  0  0  0  0  0  0
   -1.2720   25.6240  -28.1340 C   0  0  0  0  0  0  0  0  0  0  0  0
   -0.4870   24.5440  -28.4850 C   0  0  0  0  0  0  0  0  0  0  0  0
   -0.8110   23.6650  -29.5570 N   0  0  0  0  0  0  0  0  0  0  0  0
   -0.8920   22.2660  -29.4270 C   0  0  0  0  0  0  0  0  0  0  0  0
   -0.6630   21.7480  -28.2820 O   0  0  0  0  0  0  0  0  0  0  0  0
   -1.2240   21.3640  -30.5260 C   0  0  0  0  0  0  0  0  0  0  0  0
   -1.8680   21.9000  -31.6260 C   0  0  0  0  0  0  0  0  0  0  0  0
   -2.2080   21.0960  -32.6940 C   0  0  0  0  0  0  0  0  0  0  0  0
   -1.8950   19.7470  -32.6490 C   0  0  0  0  0  0  0  0  0  0  0  0
   -2.2080   18.8470  -33.7060 N   0  0  0  0  0  0  0  0  0  0  0  0
   -3.4290   18.5990  -34.0140 C   0  0  0  0  0  0  0  0  0  0  0  0
   -4.4950   19.1900  -33.3390 C   0  0  0  0  0  0  0  0  0  0  0  0
   -5.8110   18.9280  -33.6650 C   0  0  0  0  0  0  0  0  0  0  0  0
   -6.9180   19.5510  -32.9520 C   0  0  0  0  0  0  0  0  0  0  0  0
   -8.0270   18.8270  -32.5600 C   0  0  0  0  0  0  0  0  0  0  0  0
   -9.0870   19.4230  -31.8790 C   0  0  0  0  0  0  0  0  0  0  0  0
   -9.0780   20.7620  -31.5610 C   0  0  0  0  0  0  0  0  0  0  0  0
   -7.9770   21.4920  -31.9470 C   0  0  0  0  0  0  0  0  0  0  0  0
   -6.9160   20.8930  -32.6300 C   0  0  0  0  0  0  0  0  0  0  0  0
   -6.0180   18.0670  -34.6760 N   0  0  0  0  0  0  0  0  0  0  0  0
   -4.9850   17.4780  -35.3490 C   0  0  0  0  0  0  0  0  0  0  0  0
   -3.6960   17.7540  -35.0070 N   0  0  0  0  0  0  0  0  0  0  0  0
   -1.2500   19.2110  -31.5470 C   0  0  0  0  0  0  0  0  0  0  0  0
   -0.9220   20.0380  -30.4920 C   0  0  0  0  0  0  0  0  0  0  0  0
    0.6730   24.2720  -27.7890 C   0  0  0  0  0  0  0  0  0  0  0  0
    1.0320   25.1080  -26.7290 C   0  0  0  0  0  0  0  0  0  0  0  0
    0.9470   28.4200  -25.4800 C   0  0  0  0  0  0  0  0  0  0  0  0
    2.0060   28.7930  -24.4340 C   0  0  0  0  0  0  0  0  0  0  0  0
    1.7206   28.9844  -21.1229 H   0  0  0  0  0  0  0  0  0  0  0  0
    3.1855   28.8378  -22.1521 H   0  0  0  0  0  0  0  0  0  0  0  0
    2.2369   30.3631  -22.1521 H   0  0  0  0  0  0  0  0  0  0  0  0
    1.0760   27.1408  -21.9354 H   0  0  0  0  0  0  0  0  0  0  0  0
   -0.3959   27.8325  -22.7929 H   0  0  0  0  0  0  0  0  0  0  0  0
    1.7234   25.9862  -23.8321 H   0  0  0  0  0  0  0  0  0  0  0  0
   -0.0972   25.8219  -23.7842 H   0  0  0  0  0  0  0  0  0  0  0  0
   -1.5042   27.2956  -26.7860 H   0  0  0  0  0  0  0  0  0  0  0  0
   -2.1967   25.8436  -28.6879 H   0  0  0  0  0  0  0  0  0  0  0  0
   -0.9940   24.1110  -30.4810 H   0  0  0  0  0  0  0  0  0  0  0  0
   -2.1103   22.9727  -31.6495 H   0  0  0  0  0  0  0  0  0  0  0  0
   -2.7208   21.5202  -33.5698 H   0  0  0  0  0  0  0  0  0  0  0  0
   -4.2808   19.8897  -32.5177 H   0  0  0  0  0  0  0  0  0  0  0  0
   -8.0749   17.7526  -32.7912 H   0  0  0  0  0  0  0  0  0  0  0  0
   -9.9518   18.8083  -31.5887 H   0  0  0  0  0  0  0  0  0  0  0  0
   -9.9151   21.2289  -31.0213 H   0  0  0  0  0  0  0  0  0  0  0  0
   -7.9318   22.5660  -31.7136 H   0  0  0  0  0  0  0  0  0  0  0  0
   -6.0525   21.5097  -32.9201 H   0  0  0  0  0  0  0  0  0  0  0  0
   -6.9620   17.7950  -35.0060 H   0  0  0  0  0  0  0  0  0  0  0  0
   -5.1955   16.7777  -36.1708 H   0  0  0  0  0  0  0  0  0  0  0  0
   -1.0023   18.1398  -31.5130 H   0  0  0  0  0  0  0  0  0  0  0  0
   -0.4101   19.6198  -29.6128 H   0  0  0  0  0  0  0  0  0  0  0  0
    1.3031   23.4132  -28.0636 H   0  0  0  0  0  0  0  0  0  0  0  0
    1.9573   24.8906  -26.1754 H   0  0  0  0  0  0  0  0  0  0  0  0
    1.3390   28.5860  -26.4943 H   0  0  0  0  0  0  0  0  0  0  0  0
    0.0430   29.0370  -25.3699 H   0  0  0  0  0  0  0  0  0  0  0  0
    2.8312   28.0661  -24.4585 H   0  0  0  0  0  0  0  0  0  0  0  0
    2.4223   29.7899  -24.6408 H   0  0  0  0  0  0  0  0  0  0  0  0
  1  2  1  0
  2  3  1  0
  3  4  1  0
  4  5  1  0
  5  6  1  0
  6  7  2  0
  7  8  1  0
  8  9  2  0
  9 10  1  0
 10 11  1  0
 11 12  2  0
 11 13  1  0
 13 14  2  0
 14 15  1  0
 15 16  2  0
 16 17  1  0
 17 18  2  0
 18 19  1  0
 19 20  2  0
 20 21  1  0
 21 22  2  0
 22 23  1  0
 23 24  2  0
 24 25  1  0
 25 26  2  0
 20 27  1  0
 27 28  1  0
 28 29  2  0
 16 30  1  0
 30 31  2  0
  9 32  1  0
 32 33  2  0
  5 34  1  0
 34 35  1  0
 35  2  1  0
 33  6  1  0
 31 13  1  0
 29 18  1  0
 26 21  1  0
  1 36  1  0
  1 37  1  0
  1 38  1  0
  3 39  1  0
  3 40  1  0
  4 41  1  0
  4 42  1  0
  7 43  1  0
  8 44  1  0
 10 45  1  0
 14 46  1  0
 15 47  1  0
 19 48  1  0
 22 49  1  0
 23 50  1  0
 24 51  1  0
 25 52  1  0
 26 53  1  0
 27 54  1  0
 28 55  1  0
 30 56  1  0
 31 57  1  0
 32 58  1  0
 33 59  1  0
 34 60  1  0
 34 61  1  0
 35 62  1  0
 35 63  1  0
M  END
>  <smiles>  (35) 
CN1CCN(c2ccc(NC(=O)c3ccc(N=c4cc(-c5ccccc5)[nH]cn4)cc3)cc2)CC1

>  <score_type>  (35) 
oracle

>  <origin>  (35) 
adgpu

>  <m_score__min__energy>  (35) 
-8.8499999999999996

>  <m_primary>  (35) 
energy

$$$$
35:0
     RDKit          3D

 25 26  0  0  0  0  0  0  0  0999 V2000
   -2.4070   24.6500  -29.6800 N   0  0  0  0  0  0  0  0  0  0  0  0
   -3.5210   24.2470  -30.1370 C   0  0  0  0  0  0  0  0  0  0  0  0
   -3.6250   23.4220  -31.1950 N   0  0  0  0  0  0  0  0  0  0  0  0
   -4.8220   22.9980  -31.6730 C   0  0  0  0  0  0  0  0  0  0  0  0
   -4.7780   22.1320  -32.7940 N   0  0  0  0  0  0  0  0  0  0  0  0
   -6.0220   23.4080  -31.0780 C   0  0  0  0  0  0  0  0  0  0  0  0
   -7.2440   22.9120  -31.6460 C   0  0  0  0  0  0  0  0  0  0  0  0
   -8.1250   23.7980  -31.9350 O   0  0  0  0  0  0  0  0  0  0  0  0
   -7.6120   21.5490  -31.9360 C   0  0  0  0  0  0  0  0  0  0  0  0
   -8.8530   21.0220  -31.5930 C   0  0  0  0  0  0  0  0  0  0  0  0
   -8.8840   19.6950  -32.0100 C   0  0  0  0  0  0  0  0  0  0  0  0
   -7.6690   19.4680  -32.5850 C   0  0  0  0  0  0  0  0  0  0  0  0
   -6.9920   20.5580  -32.5110 O   0  0  0  0  0  0  0  0  0  0  0  0
   -5.8880   24.2460  -30.0040 C   0  0  0  0  0  0  0  0  0  0  0  0
   -6.8990   24.6700  -29.3980 N   0  0  0  0  0  0  0  0  0  0  0  0
   -4.6630   24.6460  -29.5560 N   0  0  0  0  0  0  0  0  0  0  0  0
   -1.4760   24.4090  -30.0450 H   0  0  0  0  0  0  0  0  0  0  0  0
   -2.7260   23.1200  -31.6360 H   0  0  0  0  0  0  0  0  0  0  0  0
   -4.6110   22.5610  -33.7390 H   0  0  0  0  0  0  0  0  0  0  0  0
   -4.9090   21.1010  -32.6660 H   0  0  0  0  0  0  0  0  0  0  0  0
   -9.6658   21.5593  -31.0825 H   0  0  0  0  0  0  0  0  0  0  0  0
   -9.7130   18.9806  -31.8992 H   0  0  0  0  0  0  0  0  0  0  0  0
   -7.3291   18.5221  -33.0319 H   0  0  0  0  0  0  0  0  0  0  0  0
   -6.8450   25.2950  -28.5960 H   0  0  0  0  0  0  0  0  0  0  0  0
   -4.6130   25.2930  -28.7250 H   0  0  0  0  0  0  0  0  0  0  0  0
  1  2  2  3
  2  3  1  0
  3  4  1  0
  4  5  1  0
  4  6  2  0
  6  7  1  0
  7  8  2  0
  7  9  1  0
  9 10  2  0
 10 11  1  0
 11 12  2  0
 12 13  1  0
  6 14  1  0
 14 15  2  3
 14 16  1  0
 16  2  1  0
 13  9  1  0
  1 17  1  0
  3 18  1  0
  5 19  1  0
  5 20  1  0
 10 21  1  0
 11 22  1  0
 12 23  1  0
 15 24  1  0
 16 25  1  0
M  END
>  <smiles>  (36) 
N=c1[nH]c(N)c(C(=O)c2ccco2)c(=N)[nH]1

>  <score_type>  (36) 
oracle

>  <origin>  (36) 
adgpu

>  <m_score__min__energy>  (36) 
-5.6900000000000004

>  <m_primary>  (36) 
energy

$$$$
36:0
     RDKit          3D

 45 47  0  0  0  0  0  0  0  0999 V2000
   -0.4610   20.5720  -27.4640 C   0  0  0  0  0  0  0  0  0  0  0  0
   -1.1810   21.7280  -28.0940 C   0  0  0  0  0  0  0  0  0  0  0  0
   -1.0750   21.9650  -29.4690 C   0  0  0  0  0  0  0  0  0  0  0  0
   -1.7760   23.0180  -30.0610 C   0  0  0  0  0  0  0  0  0  0  0  0
   -2.6120   23.8440  -29.2860 C   0  0  0  0  0  0  0  0  0  0  0  0
   -3.3440   24.9320  -29.8730 N   0  0  0  0  0  0  0  0  0  0  0  0
   -5.0530   24.9490  -30.1710 S   0  0  0  0  0  0  0  0  0  0  0  0
   -5.7720   25.2990  -28.8990 O   0  0  0  0  0  0  0  0  0  0  0  0
   -5.3610   25.9920  -31.2080 O   0  0  0  0  0  0  0  0  0  0  0  0
   -5.5680   23.3780  -30.7750 C   0  0  0  0  0  0  0  0  0  0  0  0
   -6.8380   22.8760  -30.4670 C   0  0  0  0  0  0  0  0  0  0  0  0
   -7.2370   21.6270  -30.9500 C   0  0  0  0  0  0  0  0  0  0  0  0
   -6.3720   20.8590  -31.7530 C   0  0  0  0  0  0  0  0  0  0  0  0
   -6.8000   19.5360  -32.2740 C   0  0  0  0  0  0  0  0  0  0  0  0
   -8.0040   18.8840  -32.0490 C   0  0  0  0  0  0  0  0  0  0  0  0
   -8.0050   17.7060  -32.7010 N   0  0  0  0  0  0  0  0  0  0  0  0
   -6.8420   17.5900  -33.3200 N   0  0  0  0  0  0  0  0  0  0  0  0
   -6.4890   16.4660  -34.1800 C   0  0  0  0  0  0  0  0  0  0  0  0
   -5.0200   16.5480  -34.5770 C   0  0  0  0  0  0  0  0  0  0  0  0
   -4.8720   17.4360  -35.6270 F   0  0  0  0  0  0  0  0  0  0  0  0
   -6.0870   18.6810  -33.0940 C   0  0  0  0  0  0  0  0  0  0  0  0
   -5.0950   21.3710  -32.0540 C   0  0  0  0  0  0  0  0  0  0  0  0
   -4.6980   22.6190  -31.5670 C   0  0  0  0  0  0  0  0  0  0  0  0
   -2.7310   23.5990  -27.9030 C   0  0  0  0  0  0  0  0  0  0  0  0
   -3.6030   24.4760  -27.0470 C   0  0  0  0  0  0  0  0  0  0  0  0
   -2.0160   22.5410  -27.3170 C   0  0  0  0  0  0  0  0  0  0  0  0
   -0.5153   20.6591  -26.3688 H   0  0  0  0  0  0  0  0  0  0  0  0
   -0.9323   19.6299  -27.7807 H   0  0  0  0  0  0  0  0  0  0  0  0
    0.5924   20.5796  -27.7807 H   0  0  0  0  0  0  0  0  0  0  0  0
   -0.4356   21.3180  -30.0875 H   0  0  0  0  0  0  0  0  0  0  0  0
   -1.6741   23.2032  -31.1405 H   0  0  0  0  0  0  0  0  0  0  0  0
   -7.5242   23.4669  -29.8425 H   0  0  0  0  0  0  0  0  0  0  0  0
   -8.2361   21.2401  -30.7006 H   0  0  0  0  0  0  0  0  0  0  0  0
   -8.8298   19.2698  -31.4333 H   0  0  0  0  0  0  0  0  0  0  0  0
   -6.6672   15.5248  -33.6393 H   0  0  0  0  0  0  0  0  0  0  0  0
   -7.1087   16.5006  -35.0882 H   0  0  0  0  0  0  0  0  0  0  0  0
   -4.4274   16.8951  -33.7177 H   0  0  0  0  0  0  0  0  0  0  0  0
   -4.6696   15.5528  -34.8881 H   0  0  0  0  0  0  0  0  0  0  0  0
   -5.0777   18.8612  -33.4925 H   0  0  0  0  0  0  0  0  0  0  0  0
   -4.4047   20.7838  -32.6774 H   0  0  0  0  0  0  0  0  0  0  0  0
   -3.6971   23.0071  -31.8070 H   0  0  0  0  0  0  0  0  0  0  0  0
   -3.3994   24.2712  -25.9856 H   0  0  0  0  0  0  0  0  0  0  0  0
   -3.3868   25.5323  -27.2647 H   0  0  0  0  0  0  0  0  0  0  0  0
   -4.6606   24.2658  -27.2647 H   0  0  0  0  0  0  0  0  0  0  0  0
   -2.1128   22.3494  -26.2382 H   0  0  0  0  0  0  0  0  0  0  0  0
  1  2  1  0
  2  3  2  0
  3  4  1  0
  4  5  2  0
  5  6  1  0
  6  7  1  0
  7  8  2  0
  7  9  2  0
  7 10  1  0
 10 11  2  0
 11 12  1  0
 12 13  2  0
 13 14  1  0
 14 15  1  0
 15 16  2  0
 16 17  1  0
 17 18  1  0
 18 19  1  0
 19 20  1  0
 17 21  1  0
 13 22  1  0
 22 23  2  0
  5 24  1  0
 24 25  1  0
 24 26  2  0
 26  2  1  0
 23 10  1  0
 21 14  2  0
  1 27  1  0
  1 28  1  0
  1 29  1  0
  3 30  1  0
  4 31  1  0
 11 32  1  0
 12 33  1  0
 15 34  1  0
 18 35  1  0
 18 36  1  0
 19 37  1  0
 19 38  1  0
 21 39  1  0
 22 40  1  0
 23 41  1  0
 25 42  1  0
 25 43  1  0
 25 44  1  0
 26 45  1  0
M  CHG  1   6  -1
M  END
>  <UniqueID>  (37) 
34

>  <SMILES>  (37) 
Cc1ccc([N-]S(=O)(=O)c2ccc(-c3cnn(CCF)c3)cc2)c(C)c1

>  <Energy>  (37) 
77.67696250845201

>  <Genealogy>  (37) 
Cc1ccc([N-]S(=O)(=O)c2ccc(-c3cnn(CCF)c3)cc2)c(C)c1 (protonated)
Cc1ccc([N-]S(=O)(=O)c2ccc(-c3cnn(CCF)c3)cc2)c(C)c1 (3D coordinates assigned)
Cc1ccc([N-]S(=O)(=O)c2ccc(-c3cnn(CCF)c3)cc2)c(C)c1 (optimized conformer: 77.67696250845201 kcal/mol)

>  <smiles>  (37) 
Cc1ccc(NS(=O)(=O)c2ccc(-c3cnn(CCF)c3)cc2)c(C)c1

>  <score_type>  (37) 
oracle

>  <origin>  (37) 
adgpu

>  <m_score__min__energy>  (37) 
-9.6300000000000008

>  <m_primary>  (37) 
energy

$$$$
37:0
     RDKit          3D

 53 56  0  0  0  0  0  0  0  0999 V2000
   -4.1850   24.5320  -27.1670 C   0  0  0  0  0  0  0  0  0  0  0  0
   -3.5600   24.1450  -28.5020 C   0  0  0  0  0  0  0  0  0  0  0  0
   -4.6180   24.6050  -29.8650 S   0  0  0  0  0  0  0  0  0  0  0  0
   -3.8640   25.4950  -30.8130 O   0  0  0  0  0  0  0  0  0  0  0  0
   -5.8050   25.3630  -29.3390 O   0  0  0  0  0  0  0  0  0  0  0  0
   -5.1750   23.1630  -30.7090 C   0  0  0  0  0  0  0  0  0  0  0  0
   -4.2540   22.2530  -31.2430 C   0  0  0  0  0  0  0  0  0  0  0  0
   -4.7020   21.1000  -31.8960 C   0  0  0  0  0  0  0  0  0  0  0  0
   -6.0750   20.8420  -32.0180 C   0  0  0  0  0  0  0  0  0  0  0  0
   -6.5320   19.6560  -32.6910 N   0  0  0  0  0  0  0  0  0  0  0  0
   -7.2630   18.6300  -31.9310 C   0  0  0  0  0  0  0  0  0  0  0  0
   -7.5990   17.4220  -32.8100 C   0  0  0  0  0  0  0  0  0  0  0  0
   -6.4280   17.0540  -33.6170 N   0  0  0  0  0  0  0  0  0  0  0  0
   -5.9080   15.7120  -33.5880 C   0  0  0  0  0  0  0  0  0  0  0  0
   -6.6050   14.6680  -34.2190 C   0  0  0  0  0  0  0  0  0  0  0  0
   -6.1060   13.3650  -34.1820 C   0  0  0  0  0  0  0  0  0  0  0  0
   -4.9130   13.0870  -33.5150 C   0  0  0  0  0  0  0  0  0  0  0  0
   -4.2020   14.1150  -32.8720 C   0  0  0  0  0  0  0  0  0  0  0  0
   -2.9360   13.8220  -32.1650 C   0  0  0  0  0  0  0  0  0  0  0  0
   -2.8130   12.8880  -31.2000 N   0  0  0  0  0  0  0  0  0  0  0  0
   -1.5670   12.9350  -30.8420 O   0  0  0  0  0  0  0  0  0  0  0  0
   -0.9450   13.8510  -31.5430 C   0  0  0  0  0  0  0  0  0  0  0  0
    0.5030   14.1740  -31.4040 C   0  0  0  0  0  0  0  0  0  0  0  0
   -1.7710   14.4570  -32.4150 N   0  0  0  0  0  0  0  0  0  0  0  0
   -4.7100   15.4260  -32.9110 C   0  0  0  0  0  0  0  0  0  0  0  0
   -5.7310   18.0850  -34.4060 C   0  0  0  0  0  0  0  0  0  0  0  0
   -6.2970   19.4830  -34.1300 C   0  0  0  0  0  0  0  0  0  0  0  0
   -6.9980   21.7570  -31.4810 C   0  0  0  0  0  0  0  0  0  0  0  0
   -8.3320   21.5480  -31.6140 F   0  0  0  0  0  0  0  0  0  0  0  0
   -6.5480   22.9080  -30.8280 C   0  0  0  0  0  0  0  0  0  0  0  0
   -3.5630   24.1468  -26.3456 H   0  0  0  0  0  0  0  0  0  0  0  0
   -4.2487   25.6278  -27.0959 H   0  0  0  0  0  0  0  0  0  0  0  0
   -5.1944   24.1006  -27.0959 H   0  0  0  0  0  0  0  0  0  0  0  0
   -2.5932   24.6589  -28.6084 H   0  0  0  0  0  0  0  0  0  0  0  0
   -3.4221   23.0538  -28.5198 H   0  0  0  0  0  0  0  0  0  0  0  0
   -3.1751   22.4456  -31.1486 H   0  0  0  0  0  0  0  0  0  0  0  0
   -3.9731   20.3915  -32.3163 H   0  0  0  0  0  0  0  0  0  0  0  0
   -6.6405   18.2974  -31.0873 H   0  0  0  0  0  0  0  0  0  0  0  0
   -8.2044   19.0697  -31.5698 H   0  0  0  0  0  0  0  0  0  0  0  0
   -7.8838   16.5731  -32.1710 H   0  0  0  0  0  0  0  0  0  0  0  0
   -8.4345   17.6793  -33.4777 H   0  0  0  0  0  0  0  0  0  0  0  0
   -7.5482   14.8784  -34.7445 H   0  0  0  0  0  0  0  0  0  0  0  0
   -6.6561   12.5537  -34.6811 H   0  0  0  0  0  0  0  0  0  0  0  0
   -4.5264   12.0574  -33.4920 H   0  0  0  0  0  0  0  0  0  0  0  0
    0.7649   14.2324  -30.3372 H   0  0  0  0  0  0  0  0  0  0  0  0
    1.1021   13.3874  -31.8861 H   0  0  0  0  0  0  0  0  0  0  0  0
    0.7110   15.1406  -31.8861 H   0  0  0  0  0  0  0  0  0  0  0  0
   -4.1637   16.2363  -32.4061 H   0  0  0  0  0  0  0  0  0  0  0  0
   -4.6627   18.0739  -34.1440 H   0  0  0  0  0  0  0  0  0  0  0  0
   -5.8753   17.8590  -35.4728 H   0  0  0  0  0  0  0  0  0  0  0  0
   -5.5787   20.2412  -34.4753 H   0  0  0  0  0  0  0  0  0  0  0  0
   -7.2498   19.5987  -34.6673 H   0  0  0  0  0  0  0  0  0  0  0  0
   -7.2750   23.6171  -30.4054 H   0  0  0  0  0  0  0  0  0  0  0  0
  1  2  1  0
  2  3  1  0
  3  4  2  0
  3  5  2  0
  3  6  1  0
  6  7  2  0
  7  8  1  0
  8  9  2  0
  9 10  1  0
 10 11  1  0
 11 12  1  0
 12 13  1  0
 13 14  1  0
 14 15  2  0
 15 16  1  0
 16 17  2  0
 17 18  1  0
 18 19  1  0
 19 20  2  0
 20 21  1  0
 21 22  1  0
 22 23  1  0
 22 24  2  0
 18 25  2  0
 13 26  1  0
 26 27  1  0
  9 28  1  0
 28 29  1  0
 28 30  2  0
 30  6  1  0
 27 10  1  0
 25 14  1  0
 24 19  1  0
  1 31  1  0
  1 32  1  0
  1 33  1  0
  2 34  1  0
  2 35  1  0
  7 36  1  0
  8 37  1  0
 11 38  1  0
 11 39  1  0
 12 40  1  0
 12 41  1  0
 15 42  1  0
 16 43  1  0
 17 44  1  0
 23 45  1  0
 23 46  1  0
 23 47  1  0
 25 48  1  0
 26 49  1  0
 26 50  1  0
 27 51  1  0
 27 52  1  0
 30 53  1  0
M  END
>  <UniqueID>  (38) 
35

>  <SMILES>  (38) 
CCS(=O)(=O)c1ccc(N2CCN(c3cccc(-c4noc(C)n4)c3)CC2)c(F)c1

>  <Energy>  (38) 
92.00872426785621

>  <Genealogy>  (38) 
CCS(=O)(=O)c1ccc(N2CCN(c3cccc(-c4noc(C)n4)c3)CC2)c(F)c1 (3D coordinates assigned)
CCS(=O)(=O)c1ccc(N2CCN(c3cccc(-c4noc(C)n4)c3)CC2)c(F)c1 (nonaromatic ring conformer: 92.00872426785621 kcal/mol)

>  <smiles>  (38) 
CCS(=O)(=O)c1ccc(N2CCN(c3cccc(-c4noc(C)n4)c3)CC2)c(F)c1

>  <score_type>  (38) 
oracle

>  <origin>  (38) 
adgpu

>  <m_score__min__energy>  (38) 
-9.2400000000000002

>  <m_primary>  (38) 
energy

$$$$
38:0
     RDKit          3D

 43 45  0  0  0  0  0  0  0  0999 V2000
   -5.9198   25.7011  -30.9997 H   0  0  0  0  0  0  0  0  0  0  0  0
   -5.1980   25.0900  -30.4380 C   0  0  0  0  0  0  0  0  0  0  0  0
   -3.8810   24.9910  -30.7150 N   0  0  0  0  0  0  0  0  0  0  0  0
   -3.4030   24.1490  -29.7730 C   0  0  0  0  0  0  0  0  0  0  0  0
   -1.9710   23.7690  -29.6900 C   0  0  0  0  0  0  0  0  0  0  0  0
   -1.0850   24.6210  -29.2690 N   0  0  0  0  0  0  0  0  0  0  0  0
   -1.4010   25.9230  -28.9500 O   0  0  0  0  0  0  0  0  0  0  0  0
   -0.9010   26.5050  -27.7580 C   0  0  0  0  0  0  0  0  0  0  0  0
   -1.3399   25.9941  -26.8884 H   0  0  0  0  0  0  0  0  0  0  0  0
    0.1937   26.4010  -27.7303 H   0  0  0  0  0  0  0  0  0  0  0  0
   -1.1688   27.5715  -27.7303 H   0  0  0  0  0  0  0  0  0  0  0  0
   -1.5450   22.3870  -30.0250 C   0  0  0  0  0  0  0  0  0  0  0  0
   -0.5950   21.7600  -29.1970 C   0  0  0  0  0  0  0  0  0  0  0  0
   -0.1956   22.2975  -28.3243 H   0  0  0  0  0  0  0  0  0  0  0  0
   -0.1540   20.4650  -29.4700 C   0  0  0  0  0  0  0  0  0  0  0  0
    0.5862   19.9867  -28.8117 H   0  0  0  0  0  0  0  0  0  0  0  0
   -0.6500   19.7760  -30.5760 C   0  0  0  0  0  0  0  0  0  0  0  0
   -0.2989   18.7556  -30.7895 H   0  0  0  0  0  0  0  0  0  0  0  0
   -1.5910   20.3780  -31.4130 C   0  0  0  0  0  0  0  0  0  0  0  0
   -1.9737   19.8289  -32.2859 H   0  0  0  0  0  0  0  0  0  0  0  0
   -2.0550   21.6810  -31.1510 C   0  0  0  0  0  0  0  0  0  0  0  0
   -3.0790   22.2860  -32.0820 C   0  0  0  0  0  0  0  0  0  0  0  0
   -3.8823   22.7489  -31.4900 H   0  0  0  0  0  0  0  0  0  0  0  0
   -2.5940   23.0486  -32.7091 H   0  0  0  0  0  0  0  0  0  0  0  0
   -3.6310   21.2720  -32.9170 O   0  0  0  0  0  0  0  0  0  0  0  0
   -4.9300   20.7580  -32.7950 C   0  0  0  0  0  0  0  0  0  0  0  0
   -5.2900   19.4870  -33.2840 C   0  0  0  0  0  0  0  0  0  0  0  0
   -4.5348   18.8517  -33.7699 H   0  0  0  0  0  0  0  0  0  0  0  0
   -6.6060   19.0310  -33.1530 C   0  0  0  0  0  0  0  0  0  0  0  0
   -6.8839   18.0390  -33.5387 H   0  0  0  0  0  0  0  0  0  0  0  0
   -7.5690   19.8330  -32.5330 C   0  0  0  0  0  0  0  0  0  0  0  0
   -9.2230   19.2690  -32.3920 Cl  0  0  0  0  0  0  0  0  0  0  0  0
   -7.2150   21.0930  -32.0390 C   0  0  0  0  0  0  0  0  0  0  0  0
   -7.9712   21.7232  -31.5480 H   0  0  0  0  0  0  0  0  0  0  0  0
   -5.9000   21.5520  -32.1690 C   0  0  0  0  0  0  0  0  0  0  0  0
   -5.6257   22.5426  -31.7773 H   0  0  0  0  0  0  0  0  0  0  0  0
   -4.3690   23.7160  -28.9290 N   0  0  0  0  0  0  0  0  0  0  0  0
   -4.2630   22.7210  -27.8630 C   0  0  0  0  0  0  0  0  0  0  0  0
   -4.3165   23.2234  -26.8859 H   0  0  0  0  0  0  0  0  0  0  0  0
   -5.0895   22.0004  -27.9506 H   0  0  0  0  0  0  0  0  0  0  0  0
   -3.3033   22.1907  -27.9506 H   0  0  0  0  0  0  0  0  0  0  0  0
   -5.5000   24.3100  -29.3460 C   0  0  0  0  0  0  0  0  0  0  0  0
   -6.4953   24.1927  -28.8925 H   0  0  0  0  0  0  0  0  0  0  0  0
  1  2  1  0
  2  3  1  0
  3  4  2  0
  4  5  1  0
  5  6  2  0
  6  7  1  0
  7  8  1  0
  8  9  1  0
  8 10  1  0
  8 11  1  0
  5 12  1  0
 12 13  2  0
 13 14  1  0
 13 15  1  0
 15 16  1  0
 15 17  2  0
 17 18  1  0
 17 19  1  0
 19 20  1  0
 19 21  2  0
 21 22  1  0
 22 23  1  0
 22 24  1  0
 22 25  1  0
 25 26  1  0
 26 27  2  0
 27 28  1  0
 27 29  1  0
 29 30  1  0
 29 31  2  0
 31 32  1  0
 31 33  1  0
 33 34  1  0
 33 35  2  0
 35 36  1  0
  4 37  1  0
 37 38  1  0
 38 39  1  0
 38 40  1  0
 38 41  1  0
 37 42  1  0
 42 43  1  0
 42  2  2  0
 21 12  1  0
 35 26  1  0
M  END
>  <UniqueID>  (39) 
36

>  <SMILES>  (39) 
CO/N=C(/c1ccccc1COc1ccc(Cl)cc1)c1nccn1C

>  <Energy>  (39) 
77.92191923478461

>  <Genealogy>  (39) 
CO/N=C(/c1ccccc1COc1ccc(Cl)cc1)c1nccn1C (cis-trans isomerization)
CO/N=C(/c1ccccc1COc1ccc(Cl)cc1)c1nccn1C (3D coordinates assigned)
CO/N=C(/c1ccccc1COc1ccc(Cl)cc1)c1nccn1C (optimized conformer: 77.92191923478461 kcal/mol)

>  <smiles>  (39) 
CON=C(c1ccccc1COc1ccc(Cl)cc1)c1nccn1C

>  <score_type>  (39) 
oracle

>  <origin>  (39) 
adgpu

>  <m_score__min__energy>  (39) 
-8.6799999999999997

>  <m_primary>  (39) 
energy

$$$$
39:0
     RDKit          3D

 37 39  0  0  0  0  0  0  0  0999 V2000
   -5.5730   26.1150  -30.1800 O   0  0  0  0  0  0  0  0  0  0  0  0
   -4.9570   25.0550  -30.4720 C   0  0  0  0  0  0  0  0  0  0  0  0
   -3.5220   25.0360  -30.4820 N   0  0  0  0  0  0  0  0  0  0  0  0
   -2.6690   24.1990  -29.6840 C   0  0  0  0  0  0  0  0  0  0  0  0
   -2.8030   22.8030  -29.6550 C   0  0  0  0  0  0  0  0  0  0  0  0
   -1.9530   22.0520  -28.9040 N   0  0  0  0  0  0  0  0  0  0  0  0
   -0.9580   22.6370  -28.1840 C   0  0  0  0  0  0  0  0  0  0  0  0
   -0.1800   21.9310  -27.4910 O   0  0  0  0  0  0  0  0  0  0  0  0
   -0.7970   23.9840  -28.2160 N   0  0  0  0  0  0  0  0  0  0  0  0
   -1.6230   24.7720  -28.9530 C   0  0  0  0  0  0  0  0  0  0  0  0
   -1.4420   26.0190  -28.9670 O   0  0  0  0  0  0  0  0  0  0  0  0
   -5.7160   23.8420  -30.8590 C   0  0  0  0  0  0  0  0  0  0  0  0
   -6.8640   23.4600  -30.1410 C   0  0  0  0  0  0  0  0  0  0  0  0
   -7.5800   22.3150  -30.5050 C   0  0  0  0  0  0  0  0  0  0  0  0
   -7.1570   21.5320  -31.5850 C   0  0  0  0  0  0  0  0  0  0  0  0
   -8.0730   20.1070  -32.0570 S   0  0  0  0  0  0  0  0  0  0  0  0
   -9.1480   20.4900  -33.0360 O   0  0  0  0  0  0  0  0  0  0  0  0
   -8.7350   19.4990  -30.8510 O   0  0  0  0  0  0  0  0  0  0  0  0
   -6.9810   18.9400  -32.7930 C   0  0  0  0  0  0  0  0  0  0  0  0
   -6.8080   17.6750  -32.2150 C   0  0  0  0  0  0  0  0  0  0  0  0
   -5.9550   16.7410  -32.8120 C   0  0  0  0  0  0  0  0  0  0  0  0
   -5.2760   17.0650  -33.9910 C   0  0  0  0  0  0  0  0  0  0  0  0
   -5.4530   18.3230  -34.5750 C   0  0  0  0  0  0  0  0  0  0  0  0
   -6.3060   19.2580  -33.9800 C   0  0  0  0  0  0  0  0  0  0  0  0
   -6.0200   21.9100  -32.3100 C   0  0  0  0  0  0  0  0  0  0  0  0
   -5.3030   23.0540  -31.9490 C   0  0  0  0  0  0  0  0  0  0  0  0
   -3.5963   22.3150  -30.2402 H   0  0  0  0  0  0  0  0  0  0  0  0
   -2.0660   21.0140  -28.8900 H   0  0  0  0  0  0  0  0  0  0  0  0
   -7.2009   24.0662  -29.2872 H   0  0  0  0  0  0  0  0  0  0  0  0
   -8.4794   22.0287  -29.9400 H   0  0  0  0  0  0  0  0  0  0  0  0
   -7.3441   17.4162  -31.2900 H   0  0  0  0  0  0  0  0  0  0  0  0
   -5.8180   15.7505  -32.3537 H   0  0  0  0  0  0  0  0  0  0  0  0
   -4.6033   16.3308  -34.4584 H   0  0  0  0  0  0  0  0  0  0  0  0
   -4.9208   18.5775  -35.5034 H   0  0  0  0  0  0  0  0  0  0  0  0
   -6.4477   20.2451  -34.4443 H   0  0  0  0  0  0  0  0  0  0  0  0
   -5.6900   21.3042  -33.1668 H   0  0  0  0  0  0  0  0  0  0  0  0
   -4.4086   23.3407  -32.5216 H   0  0  0  0  0  0  0  0  0  0  0  0
  1  2  2  0
  2  3  1  0
  3  4  1  0
  4  5  2  0
  5  6  1  0
  6  7  1  0
  7  8  2  0
  7  9  1  0
  9 10  1  0
 10 11  2  0
  2 12  1  0
 12 13  2  0
 13 14  1  0
 14 15  2  0
 15 16  1  0
 16 17  2  0
 16 18  2  0
 16 19  1  0
 19 20  2  0
 20 21  1  0
 21 22  2  0
 22 23  1  0
 23 24  2  0
 15 25  1  0
 25 26  2  0
 10  4  1  0
 26 12  1  0
 24 19  1  0
  5 27  1  0
  6 28  1  0
 13 29  1  0
 14 30  1  0
 20 31  1  0
 21 32  1  0
 22 33  1  0
 23 34  1  0
 24 35  1  0
 25 36  1  0
 26 37  1  0
M  CHG  2   3  -1   9  -1
M  END
>  <UniqueID>  (40) 
37

>  <SMILES>  (40) 
O=C([N-]c1c[nH]c(=O)[n-]c1=O)c1ccc(S(=O)(=O)c2ccccc2)cc1

>  <Energy>  (40) 
47.48568830546504

>  <Genealogy>  (40) 
O=C([N-]c1c[nH]c(=O)[n-]c1=O)c1ccc(S(=O)(=O)c2ccccc2)cc1 (protonated)
O=C([N-]c1c[nH]c(=O)[n-]c1=O)c1ccc(S(=O)(=O)c2ccccc2)cc1 (3D coordinates assigned)
O=C([N-]c1c[nH]c(=O)[n-]c1=O)c1ccc(S(=O)(=O)c2ccccc2)cc1 (optimized conformer: 47.48568830546504 kcal/mol)

>  <smiles>  (40) 
O=C(Nc1c[nH]c(=O)[nH]c1=O)c1ccc(S(=O)(=O)c2ccccc2)cc1

>  <score_type>  (40) 
oracle

>  <origin>  (40) 
adgpu

>  <m_score__min__energy>  (40) 
-12.16

>  <m_primary>  (40) 
energy

$$$$
40:0
     RDKit          3D

 42 43  0  0  0  0  0  0  0  0999 V2000
   -0.8540   26.5630  -24.3710 C   0  0  0  0  0  0  0  0  0  0  0  0
   -1.2300   26.0910  -25.7440 C   0  0  0  0  0  0  0  0  0  0  0  0
   -0.5130   26.5340  -26.8650 C   0  0  0  0  0  0  0  0  0  0  0  0
   -0.8890   26.1240  -28.1480 C   0  0  0  0  0  0  0  0  0  0  0  0
   -1.9780   25.2620  -28.3260 C   0  0  0  0  0  0  0  0  0  0  0  0
   -2.3620   24.8870  -29.6530 N   0  0  0  0  0  0  0  0  0  0  0  0
   -3.6830   24.5460  -30.0950 C   0  0  0  0  0  0  0  0  0  0  0  0
   -4.2940   25.3700  -30.8240 O   0  0  0  0  0  0  0  0  0  0  0  0
   -4.2530   23.1540  -29.8840 C   0  0  0  0  0  0  0  0  0  0  0  0
   -5.6810   22.9940  -30.2530 N   0  0  1  0  0  0  0  0  0  0  0  0
   -6.5330   24.0720  -29.7300 C   0  0  0  0  0  0  0  0  0  0  0  0
   -5.9330   22.7740  -31.9730 S   0  0  0  0  0  0  0  0  0  0  0  0
   -6.6940   23.9350  -32.5510 O   0  0  0  0  0  0  0  0  0  0  0  0
   -4.6190   22.6600  -32.6940 O   0  0  0  0  0  0  0  0  0  0  0  0
   -6.8460   21.2890  -32.2370 C   0  0  0  0  0  0  0  0  0  0  0  0
   -6.3950   20.1190  -32.8150 C   0  0  0  0  0  0  0  0  0  0  0  0
   -5.0430   19.8730  -33.4010 C   0  0  0  0  0  0  0  0  0  0  0  0
   -7.3970   19.2190  -32.8380 N   0  0  0  0  0  0  0  0  0  0  0  0
   -8.4310   19.7860  -32.2850 O   0  0  0  0  0  0  0  0  0  0  0  0
   -8.1580   21.0130  -31.9070 C   0  0  0  0  0  0  0  0  0  0  0  0
   -9.1440   21.9250  -31.2520 C   0  0  0  0  0  0  0  0  0  0  0  0
   -2.7270   24.8600  -27.2090 C   0  0  0  0  0  0  0  0  0  0  0  0
   -2.3540   25.2690  -25.9250 C   0  0  0  0  0  0  0  0  0  0  0  0
   -1.3536   25.9358  -23.6180 H   0  0  0  0  0  0  0  0  0  0  0  0
    0.2362   26.4901  -24.2440 H   0  0  0  0  0  0  0  0  0  0  0  0
   -1.1688   27.6093  -24.2440 H   0  0  0  0  0  0  0  0  0  0  0  0
    0.3479   27.2062  -26.7346 H   0  0  0  0  0  0  0  0  0  0  0  0
   -0.3257   26.4809  -29.0229 H   0  0  0  0  0  0  0  0  0  0  0  0
   -3.6639   22.4496  -30.4897 H   0  0  0  0  0  0  0  0  0  0  0  0
   -4.1933   22.9602  -28.8029 H   0  0  0  0  0  0  0  0  0  0  0  0
   -6.0070   22.1080  -29.7980 H   0  0  0  0  0  0  0  0  0  0  0  0
   -6.5167   24.0514  -28.6303 H   0  0  0  0  0  0  0  0  0  0  0  0
   -6.1552   25.0425  -30.0842 H   0  0  0  0  0  0  0  0  0  0  0  0
   -7.5645   23.9287  -30.0842 H   0  0  0  0  0  0  0  0  0  0  0  0
   -4.3109   19.7398  -32.5909 H   0  0  0  0  0  0  0  0  0  0  0  0
   -5.0721   18.9654  -34.0218 H   0  0  0  0  0  0  0  0  0  0  0  0
   -4.7505   20.7327  -34.0218 H   0  0  0  0  0  0  0  0  0  0  0  0
   -9.0522   21.8401  -30.1591 H   0  0  0  0  0  0  0  0  0  0  0  0
   -8.9429   22.9625  -31.5574 H   0  0  0  0  0  0  0  0  0  0  0  0
  -10.1627   21.6438  -31.5574 H   0  0  0  0  0  0  0  0  0  0  0  0
   -3.6115   24.2202  -27.3444 H   0  0  0  0  0  0  0  0  0  0  0  0
   -2.9429   24.9458  -25.0539 H   0  0  0  0  0  0  0  0  0  0  0  0
  1  2  1  0
  2  3  2  0
  3  4  1  0
  4  5  2  0
  5  6  1  0
  6  7  1  0
  7  8  2  0
  7  9  1  0
  9 10  1  0
 10 11  1  0
 10 12  1  0
 12 13  2  0
 12 14  2  0
 12 15  1  0
 15 16  1  0
 16 17  1  0
 16 18  2  0
 18 19  1  0
 19 20  1  0
 20 21  1  0
  5 22  1  0
 22 23  2  0
 23  2  1  0
 20 15  2  0
  1 24  1  0
  1 25  1  0
  1 26  1  0
  3 27  1  0
  4 28  1  0
  9 29  1  0
  9 30  1  0
 10 31  1  1
 11 32  1  0
 11 33  1  0
 11 34  1  0
 17 35  1  0
 17 36  1  0
 17 37  1  0
 21 38  1  0
 21 39  1  0
 21 40  1  0
 22 41  1  0
 23 42  1  0
M  CHG  2   6  -1  10   1
M  END
>  <UniqueID>  (41) 
38

>  <SMILES>  (41) 
Cc1ccc([N-]C(=O)C[N@@H+](C)S(=O)(=O)c2c(C)noc2C)cc1

>  <Energy>  (41) 
79.01627198726763

>  <Genealogy>  (41) 
Cc1ccc([N-]C(=O)C[NH+](C)S(=O)(=O)c2c(C)noc2C)cc1 (protonated)
Cc1ccc([N-]C(=O)C[N@@H+](C)S(=O)(=O)c2c(C)noc2C)cc1 (chirality)
Cc1ccc([N-]C(=O)C[N@@H+](C)S(=O)(=O)c2c(C)noc2C)cc1 (3D coordinates assigned)
Cc1ccc([N-]C(=O)C[N@@H+](C)S(=O)(=O)c2c(C)noc2C)cc1 (optimized conformer: 79.01627198726763 kcal/mol)

>  <smiles>  (41) 
Cc1ccc(NC(=O)CN(C)S(=O)(=O)c2c(C)noc2C)cc1

>  <score_type>  (41) 
oracle

>  <origin>  (41) 
adgpu

>  <m_score__min__energy>  (41) 
-9.4299999999999997

>  <m_primary>  (41) 
energy

$$$$
41:0
     RDKit          3D

 41 43  0  0  0  0  0  0  0  0999 V2000
   -6.3890   25.6780  -29.4870 C   0  0  0  0  0  0  0  0  0  0  0  0
   -6.0140   24.4860  -30.3020 C   0  0  0  0  0  0  0  0  0  0  0  0
   -6.9080   23.6430  -30.8600 N   0  0  0  0  0  0  0  0  0  0  0  0
   -6.2360   22.7820  -31.6090 N   0  0  0  0  0  0  0  0  0  0  0  0
   -6.8720   21.6990  -32.3530 C   0  0  0  0  0  0  0  0  0  0  0  0
   -4.9110   23.0520  -31.5530 C   0  0  0  0  0  0  0  0  0  0  0  0
   -3.8440   22.3060  -32.2910 C   0  0  0  0  0  0  0  0  0  0  0  0
   -4.7490   24.1570  -30.7370 C   0  0  0  0  0  0  0  0  0  0  0  0
   -3.5510   24.8900  -30.4710 N   0  0  0  0  0  0  0  0  0  0  0  0
   -2.6570   24.6750  -29.0030 S   0  0  0  0  0  0  0  0  0  0  0  0
   -1.5240   25.6610  -28.9660 O   0  0  0  0  0  0  0  0  0  0  0  0
   -3.5480   24.9150  -27.8160 O   0  0  0  0  0  0  0  0  0  0  0  0
   -1.9920   23.0450  -28.9740 C   0  0  0  0  0  0  0  0  0  0  0  0
   -1.0540   22.6330  -29.9310 C   0  0  0  0  0  0  0  0  0  0  0  0
   -0.4760   21.3640  -29.8510 C   0  0  0  0  0  0  0  0  0  0  0  0
   -0.8330   20.4820  -28.8150 C   0  0  0  0  0  0  0  0  0  0  0  0
   -0.2040   19.1410  -28.7140 C   0  0  0  0  0  0  0  0  0  0  0  0
   -0.3120   18.3770  -27.5400 C   0  0  0  0  0  0  0  0  0  0  0  0
    0.2640   17.1480  -27.4700 N   0  0  0  0  0  0  0  0  0  0  0  0
    0.9570   16.6370  -28.5210 C   0  0  0  0  0  0  0  0  0  0  0  0
    1.4970   15.4640  -28.4230 N   0  0  0  0  0  0  0  0  0  0  0  0
    1.0790   17.3570  -29.6690 N   0  0  0  0  0  0  0  0  0  0  0  0
    0.5150   18.5880  -29.7870 C   0  0  0  0  0  0  0  0  0  0  0  0
   -1.7860   20.8980  -27.8680 C   0  0  0  0  0  0  0  0  0  0  0  0
   -2.3570   22.1710  -27.9470 C   0  0  0  0  0  0  0  0  0  0  0  0
   -6.3111   25.4305  -28.4180 H   0  0  0  0  0  0  0  0  0  0  0  0
   -5.7094   26.5107  -29.7210 H   0  0  0  0  0  0  0  0  0  0  0  0
   -7.4229   25.9717  -29.7210 H   0  0  0  0  0  0  0  0  0  0  0  0
   -7.2994   20.9712  -31.6476 H   0  0  0  0  0  0  0  0  0  0  0  0
   -7.6724   22.1097  -32.9860 H   0  0  0  0  0  0  0  0  0  0  0  0
   -6.1234   21.2000  -32.9860 H   0  0  0  0  0  0  0  0  0  0  0  0
   -3.1634   21.8302  -31.5696 H   0  0  0  0  0  0  0  0  0  0  0  0
   -4.3068   21.5337  -32.9229 H   0  0  0  0  0  0  0  0  0  0  0  0
   -3.2775   23.0058  -32.9229 H   0  0  0  0  0  0  0  0  0  0  0  0
   -0.7719   23.3124  -30.7488 H   0  0  0  0  0  0  0  0  0  0  0  0
    0.2635   21.0522  -30.6033 H   0  0  0  0  0  0  0  0  0  0  0  0
   -0.8640   18.7744  -26.6755 H   0  0  0  0  0  0  0  0  0  0  0  0
    2.0370   15.0440  -29.2150 H   0  0  0  0  0  0  0  0  0  0  0  0
    0.6217   19.1527  -30.7249 H   0  0  0  0  0  0  0  0  0  0  0  0
   -2.0844   20.2157  -27.0584 H   0  0  0  0  0  0  0  0  0  0  0  0
   -3.0973   22.4864  -27.1970 H   0  0  0  0  0  0  0  0  0  0  0  0
  1  2  1  0
  2  3  2  0
  3  4  1  0
  4  5  1  0
  4  6  1  0
  6  7  1  0
  6  8  2  0
  8  9  1  0
  9 10  1  0
 10 11  2  0
 10 12  2  0
 10 13  1  0
 13 14  2  0
 14 15  1  0
 15 16  2  0
 16 17  1  0
 17 18  1  0
 18 19  2  0
 19 20  1  0
 20 21  2  3
 20 22  1  0
 22 23  1  0
 16 24  1  0
 24 25  2  0
  8  2  1  0
 25 13  1  0
 23 17  2  0
  1 26  1  0
  1 27  1  0
  1 28  1  0
  5 29  1  0
  5 30  1  0
  5 31  1  0
  7 32  1  0
  7 33  1  0
  7 34  1  0
 14 35  1  0
 15 36  1  0
 18 37  1  0
 21 38  1  0
 23 39  1  0
 24 40  1  0
 25 41  1  0
M  CHG  2   9  -1  22  -1
M  END
>  <UniqueID>  (42) 
39

>  <SMILES>  (42) 
Cc1nn(C)c(C)c1[N-]S(=O)(=O)c1ccc(-c2cnc(=N)[n-]c2)cc1

>  <Energy>  (42) 
85.16607173503633

>  <Genealogy>  (42) 
Cc1nn(C)c(C)c1[N-]S(=O)(=O)c1ccc(-c2cnc(=N)[n-]c2)cc1 (protonated)
Cc1nn(C)c(C)c1[N-]S(=O)(=O)c1ccc(-c2cnc(=N)[n-]c2)cc1 (3D coordinates assigned)
Cc1nn(C)c(C)c1[N-]S(=O)(=O)c1ccc(-c2cnc(=N)[n-]c2)cc1 (optimized conformer: 85.16607173503633 kcal/mol)

>  <smiles>  (42) 
Cc1nn(C)c(C)c1NS(=O)(=O)c1ccc(-c2cnc(=N)[nH]c2)cc1

>  <score_type>  (42) 
oracle

>  <origin>  (42) 
adgpu

>  <m_score__min__energy>  (42) 
-9.5299999999999994

>  <m_primary>  (42) 
energy

$$$$
42:0
     RDKit          3D

 28 30  0  0  0  0  0  0  0  0999 V2000
    0.6430   21.9550  -34.3290 O   0  0  0  0  0  0  0  0  0  0  0  0
    0.0840   21.0120  -33.4770 C   0  0  0  0  0  0  0  0  0  0  0  0
   -0.6300   19.9310  -34.0040 C   0  0  0  0  0  0  0  0  0  0  0  0
   -1.1940   18.9810  -33.1480 C   0  0  0  0  0  0  0  0  0  0  0  0
   -1.0440   19.1080  -31.7640 C   0  0  0  0  0  0  0  0  0  0  0  0
   -0.3280   20.1890  -31.2270 C   0  0  0  0  0  0  0  0  0  0  0  0
   -0.1630   20.3150  -29.8030 N   0  0  0  0  0  0  0  0  0  0  0  0
   -0.7520   21.1920  -28.9570 C   0  0  0  0  0  0  0  0  0  0  0  0
   -1.5840   22.3510  -29.3470 C   0  0  0  0  0  0  0  0  0  0  0  0
   -2.7470   22.1830  -30.1190 C   0  0  0  0  0  0  0  0  0  0  0  0
   -3.5170   23.2910  -30.4870 C   0  0  0  0  0  0  0  0  0  0  0  0
   -3.1280   24.5760  -30.0990 C   0  0  0  0  0  0  0  0  0  0  0  0
   -3.8990   25.6720  -30.4670 O   0  0  0  0  0  0  0  0  0  0  0  0
   -1.9610   24.7550  -29.3480 C   0  0  0  0  0  0  0  0  0  0  0  0
   -1.5650   26.0320  -28.9660 O   0  0  0  0  0  0  0  0  0  0  0  0
   -1.1890   23.6480  -28.9790 C   0  0  0  0  0  0  0  0  0  0  0  0
   -0.4680   20.8940  -27.6710 N   0  0  0  0  0  0  0  0  0  0  0  0
    0.3070   19.8200  -27.6780 N   0  0  0  0  0  0  0  0  0  0  0  0
    0.4890   19.4790  -28.9670 C   0  0  0  0  0  0  0  0  0  0  0  0
    1.3060   18.1360  -29.4250 S   0  0  0  0  0  0  0  0  0  0  0  0
    0.2340   21.1430  -32.0930 C   0  0  0  0  0  0  0  0  0  0  0  0
   -0.7477   19.8284  -35.0929 H   0  0  0  0  0  0  0  0  0  0  0  0
   -1.7567   18.1322  -33.5639 H   0  0  0  0  0  0  0  0  0  0  0  0
   -1.4888   18.3580  -31.0934 H   0  0  0  0  0  0  0  0  0  0  0  0
   -3.0529   21.1748  -30.4352 H   0  0  0  0  0  0  0  0  0  0  0  0
   -4.4308   23.1507  -31.0831 H   0  0  0  0  0  0  0  0  0  0  0  0
   -0.2670   23.7941  -28.3971 H   0  0  0  0  0  0  0  0  0  0  0  0
    0.7937   21.9954  -31.6805 H   0  0  0  0  0  0  0  0  0  0  0  0
  1  2  1  0
  2  3  2  0
  3  4  1  0
  4  5  2  0
  5  6  1  0
  6  7  1  0
  7  8  1  0
  8  9  1  0
  9 10  2  0
 10 11  1  0
 11 12  2  0
 12 13  1  0
 12 14  1  0
 14 15  1  0
 14 16  2  0
  8 17  2  0
 17 18  1  0
 18 19  1  0
 19 20  2  0
  6 21  2  0
 21  2  1  0
 19  7  1  0
 16  9  1  0
  3 22  1  0
  4 23  1  0
  5 24  1  0
 10 25  1  0
 11 26  1  0
 16 27  1  0
 21 28  1  0
M  CHG  4   1  -1  13  -1  15  -1  18  -1
M  END
>  <UniqueID>  (43) 
40

>  <SMILES>  (43) 
[O-]c1cccc(-n2c(-c3ccc([O-])c([O-])c3)n[n-]c2=S)c1

>  <Energy>  (43) 
76.97583848831061

>  <Genealogy>  (43) 
[O-]c1cccc(-n2c(-c3ccc([O-])c([O-])c3)n[n-]c2=S)c1 (protonated)
[O-]c1cccc(-n2c(-c3ccc([O-])c([O-])c3)n[n-]c2=S)c1 (3D coordinates assigned)
[O-]c1cccc(-n2c(-c3ccc([O-])c([O-])c3)n[n-]c2=S)c1 (optimized conformer: 76.97583848831061 kcal/mol)

>  <smiles>  (43) 
Oc1cccc(-n2c(-c3ccc(O)c(O)c3)n[nH]c2=S)c1

>  <score_type>  (43) 
oracle

>  <origin>  (43) 
adgpu

>  <m_score__min__energy>  (43) 
-12.460000000000001

>  <m_primary>  (43) 
energy

$$$$
43:0
     RDKit          3D

 40 42  0  0  0  0  0  0  0  0999 V2000
   -5.9610   24.9300  -29.4050 C   0  0  0  0  0  0  0  0  0  0  0  0
   -5.1990   25.6820  -30.4830 C   0  0  0  0  0  0  0  0  0  0  0  0
   -3.8580   25.2060  -30.5350 O   0  0  0  0  0  0  0  0  0  0  0  0
   -3.5340   23.8490  -30.6440 C   0  0  0  0  0  0  0  0  0  0  0  0
   -4.3140   23.0260  -31.4010 N   0  0  0  0  0  0  0  0  0  0  0  0
   -4.0590   21.6980  -31.5440 C   0  0  0  0  0  0  0  0  0  0  0  0
   -4.9520   20.8890  -32.4020 C   0  0  0  0  0  0  0  0  0  0  0  0
   -4.5470   19.7880  -33.1370 C   0  0  0  0  0  0  0  0  0  0  0  0
   -5.6670   19.3390  -33.8090 C   0  0  0  0  0  0  0  0  0  0  0  0
   -5.6950   18.2050  -34.7800 C   0  0  0  0  0  0  0  0  0  0  0  0
   -6.7240   20.1300  -33.5480 N   0  0  0  0  0  0  0  0  0  0  0  0
   -6.2990   21.0840  -32.6970 C   0  0  0  0  0  0  0  0  0  0  0  0
   -7.1810   22.1940  -32.2150 C   0  0  0  0  0  0  0  0  0  0  0  0
   -2.9360   21.1470  -30.9160 C   0  0  0  0  0  0  0  0  0  0  0  0
   -2.1180   21.9600  -30.1310 C   0  0  0  0  0  0  0  0  0  0  0  0
   -2.4070   23.3260  -29.9780 C   0  0  0  0  0  0  0  0  0  0  0  0
   -1.5240   24.1730  -29.1370 C   0  0  0  0  0  0  0  0  0  0  0  0
   -0.1880   24.0070  -29.0300 N   0  0  0  0  0  0  0  0  0  0  0  0
    0.2040   24.9340  -28.2110 O   0  0  0  0  0  0  0  0  0  0  0  0
   -0.8270   25.6460  -27.8290 C   0  0  0  0  0  0  0  0  0  0  0  0
   -0.7520   26.7810  -26.8680 C   0  0  0  0  0  0  0  0  0  0  0  0
   -1.9700   25.2030  -28.3860 N   0  0  0  0  0  0  0  0  0  0  0  0
   -5.6211   25.2654  -28.4140 H   0  0  0  0  0  0  0  0  0  0  0  0
   -7.0377   25.1293  -29.5102 H   0  0  0  0  0  0  0  0  0  0  0  0
   -5.7759   23.8508  -29.5102 H   0  0  0  0  0  0  0  0  0  0  0  0
   -5.6841   25.5189  -31.4567 H   0  0  0  0  0  0  0  0  0  0  0  0
   -5.1981   26.7570  -30.2497 H   0  0  0  0  0  0  0  0  0  0  0  0
   -3.5357   19.3571  -33.1777 H   0  0  0  0  0  0  0  0  0  0  0  0
   -5.7185   17.2523  -34.2306 H   0  0  0  0  0  0  0  0  0  0  0  0
   -6.5914   18.2858  -35.4124 H   0  0  0  0  0  0  0  0  0  0  0  0
   -4.7957   18.2415  -35.4124 H   0  0  0  0  0  0  0  0  0  0  0  0
   -7.6830   20.0390  -33.9530 H   0  0  0  0  0  0  0  0  0  0  0  0
   -7.1893   22.2044  -31.1151 H   0  0  0  0  0  0  0  0  0  0  0  0
   -6.7976   23.1552  -32.5879 H   0  0  0  0  0  0  0  0  0  0  0  0
   -8.2040   22.0377  -32.5879 H   0  0  0  0  0  0  0  0  0  0  0  0
   -2.6999   20.0799  -31.0406 H   0  0  0  0  0  0  0  0  0  0  0  0
   -1.2402   21.5280  -29.6281 H   0  0  0  0  0  0  0  0  0  0  0  0
   -0.7777   26.3926  -25.8392 H   0  0  0  0  0  0  0  0  0  0  0  0
    0.1847   27.3352  -27.0275 H   0  0  0  0  0  0  0  0  0  0  0  0
   -1.6077   27.4536  -27.0275 H   0  0  0  0  0  0  0  0  0  0  0  0
  1  2  1  0
  2  3  1  0
  3  4  1  0
  4  5  2  0
  5  6  1  0
  6  7  1  0
  7  8  1  0
  8  9  2  0
  9 10  1  0
  9 11  1  0
 11 12  1  0
 12 13  1  0
  6 14  2  0
 14 15  1  0
 15 16  2  0
 16 17  1  0
 17 18  2  0
 18 19  1  0
 19 20  1  0
 20 21  1  0
 20 22  2  0
 16  4  1  0
 22 17  1  0
 12  7  2  0
  1 23  1  0
  1 24  1  0
  1 25  1  0
  2 26  1  0
  2 27  1  0
  8 28  1  0
 10 29  1  0
 10 30  1  0
 10 31  1  0
 11 32  1  0
 13 33  1  0
 13 34  1  0
 13 35  1  0
 14 36  1  0
 15 37  1  0
 21 38  1  0
 21 39  1  0
 21 40  1  0
M  END
>  <UniqueID>  (44) 
41

>  <SMILES>  (44) 
CCOc1nc(-c2cc(C)[nH]c2C)ccc1-c1noc(C)n1

>  <Energy>  (44) 
97.14331473239272

>  <Genealogy>  (44) 
CCOc1nc(-c2cc(C)[nH]c2C)ccc1-c1noc(C)n1 (3D coordinates assigned)
CCOc1nc(-c2cc(C)[nH]c2C)ccc1-c1noc(C)n1 (optimized conformer: 97.14331473239272 kcal/mol)

>  <smiles>  (44) 
CCOc1nc(-c2cc(C)[nH]c2C)ccc1-c1noc(C)n1

>  <score_type>  (44) 
oracle

>  <origin>  (44) 
adgpu

>  <m_score__min__energy>  (44) 
-9.0099999999999998

>  <m_primary>  (44) 
energy

$$$$
44:0
     RDKit          3D

 32 34  0  0  0  0  0  0  0  0999 V2000
   -6.2790   23.4350  -32.4300 O   0  0  0  0  0  0  0  0  0  0  0  0
   -7.2020   22.5820  -32.3370 C   0  0  0  0  0  0  0  0  0  0  0  0
   -8.4300   22.9870  -31.9110 N   0  0  0  0  0  0  0  0  0  0  0  0
   -9.4390   22.1310  -31.7600 N   0  0  0  0  0  0  0  0  0  0  0  0
   -9.2950   20.8090  -32.0180 C   0  0  0  0  0  0  0  0  0  0  0  0
   -8.0630   20.3200  -32.4600 C   0  0  0  0  0  0  0  0  0  0  0  0
   -7.8980   18.9490  -32.7030 C   0  0  0  0  0  0  0  0  0  0  0  0
   -6.6670   18.4550  -33.1300 C   0  0  0  0  0  0  0  0  0  0  0  0
   -6.4490   16.5860  -33.4510 Br  0  0  0  0  0  0  0  0  0  0  0  0
   -5.5970   19.3250  -33.3320 C   0  0  0  0  0  0  0  0  0  0  0  0
   -5.7370   20.7030  -33.1050 C   0  0  0  0  0  0  0  0  0  0  0  0
   -4.6130   21.5610  -33.3560 N   0  0  0  0  0  0  0  0  0  0  0  0
   -3.2570   21.2040  -32.9410 C   0  0  0  0  0  0  0  0  0  0  0  0
   -2.8870   21.9530  -31.6910 C   0  0  0  0  0  0  0  0  0  0  0  0
   -1.5700   21.9130  -31.2100 C   0  0  0  0  0  0  0  0  0  0  0  0
   -1.2080   22.6620  -30.0870 C   0  0  0  0  0  0  0  0  0  0  0  0
   -2.1530   23.4660  -29.4400 C   0  0  0  0  0  0  0  0  0  0  0  0
   -1.6570   24.4000  -28.0350 Cl  0  0  0  0  0  0  0  0  0  0  0  0
   -3.4700   23.5210  -29.9250 C   0  0  0  0  0  0  0  0  0  0  0  0
   -4.6840   24.5330  -29.1530 Cl  0  0  0  0  0  0  0  0  0  0  0  0
   -3.8310   22.7680  -31.0480 C   0  0  0  0  0  0  0  0  0  0  0  0
   -6.9830   21.2180  -32.6490 C   0  0  0  0  0  0  0  0  0  0  0  0
   -8.5910   23.9960  -31.6880 H   0  0  0  0  0  0  0  0  0  0  0  0
  -10.1442   20.1235  -31.8802 H   0  0  0  0  0  0  0  0  0  0  0  0
   -8.7435   18.2608  -32.5560 H   0  0  0  0  0  0  0  0  0  0  0  0
   -4.6303   18.9265  -33.6737 H   0  0  0  0  0  0  0  0  0  0  0  0
   -4.7680   22.4870  -33.8170 H   0  0  0  0  0  0  0  0  0  0  0  0
   -3.2089   20.1226  -32.7452 H   0  0  0  0  0  0  0  0  0  0  0  0
   -2.5525   21.4701  -33.7428 H   0  0  0  0  0  0  0  0  0  0  0  0
   -0.8195   21.2899  -31.7185 H   0  0  0  0  0  0  0  0  0  0  0  0
   -0.1755   22.6193  -29.7100 H   0  0  0  0  0  0  0  0  0  0  0  0
   -4.8618   22.8154  -31.4292 H   0  0  0  0  0  0  0  0  0  0  0  0
  1  2  2  0
  2  3  1  0
  3  4  1  0
  4  5  2  0
  5  6  1  0
  6  7  2  0
  7  8  1  0
  8  9  1  0
  8 10  2  0
 10 11  1  0
 11 12  1  0
 12 13  1  0
 13 14  1  0
 14 15  2  0
 15 16  1  0
 16 17  2  0
 17 18  1  0
 17 19  1  0
 19 20  1  0
 19 21  2  0
 11 22  2  0
 22  2  1  0
 22  6  1  0
 21 14  1  0
  3 23  1  0
  5 24  1  0
  7 25  1  0
 10 26  1  0
 12 27  1  0
 13 28  1  0
 13 29  1  0
 15 30  1  0
 16 31  1  0
 21 32  1  0
M  END
>  <UniqueID>  (45) 
42

>  <SMILES>  (45) 
O=c1[nH]ncc2cc(Br)cc(NCc3ccc(Cl)c(Cl)c3)c12

>  <Energy>  (45) 
44.72271173120686

>  <Genealogy>  (45) 
O=c1[nH]ncc2cc(Br)cc(NCc3ccc(Cl)c(Cl)c3)c12 (3D coordinates assigned)
O=c1[nH]ncc2cc(Br)cc(NCc3ccc(Cl)c(Cl)c3)c12 (optimized conformer: 44.72271173120686 kcal/mol)

>  <smiles>  (45) 
O=c1[nH]ncc2cc(Br)cc(NCc3ccc(Cl)c(Cl)c3)c12

>  <score_type>  (45) 
oracle

>  <origin>  (45) 
adgpu

>  <m_score__min__energy>  (45) 
-8.5999999999999996

>  <m_primary>  (45) 
energy

$$$$
45:0
     RDKit          3D

 55 57  0  0  0  0  0  0  0  0999 V2000
   -2.8970   24.9060  -26.6660 C   0  0  0  0  0  0  0  0  0  0  0  0
   -4.2350   24.4370  -27.2300 C   0  0  0  0  0  0  0  0  0  0  0  0
   -4.0750   23.9410  -28.6020 N   0  0  0  0  0  0  0  0  0  0  0  0
   -3.1850   22.8480  -28.8920 C   0  0  0  0  0  0  0  0  0  0  0  0
   -3.2350   21.6700  -28.1270 C   0  0  0  0  0  0  0  0  0  0  0  0
   -2.3650   20.6110  -28.4020 C   0  0  0  0  0  0  0  0  0  0  0  0
   -1.4380   20.7170  -29.4410 C   0  0  0  0  0  0  0  0  0  0  0  0
   -1.3780   21.8840  -30.2060 C   0  0  0  0  0  0  0  0  0  0  0  0
   -2.2470   22.9470  -29.9350 C   0  0  0  0  0  0  0  0  0  0  0  0
   -5.0170   24.6530  -29.8820 S   0  0  0  0  0  0  0  0  0  0  0  0
   -4.1020   25.3490  -30.8520 O   0  0  0  0  0  0  0  0  0  0  0  0
   -5.9610   25.6770  -29.3150 O   0  0  0  0  0  0  0  0  0  0  0  0
   -5.9340   23.3960  -30.7060 C   0  0  0  0  0  0  0  0  0  0  0  0
   -7.2760   23.5960  -31.0500 C   0  0  0  0  0  0  0  0  0  0  0  0
   -7.9800   22.6070  -31.7410 C   0  0  0  0  0  0  0  0  0  0  0  0
   -7.3480   21.4030  -32.1040 C   0  0  0  0  0  0  0  0  0  0  0  0
   -8.0140   20.4070  -32.8350 O   0  0  0  0  0  0  0  0  0  0  0  0
   -9.0810   19.6100  -32.3320 C   0  0  0  0  0  0  0  0  0  0  0  0
   -6.0030   21.1950  -31.7420 C   0  0  0  0  0  0  0  0  0  0  0  0
   -5.3280   19.9810  -32.1140 N   0  0  0  0  0  0  0  0  0  0  0  0
   -4.1330   20.0390  -32.9610 C   0  0  0  0  0  0  0  0  0  0  0  0
   -3.7990   18.6480  -33.5260 C   0  0  0  0  0  0  0  0  0  0  0  0
   -5.0200   17.8860  -33.8740 N   0  0  0  0  0  0  0  0  0  0  0  0
   -5.7540   18.5180  -34.9900 C   0  0  0  0  0  0  0  0  0  0  0  0
   -5.9090   17.6480  -32.7020 C   0  0  0  0  0  0  0  0  0  0  0  0
   -5.7570   18.6890  -31.5740 C   0  0  0  0  0  0  0  0  0  0  0  0
   -5.3060   22.1940  -31.0470 C   0  0  0  0  0  0  0  0  0  0  0  0
   -2.9372   24.8919  -25.5668 H   0  0  0  0  0  0  0  0  0  0  0  0
   -2.0975   24.2345  -27.0123 H   0  0  0  0  0  0  0  0  0  0  0  0
   -2.6917   25.9297  -27.0123 H   0  0  0  0  0  0  0  0  0  0  0  0
   -4.6298   23.6282  -26.5975 H   0  0  0  0  0  0  0  0  0  0  0  0
   -4.9318   25.2881  -27.2409 H   0  0  0  0  0  0  0  0  0  0  0  0
   -3.9629   21.5809  -27.3072 H   0  0  0  0  0  0  0  0  0  0  0  0
   -2.4107   19.6923  -27.7988 H   0  0  0  0  0  0  0  0  0  0  0  0
   -0.7554   19.8818  -29.6568 H   0  0  0  0  0  0  0  0  0  0  0  0
   -0.6463   21.9678  -31.0231 H   0  0  0  0  0  0  0  0  0  0  0  0
   -2.1961   23.8639  -30.5405 H   0  0  0  0  0  0  0  0  0  0  0  0
   -7.7780   24.5354  -30.7752 H   0  0  0  0  0  0  0  0  0  0  0  0
   -9.0357   22.7703  -32.0033 H   0  0  0  0  0  0  0  0  0  0  0  0
   -9.0622   19.6240  -31.2322 H   0  0  0  0  0  0  0  0  0  0  0  0
  -10.0401   20.0147  -32.6875 H   0  0  0  0  0  0  0  0  0  0  0  0
   -8.9651   18.5755  -32.6875 H   0  0  0  0  0  0  0  0  0  0  0  0
   -4.3147   20.7333  -33.7947 H   0  0  0  0  0  0  0  0  0  0  0  0
   -3.2849   20.3866  -32.3527 H   0  0  0  0  0  0  0  0  0  0  0  0
   -3.1856   18.7696  -34.4310 H   0  0  0  0  0  0  0  0  0  0  0  0
   -3.2559   18.0867  -32.7514 H   0  0  0  0  0  0  0  0  0  0  0  0
   -4.7030   16.9500  -34.2250 H   0  0  0  0  0  0  0  0  0  0  0  0
   -6.5297   19.1859  -34.5871 H   0  0  0  0  0  0  0  0  0  0  0  0
   -5.0533   19.0999  -35.6068 H   0  0  0  0  0  0  0  0  0  0  0  0
   -6.2254   17.7387  -35.6068 H   0  0  0  0  0  0  0  0  0  0  0  0
   -6.9522   17.6662  -33.0505 H   0  0  0  0  0  0  0  0  0  0  0  0
   -5.6197   16.6755  -32.2770 H   0  0  0  0  0  0  0  0  0  0  0  0
   -6.7244   18.8138  -31.0655 H   0  0  0  0  0  0  0  0  0  0  0  0
   -4.9953   18.3324  -30.8650 H   0  0  0  0  0  0  0  0  0  0  0  0
   -4.2548   22.0304  -30.7673 H   0  0  0  0  0  0  0  0  0  0  0  0
  1  2  1  0
  2  3  1  0
  3  4  1  0
  4  5  2  0
  5  6  1  0
  6  7  2  0
  7  8  1  0
  8  9  2  0
  3 10  1  0
 10 11  2  0
 10 12  2  0
 10 13  1  0
 13 14  2  0
 14 15  1  0
 15 16  2  0
 16 17  1  0
 17 18  1  0
 16 19  1  0
 19 20  1  0
 20 21  1  0
 21 22  1  0
 22 23  1  0
 23 24  1  0
 23 25  1  0
 25 26  1  0
 19 27  2  0
  9  4  1  0
 27 13  1  0
 26 20  1  0
  1 28  1  0
  1 29  1  0
  1 30  1  0
  2 31  1  0
  2 32  1  0
  5 33  1  0
  6 34  1  0
  7 35  1  0
  8 36  1  0
  9 37  1  0
 14 38  1  0
 15 39  1  0
 18 40  1  0
 18 41  1  0
 18 42  1  0
 21 43  1  0
 21 44  1  0
 22 45  1  0
 22 46  1  0
 23 47  1  0
 24 48  1  0
 24 49  1  0
 24 50  1  0
 25 51  1  0
 25 52  1  0
 26 53  1  0
 26 54  1  0
 27 55  1  0
M  CHG  1  23   1
M  END
>  <UniqueID>  (46) 
43

>  <SMILES>  (46) 
CCN(c1ccccc1)S(=O)(=O)c1ccc(OC)c(N2CC[NH+](C)CC2)c1

>  <Energy>  (46) 
67.50974037620671

>  <Genealogy>  (46) 
CCN(c1ccccc1)S(=O)(=O)c1ccc(OC)c(N2CC[NH+](C)CC2)c1 (protonated)
CCN(c1ccccc1)S(=O)(=O)c1ccc(OC)c(N2CC[NH+](C)CC2)c1 (3D coordinates assigned)
CCN(c1ccccc1)S(=O)(=O)c1ccc(OC)c(N2CC[NH+](C)CC2)c1 (nonaromatic ring conformer: 67.50974037620671 kcal/mol)

>  <smiles>  (46) 
CCN(c1ccccc1)S(=O)(=O)c1ccc(OC)c(N2CCN(C)CC2)c1

>  <score_type>  (46) 
oracle

>  <origin>  (46) 
adgpu

>  <m_score__min__energy>  (46) 
-8.2599999999999998

>  <m_primary>  (46) 
energy

$$$$
46:0
     RDKit          3D

 33 35  0  0  0  0  0  0  0  0999 V2000
   -3.8730   16.7360  -35.7050 N   0  0  0  0  0  0  0  0  0  0  0  0
   -2.5100   16.6260  -34.6470 S   0  0  0  0  0  0  0  0  0  0  0  0
   -2.9120   15.9240  -33.3790 O   0  0  0  0  0  0  0  0  0  0  0  0
   -1.4320   15.8270  -35.3250 O   0  0  0  0  0  0  0  0  0  0  0  0
   -1.9280   18.2480  -34.2610 C   0  0  0  0  0  0  0  0  0  0  0  0
   -0.5590   18.5390  -34.3570 C   0  0  0  0  0  0  0  0  0  0  0  0
   -0.0850   19.8170  -34.0550 C   0  0  0  0  0  0  0  0  0  0  0  0
   -0.9720   20.8130  -33.6460 C   0  0  0  0  0  0  0  0  0  0  0  0
   -2.3370   20.5370  -33.5460 C   0  0  0  0  0  0  0  0  0  0  0  0
   -2.8320   19.2600  -33.8730 C   0  0  0  0  0  0  0  0  0  0  0  0
   -4.2310   18.9460  -33.7460 N   0  0  0  0  0  0  0  0  0  0  0  0
   -5.1240   19.6500  -33.1170 C   0  0  0  0  0  0  0  0  0  0  0  0
   -4.8860   20.8540  -32.5530 N   0  0  0  0  0  0  0  0  0  0  0  0
   -6.0110   21.3860  -31.9990 C   0  0  0  0  0  0  0  0  0  0  0  0
   -5.9900   22.7130  -31.3400 C   0  0  0  0  0  0  0  0  0  0  0  0
   -4.7640   23.3910  -31.1980 C   0  0  0  0  0  0  0  0  0  0  0  0
   -4.7120   24.6460  -30.5830 C   0  0  0  0  0  0  0  0  0  0  0  0
   -3.4960   25.3080  -30.4590 O   0  0  0  0  0  0  0  0  0  0  0  0
   -5.8800   25.2330  -30.0920 C   0  0  0  0  0  0  0  0  0  0  0  0
   -7.1000   24.5660  -30.2100 C   0  0  0  0  0  0  0  0  0  0  0  0
   -7.1610   23.3100  -30.8250 C   0  0  0  0  0  0  0  0  0  0  0  0
   -8.3560   22.6700  -30.8700 F   0  0  0  0  0  0  0  0  0  0  0  0
   -7.1590   20.6010  -32.1520 C   0  0  0  0  0  0  0  0  0  0  0  0
   -6.7330   19.2040  -32.9910 S   0  0  0  0  0  0  0  0  0  0  0  0
   -4.3960   17.6000  -35.4380 H   0  0  0  0  0  0  0  0  0  0  0  0
    0.1455   17.7552  -34.6722 H   0  0  0  0  0  0  0  0  0  0  0  0
    0.9891   20.0388  -34.1397 H   0  0  0  0  0  0  0  0  0  0  0  0
   -0.5954   21.8173  -33.4019 H   0  0  0  0  0  0  0  0  0  0  0  0
   -3.0301   21.3221  -33.2096 H   0  0  0  0  0  0  0  0  0  0  0  0
   -3.8390   22.9295  -31.5741 H   0  0  0  0  0  0  0  0  0  0  0  0
   -5.8384   26.2218  -29.6119 H   0  0  0  0  0  0  0  0  0  0  0  0
   -8.0176   25.0291  -29.8181 H   0  0  0  0  0  0  0  0  0  0  0  0
   -8.1658   20.8527  -31.7874 H   0  0  0  0  0  0  0  0  0  0  0  0
  1  2  1  0
  2  3  2  0
  2  4  2  0
  2  5  1  0
  5  6  2  0
  6  7  1  0
  7  8  2  0
  8  9  1  0
  9 10  2  0
 10 11  1  0
 11 12  2  3
 12 13  1  0
 13 14  1  0
 14 15  1  0
 15 16  2  0
 16 17  1  0
 17 18  1  0
 17 19  2  0
 19 20  1  0
 20 21  2  0
 21 22  1  0
 14 23  2  0
 23 24  1  0
 10  5  1  0
 24 12  1  0
 21 15  1  0
  1 25  1  0
  6 26  1  0
  7 27  1  0
  8 28  1  0
  9 29  1  0
 16 30  1  0
 19 31  1  0
 20 32  1  0
 23 33  1  0
M  CHG  3   1  -1  13  -1  18  -1
M  END
>  <UniqueID>  (47) 
44

>  <SMILES>  (47) 
[NH-]S(=O)(=O)c1ccccc1N=c1[n-]c(-c2cc([O-])ccc2F)cs1

>  <Energy>  (47) 
75.9691461774677

>  <Genealogy>  (47) 
[NH-]S(=O)(=O)c1ccccc1N=c1[n-]c(-c2cc([O-])ccc2F)cs1 (protonated)
[NH-]S(=O)(=O)c1ccccc1N=c1[n-]c(-c2cc([O-])ccc2F)cs1 (3D coordinates assigned)
[NH-]S(=O)(=O)c1ccccc1N=c1[n-]c(-c2cc([O-])ccc2F)cs1 (optimized conformer: 75.9691461774677 kcal/mol)

>  <smiles>  (47) 
NS(=O)(=O)c1ccccc1N=c1[nH]c(-c2cc(O)ccc2F)cs1

>  <score_type>  (47) 
oracle

>  <origin>  (47) 
adgpu

>  <m_score__min__energy>  (47) 
-11.27

>  <m_primary>  (47) 
energy

$$$$
47:0
     RDKit          3D

 53 57  0  0  0  0  0  0  0  0999 V2000
   -1.5110   19.3160  -26.4380 O   0  0  0  0  0  0  0  0  0  0  0  0
   -0.9120   20.0420  -27.2770 C   0  0  0  0  0  0  0  0  0  0  0  0
   -0.4050   21.3630  -26.8510 C   0  0  0  0  0  0  0  0  0  0  0  0
    0.8400   21.8220  -27.3110 C   0  0  0  0  0  0  0  0  0  0  0  0
    1.3060   23.0860  -26.9390 C   0  0  0  0  0  0  0  0  0  0  0  0
    0.5400   23.8960  -26.0940 C   0  0  0  0  0  0  0  0  0  0  0  0
    1.1200   25.4870  -25.6390 Cl  0  0  0  0  0  0  0  0  0  0  0  0
   -0.6880   23.4340  -25.6100 C   0  0  0  0  0  0  0  0  0  0  0  0
   -1.1560   22.1700  -25.9800 C   0  0  0  0  0  0  0  0  0  0  0  0
   -0.7300   19.5450  -28.6580 C   0  0  0  0  0  0  0  0  0  0  0  0
   -0.0420   18.4060  -29.0250 C   0  0  0  0  0  0  0  0  0  0  0  0
    0.5500   17.4850  -28.1700 O   0  0  0  0  0  0  0  0  0  0  0  0
   -0.0360   18.3550  -30.3990 C   0  0  0  0  0  0  0  0  0  0  0  0
    0.5780   17.3720  -31.1700 O   0  0  0  0  0  0  0  0  0  0  0  0
   -0.6930   19.4180  -30.9110 N   0  0  0  0  0  0  0  0  0  0  0  0
   -0.8160   19.7410  -32.3380 C   0  0  0  0  0  0  0  0  0  0  0  0
   -2.0050   19.0200  -32.9860 C   0  0  0  0  0  0  0  0  0  0  0  0
   -3.1960   19.9180  -33.1360 C   0  0  0  0  0  0  0  0  0  0  0  0
   -3.1750   21.2750  -33.4490 C   0  0  0  0  0  0  0  0  0  0  0  0
   -4.4250   21.7870  -33.4120 N   0  0  0  0  0  0  0  0  0  0  0  0
   -5.2340   20.7690  -33.0690 C   0  0  0  0  0  0  0  0  0  0  0  0
   -6.6140   20.8150  -32.8750 C   0  0  0  0  0  0  0  0  0  0  0  0
   -7.2620   19.6290  -32.4850 C   0  0  0  0  0  0  0  0  0  0  0  0
   -6.5250   18.4390  -32.2960 C   0  0  0  0  0  0  0  0  0  0  0  0
   -5.1330   18.4230  -32.4970 C   0  0  0  0  0  0  0  0  0  0  0  0
   -4.5200   19.6130  -32.8900 C   0  0  0  0  0  0  0  0  0  0  0  0
   -1.1220   20.1530  -29.8530 C   0  0  0  0  0  0  0  0  0  0  0  0
   -1.7290   21.4930  -29.9650 C   0  0  0  0  0  0  0  0  0  0  0  0
   -3.0830   21.6360  -30.3030 C   0  0  0  0  0  0  0  0  0  0  0  0
   -3.6640   22.9060  -30.3530 C   0  0  0  0  0  0  0  0  0  0  0  0
   -2.8990   24.0400  -30.0610 C   0  0  0  0  0  0  0  0  0  0  0  0
   -3.4800   25.3010  -30.1050 O   0  0  0  0  0  0  0  0  0  0  0  0
   -1.5500   23.9030  -29.7200 C   0  0  0  0  0  0  0  0  0  0  0  0
   -0.9660   22.6340  -29.6690 C   0  0  0  0  0  0  0  0  0  0  0  0
    1.4508   21.1841  -27.9667 H   0  0  0  0  0  0  0  0  0  0  0  0
    2.2770   23.4446  -27.3114 H   0  0  0  0  0  0  0  0  0  0  0  0
   -1.2863   24.0661  -24.9373 H   0  0  0  0  0  0  0  0  0  0  0  0
   -2.1167   21.8054  -25.5874 H   0  0  0  0  0  0  0  0  0  0  0  0
    1.0970   16.6160  -30.7380 H   0  0  0  0  0  0  0  0  0  0  0  0
   -0.9561   20.8266  -32.4463 H   0  0  0  0  0  0  0  0  0  0  0  0
    0.1022   19.4079  -32.8439 H   0  0  0  0  0  0  0  0  0  0  0  0
   -1.7031   18.6622  -33.9814 H   0  0  0  0  0  0  0  0  0  0  0  0
   -2.2917   18.1840  -32.3311 H   0  0  0  0  0  0  0  0  0  0  0  0
   -2.2687   21.8490  -33.6921 H   0  0  0  0  0  0  0  0  0  0  0  0
   -4.7000   22.7780  -33.5920 H   0  0  0  0  0  0  0  0  0  0  0  0
   -7.1775   21.7482  -33.0221 H   0  0  0  0  0  0  0  0  0  0  0  0
   -8.3505   19.6283  -32.3261 H   0  0  0  0  0  0  0  0  0  0  0  0
   -7.0432   17.5184  -31.9895 H   0  0  0  0  0  0  0  0  0  0  0  0
   -4.5476   17.5035  -32.3494 H   0  0  0  0  0  0  0  0  0  0  0  0
   -3.6889   20.7462  -30.5292 H   0  0  0  0  0  0  0  0  0  0  0  0
   -4.7250   23.0141  -30.6225 H   0  0  0  0  0  0  0  0  0  0  0  0
   -0.9477   24.7947  -29.4916 H   0  0  0  0  0  0  0  0  0  0  0  0
    0.0944   22.5289  -29.3962 H   0  0  0  0  0  0  0  0  0  0  0  0
  1  2  2  0
  2  3  1  0
  3  4  2  0
  4  5  1  0
  5  6  2  0
  6  7  1  0
  6  8  1  0
  8  9  2  0
  2 10  1  0
 10 11  1  0
 11 12  1  0
 11 13  2  0
 13 14  1  0
 13 15  1  0
 15 16  1  0
 16 17  1  0
 17 18  1  0
 18 19  2  0
 19 20  1  0
 20 21  1  0
 21 22  2  0
 22 23  1  0
 23 24  2  0
 24 25  1  0
 25 26  2  0
 15 27  1  0
 27 28  1  0
 28 29  2  0
 29 30  1  0
 30 31  2  0
 31 32  1  0
 31 33  1  0
 33 34  2  0
  9  3  1  0
 27 10  2  0
 34 28  1  0
 26 18  1  0
 26 21  1  0
  4 35  1  0
  5 36  1  0
  8 37  1  0
  9 38  1  0
 14 39  1  0
 16 40  1  0
 16 41  1  0
 17 42  1  0
 17 43  1  0
 19 44  1  0
 20 45  1  0
 22 46  1  0
 23 47  1  0
 24 48  1  0
 25 49  1  0
 29 50  1  0
 30 51  1  0
 33 52  1  0
 34 53  1  0
M  CHG  2  12  -1  32  -1
M  END
>  <UniqueID>  (48) 
45

>  <SMILES>  (48) 
O=C(c1ccc(Cl)cc1)c1c([O-])c(O)n(CCc2c[nH]c3ccccc23)c1-c1ccc([O-])cc1

>  <Energy>  (48) 
126.77782306038434

>  <Genealogy>  (48) 
O=C(c1ccc(Cl)cc1)c1c([O-])c(O)n(CCc2c[nH]c3ccccc23)c1-c1ccc([O-])cc1 (protonated)
O=C(c1ccc(Cl)cc1)c1c([O-])c(O)n(CCc2c[nH]c3ccccc23)c1-c1ccc([O-])cc1 (3D coordinates assigned)
O=C(c1ccc(Cl)cc1)c1c([O-])c(O)n(CCc2c[nH]c3ccccc23)c1-c1ccc([O-])cc1 (optimized conformer: 126.77782306038434 kcal/mol)

>  <smiles>  (48) 
O=C(c1ccc(Cl)cc1)c1c(O)c(O)n(CCc2c[nH]c3ccccc23)c1-c1ccc(O)cc1

>  <score_type>  (48) 
oracle

>  <origin>  (48) 
adgpu

>  <m_score__min__energy>  (48) 
-13.52

>  <m_primary>  (48) 
energy

$$$$
48:0
     RDKit          3D

 75 79  0  0  0  0  0  0  0  0999 V2000
   -0.8560   26.3860  -24.2160 C   0  0  0  0  0  0  0  0  0  0  0  0
   -0.7470   26.6860  -25.6050 O   0  0  0  0  0  0  0  0  0  0  0  0
   -1.2280   25.8640  -26.6340 C   0  0  0  0  0  0  0  0  0  0  0  0
   -0.4930   25.6140  -27.8080 C   0  0  0  0  0  0  0  0  0  0  0  0
   -1.0090   24.7720  -28.7980 C   0  0  0  0  0  0  0  0  0  0  0  0
   -2.2800   24.1910  -28.6480 C   0  0  0  0  0  0  0  0  0  0  0  0
   -2.8360   23.2700  -29.6640 C   0  0  0  0  0  0  0  0  0  0  0  0
   -3.4410   23.7000  -30.7600 O   0  0  0  0  0  0  0  0  0  0  0  0
   -3.8280   22.6550  -31.4500 C   0  0  0  0  0  0  0  0  0  0  0  0
   -4.4780   22.6390  -32.6830 C   0  0  0  0  0  0  0  0  0  0  0  0
   -4.7510   21.3870  -33.2680 C   0  0  0  0  0  0  0  0  0  0  0  0
   -4.3570   20.1910  -32.6170 C   0  0  0  0  0  0  0  0  0  0  0  0
   -4.6430   18.9230  -33.2150 N   0  0  0  0  0  0  0  0  0  0  0  0
   -3.5490   18.1480  -33.7930 C   0  0  0  0  0  0  0  0  0  0  0  0
   -6.0660   18.0870  -32.6880 S   0  0  0  0  0  0  0  0  0  0  0  0
   -5.7400   17.2320  -31.4960 O   0  0  0  0  0  0  0  0  0  0  0  0
   -6.5700   17.1920  -33.7830 O   0  0  0  0  0  0  0  0  0  0  0  0
   -7.3020   19.2700  -32.2720 C   0  0  0  0  0  0  0  0  0  0  0  0
   -8.6260   19.0920  -32.6970 C   0  0  0  0  0  0  0  0  0  0  0  0
   -9.6080   20.0200  -32.3360 C   0  0  0  0  0  0  0  0  0  0  0  0
   -9.2790   21.1190  -31.5400 C   0  0  0  0  0  0  0  0  0  0  0  0
   -7.9650   21.2930  -31.1000 C   0  0  0  0  0  0  0  0  0  0  0  0
   -7.5570   22.6620  -30.0810 Cl  0  0  0  0  0  0  0  0  0  0  0  0
   -6.9770   20.3730  -31.4680 C   0  0  0  0  0  0  0  0  0  0  0  0
   -3.7050   20.2470  -31.3700 C   0  0  0  0  0  0  0  0  0  0  0  0
   -3.4770   21.5010  -30.8080 C   0  0  0  0  0  0  0  0  0  0  0  0
   -2.8340   21.8700  -29.6460 C   0  0  0  0  0  0  0  0  0  0  0  0
   -2.1530   20.9460  -28.7320 C   0  0  0  0  0  0  0  0  0  0  0  0
   -2.1510   21.1760  -27.4970 O   0  0  0  0  0  0  0  0  0  0  0  0
   -1.4100   19.8530  -29.2830 N   0  0  0  0  0  0  0  0  0  0  0  0
   -0.6830   19.8300  -30.5510 C   0  0  1  0  0  0  0  0  0  0  0  0
    0.8250   20.0570  -30.3320 C   0  0  0  0  0  0  0  0  0  0  0  0
    1.6790   19.6290  -31.5460 C   0  0  0  0  0  0  0  0  0  0  0  0
    0.9100   19.5050  -32.8120 N   0  0  2  0  0  0  0  0  0  0  0  0
    0.5620   20.7920  -33.5420 C   0  0  0  0  0  0  0  0  0  0  0  0
   -0.9320   21.1980  -33.5470 C   0  0  0  0  0  0  0  0  0  0  0  0
    1.1260   20.9170  -34.9750 C   0  0  0  0  0  0  0  0  0  0  0  0
   -0.1540   18.4660  -32.6600 C   0  0  0  0  0  0  0  0  0  0  0  0
   -0.9660   18.5520  -31.3450 C   0  0  0  0  0  0  0  0  0  0  0  0
   -3.0070   24.4400  -27.4750 C   0  0  0  0  0  0  0  0  0  0  0  0
   -2.4850   25.2690  -26.4780 C   0  0  0  0  0  0  0  0  0  0  0  0
   -0.5389   27.2588  -23.6264 H   0  0  0  0  0  0  0  0  0  0  0  0
   -1.9008   26.1405  -23.9748 H   0  0  0  0  0  0  0  0  0  0  0  0
   -0.2125   25.5271  -23.9748 H   0  0  0  0  0  0  0  0  0  0  0  0
    0.4921   26.0832  -27.9474 H   0  0  0  0  0  0  0  0  0  0  0  0
   -0.4160   24.5629  -29.7006 H   0  0  0  0  0  0  0  0  0  0  0  0
   -4.7686   23.5745  -33.1834 H   0  0  0  0  0  0  0  0  0  0  0  0
   -5.2727   21.3371  -34.2351 H   0  0  0  0  0  0  0  0  0  0  0  0
   -2.9392   17.7160  -32.9858 H   0  0  0  0  0  0  0  0  0  0  0  0
   -3.9609   17.3391  -34.4143 H   0  0  0  0  0  0  0  0  0  0  0  0
   -2.9226   18.8049  -34.4143 H   0  0  0  0  0  0  0  0  0  0  0  0
   -8.8927   18.2218  -33.3148 H   0  0  0  0  0  0  0  0  0  0  0  0
  -10.6437   19.8836  -32.6805 H   0  0  0  0  0  0  0  0  0  0  0  0
  -10.0543   21.8473  -31.2597 H   0  0  0  0  0  0  0  0  0  0  0  0
   -5.9414   20.5151  -31.1256 H   0  0  0  0  0  0  0  0  0  0  0  0
   -3.3856   19.3287  -30.8556 H   0  0  0  0  0  0  0  0  0  0  0  0
   -1.0524   20.6665  -31.1624 H   0  0  0  0  0  0  0  0  0  0  0  0
    1.1441   19.4743  -29.4553 H   0  0  0  0  0  0  0  0  0  0  0  0
    0.9787   21.1361  -30.1838 H   0  0  0  0  0  0  0  0  0  0  0  0
    2.1353   18.6536  -31.3214 H   0  0  0  0  0  0  0  0  0  0  0  0
    2.4270   20.4200  -31.7039 H   0  0  0  0  0  0  0  0  0  0  0  0
    1.5960   19.0420  -33.4580 H   0  0  0  0  0  0  0  0  0  0  0  0
    1.0915   21.5106  -32.8992 H   0  0  0  0  0  0  0  0  0  0  0  0
   -1.2891   21.2950  -32.5111 H   0  0  0  0  0  0  0  0  0  0  0  0
   -1.0487   22.1604  -34.0667 H   0  0  0  0  0  0  0  0  0  0  0  0
   -1.5197   20.4270  -34.0667 H   0  0  0  0  0  0  0  0  0  0  0  0
    2.1989   21.1548  -34.9273 H   0  0  0  0  0  0  0  0  0  0  0  0
    0.9846   19.9657  -35.5090 H   0  0  0  0  0  0  0  0  0  0  0  0
    0.5960   21.7195  -35.5090 H   0  0  0  0  0  0  0  0  0  0  0  0
    0.3258   17.4770  -32.7012 H   0  0  0  0  0  0  0  0  0  0  0  0
   -0.8707   18.6367  -33.4768 H   0  0  0  0  0  0  0  0  0  0  0  0
   -0.7103   17.6854  -30.7176 H   0  0  0  0  0  0  0  0  0  0  0  0
   -2.0320   18.5617  -31.6160 H   0  0  0  0  0  0  0  0  0  0  0  0
   -3.9964   23.9791  -27.3383 H   0  0  0  0  0  0  0  0  0  0  0  0
   -3.0670   25.4552  -25.5633 H   0  0  0  0  0  0  0  0  0  0  0  0
  1  2  1  0
  2  3  1  0
  3  4  2  0
  4  5  1  0
  5  6  2  0
  6  7  1  0
  7  8  1  0
  8  9  1  0
  9 10  2  0
 10 11  1  0
 11 12  2  0
 12 13  1  0
 13 14  1  0
 13 15  1  0
 15 16  2  0
 15 17  2  0
 15 18  1  0
 18 19  2  0
 19 20  1  0
 20 21  2  0
 21 22  1  0
 22 23  1  0
 22 24  2  0
 12 25  1  0
 25 26  2  0
 26 27  1  0
 27 28  1  0
 28 29  2  0
 28 30  1  0
 30 31  1  0
 31 32  1  0
 32 33  1  0
 33 34  1  0
 34 35  1  0
 35 36  1  0
 35 37  1  0
 34 38  1  0
 38 39  1  0
  6 40  1  0
 40 41  2  0
 41  3  1  0
 27  7  2  0
 39 31  1  0
 26  9  1  0
 24 18  1  0
  1 42  1  0
  1 43  1  0
  1 44  1  0
  4 45  1  0
  5 46  1  0
 10 47  1  0
 11 48  1  0
 14 49  1  0
 14 50  1  0
 14 51  1  0
 19 52  1  0
 20 53  1  0
 21 54  1  0
 24 55  1  0
 25 56  1  0
 31 57  1  6
 32 58  1  0
 32 59  1  0
 33 60  1  0
 33 61  1  0
 34 62  1  6
 35 63  1  0
 36 64  1  0
 36 65  1  0
 36 66  1  0
 37 67  1  0
 37 68  1  0
 37 69  1  0
 38 70  1  0
 38 71  1  0
 39 72  1  0
 39 73  1  0
 40 74  1  0
 41 75  1  0
M  CHG  2  30  -1  34   1
M  END
>  <UniqueID>  (49) 
46

>  <SMILES>  (49) 
COc1ccc(-c2oc3ccc(N(C)S(=O)(=O)c4cccc(Cl)c4)cc3c2C(=O)[N-]C2CC[NH+](C(C)C)CC2)cc1

>  <Energy>  (49) 
151.15066155138396

>  <Genealogy>  (49) 
COc1ccc(-c2oc3ccc(N(C)S(=O)(=O)c4cccc(Cl)c4)cc3c2C(=O)[N-]C2CC[NH+](C(C)C)CC2)cc1 (protonated)
COc1ccc(-c2oc3ccc(N(C)S(=O)(=O)c4cccc(Cl)c4)cc3c2C(=O)[N-]C2CC[NH+](C(C)C)CC2)cc1 (3D coordinates assigned)
COc1ccc(-c2oc3ccc(N(C)S(=O)(=O)c4cccc(Cl)c4)cc3c2C(=O)[N-]C2CC[NH+](C(C)C)CC2)cc1 (nonaromatic ring conformer: 151.15066155138396 kcal/mol)

>  <smiles>  (49) 
COc1ccc(-c2oc3ccc(N(C)S(=O)(=O)c4cccc(Cl)c4)cc3c2C(=O)NC2CCN(C(C)C)CC2)cc1

>  <score_type>  (49) 
oracle

>  <origin>  (49) 
adgpu

>  <m_score__min__energy>  (49) 
-10.02

>  <m_primary>  (49) 
energy

$$$$
