0:0
     RDKit          3D

 37 39  0  0  0  0  0  0  0  0999 V2000
   -5.3260   20.3460  -32.9170 C   0  0  0  0  0  0  0  0  0  0  0  0
   -6.7430   20.6470  -32.4870 C   0  0  0  0  0  0  0  0  0  0  0  0
   -7.6830   19.6030  -32.3170 C   0  0  0  0  0  0  0  0  0  0  0  0
   -7.2910   17.9170  -32.6440 Cl  0  0  0  0  0  0  0  0  0  0  0  0
   -8.9800   19.8920  -31.8840 C   0  0  0  0  0  0  0  0  0  0  0  0
   -9.3640   21.2070  -31.6320 C   0  0  0  0  0  0  0  0  0  0  0  0
   -8.4590   22.2490  -31.8250 C   0  0  0  0  0  0  0  0  0  0  0  0
   -7.1490   21.9890  -32.2660 C   0  0  0  0  0  0  0  0  0  0  0  0
   -6.2370   23.0830  -32.5050 N   0  0  0  0  0  0  0  0  0  0  0  0
   -6.1910   24.2900  -31.6780 C   0  0  0  0  0  0  0  0  0  0  0  0
   -5.2940   24.0740  -30.4970 C   0  0  0  0  0  0  0  0  0  0  0  0
   -5.6380   23.4110  -29.3370 C   0  0  0  0  0  0  0  0  0  0  0  0
   -4.5030   23.3890  -28.5530 C   0  0  0  0  0  0  0  0  0  0  0  0
   -3.5110   24.0420  -29.2720 C   0  0  0  0  0  0  0  0  0  0  0  0
   -2.1080   24.2470  -28.8310 C   0  0  0  0  0  0  0  0  0  0  0  0
   -1.7490   25.3890  -28.0930 C   0  0  0  0  0  0  0  0  0  0  0  0
   -0.4240   25.5640  -27.6890 C   0  0  0  0  0  0  0  0  0  0  0  0
    0.5160   24.6350  -28.0050 N   0  0  0  0  0  0  0  0  0  0  0  0
    0.2030   23.5220  -28.7160 C   0  0  0  0  0  0  0  0  0  0  0  0
   -1.1100   23.3050  -29.1400 C   0  0  0  0  0  0  0  0  0  0  0  0
   -4.0040   24.4560  -30.4590 N   0  0  0  0  0  0  0  0  0  0  0  0
   -4.6935   20.2116  -32.0271 H   0  0  0  0  0  0  0  0  0  0  0  0
   -5.3131   19.4251  -33.5184 H   0  0  0  0  0  0  0  0  0  0  0  0
   -4.9399   21.1822  -33.5184 H   0  0  0  0  0  0  0  0  0  0  0  0
   -9.7027   19.0752  -31.7412 H   0  0  0  0  0  0  0  0  0  0  0  0
  -10.3835   21.4234  -31.2800 H   0  0  0  0  0  0  0  0  0  0  0  0
   -8.7724   23.2853  -31.6305 H   0  0  0  0  0  0  0  0  0  0  0  0
   -5.5220   22.9980  -33.2610 H   0  0  0  0  0  0  0  0  0  0  0  0
   -5.8060   25.1274  -32.2784 H   0  0  0  0  0  0  0  0  0  0  0  0
   -7.2058   24.5194  -31.3209 H   0  0  0  0  0  0  0  0  0  0  0  0
   -6.6209   22.9850  -29.0871 H   0  0  0  0  0  0  0  0  0  0  0  0
   -4.4034   22.9413  -27.5532 H   0  0  0  0  0  0  0  0  0  0  0  0
   -2.5089   26.1413  -27.8351 H   0  0  0  0  0  0  0  0  0  0  0  0
   -0.1401   26.4570  -27.1129 H   0  0  0  0  0  0  0  0  0  0  0  0
    0.9859   22.7885  -28.9591 H   0  0  0  0  0  0  0  0  0  0  0  0
   -1.3627   22.4009  -29.7134 H   0  0  0  0  0  0  0  0  0  0  0  0
   -3.4890   24.9420  -31.2250 H   0  0  0  0  0  0  0  0  0  0  0  0
  1  2  1  0
  2  3  2  0
  3  4  1  0
  3  5  1  0
  5  6  2  0
  6  7  1  0
  7  8  2  0
  8  9  1  0
  9 10  1  0
 10 11  1  0
 11 12  2  0
 12 13  1  0
 13 14  2  0
 14 15  1  0
 15 16  2  0
 16 17  1  0
 17 18  2  0
 18 19  1  0
 19 20  2  0
 14 21  1  0
  8  2  1  0
 21 11  1  0
 20 15  1  0
  1 22  1  0
  1 23  1  0
  1 24  1  0
  5 25  1  0
  6 26  1  0
  7 27  1  0
  9 28  1  0
 10 29  1  0
 10 30  1  0
 12 31  1  0
 13 32  1  0
 16 33  1  0
 17 34  1  0
 19 35  1  0
 20 36  1  0
 21 37  1  0
M  END
>  <UniqueID>  (1) 
1

>  <SMILES>  (1) 
Cc1c(Cl)cccc1NCc1ccc(-c2ccncc2)[nH]1

>  <Energy>  (1) 
70.03548428355553

>  <Genealogy>  (1) 
Cc1c(Cl)cccc1NCc1ccc(-c2ccncc2)[nH]1 (3D coordinates assigned)
Cc1c(Cl)cccc1NCc1ccc(-c2ccncc2)[nH]1 (optimized conformer: 70.03548428355553 kcal/mol)

>  <smiles>  (1) 
Cc1c(Cl)cccc1NCc1ccc(-c2ccncc2)[nH]1

>  <score_type>  (1) 
oracle

>  <origin>  (1) 
adgpu

>  <m_score__min__energy>  (1) 
-8.8000000000000007

>  <m_primary>  (1) 
energy

$$$$
1:0
     RDKit          3D

 48 50  0  0  1  0  0  0  0  0999 V2000
   -0.4490   28.2370  -27.1140 C   0  0  0  0  0  0  0  0  0  0  0  0
   -0.7150   26.7950  -27.4660 C   0  0  0  0  0  0  0  0  0  0  0  0
   -1.2030   26.5980  -28.5990 O   0  0  0  0  0  0  0  0  0  0  0  0
   -0.4160   25.7650  -26.5460 N   0  0  0  0  0  0  0  0  0  0  0  0
   -0.6150   24.3860  -26.7510 C   0  0  0  0  0  0  0  0  0  0  0  0
    0.0630   23.3760  -26.1170 C   0  0  0  0  0  0  0  0  0  0  0  0
   -0.1920   22.0230  -26.3730 C   0  0  0  0  0  0  0  0  0  0  0  0
   -1.1500   21.6600  -27.2900 C   0  0  0  0  0  0  0  0  0  0  0  0
   -1.8260   22.6810  -27.9230 C   0  0  0  0  0  0  0  0  0  0  0  0
   -2.8270   22.3620  -28.8790 N   0  0  0  0  0  0  0  0  0  0  0  0
   -2.4270   21.9840  -30.0490 C   0  0  0  0  0  0  0  0  0  0  0  0
   -1.1220   21.8880  -30.3750 N   0  0  0  0  0  0  0  0  0  0  0  0
   -0.7640   21.4840  -31.6260 C   0  0  0  0  0  0  0  0  0  0  0  0
   -1.7020   21.1680  -32.5730 C   0  0  0  0  0  0  0  0  0  0  0  0
   -1.2960   20.6450  -34.1940 Cl  0  0  0  0  0  0  0  0  0  0  0  0
   -3.0410   21.2720  -32.2240 C   0  0  0  0  0  0  0  0  0  0  0  0
   -3.9680   20.9950  -33.0540 N   0  0  0  0  0  0  0  0  0  0  0  0
   -5.3500   21.0810  -32.7550 C   0  0  0  0  0  0  0  0  0  0  0  0
   -6.2170   20.0000  -32.9110 C   0  0  0  0  0  0  0  0  0  0  0  0
   -7.5590   20.0840  -32.6200 C   0  0  0  0  0  0  0  0  0  0  0  0
   -8.1030   21.2570  -32.1570 C   0  0  0  0  0  0  0  0  0  0  0  0
   -7.2620   22.3480  -31.9920 C   0  0  0  0  0  0  0  0  0  0  0  0
   -5.9250   22.2450  -32.2870 C   0  0  0  0  0  0  0  0  0  0  0  0
   -5.1300   23.3820  -32.0990 O   0  0  0  0  0  0  0  0  0  0  0  0
   -5.0960   24.1980  -30.6070 S   0  0  0  0  0  0  0  0  0  0  0  0
   -6.4870   25.2890  -30.4380 C   0  0  0  0  0  0  0  0  0  0  0  0
   -5.1870   23.1960  -29.4900 O   0  0  0  0  0  0  0  0  0  0  0  0
   -3.8550   24.9960  -30.4220 O   0  0  0  0  0  0  0  0  0  0  0  0
   -3.3540   21.6720  -30.9860 N   0  0  0  0  0  0  0  0  0  0  0  0
   -1.5750   24.0100  -27.6690 C   0  0  0  0  0  0  0  0  0  0  0  0
   -0.4282   28.3496  -26.0200 H   0  0  0  0  0  0  0  0  0  0  0  0
    0.5209   28.5437  -27.5326 H   0  0  0  0  0  0  0  0  0  0  0  0
   -1.2456   28.8696  -27.5326 H   0  0  0  0  0  0  0  0  0  0  0  0
   -0.0030   26.0970  -25.6220 H   0  0  0  0  0  0  0  0  0  0  0  0
    0.8360   23.6387  -25.3798 H   0  0  0  0  0  0  0  0  0  0  0  0
    0.3763   21.2477  -25.8384 H   0  0  0  0  0  0  0  0  0  0  0  0
   -1.3669   20.6039  -27.5084 H   0  0  0  0  0  0  0  0  0  0  0  0
   -0.4020   22.1280  -29.6570 H   0  0  0  0  0  0  0  0  0  0  0  0
    0.3033   21.4098  -31.8815 H   0  0  0  0  0  0  0  0  0  0  0  0
   -5.8133   19.0456  -33.2801 H   0  0  0  0  0  0  0  0  0  0  0  0
   -8.2027   19.2030  -32.7595 H   0  0  0  0  0  0  0  0  0  0  0  0
   -9.1755   21.3294  -31.9235 H   0  0  0  0  0  0  0  0  0  0  0  0
   -7.6687   23.3010  -31.6227 H   0  0  0  0  0  0  0  0  0  0  0  0
   -6.6965   25.4533  -29.3707 H   0  0  0  0  0  0  0  0  0  0  0  0
   -6.2587   26.2514  -30.9193 H   0  0  0  0  0  0  0  0  0  0  0  0
   -7.3673   24.8380  -30.9193 H   0  0  0  0  0  0  0  0  0  0  0  0
   -4.3450   21.7510  -30.7190 H   0  0  0  0  0  0  0  0  0  0  0  0
   -2.1466   24.7825  -28.2043 H   0  0  0  0  0  0  0  0  0  0  0  0
  1  2  1  0
  2  3  2  0
  2  4  1  0
  4  5  1  0
  5  6  2  0
  6  7  1  0
  7  8  2  0
  8  9  1  0
  9 10  1  0
 10 11  2  0
 11 12  1  0
 12 13  1  0
 13 14  2  0
 14 15  1  0
 14 16  1  0
 16 17  2  0
 17 18  1  0
 18 19  2  0
 19 20  1  0
 20 21  2  0
 21 22  1  0
 22 23  2  0
 23 24  1  0
 24 25  1  0
 25 26  1  0
 25 27  2  0
 25 28  2  0
 16 29  1  0
  9 30  2  0
 30  5  1  0
 29 11  1  0
 23 18  1  0
  1 31  1  0
  1 32  1  0
  1 33  1  0
  4 34  1  0
  6 35  1  0
  7 36  1  0
  8 37  1  0
 12 38  1  0
 13 39  1  0
 19 40  1  0
 20 41  1  0
 21 42  1  0
 22 43  1  0
 26 44  1  0
 26 45  1  0
 26 46  1  0
 29 47  1  0
 30 48  1  0
M  END
>  <smiles>  (2) 
CC(=O)Nc1cccc(N=c2[nH]cc(Cl)c(=Nc3ccccc3OS(C)(=O)=O)[nH]2)c1

>  <score_type>  (2) 
oracle

>  <origin>  (2) 
adgpu

>  <m_score__min__energy>  (2) 
-9.4399999999999995

>  <m_primary>  (2) 
energy

$$$$
2:0
     RDKit          3D

 40 43  0  0  0  0  0  0  0  0999 V2000
   -0.1280   23.0840  -24.2610 C   0  0  0  0  0  0  0  0  0  0  0  0
   -0.3320   22.3470  -25.4620 O   0  0  0  0  0  0  0  0  0  0  0  0
   -1.2000   22.7380  -26.4920 C   0  0  0  0  0  0  0  0  0  0  0  0
   -1.5520   24.0820  -26.7150 C   0  0  0  0  0  0  0  0  0  0  0  0
   -2.4220   24.4210  -27.7560 C   0  0  0  0  0  0  0  0  0  0  0  0
   -2.9530   23.4260  -28.5900 C   0  0  0  0  0  0  0  0  0  0  0  0
   -3.8710   23.7910  -29.6870 C   0  0  0  0  0  0  0  0  0  0  0  0
   -3.9020   24.9960  -30.2890 N   0  0  0  0  0  0  0  0  0  0  0  0
   -4.8460   24.9280  -31.2150 N   0  0  0  0  0  0  0  0  0  0  0  0
   -5.3570   23.6850  -31.1380 C   0  0  0  0  0  0  0  0  0  0  0  0
   -6.4330   23.1610  -32.0300 C   0  0  0  0  0  0  0  0  0  0  0  0
   -6.1980   21.7440  -32.3120 N   0  0  0  0  0  0  0  0  0  0  0  0
   -5.0850   21.1680  -32.8420 C   0  0  0  0  0  0  0  0  0  0  0  0
   -3.8300   21.9120  -33.1700 C   0  0  0  0  0  0  0  0  0  0  0  0
   -5.2190   19.8320  -33.0600 N   0  0  0  0  0  0  0  0  0  0  0  0
   -6.4780   19.5850  -32.6540 C   0  0  0  0  0  0  0  0  0  0  0  0
   -7.1510   18.3650  -32.6770 C   0  0  0  0  0  0  0  0  0  0  0  0
   -8.4840   18.3450  -32.2260 C   0  0  0  0  0  0  0  0  0  0  0  0
   -9.1050   19.5320  -31.7740 C   0  0  0  0  0  0  0  0  0  0  0  0
   -8.3980   20.7490  -31.7650 C   0  0  0  0  0  0  0  0  0  0  0  0
   -7.0740   20.7300  -32.2130 C   0  0  0  0  0  0  0  0  0  0  0  0
   -4.7620   22.9800  -30.2070 O   0  0  0  0  0  0  0  0  0  0  0  0
   -2.6010   22.0850  -28.3670 C   0  0  0  0  0  0  0  0  0  0  0  0
   -1.7310   21.7470  -27.3270 C   0  0  0  0  0  0  0  0  0  0  0  0
   -0.3088   22.4307  -23.3947 H   0  0  0  0  0  0  0  0  0  0  0  0
    0.9068   23.4558  -24.2302 H   0  0  0  0  0  0  0  0  0  0  0  0
   -0.8244   23.9349  -24.2302 H   0  0  0  0  0  0  0  0  0  0  0  0
   -1.1407   24.8701  -26.0671 H   0  0  0  0  0  0  0  0  0  0  0  0
   -2.6916   25.4745  -27.9219 H   0  0  0  0  0  0  0  0  0  0  0  0
   -7.4077   23.2777  -31.5336 H   0  0  0  0  0  0  0  0  0  0  0  0
   -6.4278   23.7247  -32.9746 H   0  0  0  0  0  0  0  0  0  0  0  0
   -3.3266   22.2104  -32.2386 H   0  0  0  0  0  0  0  0  0  0  0  0
   -3.1621   21.2638  -33.7563 H   0  0  0  0  0  0  0  0  0  0  0  0
   -4.0781   22.8090  -33.7563 H   0  0  0  0  0  0  0  0  0  0  0  0
   -6.6576   17.4495  -33.0352 H   0  0  0  0  0  0  0  0  0  0  0  0
   -9.0464   17.3996  -32.2252 H   0  0  0  0  0  0  0  0  0  0  0  0
  -10.1484   19.5042  -31.4268 H   0  0  0  0  0  0  0  0  0  0  0  0
   -8.8697   21.6803  -31.4184 H   0  0  0  0  0  0  0  0  0  0  0  0
   -3.0123   21.2965  -29.0144 H   0  0  0  0  0  0  0  0  0  0  0  0
   -1.4609   20.6934  -27.1628 H   0  0  0  0  0  0  0  0  0  0  0  0
  1  2  1  0
  2  3  1  0
  3  4  2  0
  4  5  1  0
  5  6  2  0
  6  7  1  0
  7  8  2  0
  8  9  1  0
  9 10  2  0
 10 11  1  0
 11 12  1  0
 12 13  1  0
 13 14  1  0
 13 15  2  0
 15 16  1  0
 16 17  2  0
 17 18  1  0
 18 19  2  0
 19 20  1  0
 20 21  2  0
 10 22  1  0
  6 23  1  0
 23 24  2  0
 24  3  1  0
 22  7  1  0
 21 12  1  0
 21 16  1  0
  1 25  1  0
  1 26  1  0
  1 27  1  0
  4 28  1  0
  5 29  1  0
 11 30  1  0
 11 31  1  0
 14 32  1  0
 14 33  1  0
 14 34  1  0
 17 35  1  0
 18 36  1  0
 19 37  1  0
 20 38  1  0
 23 39  1  0
 24 40  1  0
M  END
>  <UniqueID>  (3) 
2

>  <SMILES>  (3) 
COc1ccc(-c2nnc(Cn3c(C)nc4ccccc43)o2)cc1

>  <Energy>  (3) 
112.41627806785743

>  <Genealogy>  (3) 
COc1ccc(-c2nnc(Cn3c(C)nc4ccccc43)o2)cc1 (3D coordinates assigned)
COc1ccc(-c2nnc(Cn3c(C)nc4ccccc43)o2)cc1 (optimized conformer: 112.41627806785743 kcal/mol)

>  <smiles>  (3) 
COc1ccc(-c2nnc(Cn3c(C)nc4ccccc43)o2)cc1

>  <score_type>  (3) 
oracle

>  <origin>  (3) 
adgpu

>  <m_score__min__energy>  (3) 
-8.2699999999999996

>  <m_primary>  (3) 
energy

$$$$
3:0
     RDKit          3D

 51 54  0  0  0  0  0  0  0  0999 V2000
   -2.5240   23.9100  -27.6530 C   0  0  0  0  0  0  0  0  0  0  0  0
   -2.3090   23.1920  -28.9500 C   0  0  0  0  0  0  0  0  0  0  0  0
   -2.7360   23.6180  -30.1920 C   0  0  0  0  0  0  0  0  0  0  0  0
   -3.5050   24.7880  -30.4720 N   0  0  0  0  0  0  0  0  0  0  0  0
   -5.1940   24.9070  -30.0930 S   0  0  0  0  0  0  0  0  0  0  0  0
   -5.3710   24.8530  -28.6010 O   0  0  0  0  0  0  0  0  0  0  0  0
   -5.7090   26.2250  -30.5980 O   0  0  0  0  0  0  0  0  0  0  0  0
   -6.1180   23.5900  -30.8200 C   0  0  0  0  0  0  0  0  0  0  0  0
   -7.3840   23.8230  -31.3740 C   0  0  0  0  0  0  0  0  0  0  0  0
   -8.0840   22.7820  -31.9850 C   0  0  0  0  0  0  0  0  0  0  0  0
   -7.5210   21.5050  -32.0590 C   0  0  0  0  0  0  0  0  0  0  0  0
   -6.2580   21.2510  -31.5030 C   0  0  0  0  0  0  0  0  0  0  0  0
   -5.6560   19.9560  -31.6930 N   0  0  0  0  0  0  0  0  0  0  0  0
   -5.4020   19.3660  -32.9760 C   0  0  0  0  0  0  0  0  0  0  0  0
   -4.9790   20.0780  -33.9240 O   0  0  0  0  0  0  0  0  0  0  0  0
   -5.6090   17.9230  -33.1930 C   0  0  0  0  0  0  0  0  0  0  0  0
   -6.7140   17.3280  -33.7940 C   0  0  0  0  0  0  0  0  0  0  0  0
   -6.5950   15.9380  -33.9160 C   0  0  0  0  0  0  0  0  0  0  0  0
   -5.4030   15.4330  -33.4130 C   0  0  0  0  0  0  0  0  0  0  0  0
   -4.4940   16.7200  -32.8250 S   0  0  0  0  0  0  0  0  0  0  0  0
   -5.5690   22.3010  -30.8680 C   0  0  0  0  0  0  0  0  0  0  0  0
   -2.4490   22.5800  -31.0480 C   0  0  0  0  0  0  0  0  0  0  0  0
   -2.6860   22.5560  -32.2850 O   0  0  0  0  0  0  0  0  0  0  0  0
   -1.8730   21.5740  -30.3560 N   0  0  0  0  0  0  0  0  0  0  0  0
   -1.4630   20.3040  -30.8960 C   0  0  0  0  0  0  0  0  0  0  0  0
   -0.3490   19.6340  -30.3620 C   0  0  0  0  0  0  0  0  0  0  0  0
    0.0660   18.4140  -30.9030 C   0  0  0  0  0  0  0  0  0  0  0  0
   -0.6370   17.8460  -31.9690 C   0  0  0  0  0  0  0  0  0  0  0  0
   -1.7600   18.4940  -32.4890 C   0  0  0  0  0  0  0  0  0  0  0  0
   -2.1750   19.7180  -31.9550 C   0  0  0  0  0  0  0  0  0  0  0  0
   -1.8080   21.9370  -29.0750 N   0  0  0  0  0  0  0  0  0  0  0  0
   -1.3060   21.1070  -27.9760 C   0  0  0  0  0  0  0  0  0  0  0  0
   -2.3190   23.2255  -26.8166 H   0  0  0  0  0  0  0  0  0  0  0  0
   -1.8450   24.7735  -27.5950 H   0  0  0  0  0  0  0  0  0  0  0  0
   -3.5658   24.2582  -27.5950 H   0  0  0  0  0  0  0  0  0  0  0  0
   -7.8269   24.8288  -31.3271 H   0  0  0  0  0  0  0  0  0  0  0  0
   -9.0817   22.9670  -32.4096 H   0  0  0  0  0  0  0  0  0  0  0  0
   -8.0719   20.6933  -32.5566 H   0  0  0  0  0  0  0  0  0  0  0  0
   -5.4630   19.3770  -30.8440 H   0  0  0  0  0  0  0  0  0  0  0  0
   -7.5928   17.8928  -34.1387 H   0  0  0  0  0  0  0  0  0  0  0  0
   -7.3730   15.3052  -34.3680 H   0  0  0  0  0  0  0  0  0  0  0  0
   -5.1050   14.3742  -33.4012 H   0  0  0  0  0  0  0  0  0  0  0  0
   -4.5901   22.1084  -30.4048 H   0  0  0  0  0  0  0  0  0  0  0  0
    0.1988   20.0717  -29.5145 H   0  0  0  0  0  0  0  0  0  0  0  0
    0.9465   17.9005  -30.4895 H   0  0  0  0  0  0  0  0  0  0  0  0
   -0.3061   16.8889  -32.3985 H   0  0  0  0  0  0  0  0  0  0  0  0
   -2.3192   18.0403  -33.3205 H   0  0  0  0  0  0  0  0  0  0  0  0
   -3.0617   20.2232  -32.3657 H   0  0  0  0  0  0  0  0  0  0  0  0
   -1.5828   21.5647  -27.0148 H   0  0  0  0  0  0  0  0  0  0  0  0
   -1.7477   20.1019  -28.0442 H   0  0  0  0  0  0  0  0  0  0  0  0
   -0.2107   21.0315  -28.0442 H   0  0  0  0  0  0  0  0  0  0  0  0
  1  2  1  0
  2  3  2  0
  3  4  1  0
  4  5  1  0
  5  6  2  0
  5  7  2  0
  5  8  1  0
  8  9  2  0
  9 10  1  0
 10 11  2  0
 11 12  1  0
 12 13  1  0
 13 14  1  0
 14 15  2  0
 14 16  1  0
 16 17  2  0
 17 18  1  0
 18 19  2  0
 19 20  1  0
 12 21  2  0
  3 22  1  0
 22 23  2  0
 22 24  1  0
 24 25  1  0
 25 26  2  0
 26 27  1  0
 27 28  2  0
 28 29  1  0
 29 30  2  0
 24 31  1  0
 31 32  1  0
 31  2  1  0
 21  8  1  0
 30 25  1  0
 20 16  1  0
  1 33  1  0
  1 34  1  0
  1 35  1  0
  9 36  1  0
 10 37  1  0
 11 38  1  0
 13 39  1  0
 17 40  1  0
 18 41  1  0
 19 42  1  0
 21 43  1  0
 26 44  1  0
 27 45  1  0
 28 46  1  0
 29 47  1  0
 30 48  1  0
 32 49  1  0
 32 50  1  0
 32 51  1  0
M  CHG  1   4  -1
M  END
>  <UniqueID>  (4) 
3

>  <SMILES>  (4) 
Cc1c([N-]S(=O)(=O)c2cccc(NC(=O)c3cccs3)c2)c(=O)n(-c2ccccc2)n1C

>  <Energy>  (4) 
128.73292223337896

>  <Genealogy>  (4) 
Cc1c([N-]S(=O)(=O)c2cccc(NC(=O)c3cccs3)c2)c(=O)n(-c2ccccc2)n1C (protonated)
Cc1c([N-]S(=O)(=O)c2cccc(NC(=O)c3cccs3)c2)c(=O)n(-c2ccccc2)n1C (3D coordinates assigned)
Cc1c([N-]S(=O)(=O)c2cccc(NC(=O)c3cccs3)c2)c(=O)n(-c2ccccc2)n1C (optimized conformer: 128.73292223337896 kcal/mol)

>  <smiles>  (4) 
Cc1c(NS(=O)(=O)c2cccc(NC(=O)c3cccs3)c2)c(=O)n(-c2ccccc2)n1C

>  <score_type>  (4) 
oracle

>  <origin>  (4) 
adgpu

>  <m_score__min__energy>  (4) 
-10.890000000000001

>  <m_primary>  (4) 
energy

$$$$
4:0
     RDKit          3D

 29 31  0  0  0  0  0  0  0  0999 V2000
   -8.9750   18.1870  -31.7820 O   0  0  0  0  0  0  0  0  0  0  0  0
   -7.9970   18.4640  -32.5300 C   0  0  0  0  0  0  0  0  0  0  0  0
   -6.9810   17.4020  -32.7760 C   0  0  0  0  0  0  0  0  0  0  0  0
   -6.8590   16.7590  -34.0210 C   0  0  0  0  0  0  0  0  0  0  0  0
   -5.8930   15.7670  -34.2160 C   0  0  0  0  0  0  0  0  0  0  0  0
   -5.0310   15.4150  -33.1750 C   0  0  0  0  0  0  0  0  0  0  0  0
   -5.1290   16.0580  -31.9400 C   0  0  0  0  0  0  0  0  0  0  0  0
   -6.0940   17.0510  -31.7420 C   0  0  0  0  0  0  0  0  0  0  0  0
   -7.9360   19.7830  -33.1240 N   0  0  0  0  0  0  0  0  0  0  0  0
   -6.5980   20.3190  -33.1880 C   0  0  0  0  0  0  0  0  0  0  0  0
   -5.6590   19.7670  -33.8210 O   0  0  0  0  0  0  0  0  0  0  0  0
   -6.4820   21.5870  -32.4830 C   0  0  0  0  0  0  0  0  0  0  0  0
   -5.3900   22.4350  -32.2970 C   0  0  0  0  0  0  0  0  0  0  0  0
   -5.5850   23.6030  -31.5400 C   0  0  0  0  0  0  0  0  0  0  0  0
   -6.8530   23.8940  -30.9900 C   0  0  0  0  0  0  0  0  0  0  0  0
   -7.9350   23.0170  -31.1930 C   0  0  0  0  0  0  0  0  0  0  0  0
   -7.7100   21.8700  -31.9520 C   0  0  0  0  0  0  0  0  0  0  0  0
   -8.5990   20.7730  -32.3130 C   0  0  0  0  0  0  0  0  0  0  0  0
   -9.8170   20.7110  -31.9990 O   0  0  0  0  0  0  0  0  0  0  0  0
   -7.5287   17.0387  -34.8476 H   0  0  0  0  0  0  0  0  0  0  0  0
   -5.8119   15.2632  -35.1905 H   0  0  0  0  0  0  0  0  0  0  0  0
   -4.2748   14.6310  -33.3284 H   0  0  0  0  0  0  0  0  0  0  0  0
   -4.4468   15.7836  -31.1218 H   0  0  0  0  0  0  0  0  0  0  0  0
   -6.1599   17.5616  -30.7699 H   0  0  0  0  0  0  0  0  0  0  0  0
   -8.3530   19.7830  -34.0850 H   0  0  0  0  0  0  0  0  0  0  0  0
   -4.4070   22.1969  -32.7294 H   0  0  0  0  0  0  0  0  0  0  0  0
   -4.7455   24.2943  -31.3749 H   0  0  0  0  0  0  0  0  0  0  0  0
   -6.9957   24.8112  -30.3997 H   0  0  0  0  0  0  0  0  0  0  0  0
   -8.9262   23.2300  -30.7663 H   0  0  0  0  0  0  0  0  0  0  0  0
  1  2  2  0
  2  3  1  0
  3  4  2  0
  4  5  1  0
  5  6  2  0
  6  7  1  0
  7  8  2  0
  2  9  1  0
  9 10  1  0
 10 11  2  0
 10 12  1  0
 12 13  2  0
 13 14  1  0
 14 15  2  0
 15 16  1  0
 16 17  2  0
 17 18  1  0
 18 19  2  0
  8  3  1  0
 18  9  1  0
 17 12  1  0
  4 20  1  0
  5 21  1  0
  6 22  1  0
  7 23  1  0
  8 24  1  0
  9 25  1  0
 13 26  1  0
 14 27  1  0
 15 28  1  0
 16 29  1  0
M  CHG  1   9   1
M  END
>  <UniqueID>  (5) 
4

>  <SMILES>  (5) 
O=C(c1ccccc1)[NH+]1C(=O)c2ccccc2C1=O

>  <Energy>  (5) 
64.02698202502023

>  <Genealogy>  (5) 
O=C(c1ccccc1)[NH+]1C(=O)c2ccccc2C1=O (protonated)
O=C(c1ccccc1)[NH+]1C(=O)c2ccccc2C1=O (3D coordinates assigned)
O=C(c1ccccc1)[NH+]1C(=O)c2ccccc2C1=O (nonaromatic ring conformer: 64.02698202502023 kcal/mol)

>  <smiles>  (5) 
O=C(c1ccccc1)N1C(=O)c2ccccc2C1=O

>  <score_type>  (5) 
oracle

>  <origin>  (5) 
adgpu

>  <m_score__min__energy>  (5) 
-7.5899999999999999

>  <m_primary>  (5) 
energy

$$$$
5:0
     RDKit          3D

 37 39  0  0  0  0  0  0  0  0999 V2000
   -2.3470   19.5840  -26.9320 C   0  0  0  0  0  0  0  0  0  0  0  0
   -2.4080   20.9340  -27.5730 C   0  0  0  0  0  0  0  0  0  0  0  0
   -1.2960   21.4580  -28.2430 C   0  0  0  0  0  0  0  0  0  0  0  0
   -1.3740   22.6940  -28.8000 N   0  0  0  0  0  0  0  0  0  0  0  0
   -2.5100   23.4400  -28.7280 C   0  0  0  0  0  0  0  0  0  0  0  0
   -2.5360   24.7830  -29.3430 C   0  0  0  0  0  0  0  0  0  0  0  0
   -1.7060   25.6480  -28.9570 O   0  0  0  0  0  0  0  0  0  0  0  0
   -3.5010   25.1520  -30.3390 N   0  0  0  0  0  0  0  0  0  0  0  0
   -4.5550   24.3190  -30.8420 C   0  0  0  0  0  0  0  0  0  0  0  0
   -5.8800   24.7540  -30.7210 C   0  0  0  0  0  0  0  0  0  0  0  0
   -6.9300   23.9700  -31.2060 C   0  0  0  0  0  0  0  0  0  0  0  0
   -6.6700   22.7390  -31.8200 C   0  0  0  0  0  0  0  0  0  0  0  0
   -7.7500   21.9830  -32.3000 O   0  0  0  0  0  0  0  0  0  0  0  0
   -7.8300   20.5830  -32.2860 C   0  0  0  0  0  0  0  0  0  0  0  0
   -6.9120   19.8490  -33.0480 C   0  0  0  0  0  0  0  0  0  0  0  0
   -6.9690   18.4520  -33.0710 C   0  0  0  0  0  0  0  0  0  0  0  0
   -7.9530   17.7790  -32.3400 C   0  0  0  0  0  0  0  0  0  0  0  0
   -8.8850   18.5030  -31.5920 C   0  0  0  0  0  0  0  0  0  0  0  0
   -8.8310   19.9000  -31.5680 C   0  0  0  0  0  0  0  0  0  0  0  0
   -5.3380   22.3210  -31.9850 C   0  0  0  0  0  0  0  0  0  0  0  0
   -4.2880   23.1060  -31.5000 C   0  0  0  0  0  0  0  0  0  0  0  0
   -3.6140   22.9220  -28.0310 C   0  0  0  0  0  0  0  0  0  0  0  0
   -3.5350   21.6860  -27.4740 N   0  0  0  0  0  0  0  0  0  0  0  0
   -2.3521   19.6971  -25.8378 H   0  0  0  0  0  0  0  0  0  0  0  0
   -3.2192   18.9905  -27.2434 H   0  0  0  0  0  0  0  0  0  0  0  0
   -1.4248   19.0716  -27.2434 H   0  0  0  0  0  0  0  0  0  0  0  0
   -0.3671   20.8735  -28.3176 H   0  0  0  0  0  0  0  0  0  0  0  0
   -6.0961   25.7197  -30.2408 H   0  0  0  0  0  0  0  0  0  0  0  0
   -7.9672   24.3222  -31.1048 H   0  0  0  0  0  0  0  0  0  0  0  0
   -6.1418   20.3746  -33.6317 H   0  0  0  0  0  0  0  0  0  0  0  0
   -6.2392   17.8819  -33.6646 H   0  0  0  0  0  0  0  0  0  0  0  0
   -7.9933   16.6798  -32.3539 H   0  0  0  0  0  0  0  0  0  0  0  0
   -9.6621   17.9734  -31.0214 H   0  0  0  0  0  0  0  0  0  0  0  0
   -9.5726   20.4674  -30.9866 H   0  0  0  0  0  0  0  0  0  0  0  0
   -5.1211   21.3723  -32.4978 H   0  0  0  0  0  0  0  0  0  0  0  0
   -3.2482   22.7730  -31.6339 H   0  0  0  0  0  0  0  0  0  0  0  0
   -4.5366   23.5137  -27.9369 H   0  0  0  0  0  0  0  0  0  0  0  0
  1  2  1  0
  2  3  2  0
  3  4  1  0
  4  5  2  0
  5  6  1  0
  6  7  2  0
  6  8  1  0
  8  9  1  0
  9 10  2  0
 10 11  1  0
 11 12  2  0
 12 13  1  0
 13 14  1  0
 14 15  2  0
 15 16  1  0
 16 17  2  0
 17 18  1  0
 18 19  2  0
 12 20  1  0
 20 21  2  0
  5 22  1  0
 22 23  2  0
 23  2  1  0
 21  9  1  0
 19 14  1  0
  1 24  1  0
  1 25  1  0
  1 26  1  0
  3 27  1  0
 10 28  1  0
 11 29  1  0
 15 30  1  0
 16 31  1  0
 17 32  1  0
 18 33  1  0
 19 34  1  0
 20 35  1  0
 21 36  1  0
 22 37  1  0
M  CHG  1   8  -1
M  END
>  <UniqueID>  (6) 
5

>  <SMILES>  (6) 
Cc1cnc(C(=O)[N-]c2ccc(Oc3ccccc3)cc2)cn1

>  <Energy>  (6) 
53.015887420506886

>  <Genealogy>  (6) 
Cc1cnc(C(=O)[N-]c2ccc(Oc3ccccc3)cc2)cn1 (protonated)
Cc1cnc(C(=O)[N-]c2ccc(Oc3ccccc3)cc2)cn1 (3D coordinates assigned)
Cc1cnc(C(=O)[N-]c2ccc(Oc3ccccc3)cc2)cn1 (optimized conformer: 53.015887420506886 kcal/mol)

>  <smiles>  (6) 
Cc1cnc(C(=O)Nc2ccc(Oc3ccccc3)cc2)cn1

>  <score_type>  (6) 
oracle

>  <origin>  (6) 
adgpu

>  <m_score__min__energy>  (6) 
-10.01

>  <m_primary>  (6) 
energy

$$$$
6:0
     RDKit          3D

 39 42  0  0  0  0  0  0  0  0999 V2000
   -4.9860   24.7500  -31.5940 O   0  0  0  0  0  0  0  0  0  0  0  0
   -5.4560   24.0560  -30.3470 S   0  0  0  0  0  0  0  0  0  0  0  0
   -6.2220   25.0450  -29.5120 O   0  0  0  0  0  0  0  0  0  0  0  0
   -4.0840   23.4980  -29.3940 C   0  0  0  0  0  0  0  0  0  0  0  0
   -2.7720   23.8280  -29.7670 C   0  0  0  0  0  0  0  0  0  0  0  0
   -1.6880   23.3370  -29.0320 C   0  0  0  0  0  0  0  0  0  0  0  0
   -1.9090   22.5170  -27.9210 C   0  0  0  0  0  0  0  0  0  0  0  0
   -0.5500   21.8860  -27.0120 Cl  0  0  0  0  0  0  0  0  0  0  0  0
   -3.2170   22.1950  -27.5390 C   0  0  0  0  0  0  0  0  0  0  0  0
   -4.3020   22.6860  -28.2730 C   0  0  0  0  0  0  0  0  0  0  0  0
   -6.5010   22.6970  -30.8080 C   0  0  0  0  0  0  0  0  0  0  0  0
   -7.8800   22.8070  -30.5830 C   0  0  0  0  0  0  0  0  0  0  0  0
   -8.7190   21.7930  -30.9110 N   0  0  0  0  0  0  0  0  0  0  0  0
   -8.2710   20.6430  -31.4700 C   0  0  0  0  0  0  0  0  0  0  0  0
   -9.1580   19.6610  -31.7830 N   0  0  0  0  0  0  0  0  0  0  0  0
   -8.7640   18.4930  -32.3530 C   0  0  0  0  0  0  0  0  0  0  0  0
   -7.4170   18.2750  -32.6400 C   0  0  0  0  0  0  0  0  0  0  0  0
   -6.4790   19.2630  -32.3330 C   0  0  0  0  0  0  0  0  0  0  0  0
   -6.8930   20.4690  -31.7320 C   0  0  0  0  0  0  0  0  0  0  0  0
   -5.9940   21.5090  -31.3940 C   0  0  0  0  0  0  0  0  0  0  0  0
   -4.5410   21.3470  -31.6290 C   0  0  0  0  0  0  0  0  0  0  0  0
   -3.9490   21.8940  -32.7790 C   0  0  0  0  0  0  0  0  0  0  0  0
   -2.5830   21.7190  -33.0170 C   0  0  0  0  0  0  0  0  0  0  0  0
   -1.7980   21.0060  -32.1050 C   0  0  0  0  0  0  0  0  0  0  0  0
   -0.0890   20.7700  -32.4160 Cl  0  0  0  0  0  0  0  0  0  0  0  0
   -2.3790   20.4780  -30.9470 C   0  0  0  0  0  0  0  0  0  0  0  0
   -3.7460   20.6510  -30.7060 C   0  0  0  0  0  0  0  0  0  0  0  0
   -2.5957   24.4743  -30.6395 H   0  0  0  0  0  0  0  0  0  0  0  0
   -0.6608   23.5961  -29.3281 H   0  0  0  0  0  0  0  0  0  0  0  0
   -3.3916   21.5555  -26.6612 H   0  0  0  0  0  0  0  0  0  0  0  0
   -5.3288   22.4340  -27.9694 H   0  0  0  0  0  0  0  0  0  0  0  0
   -8.2864   23.7260  -30.1354 H   0  0  0  0  0  0  0  0  0  0  0  0
   -9.5083   17.7181  -32.5885 H   0  0  0  0  0  0  0  0  0  0  0  0
   -7.0955   17.3314  -33.1050 H   0  0  0  0  0  0  0  0  0  0  0  0
   -5.4152   19.0998  -32.5606 H   0  0  0  0  0  0  0  0  0  0  0  0
   -4.5621   22.4617  -33.4944 H   0  0  0  0  0  0  0  0  0  0  0  0
   -2.1246   22.1426  -33.9228 H   0  0  0  0  0  0  0  0  0  0  0  0
   -1.7597   19.9258  -30.2248 H   0  0  0  0  0  0  0  0  0  0  0  0
   -4.1985   20.2406  -29.7912 H   0  0  0  0  0  0  0  0  0  0  0  0
  1  2  2  0
  2  3  2  0
  2  4  1  0
  4  5  2  0
  5  6  1  0
  6  7  2  0
  7  8  1  0
  7  9  1  0
  9 10  2  0
  2 11  1  0
 11 12  2  0
 12 13  1  0
 13 14  2  0
 14 15  1  0
 15 16  2  0
 16 17  1  0
 17 18  2  0
 18 19  1  0
 19 20  2  0
 20 21  1  0
 21 22  2  0
 22 23  1  0
 23 24  2  0
 24 25  1  0
 24 26  1  0
 26 27  2  0
 10  4  1  0
 20 11  1  0
 27 21  1  0
 19 14  1  0
  5 28  1  0
  6 29  1  0
  9 30  1  0
 10 31  1  0
 12 32  1  0
 16 33  1  0
 17 34  1  0
 18 35  1  0
 22 36  1  0
 23 37  1  0
 26 38  1  0
 27 39  1  0
M  END
>  <UniqueID>  (7) 
6

>  <SMILES>  (7) 
O=S(=O)(c1ccc(Cl)cc1)c1cnc2ncccc2c1-c1ccc(Cl)cc1

>  <Energy>  (7) 
56.84804427249934

>  <Genealogy>  (7) 
O=S(=O)(c1ccc(Cl)cc1)c1cnc2ncccc2c1-c1ccc(Cl)cc1 (3D coordinates assigned)
O=S(=O)(c1ccc(Cl)cc1)c1cnc2ncccc2c1-c1ccc(Cl)cc1 (optimized conformer: 56.84804427249934 kcal/mol)

>  <smiles>  (7) 
O=S(=O)(c1ccc(Cl)cc1)c1cnc2ncccc2c1-c1ccc(Cl)cc1

>  <score_type>  (7) 
oracle

>  <origin>  (7) 
adgpu

>  <m_score__min__energy>  (7) 
-9.3100000000000005

>  <m_primary>  (7) 
energy

$$$$
7:0
     RDKit          3D

 31 33  0  0  0  0  0  0  0  0999 V2000
   -0.5260   26.2336  -27.3813 H   0  0  0  0  0  0  0  0  0  0  0  0
   -1.3920   25.6560  -27.7370 C   0  0  0  0  0  0  0  0  0  0  0  0
   -1.8520   25.6630  -28.9670 O   0  0  0  0  0  0  0  0  0  0  0  0
   -2.8890   24.8590  -29.0320 C   0  0  0  0  0  0  0  0  0  0  0  0
   -3.6780   24.6210  -30.2540 C   0  0  0  0  0  0  0  0  0  0  0  0
   -4.2210   25.5950  -30.8400 O   0  0  0  0  0  0  0  0  0  0  0  0
   -3.7710   23.3180  -30.8440 N   0  0  0  0  0  0  0  0  0  0  0  0
   -4.8700   22.6890  -31.1350 C   0  0  0  0  0  0  0  0  0  0  0  0
   -4.8670   21.4430  -31.6530 N   0  0  0  0  0  0  0  0  0  0  0  0
   -6.1250   20.9910  -31.9160 C   0  0  0  0  0  0  0  0  0  0  0  0
   -6.3380   19.6420  -32.4830 C   0  0  0  0  0  0  0  0  0  0  0  0
   -5.7010   19.2830  -33.6830 C   0  0  0  0  0  0  0  0  0  0  0  0
   -5.0599   20.0121  -34.2001 H   0  0  0  0  0  0  0  0  0  0  0  0
   -5.8760   18.0070  -34.2240 C   0  0  0  0  0  0  0  0  0  0  0  0
   -5.3813   17.7384  -35.1691 H   0  0  0  0  0  0  0  0  0  0  0  0
   -6.6800   17.0700  -33.5650 C   0  0  0  0  0  0  0  0  0  0  0  0
   -6.8970   15.4670  -34.2440 Cl  0  0  0  0  0  0  0  0  0  0  0  0
   -7.3000   17.4100  -32.3590 C   0  0  0  0  0  0  0  0  0  0  0  0
   -7.9260   16.6718  -31.8364 H   0  0  0  0  0  0  0  0  0  0  0  0
   -7.1260   18.6860  -31.8160 C   0  0  0  0  0  0  0  0  0  0  0  0
   -7.6079   18.9444  -30.8616 H   0  0  0  0  0  0  0  0  0  0  0  0
   -7.1420   21.9160  -31.6350 C   0  0  0  0  0  0  0  0  0  0  0  0
   -8.6120   21.7560  -31.8590 C   0  0  0  0  0  0  0  0  0  0  0  0
   -9.1268   21.7000  -30.8885 H   0  0  0  0  0  0  0  0  0  0  0  0
   -8.9924   22.6180  -32.4266 H   0  0  0  0  0  0  0  0  0  0  0  0
   -8.7980   20.8323  -32.4266 H   0  0  0  0  0  0  0  0  0  0  0  0
   -6.4340   23.3100  -31.0130 S   0  0  0  0  0  0  0  0  0  0  0  0
   -3.1300   24.3000  -27.7920 C   0  0  0  0  0  0  0  0  0  0  0  0
   -3.9288   23.5925  -27.5250 H   0  0  0  0  0  0  0  0  0  0  0  0
   -2.1590   24.8150  -26.9590 C   0  0  0  0  0  0  0  0  0  0  0  0
   -2.0237   24.5984  -25.8891 H   0  0  0  0  0  0  0  0  0  0  0  0
  1  2  1  0
  2  3  1  0
  3  4  1  0
  4  5  1  0
  5  6  2  0
  5  7  1  0
  7  8  2  0
  8  9  1  0
  9 10  1  0
 10 11  1  0
 11 12  2  0
 12 13  1  0
 12 14  1  0
 14 15  1  0
 14 16  2  0
 16 17  1  0
 16 18  1  0
 18 19  1  0
 18 20  2  0
 20 21  1  0
 10 22  2  0
 22 23  1  0
 23 24  1  0
 23 25  1  0
 23 26  1  0
 22 27  1  0
  4 28  2  0
 28 29  1  0
 28 30  1  0
 30 31  1  0
 30  2  2  0
 27  8  1  0
 20 11  1  0
M  CHG  1   9  -1
M  END
>  <UniqueID>  (8) 
7

>  <SMILES>  (8) 
Cc1s/c(=N\C(=O)c2ccco2)[n-]c1-c1ccc(Cl)cc1

>  <Energy>  (8) 
99.6927467577025

>  <Genealogy>  (8) 
Cc1sc(=NC(=O)c2ccco2)[n-]c1-c1ccc(Cl)cc1 (protonated)
Cc1s/c(=N\C(=O)c2ccco2)[n-]c1-c1ccc(Cl)cc1 (cis-trans isomerization)
Cc1s/c(=N\C(=O)c2ccco2)[n-]c1-c1ccc(Cl)cc1 (3D coordinates assigned)
Cc1s/c(=N\C(=O)c2ccco2)[n-]c1-c1ccc(Cl)cc1 (optimized conformer: 99.6927467577025 kcal/mol)

>  <smiles>  (8) 
Cc1sc(=NC(=O)c2ccco2)[nH]c1-c1ccc(Cl)cc1

>  <score_type>  (8) 
oracle

>  <origin>  (8) 
adgpu

>  <m_score__min__energy>  (8) 
-9.5099999999999998

>  <m_primary>  (8) 
energy

$$$$
8:0
     RDKit          3D

 23 24  0  0  0  0  0  0  0  0999 V2000
   -4.0330   25.2120  -30.7740 O   0  0  0  0  0  0  0  0  0  0  0  0
   -4.7620   24.3890  -30.1560 C   0  0  0  0  0  0  0  0  0  0  0  0
   -4.5730   24.1760  -28.7470 N   0  0  0  0  0  0  0  0  0  0  0  0
   -3.3750   24.5340  -28.0370 C   0  0  0  0  0  0  0  0  0  0  0  0
   -2.1470   24.5440  -28.7180 C   0  0  0  0  0  0  0  0  0  0  0  0
   -0.9730   24.9090  -28.0530 C   0  0  0  0  0  0  0  0  0  0  0  0
   -1.0160   25.2830  -26.7070 C   0  0  0  0  0  0  0  0  0  0  0  0
    0.1240   25.6400  -26.0660 F   0  0  0  0  0  0  0  0  0  0  0  0
   -2.2360   25.2980  -26.0270 C   0  0  0  0  0  0  0  0  0  0  0  0
   -3.4130   24.9310  -26.6880 C   0  0  0  0  0  0  0  0  0  0  0  0
   -5.8320   23.6910  -30.8900 C   0  0  0  0  0  0  0  0  0  0  0  0
   -7.2010   23.9290  -30.7960 C   0  0  0  0  0  0  0  0  0  0  0  0
   -7.9670   23.0860  -31.6110 C   0  0  0  0  0  0  0  0  0  0  0  0
   -7.2110   22.1820  -32.3450 C   0  0  0  0  0  0  0  0  0  0  0  0
   -5.5910   22.4300  -31.9790 S   0  0  0  0  0  0  0  0  0  0  0  0
   -5.3880   23.8380  -28.1860 H   0  0  0  0  0  0  0  0  0  0  0  0
   -2.1087   24.2630  -29.7808 H   0  0  0  0  0  0  0  0  0  0  0  0
   -0.0131   24.9019  -28.5902 H   0  0  0  0  0  0  0  0  0  0  0  0
   -2.2713   25.5990  -24.9696 H   0  0  0  0  0  0  0  0  0  0  0  0
   -4.3725   24.9530  -26.1505 H   0  0  0  0  0  0  0  0  0  0  0  0
   -7.6372   24.7021  -30.1464 H   0  0  0  0  0  0  0  0  0  0  0  0
   -9.0646   23.1355  -31.6645 H   0  0  0  0  0  0  0  0  0  0  0  0
   -7.6056   21.4319  -33.0461 H   0  0  0  0  0  0  0  0  0  0  0  0
  1  2  2  0
  2  3  1  0
  3  4  1  0
  4  5  2  0
  5  6  1  0
  6  7  2  0
  7  8  1  0
  7  9  1  0
  9 10  2  0
  2 11  1  0
 11 12  2  0
 12 13  1  0
 13 14  2  0
 14 15  1  0
 10  4  1  0
 15 11  1  0
  3 16  1  0
  5 17  1  0
  6 18  1  0
  9 19  1  0
 10 20  1  0
 12 21  1  0
 13 22  1  0
 14 23  1  0
M  END
>  <UniqueID>  (9) 
8

>  <SMILES>  (9) 
O=C(Nc1ccc(F)cc1)c1cccs1

>  <Energy>  (9) 
52.92734495286358

>  <Genealogy>  (9) 
O=C(Nc1ccc(F)cc1)c1cccs1 (3D coordinates assigned)
O=C(Nc1ccc(F)cc1)c1cccs1 (optimized conformer: 52.92734495286358 kcal/mol)

>  <smiles>  (9) 
O=C(Nc1ccc(F)cc1)c1cccs1

>  <score_type>  (9) 
oracle

>  <origin>  (9) 
adgpu

>  <m_score__min__energy>  (9) 
-6.1500000000000004

>  <m_primary>  (9) 
energy

$$$$
9:0
     RDKit          3D

 32 34  0  0  0  0  0  0  0  0999 V2000
   -9.2839   18.0482  -31.4144 H   0  0  0  0  0  0  0  0  0  0  0  0
   -8.4000   18.3780  -31.9800 C   0  0  0  0  0  0  0  0  0  0  0  0
   -7.6040   17.4380  -32.6360 C   0  0  0  0  0  0  0  0  0  0  0  0
   -7.8638   16.3700  -32.5919 H   0  0  0  0  0  0  0  0  0  0  0  0
   -6.4750   17.8550  -33.3500 C   0  0  0  0  0  0  0  0  0  0  0  0
   -5.4660   16.6740  -34.1650 Cl  0  0  0  0  0  0  0  0  0  0  0  0
   -6.1500   19.2150  -33.4120 C   0  0  0  0  0  0  0  0  0  0  0  0
   -5.2566   19.5384  -33.9664 H   0  0  0  0  0  0  0  0  0  0  0  0
   -6.9570   20.1700  -32.7710 C   0  0  0  0  0  0  0  0  0  0  0  0
   -6.5880   21.5590  -32.8290 N   0  0  0  0  0  0  0  0  0  0  0  0
   -5.8230   21.8400  -33.4830 H   0  0  0  0  0  0  0  0  0  0  0  0
   -7.2980   22.6040  -32.1450 C   0  0  0  0  0  0  0  0  0  0  0  0
   -8.5170   22.4580  -31.8660 O   0  0  0  0  0  0  0  0  0  0  0  0
   -6.6740   23.8670  -31.8730 N   0  0  0  0  0  0  0  0  0  0  0  0
   -5.5310   24.0550  -31.2830 C   0  0  0  0  0  0  0  0  0  0  0  0
   -5.0090   25.2860  -31.1050 N   0  0  0  0  0  0  0  0  0  0  0  0
   -3.8540   25.2770  -30.4410 N   0  0  0  0  0  0  0  0  0  0  0  0
   -3.4440   24.0400  -30.0730 C   0  0  0  0  0  0  0  0  0  0  0  0
   -2.1930   23.7810  -29.3250 C   0  0  0  0  0  0  0  0  0  0  0  0
   -1.6110   22.4990  -29.3090 C   0  0  0  0  0  0  0  0  0  0  0  0
   -2.0892   21.6748  -29.8585 H   0  0  0  0  0  0  0  0  0  0  0  0
   -0.4290   22.2670  -28.5990 C   0  0  0  0  0  0  0  0  0  0  0  0
    0.0191   21.2624  -28.5925 H   0  0  0  0  0  0  0  0  0  0  0  0
    0.1840   23.3080  -27.8980 C   0  0  0  0  0  0  0  0  0  0  0  0
    1.3590   23.0740  -27.1930 O   0  0  0  0  0  0  0  0  0  0  0  0
   -0.3840   24.5850  -27.9060 C   0  0  0  0  0  0  0  0  0  0  0  0
    0.0990   25.4049  -27.3542 H   0  0  0  0  0  0  0  0  0  0  0  0
   -1.5660   24.8210  -28.6150 C   0  0  0  0  0  0  0  0  0  0  0  0
   -2.0090   25.8279  -28.6175 H   0  0  0  0  0  0  0  0  0  0  0  0
   -4.5540   22.8700  -30.5800 S   0  0  0  0  0  0  0  0  0  0  0  0
   -8.0780   19.7380  -32.0390 C   0  0  0  0  0  0  0  0  0  0  0  0
   -8.7038   20.4726  -31.5110 H   0  0  0  0  0  0  0  0  0  0  0  0
  1  2  1  0
  2  3  2  0
  3  4  1  0
  3  5  1  0
  5  6  1  0
  5  7  2  0
  7  8  1  0
  7  9  1  0
  9 10  1  0
 10 11  1  0
 10 12  1  0
 12 13  2  0
 12 14  1  0
 14 15  2  0
 15 16  1  0
 16 17  1  0
 17 18  2  0
 18 19  1  0
 19 20  2  0
 20 21  1  0
 20 22  1  0
 22 23  1  0
 22 24  2  0
 24 25  1  0
 24 26  1  0
 26 27  1  0
 26 28  2  0
 28 29  1  0
 18 30  1  0
  9 31  2  0
 31 32  1  0
 31  2  1  0
 30 15  1  0
 28 19  1  0
M  CHG  2  16  -1  25  -1
M  END
>  <UniqueID>  (10) 
9

>  <SMILES>  (10) 
O=C(/N=c1/[n-]nc(-c2ccc([O-])cc2)s1)Nc1cccc(Cl)c1

>  <Energy>  (10) 
78.41663769885905

>  <Genealogy>  (10) 
O=C(N=c1[n-]nc(-c2ccc([O-])cc2)s1)Nc1cccc(Cl)c1 (protonated)
O=C(/N=c1/[n-]nc(-c2ccc([O-])cc2)s1)Nc1cccc(Cl)c1 (cis-trans isomerization)
O=C(/N=c1/[n-]nc(-c2ccc([O-])cc2)s1)Nc1cccc(Cl)c1 (3D coordinates assigned)
O=C(/N=c1/[n-]nc(-c2ccc([O-])cc2)s1)Nc1cccc(Cl)c1 (optimized conformer: 78.41663769885905 kcal/mol)

>  <smiles>  (10) 
O=C(N=c1[nH]nc(-c2ccc(O)cc2)s1)Nc1cccc(Cl)c1

>  <score_type>  (10) 
oracle

>  <origin>  (10) 
adgpu

>  <m_score__min__energy>  (10) 
-10.1

>  <m_primary>  (10) 
energy

$$$$
10:0
     RDKit          3D

 65 69  0  0  0  0  0  0  0  0999 V2000
   -0.6660   23.2960  -29.7250 C   0  0  0  0  0  0  0  0  0  0  0  0
   -0.8340   24.6480  -29.3070 O   0  0  0  0  0  0  0  0  0  0  0  0
   -1.3160   25.0480  -28.0500 C   0  0  0  0  0  0  0  0  0  0  0  0
   -0.6210   25.9710  -27.2450 C   0  0  0  0  0  0  0  0  0  0  0  0
   -1.1450   26.4110  -26.0050 C   0  0  0  0  0  0  0  0  0  0  0  0
   -0.4180   27.3690  -25.1710 N   0  0  0  0  0  0  0  0  0  0  0  0
    0.3530   26.8750  -24.0080 C   0  0  0  0  0  0  0  0  0  0  0  0
    1.0240   27.9870  -23.1940 C   0  0  0  0  0  0  0  0  0  0  0  0
    1.4920   29.0200  -24.0310 O   0  0  0  0  0  0  0  0  0  0  0  0
    0.3770   29.6820  -24.5810 C   0  0  0  0  0  0  0  0  0  0  0  0
   -0.3440   28.7860  -25.5890 C   0  0  0  0  0  0  0  0  0  0  0  0
   -2.3960   25.8920  -25.6020 C   0  0  0  0  0  0  0  0  0  0  0  0
   -3.0850   24.9730  -26.3940 C   0  0  0  0  0  0  0  0  0  0  0  0
   -2.5410   24.5240  -27.5980 C   0  0  0  0  0  0  0  0  0  0  0  0
   -3.2900   23.5910  -28.3900 N   0  0  0  0  0  0  0  0  0  0  0  0
   -4.1030   23.9120  -29.3520 C   0  0  0  0  0  0  0  0  0  0  0  0
   -4.8220   22.9370  -29.9660 N   0  0  0  0  0  0  0  0  0  0  0  0
   -5.6960   23.2210  -30.9690 C   0  0  0  0  0  0  0  0  0  0  0  0
   -6.5110   22.1340  -31.5620 C   0  0  0  0  0  0  0  0  0  0  0  0
   -7.9120   22.2360  -31.5500 C   0  0  0  0  0  0  0  0  0  0  0  0
   -8.6790   21.2860  -32.1460 N   0  0  0  0  0  0  0  0  0  0  0  0
   -8.1300   20.2130  -32.7690 C   0  0  0  0  0  0  0  0  0  0  0  0
   -6.7450   20.0570  -32.8050 C   0  0  0  0  0  0  0  0  0  0  0  0
   -5.9170   21.0100  -32.1930 C   0  0  0  0  0  0  0  0  0  0  0  0
   -4.4520   20.7850  -32.1940 C   0  0  0  0  0  0  0  0  0  0  0  0
   -3.7860   20.4150  -31.0140 C   0  0  0  0  0  0  0  0  0  0  0  0
   -2.4040   20.2310  -31.0150 C   0  0  0  0  0  0  0  0  0  0  0  0
   -1.6740   20.3980  -32.1940 C   0  0  0  0  0  0  0  0  0  0  0  0
   -2.3210   20.7410  -33.3920 C   0  0  0  0  0  0  0  0  0  0  0  0
   -1.5360   20.8910  -34.5900 N   0  0  0  0  0  0  0  0  0  0  0  0
    0.1370   21.3640  -34.6190 S   0  0  0  0  0  0  0  0  0  0  0  0
    1.1050   20.1280  -35.4690 C   0  0  0  0  0  0  0  0  0  0  0  0
    0.2640   22.6670  -35.3580 O   0  0  0  0  0  0  0  0  0  0  0  0
    0.6410   21.5580  -33.2160 O   0  0  0  0  0  0  0  0  0  0  0  0
   -3.7160   20.9360  -33.3810 C   0  0  0  0  0  0  0  0  0  0  0  0
   -5.8360   24.5480  -31.3980 C   0  0  0  0  0  0  0  0  0  0  0  0
   -5.0830   25.5370  -30.7700 C   0  0  0  0  0  0  0  0  0  0  0  0
   -4.2360   25.2040  -29.7610 N   0  0  0  0  0  0  0  0  0  0  0  0
   -0.5853   22.6463  -28.8411 H   0  0  0  0  0  0  0  0  0  0  0  0
   -1.5328   22.9883  -30.3283 H   0  0  0  0  0  0  0  0  0  0  0  0
    0.2498   23.2098  -30.3283 H   0  0  0  0  0  0  0  0  0  0  0  0
    0.3500   26.3587  -27.5867 H   0  0  0  0  0  0  0  0  0  0  0  0
   -0.3321   26.3254  -23.3457 H   0  0  0  0  0  0  0  0  0  0  0  0
    1.1573   26.2375  -24.4038 H   0  0  0  0  0  0  0  0  0  0  0  0
    0.2935   28.4031  -22.4847 H   0  0  0  0  0  0  0  0  0  0  0  0
    1.8830   27.5566  -22.6584 H   0  0  0  0  0  0  0  0  0  0  0  0
   -0.3195   29.9481  -23.7722 H   0  0  0  0  0  0  0  0  0  0  0  0
    0.7251   30.5873  -25.0999 H   0  0  0  0  0  0  0  0  0  0  0  0
   -1.3685   29.1642  -25.7207 H   0  0  0  0  0  0  0  0  0  0  0  0
    0.2357   28.8181  -26.5233 H   0  0  0  0  0  0  0  0  0  0  0  0
   -2.8342   26.2182  -24.6473 H   0  0  0  0  0  0  0  0  0  0  0  0
   -4.0662   24.5989  -26.0663 H   0  0  0  0  0  0  0  0  0  0  0  0
   -8.3922   23.0923  -31.0538 H   0  0  0  0  0  0  0  0  0  0  0  0
   -8.7791   19.4644  -33.2468 H   0  0  0  0  0  0  0  0  0  0  0  0
   -6.3019   19.1876  -33.3127 H   0  0  0  0  0  0  0  0  0  0  0  0
   -4.3572   20.2698  -30.0852 H   0  0  0  0  0  0  0  0  0  0  0  0
   -1.8870   19.9535  -30.0845 H   0  0  0  0  0  0  0  0  0  0  0  0
   -0.5828   20.2596  -32.1839 H   0  0  0  0  0  0  0  0  0  0  0  0
   -1.9980   20.7440  -35.5170 H   0  0  0  0  0  0  0  0  0  0  0  0
    1.6083   19.4854  -34.7316 H   0  0  0  0  0  0  0  0  0  0  0  0
    0.4445   19.5147  -36.0996 H   0  0  0  0  0  0  0  0  0  0  0  0
    1.8587   20.6223  -36.0996 H   0  0  0  0  0  0  0  0  0  0  0  0
   -4.2346   21.2094  -34.3118 H   0  0  0  0  0  0  0  0  0  0  0  0
   -6.5272   24.8033  -32.2148 H   0  0  0  0  0  0  0  0  0  0  0  0
   -5.1737   26.5855  -31.0901 H   0  0  0  0  0  0  0  0  0  0  0  0
  1  2  1  0
  2  3  1  0
  3  4  2  0
  4  5  1  0
  5  6  1  0
  6  7  1  0
  7  8  1  0
  8  9  1  0
  9 10  1  0
 10 11  1  0
  5 12  2  0
 12 13  1  0
 13 14  2  0
 14 15  1  0
 15 16  2  3
 16 17  1  0
 17 18  2  0
 18 19  1  0
 19 20  2  0
 20 21  1  0
 21 22  2  0
 22 23  1  0
 23 24  2  0
 24 25  1  0
 25 26  2  0
 26 27  1  0
 27 28  2  0
 28 29  1  0
 29 30  1  0
 30 31  1  0
 31 32  1  0
 31 33  2  0
 31 34  2  0
 29 35  2  0
 18 36  1  0
 36 37  2  0
 37 38  1  0
 14  3  1  0
 38 16  1  0
 11  6  1  0
 24 19  1  0
 35 25  1  0
  1 39  1  0
  1 40  1  0
  1 41  1  0
  4 42  1  0
  7 43  1  0
  7 44  1  0
  8 45  1  0
  8 46  1  0
 10 47  1  0
 10 48  1  0
 11 49  1  0
 11 50  1  0
 12 51  1  0
 13 52  1  0
 20 53  1  0
 22 54  1  0
 23 55  1  0
 26 56  1  0
 27 57  1  0
 28 58  1  0
 30 59  1  0
 32 60  1  0
 32 61  1  0
 32 62  1  0
 35 63  1  0
 36 64  1  0
 37 65  1  0
M  CHG  1  38  -1
M  END
>  <UniqueID>  (11) 
10

>  <SMILES>  (11) 
COc1cc(N2CCOCC2)ccc1N=c1nc(-c2cnccc2-c2cccc(NS(C)(=O)=O)c2)cc[n-]1

>  <Energy>  (11) 
97.20343887388277

>  <Genealogy>  (11) 
COc1cc(N2CCOCC2)ccc1N=c1nc(-c2cnccc2-c2cccc(NS(C)(=O)=O)c2)cc[n-]1 (protonated)
COc1cc(N2CCOCC2)ccc1N=c1nc(-c2cnccc2-c2cccc(NS(C)(=O)=O)c2)cc[n-]1 (3D coordinates assigned)
COc1cc(N2CCOCC2)ccc1N=c1nc(-c2cnccc2-c2cccc(NS(C)(=O)=O)c2)cc[n-]1 (nonaromatic ring conformer: 97.20343887388277 kcal/mol)

>  <smiles>  (11) 
COc1cc(N2CCOCC2)ccc1N=c1nc(-c2cnccc2-c2cccc(NS(C)(=O)=O)c2)cc[nH]1

>  <score_type>  (11) 
oracle

>  <origin>  (11) 
adgpu

>  <m_score__min__energy>  (11) 
-11.460000000000001

>  <m_primary>  (11) 
energy

$$$$
11:0
     RDKit          3D

 28 30  0  0  0  0  0  0  0  0999 V2000
   -4.8760   20.6420  -33.8310 O   0  0  0  0  0  0  0  0  0  0  0  0
   -5.6070   19.8900  -33.1300 C   0  0  0  0  0  0  0  0  0  0  0  0
   -6.3670   20.4420  -32.0370 N   0  0  0  0  0  0  0  0  0  0  0  0
   -6.2680   21.8090  -31.6050 C   0  0  0  0  0  0  0  0  0  0  0  0
   -7.4300   22.6060  -31.4010 C   0  0  0  0  0  0  0  0  0  0  0  0
   -7.3180   23.9520  -31.0030 C   0  0  0  0  0  0  0  0  0  0  0  0
   -6.0380   24.4680  -30.8370 C   0  0  0  0  0  0  0  0  0  0  0  0
   -5.5820   25.7110  -30.4740 C   0  0  0  0  0  0  0  0  0  0  0  0
   -4.2280   25.6770  -30.4800 N   0  0  0  0  0  0  0  0  0  0  0  0
   -3.8190   24.4620  -30.8330 N   0  0  0  0  0  0  0  0  0  0  0  0
   -4.9190   23.7220  -31.0520 C   0  0  0  0  0  0  0  0  0  0  0  0
   -4.9890   22.3880  -31.4450 C   0  0  0  0  0  0  0  0  0  0  0  0
   -5.6690   18.4450  -33.4580 C   0  0  0  0  0  0  0  0  0  0  0  0
   -6.8390   17.6910  -33.2410 C   0  0  0  0  0  0  0  0  0  0  0  0
   -6.8750   16.3310  -33.5640 C   0  0  0  0  0  0  0  0  0  0  0  0
   -5.7510   15.7100  -34.1130 C   0  0  0  0  0  0  0  0  0  0  0  0
   -4.5890   16.4500  -34.3470 C   0  0  0  0  0  0  0  0  0  0  0  0
   -4.5480   17.8100  -34.0260 C   0  0  0  0  0  0  0  0  0  0  0  0
   -7.0700   19.8440  -31.5510 H   0  0  0  0  0  0  0  0  0  0  0  0
   -8.4260   22.1655  -31.5560 H   0  0  0  0  0  0  0  0  0  0  0  0
   -8.2100   24.5720  -30.8299 H   0  0  0  0  0  0  0  0  0  0  0  0
   -6.2062   26.5811  -30.2226 H   0  0  0  0  0  0  0  0  0  0  0  0
   -4.0756   21.8022  -31.6256 H   0  0  0  0  0  0  0  0  0  0  0  0
   -7.7300   18.1752  -32.8147 H   0  0  0  0  0  0  0  0  0  0  0  0
   -7.7910   15.7488  -33.3852 H   0  0  0  0  0  0  0  0  0  0  0  0
   -5.7804   14.6388  -34.3611 H   0  0  0  0  0  0  0  0  0  0  0  0
   -3.7055   15.9619  -34.7843 H   0  0  0  0  0  0  0  0  0  0  0  0
   -3.6326   18.3887  -34.2187 H   0  0  0  0  0  0  0  0  0  0  0  0
  1  2  2  0
  2  3  1  0
  3  4  1  0
  4  5  1  0
  5  6  2  0
  6  7  1  0
  7  8  2  0
  8  9  1  0
  9 10  1  0
 10 11  2  0
 11 12  1  0
  2 13  1  0
 13 14  2  0
 14 15  1  0
 15 16  2  0
 16 17  1  0
 17 18  2  0
 12  4  2  0
 18 13  1  0
 11  7  1  0
  3 19  1  0
  5 20  1  0
  6 21  1  0
  8 22  1  0
 12 23  1  0
 14 24  1  0
 15 25  1  0
 16 26  1  0
 17 27  1  0
 18 28  1  0
M  CHG  1   9  -1
M  END
>  <UniqueID>  (12) 
11

>  <SMILES>  (12) 
O=C(Nc1ccc2c[n-]nc2c1)c1ccccc1

>  <Energy>  (12) 
75.6289197338557

>  <Genealogy>  (12) 
O=C(Nc1ccc2c[n-]nc2c1)c1ccccc1 (protonated)
O=C(Nc1ccc2c[n-]nc2c1)c1ccccc1 (3D coordinates assigned)
O=C(Nc1ccc2c[n-]nc2c1)c1ccccc1 (optimized conformer: 75.6289197338557 kcal/mol)

>  <smiles>  (12) 
O=C(Nc1ccc2c[nH]nc2c1)c1ccccc1

>  <score_type>  (12) 
oracle

>  <origin>  (12) 
adgpu

>  <m_score__min__energy>  (12) 
-9.1300000000000008

>  <m_primary>  (12) 
energy

$$$$
12:0
     RDKit          3D

 33 35  0  0  0  0  0  0  0  0999 V2000
   -0.8490   25.3730  -26.4090 C   0  0  0  0  0  0  0  0  0  0  0  0
   -2.2460   25.4400  -26.6740 O   0  0  0  0  0  0  0  0  0  0  0  0
   -2.9150   24.6390  -27.6130 C   0  0  0  0  0  0  0  0  0  0  0  0
   -3.9090   23.7160  -27.2430 C   0  0  0  0  0  0  0  0  0  0  0  0
   -4.5500   22.9390  -28.2110 C   0  0  0  0  0  0  0  0  0  0  0  0
   -4.2130   23.0640  -29.5720 C   0  0  0  0  0  0  0  0  0  0  0  0
   -4.8880   22.2410  -30.6120 C   0  0  0  0  0  0  0  0  0  0  0  0
   -5.9700   22.6120  -31.4100 C   0  0  0  0  0  0  0  0  0  0  0  0
   -6.3870   21.6160  -32.3040 C   0  0  0  0  0  0  0  0  0  0  0  0
   -5.6410   20.4390  -32.2290 C   0  0  0  0  0  0  0  0  0  0  0  0
   -5.8270   19.2030  -33.0350 C   0  0  0  0  0  0  0  0  0  0  0  0
   -6.7240   18.2040  -32.6070 C   0  0  0  0  0  0  0  0  0  0  0  0
   -6.9040   17.0380  -33.3580 C   0  0  0  0  0  0  0  0  0  0  0  0
   -6.1930   16.8520  -34.5450 C   0  0  0  0  0  0  0  0  0  0  0  0
   -5.3010   17.8320  -34.9830 C   0  0  0  0  0  0  0  0  0  0  0  0
   -5.1160   18.9990  -34.2360 C   0  0  0  0  0  0  0  0  0  0  0  0
   -4.4680   20.6650  -31.0400 S   0  0  0  0  0  0  0  0  0  0  0  0
   -3.2160   23.9890  -29.9340 C   0  0  0  0  0  0  0  0  0  0  0  0
   -2.5750   24.7670  -28.9650 C   0  0  0  0  0  0  0  0  0  0  0  0
   -1.5950   25.6730  -29.3530 O   0  0  0  0  0  0  0  0  0  0  0  0
   -0.6820   25.3650  -25.3218 H   0  0  0  0  0  0  0  0  0  0  0  0
   -0.4358   24.4540  -26.8502 H   0  0  0  0  0  0  0  0  0  0  0  0
   -0.3497   26.2482  -26.8502 H   0  0  0  0  0  0  0  0  0  0  0  0
   -4.1839   23.6049  -26.1837 H   0  0  0  0  0  0  0  0  0  0  0  0
   -5.3264   22.2218  -27.9064 H   0  0  0  0  0  0  0  0  0  0  0  0
   -6.4530   23.5981  -31.3438 H   0  0  0  0  0  0  0  0  0  0  0  0
   -7.2267   21.7501  -33.0018 H   0  0  0  0  0  0  0  0  0  0  0  0
   -7.2882   18.3427  -31.6730 H   0  0  0  0  0  0  0  0  0  0  0  0
   -7.6072   16.2659  -33.0127 H   0  0  0  0  0  0  0  0  0  0  0  0
   -6.3356   15.9342  -35.1343 H   0  0  0  0  0  0  0  0  0  0  0  0
   -4.7418   17.6856  -35.9189 H   0  0  0  0  0  0  0  0  0  0  0  0
   -4.4095   19.7652  -34.5880 H   0  0  0  0  0  0  0  0  0  0  0  0
   -2.9376   24.1013  -30.9922 H   0  0  0  0  0  0  0  0  0  0  0  0
  1  2  1  0
  2  3  1  0
  3  4  2  0
  4  5  1  0
  5  6  2  0
  6  7  1  0
  7  8  2  0
  8  9  1  0
  9 10  2  0
 10 11  1  0
 11 12  2  0
 12 13  1  0
 13 14  2  0
 14 15  1  0
 15 16  2  0
 10 17  1  0
  6 18  1  0
 18 19  2  0
 19 20  1  0
 19  3  1  0
 17  7  1  0
 16 11  1  0
  1 21  1  0
  1 22  1  0
  1 23  1  0
  4 24  1  0
  5 25  1  0
  8 26  1  0
  9 27  1  0
 12 28  1  0
 13 29  1  0
 14 30  1  0
 15 31  1  0
 16 32  1  0
 18 33  1  0
M  CHG  1  20  -1
M  END
>  <UniqueID>  (13) 
12

>  <SMILES>  (13) 
COc1ccc(-c2ccc(-c3ccccc3)s2)cc1[O-]

>  <Energy>  (13) 
66.31685506302738

>  <Genealogy>  (13) 
COc1ccc(-c2ccc(-c3ccccc3)s2)cc1[O-] (protonated)
COc1ccc(-c2ccc(-c3ccccc3)s2)cc1[O-] (3D coordinates assigned)
COc1ccc(-c2ccc(-c3ccccc3)s2)cc1[O-] (optimized conformer: 66.31685506302738 kcal/mol)

>  <smiles>  (13) 
COc1ccc(-c2ccc(-c3ccccc3)s2)cc1O

>  <score_type>  (13) 
oracle

>  <origin>  (13) 
adgpu

>  <m_score__min__energy>  (13) 
-10.130000000000001

>  <m_primary>  (13) 
energy

$$$$
13:0
     RDKit          3D

 36 37  0  0  0  0  0  0  0  0999 V2000
   -5.6610   18.5400  -34.5000 C   0  0  0  0  0  0  0  0  0  0  0  0
   -6.3740   19.4570  -33.6020 N   0  0  0  0  0  0  0  0  0  0  0  0
   -7.2530   18.7010  -32.7010 C   0  0  0  0  0  0  0  0  0  0  0  0
   -5.2260   20.3860  -32.6690 S   0  0  0  0  0  0  0  0  0  0  0  0
   -4.0790   20.7920  -33.5510 O   0  0  0  0  0  0  0  0  0  0  0  0
   -4.6770   19.5330  -31.5580 O   0  0  0  0  0  0  0  0  0  0  0  0
   -5.9690   21.8310  -31.9790 C   0  0  0  0  0  0  0  0  0  0  0  0
   -7.3570   21.8910  -31.7980 C   0  0  0  0  0  0  0  0  0  0  0  0
   -7.9430   23.0310  -31.2450 C   0  0  0  0  0  0  0  0  0  0  0  0
   -7.1500   24.1170  -30.8690 C   0  0  0  0  0  0  0  0  0  0  0  0
   -5.7540   24.0740  -31.0420 C   0  0  0  0  0  0  0  0  0  0  0  0
   -4.9100   25.2250  -30.6380 C   0  0  0  0  0  0  0  0  0  0  0  0
   -5.4450   26.3410  -30.3950 O   0  0  0  0  0  0  0  0  0  0  0  0
   -3.4960   25.0540  -30.4730 N   0  0  0  0  0  0  0  0  0  0  0  0
   -2.8310   24.4340  -29.3620 C   0  0  0  0  0  0  0  0  0  0  0  0
   -1.9250   25.1370  -28.5470 C   0  0  0  0  0  0  0  0  0  0  0  0
   -1.2810   24.4870  -27.4890 C   0  0  0  0  0  0  0  0  0  0  0  0
   -1.5220   23.1320  -27.2450 C   0  0  0  0  0  0  0  0  0  0  0  0
   -0.8900   22.5120  -26.2170 F   0  0  0  0  0  0  0  0  0  0  0  0
   -2.4040   22.4200  -28.0670 C   0  0  0  0  0  0  0  0  0  0  0  0
   -2.7040   20.7140  -27.7800 Cl  0  0  0  0  0  0  0  0  0  0  0  0
   -3.0490   23.0690  -29.1270 C   0  0  0  0  0  0  0  0  0  0  0  0
   -5.1720   22.9220  -31.6020 C   0  0  0  0  0  0  0  0  0  0  0  0
   -5.0936   17.8102  -33.9038 H   0  0  0  0  0  0  0  0  0  0  0  0
   -6.3866   18.0101  -35.1345 H   0  0  0  0  0  0  0  0  0  0  0  0
   -4.9686   19.1127  -35.1345 H   0  0  0  0  0  0  0  0  0  0  0  0
   -6.9900   18.9272  -31.6571 H   0  0  0  0  0  0  0  0  0  0  0  0
   -8.2994   18.9857  -32.8854 H   0  0  0  0  0  0  0  0  0  0  0  0
   -7.1281   17.6238  -32.8854 H   0  0  0  0  0  0  0  0  0  0  0  0
   -7.9863   21.0381  -32.0922 H   0  0  0  0  0  0  0  0  0  0  0  0
   -9.0332   23.0739  -31.1050 H   0  0  0  0  0  0  0  0  0  0  0  0
   -7.6195   25.0120  -30.4347 H   0  0  0  0  0  0  0  0  0  0  0  0
   -1.7226   26.2004  -28.7423 H   0  0  0  0  0  0  0  0  0  0  0  0
   -0.5827   25.0440  -26.8470 H   0  0  0  0  0  0  0  0  0  0  0  0
   -3.7311   22.5043  -29.7795 H   0  0  0  0  0  0  0  0  0  0  0  0
   -4.0823   22.8765  -31.7455 H   0  0  0  0  0  0  0  0  0  0  0  0
  1  2  1  0
  2  3  1  0
  2  4  1  0
  4  5  2  0
  4  6  2  0
  4  7  1  0
  7  8  2  0
  8  9  1  0
  9 10  2  0
 10 11  1  0
 11 12  1  0
 12 13  2  0
 12 14  1  0
 14 15  1  0
 15 16  2  0
 16 17  1  0
 17 18  2  0
 18 19  1  0
 18 20  1  0
 20 21  1  0
 20 22  2  0
 11 23  2  0
 23  7  1  0
 22 15  1  0
  1 24  1  0
  1 25  1  0
  1 26  1  0
  3 27  1  0
  3 28  1  0
  3 29  1  0
  8 30  1  0
  9 31  1  0
 10 32  1  0
 16 33  1  0
 17 34  1  0
 22 35  1  0
 23 36  1  0
M  CHG  1  14  -1
M  END
>  <UniqueID>  (14) 
13

>  <SMILES>  (14) 
CN(C)S(=O)(=O)c1cccc(C(=O)[N-]c2ccc(F)c(Cl)c2)c1

>  <Energy>  (14) 
38.358308961179645

>  <Genealogy>  (14) 
CN(C)S(=O)(=O)c1cccc(C(=O)[N-]c2ccc(F)c(Cl)c2)c1 (protonated)
CN(C)S(=O)(=O)c1cccc(C(=O)[N-]c2ccc(F)c(Cl)c2)c1 (3D coordinates assigned)
CN(C)S(=O)(=O)c1cccc(C(=O)[N-]c2ccc(F)c(Cl)c2)c1 (optimized conformer: 38.358308961179645 kcal/mol)

>  <smiles>  (14) 
CN(C)S(=O)(=O)c1cccc(C(=O)Nc2ccc(F)c(Cl)c2)c1

>  <score_type>  (14) 
oracle

>  <origin>  (14) 
adgpu

>  <m_score__min__energy>  (14) 
-9.5500000000000007

>  <m_primary>  (14) 
energy

$$$$
14:0
     RDKit          3D

 54 57  0  0  0  0  0  0  0  0999 V2000
    0.1080   20.6870  -34.3940 C   0  0  0  0  0  0  0  0  0  0  0  0
   -1.1800   19.9370  -34.2170 C   0  0  0  0  0  0  0  0  0  0  0  0
   -1.2500   18.5740  -34.5320 C   0  0  0  0  0  0  0  0  0  0  0  0
   -2.4400   17.8690  -34.3400 C   0  0  0  0  0  0  0  0  0  0  0  0
   -3.5630   18.5120  -33.8150 C   0  0  0  0  0  0  0  0  0  0  0  0
   -3.5050   19.8760  -33.4640 C   0  0  0  0  0  0  0  0  0  0  0  0
   -4.6860   20.5840  -32.9060 C   0  0  0  0  0  0  0  0  0  0  0  0
   -4.5670   21.8220  -32.2510 C   0  0  0  0  0  0  0  0  0  0  0  0
   -5.7010   22.4570  -31.7200 C   0  0  0  0  0  0  0  0  0  0  0  0
   -5.5050   23.7130  -30.9620 C   0  0  0  0  0  0  0  0  0  0  0  0
   -5.3720   24.8010  -31.5850 O   0  0  0  0  0  0  0  0  0  0  0  0
   -5.3420   23.6670  -29.5380 N   0  0  0  0  0  0  0  0  0  0  0  0
   -4.1140   23.4640  -28.8230 C   0  0  0  0  0  0  0  0  0  0  0  0
   -3.8950   22.2270  -28.2070 C   0  0  0  0  0  0  0  0  0  0  0  0
   -2.7190   21.9930  -27.4910 C   0  0  0  0  0  0  0  0  0  0  0  0
   -1.7580   23.0000  -27.3720 C   0  0  0  0  0  0  0  0  0  0  0  0
   -1.9760   24.2530  -27.9590 C   0  0  0  0  0  0  0  0  0  0  0  0
   -0.7690   25.5300  -27.7990 S   0  0  0  0  0  0  0  0  0  0  0  0
    0.6050   24.9200  -27.8450 O   0  0  0  0  0  0  0  0  0  0  0  0
   -0.8920   26.4790  -28.9580 O   0  0  0  0  0  0  0  0  0  0  0  0
   -0.9630   26.4130  -26.3050 N   0  0  0  0  0  0  0  0  0  0  0  0
   -0.8010   25.5030  -25.1640 C   0  0  0  0  0  0  0  0  0  0  0  0
    0.0270   27.4960  -26.2350 C   0  0  0  0  0  0  0  0  0  0  0  0
   -3.1570   24.4850  -28.6780 C   0  0  0  0  0  0  0  0  0  0  0  0
   -6.9740   21.8600  -31.9020 C   0  0  0  0  0  0  0  0  0  0  0  0
   -8.1750   22.4740  -31.4870 C   0  0  0  0  0  0  0  0  0  0  0  0
   -9.4030   21.8360  -31.6870 C   0  0  0  0  0  0  0  0  0  0  0  0
   -9.4550   20.5910  -32.3160 C   0  0  0  0  0  0  0  0  0  0  0  0
   -8.2810   19.9830  -32.7600 C   0  0  0  0  0  0  0  0  0  0  0  0
   -7.0460   20.6130  -32.5690 C   0  0  0  0  0  0  0  0  0  0  0  0
   -5.9170   20.0230  -33.0410 N   0  0  0  0  0  0  0  0  0  0  0  0
   -2.3030   20.5790  -33.6720 C   0  0  0  0  0  0  0  0  0  0  0  0
    0.5283   20.9318  -33.4074 H   0  0  0  0  0  0  0  0  0  0  0  0
    0.8218   20.0633  -34.9522 H   0  0  0  0  0  0  0  0  0  0  0  0
   -0.0821   21.6156  -34.9522 H   0  0  0  0  0  0  0  0  0  0  0  0
   -0.3650   18.0574  -34.9318 H   0  0  0  0  0  0  0  0  0  0  0  0
   -2.4931   16.8023  -34.6035 H   0  0  0  0  0  0  0  0  0  0  0  0
   -4.4985   17.9507  -33.6745 H   0  0  0  0  0  0  0  0  0  0  0  0
   -3.5792   22.2962  -32.1539 H   0  0  0  0  0  0  0  0  0  0  0  0
   -4.6534   21.4343  -28.2871 H   0  0  0  0  0  0  0  0  0  0  0  0
   -2.5490   21.0137  -27.0197 H   0  0  0  0  0  0  0  0  0  0  0  0
   -0.8283   22.8085  -26.8162 H   0  0  0  0  0  0  0  0  0  0  0  0
   -0.9018   26.0692  -24.2263 H   0  0  0  0  0  0  0  0  0  0  0  0
   -1.5742   24.7217  -25.2055 H   0  0  0  0  0  0  0  0  0  0  0  0
    0.1943   25.0365  -25.2055 H   0  0  0  0  0  0  0  0  0  0  0  0
    0.2408   27.7298  -25.1816 H   0  0  0  0  0  0  0  0  0  0  0  0
    0.9537   27.1786  -26.7355 H   0  0  0  0  0  0  0  0  0  0  0  0
   -0.3721   28.3905  -26.7355 H   0  0  0  0  0  0  0  0  0  0  0  0
   -3.3364   25.4710  -29.1314 H   0  0  0  0  0  0  0  0  0  0  0  0
   -8.1448   23.4613  -31.0029 H   0  0  0  0  0  0  0  0  0  0  0  0
  -10.3320   22.3172  -31.3472 H   0  0  0  0  0  0  0  0  0  0  0  0
  -10.4228   20.0889  -32.4616 H   0  0  0  0  0  0  0  0  0  0  0  0
   -8.3259   19.0052  -33.2619 H   0  0  0  0  0  0  0  0  0  0  0  0
   -2.2432   21.6442  -33.4042 H   0  0  0  0  0  0  0  0  0  0  0  0
  1  2  1  0
  2  3  2  0
  3  4  1  0
  4  5  2  0
  5  6  1  0
  6  7  1  0
  7  8  2  0
  8  9  1  0
  9 10  1  0
 10 11  2  0
 10 12  1  0
 12 13  1  0
 13 14  2  0
 14 15  1  0
 15 16  2  0
 16 17  1  0
 17 18  1  0
 18 19  2  0
 18 20  2  0
 18 21  1  0
 21 22  1  0
 21 23  1  0
 17 24  2  0
  9 25  2  0
 25 26  1  0
 26 27  2  0
 27 28  1  0
 28 29  2  0
 29 30  1  0
 30 31  2  0
  6 32  2  0
 32  2  1  0
 31  7  1  0
 24 13  1  0
 30 25  1  0
  1 33  1  0
  1 34  1  0
  1 35  1  0
  3 36  1  0
  4 37  1  0
  5 38  1  0
  8 39  1  0
 14 40  1  0
 15 41  1  0
 16 42  1  0
 22 43  1  0
 22 44  1  0
 22 45  1  0
 23 46  1  0
 23 47  1  0
 23 48  1  0
 24 49  1  0
 26 50  1  0
 27 51  1  0
 28 52  1  0
 29 53  1  0
 32 54  1  0
M  CHG  1  12  -1
M  END
>  <UniqueID>  (15) 
14

>  <SMILES>  (15) 
Cc1cccc(-c2cc(C(=O)[N-]c3cccc(S(=O)(=O)N(C)C)c3)c3ccccc3n2)c1

>  <Energy>  (15) 
72.3290218839215

>  <Genealogy>  (15) 
Cc1cccc(-c2cc(C(=O)[N-]c3cccc(S(=O)(=O)N(C)C)c3)c3ccccc3n2)c1 (protonated)
Cc1cccc(-c2cc(C(=O)[N-]c3cccc(S(=O)(=O)N(C)C)c3)c3ccccc3n2)c1 (3D coordinates assigned)
Cc1cccc(-c2cc(C(=O)[N-]c3cccc(S(=O)(=O)N(C)C)c3)c3ccccc3n2)c1 (optimized conformer: 72.3290218839215 kcal/mol)

>  <smiles>  (15) 
Cc1cccc(-c2cc(C(=O)Nc3cccc(S(=O)(=O)N(C)C)c3)c3ccccc3n2)c1

>  <score_type>  (15) 
oracle

>  <origin>  (15) 
adgpu

>  <m_score__min__energy>  (15) 
-12.17

>  <m_primary>  (15) 
energy

$$$$
15:0
     RDKit          3D

 31 33  0  0  0  0  0  0  0  0999 V2000
   -0.1130   21.4490  -29.0600 C   0  0  0  0  0  0  0  0  0  0  0  0
   -1.3020   22.3520  -29.2150 C   0  0  0  0  0  0  0  0  0  0  0  0
   -2.4670   21.8860  -29.8470 C   0  0  0  0  0  0  0  0  0  0  0  0
   -3.5770   22.7340  -30.0160 C   0  0  0  0  0  0  0  0  0  0  0  0
   -4.7740   22.2800  -30.6720 N   0  0  0  0  0  0  0  0  0  0  0  0
   -5.7180   23.1550  -31.3090 C   0  0  0  0  0  0  0  0  0  0  0  0
   -5.3910   24.3390  -31.5970 O   0  0  0  0  0  0  0  0  0  0  0  0
   -7.0620   22.6710  -31.6730 C   0  0  0  0  0  0  0  0  0  0  0  0
   -8.2000   23.4210  -31.9780 C   0  0  0  0  0  0  0  0  0  0  0  0
   -9.2340   22.5960  -32.2760 N   0  0  0  0  0  0  0  0  0  0  0  0
   -8.7790   21.3610  -32.1680 N   0  0  0  0  0  0  0  0  0  0  0  0
   -9.4680   20.2130  -32.3790 C   0  0  0  0  0  0  0  0  0  0  0  0
   -8.7870   19.0000  -32.2120 C   0  0  0  0  0  0  0  0  0  0  0  0
   -7.4280   19.0300  -31.8370 C   0  0  0  0  0  0  0  0  0  0  0  0
   -6.7900   20.2210  -31.6410 N   0  0  0  0  0  0  0  0  0  0  0  0
   -7.4900   21.3700  -31.8130 C   0  0  0  0  0  0  0  0  0  0  0  0
   -3.4900   24.0670  -29.5910 C   0  0  0  0  0  0  0  0  0  0  0  0
   -2.3280   24.5400  -28.9770 C   0  0  0  0  0  0  0  0  0  0  0  0
   -1.2360   23.6890  -28.7880 C   0  0  0  0  0  0  0  0  0  0  0  0
   -0.1110   24.1720  -28.2010 F   0  0  0  0  0  0  0  0  0  0  0  0
    0.0922   21.2932  -27.9906 H   0  0  0  0  0  0  0  0  0  0  0  0
   -0.3231   20.4808  -29.5379 H   0  0  0  0  0  0  0  0  0  0  0  0
    0.7633   21.9113  -29.5379 H   0  0  0  0  0  0  0  0  0  0  0  0
   -2.5117   20.8496  -30.2128 H   0  0  0  0  0  0  0  0  0  0  0  0
   -4.9110   21.2490  -30.7730 H   0  0  0  0  0  0  0  0  0  0  0  0
   -8.2501   24.5199  -31.9767 H   0  0  0  0  0  0  0  0  0  0  0  0
  -10.5281   20.2330  -32.6720 H   0  0  0  0  0  0  0  0  0  0  0  0
   -9.3031   18.0416  -32.3705 H   0  0  0  0  0  0  0  0  0  0  0  0
   -6.8780   18.0871  -31.7014 H   0  0  0  0  0  0  0  0  0  0  0  0
   -4.3428   24.7452  -29.7421 H   0  0  0  0  0  0  0  0  0  0  0  0
   -2.2724   25.5860  -28.6411 H   0  0  0  0  0  0  0  0  0  0  0  0
  1  2  1  0
  2  3  2  0
  3  4  1  0
  4  5  1  0
  5  6  1  0
  6  7  2  0
  6  8  1  0
  8  9  1  0
  9 10  2  0
 10 11  1  0
 11 12  1  0
 12 13  2  0
 13 14  1  0
 14 15  2  0
 15 16  1  0
  4 17  2  0
 17 18  1  0
 18 19  2  0
 19 20  1  0
 19  2  1  0
 16  8  2  0
 16 11  1  0
  1 21  1  0
  1 22  1  0
  1 23  1  0
  3 24  1  0
  5 25  1  0
  9 26  1  0
 12 27  1  0
 13 28  1  0
 14 29  1  0
 17 30  1  0
 18 31  1  0
M  END
>  <UniqueID>  (16) 
15

>  <SMILES>  (16) 
Cc1cc(NC(=O)c2cnn3cccnc23)ccc1F

>  <Energy>  (16) 
74.4866436168148

>  <Genealogy>  (16) 
Cc1cc(NC(=O)c2cnn3cccnc23)ccc1F (3D coordinates assigned)
Cc1cc(NC(=O)c2cnn3cccnc23)ccc1F (optimized conformer: 74.4866436168148 kcal/mol)

>  <smiles>  (16) 
Cc1cc(NC(=O)c2cnn3cccnc23)ccc1F

>  <score_type>  (16) 
oracle

>  <origin>  (16) 
adgpu

>  <m_score__min__energy>  (16) 
-6.6500000000000004

>  <m_primary>  (16) 
energy

$$$$
16:0
     RDKit          3D

 31 32  0  0  1  0  0  0  0  0999 V2000
   -7.6680   21.5190  -30.8180 C   0  0  0  0  0  0  0  0  0  0  0  0
   -7.8590   20.9410  -32.0760 O   0  0  0  0  0  0  0  0  0  0  0  0
   -6.8780   20.1920  -32.6590 C   0  0  0  0  0  0  0  0  0  0  0  0
   -7.2300   18.8950  -33.0500 C   0  0  0  0  0  0  0  0  0  0  0  0
   -6.3110   18.0630  -33.6470 C   0  0  0  0  0  0  0  0  0  0  0  0
   -6.7740   16.4470  -34.1290 Cl  0  0  0  0  0  0  0  0  0  0  0  0
   -5.0470   18.5750  -33.8310 C   0  0  0  0  0  0  0  0  0  0  0  0
   -4.0360   17.7250  -34.4630 C   0  0  0  0  0  0  0  0  0  0  0  0
   -4.7030   19.8480  -33.4460 C   0  0  0  0  0  0  0  0  0  0  0  0
   -5.6250   20.7120  -32.8350 C   0  0  0  0  0  0  0  0  0  0  0  0
   -5.1620   21.9810  -32.4940 N   0  0  0  0  0  0  0  0  0  0  0  0
   -4.2950   22.3770  -31.4600 C   0  0  0  0  0  0  0  0  0  0  0  0
   -3.7980   21.6050  -30.6700 O   0  0  0  0  0  0  0  0  0  0  0  0
   -3.9620   23.7810  -31.3080 N   0  0  0  0  0  0  0  0  0  0  0  0
   -4.8400   24.5330  -30.7320 C   0  0  0  0  0  0  0  0  0  0  0  0
   -6.0370   24.1270  -30.2600 N   0  0  0  0  0  0  0  0  0  0  0  0
   -6.6280   25.2230  -29.7420 C   0  0  0  0  0  0  0  0  0  0  0  0
   -5.8100   26.2840  -29.8930 N   0  0  0  0  0  0  0  0  0  0  0  0
   -4.6990   25.8510  -30.5080 N   0  0  0  0  0  0  0  0  0  0  0  0
   -7.9108   20.7842  -30.0362 H   0  0  0  0  0  0  0  0  0  0  0  0
   -6.6186   21.8320  -30.7138 H   0  0  0  0  0  0  0  0  0  0  0  0
   -8.3242   22.3956  -30.7138 H   0  0  0  0  0  0  0  0  0  0  0  0
   -8.2554   18.5359  -32.8777 H   0  0  0  0  0  0  0  0  0  0  0  0
   -3.4402   17.2241  -33.6857 H   0  0  0  0  0  0  0  0  0  0  0  0
   -4.5321   16.9687  -35.0890 H   0  0  0  0  0  0  0  0  0  0  0  0
   -3.3762   18.3436  -35.0890 H   0  0  0  0  0  0  0  0  0  0  0  0
   -3.6758   20.2002  -33.6216 H   0  0  0  0  0  0  0  0  0  0  0  0
   -5.5080   22.7980  -33.0990 H   0  0  0  0  0  0  0  0  0  0  0  0
   -7.6215   25.2474  -29.2704 H   0  0  0  0  0  0  0  0  0  0  0  0
   -6.0120   27.2710  -29.5800 H   0  0  0  0  0  0  0  0  0  0  0  0
   -3.8670   26.4530  -30.7660 H   0  0  0  0  0  0  0  0  0  0  0  0
  1  2  1  0
  2  3  1  0
  3  4  2  0
  4  5  1  0
  5  6  1  0
  5  7  2  0
  7  8  1  0
  7  9  1  0
  9 10  2  0
 10 11  1  0
 11 12  1  0
 12 13  2  0
 12 14  1  0
 14 15  2  0
 15 16  1  0
 16 17  2  0
 17 18  1  0
 18 19  1  0
 10  3  1  0
 19 15  1  0
  1 20  1  0
  1 21  1  0
  1 22  1  0
  4 23  1  0
  8 24  1  0
  8 25  1  0
  8 26  1  0
  9 27  1  0
 11 28  1  0
 17 29  1  0
 18 30  1  0
 19 31  1  0
M  END
>  <smiles>  (17) 
COc1cc(Cl)c(C)cc1NC(=O)N=c1nc[nH][nH]1

>  <score_type>  (17) 
oracle

>  <origin>  (17) 
adgpu

>  <m_score__min__energy>  (17) 
-7.3600000000000003

>  <m_primary>  (17) 
energy

$$$$
17:0
     RDKit          3D

 60 64  0  0  0  0  0  0  0  0999 V2000
   -0.4384   25.6305  -28.1324 H   0  0  0  0  0  0  0  0  0  0  0  0
   -1.2360   24.9610  -28.4870 C   0  0  0  0  0  0  0  0  0  0  0  0
   -2.1760   25.2920  -29.3420 O   0  0  0  0  0  0  0  0  0  0  0  0
   -2.9540   24.2520  -29.5290 C   0  0  0  0  0  0  0  0  0  0  0  0
   -4.1160   24.2340  -30.4690 C   0  0  0  0  0  0  0  0  0  0  0  0
   -4.0975   25.1410  -31.0911 H   0  0  0  0  0  0  0  0  0  0  0  0
   -5.0519   24.2020  -29.8918 H   0  0  0  0  0  0  0  0  0  0  0  0
   -4.0350   23.0530  -31.3280 N   0  0  0  0  0  0  0  0  0  0  0  0
   -2.8840   22.6740  -31.8850 N   0  0  0  0  0  0  0  0  0  0  0  0
   -3.0010   21.6050  -32.7100 C   0  0  0  0  0  0  0  0  0  0  0  0
   -1.8580   21.0390  -33.4710 C   0  0  0  0  0  0  0  0  0  0  0  0
   -0.8100   21.9000  -33.8510 C   0  0  0  0  0  0  0  0  0  0  0  0
   -0.8462   22.9586  -33.5543 H   0  0  0  0  0  0  0  0  0  0  0  0
    0.2760   21.4330  -34.5990 C   0  0  0  0  0  0  0  0  0  0  0  0
    1.3220   22.3520  -34.9450 N   0  0  0  0  0  0  0  0  0  0  0  0
    1.8420   22.5810  -36.2580 C   0  0  0  0  0  0  0  0  0  0  0  0
    2.6400   21.7560  -36.7810 O   0  0  0  0  0  0  0  0  0  0  0  0
    1.3630   23.7050  -37.0050 N   0  0  0  0  0  0  0  0  0  0  0  0
    1.0650   25.0110  -36.4910 C   0  0  0  0  0  0  0  0  0  0  0  0
   -0.2240   25.5730  -36.5680 C   0  0  0  0  0  0  0  0  0  0  0  0
   -1.0463   24.9965  -37.0168 H   0  0  0  0  0  0  0  0  0  0  0  0
   -0.4640   26.8600  -36.0770 C   0  0  0  0  0  0  0  0  0  0  0  0
   -1.4754   27.2891  -36.1314 H   0  0  0  0  0  0  0  0  0  0  0  0
    0.5800   27.6020  -35.5170 C   0  0  0  0  0  0  0  0  0  0  0  0
    0.2780   29.2170  -34.9030 Cl  0  0  0  0  0  0  0  0  0  0  0  0
    1.8670   27.0600  -35.4580 C   0  0  0  0  0  0  0  0  0  0  0  0
    2.6906   27.6461  -35.0242 H   0  0  0  0  0  0  0  0  0  0  0  0
    2.1090   25.7730  -35.9500 C   0  0  0  0  0  0  0  0  0  0  0  0
    3.1263   25.3562  -35.9119 H   0  0  0  0  0  0  0  0  0  0  0  0
    0.3420   20.0750  -34.9390 C   0  0  0  0  0  0  0  0  0  0  0  0
    1.2020   19.6945  -35.5096 H   0  0  0  0  0  0  0  0  0  0  0  0
   -0.6780   19.2040  -34.5570 C   0  0  0  0  0  0  0  0  0  0  0  0
   -0.6192   18.1420  -34.8375 H   0  0  0  0  0  0  0  0  0  0  0  0
   -1.7830   19.6680  -33.8160 C   0  0  0  0  0  0  0  0  0  0  0  0
   -2.7950   18.7900  -33.3960 O   0  0  0  0  0  0  0  0  0  0  0  0
   -3.7240   18.1440  -34.2600 C   0  0  0  0  0  0  0  0  0  0  0  0
   -4.4800   17.6183  -33.6582 H   0  0  0  0  0  0  0  0  0  0  0  0
   -4.2177   18.8947  -34.8947 H   0  0  0  0  0  0  0  0  0  0  0  0
   -3.1921   17.4199  -34.8947 H   0  0  0  0  0  0  0  0  0  0  0  0
   -4.6160   21.1080  -32.7990 S   0  0  0  0  0  0  0  0  0  0  0  0
   -5.0970   22.3040  -31.7120 C   0  0  0  0  0  0  0  0  0  0  0  0
   -6.3200   22.5610  -31.3410 N   0  0  0  0  0  0  0  0  0  0  0  0
   -7.4960   21.8120  -31.6820 C   0  0  0  0  0  0  0  0  0  0  0  0
   -8.6850   22.5030  -31.9390 C   0  0  0  0  0  0  0  0  0  0  0  0
   -8.6990   23.6020  -31.8944 H   0  0  0  0  0  0  0  0  0  0  0  0
   -9.8550   21.8060  -32.2520 C   0  0  0  0  0  0  0  0  0  0  0  0
  -10.7804   22.3578  -32.4735 H   0  0  0  0  0  0  0  0  0  0  0  0
   -9.8510   20.4090  -32.2840 C   0  0  0  0  0  0  0  0  0  0  0  0
  -10.7688   19.8641  -32.5499 H   0  0  0  0  0  0  0  0  0  0  0  0
   -8.6800   19.6990  -31.9780 C   0  0  0  0  0  0  0  0  0  0  0  0
   -8.6670   18.2000  -32.0270 C   0  0  0  0  0  0  0  0  0  0  0  0
   -8.6635   17.7997  -31.0024 H   0  0  0  0  0  0  0  0  0  0  0  0
   -9.5621   17.8427  -32.5572 H   0  0  0  0  0  0  0  0  0  0  0  0
   -7.7659   17.8583  -32.5572 H   0  0  0  0  0  0  0  0  0  0  0  0
   -7.5030   20.4050  -31.6790 C   0  0  0  0  0  0  0  0  0  0  0  0
   -6.5809   19.8544  -31.4410 H   0  0  0  0  0  0  0  0  0  0  0  0
   -2.5100   23.1840  -28.7760 C   0  0  0  0  0  0  0  0  0  0  0  0
   -2.9492   22.1768  -28.7257 H   0  0  0  0  0  0  0  0  0  0  0  0
   -1.4000   23.6450  -28.1000 C   0  0  0  0  0  0  0  0  0  0  0  0
   -0.7724   23.0795  -27.3955 H   0  0  0  0  0  0  0  0  0  0  0  0
  1  2  1  0
  2  3  1  0
  3  4  1  0
  4  5  1  0
  5  6  1  0
  5  7  1  0
  5  8  1  0
  8  9  1  0
  9 10  2  0
 10 11  1  0
 11 12  2  0
 12 13  1  0
 12 14  1  0
 14 15  1  0
 15 16  1  0
 16 17  2  0
 16 18  1  0
 18 19  1  0
 19 20  2  0
 20 21  1  0
 20 22  1  0
 22 23  1  0
 22 24  2  0
 24 25  1  0
 24 26  1  0
 26 27  1  0
 26 28  2  0
 28 29  1  0
 14 30  2  0
 30 31  1  0
 30 32  1  0
 32 33  1  0
 32 34  2  0
 34 35  1  0
 35 36  1  0
 36 37  1  0
 36 38  1  0
 36 39  1  0
 10 40  1  0
 40 41  1  0
 41 42  2  0
 42 43  1  0
 43 44  2  0
 44 45  1  0
 44 46  1  0
 46 47  1  0
 46 48  2  0
 48 49  1  0
 48 50  1  0
 50 51  1  0
 51 52  1  0
 51 53  1  0
 51 54  1  0
 50 55  2  0
 55 56  1  0
  4 57  2  0
 57 58  1  0
 57 59  1  0
 59 60  1  0
 59  2  2  0
 41  8  1  0
 55 43  1  0
 34 11  1  0
 28 19  1  0
M  CHG  2  15  -1  18  -1
M  END
>  <UniqueID>  (18) 
16

>  <SMILES>  (18) 
COc1ccc([N-]C(=O)[N-]c2ccc(Cl)cc2)cc1-c1nn(Cc2ccco2)/c(=N/c2cccc(C)c2)s1

>  <Energy>  (18) 
140.0768438785166

>  <Genealogy>  (18) 
COc1ccc([N-]C(=O)[N-]c2ccc(Cl)cc2)cc1-c1nn(Cc2ccco2)c(=Nc2cccc(C)c2)s1 (protonated)
COc1ccc([N-]C(=O)[N-]c2ccc(Cl)cc2)cc1-c1nn(Cc2ccco2)/c(=N/c2cccc(C)c2)s1 (cis-trans isomerization)
COc1ccc([N-]C(=O)[N-]c2ccc(Cl)cc2)cc1-c1nn(Cc2ccco2)/c(=N/c2cccc(C)c2)s1 (3D coordinates assigned)
COc1ccc([N-]C(=O)[N-]c2ccc(Cl)cc2)cc1-c1nn(Cc2ccco2)/c(=N/c2cccc(C)c2)s1 (optimized conformer: 140.0768438785166 kcal/mol)

>  <smiles>  (18) 
COc1ccc(NC(=O)Nc2ccc(Cl)cc2)cc1-c1nn(Cc2ccco2)c(=Nc2cccc(C)c2)s1

>  <score_type>  (18) 
oracle

>  <origin>  (18) 
adgpu

>  <m_score__min__energy>  (18) 
-13.23

>  <m_primary>  (18) 
energy

$$$$
18:0
     RDKit          3D

 41 43  0  0  0  0  0  0  0  0999 V2000
   -2.0270   25.1450  -29.2220 O   0  0  0  0  0  0  0  0  0  0  0  0
   -3.0490   24.5960  -29.7160 C   0  0  0  0  0  0  0  0  0  0  0  0
   -3.3740   23.1770  -29.3700 C   0  0  0  0  0  0  0  0  0  0  0  0
   -2.7150   22.2620  -30.3230 N   0  0  0  0  0  0  0  0  0  0  0  0
   -1.3900   21.9470  -30.1660 C   0  0  0  0  0  0  0  0  0  0  0  0
   -0.7240   22.4130  -29.2010 O   0  0  0  0  0  0  0  0  0  0  0  0
   -0.7580   21.1070  -31.0750 C   0  0  0  0  0  0  0  0  0  0  0  0
   -1.4820   20.6100  -32.1480 C   0  0  0  0  0  0  0  0  0  0  0  0
   -2.7920   20.9510  -32.3160 N   0  0  0  0  0  0  0  0  0  0  0  0
   -3.5340   20.3950  -33.4600 C   0  0  0  0  0  0  0  0  0  0  0  0
   -4.8710   19.8680  -33.0090 C   0  0  0  0  0  0  0  0  0  0  0  0
   -6.0610   20.4240  -33.5070 C   0  0  0  0  0  0  0  0  0  0  0  0
   -7.3000   19.9520  -33.0620 C   0  0  0  0  0  0  0  0  0  0  0  0
   -7.3600   18.9260  -32.1140 C   0  0  0  0  0  0  0  0  0  0  0  0
   -8.9210   18.3420  -31.5620 Cl  0  0  0  0  0  0  0  0  0  0  0  0
   -6.1770   18.3710  -31.6080 C   0  0  0  0  0  0  0  0  0  0  0  0
   -6.2250   17.3780  -30.6860 F   0  0  0  0  0  0  0  0  0  0  0  0
   -4.9380   18.8420  -32.0540 C   0  0  0  0  0  0  0  0  0  0  0  0
   -3.4100   21.7720  -31.4050 C   0  0  0  0  0  0  0  0  0  0  0  0
   -4.6240   22.0810  -31.5660 O   0  0  0  0  0  0  0  0  0  0  0  0
   -3.8720   25.3010  -30.6470 N   0  0  0  0  0  0  0  0  0  0  0  0
   -5.2600   25.6420  -30.3770 C   0  0  0  0  0  0  0  0  0  0  0  0
   -6.1430   24.5430  -30.8680 C   0  0  0  0  0  0  0  0  0  0  0  0
   -6.8710   23.6810  -30.0740 C   0  0  0  0  0  0  0  0  0  0  0  0
   -7.5490   22.8580  -30.9480 C   0  0  0  0  0  0  0  0  0  0  0  0
   -7.1940   23.2730  -32.2170 C   0  0  0  0  0  0  0  0  0  0  0  0
   -6.3570   24.2810  -32.1360 O   0  0  0  0  0  0  0  0  0  0  0  0
   -3.0193   22.9598  -28.3517 H   0  0  0  0  0  0  0  0  0  0  0  0
   -4.4631   23.0322  -29.4242 H   0  0  0  0  0  0  0  0  0  0  0  0
    0.3012   20.8403  -30.9451 H   0  0  0  0  0  0  0  0  0  0  0  0
   -0.9965   19.9359  -32.8690 H   0  0  0  0  0  0  0  0  0  0  0  0
   -3.6893   21.1844  -34.2101 H   0  0  0  0  0  0  0  0  0  0  0  0
   -2.9527   19.5696  -33.8967 H   0  0  0  0  0  0  0  0  0  0  0  0
   -6.0182   21.2340  -34.2500 H   0  0  0  0  0  0  0  0  0  0  0  0
   -8.2286   20.3885  -33.4584 H   0  0  0  0  0  0  0  0  0  0  0  0
   -4.0108   18.4058  -31.6540 H   0  0  0  0  0  0  0  0  0  0  0  0
   -5.4025   25.7716  -29.2940 H   0  0  0  0  0  0  0  0  0  0  0  0
   -5.5162   26.5789  -30.8934 H   0  0  0  0  0  0  0  0  0  0  0  0
   -6.9036   23.6557  -28.9748 H   0  0  0  0  0  0  0  0  0  0  0  0
   -8.2337   22.0374  -30.6877 H   0  0  0  0  0  0  0  0  0  0  0  0
   -7.5578   22.8261  -33.1540 H   0  0  0  0  0  0  0  0  0  0  0  0
  1  2  2  0
  2  3  1  0
  3  4  1  0
  4  5  1  0
  5  6  2  0
  5  7  1  0
  7  8  2  0
  8  9  1  0
  9 10  1  0
 10 11  1  0
 11 12  2  0
 12 13  1  0
 13 14  2  0
 14 15  1  0
 14 16  1  0
 16 17  1  0
 16 18  2  0
  9 19  1  0
 19 20  2  0
  2 21  1  0
 21 22  1  0
 22 23  1  0
 23 24  2  0
 24 25  1  0
 25 26  2  0
 26 27  1  0
 19  4  1  0
 27 23  1  0
 18 11  1  0
  3 28  1  0
  3 29  1  0
  7 30  1  0
  8 31  1  0
 10 32  1  0
 10 33  1  0
 12 34  1  0
 13 35  1  0
 18 36  1  0
 22 37  1  0
 22 38  1  0
 24 39  1  0
 25 40  1  0
 26 41  1  0
M  CHG  1  21  -1
M  END
>  <UniqueID>  (19) 
17

>  <SMILES>  (19) 
O=C(Cn1c(=O)ccn(Cc2ccc(Cl)c(F)c2)c1=O)[N-]Cc1ccco1

>  <Energy>  (19) 
69.46150802181425

>  <Genealogy>  (19) 
O=C(Cn1c(=O)ccn(Cc2ccc(Cl)c(F)c2)c1=O)[N-]Cc1ccco1 (protonated)
O=C(Cn1c(=O)ccn(Cc2ccc(Cl)c(F)c2)c1=O)[N-]Cc1ccco1 (3D coordinates assigned)
O=C(Cn1c(=O)ccn(Cc2ccc(Cl)c(F)c2)c1=O)[N-]Cc1ccco1 (optimized conformer: 69.46150802181425 kcal/mol)

>  <smiles>  (19) 
O=C(Cn1c(=O)ccn(Cc2ccc(Cl)c(F)c2)c1=O)NCc1ccco1

>  <score_type>  (19) 
oracle

>  <origin>  (19) 
adgpu

>  <m_score__min__energy>  (19) 
-10.199999999999999

>  <m_primary>  (19) 
energy

$$$$
19:0
     RDKit          3D

 48 52  0  0  0  0  0  0  0  0999 V2000
   -2.6450   19.5250  -33.8890 C   0  0  0  0  0  0  0  0  0  0  0  0
   -2.4100   18.2410  -33.0650 C   0  0  2  0  0  0  0  0  0  0  0  0
   -0.9690   17.6810  -33.3540 C   0  0  0  0  0  0  0  0  0  0  0  0
   -0.9440   16.2620  -33.7480 N   0  0  0  0  0  0  0  0  0  0  0  0
   -1.8670   15.4710  -32.9450 C   0  0  0  0  0  0  0  0  0  0  0  0
   -3.2750   15.8150  -33.3960 C   0  0  0  0  0  0  0  0  0  0  0  0
   -3.5090   17.2660  -33.2950 N   0  0  0  0  0  0  0  0  0  0  0  0
   -4.8740   17.6970  -33.1340 C   0  0  0  0  0  0  0  0  0  0  0  0
   -5.9370   16.8920  -33.5780 C   0  0  0  0  0  0  0  0  0  0  0  0
   -7.2530   17.3160  -33.3820 C   0  0  0  0  0  0  0  0  0  0  0  0
   -7.5020   18.5470  -32.7510 C   0  0  0  0  0  0  0  0  0  0  0  0
   -8.8130   18.9910  -32.5300 C   0  0  0  0  0  0  0  0  0  0  0  0
   -9.0390   20.2110  -31.8880 C   0  0  0  0  0  0  0  0  0  0  0  0
   -7.9620   20.9910  -31.4580 C   0  0  0  0  0  0  0  0  0  0  0  0
   -6.6370   20.5740  -31.6750 C   0  0  0  0  0  0  0  0  0  0  0  0
   -5.5210   21.4370  -31.2160 C   0  0  0  0  0  0  0  0  0  0  0  0
   -5.6080   22.8050  -30.9370 C   0  0  0  0  0  0  0  0  0  0  0  0
   -4.3470   23.1650  -30.5080 C   0  0  0  0  0  0  0  0  0  0  0  0
   -3.8530   24.3960  -30.0790 C   0  0  0  0  0  0  0  0  0  0  0  0
   -2.5020   24.4640  -29.6760 C   0  0  0  0  0  0  0  0  0  0  0  0
   -1.9720   25.6700  -29.2290 O   0  0  0  0  0  0  0  0  0  0  0  0
   -1.6870   23.3090  -29.7190 C   0  0  0  0  0  0  0  0  0  0  0  0
   -2.2180   22.0780  -30.1530 C   0  0  0  0  0  0  0  0  0  0  0  0
   -3.5630   22.0420  -30.5380 C   0  0  0  0  0  0  0  0  0  0  0  0
   -4.2680   20.9770  -30.9650 N   0  0  0  0  0  0  0  0  0  0  0  0
   -6.4080   19.3400  -32.3240 C   0  0  0  0  0  0  0  0  0  0  0  0
   -5.1400   18.8840  -32.5180 N   0  0  0  0  0  0  0  0  0  0  0  0
   -2.8005   20.3745  -33.2077 H   0  0  0  0  0  0  0  0  0  0  0  0
   -1.7675   19.7194  -34.5232 H   0  0  0  0  0  0  0  0  0  0  0  0
   -3.5345   19.3960  -34.5232 H   0  0  0  0  0  0  0  0  0  0  0  0
   -2.4408   18.4631  -31.9881 H   0  0  0  0  0  0  0  0  0  0  0  0
   -0.5247   18.2734  -34.1674 H   0  0  0  0  0  0  0  0  0  0  0  0
   -0.4033   17.7596  -32.4139 H   0  0  0  0  0  0  0  0  0  0  0  0
    0.0270   15.8900  -33.6080 H   0  0  0  0  0  0  0  0  0  0  0  0
   -1.6748   14.3989  -33.0989 H   0  0  0  0  0  0  0  0  0  0  0  0
   -1.7379   15.6929  -31.8754 H   0  0  0  0  0  0  0  0  0  0  0  0
   -3.4078   15.4988  -34.4412 H   0  0  0  0  0  0  0  0  0  0  0  0
   -3.9939   15.2927  -32.7476 H   0  0  0  0  0  0  0  0  0  0  0  0
   -5.7335   15.9332  -34.0772 H   0  0  0  0  0  0  0  0  0  0  0  0
   -8.0913   16.6892  -33.7201 H   0  0  0  0  0  0  0  0  0  0  0  0
   -9.6642   18.3786  -32.8622 H   0  0  0  0  0  0  0  0  0  0  0  0
  -10.0689   20.5591  -31.7202 H   0  0  0  0  0  0  0  0  0  0  0  0
   -8.1536   21.9439  -30.9429 H   0  0  0  0  0  0  0  0  0  0  0  0
   -6.4908   23.4535  -31.0378 H   0  0  0  0  0  0  0  0  0  0  0  0
   -4.4968   25.2876  -30.0553 H   0  0  0  0  0  0  0  0  0  0  0  0
   -0.6326   23.3719  -29.4119 H   0  0  0  0  0  0  0  0  0  0  0  0
   -1.5942   21.1727  -30.1881 H   0  0  0  0  0  0  0  0  0  0  0  0
   -3.9200   19.9990  -31.0800 H   0  0  0  0  0  0  0  0  0  0  0  0
  1  2  1  0
  2  3  1  0
  3  4  1  0
  4  5  1  0
  5  6  1  0
  6  7  1  0
  7  8  1  0
  8  9  2  0
  9 10  1  0
 10 11  2  0
 11 12  1  0
 12 13  2  0
 13 14  1  0
 14 15  2  0
 15 16  1  0
 16 17  2  0
 17 18  1  0
 18 19  2  0
 19 20  1  0
 20 21  1  0
 20 22  2  0
 22 23  1  0
 23 24  2  0
 24 25  1  0
 15 26  1  0
 26 27  2  0
  7  2  1  0
 27  8  1  0
 26 11  1  0
 25 16  1  0
 24 18  1  0
  1 28  1  0
  1 29  1  0
  1 30  1  0
  2 31  1  1
  3 32  1  0
  3 33  1  0
  4 34  1  0
  5 35  1  0
  5 36  1  0
  6 37  1  0
  6 38  1  0
  9 39  1  0
 10 40  1  0
 12 41  1  0
 13 42  1  0
 14 43  1  0
 17 44  1  0
 19 45  1  0
 22 46  1  0
 23 47  1  0
 25 48  1  0
M  CHG  1  21  -1
M  END
>  <UniqueID>  (20) 
18

>  <SMILES>  (20) 
C[C@@H]1CNCCN1c1ccc2cccc(-c3cc4cc([O-])ccc4[nH]3)c2n1

>  <Energy>  (20) 
101.65708592560787

>  <Genealogy>  (20) 
CC1CNCCN1c1ccc2cccc(-c3cc4cc([O-])ccc4[nH]3)c2n1 (protonated)
C[C@@H]1CNCCN1c1ccc2cccc(-c3cc4cc([O-])ccc4[nH]3)c2n1 (chirality)
C[C@@H]1CNCCN1c1ccc2cccc(-c3cc4cc([O-])ccc4[nH]3)c2n1 (3D coordinates assigned)
C[C@@H]1CNCCN1c1ccc2cccc(-c3cc4cc([O-])ccc4[nH]3)c2n1 (nonaromatic ring conformer: 101.65708592560787 kcal/mol)

>  <smiles>  (20) 
CC1CNCCN1c1ccc2cccc(-c3cc4cc(O)ccc4[nH]3)c2n1

>  <score_type>  (20) 
oracle

>  <origin>  (20) 
adgpu

>  <m_score__min__energy>  (20) 
-11.25

>  <m_primary>  (20) 
energy

$$$$
20:0
     RDKit          3D

 35 37  0  0  1  0  0  0  0  0999 V2000
   -8.5600   21.6300  -31.3060 C   0  0  0  0  0  0  0  0  0  0  0  0
   -7.1060   21.7540  -31.3530 C   0  0  0  0  0  0  0  0  0  0  0  0
   -6.3260   20.7370  -31.9030 C   0  0  0  0  0  0  0  0  0  0  0  0
   -4.9440   20.8320  -31.9590 C   0  0  0  0  0  0  0  0  0  0  0  0
   -4.3140   19.8290  -32.4920 N   0  0  0  0  0  0  0  0  0  0  0  0
   -5.0670   18.7140  -32.9770 C   0  0  0  0  0  0  0  0  0  0  0  0
   -5.5590   17.7400  -32.1140 C   0  0  0  0  0  0  0  0  0  0  0  0
   -6.2720   16.7070  -32.6730 C   0  0  0  0  0  0  0  0  0  0  0  0
   -6.5070   16.6160  -34.0430 C   0  0  0  0  0  0  0  0  0  0  0  0
   -7.2240   15.5780  -34.6100 O   0  0  0  0  0  0  0  0  0  0  0  0
   -6.0120   17.5910  -34.8910 C   0  0  0  0  0  0  0  0  0  0  0  0
   -5.2930   18.6350  -34.3330 C   0  0  0  0  0  0  0  0  0  0  0  0
   -4.2980   21.9120  -31.4820 N   0  0  0  0  0  0  0  0  0  0  0  0
   -5.0190   22.9030  -30.9490 C   0  0  0  0  0  0  0  0  0  0  0  0
   -4.3780   24.0150  -30.4570 C   0  0  0  0  0  0  0  0  0  0  0  0
   -3.1140   24.2030  -30.4580 N   0  0  0  0  0  0  0  0  0  0  0  0
   -5.1360   25.0120  -29.9180 N   0  0  0  0  0  0  0  0  0  0  0  0
   -6.4780   24.9290  -29.8590 C   0  0  0  0  0  0  0  0  0  0  0  0
   -7.1700   25.8960  -29.3390 N   0  0  0  0  0  0  0  0  0  0  0  0
   -7.1210   23.8480  -30.3360 N   0  0  0  0  0  0  0  0  0  0  0  0
   -6.3980   22.8540  -30.8720 C   0  0  0  0  0  0  0  0  0  0  0  0
   -8.8919   21.6017  -30.2576 H   0  0  0  0  0  0  0  0  0  0  0  0
   -9.0181   22.4923  -31.8125 H   0  0  0  0  0  0  0  0  0  0  0  0
   -8.8655   20.7025  -31.8125 H   0  0  0  0  0  0  0  0  0  0  0  0
   -6.8190   19.8382  -32.3018 H   0  0  0  0  0  0  0  0  0  0  0  0
   -5.3845   17.7946  -31.0293 H   0  0  0  0  0  0  0  0  0  0  0  0
   -6.6722   15.9225  -32.0140 H   0  0  0  0  0  0  0  0  0  0  0  0
   -6.8400   14.6500  -34.5270 H   0  0  0  0  0  0  0  0  0  0  0  0
   -6.1844   17.5385  -35.9761 H   0  0  0  0  0  0  0  0  0  0  0  0
   -4.8923   19.4211  -34.9898 H   0  0  0  0  0  0  0  0  0  0  0  0
   -3.2670   21.9480  -31.5400 H   0  0  0  0  0  0  0  0  0  0  0  0
   -2.3870   23.5700  -30.8180 H   0  0  0  0  0  0  0  0  0  0  0  0
   -4.6830   25.8720  -29.5330 H   0  0  0  0  0  0  0  0  0  0  0  0
   -6.7000   26.7440  -28.9620 H   0  0  0  0  0  0  0  0  0  0  0  0
   -8.1630   23.8420  -30.2630 H   0  0  0  0  0  0  0  0  0  0  0  0
  1  2  1  0
  2  3  2  0
  3  4  1  0
  4  5  2  0
  5  6  1  0
  6  7  2  0
  7  8  1  0
  8  9  2  0
  9 10  1  0
  9 11  1  0
 11 12  2  0
  4 13  1  0
 13 14  1  0
 14 15  1  0
 15 16  2  3
 15 17  1  0
 17 18  1  0
 18 19  2  3
 18 20  1  0
 20 21  1  0
 21  2  1  0
 12  6  1  0
 21 14  2  0
  1 22  1  0
  1 23  1  0
  1 24  1  0
  3 25  1  0
  7 26  1  0
  8 27  1  0
 10 28  1  0
 11 29  1  0
 12 30  1  0
 13 31  1  0
 16 32  1  0
 17 33  1  0
 19 34  1  0
 20 35  1  0
M  END
>  <smiles>  (21) 
Cc1cc(=Nc2ccc(O)cc2)[nH]c2c(=N)[nH]c(=N)[nH]c12

>  <score_type>  (21) 
oracle

>  <origin>  (21) 
adgpu

>  <m_score__min__energy>  (21) 
-7.5199999999999996

>  <m_primary>  (21) 
energy

$$$$
21:0
     RDKit          3D

 47 50  0  0  0  0  0  0  0  0999 V2000
   -1.4850   24.9660  -26.6850 C   0  0  0  0  0  0  0  0  0  0  0  0
   -1.8880   24.7080  -28.0970 C   0  0  0  0  0  0  0  0  0  0  0  0
   -1.9280   25.6640  -28.9180 O   0  0  0  0  0  0  0  0  0  0  0  0
   -2.3270   23.3970  -28.4740 N   0  0  0  0  0  0  0  0  0  0  0  0
   -1.5060   22.3230  -28.9550 C   0  0  0  0  0  0  0  0  0  0  0  0
   -0.8730   21.4940  -28.0210 C   0  0  0  0  0  0  0  0  0  0  0  0
   -0.0300   20.4650  -28.4450 C   0  0  0  0  0  0  0  0  0  0  0  0
    0.2060   20.2700  -29.8080 C   0  0  0  0  0  0  0  0  0  0  0  0
   -0.3900   21.1050  -30.7580 C   0  0  0  0  0  0  0  0  0  0  0  0
   -0.0810   20.8920  -32.1130 O   0  0  0  0  0  0  0  0  0  0  0  0
   -0.8830   20.1550  -33.0390 C   0  0  0  0  0  0  0  0  0  0  0  0
   -2.3510   20.4270  -32.8290 C   0  0  0  0  0  0  0  0  0  0  0  0
   -3.1110   19.5900  -31.9960 C   0  0  0  0  0  0  0  0  0  0  0  0
   -4.4570   19.8750  -31.7500 C   0  0  0  0  0  0  0  0  0  0  0  0
   -5.0570   21.0000  -32.3340 C   0  0  0  0  0  0  0  0  0  0  0  0
   -6.4590   21.3380  -32.0220 C   0  0  0  0  0  0  0  0  0  0  0  0
   -7.4630   20.4400  -32.4210 C   0  0  0  0  0  0  0  0  0  0  0  0
   -8.8090   20.7420  -32.2130 C   0  0  0  0  0  0  0  0  0  0  0  0
   -9.1690   21.9450  -31.6070 C   0  0  0  0  0  0  0  0  0  0  0  0
   -8.1840   22.8430  -31.1920 C   0  0  0  0  0  0  0  0  0  0  0  0
   -6.8200   22.5520  -31.3760 C   0  0  0  0  0  0  0  0  0  0  0  0
   -5.8120   23.5100  -30.8500 C   0  0  0  0  0  0  0  0  0  0  0  0
   -5.2900   24.5270  -31.5680 N   0  0  0  0  0  0  0  0  0  0  0  0
   -4.4740   25.1530  -30.7360 N   0  0  0  0  0  0  0  0  0  0  0  0
   -4.5070   24.5470  -29.5620 N   0  0  0  0  0  0  0  0  0  0  0  0
   -5.3360   23.5180  -29.5900 N   0  0  0  0  0  0  0  0  0  0  0  0
   -4.3130   21.8060  -33.2080 C   0  0  0  0  0  0  0  0  0  0  0  0
   -2.9700   21.5180  -33.4600 C   0  0  0  0  0  0  0  0  0  0  0  0
   -1.2570   22.1290  -30.3270 C   0  0  0  0  0  0  0  0  0  0  0  0
   -2.2131   24.4999  -26.0049 H   0  0  0  0  0  0  0  0  0  0  0  0
   -0.4880   24.5378  -26.5042 H   0  0  0  0  0  0  0  0  0  0  0  0
   -1.4565   26.0507  -26.5042 H   0  0  0  0  0  0  0  0  0  0  0  0
   -1.0410   21.6545  -26.9458 H   0  0  0  0  0  0  0  0  0  0  0  0
    0.4489   19.8070  -27.7049 H   0  0  0  0  0  0  0  0  0  0  0  0
    0.8657   19.4533  -30.1364 H   0  0  0  0  0  0  0  0  0  0  0  0
   -0.6074   20.4466  -34.0632 H   0  0  0  0  0  0  0  0  0  0  0  0
   -0.7020   19.0820  -32.8781 H   0  0  0  0  0  0  0  0  0  0  0  0
   -2.6451   18.7065  -31.5352 H   0  0  0  0  0  0  0  0  0  0  0  0
   -5.0471   19.2154  -31.0968 H   0  0  0  0  0  0  0  0  0  0  0  0
   -7.1854   19.4903  -32.9017 H   0  0  0  0  0  0  0  0  0  0  0  0
   -9.5868   20.0305  -32.5273 H   0  0  0  0  0  0  0  0  0  0  0  0
  -10.2313   22.1870  -31.4556 H   0  0  0  0  0  0  0  0  0  0  0  0
   -8.4780   23.7897  -30.7153 H   0  0  0  0  0  0  0  0  0  0  0  0
   -3.9550   24.8420  -28.7270 H   0  0  0  0  0  0  0  0  0  0  0  0
   -4.7893   22.6686  -33.6970 H   0  0  0  0  0  0  0  0  0  0  0  0
   -2.3952   22.1478  -34.1550 H   0  0  0  0  0  0  0  0  0  0  0  0
   -1.7426   22.7813  -31.0678 H   0  0  0  0  0  0  0  0  0  0  0  0
  1  2  1  0
  2  3  2  0
  2  4  1  0
  4  5  1  0
  5  6  2  0
  6  7  1  0
  7  8  2  0
  8  9  1  0
  9 10  1  0
 10 11  1  0
 11 12  1  0
 12 13  2  0
 13 14  1  0
 14 15  2  0
 15 16  1  0
 16 17  2  0
 17 18  1  0
 18 19  2  0
 19 20  1  0
 20 21  2  0
 21 22  1  0
 22 23  1  0
 23 24  2  0
 24 25  1  0
 25 26  1  0
 15 27  1  0
 27 28  2  0
  9 29  2  0
 29  5  1  0
 28 12  1  0
 21 16  1  0
 26 22  2  0
  1 30  1  0
  1 31  1  0
  1 32  1  0
  6 33  1  0
  7 34  1  0
  8 35  1  0
 11 36  1  0
 11 37  1  0
 13 38  1  0
 14 39  1  0
 17 40  1  0
 18 41  1  0
 19 42  1  0
 20 43  1  0
 25 44  1  0
 27 45  1  0
 28 46  1  0
 29 47  1  0
M  CHG  1   4  -1
M  END
>  <UniqueID>  (22) 
19

>  <SMILES>  (22) 
CC(=O)[N-]c1cccc(OCc2ccc(-c3ccccc3-c3nn[nH]n3)cc2)c1

>  <Energy>  (22) 
99.98504754438592

>  <Genealogy>  (22) 
CC(=O)[N-]c1cccc(OCc2ccc(-c3ccccc3-c3nn[nH]n3)cc2)c1 (protonated)
CC(=O)[N-]c1cccc(OCc2ccc(-c3ccccc3-c3nn[nH]n3)cc2)c1 (3D coordinates assigned)
CC(=O)[N-]c1cccc(OCc2ccc(-c3ccccc3-c3nn[nH]n3)cc2)c1 (optimized conformer: 99.98504754438592 kcal/mol)

>  <smiles>  (22) 
CC(=O)Nc1cccc(OCc2ccc(-c3ccccc3-c3nn[nH]n3)cc2)c1

>  <score_type>  (22) 
oracle

>  <origin>  (22) 
adgpu

>  <m_score__min__energy>  (22) 
-11.029999999999999

>  <m_primary>  (22) 
energy

$$$$
22:0
     RDKit          3D

 38 40  0  0  0  0  0  0  0  0999 V2000
   -5.6340   14.8270  -33.8690 C   0  0  0  0  0  0  0  0  0  0  0  0
   -6.8710   15.6540  -34.2160 C   0  0  0  0  0  0  0  0  0  0  0  0
   -6.7520   17.0360  -33.7050 N   0  0  0  0  0  0  0  0  0  0  0  0
   -5.9220   17.8510  -34.6100 C   0  0  0  0  0  0  0  0  0  0  0  0
   -6.0620   19.3220  -34.2180 C   0  0  0  0  0  0  0  0  0  0  0  0
   -5.9290   19.4890  -32.7680 N   0  0  0  0  0  0  0  0  0  0  0  0
   -6.2150   20.7730  -32.1840 C   0  0  0  0  0  0  0  0  0  0  0  0
   -5.1780   21.5560  -31.7780 N   0  0  0  0  0  0  0  0  0  0  0  0
   -5.3650   22.7800  -31.2200 C   0  0  0  0  0  0  0  0  0  0  0  0
   -4.2640   23.5490  -30.8250 C   0  0  0  0  0  0  0  0  0  0  0  0
   -4.4600   24.8090  -30.2520 C   0  0  0  0  0  0  0  0  0  0  0  0
   -5.7550   25.3060  -30.0730 C   0  0  0  0  0  0  0  0  0  0  0  0
   -6.8620   24.5440  -30.4640 C   0  0  0  0  0  0  0  0  0  0  0  0
   -6.6720   23.2790  -31.0390 C   0  0  0  0  0  0  0  0  0  0  0  0
   -7.7580   22.4890  -31.4340 C   0  0  0  0  0  0  0  0  0  0  0  0
   -7.5400   21.2290  -32.0040 C   0  0  0  0  0  0  0  0  0  0  0  0
   -8.6780   20.4100  -32.3380 C   0  0  0  0  0  0  0  0  0  0  0  0
   -9.5930   19.7530  -32.6050 N   0  0  0  0  0  0  0  0  0  0  0  0
   -5.4920   18.3610  -31.9380 C   0  0  0  0  0  0  0  0  0  0  0  0
   -6.2430   17.0650  -32.3080 C   0  0  0  0  0  0  0  0  0  0  0  0
   -5.5330   14.7594  -32.7757 H   0  0  0  0  0  0  0  0  0  0  0  0
   -5.7384   13.8164  -34.2907 H   0  0  0  0  0  0  0  0  0  0  0  0
   -4.7401   15.3097  -34.2907 H   0  0  0  0  0  0  0  0  0  0  0  0
   -6.9867   15.6847  -35.3095 H   0  0  0  0  0  0  0  0  0  0  0  0
   -7.7471   15.1835  -33.7458 H   0  0  0  0  0  0  0  0  0  0  0  0
   -4.8693   17.5440  -34.5228 H   0  0  0  0  0  0  0  0  0  0  0  0
   -6.2528   17.7086  -35.6494 H   0  0  0  0  0  0  0  0  0  0  0  0
   -5.2775   19.9057  -34.7217 H   0  0  0  0  0  0  0  0  0  0  0  0
   -7.0579   19.6752  -34.5238 H   0  0  0  0  0  0  0  0  0  0  0  0
   -3.2441   23.1616  -30.9655 H   0  0  0  0  0  0  0  0  0  0  0  0
   -3.5935   25.4111  -29.9411 H   0  0  0  0  0  0  0  0  0  0  0  0
   -5.9040   26.2989  -29.6235 H   0  0  0  0  0  0  0  0  0  0  0  0
   -7.8795   24.9367  -30.3205 H   0  0  0  0  0  0  0  0  0  0  0  0
   -8.7847   22.8589  -31.2963 H   0  0  0  0  0  0  0  0  0  0  0  0
   -4.4134   18.2043  -32.0864 H   0  0  0  0  0  0  0  0  0  0  0  0
   -5.7110   18.5997  -30.8868 H   0  0  0  0  0  0  0  0  0  0  0  0
   -5.5556   16.2169  -32.1731 H   0  0  0  0  0  0  0  0  0  0  0  0
   -7.1219   17.0085  -31.6489 H   0  0  0  0  0  0  0  0  0  0  0  0
  1  2  1  0
  2  3  1  0
  3  4  1  0
  4  5  1  0
  5  6  1  0
  6  7  1  0
  7  8  2  0
  8  9  1  0
  9 10  2  0
 10 11  1  0
 11 12  2  0
 12 13  1  0
 13 14  2  0
 14 15  1  0
 15 16  2  0
 16 17  1  0
 17 18  3  0
  6 19  1  0
 19 20  1  0
 20  3  1  0
 16  7  1  0
 14  9  1  0
  1 21  1  0
  1 22  1  0
  1 23  1  0
  2 24  1  0
  2 25  1  0
  4 26  1  0
  4 27  1  0
  5 28  1  0
  5 29  1  0
 10 30  1  0
 11 31  1  0
 12 32  1  0
 13 33  1  0
 15 34  1  0
 19 35  1  0
 19 36  1  0
 20 37  1  0
 20 38  1  0
M  END
>  <UniqueID>  (23) 
20

>  <SMILES>  (23) 
CCN1CCN(c2nc3ccccc3cc2C#N)CC1

>  <Energy>  (23) 
50.9404844047125

>  <Genealogy>  (23) 
CCN1CCN(c2nc3ccccc3cc2C#N)CC1 (3D coordinates assigned)
CCN1CCN(c2nc3ccccc3cc2C#N)CC1 (nonaromatic ring conformer: 50.9404844047125 kcal/mol)

>  <smiles>  (23) 
CCN1CCN(c2nc3ccccc3cc2C#N)CC1

>  <score_type>  (23) 
oracle

>  <origin>  (23) 
adgpu

>  <m_score__min__energy>  (23) 
-7.6600000000000001

>  <m_primary>  (23) 
energy

$$$$
23:0
     RDKit          3D

 74 78  0  0  0  0  0  0  0  0999 V2000
   -9.5970   19.2860  -33.0780 N   0  0  0  0  0  0  0  0  0  0  0  0
   -8.5260   18.6970  -32.3330 C   0  0  0  0  0  0  0  0  0  0  0  0
   -8.7690   18.1770  -31.1650 N   0  0  0  0  0  0  0  0  0  0  0  0
   -7.1530   18.6760  -32.9000 C   0  0  0  0  0  0  0  0  0  0  0  0
   -6.4850   19.8800  -33.1740 C   0  0  0  0  0  0  0  0  0  0  0  0
   -5.1950   19.8660  -33.7060 C   0  0  0  0  0  0  0  0  0  0  0  0
   -4.5540   18.6540  -33.9650 C   0  0  0  0  0  0  0  0  0  0  0  0
   -5.1950   17.4370  -33.6890 C   0  0  0  0  0  0  0  0  0  0  0  0
   -4.5010   16.2030  -33.9610 N   0  0  0  0  0  0  0  0  0  0  0  0
   -3.7830   15.4180  -32.9550 C   0  0  0  0  0  0  0  0  0  0  0  0
   -2.3050   15.6970  -33.0240 C   0  0  0  0  0  0  0  0  0  0  0  0
   -1.3720   14.7170  -32.6520 C   0  0  0  0  0  0  0  0  0  0  0  0
   -0.0040   14.9910  -32.7070 C   0  0  0  0  0  0  0  0  0  0  0  0
    0.4450   16.2400  -33.1400 C   0  0  0  0  0  0  0  0  0  0  0  0
   -0.4720   17.2310  -33.5300 C   0  0  0  0  0  0  0  0  0  0  0  0
    0.0040   18.5560  -34.0030 C   0  0  0  0  0  0  0  0  0  0  0  0
    1.3670   18.8910  -33.9360 C   0  0  0  0  0  0  0  0  0  0  0  0
    1.8140   20.1400  -34.3790 C   0  0  0  0  0  0  0  0  0  0  0  0
    0.9080   21.0760  -34.9050 C   0  0  0  0  0  0  0  0  0  0  0  0
    1.3820   22.3990  -35.3820 C   0  0  0  0  0  0  0  0  0  0  0  0
    0.5020   23.2770  -36.0380 C   0  0  0  0  0  0  0  0  0  0  0  0
    0.9450   24.5260  -36.4820 C   0  0  0  0  0  0  0  0  0  0  0  0
    2.2720   24.9250  -36.2660 C   0  0  0  0  0  0  0  0  0  0  0  0
    2.7480   26.2810  -36.7200 C   0  0  0  0  0  0  0  0  0  0  0  0
    1.7140   27.0430  -37.5840 C   0  0  0  0  0  0  0  0  0  0  0  0
    0.5210   27.5540  -36.8670 N   0  0  0  0  0  0  0  0  0  0  0  0
   -0.7680   27.0310  -37.3520 C   0  0  0  0  0  0  0  0  0  0  0  0
   -1.9210   27.9410  -36.8910 C   0  0  0  0  0  0  0  0  0  0  0  0
   -1.6040   28.6790  -35.5790 C   0  0  0  0  0  0  0  0  0  0  0  0
   -0.6830   27.8490  -34.6810 C   0  0  0  0  0  0  0  0  0  0  0  0
    0.6490   27.5290  -35.3920 C   0  0  0  0  0  0  0  0  0  0  0  0
    3.1560   24.0470  -35.6210 C   0  0  0  0  0  0  0  0  0  0  0  0
    2.7150   22.7950  -35.1840 C   0  0  0  0  0  0  0  0  0  0  0  0
   -0.4550   20.7390  -34.9750 C   0  0  0  0  0  0  0  0  0  0  0  0
   -0.9030   19.4940  -34.5260 C   0  0  0  0  0  0  0  0  0  0  0  0
   -1.8490   16.9480  -33.4700 C   0  0  0  0  0  0  0  0  0  0  0  0
   -6.5000   17.4570  -33.1600 C   0  0  0  0  0  0  0  0  0  0  0  0
  -10.5750   19.2650  -32.7140 H   0  0  0  0  0  0  0  0  0  0  0  0
   -9.4180   19.7810  -33.9810 H   0  0  0  0  0  0  0  0  0  0  0  0
   -9.7340   18.1950  -30.7650 H   0  0  0  0  0  0  0  0  0  0  0  0
   -8.0240   17.7030  -30.6060 H   0  0  0  0  0  0  0  0  0  0  0  0
   -6.9813   20.8399  -32.9682 H   0  0  0  0  0  0  0  0  0  0  0  0
   -4.6813   20.8144  -33.9221 H   0  0  0  0  0  0  0  0  0  0  0  0
   -3.5388   18.6527  -34.3886 H   0  0  0  0  0  0  0  0  0  0  0  0
   -4.4410   15.8750  -34.9510 H   0  0  0  0  0  0  0  0  0  0  0  0
   -4.1553   15.6843  -31.9548 H   0  0  0  0  0  0  0  0  0  0  0  0
   -3.9525   14.3489  -33.1507 H   0  0  0  0  0  0  0  0  0  0  0  0
   -1.7198   13.7291  -32.3158 H   0  0  0  0  0  0  0  0  0  0  0  0
    0.7221   14.2205  -32.4083 H   0  0  0  0  0  0  0  0  0  0  0  0
    1.5242   16.4499  -33.1762 H   0  0  0  0  0  0  0  0  0  0  0  0
    2.0881   18.1652  -33.5320 H   0  0  0  0  0  0  0  0  0  0  0  0
    2.8830   20.3913  -34.3151 H   0  0  0  0  0  0  0  0  0  0  0  0
   -0.5438   22.9787  -36.2033 H   0  0  0  0  0  0  0  0  0  0  0  0
    0.2492   25.1996  -37.0036 H   0  0  0  0  0  0  0  0  0  0  0  0
    2.9716   26.8872  -35.8297 H   0  0  0  0  0  0  0  0  0  0  0  0
    3.6359   26.1176  -37.3484 H   0  0  0  0  0  0  0  0  0  0  0  0
    2.2256   27.9024  -38.0419 H   0  0  0  0  0  0  0  0  0  0  0  0
    1.3333   26.3085  -38.3089 H   0  0  0  0  0  0  0  0  0  0  0  0
   -0.7535   26.9923  -38.4512 H   0  0  0  0  0  0  0  0  0  0  0  0
   -0.9222   26.0222  -36.9415 H   0  0  0  0  0  0  0  0  0  0  0  0
   -2.1170   28.6863  -37.6759 H   0  0  0  0  0  0  0  0  0  0  0  0
   -2.7979   27.3019  -36.7102 H   0  0  0  0  0  0  0  0  0  0  0  0
   -1.1095   29.6328  -35.8151 H   0  0  0  0  0  0  0  0  0  0  0  0
   -2.5481   28.8520  -35.0417 H   0  0  0  0  0  0  0  0  0  0  0  0
   -0.4722   28.4154  -33.7619 H   0  0  0  0  0  0  0  0  0  0  0  0
   -1.1884   26.9010  -34.4448 H   0  0  0  0  0  0  0  0  0  0  0  0
    1.3990   28.2747  -35.0897 H   0  0  0  0  0  0  0  0  0  0  0  0
    0.9505   26.5127  -35.0984 H   0  0  0  0  0  0  0  0  0  0  0  0
    4.2021   24.3458  -35.4584 H   0  0  0  0  0  0  0  0  0  0  0  0
    3.4174   22.1142  -34.6809 H   0  0  0  0  0  0  0  0  0  0  0  0
   -1.1750   21.4616  -35.3867 H   0  0  0  0  0  0  0  0  0  0  0  0
   -1.9732   19.2461  -34.5822 H   0  0  0  0  0  0  0  0  0  0  0  0
   -2.5760   17.7148  -33.7757 H   0  0  0  0  0  0  0  0  0  0  0  0
   -7.0149   16.5085  -32.9475 H   0  0  0  0  0  0  0  0  0  0  0  0
  1  2  1  0
  2  3  2  0
  2  4  1  0
  4  5  2  0
  5  6  1  0
  6  7  2  0
  7  8  1  0
  8  9  1  0
  9 10  1  0
 10 11  1  0
 11 12  2  0
 12 13  1  0
 13 14  2  0
 14 15  1  0
 15 16  1  0
 16 17  2  0
 17 18  1  0
 18 19  2  0
 19 20  1  0
 20 21  2  0
 21 22  1  0
 22 23  2  0
 23 24  1  0
 24 25  1  0
 25 26  1  0
 26 27  1  0
 27 28  1  0
 28 29  1  0
 29 30  1  0
 30 31  1  0
 23 32  1  0
 32 33  2  0
 19 34  1  0
 34 35  2  0
 15 36  2  0
  8 37  2  0
 37  4  1  0
 36 11  1  0
 35 16  1  0
 33 20  1  0
 31 26  1  0
  1 38  1  0
  1 39  1  0
  3 40  1  0
  3 41  1  0
  5 42  1  0
  6 43  1  0
  7 44  1  0
  9 45  1  0
 10 46  1  0
 10 47  1  0
 12 48  1  0
 13 49  1  0
 14 50  1  0
 17 51  1  0
 18 52  1  0
 21 53  1  0
 22 54  1  0
 24 55  1  0
 24 56  1  0
 25 57  1  0
 25 58  1  0
 27 59  1  0
 27 60  1  0
 28 61  1  0
 28 62  1  0
 29 63  1  0
 29 64  1  0
 30 65  1  0
 30 66  1  0
 31 67  1  0
 31 68  1  0
 32 69  1  0
 33 70  1  0
 34 71  1  0
 35 72  1  0
 36 73  1  0
 37 74  1  0
M  CHG  1   3   1
M  END
>  <UniqueID>  (24) 
21

>  <SMILES>  (24) 
NC(=[NH2+])c1cccc(NCc2cccc(-c3ccc(-c4ccc(CCN5CCCCC5)cc4)cc3)c2)c1

>  <Energy>  (24) 
98.2781389990118

>  <Genealogy>  (24) 
NC(=[NH2+])c1cccc(NCc2cccc(-c3ccc(-c4ccc(CCN5CCCCC5)cc4)cc3)c2)c1 (protonated)
NC(=[NH2+])c1cccc(NCc2cccc(-c3ccc(-c4ccc(CCN5CCCCC5)cc4)cc3)c2)c1 (3D coordinates assigned)
NC(=[NH2+])c1cccc(NCc2cccc(-c3ccc(-c4ccc(CCN5CCCCC5)cc4)cc3)c2)c1 (nonaromatic ring conformer: 98.2781389990118 kcal/mol)

>  <smiles>  (24) 
N=C(N)c1cccc(NCc2cccc(-c3ccc(-c4ccc(CCN5CCCCC5)cc4)cc3)c2)c1

>  <score_type>  (24) 
oracle

>  <origin>  (24) 
adgpu

>  <m_score__min__energy>  (24) 
-9.8300000000000001

>  <m_primary>  (24) 
energy

$$$$
24:0
     RDKit          3D

 32 34  0  0  0  0  0  0  0  0999 V2000
   -5.2640   23.1610  -29.4770 C   0  0  0  0  0  0  0  0  0  0  0  0
   -5.6690   24.2300  -30.8400 S   0  0  0  0  0  0  0  0  0  0  0  0
   -4.4920   25.1050  -31.1700 O   0  0  0  0  0  0  0  0  0  0  0  0
   -6.8290   25.1060  -30.4610 O   0  0  0  0  0  0  0  0  0  0  0  0
   -6.1080   23.2790  -32.2230 N   0  0  0  0  0  0  0  0  0  0  0  0
   -7.1430   22.2830  -32.1890 C   0  0  0  0  0  0  0  0  0  0  0  0
   -8.4500   22.6460  -31.8140 C   0  0  0  0  0  0  0  0  0  0  0  0
   -9.4920   21.7210  -31.8800 C   0  0  0  0  0  0  0  0  0  0  0  0
   -9.2480   20.4260  -32.3310 C   0  0  0  0  0  0  0  0  0  0  0  0
   -7.9580   20.0450  -32.7020 C   0  0  0  0  0  0  0  0  0  0  0  0
   -6.8910   20.9570  -32.6220 C   0  0  0  0  0  0  0  0  0  0  0  0
   -5.5310   20.4770  -32.9540 C   0  0  0  0  0  0  0  0  0  0  0  0
   -4.4430   21.2910  -32.9580 N   0  0  0  0  0  0  0  0  0  0  0  0
   -3.3330   20.6290  -33.3690 C   0  0  0  0  0  0  0  0  0  0  0  0
   -2.0640   21.2030  -33.4670 C   0  0  0  0  0  0  0  0  0  0  0  0
   -0.9960   20.4060  -33.9160 C   0  0  0  0  0  0  0  0  0  0  0  0
   -1.2070   19.0570  -34.2610 C   0  0  0  0  0  0  0  0  0  0  0  0
   -2.4890   18.4910  -34.1610 C   0  0  0  0  0  0  0  0  0  0  0  0
   -3.5280   19.3020  -33.7120 C   0  0  0  0  0  0  0  0  0  0  0  0
   -5.1460   18.9160  -33.5030 S   0  0  0  0  0  0  0  0  0  0  0  0
   -5.4620   23.6837  -28.5296 H   0  0  0  0  0  0  0  0  0  0  0  0
   -5.8797   22.2509  -29.5293 H   0  0  0  0  0  0  0  0  0  0  0  0
   -4.1999   22.8873  -29.5293 H   0  0  0  0  0  0  0  0  0  0  0  0
   -5.5450   23.4080  -33.0920 H   0  0  0  0  0  0  0  0  0  0  0  0
   -8.6519   23.6695  -31.4653 H   0  0  0  0  0  0  0  0  0  0  0  0
  -10.5074   22.0146  -31.5756 H   0  0  0  0  0  0  0  0  0  0  0  0
  -10.0739   19.7022  -32.3948 H   0  0  0  0  0  0  0  0  0  0  0  0
   -7.7741   19.0214  -33.0605 H   0  0  0  0  0  0  0  0  0  0  0  0
   -1.9029   22.2575  -33.1984 H   0  0  0  0  0  0  0  0  0  0  0  0
    0.0117   20.8394  -33.9984 H   0  0  0  0  0  0  0  0  0  0  0  0
   -0.3637   18.4433  -34.6106 H   0  0  0  0  0  0  0  0  0  0  0  0
   -2.6666   17.4391  -34.4293 H   0  0  0  0  0  0  0  0  0  0  0  0
  1  2  1  0
  2  3  2  0
  2  4  2  0
  2  5  1  0
  5  6  1  0
  6  7  2  0
  7  8  1  0
  8  9  2  0
  9 10  1  0
 10 11  2  0
 11 12  1  0
 12 13  2  0
 13 14  1  0
 14 15  2  0
 15 16  1  0
 16 17  2  0
 17 18  1  0
 18 19  2  0
 19 20  1  0
 11  6  1  0
 20 12  1  0
 19 14  1  0
  1 21  1  0
  1 22  1  0
  1 23  1  0
  5 24  1  0
  7 25  1  0
  8 26  1  0
  9 27  1  0
 10 28  1  0
 15 29  1  0
 16 30  1  0
 17 31  1  0
 18 32  1  0
M  END
>  <UniqueID>  (25) 
22

>  <SMILES>  (25) 
CS(=O)(=O)Nc1ccccc1-c1nc2ccccc2s1

>  <Energy>  (25) 
74.17582143994065

>  <Genealogy>  (25) 
CS(=O)(=O)Nc1ccccc1-c1nc2ccccc2s1 (3D coordinates assigned)
CS(=O)(=O)Nc1ccccc1-c1nc2ccccc2s1 (optimized conformer: 74.17582143994065 kcal/mol)

>  <smiles>  (25) 
CS(=O)(=O)Nc1ccccc1-c1nc2ccccc2s1

>  <score_type>  (25) 
oracle

>  <origin>  (25) 
adgpu

>  <m_score__min__energy>  (25) 
-8.5800000000000001

>  <m_primary>  (25) 
energy

$$$$
25:0
     RDKit          3D

 43 45  0  0  1  0  0  0  0  0999 V2000
   -5.0800   24.9600  -30.4490 C   0  0  0  0  0  0  0  0  0  0  0  0
   -4.7740   24.1050  -31.5180 O   0  0  0  0  0  0  0  0  0  0  0  0
   -5.5850   23.0220  -31.8130 C   0  0  0  0  0  0  0  0  0  0  0  0
   -6.9320   23.1590  -31.5910 C   0  0  0  0  0  0  0  0  0  0  0  0
   -7.7340   22.0980  -31.8790 C   0  0  0  0  0  0  0  0  0  0  0  0
   -9.0530   22.2280  -31.6620 N   0  0  0  0  0  0  0  0  0  0  0  0
   -9.8790   21.2090  -31.9330 C   0  0  0  0  0  0  0  0  0  0  0  0
   -9.3450   20.0860  -32.4150 N   0  0  0  0  0  0  0  0  0  0  0  0
   -8.0290   19.9160  -32.6450 C   0  0  0  0  0  0  0  0  0  0  0  0
   -7.6330   18.8450  -33.0930 N   0  0  0  0  0  0  0  0  0  0  0  0
   -6.4180   18.3480  -33.4310 C   0  0  0  0  0  0  0  0  0  0  0  0
   -5.8650   18.5770  -34.7150 C   0  0  0  0  0  0  0  0  0  0  0  0
   -4.5660   18.1440  -34.9640 C   0  0  0  0  0  0  0  0  0  0  0  0
   -3.8050   17.5030  -34.0060 C   0  0  0  0  0  0  0  0  0  0  0  0
   -2.1710   16.9740  -34.3640 Cl  0  0  0  0  0  0  0  0  0  0  0  0
   -4.3550   17.2850  -32.7570 C   0  0  0  0  0  0  0  0  0  0  0  0
   -5.6380   17.6930  -32.4560 C   0  0  0  0  0  0  0  0  0  0  0  0
   -6.3500   17.4230  -30.8760 Cl  0  0  0  0  0  0  0  0  0  0  0  0
   -7.1550   20.9380  -32.3800 C   0  0  0  0  0  0  0  0  0  0  0  0
   -5.8130   20.8230  -32.5930 C   0  0  0  0  0  0  0  0  0  0  0  0
   -4.9700   21.9110  -32.3000 C   0  0  0  0  0  0  0  0  0  0  0  0
   -3.5180   21.8720  -32.4980 C   0  0  0  0  0  0  0  0  0  0  0  0
   -2.9810   20.7250  -31.8420 N   0  0  0  0  0  0  0  0  0  0  0  0
   -2.9300   20.7940  -30.4170 C   0  0  0  0  0  0  0  0  0  0  0  0
   -1.8480   20.1340  -32.4790 C   0  0  0  0  0  0  0  0  0  0  0  0
   -4.8937   24.4393  -29.4981 H   0  0  0  0  0  0  0  0  0  0  0  0
   -4.4475   25.8582  -30.5053 H   0  0  0  0  0  0  0  0  0  0  0  0
   -6.1388   25.2530  -30.5053 H   0  0  0  0  0  0  0  0  0  0  0  0
   -7.3499   24.0956  -31.1933 H   0  0  0  0  0  0  0  0  0  0  0  0
   -9.4900   23.1040  -31.2850 H   0  0  0  0  0  0  0  0  0  0  0  0
  -10.9624   21.2956  -31.7635 H   0  0  0  0  0  0  0  0  0  0  0  0
   -6.4486   19.0851  -35.4968 H   0  0  0  0  0  0  0  0  0  0  0  0
   -4.1300   18.3184  -35.9587 H   0  0  0  0  0  0  0  0  0  0  0  0
   -3.7573   16.7755  -31.9868 H   0  0  0  0  0  0  0  0  0  0  0  0
   -5.3929   19.8874  -32.9906 H   0  0  0  0  0  0  0  0  0  0  0  0
   -3.2957   21.8171  -33.5739 H   0  0  0  0  0  0  0  0  0  0  0  0
   -3.0652   22.7817  -32.0768 H   0  0  0  0  0  0  0  0  0  0  0  0
   -3.5322   19.9792  -29.9887 H   0  0  0  0  0  0  0  0  0  0  0  0
   -1.8870   20.6941  -30.0822 H   0  0  0  0  0  0  0  0  0  0  0  0
   -3.3315   21.7618  -30.0822 H   0  0  0  0  0  0  0  0  0  0  0  0
   -1.1468   19.7683  -31.7144 H   0  0  0  0  0  0  0  0  0  0  0  0
   -2.1775   19.2929  -33.1067 H   0  0  0  0  0  0  0  0  0  0  0  0
   -1.3468   20.8855  -33.1067 H   0  0  0  0  0  0  0  0  0  0  0  0
  1  2  1  0
  2  3  1  0
  3  4  2  0
  4  5  1  0
  5  6  1  0
  6  7  1  0
  7  8  2  0
  8  9  1  0
  9 10  2  0
 10 11  1  0
 11 12  2  0
 12 13  1  0
 13 14  2  0
 14 15  1  0
 14 16  1  0
 16 17  2  0
 17 18  1  0
  9 19  1  0
 19 20  1  0
 20 21  2  0
 21 22  1  0
 22 23  1  0
 23 24  1  0
 23 25  1  0
 21  3  1  0
 19  5  2  0
 17 11  1  0
  1 26  1  0
  1 27  1  0
  1 28  1  0
  4 29  1  0
  6 30  1  0
  7 31  1  0
 12 32  1  0
 13 33  1  0
 16 34  1  0
 20 35  1  0
 22 36  1  0
 22 37  1  0
 24 38  1  0
 24 39  1  0
 24 40  1  0
 25 41  1  0
 25 42  1  0
 25 43  1  0
M  END
>  <smiles>  (26) 
COc1cc2[nH]cnc(=Nc3ccc(Cl)cc3Cl)c2cc1CN(C)C

>  <score_type>  (26) 
oracle

>  <origin>  (26) 
adgpu

>  <m_score__min__energy>  (26) 
-7.9100000000000001

>  <m_primary>  (26) 
energy

$$$$
26:0
     RDKit          3D

 39 41  0  0  1  0  0  0  0  0999 V2000
   -7.4120   18.2610  -32.5600 C   0  0  0  0  0  0  0  0  0  0  0  0
   -6.4670   19.6280  -33.2780 S   0  0  0  0  0  0  0  0  0  0  0  0
   -6.8360   21.1610  -32.4390 C   0  0  0  0  0  0  0  0  0  0  0  0
   -8.0860   21.4700  -31.9510 C   0  0  0  0  0  0  0  0  0  0  0  0
   -8.3750   22.6540  -31.3020 C   0  0  0  0  0  0  0  0  0  0  0  0
   -7.3320   23.5690  -31.1440 C   0  0  0  0  0  0  0  0  0  0  0  0
   -6.0920   23.2540  -31.6330 C   0  0  0  0  0  0  0  0  0  0  0  0
   -5.0560   24.2210  -31.4470 N   0  0  0  0  0  0  0  0  0  0  0  0
   -4.3120   24.0450  -30.3910 C   0  0  0  0  0  0  0  0  0  0  0  0
   -4.5310   22.9910  -29.5270 C   0  0  0  0  0  0  0  0  0  0  0  0
   -3.7650   22.7730  -28.4010 C   0  0  0  0  0  0  0  0  0  0  0  0
   -2.7540   23.6550  -28.1550 N   0  0  0  0  0  0  0  0  0  0  0  0
   -2.5220   24.6910  -28.9830 C   0  0  0  0  0  0  0  0  0  0  0  0
   -1.5620   25.4870  -28.7050 N   0  0  0  0  0  0  0  0  0  0  0  0
   -0.7430   25.3060  -27.5560 C   0  0  0  0  0  0  0  0  0  0  0  0
    0.3950   24.4960  -27.5980 C   0  0  0  0  0  0  0  0  0  0  0  0
    1.1990   24.3100  -26.4930 C   0  0  0  0  0  0  0  0  0  0  0  0
    0.8650   24.9520  -25.2970 C   0  0  0  0  0  0  0  0  0  0  0  0
    1.6840   24.7500  -24.2030 O   0  0  0  0  0  0  0  0  0  0  0  0
   -0.2710   25.7620  -25.2500 C   0  0  0  0  0  0  0  0  0  0  0  0
   -1.0780   25.9490  -26.3600 C   0  0  0  0  0  0  0  0  0  0  0  0
   -3.2990   24.8750  -30.0870 N   0  0  0  0  0  0  0  0  0  0  0  0
   -5.8040   22.0650  -32.2840 C   0  0  0  0  0  0  0  0  0  0  0  0
   -7.3695   18.3225  -31.4625 H   0  0  0  0  0  0  0  0  0  0  0  0
   -8.4592   18.3257  -32.8906 H   0  0  0  0  0  0  0  0  0  0  0  0
   -6.9816   17.3042  -32.8906 H   0  0  0  0  0  0  0  0  0  0  0  0
   -8.8950   20.7368  -32.0849 H   0  0  0  0  0  0  0  0  0  0  0  0
   -9.3859   22.8678  -30.9247 H   0  0  0  0  0  0  0  0  0  0  0  0
   -7.5037   24.5286  -30.6343 H   0  0  0  0  0  0  0  0  0  0  0  0
   -5.3531   22.2939  -29.7463 H   0  0  0  0  0  0  0  0  0  0  0  0
   -3.9611   21.9239  -27.7298 H   0  0  0  0  0  0  0  0  0  0  0  0
   -2.1990   23.4580  -27.2970 H   0  0  0  0  0  0  0  0  0  0  0  0
    0.6572   23.9920  -28.5400 H   0  0  0  0  0  0  0  0  0  0  0  0
    2.0892   23.6665  -26.5519 H   0  0  0  0  0  0  0  0  0  0  0  0
    1.4150   24.9640  -23.2550 H   0  0  0  0  0  0  0  0  0  0  0  0
   -0.5319   26.2647  -24.3070 H   0  0  0  0  0  0  0  0  0  0  0  0
   -1.9680   26.5928  -26.3019 H   0  0  0  0  0  0  0  0  0  0  0  0
   -3.0980   25.6740  -30.7010 H   0  0  0  0  0  0  0  0  0  0  0  0
   -4.7936   21.8501  -32.6621 H   0  0  0  0  0  0  0  0  0  0  0  0
  1  2  1  0
  2  3  1  0
  3  4  2  0
  4  5  1  0
  5  6  2  0
  6  7  1  0
  7  8  1  0
  8  9  2  0
  9 10  1  0
 10 11  2  0
 11 12  1  0
 12 13  1  0
 13 14  2  0
 14 15  1  0
 15 16  2  0
 16 17  1  0
 17 18  2  0
 18 19  1  0
 18 20  1  0
 20 21  2  0
 13 22  1  0
  7 23  2  0
 23  3  1  0
 22  9  1  0
 21 15  1  0
  1 24  1  0
  1 25  1  0
  1 26  1  0
  4 27  1  0
  5 28  1  0
  6 29  1  0
 10 30  1  0
 11 31  1  0
 12 32  1  0
 16 33  1  0
 17 34  1  0
 19 35  1  0
 20 36  1  0
 21 37  1  0
 22 38  1  0
 23 39  1  0
M  END
>  <smiles>  (27) 
CSc1cccc(N=c2cc[nH]c(=Nc3ccc(O)cc3)[nH]2)c1

>  <score_type>  (27) 
oracle

>  <origin>  (27) 
adgpu

>  <m_score__min__energy>  (27) 
-8.9399999999999995

>  <m_primary>  (27) 
energy

$$$$
27:0
     RDKit          3D

 46 48  0  0  0  0  0  0  0  0999 V2000
   -8.9720   18.4220  -33.3560 H   0  0  0  0  0  0  0  0  0  0  0  0
   -9.5280   19.2580  -33.0730 N   0  0  0  0  0  0  0  0  0  0  0  0
   -9.0170   20.3780  -32.6560 C   0  0  0  0  0  0  0  0  0  0  0  0
   -7.6130   20.5640  -32.5450 C   0  0  0  0  0  0  0  0  0  0  0  0
   -6.6650   19.4770  -32.8910 C   0  0  0  0  0  0  0  0  0  0  0  0
   -6.2440   19.3010  -34.2190 C   0  0  0  0  0  0  0  0  0  0  0  0
   -6.5875   19.9957  -34.9997 H   0  0  0  0  0  0  0  0  0  0  0  0
   -5.3900   18.2460  -34.5520 C   0  0  0  0  0  0  0  0  0  0  0  0
   -5.0612   18.1134  -35.5933 H   0  0  0  0  0  0  0  0  0  0  0  0
   -4.9530   17.3590  -33.5640 C   0  0  0  0  0  0  0  0  0  0  0  0
   -4.1300   16.3330  -33.8890 F   0  0  0  0  0  0  0  0  0  0  0  0
   -5.3700   17.5270  -32.2400 C   0  0  0  0  0  0  0  0  0  0  0  0
   -5.0264   16.8281  -31.4632 H   0  0  0  0  0  0  0  0  0  0  0  0
   -6.2230   18.5820  -31.9020 C   0  0  0  0  0  0  0  0  0  0  0  0
   -6.5489   18.7117  -30.8594 H   0  0  0  0  0  0  0  0  0  0  0  0
   -7.1270   21.8280  -32.1240 C   0  0  0  0  0  0  0  0  0  0  0  0
   -5.6770   22.0990  -31.9660 C   0  0  0  0  0  0  0  0  0  0  0  0
   -4.7330   21.2630  -32.5810 C   0  0  0  0  0  0  0  0  0  0  0  0
   -5.0696   20.4182  -33.1999 H   0  0  0  0  0  0  0  0  0  0  0  0
   -3.3670   21.5000  -32.4100 C   0  0  0  0  0  0  0  0  0  0  0  0
   -2.6314   20.8407  -32.8940 H   0  0  0  0  0  0  0  0  0  0  0  0
   -2.9320   22.5720  -31.6260 C   0  0  0  0  0  0  0  0  0  0  0  0
   -1.8552   22.7502  -31.4891 H   0  0  0  0  0  0  0  0  0  0  0  0
   -3.8670   23.4230  -31.0120 C   0  0  0  0  0  0  0  0  0  0  0  0
   -3.4680   24.5280  -30.1910 N   0  0  0  0  0  0  0  0  0  0  0  0
   -2.1350   24.5230  -29.0840 S   0  0  0  0  0  0  0  0  0  0  0  0
   -1.6180   25.9230  -28.9060 O   0  0  0  0  0  0  0  0  0  0  0  0
   -1.0380   23.6420  -29.6150 O   0  0  0  0  0  0  0  0  0  0  0  0
   -2.6830   23.8870  -27.5020 C   0  0  0  0  0  0  0  0  0  0  0  0
   -1.9516   24.1748  -26.7325 H   0  0  0  0  0  0  0  0  0  0  0  0
   -2.7640   22.3580  -27.5440 C   0  0  0  0  0  0  0  0  0  0  0  0
   -2.7849   21.9636  -26.5174 H   0  0  0  0  0  0  0  0  0  0  0  0
   -3.6795   22.0537  -28.0724 H   0  0  0  0  0  0  0  0  0  0  0  0
   -1.8858   21.9587  -28.0724 H   0  0  0  0  0  0  0  0  0  0  0  0
   -4.0380   24.4900  -27.1270 C   0  0  0  0  0  0  0  0  0  0  0  0
   -4.1305   24.5312  -26.0317 H   0  0  0  0  0  0  0  0  0  0  0  0
   -4.1137   25.5068  -27.5398 H   0  0  0  0  0  0  0  0  0  0  0  0
   -4.8441   23.8657  -27.5398 H   0  0  0  0  0  0  0  0  0  0  0  0
   -5.2340   23.1890  -31.1990 C   0  0  0  0  0  0  0  0  0  0  0  0
   -5.9696   23.8661  -30.7403 H   0  0  0  0  0  0  0  0  0  0  0  0
   -8.0370   22.8530  -31.8380 C   0  0  0  0  0  0  0  0  0  0  0  0
   -7.6717   23.8428  -31.5267 H   0  0  0  0  0  0  0  0  0  0  0  0
   -9.4030   22.6180  -31.9480 C   0  0  0  0  0  0  0  0  0  0  0  0
  -10.1168   23.4210  -31.7120 H   0  0  0  0  0  0  0  0  0  0  0  0
   -9.8610   21.4030  -32.3450 N   0  0  0  0  0  0  0  0  0  0  0  0
  -10.8950   21.2640  -32.4240 H   0  0  0  0  0  0  0  0  0  0  0  0
  1  2  1  0
  2  3  2  0
  3  4  1  0
  4  5  1  0
  5  6  2  0
  6  7  1  0
  6  8  1  0
  8  9  1  0
  8 10  2  0
 10 11  1  0
 10 12  1  0
 12 13  1  0
 12 14  2  0
 14 15  1  0
  4 16  2  0
 16 17  1  0
 17 18  2  0
 18 19  1  0
 18 20  1  0
 20 21  1  0
 20 22  2  0
 22 23  1  0
 22 24  1  0
 24 25  1  0
 25 26  1  0
 26 27  2  0
 26 28  2  0
 26 29  1  0
 29 30  1  0
 29 31  1  0
 31 32  1  0
 31 33  1  0
 31 34  1  0
 29 35  1  0
 35 36  1  0
 35 37  1  0
 35 38  1  0
 24 39  2  0
 39 40  1  0
 16 41  1  0
 41 42  1  0
 41 43  2  0
 43 44  1  0
 43 45  1  0
 45 46  1  0
 45  3  1  0
 14  5  1  0
 39 17  1  0
M  CHG  1  25  -1
M  END
>  <UniqueID>  (28) 
23

>  <SMILES>  (28) 
[H]/N=c1/[nH]ccc(-c2cccc([N-]S(=O)(=O)C(C)C)c2)c1-c1ccc(F)cc1

>  <Energy>  (28) 
58.72040519961542

>  <Genealogy>  (28) 
CC(C)S(=O)(=O)[N-]c1cccc(-c2cc[nH]c(=N)c2-c2ccc(F)cc2)c1 (protonated)
[H]/N=c1/[nH]ccc(-c2cccc([N-]S(=O)(=O)C(C)C)c2)c1-c1ccc(F)cc1 (cis-trans isomerization)
[H]/N=c1/[nH]ccc(-c2cccc([N-]S(=O)(=O)C(C)C)c2)c1-c1ccc(F)cc1 (3D coordinates assigned)
[H]/N=c1/[nH]ccc(-c2cccc([N-]S(=O)(=O)C(C)C)c2)c1-c1ccc(F)cc1 (optimized conformer: 58.72040519961542 kcal/mol)

>  <smiles>  (28) 
CC(C)S(=O)(=O)Nc1cccc(-c2cc[nH]c(=N)c2-c2ccc(F)cc2)c1

>  <score_type>  (28) 
oracle

>  <origin>  (28) 
adgpu

>  <m_score__min__energy>  (28) 
-11.01

>  <m_primary>  (28) 
energy

$$$$
28:0
     RDKit          3D

 45 46  0  0  0  0  0  0  0  0999 V2000
   -2.3740   20.0600  -27.2620 C   0  0  0  0  0  0  0  0  0  0  0  0
   -2.9610   21.3580  -27.2300 O   0  0  0  0  0  0  0  0  0  0  0  0
   -2.4450   22.4900  -27.8800 C   0  0  0  0  0  0  0  0  0  0  0  0
   -3.1990   23.1650  -28.8590 C   0  0  0  0  0  0  0  0  0  0  0  0
   -2.7090   24.3220  -29.4750 C   0  0  0  0  0  0  0  0  0  0  0  0
   -3.4870   25.0550  -30.4340 N   0  0  0  0  0  0  0  0  0  0  0  0
   -4.9190   25.0640  -30.5390 C   0  0  0  0  0  0  0  0  0  0  0  0
   -5.5340   26.1380  -30.3020 O   0  0  0  0  0  0  0  0  0  0  0  0
   -5.6960   23.8520  -30.8960 C   0  0  0  0  0  0  0  0  0  0  0  0
   -7.0320   23.7640  -30.4820 C   0  0  0  0  0  0  0  0  0  0  0  0
   -7.8150   22.6750  -30.8510 C   0  0  0  0  0  0  0  0  0  0  0  0
   -7.2740   21.6550  -31.6300 C   0  0  0  0  0  0  0  0  0  0  0  0
   -5.9280   21.6990  -32.0380 C   0  0  0  0  0  0  0  0  0  0  0  0
   -5.3760   20.6610  -32.8060 O   0  0  0  0  0  0  0  0  0  0  0  0
   -6.1270   19.6720  -33.5020 C   0  0  0  0  0  0  0  0  0  0  0  0
   -5.1220   22.8070  -31.6580 C   0  0  0  0  0  0  0  0  0  0  0  0
   -3.7560   22.9150  -31.9880 O   0  0  0  0  0  0  0  0  0  0  0  0
   -2.7970   21.8640  -31.9910 C   0  0  0  0  0  0  0  0  0  0  0  0
   -1.4260   24.7730  -29.1650 C   0  0  0  0  0  0  0  0  0  0  0  0
   -0.6450   24.1090  -28.2040 C   0  0  0  0  0  0  0  0  0  0  0  0
    0.6410   24.5540  -27.8600 O   0  0  0  0  0  0  0  0  0  0  0  0
    0.9230   25.4960  -26.8300 C   0  0  0  0  0  0  0  0  0  0  0  0
   -1.1500   22.9700  -27.5530 C   0  0  0  0  0  0  0  0  0  0  0  0
   -0.3130   22.3680  -26.5930 O   0  0  0  0  0  0  0  0  0  0  0  0
   -0.2500   22.6810  -25.2060 C   0  0  0  0  0  0  0  0  0  0  0  0
   -2.2134   19.7048  -26.2334 H   0  0  0  0  0  0  0  0  0  0  0  0
   -3.0461   19.3665  -27.7886 H   0  0  0  0  0  0  0  0  0  0  0  0
   -1.4094   20.1067  -27.7886 H   0  0  0  0  0  0  0  0  0  0  0  0
   -4.1881   22.7770  -29.1439 H   0  0  0  0  0  0  0  0  0  0  0  0
   -7.4647   24.5620  -29.8607 H   0  0  0  0  0  0  0  0  0  0  0  0
   -8.8646   22.6193  -30.5266 H   0  0  0  0  0  0  0  0  0  0  0  0
   -7.9058   20.8058  -31.9295 H   0  0  0  0  0  0  0  0  0  0  0  0
   -6.6271   19.0134  -32.7766 H   0  0  0  0  0  0  0  0  0  0  0  0
   -6.8824   20.1623  -34.1336 H   0  0  0  0  0  0  0  0  0  0  0  0
   -5.4518   19.0760  -34.1336 H   0  0  0  0  0  0  0  0  0  0  0  0
   -2.5484   21.5915  -30.9547 H   0  0  0  0  0  0  0  0  0  0  0  0
   -3.2140   20.9886  -32.5103 H   0  0  0  0  0  0  0  0  0  0  0  0
   -1.8871   22.1993  -32.5103 H   0  0  0  0  0  0  0  0  0  0  0  0
   -1.0214   25.6578  -29.6782 H   0  0  0  0  0  0  0  0  0  0  0  0
    0.7805   25.0199  -25.8487 H   0  0  0  0  0  0  0  0  0  0  0  0
    1.9636   25.8403  -26.9229 H   0  0  0  0  0  0  0  0  0  0  0  0
    0.2428   26.3554  -26.9229 H   0  0  0  0  0  0  0  0  0  0  0  0
   -0.4332   21.7708  -24.6160 H   0  0  0  0  0  0  0  0  0  0  0  0
    0.7464   23.0798  -24.9650 H   0  0  0  0  0  0  0  0  0  0  0  0
   -1.0145   23.4343  -24.9650 H   0  0  0  0  0  0  0  0  0  0  0  0
  1  2  1  0
  2  3  1  0
  3  4  2  0
  4  5  1  0
  5  6  1  0
  6  7  1  0
  7  8  2  0
  7  9  1  0
  9 10  2  0
 10 11  1  0
 11 12  2  0
 12 13  1  0
 13 14  1  0
 14 15  1  0
 13 16  2  0
 16 17  1  0
 17 18  1  0
  5 19  2  0
 19 20  1  0
 20 21  1  0
 21 22  1  0
 20 23  2  0
 23 24  1  0
 24 25  1  0
 23  3  1  0
 16  9  1  0
  1 26  1  0
  1 27  1  0
  1 28  1  0
  4 29  1  0
 10 30  1  0
 11 31  1  0
 12 32  1  0
 15 33  1  0
 15 34  1  0
 15 35  1  0
 18 36  1  0
 18 37  1  0
 18 38  1  0
 19 39  1  0
 22 40  1  0
 22 41  1  0
 22 42  1  0
 25 43  1  0
 25 44  1  0
 25 45  1  0
M  CHG  1   6  -1
M  END
>  <UniqueID>  (29) 
24

>  <SMILES>  (29) 
COc1cc([N-]C(=O)c2cccc(OC)c2OC)cc(OC)c1OC

>  <Energy>  (29) 
55.200503144448426

>  <Genealogy>  (29) 
COc1cc([N-]C(=O)c2cccc(OC)c2OC)cc(OC)c1OC (protonated)
COc1cc([N-]C(=O)c2cccc(OC)c2OC)cc(OC)c1OC (3D coordinates assigned)
COc1cc([N-]C(=O)c2cccc(OC)c2OC)cc(OC)c1OC (optimized conformer: 55.200503144448426 kcal/mol)

>  <smiles>  (29) 
COc1cc(NC(=O)c2cccc(OC)c2OC)cc(OC)c1OC

>  <score_type>  (29) 
oracle

>  <origin>  (29) 
adgpu

>  <m_score__min__energy>  (29) 
-7.71

>  <m_primary>  (29) 
energy

$$$$
29:0
     RDKit          3D

 41 44  0  0  0  0  0  0  0  0999 V2000
   -4.3100   13.3090  -30.9640 C   0  0  0  0  0  0  0  0  0  0  0  0
   -4.6410   14.5700  -31.5330 O   0  0  0  0  0  0  0  0  0  0  0  0
   -5.2130   14.7010  -32.8020 C   0  0  0  0  0  0  0  0  0  0  0  0
   -5.7030   13.6910  -33.3800 O   0  0  0  0  0  0  0  0  0  0  0  0
   -5.2420   16.0240  -33.4650 C   0  0  0  0  0  0  0  0  0  0  0  0
   -4.6860   16.1860  -34.7440 C   0  0  0  0  0  0  0  0  0  0  0  0
   -4.7080   17.4320  -35.3710 C   0  0  0  0  0  0  0  0  0  0  0  0
   -5.2900   18.5310  -34.7350 C   0  0  0  0  0  0  0  0  0  0  0  0
   -5.8650   18.3930  -33.4580 C   0  0  0  0  0  0  0  0  0  0  0  0
   -6.4820   19.5500  -32.7600 C   0  0  0  0  0  0  0  0  0  0  0  0
   -5.7080   20.5900  -32.2230 C   0  0  0  0  0  0  0  0  0  0  0  0
   -6.3380   21.6600  -31.5750 C   0  0  0  0  0  0  0  0  0  0  0  0
   -5.5530   22.7700  -30.9990 C   0  0  0  0  0  0  0  0  0  0  0  0
   -4.9520   22.7300  -29.7930 N   0  0  0  0  0  0  0  0  0  0  0  0
   -4.3830   23.9520  -29.7330 C   0  0  0  0  0  0  0  0  0  0  0  0
   -3.5840   24.4320  -28.5860 C   0  0  0  0  0  0  0  0  0  0  0  0
   -2.2360   24.7970  -28.7560 C   0  0  0  0  0  0  0  0  0  0  0  0
   -1.4830   25.2500  -27.6700 C   0  0  0  0  0  0  0  0  0  0  0  0
   -2.0630   25.3440  -26.4020 C   0  0  0  0  0  0  0  0  0  0  0  0
   -1.1160   25.9120  -25.0400 Cl  0  0  0  0  0  0  0  0  0  0  0  0
   -3.4030   24.9820  -26.2210 C   0  0  0  0  0  0  0  0  0  0  0  0
   -4.1590   24.5290  -27.3060 C   0  0  0  0  0  0  0  0  0  0  0  0
   -4.6280   24.6850  -30.8370 N   0  0  0  0  0  0  0  0  0  0  0  0
   -5.3530   23.9200  -31.5940 O   0  0  0  0  0  0  0  0  0  0  0  0
   -7.7340   21.6610  -31.4890 C   0  0  0  0  0  0  0  0  0  0  0  0
   -8.4420   20.6380  -32.0350 N   0  0  0  0  0  0  0  0  0  0  0  0
   -7.8360   19.6210  -32.6490 N   0  0  0  0  0  0  0  0  0  0  0  0
   -5.8270   17.1340  -32.8280 C   0  0  0  0  0  0  0  0  0  0  0  0
   -4.3300   13.3852  -29.8668 H   0  0  0  0  0  0  0  0  0  0  0  0
   -5.0407   12.5553  -31.2926 H   0  0  0  0  0  0  0  0  0  0  0  0
   -3.3033   13.0114  -31.2926 H   0  0  0  0  0  0  0  0  0  0  0  0
   -4.2302   15.3250  -35.2549 H   0  0  0  0  0  0  0  0  0  0  0  0
   -4.2649   17.5495  -36.3709 H   0  0  0  0  0  0  0  0  0  0  0  0
   -5.2989   19.5105  -35.2355 H   0  0  0  0  0  0  0  0  0  0  0  0
   -4.6118   20.5650  -32.3105 H   0  0  0  0  0  0  0  0  0  0  0  0
   -1.7718   24.7252  -29.7507 H   0  0  0  0  0  0  0  0  0  0  0  0
   -0.4299   25.5337  -27.8134 H   0  0  0  0  0  0  0  0  0  0  0  0
   -3.8616   25.0541  -25.2238 H   0  0  0  0  0  0  0  0  0  0  0  0
   -5.2116   24.2462  -27.1577 H   0  0  0  0  0  0  0  0  0  0  0  0
   -8.2560   22.4858  -30.9819 H   0  0  0  0  0  0  0  0  0  0  0  0
   -6.2607   17.0167  -31.8239 H   0  0  0  0  0  0  0  0  0  0  0  0
  1  2  1  0
  2  3  1  0
  3  4  2  0
  3  5  1  0
  5  6  2  0
  6  7  1  0
  7  8  2  0
  8  9  1  0
  9 10  1  0
 10 11  2  0
 11 12  1  0
 12 13  1  0
 13 14  2  0
 14 15  1  0
 15 16  1  0
 16 17  2  0
 17 18  1  0
 18 19  2  0
 19 20  1  0
 19 21  1  0
 21 22  2  0
 15 23  2  0
 23 24  1  0
 12 25  2  0
 25 26  1  0
 26 27  2  0
  9 28  2  0
 28  5  1  0
 27 10  1  0
 24 13  1  0
 22 16  1  0
  1 29  1  0
  1 30  1  0
  1 31  1  0
  6 32  1  0
  7 33  1  0
  8 34  1  0
 11 35  1  0
 17 36  1  0
 18 37  1  0
 21 38  1  0
 22 39  1  0
 25 40  1  0
 28 41  1  0
M  END
>  <UniqueID>  (30) 
25

>  <SMILES>  (30) 
COC(=O)c1cccc(-c2cc(-c3nc(-c4ccc(Cl)cc4)no3)cnn2)c1

>  <Energy>  (30) 
83.13144010906262

>  <Genealogy>  (30) 
COC(=O)c1cccc(-c2cc(-c3nc(-c4ccc(Cl)cc4)no3)cnn2)c1 (3D coordinates assigned)
COC(=O)c1cccc(-c2cc(-c3nc(-c4ccc(Cl)cc4)no3)cnn2)c1 (optimized conformer: 83.13144010906262 kcal/mol)

>  <smiles>  (30) 
COC(=O)c1cccc(-c2cc(-c3nc(-c4ccc(Cl)cc4)no3)cnn2)c1

>  <score_type>  (30) 
oracle

>  <origin>  (30) 
adgpu

>  <m_score__min__energy>  (30) 
-10.24

>  <m_primary>  (30) 
energy

$$$$
30:0
     RDKit          3D

 37 39  0  0  0  0  0  0  0  0999 V2000
   -6.2050   14.5690  -34.2140 C   0  0  0  0  0  0  0  0  0  0  0  0
   -5.8640   15.9480  -33.7320 C   0  0  0  0  0  0  0  0  0  0  0  0
   -6.8830   16.8400  -33.3630 C   0  0  0  0  0  0  0  0  0  0  0  0
   -6.5660   18.1410  -32.9590 C   0  0  0  0  0  0  0  0  0  0  0  0
   -7.8450   19.2520  -32.5000 Cl  0  0  0  0  0  0  0  0  0  0  0  0
   -5.2320   18.5580  -32.9210 C   0  0  0  0  0  0  0  0  0  0  0  0
   -4.2050   17.6770  -33.2810 C   0  0  0  0  0  0  0  0  0  0  0  0
   -2.8480   18.1440  -33.2450 N   0  0  0  0  0  0  0  0  0  0  0  0
   -2.4230   19.5130  -33.3080 C   0  0  0  0  0  0  0  0  0  0  0  0
   -1.4080   19.7980  -33.9940 O   0  0  0  0  0  0  0  0  0  0  0  0
   -3.1710   20.6000  -32.6320 C   0  0  0  0  0  0  0  0  0  0  0  0
   -3.9740   21.4750  -33.3820 C   0  0  0  0  0  0  0  0  0  0  0  0
   -4.6740   22.5080  -32.7540 C   0  0  0  0  0  0  0  0  0  0  0  0
   -4.5860   22.6820  -31.3650 C   0  0  0  0  0  0  0  0  0  0  0  0
   -5.3120   23.7400  -30.7170 N   0  0  0  0  0  0  0  0  0  0  0  0
   -4.8110   24.9230  -30.3080 C   0  0  0  0  0  0  0  0  0  0  0  0
   -3.4840   25.3050  -30.4670 O   0  0  0  0  0  0  0  0  0  0  0  0
   -5.7820   25.6890  -29.6950 C   0  0  0  0  0  0  0  0  0  0  0  0
   -6.9410   24.9360  -29.7290 C   0  0  0  0  0  0  0  0  0  0  0  0
   -6.6170   23.7540  -30.3660 C   0  0  0  0  0  0  0  0  0  0  0  0
   -7.5310   22.7390  -30.6410 O   0  0  0  0  0  0  0  0  0  0  0  0
   -3.8090   21.7920  -30.6100 C   0  0  0  0  0  0  0  0  0  0  0  0
   -3.1080   20.7580  -31.2370 C   0  0  0  0  0  0  0  0  0  0  0  0
   -4.5290   16.3790  -33.7140 C   0  0  0  0  0  0  0  0  0  0  0  0
   -6.3683   13.9084  -33.3497 H   0  0  0  0  0  0  0  0  0  0  0  0
   -7.1202   14.6093  -34.8229 H   0  0  0  0  0  0  0  0  0  0  0  0
   -5.3765   14.1781  -34.8229 H   0  0  0  0  0  0  0  0  0  0  0  0
   -7.9335   16.5150  -33.3916 H   0  0  0  0  0  0  0  0  0  0  0  0
   -4.9881   19.5835  -32.6067 H   0  0  0  0  0  0  0  0  0  0  0  0
   -4.0522   21.3459  -34.4716 H   0  0  0  0  0  0  0  0  0  0  0  0
   -5.2976   23.1887  -33.3521 H   0  0  0  0  0  0  0  0  0  0  0  0
   -5.6587   26.6945  -29.2664 H   0  0  0  0  0  0  0  0  0  0  0  0
   -7.9250   25.2213  -29.3286 H   0  0  0  0  0  0  0  0  0  0  0  0
   -7.9870   22.6600  -31.5410 H   0  0  0  0  0  0  0  0  0  0  0  0
   -3.7507   21.9082  -29.5177 H   0  0  0  0  0  0  0  0  0  0  0  0
   -2.5034   20.0638  -30.6349 H   0  0  0  0  0  0  0  0  0  0  0  0
   -3.7303   15.6969  -34.0408 H   0  0  0  0  0  0  0  0  0  0  0  0
  1  2  1  0
  2  3  2  0
  3  4  1  0
  4  5  1  0
  4  6  2  0
  6  7  1  0
  7  8  1  0
  8  9  1  0
  9 10  2  0
  9 11  1  0
 11 12  2  0
 12 13  1  0
 13 14  2  0
 14 15  1  0
 15 16  1  0
 16 17  1  0
 16 18  2  0
 18 19  1  0
 19 20  2  0
 20 21  1  0
 14 22  1  0
 22 23  2  0
  7 24  2  0
 24  2  1  0
 23 11  1  0
 20 15  1  0
  1 25  1  0
  1 26  1  0
  1 27  1  0
  3 28  1  0
  6 29  1  0
 12 30  1  0
 13 31  1  0
 18 32  1  0
 19 33  1  0
 21 34  1  0
 22 35  1  0
 23 36  1  0
 24 37  1  0
M  CHG  2   8  -1  17  -1
M  END
>  <UniqueID>  (31) 
26

>  <SMILES>  (31) 
Cc1cc(Cl)cc([N-]C(=O)c2ccc(-n3c([O-])ccc3O)cc2)c1

>  <Energy>  (31) 
78.74561011058536

>  <Genealogy>  (31) 
Cc1cc(Cl)cc([N-]C(=O)c2ccc(-n3c([O-])ccc3O)cc2)c1 (protonated)
Cc1cc(Cl)cc([N-]C(=O)c2ccc(-n3c([O-])ccc3O)cc2)c1 (3D coordinates assigned)
Cc1cc(Cl)cc([N-]C(=O)c2ccc(-n3c([O-])ccc3O)cc2)c1 (optimized conformer: 78.74561011058536 kcal/mol)

>  <smiles>  (31) 
Cc1cc(Cl)cc(NC(=O)c2ccc(-n3c(O)ccc3O)cc2)c1

>  <score_type>  (31) 
oracle

>  <origin>  (31) 
adgpu

>  <m_score__min__energy>  (31) 
-10.43

>  <m_primary>  (31) 
energy

$$$$
31:0
     RDKit          3D

 26 28  0  0  0  0  0  0  0  0999 V2000
   -6.2570   19.2490  -33.7040 Cl  0  0  0  0  0  0  0  0  0  0  0  0
   -6.6820   20.6140  -32.6860 C   0  0  0  0  0  0  0  0  0  0  0  0
   -8.0170   20.8410  -32.3420 C   0  0  0  0  0  0  0  0  0  0  0  0
   -8.3560   21.9270  -31.5320 C   0  0  0  0  0  0  0  0  0  0  0  0
   -7.3620   22.7900  -31.0640 C   0  0  0  0  0  0  0  0  0  0  0  0
   -6.0140   22.5730  -31.4030 C   0  0  0  0  0  0  0  0  0  0  0  0
   -4.9610   23.4860  -30.9080 C   0  0  0  0  0  0  0  0  0  0  0  0
   -4.9710   24.8180  -31.0980 N   0  0  0  0  0  0  0  0  0  0  0  0
   -3.8810   25.2930  -30.5220 N   0  0  0  0  0  0  0  0  0  0  0  0
   -3.2310   24.2390  -29.9930 C   0  0  0  0  0  0  0  0  0  0  0  0
   -1.9540   24.3430  -29.2550 C   0  0  0  0  0  0  0  0  0  0  0  0
   -1.0100   23.3050  -29.3140 C   0  0  0  0  0  0  0  0  0  0  0  0
    0.1900   23.4240  -28.6090 C   0  0  0  0  0  0  0  0  0  0  0  0
    0.4420   24.5370  -27.8700 N   0  0  0  0  0  0  0  0  0  0  0  0
   -0.4520   25.5570  -27.7940 C   0  0  0  0  0  0  0  0  0  0  0  0
   -1.6650   25.4810  -28.4830 C   0  0  0  0  0  0  0  0  0  0  0  0
   -3.8790   23.0770  -30.2140 N   0  0  0  0  0  0  0  0  0  0  0  0
   -5.6830   21.4760  -32.2190 C   0  0  0  0  0  0  0  0  0  0  0  0
   -8.8019   20.1636  -32.7096 H   0  0  0  0  0  0  0  0  0  0  0  0
   -9.4077   22.1032  -31.2620 H   0  0  0  0  0  0  0  0  0  0  0  0
   -7.6350   23.6441  -30.4268 H   0  0  0  0  0  0  0  0  0  0  0  0
   -1.2142   22.4042  -29.9114 H   0  0  0  0  0  0  0  0  0  0  0  0
    0.9336   22.6145  -28.6519 H   0  0  0  0  0  0  0  0  0  0  0  0
   -0.2202   26.4454  -27.1882 H   0  0  0  0  0  0  0  0  0  0  0  0
   -2.3892   26.3067  -28.4215 H   0  0  0  0  0  0  0  0  0  0  0  0
   -4.6329   21.2946  -32.4917 H   0  0  0  0  0  0  0  0  0  0  0  0
  1  2  1  0
  2  3  2  0
  3  4  1  0
  4  5  2  0
  5  6  1  0
  6  7  1  0
  7  8  2  0
  8  9  1  0
  9 10  1  0
 10 11  1  0
 11 12  2  0
 12 13  1  0
 13 14  2  0
 14 15  1  0
 15 16  2  0
 10 17  2  0
  6 18  2  0
 18  2  1  0
 17  7  1  0
 16 11  1  0
  3 19  1  0
  4 20  1  0
  5 21  1  0
 12 22  1  0
 13 23  1  0
 15 24  1  0
 16 25  1  0
 18 26  1  0
M  CHG  1   9  -1
M  END
>  <UniqueID>  (32) 
27

>  <SMILES>  (32) 
Clc1cccc(-c2n[n-]c(-c3ccncc3)n2)c1

>  <Energy>  (32) 
62.53868038208124

>  <Genealogy>  (32) 
Clc1cccc(-c2n[n-]c(-c3ccncc3)n2)c1 (protonated)
Clc1cccc(-c2n[n-]c(-c3ccncc3)n2)c1 (3D coordinates assigned)
Clc1cccc(-c2n[n-]c(-c3ccncc3)n2)c1 (optimized conformer: 62.53868038208124 kcal/mol)

>  <smiles>  (32) 
Clc1cccc(-c2n[nH]c(-c3ccncc3)n2)c1

>  <score_type>  (32) 
oracle

>  <origin>  (32) 
adgpu

>  <m_score__min__energy>  (32) 
-9.0500000000000007

>  <m_primary>  (32) 
energy

$$$$
32:0
     RDKit          3D

 46 48  0  0  0  0  0  0  0  0999 V2000
   -4.2621   24.6492  -27.5103 H   0  0  0  0  0  0  0  0  0  0  0  0
   -3.3890   24.1890  -27.9960 C   0  0  0  0  0  0  0  0  0  0  0  0
   -2.7850   24.9130  -29.1310 C   0  0  0  0  0  0  0  0  0  0  0  0
   -1.7520   25.6170  -28.9720 O   0  0  0  0  0  0  0  0  0  0  0  0
   -3.4550   24.8890  -30.3960 N   0  0  0  0  0  0  0  0  0  0  0  0
   -4.4600   23.9480  -30.8080 C   0  0  0  0  0  0  0  0  0  0  0  0
   -4.1160   22.7670  -31.4880 C   0  0  0  0  0  0  0  0  0  0  0  0
   -3.0616   22.5609  -31.7244 H   0  0  0  0  0  0  0  0  0  0  0  0
   -5.1020   21.8530  -31.8660 C   0  0  0  0  0  0  0  0  0  0  0  0
   -4.8190   20.9387  -32.4082 H   0  0  0  0  0  0  0  0  0  0  0  0
   -6.4510   22.0910  -31.5600 C   0  0  0  0  0  0  0  0  0  0  0  0
   -7.4980   21.1170  -31.9640 C   0  0  0  0  0  0  0  0  0  0  0  0
   -7.1500   19.8040  -32.3350 C   0  0  0  0  0  0  0  0  0  0  0  0
   -6.0943   19.4953  -32.3250 H   0  0  0  0  0  0  0  0  0  0  0  0
   -8.1370   18.8900  -32.7160 C   0  0  0  0  0  0  0  0  0  0  0  0
   -7.8558   17.8662  -33.0036 H   0  0  0  0  0  0  0  0  0  0  0  0
   -9.4800   19.2750  -32.7320 C   0  0  0  0  0  0  0  0  0  0  0  0
  -10.2552   18.5551  -33.0333 H   0  0  0  0  0  0  0  0  0  0  0  0
   -9.8380   20.5750  -32.3650 C   0  0  0  0  0  0  0  0  0  0  0  0
  -10.8958   20.8767  -32.3751 H   0  0  0  0  0  0  0  0  0  0  0  0
   -8.8540   21.4930  -31.9850 C   0  0  0  0  0  0  0  0  0  0  0  0
   -9.1418   22.5159  -31.7006 H   0  0  0  0  0  0  0  0  0  0  0  0
   -6.7940   23.2600  -30.8590 C   0  0  0  0  0  0  0  0  0  0  0  0
   -7.8477   23.4547  -30.6103 H   0  0  0  0  0  0  0  0  0  0  0  0
   -5.8080   24.1830  -30.4720 C   0  0  0  0  0  0  0  0  0  0  0  0
   -6.2000   25.4300  -29.7260 C   0  0  0  0  0  0  0  0  0  0  0  0
   -6.1413   25.2434  -28.6435 H   0  0  0  0  0  0  0  0  0  0  0  0
   -5.5158   26.2483  -29.9946 H   0  0  0  0  0  0  0  0  0  0  0  0
   -7.2294   25.7097  -29.9946 H   0  0  0  0  0  0  0  0  0  0  0  0
   -2.9600   23.0150  -27.5080 C   0  0  0  0  0  0  0  0  0  0  0  0
   -3.4170   22.6588  -26.5730 H   0  0  0  0  0  0  0  0  0  0  0  0
   -1.9220   22.1610  -28.1260 C   0  0  0  0  0  0  0  0  0  0  0  0
   -2.2560   21.2770  -29.1670 C   0  0  0  0  0  0  0  0  0  0  0  0
   -3.2879   21.2446  -29.5466 H   0  0  0  0  0  0  0  0  0  0  0  0
   -1.2860   20.4400  -29.7220 C   0  0  0  0  0  0  0  0  0  0  0  0
   -1.5514   19.7622  -30.5467 H   0  0  0  0  0  0  0  0  0  0  0  0
    0.0200   20.4630  -29.2310 C   0  0  0  0  0  0  0  0  0  0  0  0
    0.7843   19.8075  -29.6739 H   0  0  0  0  0  0  0  0  0  0  0  0
    0.3590   21.3160  -28.1790 C   0  0  0  0  0  0  0  0  0  0  0  0
    1.3885   21.3235  -27.7915 H   0  0  0  0  0  0  0  0  0  0  0  0
   -0.6100   22.1680  -27.6100 C   0  0  0  0  0  0  0  0  0  0  0  0
   -0.3030   23.0330  -26.5460 O   0  0  0  0  0  0  0  0  0  0  0  0
   -0.4520   22.7050  -25.1690 C   0  0  0  0  0  0  0  0  0  0  0  0
   -0.0754   23.5340  -24.5518 H   0  0  0  0  0  0  0  0  0  0  0  0
   -1.5156   22.5352  -24.9455 H   0  0  0  0  0  0  0  0  0  0  0  0
    0.1199   21.7923  -24.9455 H   0  0  0  0  0  0  0  0  0  0  0  0
  1  2  1  0
  2  3  1  0
  3  4  2  0
  3  5  1  0
  5  6  1  0
  6  7  2  0
  7  8  1  0
  7  9  1  0
  9 10  1  0
  9 11  2  0
 11 12  1  0
 12 13  2  0
 13 14  1  0
 13 15  1  0
 15 16  1  0
 15 17  2  0
 17 18  1  0
 17 19  1  0
 19 20  1  0
 19 21  2  0
 21 22  1  0
 11 23  1  0
 23 24  1  0
 23 25  2  0
 25 26  1  0
 26 27  1  0
 26 28  1  0
 26 29  1  0
  2 30  2  0
 30 31  1  0
 30 32  1  0
 32 33  2  0
 33 34  1  0
 33 35  1  0
 35 36  1  0
 35 37  2  0
 37 38  1  0
 37 39  1  0
 39 40  1  0
 39 41  2  0
 41 42  1  0
 42 43  1  0
 43 44  1  0
 43 45  1  0
 43 46  1  0
 25  6  1  0
 41 32  1  0
 21 12  1  0
M  CHG  1   5  -1
M  END
>  <UniqueID>  (33) 
28

>  <SMILES>  (33) 
COc1ccccc1/C=C\C(=O)[N-]c1ccc(-c2ccccc2)cc1C

>  <Energy>  (33) 
64.47409675597461

>  <Genealogy>  (33) 
COc1ccccc1C=CC(=O)[N-]c1ccc(-c2ccccc2)cc1C (protonated)
COc1ccccc1/C=C\C(=O)[N-]c1ccc(-c2ccccc2)cc1C (cis-trans isomerization)
COc1ccccc1/C=C\C(=O)[N-]c1ccc(-c2ccccc2)cc1C (3D coordinates assigned)
COc1ccccc1/C=C\C(=O)[N-]c1ccc(-c2ccccc2)cc1C (optimized conformer: 64.47409675597461 kcal/mol)

>  <smiles>  (33) 
COc1ccccc1C=CC(=O)Nc1ccc(-c2ccccc2)cc1C

>  <score_type>  (33) 
oracle

>  <origin>  (33) 
adgpu

>  <m_score__min__energy>  (33) 
-11.27

>  <m_primary>  (33) 
energy

$$$$
33:0
     RDKit          3D

 30 32  0  0  0  0  0  0  0  0999 V2000
   -0.1970   24.3650  -28.0720 C   0  0  0  0  0  0  0  0  0  0  0  0
   -1.4240   23.6680  -28.5820 C   0  0  0  0  0  0  0  0  0  0  0  0
   -1.6040   22.3000  -28.3640 C   0  0  0  0  0  0  0  0  0  0  0  0
   -2.7270   21.6560  -28.8750 C   0  0  0  0  0  0  0  0  0  0  0  0
   -3.6630   22.3840  -29.6150 C   0  0  0  0  0  0  0  0  0  0  0  0
   -4.7540   21.7450  -30.1100 N   0  0  0  0  0  0  0  0  0  0  0  0
   -5.6960   22.3930  -30.8440 C   0  0  0  0  0  0  0  0  0  0  0  0
   -6.8700   21.6360  -31.3520 C   0  0  0  0  0  0  0  0  0  0  0  0
   -8.1360   22.2440  -31.4810 C   0  0  0  0  0  0  0  0  0  0  0  0
   -9.2240   21.5160  -31.9690 C   0  0  0  0  0  0  0  0  0  0  0  0
   -9.0660   20.1790  -32.3410 C   0  0  0  0  0  0  0  0  0  0  0  0
   -7.8150   19.5670  -32.2280 C   0  0  0  0  0  0  0  0  0  0  0  0
   -7.6160   17.8880  -32.6980 Cl  0  0  0  0  0  0  0  0  0  0  0  0
   -6.7210   20.2910  -31.7410 C   0  0  0  0  0  0  0  0  0  0  0  0
   -5.5390   23.7620  -31.0840 C   0  0  0  0  0  0  0  0  0  0  0  0
   -4.4160   24.4190  -30.5760 C   0  0  0  0  0  0  0  0  0  0  0  0
   -4.2860   25.6550  -30.7990 O   0  0  0  0  0  0  0  0  0  0  0  0
   -3.4800   23.7300  -29.8460 N   0  0  0  0  0  0  0  0  0  0  0  0
   -2.3720   24.3660  -29.3440 C   0  0  0  0  0  0  0  0  0  0  0  0
   -0.2037   24.3612  -26.9720 H   0  0  0  0  0  0  0  0  0  0  0  0
    0.6997   23.8414  -28.4350 H   0  0  0  0  0  0  0  0  0  0  0  0
   -0.1875   25.4033  -28.4350 H   0  0  0  0  0  0  0  0  0  0  0  0
   -0.8583   21.7319  -27.7886 H   0  0  0  0  0  0  0  0  0  0  0  0
   -2.8770   20.5808  -28.6976 H   0  0  0  0  0  0  0  0  0  0  0  0
   -8.2676   23.2981  -31.1956 H   0  0  0  0  0  0  0  0  0  0  0  0
  -10.2087   21.9976  -32.0606 H   0  0  0  0  0  0  0  0  0  0  0  0
   -9.9256   19.6084  -32.7225 H   0  0  0  0  0  0  0  0  0  0  0  0
   -5.7371   19.8056  -31.6615 H   0  0  0  0  0  0  0  0  0  0  0  0
   -6.2912   24.3147  -31.6660 H   0  0  0  0  0  0  0  0  0  0  0  0
   -2.2257   25.4381  -29.5422 H   0  0  0  0  0  0  0  0  0  0  0  0
  1  2  1  0
  2  3  1  0
  3  4  2  0
  4  5  1  0
  5  6  2  0
  6  7  1  0
  7  8  1  0
  8  9  2  0
  9 10  1  0
 10 11  2  0
 11 12  1  0
 12 13  1  0
 12 14  2  0
  7 15  2  0
 15 16  1  0
 16 17  2  0
 16 18  1  0
 18 19  1  0
 19  2  2  0
 18  5  1  0
 14  8  1  0
  1 20  1  0
  1 21  1  0
  1 22  1  0
  3 23  1  0
  4 24  1  0
  9 25  1  0
 10 26  1  0
 11 27  1  0
 14 28  1  0
 15 29  1  0
 19 30  1  0
M  END
>  <UniqueID>  (34) 
29

>  <SMILES>  (34) 
Cc1ccc2nc(-c3cccc(Cl)c3)cc(=O)n2c1

>  <Energy>  (34) 
41.39339452480211

>  <Genealogy>  (34) 
Cc1ccc2nc(-c3cccc(Cl)c3)cc(=O)n2c1 (3D coordinates assigned)
Cc1ccc2nc(-c3cccc(Cl)c3)cc(=O)n2c1 (optimized conformer: 41.39339452480211 kcal/mol)

>  <smiles>  (34) 
Cc1ccc2nc(-c3cccc(Cl)c3)cc(=O)n2c1

>  <score_type>  (34) 
oracle

>  <origin>  (34) 
adgpu

>  <m_score__min__energy>  (34) 
-7.6900000000000004

>  <m_primary>  (34) 
energy

$$$$
34:0
     RDKit          3D

 52 55  0  0  0  0  0  0  0  0999 V2000
   -0.7140   26.0900  -24.1380 C   0  0  0  0  0  0  0  0  0  0  0  0
   -1.4270   26.8070  -25.2710 C   0  0  0  0  0  0  0  0  0  0  0  0
   -1.0990   26.1840  -26.5110 O   0  0  0  0  0  0  0  0  0  0  0  0
   -1.9550   25.3290  -27.2200 C   0  0  0  0  0  0  0  0  0  0  0  0
   -3.2020   24.9180  -26.7130 C   0  0  0  0  0  0  0  0  0  0  0  0
   -4.0190   24.0630  -27.4580 C   0  0  0  0  0  0  0  0  0  0  0  0
   -3.6160   23.6190  -28.7260 C   0  0  0  0  0  0  0  0  0  0  0  0
   -4.4650   22.7220  -29.4610 N   0  0  0  0  0  0  0  0  0  0  0  0
   -4.8350   22.9100  -30.8380 C   0  0  0  0  0  0  0  0  0  0  0  0
   -4.6290   24.0160  -31.4060 O   0  0  0  0  0  0  0  0  0  0  0  0
   -5.4500   21.7960  -31.5960 C   0  0  0  0  0  0  0  0  0  0  0  0
   -4.5940   20.8810  -32.2300 C   0  0  0  0  0  0  0  0  0  0  0  0
   -5.1200   19.8410  -33.0130 C   0  0  0  0  0  0  0  0  0  0  0  0
   -4.2410   18.8640  -33.7060 C   0  0  0  0  0  0  0  0  0  0  0  0
   -2.8460   18.9460  -33.5520 C   0  0  0  0  0  0  0  0  0  0  0  0
   -2.0030   18.0320  -34.1910 C   0  0  0  0  0  0  0  0  0  0  0  0
   -2.5430   17.0080  -34.9900 C   0  0  0  0  0  0  0  0  0  0  0  0
   -1.7390   16.0670  -35.6520 O   0  0  0  0  0  0  0  0  0  0  0  0
   -2.2330   14.8950  -36.2910 C   0  0  0  0  0  0  0  0  0  0  0  0
   -3.9300   16.9160  -35.1340 C   0  0  0  0  0  0  0  0  0  0  0  0
   -4.7750   17.8300  -34.4980 C   0  0  0  0  0  0  0  0  0  0  0  0
   -6.4690   19.7170  -33.1320 N   0  0  0  0  0  0  0  0  0  0  0  0
   -7.3370   20.5660  -32.5230 C   0  0  0  0  0  0  0  0  0  0  0  0
   -8.7140   20.3690  -32.6810 C   0  0  0  0  0  0  0  0  0  0  0  0
   -9.6210   21.2120  -32.0380 C   0  0  0  0  0  0  0  0  0  0  0  0
   -9.1590   22.2490  -31.2270 C   0  0  0  0  0  0  0  0  0  0  0  0
   -7.7860   22.4580  -31.0630 C   0  0  0  0  0  0  0  0  0  0  0  0
   -6.8530   21.6320  -31.7260 C   0  0  0  0  0  0  0  0  0  0  0  0
   -2.3610   24.0130  -29.2210 C   0  0  0  0  0  0  0  0  0  0  0  0
   -1.5440   24.8660  -28.4740 C   0  0  0  0  0  0  0  0  0  0  0  0
   -1.0874   26.4655  -23.1739 H   0  0  0  0  0  0  0  0  0  0  0  0
   -0.9059   25.0092  -24.2097 H   0  0  0  0  0  0  0  0  0  0  0  0
    0.3678   26.2759  -24.2097 H   0  0  0  0  0  0  0  0  0  0  0  0
   -2.5140   26.7547  -25.1110 H   0  0  0  0  0  0  0  0  0  0  0  0
   -1.1093   27.8598  -25.2951 H   0  0  0  0  0  0  0  0  0  0  0  0
   -3.5351   25.2713  -25.7260 H   0  0  0  0  0  0  0  0  0  0  0  0
   -4.9854   23.7358  -27.0468 H   0  0  0  0  0  0  0  0  0  0  0  0
   -4.9160   21.9350  -28.9410 H   0  0  0  0  0  0  0  0  0  0  0  0
   -3.5048   20.9796  -32.1125 H   0  0  0  0  0  0  0  0  0  0  0  0
   -2.4134   19.7374  -32.9223 H   0  0  0  0  0  0  0  0  0  0  0  0
   -0.9129   18.1139  -34.0685 H   0  0  0  0  0  0  0  0  0  0  0  0
   -2.5411   14.1641  -35.5289 H   0  0  0  0  0  0  0  0  0  0  0  0
   -3.0975   15.1564  -36.9190 H   0  0  0  0  0  0  0  0  0  0  0  0
   -1.4422   14.4588  -36.9190 H   0  0  0  0  0  0  0  0  0  0  0  0
   -4.3611   16.1162  -35.7541 H   0  0  0  0  0  0  0  0  0  0  0  0
   -5.8649   17.7406  -34.6172 H   0  0  0  0  0  0  0  0  0  0  0  0
   -9.0818   19.5477  -33.3136 H   0  0  0  0  0  0  0  0  0  0  0  0
  -10.7022   21.0587  -32.1707 H   0  0  0  0  0  0  0  0  0  0  0  0
   -9.8779   22.9051  -30.7143 H   0  0  0  0  0  0  0  0  0  0  0  0
   -7.4308   23.2713  -30.4131 H   0  0  0  0  0  0  0  0  0  0  0  0
   -2.0201   23.6482  -30.2012 H   0  0  0  0  0  0  0  0  0  0  0  0
   -0.5683   25.1762  -28.8762 H   0  0  0  0  0  0  0  0  0  0  0  0
  1  2  1  0
  2  3  1  0
  3  4  1  0
  4  5  2  0
  5  6  1  0
  6  7  2  0
  7  8  1  0
  8  9  1  0
  9 10  2  0
  9 11  1  0
 11 12  2  0
 12 13  1  0
 13 14  1  0
 14 15  2  0
 15 16  1  0
 16 17  2  0
 17 18  1  0
 18 19  1  0
 17 20  1  0
 20 21  2  0
 13 22  2  0
 22 23  1  0
 23 24  2  0
 24 25  1  0
 25 26  2  0
 26 27  1  0
 27 28  2  0
  7 29  1  0
 29 30  2  0
 30  4  1  0
 28 11  1  0
 21 14  1  0
 28 23  1  0
  1 31  1  0
  1 32  1  0
  1 33  1  0
  2 34  1  0
  2 35  1  0
  5 36  1  0
  6 37  1  0
  8 38  1  0
 12 39  1  0
 15 40  1  0
 16 41  1  0
 19 42  1  0
 19 43  1  0
 19 44  1  0
 20 45  1  0
 21 46  1  0
 24 47  1  0
 25 48  1  0
 26 49  1  0
 27 50  1  0
 29 51  1  0
 30 52  1  0
M  END
>  <UniqueID>  (35) 
30

>  <SMILES>  (35) 
CCOc1ccc(NC(=O)c2cc(-c3ccc(OC)cc3)nc3ccccc23)cc1

>  <Energy>  (35) 
69.94784948589131

>  <Genealogy>  (35) 
CCOc1ccc(NC(=O)c2cc(-c3ccc(OC)cc3)nc3ccccc23)cc1 (3D coordinates assigned)
CCOc1ccc(NC(=O)c2cc(-c3ccc(OC)cc3)nc3ccccc23)cc1 (optimized conformer: 69.94784948589131 kcal/mol)

>  <smiles>  (35) 
CCOc1ccc(NC(=O)c2cc(-c3ccc(OC)cc3)nc3ccccc23)cc1

>  <score_type>  (35) 
oracle

>  <origin>  (35) 
adgpu

>  <m_score__min__energy>  (35) 
-8.7799999999999994

>  <m_primary>  (35) 
energy

$$$$
35:0
     RDKit          3D

 42 44  0  0  0  0  0  0  0  0999 V2000
   -1.3794   22.4364  -30.7047 H   0  0  0  0  0  0  0  0  0  0  0  0
   -2.1060   23.0510  -30.1530 C   0  0  0  0  0  0  0  0  0  0  0  0
   -3.2880   23.3860  -30.7280 N   0  0  0  0  0  0  0  0  0  0  0  0
   -4.2060   24.1470  -30.0650 C   0  0  0  0  0  0  0  0  0  0  0  0
   -5.3350   24.4670  -30.6260 N   0  0  0  0  0  0  0  0  0  0  0  0
   -5.7390   24.0780  -31.9770 C   0  0  0  0  0  0  0  0  0  0  0  0
   -4.8433   23.8263  -32.5638 H   0  0  0  0  0  0  0  0  0  0  0  0
   -6.2752   24.9181  -32.4426 H   0  0  0  0  0  0  0  0  0  0  0  0
   -6.6520   22.8850  -31.9330 C   0  0  0  0  0  0  0  0  0  0  0  0
   -8.0290   22.9270  -32.0340 C   0  0  0  0  0  0  0  0  0  0  0  0
   -8.6517   23.8179  -32.2026 H   0  0  0  0  0  0  0  0  0  0  0  0
   -8.4670   21.6270  -31.8810 C   0  0  0  0  0  0  0  0  0  0  0  0
   -9.9030   21.2020  -31.9550 C   0  0  0  0  0  0  0  0  0  0  0  0
  -10.3032   21.0835  -30.9373 H   0  0  0  0  0  0  0  0  0  0  0  0
  -10.4845   21.9665  -32.4910 H   0  0  0  0  0  0  0  0  0  0  0  0
   -9.9747   20.2441  -32.4910 H   0  0  0  0  0  0  0  0  0  0  0  0
   -7.4170   20.7900  -31.7040 N   0  0  0  0  0  0  0  0  0  0  0  0
   -7.4850   19.3340  -31.5160 C   0  0  0  0  0  0  0  0  0  0  0  0
   -7.0462   19.0745  -30.5413 H   0  0  0  0  0  0  0  0  0  0  0  0
   -8.5386   19.0204  -31.5548 H   0  0  0  0  0  0  0  0  0  0  0  0
   -6.7260   18.6220  -32.6060 C   0  0  0  0  0  0  0  0  0  0  0  0
   -6.2770   17.3050  -32.4110 C   0  0  0  0  0  0  0  0  0  0  0  0
   -6.4837   16.7904  -31.4610 H   0  0  0  0  0  0  0  0  0  0  0  0
   -5.5680   16.6460  -33.4210 C   0  0  0  0  0  0  0  0  0  0  0  0
   -5.2163   15.6158  -33.2626 H   0  0  0  0  0  0  0  0  0  0  0  0
   -5.3060   17.2940  -34.6300 C   0  0  0  0  0  0  0  0  0  0  0  0
   -4.7471   16.7744  -35.4222 H   0  0  0  0  0  0  0  0  0  0  0  0
   -5.7530   18.6010  -34.8340 C   0  0  0  0  0  0  0  0  0  0  0  0
   -5.5471   19.1092  -35.7876 H   0  0  0  0  0  0  0  0  0  0  0  0
   -6.4620   19.2650  -33.8280 C   0  0  0  0  0  0  0  0  0  0  0  0
   -6.8143   20.2938  -33.9934 H   0  0  0  0  0  0  0  0  0  0  0  0
   -6.3000   21.5570  -31.7350 C   0  0  0  0  0  0  0  0  0  0  0  0
   -4.9060   21.0440  -31.5090 C   0  0  0  0  0  0  0  0  0  0  0  0
   -4.7122   20.9727  -30.4286 H   0  0  0  0  0  0  0  0  0  0  0  0
   -4.8028   20.0490  -31.9665 H   0  0  0  0  0  0  0  0  0  0  0  0
   -4.1824   21.7348  -31.9665 H   0  0  0  0  0  0  0  0  0  0  0  0
   -3.9340   24.5790  -28.8020 N   0  0  0  0  0  0  0  0  0  0  0  0
   -4.6320   25.1620  -28.2860 H   0  0  0  0  0  0  0  0  0  0  0  0
   -2.7600   24.2630  -28.1930 C   0  0  0  0  0  0  0  0  0  0  0  0
   -2.5565   24.6195  -27.1725 H   0  0  0  0  0  0  0  0  0  0  0  0
   -1.8140   23.4870  -28.8620 C   0  0  0  0  0  0  0  0  0  0  0  0
   -0.8596   23.2251  -28.3819 H   0  0  0  0  0  0  0  0  0  0  0  0
  1  2  1  0
  2  3  2  0
  3  4  1  0
  4  5  2  0
  5  6  1  0
  6  7  1  0
  6  8  1  0
  6  9  1  0
  9 10  1  0
 10 11  1  0
 10 12  2  0
 12 13  1  0
 13 14  1  0
 13 15  1  0
 13 16  1  0
 12 17  1  0
 17 18  1  0
 18 19  1  0
 18 20  1  0
 18 21  1  0
 21 22  2  0
 22 23  1  0
 22 24  1  0
 24 25  1  0
 24 26  2  0
 26 27  1  0
 26 28  1  0
 28 29  1  0
 28 30  2  0
 30 31  1  0
 17 32  1  0
 32 33  1  0
 33 34  1  0
 33 35  1  0
 33 36  1  0
  4 37  1  0
 37 38  1  0
 37 39  1  0
 39 40  1  0
 39 41  2  0
 41 42  1  0
 41  2  1  0
 32  9  2  0
 30 21  1  0
M  END
>  <UniqueID>  (36) 
31

>  <SMILES>  (36) 
Cc1cc(C/N=c2\nccc[nH]2)c(C)n1Cc1ccccc1

>  <Energy>  (36) 
66.93853673867831

>  <Genealogy>  (36) 
Cc1cc(C/N=c2\nccc[nH]2)c(C)n1Cc1ccccc1 (cis-trans isomerization)
Cc1cc(C/N=c2\nccc[nH]2)c(C)n1Cc1ccccc1 (3D coordinates assigned)
Cc1cc(C/N=c2\nccc[nH]2)c(C)n1Cc1ccccc1 (optimized conformer: 66.93853673867831 kcal/mol)

>  <smiles>  (36) 
Cc1cc(CN=c2nccc[nH]2)c(C)n1Cc1ccccc1

>  <score_type>  (36) 
oracle

>  <origin>  (36) 
adgpu

>  <m_score__min__energy>  (36) 
-8.8499999999999996

>  <m_primary>  (36) 
energy

$$$$
36:0
     RDKit          3D

 34 35  0  0  0  0  0  0  0  0999 V2000
   -6.8340   15.6360  -34.1890 C   0  0  0  0  0  0  0  0  0  0  0  0
   -5.3550   16.0100  -34.1740 C   0  0  0  0  0  0  0  0  0  0  0  0
   -5.1880   17.4890  -33.9530 C   0  0  0  0  0  0  0  0  0  0  0  0
   -6.1190   18.3940  -34.4870 C   0  0  0  0  0  0  0  0  0  0  0  0
   -6.0100   19.7610  -34.2140 C   0  0  0  0  0  0  0  0  0  0  0  0
   -4.9880   20.2370  -33.3810 C   0  0  0  0  0  0  0  0  0  0  0  0
   -4.9480   21.6300  -33.0340 N   0  0  0  0  0  0  0  0  0  0  0  0
   -5.3130   22.1360  -31.7380 C   0  0  0  0  0  0  0  0  0  0  0  0
   -4.6340   23.5250  -31.2050 S   0  0  0  0  0  0  0  0  0  0  0  0
   -6.2680   21.4560  -30.9030 N   0  0  0  0  0  0  0  0  0  0  0  0
   -7.3250   20.6280  -31.4170 C   0  0  0  0  0  0  0  0  0  0  0  0
   -7.2100   19.2270  -31.3920 C   0  0  0  0  0  0  0  0  0  0  0  0
   -8.2560   18.4220  -31.8490 C   0  0  0  0  0  0  0  0  0  0  0  0
   -9.4220   19.0080  -32.3470 C   0  0  0  0  0  0  0  0  0  0  0  0
   -9.5400   20.3990  -32.3960 C   0  0  0  0  0  0  0  0  0  0  0  0
   -8.4960   21.2120  -31.9420 C   0  0  0  0  0  0  0  0  0  0  0  0
   -8.7070   22.9580  -31.9780 Cl  0  0  0  0  0  0  0  0  0  0  0  0
   -4.0350   19.3360  -32.8760 C   0  0  0  0  0  0  0  0  0  0  0  0
   -4.1430   17.9700  -33.1500 C   0  0  0  0  0  0  0  0  0  0  0  0
   -7.1993   15.5436  -33.1556 H   0  0  0  0  0  0  0  0  0  0  0  0
   -7.4047   16.4181  -34.7111 H   0  0  0  0  0  0  0  0  0  0  0  0
   -6.9643   14.6766  -34.7111 H   0  0  0  0  0  0  0  0  0  0  0  0
   -4.8516   15.4636  -33.3628 H   0  0  0  0  0  0  0  0  0  0  0  0
   -4.9104   15.7426  -35.1440 H   0  0  0  0  0  0  0  0  0  0  0  0
   -6.9377   18.0261  -35.1229 H   0  0  0  0  0  0  0  0  0  0  0  0
   -6.7297   20.4663  -34.6550 H   0  0  0  0  0  0  0  0  0  0  0  0
   -4.6670   22.3150  -33.7700 H   0  0  0  0  0  0  0  0  0  0  0  0
   -6.2020   21.5950  -29.8690 H   0  0  0  0  0  0  0  0  0  0  0  0
   -6.2896   18.7614  -31.0098 H   0  0  0  0  0  0  0  0  0  0  0  0
   -8.1615   17.3265  -31.8167 H   0  0  0  0  0  0  0  0  0  0  0  0
  -10.2480   18.3736  -32.7009 H   0  0  0  0  0  0  0  0  0  0  0  0
  -10.4578   20.8571  -32.7933 H   0  0  0  0  0  0  0  0  0  0  0  0
   -3.2008   19.7075  -32.2627 H   0  0  0  0  0  0  0  0  0  0  0  0
   -3.4050   17.2684  -32.7340 H   0  0  0  0  0  0  0  0  0  0  0  0
  1  2  1  0
  2  3  1  0
  3  4  2  0
  4  5  1  0
  5  6  2  0
  6  7  1  0
  7  8  1  0
  8  9  2  0
  8 10  1  0
 10 11  1  0
 11 12  2  0
 12 13  1  0
 13 14  2  0
 14 15  1  0
 15 16  2  0
 16 17  1  0
  6 18  1  0
 18 19  2  0
 19  3  1  0
 16 11  1  0
  1 20  1  0
  1 21  1  0
  1 22  1  0
  2 23  1  0
  2 24  1  0
  4 25  1  0
  5 26  1  0
  7 27  1  0
 10 28  1  0
 12 29  1  0
 13 30  1  0
 14 31  1  0
 15 32  1  0
 18 33  1  0
 19 34  1  0
M  END
>  <UniqueID>  (37) 
32

>  <SMILES>  (37) 
CCc1ccc(NC(=S)Nc2ccccc2Cl)cc1

>  <Energy>  (37) 
37.139597901590435

>  <Genealogy>  (37) 
CCc1ccc(NC(=S)Nc2ccccc2Cl)cc1 (3D coordinates assigned)
CCc1ccc(NC(=S)Nc2ccccc2Cl)cc1 (optimized conformer: 37.139597901590435 kcal/mol)

>  <smiles>  (37) 
CCc1ccc(NC(=S)Nc2ccccc2Cl)cc1

>  <score_type>  (37) 
oracle

>  <origin>  (37) 
adgpu

>  <m_score__min__energy>  (37) 
-7.1900000000000004

>  <m_primary>  (37) 
energy

$$$$
37:0
     RDKit          3D

 47 49  0  0  0  0  0  0  0  0999 V2000
    2.2560   18.7490  -29.4160 C   0  0  0  0  0  0  0  0  0  0  0  0
    1.0140   18.9190  -28.6550 N   0  0  0  0  0  0  0  0  0  0  0  0
    0.4840   17.7790  -27.8980 C   0  0  0  0  0  0  0  0  0  0  0  0
    0.3190   20.1950  -28.6500 C   0  0  0  0  0  0  0  0  0  0  0  0
   -0.3340   20.6690  -29.8080 C   0  0  0  0  0  0  0  0  0  0  0  0
   -1.0040   21.8950  -29.8010 C   0  0  0  0  0  0  0  0  0  0  0  0
   -1.0320   22.6810  -28.6410 C   0  0  0  0  0  0  0  0  0  0  0  0
   -1.7870   23.9810  -28.6150 C   0  0  0  0  0  0  0  0  0  0  0  0
   -3.2150   23.7320  -28.7950 N   0  0  0  0  0  0  0  0  0  0  0  0
   -3.9590   24.2970  -29.8830 C   0  0  0  0  0  0  0  0  0  0  0  0
   -3.4960   25.2840  -30.5150 O   0  0  0  0  0  0  0  0  0  0  0  0
   -5.2860   23.7670  -30.2520 C   0  0  0  0  0  0  0  0  0  0  0  0
   -5.5110   22.5350  -30.8310 C   0  0  0  0  0  0  0  0  0  0  0  0
   -6.8900   22.4630  -30.9740 C   0  0  0  0  0  0  0  0  0  0  0  0
   -7.6690   21.3430  -31.5570 C   0  0  0  0  0  0  0  0  0  0  0  0
   -9.0480   21.5000  -31.7970 C   0  0  0  0  0  0  0  0  0  0  0  0
   -9.7960   20.4540  -32.3460 C   0  0  0  0  0  0  0  0  0  0  0  0
   -9.1800   19.2410  -32.6600 C   0  0  0  0  0  0  0  0  0  0  0  0
   -7.8130   19.0720  -32.4270 C   0  0  0  0  0  0  0  0  0  0  0  0
   -7.0600   20.1150  -31.8790 C   0  0  0  0  0  0  0  0  0  0  0  0
   -7.4500   23.5870  -30.4840 N   0  0  0  0  0  0  0  0  0  0  0  0
   -6.4780   24.3690  -30.0400 N   0  0  0  0  0  0  0  0  0  0  0  0
   -6.7310   25.6530  -29.3940 C   0  0  0  0  0  0  0  0  0  0  0  0
   -0.3940   22.2170  -27.4840 C   0  0  0  0  0  0  0  0  0  0  0  0
    0.2770   20.9920  -27.4870 C   0  0  0  0  0  0  0  0  0  0  0  0
    3.0997   18.6335  -28.7197 H   0  0  0  0  0  0  0  0  0  0  0  0
    2.1781   17.8531  -30.0495 H   0  0  0  0  0  0  0  0  0  0  0  0
    2.4217   19.6328  -30.0495 H   0  0  0  0  0  0  0  0  0  0  0  0
    0.5771   17.9793  -26.8204 H   0  0  0  0  0  0  0  0  0  0  0  0
   -0.5756   17.6302  -28.1531 H   0  0  0  0  0  0  0  0  0  0  0  0
    1.0532   16.8730  -28.1531 H   0  0  0  0  0  0  0  0  0  0  0  0
   -0.3152   20.0656  -30.7275 H   0  0  0  0  0  0  0  0  0  0  0  0
   -1.5125   22.2454  -30.7113 H   0  0  0  0  0  0  0  0  0  0  0  0
   -1.6229   24.4785  -27.6477 H   0  0  0  0  0  0  0  0  0  0  0  0
   -1.4266   24.6247  -29.4310 H   0  0  0  0  0  0  0  0  0  0  0  0
   -3.7080   23.1470  -28.0850 H   0  0  0  0  0  0  0  0  0  0  0  0
   -4.7646   21.7788  -31.1157 H   0  0  0  0  0  0  0  0  0  0  0  0
   -9.5401   22.4525  -31.5507 H   0  0  0  0  0  0  0  0  0  0  0  0
  -10.8721   20.5870  -32.5309 H   0  0  0  0  0  0  0  0  0  0  0  0
   -9.7707   18.4190  -33.0906 H   0  0  0  0  0  0  0  0  0  0  0  0
   -7.3280   18.1164  -32.6752 H   0  0  0  0  0  0  0  0  0  0  0  0
   -5.9840   19.9751  -31.6981 H   0  0  0  0  0  0  0  0  0  0  0  0
   -6.7058   25.5252  -28.3017 H   0  0  0  0  0  0  0  0  0  0  0  0
   -5.9577   26.3744  -29.6967 H   0  0  0  0  0  0  0  0  0  0  0  0
   -7.7201   26.0272  -29.6967 H   0  0  0  0  0  0  0  0  0  0  0  0
   -0.4215   22.8219  -26.5657 H   0  0  0  0  0  0  0  0  0  0  0  0
    0.7786   20.6447  -26.5717 H   0  0  0  0  0  0  0  0  0  0  0  0
  1  2  1  0
  2  3  1  0
  2  4  1  0
  4  5  2  0
  5  6  1  0
  6  7  2  0
  7  8  1  0
  8  9  1  0
  9 10  1  0
 10 11  2  0
 10 12  1  0
 12 13  2  0
 13 14  1  0
 14 15  1  0
 15 16  2  0
 16 17  1  0
 17 18  2  0
 18 19  1  0
 19 20  2  0
 14 21  2  0
 21 22  1  0
 22 23  1  0
  7 24  1  0
 24 25  2  0
 25  4  1  0
 22 12  1  0
 20 15  1  0
  1 26  1  0
  1 27  1  0
  1 28  1  0
  3 29  1  0
  3 30  1  0
  3 31  1  0
  5 32  1  0
  6 33  1  0
  8 34  1  0
  8 35  1  0
  9 36  1  0
 13 37  1  0
 16 38  1  0
 17 39  1  0
 18 40  1  0
 19 41  1  0
 20 42  1  0
 23 43  1  0
 23 44  1  0
 23 45  1  0
 24 46  1  0
 25 47  1  0
M  END
>  <UniqueID>  (38) 
33

>  <SMILES>  (38) 
CN(C)c1ccc(CNC(=O)c2cc(-c3ccccc3)nn2C)cc1

>  <Energy>  (38) 
81.10401256323094

>  <Genealogy>  (38) 
CN(C)c1ccc(CNC(=O)c2cc(-c3ccccc3)nn2C)cc1 (3D coordinates assigned)
CN(C)c1ccc(CNC(=O)c2cc(-c3ccccc3)nn2C)cc1 (optimized conformer: 81.10401256323094 kcal/mol)

>  <smiles>  (38) 
CN(C)c1ccc(CNC(=O)c2cc(-c3ccccc3)nn2C)cc1

>  <score_type>  (38) 
oracle

>  <origin>  (38) 
adgpu

>  <m_score__min__energy>  (38) 
-8.7200000000000006

>  <m_primary>  (38) 
energy

$$$$
38:0
     RDKit          3D

 42 44  0  0  0  0  0  0  0  0999 V2000
   -4.7680   17.4210  -34.8540 C   0  0  0  0  0  0  0  0  0  0  0  0
   -5.3000   18.2000  -33.7230 N   0  0  0  0  0  0  0  0  0  0  0  0
   -6.1110   19.3160  -34.2360 C   0  0  0  0  0  0  0  0  0  0  0  0
   -6.0990   17.3480  -32.8120 C   0  0  0  0  0  0  0  0  0  0  0  0
   -6.4730   18.1210  -31.5420 C   0  0  0  0  0  0  0  0  0  0  0  0
   -7.7410   18.7650  -31.6690 O   0  0  0  0  0  0  0  0  0  0  0  0
   -7.9600   20.1530  -31.6430 C   0  0  0  0  0  0  0  0  0  0  0  0
   -9.2350   20.6240  -31.9770 C   0  0  0  0  0  0  0  0  0  0  0  0
   -9.5090   21.9920  -31.9720 C   0  0  0  0  0  0  0  0  0  0  0  0
   -8.5100   22.9070  -31.6360 C   0  0  0  0  0  0  0  0  0  0  0  0
   -7.2200   22.4580  -31.3120 C   0  0  0  0  0  0  0  0  0  0  0  0
   -6.1620   23.4170  -30.9360 C   0  0  0  0  0  0  0  0  0  0  0  0
   -6.3500   24.6040  -30.2540 C   0  0  0  0  0  0  0  0  0  0  0  0
   -5.1770   25.2590  -30.2060 N   0  0  0  0  0  0  0  0  0  0  0  0
   -4.2410   24.5500  -30.8140 N   0  0  0  0  0  0  0  0  0  0  0  0
   -4.8100   23.4150  -31.2660 C   0  0  0  0  0  0  0  0  0  0  0  0
   -4.0420   22.3450  -31.9280 C   0  0  0  0  0  0  0  0  0  0  0  0
   -3.3390   21.3530  -31.2710 C   0  0  0  0  0  0  0  0  0  0  0  0
   -2.8190   20.5330  -32.2520 C   0  0  0  0  0  0  0  0  0  0  0  0
   -3.2390   21.0500  -33.4620 C   0  0  0  0  0  0  0  0  0  0  0  0
   -3.9880   22.1480  -33.2600 N   0  0  0  0  0  0  0  0  0  0  0  0
   -6.9550   21.0780  -31.2980 C   0  0  0  0  0  0  0  0  0  0  0  0
   -4.1864   16.5694  -34.4713 H   0  0  0  0  0  0  0  0  0  0  0  0
   -5.6018   17.0494  -35.4677 H   0  0  0  0  0  0  0  0  0  0  0  0
   -4.1184   18.0624  -35.4677 H   0  0  0  0  0  0  0  0  0  0  0  0
   -6.5255   19.8864  -33.3917 H   0  0  0  0  0  0  0  0  0  0  0  0
   -5.4802   19.9758  -34.8498 H   0  0  0  0  0  0  0  0  0  0  0  0
   -6.9333   18.9198  -34.8498 H   0  0  0  0  0  0  0  0  0  0  0  0
   -7.0182   17.0310  -33.3264 H   0  0  0  0  0  0  0  0  0  0  0  0
   -5.4995   16.4699  -32.5298 H   0  0  0  0  0  0  0  0  0  0  0  0
   -6.5131   17.4188  -30.6963 H   0  0  0  0  0  0  0  0  0  0  0  0
   -5.7103   18.8960  -31.3756 H   0  0  0  0  0  0  0  0  0  0  0  0
  -10.0274   19.9099  -32.2456 H   0  0  0  0  0  0  0  0  0  0  0  0
  -10.5155   22.3506  -32.2337 H   0  0  0  0  0  0  0  0  0  0  0  0
   -8.7343   23.9838  -31.6250 H   0  0  0  0  0  0  0  0  0  0  0  0
   -7.2996   24.9540  -29.8229 H   0  0  0  0  0  0  0  0  0  0  0  0
   -5.0140   26.1910  -29.7650 H   0  0  0  0  0  0  0  0  0  0  0  0
   -3.2180   21.2396  -30.1836 H   0  0  0  0  0  0  0  0  0  0  0  0
   -2.1924   19.6418  -32.0999 H   0  0  0  0  0  0  0  0  0  0  0  0
   -2.9961   20.6253  -34.4472 H   0  0  0  0  0  0  0  0  0  0  0  0
   -4.4680   22.7040  -34.0010 H   0  0  0  0  0  0  0  0  0  0  0  0
   -5.9550   20.7172  -31.0154 H   0  0  0  0  0  0  0  0  0  0  0  0
  1  2  1  0
  2  3  1  0
  2  4  1  0
  4  5  1  0
  5  6  1  0
  6  7  1  0
  7  8  2  0
  8  9  1  0
  9 10  2  0
 10 11  1  0
 11 12  1  0
 12 13  2  0
 13 14  1  0
 14 15  1  0
 15 16  2  0
 16 17  1  0
 17 18  2  0
 18 19  1  0
 19 20  2  0
 20 21  1  0
 11 22  2  0
 22  7  1  0
 16 12  1  0
 21 17  1  0
  1 23  1  0
  1 24  1  0
  1 25  1  0
  3 26  1  0
  3 27  1  0
  3 28  1  0
  4 29  1  0
  4 30  1  0
  5 31  1  0
  5 32  1  0
  8 33  1  0
  9 34  1  0
 10 35  1  0
 13 36  1  0
 14 37  1  0
 18 38  1  0
 19 39  1  0
 20 40  1  0
 21 41  1  0
 22 42  1  0
M  END
>  <UniqueID>  (39) 
34

>  <SMILES>  (39) 
CN(C)CCOc1cccc(-c2c[nH]nc2-c2ccc[nH]2)c1

>  <Energy>  (39) 
104.75548836004911

>  <Genealogy>  (39) 
CN(C)CCOc1cccc(-c2c[nH]nc2-c2ccc[nH]2)c1 (3D coordinates assigned)
CN(C)CCOc1cccc(-c2c[nH]nc2-c2ccc[nH]2)c1 (optimized conformer: 104.75548836004911 kcal/mol)

>  <smiles>  (39) 
CN(C)CCOc1cccc(-c2c[nH]nc2-c2ccc[nH]2)c1

>  <score_type>  (39) 
oracle

>  <origin>  (39) 
adgpu

>  <m_score__min__energy>  (39) 
-8.4600000000000009

>  <m_primary>  (39) 
energy

$$$$
39:0
     RDKit          3D

 49 52  0  0  0  0  0  0  0  0999 V2000
   -1.1610   27.4880  -25.4060 C   0  0  0  0  0  0  0  0  0  0  0  0
   -1.5940   26.0860  -24.9950 C   0  0  0  0  0  0  0  0  0  0  0  0
   -2.5680   25.5590  -25.9450 N   0  0  0  0  0  0  0  0  0  0  0  0
   -3.8400   25.3080  -25.6720 N   0  0  0  0  0  0  0  0  0  0  0  0
   -4.4070   24.7480  -26.7340 N   0  0  0  0  0  0  0  0  0  0  0  0
   -3.5080   24.6240  -27.7020 N   0  0  0  0  0  0  0  0  0  0  0  0
   -3.7660   24.0270  -28.9870 C   0  0  0  0  0  0  0  0  0  0  0  0
   -4.7280   24.5950  -29.8390 C   0  0  0  0  0  0  0  0  0  0  0  0
   -4.9920   24.0280  -31.0890 C   0  0  0  0  0  0  0  0  0  0  0  0
   -4.2860   22.8940  -31.5160 C   0  0  0  0  0  0  0  0  0  0  0  0
   -4.6130   22.2410  -32.8330 C   0  0  0  0  0  0  0  0  0  0  0  0
   -5.5350   21.1110  -32.6500 N   0  0  0  0  0  0  0  0  0  0  0  0
   -6.8760   21.3680  -32.2010 C   0  0  0  0  0  0  0  0  0  0  0  0
   -7.4380   22.6450  -32.3490 C   0  0  0  0  0  0  0  0  0  0  0  0
   -8.7480   22.8870  -31.9280 C   0  0  0  0  0  0  0  0  0  0  0  0
   -9.5010   21.8580  -31.3530 C   0  0  0  0  0  0  0  0  0  0  0  0
   -8.9430   20.5860  -31.2000 C   0  0  0  0  0  0  0  0  0  0  0  0
   -7.6320   20.3390  -31.6230 C   0  0  0  0  0  0  0  0  0  0  0  0
   -5.2320   19.8110  -33.2000 C   0  0  0  0  0  0  0  0  0  0  0  0
   -6.0580   19.2310  -34.1820 C   0  0  0  0  0  0  0  0  0  0  0  0
   -5.7580   17.9670  -34.7010 C   0  0  0  0  0  0  0  0  0  0  0  0
   -4.6380   17.2690  -34.2430 C   0  0  0  0  0  0  0  0  0  0  0  0
   -3.8160   17.8320  -33.2640 C   0  0  0  0  0  0  0  0  0  0  0  0
   -4.1120   19.0950  -32.7430 C   0  0  0  0  0  0  0  0  0  0  0  0
   -3.3190   22.3280  -30.6730 C   0  0  0  0  0  0  0  0  0  0  0  0
   -3.0550   22.8930  -29.4220 C   0  0  0  0  0  0  0  0  0  0  0  0
   -2.3610   25.1180  -27.1960 C   0  0  0  0  0  0  0  0  0  0  0  0
   -1.2440   25.1190  -27.7800 O   0  0  0  0  0  0  0  0  0  0  0  0
   -0.9743   28.0926  -24.5062 H   0  0  0  0  0  0  0  0  0  0  0  0
   -0.2399   27.4267  -26.0042 H   0  0  0  0  0  0  0  0  0  0  0  0
   -1.9562   27.9568  -26.0042 H   0  0  0  0  0  0  0  0  0  0  0  0
   -0.7142   25.4261  -24.9733 H   0  0  0  0  0  0  0  0  0  0  0  0
   -2.0550   26.1315  -23.9973 H   0  0  0  0  0  0  0  0  0  0  0  0
   -5.2776   25.4928  -29.5199 H   0  0  0  0  0  0  0  0  0  0  0  0
   -5.7575   24.4736  -31.7412 H   0  0  0  0  0  0  0  0  0  0  0  0
   -5.0821   22.9835  -33.4953 H   0  0  0  0  0  0  0  0  0  0  0  0
   -3.6801   21.8620  -33.2757 H   0  0  0  0  0  0  0  0  0  0  0  0
   -6.8463   23.4568  -32.7972 H   0  0  0  0  0  0  0  0  0  0  0  0
   -9.1878   23.8880  -32.0489 H   0  0  0  0  0  0  0  0  0  0  0  0
  -10.5321   22.0500  -31.0214 H   0  0  0  0  0  0  0  0  0  0  0  0
   -9.5351   19.7776  -30.7464 H   0  0  0  0  0  0  0  0  0  0  0  0
   -7.1948   19.3369  -31.5018 H   0  0  0  0  0  0  0  0  0  0  0  0
   -6.9436   19.7746  -34.5428 H   0  0  0  0  0  0  0  0  0  0  0  0
   -6.4052   17.5220  -35.4711 H   0  0  0  0  0  0  0  0  0  0  0  0
   -4.4033   16.2758  -34.6534 H   0  0  0  0  0  0  0  0  0  0  0  0
   -2.9351   17.2811  -32.9027 H   0  0  0  0  0  0  0  0  0  0  0  0
   -3.4634   19.5319  -31.9694 H   0  0  0  0  0  0  0  0  0  0  0  0
   -2.7653   21.4347  -30.9978 H   0  0  0  0  0  0  0  0  0  0  0  0
   -2.2862   22.4482  -28.7731 H   0  0  0  0  0  0  0  0  0  0  0  0
  1  2  1  0
  2  3  1  0
  3  4  1  0
  4  5  2  0
  5  6  1  0
  6  7  1  0
  7  8  2  0
  8  9  1  0
  9 10  2  0
 10 11  1  0
 11 12  1  0
 12 13  1  0
 13 14  2  0
 14 15  1  0
 15 16  2  0
 16 17  1  0
 17 18  2  0
 12 19  1  0
 19 20  2  0
 20 21  1  0
 21 22  2  0
 22 23  1  0
 23 24  2  0
 10 25  1  0
 25 26  2  0
  6 27  1  0
 27 28  2  0
 27  3  1  0
 26  7  1  0
 18 13  1  0
 24 19  1  0
  1 29  1  0
  1 30  1  0
  1 31  1  0
  2 32  1  0
  2 33  1  0
  8 34  1  0
  9 35  1  0
 11 36  1  0
 11 37  1  0
 14 38  1  0
 15 39  1  0
 16 40  1  0
 17 41  1  0
 18 42  1  0
 20 43  1  0
 21 44  1  0
 22 45  1  0
 23 46  1  0
 24 47  1  0
 25 48  1  0
 26 49  1  0
M  END
>  <UniqueID>  (40) 
35

>  <SMILES>  (40) 
CCn1nnn(-c2ccc(CN(c3ccccc3)c3ccccc3)cc2)c1=O

>  <Energy>  (40) 
107.17751921760424

>  <Genealogy>  (40) 
CCn1nnn(-c2ccc(CN(c3ccccc3)c3ccccc3)cc2)c1=O (3D coordinates assigned)
CCn1nnn(-c2ccc(CN(c3ccccc3)c3ccccc3)cc2)c1=O (optimized conformer: 107.17751921760424 kcal/mol)

>  <smiles>  (40) 
CCn1nnn(-c2ccc(CN(c3ccccc3)c3ccccc3)cc2)c1=O

>  <score_type>  (40) 
oracle

>  <origin>  (40) 
adgpu

>  <m_score__min__energy>  (40) 
-9.3000000000000007

>  <m_primary>  (40) 
energy

$$$$
40:0
     RDKit          3D

 64 67  0  0  0  0  0  0  0  0999 V2000
   -1.0320   16.4710  -32.9870 C   0  0  0  0  0  0  0  0  0  0  0  0
   -1.0490   17.3310  -34.1210 O   0  0  0  0  0  0  0  0  0  0  0  0
   -1.1590   18.7290  -34.0570 C   0  0  0  0  0  0  0  0  0  0  0  0
   -2.4240   19.2820  -33.8340 C   0  0  0  0  0  0  0  0  0  0  0  0
   -2.5960   20.6740  -33.7580 C   0  0  0  0  0  0  0  0  0  0  0  0
   -3.8860   21.2550  -33.5080 N   0  0  0  0  0  0  0  0  0  0  0  0
   -4.7530   20.8420  -32.4420 C   0  0  0  0  0  0  0  0  0  0  0  0
   -4.5660   19.7440  -31.8540 O   0  0  0  0  0  0  0  0  0  0  0  0
   -5.9060   21.6770  -32.0620 C   0  0  0  0  0  0  0  0  0  0  0  0
   -7.2340   21.3250  -32.3240 C   0  0  0  0  0  0  0  0  0  0  0  0
   -7.6620   20.1760  -33.0700 N   0  0  0  0  0  0  0  0  0  0  0  0
   -7.7010   18.8440  -32.4680 C   0  0  0  0  0  0  0  0  0  0  0  0
   -6.6150   17.9710  -33.0420 C   0  0  0  0  0  0  0  0  0  0  0  0
   -6.1100   18.2250  -34.3230 C   0  0  0  0  0  0  0  0  0  0  0  0
   -5.0800   17.4400  -34.8440 C   0  0  0  0  0  0  0  0  0  0  0  0
   -4.5280   16.3920  -34.0820 C   0  0  0  0  0  0  0  0  0  0  0  0
   -3.4940   15.5790  -34.5730 O   0  0  0  0  0  0  0  0  0  0  0  0
   -3.0450   15.5730  -35.9250 C   0  0  0  0  0  0  0  0  0  0  0  0
   -5.0170   16.1440  -32.7900 C   0  0  0  0  0  0  0  0  0  0  0  0
   -4.4420   15.0970  -32.0510 O   0  0  0  0  0  0  0  0  0  0  0  0
   -4.5650   13.7160  -32.3790 C   0  0  0  0  0  0  0  0  0  0  0  0
   -6.0570   16.9400  -32.2720 C   0  0  0  0  0  0  0  0  0  0  0  0
   -8.2620   22.5050  -31.6930 S   0  0  0  0  0  0  0  0  0  0  0  0
   -7.0350   23.4610  -31.0580 C   0  0  0  0  0  0  0  0  0  0  0  0
   -5.7980   22.9000  -31.3660 C   0  0  0  0  0  0  0  0  0  0  0  0
   -4.5140   23.4830  -30.8280 C   0  0  0  0  0  0  0  0  0  0  0  0
   -4.6900   24.9490  -30.3890 C   0  0  0  0  0  0  0  0  0  0  0  0
   -5.9650   25.1370  -29.5500 C   0  0  0  0  0  0  0  0  0  0  0  0
   -7.2190   24.7730  -30.3610 C   0  0  0  0  0  0  0  0  0  0  0  0
   -1.4770   21.5100  -33.8760 C   0  0  0  0  0  0  0  0  0  0  0  0
   -0.2040   20.9780  -34.1070 C   0  0  0  0  0  0  0  0  0  0  0  0
    0.8730   21.8670  -34.2380 O   0  0  0  0  0  0  0  0  0  0  0  0
    1.6440   22.0320  -35.4240 C   0  0  0  0  0  0  0  0  0  0  0  0
   -0.0480   19.5820  -34.2010 C   0  0  0  0  0  0  0  0  0  0  0  0
   -1.0440   17.0756  -32.0681 H   0  0  0  0  0  0  0  0  0  0  0  0
   -1.9174   15.8186  -33.0082 H   0  0  0  0  0  0  0  0  0  0  0  0
   -0.1215   15.8541  -33.0082 H   0  0  0  0  0  0  0  0  0  0  0  0
   -3.2942   18.6194  -33.7168 H   0  0  0  0  0  0  0  0  0  0  0  0
   -4.2610   21.9440  -34.1980 H   0  0  0  0  0  0  0  0  0  0  0  0
   -7.9730   20.3030  -34.0600 H   0  0  0  0  0  0  0  0  0  0  0  0
   -7.5561   18.9339  -31.3813 H   0  0  0  0  0  0  0  0  0  0  0  0
   -8.6769   18.3851  -32.6848 H   0  0  0  0  0  0  0  0  0  0  0  0
   -6.5273   19.0477  -34.9222 H   0  0  0  0  0  0  0  0  0  0  0  0
   -4.6973   17.6411  -35.8555 H   0  0  0  0  0  0  0  0  0  0  0  0
   -1.9453   15.5583  -35.9461 H   0  0  0  0  0  0  0  0  0  0  0  0
   -3.4335   14.6800  -36.4364 H   0  0  0  0  0  0  0  0  0  0  0  0
   -3.4095   16.4761  -36.4364 H   0  0  0  0  0  0  0  0  0  0  0  0
   -4.6178   13.1228  -31.4542 H   0  0  0  0  0  0  0  0  0  0  0  0
   -5.4807   13.5592  -32.9680 H   0  0  0  0  0  0  0  0  0  0  0  0
   -3.6915   13.3998  -32.9680 H   0  0  0  0  0  0  0  0  0  0  0  0
   -6.4344   16.7517  -31.2561 H   0  0  0  0  0  0  0  0  0  0  0  0
   -4.1889   22.8886  -29.9614 H   0  0  0  0  0  0  0  0  0  0  0  0
   -3.7632   23.4549  -31.6314 H   0  0  0  0  0  0  0  0  0  0  0  0
   -3.8191   25.2491  -29.7878 H   0  0  0  0  0  0  0  0  0  0  0  0
   -4.7760   25.5716  -31.2918 H   0  0  0  0  0  0  0  0  0  0  0  0
   -5.9102   24.4890  -28.6628 H   0  0  0  0  0  0  0  0  0  0  0  0
   -6.0353   26.1938  -29.2528 H   0  0  0  0  0  0  0  0  0  0  0  0
   -8.0811   24.7032  -29.6813 H   0  0  0  0  0  0  0  0  0  0  0  0
   -7.3912   25.5540  -31.1162 H   0  0  0  0  0  0  0  0  0  0  0  0
   -1.6016   22.5992  -33.7857 H   0  0  0  0  0  0  0  0  0  0  0  0
    2.6870   22.2552  -35.1552 H   0  0  0  0  0  0  0  0  0  0  0  0
    1.6082   21.1059  -36.0164 H   0  0  0  0  0  0  0  0  0  0  0  0
    1.2323   22.8624  -36.0164 H   0  0  0  0  0  0  0  0  0  0  0  0
    0.9483   19.1549  -34.3882 H   0  0  0  0  0  0  0  0  0  0  0  0
  1  2  1  0
  2  3  1  0
  3  4  2  0
  4  5  1  0
  5  6  1  0
  6  7  1  0
  7  8  2  0
  7  9  1  0
  9 10  2  0
 10 11  1  0
 11 12  1  0
 12 13  1  0
 13 14  2  0
 14 15  1  0
 15 16  2  0
 16 17  1  0
 17 18  1  0
 16 19  1  0
 19 20  1  0
 20 21  1  0
 19 22  2  0
 10 23  1  0
 23 24  1  0
 24 25  2  0
 25 26  1  0
 26 27  1  0
 27 28  1  0
 28 29  1  0
  5 30  2  0
 30 31  1  0
 31 32  1  0
 32 33  1  0
 31 34  2  0
 34  3  1  0
 25  9  1  0
 22 13  1  0
 29 24  1  0
  1 35  1  0
  1 36  1  0
  1 37  1  0
  4 38  1  0
  6 39  1  0
 11 40  1  0
 12 41  1  0
 12 42  1  0
 14 43  1  0
 15 44  1  0
 18 45  1  0
 18 46  1  0
 18 47  1  0
 21 48  1  0
 21 49  1  0
 21 50  1  0
 22 51  1  0
 26 52  1  0
 26 53  1  0
 27 54  1  0
 27 55  1  0
 28 56  1  0
 28 57  1  0
 29 58  1  0
 29 59  1  0
 30 60  1  0
 33 61  1  0
 33 62  1  0
 33 63  1  0
 34 64  1  0
M  END
>  <UniqueID>  (41) 
36

>  <SMILES>  (41) 
COc1cc(NC(=O)c2c(NCc3ccc(OC)c(OC)c3)sc3c2CCCC3)cc(OC)c1

>  <Energy>  (41) 
96.09035354339801

>  <Genealogy>  (41) 
COc1cc(NC(=O)c2c(NCc3ccc(OC)c(OC)c3)sc3c2CCCC3)cc(OC)c1 (3D coordinates assigned)
COc1cc(NC(=O)c2c(NCc3ccc(OC)c(OC)c3)sc3c2CCCC3)cc(OC)c1 (nonaromatic ring conformer: 96.09035354339801 kcal/mol)

>  <smiles>  (41) 
COc1cc(NC(=O)c2c(NCc3ccc(OC)c(OC)c3)sc3c2CCCC3)cc(OC)c1

>  <score_type>  (41) 
oracle

>  <origin>  (41) 
adgpu

>  <m_score__min__energy>  (41) 
-9.7599999999999998

>  <m_primary>  (41) 
energy

$$$$
41:0
     RDKit          3D

 58 61  0  0  0  0  0  0  0  0999 V2000
   -2.2660   24.5490  -28.8910 C   0  0  0  0  0  0  0  0  0  0  0  0
   -3.1380   25.1920  -29.8160 O   0  0  0  0  0  0  0  0  0  0  0  0
   -4.3870   24.6880  -30.2100 C   0  0  0  0  0  0  0  0  0  0  0  0
   -5.5350   25.4030  -29.8510 C   0  0  0  0  0  0  0  0  0  0  0  0
   -6.8000   24.9440  -30.2230 C   0  0  0  0  0  0  0  0  0  0  0  0
   -6.9320   23.7630  -30.9570 C   0  0  0  0  0  0  0  0  0  0  0  0
   -5.7940   23.0250  -31.3210 C   0  0  0  0  0  0  0  0  0  0  0  0
   -5.9260   21.7770  -32.1120 C   0  0  0  0  0  0  0  0  0  0  0  0
   -4.7660   21.1360  -32.5830 C   0  0  0  0  0  0  0  0  0  0  0  0
   -4.8510   19.9560  -33.3400 C   0  0  0  0  0  0  0  0  0  0  0  0
   -3.6340   19.2730  -33.8420 C   0  0  0  0  0  0  0  0  0  0  0  0
   -2.7290   19.9640  -34.3840 O   0  0  0  0  0  0  0  0  0  0  0  0
   -3.4730   17.8470  -33.7140 N   0  0  0  0  0  0  0  0  0  0  0  0
   -2.3570   17.1160  -34.2490 C   0  0  0  0  0  0  0  0  0  0  0  0
   -2.3770   15.7140  -34.3460 C   0  0  0  0  0  0  0  0  0  0  0  0
   -1.2680   15.0270  -34.8450 C   0  0  0  0  0  0  0  0  0  0  0  0
   -0.1230   15.7270  -35.2320 C   0  0  0  0  0  0  0  0  0  0  0  0
   -0.0730   17.1240  -35.1100 C   0  0  0  0  0  0  0  0  0  0  0  0
    1.1680   17.8740  -35.5170 C   0  0  0  0  0  0  0  0  0  0  0  0
    0.8280   19.0070  -36.3760 N   0  0  0  0  0  0  0  0  0  0  0  0
    1.1790   20.3770  -36.0960 C   0  0  0  0  0  0  0  0  0  0  0  0
    2.4900   20.8150  -36.3320 C   0  0  0  0  0  0  0  0  0  0  0  0
    2.8490   22.1370  -36.0650 C   0  0  0  0  0  0  0  0  0  0  0  0
    1.8900   23.0170  -35.5640 C   0  0  0  0  0  0  0  0  0  0  0  0
    0.6200   22.5870  -35.3460 N   0  0  0  0  0  0  0  0  0  0  0  0
    0.2440   21.3040  -35.5970 C   0  0  0  0  0  0  0  0  0  0  0  0
   -1.1960   17.8120  -34.6180 C   0  0  0  0  0  0  0  0  0  0  0  0
   -6.1160   19.4340  -33.6450 C   0  0  0  0  0  0  0  0  0  0  0  0
   -7.2730   20.0570  -33.1760 C   0  0  0  0  0  0  0  0  0  0  0  0
   -7.1930   21.2270  -32.3980 C   0  0  0  0  0  0  0  0  0  0  0  0
   -8.3420   21.8510  -31.8840 O   0  0  0  0  0  0  0  0  0  0  0  0
   -9.1940   21.2890  -30.8920 C   0  0  0  0  0  0  0  0  0  0  0  0
   -4.5220   23.4960  -30.9490 C   0  0  0  0  0  0  0  0  0  0  0  0
   -2.5835   24.7832  -27.8642 H   0  0  0  0  0  0  0  0  0  0  0  0
   -2.3036   23.4608  -29.0473 H   0  0  0  0  0  0  0  0  0  0  0  0
   -1.2375   24.9065  -29.0473 H   0  0  0  0  0  0  0  0  0  0  0  0
   -5.4401   26.3332  -29.2716 H   0  0  0  0  0  0  0  0  0  0  0  0
   -7.6959   25.5145  -29.9370 H   0  0  0  0  0  0  0  0  0  0  0  0
   -7.9313   23.4096  -31.2511 H   0  0  0  0  0  0  0  0  0  0  0  0
   -3.7789   21.5647  -32.3554 H   0  0  0  0  0  0  0  0  0  0  0  0
   -4.1710   17.3040  -33.1620 H   0  0  0  0  0  0  0  0  0  0  0  0
   -3.2696   15.1555  -34.0277 H   0  0  0  0  0  0  0  0  0  0  0  0
   -1.2965   13.9309  -34.9335 H   0  0  0  0  0  0  0  0  0  0  0  0
    0.7431   15.1809  -35.6341 H   0  0  0  0  0  0  0  0  0  0  0  0
    1.6781   18.2445  -34.6156 H   0  0  0  0  0  0  0  0  0  0  0  0
    1.8266   17.1921  -36.0748 H   0  0  0  0  0  0  0  0  0  0  0  0
    0.3360   18.7940  -37.2740 H   0  0  0  0  0  0  0  0  0  0  0  0
    3.2386   20.1137  -36.7292 H   0  0  0  0  0  0  0  0  0  0  0  0
    3.8776   22.4813  -36.2478 H   0  0  0  0  0  0  0  0  0  0  0  0
    2.1622   24.0601  -35.3452 H   0  0  0  0  0  0  0  0  0  0  0  0
   -0.7934   20.9898  -35.4096 H   0  0  0  0  0  0  0  0  0  0  0  0
   -1.1641   18.9073  -34.5214 H   0  0  0  0  0  0  0  0  0  0  0  0
   -6.1970   18.5252  -34.2595 H   0  0  0  0  0  0  0  0  0  0  0  0
   -8.2575   19.6294  -33.4167 H   0  0  0  0  0  0  0  0  0  0  0  0
   -8.8101   21.5422  -29.8927 H   0  0  0  0  0  0  0  0  0  0  0  0
  -10.2097   21.6949  -31.0083 H   0  0  0  0  0  0  0  0  0  0  0  0
   -9.2206   20.1955  -31.0083 H   0  0  0  0  0  0  0  0  0  0  0  0
   -3.6248   22.9288  -31.2375 H   0  0  0  0  0  0  0  0  0  0  0  0
  1  2  1  0
  2  3  1  0
  3  4  2  0
  4  5  1  0
  5  6  2  0
  6  7  1  0
  7  8  1  0
  8  9  2  0
  9 10  1  0
 10 11  1  0
 11 12  2  0
 11 13  1  0
 13 14  1  0
 14 15  2  0
 15 16  1  0
 16 17  2  0
 17 18  1  0
 18 19  1  0
 19 20  1  0
 20 21  1  0
 21 22  2  0
 22 23  1  0
 23 24  2  0
 24 25  1  0
 25 26  2  0
 18 27  2  0
 10 28  2  0
 28 29  1  0
 29 30  2  0
 30 31  1  0
 31 32  1  0
  7 33  2  0
 33  3  1  0
 30  8  1  0
 27 14  1  0
 26 21  1  0
  1 34  1  0
  1 35  1  0
  1 36  1  0
  4 37  1  0
  5 38  1  0
  6 39  1  0
  9 40  1  0
 13 41  1  0
 15 42  1  0
 16 43  1  0
 17 44  1  0
 19 45  1  0
 19 46  1  0
 20 47  1  0
 22 48  1  0
 23 49  1  0
 24 50  1  0
 26 51  1  0
 27 52  1  0
 28 53  1  0
 29 54  1  0
 32 55  1  0
 32 56  1  0
 32 57  1  0
 33 58  1  0
M  END
>  <UniqueID>  (42) 
37

>  <SMILES>  (42) 
COc1cccc(-c2cc(C(=O)Nc3cccc(CNc4cccnc4)c3)ccc2OC)c1

>  <Energy>  (42) 
74.55220104892943

>  <Genealogy>  (42) 
COc1cccc(-c2cc(C(=O)Nc3cccc(CNc4cccnc4)c3)ccc2OC)c1 (3D coordinates assigned)
COc1cccc(-c2cc(C(=O)Nc3cccc(CNc4cccnc4)c3)ccc2OC)c1 (optimized conformer: 74.55220104892943 kcal/mol)

>  <smiles>  (42) 
COc1cccc(-c2cc(C(=O)Nc3cccc(CNc4cccnc4)c3)ccc2OC)c1

>  <score_type>  (42) 
oracle

>  <origin>  (42) 
adgpu

>  <m_score__min__energy>  (42) 
-9.8499999999999996

>  <m_primary>  (42) 
energy

$$$$
42:0
     RDKit          3D

 54 56  0  0  1  0  0  0  0  0999 V2000
   -0.1170   22.8880  -28.7920 C   0  0  0  0  0  0  0  0  0  0  0  0
    0.6320   24.0920  -28.7220 N   0  0  0  0  0  0  0  0  0  0  0  0
    1.4510   24.3890  -27.2730 S   0  0  0  0  0  0  0  0  0  0  0  0
    1.2360   23.2870  -26.2630 O   0  0  0  0  0  0  0  0  0  0  0  0
    2.9450   24.3660  -27.5650 O   0  0  0  0  0  0  0  0  0  0  0  0
    1.0030   25.8860  -26.5390 C   0  0  0  0  0  0  0  0  0  0  0  0
    1.7290   26.3840  -25.4780 C   0  0  0  0  0  0  0  0  0  0  0  0
    1.4690   27.5820  -24.8580 C   0  0  0  0  0  0  0  0  0  0  0  0
    0.4270   28.3690  -25.2860 C   0  0  0  0  0  0  0  0  0  0  0  0
   -0.3240   27.9110  -26.3380 C   0  0  0  0  0  0  0  0  0  0  0  0
   -0.0600   26.6850  -26.9750 C   0  0  0  0  0  0  0  0  0  0  0  0
   -0.8160   26.2720  -28.0920 N   0  0  0  0  0  0  0  0  0  0  0  0
   -1.8500   25.5690  -28.1330 C   0  0  0  0  0  0  0  0  0  0  0  0
   -2.4150   25.2940  -29.3250 N   0  0  0  0  0  0  0  0  0  0  0  0
   -3.5350   24.5300  -29.3700 C   0  0  0  0  0  0  0  0  0  0  0  0
   -4.0250   24.3030  -30.5300 N   0  0  0  0  0  0  0  0  0  0  0  0
   -5.1770   23.5320  -30.7360 C   0  0  0  0  0  0  0  0  0  0  0  0
   -5.0030   22.1890  -31.0540 C   0  0  0  0  0  0  0  0  0  0  0  0
   -6.0670   21.3380  -31.2770 C   0  0  0  0  0  0  0  0  0  0  0  0
   -7.3540   21.8630  -31.1730 C   0  0  0  0  0  0  0  0  0  0  0  0
   -8.4190   20.9540  -31.4090 N   0  0  0  0  0  0  0  0  0  0  0  0
   -8.2050   19.6580  -32.5270 S   0  0  0  0  0  0  0  0  0  0  0  0
   -7.4820   18.2800  -31.7150 C   0  0  0  0  0  0  0  0  0  0  0  0
   -7.3230   20.0970  -33.6600 O   0  0  0  0  0  0  0  0  0  0  0  0
   -9.5230   19.2720  -33.1360 O   0  0  0  0  0  0  0  0  0  0  0  0
   -7.5360   23.1910  -30.8590 C   0  0  0  0  0  0  0  0  0  0  0  0
   -6.4700   24.0500  -30.6340 C   0  0  0  0  0  0  0  0  0  0  0  0
   -6.6070   25.3770  -30.3180 O   0  0  0  0  0  0  0  0  0  0  0  0
   -6.4830   25.9040  -29.0310 C   0  0  0  0  0  0  0  0  0  0  0  0
   -4.1140   24.0280  -28.2650 N   0  0  0  0  0  0  0  0  0  0  0  0
   -3.5330   24.3150  -27.0850 C   0  0  0  0  0  0  0  0  0  0  0  0
   -2.3940   25.0870  -26.9700 C   0  0  0  0  0  0  0  0  0  0  0  0
   -1.6890   25.4000  -25.2580 Br  0  0  0  0  0  0  0  0  0  0  0  0
   -0.3375   22.5336  -27.7742 H   0  0  0  0  0  0  0  0  0  0  0  0
   -1.0596   23.0732  -29.3280 H   0  0  0  0  0  0  0  0  0  0  0  0
    0.4657   22.1243  -29.3280 H   0  0  0  0  0  0  0  0  0  0  0  0
    0.2570   24.8970  -29.2140 H   0  0  0  0  0  0  0  0  0  0  0  0
    2.5710   25.7832  -25.1037 H   0  0  0  0  0  0  0  0  0  0  0  0
    2.0964   27.9121  -24.0169 H   0  0  0  0  0  0  0  0  0  0  0  0
    0.2034   29.3313  -24.8023 H   0  0  0  0  0  0  0  0  0  0  0  0
   -1.1634   28.5247  -26.6968 H   0  0  0  0  0  0  0  0  0  0  0  0
   -1.9990   25.6620  -30.1860 H   0  0  0  0  0  0  0  0  0  0  0  0
   -3.9805   21.7906  -31.1306 H   0  0  0  0  0  0  0  0  0  0  0  0
   -5.9043   20.2796  -31.5287 H   0  0  0  0  0  0  0  0  0  0  0  0
   -9.3080   21.0900  -30.9030 H   0  0  0  0  0  0  0  0  0  0  0  0
   -7.5539   18.4170  -30.6259 H   0  0  0  0  0  0  0  0  0  0  0  0
   -8.0148   17.3624  -32.0051 H   0  0  0  0  0  0  0  0  0  0  0  0
   -6.4242   18.1970  -32.0051 H   0  0  0  0  0  0  0  0  0  0  0  0
   -8.5606   23.5841  -30.7840 H   0  0  0  0  0  0  0  0  0  0  0  0
   -6.6694   25.1119  -28.2909 H   0  0  0  0  0  0  0  0  0  0  0  0
   -5.4667   26.3020  -28.8941 H   0  0  0  0  0  0  0  0  0  0  0  0
   -7.2152   26.7134  -28.8941 H   0  0  0  0  0  0  0  0  0  0  0  0
   -4.9620   23.4540  -28.3580 H   0  0  0  0  0  0  0  0  0  0  0  0
   -3.9882   23.9147  -26.1671 H   0  0  0  0  0  0  0  0  0  0  0  0
  1  2  1  0
  2  3  1  0
  3  4  2  0
  3  5  2  0
  3  6  1  0
  6  7  2  0
  7  8  1  0
  8  9  2  0
  9 10  1  0
 10 11  2  0
 11 12  1  0
 12 13  2  0
 13 14  1  0
 14 15  1  0
 15 16  2  0
 16 17  1  0
 17 18  2  0
 18 19  1  0
 19 20  2  0
 20 21  1  0
 21 22  1  0
 22 23  1  0
 22 24  2  0
 22 25  2  0
 20 26  1  0
 26 27  2  0
 27 28  1  0
 28 29  1  0
 15 30  1  0
 30 31  1  0
 31 32  2  0
 32 33  1  0
 11  6  1  0
 32 13  1  0
 27 17  1  0
  1 34  1  0
  1 35  1  0
  1 36  1  0
  2 37  1  0
  7 38  1  0
  8 39  1  0
  9 40  1  0
 10 41  1  0
 14 42  1  0
 18 43  1  0
 19 44  1  0
 21 45  1  0
 23 46  1  0
 23 47  1  0
 23 48  1  0
 26 49  1  0
 29 50  1  0
 29 51  1  0
 29 52  1  0
 30 53  1  0
 31 54  1  0
M  END
>  <smiles>  (43) 
CNS(=O)(=O)c1ccccc1N=c1[nH]c(=Nc2ccc(NS(C)(=O)=O)cc2OC)[nH]cc1Br

>  <score_type>  (43) 
oracle

>  <origin>  (43) 
adgpu

>  <m_score__min__energy>  (43) 
-10.289999999999999

>  <m_primary>  (43) 
energy

$$$$
43:0
     RDKit          3D

 46 51  0  0  0  0  0  0  0  0999 V2000
   -9.4510   19.3590  -32.6680 C   0  0  0  0  0  0  0  0  0  0  0  0
   -9.8600   20.6540  -32.3430 C   0  0  0  0  0  0  0  0  0  0  0  0
   -8.9190   21.6100  -31.9500 C   0  0  0  0  0  0  0  0  0  0  0  0
   -7.5520   21.2780  -31.8790 C   0  0  0  0  0  0  0  0  0  0  0  0
   -6.5500   22.2920  -31.4640 C   0  0  0  0  0  0  0  0  0  0  0  0
   -6.6350   23.6290  -31.9460 C   0  0  0  0  0  0  0  0  0  0  0  0
   -5.6900   24.5960  -31.5580 C   0  0  0  0  0  0  0  0  0  0  0  0
   -4.6760   24.2000  -30.6930 C   0  0  0  0  0  0  0  0  0  0  0  0
   -3.6780   24.9480  -30.2010 N   0  0  0  0  0  0  0  0  0  0  0  0
   -2.9950   24.0620  -29.4260 C   0  0  0  0  0  0  0  0  0  0  0  0
   -1.7850   24.4310  -28.6610 C   0  0  0  0  0  0  0  0  0  0  0  0
   -0.5390   23.8060  -28.9410 C   0  0  0  0  0  0  0  0  0  0  0  0
    0.6180   24.1520  -28.2190 C   0  0  0  0  0  0  0  0  0  0  0  0
    0.4960   25.1200  -27.2270 C   0  0  0  0  0  0  0  0  0  0  0  0
    1.4580   25.5960  -26.4240 N   0  0  0  0  0  0  0  0  0  0  0  0
    0.7890   26.5050  -25.6640 C   0  0  0  0  0  0  0  0  0  0  0  0
    1.4440   27.3100  -24.6080 C   0  0  0  0  0  0  0  0  0  0  0  0
    2.7330   27.8360  -24.8100 C   0  0  0  0  0  0  0  0  0  0  0  0
    3.3500   28.5960  -23.8100 C   0  0  0  0  0  0  0  0  0  0  0  0
    2.6890   28.8370  -22.6030 C   0  0  0  0  0  0  0  0  0  0  0  0
    1.4090   28.3180  -22.3930 C   0  0  0  0  0  0  0  0  0  0  0  0
    0.7870   27.5580  -23.3890 C   0  0  0  0  0  0  0  0  0  0  0  0
   -0.5360   26.6120  -25.9590 N   0  0  0  0  0  0  0  0  0  0  0  0
   -0.6890   25.7230  -26.9500 C   0  0  0  0  0  0  0  0  0  0  0  0
   -1.8570   25.4100  -27.6420 C   0  0  0  0  0  0  0  0  0  0  0  0
   -3.5220   22.8080  -29.4170 N   0  0  0  0  0  0  0  0  0  0  0  0
   -4.5840   22.9280  -30.2260 C   0  0  0  0  0  0  0  0  0  0  0  0
   -5.4980   21.9400  -30.5840 C   0  0  0  0  0  0  0  0  0  0  0  0
   -7.1520   19.9700  -32.2110 C   0  0  0  0  0  0  0  0  0  0  0  0
   -8.0970   19.0170  -32.6020 C   0  0  0  0  0  0  0  0  0  0  0  0
  -10.1938   18.6083  -32.9758 H   0  0  0  0  0  0  0  0  0  0  0  0
  -10.9254   20.9225  -32.3964 H   0  0  0  0  0  0  0  0  0  0  0  0
   -9.2481   22.6280  -31.6946 H   0  0  0  0  0  0  0  0  0  0  0  0
   -7.4496   23.9092  -32.6301 H   0  0  0  0  0  0  0  0  0  0  0  0
   -5.7512   25.6306  -31.9265 H   0  0  0  0  0  0  0  0  0  0  0  0
   -0.4789   23.0431  -29.7312 H   0  0  0  0  0  0  0  0  0  0  0  0
    1.5856   23.6738  -28.4314 H   0  0  0  0  0  0  0  0  0  0  0  0
    3.2583   27.6491  -25.7582 H   0  0  0  0  0  0  0  0  0  0  0  0
    4.3579   29.0047  -23.9747 H   0  0  0  0  0  0  0  0  0  0  0  0
    3.1760   29.4349  -21.8186 H   0  0  0  0  0  0  0  0  0  0  0  0
    0.8892   28.5075  -21.4423 H   0  0  0  0  0  0  0  0  0  0  0  0
   -0.2210   27.1522  -23.2182 H   0  0  0  0  0  0  0  0  0  0  0  0
   -2.8075   25.9095  -27.4031 H   0  0  0  0  0  0  0  0  0  0  0  0
   -5.4053   20.9155  -30.1943 H   0  0  0  0  0  0  0  0  0  0  0  0
   -6.0879   19.6956  -32.1624 H   0  0  0  0  0  0  0  0  0  0  0  0
   -7.7749   17.9968  -32.8580 H   0  0  0  0  0  0  0  0  0  0  0  0
  1  2  2  0
  2  3  1  0
  3  4  2  0
  4  5  1  0
  5  6  2  0
  6  7  1  0
  7  8  2  0
  8  9  1  0
  9 10  1  0
 10 11  1  0
 11 12  2  0
 12 13  1  0
 13 14  2  0
 14 15  1  0
 15 16  1  0
 16 17  1  0
 17 18  2  0
 18 19  1  0
 19 20  2  0
 20 21  1  0
 21 22  2  0
 16 23  2  0
 23 24  1  0
 24 25  2  0
 10 26  2  0
 26 27  1  0
 27 28  2  0
  4 29  1  0
 29 30  2  0
 30  1  1  0
 28  5  1  0
 27  8  1  0
 25 11  1  0
 24 14  1  0
 22 17  1  0
  1 31  1  0
  2 32  1  0
  3 33  1  0
  6 34  1  0
  7 35  1  0
 12 36  1  0
 13 37  1  0
 18 38  1  0
 19 39  1  0
 20 40  1  0
 21 41  1  0
 22 42  1  0
 25 43  1  0
 28 44  1  0
 29 45  1  0
 30 46  1  0
M  CHG  2   9  -1  15  -1
M  END
>  <UniqueID>  (44) 
38

>  <SMILES>  (44) 
c1ccc(-c2ccc3[n-]c(-c4ccc5[n-]c(-c6ccccc6)nc5c4)nc3c2)cc1

>  <Energy>  (44) 
131.05652073324725

>  <Genealogy>  (44) 
c1ccc(-c2ccc3[n-]c(-c4ccc5[n-]c(-c6ccccc6)nc5c4)nc3c2)cc1 (protonated)
c1ccc(-c2ccc3[n-]c(-c4ccc5[n-]c(-c6ccccc6)nc5c4)nc3c2)cc1 (3D coordinates assigned)
c1ccc(-c2ccc3[n-]c(-c4ccc5[n-]c(-c6ccccc6)nc5c4)nc3c2)cc1 (optimized conformer: 131.05652073324725 kcal/mol)

>  <smiles>  (44) 
c1ccc(-c2ccc3[nH]c(-c4ccc5[nH]c(-c6ccccc6)nc5c4)nc3c2)cc1

>  <score_type>  (44) 
oracle

>  <origin>  (44) 
adgpu

>  <m_score__min__energy>  (44) 
-9.8499999999999996

>  <m_primary>  (44) 
energy

$$$$
44:0
     RDKit          3D

 50 51  0  0  0  0  0  0  0  0999 V2000
   -9.2030   22.3140  -31.9590 C   0  0  0  0  0  0  0  0  0  0  0  0
   -7.8640   23.0490  -31.9760 C   0  0  0  0  0  0  0  0  0  0  0  0
   -7.1730   23.0580  -30.6030 C   0  0  0  0  0  0  0  0  0  0  0  0
   -5.8180   23.7960  -30.5910 C   0  0  0  0  0  0  0  0  0  0  0  0
   -4.6780   22.8500  -30.6030 N   0  0  0  0  0  0  0  0  0  0  0  0
   -4.2140   22.3080  -31.7860 C   0  0  0  0  0  0  0  0  0  0  0  0
   -4.7470   22.7170  -33.0620 N   0  0  0  0  0  0  0  0  0  0  0  0
   -3.2140   21.3140  -31.7540 C   0  0  0  0  0  0  0  0  0  0  0  0
   -2.8270   20.6170  -32.9510 N   0  0  0  0  0  0  0  0  0  0  0  0
   -1.7770   21.1740  -33.8100 C   0  0  0  0  0  0  0  0  0  0  0  0
   -0.8080   20.0830  -34.2470 C   0  0  0  0  0  0  0  0  0  0  0  0
   -3.4180   19.3040  -33.2450 C   0  0  0  0  0  0  0  0  0  0  0  0
   -4.8840   19.3050  -32.9030 C   0  0  0  0  0  0  0  0  0  0  0  0
   -5.3620   18.5210  -31.8420 C   0  0  0  0  0  0  0  0  0  0  0  0
   -6.7350   18.4290  -31.5970 C   0  0  0  0  0  0  0  0  0  0  0  0
   -7.6490   19.1040  -32.4210 C   0  0  0  0  0  0  0  0  0  0  0  0
   -9.1210   19.0170  -32.1520 C   0  0  0  0  0  0  0  0  0  0  0  0
   -7.1710   19.9050  -33.4680 C   0  0  0  0  0  0  0  0  0  0  0  0
   -5.7980   19.9980  -33.7140 C   0  0  0  0  0  0  0  0  0  0  0  0
   -2.6770   20.9410  -30.5220 C   0  0  0  0  0  0  0  0  0  0  0  0
   -1.7850   20.0530  -30.4580 O   0  0  0  0  0  0  0  0  0  0  0  0
   -3.1160   21.5330  -29.3860 N   0  0  0  0  0  0  0  0  0  0  0  0
   -4.1060   22.4650  -29.4120 C   0  0  0  0  0  0  0  0  0  0  0  0
   -4.4940   22.9620  -28.3180 O   0  0  0  0  0  0  0  0  0  0  0  0
   -9.5143   22.1431  -30.9179 H   0  0  0  0  0  0  0  0  0  0  0  0
   -9.9616   22.9221  -32.4734 H   0  0  0  0  0  0  0  0  0  0  0  0
   -9.0973   21.3475  -32.4734 H   0  0  0  0  0  0  0  0  0  0  0  0
   -7.2004   22.5541  -32.7004 H   0  0  0  0  0  0  0  0  0  0  0  0
   -8.0632   24.0945  -32.2538 H   0  0  0  0  0  0  0  0  0  0  0  0
   -7.8420   23.5500  -29.8816 H   0  0  0  0  0  0  0  0  0  0  0  0
   -6.9683   22.0094  -30.3412 H   0  0  0  0  0  0  0  0  0  0  0  0
   -5.7555   24.4407  -31.4801 H   0  0  0  0  0  0  0  0  0  0  0  0
   -5.7600   24.3908  -29.6675 H   0  0  0  0  0  0  0  0  0  0  0  0
   -4.2380   22.6020  -33.9630 H   0  0  0  0  0  0  0  0  0  0  0  0
   -5.7040   23.1230  -33.1460 H   0  0  0  0  0  0  0  0  0  0  0  0
   -2.2395   21.6248  -34.7004 H   0  0  0  0  0  0  0  0  0  0  0  0
   -1.2216   21.9358  -33.2432 H   0  0  0  0  0  0  0  0  0  0  0  0
   -0.3772   19.5979  -33.3587 H   0  0  0  0  0  0  0  0  0  0  0  0
   -1.3451   19.3352  -34.8489 H   0  0  0  0  0  0  0  0  0  0  0  0
   -0.0020   20.5280  -34.8489 H   0  0  0  0  0  0  0  0  0  0  0  0
   -3.2948   19.0816  -34.3152 H   0  0  0  0  0  0  0  0  0  0  0  0
   -2.9092   18.5382  -32.6411 H   0  0  0  0  0  0  0  0  0  0  0  0
   -4.6534   17.9766  -31.2005 H   0  0  0  0  0  0  0  0  0  0  0  0
   -7.1011   17.8245  -30.7541 H   0  0  0  0  0  0  0  0  0  0  0  0
   -9.2953   19.0067  -31.0659 H   0  0  0  0  0  0  0  0  0  0  0  0
   -9.6270   19.8868  -32.5963 H   0  0  0  0  0  0  0  0  0  0  0  0
   -9.5210   18.0936  -32.5963 H   0  0  0  0  0  0  0  0  0  0  0  0
   -7.8794   20.4625  -34.0984 H   0  0  0  0  0  0  0  0  0  0  0  0
   -5.4317   20.6167  -34.5465 H   0  0  0  0  0  0  0  0  0  0  0  0
   -2.7010   21.2520  -28.4690 H   0  0  0  0  0  0  0  0  0  0  0  0
  1  2  1  0
  2  3  1  0
  3  4  1  0
  4  5  1  0
  5  6  1  0
  6  7  1  0
  6  8  2  0
  8  9  1  0
  9 10  1  0
 10 11  1  0
  9 12  1  0
 12 13  1  0
 13 14  2  0
 14 15  1  0
 15 16  2  0
 16 17  1  0
 16 18  1  0
 18 19  2  0
  8 20  1  0
 20 21  2  0
 20 22  1  0
 22 23  1  0
 23 24  2  0
 23  5  1  0
 19 13  1  0
  1 25  1  0
  1 26  1  0
  1 27  1  0
  2 28  1  0
  2 29  1  0
  3 30  1  0
  3 31  1  0
  4 32  1  0
  4 33  1  0
  7 34  1  0
  7 35  1  0
 10 36  1  0
 10 37  1  0
 11 38  1  0
 11 39  1  0
 11 40  1  0
 12 41  1  0
 12 42  1  0
 14 43  1  0
 15 44  1  0
 17 45  1  0
 17 46  1  0
 17 47  1  0
 18 48  1  0
 19 49  1  0
 22 50  1  0
M  END
>  <UniqueID>  (45) 
39

>  <SMILES>  (45) 
CCCCn1c(N)c(N(CC)Cc2ccc(C)cc2)c(=O)[nH]c1=O

>  <Energy>  (45) 
48.073497519248455

>  <Genealogy>  (45) 
CCCCn1c(N)c(N(CC)Cc2ccc(C)cc2)c(=O)[nH]c1=O (3D coordinates assigned)
CCCCn1c(N)c(N(CC)Cc2ccc(C)cc2)c(=O)[nH]c1=O (optimized conformer: 48.073497519248455 kcal/mol)

>  <smiles>  (45) 
CCCCn1c(N)c(N(CC)Cc2ccc(C)cc2)c(=O)[nH]c1=O

>  <score_type>  (45) 
oracle

>  <origin>  (45) 
adgpu

>  <m_score__min__energy>  (45) 
-7.3799999999999999

>  <m_primary>  (45) 
energy

$$$$
45:0
     RDKit          3D

 38 40  0  0  0  0  0  0  0  0999 V2000
   -1.1410   22.1840  -26.3680 N   0  0  0  0  0  0  0  0  0  0  0  0
   -1.7560   22.9970  -27.3760 C   0  0  0  0  0  0  0  0  0  0  0  0
   -3.0670   22.7070  -27.7820 C   0  0  0  0  0  0  0  0  0  0  0  0
   -3.6850   23.4640  -28.7790 C   0  0  0  0  0  0  0  0  0  0  0  0
   -3.0000   24.5140  -29.3970 C   0  0  0  0  0  0  0  0  0  0  0  0
   -3.6710   25.2770  -30.4130 N   0  0  0  0  0  0  0  0  0  0  0  0
   -5.0830   25.2990  -30.6650 C   0  0  0  0  0  0  0  0  0  0  0  0
   -5.7140   26.3710  -30.4670 O   0  0  0  0  0  0  0  0  0  0  0  0
   -5.8230   24.0970  -31.1140 C   0  0  0  0  0  0  0  0  0  0  0  0
   -7.2060   24.0070  -30.8810 C   0  0  0  0  0  0  0  0  0  0  0  0
   -7.9250   22.8880  -31.3130 C   0  0  0  0  0  0  0  0  0  0  0  0
   -7.2680   21.8440  -31.9690 C   0  0  0  0  0  0  0  0  0  0  0  0
   -5.8910   21.9150  -32.1880 C   0  0  0  0  0  0  0  0  0  0  0  0
   -5.1650   23.0310  -31.7590 C   0  0  0  0  0  0  0  0  0  0  0  0
   -3.8210   23.0500  -31.9440 F   0  0  0  0  0  0  0  0  0  0  0  0
   -1.6990   24.8290  -28.9750 C   0  0  0  0  0  0  0  0  0  0  0  0
   -1.0730   24.0780  -27.9710 C   0  0  0  0  0  0  0  0  0  0  0  0
    0.5940   24.5390  -27.4720 S   0  0  0  0  0  0  0  0  0  0  0  0
    0.0130   25.5570  -26.1140 C   0  0  0  0  0  0  0  0  0  0  0  0
    0.0020   25.0510  -24.8070 C   0  0  0  0  0  0  0  0  0  0  0  0
   -0.4570   25.8440  -23.7520 C   0  0  0  0  0  0  0  0  0  0  0  0
   -0.9010   27.1480  -23.9980 C   0  0  0  0  0  0  0  0  0  0  0  0
   -0.8840   27.6580  -25.3010 C   0  0  0  0  0  0  0  0  0  0  0  0
   -0.4260   26.8650  -26.3570 C   0  0  0  0  0  0  0  0  0  0  0  0
   -0.1160   22.2550  -26.1840 H   0  0  0  0  0  0  0  0  0  0  0  0
   -1.6920   21.5270  -25.7730 H   0  0  0  0  0  0  0  0  0  0  0  0
   -3.6127   21.8762  -27.3109 H   0  0  0  0  0  0  0  0  0  0  0  0
   -4.7174   23.2327  -29.0801 H   0  0  0  0  0  0  0  0  0  0  0  0
   -7.7261   24.8216  -30.3557 H   0  0  0  0  0  0  0  0  0  0  0  0
   -9.0091   22.8297  -31.1361 H   0  0  0  0  0  0  0  0  0  0  0  0
   -7.8354   20.9665  -32.3128 H   0  0  0  0  0  0  0  0  0  0  0  0
   -5.3747   21.0897  -32.7002 H   0  0  0  0  0  0  0  0  0  0  0  0
   -1.1658   25.6732  -29.4366 H   0  0  0  0  0  0  0  0  0  0  0  0
    0.3553   24.0278  -24.6114 H   0  0  0  0  0  0  0  0  0  0  0  0
   -0.4693   25.4430  -22.7278 H   0  0  0  0  0  0  0  0  0  0  0  0
   -1.2632   27.7718  -23.1676 H   0  0  0  0  0  0  0  0  0  0  0  0
   -1.2313   28.6837  -25.4943 H   0  0  0  0  0  0  0  0  0  0  0  0
   -0.4102   27.2685  -27.3802 H   0  0  0  0  0  0  0  0  0  0  0  0
  1  2  1  0
  2  3  2  0
  3  4  1  0
  4  5  2  0
  5  6  1  0
  6  7  1  0
  7  8  2  0
  7  9  1  0
  9 10  2  0
 10 11  1  0
 11 12  2  0
 12 13  1  0
 13 14  2  0
 14 15  1  0
  5 16  1  0
 16 17  2  0
 17 18  1  0
 18 19  1  0
 19 20  2  0
 20 21  1  0
 21 22  2  0
 22 23  1  0
 23 24  2  0
 17  2  1  0
 24 19  1  0
 14  9  1  0
  1 25  1  0
  1 26  1  0
  3 27  1  0
  4 28  1  0
 10 29  1  0
 11 30  1  0
 12 31  1  0
 13 32  1  0
 16 33  1  0
 20 34  1  0
 21 35  1  0
 22 36  1  0
 23 37  1  0
 24 38  1  0
M  CHG  1   6  -1
M  END
>  <UniqueID>  (46) 
40

>  <SMILES>  (46) 
Nc1ccc([N-]C(=O)c2ccccc2F)cc1Sc1ccccc1

>  <Energy>  (46) 
44.31328945947514

>  <Genealogy>  (46) 
Nc1ccc([N-]C(=O)c2ccccc2F)cc1Sc1ccccc1 (protonated)
Nc1ccc([N-]C(=O)c2ccccc2F)cc1Sc1ccccc1 (3D coordinates assigned)
Nc1ccc([N-]C(=O)c2ccccc2F)cc1Sc1ccccc1 (optimized conformer: 44.31328945947514 kcal/mol)

>  <smiles>  (46) 
Nc1ccc(NC(=O)c2ccccc2F)cc1Sc1ccccc1

>  <score_type>  (46) 
oracle

>  <origin>  (46) 
adgpu

>  <m_score__min__energy>  (46) 
-9.1500000000000004

>  <m_primary>  (46) 
energy

$$$$
46:0
     RDKit          3D

 35 37  0  0  0  0  0  0  0  0999 V2000
   -5.7990   18.2030  -35.3460 N   0  0  0  0  0  0  0  0  0  0  0  0
   -5.8560   17.8970  -33.9760 N   0  0  0  0  0  0  0  0  0  0  0  0
   -5.8160   18.7450  -32.9320 C   0  0  0  0  0  0  0  0  0  0  0  0
   -5.7560   20.2420  -33.0240 C   0  0  0  0  0  0  0  0  0  0  0  0
   -7.0590   20.8710  -32.5790 C   0  0  0  0  0  0  0  0  0  0  0  0
   -8.1970   20.0570  -32.4350 C   0  0  0  0  0  0  0  0  0  0  0  0
   -9.3990   20.5900  -31.9640 C   0  0  0  0  0  0  0  0  0  0  0  0
   -9.4810   21.9410  -31.6260 C   0  0  0  0  0  0  0  0  0  0  0  0
   -8.3650   22.7660  -31.7750 C   0  0  0  0  0  0  0  0  0  0  0  0
   -7.1590   22.2510  -32.2700 C   0  0  0  0  0  0  0  0  0  0  0  0
   -6.0450   23.1410  -32.4240 N   0  0  0  0  0  0  0  0  0  0  0  0
   -4.9600   23.2250  -31.4790 C   0  0  0  0  0  0  0  0  0  0  0  0
   -3.7920   22.4520  -31.6490 C   0  0  0  0  0  0  0  0  0  0  0  0
   -2.7410   22.5410  -30.7350 C   0  0  0  0  0  0  0  0  0  0  0  0
   -2.8330   23.4050  -29.6420 C   0  0  0  0  0  0  0  0  0  0  0  0
   -1.5100   23.5140  -28.4960 Cl  0  0  0  0  0  0  0  0  0  0  0  0
   -3.9780   24.1860  -29.4660 C   0  0  0  0  0  0  0  0  0  0  0  0
   -5.0380   24.1050  -30.3770 C   0  0  0  0  0  0  0  0  0  0  0  0
   -6.4590   25.1040  -30.0920 Cl  0  0  0  0  0  0  0  0  0  0  0  0
   -5.8730   18.0700  -31.7660 N   0  0  0  0  0  0  0  0  0  0  0  0
   -5.9510   16.7780  -32.0610 N   0  0  0  0  0  0  0  0  0  0  0  0
   -5.9400   16.6840  -33.4030 C   0  0  0  0  0  0  0  0  0  0  0  0
   -6.0140   15.2640  -34.2130 S   0  0  0  0  0  0  0  0  0  0  0  0
   -6.5050   18.8380  -35.7810 H   0  0  0  0  0  0  0  0  0  0  0  0
   -5.0670   17.7830  -35.9590 H   0  0  0  0  0  0  0  0  0  0  0  0
   -4.9426   20.6086  -32.3806 H   0  0  0  0  0  0  0  0  0  0  0  0
   -5.5760   20.5193  -34.0731 H   0  0  0  0  0  0  0  0  0  0  0  0
   -8.1397   18.9899  -32.6960 H   0  0  0  0  0  0  0  0  0  0  0  0
  -10.2827   19.9433  -31.8594 H   0  0  0  0  0  0  0  0  0  0  0  0
  -10.4247   22.3559  -31.2422 H   0  0  0  0  0  0  0  0  0  0  0  0
   -8.4325   23.8294  -31.5016 H   0  0  0  0  0  0  0  0  0  0  0  0
   -5.9490   23.6160  -33.3490 H   0  0  0  0  0  0  0  0  0  0  0  0
   -3.7089   21.7727  -32.5102 H   0  0  0  0  0  0  0  0  0  0  0  0
   -1.8379   21.9290  -30.8761 H   0  0  0  0  0  0  0  0  0  0  0  0
   -4.0471   24.8688  -28.6063 H   0  0  0  0  0  0  0  0  0  0  0  0
  1  2  1  0
  2  3  1  0
  3  4  1  0
  4  5  1  0
  5  6  2  0
  6  7  1  0
  7  8  2  0
  8  9  1  0
  9 10  2  0
 10 11  1  0
 11 12  1  0
 12 13  2  0
 13 14  1  0
 14 15  2  0
 15 16  1  0
 15 17  1  0
 17 18  2  0
 18 19  1  0
  3 20  2  0
 20 21  1  0
 21 22  1  0
 22 23  2  0
 22  2  1  0
 10  5  1  0
 18 12  1  0
  1 24  1  0
  1 25  1  0
  4 26  1  0
  4 27  1  0
  6 28  1  0
  7 29  1  0
  8 30  1  0
  9 31  1  0
 11 32  1  0
 13 33  1  0
 14 34  1  0
 17 35  1  0
M  CHG  1  21  -1
M  END
>  <UniqueID>  (47) 
41

>  <SMILES>  (47) 
Nn1c(Cc2ccccc2Nc2ccc(Cl)cc2Cl)n[n-]c1=S

>  <Energy>  (47) 
81.36071536329843

>  <Genealogy>  (47) 
Nn1c(Cc2ccccc2Nc2ccc(Cl)cc2Cl)n[n-]c1=S (protonated)
Nn1c(Cc2ccccc2Nc2ccc(Cl)cc2Cl)n[n-]c1=S (3D coordinates assigned)
Nn1c(Cc2ccccc2Nc2ccc(Cl)cc2Cl)n[n-]c1=S (optimized conformer: 81.36071536329843 kcal/mol)

>  <smiles>  (47) 
Nn1c(Cc2ccccc2Nc2ccc(Cl)cc2Cl)n[nH]c1=S

>  <score_type>  (47) 
oracle

>  <origin>  (47) 
adgpu

>  <m_score__min__energy>  (47) 
-9.7200000000000006

>  <m_primary>  (47) 
energy

$$$$
47:0
     RDKit          3D

 37 38  0  0  0  0  0  0  0  0999 V2000
   -5.5070   17.7990  -34.9660 C   0  0  0  0  0  0  0  0  0  0  0  0
   -6.4900   17.4500  -33.8430 C   0  0  0  0  0  0  0  0  0  0  0  0
   -7.0380   18.6490  -33.1570 N   0  0  0  0  0  0  0  0  0  0  0  0
   -8.1850   18.2840  -32.2810 C   0  0  0  0  0  0  0  0  0  0  0  0
   -9.3280   19.3040  -32.3550 C   0  0  0  0  0  0  0  0  0  0  0  0
   -6.0110   19.4280  -32.4110 C   0  0  0  0  0  0  0  0  0  0  0  0
   -5.6330   20.7990  -33.0290 C   0  0  0  0  0  0  0  0  0  0  0  0
   -6.3200   21.9150  -32.3650 N   0  0  0  0  0  0  0  0  0  0  0  0
   -7.6610   22.1110  -32.3450 C   0  0  0  0  0  0  0  0  0  0  0  0
   -7.9890   23.2080  -31.5600 C   0  0  0  0  0  0  0  0  0  0  0  0
   -6.7890   23.6750  -31.0710 C   0  0  0  0  0  0  0  0  0  0  0  0
   -6.5220   24.7420  -30.2150 C   0  0  0  0  0  0  0  0  0  0  0  0
   -5.1830   24.9790  -29.8590 C   0  0  0  0  0  0  0  0  0  0  0  0
   -4.1540   24.1520  -30.3570 C   0  0  0  0  0  0  0  0  0  0  0  0
   -4.4530   23.0800  -31.2180 C   0  0  0  0  0  0  0  0  0  0  0  0
   -5.7940   22.8680  -31.5630 C   0  0  0  0  0  0  0  0  0  0  0  0
   -4.5558   18.1367  -34.5288 H   0  0  0  0  0  0  0  0  0  0  0  0
   -5.3294   16.9090  -35.5876 H   0  0  0  0  0  0  0  0  0  0  0  0
   -5.9304   18.6018  -35.5876 H   0  0  0  0  0  0  0  0  0  0  0  0
   -7.3263   16.8799  -34.2739 H   0  0  0  0  0  0  0  0  0  0  0  0
   -5.9378   16.8654  -33.0925 H   0  0  0  0  0  0  0  0  0  0  0  0
   -7.3980   19.2960  -33.9000 H   0  0  0  0  0  0  0  0  0  0  0  0
   -8.5684   17.3013  -32.5928 H   0  0  0  0  0  0  0  0  0  0  0  0
   -7.8204   18.2650  -31.2433 H   0  0  0  0  0  0  0  0  0  0  0  0
   -9.6386   19.5812  -31.3368 H   0  0  0  0  0  0  0  0  0  0  0  0
   -8.9846   20.2013  -32.8906 H   0  0  0  0  0  0  0  0  0  0  0  0
  -10.1806   18.8611  -32.8906 H   0  0  0  0  0  0  0  0  0  0  0  0
   -6.3939   19.6081  -31.3956 H   0  0  0  0  0  0  0  0  0  0  0  0
   -5.0937   18.8216  -32.4383 H   0  0  0  0  0  0  0  0  0  0  0  0
   -4.5468   20.9438  -32.9325 H   0  0  0  0  0  0  0  0  0  0  0  0
   -5.9434   20.7910  -34.0843 H   0  0  0  0  0  0  0  0  0  0  0  0
   -8.3912   21.4851  -32.8789 H   0  0  0  0  0  0  0  0  0  0  0  0
   -8.9923   23.6167  -31.3694 H   0  0  0  0  0  0  0  0  0  0  0  0
   -7.3329   25.3781  -29.8304 H   0  0  0  0  0  0  0  0  0  0  0  0
   -4.9358   25.8147  -29.1878 H   0  0  0  0  0  0  0  0  0  0  0  0
   -3.1101   24.3468  -30.0700 H   0  0  0  0  0  0  0  0  0  0  0  0
   -3.6577   22.4281  -31.6084 H   0  0  0  0  0  0  0  0  0  0  0  0
  1  2  1  0
  2  3  1  0
  3  4  1  0
  4  5  1  0
  3  6  1  0
  6  7  1  0
  7  8  1  0
  8  9  1  0
  9 10  2  0
 10 11  1  0
 11 12  2  0
 12 13  1  0
 13 14  2  0
 14 15  1  0
 15 16  2  0
 16  8  1  0
 16 11  1  0
  1 17  1  0
  1 18  1  0
  1 19  1  0
  2 20  1  0
  2 21  1  0
  3 22  1  0
  4 23  1  0
  4 24  1  0
  5 25  1  0
  5 26  1  0
  5 27  1  0
  6 28  1  0
  6 29  1  0
  7 30  1  0
  7 31  1  0
  9 32  1  0
 10 33  1  0
 12 34  1  0
 13 35  1  0
 14 36  1  0
 15 37  1  0
M  CHG  1   3   1
M  END
>  <UniqueID>  (48) 
42

>  <SMILES>  (48) 
CC[NH+](CC)CCn1ccc2ccccc21

>  <Energy>  (48) 
73.13651796745447

>  <Genealogy>  (48) 
CC[NH+](CC)CCn1ccc2ccccc21 (protonated)
CC[NH+](CC)CCn1ccc2ccccc21 (3D coordinates assigned)
CC[NH+](CC)CCn1ccc2ccccc21 (optimized conformer: 73.13651796745447 kcal/mol)

>  <smiles>  (48) 
CCN(CC)CCn1ccc2ccccc21

>  <score_type>  (48) 
oracle

>  <origin>  (48) 
adgpu

>  <m_score__min__energy>  (48) 
-5.5099999999999998

>  <m_primary>  (48) 
energy

$$$$
48:0
     RDKit          3D

 48 50  0  0  0  0  0  0  0  0999 V2000
   -0.6360   19.7460  -27.4730 C   0  0  0  0  0  0  0  0  0  0  0  0
   -0.2520   21.1000  -27.6910 O   0  0  0  0  0  0  0  0  0  0  0  0
   -1.0450   22.0520  -28.3490 C   0  0  0  0  0  0  0  0  0  0  0  0
   -1.0890   23.4020  -27.9540 C   0  0  0  0  0  0  0  0  0  0  0  0
   -1.8940   24.3140  -28.6440 C   0  0  0  0  0  0  0  0  0  0  0  0
   -2.6650   23.8910  -29.7420 C   0  0  0  0  0  0  0  0  0  0  0  0
   -3.5000   24.7920  -30.4830 N   0  0  0  0  0  0  0  0  0  0  0  0
   -5.1940   25.0420  -30.2120 S   0  0  0  0  0  0  0  0  0  0  0  0
   -5.4750   24.9680  -28.7380 O   0  0  0  0  0  0  0  0  0  0  0  0
   -5.5790   26.4100  -30.7060 O   0  0  0  0  0  0  0  0  0  0  0  0
   -6.1210   23.7880  -31.0310 C   0  0  0  0  0  0  0  0  0  0  0  0
   -7.5190   23.8140  -30.9720 C   0  0  0  0  0  0  0  0  0  0  0  0
   -8.2660   22.8150  -31.5980 C   0  0  0  0  0  0  0  0  0  0  0  0
   -7.6230   21.7820  -32.2860 C   0  0  0  0  0  0  0  0  0  0  0  0
   -6.2190   21.7420  -32.3580 C   0  0  0  0  0  0  0  0  0  0  0  0
   -5.5250   20.6340  -33.0580 C   0  0  0  0  0  0  0  0  0  0  0  0
   -4.2640   20.5890  -33.0550 O   0  0  0  0  0  0  0  0  0  0  0  0
   -6.2680   19.6290  -33.7660 N   0  0  0  0  0  0  0  0  0  0  0  0
   -5.7590   18.3100  -34.0320 C   0  0  0  0  0  0  0  0  0  0  0  0
   -4.5600   18.1360  -34.7500 C   0  0  0  0  0  0  0  0  0  0  0  0
   -4.0510   16.8560  -34.9790 C   0  0  0  0  0  0  0  0  0  0  0  0
   -4.7220   15.7370  -34.4880 C   0  0  0  0  0  0  0  0  0  0  0  0
   -5.9040   15.8930  -33.7620 C   0  0  0  0  0  0  0  0  0  0  0  0
   -6.4320   17.1790  -33.5240 C   0  0  0  0  0  0  0  0  0  0  0  0
   -7.6200   17.3690  -32.7990 O   0  0  0  0  0  0  0  0  0  0  0  0
   -7.7400   18.2020  -31.6500 C   0  0  0  0  0  0  0  0  0  0  0  0
   -5.4750   22.7540  -31.7240 C   0  0  0  0  0  0  0  0  0  0  0  0
   -2.6200   22.5470  -30.1310 C   0  0  0  0  0  0  0  0  0  0  0  0
   -1.8190   21.6350  -29.4370 C   0  0  0  0  0  0  0  0  0  0  0  0
   -0.6915   19.5501  -26.3920 H   0  0  0  0  0  0  0  0  0  0  0  0
   -1.6206   19.5661  -27.9293 H   0  0  0  0  0  0  0  0  0  0  0  0
    0.1075   19.0760  -27.9293 H   0  0  0  0  0  0  0  0  0  0  0  0
   -0.4872   23.7416  -27.0982 H   0  0  0  0  0  0  0  0  0  0  0  0
   -1.9244   25.3668  -28.3267 H   0  0  0  0  0  0  0  0  0  0  0  0
   -8.0303   24.6238  -30.4309 H   0  0  0  0  0  0  0  0  0  0  0  0
   -9.3646   22.8406  -31.5498 H   0  0  0  0  0  0  0  0  0  0  0  0
   -8.2183   20.9961  -32.7738 H   0  0  0  0  0  0  0  0  0  0  0  0
   -7.1920   19.8980  -34.1740 H   0  0  0  0  0  0  0  0  0  0  0  0
   -4.0206   19.0147  -35.1332 H   0  0  0  0  0  0  0  0  0  0  0  0
   -3.1182   16.7303  -35.5483 H   0  0  0  0  0  0  0  0  0  0  0  0
   -4.3196   14.7301  -34.6729 H   0  0  0  0  0  0  0  0  0  0  0  0
   -6.4271   15.0070  -33.3729 H   0  0  0  0  0  0  0  0  0  0  0  0
   -7.6516   17.5883  -30.7414 H   0  0  0  0  0  0  0  0  0  0  0  0
   -6.9416   18.9586  -31.6606 H   0  0  0  0  0  0  0  0  0  0  0  0
   -8.7195   18.7024  -31.6606 H   0  0  0  0  0  0  0  0  0  0  0  0
   -4.3762   22.7340  -31.7724 H   0  0  0  0  0  0  0  0  0  0  0  0
   -3.2188   22.2061  -30.9884 H   0  0  0  0  0  0  0  0  0  0  0  0
   -1.7973   20.5805  -29.7493 H   0  0  0  0  0  0  0  0  0  0  0  0
  1  2  1  0
  2  3  1  0
  3  4  2  0
  4  5  1  0
  5  6  2  0
  6  7  1  0
  7  8  1  0
  8  9  2  0
  8 10  2  0
  8 11  1  0
 11 12  2  0
 12 13  1  0
 13 14  2  0
 14 15  1  0
 15 16  1  0
 16 17  2  0
 16 18  1  0
 18 19  1  0
 19 20  2  0
 20 21  1  0
 21 22  2  0
 22 23  1  0
 23 24  2  0
 24 25  1  0
 25 26  1  0
 15 27  2  0
  6 28  1  0
 28 29  2  0
 29  3  1  0
 27 11  1  0
 24 19  1  0
  1 30  1  0
  1 31  1  0
  1 32  1  0
  4 33  1  0
  5 34  1  0
 12 35  1  0
 13 36  1  0
 14 37  1  0
 18 38  1  0
 20 39  1  0
 21 40  1  0
 22 41  1  0
 23 42  1  0
 26 43  1  0
 26 44  1  0
 26 45  1  0
 27 46  1  0
 28 47  1  0
 29 48  1  0
M  CHG  1   7  -1
M  END
>  <UniqueID>  (49) 
43

>  <SMILES>  (49) 
COc1ccc([N-]S(=O)(=O)c2cccc(C(=O)Nc3ccccc3OC)c2)cc1

>  <Energy>  (49) 
58.61052079550931

>  <Genealogy>  (49) 
COc1ccc([N-]S(=O)(=O)c2cccc(C(=O)Nc3ccccc3OC)c2)cc1 (protonated)
COc1ccc([N-]S(=O)(=O)c2cccc(C(=O)Nc3ccccc3OC)c2)cc1 (3D coordinates assigned)
COc1ccc([N-]S(=O)(=O)c2cccc(C(=O)Nc3ccccc3OC)c2)cc1 (optimized conformer: 58.61052079550931 kcal/mol)

>  <smiles>  (49) 
COc1ccc(NS(=O)(=O)c2cccc(C(=O)Nc3ccccc3OC)c2)cc1

>  <score_type>  (49) 
oracle

>  <origin>  (49) 
adgpu

>  <m_score__min__energy>  (49) 
-10.18

>  <m_primary>  (49) 
energy

$$$$
