0:0
     RDKit          3D

 52 55  0  0  0  0  0  0  0  0999 V2000
   -5.6570   25.4060  -28.8870 O   0  0  0  0  0  0  0  0  0  0  0  0
   -5.3450   25.0960  -30.3260 S   0  0  0  0  0  0  0  0  0  0  0  0
   -5.7570   26.2600  -31.1810 O   0  0  0  0  0  0  0  0  0  0  0  0
   -3.6390   24.8260  -30.4940 N   0  0  0  0  0  0  0  0  0  0  0  0
   -2.8720   24.1040  -29.5150 C   0  0  0  0  0  0  0  0  0  0  0  0
   -3.2450   22.8070  -29.1200 C   0  0  0  0  0  0  0  0  0  0  0  0
   -2.4670   22.0860  -28.2040 C   0  0  0  0  0  0  0  0  0  0  0  0
   -1.3220   22.6780  -27.6400 C   0  0  0  0  0  0  0  0  0  0  0  0
   -0.9500   23.9730  -28.0290 C   0  0  0  0  0  0  0  0  0  0  0  0
   -1.7220   24.6850  -28.9540 C   0  0  0  0  0  0  0  0  0  0  0  0
   -1.3270   25.9670  -29.3240 O   0  0  0  0  0  0  0  0  0  0  0  0
   -0.4510   21.8970  -26.6880 C   0  0  0  0  0  0  0  0  0  0  0  0
   -1.2530   20.8140  -25.9530 C   0  0  0  0  0  0  0  0  0  0  0  0
   -2.0070   19.9350  -26.9530 C   0  0  0  0  0  0  0  0  0  0  0  0
   -2.8530   20.7550  -27.8200 N   0  0  0  0  0  0  0  0  0  0  0  0
   -6.2120   23.6600  -30.8600 C   0  0  0  0  0  0  0  0  0  0  0  0
   -7.1310   23.0220  -30.0150 C   0  0  0  0  0  0  0  0  0  0  0  0
   -7.7060   21.8050  -30.3950 C   0  0  0  0  0  0  0  0  0  0  0  0
   -7.3710   21.2220  -31.6250 C   0  0  0  0  0  0  0  0  0  0  0  0
   -7.9880   19.6330  -32.0660 S   0  0  0  0  0  0  0  0  0  0  0  0
   -8.5270   19.7100  -33.4680 O   0  0  0  0  0  0  0  0  0  0  0  0
   -9.1100   19.2420  -31.1430 O   0  0  0  0  0  0  0  0  0  0  0  0
   -6.6940   18.4530  -32.0020 N   0  0  0  0  0  0  0  0  0  0  0  0
   -6.6500   17.6150  -33.2140 C   0  0  0  0  0  0  0  0  0  0  0  0
   -6.0720   18.3740  -34.4340 C   0  0  0  0  0  0  0  0  0  0  0  0
   -5.3660   19.5520  -34.0850 O   0  0  0  0  0  0  0  0  0  0  0  0
   -4.5370   19.3070  -32.9710 C   0  0  0  0  0  0  0  0  0  0  0  0
   -5.3900   19.0840  -31.7070 C   0  0  0  0  0  0  0  0  0  0  0  0
   -6.4730   21.8740  -32.4790 C   0  0  0  0  0  0  0  0  0  0  0  0
   -5.8990   23.0890  -32.1000 C   0  0  0  0  0  0  0  0  0  0  0  0
   -3.2160   25.0340  -31.4270 H   0  0  0  0  0  0  0  0  0  0  0  0
   -4.1574   22.3534  -29.5345 H   0  0  0  0  0  0  0  0  0  0  0  0
   -0.0452   24.4323  -27.6042 H   0  0  0  0  0  0  0  0  0  0  0  0
    0.3598   21.4178  -27.2563 H   0  0  0  0  0  0  0  0  0  0  0  0
   -0.0453   22.5940  -25.9400 H   0  0  0  0  0  0  0  0  0  0  0  0
   -0.5637   20.1874  -25.3679 H   0  0  0  0  0  0  0  0  0  0  0  0
   -1.9809   21.3004  -25.2870 H   0  0  0  0  0  0  0  0  0  0  0  0
   -1.2815   19.3850  -27.5704 H   0  0  0  0  0  0  0  0  0  0  0  0
   -2.6438   19.2305  -26.3979 H   0  0  0  0  0  0  0  0  0  0  0  0
   -3.6870   20.3090  -28.2650 H   0  0  0  0  0  0  0  0  0  0  0  0
   -7.4003   23.4794  -29.0515 H   0  0  0  0  0  0  0  0  0  0  0  0
   -8.4226   21.3043  -29.7273 H   0  0  0  0  0  0  0  0  0  0  0  0
   -6.0197   16.7361  -33.0134 H   0  0  0  0  0  0  0  0  0  0  0  0
   -7.6820   17.3227  -33.4581 H   0  0  0  0  0  0  0  0  0  0  0  0
   -5.3847   17.7017  -34.9684 H   0  0  0  0  0  0  0  0  0  0  0  0
   -6.9247   18.6809  -35.0574 H   0  0  0  0  0  0  0  0  0  0  0  0
   -3.9293   18.4101  -33.1614 H   0  0  0  0  0  0  0  0  0  0  0  0
   -3.8844   20.1782  -32.8126 H   0  0  0  0  0  0  0  0  0  0  0  0
   -4.8327   18.4337  -31.0167 H   0  0  0  0  0  0  0  0  0  0  0  0
   -5.5912   20.0705  -31.2640 H   0  0  0  0  0  0  0  0  0  0  0  0
   -6.2190   21.4275  -33.4517 H   0  0  0  0  0  0  0  0  0  0  0  0
   -5.1987   23.5994  -32.7775 H   0  0  0  0  0  0  0  0  0  0  0  0
  1  2  2  0
  2  3  2  0
  2  4  1  0
  4  5  1  0
  5  6  2  0
  6  7  1  0
  7  8  2  0
  8  9  1  0
  9 10  2  0
 10 11  1  0
  8 12  1  0
 12 13  1  0
 13 14  1  0
 14 15  1  0
  2 16  1  0
 16 17  2  0
 17 18  1  0
 18 19  2  0
 19 20  1  0
 20 21  2  0
 20 22  2  0
 20 23  1  0
 23 24  1  0
 24 25  1  0
 25 26  1  0
 26 27  1  0
 27 28  1  0
 19 29  1  0
 29 30  2  0
 10  5  1  0
 30 16  1  0
 15  7  1  0
 28 23  1  0
  4 31  1  0
  6 32  1  0
  9 33  1  0
 12 34  1  0
 12 35  1  0
 13 36  1  0
 13 37  1  0
 14 38  1  0
 14 39  1  0
 15 40  1  0
 17 41  1  0
 18 42  1  0
 24 43  1  0
 24 44  1  0
 25 45  1  0
 25 46  1  0
 27 47  1  0
 27 48  1  0
 28 49  1  0
 28 50  1  0
 29 51  1  0
 30 52  1  0
M  CHG  1  11  -1
M  END
>  <UniqueID>  (1) 
1

>  <SMILES>  (1) 
O=S(=O)(Nc1cc2c(cc1[O-])CCCN2)c1ccc(S(=O)(=O)N2CCOCC2)cc1

>  <Energy>  (1) 
64.93240681467822

>  <Genealogy>  (1) 
O=S(=O)(Nc1cc2c(cc1[O-])CCCN2)c1ccc(S(=O)(=O)N2CCOCC2)cc1 (protonated)
O=S(=O)(Nc1cc2c(cc1[O-])CCCN2)c1ccc(S(=O)(=O)N2CCOCC2)cc1 (3D coordinates assigned)
O=S(=O)(Nc1cc2c(cc1[O-])CCCN2)c1ccc(S(=O)(=O)N2CCOCC2)cc1 (nonaromatic ring conformer: 64.93240681467822 kcal/mol)

>  <smiles>  (1) 
O=S(=O)(Nc1cc2c(cc1O)CCCN2)c1ccc(S(=O)(=O)N2CCOCC2)cc1

>  <score_type>  (1) 
oracle

>  <origin>  (1) 
adgpu

>  <m_score__min__energy>  (1) 
-14.07

>  <m_primary>  (1) 
energy

$$$$
1:0
     RDKit          3D

 60 63  0  0  0  0  0  0  0  0999 V2000
   -3.4420   20.8620  -29.8340 O   0  0  0  0  0  0  0  0  0  0  0  0
   -2.5220   21.4030  -30.8920 S   0  0  0  0  0  0  0  0  0  0  0  0
   -1.2420   21.8460  -30.2420 O   0  0  0  0  0  0  0  0  0  0  0  0
   -3.2820   22.7650  -31.6530 N   0  0  0  0  0  0  0  0  0  0  0  0
   -4.5600   23.2860  -31.2430 C   0  0  0  0  0  0  0  0  0  0  0  0
   -5.7490   22.5790  -31.4990 C   0  0  0  0  0  0  0  0  0  0  0  0
   -6.9860   23.0850  -31.0850 C   0  0  0  0  0  0  0  0  0  0  0  0
   -8.4620   22.1930  -31.4500 S   0  0  0  0  0  0  0  0  0  0  0  0
   -9.1320   21.7680  -30.1710 O   0  0  0  0  0  0  0  0  0  0  0  0
   -9.3840   23.1050  -32.2110 O   0  0  0  0  0  0  0  0  0  0  0  0
   -8.0990   20.7800  -32.4150 N   0  0  0  0  0  0  0  0  0  0  0  0
   -6.9330   20.0620  -31.8480 C   0  0  0  0  0  0  0  0  0  0  0  0
   -6.8460   18.6290  -32.3790 C   0  0  0  0  0  0  0  0  0  0  0  0
   -8.0860   17.8100  -31.9790 C   0  0  0  0  0  0  0  0  0  0  0  0
   -9.3190   18.6900  -31.7130 C   0  0  0  0  0  0  0  0  0  0  0  0
   -9.3090   19.9390  -32.6060 C   0  0  0  0  0  0  0  0  0  0  0  0
   -7.0460   24.3180  -30.4260 C   0  0  0  0  0  0  0  0  0  0  0  0
   -5.8740   25.0380  -30.1820 C   0  0  0  0  0  0  0  0  0  0  0  0
   -4.6350   24.5300  -30.5890 C   0  0  0  0  0  0  0  0  0  0  0  0
   -3.4830   25.2640  -30.3310 O   0  0  0  0  0  0  0  0  0  0  0  0
   -2.1570   20.1660  -32.0900 C   0  0  0  0  0  0  0  0  0  0  0  0
   -0.8330   19.9600  -32.4980 C   0  0  0  0  0  0  0  0  0  0  0  0
   -0.5420   19.0130  -33.4820 C   0  0  0  0  0  0  0  0  0  0  0  0
   -1.5690   18.2690  -34.0680 C   0  0  0  0  0  0  0  0  0  0  0  0
   -2.8990   18.4700  -33.6660 C   0  0  0  0  0  0  0  0  0  0  0  0
   -4.2060   17.5360  -34.3880 S   0  0  0  0  0  0  0  0  0  0  0  0
   -3.6770   16.7060  -35.5250 O   0  0  0  0  0  0  0  0  0  0  0  0
   -5.2300   18.4930  -34.9310 O   0  0  0  0  0  0  0  0  0  0  0  0
   -4.9430   16.5120  -33.1740 N   0  0  0  0  0  0  0  0  0  0  0  0
   -4.0050   15.4720  -32.7380 C   0  0  0  0  0  0  0  0  0  0  0  0
   -4.2480   14.2290  -33.5810 C   0  0  0  0  0  0  0  0  0  0  0  0
   -5.6020   14.4390  -34.2340 C   0  0  0  0  0  0  0  0  0  0  0  0
   -6.0900   15.7920  -33.7370 C   0  0  0  0  0  0  0  0  0  0  0  0
   -3.1870   19.4140  -32.6730 C   0  0  0  0  0  0  0  0  0  0  0  0
   -2.7130   23.2940  -32.3510 H   0  0  0  0  0  0  0  0  0  0  0  0
   -5.7057   21.6171  -32.0309 H   0  0  0  0  0  0  0  0  0  0  0  0
   -6.0137   20.6010  -32.1208 H   0  0  0  0  0  0  0  0  0  0  0  0
   -7.0513   20.0192  -30.7552 H   0  0  0  0  0  0  0  0  0  0  0  0
   -6.7733   18.6569  -33.4762 H   0  0  0  0  0  0  0  0  0  0  0  0
   -5.9570   18.1498  -31.9430 H   0  0  0  0  0  0  0  0  0  0  0  0
   -8.3228   17.1097  -32.7935 H   0  0  0  0  0  0  0  0  0  0  0  0
   -7.8474   17.2816  -31.0442 H   0  0  0  0  0  0  0  0  0  0  0  0
  -10.2283   18.1069  -31.9209 H   0  0  0  0  0  0  0  0  0  0  0  0
   -9.2985   19.0119  -30.6614 H   0  0  0  0  0  0  0  0  0  0  0  0
   -9.3506   19.6184  -33.6574 H   0  0  0  0  0  0  0  0  0  0  0  0
  -10.1809   20.5492  -32.3278 H   0  0  0  0  0  0  0  0  0  0  0  0
   -8.0164   24.7205  -30.1000 H   0  0  0  0  0  0  0  0  0  0  0  0
   -5.9252   26.0089  -29.6675 H   0  0  0  0  0  0  0  0  0  0  0  0
   -0.0208   20.5454  -32.0423 H   0  0  0  0  0  0  0  0  0  0  0  0
    0.4996   18.8522  -33.7969 H   0  0  0  0  0  0  0  0  0  0  0  0
   -1.3355   17.5256  -34.8445 H   0  0  0  0  0  0  0  0  0  0  0  0
   -2.9711   15.8206  -32.8780 H   0  0  0  0  0  0  0  0  0  0  0  0
   -4.1581   15.2446  -31.6727 H   0  0  0  0  0  0  0  0  0  0  0  0
   -3.4645   14.1243  -34.3460 H   0  0  0  0  0  0  0  0  0  0  0  0
   -4.2266   13.3130  -32.9723 H   0  0  0  0  0  0  0  0  0  0  0  0
   -5.5032   14.4451  -35.3295 H   0  0  0  0  0  0  0  0  0  0  0  0
   -6.3063   13.6334  -33.9793 H   0  0  0  0  0  0  0  0  0  0  0  0
   -6.5156   16.3651  -34.5739 H   0  0  0  0  0  0  0  0  0  0  0  0
   -6.8687   15.6583  -32.9717 H   0  0  0  0  0  0  0  0  0  0  0  0
   -4.2269   19.5666  -32.3484 H   0  0  0  0  0  0  0  0  0  0  0  0
  1  2  2  0
  2  3  2  0
  2  4  1  0
  4  5  1  0
  5  6  2  0
  6  7  1  0
  7  8  1  0
  8  9  2  0
  8 10  2  0
  8 11  1  0
 11 12  1  0
 12 13  1  0
 13 14  1  0
 14 15  1  0
 15 16  1  0
  7 17  2  0
 17 18  1  0
 18 19  2  0
 19 20  1  0
  2 21  1  0
 21 22  2  0
 22 23  1  0
 23 24  2  0
 24 25  1  0
 25 26  1  0
 26 27  2  0
 26 28  2  0
 26 29  1  0
 29 30  1  0
 30 31  1  0
 31 32  1  0
 32 33  1  0
 25 34  2  0
 19  5  1  0
 34 21  1  0
 16 11  1  0
 33 29  1  0
  4 35  1  0
  6 36  1  0
 12 37  1  0
 12 38  1  0
 13 39  1  0
 13 40  1  0
 14 41  1  0
 14 42  1  0
 15 43  1  0
 15 44  1  0
 16 45  1  0
 16 46  1  0
 17 47  1  0
 18 48  1  0
 22 49  1  0
 23 50  1  0
 24 51  1  0
 30 52  1  0
 30 53  1  0
 31 54  1  0
 31 55  1  0
 32 56  1  0
 32 57  1  0
 33 58  1  0
 33 59  1  0
 34 60  1  0
M  CHG  1  20  -1
M  END
>  <UniqueID>  (2) 
2

>  <SMILES>  (2) 
O=S(=O)(Nc1cc(S(=O)(=O)N2CCCCC2)ccc1[O-])c1cccc(S(=O)(=O)N2CCCC2)c1

>  <Energy>  (2) 
69.35613534392446

>  <Genealogy>  (2) 
O=S(=O)(Nc1cc(S(=O)(=O)N2CCCCC2)ccc1[O-])c1cccc(S(=O)(=O)N2CCCC2)c1 (protonated)
O=S(=O)(Nc1cc(S(=O)(=O)N2CCCCC2)ccc1[O-])c1cccc(S(=O)(=O)N2CCCC2)c1 (3D coordinates assigned)
O=S(=O)(Nc1cc(S(=O)(=O)N2CCCCC2)ccc1[O-])c1cccc(S(=O)(=O)N2CCCC2)c1 (nonaromatic ring conformer: 69.35613534392446 kcal/mol)

>  <smiles>  (2) 
O=S(=O)(Nc1cc(S(=O)(=O)N2CCCCC2)ccc1O)c1cccc(S(=O)(=O)N2CCCC2)c1

>  <score_type>  (2) 
oracle

>  <origin>  (2) 
adgpu

>  <m_score__min__energy>  (2) 
-14.92

>  <m_primary>  (2) 
energy

$$$$
2:0
     RDKit          3D

 59 62  0  0  0  0  0  0  0  0999 V2000
   -3.0830   22.2250  -32.3240 C   0  0  0  0  0  0  0  0  0  0  0  0
   -2.4580   20.9950  -31.8090 N   0  0  0  0  0  0  0  0  0  0  0  0
   -1.0320   21.2010  -31.4750 C   0  0  0  0  0  0  0  0  0  0  0  0
   -0.8590   22.1390  -30.2680 C   0  0  0  0  0  0  0  0  0  0  0  0
   -1.8960   21.8840  -29.2600 N   0  0  0  0  0  0  0  0  0  0  0  0
   -2.3370   22.9510  -28.3950 C   0  0  0  0  0  0  0  0  0  0  0  0
   -1.5610   23.3010  -27.2760 C   0  0  0  0  0  0  0  0  0  0  0  0
   -2.0130   24.2640  -26.3710 C   0  0  0  0  0  0  0  0  0  0  0  0
   -3.2480   24.8830  -26.5690 C   0  0  0  0  0  0  0  0  0  0  0  0
   -4.0290   24.5510  -27.6780 C   0  0  0  0  0  0  0  0  0  0  0  0
   -3.5750   23.6030  -28.6060 C   0  0  0  0  0  0  0  0  0  0  0  0
   -4.3920   23.3150  -29.7480 N   0  0  0  0  0  0  0  0  0  0  0  0
   -4.6530   24.2880  -30.7750 C   0  0  0  0  0  0  0  0  0  0  0  0
   -3.9380   25.3200  -30.8680 O   0  0  0  0  0  0  0  0  0  0  0  0
   -5.6900   24.0750  -31.7400 N   0  0  0  0  0  0  0  0  0  0  0  0
   -6.6570   23.0180  -31.7020 C   0  0  0  0  0  0  0  0  0  0  0  0
   -7.9870   23.3220  -31.3830 C   0  0  0  0  0  0  0  0  0  0  0  0
   -8.9480   22.3090  -31.3300 C   0  0  0  0  0  0  0  0  0  0  0  0
   -8.5850   20.9830  -31.5780 C   0  0  0  0  0  0  0  0  0  0  0  0
   -7.2500   20.6620  -31.8620 C   0  0  0  0  0  0  0  0  0  0  0  0
   -6.7700   18.9980  -32.1850 S   0  0  0  0  0  0  0  0  0  0  0  0
   -7.9910   18.1290  -32.3380 O   0  0  0  0  0  0  0  0  0  0  0  0
   -5.9580   18.4910  -31.0260 O   0  0  0  0  0  0  0  0  0  0  0  0
   -5.8040   18.9510  -33.6420 N   0  0  0  0  0  0  0  0  0  0  0  0
   -6.0570   17.7300  -34.4040 C   0  0  0  0  0  0  0  0  0  0  0  0
   -4.7830   17.4240  -35.1770 C   0  0  0  0  0  0  0  0  0  0  0  0
   -3.6870   18.2190  -34.4860 C   0  0  0  0  0  0  0  0  0  0  0  0
   -4.3740   18.9340  -33.3330 C   0  0  0  0  0  0  0  0  0  0  0  0
   -6.2880   21.6790  -31.9150 C   0  0  0  0  0  0  0  0  0  0  0  0
   -2.6200   20.6100  -29.3050 C   0  0  0  0  0  0  0  0  0  0  0  0
   -3.2440   20.3960  -30.6970 C   0  0  0  0  0  0  0  0  0  0  0  0
   -3.4029   22.8546  -31.4806 H   0  0  0  0  0  0  0  0  0  0  0  0
   -2.3558   22.7764  -32.9380 H   0  0  0  0  0  0  0  0  0  0  0  0
   -3.9572   21.9627  -32.9380 H   0  0  0  0  0  0  0  0  0  0  0  0
   -0.5774   20.2278  -31.2380 H   0  0  0  0  0  0  0  0  0  0  0  0
   -0.5406   21.6653  -32.3427 H   0  0  0  0  0  0  0  0  0  0  0  0
    0.1307   21.9704  -29.8186 H   0  0  0  0  0  0  0  0  0  0  0  0
   -0.9491   23.1796  -30.6129 H   0  0  0  0  0  0  0  0  0  0  0  0
   -0.5894   22.8121  -27.1119 H   0  0  0  0  0  0  0  0  0  0  0  0
   -1.3954   24.5346  -25.5019 H   0  0  0  0  0  0  0  0  0  0  0  0
   -3.6070   25.6340  -25.8499 H   0  0  0  0  0  0  0  0  0  0  0  0
   -5.0055   25.0358  -27.8243 H   0  0  0  0  0  0  0  0  0  0  0  0
   -4.9500   22.4330  -29.7310 H   0  0  0  0  0  0  0  0  0  0  0  0
   -8.2759   24.3625  -31.1734 H   0  0  0  0  0  0  0  0  0  0  0  0
   -9.9932   22.5563  -31.0924 H   0  0  0  0  0  0  0  0  0  0  0  0
   -9.3470   20.1902  -31.5505 H   0  0  0  0  0  0  0  0  0  0  0  0
   -6.2950   16.9003  -33.7221 H   0  0  0  0  0  0  0  0  0  0  0  0
   -6.9112   17.8589  -35.0850 H   0  0  0  0  0  0  0  0  0  0  0  0
   -4.5594   16.3476  -35.1387 H   0  0  0  0  0  0  0  0  0  0  0  0
   -4.8754   17.6948  -36.2391 H   0  0  0  0  0  0  0  0  0  0  0  0
   -2.9025   17.5462  -34.1092 H   0  0  0  0  0  0  0  0  0  0  0  0
   -3.1983   18.9255  -35.1731 H   0  0  0  0  0  0  0  0  0  0  0  0
   -4.1958   18.3936  -32.3916 H   0  0  0  0  0  0  0  0  0  0  0  0
   -3.9831   19.9549  -33.2109 H   0  0  0  0  0  0  0  0  0  0  0  0
   -5.2377   21.4279  -32.1246 H   0  0  0  0  0  0  0  0  0  0  0  0
   -1.9210   19.7881  -29.0909 H   0  0  0  0  0  0  0  0  0  0  0  0
   -3.4227   20.6290  -28.5532 H   0  0  0  0  0  0  0  0  0  0  0  0
   -3.3281   19.3139  -30.8761 H   0  0  0  0  0  0  0  0  0  0  0  0
   -4.2215   20.9003  -30.6894 H   0  0  0  0  0  0  0  0  0  0  0  0
  1  2  1  0
  2  3  1  0
  3  4  1  0
  4  5  1  0
  5  6  1  0
  6  7  2  0
  7  8  1  0
  8  9  2  0
  9 10  1  0
 10 11  2  0
 11 12  1  0
 12 13  1  0
 13 14  2  0
 13 15  1  0
 15 16  1  0
 16 17  2  0
 17 18  1  0
 18 19  2  0
 19 20  1  0
 20 21  1  0
 21 22  2  0
 21 23  2  0
 21 24  1  0
 24 25  1  0
 25 26  1  0
 26 27  1  0
 27 28  1  0
 20 29  2  0
  5 30  1  0
 30 31  1  0
 31  2  1  0
 11  6  1  0
 29 16  1  0
 28 24  1  0
  1 32  1  0
  1 33  1  0
  1 34  1  0
  3 35  1  0
  3 36  1  0
  4 37  1  0
  4 38  1  0
  7 39  1  0
  8 40  1  0
  9 41  1  0
 10 42  1  0
 12 43  1  0
 17 44  1  0
 18 45  1  0
 19 46  1  0
 25 47  1  0
 25 48  1  0
 26 49  1  0
 26 50  1  0
 27 51  1  0
 27 52  1  0
 28 53  1  0
 28 54  1  0
 29 55  1  0
 30 56  1  0
 30 57  1  0
 31 58  1  0
 31 59  1  0
M  CHG  1  15  -1
M  END
>  <UniqueID>  (3) 
3

>  <SMILES>  (3) 
CN1CCN(c2ccccc2NC(=O)[N-]c2cccc(S(=O)(=O)N3CCCC3)c2)CC1

>  <Energy>  (3) 
81.80931905423681

>  <Genealogy>  (3) 
CN1CCN(c2ccccc2NC(=O)[N-]c2cccc(S(=O)(=O)N3CCCC3)c2)CC1 (protonated)
CN1CCN(c2ccccc2NC(=O)[N-]c2cccc(S(=O)(=O)N3CCCC3)c2)CC1 (3D coordinates assigned)
CN1CCN(c2ccccc2NC(=O)[N-]c2cccc(S(=O)(=O)N3CCCC3)c2)CC1 (nonaromatic ring conformer: 81.80931905423681 kcal/mol)

>  <smiles>  (3) 
CN1CCN(c2ccccc2NC(=O)Nc2cccc(S(=O)(=O)N3CCCC3)c2)CC1

>  <score_type>  (3) 
oracle

>  <origin>  (3) 
adgpu

>  <m_score__min__energy>  (3) 
-11.01

>  <m_primary>  (3) 
energy

$$$$
3:0
     RDKit          3D

 37 39  0  0  1  0  0  0  0  0999 V2000
   -3.6190   24.1480  -27.4700 C   0  0  0  0  0  0  0  0  0  0  0  0
   -3.2240   24.4330  -28.7990 O   0  0  0  0  0  0  0  0  0  0  0  0
   -4.1600   24.6140  -29.8180 C   0  0  0  0  0  0  0  0  0  0  0  0
   -3.8900   25.2870  -30.8400 O   0  0  0  0  0  0  0  0  0  0  0  0
   -5.4450   23.9870  -29.6250 N   0  0  0  0  0  0  0  0  0  0  0  0
   -6.1980   23.6810  -30.6170 C   0  0  0  0  0  0  0  0  0  0  0  0
   -7.3920   23.1000  -30.4850 N   0  0  0  0  0  0  0  0  0  0  0  0
   -7.9470   22.8940  -31.7040 C   0  0  0  0  0  0  0  0  0  0  0  0
   -9.2770   22.3780  -31.8520 C   0  0  0  0  0  0  0  0  0  0  0  0
   -9.6470   21.1480  -32.0560 C   0  0  0  0  0  0  0  0  0  0  0  0
   -8.8430   19.9790  -32.1670 C   0  0  0  0  0  0  0  0  0  0  0  0
   -8.7040   18.7400  -31.6290 C   0  0  0  0  0  0  0  0  0  0  0  0
   -7.6590   17.9850  -31.9980 C   0  0  0  0  0  0  0  0  0  0  0  0
   -6.7830   18.4700  -32.8860 C   0  0  0  0  0  0  0  0  0  0  0  0
   -5.5770   17.8730  -33.4550 C   0  0  0  0  0  0  0  0  0  0  0  0
   -5.4970   16.5040  -33.5990 C   0  0  0  0  0  0  0  0  0  0  0  0
   -4.3450   15.9480  -34.1410 C   0  0  0  0  0  0  0  0  0  0  0  0
   -3.3140   16.8040  -34.5180 C   0  0  0  0  0  0  0  0  0  0  0  0
   -3.4220   18.1680  -34.3620 C   0  0  0  0  0  0  0  0  0  0  0  0
   -4.5710   18.7390  -33.8200 C   0  0  0  0  0  0  0  0  0  0  0  0
   -7.4280   20.0820  -33.2510 S   0  0  0  0  0  0  0  0  0  0  0  0
   -7.0390   23.3760  -32.5570 N   0  0  0  0  0  0  0  0  0  0  0  0
   -5.9690   23.8560  -31.8990 N   0  0  0  0  0  0  0  0  0  0  0  0
   -2.9317   24.6439  -26.7688 H   0  0  0  0  0  0  0  0  0  0  0  0
   -4.6417   24.5176  -27.3042 H   0  0  0  0  0  0  0  0  0  0  0  0
   -3.5906   23.0609  -27.3042 H   0  0  0  0  0  0  0  0  0  0  0  0
  -10.0884   23.1176  -31.7843 H   0  0  0  0  0  0  0  0  0  0  0  0
  -10.7308   20.9894  -32.1566 H   0  0  0  0  0  0  0  0  0  0  0  0
   -9.4373   18.3615  -30.9017 H   0  0  0  0  0  0  0  0  0  0  0  0
   -7.5233   16.9784  -31.5756 H   0  0  0  0  0  0  0  0  0  0  0  0
   -6.3339   15.8609  -33.2890 H   0  0  0  0  0  0  0  0  0  0  0  0
   -4.2500   14.8596  -34.2689 H   0  0  0  0  0  0  0  0  0  0  0  0
   -2.3942   16.3823  -34.9494 H   0  0  0  0  0  0  0  0  0  0  0  0
   -2.5884   18.8162  -34.6700 H   0  0  0  0  0  0  0  0  0  0  0  0
   -4.6696   19.8269  -33.6902 H   0  0  0  0  0  0  0  0  0  0  0  0
   -7.0690   23.4540  -33.5910 H   0  0  0  0  0  0  0  0  0  0  0  0
   -5.1100   24.2890  -32.3000 H   0  0  0  0  0  0  0  0  0  0  0  0
  1  2  1  0
  2  3  1  0
  3  4  2  0
  3  5  1  0
  5  6  2  0
  6  7  1  0
  7  8  2  0
  8  9  1  0
  9 10  2  0
 10 11  1  0
 11 12  2  0
 12 13  1  0
 13 14  2  0
 14 15  1  0
 15 16  2  0
 16 17  1  0
 17 18  2  0
 18 19  1  0
 19 20  2  0
 14 21  1  0
  8 22  1  0
 22 23  1  0
 23  6  1  0
 21 11  1  0
 20 15  1  0
  1 24  1  0
  1 25  1  0
  1 26  1  0
  9 27  1  0
 10 28  1  0
 12 29  1  0
 13 30  1  0
 16 31  1  0
 17 32  1  0
 18 33  1  0
 19 34  1  0
 20 35  1  0
 22 36  1  0
 23 37  1  0
M  END
>  <smiles>  (4) 
COC(=O)N=c1nc(C=Cc2ccc(-c3ccccc3)s2)[nH][nH]1

>  <score_type>  (4) 
oracle

>  <origin>  (4) 
adgpu

>  <m_score__min__energy>  (4) 
-9.0899999999999999

>  <m_primary>  (4) 
energy

$$$$
4:0
     RDKit          3D

 39 41  0  0  0  0  0  0  0  0999 V2000
   -5.3770   26.3790  -28.9790 H   0  0  0  0  0  0  0  0  0  0  0  0
   -6.1070   25.9610  -29.5420 O   0  0  0  0  0  0  0  0  0  0  0  0
   -5.9640   24.7220  -30.1670 C   0  0  0  0  0  0  0  0  0  0  0  0
   -7.1110   23.9580  -30.3980 C   0  0  0  0  0  0  0  0  0  0  0  0
   -8.0846   24.3184  -30.0343 H   0  0  0  0  0  0  0  0  0  0  0  0
   -7.0390   22.7380  -31.0870 C   0  0  0  0  0  0  0  0  0  0  0  0
   -5.7820   22.2610  -31.5240 C   0  0  0  0  0  0  0  0  0  0  0  0
   -4.6330   23.0300  -31.2910 C   0  0  0  0  0  0  0  0  0  0  0  0
   -3.6603   22.6797  -31.6667 H   0  0  0  0  0  0  0  0  0  0  0  0
   -4.7070   24.2370  -30.5870 C   0  0  0  0  0  0  0  0  0  0  0  0
   -3.4950   24.9600  -30.3380 N   0  0  0  0  0  0  0  0  0  0  0  0
   -2.5910   24.7070  -29.2550 C   0  0  0  0  0  0  0  0  0  0  0  0
   -1.7320   25.5830  -28.9680 O   0  0  0  0  0  0  0  0  0  0  0  0
   -2.6280   23.4300  -28.5060 C   0  0  0  0  0  0  0  0  0  0  0  0
   -3.2830   23.3470  -27.6262 H   0  0  0  0  0  0  0  0  0  0  0  0
   -1.8880   22.3720  -28.8670 C   0  0  0  0  0  0  0  0  0  0  0  0
   -1.2444   22.4673  -29.7540 H   0  0  0  0  0  0  0  0  0  0  0  0
   -1.8880   21.0800  -28.1380 C   0  0  0  0  0  0  0  0  0  0  0  0
   -0.7400   20.2710  -28.0090 C   0  0  0  0  0  0  0  0  0  0  0  0
    0.2074   20.5875  -28.4697 H   0  0  0  0  0  0  0  0  0  0  0  0
   -0.7990   19.1020  -27.3180 N   0  0  0  0  0  0  0  0  0  0  0  0
   -1.9470   18.6730  -26.7300 C   0  0  0  0  0  0  0  0  0  0  0  0
   -1.9622   17.7177  -26.1849 H   0  0  0  0  0  0  0  0  0  0  0  0
   -3.1050   19.4440  -26.8180 C   0  0  0  0  0  0  0  0  0  0  0  0
   -4.0359   19.1044  -26.3403 H   0  0  0  0  0  0  0  0  0  0  0  0
   -3.0720   20.6510  -27.5180 C   0  0  0  0  0  0  0  0  0  0  0  0
   -3.9791   21.2697  -27.5842 H   0  0  0  0  0  0  0  0  0  0  0  0
   -5.6570   20.9880  -32.3290 C   0  0  0  0  0  0  0  0  0  0  0  0
   -4.7568   20.4492  -31.9985 H   0  0  0  0  0  0  0  0  0  0  0  0
   -5.5945   21.2700  -33.3904 H   0  0  0  0  0  0  0  0  0  0  0  0
   -6.8680   20.0660  -32.1650 C   0  0  0  0  0  0  0  0  0  0  0  0
   -6.8516   19.6219  -31.1588 H   0  0  0  0  0  0  0  0  0  0  0  0
   -6.8201   19.2754  -32.9283 H   0  0  0  0  0  0  0  0  0  0  0  0
   -8.1650   20.8520  -32.3470 C   0  0  0  0  0  0  0  0  0  0  0  0
   -9.0192   20.1618  -32.2842 H   0  0  0  0  0  0  0  0  0  0  0  0
   -8.1493   21.3445  -33.3304 H   0  0  0  0  0  0  0  0  0  0  0  0
   -8.2980   21.9210  -31.2570 C   0  0  0  0  0  0  0  0  0  0  0  0
   -8.5270   21.4243  -30.3026 H   0  0  0  0  0  0  0  0  0  0  0  0
   -9.1019   22.6077  -31.5606 H   0  0  0  0  0  0  0  0  0  0  0  0
  1  2  1  0
  2  3  1  0
  3  4  2  0
  4  5  1  0
  4  6  1  0
  6  7  2  0
  7  8  1  0
  8  9  1  0
  8 10  2  0
 10 11  1  0
 11 12  1  0
 12 13  2  0
 12 14  1  0
 14 15  1  0
 14 16  2  0
 16 17  1  0
 16 18  1  0
 18 19  2  0
 19 20  1  0
 19 21  1  0
 21 22  2  0
 22 23  1  0
 22 24  1  0
 24 25  1  0
 24 26  2  0
 26 27  1  0
  7 28  1  0
 28 29  1  0
 28 30  1  0
 28 31  1  0
 31 32  1  0
 31 33  1  0
 31 34  1  0
 34 35  1  0
 34 36  1  0
 34 37  1  0
 37 38  1  0
 37 39  1  0
 10  3  1  0
 26 18  1  0
 37  6  1  0
M  CHG  1  11  -1
M  END
>  <UniqueID>  (5) 
4

>  <SMILES>  (5) 
O=C(/C=C/c1cccnc1)[N-]c1cc2c(cc1O)CCCC2

>  <Energy>  (5) 
49.407206299233216

>  <Genealogy>  (5) 
O=C(C=Cc1cccnc1)[N-]c1cc2c(cc1O)CCCC2 (protonated)
O=C(/C=C/c1cccnc1)[N-]c1cc2c(cc1O)CCCC2 (cis-trans isomerization)
O=C(/C=C/c1cccnc1)[N-]c1cc2c(cc1O)CCCC2 (3D coordinates assigned)
O=C(/C=C/c1cccnc1)[N-]c1cc2c(cc1O)CCCC2 (nonaromatic ring conformer: 49.407206299233216 kcal/mol)

>  <smiles>  (5) 
O=C(C=Cc1cccnc1)Nc1cc2c(cc1O)CCCC2

>  <score_type>  (5) 
oracle

>  <origin>  (5) 
adgpu

>  <m_score__min__energy>  (5) 
-11.789999999999999

>  <m_primary>  (5) 
energy

$$$$
5:0
     RDKit          3D

 50 52  0  0  0  0  0  0  0  0999 V2000
   -0.8680   26.2850  -27.8650 C   0  0  0  0  0  0  0  0  0  0  0  0
   -1.6230   25.6980  -28.9680 N   0  0  0  0  0  0  0  0  0  0  0  0
   -2.6920   24.4700  -28.3600 S   0  0  0  0  0  0  0  0  0  0  0  0
   -3.2920   24.9310  -27.0600 O   0  0  0  0  0  0  0  0  0  0  0  0
   -1.9110   23.2110  -28.1180 O   0  0  0  0  0  0  0  0  0  0  0  0
   -3.9630   24.1350  -29.5330 C   0  0  0  0  0  0  0  0  0  0  0  0
   -3.6750   23.3780  -30.6750 C   0  0  0  0  0  0  0  0  0  0  0  0
   -4.6770   23.1050  -31.6110 C   0  0  0  0  0  0  0  0  0  0  0  0
   -5.9770   23.5810  -31.4060 C   0  0  0  0  0  0  0  0  0  0  0  0
   -7.2650   23.2270  -32.6020 S   0  0  0  0  0  0  0  0  0  0  0  0
   -6.9690   21.4530  -32.5390 C   0  0  0  0  0  0  0  0  0  0  0  0
   -5.7710   20.9690  -33.0780 C   0  0  0  0  0  0  0  0  0  0  0  0
   -5.5150   19.5990  -33.1240 C   0  0  0  0  0  0  0  0  0  0  0  0
   -6.4540   18.6900  -32.6280 C   0  0  0  0  0  0  0  0  0  0  0  0
   -6.1230   16.9570  -32.6810 S   0  0  0  0  0  0  0  0  0  0  0  0
   -6.0960   16.4110  -31.2800 O   0  0  0  0  0  0  0  0  0  0  0  0
   -7.2330   16.2670  -33.4260 O   0  0  0  0  0  0  0  0  0  0  0  0
   -4.6030   16.6160  -33.4690 N   0  0  0  0  0  0  0  0  0  0  0  0
   -4.2270   15.2070  -33.2690 C   0  0  0  0  0  0  0  0  0  0  0  0
   -2.7820   14.9670  -33.7430 C   0  0  0  0  0  0  0  0  0  0  0  0
   -2.3270   15.9960  -34.7910 C   0  0  0  0  0  0  0  0  0  0  0  0
   -3.4850   16.3940  -35.7090 C   0  0  0  0  0  0  0  0  0  0  0  0
   -4.6890   16.9410  -34.9080 C   0  0  0  0  0  0  0  0  0  0  0  0
   -7.6530   19.1650  -32.0790 C   0  0  0  0  0  0  0  0  0  0  0  0
   -7.9200   20.5440  -32.0110 C   0  0  0  0  0  0  0  0  0  0  0  0
   -9.1500   20.9900  -31.4140 N   0  0  0  0  0  0  0  0  0  0  0  0
  -10.2070   21.0170  -32.0760 O   0  0  0  0  0  0  0  0  0  0  0  0
   -9.1420   21.5540  -30.1590 O   0  0  0  0  0  0  0  0  0  0  0  0
   -6.2690   24.3390  -30.2660 C   0  0  0  0  0  0  0  0  0  0  0  0
   -5.2670   24.6120  -29.3290 C   0  0  0  0  0  0  0  0  0  0  0  0
   -1.2970   25.9515  -26.9086 H   0  0  0  0  0  0  0  0  0  0  0  0
    0.1822   25.9639  -27.9277 H   0  0  0  0  0  0  0  0  0  0  0  0
   -0.9203   27.3820  -27.9277 H   0  0  0  0  0  0  0  0  0  0  0  0
   -2.6560   22.9964  -30.8365 H   0  0  0  0  0  0  0  0  0  0  0  0
   -4.4433   22.5153  -32.5097 H   0  0  0  0  0  0  0  0  0  0  0  0
   -5.0246   21.6761  -33.4689 H   0  0  0  0  0  0  0  0  0  0  0  0
   -4.5705   19.2322  -33.5522 H   0  0  0  0  0  0  0  0  0  0  0  0
   -4.3041   14.9591  -32.2001 H   0  0  0  0  0  0  0  0  0  0  0  0
   -4.9060   14.5691  -33.8538 H   0  0  0  0  0  0  0  0  0  0  0  0
   -2.1108   15.0286  -32.8737 H   0  0  0  0  0  0  0  0  0  0  0  0
   -2.7453   13.9731  -34.2129 H   0  0  0  0  0  0  0  0  0  0  0  0
   -1.9523   16.8926  -34.2755 H   0  0  0  0  0  0  0  0  0  0  0  0
   -1.5337   15.5437  -35.4042 H   0  0  0  0  0  0  0  0  0  0  0  0
   -3.1370   17.1717  -36.4048 H   0  0  0  0  0  0  0  0  0  0  0  0
   -3.8148   15.4966  -36.2530 H   0  0  0  0  0  0  0  0  0  0  0  0
   -4.7214   18.0346  -35.0218 H   0  0  0  0  0  0  0  0  0  0  0  0
   -5.5989   16.4672  -35.3049 H   0  0  0  0  0  0  0  0  0  0  0  0
   -8.3953   18.4492  -31.6961 H   0  0  0  0  0  0  0  0  0  0  0  0
   -7.2883   24.7207  -30.1067 H   0  0  0  0  0  0  0  0  0  0  0  0
   -5.5015   25.2017  -28.4305 H   0  0  0  0  0  0  0  0  0  0  0  0
  1  2  1  0
  2  3  1  0
  3  4  2  0
  3  5  2  0
  3  6  1  0
  6  7  2  0
  7  8  1  0
  8  9  2  0
  9 10  1  0
 10 11  1  0
 11 12  2  0
 12 13  1  0
 13 14  2  0
 14 15  1  0
 15 16  2  0
 15 17  2  0
 15 18  1  0
 18 19  1  0
 19 20  1  0
 20 21  1  0
 21 22  1  0
 22 23  1  0
 14 24  1  0
 24 25  2  0
 25 26  1  0
 26 27  2  0
 26 28  1  0
  9 29  1  0
 29 30  2  0
 30  6  1  0
 25 11  1  0
 23 18  1  0
  1 31  1  0
  1 32  1  0
  1 33  1  0
  7 34  1  0
  8 35  1  0
 12 36  1  0
 13 37  1  0
 19 38  1  0
 19 39  1  0
 20 40  1  0
 20 41  1  0
 21 42  1  0
 21 43  1  0
 22 44  1  0
 22 45  1  0
 23 46  1  0
 23 47  1  0
 24 48  1  0
 29 49  1  0
 30 50  1  0
M  CHG  3   2  -1  26   1  28  -1
M  END
>  <UniqueID>  (6) 
5

>  <SMILES>  (6) 
C[N-]S(=O)(=O)c1ccc(Sc2ccc(S(=O)(=O)N3CCCCC3)cc2[N+](=O)[O-])cc1

>  <Energy>  (6) 
51.508204838133786

>  <Genealogy>  (6) 
C[N-]S(=O)(=O)c1ccc(Sc2ccc(S(=O)(=O)N3CCCCC3)cc2[N+](=O)[O-])cc1 (protonated)
C[N-]S(=O)(=O)c1ccc(Sc2ccc(S(=O)(=O)N3CCCCC3)cc2[N+](=O)[O-])cc1 (3D coordinates assigned)
C[N-]S(=O)(=O)c1ccc(Sc2ccc(S(=O)(=O)N3CCCCC3)cc2[N+](=O)[O-])cc1 (nonaromatic ring conformer: 51.508204838133786 kcal/mol)

>  <smiles>  (6) 
CNS(=O)(=O)c1ccc(Sc2ccc(S(=O)(=O)N3CCCCC3)cc2[N+](=O)[O-])cc1

>  <score_type>  (6) 
oracle

>  <origin>  (6) 
adgpu

>  <m_score__min__energy>  (6) 
-10.68

>  <m_primary>  (6) 
energy

$$$$
6:0
     RDKit          3D

 41 44  0  0  0  0  0  0  0  0999 V2000
   -9.6850   19.2250  -33.0650 N   0  0  0  0  0  0  0  0  0  0  0  0
   -8.6640   18.5450  -32.3310 C   0  0  0  0  0  0  0  0  0  0  0  0
   -8.9090   18.1710  -31.1520 O   0  0  0  0  0  0  0  0  0  0  0  0
   -7.3370   18.2560  -32.9290 C   0  0  0  0  0  0  0  0  0  0  0  0
   -7.0960   17.0050  -33.5270 C   0  0  0  0  0  0  0  0  0  0  0  0
   -5.8570   16.7250  -34.1060 C   0  0  0  0  0  0  0  0  0  0  0  0
   -4.8390   17.6790  -34.0820 C   0  0  0  0  0  0  0  0  0  0  0  0
   -5.0430   18.9150  -33.4630 C   0  0  0  0  0  0  0  0  0  0  0  0
   -3.9910   19.8440  -33.4590 O   0  0  0  0  0  0  0  0  0  0  0  0
   -3.5480   20.5580  -32.3410 C   0  0  0  0  0  0  0  0  0  0  0  0
   -2.5840   20.0580  -31.5210 N   0  0  0  0  0  0  0  0  0  0  0  0
   -2.1410   20.7650  -30.4490 C   0  0  0  0  0  0  0  0  0  0  0  0
   -2.6720   22.0250  -30.1790 C   0  0  0  0  0  0  0  0  0  0  0  0
   -3.6640   22.5310  -31.0280 C   0  0  0  0  0  0  0  0  0  0  0  0
   -4.2410   23.8720  -30.7960 C   0  0  0  0  0  0  0  0  0  0  0  0
   -3.4940   24.9620  -30.5310 N   0  0  0  0  0  0  0  0  0  0  0  0
   -4.2900   26.0180  -30.4690 N   0  0  0  0  0  0  0  0  0  0  0  0
   -5.5540   25.6210  -30.7000 C   0  0  0  0  0  0  0  0  0  0  0  0
   -5.5720   24.2560  -30.9050 C   0  0  0  0  0  0  0  0  0  0  0  0
   -6.7760   23.4250  -31.1090 C   0  0  0  0  0  0  0  0  0  0  0  0
   -7.6950   23.7560  -32.1190 C   0  0  0  0  0  0  0  0  0  0  0  0
   -8.8450   22.9820  -32.3070 C   0  0  0  0  0  0  0  0  0  0  0  0
   -9.0920   21.8810  -31.4830 C   0  0  0  0  0  0  0  0  0  0  0  0
  -10.2070   21.1310  -31.6670 F   0  0  0  0  0  0  0  0  0  0  0  0
   -8.1930   21.5580  -30.4620 C   0  0  0  0  0  0  0  0  0  0  0  0
   -7.0430   22.3300  -30.2700 C   0  0  0  0  0  0  0  0  0  0  0  0
   -4.0650   21.7910  -32.0950 N   0  0  0  0  0  0  0  0  0  0  0  0
   -6.2990   19.2070  -32.9000 C   0  0  0  0  0  0  0  0  0  0  0  0
  -10.5850   19.4710  -32.5980 H   0  0  0  0  0  0  0  0  0  0  0  0
   -9.5980   19.4070  -34.0890 H   0  0  0  0  0  0  0  0  0  0  0  0
   -7.8891   16.2429  -33.5382 H   0  0  0  0  0  0  0  0  0  0  0  0
   -5.6826   15.7491  -34.5827 H   0  0  0  0  0  0  0  0  0  0  0  0
   -3.8702   17.4567  -34.5532 H   0  0  0  0  0  0  0  0  0  0  0  0
   -1.3638   20.3434  -29.7946 H   0  0  0  0  0  0  0  0  0  0  0  0
   -2.3191   22.6099  -29.3168 H   0  0  0  0  0  0  0  0  0  0  0  0
   -6.4345   26.2800  -30.7221 H   0  0  0  0  0  0  0  0  0  0  0  0
   -7.5094   24.6272  -32.7644 H   0  0  0  0  0  0  0  0  0  0  0  0
   -9.5563   23.2407  -33.1052 H   0  0  0  0  0  0  0  0  0  0  0  0
   -8.3907   20.6953  -29.8088 H   0  0  0  0  0  0  0  0  0  0  0  0
   -6.3442   22.0789  -29.4584 H   0  0  0  0  0  0  0  0  0  0  0  0
   -6.4717   20.1877  -32.4327 H   0  0  0  0  0  0  0  0  0  0  0  0
  1  2  1  0
  2  3  2  0
  2  4  1  0
  4  5  2  0
  5  6  1  0
  6  7  2  0
  7  8  1  0
  8  9  1  0
  9 10  1  0
 10 11  2  0
 11 12  1  0
 12 13  2  0
 13 14  1  0
 14 15  1  0
 15 16  1  0
 16 17  1  0
 17 18  2  0
 18 19  1  0
 19 20  1  0
 20 21  2  0
 21 22  1  0
 22 23  2  0
 23 24  1  0
 23 25  1  0
 25 26  2  0
 14 27  2  0
  8 28  2  0
 28  4  1  0
 27 10  1  0
 19 15  2  0
 26 20  1  0
  1 29  1  0
  1 30  1  0
  5 31  1  0
  6 32  1  0
  7 33  1  0
 12 34  1  0
 13 35  1  0
 18 36  1  0
 21 37  1  0
 22 38  1  0
 25 39  1  0
 26 40  1  0
 28 41  1  0
M  CHG  1  16  -1
M  END
>  <UniqueID>  (7) 
6

>  <SMILES>  (7) 
NC(=O)c1cccc(Oc2nccc(-c3[n-]ncc3-c3ccc(F)cc3)n2)c1

>  <Energy>  (7) 
89.1858151669678

>  <Genealogy>  (7) 
NC(=O)c1cccc(Oc2nccc(-c3[n-]ncc3-c3ccc(F)cc3)n2)c1 (protonated)
NC(=O)c1cccc(Oc2nccc(-c3[n-]ncc3-c3ccc(F)cc3)n2)c1 (3D coordinates assigned)
NC(=O)c1cccc(Oc2nccc(-c3[n-]ncc3-c3ccc(F)cc3)n2)c1 (optimized conformer: 89.1858151669678 kcal/mol)

>  <smiles>  (7) 
NC(=O)c1cccc(Oc2nccc(-c3[nH]ncc3-c3ccc(F)cc3)n2)c1

>  <score_type>  (7) 
oracle

>  <origin>  (7) 
adgpu

>  <m_score__min__energy>  (7) 
-10.85

>  <m_primary>  (7) 
energy

$$$$
7:0
     RDKit          3D

 42 45  0  0  0  0  0  0  0  0999 V2000
   -8.7990   21.3850  -32.1640 C   0  0  0  0  0  0  0  0  0  0  0  0
   -7.5640   22.1860  -31.8410 C   0  0  0  0  0  0  0  0  0  0  0  0
   -7.7250   23.4330  -31.2200 C   0  0  0  0  0  0  0  0  0  0  0  0
   -6.6210   24.2170  -30.9010 C   0  0  0  0  0  0  0  0  0  0  0  0
   -5.3310   23.7790  -31.1980 C   0  0  0  0  0  0  0  0  0  0  0  0
   -4.2330   24.6400  -30.8770 N   0  0  0  0  0  0  0  0  0  0  0  0
   -3.1630   24.2870  -29.9910 C   0  0  0  0  0  0  0  0  0  0  0  0
   -2.8480   23.0770  -29.8310 O   0  0  0  0  0  0  0  0  0  0  0  0
   -2.3890   25.2990  -29.3420 N   0  0  0  0  0  0  0  0  0  0  0  0
   -1.1900   25.0870  -28.5840 C   0  0  0  0  0  0  0  0  0  0  0  0
   -0.4770   23.8560  -28.6410 C   0  0  0  0  0  0  0  0  0  0  0  0
    0.7100   23.6800  -27.9060 C   0  0  0  0  0  0  0  0  0  0  0  0
    1.1630   24.7510  -27.1420 C   0  0  0  0  0  0  0  0  0  0  0  0
    2.2640   24.8120  -26.3750 N   0  0  0  0  0  0  0  0  0  0  0  0
    2.3050   26.0310  -25.8430 N   0  0  0  0  0  0  0  0  0  0  0  0
    1.2340   26.7430  -26.2710 C   0  0  0  0  0  0  0  0  0  0  0  0
    0.4950   25.9370  -27.1030 C   0  0  0  0  0  0  0  0  0  0  0  0
   -0.6810   26.1540  -27.8140 C   0  0  0  0  0  0  0  0  0  0  0  0
   -5.1390   22.5060  -31.7800 C   0  0  0  0  0  0  0  0  0  0  0  0
   -3.8530   21.9870  -31.9480 O   0  0  0  0  0  0  0  0  0  0  0  0
   -6.2570   21.7250  -32.1560 C   0  0  0  0  0  0  0  0  0  0  0  0
   -6.0090   20.1480  -32.9520 S   0  0  0  0  0  0  0  0  0  0  0  0
   -4.5960   20.0310  -33.4540 O   0  0  0  0  0  0  0  0  0  0  0  0
   -6.9140   20.0450  -34.1460 O   0  0  0  0  0  0  0  0  0  0  0  0
   -6.3430   18.7580  -31.8640 C   0  0  0  0  0  0  0  0  0  0  0  0
   -6.6570   17.4220  -32.5230 C   0  0  0  0  0  0  0  0  0  0  0  0
   -7.7780   18.2600  -31.9310 C   0  0  0  0  0  0  0  0  0  0  0  0
   -9.2860   21.0692  -31.2296 H   0  0  0  0  0  0  0  0  0  0  0  0
   -9.4950   22.0041  -32.7491 H   0  0  0  0  0  0  0  0  0  0  0  0
   -8.5175   20.4971  -32.7491 H   0  0  0  0  0  0  0  0  0  0  0  0
   -8.7360   23.7954  -30.9824 H   0  0  0  0  0  0  0  0  0  0  0  0
   -6.7670   25.1906  -30.4103 H   0  0  0  0  0  0  0  0  0  0  0  0
   -0.8577   23.0345  -29.2657 H   0  0  0  0  0  0  0  0  0  0  0  0
    1.2609   22.7283  -27.9345 H   0  0  0  0  0  0  0  0  0  0  0  0
    0.9981   27.7827  -26.0001 H   0  0  0  0  0  0  0  0  0  0  0  0
   -1.1967   27.1249  -27.7770 H   0  0  0  0  0  0  0  0  0  0  0  0
   -3.0340   22.3850  -31.5060 H   0  0  0  0  0  0  0  0  0  0  0  0
   -5.6418   19.0717  -31.0767 H   0  0  0  0  0  0  0  0  0  0  0  0
   -6.5692   17.3127  -33.6140 H   0  0  0  0  0  0  0  0  0  0  0  0
   -6.3058   16.3879  -32.3912 H   0  0  0  0  0  0  0  0  0  0  0  0
   -8.5019   18.7567  -32.5938 H   0  0  0  0  0  0  0  0  0  0  0  0
   -8.5744   18.0828  -31.1932 H   0  0  0  0  0  0  0  0  0  0  0  0
  1  2  1  0
  2  3  2  0
  3  4  1  0
  4  5  2  0
  5  6  1  0
  6  7  1  0
  7  8  2  0
  7  9  1  0
  9 10  1  0
 10 11  2  0
 11 12  1  0
 12 13  2  0
 13 14  1  0
 14 15  1  0
 15 16  2  0
 16 17  1  0
 17 18  2  0
  5 19  1  0
 19 20  1  0
 19 21  2  0
 21 22  1  0
 22 23  2  0
 22 24  2  0
 22 25  1  0
 25 26  1  0
 26 27  1  0
 21  2  1  0
 27 25  1  0
 18 10  1  0
 17 13  1  0
  1 28  1  0
  1 29  1  0
  1 30  1  0
  3 31  1  0
  4 32  1  0
 11 33  1  0
 12 34  1  0
 16 35  1  0
 18 36  1  0
 20 37  1  0
 25 38  1  0
 26 39  1  0
 26 40  1  0
 27 41  1  0
 27 42  1  0
M  CHG  3   6  -1   9  -1  14  -1
M  END
>  <UniqueID>  (8) 
7

>  <SMILES>  (8) 
Cc1ccc([N-]C(=O)[N-]c2ccc3[n-]ncc3c2)c(O)c1S(=O)(=O)C1CC1

>  <Energy>  (8) 
359.85314591588997

>  <Genealogy>  (8) 
Cc1ccc([N-]C(=O)[N-]c2ccc3[n-]ncc3c2)c(O)c1S(=O)(=O)C1CC1 (protonated)
Cc1ccc([N-]C(=O)[N-]c2ccc3[n-]ncc3c2)c(O)c1S(=O)(=O)C1CC1 (3D coordinates assigned)
Cc1ccc([N-]C(=O)[N-]c2ccc3[n-]ncc3c2)c(O)c1S(=O)(=O)C1CC1 (nonaromatic ring conformer: 359.85314591588997 kcal/mol)

>  <smiles>  (8) 
Cc1ccc(NC(=O)Nc2ccc3[nH]ncc3c2)c(O)c1S(=O)(=O)C1CC1

>  <score_type>  (8) 
oracle

>  <origin>  (8) 
adgpu

>  <m_score__min__energy>  (8) 
-11.99

>  <m_primary>  (8) 
energy

$$$$
8:0
     RDKit          3D

 26 27  0  0  0  0  0  0  0  0999 V2000
   -3.8620   25.6760  -30.5230 O   0  0  0  0  0  0  0  0  0  0  0  0
   -3.2020   24.5310  -30.0890 C   0  0  0  0  0  0  0  0  0  0  0  0
   -3.7200   23.2710  -30.4000 C   0  0  0  0  0  0  0  0  0  0  0  0
   -3.0630   22.1150  -29.9670 C   0  0  0  0  0  0  0  0  0  0  0  0
   -1.8790   22.2080  -29.2150 C   0  0  0  0  0  0  0  0  0  0  0  0
   -1.1770   20.9900  -28.7490 C   0  0  0  0  0  0  0  0  0  0  0  0
   -1.7950   20.1560  -27.4720 S   0  0  0  0  0  0  0  0  0  0  0  0
    0.1130   20.6430  -29.2920 N   0  0  0  0  0  0  0  0  0  0  0  0
    0.7040   19.3350  -29.2060 C   0  0  0  0  0  0  0  0  0  0  0  0
    1.6350   19.0210  -28.2000 C   0  0  0  0  0  0  0  0  0  0  0  0
    2.1760   17.7340  -28.1140 C   0  0  0  0  0  0  0  0  0  0  0  0
    3.4490   17.3430  -26.7410 Br  0  0  0  0  0  0  0  0  0  0  0  0
    1.7780   16.7440  -29.0220 C   0  0  0  0  0  0  0  0  0  0  0  0
    2.3150   15.4640  -28.9400 O   0  0  0  0  0  0  0  0  0  0  0  0
    0.8300   17.0450  -30.0120 C   0  0  0  0  0  0  0  0  0  0  0  0
    0.2590   15.7070  -31.2550 Br  0  0  0  0  0  0  0  0  0  0  0  0
    0.2910   18.3320  -30.0940 C   0  0  0  0  0  0  0  0  0  0  0  0
   -1.3630   23.4820  -28.9130 C   0  0  0  0  0  0  0  0  0  0  0  0
   -2.0230   24.6370  -29.3460 C   0  0  0  0  0  0  0  0  0  0  0  0
   -1.5030   25.8880  -29.0340 O   0  0  0  0  0  0  0  0  0  0  0  0
   -4.6467   23.1883  -30.9868 H   0  0  0  0  0  0  0  0  0  0  0  0
   -3.4755   21.1263  -30.2165 H   0  0  0  0  0  0  0  0  0  0  0  0
    0.6650   21.3750  -29.7920 H   0  0  0  0  0  0  0  0  0  0  0  0
    1.9395   19.7918  -27.4767 H   0  0  0  0  0  0  0  0  0  0  0  0
   -0.4634   18.5597  -30.8615 H   0  0  0  0  0  0  0  0  0  0  0  0
   -0.4333   23.5703  -28.3318 H   0  0  0  0  0  0  0  0  0  0  0  0
  1  2  1  0
  2  3  2  0
  3  4  1  0
  4  5  2  0
  5  6  1  0
  6  7  2  0
  6  8  1  0
  8  9  1  0
  9 10  2  0
 10 11  1  0
 11 12  1  0
 11 13  2  0
 13 14  1  0
 13 15  1  0
 15 16  1  0
 15 17  2  0
  5 18  1  0
 18 19  2  0
 19 20  1  0
 19  2  1  0
 17  9  1  0
  3 21  1  0
  4 22  1  0
  8 23  1  0
 10 24  1  0
 17 25  1  0
 18 26  1  0
M  CHG  3   1  -1  14  -1  20  -1
M  END
>  <UniqueID>  (9) 
8

>  <SMILES>  (9) 
[O-]c1ccc(C(=S)Nc2cc(Br)c([O-])c(Br)c2)cc1[O-]

>  <Energy>  (9) 
38.03241548942038

>  <Genealogy>  (9) 
[O-]c1ccc(C(=S)Nc2cc(Br)c([O-])c(Br)c2)cc1[O-] (protonated)
[O-]c1ccc(C(=S)Nc2cc(Br)c([O-])c(Br)c2)cc1[O-] (3D coordinates assigned)
[O-]c1ccc(C(=S)Nc2cc(Br)c([O-])c(Br)c2)cc1[O-] (optimized conformer: 38.03241548942038 kcal/mol)

>  <smiles>  (9) 
Oc1ccc(C(=S)Nc2cc(Br)c(O)c(Br)c2)cc1O

>  <score_type>  (9) 
oracle

>  <origin>  (9) 
adgpu

>  <m_score__min__energy>  (9) 
-11.44

>  <m_primary>  (9) 
energy

$$$$
9:0
     RDKit          3D

 30 32  0  0  0  0  0  0  0  0999 V2000
   -4.1466   23.0907  -28.4058 H   0  0  0  0  0  0  0  0  0  0  0  0
   -3.4960   23.5180  -29.1830 C   0  0  0  0  0  0  0  0  0  0  0  0
   -3.9540   23.5410  -30.4430 C   0  0  0  0  0  0  0  0  0  0  0  0
   -3.3093   23.9465  -31.2367 H   0  0  0  0  0  0  0  0  0  0  0  0
   -5.2970   23.0390  -30.7990 C   0  0  0  0  0  0  0  0  0  0  0  0
   -6.4810   23.7760  -30.5630 C   0  0  0  0  0  0  0  0  0  0  0  0
   -6.4710   25.3280  -29.7360 Cl  0  0  0  0  0  0  0  0  0  0  0  0
   -7.6860   23.2530  -30.9150 N   0  0  0  0  0  0  0  0  0  0  0  0
   -7.8040   22.0280  -31.4910 C   0  0  0  0  0  0  0  0  0  0  0  0
   -9.0660   21.5350  -31.8430 C   0  0  0  0  0  0  0  0  0  0  0  0
   -9.9645   22.1432  -31.6619 H   0  0  0  0  0  0  0  0  0  0  0  0
   -9.1840   20.2690  -32.4250 C   0  0  0  0  0  0  0  0  0  0  0  0
  -10.1759   19.8841  -32.7043 H   0  0  0  0  0  0  0  0  0  0  0  0
   -8.0450   19.4910  -32.6530 C   0  0  0  0  0  0  0  0  0  0  0  0
   -8.1439   18.4949  -33.1091 H   0  0  0  0  0  0  0  0  0  0  0  0
   -6.7800   19.9750  -32.3030 C   0  0  0  0  0  0  0  0  0  0  0  0
   -5.8858   19.3606  -32.4846 H   0  0  0  0  0  0  0  0  0  0  0  0
   -6.6530   21.2450  -31.7200 C   0  0  0  0  0  0  0  0  0  0  0  0
   -5.4020   21.7580  -31.3600 C   0  0  0  0  0  0  0  0  0  0  0  0
   -4.4965   21.1536  -31.5178 H   0  0  0  0  0  0  0  0  0  0  0  0
   -2.1660   24.0330  -28.7710 C   0  0  0  0  0  0  0  0  0  0  0  0
   -1.9870   25.2880  -28.1580 C   0  0  0  0  0  0  0  0  0  0  0  0
   -2.8526   25.9404  -27.9707 H   0  0  0  0  0  0  0  0  0  0  0  0
   -0.7040   25.7000  -27.7890 C   0  0  0  0  0  0  0  0  0  0  0  0
   -0.5589   26.6822  -27.3154 H   0  0  0  0  0  0  0  0  0  0  0  0
    0.3650   24.8920  -28.0130 N   0  0  0  0  0  0  0  0  0  0  0  0
    0.2230   23.6720  -28.5920 C   0  0  0  0  0  0  0  0  0  0  0  0
    1.1066   23.0385  -28.7590 H   0  0  0  0  0  0  0  0  0  0  0  0
   -1.0400   23.2190  -28.9760 C   0  0  0  0  0  0  0  0  0  0  0  0
   -1.1532   22.2271  -29.4379 H   0  0  0  0  0  0  0  0  0  0  0  0
  1  2  1  0
  2  3  2  0
  3  4  1  0
  3  5  1  0
  5  6  2  0
  6  7  1  0
  6  8  1  0
  8  9  2  0
  9 10  1  0
 10 11  1  0
 10 12  2  0
 12 13  1  0
 12 14  1  0
 14 15  1  0
 14 16  2  0
 16 17  1  0
 16 18  1  0
 18 19  2  0
 19 20  1  0
  2 21  1  0
 21 22  2  0
 22 23  1  0
 22 24  1  0
 24 25  1  0
 24 26  2  0
 26 27  1  0
 27 28  1  0
 27 29  2  0
 29 30  1  0
 19  5  1  0
 29 21  1  0
 18  9  1  0
M  END
>  <UniqueID>  (10) 
9

>  <SMILES>  (10) 
Clc1nc2ccccc2cc1/C=C/c1ccncc1

>  <Energy>  (10) 
45.44493743657984

>  <Genealogy>  (10) 
Clc1nc2ccccc2cc1/C=C/c1ccncc1 (cis-trans isomerization)
Clc1nc2ccccc2cc1/C=C/c1ccncc1 (3D coordinates assigned)
Clc1nc2ccccc2cc1/C=C/c1ccncc1 (optimized conformer: 45.44493743657984 kcal/mol)

>  <smiles>  (10) 
Clc1nc2ccccc2cc1C=Cc1ccncc1

>  <score_type>  (10) 
oracle

>  <origin>  (10) 
adgpu

>  <m_score__min__energy>  (10) 
-7.8300000000000001

>  <m_primary>  (10) 
energy

$$$$
10:0
     RDKit          3D

 44 46  0  0  0  0  0  0  0  0999 V2000
   -6.8430   17.3320  -33.3800 C   0  0  0  0  0  0  0  0  0  0  0  0
   -6.6850   18.7520  -32.9040 C   0  0  0  0  0  0  0  0  0  0  0  0
   -5.5390   19.4760  -33.2640 C   0  0  0  0  0  0  0  0  0  0  0  0
   -5.3460   20.7970  -32.8320 C   0  0  0  0  0  0  0  0  0  0  0  0
   -4.0990   21.5260  -33.2620 C   0  0  0  0  0  0  0  0  0  0  0  0
   -6.3410   21.4210  -32.0430 C   0  0  0  0  0  0  0  0  0  0  0  0
   -6.1750   23.1020  -31.4950 S   0  0  0  0  0  0  0  0  0  0  0  0
   -7.4860   23.5980  -30.9550 O   0  0  0  0  0  0  0  0  0  0  0  0
   -5.7710   23.9640  -32.6580 O   0  0  0  0  0  0  0  0  0  0  0  0
   -4.9690   23.2500  -30.2160 C   0  0  0  0  0  0  0  0  0  0  0  0
   -3.7570   22.5530  -30.3140 C   0  0  0  0  0  0  0  0  0  0  0  0
   -2.7880   22.6840  -29.3150 C   0  0  0  0  0  0  0  0  0  0  0  0
   -3.0150   23.5240  -28.2130 C   0  0  0  0  0  0  0  0  0  0  0  0
   -1.9890   23.6370  -27.1200 C   0  0  0  0  0  0  0  0  0  0  0  0
   -1.5420   25.0580  -26.9770 C   0  0  0  0  0  0  0  0  0  0  0  0
   -1.0690   25.7880  -25.5300 S   0  0  0  0  0  0  0  0  0  0  0  0
   -0.6650   27.2320  -26.2890 C   0  0  0  0  0  0  0  0  0  0  0  0
   -0.2190   28.2500  -25.6950 O   0  0  0  0  0  0  0  0  0  0  0  0
   -0.8670   27.1820  -27.6220 N   0  0  0  0  0  0  0  0  0  0  0  0
   -1.3470   25.9730  -28.0120 C   0  0  0  0  0  0  0  0  0  0  0  0
   -1.6140   25.6810  -29.3450 O   0  0  0  0  0  0  0  0  0  0  0  0
   -4.2330   24.2170  -28.1150 C   0  0  0  0  0  0  0  0  0  0  0  0
   -5.2010   24.0850  -29.1140 C   0  0  0  0  0  0  0  0  0  0  0  0
   -7.4780   20.6890  -31.6660 C   0  0  0  0  0  0  0  0  0  0  0  0
   -7.6570   19.3600  -32.0790 C   0  0  0  0  0  0  0  0  0  0  0  0
   -8.9000   18.6190  -31.6590 C   0  0  0  0  0  0  0  0  0  0  0  0
   -6.9177   16.6605  -32.5120 H   0  0  0  0  0  0  0  0  0  0  0  0
   -7.7560   17.2485  -33.9879 H   0  0  0  0  0  0  0  0  0  0  0  0
   -5.9707   17.0498  -33.9879 H   0  0  0  0  0  0  0  0  0  0  0  0
   -4.7766   18.9989  -33.8974 H   0  0  0  0  0  0  0  0  0  0  0  0
   -3.5402   21.8527  -32.3726 H   0  0  0  0  0  0  0  0  0  0  0  0
   -3.4701   20.8533  -33.8636 H   0  0  0  0  0  0  0  0  0  0  0  0
   -4.3766   22.4041  -33.8636 H   0  0  0  0  0  0  0  0  0  0  0  0
   -3.5677   21.9010  -31.1795 H   0  0  0  0  0  0  0  0  0  0  0  0
   -1.8430   22.1263  -29.3926 H   0  0  0  0  0  0  0  0  0  0  0  0
   -2.4298   23.2973  -26.1711 H   0  0  0  0  0  0  0  0  0  0  0  0
   -1.1212   23.0113  -27.3757 H   0  0  0  0  0  0  0  0  0  0  0  0
   -0.6710   27.9720  -28.2770 H   0  0  0  0  0  0  0  0  0  0  0  0
   -4.4255   24.8663  -27.2482 H   0  0  0  0  0  0  0  0  0  0  0  0
   -6.1485   24.6382  -29.0355 H   0  0  0  0  0  0  0  0  0  0  0  0
   -8.2426   21.1660  -31.0353 H   0  0  0  0  0  0  0  0  0  0  0  0
   -8.9542   18.5867  -30.5608 H   0  0  0  0  0  0  0  0  0  0  0  0
   -9.7865   19.1361  -32.0548 H   0  0  0  0  0  0  0  0  0  0  0  0
   -8.8667   17.5932  -32.0548 H   0  0  0  0  0  0  0  0  0  0  0  0
  1  2  1  0
  2  3  2  0
  3  4  1  0
  4  5  1  0
  4  6  2  0
  6  7  1  0
  7  8  2  0
  7  9  2  0
  7 10  1  0
 10 11  2  0
 11 12  1  0
 12 13  2  0
 13 14  1  0
 14 15  1  0
 15 16  1  0
 16 17  1  0
 17 18  2  0
 17 19  1  0
 19 20  1  0
 20 21  1  0
 13 22  1  0
 22 23  2  0
  6 24  1  0
 24 25  2  0
 25 26  1  0
 25  2  1  0
 23 10  1  0
 20 15  2  0
  1 27  1  0
  1 28  1  0
  1 29  1  0
  3 30  1  0
  5 31  1  0
  5 32  1  0
  5 33  1  0
 11 34  1  0
 12 35  1  0
 14 36  1  0
 14 37  1  0
 19 38  1  0
 22 39  1  0
 23 40  1  0
 24 41  1  0
 26 42  1  0
 26 43  1  0
 26 44  1  0
M  CHG  1  21  -1
M  END
>  <UniqueID>  (11) 
10

>  <SMILES>  (11) 
Cc1cc(C)c(S(=O)(=O)c2ccc(Cc3sc(=O)[nH]c3[O-])cc2)cc1C

>  <Energy>  (11) 
79.11655021270805

>  <Genealogy>  (11) 
Cc1cc(C)c(S(=O)(=O)c2ccc(Cc3sc(=O)[nH]c3[O-])cc2)cc1C (protonated)
Cc1cc(C)c(S(=O)(=O)c2ccc(Cc3sc(=O)[nH]c3[O-])cc2)cc1C (3D coordinates assigned)
Cc1cc(C)c(S(=O)(=O)c2ccc(Cc3sc(=O)[nH]c3[O-])cc2)cc1C (optimized conformer: 79.11655021270805 kcal/mol)

>  <smiles>  (11) 
Cc1cc(C)c(S(=O)(=O)c2ccc(Cc3sc(=O)[nH]c3O)cc2)cc1C

>  <score_type>  (11) 
oracle

>  <origin>  (11) 
adgpu

>  <m_score__min__energy>  (11) 
-13.32

>  <m_primary>  (11) 
energy

$$$$
11:0
     RDKit          3D

 53 56  0  0  0  0  0  0  0  0999 V2000
    0.7560   20.4230  -32.0150 O   0  0  0  0  0  0  0  0  0  0  0  0
   -0.4440   20.3080  -31.6460 C   0  0  0  0  0  0  0  0  0  0  0  0
   -1.5000   20.4280  -32.6060 N   0  0  0  0  0  0  0  0  0  0  0  0
   -2.0150   19.3130  -33.3900 C   0  0  0  0  0  0  0  0  0  0  0  0
   -3.5110   19.4090  -33.5120 C   0  0  0  0  0  0  0  0  0  0  0  0
   -4.2250   18.4010  -34.1800 C   0  0  0  0  0  0  0  0  0  0  0  0
   -5.6150   18.4930  -34.3120 C   0  0  0  0  0  0  0  0  0  0  0  0
   -6.2960   19.5940  -33.7860 C   0  0  0  0  0  0  0  0  0  0  0  0
   -5.5910   20.6040  -33.1280 C   0  0  0  0  0  0  0  0  0  0  0  0
   -4.2020   20.5160  -32.9900 C   0  0  0  0  0  0  0  0  0  0  0  0
   -0.7530   20.0410  -30.2270 C   0  0  0  0  0  0  0  0  0  0  0  0
   -0.3010   18.9660  -29.4840 C   0  0  0  0  0  0  0  0  0  0  0  0
    0.5480   17.9550  -29.9200 O   0  0  0  0  0  0  0  0  0  0  0  0
   -0.8450   19.0770  -28.2250 C   0  0  0  0  0  0  0  0  0  0  0  0
   -0.6140   18.2080  -27.1630 O   0  0  0  0  0  0  0  0  0  0  0  0
   -1.6280   20.1730  -28.1510 N   0  0  0  0  0  0  0  0  0  0  0  0
   -2.2780   20.6780  -26.9350 C   0  0  0  0  0  0  0  0  0  0  0  0
   -1.2440   21.1710  -25.9140 C   0  0  0  0  0  0  0  0  0  0  0  0
   -0.5690   22.4360  -26.3770 C   0  0  0  0  0  0  0  0  0  0  0  0
   -1.0950   23.6890  -26.0200 C   0  0  0  0  0  0  0  0  0  0  0  0
   -0.4380   24.8630  -26.4030 C   0  0  0  0  0  0  0  0  0  0  0  0
    0.7500   24.7930  -27.1360 C   0  0  0  0  0  0  0  0  0  0  0  0
    1.2840   23.5500  -27.4870 C   0  0  0  0  0  0  0  0  0  0  0  0
    0.6280   22.3740  -27.1090 C   0  0  0  0  0  0  0  0  0  0  0  0
   -1.5730   20.7730  -29.3670 C   0  0  0  0  0  0  0  0  0  0  0  0
   -2.2290   22.0560  -29.6830 C   0  0  0  0  0  0  0  0  0  0  0  0
   -3.4810   22.0710  -30.3160 C   0  0  0  0  0  0  0  0  0  0  0  0
   -4.1000   23.2860  -30.6200 C   0  0  0  0  0  0  0  0  0  0  0  0
   -3.4720   24.4930  -30.2970 C   0  0  0  0  0  0  0  0  0  0  0  0
   -4.0920   25.6990  -30.6020 O   0  0  0  0  0  0  0  0  0  0  0  0
   -2.2210   24.4840  -29.6660 C   0  0  0  0  0  0  0  0  0  0  0  0
   -1.5920   25.6810  -29.3410 O   0  0  0  0  0  0  0  0  0  0  0  0
   -1.6010   23.2680  -29.3610 C   0  0  0  0  0  0  0  0  0  0  0  0
   -1.5665   19.3374  -34.3941 H   0  0  0  0  0  0  0  0  0  0  0  0
   -1.7565   18.3705  -32.8852 H   0  0  0  0  0  0  0  0  0  0  0  0
   -3.6901   17.5367  -34.6006 H   0  0  0  0  0  0  0  0  0  0  0  0
   -6.1719   17.6983  -34.8300 H   0  0  0  0  0  0  0  0  0  0  0  0
   -7.3887   19.6652  -33.8904 H   0  0  0  0  0  0  0  0  0  0  0  0
   -6.1294   21.4708  -32.7172 H   0  0  0  0  0  0  0  0  0  0  0  0
   -3.6497   21.3141  -32.4723 H   0  0  0  0  0  0  0  0  0  0  0  0
   -0.1290   17.3300  -27.3020 H   0  0  0  0  0  0  0  0  0  0  0  0
   -2.9422   21.5126  -27.2039 H   0  0  0  0  0  0  0  0  0  0  0  0
   -2.8505   19.8561  -26.4803 H   0  0  0  0  0  0  0  0  0  0  0  0
   -1.7512   21.3662  -24.9576 H   0  0  0  0  0  0  0  0  0  0  0  0
   -0.4754   20.3926  -25.7985 H   0  0  0  0  0  0  0  0  0  0  0  0
   -2.0263   23.7469  -25.4375 H   0  0  0  0  0  0  0  0  0  0  0  0
   -0.8566   25.8421  -26.1271 H   0  0  0  0  0  0  0  0  0  0  0  0
    1.2652   25.7171  -27.4369 H   0  0  0  0  0  0  0  0  0  0  0  0
    2.2209   23.4966  -28.0609 H   0  0  0  0  0  0  0  0  0  0  0  0
    1.0511   21.3971  -27.3860 H   0  0  0  0  0  0  0  0  0  0  0  0
   -3.9766   21.1234  -30.5737 H   0  0  0  0  0  0  0  0  0  0  0  0
   -5.0827   23.2932  -31.1141 H   0  0  0  0  0  0  0  0  0  0  0  0
   -0.6181   23.2622  -28.8672 H   0  0  0  0  0  0  0  0  0  0  0  0
  1  2  2  0
  2  3  1  0
  3  4  1  0
  4  5  1  0
  5  6  2  0
  6  7  1  0
  7  8  2  0
  8  9  1  0
  9 10  2  0
  2 11  1  0
 11 12  1  0
 12 13  1  0
 12 14  2  0
 14 15  1  0
 14 16  1  0
 16 17  1  0
 17 18  1  0
 18 19  1  0
 19 20  2  0
 20 21  1  0
 21 22  2  0
 22 23  1  0
 23 24  2  0
 16 25  1  0
 25 26  1  0
 26 27  2  0
 27 28  1  0
 28 29  2  0
 29 30  1  0
 29 31  1  0
 31 32  1  0
 31 33  2  0
 10  5  1  0
 25 11  2  0
 33 26  1  0
 24 19  1  0
  4 34  1  0
  4 35  1  0
  6 36  1  0
  7 37  1  0
  8 38  1  0
  9 39  1  0
 10 40  1  0
 15 41  1  0
 17 42  1  0
 17 43  1  0
 18 44  1  0
 18 45  1  0
 20 46  1  0
 21 47  1  0
 22 48  1  0
 23 49  1  0
 24 50  1  0
 27 51  1  0
 28 52  1  0
 33 53  1  0
M  CHG  4   3  -1  13  -1  30  -1  32  -1
M  END
>  <UniqueID>  (12) 
11

>  <SMILES>  (12) 
O=C([N-]Cc1ccccc1)c1c([O-])c(O)n(CCc2ccccc2)c1-c1ccc([O-])c([O-])c1

>  <Energy>  (12) 
85.30596823717123

>  <Genealogy>  (12) 
O=C([N-]Cc1ccccc1)c1c([O-])c(O)n(CCc2ccccc2)c1-c1ccc([O-])c([O-])c1 (protonated)
O=C([N-]Cc1ccccc1)c1c([O-])c(O)n(CCc2ccccc2)c1-c1ccc([O-])c([O-])c1 (3D coordinates assigned)
O=C([N-]Cc1ccccc1)c1c([O-])c(O)n(CCc2ccccc2)c1-c1ccc([O-])c([O-])c1 (optimized conformer: 85.30596823717123 kcal/mol)

>  <smiles>  (12) 
O=C(NCc1ccccc1)c1c(O)c(O)n(CCc2ccccc2)c1-c1ccc(O)c(O)c1

>  <score_type>  (12) 
oracle

>  <origin>  (12) 
adgpu

>  <m_score__min__energy>  (12) 
-13.16

>  <m_primary>  (12) 
energy

$$$$
12:0
     RDKit          3D

 45 47  0  0  0  0  0  0  0  0999 V2000
   -0.3420   20.2890  -30.9000 O   0  0  0  0  0  0  0  0  0  0  0  0
   -1.4520   20.8130  -31.1960 C   0  0  0  0  0  0  0  0  0  0  0  0
   -2.3200   20.1480  -32.1290 N   0  0  0  0  0  0  0  0  0  0  0  0
   -1.8640   18.9860  -32.8950 C   0  0  0  0  0  0  0  0  0  0  0  0
   -2.6810   18.8100  -34.1800 C   0  0  0  0  0  0  0  0  0  0  0  0
   -3.5420   17.6090  -34.0980 N   0  0  0  0  0  0  0  0  0  0  0  0
   -4.6300   17.6450  -35.0990 C   0  0  0  0  0  0  0  0  0  0  0  0
   -5.7130   18.6630  -34.7180 C   0  0  0  0  0  0  0  0  0  0  0  0
   -6.0870   18.5140  -33.3090 N   0  0  0  0  0  0  0  0  0  0  0  0
   -7.1850   19.2760  -32.7950 C   0  0  0  0  0  0  0  0  0  0  0  0
   -8.4240   18.6520  -32.5890 C   0  0  0  0  0  0  0  0  0  0  0  0
   -9.5070   19.3810  -32.0950 C   0  0  0  0  0  0  0  0  0  0  0  0
   -9.3590   20.7370  -31.7990 C   0  0  0  0  0  0  0  0  0  0  0  0
   -8.1280   21.3720  -31.9920 C   0  0  0  0  0  0  0  0  0  0  0  0
   -7.9840   23.0780  -31.5960 Cl  0  0  0  0  0  0  0  0  0  0  0  0
   -7.0320   20.6420  -32.4890 C   0  0  0  0  0  0  0  0  0  0  0  0
   -5.4660   21.4220  -32.7000 Cl  0  0  0  0  0  0  0  0  0  0  0  0
   -5.5380   17.4090  -32.5240 C   0  0  0  0  0  0  0  0  0  0  0  0
   -4.0100   17.3340  -32.7080 C   0  0  0  0  0  0  0  0  0  0  0  0
   -1.8440   22.0950  -30.5630 C   0  0  0  0  0  0  0  0  0  0  0  0
   -0.9750   22.7750  -29.6910 C   0  0  0  0  0  0  0  0  0  0  0  0
   -1.3830   23.9750  -29.1040 C   0  0  0  0  0  0  0  0  0  0  0  0
   -2.6150   24.4810  -29.3700 N   0  0  0  0  0  0  0  0  0  0  0  0
   -3.4820   23.8460  -30.2020 C   0  0  0  0  0  0  0  0  0  0  0  0
   -5.0580   24.5460  -30.5080 Cl  0  0  0  0  0  0  0  0  0  0  0  0
   -3.1160   22.6410  -30.8090 C   0  0  0  0  0  0  0  0  0  0  0  0
   -3.3090   20.4700  -32.2300 H   0  0  0  0  0  0  0  0  0  0  0  0
   -0.8053   19.1244  -33.1597 H   0  0  0  0  0  0  0  0  0  0  0  0
   -1.9959   18.0876  -32.2741 H   0  0  0  0  0  0  0  0  0  0  0  0
   -3.3138   19.6973  -34.3288 H   0  0  0  0  0  0  0  0  0  0  0  0
   -1.9864   18.6875  -35.0241 H   0  0  0  0  0  0  0  0  0  0  0  0
   -4.2074   17.9219  -36.0761 H   0  0  0  0  0  0  0  0  0  0  0  0
   -5.0933   16.6482  -35.1403 H   0  0  0  0  0  0  0  0  0  0  0  0
   -5.3281   19.6799  -34.8844 H   0  0  0  0  0  0  0  0  0  0  0  0
   -6.6016   18.4861  -35.3418 H   0  0  0  0  0  0  0  0  0  0  0  0
   -8.5429   17.5827  -32.8179 H   0  0  0  0  0  0  0  0  0  0  0  0
  -10.4773   18.8868  -31.9389 H   0  0  0  0  0  0  0  0  0  0  0  0
  -10.2150   21.3091  -31.4119 H   0  0  0  0  0  0  0  0  0  0  0  0
   -5.7686   17.5690  -31.4604 H   0  0  0  0  0  0  0  0  0  0  0  0
   -5.9879   16.4659  -32.8678 H   0  0  0  0  0  0  0  0  0  0  0  0
   -3.5461   18.0716  -32.0366 H   0  0  0  0  0  0  0  0  0  0  0  0
   -3.7165   16.2993  -32.4770 H   0  0  0  0  0  0  0  0  0  0  0  0
    0.0215   22.3637  -29.4722 H   0  0  0  0  0  0  0  0  0  0  0  0
   -0.7046   24.5117  -28.4244 H   0  0  0  0  0  0  0  0  0  0  0  0
   -3.8202   22.1223  -31.4762 H   0  0  0  0  0  0  0  0  0  0  0  0
  1  2  2  0
  2  3  1  0
  3  4  1  0
  4  5  1  0
  5  6  1  0
  6  7  1  0
  7  8  1  0
  8  9  1  0
  9 10  1  0
 10 11  2  0
 11 12  1  0
 12 13  2  0
 13 14  1  0
 14 15  1  0
 14 16  2  0
 16 17  1  0
  9 18  1  0
 18 19  1  0
  2 20  1  0
 20 21  2  0
 21 22  1  0
 22 23  2  0
 23 24  1  0
 24 25  1  0
 24 26  2  0
 19  6  1  0
 26 20  1  0
 16 10  1  0
  3 27  1  0
  4 28  1  0
  4 29  1  0
  5 30  1  0
  5 31  1  0
  7 32  1  0
  7 33  1  0
  8 34  1  0
  8 35  1  0
 11 36  1  0
 12 37  1  0
 13 38  1  0
 18 39  1  0
 18 40  1  0
 19 41  1  0
 19 42  1  0
 21 43  1  0
 22 44  1  0
 26 45  1  0
M  END
>  <UniqueID>  (13) 
12

>  <SMILES>  (13) 
O=C(NCCN1CCN(c2cccc(Cl)c2Cl)CC1)c1ccnc(Cl)c1

>  <Energy>  (13) 
60.56560746265183

>  <Genealogy>  (13) 
O=C(NCCN1CCN(c2cccc(Cl)c2Cl)CC1)c1ccnc(Cl)c1 (3D coordinates assigned)
O=C(NCCN1CCN(c2cccc(Cl)c2Cl)CC1)c1ccnc(Cl)c1 (nonaromatic ring conformer: 60.56560746265183 kcal/mol)

>  <smiles>  (13) 
O=C(NCCN1CCN(c2cccc(Cl)c2Cl)CC1)c1ccnc(Cl)c1

>  <score_type>  (13) 
oracle

>  <origin>  (13) 
adgpu

>  <m_score__min__energy>  (13) 
-8.9900000000000002

>  <m_primary>  (13) 
energy

$$$$
13:0
     RDKit          3D

 54 57  0  0  0  0  0  0  0  0999 V2000
   -5.9910   25.1050  -29.6530 C   0  0  0  0  0  0  0  0  0  0  0  0
   -4.9700   24.8470  -30.7070 C   0  0  0  0  0  0  0  0  0  0  0  0
   -3.7980   25.2860  -30.5600 O   0  0  0  0  0  0  0  0  0  0  0  0
   -5.3640   24.1880  -31.9170 N   0  0  0  0  0  0  0  0  0  0  0  0
   -5.2010   22.7970  -32.2250 C   0  0  0  0  0  0  0  0  0  0  0  0
   -3.9590   22.2290  -32.5930 C   0  0  0  0  0  0  0  0  0  0  0  0
   -3.8520   20.8430  -32.9010 C   0  0  0  0  0  0  0  0  0  0  0  0
   -2.5660   20.2750  -33.3680 C   0  0  0  0  0  0  0  0  0  0  0  0
   -2.3780   20.0450  -34.5930 O   0  0  0  0  0  0  0  0  0  0  0  0
   -1.4940   20.0640  -32.4440 N   0  0  0  0  0  0  0  0  0  0  0  0
   -1.7470   19.8940  -31.0180 C   0  0  0  0  0  0  0  0  0  0  0  0
   -1.9100   21.2520  -30.3950 C   0  0  0  0  0  0  0  0  0  0  0  0
   -0.8550   22.1760  -30.4520 C   0  0  0  0  0  0  0  0  0  0  0  0
   -0.8940   23.3370  -29.6750 C   0  0  0  0  0  0  0  0  0  0  0  0
   -1.9820   23.5810  -28.8270 C   0  0  0  0  0  0  0  0  0  0  0  0
   -1.9370   24.9290  -27.6990 S   0  0  0  0  0  0  0  0  0  0  0  0
   -1.6290   26.2100  -28.4250 O   0  0  0  0  0  0  0  0  0  0  0  0
   -3.2740   25.0750  -27.0280 O   0  0  0  0  0  0  0  0  0  0  0  0
   -0.6800   24.6000  -26.5110 C   0  0  0  0  0  0  0  0  0  0  0  0
   -0.7750   23.4810  -25.6690 C   0  0  0  0  0  0  0  0  0  0  0  0
    0.2410   23.2100  -24.7460 C   0  0  0  0  0  0  0  0  0  0  0  0
    1.3600   24.0420  -24.6680 C   0  0  0  0  0  0  0  0  0  0  0  0
    2.3580   23.7660  -23.7340 O   0  0  0  0  0  0  0  0  0  0  0  0
    1.4680   25.1460  -25.5270 C   0  0  0  0  0  0  0  0  0  0  0  0
    0.4510   25.4220  -26.4460 C   0  0  0  0  0  0  0  0  0  0  0  0
   -3.0480   22.6750  -28.7870 C   0  0  0  0  0  0  0  0  0  0  0  0
   -3.0150   21.5160  -29.5670 C   0  0  0  0  0  0  0  0  0  0  0  0
   -5.0020   20.0220  -32.8210 C   0  0  0  0  0  0  0  0  0  0  0  0
   -6.2010   20.6120  -32.4240 C   0  0  0  0  0  0  0  0  0  0  0  0
   -6.2950   21.9400  -32.1320 C   0  0  0  0  0  0  0  0  0  0  0  0
   -7.5640   22.2600  -31.8100 N   0  0  0  0  0  0  0  0  0  0  0  0
   -8.2210   21.0770  -31.9190 C   0  0  0  0  0  0  0  0  0  0  0  0
   -7.4130   20.0530  -32.2840 N   0  0  0  0  0  0  0  0  0  0  0  0
   -7.8110   18.6790  -32.5730 C   0  0  0  0  0  0  0  0  0  0  0  0
   -5.5310   24.9888  -28.6606 H   0  0  0  0  0  0  0  0  0  0  0  0
   -6.3779   26.1291  -29.7601 H   0  0  0  0  0  0  0  0  0  0  0  0
   -6.8179   24.3876  -29.7601 H   0  0  0  0  0  0  0  0  0  0  0  0
   -3.0639   22.8665  -32.6419 H   0  0  0  0  0  0  0  0  0  0  0  0
   -2.6655   19.3066  -30.8720 H   0  0  0  0  0  0  0  0  0  0  0  0
   -0.9062   19.3631  -30.5477 H   0  0  0  0  0  0  0  0  0  0  0  0
    0.0054   21.9857  -31.1104 H   0  0  0  0  0  0  0  0  0  0  0  0
   -0.0679   24.0613  -29.7295 H   0  0  0  0  0  0  0  0  0  0  0  0
   -1.6491   22.8165  -25.7349 H   0  0  0  0  0  0  0  0  0  0  0  0
    0.1581   22.3388  -24.0796 H   0  0  0  0  0  0  0  0  0  0  0  0
    2.2340   23.9880  -22.7490 H   0  0  0  0  0  0  0  0  0  0  0  0
    2.3543   25.7956  -25.4774 H   0  0  0  0  0  0  0  0  0  0  0  0
    0.5400   26.2872  -27.1195 H   0  0  0  0  0  0  0  0  0  0  0  0
   -3.9144   22.8758  -28.1397 H   0  0  0  0  0  0  0  0  0  0  0  0
   -3.8562   20.8081  -29.5330 H   0  0  0  0  0  0  0  0  0  0  0  0
   -4.9513   18.9505  -33.0648 H   0  0  0  0  0  0  0  0  0  0  0  0
   -9.2986   20.9619  -31.7303 H   0  0  0  0  0  0  0  0  0  0  0  0
   -7.9681   18.1365  -31.6291 H   0  0  0  0  0  0  0  0  0  0  0  0
   -8.7451   18.6823  -33.1539 H   0  0  0  0  0  0  0  0  0  0  0  0
   -7.0197   18.1825  -33.1539 H   0  0  0  0  0  0  0  0  0  0  0  0
  1  2  1  0
  2  3  2  0
  2  4  1  0
  4  5  1  0
  5  6  2  0
  6  7  1  0
  7  8  1  0
  8  9  2  0
  8 10  1  0
 10 11  1  0
 11 12  1  0
 12 13  2  0
 13 14  1  0
 14 15  2  0
 15 16  1  0
 16 17  2  0
 16 18  2  0
 16 19  1  0
 19 20  2  0
 20 21  1  0
 21 22  2  0
 22 23  1  0
 22 24  1  0
 24 25  2  0
 15 26  1  0
 26 27  2  0
  7 28  2  0
 28 29  1  0
 29 30  2  0
 30 31  1  0
 31 32  2  0
 32 33  1  0
 33 34  1  0
 30  5  1  0
 27 12  1  0
 33 29  1  0
 25 19  1  0
  1 35  1  0
  1 36  1  0
  1 37  1  0
  6 38  1  0
 11 39  1  0
 11 40  1  0
 13 41  1  0
 14 42  1  0
 20 43  1  0
 21 44  1  0
 23 45  1  0
 24 46  1  0
 25 47  1  0
 26 48  1  0
 27 49  1  0
 28 50  1  0
 32 51  1  0
 34 52  1  0
 34 53  1  0
 34 54  1  0
M  CHG  2   4  -1  10  -1
M  END
>  <UniqueID>  (14) 
13

>  <SMILES>  (14) 
CC(=O)[N-]c1cc(C(=O)[N-]Cc2ccc(S(=O)(=O)c3ccc(O)cc3)cc2)cc2c1ncn2C

>  <Energy>  (14) 
95.82406285101334

>  <Genealogy>  (14) 
CC(=O)[N-]c1cc(C(=O)[N-]Cc2ccc(S(=O)(=O)c3ccc(O)cc3)cc2)cc2c1ncn2C (protonated)
CC(=O)[N-]c1cc(C(=O)[N-]Cc2ccc(S(=O)(=O)c3ccc(O)cc3)cc2)cc2c1ncn2C (3D coordinates assigned)
CC(=O)[N-]c1cc(C(=O)[N-]Cc2ccc(S(=O)(=O)c3ccc(O)cc3)cc2)cc2c1ncn2C (optimized conformer: 95.82406285101334 kcal/mol)

>  <smiles>  (14) 
CC(=O)Nc1cc(C(=O)NCc2ccc(S(=O)(=O)c3ccc(O)cc3)cc2)cc2c1ncn2C

>  <score_type>  (14) 
oracle

>  <origin>  (14) 
adgpu

>  <m_score__min__energy>  (14) 
-11.619999999999999

>  <m_primary>  (14) 
energy

$$$$
14:0
     RDKit          3D

 45 48  0  0  0  0  0  0  0  0999 V2000
   -3.1550   19.2970  -27.1400 N   0  0  0  0  0  0  0  0  0  0  0  0
   -2.5560   20.4090  -27.4180 C   0  0  0  0  0  0  0  0  0  0  0  0
   -1.5740   21.0230  -26.6610 C   0  0  0  0  0  0  0  0  0  0  0  0
   -1.1910   22.1160  -27.4350 C   0  0  0  0  0  0  0  0  0  0  0  0
   -1.9240   22.1230  -28.5680 N   0  0  0  0  0  0  0  0  0  0  0  0
   -1.7690   23.0480  -29.6900 C   0  0  0  0  0  0  0  0  0  0  0  0
   -3.1090   23.4190  -30.2370 C   0  0  0  0  0  0  0  0  0  0  0  0
   -4.0800   22.5320  -30.5250 N   0  0  0  0  0  0  0  0  0  0  0  0
   -5.0500   23.3510  -30.9880 C   0  0  0  0  0  0  0  0  0  0  0  0
   -6.3790   22.8800  -31.4170 C   0  0  0  0  0  0  0  0  0  0  0  0
   -7.4440   23.7880  -31.5310 C   0  0  0  0  0  0  0  0  0  0  0  0
   -8.7080   23.3380  -31.9290 C   0  0  0  0  0  0  0  0  0  0  0  0
   -8.9350   21.9680  -32.1460 C   0  0  0  0  0  0  0  0  0  0  0  0
   -7.8810   21.0560  -32.0050 C   0  0  0  0  0  0  0  0  0  0  0  0
   -8.1910   19.3130  -32.1620 S   0  0  0  0  0  0  0  0  0  0  0  0
   -8.5750   18.7370  -30.8290 O   0  0  0  0  0  0  0  0  0  0  0  0
   -9.3600   19.1330  -33.1040 O   0  0  0  0  0  0  0  0  0  0  0  0
   -6.7950   18.4500  -32.7760 N   0  0  0  0  0  0  0  0  0  0  0  0
   -7.1450   17.0640  -33.1290 C   0  0  0  0  0  0  0  0  0  0  0  0
   -5.8580   16.3420  -33.5970 C   0  0  0  0  0  0  0  0  0  0  0  0
   -5.0060   17.1040  -34.4390 O   0  0  0  0  0  0  0  0  0  0  0  0
   -5.6460   18.2310  -35.0060 C   0  0  0  0  0  0  0  0  0  0  0  0
   -6.1700   19.1840  -33.9060 C   0  0  0  0  0  0  0  0  0  0  0  0
   -6.6040   21.5120  -31.6490 C   0  0  0  0  0  0  0  0  0  0  0  0
   -4.6950   24.6500  -30.9530 N   0  0  0  0  0  0  0  0  0  0  0  0
   -3.4850   24.6480  -30.4910 O   0  0  0  0  0  0  0  0  0  0  0  0
   -2.7450   21.0860  -28.5710 N   0  0  0  0  0  0  0  0  0  0  0  0
   -3.0070   18.7310  -26.2740 H   0  0  0  0  0  0  0  0  0  0  0  0
   -1.1862   20.7190  -25.6775 H   0  0  0  0  0  0  0  0  0  0  0  0
   -0.4186   22.8519  -27.1669 H   0  0  0  0  0  0  0  0  0  0  0  0
   -1.2527   23.9559  -29.3447 H   0  0  0  0  0  0  0  0  0  0  0  0
   -1.1794   22.5605  -30.4804 H   0  0  0  0  0  0  0  0  0  0  0  0
   -7.2848   24.8532  -31.3074 H   0  0  0  0  0  0  0  0  0  0  0  0
   -9.5265   24.0588  -32.0725 H   0  0  0  0  0  0  0  0  0  0  0  0
   -9.9378   21.6128  -32.4258 H   0  0  0  0  0  0  0  0  0  0  0  0
   -7.5612   16.5500  -32.2500 H   0  0  0  0  0  0  0  0  0  0  0  0
   -7.8974   17.0556  -33.9314 H   0  0  0  0  0  0  0  0  0  0  0  0
   -5.2846   16.0561  -32.7028 H   0  0  0  0  0  0  0  0  0  0  0  0
   -6.1926   15.4845  -34.1993 H   0  0  0  0  0  0  0  0  0  0  0  0
   -4.9270   18.7725  -35.6382 H   0  0  0  0  0  0  0  0  0  0  0  0
   -6.5010   17.8836  -35.6046 H   0  0  0  0  0  0  0  0  0  0  0  0
   -5.3273   19.7764  -33.5202 H   0  0  0  0  0  0  0  0  0  0  0  0
   -6.9400   19.8275  -34.3566 H   0  0  0  0  0  0  0  0  0  0  0  0
   -5.7745   20.7962  -31.5508 H   0  0  0  0  0  0  0  0  0  0  0  0
   -3.4160   20.8450  -29.3320 H   0  0  0  0  0  0  0  0  0  0  0  0
  1  2  2  3
  2  3  1  0
  3  4  2  0
  4  5  1  0
  5  6  1  0
  6  7  1  0
  7  8  2  0
  8  9  1  0
  9 10  1  0
 10 11  2  0
 11 12  1  0
 12 13  2  0
 13 14  1  0
 14 15  1  0
 15 16  2  0
 15 17  2  0
 15 18  1  0
 18 19  1  0
 19 20  1  0
 20 21  1  0
 21 22  1  0
 22 23  1  0
 14 24  2  0
  9 25  2  0
 25 26  1  0
  5 27  1  0
 27  2  1  0
 26  7  1  0
 24 10  1  0
 23 18  1  0
  1 28  1  0
  3 29  1  0
  4 30  1  0
  6 31  1  0
  6 32  1  0
 11 33  1  0
 12 34  1  0
 13 35  1  0
 19 36  1  0
 19 37  1  0
 20 38  1  0
 20 39  1  0
 22 40  1  0
 22 41  1  0
 23 42  1  0
 23 43  1  0
 24 44  1  0
 27 45  1  0
M  END
>  <UniqueID>  (15) 
14

>  <SMILES>  (15) 
N=c1ccn(Cc2nc(-c3cccc(S(=O)(=O)N4CCOCC4)c3)no2)[nH]1

>  <Energy>  (15) 
124.60125211806297

>  <Genealogy>  (15) 
N=c1ccn(Cc2nc(-c3cccc(S(=O)(=O)N4CCOCC4)c3)no2)[nH]1 (3D coordinates assigned)
N=c1ccn(Cc2nc(-c3cccc(S(=O)(=O)N4CCOCC4)c3)no2)[nH]1 (nonaromatic ring conformer: 124.60125211806297 kcal/mol)

>  <smiles>  (15) 
N=c1ccn(Cc2nc(-c3cccc(S(=O)(=O)N4CCOCC4)c3)no2)[nH]1

>  <score_type>  (15) 
oracle

>  <origin>  (15) 
adgpu

>  <m_score__min__energy>  (15) 
-10.619999999999999

>  <m_primary>  (15) 
energy

$$$$
15:0
     RDKit          3D

 59 62  0  0  0  0  0  0  0  0999 V2000
    0.7820   23.3430  -27.4880 C   0  0  0  0  0  0  0  0  0  0  0  0
    0.2610   23.9320  -28.6750 O   0  0  0  0  0  0  0  0  0  0  0  0
   -0.8090   23.4100  -29.4220 C   0  0  0  0  0  0  0  0  0  0  0  0
   -0.7500   22.1320  -30.0050 C   0  0  0  0  0  0  0  0  0  0  0  0
   -1.8320   21.6300  -30.7380 C   0  0  0  0  0  0  0  0  0  0  0  0
   -1.7740   20.2800  -31.3440 C   0  0  0  0  0  0  0  0  0  0  0  0
   -1.1200   19.3740  -30.7560 O   0  0  0  0  0  0  0  0  0  0  0  0
   -2.4570   19.9750  -32.5770 N   0  0  0  0  0  0  0  0  0  0  0  0
   -1.7460   19.6800  -33.7950 C   0  0  0  0  0  0  0  0  0  0  0  0
   -2.2230   18.8380  -34.6050 O   0  0  0  0  0  0  0  0  0  0  0  0
   -0.4600   20.3330  -34.1140 C   0  0  0  0  0  0  0  0  0  0  0  0
    0.7930   19.7990  -33.7610 C   0  0  0  0  0  0  0  0  0  0  0  0
    1.8630   20.5810  -34.1710 C   0  0  0  0  0  0  0  0  0  0  0  0
    1.2540   21.9250  -34.9700 S   0  0  0  0  0  0  0  0  0  0  0  0
   -0.3720   21.5310  -34.8150 C   0  0  0  0  0  0  0  0  0  0  0  0
   -3.8890   19.9530  -32.5920 C   0  0  0  0  0  0  0  0  0  0  0  0
   -4.6020   21.0530  -33.0800 C   0  0  0  0  0  0  0  0  0  0  0  0
   -5.9970   21.0330  -33.1010 C   0  0  0  0  0  0  0  0  0  0  0  0
   -6.7040   19.9130  -32.6310 C   0  0  0  0  0  0  0  0  0  0  0  0
   -8.2090   19.9190  -32.6700 C   0  0  0  0  0  0  0  0  0  0  0  0
   -5.9850   18.7930  -32.1410 C   0  0  0  0  0  0  0  0  0  0  0  0
   -6.6990   17.5730  -31.6240 C   0  0  0  0  0  0  0  0  0  0  0  0
   -4.5800   18.8290  -32.1230 C   0  0  0  0  0  0  0  0  0  0  0  0
   -2.9720   22.4250  -30.9050 C   0  0  0  0  0  0  0  0  0  0  0  0
   -3.0590   23.6960  -30.3140 C   0  0  0  0  0  0  0  0  0  0  0  0
   -4.2140   24.4710  -30.5010 O   0  0  0  0  0  0  0  0  0  0  0  0
   -5.4870   23.9580  -30.7910 C   0  0  0  0  0  0  0  0  0  0  0  0
   -6.2260   23.2330  -29.8420 C   0  0  0  0  0  0  0  0  0  0  0  0
   -7.4970   22.7610  -30.1750 C   0  0  0  0  0  0  0  0  0  0  0  0
   -8.0220   23.0180  -31.4420 C   0  0  0  0  0  0  0  0  0  0  0  0
   -7.2670   23.7540  -32.3580 C   0  0  0  0  0  0  0  0  0  0  0  0
   -6.0320   24.2070  -32.0130 N   0  0  0  0  0  0  0  0  0  0  0  0
   -1.9610   24.1990  -29.5730 C   0  0  0  0  0  0  0  0  0  0  0  0
   -1.9500   25.4640  -28.9550 O   0  0  0  0  0  0  0  0  0  0  0  0
   -1.6400   25.7350  -27.5910 C   0  0  0  0  0  0  0  0  0  0  0  0
    0.3433   23.8389  -26.6096 H   0  0  0  0  0  0  0  0  0  0  0  0
    0.5299   22.2725  -27.4687 H   0  0  0  0  0  0  0  0  0  0  0  0
    1.8753   23.4626  -27.4687 H   0  0  0  0  0  0  0  0  0  0  0  0
    0.1560   21.5200  -29.8839 H   0  0  0  0  0  0  0  0  0  0  0  0
    0.9126   18.8528  -33.2129 H   0  0  0  0  0  0  0  0  0  0  0  0
    2.9268   20.3585  -34.0016 H   0  0  0  0  0  0  0  0  0  0  0  0
   -1.2187   22.1179  -35.2005 H   0  0  0  0  0  0  0  0  0  0  0  0
   -4.0610   21.9370  -33.4486 H   0  0  0  0  0  0  0  0  0  0  0  0
   -6.5486   21.9020  -33.4891 H   0  0  0  0  0  0  0  0  0  0  0  0
   -8.6024   19.9206  -31.6428 H   0  0  0  0  0  0  0  0  0  0  0  0
   -8.5585   20.8185  -33.1979 H   0  0  0  0  0  0  0  0  0  0  0  0
   -8.5657   19.0223  -33.1979 H   0  0  0  0  0  0  0  0  0  0  0  0
   -6.6930   17.5832  -30.5241 H   0  0  0  0  0  0  0  0  0  0  0  0
   -7.7381   17.5757  -31.9851 H   0  0  0  0  0  0  0  0  0  0  0  0
   -6.1877   16.6684  -31.9851 H   0  0  0  0  0  0  0  0  0  0  0  0
   -4.0179   17.9659  -31.7368 H   0  0  0  0  0  0  0  0  0  0  0  0
   -3.8117   22.0488  -31.5078 H   0  0  0  0  0  0  0  0  0  0  0  0
   -5.8066   23.0385  -28.8439 H   0  0  0  0  0  0  0  0  0  0  0  0
   -8.0827   22.1883  -29.4409 H   0  0  0  0  0  0  0  0  0  0  0  0
   -9.0198   22.6450  -31.7165 H   0  0  0  0  0  0  0  0  0  0  0  0
   -7.6713   23.9672  -33.3585 H   0  0  0  0  0  0  0  0  0  0  0  0
   -2.3077   25.1513  -26.9403 H   0  0  0  0  0  0  0  0  0  0  0  0
   -0.5954   25.4553  -27.3898 H   0  0  0  0  0  0  0  0  0  0  0  0
   -1.7776   26.8077  -27.3898 H   0  0  0  0  0  0  0  0  0  0  0  0
  1  2  1  0
  2  3  1  0
  3  4  2  0
  4  5  1  0
  5  6  1  0
  6  7  2  0
  6  8  1  0
  8  9  1  0
  9 10  2  0
  9 11  1  0
 11 12  1  0
 12 13  2  0
 13 14  1  0
 14 15  1  0
  8 16  1  0
 16 17  2  0
 17 18  1  0
 18 19  2  0
 19 20  1  0
 19 21  1  0
 21 22  1  0
 21 23  2  0
  5 24  2  0
 24 25  1  0
 25 26  1  0
 26 27  1  0
 27 28  2  0
 28 29  1  0
 29 30  2  0
 30 31  1  0
 31 32  2  0
 25 33  2  0
 33 34  1  0
 34 35  1  0
 33  3  1  0
 15 11  2  0
 23 16  1  0
 32 27  1  0
  1 36  1  0
  1 37  1  0
  1 38  1  0
  4 39  1  0
 12 40  1  0
 13 41  1  0
 15 42  1  0
 17 43  1  0
 18 44  1  0
 20 45  1  0
 20 46  1  0
 20 47  1  0
 22 48  1  0
 22 49  1  0
 22 50  1  0
 23 51  1  0
 24 52  1  0
 28 53  1  0
 29 54  1  0
 30 55  1  0
 31 56  1  0
 35 57  1  0
 35 58  1  0
 35 59  1  0
M  END
>  <UniqueID>  (16) 
15

>  <SMILES>  (16) 
COc1cc(C(=O)N(C(=O)c2ccsc2)c2ccc(C)c(C)c2)cc(Oc2ccccn2)c1OC

>  <Energy>  (16) 
111.16949409460805

>  <Genealogy>  (16) 
COc1cc(C(=O)N(C(=O)c2ccsc2)c2ccc(C)c(C)c2)cc(Oc2ccccn2)c1OC (3D coordinates assigned)
COc1cc(C(=O)N(C(=O)c2ccsc2)c2ccc(C)c(C)c2)cc(Oc2ccccn2)c1OC (optimized conformer: 111.16949409460805 kcal/mol)

>  <smiles>  (16) 
COc1cc(C(=O)N(C(=O)c2ccsc2)c2ccc(C)c(C)c2)cc(Oc2ccccn2)c1OC

>  <score_type>  (16) 
oracle

>  <origin>  (16) 
adgpu

>  <m_score__min__energy>  (16) 
-9.8399999999999999

>  <m_primary>  (16) 
energy

$$$$
16:0
     RDKit          3D

 75 79  0  0  0  0  0  0  0  0999 V2000
   -3.4230   20.0180  -33.8530 C   0  0  0  0  0  0  0  0  0  0  0  0
   -2.9160   20.4460  -32.4950 C   0  0  0  0  0  0  0  0  0  0  0  0
   -3.7140   21.2650  -31.6670 C   0  0  0  0  0  0  0  0  0  0  0  0
   -5.0520   21.6240  -32.0500 N   0  0  0  0  0  0  0  0  0  0  0  0
   -5.3460   23.0330  -32.3400 C   0  0  0  0  0  0  0  0  0  0  0  0
   -6.1260   20.6390  -31.8230 C   0  0  0  0  0  0  0  0  0  0  0  0
   -7.4170   21.3340  -31.3240 C   0  0  0  0  0  0  0  0  0  0  0  0
   -8.6990   20.5260  -31.6170 C   0  0  0  0  0  0  0  0  0  0  0  0
   -8.4240   19.0190  -31.6590 C   0  0  0  0  0  0  0  0  0  0  0  0
   -7.4090   18.6500  -32.7600 C   0  0  0  0  0  0  0  0  0  0  0  0
   -6.4010   19.7760  -33.0690 C   0  0  0  0  0  0  0  0  0  0  0  0
   -3.2150   21.7160  -30.4400 C   0  0  0  0  0  0  0  0  0  0  0  0
   -1.9280   21.3430  -30.0280 C   0  0  0  0  0  0  0  0  0  0  0  0
   -1.3420   21.8050  -28.7380 C   0  0  0  0  0  0  0  0  0  0  0  0
   -0.1200   22.5060  -28.6870 C   0  0  0  0  0  0  0  0  0  0  0  0
    0.4160   22.9090  -27.4600 C   0  0  0  0  0  0  0  0  0  0  0  0
   -0.2380   22.5970  -26.2600 C   0  0  0  0  0  0  0  0  0  0  0  0
    0.3500   23.0180  -24.9350 C   0  0  0  0  0  0  0  0  0  0  0  0
   -0.4990   24.0160  -24.2660 N   0  0  0  0  0  0  0  0  0  0  0  0
   -0.4110   25.3250  -24.9280 C   0  0  0  0  0  0  0  0  0  0  0  0
   -1.7700   25.6920  -25.5250 C   0  0  0  0  0  0  0  0  0  0  0  0
   -1.7680   25.4980  -27.0110 C   0  0  0  0  0  0  0  0  0  0  0  0
   -0.8970   26.0820  -27.8990 C   0  0  0  0  0  0  0  0  0  0  0  0
   -1.2350   25.7120  -29.1460 N   0  0  0  0  0  0  0  0  0  0  0  0
   -2.3140   24.9160  -28.9710 C   0  0  0  0  0  0  0  0  0  0  0  0
   -2.6760   24.7660  -27.6780 N   0  0  0  0  0  0  0  0  0  0  0  0
   -1.4530   21.9000  -26.3050 C   0  0  0  0  0  0  0  0  0  0  0  0
   -1.9980   21.5060  -27.5300 C   0  0  0  0  0  0  0  0  0  0  0  0
   -1.2060   20.5070  -30.8200 N   0  0  0  0  0  0  0  0  0  0  0  0
   -1.6460   20.0410  -32.0180 C   0  0  0  0  0  0  0  0  0  0  0  0
   -0.7920   19.0730  -32.7500 C   0  0  0  0  0  0  0  0  0  0  0  0
   -1.2170   17.9070  -32.9620 O   0  0  0  0  0  0  0  0  0  0  0  0
    0.5290   19.4080  -33.1980 N   0  0  0  0  0  0  0  0  0  0  0  0
    0.9670   20.7340  -33.6300 C   0  0  0  0  0  0  0  0  0  0  0  0
    0.0440   21.3570  -34.6970 C   0  0  0  0  0  0  0  0  0  0  0  0
    0.6690   22.3310  -35.6850 C   0  0  0  0  0  0  0  0  0  0  0  0
    0.2710   20.9320  -36.1420 C   0  0  0  0  0  0  0  0  0  0  0  0
   -4.2580   19.3131  -33.7272 H   0  0  0  0  0  0  0  0  0  0  0  0
   -3.7693   20.9010  -34.4101 H   0  0  0  0  0  0  0  0  0  0  0  0
   -2.6106   19.5284  -34.4101 H   0  0  0  0  0  0  0  0  0  0  0  0
   -5.4613   23.5854  -31.3958 H   0  0  0  0  0  0  0  0  0  0  0  0
   -4.5193   23.4681  -32.9208 H   0  0  0  0  0  0  0  0  0  0  0  0
   -6.2777   23.1012  -32.9208 H   0  0  0  0  0  0  0  0  0  0  0  0
   -5.7770   19.9550  -31.0354 H   0  0  0  0  0  0  0  0  0  0  0  0
   -7.3370   21.4793  -30.2366 H   0  0  0  0  0  0  0  0  0  0  0  0
   -7.5029   22.2879  -31.8651 H   0  0  0  0  0  0  0  0  0  0  0  0
   -9.4376   20.7314  -30.8281 H   0  0  0  0  0  0  0  0  0  0  0  0
   -9.0786   20.8322  -32.6030 H   0  0  0  0  0  0  0  0  0  0  0  0
   -8.0223   18.7035  -30.6848 H   0  0  0  0  0  0  0  0  0  0  0  0
   -9.3709   18.5058  -31.8825 H   0  0  0  0  0  0  0  0  0  0  0  0
   -6.8491   17.7611  -32.4338 H   0  0  0  0  0  0  0  0  0  0  0  0
   -7.9823   18.4668  -33.6808 H   0  0  0  0  0  0  0  0  0  0  0  0
   -5.4562   19.3275  -33.4098 H   0  0  0  0  0  0  0  0  0  0  0  0
   -6.8298   20.4210  -33.8501 H   0  0  0  0  0  0  0  0  0  0  0  0
   -3.8322   22.3628  -29.7991 H   0  0  0  0  0  0  0  0  0  0  0  0
    0.4158   22.7377  -29.6193 H   0  0  0  0  0  0  0  0  0  0  0  0
    1.3586   23.4755  -27.4362 H   0  0  0  0  0  0  0  0  0  0  0  0
    0.4423   22.1340  -24.2869 H   0  0  0  0  0  0  0  0  0  0  0  0
    1.3358   23.4694  -25.1205 H   0  0  0  0  0  0  0  0  0  0  0  0
   -0.1370   24.1260  -23.2890 H   0  0  0  0  0  0  0  0  0  0  0  0
   -0.1166   26.0879  -24.1923 H   0  0  0  0  0  0  0  0  0  0  0  0
    0.3393   25.2778  -25.7310 H   0  0  0  0  0  0  0  0  0  0  0  0
   -2.5449   25.0514  -25.0787 H   0  0  0  0  0  0  0  0  0  0  0  0
   -1.9765   26.7504  -25.3077 H   0  0  0  0  0  0  0  0  0  0  0  0
   -0.0599   26.7441  -27.6327 H   0  0  0  0  0  0  0  0  0  0  0  0
   -2.8476   24.4352  -29.8041 H   0  0  0  0  0  0  0  0  0  0  0  0
   -1.9811   21.6615  -25.3700 H   0  0  0  0  0  0  0  0  0  0  0  0
   -2.9504   20.9560  -27.5499 H   0  0  0  0  0  0  0  0  0  0  0  0
    0.9880   21.3987  -32.7538 H   0  0  0  0  0  0  0  0  0  0  0  0
    1.9627   20.6195  -34.0834 H   0  0  0  0  0  0  0  0  0  0  0  0
   -0.8220   21.3891  -34.0195 H   0  0  0  0  0  0  0  0  0  0  0  0
    0.0985   23.2056  -36.0307 H   0  0  0  0  0  0  0  0  0  0  0  0
    1.5950   22.9242  -35.7124 H   0  0  0  0  0  0  0  0  0  0  0  0
   -0.5869   20.7969  -36.8171 H   0  0  0  0  0  0  0  0  0  0  0  0
    0.7902   20.0972  -36.6354 H   0  0  0  0  0  0  0  0  0  0  0  0
  1  2  1  0
  2  3  2  0
  3  4  1  0
  4  5  1  0
  4  6  1  0
  6  7  1  0
  7  8  1  0
  8  9  1  0
  9 10  1  0
 10 11  1  0
  3 12  1  0
 12 13  2  0
 13 14  1  0
 14 15  2  0
 15 16  1  0
 16 17  2  0
 17 18  1  0
 18 19  1  0
 19 20  1  0
 20 21  1  0
 21 22  1  0
 22 23  2  0
 23 24  1  0
 24 25  1  0
 25 26  2  0
 17 27  1  0
 27 28  2  0
 13 29  1  0
 29 30  2  0
 30 31  1  0
 31 32  2  0
 31 33  1  0
 33 34  1  0
 34 35  1  0
 35 36  1  0
 36 37  1  0
 30  2  1  0
 37 35  1  0
 11  6  1  0
 28 14  1  0
 26 22  1  0
  1 38  1  0
  1 39  1  0
  1 40  1  0
  5 41  1  0
  5 42  1  0
  5 43  1  0
  6 44  1  0
  7 45  1  0
  7 46  1  0
  8 47  1  0
  8 48  1  0
  9 49  1  0
  9 50  1  0
 10 51  1  0
 10 52  1  0
 11 53  1  0
 11 54  1  0
 12 55  1  0
 15 56  1  0
 16 57  1  0
 18 58  1  0
 18 59  1  0
 19 60  1  0
 20 61  1  0
 20 62  1  0
 21 63  1  0
 21 64  1  0
 23 65  1  0
 25 66  1  0
 27 67  1  0
 28 68  1  0
 34 69  1  0
 34 70  1  0
 35 71  1  0
 36 72  1  0
 36 73  1  0
 37 74  1  0
 37 75  1  0
M  CHG  2  24  -1  33  -1
M  END
>  <UniqueID>  (17) 
16

>  <SMILES>  (17) 
Cc1c(N(C)C2CCCCC2)cc(-c2ccc(CNCCc3c[n-]cn3)cc2)nc1C(=O)[N-]CC1CC1

>  <Energy>  (17) 
382.512892472752

>  <Genealogy>  (17) 
Cc1c(N(C)C2CCCCC2)cc(-c2ccc(CNCCc3c[n-]cn3)cc2)nc1C(=O)[N-]CC1CC1 (protonated)
Cc1c(N(C)C2CCCCC2)cc(-c2ccc(CNCCc3c[n-]cn3)cc2)nc1C(=O)[N-]CC1CC1 (3D coordinates assigned)
Cc1c(N(C)C2CCCCC2)cc(-c2ccc(CNCCc3c[n-]cn3)cc2)nc1C(=O)[N-]CC1CC1 (nonaromatic ring conformer: 382.512892472752 kcal/mol)

>  <smiles>  (17) 
Cc1c(N(C)C2CCCCC2)cc(-c2ccc(CNCCc3c[nH]cn3)cc2)nc1C(=O)NCC1CC1

>  <score_type>  (17) 
oracle

>  <origin>  (17) 
adgpu

>  <m_score__min__energy>  (17) 
-13.210000000000001

>  <m_primary>  (17) 
energy

$$$$
17:0
     RDKit          3D

 52 55  0  0  0  0  0  0  0  0999 V2000
   -0.0940   21.2160  -31.9610 C   0  0  0  0  0  0  0  0  0  0  0  0
   -1.5480   21.5380  -32.1010 C   0  0  0  0  0  0  0  0  0  0  0  0
   -2.2740   21.2200  -33.1920 N   0  0  0  0  0  0  0  0  0  0  0  0
   -3.5320   21.6400  -32.9700 C   0  0  0  0  0  0  0  0  0  0  0  0
   -3.6120   22.2460  -31.7320 C   0  0  0  0  0  0  0  0  0  0  0  0
   -5.0620   22.9700  -31.0420 S   0  0  0  0  0  0  0  0  0  0  0  0
   -4.9660   24.4560  -31.2460 O   0  0  0  0  0  0  0  0  0  0  0  0
   -5.1120   22.6870  -29.5670 O   0  0  0  0  0  0  0  0  0  0  0  0
   -6.5140   22.3690  -31.8020 N   0  0  0  0  0  0  0  0  0  0  0  0
   -7.5130   23.2990  -32.3340 C   0  0  0  0  0  0  0  0  0  0  0  0
   -8.8670   23.0030  -31.6910 C   0  0  0  0  0  0  0  0  0  0  0  0
   -9.3060   21.5640  -31.9990 C   0  0  0  0  0  0  0  0  0  0  0  0
   -8.1970   20.5580  -31.7930 C   0  0  0  0  0  0  0  0  0  0  0  0
   -8.5180   19.1930  -31.7140 C   0  0  0  0  0  0  0  0  0  0  0  0
   -7.5080   18.2350  -31.6050 C   0  0  0  0  0  0  0  0  0  0  0  0
   -6.1680   18.6270  -31.6040 C   0  0  0  0  0  0  0  0  0  0  0  0
   -5.8340   19.9800  -31.6860 C   0  0  0  0  0  0  0  0  0  0  0  0
   -6.8400   20.9620  -31.7650 C   0  0  0  0  0  0  0  0  0  0  0  0
   -2.3450   22.1960  -31.1730 C   0  0  0  0  0  0  0  0  0  0  0  0
   -1.9460   22.6710  -29.8350 C   0  0  0  0  0  0  0  0  0  0  0  0
   -1.8240   23.9120  -29.6490 O   0  0  0  0  0  0  0  0  0  0  0  0
   -1.7120   21.7560  -28.7480 N   0  0  0  0  0  0  0  0  0  0  0  0
   -1.8470   22.2470  -27.3660 C   0  0  0  0  0  0  0  0  0  0  0  0
   -1.2260   21.2760  -26.3550 C   0  0  0  0  0  0  0  0  0  0  0  0
   -1.7330   19.8520  -26.5880 C   0  0  0  0  0  0  0  0  0  0  0  0
   -1.5580   19.3760  -28.0460 C   0  0  0  0  0  0  0  0  0  0  0  0
   -1.0490   20.4670  -29.0040 C   0  0  0  0  0  0  0  0  0  0  0  0
    0.1676   21.1581  -30.8941 H   0  0  0  0  0  0  0  0  0  0  0  0
    0.1156   20.2497  -32.4430 H   0  0  0  0  0  0  0  0  0  0  0  0
    0.5040   22.0035  -32.4430 H   0  0  0  0  0  0  0  0  0  0  0  0
   -1.9320   20.7230  -34.0460 H   0  0  0  0  0  0  0  0  0  0  0  0
   -4.3718   21.5189  -33.6701 H   0  0  0  0  0  0  0  0  0  0  0  0
   -7.2139   24.3321  -32.1030 H   0  0  0  0  0  0  0  0  0  0  0  0
   -7.5872   23.1777  -33.4248 H   0  0  0  0  0  0  0  0  0  0  0  0
   -8.7861   23.1314  -30.6015 H   0  0  0  0  0  0  0  0  0  0  0  0
   -9.6147   23.6982  -32.1004 H   0  0  0  0  0  0  0  0  0  0  0  0
  -10.1450   21.3030  -31.3373 H   0  0  0  0  0  0  0  0  0  0  0  0
   -9.5962   21.5254  -33.0593 H   0  0  0  0  0  0  0  0  0  0  0  0
   -9.5713   18.8767  -31.7381 H   0  0  0  0  0  0  0  0  0  0  0  0
   -7.7685   17.1697  -31.5198 H   0  0  0  0  0  0  0  0  0  0  0  0
   -5.3741   17.8685  -31.5385 H   0  0  0  0  0  0  0  0  0  0  0  0
   -4.7761   20.2814  -31.6889 H   0  0  0  0  0  0  0  0  0  0  0  0
   -1.3409   23.2201  -27.2826 H   0  0  0  0  0  0  0  0  0  0  0  0
   -2.9193   22.3390  -27.1384 H   0  0  0  0  0  0  0  0  0  0  0  0
   -0.1316   21.2918  -26.4651 H   0  0  0  0  0  0  0  0  0  0  0  0
   -1.5133   21.5912  -25.3410 H   0  0  0  0  0  0  0  0  0  0  0  0
   -1.1763   19.1702  -25.9283 H   0  0  0  0  0  0  0  0  0  0  0  0
   -2.8111   19.8487  -26.3699 H   0  0  0  0  0  0  0  0  0  0  0  0
   -0.8375   18.5448  -28.0543 H   0  0  0  0  0  0  0  0  0  0  0  0
   -2.5540   19.0771  -28.4047 H   0  0  0  0  0  0  0  0  0  0  0  0
    0.0355   20.5881  -28.8652 H   0  0  0  0  0  0  0  0  0  0  0  0
   -1.2775   20.1579  -30.0347 H   0  0  0  0  0  0  0  0  0  0  0  0
  1  2  1  0
  2  3  1  0
  3  4  1  0
  4  5  2  0
  5  6  1  0
  6  7  2  0
  6  8  2  0
  6  9  1  0
  9 10  1  0
 10 11  1  0
 11 12  1  0
 12 13  1  0
 13 14  2  0
 14 15  1  0
 15 16  2  0
 16 17  1  0
 17 18  2  0
  5 19  1  0
 19 20  1  0
 20 21  2  0
 20 22  1  0
 22 23  1  0
 23 24  1  0
 24 25  1  0
 25 26  1  0
 26 27  1  0
 19  2  2  0
 27 22  1  0
 18  9  1  0
 18 13  1  0
  1 28  1  0
  1 29  1  0
  1 30  1  0
  3 31  1  0
  4 32  1  0
 10 33  1  0
 10 34  1  0
 11 35  1  0
 11 36  1  0
 12 37  1  0
 12 38  1  0
 14 39  1  0
 15 40  1  0
 16 41  1  0
 17 42  1  0
 23 43  1  0
 23 44  1  0
 24 45  1  0
 24 46  1  0
 25 47  1  0
 25 48  1  0
 26 49  1  0
 26 50  1  0
 27 51  1  0
 27 52  1  0
M  END
>  <UniqueID>  (18) 
17

>  <SMILES>  (18) 
Cc1[nH]cc(S(=O)(=O)N2CCCc3ccccc32)c1C(=O)N1CCCCC1

>  <Energy>  (18) 
89.60818786204662

>  <Genealogy>  (18) 
Cc1[nH]cc(S(=O)(=O)N2CCCc3ccccc32)c1C(=O)N1CCCCC1 (3D coordinates assigned)
Cc1[nH]cc(S(=O)(=O)N2CCCc3ccccc32)c1C(=O)N1CCCCC1 (nonaromatic ring conformer: 89.60818786204662 kcal/mol)

>  <smiles>  (18) 
Cc1[nH]cc(S(=O)(=O)N2CCCc3ccccc32)c1C(=O)N1CCCCC1

>  <score_type>  (18) 
oracle

>  <origin>  (18) 
adgpu

>  <m_score__min__energy>  (18) 
-10.029999999999999

>  <m_primary>  (18) 
energy

$$$$
18:0
     RDKit          3D

 47 49  0  0  0  0  0  0  0  0999 V2000
   -2.1610   25.2970  -29.3300 N   0  0  0  0  0  0  0  0  0  0  0  0
   -1.0820   24.4350  -28.9720 C   0  0  0  0  0  0  0  0  0  0  0  0
   -0.0750   24.9200  -28.3910 O   0  0  0  0  0  0  0  0  0  0  0  0
   -1.1110   22.9920  -29.3140 C   0  0  0  0  0  0  0  0  0  0  0  0
   -1.6480   22.6080  -30.5540 C   0  0  0  0  0  0  0  0  0  0  0  0
   -1.7390   21.2570  -30.9130 C   0  0  0  0  0  0  0  0  0  0  0  0
   -2.4710   20.7940  -32.4540 S   0  0  0  0  0  0  0  0  0  0  0  0
   -1.8690   19.4860  -32.8850 O   0  0  0  0  0  0  0  0  0  0  0  0
   -2.1080   21.8180  -33.4930 O   0  0  0  0  0  0  0  0  0  0  0  0
   -4.2220   20.6670  -32.3720 N   0  0  1  0  0  0  0  0  0  0  0  0
   -4.6530   19.3980  -31.7430 C   0  0  0  0  0  0  0  0  0  0  0  0
   -5.2900   18.4510  -32.7360 C   0  0  0  0  0  0  0  0  0  0  0  0
   -6.3120   17.5770  -32.3180 C   0  0  0  0  0  0  0  0  0  0  0  0
   -6.8930   16.6850  -33.2250 C   0  0  0  0  0  0  0  0  0  0  0  0
   -6.4570   16.6530  -34.5530 C   0  0  0  0  0  0  0  0  0  0  0  0
   -5.4340   17.5090  -34.9760 C   0  0  0  0  0  0  0  0  0  0  0  0
   -4.8440   18.3980  -34.0700 C   0  0  0  0  0  0  0  0  0  0  0  0
   -4.9050   22.0160  -31.4870 S   0  0  0  0  0  0  0  0  0  0  0  0
   -4.5850   21.8600  -30.0260 O   0  0  0  0  0  0  0  0  0  0  0  0
   -4.2880   23.2980  -31.9750 O   0  0  0  0  0  0  0  0  0  0  0  0
   -6.6600   22.1010  -31.6430 C   0  0  0  0  0  0  0  0  0  0  0  0
   -7.4320   20.9300  -31.5980 C   0  0  0  0  0  0  0  0  0  0  0  0
   -8.8220   21.0000  -31.7230 C   0  0  0  0  0  0  0  0  0  0  0  0
   -9.4470   22.2370  -31.9090 C   0  0  0  0  0  0  0  0  0  0  0  0
   -8.6810   23.4030  -31.9800 C   0  0  0  0  0  0  0  0  0  0  0  0
   -7.2890   23.3360  -31.8580 C   0  0  0  0  0  0  0  0  0  0  0  0
   -1.2400   20.2790  -30.0480 C   0  0  0  0  0  0  0  0  0  0  0  0
   -0.6860   20.6440  -28.8210 C   0  0  0  0  0  0  0  0  0  0  0  0
   -0.6150   21.9910  -28.4450 C   0  0  0  0  0  0  0  0  0  0  0  0
    0.1700   22.3700  -26.9170 Cl  0  0  0  0  0  0  0  0  0  0  0  0
   -2.5500   25.2920  -30.2980 H   0  0  0  0  0  0  0  0  0  0  0  0
   -2.0023   23.3796  -31.2534 H   0  0  0  0  0  0  0  0  0  0  0  0
   -4.5930   20.7250  -33.3490 H   0  0  0  0  0  0  0  0  0  0  0  0
   -3.7742   18.9068  -31.2997 H   0  0  0  0  0  0  0  0  0  0  0  0
   -5.4064   19.6405  -30.9791 H   0  0  0  0  0  0  0  0  0  0  0  0
   -6.6550   17.5960  -31.2730 H   0  0  0  0  0  0  0  0  0  0  0  0
   -7.6939   16.0079  -32.8932 H   0  0  0  0  0  0  0  0  0  0  0  0
   -6.9186   15.9542  -35.2661 H   0  0  0  0  0  0  0  0  0  0  0  0
   -5.0932   17.4832  -36.0215 H   0  0  0  0  0  0  0  0  0  0  0  0
   -4.0287   19.0577  -34.4018 H   0  0  0  0  0  0  0  0  0  0  0  0
   -6.9417   19.9545  -31.4640 H   0  0  0  0  0  0  0  0  0  0  0  0
   -9.4250   20.0813  -31.6750 H   0  0  0  0  0  0  0  0  0  0  0  0
  -10.5419   22.2919  -31.9994 H   0  0  0  0  0  0  0  0  0  0  0  0
   -9.1730   24.3750  -32.1320 H   0  0  0  0  0  0  0  0  0  0  0  0
   -6.6867   24.2536  -31.9308 H   0  0  0  0  0  0  0  0  0  0  0  0
   -1.2843   19.2182  -30.3358 H   0  0  0  0  0  0  0  0  0  0  0  0
   -0.3018   19.8674  -28.1433 H   0  0  0  0  0  0  0  0  0  0  0  0
  1  2  1  0
  2  3  2  0
  2  4  1  0
  4  5  2  0
  5  6  1  0
  6  7  1  0
  7  8  2  0
  7  9  2  0
  7 10  1  0
 10 11  1  0
 11 12  1  0
 12 13  2  0
 13 14  1  0
 14 15  2  0
 15 16  1  0
 16 17  2  0
 10 18  1  0
 18 19  2  0
 18 20  2  0
 18 21  1  0
 21 22  2  0
 22 23  1  0
 23 24  2  0
 24 25  1  0
 25 26  2  0
  6 27  2  0
 27 28  1  0
 28 29  2  0
 29 30  1  0
 29  4  1  0
 17 12  1  0
 26 21  1  0
  1 31  1  0
  5 32  1  0
 10 33  1  6
 11 34  1  0
 11 35  1  0
 13 36  1  0
 14 37  1  0
 15 38  1  0
 16 39  1  0
 17 40  1  0
 22 41  1  0
 23 42  1  0
 24 43  1  0
 25 44  1  0
 26 45  1  0
 27 46  1  0
 28 47  1  0
M  CHG  2   1  -1  10   1
M  END
>  <UniqueID>  (19) 
18

>  <SMILES>  (19) 
[NH-]C(=O)c1cc(S(=O)(=O)[N@@H+](Cc2ccccc2)S(=O)(=O)c2ccccc2)ccc1Cl

>  <Energy>  (19) 
52.657133015863536

>  <Genealogy>  (19) 
[NH-]C(=O)c1cc(S(=O)(=O)[NH+](Cc2ccccc2)S(=O)(=O)c2ccccc2)ccc1Cl (protonated)
[NH-]C(=O)c1cc(S(=O)(=O)[N@@H+](Cc2ccccc2)S(=O)(=O)c2ccccc2)ccc1Cl (chirality)
[NH-]C(=O)c1cc(S(=O)(=O)[N@@H+](Cc2ccccc2)S(=O)(=O)c2ccccc2)ccc1Cl (3D coordinates assigned)
[NH-]C(=O)c1cc(S(=O)(=O)[N@@H+](Cc2ccccc2)S(=O)(=O)c2ccccc2)ccc1Cl (optimized conformer: 52.657133015863536 kcal/mol)

>  <smiles>  (19) 
NC(=O)c1cc(S(=O)(=O)N(Cc2ccccc2)S(=O)(=O)c2ccccc2)ccc1Cl

>  <score_type>  (19) 
oracle

>  <origin>  (19) 
adgpu

>  <m_score__min__energy>  (19) 
-11.91

>  <m_primary>  (19) 
energy

$$$$
19:0
     RDKit          3D

 54 56  0  0  0  0  0  0  0  0999 V2000
   -4.4218   20.5303  -33.4935 H   0  0  0  0  0  0  0  0  0  0  0  0
   -5.0340   19.6210  -33.4020 C   0  0  0  0  0  0  0  0  0  0  0  0
   -4.5560   18.4350  -33.8660 N   0  0  0  0  0  0  0  0  0  0  0  0
   -5.2650   17.2780  -33.7780 C   0  0  0  0  0  0  0  0  0  0  0  0
   -4.7280   16.1860  -34.2470 N   0  0  0  0  0  0  0  0  0  0  0  0
   -5.2990   14.8370  -34.2400 C   0  0  0  0  0  0  0  0  0  0  0  0
   -4.8674   14.2615  -35.0722 H   0  0  0  0  0  0  0  0  0  0  0  0
   -6.3902   14.9226  -34.3489 H   0  0  0  0  0  0  0  0  0  0  0  0
   -5.0010   14.1090  -32.9220 C   0  0  0  0  0  0  0  0  0  0  0  0
   -5.1912   13.0343  -33.0589 H   0  0  0  0  0  0  0  0  0  0  0  0
   -5.6539   14.5324  -32.1445 H   0  0  0  0  0  0  0  0  0  0  0  0
   -3.5520   14.3010  -32.4780 C   0  0  0  0  0  0  0  0  0  0  0  0
   -3.5030   14.3075  -31.3791 H   0  0  0  0  0  0  0  0  0  0  0  0
   -2.9368   13.4765  -32.8676 H   0  0  0  0  0  0  0  0  0  0  0  0
   -3.1728   15.2572  -32.8676 H   0  0  0  0  0  0  0  0  0  0  0  0
   -6.5470   17.3070  -33.1940 C   0  0  0  0  0  0  0  0  0  0  0  0
   -7.1417   16.3846  -33.1193 H   0  0  0  0  0  0  0  0  0  0  0  0
   -7.0580   18.5120  -32.7110 C   0  0  0  0  0  0  0  0  0  0  0  0
   -8.0575   18.5375  -32.2523 H   0  0  0  0  0  0  0  0  0  0  0  0
   -6.3040   19.6920  -32.8070 C   0  0  0  0  0  0  0  0  0  0  0  0
   -6.8350   20.9810  -32.2930 C   0  0  0  0  0  0  0  0  0  0  0  0
   -8.1320   21.0560  -31.7560 C   0  0  0  0  0  0  0  0  0  0  0  0
   -8.7566   20.1518  -31.7089 H   0  0  0  0  0  0  0  0  0  0  0  0
   -8.6330   22.2700  -31.2820 C   0  0  0  0  0  0  0  0  0  0  0  0
   -9.6524   22.3195  -30.8717 H   0  0  0  0  0  0  0  0  0  0  0  0
   -7.8440   23.4220  -31.3270 C   0  0  0  0  0  0  0  0  0  0  0  0
   -8.2479   24.3783  -30.9630 H   0  0  0  0  0  0  0  0  0  0  0  0
   -6.5360   23.3620  -31.8360 C   0  0  0  0  0  0  0  0  0  0  0  0
   -5.7020   24.5260  -31.9190 N   0  0  0  0  0  0  0  0  0  0  0  0
   -5.1990   25.2840  -30.8140 C   0  0  0  0  0  0  0  0  0  0  0  0
   -5.9970   25.9980  -30.1510 O   0  0  0  0  0  0  0  0  0  0  0  0
   -3.8090   25.2370  -30.4690 N   0  0  0  0  0  0  0  0  0  0  0  0
   -3.1800   24.2430  -29.6480 C   0  0  0  0  0  0  0  0  0  0  0  0
   -3.7210   22.9530  -29.6290 C   0  0  0  0  0  0  0  0  0  0  0  0
   -4.6153   22.7276  -30.2286 H   0  0  0  0  0  0  0  0  0  0  0  0
   -3.1350   21.9490  -28.8550 C   0  0  0  0  0  0  0  0  0  0  0  0
   -3.5802   20.9432  -28.8406 H   0  0  0  0  0  0  0  0  0  0  0  0
   -1.9790   22.2110  -28.0920 C   0  0  0  0  0  0  0  0  0  0  0  0
   -1.3380   21.1120  -27.2520 C   0  0  0  0  0  0  0  0  0  0  0  0
   -0.9610   21.6090  -26.0120 F   0  0  0  0  0  0  0  0  0  0  0  0
   -2.3320   19.9690  -27.0020 C   0  0  0  0  0  0  0  0  0  0  0  0
   -2.4586   19.8235  -25.9190 H   0  0  0  0  0  0  0  0  0  0  0  0
   -3.3025   20.2217  -27.4539 H   0  0  0  0  0  0  0  0  0  0  0  0
   -1.9471   19.0429  -27.4539 H   0  0  0  0  0  0  0  0  0  0  0  0
   -0.0720   20.5820  -27.9400 C   0  0  0  0  0  0  0  0  0  0  0  0
    0.6591   20.2759  -27.1772 H   0  0  0  0  0  0  0  0  0  0  0  0
   -0.3308   19.7167  -28.5679 H   0  0  0  0  0  0  0  0  0  0  0  0
    0.3628   21.3736  -28.5679 H   0  0  0  0  0  0  0  0  0  0  0  0
   -1.4170   23.5010  -28.1480 C   0  0  0  0  0  0  0  0  0  0  0  0
   -0.5040   23.7207  -27.5752 H   0  0  0  0  0  0  0  0  0  0  0  0
   -2.0050   24.5070  -28.9230 C   0  0  0  0  0  0  0  0  0  0  0  0
   -1.3870   25.7120  -29.0090 F   0  0  0  0  0  0  0  0  0  0  0  0
   -6.0480   22.1470  -32.3360 C   0  0  0  0  0  0  0  0  0  0  0  0
   -5.0371   22.1042  -32.7675 H   0  0  0  0  0  0  0  0  0  0  0  0
  1  2  1  0
  2  3  1  0
  3  4  1  0
  4  5  2  0
  5  6  1  0
  6  7  1  0
  6  8  1  0
  6  9  1  0
  9 10  1  0
  9 11  1  0
  9 12  1  0
 12 13  1  0
 12 14  1  0
 12 15  1  0
  4 16  1  0
 16 17  1  0
 16 18  2  0
 18 19  1  0
 18 20  1  0
 20 21  1  0
 21 22  2  0
 22 23  1  0
 22 24  1  0
 24 25  1  0
 24 26  2  0
 26 27  1  0
 26 28  1  0
 28 29  1  0
 29 30  1  0
 30 31  2  0
 30 32  1  0
 32 33  1  0
 33 34  2  0
 34 35  1  0
 34 36  1  0
 36 37  1  0
 36 38  2  0
 38 39  1  0
 39 40  1  0
 39 41  1  0
 41 42  1  0
 41 43  1  0
 41 44  1  0
 39 45  1  0
 45 46  1  0
 45 47  1  0
 45 48  1  0
 38 49  1  0
 49 50  1  0
 49 51  2  0
 51 52  1  0
 28 53  2  0
 53 54  1  0
 20  2  2  0
 53 21  1  0
 51 33  1  0
M  CHG  3   3  -1  29  -1  32  -1
M  END
>  <UniqueID>  (20) 
19

>  <SMILES>  (20) 
CCC/N=c1\ccc(-c2cccc([N-]C(=O)[N-]c3ccc(C(C)(C)F)cc3F)c2)c[n-]1

>  <Energy>  (20) 
66.65437494256443

>  <Genealogy>  (20) 
CCCN=c1ccc(-c2cccc([N-]C(=O)[N-]c3ccc(C(C)(C)F)cc3F)c2)c[n-]1 (protonated)
CCC/N=c1\ccc(-c2cccc([N-]C(=O)[N-]c3ccc(C(C)(C)F)cc3F)c2)c[n-]1 (cis-trans isomerization)
CCC/N=c1\ccc(-c2cccc([N-]C(=O)[N-]c3ccc(C(C)(C)F)cc3F)c2)c[n-]1 (3D coordinates assigned)
CCC/N=c1\ccc(-c2cccc([N-]C(=O)[N-]c3ccc(C(C)(C)F)cc3F)c2)c[n-]1 (optimized conformer: 66.65437494256443 kcal/mol)

>  <smiles>  (20) 
CCCN=c1ccc(-c2cccc(NC(=O)Nc3ccc(C(C)(C)F)cc3F)c2)c[nH]1

>  <score_type>  (20) 
oracle

>  <origin>  (20) 
adgpu

>  <m_score__min__energy>  (20) 
-12.33

>  <m_primary>  (20) 
energy

$$$$
20:0
     RDKit          3D

 59 62  0  0  0  0  0  0  0  0999 V2000
   -4.0170   23.3130  -28.8590 O   0  0  0  0  0  0  0  0  0  0  0  0
   -3.4530   23.3550  -29.9860 C   0  0  0  0  0  0  0  0  0  0  0  0
   -4.2180   22.9570  -31.2100 C   0  0  0  0  0  0  0  0  0  0  0  0
   -3.5710   21.7640  -31.8550 C   0  0  0  0  0  0  0  0  0  0  0  0
   -2.8160   20.8640  -31.0850 C   0  0  0  0  0  0  0  0  0  0  0  0
   -2.1860   19.7720  -31.6900 C   0  0  0  0  0  0  0  0  0  0  0  0
   -2.2810   19.5810  -33.0820 C   0  0  0  0  0  0  0  0  0  0  0  0
   -1.6690   18.4650  -33.7500 N   0  0  0  0  0  0  0  0  0  0  0  0
   -2.1480   17.1150  -33.8220 C   0  0  0  0  0  0  0  0  0  0  0  0
   -1.3470   16.1420  -33.7970 O   0  0  0  0  0  0  0  0  0  0  0  0
   -3.6260   16.8670  -33.9670 C   0  0  0  0  0  0  0  0  0  0  0  0
   -4.2310   17.8180  -35.0220 C   0  0  0  0  0  0  0  0  0  0  0  0
   -5.7360   17.9770  -34.7960 C   0  0  0  0  0  0  0  0  0  0  0  0
   -6.0170   18.6150  -33.4880 N   0  0  0  0  0  0  0  0  0  0  0  0
   -7.4390   18.5370  -33.0830 C   0  0  0  0  0  0  0  0  0  0  0  0
   -8.0120   19.8510  -32.5920 C   0  0  0  0  0  0  0  0  0  0  0  0
   -7.1670   20.9450  -32.3340 C   0  0  0  0  0  0  0  0  0  0  0  0
   -7.6950   22.1570  -31.8770 C   0  0  0  0  0  0  0  0  0  0  0  0
   -9.0690   22.2820  -31.6560 C   0  0  0  0  0  0  0  0  0  0  0  0
   -9.9160   21.1940  -31.8840 C   0  0  0  0  0  0  0  0  0  0  0  0
   -9.3910   19.9810  -32.3420 C   0  0  0  0  0  0  0  0  0  0  0  0
   -5.0460   18.3110  -32.4070 C   0  0  0  0  0  0  0  0  0  0  0  0
   -4.3560   16.9510  -32.6020 C   0  0  0  0  0  0  0  0  0  0  0  0
   -3.0350   20.4780  -33.8440 C   0  0  0  0  0  0  0  0  0  0  0  0
   -3.6680   21.5680  -33.2400 C   0  0  0  0  0  0  0  0  0  0  0  0
   -2.0870   23.7700  -30.1080 N   0  0  0  0  0  0  0  0  0  0  0  0
   -1.1410   23.8900  -29.0350 C   0  0  0  0  0  0  0  0  0  0  0  0
   -0.4890   22.7660  -28.4960 C   0  0  0  0  0  0  0  0  0  0  0  0
    0.4120   22.9160  -27.4370 C   0  0  0  0  0  0  0  0  0  0  0  0
    1.0570   21.8020  -26.9120 O   0  0  0  0  0  0  0  0  0  0  0  0
    0.6580   24.1820  -26.9010 C   0  0  0  0  0  0  0  0  0  0  0  0
   -0.0070   25.2990  -27.4140 C   0  0  0  0  0  0  0  0  0  0  0  0
   -0.9090   25.1550  -28.4720 C   0  0  0  0  0  0  0  0  0  0  0  0
   -1.5690   26.2740  -28.9680 O   0  0  0  0  0  0  0  0  0  0  0  0
   -5.2505   22.7033  -30.9278 H   0  0  0  0  0  0  0  0  0  0  0  0
   -4.2212   23.7952  -31.9223 H   0  0  0  0  0  0  0  0  0  0  0  0
   -2.7198   21.0190  -30.0002 H   0  0  0  0  0  0  0  0  0  0  0  0
   -1.6144   19.0599  -31.0767 H   0  0  0  0  0  0  0  0  0  0  0  0
   -3.7724   15.8385  -34.3285 H   0  0  0  0  0  0  0  0  0  0  0  0
   -3.7466   18.8024  -34.9428 H   0  0  0  0  0  0  0  0  0  0  0  0
   -4.0633   17.3937  -36.0229 H   0  0  0  0  0  0  0  0  0  0  0  0
   -6.1551   18.6026  -35.5978 H   0  0  0  0  0  0  0  0  0  0  0  0
   -6.1967   16.9781  -34.8025 H   0  0  0  0  0  0  0  0  0  0  0  0
   -8.0282   18.2052  -33.9506 H   0  0  0  0  0  0  0  0  0  0  0  0
   -7.4922   17.8316  -32.2406 H   0  0  0  0  0  0  0  0  0  0  0  0
   -6.0829   20.8469  -32.4927 H   0  0  0  0  0  0  0  0  0  0  0  0
   -7.0283   23.0120  -31.6915 H   0  0  0  0  0  0  0  0  0  0  0  0
   -9.4842   23.2373  -31.3024 H   0  0  0  0  0  0  0  0  0  0  0  0
  -10.9966   21.2916  -31.7031 H   0  0  0  0  0  0  0  0  0  0  0  0
  -10.0599   19.1236  -32.5078 H   0  0  0  0  0  0  0  0  0  0  0  0
   -4.2774   19.0977  -32.3915 H   0  0  0  0  0  0  0  0  0  0  0  0
   -5.6024   18.2711  -31.4589 H   0  0  0  0  0  0  0  0  0  0  0  0
   -3.6219   16.8052  -31.7959 H   0  0  0  0  0  0  0  0  0  0  0  0
   -5.1289   16.1687  -32.5786 H   0  0  0  0  0  0  0  0  0  0  0  0
   -3.1311   20.3247  -34.9290 H   0  0  0  0  0  0  0  0  0  0  0  0
   -4.2449   22.2753  -33.8540 H   0  0  0  0  0  0  0  0  0  0  0  0
   -0.6885   21.7661  -28.9088 H   0  0  0  0  0  0  0  0  0  0  0  0
    1.3750   24.2999  -26.0752 H   0  0  0  0  0  0  0  0  0  0  0  0
    0.1799   26.2941  -26.9840 H   0  0  0  0  0  0  0  0  0  0  0  0
  1  2  2  0
  2  3  1  0
  3  4  1  0
  4  5  2  0
  5  6  1  0
  6  7  2  0
  7  8  1  0
  8  9  1  0
  9 10  2  0
  9 11  1  0
 11 12  1  0
 12 13  1  0
 13 14  1  0
 14 15  1  0
 15 16  1  0
 16 17  2  0
 17 18  1  0
 18 19  2  0
 19 20  1  0
 20 21  2  0
 14 22  1  0
 22 23  1  0
  7 24  1  0
 24 25  2  0
  2 26  1  0
 26 27  1  0
 27 28  2  0
 28 29  1  0
 29 30  1  0
 29 31  2  0
 31 32  1  0
 32 33  2  0
 33 34  1  0
 25  4  1  0
 33 27  1  0
 23 11  1  0
 21 16  1  0
  3 35  1  0
  3 36  1  0
  5 37  1  0
  6 38  1  0
 11 39  1  0
 12 40  1  0
 12 41  1  0
 13 42  1  0
 13 43  1  0
 15 44  1  0
 15 45  1  0
 17 46  1  0
 18 47  1  0
 19 48  1  0
 20 49  1  0
 21 50  1  0
 22 51  1  0
 22 52  1  0
 23 53  1  0
 23 54  1  0
 24 55  1  0
 25 56  1  0
 28 57  1  0
 31 58  1  0
 32 59  1  0
M  CHG  4   8  -1  26  -1  30  -1  34  -1
M  END
>  <UniqueID>  (21) 
20

>  <SMILES>  (21) 
O=C(Cc1ccc([N-]C(=O)C2CCN(Cc3ccccc3)CC2)cc1)[N-]c1cc([O-])ccc1[O-]

>  <Energy>  (21) 
78.4078389935834

>  <Genealogy>  (21) 
O=C(Cc1ccc([N-]C(=O)C2CCN(Cc3ccccc3)CC2)cc1)[N-]c1cc([O-])ccc1[O-] (protonated)
O=C(Cc1ccc([N-]C(=O)C2CCN(Cc3ccccc3)CC2)cc1)[N-]c1cc([O-])ccc1[O-] (3D coordinates assigned)
O=C(Cc1ccc([N-]C(=O)C2CCN(Cc3ccccc3)CC2)cc1)[N-]c1cc([O-])ccc1[O-] (nonaromatic ring conformer: 78.4078389935834 kcal/mol)

>  <smiles>  (21) 
O=C(Cc1ccc(NC(=O)C2CCN(Cc3ccccc3)CC2)cc1)Nc1cc(O)ccc1O

>  <score_type>  (21) 
oracle

>  <origin>  (21) 
adgpu

>  <m_score__min__energy>  (21) 
-14.91

>  <m_primary>  (21) 
energy

$$$$
21:0
     RDKit          3D

 52 54  0  0  0  0  0  0  0  0999 V2000
   -4.0600   18.9200  -32.2890 N   0  0  0  0  0  0  0  0  0  0  0  0
   -2.8710   19.9890  -32.9440 S   0  0  0  0  0  0  0  0  0  0  0  0
   -3.5460   21.0360  -33.7840 O   0  0  0  0  0  0  0  0  0  0  0  0
   -1.9230   19.2120  -33.8150 O   0  0  0  0  0  0  0  0  0  0  0  0
   -1.9820   20.7590  -31.6330 C   0  0  0  0  0  0  0  0  0  0  0  0
   -0.7840   20.2000  -31.1680 C   0  0  0  0  0  0  0  0  0  0  0  0
   -0.0930   20.8010  -30.1130 C   0  0  0  0  0  0  0  0  0  0  0  0
   -0.5940   21.9600  -29.5150 C   0  0  0  0  0  0  0  0  0  0  0  0
   -1.7910   22.5310  -29.9750 C   0  0  0  0  0  0  0  0  0  0  0  0
   -2.3540   23.7580  -29.3050 C   0  0  0  0  0  0  0  0  0  0  0  0
   -3.5980   23.4250  -28.4730 C   0  0  0  0  0  0  0  0  0  0  0  0
   -4.4910   24.5810  -28.3690 N   0  0  0  0  0  0  0  0  0  0  0  0
   -5.2260   24.9540  -29.9000 S   0  0  0  0  0  0  0  0  0  0  0  0
   -4.2030   25.5380  -30.8360 O   0  0  0  0  0  0  0  0  0  0  0  0
   -6.3140   25.9700  -29.6900 O   0  0  0  0  0  0  0  0  0  0  0  0
   -5.9330   23.4990  -30.5970 C   0  0  0  0  0  0  0  0  0  0  0  0
   -7.0720   22.9330  -30.0100 C   0  0  0  0  0  0  0  0  0  0  0  0
   -7.6350   21.7710  -30.5450 C   0  0  0  0  0  0  0  0  0  0  0  0
   -7.0680   21.1660  -31.6760 C   0  0  0  0  0  0  0  0  0  0  0  0
   -7.7760   19.6920  -32.3480 S   0  0  0  0  0  0  0  0  0  0  0  0
   -8.5570   18.9910  -31.2720 O   0  0  0  0  0  0  0  0  0  0  0  0
   -8.7300   20.0660  -33.4470 O   0  0  0  0  0  0  0  0  0  0  0  0
   -6.5760   18.5930  -32.9860 N   0  0  0  0  0  0  0  0  0  0  0  0
   -7.0890   17.2320  -33.1150 C   0  0  0  0  0  0  0  0  0  0  0  0
   -6.2620   16.5620  -34.2020 C   0  0  0  0  0  0  0  0  0  0  0  0
   -5.6400   17.7030  -34.9950 C   0  0  0  0  0  0  0  0  0  0  0  0
   -6.1390   18.9760  -34.3270 C   0  0  0  0  0  0  0  0  0  0  0  0
   -5.9190   21.7260  -32.2540 C   0  0  0  0  0  0  0  0  0  0  0  0
   -5.3560   22.8890  -31.7190 C   0  0  0  0  0  0  0  0  0  0  0  0
   -2.4870   21.9180  -31.0290 C   0  0  0  0  0  0  0  0  0  0  0  0
   -4.8740   19.5090  -32.0030 H   0  0  0  0  0  0  0  0  0  0  0  0
   -4.3870   18.3110  -33.0720 H   0  0  0  0  0  0  0  0  0  0  0  0
   -0.3870   19.2864  -31.6345 H   0  0  0  0  0  0  0  0  0  0  0  0
    0.8481   20.3605  -29.7522 H   0  0  0  0  0  0  0  0  0  0  0  0
   -0.0488   22.4265  -28.6812 H   0  0  0  0  0  0  0  0  0  0  0  0
   -1.5869   24.1878  -28.6441 H   0  0  0  0  0  0  0  0  0  0  0  0
   -2.6445   24.4749  -30.0871 H   0  0  0  0  0  0  0  0  0  0  0  0
   -4.1389   22.5958  -28.9525 H   0  0  0  0  0  0  0  0  0  0  0  0
   -3.2743   23.1429  -27.4603 H   0  0  0  0  0  0  0  0  0  0  0  0
   -7.5247   23.4045  -29.1253 H   0  0  0  0  0  0  0  0  0  0  0  0
   -8.5269   21.3290  -30.0768 H   0  0  0  0  0  0  0  0  0  0  0  0
   -6.9764   16.6913  -32.1637 H   0  0  0  0  0  0  0  0  0  0  0  0
   -8.1588   17.2319  -33.3710 H   0  0  0  0  0  0  0  0  0  0  0  0
   -5.4790   15.9309  -33.7564 H   0  0  0  0  0  0  0  0  0  0  0  0
   -6.8751   15.9070  -34.8384 H   0  0  0  0  0  0  0  0  0  0  0  0
   -4.5422   17.6495  -34.9504 H   0  0  0  0  0  0  0  0  0  0  0  0
   -5.9180   17.6622  -36.0585 H   0  0  0  0  0  0  0  0  0  0  0  0
   -5.3282   19.7168  -34.2660 H   0  0  0  0  0  0  0  0  0  0  0  0
   -6.9603   19.4318  -34.8996 H   0  0  0  0  0  0  0  0  0  0  0  0
   -5.4590   21.2484  -33.1316 H   0  0  0  0  0  0  0  0  0  0  0  0
   -4.4580   23.3261  -32.1800 H   0  0  0  0  0  0  0  0  0  0  0  0
   -3.4346   22.3503  -31.3828 H   0  0  0  0  0  0  0  0  0  0  0  0
  1  2  1  0
  2  3  2  0
  2  4  2  0
  2  5  1  0
  5  6  2  0
  6  7  1  0
  7  8  2  0
  8  9  1  0
  9 10  1  0
 10 11  1  0
 11 12  1  0
 12 13  1  0
 13 14  2  0
 13 15  2  0
 13 16  1  0
 16 17  2  0
 17 18  1  0
 18 19  2  0
 19 20  1  0
 20 21  2  0
 20 22  2  0
 20 23  1  0
 23 24  1  0
 24 25  1  0
 25 26  1  0
 26 27  1  0
 19 28  1  0
 28 29  2  0
  9 30  2  0
 30  5  1  0
 29 16  1  0
 27 23  1  0
  1 31  1  0
  1 32  1  0
  6 33  1  0
  7 34  1  0
  8 35  1  0
 10 36  1  0
 10 37  1  0
 11 38  1  0
 11 39  1  0
 17 40  1  0
 18 41  1  0
 24 42  1  0
 24 43  1  0
 25 44  1  0
 25 45  1  0
 26 46  1  0
 26 47  1  0
 27 48  1  0
 27 49  1  0
 28 50  1  0
 29 51  1  0
 30 52  1  0
M  CHG  1  12  -1
M  END
>  <UniqueID>  (22) 
21

>  <SMILES>  (22) 
NS(=O)(=O)c1cccc(CC[N-]S(=O)(=O)c2ccc(S(=O)(=O)N3CCCC3)cc2)c1

>  <Energy>  (22) 
49.79339328610721

>  <Genealogy>  (22) 
NS(=O)(=O)c1cccc(CC[N-]S(=O)(=O)c2ccc(S(=O)(=O)N3CCCC3)cc2)c1 (protonated)
NS(=O)(=O)c1cccc(CC[N-]S(=O)(=O)c2ccc(S(=O)(=O)N3CCCC3)cc2)c1 (3D coordinates assigned)
NS(=O)(=O)c1cccc(CC[N-]S(=O)(=O)c2ccc(S(=O)(=O)N3CCCC3)cc2)c1 (nonaromatic ring conformer: 49.79339328610721 kcal/mol)

>  <smiles>  (22) 
NS(=O)(=O)c1cccc(CCNS(=O)(=O)c2ccc(S(=O)(=O)N3CCCC3)cc2)c1

>  <score_type>  (22) 
oracle

>  <origin>  (22) 
adgpu

>  <m_score__min__energy>  (22) 
-12.279999999999999

>  <m_primary>  (22) 
energy

$$$$
22:0
     RDKit          3D

 47 49  0  0  0  0  0  0  0  0999 V2000
   -5.9180   16.7050  -34.0460 C   0  0  0  0  0  0  0  0  0  0  0  0
   -4.9630   17.6620  -34.4930 O   0  0  0  0  0  0  0  0  0  0  0  0
   -4.6280   18.8350  -33.8000 C   0  0  0  0  0  0  0  0  0  0  0  0
   -3.3600   19.0170  -33.2110 C   0  0  0  0  0  0  0  0  0  0  0  0
   -3.0590   20.1980  -32.5150 C   0  0  0  0  0  0  0  0  0  0  0  0
   -1.7000   20.4000  -31.8970 C   0  0  0  0  0  0  0  0  0  0  0  0
   -1.6860   19.8890  -30.5300 N   0  0  0  0  0  0  0  0  0  0  0  0
   -1.6280   20.7280  -29.3730 C   0  0  0  0  0  0  0  0  0  0  0  0
   -1.2270   20.2660  -28.2700 O   0  0  0  0  0  0  0  0  0  0  0  0
   -2.0400   22.1350  -29.4690 C   0  0  0  0  0  0  0  0  0  0  0  0
   -1.2330   23.2400  -29.2620 C   0  0  0  0  0  0  0  0  0  0  0  0
   -2.0530   24.3330  -29.4510 C   0  0  0  0  0  0  0  0  0  0  0  0
   -1.6510   25.6580  -29.3360 O   0  0  0  0  0  0  0  0  0  0  0  0
   -3.3070   23.9470  -29.7590 N   0  0  0  0  0  0  0  0  0  0  0  0
   -4.4370   24.8180  -30.0770 C   0  0  0  0  0  0  0  0  0  0  0  0
   -5.6020   23.9960  -30.5570 C   0  0  0  0  0  0  0  0  0  0  0  0
   -6.0690   24.1380  -31.8740 C   0  0  0  0  0  0  0  0  0  0  0  0
   -7.1710   23.3990  -32.3150 C   0  0  0  0  0  0  0  0  0  0  0  0
   -7.8150   22.5020  -31.4490 C   0  0  0  0  0  0  0  0  0  0  0  0
   -9.0210   21.7360  -31.9080 C   0  0  0  0  0  0  0  0  0  0  0  0
   -7.3660   22.3800  -30.1240 C   0  0  0  0  0  0  0  0  0  0  0  0
   -6.2650   23.1210  -29.6810 C   0  0  0  0  0  0  0  0  0  0  0  0
   -3.3060   22.6000  -29.7810 C   0  0  0  0  0  0  0  0  0  0  0  0
   -4.0250   21.2080  -32.4200 C   0  0  0  0  0  0  0  0  0  0  0  0
   -5.2830   21.0370  -33.0030 C   0  0  0  0  0  0  0  0  0  0  0  0
   -5.5900   19.8570  -33.6880 C   0  0  0  0  0  0  0  0  0  0  0  0
   -6.8580   19.7160  -34.2510 O   0  0  0  0  0  0  0  0  0  0  0  0
   -5.9339   16.6890  -32.9462 H   0  0  0  0  0  0  0  0  0  0  0  0
   -6.9146   16.9778  -34.4232 H   0  0  0  0  0  0  0  0  0  0  0  0
   -5.6431   15.7089  -34.4232 H   0  0  0  0  0  0  0  0  0  0  0  0
   -2.6000   18.2265  -33.2977 H   0  0  0  0  0  0  0  0  0  0  0  0
   -0.9467   19.8638  -32.4929 H   0  0  0  0  0  0  0  0  0  0  0  0
   -1.4701   21.4756  -31.8801 H   0  0  0  0  0  0  0  0  0  0  0  0
   -0.1642   23.2455  -29.0019 H   0  0  0  0  0  0  0  0  0  0  0  0
   -4.7316   25.3759  -29.1759 H   0  0  0  0  0  0  0  0  0  0  0  0
   -4.1395   25.5198  -30.8701 H   0  0  0  0  0  0  0  0  0  0  0  0
   -5.5656   24.8336  -32.5615 H   0  0  0  0  0  0  0  0  0  0  0  0
   -7.5349   23.5213  -33.3458 H   0  0  0  0  0  0  0  0  0  0  0  0
   -9.5834   21.3788  -31.0328 H   0  0  0  0  0  0  0  0  0  0  0  0
   -9.6633   22.3920  -32.5138 H   0  0  0  0  0  0  0  0  0  0  0  0
   -8.7003   20.8757  -32.5138 H   0  0  0  0  0  0  0  0  0  0  0  0
   -7.8822   21.6989  -29.4314 H   0  0  0  0  0  0  0  0  0  0  0  0
   -5.9173   23.0179  -28.6425 H   0  0  0  0  0  0  0  0  0  0  0  0
   -4.1762   21.9677  -30.0112 H   0  0  0  0  0  0  0  0  0  0  0  0
   -3.7920   22.1399  -31.8840 H   0  0  0  0  0  0  0  0  0  0  0  0
   -6.0361   21.8348  -32.9228 H   0  0  0  0  0  0  0  0  0  0  0  0
   -7.0690   18.9960  -34.9320 H   0  0  0  0  0  0  0  0  0  0  0  0
  1  2  1  0
  2  3  1  0
  3  4  2  0
  4  5  1  0
  5  6  1  0
  6  7  1  0
  7  8  1  0
  8  9  2  0
  8 10  1  0
 10 11  1  0
 11 12  2  0
 12 13  1  0
 12 14  1  0
 14 15  1  0
 15 16  1  0
 16 17  2  0
 17 18  1  0
 18 19  2  0
 19 20  1  0
 19 21  1  0
 21 22  2  0
 14 23  1  0
  5 24  2  0
 24 25  1  0
 25 26  2  0
 26 27  1  0
 26  3  1  0
 23 10  2  0
 22 16  1  0
  1 28  1  0
  1 29  1  0
  1 30  1  0
  4 31  1  0
  6 32  1  0
  6 33  1  0
 11 34  1  0
 15 35  1  0
 15 36  1  0
 17 37  1  0
 18 38  1  0
 20 39  1  0
 20 40  1  0
 20 41  1  0
 21 42  1  0
 22 43  1  0
 23 44  1  0
 24 45  1  0
 25 46  1  0
 27 47  1  0
M  CHG  2   7  -1  13  -1
M  END
>  <UniqueID>  (23) 
22

>  <SMILES>  (23) 
COc1cc(C[N-]C(=O)c2cc([O-])n(Cc3ccc(C)cc3)c2)ccc1O

>  <Energy>  (23) 
70.19138225929267

>  <Genealogy>  (23) 
COc1cc(C[N-]C(=O)c2cc([O-])n(Cc3ccc(C)cc3)c2)ccc1O (protonated)
COc1cc(C[N-]C(=O)c2cc([O-])n(Cc3ccc(C)cc3)c2)ccc1O (3D coordinates assigned)
COc1cc(C[N-]C(=O)c2cc([O-])n(Cc3ccc(C)cc3)c2)ccc1O (optimized conformer: 70.19138225929267 kcal/mol)

>  <smiles>  (23) 
COc1cc(CNC(=O)c2cc(O)n(Cc3ccc(C)cc3)c2)ccc1O

>  <score_type>  (23) 
oracle

>  <origin>  (23) 
adgpu

>  <m_score__min__energy>  (23) 
-10.48

>  <m_primary>  (23) 
energy

$$$$
23:0
     RDKit          3D

 42 44  0  0  0  0  0  0  0  0999 V2000
    2.0490   25.6490  -25.3380 C   0  0  0  0  0  0  0  0  0  0  0  0
    1.2200   25.3440  -26.5490 C   0  0  0  0  0  0  0  0  0  0  0  0
    1.7860   25.3370  -27.6740 O   0  0  0  0  0  0  0  0  0  0  0  0
   -0.2520   25.1460  -26.4510 C   0  0  0  0  0  0  0  0  0  0  0  0
   -1.0100   26.0150  -25.6390 C   0  0  0  0  0  0  0  0  0  0  0  0
   -2.4020   25.9160  -25.5880 C   0  0  0  0  0  0  0  0  0  0  0  0
   -3.0630   24.9550  -26.3490 C   0  0  0  0  0  0  0  0  0  0  0  0
   -2.3330   24.0750  -27.1470 C   0  0  0  0  0  0  0  0  0  0  0  0
   -0.9330   24.1420  -27.1900 C   0  0  0  0  0  0  0  0  0  0  0  0
   -0.0700   22.9060  -28.1820 S   0  0  0  0  0  0  0  0  0  0  0  0
   -1.1930   21.5780  -27.7270 C   0  0  0  0  0  0  0  0  0  0  0  0
   -1.1280   21.0400  -26.4340 C   0  0  0  0  0  0  0  0  0  0  0  0
   -1.9860   20.0070  -26.0560 C   0  0  0  0  0  0  0  0  0  0  0  0
   -2.9310   19.5170  -26.9590 C   0  0  0  0  0  0  0  0  0  0  0  0
   -3.0180   20.0600  -28.2440 C   0  0  0  0  0  0  0  0  0  0  0  0
   -2.1430   21.0910  -28.6440 C   0  0  0  0  0  0  0  0  0  0  0  0
   -2.2290   21.6820  -29.9130 O   0  0  0  0  0  0  0  0  0  0  0  0
   -2.7140   22.9690  -30.1820 C   0  0  0  0  0  0  0  0  0  0  0  0
   -1.9500   23.9660  -30.0740 O   0  0  0  0  0  0  0  0  0  0  0  0
   -4.1470   23.1720  -30.5220 C   0  0  0  0  0  0  0  0  0  0  0  0
   -4.9790   22.0510  -30.7210 C   0  0  0  0  0  0  0  0  0  0  0  0
   -6.3240   22.2130  -31.0610 C   0  0  0  0  0  0  0  0  0  0  0  0
   -6.8600   23.4910  -31.2080 C   0  0  0  0  0  0  0  0  0  0  0  0
   -6.0530   24.6130  -31.0110 C   0  0  0  0  0  0  0  0  0  0  0  0
   -4.7010   24.4660  -30.6650 C   0  0  0  0  0  0  0  0  0  0  0  0
   -3.9210   25.6050  -30.4660 O   0  0  0  0  0  0  0  0  0  0  0  0
    1.4654   25.4343  -24.4306 H   0  0  0  0  0  0  0  0  0  0  0  0
    2.9551   25.0254  -25.3473 H   0  0  0  0  0  0  0  0  0  0  0  0
    2.3348   26.7112  -25.3473 H   0  0  0  0  0  0  0  0  0  0  0  0
   -0.4980   26.7809  -25.0379 H   0  0  0  0  0  0  0  0  0  0  0  0
   -2.9776   26.5985  -24.9454 H   0  0  0  0  0  0  0  0  0  0  0  0
   -4.1607   24.8902  -26.3205 H   0  0  0  0  0  0  0  0  0  0  0  0
   -2.8607   23.3205  -27.7489 H   0  0  0  0  0  0  0  0  0  0  0  0
   -0.3964   21.4346  -25.7136 H   0  0  0  0  0  0  0  0  0  0  0  0
   -1.9178   19.5782  -25.0453 H   0  0  0  0  0  0  0  0  0  0  0  0
   -3.6075   18.7031  -26.6592 H   0  0  0  0  0  0  0  0  0  0  0  0
   -3.7737   19.6808  -28.9476 H   0  0  0  0  0  0  0  0  0  0  0  0
   -4.5645   21.0385  -30.6073 H   0  0  0  0  0  0  0  0  0  0  0  0
   -6.9617   21.3297  -31.2131 H   0  0  0  0  0  0  0  0  0  0  0  0
   -7.9187   23.6156  -31.4792 H   0  0  0  0  0  0  0  0  0  0  0  0
   -6.4802   25.6199  -31.1279 H   0  0  0  0  0  0  0  0  0  0  0  0
   -2.9770   25.6750  -30.8280 H   0  0  0  0  0  0  0  0  0  0  0  0
  1  2  1  0
  2  3  2  0
  2  4  1  0
  4  5  2  0
  5  6  1  0
  6  7  2  0
  7  8  1  0
  8  9  2  0
  9 10  1  0
 10 11  1  0
 11 12  2  0
 12 13  1  0
 13 14  2  0
 14 15  1  0
 15 16  2  0
 16 17  1  0
 17 18  1  0
 18 19  2  0
 18 20  1  0
 20 21  2  0
 21 22  1  0
 22 23  2  0
 23 24  1  0
 24 25  2  0
 25 26  1  0
  9  4  1  0
 16 11  1  0
 25 20  1  0
  1 27  1  0
  1 28  1  0
  1 29  1  0
  5 30  1  0
  6 31  1  0
  7 32  1  0
  8 33  1  0
 12 34  1  0
 13 35  1  0
 14 36  1  0
 15 37  1  0
 21 38  1  0
 22 39  1  0
 23 40  1  0
 24 41  1  0
 26 42  1  0
M  END
>  <UniqueID>  (24) 
23

>  <SMILES>  (24) 
CC(=O)c1ccccc1Sc1ccccc1OC(=O)c1ccccc1O

>  <Energy>  (24) 
48.434494041876775

>  <Genealogy>  (24) 
CC(=O)c1ccccc1Sc1ccccc1OC(=O)c1ccccc1O (3D coordinates assigned)
CC(=O)c1ccccc1Sc1ccccc1OC(=O)c1ccccc1O (optimized conformer: 48.434494041876775 kcal/mol)

>  <smiles>  (24) 
CC(=O)c1ccccc1Sc1ccccc1OC(=O)c1ccccc1O

>  <score_type>  (24) 
oracle

>  <origin>  (24) 
adgpu

>  <m_score__min__energy>  (24) 
-9.6099999999999994

>  <m_primary>  (24) 
energy

$$$$
24:0
     RDKit          3D

 58 60  0  0  0  0  0  0  0  0999 V2000
   -2.5840   18.9700  -32.7110 C   0  0  0  0  0  0  0  0  0  0  0  0
   -2.4070   19.9350  -31.5430 C   0  0  0  0  0  0  0  0  0  0  0  0
   -1.9500   21.2540  -32.0320 N   0  0  0  0  0  0  0  0  0  0  0  0
   -0.5040   21.4790  -31.7860 C   0  0  0  0  0  0  0  0  0  0  0  0
    0.1240   20.5130  -30.7710 C   0  0  0  0  0  0  0  0  0  0  0  0
   -2.3660   21.5070  -33.4300 C   0  0  0  0  0  0  0  0  0  0  0  0
   -3.8390   21.9280  -33.4980 C   0  0  0  0  0  0  0  0  0  0  0  0
   -4.3380   22.2810  -32.1670 N   0  0  0  0  0  0  0  0  0  0  0  0
   -5.6880   22.0370  -31.7070 C   0  0  0  0  0  0  0  0  0  0  0  0
   -6.3240   20.8080  -31.9790 C   0  0  0  0  0  0  0  0  0  0  0  0
   -7.6340   20.5720  -31.5590 C   0  0  0  0  0  0  0  0  0  0  0  0
   -8.3340   21.5570  -30.8670 C   0  0  0  0  0  0  0  0  0  0  0  0
   -7.7260   22.7790  -30.5870 C   0  0  0  0  0  0  0  0  0  0  0  0
   -6.4050   23.0330  -30.9940 C   0  0  0  0  0  0  0  0  0  0  0  0
   -5.6730   24.5900  -30.5730 S   0  0  0  0  0  0  0  0  0  0  0  0
   -6.1190   24.9760  -29.1920 O   0  0  0  0  0  0  0  0  0  0  0  0
   -6.1010   25.6260  -31.5740 O   0  0  0  0  0  0  0  0  0  0  0  0
   -3.9420   24.4570  -30.5980 N   0  0  0  0  0  0  0  0  0  0  0  0
   -3.1020   23.7950  -29.6380 C   0  0  0  0  0  0  0  0  0  0  0  0
   -3.4070   22.4670  -29.3200 C   0  0  0  0  0  0  0  0  0  0  0  0
   -2.6510   21.7520  -28.3810 C   0  0  0  0  0  0  0  0  0  0  0  0
   -1.5280   22.3650  -27.7810 C   0  0  0  0  0  0  0  0  0  0  0  0
   -1.2180   23.6930  -28.1040 C   0  0  0  0  0  0  0  0  0  0  0  0
   -1.9840   24.4070  -29.0300 C   0  0  0  0  0  0  0  0  0  0  0  0
   -1.6050   25.7060  -29.3410 O   0  0  0  0  0  0  0  0  0  0  0  0
   -0.7100   21.6610  -26.7250 C   0  0  0  0  0  0  0  0  0  0  0  0
   -0.8990   20.1410  -26.7460 C   0  0  0  0  0  0  0  0  0  0  0  0
   -2.3840   19.7870  -26.8120 C   0  0  0  0  0  0  0  0  0  0  0  0
   -2.9950   20.3050  -28.1170 C   0  0  0  0  0  0  0  0  0  0  0  0
   -2.7698   17.9570  -32.3247 H   0  0  0  0  0  0  0  0  0  0  0  0
   -3.4383   19.2906  -33.3253 H   0  0  0  0  0  0  0  0  0  0  0  0
   -1.6715   18.9665  -33.3253 H   0  0  0  0  0  0  0  0  0  0  0  0
   -3.3684   20.0543  -31.0219 H   0  0  0  0  0  0  0  0  0  0  0  0
   -1.6528   19.5279  -30.8535 H   0  0  0  0  0  0  0  0  0  0  0  0
    0.0290   21.3682  -32.7418 H   0  0  0  0  0  0  0  0  0  0  0  0
   -0.4114   22.4881  -31.3582 H   0  0  0  0  0  0  0  0  0  0  0  0
   -0.0997   20.8571  -29.7504 H   0  0  0  0  0  0  0  0  0  0  0  0
   -0.2922   19.5054  -30.9177 H   0  0  0  0  0  0  0  0  0  0  0  0
    1.2138   20.4845  -30.9177 H   0  0  0  0  0  0  0  0  0  0  0  0
   -1.7428   22.3097  -33.8510 H   0  0  0  0  0  0  0  0  0  0  0  0
   -2.2402   20.5786  -34.0063 H   0  0  0  0  0  0  0  0  0  0  0  0
   -3.9353   22.7992  -34.1626 H   0  0  0  0  0  0  0  0  0  0  0  0
   -4.4303   21.0853  -33.8856 H   0  0  0  0  0  0  0  0  0  0  0  0
   -3.6600   22.7660  -31.5410 H   0  0  0  0  0  0  0  0  0  0  0  0
   -5.7808   20.0255  -32.5291 H   0  0  0  0  0  0  0  0  0  0  0  0
   -8.1143   19.6062  -31.7750 H   0  0  0  0  0  0  0  0  0  0  0  0
   -9.3679   21.3702  -30.5411 H   0  0  0  0  0  0  0  0  0  0  0  0
   -8.2858   23.5531  -30.0417 H   0  0  0  0  0  0  0  0  0  0  0  0
   -4.2563   21.9747  -29.8164 H   0  0  0  0  0  0  0  0  0  0  0  0
   -0.3585   24.1811  -27.6213 H   0  0  0  0  0  0  0  0  0  0  0  0
    0.3532   21.8857  -26.8957 H   0  0  0  0  0  0  0  0  0  0  0  0
   -1.0505   22.0244  -25.7442 H   0  0  0  0  0  0  0  0  0  0  0  0
   -0.3882   19.7249  -27.6269 H   0  0  0  0  0  0  0  0  0  0  0  0
   -0.4729   19.7169  -25.8249 H   0  0  0  0  0  0  0  0  0  0  0  0
   -2.4991   18.6940  -26.7659 H   0  0  0  0  0  0  0  0  0  0  0  0
   -2.9023   20.2561  -25.9627 H   0  0  0  0  0  0  0  0  0  0  0  0
   -2.6171   19.6946  -28.9504 H   0  0  0  0  0  0  0  0  0  0  0  0
   -4.0889   20.2320  -28.0266 H   0  0  0  0  0  0  0  0  0  0  0  0
  1  2  1  0
  2  3  1  0
  3  4  1  0
  4  5  1  0
  3  6  1  0
  6  7  1  0
  7  8  1  0
  8  9  1  0
  9 10  2  0
 10 11  1  0
 11 12  2  0
 12 13  1  0
 13 14  2  0
 14 15  1  0
 15 16  2  0
 15 17  2  0
 15 18  1  0
 18 19  1  0
 19 20  2  0
 20 21  1  0
 21 22  2  0
 22 23  1  0
 23 24  2  0
 24 25  1  0
 22 26  1  0
 26 27  1  0
 27 28  1  0
 28 29  1  0
 14  9  1  0
 24 19  1  0
 29 21  1  0
  1 30  1  0
  1 31  1  0
  1 32  1  0
  2 33  1  0
  2 34  1  0
  4 35  1  0
  4 36  1  0
  5 37  1  0
  5 38  1  0
  5 39  1  0
  6 40  1  0
  6 41  1  0
  7 42  1  0
  7 43  1  0
  8 44  1  0
 10 45  1  0
 11 46  1  0
 12 47  1  0
 13 48  1  0
 20 49  1  0
 23 50  1  0
 26 51  1  0
 26 52  1  0
 27 53  1  0
 27 54  1  0
 28 55  1  0
 28 56  1  0
 29 57  1  0
 29 58  1  0
M  CHG  2  18  -1  25  -1
M  END
>  <UniqueID>  (25) 
24

>  <SMILES>  (25) 
CCN(CC)CCNc1ccccc1S(=O)(=O)[N-]c1cc2c(cc1[O-])CCCC2

>  <Energy>  (25) 
67.79038835884057

>  <Genealogy>  (25) 
CCN(CC)CCNc1ccccc1S(=O)(=O)[N-]c1cc2c(cc1[O-])CCCC2 (protonated)
CCN(CC)CCNc1ccccc1S(=O)(=O)[N-]c1cc2c(cc1[O-])CCCC2 (3D coordinates assigned)
CCN(CC)CCNc1ccccc1S(=O)(=O)[N-]c1cc2c(cc1[O-])CCCC2 (nonaromatic ring conformer: 67.79038835884057 kcal/mol)

>  <smiles>  (25) 
CCN(CC)CCNc1ccccc1S(=O)(=O)Nc1cc2c(cc1O)CCCC2

>  <score_type>  (25) 
oracle

>  <origin>  (25) 
adgpu

>  <m_score__min__energy>  (25) 
-13.08

>  <m_primary>  (25) 
energy

$$$$
25:0
     RDKit          3D

 54 56  0  0  0  0  0  0  0  0999 V2000
   -5.5730   18.2310  -34.0250 C   0  0  0  0  0  0  0  0  0  0  0  0
   -5.5080   19.6480  -34.1500 O   0  0  0  0  0  0  0  0  0  0  0  0
   -4.9890   20.4750  -33.1460 C   0  0  0  0  0  0  0  0  0  0  0  0
   -3.7830   20.3560  -32.8020 O   0  0  0  0  0  0  0  0  0  0  0  0
   -5.8600   21.4950  -32.5040 C   0  0  0  0  0  0  0  0  0  0  0  0
   -5.2710   22.6300  -31.9180 C   0  0  0  0  0  0  0  0  0  0  0  0
   -6.0510   23.5840  -31.2510 C   0  0  0  0  0  0  0  0  0  0  0  0
   -5.2990   24.9460  -30.4170 S   0  0  0  0  0  0  0  0  0  0  0  0
   -5.6900   24.8950  -28.9620 O   0  0  0  0  0  0  0  0  0  0  0  0
   -5.7740   26.2480  -31.0100 O   0  0  0  0  0  0  0  0  0  0  0  0
   -3.5680   24.8540  -30.5410 N   0  0  0  0  0  0  0  0  0  0  0  0
   -2.7670   24.0870  -29.6360 C   0  0  0  0  0  0  0  0  0  0  0  0
   -3.0240   22.7240  -29.5060 C   0  0  0  0  0  0  0  0  0  0  0  0
   -2.2220   21.9320  -28.6900 C   0  0  0  0  0  0  0  0  0  0  0  0
   -1.1550   22.4900  -27.9630 C   0  0  0  0  0  0  0  0  0  0  0  0
   -0.2900   21.5470  -27.1630 C   0  0  0  0  0  0  0  0  0  0  0  0
   -0.9160   23.8960  -28.0360 C   0  0  0  0  0  0  0  0  0  0  0  0
    0.4030   24.7020  -27.1290 S   0  0  0  0  0  0  0  0  0  0  0  0
    1.5790   24.8760  -28.0540 O   0  0  0  0  0  0  0  0  0  0  0  0
    0.8760   23.8330  -25.9980 O   0  0  0  0  0  0  0  0  0  0  0  0
   -0.0410   26.2670  -26.4660 N   0  0  0  0  0  0  0  0  0  0  0  0
    0.9840   26.8530  -25.5830 C   0  0  0  0  0  0  0  0  0  0  0  0
    0.9150   26.3280  -24.1340 C   0  0  0  0  0  0  0  0  0  0  0  0
   -0.5220   26.0720  -23.6450 C   0  0  0  0  0  0  0  0  0  0  0  0
   -1.5510   26.7980  -24.5070 C   0  0  0  0  0  0  0  0  0  0  0  0
   -1.4360   26.3480  -25.9710 C   0  0  0  0  0  0  0  0  0  0  0  0
   -1.7370   24.6800  -28.8850 C   0  0  0  0  0  0  0  0  0  0  0  0
   -1.5460   26.0550  -28.9790 O   0  0  0  0  0  0  0  0  0  0  0  0
   -7.4390   23.4210  -31.1890 C   0  0  0  0  0  0  0  0  0  0  0  0
   -8.0430   22.3120  -31.7830 C   0  0  0  0  0  0  0  0  0  0  0  0
   -7.2670   21.3450  -32.4370 C   0  0  0  0  0  0  0  0  0  0  0  0
   -7.8970   20.2390  -33.0110 O   0  0  0  0  0  0  0  0  0  0  0  0
   -5.5856   17.9571  -32.9597 H   0  0  0  0  0  0  0  0  0  0  0  0
   -6.4890   17.8618  -34.5094 H   0  0  0  0  0  0  0  0  0  0  0  0
   -4.6946   17.7795  -34.5094 H   0  0  0  0  0  0  0  0  0  0  0  0
   -4.1821   22.7707  -31.9843 H   0  0  0  0  0  0  0  0  0  0  0  0
   -3.8654   22.2715  -30.0513 H   0  0  0  0  0  0  0  0  0  0  0  0
   -2.4254   20.8538  -28.6124 H   0  0  0  0  0  0  0  0  0  0  0  0
   -0.4515   21.7230  -26.0892 H   0  0  0  0  0  0  0  0  0  0  0  0
   -0.5559   20.5082  -27.4083 H   0  0  0  0  0  0  0  0  0  0  0  0
    0.7678   21.7224  -27.4083 H   0  0  0  0  0  0  0  0  0  0  0  0
    1.9762   26.6144  -25.9937 H   0  0  0  0  0  0  0  0  0  0  0  0
    0.8001   27.9369  -25.5455 H   0  0  0  0  0  0  0  0  0  0  0  0
    1.4759   25.3834  -24.0782 H   0  0  0  0  0  0  0  0  0  0  0  0
    1.3452   27.1056  -23.4857 H   0  0  0  0  0  0  0  0  0  0  0  0
   -0.7241   24.9914  -23.6833 H   0  0  0  0  0  0  0  0  0  0  0  0
   -0.6067   26.4535  -22.6168 H   0  0  0  0  0  0  0  0  0  0  0  0
   -2.5609   26.5693  -24.1358 H   0  0  0  0  0  0  0  0  0  0  0  0
   -1.3637   27.8805  -24.4506 H   0  0  0  0  0  0  0  0  0  0  0  0
   -1.8952   25.3528  -26.0647 H   0  0  0  0  0  0  0  0  0  0  0  0
   -1.9476   27.1078  -26.5800 H   0  0  0  0  0  0  0  0  0  0  0  0
   -8.0563   24.1693  -30.6704 H   0  0  0  0  0  0  0  0  0  0  0  0
   -9.1359   22.1958  -31.7377 H   0  0  0  0  0  0  0  0  0  0  0  0
   -7.6410   19.8970  -33.9320 H   0  0  0  0  0  0  0  0  0  0  0  0
  1  2  1  0
  2  3  1  0
  3  4  2  0
  3  5  1  0
  5  6  2  0
  6  7  1  0
  7  8  1  0
  8  9  2  0
  8 10  2  0
  8 11  1  0
 11 12  1  0
 12 13  2  0
 13 14  1  0
 14 15  2  0
 15 16  1  0
 15 17  1  0
 17 18  1  0
 18 19  2  0
 18 20  2  0
 18 21  1  0
 21 22  1  0
 22 23  1  0
 23 24  1  0
 24 25  1  0
 25 26  1  0
 17 27  2  0
 27 28  1  0
  7 29  2  0
 29 30  1  0
 30 31  2  0
 31 32  1  0
 31  5  1  0
 27 12  1  0
 26 21  1  0
  1 33  1  0
  1 34  1  0
  1 35  1  0
  6 36  1  0
 13 37  1  0
 14 38  1  0
 16 39  1  0
 16 40  1  0
 16 41  1  0
 22 42  1  0
 22 43  1  0
 23 44  1  0
 23 45  1  0
 24 46  1  0
 24 47  1  0
 25 48  1  0
 25 49  1  0
 26 50  1  0
 26 51  1  0
 29 52  1  0
 30 53  1  0
 32 54  1  0
M  CHG  2  11  -1  28  -1
M  END
>  <UniqueID>  (26) 
25

>  <SMILES>  (26) 
COC(=O)c1cc(S(=O)(=O)[N-]c2ccc(C)c(S(=O)(=O)N3CCCCC3)c2[O-])ccc1O

>  <Energy>  (26) 
75.34532334125458

>  <Genealogy>  (26) 
COC(=O)c1cc(S(=O)(=O)[N-]c2ccc(C)c(S(=O)(=O)N3CCCCC3)c2[O-])ccc1O (protonated)
COC(=O)c1cc(S(=O)(=O)[N-]c2ccc(C)c(S(=O)(=O)N3CCCCC3)c2[O-])ccc1O (3D coordinates assigned)
COC(=O)c1cc(S(=O)(=O)[N-]c2ccc(C)c(S(=O)(=O)N3CCCCC3)c2[O-])ccc1O (nonaromatic ring conformer: 75.34532334125458 kcal/mol)

>  <smiles>  (26) 
COC(=O)c1cc(S(=O)(=O)Nc2ccc(C)c(S(=O)(=O)N3CCCCC3)c2O)ccc1O

>  <score_type>  (26) 
oracle

>  <origin>  (26) 
adgpu

>  <m_score__min__energy>  (26) 
-14.69

>  <m_primary>  (26) 
energy

$$$$
26:0
     RDKit          3D

 42 44  0  0  0  0  0  0  0  0999 V2000
   -8.5240   21.5390  -32.2450 C   0  0  0  0  0  0  0  0  0  0  0  0
   -7.0840   21.9170  -32.0160 C   0  0  0  0  0  0  0  0  0  0  0  0
   -6.8030   23.1460  -31.3940 C   0  0  0  0  0  0  0  0  0  0  0  0
   -5.4770   23.5800  -31.2160 C   0  0  0  0  0  0  0  0  0  0  0  0
   -5.1920   24.8790  -30.5620 C   0  0  0  0  0  0  0  0  0  0  0  0
   -3.8590   25.3820  -30.4970 N   0  0  0  0  0  0  0  0  0  0  0  0
   -6.1280   25.5550  -30.0540 O   0  0  0  0  0  0  0  0  0  0  0  0
   -4.4300   22.7690  -31.6790 C   0  0  0  0  0  0  0  0  0  0  0  0
   -4.6990   21.5400  -32.2810 C   0  0  0  0  0  0  0  0  0  0  0  0
   -6.0140   21.0810  -32.4130 C   0  0  0  0  0  0  0  0  0  0  0  0
   -6.2340   19.7840  -32.9910 N   0  0  0  0  0  0  0  0  0  0  0  0
   -6.9730   18.7510  -32.3230 C   0  0  0  0  0  0  0  0  0  0  0  0
   -7.4560   18.9530  -31.1750 O   0  0  0  0  0  0  0  0  0  0  0  0
   -7.1940   17.4260  -32.9970 C   0  0  0  0  0  0  0  0  0  0  0  0
   -5.9670   16.5060  -32.9140 C   0  0  0  0  0  0  0  0  0  0  0  0
   -4.7970   16.7920  -34.2410 S   0  0  0  0  0  0  0  0  0  0  0  0
   -5.3510   17.8380  -35.1690 O   0  0  0  0  0  0  0  0  0  0  0  0
   -4.6070   15.5180  -35.0140 O   0  0  0  0  0  0  0  0  0  0  0  0
   -3.2330   17.3110  -33.6140 C   0  0  0  0  0  0  0  0  0  0  0  0
   -2.3280   16.3960  -33.0330 C   0  0  0  0  0  0  0  0  0  0  0  0
   -1.0770   16.8370  -32.5390 C   0  0  0  0  0  0  0  0  0  0  0  0
   -0.7130   18.1950  -32.6260 C   0  0  0  0  0  0  0  0  0  0  0  0
   -1.6330   19.0660  -33.1980 C   0  0  0  0  0  0  0  0  0  0  0  0
   -1.5360   20.3880  -33.3900 N   0  0  0  0  0  0  0  0  0  0  0  0
   -2.6700   20.7180  -33.9570 O   0  0  0  0  0  0  0  0  0  0  0  0
   -3.4920   19.7150  -34.1470 N   0  0  0  0  0  0  0  0  0  0  0  0
   -2.8360   18.6490  -33.6640 C   0  0  0  0  0  0  0  0  0  0  0  0
   -9.0270   21.4070  -31.2757 H   0  0  0  0  0  0  0  0  0  0  0  0
   -9.0263   22.3357  -32.8133 H   0  0  0  0  0  0  0  0  0  0  0  0
   -8.5702   20.5983  -32.8133 H   0  0  0  0  0  0  0  0  0  0  0  0
   -7.6320   23.7773  -31.0415 H   0  0  0  0  0  0  0  0  0  0  0  0
   -3.4990   26.0460  -31.2180 H   0  0  0  0  0  0  0  0  0  0  0  0
   -3.3887   23.1051  -31.5663 H   0  0  0  0  0  0  0  0  0  0  0  0
   -3.8680   20.9247  -32.6562 H   0  0  0  0  0  0  0  0  0  0  0  0
   -5.6630   19.5220  -33.8260 H   0  0  0  0  0  0  0  0  0  0  0  0
   -8.0443   16.9228  -32.5134 H   0  0  0  0  0  0  0  0  0  0  0  0
   -7.3894   17.6235  -34.0613 H   0  0  0  0  0  0  0  0  0  0  0  0
   -5.4599   16.6815  -31.9538 H   0  0  0  0  0  0  0  0  0  0  0  0
   -6.3228   15.4689  -33.0026 H   0  0  0  0  0  0  0  0  0  0  0  0
   -2.5974   15.3317  -32.9637 H   0  0  0  0  0  0  0  0  0  0  0  0
   -0.3841   16.1140  -32.0839 H   0  0  0  0  0  0  0  0  0  0  0  0
    0.2597   18.5517  -32.2563 H   0  0  0  0  0  0  0  0  0  0  0  0
  1  2  1  0
  2  3  2  0
  3  4  1  0
  4  5  1  0
  5  6  1  0
  5  7  2  0
  4  8  2  0
  8  9  1  0
  9 10  2  0
 10 11  1  0
 11 12  1  0
 12 13  2  0
 12 14  1  0
 14 15  1  0
 15 16  1  0
 16 17  2  0
 16 18  2  0
 16 19  1  0
 19 20  2  0
 20 21  1  0
 21 22  2  0
 22 23  1  0
 23 24  2  0
 24 25  1  0
 25 26  1  0
 26 27  2  0
 10  2  1  0
 27 19  1  0
 27 23  1  0
  1 28  1  0
  1 29  1  0
  1 30  1  0
  3 31  1  0
  6 32  1  0
  8 33  1  0
  9 34  1  0
 11 35  1  0
 14 36  1  0
 14 37  1  0
 15 38  1  0
 15 39  1  0
 20 40  1  0
 21 41  1  0
 22 42  1  0
M  CHG  1   6  -1
M  END
>  <UniqueID>  (27) 
26

>  <SMILES>  (27) 
Cc1cc(C([NH-])=O)ccc1NC(=O)CCS(=O)(=O)c1cccc2nonc12

>  <Energy>  (27) 
85.51859607583324

>  <Genealogy>  (27) 
Cc1cc(C([NH-])=O)ccc1NC(=O)CCS(=O)(=O)c1cccc2nonc12 (protonated)
Cc1cc(C([NH-])=O)ccc1NC(=O)CCS(=O)(=O)c1cccc2nonc12 (3D coordinates assigned)
Cc1cc(C([NH-])=O)ccc1NC(=O)CCS(=O)(=O)c1cccc2nonc12 (optimized conformer: 85.51859607583324 kcal/mol)

>  <smiles>  (27) 
Cc1cc(C(N)=O)ccc1NC(=O)CCS(=O)(=O)c1cccc2nonc12

>  <score_type>  (27) 
oracle

>  <origin>  (27) 
adgpu

>  <m_score__min__energy>  (27) 
-11.699999999999999

>  <m_primary>  (27) 
energy

$$$$
27:0
     RDKit          3D

 47 49  0  0  1  0  0  0  0  0999 V2000
   -0.2030   21.6320  -30.9860 C   0  0  0  0  0  0  0  0  0  0  0  0
   -0.5300   20.8050  -32.1650 C   0  0  0  0  0  0  0  0  0  0  0  0
   -1.7270   20.1880  -32.4200 C   0  0  0  0  0  0  0  0  0  0  0  0
   -1.5600   19.5440  -33.6250 C   0  0  0  0  0  0  0  0  0  0  0  0
   -2.4170   18.8460  -34.2200 N   0  0  0  0  0  0  0  0  0  0  0  0
   -3.7370   18.5330  -33.8480 C   0  0  0  0  0  0  0  0  0  0  0  0
   -4.1740   17.2480  -34.2220 C   0  0  0  0  0  0  0  0  0  0  0  0
   -5.4320   16.8210  -33.9500 C   0  0  0  0  0  0  0  0  0  0  0  0
   -5.8320   15.5150  -34.3320 N   0  0  0  0  0  0  0  0  0  0  0  0
   -4.8610   14.4640  -34.5340 C   0  0  0  0  0  0  0  0  0  0  0  0
   -7.2310   15.1930  -34.5490 C   0  0  0  0  0  0  0  0  0  0  0  0
   -6.2700   17.6400  -33.3140 N   0  0  0  0  0  0  0  0  0  0  0  0
   -5.8530   18.8990  -32.9430 C   0  0  0  0  0  0  0  0  0  0  0  0
   -6.7360   19.5980  -32.3500 N   0  0  0  0  0  0  0  0  0  0  0  0
   -6.5110   20.9010  -31.8910 C   0  0  0  0  0  0  0  0  0  0  0  0
   -7.2780   22.0040  -32.0590 C   0  0  0  0  0  0  0  0  0  0  0  0
   -6.9220   23.2600  -31.5530 C   0  0  0  0  0  0  0  0  0  0  0  0
   -5.7510   23.4040  -30.8520 C   0  0  0  0  0  0  0  0  0  0  0  0
   -5.2020   24.9300  -30.1960 S   0  0  0  0  0  0  0  0  0  0  0  0
   -4.9790   24.6430  -28.4920 N   0  0  0  0  0  0  0  0  0  0  0  0
   -3.8940   25.3020  -30.8280 O   0  0  0  0  0  0  0  0  0  0  0  0
   -6.2120   26.0070  -30.3440 O   0  0  0  0  0  0  0  0  0  0  0  0
   -4.9540   22.3050  -30.6640 C   0  0  0  0  0  0  0  0  0  0  0  0
   -5.3140   21.0790  -31.1660 C   0  0  0  0  0  0  0  0  0  0  0  0
   -4.6060   19.3160  -33.2150 N   0  0  0  0  0  0  0  0  0  0  0  0
   -0.2940   19.7660  -34.0880 N   0  0  0  0  0  0  0  0  0  0  0  0
    0.3080   20.5270  -33.1920 N   0  0  0  0  0  0  0  0  0  0  0  0
   -0.4263   21.0674  -30.0688 H   0  0  0  0  0  0  0  0  0  0  0  0
    0.8656   21.8921  -31.0055 H   0  0  0  0  0  0  0  0  0  0  0  0
   -0.8048   22.5526  -31.0055 H   0  0  0  0  0  0  0  0  0  0  0  0
   -2.6310   20.2041  -31.7935 H   0  0  0  0  0  0  0  0  0  0  0  0
   -3.4795   16.5753  -34.7466 H   0  0  0  0  0  0  0  0  0  0  0  0
   -4.5162   14.0908  -33.5583 H   0  0  0  0  0  0  0  0  0  0  0  0
   -5.3235   13.6411  -35.0987 H   0  0  0  0  0  0  0  0  0  0  0  0
   -4.0041   14.8600  -35.0987 H   0  0  0  0  0  0  0  0  0  0  0  0
   -7.7354   15.0769  -33.5784 H   0  0  0  0  0  0  0  0  0  0  0  0
   -7.7102   16.0043  -35.1165 H   0  0  0  0  0  0  0  0  0  0  0  0
   -7.3073   14.2538  -35.1165 H   0  0  0  0  0  0  0  0  0  0  0  0
   -7.2440   17.3180  -33.1050 H   0  0  0  0  0  0  0  0  0  0  0  0
   -8.2213   21.9093  -32.6169 H   0  0  0  0  0  0  0  0  0  0  0  0
   -7.5781   24.1276  -31.7166 H   0  0  0  0  0  0  0  0  0  0  0  0
   -4.7400   25.5270  -28.0330 H   0  0  0  0  0  0  0  0  0  0  0  0
   -5.7190   24.0730  -28.0810 H   0  0  0  0  0  0  0  0  0  0  0  0
   -4.0131   22.4067  -30.1033 H   0  0  0  0  0  0  0  0  0  0  0  0
   -4.6537   20.2153  -30.9990 H   0  0  0  0  0  0  0  0  0  0  0  0
    0.0810   19.3770  -34.9930 H   0  0  0  0  0  0  0  0  0  0  0  0
    1.3040   20.8410  -33.3160 H   0  0  0  0  0  0  0  0  0  0  0  0
  1  2  1  0
  2  3  2  0
  3  4  1  0
  4  5  2  0
  5  6  1  0
  6  7  1  0
  7  8  2  0
  8  9  1  0
  9 10  1  0
  9 11  1  0
  8 12  1  0
 12 13  1  0
 13 14  2  0
 14 15  1  0
 15 16  2  0
 16 17  1  0
 17 18  2  0
 18 19  1  0
 19 20  1  0
 19 21  2  0
 19 22  2  0
 18 23  1  0
 23 24  2  0
 13 25  1  0
  4 26  1  0
 26 27  1  0
 27  2  1  0
 25  6  2  0
 24 15  1  0
  1 28  1  0
  1 29  1  0
  1 30  1  0
  3 31  1  0
  7 32  1  0
 10 33  1  0
 10 34  1  0
 10 35  1  0
 11 36  1  0
 11 37  1  0
 11 38  1  0
 12 39  1  0
 16 40  1  0
 17 41  1  0
 20 42  1  0
 20 43  1  0
 23 44  1  0
 24 45  1  0
 26 46  1  0
 27 47  1  0
M  END
>  <smiles>  (28) 
Cc1cc(=Nc2cc(N(C)C)[nH]c(=Nc3ccc(S(N)(=O)=O)cc3)n2)[nH][nH]1

>  <score_type>  (28) 
oracle

>  <origin>  (28) 
adgpu

>  <m_score__min__energy>  (28) 
-9.1899999999999995

>  <m_primary>  (28) 
energy

$$$$
28:0
     RDKit          3D

 44 46  0  0  0  0  0  0  0  0999 V2000
   -0.4920   20.2860  -33.1180 C   0  0  0  0  0  0  0  0  0  0  0  0
   -1.9070   20.5740  -32.8300 N   0  0  0  0  0  0  0  0  0  0  0  0
   -2.2370   21.5490  -31.9260 C   0  0  0  0  0  0  0  0  0  0  0  0
   -1.3340   22.1860  -31.3140 O   0  0  0  0  0  0  0  0  0  0  0  0
   -3.5790   21.8470  -31.6690 C   0  0  0  0  0  0  0  0  0  0  0  0
   -4.0330   23.0540  -30.4600 S   0  0  0  0  0  0  0  0  0  0  0  0
   -4.8410   22.3780  -29.3870 O   0  0  0  0  0  0  0  0  0  0  0  0
   -2.7990   23.6390  -29.8310 O   0  0  0  0  0  0  0  0  0  0  0  0
   -4.9810   24.3050  -31.2340 N   0  0  0  0  0  0  0  0  0  0  0  0
   -5.3930   25.3580  -30.2790 C   0  0  0  0  0  0  0  0  0  0  0  0
   -6.8430   25.1880  -29.7940 C   0  0  0  0  0  0  0  0  0  0  0  0
   -7.1800   23.8210  -29.7310 O   0  0  0  0  0  0  0  0  0  0  0  0
   -7.2620   23.2770  -31.0380 C   0  0  0  0  0  0  0  0  0  0  0  0
   -6.1230   23.7420  -31.9760 C   0  0  0  0  0  0  0  0  0  0  0  0
   -4.5590   21.1390  -32.3580 C   0  0  0  0  0  0  0  0  0  0  0  0
   -4.2170   20.1870  -33.2720 N   0  0  0  0  0  0  0  0  0  0  0  0
   -5.2860   19.4310  -33.9510 C   0  0  0  0  0  0  0  0  0  0  0  0
   -6.5190   19.3570  -33.0760 C   0  0  0  0  0  0  0  0  0  0  0  0
   -7.4300   20.4300  -33.1030 C   0  0  0  0  0  0  0  0  0  0  0  0
   -8.5690   20.4170  -32.2960 C   0  0  0  0  0  0  0  0  0  0  0  0
   -8.8180   19.3310  -31.4560 C   0  0  0  0  0  0  0  0  0  0  0  0
   -7.9290   18.2560  -31.4220 C   0  0  0  0  0  0  0  0  0  0  0  0
   -6.7810   18.2570  -32.2250 C   0  0  0  0  0  0  0  0  0  0  0  0
   -5.7200   16.8540  -32.1370 Cl  0  0  0  0  0  0  0  0  0  0  0  0
   -2.8960   19.9120  -33.5160 C   0  0  0  0  0  0  0  0  0  0  0  0
   -2.5880   19.0440  -34.3800 O   0  0  0  0  0  0  0  0  0  0  0  0
    0.0591   20.1738  -32.1727 H   0  0  0  0  0  0  0  0  0  0  0  0
   -0.4182   19.3544  -33.6982 H   0  0  0  0  0  0  0  0  0  0  0  0
   -0.0599   21.1146  -33.6982 H   0  0  0  0  0  0  0  0  0  0  0  0
   -4.7240   25.3226  -29.4065 H   0  0  0  0  0  0  0  0  0  0  0  0
   -5.3297   26.3234  -30.8025 H   0  0  0  0  0  0  0  0  0  0  0  0
   -6.9457   25.6337  -28.7936 H   0  0  0  0  0  0  0  0  0  0  0  0
   -7.5185   25.6911  -30.5015 H   0  0  0  0  0  0  0  0  0  0  0  0
   -7.2231   22.1804  -30.9611 H   0  0  0  0  0  0  0  0  0  0  0  0
   -8.2060   23.6329  -31.4765 H   0  0  0  0  0  0  0  0  0  0  0  0
   -5.7732   22.8793  -32.5621 H   0  0  0  0  0  0  0  0  0  0  0  0
   -6.5247   24.5334  -32.6258 H   0  0  0  0  0  0  0  0  0  0  0  0
   -5.6209   21.3497  -32.1631 H   0  0  0  0  0  0  0  0  0  0  0  0
   -5.5416   19.9339  -34.8953 H   0  0  0  0  0  0  0  0  0  0  0  0
   -4.9288   18.4099  -34.1505 H   0  0  0  0  0  0  0  0  0  0  0  0
   -7.2424   21.2871  -33.7665 H   0  0  0  0  0  0  0  0  0  0  0  0
   -9.2708   21.2636  -32.3223 H   0  0  0  0  0  0  0  0  0  0  0  0
   -9.7156   19.3223  -30.8202 H   0  0  0  0  0  0  0  0  0  0  0  0
   -8.1311   17.4013  -30.7597 H   0  0  0  0  0  0  0  0  0  0  0  0
  1  2  1  0
  2  3  1  0
  3  4  2  0
  3  5  1  0
  5  6  1  0
  6  7  2  0
  6  8  2  0
  6  9  1  0
  9 10  1  0
 10 11  1  0
 11 12  1  0
 12 13  1  0
 13 14  1  0
  5 15  2  0
 15 16  1  0
 16 17  1  0
 17 18  1  0
 18 19  2  0
 19 20  1  0
 20 21  2  0
 21 22  1  0
 22 23  2  0
 23 24  1  0
 16 25  1  0
 25 26  2  0
 25  2  1  0
 14  9  1  0
 23 18  1  0
  1 27  1  0
  1 28  1  0
  1 29  1  0
 10 30  1  0
 10 31  1  0
 11 32  1  0
 11 33  1  0
 13 34  1  0
 13 35  1  0
 14 36  1  0
 14 37  1  0
 15 38  1  0
 17 39  1  0
 17 40  1  0
 19 41  1  0
 20 42  1  0
 21 43  1  0
 22 44  1  0
M  END
>  <UniqueID>  (29) 
27

>  <SMILES>  (29) 
Cn1c(=O)c(S(=O)(=O)N2CCOCC2)cn(Cc2ccccc2Cl)c1=O

>  <Energy>  (29) 
63.80602668127683

>  <Genealogy>  (29) 
Cn1c(=O)c(S(=O)(=O)N2CCOCC2)cn(Cc2ccccc2Cl)c1=O (3D coordinates assigned)
Cn1c(=O)c(S(=O)(=O)N2CCOCC2)cn(Cc2ccccc2Cl)c1=O (nonaromatic ring conformer: 63.80602668127683 kcal/mol)

>  <smiles>  (29) 
Cn1c(=O)c(S(=O)(=O)N2CCOCC2)cn(Cc2ccccc2Cl)c1=O

>  <score_type>  (29) 
oracle

>  <origin>  (29) 
adgpu

>  <m_score__min__energy>  (29) 
-8.9199999999999999

>  <m_primary>  (29) 
energy

$$$$
29:0
     RDKit          3D

 31 33  0  0  0  0  0  0  0  0999 V2000
   -3.7580   24.9840  -30.8030 O   0  0  0  0  0  0  0  0  0  0  0  0
   -5.0080   24.9770  -30.7820 N   0  0  0  0  0  0  0  0  0  0  0  0
   -5.6710   26.1400  -30.4670 O   0  0  0  0  0  0  0  0  0  0  0  0
   -5.7400   23.7750  -31.0800 C   0  0  0  0  0  0  0  0  0  0  0  0
   -6.9590   23.4970  -30.4340 C   0  0  0  0  0  0  0  0  0  0  0  0
   -7.6670   22.3270  -30.7280 C   0  0  0  0  0  0  0  0  0  0  0  0
   -7.1690   21.4210  -31.6730 C   0  0  0  0  0  0  0  0  0  0  0  0
   -8.0610   19.9530  -32.0570 S   0  0  0  0  0  0  0  0  0  0  0  0
   -8.7290   20.0780  -33.3990 O   0  0  0  0  0  0  0  0  0  0  0  0
   -9.1120   19.7300  -31.0050 O   0  0  0  0  0  0  0  0  0  0  0  0
   -6.9720   18.6040  -32.0980 N   0  0  0  0  0  0  0  0  0  0  0  0
   -6.7080   17.7610  -31.0740 C   0  0  0  0  0  0  0  0  0  0  0  0
   -5.7640   16.8130  -31.4580 C   0  0  0  0  0  0  0  0  0  0  0  0
   -5.4560   17.1160  -32.7680 C   0  0  0  0  0  0  0  0  0  0  0  0
   -4.5680   16.5070  -33.6520 C   0  0  0  0  0  0  0  0  0  0  0  0
   -4.4540   17.0490  -34.9450 C   0  0  0  0  0  0  0  0  0  0  0  0
   -5.2220   18.1730  -35.3210 C   0  0  0  0  0  0  0  0  0  0  0  0
   -6.1110   18.7660  -34.4060 C   0  0  0  0  0  0  0  0  0  0  0  0
   -6.2050   18.2060  -33.1290 C   0  0  0  0  0  0  0  0  0  0  0  0
   -5.9550   21.6880  -32.3150 C   0  0  0  0  0  0  0  0  0  0  0  0
   -5.2460   22.8560  -32.0240 C   0  0  0  0  0  0  0  0  0  0  0  0
   -7.3579   24.2049  -29.6925 H   0  0  0  0  0  0  0  0  0  0  0  0
   -8.6176   22.1178  -30.2156 H   0  0  0  0  0  0  0  0  0  0  0  0
   -7.1733   17.8166  -30.0788 H   0  0  0  0  0  0  0  0  0  0  0  0
   -5.3516   15.9964  -30.8472 H   0  0  0  0  0  0  0  0  0  0  0  0
   -3.9755   15.6312  -33.3488 H   0  0  0  0  0  0  0  0  0  0  0  0
   -3.7616   16.5941  -35.6686 H   0  0  0  0  0  0  0  0  0  0  0  0
   -5.1245   18.5873  -36.3353 H   0  0  0  0  0  0  0  0  0  0  0  0
   -6.7131   19.6427  -34.6868 H   0  0  0  0  0  0  0  0  0  0  0  0
   -5.5570   20.9751  -33.0521 H   0  0  0  0  0  0  0  0  0  0  0  0
   -4.2942   23.0588  -32.5368 H   0  0  0  0  0  0  0  0  0  0  0  0
  1  2  2  0
  2  3  1  0
  2  4  1  0
  4  5  2  0
  5  6  1  0
  6  7  2  0
  7  8  1  0
  8  9  2  0
  8 10  2  0
  8 11  1  0
 11 12  1  0
 12 13  2  0
 13 14  1  0
 14 15  2  0
 15 16  1  0
 16 17  2  0
 17 18  1  0
 18 19  2  0
  7 20  1  0
 20 21  2  0
 21  4  1  0
 19 11  1  0
 19 14  1  0
  5 22  1  0
  6 23  1  0
 12 24  1  0
 13 25  1  0
 15 26  1  0
 16 27  1  0
 17 28  1  0
 18 29  1  0
 20 30  1  0
 21 31  1  0
M  CHG  2   2   1   3  -1
M  END
>  <UniqueID>  (30) 
28

>  <SMILES>  (30) 
O=[N+]([O-])c1ccc(S(=O)(=O)n2ccc3ccccc32)cc1

>  <Energy>  (30) 
69.8262477186221

>  <Genealogy>  (30) 
O=[N+]([O-])c1ccc(S(=O)(=O)n2ccc3ccccc32)cc1 (3D coordinates assigned)
O=[N+]([O-])c1ccc(S(=O)(=O)n2ccc3ccccc32)cc1 (optimized conformer: 69.8262477186221 kcal/mol)

>  <smiles>  (30) 
O=[N+]([O-])c1ccc(S(=O)(=O)n2ccc3ccccc32)cc1

>  <score_type>  (30) 
oracle

>  <origin>  (30) 
adgpu

>  <m_score__min__energy>  (30) 
-8.8699999999999992

>  <m_primary>  (30) 
energy

$$$$
30:0
     RDKit          3D

 37 40  0  0  0  0  0  0  0  0999 V2000
   -1.2530   22.6510  -29.9810 C   0  0  0  0  0  0  0  0  0  0  0  0
   -2.5790   23.2620  -30.0420 N   0  0  0  0  0  0  0  0  0  0  0  0
   -2.9000   24.5480  -29.7640 C   0  0  0  0  0  0  0  0  0  0  0  0
   -1.9870   25.4980  -29.3240 O   0  0  0  0  0  0  0  0  0  0  0  0
   -4.2490   24.7960  -29.9820 C   0  0  0  0  0  0  0  0  0  0  0  0
   -4.7570   23.5900  -30.4220 C   0  0  0  0  0  0  0  0  0  0  0  0
   -6.0490   23.2480  -30.8090 C   0  0  0  0  0  0  0  0  0  0  0  0
   -6.2910   21.9210  -31.2310 C   0  0  0  0  0  0  0  0  0  0  0  0
   -7.6440   21.5010  -31.6560 C   0  0  0  0  0  0  0  0  0  0  0  0
   -8.7510   22.2250  -31.3980 N   0  0  0  0  0  0  0  0  0  0  0  0
   -9.8050   21.5150  -31.8400 C   0  0  0  0  0  0  0  0  0  0  0  0
   -9.3800   20.3270  -32.3960 C   0  0  0  0  0  0  0  0  0  0  0  0
   -7.9990   20.3140  -32.2920 C   0  0  0  0  0  0  0  0  0  0  0  0
   -7.1140   19.2630  -32.8400 C   0  0  0  0  0  0  0  0  0  0  0  0
   -7.0620   17.9970  -32.2310 C   0  0  0  0  0  0  0  0  0  0  0  0
   -6.2330   16.9980  -32.7500 C   0  0  0  0  0  0  0  0  0  0  0  0
   -5.4590   17.2480  -33.8860 C   0  0  0  0  0  0  0  0  0  0  0  0
   -4.6550   16.2770  -34.3870 F   0  0  0  0  0  0  0  0  0  0  0  0
   -5.5170   18.4980  -34.5090 C   0  0  0  0  0  0  0  0  0  0  0  0
   -6.3450   19.5000  -33.9950 C   0  0  0  0  0  0  0  0  0  0  0  0
   -5.2180   20.9950  -31.2800 C   0  0  0  0  0  0  0  0  0  0  0  0
   -3.9220   21.3730  -30.8870 C   0  0  0  0  0  0  0  0  0  0  0  0
   -3.7250   22.6850  -30.4550 C   0  0  0  0  0  0  0  0  0  0  0  0
   -0.9596   22.5158  -28.9295 H   0  0  0  0  0  0  0  0  0  0  0  0
   -1.2765   21.6729  -30.4838 H   0  0  0  0  0  0  0  0  0  0  0  0
   -0.5247   23.3043  -30.4838 H   0  0  0  0  0  0  0  0  0  0  0  0
   -4.7914   25.7418  -29.8366 H   0  0  0  0  0  0  0  0  0  0  0  0
   -6.8603   23.9905  -30.7871 H   0  0  0  0  0  0  0  0  0  0  0  0
   -8.7960   23.1490  -30.9120 H   0  0  0  0  0  0  0  0  0  0  0  0
  -10.8546   21.8361  -31.7681 H   0  0  0  0  0  0  0  0  0  0  0  0
  -10.0138   19.5430  -32.8361 H   0  0  0  0  0  0  0  0  0  0  0  0
   -7.6764   17.7915  -31.3420 H   0  0  0  0  0  0  0  0  0  0  0  0
   -6.1900   16.0127  -32.2628 H   0  0  0  0  0  0  0  0  0  0  0  0
   -4.9100   18.6935  -35.4053 H   0  0  0  0  0  0  0  0  0  0  0  0
   -6.3959   20.4783  -34.4954 H   0  0  0  0  0  0  0  0  0  0  0  0
   -5.4019   19.9684  -31.6298 H   0  0  0  0  0  0  0  0  0  0  0  0
   -3.0885   20.6559  -30.9192 H   0  0  0  0  0  0  0  0  0  0  0  0
  1  2  1  0
  2  3  1  0
  3  4  1  0
  3  5  2  0
  5  6  1  0
  6  7  2  0
  7  8  1  0
  8  9  1  0
  9 10  1  0
 10 11  1  0
 11 12  2  0
 12 13  1  0
 13 14  1  0
 14 15  2  0
 15 16  1  0
 16 17  2  0
 17 18  1  0
 17 19  1  0
 19 20  2  0
  8 21  2  0
 21 22  1  0
 22 23  2  0
 23  2  1  0
 23  6  1  0
 13  9  2  0
 20 14  1  0
  1 24  1  0
  1 25  1  0
  1 26  1  0
  5 27  1  0
  7 28  1  0
 10 29  1  0
 11 30  1  0
 12 31  1  0
 15 32  1  0
 16 33  1  0
 19 34  1  0
 20 35  1  0
 21 36  1  0
 22 37  1  0
M  CHG  1   4  -1
M  END
>  <UniqueID>  (31) 
29

>  <SMILES>  (31) 
Cn1c([O-])cc2cc(-c3[nH]ccc3-c3ccc(F)cc3)ccc21

>  <Energy>  (31) 
108.94982219862256

>  <Genealogy>  (31) 
Cn1c([O-])cc2cc(-c3[nH]ccc3-c3ccc(F)cc3)ccc21 (protonated)
Cn1c([O-])cc2cc(-c3[nH]ccc3-c3ccc(F)cc3)ccc21 (3D coordinates assigned)
Cn1c([O-])cc2cc(-c3[nH]ccc3-c3ccc(F)cc3)ccc21 (optimized conformer: 108.94982219862256 kcal/mol)

>  <smiles>  (31) 
Cn1c(O)cc2cc(-c3[nH]ccc3-c3ccc(F)cc3)ccc21

>  <score_type>  (31) 
oracle

>  <origin>  (31) 
adgpu

>  <m_score__min__energy>  (31) 
-11.43

>  <m_primary>  (31) 
energy

$$$$
31:0
     RDKit          3D

 55 58  0  0  0  0  0  0  0  0999 V2000
    3.3330   21.4680  -35.0270 C   0  0  0  0  0  0  0  0  0  0  0  0
    1.8460   21.6030  -34.9970 C   0  0  0  0  0  0  0  0  0  0  0  0
    1.1900   22.7330  -35.3240 N   0  0  0  0  0  0  0  0  0  0  0  0
   -0.0800   22.4920  -35.1720 O   0  0  0  0  0  0  0  0  0  0  0  0
   -0.2860   21.2640  -34.7570 C   0  0  0  0  0  0  0  0  0  0  0  0
   -1.4840   20.8020  -34.5430 N   0  0  0  0  0  0  0  0  0  0  0  0
   -1.9550   19.2270  -33.9880 S   0  0  0  0  0  0  0  0  0  0  0  0
   -1.3540   19.0080  -32.6290 O   0  0  0  0  0  0  0  0  0  0  0  0
   -1.3990   18.1850  -34.9200 O   0  0  0  0  0  0  0  0  0  0  0  0
   -3.7060   19.0550  -33.8370 C   0  0  0  0  0  0  0  0  0  0  0  0
   -4.4430   18.1880  -34.6580 C   0  0  0  0  0  0  0  0  0  0  0  0
   -5.7760   18.0630  -34.2860 C   0  0  0  0  0  0  0  0  0  0  0  0
   -6.0380   19.0120  -32.9230 S   0  0  0  0  0  0  0  0  0  0  0  0
   -4.4680   19.6030  -32.8050 C   0  0  0  0  0  0  0  0  0  0  0  0
   -4.0120   20.5150  -31.7550 C   0  0  0  0  0  0  0  0  0  0  0  0
   -4.7780   20.7860  -30.7920 O   0  0  0  0  0  0  0  0  0  0  0  0
   -2.7350   21.1560  -31.8720 N   0  0  0  0  0  0  0  0  0  0  0  0
   -2.0450   21.7490  -30.7600 C   0  0  0  0  0  0  0  0  0  0  0  0
   -0.8510   21.1750  -30.2910 C   0  0  0  0  0  0  0  0  0  0  0  0
   -0.1390   21.7680  -29.2490 C   0  0  0  0  0  0  0  0  0  0  0  0
   -0.6030   22.9470  -28.6600 C   0  0  0  0  0  0  0  0  0  0  0  0
    0.3310   23.7060  -27.3750 S   0  0  0  0  0  0  0  0  0  0  0  0
    1.2440   22.6930  -26.7370 O   0  0  0  0  0  0  0  0  0  0  0  0
    1.1710   24.8060  -27.9630 O   0  0  0  0  0  0  0  0  0  0  0  0
   -0.7650   24.3770  -26.1930 N   0  0  0  0  0  0  0  0  0  0  0  0
   -0.0890   24.6120  -24.9180 C   0  0  0  0  0  0  0  0  0  0  0  0
   -0.8570   25.7270  -24.2250 C   0  0  0  0  0  0  0  0  0  0  0  0
   -1.6170   26.4400  -25.3360 C   0  0  0  0  0  0  0  0  0  0  0  0
   -1.2690   25.6850  -26.6110 C   0  0  0  0  0  0  0  0  0  0  0  0
   -1.7840   23.5370  -29.1290 C   0  0  0  0  0  0  0  0  0  0  0  0
   -2.5150   22.9450  -30.1700 C   0  0  0  0  0  0  0  0  0  0  0  0
   -4.0300   23.6940  -30.6950 S   0  0  0  0  0  0  0  0  0  0  0  0
   -3.8690   25.4140  -30.6700 N   0  0  0  0  0  0  0  0  0  0  0  0
   -5.1520   23.2940  -29.7800 O   0  0  0  0  0  0  0  0  0  0  0  0
   -4.3630   23.2370  -32.0880 O   0  0  0  0  0  0  0  0  0  0  0  0
    0.9430   20.6280  -34.6200 C   0  0  0  0  0  0  0  0  0  0  0  0
    1.3640   19.0060  -34.0960 Cl  0  0  0  0  0  0  0  0  0  0  0  0
    3.7188   21.4330  -33.9975 H   0  0  0  0  0  0  0  0  0  0  0  0
    3.6065   20.5413  -35.5528 H   0  0  0  0  0  0  0  0  0  0  0  0
    3.7689   22.3303  -35.5528 H   0  0  0  0  0  0  0  0  0  0  0  0
   -4.0061   17.6566  -35.5164 H   0  0  0  0  0  0  0  0  0  0  0  0
   -6.5315   17.4477  -34.7965 H   0  0  0  0  0  0  0  0  0  0  0  0
   -2.3010   21.2000  -32.8200 H   0  0  0  0  0  0  0  0  0  0  0  0
   -0.4745   20.2491  -30.7503 H   0  0  0  0  0  0  0  0  0  0  0  0
    0.7920   21.3056  -28.8892 H   0  0  0  0  0  0  0  0  0  0  0  0
   -0.1063   23.6994  -24.3041 H   0  0  0  0  0  0  0  0  0  0  0  0
    0.9650   24.8879  -25.0699 H   0  0  0  0  0  0  0  0  0  0  0  0
   -1.5564   25.3112  -23.4848 H   0  0  0  0  0  0  0  0  0  0  0  0
   -0.1880   26.4101  -23.6811 H   0  0  0  0  0  0  0  0  0  0  0  0
   -2.7002   26.4003  -25.1485 H   0  0  0  0  0  0  0  0  0  0  0  0
   -1.3436   27.5034  -25.4021 H   0  0  0  0  0  0  0  0  0  0  0  0
   -2.1646   25.5647  -27.2382 H   0  0  0  0  0  0  0  0  0  0  0  0
   -0.5199   26.2295  -27.2046 H   0  0  0  0  0  0  0  0  0  0  0  0
   -2.1417   24.4737  -28.6766 H   0  0  0  0  0  0  0  0  0  0  0  0
   -3.4860   25.6710  -29.7250 H   0  0  0  0  0  0  0  0  0  0  0  0
  1  2  1  0
  2  3  1  0
  3  4  1  0
  4  5  1  0
  5  6  2  3
  6  7  1  0
  7  8  2  0
  7  9  2  0
  7 10  1  0
 10 11  1  0
 11 12  2  0
 12 13  1  0
 13 14  1  0
 14 15  1  0
 15 16  2  0
 15 17  1  0
 17 18  1  0
 18 19  2  0
 19 20  1  0
 20 21  2  0
 21 22  1  0
 22 23  2  0
 22 24  2  0
 22 25  1  0
 25 26  1  0
 26 27  1  0
 27 28  1  0
 28 29  1  0
 21 30  1  0
 30 31  2  0
 31 32  1  0
 32 33  1  0
 32 34  2  0
 32 35  2  0
  5 36  1  0
 36 37  1  0
 36  2  2  0
 14 10  2  0
 31 18  1  0
 29 25  1  0
  1 38  1  0
  1 39  1  0
  1 40  1  0
 11 41  1  0
 12 42  1  0
 17 43  1  0
 19 44  1  0
 20 45  1  0
 26 46  1  0
 26 47  1  0
 27 48  1  0
 27 49  1  0
 28 50  1  0
 28 51  1  0
 29 52  1  0
 29 53  1  0
 30 54  1  0
 33 55  1  0
M  CHG  2   3  -1  33  -1
M  END
>  <UniqueID>  (32) 
30

>  <SMILES>  (32) 
Cc1[n-]oc(=NS(=O)(=O)c2ccsc2C(=O)Nc2ccc(S(=O)(=O)N3CCCC3)cc2S([NH-])(=O)=O)c1Cl

>  <Energy>  (32) 
131.4458567156665

>  <Genealogy>  (32) 
Cc1[n-]oc(=NS(=O)(=O)c2ccsc2C(=O)Nc2ccc(S(=O)(=O)N3CCCC3)cc2S([NH-])(=O)=O)c1Cl (protonated)
Cc1[n-]oc(=NS(=O)(=O)c2ccsc2C(=O)Nc2ccc(S(=O)(=O)N3CCCC3)cc2S([NH-])(=O)=O)c1Cl (3D coordinates assigned)
Cc1[n-]oc(=NS(=O)(=O)c2ccsc2C(=O)Nc2ccc(S(=O)(=O)N3CCCC3)cc2S([NH-])(=O)=O)c1Cl (nonaromatic ring conformer: 131.4458567156665 kcal/mol)

>  <smiles>  (32) 
Cc1[nH]oc(=NS(=O)(=O)c2ccsc2C(=O)Nc2ccc(S(=O)(=O)N3CCCC3)cc2S(N)(=O)=O)c1Cl

>  <score_type>  (32) 
oracle

>  <origin>  (32) 
adgpu

>  <m_score__min__energy>  (32) 
-13.220000000000001

>  <m_primary>  (32) 
energy

$$$$
32:0
     RDKit          3D

 52 55  0  0  0  0  0  0  0  0999 V2000
   -1.1220   19.9130  -34.4990 C   0  0  0  0  0  0  0  0  0  0  0  0
   -2.3050   19.0730  -34.2320 N   0  0  0  0  0  0  0  0  0  0  0  0
   -3.4300   19.6360  -33.6980 C   0  0  0  0  0  0  0  0  0  0  0  0
   -3.4470   20.8670  -33.4120 O   0  0  0  0  0  0  0  0  0  0  0  0
   -4.5700   18.8550  -33.4710 C   0  0  0  0  0  0  0  0  0  0  0  0
   -5.7350   19.4140  -32.9120 C   0  0  0  0  0  0  0  0  0  0  0  0
   -6.8770   18.6340  -32.7120 C   0  0  0  0  0  0  0  0  0  0  0  0
   -8.3440   19.3820  -32.0880 S   0  0  0  0  0  0  0  0  0  0  0  0
   -8.7490   18.7140  -30.8030 O   0  0  0  0  0  0  0  0  0  0  0  0
   -9.4710   19.2360  -33.0730 O   0  0  0  0  0  0  0  0  0  0  0  0
   -8.0150   21.0860  -31.8030 C   0  0  0  0  0  0  0  0  0  0  0  0
   -8.9720   22.0610  -32.1180 C   0  0  0  0  0  0  0  0  0  0  0  0
   -8.6620   23.4180  -31.9800 C   0  0  0  0  0  0  0  0  0  0  0  0
   -7.3910   23.8060  -31.5480 C   0  0  0  0  0  0  0  0  0  0  0  0
   -6.4280   22.8380  -31.2330 C   0  0  0  0  0  0  0  0  0  0  0  0
   -4.8000   23.3280  -30.7730 S   0  0  0  0  0  0  0  0  0  0  0  0
   -4.6770   24.8240  -30.8500 O   0  0  0  0  0  0  0  0  0  0  0  0
   -3.8240   22.7190  -31.7420 O   0  0  0  0  0  0  0  0  0  0  0  0
   -4.4430   22.7680  -29.1520 N   0  0  0  0  0  0  0  0  0  0  0  0
   -4.2250   23.8980  -28.2430 C   0  0  0  0  0  0  0  0  0  0  0  0
   -2.7390   24.2160  -28.2340 C   0  0  0  0  0  0  0  0  0  0  0  0
   -2.0590   22.9720  -28.7740 C   0  0  0  0  0  0  0  0  0  0  0  0
   -3.1840   22.0130  -29.1390 C   0  0  0  0  0  0  0  0  0  0  0  0
   -6.7500   21.4800  -31.3470 C   0  0  0  0  0  0  0  0  0  0  0  0
   -6.8560   17.2830  -33.0600 C   0  0  0  0  0  0  0  0  0  0  0  0
   -5.7040   16.7110  -33.6030 C   0  0  0  0  0  0  0  0  0  0  0  0
   -4.5390   17.4870  -33.8240 C   0  0  0  0  0  0  0  0  0  0  0  0
   -3.3970   16.9510  -34.3790 N   0  0  0  0  0  0  0  0  0  0  0  0
   -3.3500   15.5220  -34.7560 C   0  0  0  0  0  0  0  0  0  0  0  0
   -2.2980   17.7500  -34.5960 C   0  0  0  0  0  0  0  0  0  0  0  0
   -1.2650   17.2650  -35.1420 O   0  0  0  0  0  0  0  0  0  0  0  0
   -0.6749   20.2304  -33.5454 H   0  0  0  0  0  0  0  0  0  0  0  0
   -0.3845   19.3351  -35.0753 H   0  0  0  0  0  0  0  0  0  0  0  0
   -1.4245   20.7998  -35.0753 H   0  0  0  0  0  0  0  0  0  0  0  0
   -5.7464   20.4770  -32.6294 H   0  0  0  0  0  0  0  0  0  0  0  0
   -9.9678   21.7585  -32.4741 H   0  0  0  0  0  0  0  0  0  0  0  0
   -9.4199   24.1808  -32.2119 H   0  0  0  0  0  0  0  0  0  0  0  0
   -7.1457   24.8743  -31.4549 H   0  0  0  0  0  0  0  0  0  0  0  0
   -4.7916   24.7733  -28.5935 H   0  0  0  0  0  0  0  0  0  0  0  0
   -4.5666   23.6431  -27.2289 H   0  0  0  0  0  0  0  0  0  0  0  0
   -2.5265   25.0816  -28.8786 H   0  0  0  0  0  0  0  0  0  0  0  0
   -2.3813   24.4736  -27.2262 H   0  0  0  0  0  0  0  0  0  0  0  0
   -1.4606   23.2176  -29.6637 H   0  0  0  0  0  0  0  0  0  0  0  0
   -1.3733   22.5311  -28.0355 H   0  0  0  0  0  0  0  0  0  0  0  0
   -2.9979   21.5818  -30.1337 H   0  0  0  0  0  0  0  0  0  0  0  0
   -3.2389   21.1945  -28.4061 H   0  0  0  0  0  0  0  0  0  0  0  0
   -6.0048   20.7173  -31.0767 H   0  0  0  0  0  0  0  0  0  0  0  0
   -7.7526   16.6648  -32.9056 H   0  0  0  0  0  0  0  0  0  0  0  0
   -5.7006   15.6422  -33.8631 H   0  0  0  0  0  0  0  0  0  0  0  0
   -3.3297   14.9034  -33.8467 H   0  0  0  0  0  0  0  0  0  0  0  0
   -4.2404   15.2703  -35.3509 H   0  0  0  0  0  0  0  0  0  0  0  0
   -2.4450   15.3293  -35.3509 H   0  0  0  0  0  0  0  0  0  0  0  0
  1  2  1  0
  2  3  1  0
  3  4  2  0
  3  5  1  0
  5  6  2  0
  6  7  1  0
  7  8  1  0
  8  9  2  0
  8 10  2  0
  8 11  1  0
 11 12  2  0
 12 13  1  0
 13 14  2  0
 14 15  1  0
 15 16  1  0
 16 17  2  0
 16 18  2  0
 16 19  1  0
 19 20  1  0
 20 21  1  0
 21 22  1  0
 22 23  1  0
 15 24  2  0
  7 25  2  0
 25 26  1  0
 26 27  2  0
 27 28  1  0
 28 29  1  0
 28 30  1  0
 30 31  2  0
 30  2  1  0
 27  5  1  0
 24 11  1  0
 23 19  1  0
  1 32  1  0
  1 33  1  0
  1 34  1  0
  6 35  1  0
 12 36  1  0
 13 37  1  0
 14 38  1  0
 20 39  1  0
 20 40  1  0
 21 41  1  0
 21 42  1  0
 22 43  1  0
 22 44  1  0
 23 45  1  0
 23 46  1  0
 24 47  1  0
 25 48  1  0
 26 49  1  0
 29 50  1  0
 29 51  1  0
 29 52  1  0
M  END
>  <UniqueID>  (33) 
31

>  <SMILES>  (33) 
Cn1c(=O)c2cc(S(=O)(=O)c3cccc(S(=O)(=O)N4CCCC4)c3)ccc2n(C)c1=O

>  <Energy>  (33) 
71.47082898474146

>  <Genealogy>  (33) 
Cn1c(=O)c2cc(S(=O)(=O)c3cccc(S(=O)(=O)N4CCCC4)c3)ccc2n(C)c1=O (3D coordinates assigned)
Cn1c(=O)c2cc(S(=O)(=O)c3cccc(S(=O)(=O)N4CCCC4)c3)ccc2n(C)c1=O (nonaromatic ring conformer: 71.47082898474146 kcal/mol)

>  <smiles>  (33) 
Cn1c(=O)c2cc(S(=O)(=O)c3cccc(S(=O)(=O)N4CCCC4)c3)ccc2n(C)c1=O

>  <score_type>  (33) 
oracle

>  <origin>  (33) 
adgpu

>  <m_score__min__energy>  (33) 
-10.69

>  <m_primary>  (33) 
energy

$$$$
33:0
     RDKit          3D

 42 44  0  0  0  0  0  0  0  0999 V2000
   -5.2590   18.8470  -34.0020 C   0  0  0  0  0  0  0  0  0  0  0  0
   -6.5620   18.1930  -33.8130 N   0  0  0  0  0  0  0  0  0  0  0  0
   -6.4340   16.7360  -33.9660 C   0  0  0  0  0  0  0  0  0  0  0  0
   -7.2250   18.5970  -32.2410 S   0  0  0  0  0  0  0  0  0  0  0  0
   -8.5100   17.8500  -32.0000 O   0  0  0  0  0  0  0  0  0  0  0  0
   -6.2380   18.1630  -31.1910 O   0  0  0  0  0  0  0  0  0  0  0  0
   -7.5400   20.3270  -32.0510 C   0  0  0  0  0  0  0  0  0  0  0  0
   -8.8580   20.8040  -32.0140 C   0  0  0  0  0  0  0  0  0  0  0  0
   -9.1080   22.1730  -31.8880 C   0  0  0  0  0  0  0  0  0  0  0  0
   -8.0450   23.0730  -31.7960 C   0  0  0  0  0  0  0  0  0  0  0  0
   -6.7200   22.6140  -31.8150 C   0  0  0  0  0  0  0  0  0  0  0  0
   -5.6660   23.5800  -31.7100 N   0  0  0  0  0  0  0  0  0  0  0  0
   -5.3680   24.6240  -30.3580 S   0  0  0  0  0  0  0  0  0  0  0  0
   -6.6160   24.7040  -29.5230 O   0  0  0  0  0  0  0  0  0  0  0  0
   -5.0300   26.0100  -30.8280 O   0  0  0  0  0  0  0  0  0  0  0  0
   -4.0700   23.9470  -29.3810 C   0  0  0  0  0  0  0  0  0  0  0  0
   -4.2770   22.7500  -28.6700 C   0  0  0  0  0  0  0  0  0  0  0  0
   -3.2350   22.1730  -27.9330 C   0  0  0  0  0  0  0  0  0  0  0  0
   -1.9720   22.7840  -27.9160 C   0  0  0  0  0  0  0  0  0  0  0  0
   -0.9050   22.2250  -27.2000 C   0  0  0  0  0  0  0  0  0  0  0  0
    0.3450   22.8520  -27.2200 C   0  0  0  0  0  0  0  0  0  0  0  0
    0.5130   24.0370  -27.9500 C   0  0  0  0  0  0  0  0  0  0  0  0
    1.6350   24.6100  -27.9770 O   0  0  0  0  0  0  0  0  0  0  0  0
   -0.5340   24.5740  -28.6310 N   0  0  0  0  0  0  0  0  0  0  0  0
   -1.7600   23.9860  -28.6330 C   0  0  0  0  0  0  0  0  0  0  0  0
   -2.8130   24.5660  -29.3490 C   0  0  0  0  0  0  0  0  0  0  0  0
   -6.4730   21.2330  -31.9440 C   0  0  0  0  0  0  0  0  0  0  0  0
   -4.8149   19.0699  -33.0207 H   0  0  0  0  0  0  0  0  0  0  0  0
   -4.5907   18.1775  -34.5634 H   0  0  0  0  0  0  0  0  0  0  0  0
   -5.3965   19.7829  -34.5634 H   0  0  0  0  0  0  0  0  0  0  0  0
   -6.3926   16.2652  -32.9727 H   0  0  0  0  0  0  0  0  0  0  0  0
   -7.3015   16.3479  -34.5199 H   0  0  0  0  0  0  0  0  0  0  0  0
   -5.5121   16.5051  -34.5199 H   0  0  0  0  0  0  0  0  0  0  0  0
   -9.6984   20.0978  -32.0844 H   0  0  0  0  0  0  0  0  0  0  0  0
  -10.1439   22.5420  -31.8613 H   0  0  0  0  0  0  0  0  0  0  0  0
   -8.2482   24.1505  -31.7079 H   0  0  0  0  0  0  0  0  0  0  0  0
   -5.2637   22.2644  -28.6933 H   0  0  0  0  0  0  0  0  0  0  0  0
   -3.4062   21.2440  -27.3694 H   0  0  0  0  0  0  0  0  0  0  0  0
   -1.0497   21.2982  -26.6254 H   0  0  0  0  0  0  0  0  0  0  0  0
    1.1908   22.4181  -26.6665 H   0  0  0  0  0  0  0  0  0  0  0  0
   -2.6537   25.5112  -29.8887 H   0  0  0  0  0  0  0  0  0  0  0  0
   -5.4375   20.8623  -31.9610 H   0  0  0  0  0  0  0  0  0  0  0  0
  1  2  1  0
  2  3  1  0
  2  4  1  0
  4  5  2  0
  4  6  2  0
  4  7  1  0
  7  8  2  0
  8  9  1  0
  9 10  2  0
 10 11  1  0
 11 12  1  0
 12 13  1  0
 13 14  2  0
 13 15  2  0
 13 16  1  0
 16 17  2  0
 17 18  1  0
 18 19  2  0
 19 20  1  0
 20 21  2  0
 21 22  1  0
 22 23  2  0
 22 24  1  0
 24 25  1  0
 25 26  2  0
 11 27  2  0
 27  7  1  0
 26 16  1  0
 25 19  1  0
  1 28  1  0
  1 29  1  0
  1 30  1  0
  3 31  1  0
  3 32  1  0
  3 33  1  0
  8 34  1  0
  9 35  1  0
 10 36  1  0
 17 37  1  0
 18 38  1  0
 20 39  1  0
 21 40  1  0
 26 41  1  0
 27 42  1  0
M  CHG  2  12  -1  24  -1
M  END
>  <UniqueID>  (34) 
32

>  <SMILES>  (34) 
CN(C)S(=O)(=O)c1cccc([N-]S(=O)(=O)c2ccc3ccc(=O)[n-]c3c2)c1

>  <Energy>  (34) 
49.81094164849741

>  <Genealogy>  (34) 
CN(C)S(=O)(=O)c1cccc([N-]S(=O)(=O)c2ccc3ccc(=O)[n-]c3c2)c1 (protonated)
CN(C)S(=O)(=O)c1cccc([N-]S(=O)(=O)c2ccc3ccc(=O)[n-]c3c2)c1 (3D coordinates assigned)
CN(C)S(=O)(=O)c1cccc([N-]S(=O)(=O)c2ccc3ccc(=O)[n-]c3c2)c1 (optimized conformer: 49.81094164849741 kcal/mol)

>  <smiles>  (34) 
CN(C)S(=O)(=O)c1cccc(NS(=O)(=O)c2ccc3ccc(=O)[nH]c3c2)c1

>  <score_type>  (34) 
oracle

>  <origin>  (34) 
adgpu

>  <m_score__min__energy>  (34) 
-11.27

>  <m_primary>  (34) 
energy

$$$$
34:0
     RDKit          3D

 35 36  0  0  0  0  0  0  0  0999 V2000
   -8.7020   19.3860  -31.9080 C   0  0  0  0  0  0  0  0  0  0  0  0
   -9.2920   21.0810  -32.2120 S   0  0  0  0  0  0  0  0  0  0  0  0
   -7.7530   21.8390  -31.6860 C   0  0  0  0  0  0  0  0  0  0  0  0
   -6.5340   21.1920  -31.9240 C   0  0  0  0  0  0  0  0  0  0  0  0
   -5.3350   21.7790  -31.5060 C   0  0  0  0  0  0  0  0  0  0  0  0
   -5.3500   23.0230  -30.8560 C   0  0  0  0  0  0  0  0  0  0  0  0
   -3.8530   23.7840  -30.3290 S   0  0  0  0  0  0  0  0  0  0  0  0
   -3.8770   25.2680  -30.5770 O   0  0  0  0  0  0  0  0  0  0  0  0
   -2.7110   23.1880  -31.1060 O   0  0  0  0  0  0  0  0  0  0  0  0
   -3.6060   23.4820  -28.6400 N   0  0  0  0  0  0  0  0  0  0  0  0
   -2.7240   22.4950  -28.0850 C   0  0  0  0  0  0  0  0  0  0  0  0
   -3.1100   21.1430  -27.9780 C   0  0  0  0  0  0  0  0  0  0  0  0
   -2.2320   20.1980  -27.4430 C   0  0  0  0  0  0  0  0  0  0  0  0
   -0.9580   20.5840  -27.0240 C   0  0  0  0  0  0  0  0  0  0  0  0
   -0.5620   21.9190  -27.1260 C   0  0  0  0  0  0  0  0  0  0  0  0
   -1.4390   22.8820  -27.6480 C   0  0  0  0  0  0  0  0  0  0  0  0
   -0.9070   24.5640  -27.7810 S   0  0  0  0  0  0  0  0  0  0  0  0
   -1.8610   25.3730  -28.9790 N   0  0  0  0  0  0  0  0  0  0  0  0
   -1.0660   25.2550  -26.4540 O   0  0  0  0  0  0  0  0  0  0  0  0
    0.5420   24.6170  -28.1800 O   0  0  0  0  0  0  0  0  0  0  0  0
   -6.5720   23.6720  -30.6260 C   0  0  0  0  0  0  0  0  0  0  0  0
   -7.7700   23.0820  -31.0400 C   0  0  0  0  0  0  0  0  0  0  0  0
   -8.6401   19.2082  -30.8242 H   0  0  0  0  0  0  0  0  0  0  0  0
   -9.4029   18.6675  -32.3580 H   0  0  0  0  0  0  0  0  0  0  0  0
   -7.7065   19.2580  -32.3580 H   0  0  0  0  0  0  0  0  0  0  0  0
   -6.5193   20.2208  -32.4404 H   0  0  0  0  0  0  0  0  0  0  0  0
   -4.3794   21.2651  -31.6869 H   0  0  0  0  0  0  0  0  0  0  0  0
   -4.1085   20.8309  -28.3179 H   0  0  0  0  0  0  0  0  0  0  0  0
   -2.5451   19.1475  -27.3517 H   0  0  0  0  0  0  0  0  0  0  0  0
   -0.2648   19.8354  -26.6128 H   0  0  0  0  0  0  0  0  0  0  0  0
    0.4436   22.2177  -26.7951 H   0  0  0  0  0  0  0  0  0  0  0  0
   -2.8230   25.4810  -28.5860 H   0  0  0  0  0  0  0  0  0  0  0  0
   -1.9390   24.7220  -29.7910 H   0  0  0  0  0  0  0  0  0  0  0  0
   -6.5878   24.6478  -30.1185 H   0  0  0  0  0  0  0  0  0  0  0  0
   -8.7265   23.5941  -30.8584 H   0  0  0  0  0  0  0  0  0  0  0  0
  1  2  1  0
  2  3  1  0
  3  4  2  0
  4  5  1  0
  5  6  2  0
  6  7  1  0
  7  8  2  0
  7  9  2  0
  7 10  1  0
 10 11  1  0
 11 12  2  0
 12 13  1  0
 13 14  2  0
 14 15  1  0
 15 16  2  0
 16 17  1  0
 17 18  1  0
 17 19  2  0
 17 20  2  0
  6 21  1  0
 21 22  2  0
 22  3  1  0
 16 11  1  0
  1 23  1  0
  1 24  1  0
  1 25  1  0
  4 26  1  0
  5 27  1  0
 12 28  1  0
 13 29  1  0
 14 30  1  0
 15 31  1  0
 18 32  1  0
 18 33  1  0
 21 34  1  0
 22 35  1  0
M  CHG  1  10  -1
M  END
>  <UniqueID>  (35) 
33

>  <SMILES>  (35) 
CSc1ccc(S(=O)(=O)[N-]c2ccccc2S(N)(=O)=O)cc1

>  <Energy>  (35) 
33.93274866023554

>  <Genealogy>  (35) 
CSc1ccc(S(=O)(=O)[N-]c2ccccc2S(N)(=O)=O)cc1 (protonated)
CSc1ccc(S(=O)(=O)[N-]c2ccccc2S(N)(=O)=O)cc1 (3D coordinates assigned)
CSc1ccc(S(=O)(=O)[N-]c2ccccc2S(N)(=O)=O)cc1 (optimized conformer: 33.93274866023554 kcal/mol)

>  <smiles>  (35) 
CSc1ccc(S(=O)(=O)Nc2ccccc2S(N)(=O)=O)cc1

>  <score_type>  (35) 
oracle

>  <origin>  (35) 
adgpu

>  <m_score__min__energy>  (35) 
-9.2400000000000002

>  <m_primary>  (35) 
energy

$$$$
35:0
     RDKit          3D

 63 67  0  0  0  0  0  0  0  0999 V2000
   -4.2050   25.6800  -30.8000 O   0  0  0  0  0  0  0  0  0  0  0  0
   -4.8950   24.3700  -30.5410 S   0  0  0  0  0  0  0  0  0  0  0  0
   -5.9690   24.5930  -29.5130 O   0  0  0  0  0  0  0  0  0  0  0  0
   -5.6170   23.8110  -32.0130 N   0  0  0  0  0  0  0  0  0  0  0  0
   -6.6250   22.7960  -32.0220 C   0  0  0  0  0  0  0  0  0  0  0  0
   -7.9040   23.0740  -31.5140 C   0  0  0  0  0  0  0  0  0  0  0  0
   -8.8970   22.0930  -31.5240 C   0  0  0  0  0  0  0  0  0  0  0  0
   -8.6180   20.8200  -32.0250 C   0  0  0  0  0  0  0  0  0  0  0  0
   -7.3410   20.5240  -32.5080 C   0  0  0  0  0  0  0  0  0  0  0  0
   -6.3330   21.5050  -32.5100 C   0  0  0  0  0  0  0  0  0  0  0  0
   -4.9440   21.1450  -32.9850 C   0  0  0  0  0  0  0  0  0  0  0  0
   -4.4240   19.8690  -32.3080 C   0  0  0  0  0  0  0  0  0  0  0  0
   -4.9870   18.6270  -32.9520 C   0  0  0  0  0  0  0  0  0  0  0  0
   -5.4590   17.5670  -32.1590 C   0  0  0  0  0  0  0  0  0  0  0  0
   -6.0290   16.4390  -32.7590 C   0  0  0  0  0  0  0  0  0  0  0  0
   -6.1310   16.3630  -34.1520 C   0  0  0  0  0  0  0  0  0  0  0  0
   -5.6690   17.4160  -34.9450 C   0  0  0  0  0  0  0  0  0  0  0  0
   -5.1040   18.5470  -34.3500 C   0  0  0  0  0  0  0  0  0  0  0  0
   -3.7200   23.2050  -29.9410 C   0  0  0  0  0  0  0  0  0  0  0  0
   -3.8420   22.6850  -28.6460 C   0  0  0  0  0  0  0  0  0  0  0  0
   -2.9590   21.7000  -28.1960 C   0  0  0  0  0  0  0  0  0  0  0  0
   -1.9350   21.2210  -29.0340 C   0  0  0  0  0  0  0  0  0  0  0  0
   -1.0270   20.1390  -28.5760 C   0  0  0  0  0  0  0  0  0  0  0  0
   -1.4130   19.2450  -27.5660 C   0  0  0  0  0  0  0  0  0  0  0  0
   -0.5840   18.2360  -27.1940 N   0  0  0  0  0  0  0  0  0  0  0  0
    0.6350   18.0660  -27.7770 C   0  0  0  0  0  0  0  0  0  0  0  0
    1.4850   16.9700  -27.3840 N   0  0  0  0  0  0  0  0  0  0  0  0
    2.9250   17.2080  -27.2020 C   0  0  0  0  0  0  0  0  0  0  0  0
    3.5640   16.0840  -26.3800 C   0  0  0  0  0  0  0  0  0  0  0  0
    3.2180   14.8200  -26.9080 O   0  0  0  0  0  0  0  0  0  0  0  0
    1.8330   14.6050  -26.7290 C   0  0  0  0  0  0  0  0  0  0  0  0
    1.0100   15.5910  -27.5660 C   0  0  0  0  0  0  0  0  0  0  0  0
    1.0310   18.9310  -28.7510 N   0  0  0  0  0  0  0  0  0  0  0  0
    0.2350   19.9540  -29.1580 C   0  0  0  0  0  0  0  0  0  0  0  0
   -1.8090   21.7610  -30.3270 C   0  0  0  0  0  0  0  0  0  0  0  0
   -2.6980   22.7410  -30.7770 C   0  0  0  0  0  0  0  0  0  0  0  0
   -8.1250   24.0712  -31.1055 H   0  0  0  0  0  0  0  0  0  0  0  0
   -9.9005   22.3232  -31.1367 H   0  0  0  0  0  0  0  0  0  0  0  0
   -9.4036   20.0502  -32.0394 H   0  0  0  0  0  0  0  0  0  0  0  0
   -7.1221   19.5159  -32.8897 H   0  0  0  0  0  0  0  0  0  0  0  0
   -4.9697   20.9858  -34.0731 H   0  0  0  0  0  0  0  0  0  0  0  0
   -4.2675   21.9718  -32.7228 H   0  0  0  0  0  0  0  0  0  0  0  0
   -3.3271   19.8454  -32.3866 H   0  0  0  0  0  0  0  0  0  0  0  0
   -4.7435   19.8846  -31.2555 H   0  0  0  0  0  0  0  0  0  0  0  0
   -5.3800   17.6244  -31.0633 H   0  0  0  0  0  0  0  0  0  0  0  0
   -6.3972   15.6114  -32.1349 H   0  0  0  0  0  0  0  0  0  0  0  0
   -6.5752   15.4737  -34.6231 H   0  0  0  0  0  0  0  0  0  0  0  0
   -5.7501   17.3547  -36.0403 H   0  0  0  0  0  0  0  0  0  0  0  0
   -4.7496   19.3776  -34.9781 H   0  0  0  0  0  0  0  0  0  0  0  0
   -4.6364   23.0537  -27.9804 H   0  0  0  0  0  0  0  0  0  0  0  0
   -3.0652   21.2957  -27.1785 H   0  0  0  0  0  0  0  0  0  0  0  0
   -2.3899   19.3618  -27.0741 H   0  0  0  0  0  0  0  0  0  0  0  0
    3.4102   17.2538  -28.1882 H   0  0  0  0  0  0  0  0  0  0  0  0
    3.0595   18.1579  -26.6638 H   0  0  0  0  0  0  0  0  0  0  0  0
    4.6579   16.1974  -26.4023 H   0  0  0  0  0  0  0  0  0  0  0  0
    3.1945   16.1483  -25.3459 H   0  0  0  0  0  0  0  0  0  0  0  0
    1.5858   13.5783  -27.0370 H   0  0  0  0  0  0  0  0  0  0  0  0
    1.5894   14.7588  -25.6674 H   0  0  0  0  0  0  0  0  0  0  0  0
    1.0967   15.3191  -28.6283 H   0  0  0  0  0  0  0  0  0  0  0  0
   -0.0379   15.5376  -27.2357 H   0  0  0  0  0  0  0  0  0  0  0  0
    0.5815   20.6388  -29.9461 H   0  0  0  0  0  0  0  0  0  0  0  0
   -1.0042   21.4090  -30.9892 H   0  0  0  0  0  0  0  0  0  0  0  0
   -2.5940   23.1495  -31.7930 H   0  0  0  0  0  0  0  0  0  0  0  0
  1  2  2  0
  2  3  2  0
  2  4  1  0
  4  5  1  0
  5  6  2  0
  6  7  1  0
  7  8  2  0
  8  9  1  0
  9 10  2  0
 10 11  1  0
 11 12  1  0
 12 13  1  0
 13 14  2  0
 14 15  1  0
 15 16  2  0
 16 17  1  0
 17 18  2  0
  2 19  1  0
 19 20  2  0
 20 21  1  0
 21 22  2  0
 22 23  1  0
 23 24  2  0
 24 25  1  0
 25 26  2  0
 26 27  1  0
 27 28  1  0
 28 29  1  0
 29 30  1  0
 30 31  1  0
 31 32  1  0
 26 33  1  0
 33 34  2  0
 22 35  1  0
 35 36  2  0
 10  5  1  0
 18 13  1  0
 36 19  1  0
 34 23  1  0
 32 27  1  0
  6 37  1  0
  7 38  1  0
  8 39  1  0
  9 40  1  0
 11 41  1  0
 11 42  1  0
 12 43  1  0
 12 44  1  0
 14 45  1  0
 15 46  1  0
 16 47  1  0
 17 48  1  0
 18 49  1  0
 20 50  1  0
 21 51  1  0
 24 52  1  0
 28 53  1  0
 28 54  1  0
 29 55  1  0
 29 56  1  0
 31 57  1  0
 31 58  1  0
 32 59  1  0
 32 60  1  0
 34 61  1  0
 35 62  1  0
 36 63  1  0
M  CHG  1   4  -1
M  END
>  <UniqueID>  (36) 
34

>  <SMILES>  (36) 
O=S(=O)([N-]c1ccccc1CCc1ccccc1)c1ccc(-c2cnc(N3CCOCC3)nc2)cc1

>  <Energy>  (36) 
82.08322786350158

>  <Genealogy>  (36) 
O=S(=O)([N-]c1ccccc1CCc1ccccc1)c1ccc(-c2cnc(N3CCOCC3)nc2)cc1 (protonated)
O=S(=O)([N-]c1ccccc1CCc1ccccc1)c1ccc(-c2cnc(N3CCOCC3)nc2)cc1 (3D coordinates assigned)
O=S(=O)([N-]c1ccccc1CCc1ccccc1)c1ccc(-c2cnc(N3CCOCC3)nc2)cc1 (nonaromatic ring conformer: 82.08322786350158 kcal/mol)

>  <smiles>  (36) 
O=S(=O)(Nc1ccccc1CCc1ccccc1)c1ccc(-c2cnc(N3CCOCC3)nc2)cc1

>  <score_type>  (36) 
oracle

>  <origin>  (36) 
adgpu

>  <m_score__min__energy>  (36) 
-11.220000000000001

>  <m_primary>  (36) 
energy

$$$$
36:0
     RDKit          3D

 52 55  0  0  0  0  0  0  0  0999 V2000
   -1.1600   21.8150  -26.4520 C   0  0  0  0  0  0  0  0  0  0  0  0
   -1.7660   22.6920  -27.5150 C   0  0  0  0  0  0  0  0  0  0  0  0
   -2.8250   22.1650  -28.2830 C   0  0  0  0  0  0  0  0  0  0  0  0
   -3.4570   22.9390  -29.2530 C   0  0  0  0  0  0  0  0  0  0  0  0
   -3.0270   24.2420  -29.4980 C   0  0  0  0  0  0  0  0  0  0  0  0
   -3.7120   25.0340  -30.4690 N   0  0  0  0  0  0  0  0  0  0  0  0
   -5.0030   24.7170  -30.9880 C   0  0  0  0  0  0  0  0  0  0  0  0
   -5.9280   25.5650  -30.9330 O   0  0  0  0  0  0  0  0  0  0  0  0
   -5.2590   23.4310  -31.5630 N   0  0  0  0  0  0  0  0  0  0  0  0
   -6.5690   22.8810  -31.7780 C   0  0  0  0  0  0  0  0  0  0  0  0
   -7.6610   23.7550  -31.8240 C   0  0  0  0  0  0  0  0  0  0  0  0
   -8.9520   23.2590  -31.9850 C   0  0  0  0  0  0  0  0  0  0  0  0
   -9.1690   21.8850  -32.0960 C   0  0  0  0  0  0  0  0  0  0  0  0
   -8.0910   20.9910  -32.0850 C   0  0  0  0  0  0  0  0  0  0  0  0
   -8.4110   19.2530  -32.1540 S   0  0  0  0  0  0  0  0  0  0  0  0
   -9.5630   19.0080  -33.0870 O   0  0  0  0  0  0  0  0  0  0  0  0
   -8.7650   18.7290  -30.7890 O   0  0  0  0  0  0  0  0  0  0  0  0
   -6.9960   18.4230  -32.7160 N   0  0  0  0  0  0  0  0  0  0  0  0
   -6.4000   17.2510  -32.0880 C   0  0  0  0  0  0  0  0  0  0  0  0
   -5.1700   16.9040  -32.9630 C   0  0  0  0  0  0  0  0  0  0  0  0
   -5.1520   17.8690  -34.0640 N   0  0  0  0  0  0  0  0  0  0  0  0
   -6.2450   18.7360  -33.8660 C   0  0  0  0  0  0  0  0  0  0  0  0
   -6.5200   19.6820  -34.6460 O   0  0  0  0  0  0  0  0  0  0  0  0
   -6.7710   21.4970  -31.9710 C   0  0  0  0  0  0  0  0  0  0  0  0
   -5.6550   20.6600  -32.0730 O   0  0  0  0  0  0  0  0  0  0  0  0
   -1.9730   24.7880  -28.7490 C   0  0  0  0  0  0  0  0  0  0  0  0
   -1.6040   26.1140  -28.9650 O   0  0  0  0  0  0  0  0  0  0  0  0
   -1.3170   24.0190  -27.7620 C   0  0  0  0  0  0  0  0  0  0  0  0
   -0.0310   24.7990  -26.8030 S   0  0  0  0  0  0  0  0  0  0  0  0
    1.0740   25.2460  -27.7200 O   0  0  0  0  0  0  0  0  0  0  0  0
    0.5690   23.8610  -25.7930 O   0  0  0  0  0  0  0  0  0  0  0  0
   -0.7430   26.2360  -26.0090 C   0  0  0  0  0  0  0  0  0  0  0  0
   -0.8800   26.1310  -24.5010 C   0  0  0  0  0  0  0  0  0  0  0  0
   -2.1140   26.0240  -25.3860 C   0  0  0  0  0  0  0  0  0  0  0  0
   -1.4287   22.2039  -25.4587 H   0  0  0  0  0  0  0  0  0  0  0  0
   -1.5432   20.7896  -26.5603 H   0  0  0  0  0  0  0  0  0  0  0  0
   -0.0654   21.8107  -26.5603 H   0  0  0  0  0  0  0  0  0  0  0  0
   -3.1559   21.1297  -28.1137 H   0  0  0  0  0  0  0  0  0  0  0  0
   -4.2972   22.5212  -29.8270 H   0  0  0  0  0  0  0  0  0  0  0  0
   -7.4986   24.8391  -31.7325 H   0  0  0  0  0  0  0  0  0  0  0  0
   -9.8044   23.9531  -32.0249 H   0  0  0  0  0  0  0  0  0  0  0  0
  -10.1952   21.5009  -32.1929 H   0  0  0  0  0  0  0  0  0  0  0  0
   -6.0886   17.4813  -31.0584 H   0  0  0  0  0  0  0  0  0  0  0  0
   -7.1094   16.4127  -32.0243 H   0  0  0  0  0  0  0  0  0  0  0  0
   -4.2472   16.9877  -32.3702 H   0  0  0  0  0  0  0  0  0  0  0  0
   -5.2314   15.8729  -33.3412 H   0  0  0  0  0  0  0  0  0  0  0  0
   -5.2820   20.3280  -32.9520 H   0  0  0  0  0  0  0  0  0  0  0  0
   -0.3119   26.9703  -26.7054 H   0  0  0  0  0  0  0  0  0  0  0  0
   -0.5017   25.2420  -23.9750 H   0  0  0  0  0  0  0  0  0  0  0  0
   -0.5871   26.7606  -23.6478 H   0  0  0  0  0  0  0  0  0  0  0  0
   -2.6272   25.0578  -25.5005 H   0  0  0  0  0  0  0  0  0  0  0  0
   -3.0821   26.5437  -25.4386 H   0  0  0  0  0  0  0  0  0  0  0  0
  1  2  1  0
  2  3  2  0
  3  4  1  0
  4  5  2  0
  5  6  1  0
  6  7  1  0
  7  8  2  0
  7  9  1  0
  9 10  1  0
 10 11  2  0
 11 12  1  0
 12 13  2  0
 13 14  1  0
 14 15  1  0
 15 16  2  0
 15 17  2  0
 15 18  1  0
 18 19  1  0
 19 20  1  0
 20 21  1  0
 21 22  1  0
 22 23  2  0
 14 24  2  0
 24 25  1  0
  5 26  1  0
 26 27  1  0
 26 28  2  0
 28 29  1  0
 29 30  2  0
 29 31  2  0
 29 32  1  0
 32 33  1  0
 33 34  1  0
 28  2  1  0
 34 32  1  0
 24 10  1  0
 22 18  1  0
  1 35  1  0
  1 36  1  0
  1 37  1  0
  3 38  1  0
  4 39  1  0
 11 40  1  0
 12 41  1  0
 13 42  1  0
 19 43  1  0
 19 44  1  0
 20 45  1  0
 20 46  1  0
 25 47  1  0
 32 48  1  0
 33 49  1  0
 33 50  1  0
 34 51  1  0
 34 52  1  0
M  CHG  4   6  -1   9  -1  21  -1  27  -1
M  END
>  <UniqueID>  (37) 
35

>  <SMILES>  (37) 
Cc1ccc([N-]C(=O)[N-]c2cccc(S(=O)(=O)N3CC[N-]C3=O)c2O)c([O-])c1S(=O)(=O)C1CC1

>  <Energy>  (37) 
348.86695541143104

>  <Genealogy>  (37) 
Cc1ccc([N-]C(=O)[N-]c2cccc(S(=O)(=O)N3CC[N-]C3=O)c2O)c([O-])c1S(=O)(=O)C1CC1 (protonated)
Cc1ccc([N-]C(=O)[N-]c2cccc(S(=O)(=O)N3CC[N-]C3=O)c2O)c([O-])c1S(=O)(=O)C1CC1 (3D coordinates assigned)
Cc1ccc([N-]C(=O)[N-]c2cccc(S(=O)(=O)N3CC[N-]C3=O)c2O)c([O-])c1S(=O)(=O)C1CC1 (nonaromatic ring conformer: 348.86695541143104 kcal/mol)

>  <smiles>  (37) 
Cc1ccc(NC(=O)Nc2cccc(S(=O)(=O)N3CCNC3=O)c2O)c(O)c1S(=O)(=O)C1CC1

>  <score_type>  (37) 
oracle

>  <origin>  (37) 
adgpu

>  <m_score__min__energy>  (37) 
-15.9

>  <m_primary>  (37) 
energy

$$$$
37:0
     RDKit          3D

 43 45  0  0  0  0  0  0  0  0999 V2000
   -3.2000   21.3940  -33.7400 O   0  0  0  0  0  0  0  0  0  0  0  0
   -3.4010   20.4240  -32.9600 C   0  0  0  0  0  0  0  0  0  0  0  0
   -4.3420   19.3660  -33.3760 C   0  0  0  0  0  0  0  0  0  0  0  0
   -3.9010   18.3490  -34.2410 C   0  0  0  0  0  0  0  0  0  0  0  0
   -4.7710   17.3250  -34.6240 C   0  0  0  0  0  0  0  0  0  0  0  0
   -6.0890   17.3140  -34.1610 C   0  0  0  0  0  0  0  0  0  0  0  0
   -6.5440   18.3360  -33.3240 C   0  0  0  0  0  0  0  0  0  0  0  0
   -5.6800   19.3670  -32.9360 C   0  0  0  0  0  0  0  0  0  0  0  0
   -6.1630   20.3950  -32.1340 O   0  0  0  0  0  0  0  0  0  0  0  0
   -2.6970   20.3590  -31.7000 N   0  0  0  0  0  0  0  0  0  0  0  0
   -3.3750   20.7750  -30.4650 C   0  0  0  0  0  0  0  0  0  0  0  0
   -2.9240   22.1480  -30.0400 C   0  0  0  0  0  0  0  0  0  0  0  0
   -1.7760   22.3030  -29.2430 C   0  0  0  0  0  0  0  0  0  0  0  0
   -1.3320   23.5800  -28.8880 C   0  0  0  0  0  0  0  0  0  0  0  0
   -2.0270   24.7120  -29.3240 C   0  0  0  0  0  0  0  0  0  0  0  0
   -1.5790   25.9780  -28.9680 O   0  0  0  0  0  0  0  0  0  0  0  0
   -3.1710   24.5660  -30.1170 C   0  0  0  0  0  0  0  0  0  0  0  0
   -3.8650   25.6870  -30.5550 O   0  0  0  0  0  0  0  0  0  0  0  0
   -3.6180   23.2890  -30.4730 C   0  0  0  0  0  0  0  0  0  0  0  0
   -1.3030   19.8820  -31.6320 C   0  0  0  0  0  0  0  0  0  0  0  0
   -0.6060   20.0230  -32.9640 C   0  0  0  0  0  0  0  0  0  0  0  0
   -0.4020   18.8980  -33.7810 C   0  0  0  0  0  0  0  0  0  0  0  0
    0.2120   19.0340  -35.0290 C   0  0  0  0  0  0  0  0  0  0  0  0
    0.6380   20.2900  -35.4730 C   0  0  0  0  0  0  0  0  0  0  0  0
    1.2470   20.3990  -36.7220 O   0  0  0  0  0  0  0  0  0  0  0  0
    0.4480   21.4170  -34.6560 C   0  0  0  0  0  0  0  0  0  0  0  0
    0.8680   22.6740  -35.0770 O   0  0  0  0  0  0  0  0  0  0  0  0
   -0.1700   21.2800  -33.4080 C   0  0  0  0  0  0  0  0  0  0  0  0
   -2.8675   18.3596  -34.6175 H   0  0  0  0  0  0  0  0  0  0  0  0
   -4.4173   16.5256  -35.2917 H   0  0  0  0  0  0  0  0  0  0  0  0
   -6.7686   16.5007  -34.4554 H   0  0  0  0  0  0  0  0  0  0  0  0
   -7.5850   18.3305  -32.9686 H   0  0  0  0  0  0  0  0  0  0  0  0
   -4.4612   20.7903  -30.6382 H   0  0  0  0  0  0  0  0  0  0  0  0
   -3.1229   20.0601  -29.6679 H   0  0  0  0  0  0  0  0  0  0  0  0
   -1.2251   21.4158  -28.8975 H   0  0  0  0  0  0  0  0  0  0  0  0
   -0.4334   23.6946  -28.2640 H   0  0  0  0  0  0  0  0  0  0  0  0
   -4.5181   23.1783  -31.0955 H   0  0  0  0  0  0  0  0  0  0  0  0
   -0.7593   20.4720  -30.8795 H   0  0  0  0  0  0  0  0  0  0  0  0
   -1.3150   18.8165  -31.3590 H   0  0  0  0  0  0  0  0  0  0  0  0
   -0.7273   17.9053  -33.4364 H   0  0  0  0  0  0  0  0  0  0  0  0
    0.3610   18.1490  -35.6651 H   0  0  0  0  0  0  0  0  0  0  0  0
    1.6680   21.2630  -37.0410 H   0  0  0  0  0  0  0  0  0  0  0  0
   -0.3149   22.1646  -32.7705 H   0  0  0  0  0  0  0  0  0  0  0  0
  1  2  2  0
  2  3  1  0
  3  4  2  0
  4  5  1  0
  5  6  2  0
  6  7  1  0
  7  8  2  0
  8  9  1  0
  2 10  1  0
 10 11  1  0
 11 12  1  0
 12 13  2  0
 13 14  1  0
 14 15  2  0
 15 16  1  0
 15 17  1  0
 17 18  1  0
 17 19  2  0
 10 20  1  0
 20 21  1  0
 21 22  2  0
 22 23  1  0
 23 24  2  0
 24 25  1  0
 24 26  1  0
 26 27  1  0
 26 28  2  0
  8  3  1  0
 19 12  1  0
 28 21  1  0
  4 29  1  0
  5 30  1  0
  6 31  1  0
  7 32  1  0
 11 33  1  0
 11 34  1  0
 13 35  1  0
 14 36  1  0
 19 37  1  0
 20 38  1  0
 20 39  1  0
 22 40  1  0
 23 41  1  0
 25 42  1  0
 28 43  1  0
M  CHG  4   9  -1  16  -1  18  -1  27  -1
M  END
>  <UniqueID>  (38) 
36

>  <SMILES>  (38) 
O=C(c1ccccc1[O-])N(Cc1ccc([O-])c([O-])c1)Cc1ccc(O)c([O-])c1

>  <Energy>  (38) 
48.745471433082876

>  <Genealogy>  (38) 
O=C(c1ccccc1[O-])N(Cc1ccc([O-])c([O-])c1)Cc1ccc(O)c([O-])c1 (protonated)
O=C(c1ccccc1[O-])N(Cc1ccc([O-])c([O-])c1)Cc1ccc(O)c([O-])c1 (3D coordinates assigned)
O=C(c1ccccc1[O-])N(Cc1ccc([O-])c([O-])c1)Cc1ccc(O)c([O-])c1 (optimized conformer: 48.745471433082876 kcal/mol)

>  <smiles>  (38) 
O=C(c1ccccc1O)N(Cc1ccc(O)c(O)c1)Cc1ccc(O)c(O)c1

>  <score_type>  (38) 
oracle

>  <origin>  (38) 
adgpu

>  <m_score__min__energy>  (38) 
-13.94

>  <m_primary>  (38) 
energy

$$$$
38:0
     RDKit          3D

 41 43  0  0  0  0  0  0  0  0999 V2000
    0.8670   16.7840  -27.5370 C   0  0  0  0  0  0  0  0  0  0  0  0
   -0.3590   17.3560  -27.0930 O   0  0  0  0  0  0  0  0  0  0  0  0
   -0.8210   18.6250  -27.4690 C   0  0  0  0  0  0  0  0  0  0  0  0
   -0.1010   19.3360  -28.4370 C   0  0  0  0  0  0  0  0  0  0  0  0
   -0.5210   20.6050  -28.8450 C   0  0  0  0  0  0  0  0  0  0  0  0
   -1.6640   21.1920  -28.2790 C   0  0  0  0  0  0  0  0  0  0  0  0
   -2.1110   22.5260  -28.7460 C   0  0  0  0  0  0  0  0  0  0  0  0
   -3.0290   22.5820  -29.7490 N   0  0  0  0  0  0  0  0  0  0  0  0
   -3.5010   23.7650  -30.2260 C   0  0  0  0  0  0  0  0  0  0  0  0
   -4.3650   23.8030  -31.1990 N   0  0  0  0  0  0  0  0  0  0  0  0
   -5.0020   22.6800  -31.8310 C   0  0  0  0  0  0  0  0  0  0  0  0
   -4.2750   21.7250  -32.5690 C   0  0  0  0  0  0  0  0  0  0  0  0
   -4.9300   20.6360  -33.1470 C   0  0  0  0  0  0  0  0  0  0  0  0
   -6.3070   20.4740  -32.9780 C   0  0  0  0  0  0  0  0  0  0  0  0
   -7.0350   21.3950  -32.2120 C   0  0  0  0  0  0  0  0  0  0  0  0
   -8.7690   21.1890  -31.9960 S   0  0  0  0  0  0  0  0  0  0  0  0
   -9.3350   19.9390  -33.0480 N   0  0  0  0  0  0  0  0  0  0  0  0
   -9.4790   22.4740  -32.3180 O   0  0  0  0  0  0  0  0  0  0  0  0
   -9.0640   20.8200  -30.5690 O   0  0  0  0  0  0  0  0  0  0  0  0
   -6.3770   22.4920  -31.6390 C   0  0  0  0  0  0  0  0  0  0  0  0
   -3.0300   24.9280  -29.7130 N   0  0  0  0  0  0  0  0  0  0  0  0
   -2.1030   24.9360  -28.7210 C   0  0  0  0  0  0  0  0  0  0  0  0
   -1.6110   23.7320  -28.2100 C   0  0  0  0  0  0  0  0  0  0  0  0
   -0.5700   23.7650  -27.2110 C   0  0  0  0  0  0  0  0  0  0  0  0
    0.2650   23.7930  -26.4100 N   0  0  0  0  0  0  0  0  0  0  0  0
   -2.4000   20.4720  -27.3240 C   0  0  0  0  0  0  0  0  0  0  0  0
   -1.9800   19.2020  -26.9160 C   0  0  0  0  0  0  0  0  0  0  0  0
    1.4758   16.5000  -26.6660 H   0  0  0  0  0  0  0  0  0  0  0  0
    0.6564   15.8911  -28.1440 H   0  0  0  0  0  0  0  0  0  0  0  0
    1.4159   17.5190  -28.1440 H   0  0  0  0  0  0  0  0  0  0  0  0
    0.8027   18.8920  -28.8800 H   0  0  0  0  0  0  0  0  0  0  0  0
    0.0477   21.1475  -29.6146 H   0  0  0  0  0  0  0  0  0  0  0  0
   -3.1875   21.8379  -32.6902 H   0  0  0  0  0  0  0  0  0  0  0  0
   -4.3600   19.9034  -33.7372 H   0  0  0  0  0  0  0  0  0  0  0  0
   -6.8211   19.6221  -33.4469 H   0  0  0  0  0  0  0  0  0  0  0  0
   -9.0570   19.0290  -32.6190 H   0  0  0  0  0  0  0  0  0  0  0  0
   -8.8010   20.0270  -33.9410 H   0  0  0  0  0  0  0  0  0  0  0  0
   -6.9458   23.2123  -31.0327 H   0  0  0  0  0  0  0  0  0  0  0  0
   -1.7384   25.8926  -28.3186 H   0  0  0  0  0  0  0  0  0  0  0  0
   -3.3129   20.9099  -26.8940 H   0  0  0  0  0  0  0  0  0  0  0  0
   -2.5580   18.6512  -26.1593 H   0  0  0  0  0  0  0  0  0  0  0  0
  1  2  1  0
  2  3  1  0
  3  4  2  0
  4  5  1  0
  5  6  2  0
  6  7  1  0
  7  8  2  0
  8  9  1  0
  9 10  2  3
 10 11  1  0
 11 12  2  0
 12 13  1  0
 13 14  2  0
 14 15  1  0
 15 16  1  0
 16 17  1  0
 16 18  2  0
 16 19  2  0
 15 20  2  0
  9 21  1  0
 21 22  1  0
 22 23  2  0
 23 24  1  0
 24 25  3  0
  6 26  1  0
 26 27  2  0
 27  3  1  0
 23  7  1  0
 20 11  1  0
  1 28  1  0
  1 29  1  0
  1 30  1  0
  4 31  1  0
  5 32  1  0
 12 33  1  0
 13 34  1  0
 14 35  1  0
 17 36  1  0
 17 37  1  0
 20 38  1  0
 22 39  1  0
 26 40  1  0
 27 41  1  0
M  CHG  1  21  -1
M  END
>  <UniqueID>  (39) 
37

>  <SMILES>  (39) 
COc1ccc(-c2nc(=Nc3cccc(S(N)(=O)=O)c3)[n-]cc2C#N)cc1

>  <Energy>  (39) 
54.744506210043376

>  <Genealogy>  (39) 
COc1ccc(-c2nc(=Nc3cccc(S(N)(=O)=O)c3)[n-]cc2C#N)cc1 (protonated)
COc1ccc(-c2nc(=Nc3cccc(S(N)(=O)=O)c3)[n-]cc2C#N)cc1 (3D coordinates assigned)
COc1ccc(-c2nc(=Nc3cccc(S(N)(=O)=O)c3)[n-]cc2C#N)cc1 (optimized conformer: 54.744506210043376 kcal/mol)

>  <smiles>  (39) 
COc1ccc(-c2nc(=Nc3cccc(S(N)(=O)=O)c3)[nH]cc2C#N)cc1

>  <score_type>  (39) 
oracle

>  <origin>  (39) 
adgpu

>  <m_score__min__energy>  (39) 
-9.8200000000000003

>  <m_primary>  (39) 
energy

$$$$
39:0
     RDKit          3D

 41 43  0  0  0  0  0  0  0  0999 V2000
   -1.0290   22.0250  -29.3370 O   0  0  0  0  0  0  0  0  0  0  0  0
   -1.8000   23.0090  -29.4910 C   0  0  0  0  0  0  0  0  0  0  0  0
   -2.4830   23.1540  -30.7440 N   0  0  0  0  0  0  0  0  0  0  0  0
   -3.9020   23.2660  -30.9220 C   0  0  0  0  0  0  0  0  0  0  0  0
   -4.6270   22.1180  -31.2660 C   0  0  0  0  0  0  0  0  0  0  0  0
   -6.0150   22.1760  -31.4410 C   0  0  0  0  0  0  0  0  0  0  0  0
   -6.9030   20.7160  -31.8690 S   0  0  0  0  0  0  0  0  0  0  0  0
   -7.5480   20.8900  -33.2160 O   0  0  0  0  0  0  0  0  0  0  0  0
   -7.9880   20.5090  -30.8480 O   0  0  0  0  0  0  0  0  0  0  0  0
   -5.8180   19.3420  -31.8630 N   0  0  0  0  0  0  0  0  0  0  0  0
   -5.0190   19.2440  -33.0980 C   0  0  0  0  0  0  0  0  0  0  0  0
   -5.7920   18.5650  -34.2400 C   0  0  0  0  0  0  0  0  0  0  0  0
   -6.2770   17.3020  -33.8360 O   0  0  0  0  0  0  0  0  0  0  0  0
   -7.1990   17.4690  -32.7790 C   0  0  0  0  0  0  0  0  0  0  0  0
   -6.5140   18.0810  -31.5460 C   0  0  0  0  0  0  0  0  0  0  0  0
   -6.6810   23.4010  -31.2980 C   0  0  0  0  0  0  0  0  0  0  0  0
   -5.9610   24.5570  -30.9870 C   0  0  0  0  0  0  0  0  0  0  0  0
   -4.5750   24.5000  -30.8120 C   0  0  0  0  0  0  0  0  0  0  0  0
   -3.8770   25.6750  -30.5590 O   0  0  0  0  0  0  0  0  0  0  0  0
   -2.0260   23.9450  -28.3610 C   0  0  0  0  0  0  0  0  0  0  0  0
   -3.2620   23.9510  -27.6870 C   0  0  0  0  0  0  0  0  0  0  0  0
   -3.4830   24.8250  -26.6190 C   0  0  0  0  0  0  0  0  0  0  0  0
   -2.4720   25.6940  -26.2050 C   0  0  0  0  0  0  0  0  0  0  0  0
   -1.2380   25.6910  -26.8570 C   0  0  0  0  0  0  0  0  0  0  0  0
   -1.0090   24.8220  -27.9300 C   0  0  0  0  0  0  0  0  0  0  0  0
    0.2260   24.8530  -28.5710 O   0  0  0  0  0  0  0  0  0  0  0  0
   -4.1007   21.1614  -31.4000 H   0  0  0  0  0  0  0  0  0  0  0  0
   -4.7347   20.2577  -33.4169 H   0  0  0  0  0  0  0  0  0  0  0  0
   -4.1337   18.6291  -32.8784 H   0  0  0  0  0  0  0  0  0  0  0  0
   -6.6411   19.2017  -34.5291 H   0  0  0  0  0  0  0  0  0  0  0  0
   -5.1107   18.4248  -35.0922 H   0  0  0  0  0  0  0  0  0  0  0  0
   -8.0089   18.1360  -33.1094 H   0  0  0  0  0  0  0  0  0  0  0  0
   -7.6018   16.4829  -32.5044 H   0  0  0  0  0  0  0  0  0  0  0  0
   -7.2773   18.2808  -30.7796 H   0  0  0  0  0  0  0  0  0  0  0  0
   -5.7630   17.3625  -31.1859 H   0  0  0  0  0  0  0  0  0  0  0  0
   -7.7718   23.4521  -31.4308 H   0  0  0  0  0  0  0  0  0  0  0  0
   -6.4871   25.5170  -30.8792 H   0  0  0  0  0  0  0  0  0  0  0  0
   -4.0597   23.2627  -28.0033 H   0  0  0  0  0  0  0  0  0  0  0  0
   -4.4550   24.8281  -26.1039 H   0  0  0  0  0  0  0  0  0  0  0  0
   -2.6480   26.3814  -25.3645 H   0  0  0  0  0  0  0  0  0  0  0  0
   -0.4421   26.3744  -26.5262 H   0  0  0  0  0  0  0  0  0  0  0  0
  1  2  2  0
  2  3  1  0
  3  4  1  0
  4  5  2  0
  5  6  1  0
  6  7  1  0
  7  8  2  0
  7  9  2  0
  7 10  1  0
 10 11  1  0
 11 12  1  0
 12 13  1  0
 13 14  1  0
 14 15  1  0
  6 16  2  0
 16 17  1  0
 17 18  2  0
 18 19  1  0
  2 20  1  0
 20 21  2  0
 21 22  1  0
 22 23  2  0
 23 24  1  0
 24 25  2  0
 25 26  1  0
 18  4  1  0
 25 20  1  0
 15 10  1  0
  5 27  1  0
 11 28  1  0
 11 29  1  0
 12 30  1  0
 12 31  1  0
 14 32  1  0
 14 33  1  0
 15 34  1  0
 15 35  1  0
 16 36  1  0
 17 37  1  0
 21 38  1  0
 22 39  1  0
 23 40  1  0
 24 41  1  0
M  CHG  3   3  -1  19  -1  26  -1
M  END
>  <UniqueID>  (40) 
38

>  <SMILES>  (40) 
O=C([N-]c1cc(S(=O)(=O)N2CCOCC2)ccc1[O-])c1ccccc1[O-]

>  <Energy>  (40) 
57.24099730608134

>  <Genealogy>  (40) 
O=C([N-]c1cc(S(=O)(=O)N2CCOCC2)ccc1[O-])c1ccccc1[O-] (protonated)
O=C([N-]c1cc(S(=O)(=O)N2CCOCC2)ccc1[O-])c1ccccc1[O-] (3D coordinates assigned)
O=C([N-]c1cc(S(=O)(=O)N2CCOCC2)ccc1[O-])c1ccccc1[O-] (nonaromatic ring conformer: 57.24099730608134 kcal/mol)

>  <smiles>  (40) 
O=C(Nc1cc(S(=O)(=O)N2CCOCC2)ccc1O)c1ccccc1O

>  <score_type>  (40) 
oracle

>  <origin>  (40) 
adgpu

>  <m_score__min__energy>  (40) 
-14.56

>  <m_primary>  (40) 
energy

$$$$
40:0
     RDKit          3D

 45 46  0  0  0  0  0  0  0  0999 V2000
   -0.8690   23.4780  -29.6950 C   0  0  0  0  0  0  0  0  0  0  0  0
   -1.0730   24.8370  -29.3230 O   0  0  0  0  0  0  0  0  0  0  0  0
   -1.3680   25.2720  -28.0200 C   0  0  0  0  0  0  0  0  0  0  0  0
   -0.4900   26.1100  -27.3050 C   0  0  0  0  0  0  0  0  0  0  0  0
   -0.8060   26.5290  -26.0100 C   0  0  0  0  0  0  0  0  0  0  0  0
   -1.9970   26.1180  -25.4130 C   0  0  0  0  0  0  0  0  0  0  0  0
   -2.8780   25.2890  -26.1090 C   0  0  0  0  0  0  0  0  0  0  0  0
   -2.5760   24.8600  -27.4120 C   0  0  0  0  0  0  0  0  0  0  0  0
   -3.5610   23.9770  -28.1380 C   0  0  0  0  0  0  0  0  0  0  0  0
   -4.8260   24.6780  -28.3730 N   0  0  0  0  0  0  0  0  0  0  0  0
   -5.1260   24.9000  -30.0750 S   0  0  0  0  0  0  0  0  0  0  0  0
   -3.8440   25.2810  -30.7620 O   0  0  0  0  0  0  0  0  0  0  0  0
   -6.1160   26.0160  -30.2550 O   0  0  0  0  0  0  0  0  0  0  0  0
   -5.7940   23.4360  -30.7930 C   0  0  0  0  0  0  0  0  0  0  0  0
   -7.0520   23.4770  -31.4070 C   0  0  0  0  0  0  0  0  0  0  0  0
   -7.6040   22.3180  -31.9590 C   0  0  0  0  0  0  0  0  0  0  0  0
   -6.9020   21.1060  -31.9010 C   0  0  0  0  0  0  0  0  0  0  0  0
   -7.6110   19.6370  -32.5740 S   0  0  0  0  0  0  0  0  0  0  0  0
   -8.9900   19.9430  -33.0890 O   0  0  0  0  0  0  0  0  0  0  0  0
   -7.7390   18.6070  -31.4870 O   0  0  0  0  0  0  0  0  0  0  0  0
   -6.6330   18.9980  -33.8730 N   0  0  0  0  0  0  0  0  0  0  0  0
   -5.2960   19.6060  -33.8500 C   0  0  0  0  0  0  0  0  0  0  0  0
   -6.5390   17.5360  -33.7700 C   0  0  0  0  0  0  0  0  0  0  0  0
   -5.6400   21.0670  -31.2940 C   0  0  0  0  0  0  0  0  0  0  0  0
   -5.0860   22.2270  -30.7470 C   0  0  0  0  0  0  0  0  0  0  0  0
   -0.7762   22.8600  -28.7897 H   0  0  0  0  0  0  0  0  0  0  0  0
   -1.7248   23.1287  -30.2913 H   0  0  0  0  0  0  0  0  0  0  0  0
    0.0516   23.3953  -30.2913 H   0  0  0  0  0  0  0  0  0  0  0  0
    0.4518   26.4371  -27.7698 H   0  0  0  0  0  0  0  0  0  0  0  0
   -0.1140   27.1842  -25.4606 H   0  0  0  0  0  0  0  0  0  0  0  0
   -2.2425   26.4474  -24.3926 H   0  0  0  0  0  0  0  0  0  0  0  0
   -3.8167   24.9689  -25.6332 H   0  0  0  0  0  0  0  0  0  0  0  0
   -3.1307   23.6788  -29.1054 H   0  0  0  0  0  0  0  0  0  0  0  0
   -3.7624   23.0932  -27.5149 H   0  0  0  0  0  0  0  0  0  0  0  0
   -7.6077   24.4251  -31.4549 H   0  0  0  0  0  0  0  0  0  0  0  0
   -8.5923   22.3568  -32.4405 H   0  0  0  0  0  0  0  0  0  0  0  0
   -7.0980   19.2410  -34.7790 H   0  0  0  0  0  0  0  0  0  0  0  0
   -4.9771   19.7510  -32.8073 H   0  0  0  0  0  0  0  0  0  0  0  0
   -4.5831   18.9436  -34.3627 H   0  0  0  0  0  0  0  0  0  0  0  0
   -5.3267   20.5787  -34.3627 H   0  0  0  0  0  0  0  0  0  0  0  0
   -6.5202   17.2436  -32.7097 H   0  0  0  0  0  0  0  0  0  0  0  0
   -7.4095   17.0771  -34.2616 H   0  0  0  0  0  0  0  0  0  0  0  0
   -5.6169   17.1923  -34.2616 H   0  0  0  0  0  0  0  0  0  0  0  0
   -5.0832   20.1195  -31.2479 H   0  0  0  0  0  0  0  0  0  0  0  0
   -4.0912   22.1915  -30.2788 H   0  0  0  0  0  0  0  0  0  0  0  0
  1  2  1  0
  2  3  1  0
  3  4  2  0
  4  5  1  0
  5  6  2  0
  6  7  1  0
  7  8  2  0
  8  9  1  0
  9 10  1  0
 10 11  1  0
 11 12  2  0
 11 13  2  0
 11 14  1  0
 14 15  2  0
 15 16  1  0
 16 17  2  0
 17 18  1  0
 18 19  2  0
 18 20  2  0
 18 21  1  0
 21 22  1  0
 21 23  1  0
 17 24  1  0
 24 25  2  0
  8  3  1  0
 25 14  1  0
  1 26  1  0
  1 27  1  0
  1 28  1  0
  4 29  1  0
  5 30  1  0
  6 31  1  0
  7 32  1  0
  9 33  1  0
  9 34  1  0
 15 35  1  0
 16 36  1  0
 21 37  1  0
 22 38  1  0
 22 39  1  0
 22 40  1  0
 23 41  1  0
 23 42  1  0
 23 43  1  0
 24 44  1  0
 25 45  1  0
M  CHG  2  10  -1  21   1
M  END
>  <UniqueID>  (41) 
39

>  <SMILES>  (41) 
COc1ccccc1C[N-]S(=O)(=O)c1ccc(S(=O)(=O)[NH+](C)C)cc1

>  <Energy>  (41) 
38.978321460327194

>  <Genealogy>  (41) 
COc1ccccc1C[N-]S(=O)(=O)c1ccc(S(=O)(=O)[NH+](C)C)cc1 (protonated)
COc1ccccc1C[N-]S(=O)(=O)c1ccc(S(=O)(=O)[NH+](C)C)cc1 (3D coordinates assigned)
COc1ccccc1C[N-]S(=O)(=O)c1ccc(S(=O)(=O)[NH+](C)C)cc1 (optimized conformer: 38.978321460327194 kcal/mol)

>  <smiles>  (41) 
COc1ccccc1CNS(=O)(=O)c1ccc(S(=O)(=O)N(C)C)cc1

>  <score_type>  (41) 
oracle

>  <origin>  (41) 
adgpu

>  <m_score__min__energy>  (41) 
-9.8100000000000005

>  <m_primary>  (41) 
energy

$$$$
41:0
     RDKit          3D

 54 57  0  0  0  0  0  0  0  0999 V2000
    1.3450   19.8830  -33.6170 C   0  0  0  0  0  0  0  0  0  0  0  0
    0.0120   20.5170  -34.6140 S   0  0  0  0  0  0  0  0  0  0  0  0
   -0.1100   21.9980  -34.3880 O   0  0  0  0  0  0  0  0  0  0  0  0
    0.3510   20.2720  -36.0580 O   0  0  0  0  0  0  0  0  0  0  0  0
   -1.5000   19.7120  -34.2400 N   0  0  0  0  0  0  0  0  0  0  0  0
   -1.3090   18.5130  -33.4010 C   0  0  0  0  0  0  0  0  0  0  0  0
   -0.9340   18.8680  -31.9550 C   0  0  0  0  0  0  0  0  0  0  0  0
   -1.7180   20.0090  -31.4710 N   0  0  0  0  0  0  0  0  0  0  0  0
   -1.4980   20.5000  -30.1370 C   0  0  0  0  0  0  0  0  0  0  0  0
   -1.1880   19.6890  -29.2210 O   0  0  0  0  0  0  0  0  0  0  0  0
   -1.6060   21.9430  -29.8180 C   0  0  0  0  0  0  0  0  0  0  0  0
   -0.6680   22.5510  -28.9670 C   0  0  0  0  0  0  0  0  0  0  0  0
   -0.7590   23.9160  -28.6760 C   0  0  0  0  0  0  0  0  0  0  0  0
   -1.7780   24.6880  -29.2390 C   0  0  0  0  0  0  0  0  0  0  0  0
   -1.8430   26.0480  -28.9590 O   0  0  0  0  0  0  0  0  0  0  0  0
   -2.7160   24.0930  -30.0950 C   0  0  0  0  0  0  0  0  0  0  0  0
   -3.7550   24.8680  -30.6920 N   0  0  0  0  0  0  0  0  0  0  0  0
   -5.3590   24.8610  -30.0440 S   0  0  0  0  0  0  0  0  0  0  0  0
   -5.3110   24.8860  -28.5420 O   0  0  0  0  0  0  0  0  0  0  0  0
   -6.0820   26.0900  -30.5180 O   0  0  0  0  0  0  0  0  0  0  0  0
   -6.2040   23.4190  -30.5950 C   0  0  0  0  0  0  0  0  0  0  0  0
   -7.4280   23.0470  -30.0210 C   0  0  0  0  0  0  0  0  0  0  0  0
   -8.1010   21.9080  -30.4690 C   0  0  0  0  0  0  0  0  0  0  0  0
   -7.5620   21.1310  -31.5040 C   0  0  0  0  0  0  0  0  0  0  0  0
   -8.2360   19.9920  -31.9720 C   0  0  0  0  0  0  0  0  0  0  0  0
   -7.7000   19.2420  -33.0230 C   0  0  0  0  0  0  0  0  0  0  0  0
   -6.4890   19.6190  -33.6100 C   0  0  0  0  0  0  0  0  0  0  0  0
   -5.8040   20.7460  -33.1480 C   0  0  0  0  0  0  0  0  0  0  0  0
   -6.3320   21.5100  -32.0960 C   0  0  0  0  0  0  0  0  0  0  0  0
   -5.6620   22.6530  -31.6350 C   0  0  0  0  0  0  0  0  0  0  0  0
   -2.6220   22.7270  -30.3890 C   0  0  0  0  0  0  0  0  0  0  0  0
   -2.8890   20.4390  -32.2420 C   0  0  0  0  0  0  0  0  0  0  0  0
   -2.5110   20.6650  -33.7160 C   0  0  0  0  0  0  0  0  0  0  0  0
    1.0952   20.0018  -32.5524 H   0  0  0  0  0  0  0  0  0  0  0  0
    1.4957   18.8167  -33.8415 H   0  0  0  0  0  0  0  0  0  0  0  0
    2.2673   20.4389  -33.8415 H   0  0  0  0  0  0  0  0  0  0  0  0
   -2.2446   17.9347  -33.3921 H   0  0  0  0  0  0  0  0  0  0  0  0
   -0.4808   17.9301  -33.8303 H   0  0  0  0  0  0  0  0  0  0  0  0
   -1.1287   17.9987  -31.3097 H   0  0  0  0  0  0  0  0  0  0  0  0
    0.1316   19.1394  -31.9271 H   0  0  0  0  0  0  0  0  0  0  0  0
    0.1420   21.9505  -28.5274 H   0  0  0  0  0  0  0  0  0  0  0  0
   -0.0260   24.3830  -28.0018 H   0  0  0  0  0  0  0  0  0  0  0  0
   -7.8607   23.6556  -29.2133 H   0  0  0  0  0  0  0  0  0  0  0  0
   -9.0573   21.6196  -30.0081 H   0  0  0  0  0  0  0  0  0  0  0  0
   -9.1876   19.6891  -31.5109 H   0  0  0  0  0  0  0  0  0  0  0  0
   -8.2331   18.3522  -33.3891 H   0  0  0  0  0  0  0  0  0  0  0  0
   -6.0736   19.0266  -34.4385 H   0  0  0  0  0  0  0  0  0  0  0  0
   -4.8485   21.0350  -33.6101 H   0  0  0  0  0  0  0  0  0  0  0  0
   -4.7064   22.9492  -32.0924 H   0  0  0  0  0  0  0  0  0  0  0  0
   -3.3494   22.2645  -31.0723 H   0  0  0  0  0  0  0  0  0  0  0  0
   -3.6663   19.6629  -32.1826 H   0  0  0  0  0  0  0  0  0  0  0  0
   -3.2636   21.3842  -31.8221 H   0  0  0  0  0  0  0  0  0  0  0  0
   -3.4226   20.5692  -34.3241 H   0  0  0  0  0  0  0  0  0  0  0  0
   -2.0608   21.6668  -33.7760 H   0  0  0  0  0  0  0  0  0  0  0  0
  1  2  1  0
  2  3  2  0
  2  4  2  0
  2  5  1  0
  5  6  1  0
  6  7  1  0
  7  8  1  0
  8  9  1  0
  9 10  2  0
  9 11  1  0
 11 12  2  0
 12 13  1  0
 13 14  2  0
 14 15  1  0
 14 16  1  0
 16 17  1  0
 17 18  1  0
 18 19  2  0
 18 20  2  0
 18 21  1  0
 21 22  2  0
 22 23  1  0
 23 24  2  0
 24 25  1  0
 25 26  2  0
 26 27  1  0
 27 28  2  0
 28 29  1  0
 29 30  2  0
 16 31  2  0
  8 32  1  0
 32 33  1  0
 33  5  1  0
 31 11  1  0
 30 21  1  0
 29 24  1  0
  1 34  1  0
  1 35  1  0
  1 36  1  0
  6 37  1  0
  6 38  1  0
  7 39  1  0
  7 40  1  0
 12 41  1  0
 13 42  1  0
 22 43  1  0
 23 44  1  0
 25 45  1  0
 26 46  1  0
 27 47  1  0
 28 48  1  0
 30 49  1  0
 31 50  1  0
 32 51  1  0
 32 52  1  0
 33 53  1  0
 33 54  1  0
M  CHG  2  15  -1  17  -1
M  END
>  <UniqueID>  (42) 
40

>  <SMILES>  (42) 
CS(=O)(=O)N1CCN(C(=O)c2ccc([O-])c([N-]S(=O)(=O)c3ccc4ccccc4c3)c2)CC1

>  <Energy>  (42) 
71.54334679710584

>  <Genealogy>  (42) 
CS(=O)(=O)N1CCN(C(=O)c2ccc([O-])c([N-]S(=O)(=O)c3ccc4ccccc4c3)c2)CC1 (protonated)
CS(=O)(=O)N1CCN(C(=O)c2ccc([O-])c([N-]S(=O)(=O)c3ccc4ccccc4c3)c2)CC1 (3D coordinates assigned)
CS(=O)(=O)N1CCN(C(=O)c2ccc([O-])c([N-]S(=O)(=O)c3ccc4ccccc4c3)c2)CC1 (nonaromatic ring conformer: 71.54334679710584 kcal/mol)

>  <smiles>  (42) 
CS(=O)(=O)N1CCN(C(=O)c2ccc(O)c(NS(=O)(=O)c3ccc4ccccc4c3)c2)CC1

>  <score_type>  (42) 
oracle

>  <origin>  (42) 
adgpu

>  <m_score__min__energy>  (42) 
-15.33

>  <m_primary>  (42) 
energy

$$$$
42:0
     RDKit          3D

 65 69  0  0  0  0  0  0  0  0999 V2000
   -4.3640   23.8040  -31.3980 O   0  0  0  0  0  0  0  0  0  0  0  0
   -3.4750   23.0850  -30.8740 C   0  0  0  0  0  0  0  0  0  0  0  0
   -3.0070   23.4400  -29.6080 C   0  0  0  0  0  0  0  0  0  0  0  0
   -2.0550   22.6360  -28.9690 C   0  0  0  0  0  0  0  0  0  0  0  0
   -1.5250   22.9620  -27.6210 C   0  0  0  0  0  0  0  0  0  0  0  0
   -1.0260   21.9650  -26.7580 C   0  0  0  0  0  0  0  0  0  0  0  0
   -0.5230   22.3050  -25.4980 C   0  0  0  0  0  0  0  0  0  0  0  0
   -0.5040   23.6380  -25.0850 C   0  0  0  0  0  0  0  0  0  0  0  0
   -0.9810   24.6390  -25.9360 C   0  0  0  0  0  0  0  0  0  0  0  0
   -1.4860   24.3050  -27.1980 C   0  0  0  0  0  0  0  0  0  0  0  0
   -1.6040   21.5490  -29.5880 O   0  0  0  0  0  0  0  0  0  0  0  0
   -2.0070   21.1710  -30.7960 C   0  0  0  0  0  0  0  0  0  0  0  0
   -1.4740   19.9980  -31.3370 C   0  0  0  0  0  0  0  0  0  0  0  0
   -1.8640   19.5560  -32.6080 C   0  0  0  0  0  0  0  0  0  0  0  0
   -1.3540   18.3880  -33.2000 O   0  0  0  0  0  0  0  0  0  0  0  0
   -2.1240   17.2540  -33.6020 C   0  0  0  0  0  0  0  0  0  0  0  0
   -3.2540   17.6780  -34.5470 C   0  0  0  0  0  0  0  0  0  0  0  0
   -4.4500   16.7180  -34.4540 C   0  0  0  0  0  0  0  0  0  0  0  0
   -5.5930   17.3540  -33.7620 N   0  0  0  0  0  0  0  0  0  0  0  0
   -5.3450   17.4030  -32.3100 C   0  0  0  0  0  0  0  0  0  0  0  0
   -6.5690   17.9700  -31.5610 C   0  0  0  0  0  0  0  0  0  0  0  0
   -7.5660   18.5250  -32.4960 N   0  0  0  0  0  0  0  0  0  0  0  0
   -8.6580   19.1900  -31.7580 C   0  0  0  0  0  0  0  0  0  0  0  0
   -8.3930   20.6690  -31.6610 C   0  0  0  0  0  0  0  0  0  0  0  0
   -7.2140   21.1320  -31.0520 C   0  0  0  0  0  0  0  0  0  0  0  0
   -6.9710   22.5050  -30.9380 C   0  0  0  0  0  0  0  0  0  0  0  0
   -7.9060   23.4250  -31.4220 C   0  0  0  0  0  0  0  0  0  0  0  0
   -9.0870   22.9720  -32.0200 C   0  0  0  0  0  0  0  0  0  0  0  0
   -9.3310   21.5990  -32.1410 C   0  0  0  0  0  0  0  0  0  0  0  0
   -6.9070   19.4570  -33.4310 C   0  0  0  0  0  0  0  0  0  0  0  0
   -5.8470   18.7210  -34.2770 C   0  0  0  0  0  0  0  0  0  0  0  0
   -2.8000   20.3000  -33.3280 C   0  0  0  0  0  0  0  0  0  0  0  0
   -3.3390   21.4890  -32.8220 C   0  0  0  0  0  0  0  0  0  0  0  0
   -4.2210   22.1730  -33.6660 O   0  0  0  0  0  0  0  0  0  0  0  0
   -2.9590   21.9350  -31.5190 C   0  0  0  0  0  0  0  0  0  0  0  0
   -3.3844   24.3476  -29.1142 H   0  0  0  0  0  0  0  0  0  0  0  0
   -1.0323   20.9125  -27.0778 H   0  0  0  0  0  0  0  0  0  0  0  0
   -0.1410   21.5189  -24.8301 H   0  0  0  0  0  0  0  0  0  0  0  0
   -0.1140   23.9007  -24.0906 H   0  0  0  0  0  0  0  0  0  0  0  0
   -0.9595   25.6905  -25.6136 H   0  0  0  0  0  0  0  0  0  0  0  0
   -1.8555   25.0979  -27.8650 H   0  0  0  0  0  0  0  0  0  0  0  0
   -0.7410   19.4159  -30.7592 H   0  0  0  0  0  0  0  0  0  0  0  0
   -1.4694   16.5374  -34.1196 H   0  0  0  0  0  0  0  0  0  0  0  0
   -2.5646   16.7889  -32.7078 H   0  0  0  0  0  0  0  0  0  0  0  0
   -3.5860   18.6912  -34.2764 H   0  0  0  0  0  0  0  0  0  0  0  0
   -2.8708   17.6560  -35.5779 H   0  0  0  0  0  0  0  0  0  0  0  0
   -4.7598   16.4311  -35.4697 H   0  0  0  0  0  0  0  0  0  0  0  0
   -4.1425   15.8326  -33.8781 H   0  0  0  0  0  0  0  0  0  0  0  0
   -5.1391   16.3858  -31.9453 H   0  0  0  0  0  0  0  0  0  0  0  0
   -4.4830   18.0602  -32.1228 H   0  0  0  0  0  0  0  0  0  0  0  0
   -7.0364   17.1630  -30.9778 H   0  0  0  0  0  0  0  0  0  0  0  0
   -6.2250   18.7809  -30.9021 H   0  0  0  0  0  0  0  0  0  0  0  0
   -9.6079   19.0248  -32.2874 H   0  0  0  0  0  0  0  0  0  0  0  0
   -8.7157   18.7679  -30.7439 H   0  0  0  0  0  0  0  0  0  0  0  0
   -6.4791   20.4117  -30.6633 H   0  0  0  0  0  0  0  0  0  0  0  0
   -6.0430   22.8613  -30.4669 H   0  0  0  0  0  0  0  0  0  0  0  0
   -7.7132   24.5043  -31.3327 H   0  0  0  0  0  0  0  0  0  0  0  0
   -9.8250   23.6960  -32.3957 H   0  0  0  0  0  0  0  0  0  0  0  0
  -10.2599   21.2468  -32.6133 H   0  0  0  0  0  0  0  0  0  0  0  0
   -7.6637   19.8931  -34.0997 H   0  0  0  0  0  0  0  0  0  0  0  0
   -6.4098   20.2481  -32.8506 H   0  0  0  0  0  0  0  0  0  0  0  0
   -6.2040   18.6511  -35.3151 H   0  0  0  0  0  0  0  0  0  0  0  0
   -4.9071   19.2899  -34.2231 H   0  0  0  0  0  0  0  0  0  0  0  0
   -3.1222   19.9434  -34.3175 H   0  0  0  0  0  0  0  0  0  0  0  0
   -4.6860   23.0400  -33.4490 H   0  0  0  0  0  0  0  0  0  0  0  0
  1  2  2  0
  2  3  1  0
  3  4  2  0
  4  5  1  0
  5  6  2  0
  6  7  1  0
  7  8  2  0
  8  9  1  0
  9 10  2  0
  4 11  1  0
 11 12  1  0
 12 13  2  0
 13 14  1  0
 14 15  1  0
 15 16  1  0
 16 17  1  0
 17 18  1  0
 18 19  1  0
 19 20  1  0
 20 21  1  0
 21 22  1  0
 22 23  1  0
 23 24  1  0
 24 25  2  0
 25 26  1  0
 26 27  2  0
 27 28  1  0
 28 29  2  0
 22 30  1  0
 30 31  1  0
 14 32  2  0
 32 33  1  0
 33 34  1  0
 33 35  2  0
 35  2  1  0
 10  5  1  0
 35 12  1  0
 31 19  1  0
 29 24  1  0
  3 36  1  0
  6 37  1  0
  7 38  1  0
  8 39  1  0
  9 40  1  0
 10 41  1  0
 13 42  1  0
 16 43  1  0
 16 44  1  0
 17 45  1  0
 17 46  1  0
 18 47  1  0
 18 48  1  0
 20 49  1  0
 20 50  1  0
 21 51  1  0
 21 52  1  0
 23 53  1  0
 23 54  1  0
 25 55  1  0
 26 56  1  0
 27 57  1  0
 28 58  1  0
 29 59  1  0
 30 60  1  0
 30 61  1  0
 31 62  1  0
 31 63  1  0
 32 64  1  0
 34 65  1  0
M  END
>  <UniqueID>  (43) 
41

>  <SMILES>  (43) 
O=c1cc(-c2ccccc2)oc2cc(OCCCN3CCN(Cc4ccccc4)CC3)cc(O)c12

>  <Energy>  (43) 
91.40975882201879

>  <Genealogy>  (43) 
O=c1cc(-c2ccccc2)oc2cc(OCCCN3CCN(Cc4ccccc4)CC3)cc(O)c12 (3D coordinates assigned)
O=c1cc(-c2ccccc2)oc2cc(OCCCN3CCN(Cc4ccccc4)CC3)cc(O)c12 (nonaromatic ring conformer: 91.40975882201879 kcal/mol)

>  <smiles>  (43) 
O=c1cc(-c2ccccc2)oc2cc(OCCCN3CCN(Cc4ccccc4)CC3)cc(O)c12

>  <score_type>  (43) 
oracle

>  <origin>  (43) 
adgpu

>  <m_score__min__energy>  (43) 
-10.83

>  <m_primary>  (43) 
energy

$$$$
43:0
     RDKit          3D

 30 31  0  0  0  0  0  0  0  0999 V2000
   -8.2620   18.5920  -32.6610 C   0  0  0  0  0  0  0  0  0  0  0  0
   -7.5820   19.8240  -32.1410 C   0  0  0  0  0  0  0  0  0  0  0  0
   -8.2460   20.6700  -31.2450 C   0  0  0  0  0  0  0  0  0  0  0  0
   -7.6350   21.8410  -30.7970 C   0  0  0  0  0  0  0  0  0  0  0  0
   -6.3540   22.1980  -31.2480 C   0  0  0  0  0  0  0  0  0  0  0  0
   -5.7690   23.4700  -30.7660 C   0  0  0  0  0  0  0  0  0  0  0  0
   -6.3220   24.5530  -31.0990 O   0  0  0  0  0  0  0  0  0  0  0  0
   -4.5260   23.5010  -29.9510 C   0  0  0  0  0  0  0  0  0  0  0  0
   -4.2210   22.4250  -29.0970 C   0  0  0  0  0  0  0  0  0  0  0  0
   -3.0520   22.4360  -28.3320 C   0  0  0  0  0  0  0  0  0  0  0  0
   -2.1700   23.5150  -28.4130 C   0  0  0  0  0  0  0  0  0  0  0  0
   -1.0090   23.5160  -27.6480 O   0  0  0  0  0  0  0  0  0  0  0  0
   -2.4570   24.5900  -29.2600 C   0  0  0  0  0  0  0  0  0  0  0  0
   -1.5780   25.6650  -29.3380 O   0  0  0  0  0  0  0  0  0  0  0  0
   -3.6290   24.5880  -30.0290 C   0  0  0  0  0  0  0  0  0  0  0  0
   -3.9010   25.6760  -30.8520 O   0  0  0  0  0  0  0  0  0  0  0  0
   -5.6640   21.3350  -32.1370 C   0  0  0  0  0  0  0  0  0  0  0  0
   -4.2690   21.6350  -32.6200 C   0  0  0  0  0  0  0  0  0  0  0  0
   -6.3010   20.1700  -32.5960 C   0  0  0  0  0  0  0  0  0  0  0  0
   -8.6019   17.9762  -31.8153 H   0  0  0  0  0  0  0  0  0  0  0  0
   -9.1277   18.8823  -33.2745 H   0  0  0  0  0  0  0  0  0  0  0  0
   -7.5550   18.0142  -33.2745 H   0  0  0  0  0  0  0  0  0  0  0  0
   -9.2550   20.4099  -30.8924 H   0  0  0  0  0  0  0  0  0  0  0  0
   -8.1619   22.4914  -30.0833 H   0  0  0  0  0  0  0  0  0  0  0  0
   -4.9083   21.5686  -29.0312 H   0  0  0  0  0  0  0  0  0  0  0  0
   -2.8259   21.5919  -27.6639 H   0  0  0  0  0  0  0  0  0  0  0  0
   -3.6044   21.7779  -31.7552 H   0  0  0  0  0  0  0  0  0  0  0  0
   -3.9032   20.7950  -33.2287 H   0  0  0  0  0  0  0  0  0  0  0  0
   -4.2808   22.5511  -33.2287 H   0  0  0  0  0  0  0  0  0  0  0  0
   -5.7887   19.5209  -33.3214 H   0  0  0  0  0  0  0  0  0  0  0  0
  1  2  1  0
  2  3  2  0
  3  4  1  0
  4  5  2  0
  5  6  1  0
  6  7  2  0
  6  8  1  0
  8  9  2  0
  9 10  1  0
 10 11  2  0
 11 12  1  0
 11 13  1  0
 13 14  1  0
 13 15  2  0
 15 16  1  0
  5 17  1  0
 17 18  1  0
 17 19  2  0
 19  2  1  0
 15  8  1  0
  1 20  1  0
  1 21  1  0
  1 22  1  0
  3 23  1  0
  4 24  1  0
  9 25  1  0
 10 26  1  0
 18 27  1  0
 18 28  1  0
 18 29  1  0
 19 30  1  0
M  CHG  3  12  -1  14  -1  16  -1
M  END
>  <UniqueID>  (44) 
42

>  <SMILES>  (44) 
Cc1ccc(C(=O)c2ccc([O-])c([O-])c2[O-])c(C)c1

>  <Energy>  (44) 
40.015266772718995

>  <Genealogy>  (44) 
Cc1ccc(C(=O)c2ccc([O-])c([O-])c2[O-])c(C)c1 (protonated)
Cc1ccc(C(=O)c2ccc([O-])c([O-])c2[O-])c(C)c1 (3D coordinates assigned)
Cc1ccc(C(=O)c2ccc([O-])c([O-])c2[O-])c(C)c1 (optimized conformer: 40.015266772718995 kcal/mol)

>  <smiles>  (44) 
Cc1ccc(C(=O)c2ccc(O)c(O)c2O)c(C)c1

>  <score_type>  (44) 
oracle

>  <origin>  (44) 
adgpu

>  <m_score__min__energy>  (44) 
-14.26

>  <m_primary>  (44) 
energy

$$$$
44:0
     RDKit          3D

 42 45  0  0  0  0  0  0  0  0999 V2000
   -3.8390   24.0130  -31.1250 O   0  0  0  0  0  0  0  0  0  0  0  0
   -3.1890   23.4390  -30.2100 C   0  0  0  0  0  0  0  0  0  0  0  0
   -2.8080   22.0590  -30.3410 N   0  0  0  0  0  0  0  0  0  0  0  0
   -2.8730   21.3190  -31.5740 C   0  0  0  0  0  0  0  0  0  0  0  0
   -1.8630   21.4900  -32.5320 C   0  0  0  0  0  0  0  0  0  0  0  0
   -1.9210   20.8080  -33.7490 C   0  0  0  0  0  0  0  0  0  0  0  0
   -2.9920   19.9550  -34.0260 C   0  0  0  0  0  0  0  0  0  0  0  0
   -4.0150   19.7840  -33.0850 C   0  0  0  0  0  0  0  0  0  0  0  0
   -5.3970   18.7550  -33.4500 S   0  0  0  0  0  0  0  0  0  0  0  0
   -5.7070   18.8310  -34.9190 O   0  0  0  0  0  0  0  0  0  0  0  0
   -5.0650   17.3340  -33.0920 O   0  0  0  0  0  0  0  0  0  0  0  0
   -6.7740   19.2790  -32.5380 N   0  0  0  0  0  0  0  0  0  0  0  0
   -7.7550   18.3890  -31.9230 C   0  0  0  0  0  0  0  0  0  0  0  0
   -8.7970   19.3140  -31.2430 C   0  0  0  0  0  0  0  0  0  0  0  0
   -8.2970   20.6830  -31.5520 C   0  0  0  0  0  0  0  0  0  0  0  0
   -8.8560   21.9090  -31.1870 C   0  0  0  0  0  0  0  0  0  0  0  0
   -8.2100   23.0890  -31.5950 C   0  0  0  0  0  0  0  0  0  0  0  0
   -7.0250   23.0220  -32.3540 C   0  0  0  0  0  0  0  0  0  0  0  0
   -6.4810   21.7770  -32.7090 C   0  0  0  0  0  0  0  0  0  0  0  0
   -7.1460   20.6210  -32.2890 C   0  0  0  0  0  0  0  0  0  0  0  0
   -3.9610   20.4770  -31.8660 C   0  0  0  0  0  0  0  0  0  0  0  0
   -2.8560   24.1810  -28.9850 C   0  0  0  0  0  0  0  0  0  0  0  0
   -3.3250   23.9040  -27.7160 C   0  0  0  0  0  0  0  0  0  0  0  0
   -2.7530   24.8500  -26.8940 C   0  0  0  0  0  0  0  0  0  0  0  0
   -1.9730   25.6440  -27.7090 C   0  0  0  0  0  0  0  0  0  0  0  0
   -2.0550   25.2210  -28.9500 O   0  0  0  0  0  0  0  0  0  0  0  0
   -2.5470   21.5390  -29.4730 H   0  0  0  0  0  0  0  0  0  0  0  0
   -1.0202   22.1654  -32.3234 H   0  0  0  0  0  0  0  0  0  0  0  0
   -1.1210   20.9428  -34.4918 H   0  0  0  0  0  0  0  0  0  0  0  0
   -3.0319   19.4169  -34.9846 H   0  0  0  0  0  0  0  0  0  0  0  0
   -8.2389   17.7648  -32.6887 H   0  0  0  0  0  0  0  0  0  0  0  0
   -7.2851   17.7074  -31.1987 H   0  0  0  0  0  0  0  0  0  0  0  0
   -9.7996   19.1561  -31.6671 H   0  0  0  0  0  0  0  0  0  0  0  0
   -8.8977   19.1270  -30.1637 H   0  0  0  0  0  0  0  0  0  0  0  0
   -9.7812   21.9508  -30.5935 H   0  0  0  0  0  0  0  0  0  0  0  0
   -8.6310   24.0676  -31.3208 H   0  0  0  0  0  0  0  0  0  0  0  0
   -6.5238   23.9488  -32.6699 H   0  0  0  0  0  0  0  0  0  0  0  0
   -5.5565   21.7129  -33.3016 H   0  0  0  0  0  0  0  0  0  0  0  0
   -4.7744   20.3610  -31.1346 H   0  0  0  0  0  0  0  0  0  0  0  0
   -4.0120   23.0965  -27.4227 H   0  0  0  0  0  0  0  0  0  0  0  0
   -2.8904   24.9517  -25.8074 H   0  0  0  0  0  0  0  0  0  0  0  0
   -1.3730   26.5017  -27.3708 H   0  0  0  0  0  0  0  0  0  0  0  0
  1  2  2  0
  2  3  1  0
  3  4  1  0
  4  5  2  0
  5  6  1  0
  6  7  2  0
  7  8  1  0
  8  9  1  0
  9 10  2  0
  9 11  2  0
  9 12  1  0
 12 13  1  0
 13 14  1  0
 14 15  1  0
 15 16  2  0
 16 17  1  0
 17 18  2  0
 18 19  1  0
 19 20  2  0
  8 21  2  0
  2 22  1  0
 22 23  2  0
 23 24  1  0
 24 25  2  0
 25 26  1  0
 21  4  1  0
 26 22  1  0
 20 12  1  0
 20 15  1  0
  3 27  1  0
  5 28  1  0
  6 29  1  0
  7 30  1  0
 13 31  1  0
 13 32  1  0
 14 33  1  0
 14 34  1  0
 16 35  1  0
 17 36  1  0
 18 37  1  0
 19 38  1  0
 21 39  1  0
 23 40  1  0
 24 41  1  0
 25 42  1  0
M  END
>  <UniqueID>  (45) 
43

>  <SMILES>  (45) 
O=C(Nc1cccc(S(=O)(=O)N2CCc3ccccc32)c1)c1ccco1

>  <Energy>  (45) 
90.25575273968572

>  <Genealogy>  (45) 
O=C(Nc1cccc(S(=O)(=O)N2CCc3ccccc32)c1)c1ccco1 (3D coordinates assigned)
O=C(Nc1cccc(S(=O)(=O)N2CCc3ccccc32)c1)c1ccco1 (nonaromatic ring conformer: 90.25575273968572 kcal/mol)

>  <smiles>  (45) 
O=C(Nc1cccc(S(=O)(=O)N2CCc3ccccc32)c1)c1ccco1

>  <score_type>  (45) 
oracle

>  <origin>  (45) 
adgpu

>  <m_score__min__energy>  (45) 
-10.06

>  <m_primary>  (45) 
energy

$$$$
45:0
     RDKit          3D

 38 40  0  0  0  0  0  0  0  0999 V2000
   -8.7368   21.4807  -31.4252 H   0  0  0  0  0  0  0  0  0  0  0  0
   -8.0180   22.2960  -31.2560 C   0  0  0  0  0  0  0  0  0  0  0  0
   -7.5810   22.5650  -29.9970 N   0  0  0  0  0  0  0  0  0  0  0  0
   -6.6880   23.5610  -29.7490 C   0  0  0  0  0  0  0  0  0  0  0  0
   -6.3607   23.7594  -28.7177 H   0  0  0  0  0  0  0  0  0  0  0  0
   -6.1830   24.3360  -30.8040 C   0  0  0  0  0  0  0  0  0  0  0  0
   -5.2270   25.4620  -30.5360 C   0  0  0  0  0  0  0  0  0  0  0  0
   -5.3040   25.7670  -29.4819 H   0  0  0  0  0  0  0  0  0  0  0  0
   -5.4742   26.3181  -31.1810 H   0  0  0  0  0  0  0  0  0  0  0  0
   -3.8680   25.0140  -30.8160 N   0  0  0  0  0  0  0  0  0  0  0  0
   -3.1580   24.0040  -30.0870 C   0  0  0  0  0  0  0  0  0  0  0  0
   -2.9320   24.1940  -28.8630 O   0  0  0  0  0  0  0  0  0  0  0  0
   -2.7230   22.7330  -30.6980 C   0  0  0  0  0  0  0  0  0  0  0  0
   -1.3950   22.3000  -30.7360 C   0  0  0  0  0  0  0  0  0  0  0  0
   -0.5257   22.8475  -30.3428 H   0  0  0  0  0  0  0  0  0  0  0  0
   -1.3570   20.7930  -31.4890 S   0  0  0  0  0  0  0  0  0  0  0  0
   -3.0190   20.7380  -31.7050 C   0  0  0  0  0  0  0  0  0  0  0  0
   -3.6290   19.7570  -32.3050 N   0  0  0  0  0  0  0  0  0  0  0  0
   -5.0470   19.6050  -32.4570 C   0  0  0  0  0  0  0  0  0  0  0  0
   -5.7570   18.8580  -31.5100 C   0  0  0  0  0  0  0  0  0  0  0  0
   -5.2186   18.3654  -30.6869 H   0  0  0  0  0  0  0  0  0  0  0  0
   -7.1480   18.7340  -31.6040 C   0  0  0  0  0  0  0  0  0  0  0  0
   -7.6966   18.1367  -30.8608 H   0  0  0  0  0  0  0  0  0  0  0  0
   -7.8450   19.3690  -32.6430 C   0  0  0  0  0  0  0  0  0  0  0  0
   -9.3400   19.2690  -32.7200 C   0  0  0  0  0  0  0  0  0  0  0  0
   -9.7585   19.2410  -31.7031 H   0  0  0  0  0  0  0  0  0  0  0  0
   -9.7388   20.1425  -33.2567 H   0  0  0  0  0  0  0  0  0  0  0  0
   -9.6189   18.3502  -33.2567 H   0  0  0  0  0  0  0  0  0  0  0  0
   -7.1410   20.1620  -33.5610 C   0  0  0  0  0  0  0  0  0  0  0  0
   -7.6843   20.6893  -34.3590 H   0  0  0  0  0  0  0  0  0  0  0  0
   -5.7520   20.2850  -33.4660 C   0  0  0  0  0  0  0  0  0  0  0  0
   -5.2079   20.9165  -34.1837 H   0  0  0  0  0  0  0  0  0  0  0  0
   -3.6190   21.8560  -31.2310 N   0  0  0  0  0  0  0  0  0  0  0  0
   -4.6400   22.0630  -31.3010 H   0  0  0  0  0  0  0  0  0  0  0  0
   -6.6390   24.0800  -32.1060 C   0  0  0  0  0  0  0  0  0  0  0  0
   -6.2738   24.6887  -32.9463 H   0  0  0  0  0  0  0  0  0  0  0  0
   -7.5560   23.0530  -32.3350 C   0  0  0  0  0  0  0  0  0  0  0  0
   -7.9111   22.8420  -33.3545 H   0  0  0  0  0  0  0  0  0  0  0  0
  1  2  1  0
  2  3  2  0
  3  4  1  0
  4  5  1  0
  4  6  2  0
  6  7  1  0
  7  8  1  0
  7  9  1  0
  7 10  1  0
 10 11  1  0
 11 12  2  0
 11 13  1  0
 13 14  2  0
 14 15  1  0
 14 16  1  0
 16 17  1  0
 17 18  2  0
 18 19  1  0
 19 20  2  0
 20 21  1  0
 20 22  1  0
 22 23  1  0
 22 24  2  0
 24 25  1  0
 25 26  1  0
 25 27  1  0
 25 28  1  0
 24 29  1  0
 29 30  1  0
 29 31  2  0
 31 32  1  0
 17 33  1  0
 33 34  1  0
  6 35  1  0
 35 36  1  0
 35 37  2  0
 37 38  1  0
 37  2  1  0
 33 13  1  0
 31 19  1  0
M  CHG  1  10  -1
M  END
>  <UniqueID>  (46) 
44

>  <SMILES>  (46) 
Cc1ccc(/N=c2\[nH]c(C(=O)[N-]Cc3cccnc3)cs2)cc1

>  <Energy>  (46) 
79.86609830477842

>  <Genealogy>  (46) 
Cc1ccc(N=c2[nH]c(C(=O)[N-]Cc3cccnc3)cs2)cc1 (protonated)
Cc1ccc(/N=c2\[nH]c(C(=O)[N-]Cc3cccnc3)cs2)cc1 (cis-trans isomerization)
Cc1ccc(/N=c2\[nH]c(C(=O)[N-]Cc3cccnc3)cs2)cc1 (3D coordinates assigned)
Cc1ccc(/N=c2\[nH]c(C(=O)[N-]Cc3cccnc3)cs2)cc1 (optimized conformer: 79.86609830477842 kcal/mol)

>  <smiles>  (46) 
Cc1ccc(N=c2[nH]c(C(=O)NCc3cccnc3)cs2)cc1

>  <score_type>  (46) 
oracle

>  <origin>  (46) 
adgpu

>  <m_score__min__energy>  (46) 
-9.2699999999999996

>  <m_primary>  (46) 
energy

$$$$
46:0
     RDKit          3D

 45 47  0  0  0  0  0  0  0  0999 V2000
   -1.4420   13.9800  -33.5090 C   0  0  0  0  0  0  0  0  0  0  0  0
   -2.8370   14.2380  -33.9080 N   0  0  0  0  0  0  0  0  0  0  0  0
   -2.9230   15.4010  -34.8330 C   0  0  0  0  0  0  0  0  0  0  0  0
   -3.2900   16.7060  -34.1010 C   0  0  0  0  0  0  0  0  0  0  0  0
   -4.5680   16.6010  -33.3590 N   0  0  0  0  0  0  0  0  0  0  0  0
   -5.8780   17.3910  -34.2070 S   0  0  0  0  0  0  0  0  0  0  0  0
   -5.3860   17.8860  -35.5390 O   0  0  0  0  0  0  0  0  0  0  0  0
   -6.9770   16.3960  -34.4580 O   0  0  0  0  0  0  0  0  0  0  0  0
   -6.5250   18.7510  -33.2850 C   0  0  0  0  0  0  0  0  0  0  0  0
   -7.5450   18.5460  -32.3470 C   0  0  0  0  0  0  0  0  0  0  0  0
   -8.0460   19.6180  -31.6030 C   0  0  0  0  0  0  0  0  0  0  0  0
   -7.5410   20.9160  -31.7940 C   0  0  0  0  0  0  0  0  0  0  0  0
   -8.0750   22.0500  -31.0000 C   0  0  0  0  0  0  0  0  0  0  0  0
   -8.9330   21.8320  -30.1020 O   0  0  0  0  0  0  0  0  0  0  0  0
   -7.5850   23.3900  -31.1690 N   0  0  0  0  0  0  0  0  0  0  0  0
   -6.3750   23.8180  -30.9350 C   0  0  0  0  0  0  0  0  0  0  0  0
   -5.3190   22.9570  -30.5710 C   0  0  0  0  0  0  0  0  0  0  0  0
   -4.0460   23.4870  -30.3410 C   0  0  0  0  0  0  0  0  0  0  0  0
   -3.8270   24.8220  -30.4780 N   0  0  0  0  0  0  0  0  0  0  0  0
   -4.8220   25.6720  -30.8430 C   0  0  0  0  0  0  0  0  0  0  0  0
   -6.1080   25.1850  -31.0820 C   0  0  0  0  0  0  0  0  0  0  0  0
   -6.5150   21.1150  -32.7360 C   0  0  0  0  0  0  0  0  0  0  0  0
   -6.0170   20.0410  -33.4790 C   0  0  0  0  0  0  0  0  0  0  0  0
   -4.9440   15.2180  -33.0020 C   0  0  0  0  0  0  0  0  0  0  0  0
   -3.6970   14.3760  -32.7040 C   0  0  0  0  0  0  0  0  0  0  0  0
   -1.3710   13.9669  -32.4114 H   0  0  0  0  0  0  0  0  0  0  0  0
   -1.1202   13.0071  -33.9089 H   0  0  0  0  0  0  0  0  0  0  0  0
   -0.7935   14.7734  -33.9089 H   0  0  0  0  0  0  0  0  0  0  0  0
   -3.1640   13.3940  -34.4360 H   0  0  0  0  0  0  0  0  0  0  0  0
   -1.9484   15.5339  -35.3253 H   0  0  0  0  0  0  0  0  0  0  0  0
   -3.7177   15.1909  -35.5639 H   0  0  0  0  0  0  0  0  0  0  0  0
   -2.4876   16.9484  -33.3887 H   0  0  0  0  0  0  0  0  0  0  0  0
   -3.4085   17.4929  -34.8605 H   0  0  0  0  0  0  0  0  0  0  0  0
   -7.9538   17.5361  -32.1951 H   0  0  0  0  0  0  0  0  0  0  0  0
   -8.8410   19.4448  -30.8628 H   0  0  0  0  0  0  0  0  0  0  0  0
   -5.4958   21.8761  -30.4688 H   0  0  0  0  0  0  0  0  0  0  0  0
   -3.2196   22.8225  -30.0485 H   0  0  0  0  0  0  0  0  0  0  0  0
   -4.6136   26.7467  -30.9504 H   0  0  0  0  0  0  0  0  0  0  0  0
   -6.9104   25.8736  -31.3853 H   0  0  0  0  0  0  0  0  0  0  0  0
   -6.1019   22.1230  -32.8888 H   0  0  0  0  0  0  0  0  0  0  0  0
   -5.2218   20.2102  -34.2200 H   0  0  0  0  0  0  0  0  0  0  0  0
   -5.5877   15.2377  -32.1103 H   0  0  0  0  0  0  0  0  0  0  0  0
   -5.4801   14.7675  -33.8503 H   0  0  0  0  0  0  0  0  0  0  0  0
   -3.1188   14.8628  -31.9048 H   0  0  0  0  0  0  0  0  0  0  0  0
   -4.0225   13.3722  -32.3935 H   0  0  0  0  0  0  0  0  0  0  0  0
  1  2  1  0
  2  3  1  0
  3  4  1  0
  4  5  1  0
  5  6  1  0
  6  7  2  0
  6  8  2  0
  6  9  1  0
  9 10  2  0
 10 11  1  0
 11 12  2  0
 12 13  1  0
 13 14  2  0
 13 15  1  0
 15 16  2  3
 16 17  1  0
 17 18  2  0
 18 19  1  0
 19 20  1  0
 20 21  2  0
 12 22  1  0
 22 23  2  0
  5 24  1  0
 24 25  1  0
 25  2  1  0
 23  9  1  0
 21 16  1  0
  1 26  1  0
  1 27  1  0
  1 28  1  0
  2 29  1  0
  3 30  1  0
  3 31  1  0
  4 32  1  0
  4 33  1  0
 10 34  1  0
 11 35  1  0
 17 36  1  0
 18 37  1  0
 20 38  1  0
 21 39  1  0
 22 40  1  0
 23 41  1  0
 24 42  1  0
 24 43  1  0
 25 44  1  0
 25 45  1  0
M  CHG  2   2   1  19  -1
M  END
>  <UniqueID>  (47) 
45

>  <SMILES>  (47) 
C[NH+]1CCN(S(=O)(=O)c2ccc(C(=O)N=c3cc[n-]cc3)cc2)CC1

>  <Energy>  (47) 
67.67856892789399

>  <Genealogy>  (47) 
C[NH+]1CCN(S(=O)(=O)c2ccc(C(=O)N=c3cc[n-]cc3)cc2)CC1 (protonated)
C[NH+]1CCN(S(=O)(=O)c2ccc(C(=O)N=c3cc[n-]cc3)cc2)CC1 (3D coordinates assigned)
C[NH+]1CCN(S(=O)(=O)c2ccc(C(=O)N=c3cc[n-]cc3)cc2)CC1 (nonaromatic ring conformer: 67.67856892789399 kcal/mol)

>  <smiles>  (47) 
CN1CCN(S(=O)(=O)c2ccc(C(=O)N=c3cc[nH]cc3)cc2)CC1

>  <score_type>  (47) 
oracle

>  <origin>  (47) 
adgpu

>  <m_score__min__energy>  (47) 
-9.3000000000000007

>  <m_primary>  (47) 
energy

$$$$
47:0
     RDKit          3D

 59 62  0  0  0  0  0  0  0  0999 V2000
   -4.3780   25.4360  -31.1670 O   0  0  0  0  0  0  0  0  0  0  0  0
   -5.1290   24.4400  -30.3290 S   0  0  0  0  0  0  0  0  0  0  0  0
   -6.5530   24.9040  -30.2080 O   0  0  0  0  0  0  0  0  0  0  0  0
   -4.4110   24.3730  -28.7580 N   0  0  0  0  0  0  0  0  0  0  0  0
   -3.1680   23.7060  -28.5390 C   0  0  0  0  0  0  0  0  0  0  0  0
   -3.1570   22.3830  -28.0770 C   0  0  0  0  0  0  0  0  0  0  0  0
   -1.9420   21.7000  -27.9150 C   0  0  0  0  0  0  0  0  0  0  0  0
   -1.9300   20.0190  -27.3670 S   0  0  0  0  0  0  0  0  0  0  0  0
   -3.3490   19.5280  -27.2640 O   0  0  0  0  0  0  0  0  0  0  0  0
   -1.3130   19.9480  -25.9960 O   0  0  0  0  0  0  0  0  0  0  0  0
   -1.0180   18.9870  -28.4460 N   0  0  0  0  0  0  0  0  0  0  0  0
    0.2580   18.5400  -27.8300 C   0  0  0  0  0  0  0  0  0  0  0  0
    1.4820   19.2780  -28.3940 C   0  0  0  0  0  0  0  0  0  0  0  0
    1.5950   19.0850  -29.9150 C   0  0  0  0  0  0  0  0  0  0  0  0
    0.2250   18.9500  -30.6020 C   0  0  0  0  0  0  0  0  0  0  0  0
   -0.8770   19.6210  -29.7750 C   0  0  0  0  0  0  0  0  0  0  0  0
   -0.7370   22.3540  -28.2180 C   0  0  0  0  0  0  0  0  0  0  0  0
   -0.7470   23.6780  -28.6640 C   0  0  0  0  0  0  0  0  0  0  0  0
   -1.9610   24.3540  -28.8320 C   0  0  0  0  0  0  0  0  0  0  0  0
   -1.9620   25.6670  -29.2930 O   0  0  0  0  0  0  0  0  0  0  0  0
   -5.0330   22.8570  -31.1050 C   0  0  0  0  0  0  0  0  0  0  0  0
   -6.2100   22.1150  -31.2730 C   0  0  0  0  0  0  0  0  0  0  0  0
   -6.1760   20.8440  -31.8650 C   0  0  0  0  0  0  0  0  0  0  0  0
   -7.6640   19.9030  -32.0440 S   0  0  0  0  0  0  0  0  0  0  0  0
   -8.5460   20.1450  -30.8500 O   0  0  0  0  0  0  0  0  0  0  0  0
   -8.3990   20.3770  -33.2670 O   0  0  0  0  0  0  0  0  0  0  0  0
   -7.3610   18.1830  -32.1910 N   0  0  0  0  0  0  0  0  0  0  0  0
   -6.3690   17.7180  -31.2240 C   0  0  0  0  0  0  0  0  0  0  0  0
   -5.7450   16.4660  -31.8200 C   0  0  0  0  0  0  0  0  0  0  0  0
   -5.9990   16.5650  -33.3170 C   0  0  0  0  0  0  0  0  0  0  0  0
   -6.8260   17.8290  -33.5070 C   0  0  0  0  0  0  0  0  0  0  0  0
   -4.9560   20.3250  -32.3140 C   0  0  0  0  0  0  0  0  0  0  0  0
   -3.7800   21.0600  -32.1540 C   0  0  0  0  0  0  0  0  0  0  0  0
   -3.8110   22.3280  -31.5630 C   0  0  0  0  0  0  0  0  0  0  0  0
   -2.6270   23.0470  -31.4400 O   0  0  0  0  0  0  0  0  0  0  0  0
   -4.1050   21.8777  -27.8403 H   0  0  0  0  0  0  0  0  0  0  0  0
    0.2073   18.7207  -26.7461 H   0  0  0  0  0  0  0  0  0  0  0  0
    0.3805   17.4714  -28.0602 H   0  0  0  0  0  0  0  0  0  0  0  0
    1.3862   20.3516  -28.1746 H   0  0  0  0  0  0  0  0  0  0  0  0
    2.3858   18.8650  -27.9222 H   0  0  0  0  0  0  0  0  0  0  0  0
    2.1181   19.9535  -30.3416 H   0  0  0  0  0  0  0  0  0  0  0  0
    2.1471   18.1498  -30.0902 H   0  0  0  0  0  0  0  0  0  0  0  0
    0.2714   19.4268  -31.5922 H   0  0  0  0  0  0  0  0  0  0  0  0
   -0.0132   17.8804  -30.6979 H   0  0  0  0  0  0  0  0  0  0  0  0
   -0.6259   20.6834  -29.6396 H   0  0  0  0  0  0  0  0  0  0  0  0
   -1.8296   19.5099  -30.3137 H   0  0  0  0  0  0  0  0  0  0  0  0
    0.2188   21.8217  -28.1038 H   0  0  0  0  0  0  0  0  0  0  0  0
    0.2013   24.1903  -28.8836 H   0  0  0  0  0  0  0  0  0  0  0  0
   -7.1702   22.5337  -30.9372 H   0  0  0  0  0  0  0  0  0  0  0  0
   -5.6001   18.4888  -31.0668 H   0  0  0  0  0  0  0  0  0  0  0  0
   -6.8305   17.5084  -30.2477 H   0  0  0  0  0  0  0  0  0  0  0  0
   -4.6649   16.4379  -31.6134 H   0  0  0  0  0  0  0  0  0  0  0  0
   -6.1749   15.5490  -31.3906 H   0  0  0  0  0  0  0  0  0  0  0  0
   -5.0478   16.6422  -33.8640 H   0  0  0  0  0  0  0  0  0  0  0  0
   -6.5191   15.6755  -33.7022 H   0  0  0  0  0  0  0  0  0  0  0  0
   -6.1925   18.6426  -33.8901 H   0  0  0  0  0  0  0  0  0  0  0  0
   -7.6362   17.6665  -34.2330 H   0  0  0  0  0  0  0  0  0  0  0  0
   -4.9239   19.3358  -32.7940 H   0  0  0  0  0  0  0  0  0  0  0  0
   -2.8224   20.6395  -32.4949 H   0  0  0  0  0  0  0  0  0  0  0  0
  1  2  2  0
  2  3  2  0
  2  4  1  0
  4  5  1  0
  5  6  2  0
  6  7  1  0
  7  8  1  0
  8  9  2  0
  8 10  2  0
  8 11  1  0
 11 12  1  0
 12 13  1  0
 13 14  1  0
 14 15  1  0
 15 16  1  0
  7 17  2  0
 17 18  1  0
 18 19  2  0
 19 20  1  0
  2 21  1  0
 21 22  2  0
 22 23  1  0
 23 24  1  0
 24 25  2  0
 24 26  2  0
 24 27  1  0
 27 28  1  0
 28 29  1  0
 29 30  1  0
 30 31  1  0
 23 32  2  0
 32 33  1  0
 33 34  2  0
 34 35  1  0
 19  5  1  0
 34 21  1  0
 16 11  1  0
 31 27  1  0
  6 36  1  0
 12 37  1  0
 12 38  1  0
 13 39  1  0
 13 40  1  0
 14 41  1  0
 14 42  1  0
 15 43  1  0
 15 44  1  0
 16 45  1  0
 16 46  1  0
 17 47  1  0
 18 48  1  0
 22 49  1  0
 28 50  1  0
 28 51  1  0
 29 52  1  0
 29 53  1  0
 30 54  1  0
 30 55  1  0
 31 56  1  0
 31 57  1  0
 32 58  1  0
 33 59  1  0
M  CHG  3   4  -1  20  -1  35  -1
M  END
>  <UniqueID>  (48) 
46

>  <SMILES>  (48) 
O=S(=O)([N-]c1cc(S(=O)(=O)N2CCCCC2)ccc1[O-])c1cc(S(=O)(=O)N2CCCC2)ccc1[O-]

>  <Energy>  (48) 
74.82446915995888

>  <Genealogy>  (48) 
O=S(=O)([N-]c1cc(S(=O)(=O)N2CCCCC2)ccc1[O-])c1cc(S(=O)(=O)N2CCCC2)ccc1[O-] (protonated)
O=S(=O)([N-]c1cc(S(=O)(=O)N2CCCCC2)ccc1[O-])c1cc(S(=O)(=O)N2CCCC2)ccc1[O-] (3D coordinates assigned)
O=S(=O)([N-]c1cc(S(=O)(=O)N2CCCCC2)ccc1[O-])c1cc(S(=O)(=O)N2CCCC2)ccc1[O-] (nonaromatic ring conformer: 74.82446915995888 kcal/mol)

>  <smiles>  (48) 
O=S(=O)(Nc1cc(S(=O)(=O)N2CCCCC2)ccc1O)c1cc(S(=O)(=O)N2CCCC2)ccc1O

>  <score_type>  (48) 
oracle

>  <origin>  (48) 
adgpu

>  <m_score__min__energy>  (48) 
-15.5

>  <m_primary>  (48) 
energy

$$$$
48:0
     RDKit          3D

 50 52  0  0  0  0  0  0  0  0999 V2000
   -8.3430   18.2290  -32.0630 C   0  0  0  0  0  0  0  0  0  0  0  0
   -8.7350   19.4000  -31.5590 C   0  0  0  0  0  0  0  0  0  0  0  0
   -7.9410   20.6490  -31.6150 C   0  0  0  0  0  0  0  0  0  0  0  0
   -8.4370   21.8930  -31.1870 C   0  0  0  0  0  0  0  0  0  0  0  0
   -7.6210   23.0230  -31.2650 C   0  0  0  0  0  0  0  0  0  0  0  0
   -6.3170   22.9190  -31.7740 C   0  0  0  0  0  0  0  0  0  0  0  0
   -5.4400   24.0540  -31.8470 N   0  0  0  0  0  0  0  0  0  0  0  0
   -4.5120   24.4800  -30.8410 C   0  0  0  0  0  0  0  0  0  0  0  0
   -4.1230   25.6780  -30.8000 O   0  0  0  0  0  0  0  0  0  0  0  0
   -3.9630   23.5050  -29.9440 N   0  0  0  0  0  0  0  0  0  0  0  0
   -3.1670   23.8250  -28.7900 C   0  0  0  0  0  0  0  0  0  0  0  0
   -1.7690   23.6660  -28.7940 C   0  0  0  0  0  0  0  0  0  0  0  0
   -1.0180   24.0010  -27.6640 C   0  0  0  0  0  0  0  0  0  0  0  0
   -1.6490   24.5080  -26.5200 C   0  0  0  0  0  0  0  0  0  0  0  0
   -0.7000   24.9080  -25.0870 S   0  0  0  0  0  0  0  0  0  0  0  0
   -0.8260   23.7840  -24.0960 O   0  0  0  0  0  0  0  0  0  0  0  0
    0.7500   25.0200  -25.4700 O   0  0  0  0  0  0  0  0  0  0  0  0
   -1.2170   26.4020  -24.3320 N   0  0  0  0  0  0  0  0  0  0  0  0
   -1.2610   27.5370  -25.2790 C   0  0  0  0  0  0  0  0  0  0  0  0
   -0.0540   28.4790  -25.1390 C   0  0  0  0  0  0  0  0  0  0  0  0
    1.0780   27.7670  -24.6980 O   0  0  0  0  0  0  0  0  0  0  0  0
    0.8950   27.3680  -23.3540 C   0  0  0  0  0  0  0  0  0  0  0  0
   -0.4740   26.6970  -23.0930 C   0  0  0  0  0  0  0  0  0  0  0  0
   -3.0360   24.7000  -26.5260 C   0  0  0  0  0  0  0  0  0  0  0  0
   -3.7890   24.3650  -27.6540 C   0  0  0  0  0  0  0  0  0  0  0  0
   -5.8480   21.6550  -32.1620 C   0  0  0  0  0  0  0  0  0  0  0  0
   -4.1780   21.4380  -32.7820 S   0  0  0  0  0  0  0  0  0  0  0  0
   -4.5140   19.7760  -33.4450 C   0  0  0  0  0  0  0  0  0  0  0  0
   -6.6640   20.5710  -32.0740 N   0  0  0  0  0  0  0  0  0  0  0  0
   -8.9957   17.3476  -31.9783 H   0  0  0  0  0  0  0  0  0  0  0  0
   -7.3671   18.1446  -32.5634 H   0  0  0  0  0  0  0  0  0  0  0  0
   -9.7179   19.4410  -31.0668 H   0  0  0  0  0  0  0  0  0  0  0  0
   -9.4609   21.9753  -30.7934 H   0  0  0  0  0  0  0  0  0  0  0  0
   -8.0012   23.9981  -30.9265 H   0  0  0  0  0  0  0  0  0  0  0  0
   -4.0860   22.4980  -30.1960 H   0  0  0  0  0  0  0  0  0  0  0  0
   -1.2649   23.2762  -29.6906 H   0  0  0  0  0  0  0  0  0  0  0  0
    0.0737   23.8661  -27.6726 H   0  0  0  0  0  0  0  0  0  0  0  0
   -1.2784   27.1385  -26.3041 H   0  0  0  0  0  0  0  0  0  0  0  0
   -2.1647   28.1218  -25.0522 H   0  0  0  0  0  0  0  0  0  0  0  0
    0.1636   28.9363  -26.1155 H   0  0  0  0  0  0  0  0  0  0  0  0
   -0.2943   29.2583  -24.4008 H   0  0  0  0  0  0  0  0  0  0  0  0
    1.6891   26.6536  -23.0912 H   0  0  0  0  0  0  0  0  0  0  0  0
    0.9333   28.2780  -22.7372 H   0  0  0  0  0  0  0  0  0  0  0  0
   -0.3047   25.7538  -22.5529 H   0  0  0  0  0  0  0  0  0  0  0  0
   -1.0799   27.4033  -22.5064 H   0  0  0  0  0  0  0  0  0  0  0  0
   -3.5349   25.1165  -25.6385 H   0  0  0  0  0  0  0  0  0  0  0  0
   -4.8772   24.5257  -27.6516 H   0  0  0  0  0  0  0  0  0  0  0  0
   -4.6565   19.0711  -32.6126 H   0  0  0  0  0  0  0  0  0  0  0  0
   -5.4246   19.8043  -34.0615 H   0  0  0  0  0  0  0  0  0  0  0  0
   -3.6639   19.4484  -34.0615 H   0  0  0  0  0  0  0  0  0  0  0  0
  1  2  2  0
  2  3  1  0
  3  4  2  0
  4  5  1  0
  5  6  2  0
  6  7  1  0
  7  8  1  0
  8  9  2  0
  8 10  1  0
 10 11  1  0
 11 12  2  0
 12 13  1  0
 13 14  2  0
 14 15  1  0
 15 16  2  0
 15 17  2  0
 15 18  1  0
 18 19  1  0
 19 20  1  0
 20 21  1  0
 21 22  1  0
 22 23  1  0
 14 24  1  0
 24 25  2  0
  6 26  1  0
 26 27  1  0
 27 28  1  0
 26 29  2  0
 29  3  1  0
 25 11  1  0
 23 18  1  0
  1 30  1  0
  1 31  1  0
  2 32  1  0
  4 33  1  0
  5 34  1  0
 10 35  1  0
 12 36  1  0
 13 37  1  0
 19 38  1  0
 19 39  1  0
 20 40  1  0
 20 41  1  0
 22 42  1  0
 22 43  1  0
 23 44  1  0
 23 45  1  0
 24 46  1  0
 25 47  1  0
 28 48  1  0
 28 49  1  0
 28 50  1  0
M  CHG  1   7  -1
M  END
>  <UniqueID>  (49) 
47

>  <SMILES>  (49) 
C=Cc1ccc([N-]C(=O)Nc2ccc(S(=O)(=O)N3CCOCC3)cc2)c(SC)n1

>  <Energy>  (49) 
65.84375192341975

>  <Genealogy>  (49) 
C=Cc1ccc([N-]C(=O)Nc2ccc(S(=O)(=O)N3CCOCC3)cc2)c(SC)n1 (protonated)
C=Cc1ccc([N-]C(=O)Nc2ccc(S(=O)(=O)N3CCOCC3)cc2)c(SC)n1 (3D coordinates assigned)
C=Cc1ccc([N-]C(=O)Nc2ccc(S(=O)(=O)N3CCOCC3)cc2)c(SC)n1 (nonaromatic ring conformer: 65.84375192341975 kcal/mol)

>  <smiles>  (49) 
C=Cc1ccc(NC(=O)Nc2ccc(S(=O)(=O)N3CCOCC3)cc2)c(SC)n1

>  <score_type>  (49) 
oracle

>  <origin>  (49) 
adgpu

>  <m_score__min__energy>  (49) 
-10.699999999999999

>  <m_primary>  (49) 
energy

$$$$
