0:0
     RDKit          3D

 57 60  0  0  0  0  0  0  0  0999 V2000
   -6.0090   26.0400  -29.9920 O   0  0  0  0  0  0  0  0  0  0  0  0
   -5.2820   25.1290  -30.4690 C   0  0  0  0  0  0  0  0  0  0  0  0
   -3.8570   25.2630  -30.3700 N   0  0  0  0  0  0  0  0  0  0  0  0
   -3.0070   24.5510  -29.4580 C   0  0  0  0  0  0  0  0  0  0  0  0
   -1.8660   25.1890  -28.9580 C   0  0  0  0  0  0  0  0  0  0  0  0
   -1.0090   24.5190  -28.0780 C   0  0  0  0  0  0  0  0  0  0  0  0
   -1.2810   23.1960  -27.7010 C   0  0  0  0  0  0  0  0  0  0  0  0
   -0.2110   22.3350  -26.5980 S   0  0  0  0  0  0  0  0  0  0  0  0
   -0.5780   22.7060  -25.1880 O   0  0  0  0  0  0  0  0  0  0  0  0
    1.2180   22.7280  -26.8510 O   0  0  0  0  0  0  0  0  0  0  0  0
   -0.4010   20.6130  -26.8240 N   0  0  0  0  0  0  0  0  0  0  0  0
   -1.7290   20.1860  -26.3550 C   0  0  0  0  0  0  0  0  0  0  0  0
   -1.9920   18.7140  -26.7290 C   0  0  0  0  0  0  0  0  0  0  0  0
   -0.8360   18.1050  -27.2710 O   0  0  0  0  0  0  0  0  0  0  0  0
   -0.4660   18.7650  -28.4680 C   0  0  0  0  0  0  0  0  0  0  0  0
   -0.2300   20.2740  -28.2440 C   0  0  0  0  0  0  0  0  0  0  0  0
   -2.4110   22.5490  -28.2150 C   0  0  0  0  0  0  0  0  0  0  0  0
   -3.2650   23.2160  -29.0970 C   0  0  0  0  0  0  0  0  0  0  0  0
   -5.9140   23.9360  -31.0740 C   0  0  0  0  0  0  0  0  0  0  0  0
   -7.3130   23.8300  -31.1570 C   0  0  0  0  0  0  0  0  0  0  0  0
   -7.9020   22.6920  -31.7120 C   0  0  0  0  0  0  0  0  0  0  0  0
   -7.1040   21.6510  -32.1920 C   0  0  0  0  0  0  0  0  0  0  0  0
   -5.7080   21.7460  -32.1230 C   0  0  0  0  0  0  0  0  0  0  0  0
   -4.7020   20.4110  -32.6890 S   0  0  0  0  0  0  0  0  0  0  0  0
   -4.7000   19.3210  -31.6540 O   0  0  0  0  0  0  0  0  0  0  0  0
   -5.2900   19.8490  -33.9550 O   0  0  0  0  0  0  0  0  0  0  0  0
   -3.0590   20.9230  -32.9920 N   0  0  0  0  0  0  0  0  0  0  0  0
   -2.3340   21.1110  -31.7240 C   0  0  0  0  0  0  0  0  0  0  0  0
   -0.8250   21.2980  -31.9790 C   0  0  0  0  0  0  0  0  0  0  0  0
   -0.5710   21.5580  -33.3460 O   0  0  0  0  0  0  0  0  0  0  0  0
   -0.9250   20.4280  -34.1260 C   0  0  0  0  0  0  0  0  0  0  0  0
   -2.3620   19.9420  -33.8360 C   0  0  0  0  0  0  0  0  0  0  0  0
   -5.1170   22.8940  -31.5770 C   0  0  0  0  0  0  0  0  0  0  0  0
   -1.6417   26.2231  -29.2586 H   0  0  0  0  0  0  0  0  0  0  0  0
   -0.1201   25.0311  -27.6811 H   0  0  0  0  0  0  0  0  0  0  0  0
   -1.7779   20.2949  -25.2615 H   0  0  0  0  0  0  0  0  0  0  0  0
   -2.4928   20.8148  -26.8359 H   0  0  0  0  0  0  0  0  0  0  0  0
   -2.2964   18.1642  -25.8262 H   0  0  0  0  0  0  0  0  0  0  0  0
   -2.7867   18.6865  -27.4891 H   0  0  0  0  0  0  0  0  0  0  0  0
    0.4608   18.3132  -28.8514 H   0  0  0  0  0  0  0  0  0  0  0  0
   -1.2897   18.6520  -29.1882 H   0  0  0  0  0  0  0  0  0  0  0  0
    0.7923   20.5317  -28.5578 H   0  0  0  0  0  0  0  0  0  0  0  0
   -0.9615   20.8420  -28.8375 H   0  0  0  0  0  0  0  0  0  0  0  0
   -2.6276   21.5108  -27.9232 H   0  0  0  0  0  0  0  0  0  0  0  0
   -4.1416   22.6958  -29.5103 H   0  0  0  0  0  0  0  0  0  0  0  0
   -7.9470   24.6474  -30.7830 H   0  0  0  0  0  0  0  0  0  0  0  0
   -8.9977   22.6152  -31.7713 H   0  0  0  0  0  0  0  0  0  0  0  0
   -7.5725   20.7549  -32.6250 H   0  0  0  0  0  0  0  0  0  0  0  0
   -2.7266   22.0024  -31.2128 H   0  0  0  0  0  0  0  0  0  0  0  0
   -2.4780   20.2170  -31.0995 H   0  0  0  0  0  0  0  0  0  0  0  0
   -0.4606   22.1442  -31.3780 H   0  0  0  0  0  0  0  0  0  0  0  0
   -0.3039   20.3717  -31.6954 H   0  0  0  0  0  0  0  0  0  0  0  0
   -0.8501   20.6954  -35.1904 H   0  0  0  0  0  0  0  0  0  0  0  0
   -0.2351   19.6112  -33.8673 H   0  0  0  0  0  0  0  0  0  0  0  0
   -2.9062   19.8246  -34.7847 H   0  0  0  0  0  0  0  0  0  0  0  0
   -2.3196   18.9764  -33.3108 H   0  0  0  0  0  0  0  0  0  0  0  0
   -4.0209   22.9796  -31.5421 H   0  0  0  0  0  0  0  0  0  0  0  0
  1  2  2  0
  2  3  1  0
  3  4  1  0
  4  5  2  0
  5  6  1  0
  6  7  2  0
  7  8  1  0
  8  9  2  0
  8 10  2  0
  8 11  1  0
 11 12  1  0
 12 13  1  0
 13 14  1  0
 14 15  1  0
 15 16  1  0
  7 17  1  0
 17 18  2  0
  2 19  1  0
 19 20  2  0
 20 21  1  0
 21 22  2  0
 22 23  1  0
 23 24  1  0
 24 25  2  0
 24 26  2  0
 24 27  1  0
 27 28  1  0
 28 29  1  0
 29 30  1  0
 30 31  1  0
 31 32  1  0
 23 33  2  0
 18  4  1  0
 33 19  1  0
 16 11  1  0
 32 27  1  0
  5 34  1  0
  6 35  1  0
 12 36  1  0
 12 37  1  0
 13 38  1  0
 13 39  1  0
 15 40  1  0
 15 41  1  0
 16 42  1  0
 16 43  1  0
 17 44  1  0
 18 45  1  0
 20 46  1  0
 21 47  1  0
 22 48  1  0
 28 49  1  0
 28 50  1  0
 29 51  1  0
 29 52  1  0
 31 53  1  0
 31 54  1  0
 32 55  1  0
 32 56  1  0
 33 57  1  0
M  CHG  1   3  -1
M  END
>  <UniqueID>  (1) 
1

>  <SMILES>  (1) 
O=C([N-]c1ccc(S(=O)(=O)N2CCOCC2)cc1)c1cccc(S(=O)(=O)N2CCOCC2)c1

>  <Energy>  (1) 
79.86555731016263

>  <Genealogy>  (1) 
O=C([N-]c1ccc(S(=O)(=O)N2CCOCC2)cc1)c1cccc(S(=O)(=O)N2CCOCC2)c1 (protonated)
O=C([N-]c1ccc(S(=O)(=O)N2CCOCC2)cc1)c1cccc(S(=O)(=O)N2CCOCC2)c1 (3D coordinates assigned)
O=C([N-]c1ccc(S(=O)(=O)N2CCOCC2)cc1)c1cccc(S(=O)(=O)N2CCOCC2)c1 (nonaromatic ring conformer: 79.86555731016263 kcal/mol)

>  <smiles>  (1) 
O=C(Nc1ccc(S(=O)(=O)N2CCOCC2)cc1)c1cccc(S(=O)(=O)N2CCOCC2)c1

>  <score_type>  (1) 
oracle

>  <origin>  (1) 
adgpu

>  <m_score__min__energy>  (1) 
-11.970000000000001

>  <m_primary>  (1) 
energy

$$$$
1:0
     RDKit          3D

 56 58  0  0  0  0  0  0  0  0999 V2000
   -1.2290   26.0220  -28.1020 C   0  0  0  0  0  0  0  0  0  0  0  0
   -1.7850   24.5890  -28.0030 C   0  0  0  0  0  0  0  0  0  0  0  0
   -1.0180   23.7900  -26.9420 C   0  0  0  0  0  0  0  0  0  0  0  0
   -1.6740   23.9130  -29.3220 C   0  0  0  0  0  0  0  0  0  0  0  0
   -2.8520   23.5270  -29.7640 C   0  0  0  0  0  0  0  0  0  0  0  0
   -3.0580   22.7940  -31.0380 C   0  0  0  0  0  0  0  0  0  0  0  0
   -4.0280   23.0980  -31.7820 O   0  0  0  0  0  0  0  0  0  0  0  0
   -2.1440   21.7650  -31.4500 N   0  0  0  0  0  0  0  0  0  0  0  0
   -2.5110   20.6650  -32.3040 C   0  0  0  0  0  0  0  0  0  0  0  0
   -1.5560   20.0010  -33.0970 C   0  0  0  0  0  0  0  0  0  0  0  0
   -1.9460   18.9650  -33.9490 C   0  0  0  0  0  0  0  0  0  0  0  0
   -3.2900   18.5960  -34.0360 C   0  0  0  0  0  0  0  0  0  0  0  0
   -4.2570   19.2650  -33.2720 C   0  0  0  0  0  0  0  0  0  0  0  0
   -5.9650   18.8420  -33.4250 S   0  0  0  0  0  0  0  0  0  0  0  0
   -6.1050   17.3440  -33.4040 O   0  0  0  0  0  0  0  0  0  0  0  0
   -6.4810   19.3390  -34.7470 O   0  0  0  0  0  0  0  0  0  0  0  0
   -6.9160   19.5410  -32.1340 N   0  0  0  0  0  0  0  0  0  0  0  0
   -7.0060   21.0100  -32.2970 C   0  0  0  0  0  0  0  0  0  0  0  0
   -8.1660   21.5960  -31.4830 C   0  0  0  0  0  0  0  0  0  0  0  0
   -9.5170   21.0370  -31.9660 C   0  0  0  0  0  0  0  0  0  0  0  0
   -9.3900   19.6390  -32.5990 C   0  0  0  0  0  0  0  0  0  0  0  0
   -8.2210   18.8510  -31.9860 C   0  0  0  0  0  0  0  0  0  0  0  0
   -3.8600   20.2930  -32.4030 C   0  0  0  0  0  0  0  0  0  0  0  0
   -3.9230   23.8980  -28.7780 C   0  0  0  0  0  0  0  0  0  0  0  0
   -4.9640   24.8320  -29.4340 C   0  0  0  0  0  0  0  0  0  0  0  0
   -4.6090   22.6440  -28.2130 C   0  0  0  0  0  0  0  0  0  0  0  0
   -3.2240   24.5810  -27.6680 N   0  0  0  0  0  0  0  0  0  0  0  0
   -1.0725   26.4253  -27.0906 H   0  0  0  0  0  0  0  0  0  0  0  0
   -0.2714   26.0072  -28.6430 H   0  0  0  0  0  0  0  0  0  0  0  0
   -1.9460   26.6569  -28.6430 H   0  0  0  0  0  0  0  0  0  0  0  0
   -1.3315   24.1165  -25.9394 H   0  0  0  0  0  0  0  0  0  0  0  0
   -1.2342   22.7182  -27.0628 H   0  0  0  0  0  0  0  0  0  0  0  0
    0.0617   23.9622  -27.0628 H   0  0  0  0  0  0  0  0  0  0  0  0
   -0.7277   23.7554  -29.8602 H   0  0  0  0  0  0  0  0  0  0  0  0
   -1.1410   21.8540  -31.1710 H   0  0  0  0  0  0  0  0  0  0  0  0
   -0.4984   20.2992  -33.0455 H   0  0  0  0  0  0  0  0  0  0  0  0
   -1.1924   18.4384  -34.5530 H   0  0  0  0  0  0  0  0  0  0  0  0
   -3.5912   17.7775  -34.7063 H   0  0  0  0  0  0  0  0  0  0  0  0
   -6.0645   21.4657  -31.9566 H   0  0  0  0  0  0  0  0  0  0  0  0
   -7.1853   21.2288  -33.3600 H   0  0  0  0  0  0  0  0  0  0  0  0
   -8.0281   21.3374  -30.4227 H   0  0  0  0  0  0  0  0  0  0  0  0
   -8.1709   22.6879  -31.6160 H   0  0  0  0  0  0  0  0  0  0  0  0
  -10.1992   20.9729  -31.1054 H   0  0  0  0  0  0  0  0  0  0  0  0
   -9.9008   21.7183  -32.7397 H   0  0  0  0  0  0  0  0  0  0  0  0
  -10.3241   19.0832  -32.4301 H   0  0  0  0  0  0  0  0  0  0  0  0
   -9.1987   19.7619  -33.6752 H   0  0  0  0  0  0  0  0  0  0  0  0
   -8.4206   18.7048  -30.9142 H   0  0  0  0  0  0  0  0  0  0  0  0
   -8.1505   17.8946  -32.5248 H   0  0  0  0  0  0  0  0  0  0  0  0
   -4.6142   20.8123  -31.7934 H   0  0  0  0  0  0  0  0  0  0  0  0
   -5.5389   25.3478  -28.6508 H   0  0  0  0  0  0  0  0  0  0  0  0
   -4.4474   25.5751  -30.0592 H   0  0  0  0  0  0  0  0  0  0  0  0
   -5.6470   24.2381  -30.0592 H   0  0  0  0  0  0  0  0  0  0  0  0
   -4.5897   22.6793  -27.1137 H   0  0  0  0  0  0  0  0  0  0  0  0
   -5.6521   22.6087  -28.5605 H   0  0  0  0  0  0  0  0  0  0  0  0
   -4.0762   21.7466  -28.5605 H   0  0  0  0  0  0  0  0  0  0  0  0
   -3.5910   25.5510  -27.5090 H   0  0  0  0  0  0  0  0  0  0  0  0
  1  2  1  0
  2  3  1  0
  2  4  1  0
  4  5  2  0
  5  6  1  0
  6  7  2  0
  6  8  1  0
  8  9  1  0
  9 10  2  0
 10 11  1  0
 11 12  2  0
 12 13  1  0
 13 14  1  0
 14 15  2  0
 14 16  2  0
 14 17  1  0
 17 18  1  0
 18 19  1  0
 19 20  1  0
 20 21  1  0
 21 22  1  0
 13 23  2  0
  5 24  1  0
 24 25  1  0
 24 26  1  0
 24 27  1  0
 27  2  1  0
 23  9  1  0
 22 17  1  0
  1 28  1  0
  1 29  1  0
  1 30  1  0
  3 31  1  0
  3 32  1  0
  3 33  1  0
  4 34  1  0
  8 35  1  0
 10 36  1  0
 11 37  1  0
 12 38  1  0
 18 39  1  0
 18 40  1  0
 19 41  1  0
 19 42  1  0
 20 43  1  0
 20 44  1  0
 21 45  1  0
 21 46  1  0
 22 47  1  0
 22 48  1  0
 23 49  1  0
 25 50  1  0
 25 51  1  0
 25 52  1  0
 26 53  1  0
 26 54  1  0
 26 55  1  0
 27 56  1  0
M  END
>  <UniqueID>  (2) 
2

>  <SMILES>  (2) 
CC1(C)C=C(C(=O)Nc2cccc(S(=O)(=O)N3CCCCC3)c2)C(C)(C)N1

>  <Energy>  (2) 
64.11327127908636

>  <Genealogy>  (2) 
CC1(C)C=C(C(=O)Nc2cccc(S(=O)(=O)N3CCCCC3)c2)C(C)(C)N1 (3D coordinates assigned)
CC1(C)C=C(C(=O)Nc2cccc(S(=O)(=O)N3CCCCC3)c2)C(C)(C)N1 (nonaromatic ring conformer: 64.11327127908636 kcal/mol)

>  <smiles>  (2) 
CC1(C)C=C(C(=O)Nc2cccc(S(=O)(=O)N3CCCCC3)c2)C(C)(C)N1

>  <score_type>  (2) 
oracle

>  <origin>  (2) 
adgpu

>  <m_score__min__energy>  (2) 
-10.300000000000001

>  <m_primary>  (2) 
energy

$$$$
2:0
     RDKit          3D

 50 52  0  0  0  0  0  0  0  0999 V2000
   -0.4310   27.4970  -26.9660 C   0  0  0  0  0  0  0  0  0  0  0  0
   -1.2320   26.2860  -27.3030 C   0  0  0  0  0  0  0  0  0  0  0  0
   -1.6540   25.5420  -26.3770 O   0  0  0  0  0  0  0  0  0  0  0  0
   -1.6050   26.0450  -28.6650 N   0  0  0  0  0  0  0  0  0  0  0  0
   -1.9640   24.7810  -29.2430 C   0  0  0  0  0  0  0  0  0  0  0  0
   -0.9800   23.7920  -29.3590 C   0  0  0  0  0  0  0  0  0  0  0  0
   -1.2900   22.5410  -29.8980 C   0  0  0  0  0  0  0  0  0  0  0  0
   -2.6030   22.2480  -30.3070 C   0  0  0  0  0  0  0  0  0  0  0  0
   -2.9440   20.9770  -30.8860 N   0  0  0  0  0  0  0  0  0  0  0  0
   -2.5040   20.5480  -32.1850 C   0  0  0  0  0  0  0  0  0  0  0  0
   -1.4780   21.0710  -32.7020 O   0  0  0  0  0  0  0  0  0  0  0  0
   -3.2090   19.4590  -32.9060 C   0  0  0  0  0  0  0  0  0  0  0  0
   -2.5950   18.7890  -33.9790 C   0  0  0  0  0  0  0  0  0  0  0  0
   -3.2670   17.7630  -34.6490 C   0  0  0  0  0  0  0  0  0  0  0  0
   -4.5510   17.3840  -34.2520 C   0  0  0  0  0  0  0  0  0  0  0  0
   -5.1870   16.3940  -34.9280 F   0  0  0  0  0  0  0  0  0  0  0  0
   -5.1700   18.0270  -33.1690 C   0  0  0  0  0  0  0  0  0  0  0  0
   -6.7920   17.5620  -32.6540 S   0  0  0  0  0  0  0  0  0  0  0  0
   -6.7710   17.1560  -31.2050 O   0  0  0  0  0  0  0  0  0  0  0  0
   -7.2440   16.3970  -33.4890 O   0  0  0  0  0  0  0  0  0  0  0  0
   -7.8960   18.9030  -32.8570 N   0  0  0  0  0  0  0  0  0  0  0  0
   -7.2270   20.0520  -33.5180 C   0  0  0  0  0  0  0  0  0  0  0  0
   -6.8590   21.1770  -32.5400 C   0  0  0  0  0  0  0  0  0  0  0  0
   -8.1020   21.7070  -31.8070 C   0  0  0  0  0  0  0  0  0  0  0  0
   -9.1690   20.6190  -31.5830 C   0  0  0  0  0  0  0  0  0  0  0  0
   -8.5380   19.2240  -31.5640 C   0  0  0  0  0  0  0  0  0  0  0  0
   -4.5000   19.0670  -32.5070 C   0  0  0  0  0  0  0  0  0  0  0  0
   -3.5890   23.2390  -30.1870 C   0  0  0  0  0  0  0  0  0  0  0  0
   -3.2790   24.4910  -29.6480 C   0  0  0  0  0  0  0  0  0  0  0  0
   -0.3633   27.5993  -25.8729 H   0  0  0  0  0  0  0  0  0  0  0  0
    0.5798   27.3972  -27.3882 H   0  0  0  0  0  0  0  0  0  0  0  0
   -0.9184   28.3882  -27.3882 H   0  0  0  0  0  0  0  0  0  0  0  0
    0.0462   24.0017  -29.0228 H   0  0  0  0  0  0  0  0  0  0  0  0
   -0.5021   21.7806  -30.0031 H   0  0  0  0  0  0  0  0  0  0  0  0
   -3.4420   20.2850  -30.2830 H   0  0  0  0  0  0  0  0  0  0  0  0
   -1.5800   19.0740  -34.2928 H   0  0  0  0  0  0  0  0  0  0  0  0
   -2.7820   17.2514  -35.4934 H   0  0  0  0  0  0  0  0  0  0  0  0
   -6.3062   19.6914  -33.9997 H   0  0  0  0  0  0  0  0  0  0  0  0
   -7.9363   20.4698  -34.2476 H   0  0  0  0  0  0  0  0  0  0  0  0
   -6.1444   20.7887  -31.7994 H   0  0  0  0  0  0  0  0  0  0  0  0
   -6.4141   22.0040  -33.1128 H   0  0  0  0  0  0  0  0  0  0  0  0
   -7.7917   22.1023  -30.8285 H   0  0  0  0  0  0  0  0  0  0  0  0
   -8.5515   22.4884  -32.4374 H   0  0  0  0  0  0  0  0  0  0  0  0
   -9.6700   20.7999  -30.6206 H   0  0  0  0  0  0  0  0  0  0  0  0
   -9.8929   20.6639  -32.4100 H   0  0  0  0  0  0  0  0  0  0  0  0
   -7.7791   19.1856  -30.7686 H   0  0  0  0  0  0  0  0  0  0  0  0
   -9.3340   18.4871  -31.3810 H   0  0  0  0  0  0  0  0  0  0  0  0
   -4.9894   19.5815  -31.6669 H   0  0  0  0  0  0  0  0  0  0  0  0
   -4.6160   23.0287  -30.5203 H   0  0  0  0  0  0  0  0  0  0  0  0
   -4.0662   25.2517  -29.5403 H   0  0  0  0  0  0  0  0  0  0  0  0
  1  2  1  0
  2  3  2  0
  2  4  1  0
  4  5  1  0
  5  6  2  0
  6  7  1  0
  7  8  2  0
  8  9  1  0
  9 10  1  0
 10 11  2  0
 10 12  1  0
 12 13  2  0
 13 14  1  0
 14 15  2  0
 15 16  1  0
 15 17  1  0
 17 18  1  0
 18 19  2  0
 18 20  2  0
 18 21  1  0
 21 22  1  0
 22 23  1  0
 23 24  1  0
 24 25  1  0
 25 26  1  0
 17 27  2  0
  8 28  1  0
 28 29  2  0
 29  5  1  0
 27 12  1  0
 26 21  1  0
  1 30  1  0
  1 31  1  0
  1 32  1  0
  6 33  1  0
  7 34  1  0
  9 35  1  0
 13 36  1  0
 14 37  1  0
 22 38  1  0
 22 39  1  0
 23 40  1  0
 23 41  1  0
 24 42  1  0
 24 43  1  0
 25 44  1  0
 25 45  1  0
 26 46  1  0
 26 47  1  0
 27 48  1  0
 28 49  1  0
 29 50  1  0
M  CHG  1   4  -1
M  END
>  <UniqueID>  (3) 
3

>  <SMILES>  (3) 
CC(=O)[N-]c1ccc(NC(=O)c2ccc(F)c(S(=O)(=O)N3CCCCC3)c2)cc1

>  <Energy>  (3) 
64.10642876868864

>  <Genealogy>  (3) 
CC(=O)[N-]c1ccc(NC(=O)c2ccc(F)c(S(=O)(=O)N3CCCCC3)c2)cc1 (protonated)
CC(=O)[N-]c1ccc(NC(=O)c2ccc(F)c(S(=O)(=O)N3CCCCC3)c2)cc1 (3D coordinates assigned)
CC(=O)[N-]c1ccc(NC(=O)c2ccc(F)c(S(=O)(=O)N3CCCCC3)c2)cc1 (nonaromatic ring conformer: 64.10642876868864 kcal/mol)

>  <smiles>  (3) 
CC(=O)Nc1ccc(NC(=O)c2ccc(F)c(S(=O)(=O)N3CCCCC3)c2)cc1

>  <score_type>  (3) 
oracle

>  <origin>  (3) 
adgpu

>  <m_score__min__energy>  (3) 
-10.52

>  <m_primary>  (3) 
energy

$$$$
3:0
     RDKit          3D

 48 51  0  0  0  0  0  0  0  0999 V2000
    0.7975   22.7005  -27.5293 H   0  0  0  0  0  0  0  0  0  0  0  0
   -0.1670   22.6660  -28.0570 C   0  0  0  0  0  0  0  0  0  0  0  0
   -0.4260   23.6500  -28.9320 C   0  0  0  0  0  0  0  0  0  0  0  0
    0.3930   24.3439  -29.1723 H   0  0  0  0  0  0  0  0  0  0  0  0
   -1.7230   23.8730  -29.5960 C   0  0  0  0  0  0  0  0  0  0  0  0
   -2.5050   24.9530  -29.3620 N   0  0  0  0  0  0  0  0  0  0  0  0
   -3.6250   24.8410  -30.0700 N   0  0  0  0  0  0  0  0  0  0  0  0
   -3.5600   23.6780  -30.7410 C   0  0  0  0  0  0  0  0  0  0  0  0
   -4.5180   23.1310  -31.5910 C   0  0  0  0  0  0  0  0  0  0  0  0
   -5.4559   23.6650  -31.8038 H   0  0  0  0  0  0  0  0  0  0  0  0
   -4.2520   21.8720  -32.1720 C   0  0  0  0  0  0  0  0  0  0  0  0
   -5.2290   21.2830  -33.0500 N   0  0  0  0  0  0  0  0  0  0  0  0
   -5.0090   21.2340  -34.0700 H   0  0  0  0  0  0  0  0  0  0  0  0
   -6.4410   20.6590  -32.5910 C   0  0  0  0  0  0  0  0  0  0  0  0
   -7.5590   21.4560  -32.2910 C   0  0  0  0  0  0  0  0  0  0  0  0
   -7.5027   22.5462  -32.4259 H   0  0  0  0  0  0  0  0  0  0  0  0
   -8.7390   20.8780  -31.8240 C   0  0  0  0  0  0  0  0  0  0  0  0
   -9.6095   21.5114  -31.5982 H   0  0  0  0  0  0  0  0  0  0  0  0
   -8.8160   19.4970  -31.6430 C   0  0  0  0  0  0  0  0  0  0  0  0
   -9.7484   19.0419  -31.2777 H   0  0  0  0  0  0  0  0  0  0  0  0
   -7.7110   18.6920  -31.9250 C   0  0  0  0  0  0  0  0  0  0  0  0
   -7.7799   17.6035  -31.7819 H   0  0  0  0  0  0  0  0  0  0  0  0
   -6.5110   19.2580  -32.3900 C   0  0  0  0  0  0  0  0  0  0  0  0
   -5.3620   18.3340  -32.7340 C   0  0  0  0  0  0  0  0  0  0  0  0
   -5.6732   17.2956  -32.5470 H   0  0  0  0  0  0  0  0  0  0  0  0
   -4.5031   18.6116  -32.1053 H   0  0  0  0  0  0  0  0  0  0  0  0
   -4.9360   18.4670  -34.2050 C   0  0  0  0  0  0  0  0  0  0  0  0
   -4.3202   17.5970  -34.4766 H   0  0  0  0  0  0  0  0  0  0  0  0
   -4.3695   19.4039  -34.3116 H   0  0  0  0  0  0  0  0  0  0  0  0
   -6.0880   18.5300  -35.1050 N   0  0  0  0  0  0  0  0  0  0  0  0
   -5.7670   18.6400  -36.0930 H   0  0  0  0  0  0  0  0  0  0  0  0
   -6.6720   19.3590  -34.8520 H   0  0  0  0  0  0  0  0  0  0  0  0
   -6.6710   17.6660  -35.0130 H   0  0  0  0  0  0  0  0  0  0  0  0
   -3.0480   21.1890  -31.8430 C   0  0  0  0  0  0  0  0  0  0  0  0
   -2.8510   20.1966  -32.2746 H   0  0  0  0  0  0  0  0  0  0  0  0
   -2.1070   21.7670  -30.9730 C   0  0  0  0  0  0  0  0  0  0  0  0
   -1.1790   21.2402  -30.7061 H   0  0  0  0  0  0  0  0  0  0  0  0
   -2.3920   23.0310  -30.4610 C   0  0  0  0  0  0  0  0  0  0  0  0
   -1.0720   21.5390  -27.7440 C   0  0  0  0  0  0  0  0  0  0  0  0
   -2.4250   21.7140  -27.7190 N   0  0  0  0  0  0  0  0  0  0  0  0
   -3.2790   20.6920  -27.4480 C   0  0  0  0  0  0  0  0  0  0  0  0
   -4.3638   20.8731  -27.4264 H   0  0  0  0  0  0  0  0  0  0  0  0
   -2.7800   19.4120  -27.1970 C   0  0  0  0  0  0  0  0  0  0  0  0
   -3.4653   18.5817  -26.9713 H   0  0  0  0  0  0  0  0  0  0  0  0
   -1.4010   19.1990  -27.2360 C   0  0  0  0  0  0  0  0  0  0  0  0
   -0.9930   18.1955  -27.0449 H   0  0  0  0  0  0  0  0  0  0  0  0
   -0.5400   20.2620  -27.5180 C   0  0  0  0  0  0  0  0  0  0  0  0
    0.5469   20.0984  -27.5624 H   0  0  0  0  0  0  0  0  0  0  0  0
  1  2  1  0
  2  3  2  0
  3  4  1  0
  3  5  1  0
  5  6  1  0
  6  7  1  0
  7  8  2  0
  8  9  1  0
  9 10  1  0
  9 11  2  0
 11 12  1  0
 12 13  1  0
 12 14  1  0
 14 15  2  0
 15 16  1  0
 15 17  1  0
 17 18  1  0
 17 19  2  0
 19 20  1  0
 19 21  1  0
 21 22  1  0
 21 23  2  0
 23 24  1  0
 24 25  1  0
 24 26  1  0
 24 27  1  0
 27 28  1  0
 27 29  1  0
 27 30  1  0
 30 31  1  0
 30 32  1  0
 30 33  1  0
 11 34  1  0
 34 35  1  0
 34 36  2  0
 36 37  1  0
 36 38  1  0
  2 39  1  0
 39 40  2  0
 40 41  1  0
 41 42  1  0
 41 43  2  0
 43 44  1  0
 43 45  1  0
 45 46  1  0
 45 47  2  0
 47 48  1  0
 38  5  2  0
 47 39  1  0
 38  8  1  0
 23 14  1  0
M  CHG  2   6  -1  30   1
M  END
>  <UniqueID>  (4) 
4

>  <SMILES>  (4) 
[NH3+]CCc1ccccc1Nc1ccc2c(/C=C\c3ccccn3)[n-]nc2c1

>  <Energy>  (4) 
101.26606812587801

>  <Genealogy>  (4) 
[NH3+]CCc1ccccc1Nc1ccc2c(C=Cc3ccccn3)[n-]nc2c1 (protonated)
[NH3+]CCc1ccccc1Nc1ccc2c(/C=C\c3ccccn3)[n-]nc2c1 (cis-trans isomerization)
[NH3+]CCc1ccccc1Nc1ccc2c(/C=C\c3ccccn3)[n-]nc2c1 (3D coordinates assigned)
[NH3+]CCc1ccccc1Nc1ccc2c(/C=C\c3ccccn3)[n-]nc2c1 (optimized conformer: 101.26606812587801 kcal/mol)

>  <smiles>  (4) 
NCCc1ccccc1Nc1ccc2c(C=Cc3ccccn3)[nH]nc2c1

>  <score_type>  (4) 
oracle

>  <origin>  (4) 
adgpu

>  <m_score__min__energy>  (4) 
-10.449999999999999

>  <m_primary>  (4) 
energy

$$$$
4:0
     RDKit          3D

 32 33  0  0  0  0  0  0  0  0999 V2000
   -8.1780   18.7130  -31.6250 C   0  0  0  0  0  0  0  0  0  0  0  0
   -8.8760   19.7640  -32.4210 C   0  0  0  0  0  0  0  0  0  0  0  0
   -9.8830   19.4540  -33.1110 O   0  0  0  0  0  0  0  0  0  0  0  0
   -8.4590   21.1300  -32.3010 N   0  0  0  0  0  0  0  0  0  0  0  0
   -7.1060   21.6090  -32.2600 C   0  0  0  0  0  0  0  0  0  0  0  0
   -6.0530   20.9250  -32.8970 C   0  0  0  0  0  0  0  0  0  0  0  0
   -4.7470   21.4150  -32.8140 C   0  0  0  0  0  0  0  0  0  0  0  0
   -4.4780   22.5780  -32.0900 C   0  0  0  0  0  0  0  0  0  0  0  0
   -5.5140   23.2550  -31.4370 C   0  0  0  0  0  0  0  0  0  0  0  0
   -5.1710   24.7230  -30.5250 S   0  0  0  0  0  0  0  0  0  0  0  0
   -5.7400   25.9270  -31.2230 O   0  0  0  0  0  0  0  0  0  0  0  0
   -5.7940   24.6060  -29.1630 O   0  0  0  0  0  0  0  0  0  0  0  0
   -3.4570   24.9280  -30.3500 N   0  0  0  0  0  0  0  0  0  0  0  0
   -2.6540   24.3320  -29.3200 C   0  0  0  0  0  0  0  0  0  0  0  0
   -2.9470   23.0650  -28.7840 C   0  0  0  0  0  0  0  0  0  0  0  0
   -2.1440   22.5240  -27.7750 C   0  0  0  0  0  0  0  0  0  0  0  0
   -1.0440   23.2370  -27.2970 C   0  0  0  0  0  0  0  0  0  0  0  0
   -0.7420   24.4930  -27.8260 C   0  0  0  0  0  0  0  0  0  0  0  0
   -1.5440   25.0420  -28.8340 C   0  0  0  0  0  0  0  0  0  0  0  0
   -1.2340   26.2970  -29.3480 O   0  0  0  0  0  0  0  0  0  0  0  0
   -6.8230   22.7600  -31.5140 C   0  0  0  0  0  0  0  0  0  0  0  0
   -8.3126   18.9157  -30.5522 H   0  0  0  0  0  0  0  0  0  0  0  0
   -8.6015   17.7273  -31.8679 H   0  0  0  0  0  0  0  0  0  0  0  0
   -7.1052   18.7211  -31.8679 H   0  0  0  0  0  0  0  0  0  0  0  0
   -6.2588   20.0033  -33.4610 H   0  0  0  0  0  0  0  0  0  0  0  0
   -3.9284   20.8828  -33.3206 H   0  0  0  0  0  0  0  0  0  0  0  0
   -3.4492   22.9631  -32.0327 H   0  0  0  0  0  0  0  0  0  0  0  0
   -3.8111   22.4975  -29.1599 H   0  0  0  0  0  0  0  0  0  0  0  0
   -2.3801   21.5342  -27.3572 H   0  0  0  0  0  0  0  0  0  0  0  0
   -0.4145   22.8091  -26.5029 H   0  0  0  0  0  0  0  0  0  0  0  0
    0.1275   25.0524  -27.4504 H   0  0  0  0  0  0  0  0  0  0  0  0
   -7.6348   23.2798  -30.9841 H   0  0  0  0  0  0  0  0  0  0  0  0
  1  2  1  0
  2  3  2  0
  2  4  1  0
  4  5  1  0
  5  6  2  0
  6  7  1  0
  7  8  2  0
  8  9  1  0
  9 10  1  0
 10 11  2  0
 10 12  2  0
 10 13  1  0
 13 14  1  0
 14 15  2  0
 15 16  1  0
 16 17  2  0
 17 18  1  0
 18 19  2  0
 19 20  1  0
  9 21  2  0
 21  5  1  0
 19 14  1  0
  1 22  1  0
  1 23  1  0
  1 24  1  0
  6 25  1  0
  7 26  1  0
  8 27  1  0
 15 28  1  0
 16 29  1  0
 17 30  1  0
 18 31  1  0
 21 32  1  0
M  CHG  3   4  -1  13  -1  20  -1
M  END
>  <UniqueID>  (5) 
5

>  <SMILES>  (5) 
CC(=O)[N-]c1cccc(S(=O)(=O)[N-]c2ccccc2[O-])c1

>  <Energy>  (5) 
37.542868001010355

>  <Genealogy>  (5) 
CC(=O)[N-]c1cccc(S(=O)(=O)[N-]c2ccccc2[O-])c1 (protonated)
CC(=O)[N-]c1cccc(S(=O)(=O)[N-]c2ccccc2[O-])c1 (3D coordinates assigned)
CC(=O)[N-]c1cccc(S(=O)(=O)[N-]c2ccccc2[O-])c1 (optimized conformer: 37.542868001010355 kcal/mol)

>  <smiles>  (5) 
CC(=O)Nc1cccc(S(=O)(=O)Nc2ccccc2O)c1

>  <score_type>  (5) 
oracle

>  <origin>  (5) 
adgpu

>  <m_score__min__energy>  (5) 
-12.300000000000001

>  <m_primary>  (5) 
energy

$$$$
5:0
     RDKit          3D

 37 38  0  0  1  0  0  0  0  0999 V2000
   -2.7410   25.2320  -26.3370 C   0  0  0  0  0  0  0  0  0  0  0  0
   -2.1060   24.4360  -27.1680 C   0  0  0  0  0  0  0  0  0  0  0  0
   -1.6600   24.8270  -28.5340 C   0  0  0  0  0  0  0  0  0  0  0  0
   -2.1210   23.8880  -29.5070 N   0  0  0  0  0  0  0  0  0  0  0  0
   -3.3460   23.8860  -29.9190 C   0  0  0  0  0  0  0  0  0  0  0  0
   -4.2310   24.7800  -29.4390 N   0  0  0  0  0  0  0  0  0  0  0  0
   -5.5010   24.7600  -29.8830 C   0  0  0  0  0  0  0  0  0  0  0  0
   -6.4810   25.7580  -29.3430 C   0  0  0  0  0  0  0  0  0  0  0  0
   -5.8600   23.8180  -30.8240 C   0  0  0  0  0  0  0  0  0  0  0  0
   -4.9780   22.9090  -31.3180 C   0  0  0  0  0  0  0  0  0  0  0  0
   -5.2580   22.0260  -32.1810 N   0  0  0  0  0  0  0  0  0  0  0  0
   -6.5780   21.9170  -32.7190 C   0  0  0  0  0  0  0  0  0  0  0  0
   -7.1940   20.5840  -32.4610 C   0  0  0  0  0  0  0  0  0  0  0  0
   -6.4480   19.4120  -32.4530 C   0  0  0  0  0  0  0  0  0  0  0  0
   -7.0030   18.1730  -32.2160 C   0  0  0  0  0  0  0  0  0  0  0  0
   -8.3530   18.0490  -31.9710 C   0  0  0  0  0  0  0  0  0  0  0  0
   -9.1250   19.1920  -31.9710 C   0  0  0  0  0  0  0  0  0  0  0  0
   -8.5510   20.4310  -32.2110 C   0  0  0  0  0  0  0  0  0  0  0  0
   -3.7020   22.9610  -30.8450 N   0  0  0  0  0  0  0  0  0  0  0  0
   -3.0370   24.8661  -25.3428 H   0  0  0  0  0  0  0  0  0  0  0  0
   -2.9765   26.2641  -26.6357 H   0  0  0  0  0  0  0  0  0  0  0  0
   -1.8892   23.4114  -26.8317 H   0  0  0  0  0  0  0  0  0  0  0  0
   -2.0631   25.8220  -28.7739 H   0  0  0  0  0  0  0  0  0  0  0  0
   -0.5603   24.8440  -28.5542 H   0  0  0  0  0  0  0  0  0  0  0  0
   -3.9490   25.4970  -28.7200 H   0  0  0  0  0  0  0  0  0  0  0  0
   -6.4590   25.7356  -28.2435 H   0  0  0  0  0  0  0  0  0  0  0  0
   -6.2107   26.7646  -29.6947 H   0  0  0  0  0  0  0  0  0  0  0  0
   -7.4924   25.5060  -29.6947 H   0  0  0  0  0  0  0  0  0  0  0  0
   -6.8978   23.8015  -31.1882 H   0  0  0  0  0  0  0  0  0  0  0  0
   -7.2102   22.6919  -32.2609 H   0  0  0  0  0  0  0  0  0  0  0  0
   -6.5051   22.0450  -33.8091 H   0  0  0  0  0  0  0  0  0  0  0  0
   -5.3666   19.4758  -32.6443 H   0  0  0  0  0  0  0  0  0  0  0  0
   -6.3641   17.2776  -32.2225 H   0  0  0  0  0  0  0  0  0  0  0  0
   -8.8036   17.0638  -31.7803 H   0  0  0  0  0  0  0  0  0  0  0  0
  -10.2057   19.1199  -31.7789 H   0  0  0  0  0  0  0  0  0  0  0  0
   -9.1932   21.3240  -32.2031 H   0  0  0  0  0  0  0  0  0  0  0  0
   -3.0060   22.2900  -31.1950 H   0  0  0  0  0  0  0  0  0  0  0  0
  1  2  2  0
  2  3  1  0
  3  4  1  0
  4  5  2  0
  5  6  1  0
  6  7  1  0
  7  8  1  0
  7  9  2  0
  9 10  1  0
 10 11  2  0
 11 12  1  0
 12 13  1  0
 13 14  2  0
 14 15  1  0
 15 16  2  0
 16 17  1  0
 17 18  2  0
 10 19  1  0
 19  5  1  0
 18 13  1  0
  1 20  1  0
  1 21  1  0
  2 22  1  0
  3 23  1  0
  3 24  1  0
  6 25  1  0
  8 26  1  0
  8 27  1  0
  8 28  1  0
  9 29  1  0
 12 30  1  0
 12 31  1  0
 14 32  1  0
 15 33  1  0
 16 34  1  0
 17 35  1  0
 18 36  1  0
 19 37  1  0
M  END
>  <smiles>  (6) 
C=CCN=c1[nH]c(C)cc(=NCc2ccccc2)[nH]1

>  <score_type>  (6) 
oracle

>  <origin>  (6) 
adgpu

>  <m_score__min__energy>  (6) 
-7.0899999999999999

>  <m_primary>  (6) 
energy

$$$$
6:0
     RDKit          3D

 59 63  0  0  0  0  0  0  0  0999 V2000
   -1.9230   21.8140  -34.5870 H   0  0  0  0  0  0  0  0  0  0  0  0
   -2.6090   21.1730  -34.2080 O   0  0  0  0  0  0  0  0  0  0  0  0
   -3.7550   21.6520  -33.6110 N   0  0  0  0  0  0  0  0  0  0  0  0
   -4.5120   22.0320  -34.2230 H   0  0  0  0  0  0  0  0  0  0  0  0
   -3.9270   21.6010  -32.3210 C   0  0  0  0  0  0  0  0  0  0  0  0
   -2.8600   21.0860  -31.4240 C   0  0  0  0  0  0  0  0  0  0  0  0
   -2.2460   19.8620  -31.7250 C   0  0  0  0  0  0  0  0  0  0  0  0
   -2.5584   19.3014  -32.6184 H   0  0  0  0  0  0  0  0  0  0  0  0
   -1.2430   19.3480  -30.9030 C   0  0  0  0  0  0  0  0  0  0  0  0
   -0.7591   18.3947  -31.1619 H   0  0  0  0  0  0  0  0  0  0  0  0
   -0.8480   20.0390  -29.7490 C   0  0  0  0  0  0  0  0  0  0  0  0
    0.2060   19.4840  -28.8780 C   0  0  0  0  0  0  0  0  0  0  0  0
    1.1020   20.2250  -28.1950 N   0  0  0  0  0  0  0  0  0  0  0  0
    1.8720   19.3710  -27.5400 N   0  0  0  0  0  0  0  0  0  0  0  0
    1.4150   18.1430  -27.8430 C   0  0  0  0  0  0  0  0  0  0  0  0
    2.0160   16.8750  -27.3380 C   0  0  0  0  0  0  0  0  0  0  0  0
    2.0134   16.8806  -26.2380 H   0  0  0  0  0  0  0  0  0  0  0  0
    1.4274   16.0199  -27.7017 H   0  0  0  0  0  0  0  0  0  0  0  0
    3.0506   16.7892  -27.7017 H   0  0  0  0  0  0  0  0  0  0  0  0
    0.3980   18.2030  -28.6680 O   0  0  0  0  0  0  0  0  0  0  0  0
   -1.4770   21.2520  -29.4270 C   0  0  0  0  0  0  0  0  0  0  0  0
   -1.1825   21.7928  -28.5155 H   0  0  0  0  0  0  0  0  0  0  0  0
   -2.4800   21.7830  -30.2580 C   0  0  0  0  0  0  0  0  0  0  0  0
   -3.1630   22.9580  -29.9030 O   0  0  0  0  0  0  0  0  0  0  0  0
   -2.9130   23.7270  -28.7570 C   0  0  0  0  0  0  0  0  0  0  0  0
   -1.6850   24.3770  -28.5530 C   0  0  0  0  0  0  0  0  0  0  0  0
   -0.8803   24.2743  -29.2959 H   0  0  0  0  0  0  0  0  0  0  0  0
   -1.4820   25.1540  -27.4090 C   0  0  0  0  0  0  0  0  0  0  0  0
   -0.5140   25.6530  -27.2539 H   0  0  0  0  0  0  0  0  0  0  0  0
   -2.4990   25.3030  -26.4590 C   0  0  0  0  0  0  0  0  0  0  0  0
   -2.2400   26.0970  -25.3300 O   0  0  0  0  0  0  0  0  0  0  0  0
   -1.0690   26.0220  -24.5210 C   0  0  0  0  0  0  0  0  0  0  0  0
   -1.2460   26.7480  -23.3570 F   0  0  0  0  0  0  0  0  0  0  0  0
    0.0250   26.5070  -25.2170 F   0  0  0  0  0  0  0  0  0  0  0  0
   -0.8350   24.7010  -24.1910 F   0  0  0  0  0  0  0  0  0  0  0  0
   -3.7340   24.6600  -26.6720 C   0  0  0  0  0  0  0  0  0  0  0  0
   -4.5419   24.7669  -25.9331 H   0  0  0  0  0  0  0  0  0  0  0  0
   -3.9370   23.8870  -27.8180 C   0  0  0  0  0  0  0  0  0  0  0  0
   -4.9097   23.4005  -27.9830 H   0  0  0  0  0  0  0  0  0  0  0  0
   -5.2050   21.9620  -31.7590 N   0  0  0  0  0  0  0  0  0  0  0  0
   -6.3270   21.0410  -31.8160 C   0  0  0  0  0  0  0  0  0  0  0  0
   -6.1270   19.6560  -31.9910 C   0  0  0  0  0  0  0  0  0  0  0  0
   -5.1047   19.2596  -32.0794 H   0  0  0  0  0  0  0  0  0  0  0  0
   -7.2160   18.7830  -32.0530 C   0  0  0  0  0  0  0  0  0  0  0  0
   -7.0480   17.7062  -32.2024 H   0  0  0  0  0  0  0  0  0  0  0  0
   -8.5150   19.2730  -31.9260 C   0  0  0  0  0  0  0  0  0  0  0  0
   -9.3705   18.5846  -31.9899 H   0  0  0  0  0  0  0  0  0  0  0  0
   -8.7310   20.6350  -31.7180 C   0  0  0  0  0  0  0  0  0  0  0  0
   -9.7573   21.0175  -31.6162 H   0  0  0  0  0  0  0  0  0  0  0  0
   -7.6440   21.5200  -31.6380 C   0  0  0  0  0  0  0  0  0  0  0  0
   -7.8860   22.9850  -31.4020 C   0  0  0  0  0  0  0  0  0  0  0  0
   -8.8072   23.1109  -30.8142 H   0  0  0  0  0  0  0  0  0  0  0  0
   -7.9871   23.4927  -32.3726 H   0  0  0  0  0  0  0  0  0  0  0  0
   -6.7130   23.5980  -30.6390 C   0  0  0  0  0  0  0  0  0  0  0  0
   -6.6364   23.1238  -29.6494 H   0  0  0  0  0  0  0  0  0  0  0  0
   -6.8850   24.6787  -30.5271 H   0  0  0  0  0  0  0  0  0  0  0  0
   -5.4070   23.3790  -31.4060 C   0  0  0  0  0  0  0  0  0  0  0  0
   -4.5668   23.7121  -30.7791 H   0  0  0  0  0  0  0  0  0  0  0  0
   -5.4603   23.9576  -32.3400 H   0  0  0  0  0  0  0  0  0  0  0  0
  1  2  1  0
  2  3  1  0
  3  4  1  0
  3  5  2  0
  5  6  1  0
  6  7  2  0
  7  8  1  0
  7  9  1  0
  9 10  1  0
  9 11  2  0
 11 12  1  0
 12 13  2  0
 13 14  1  0
 14 15  2  0
 15 16  1  0
 16 17  1  0
 16 18  1  0
 16 19  1  0
 15 20  1  0
 11 21  1  0
 21 22  1  0
 21 23  2  0
 23 24  1  0
 24 25  1  0
 25 26  2  0
 26 27  1  0
 26 28  1  0
 28 29  1  0
 28 30  2  0
 30 31  1  0
 31 32  1  0
 32 33  1  0
 32 34  1  0
 32 35  1  0
 30 36  1  0
 36 37  1  0
 36 38  2  0
 38 39  1  0
  5 40  1  0
 40 41  1  0
 41 42  2  0
 42 43  1  0
 42 44  1  0
 44 45  1  0
 44 46  2  0
 46 47  1  0
 46 48  1  0
 48 49  1  0
 48 50  2  0
 50 51  1  0
 51 52  1  0
 51 53  1  0
 51 54  1  0
 54 55  1  0
 54 56  1  0
 54 57  1  0
 57 58  1  0
 57 59  1  0
 23  6  1  0
 38 25  1  0
 57 40  1  0
 20 12  1  0
 50 41  1  0
M  CHG  1   3   1
M  END
>  <UniqueID>  (7) 
6

>  <SMILES>  (7) 
Cc1nnc(-c2ccc(/C(=[NH+]\O)N3CCCc4ccccc43)c(Oc3ccc(OC(F)(F)F)cc3)c2)o1

>  <Energy>  (7) 
114.96324089835096

>  <Genealogy>  (7) 
Cc1nnc(-c2ccc(C(=[NH+]O)N3CCCc4ccccc43)c(Oc3ccc(OC(F)(F)F)cc3)c2)o1 (protonated)
Cc1nnc(-c2ccc(/C(=[NH+]\O)N3CCCc4ccccc43)c(Oc3ccc(OC(F)(F)F)cc3)c2)o1 (cis-trans isomerization)
Cc1nnc(-c2ccc(/C(=[NH+]\O)N3CCCc4ccccc43)c(Oc3ccc(OC(F)(F)F)cc3)c2)o1 (3D coordinates assigned)
Cc1nnc(-c2ccc(/C(=[NH+]\O)N3CCCc4ccccc43)c(Oc3ccc(OC(F)(F)F)cc3)c2)o1 (nonaromatic ring conformer: 114.96324089835096 kcal/mol)

>  <smiles>  (7) 
Cc1nnc(-c2ccc(C(=NO)N3CCCc4ccccc43)c(Oc3ccc(OC(F)(F)F)cc3)c2)o1

>  <score_type>  (7) 
oracle

>  <origin>  (7) 
adgpu

>  <m_score__min__energy>  (7) 
-9.3900000000000006

>  <m_primary>  (7) 
energy

$$$$
7:0
     RDKit          3D

 49 52  0  0  0  0  0  0  0  0999 V2000
   -9.1040   18.3890  -31.6390 C   0  0  0  0  0  0  0  0  0  0  0  0
   -8.0490   17.7310  -32.3330 O   0  0  0  0  0  0  0  0  0  0  0  0
   -6.8220   18.3280  -32.6630 C   0  0  0  0  0  0  0  0  0  0  0  0
   -5.7850   17.5050  -33.1150 C   0  0  0  0  0  0  0  0  0  0  0  0
   -4.5370   18.0510  -33.4670 C   0  0  0  0  0  0  0  0  0  0  0  0
   -3.4730   17.2600  -33.9290 O   0  0  0  0  0  0  0  0  0  0  0  0
   -2.1040   17.6450  -33.8770 C   0  0  0  0  0  0  0  0  0  0  0  0
   -4.3370   19.4300  -33.3540 C   0  0  0  0  0  0  0  0  0  0  0  0
   -5.3600   20.2670  -32.8850 C   0  0  0  0  0  0  0  0  0  0  0  0
   -5.1300   21.7250  -32.7740 C   0  0  0  0  0  0  0  0  0  0  0  0
   -4.1430   22.2330  -33.3710 O   0  0  0  0  0  0  0  0  0  0  0  0
   -5.9890   22.5650  -31.9740 N   0  0  0  0  0  0  0  0  0  0  0  0
   -6.5700   22.0480  -30.7240 C   0  0  0  0  0  0  0  0  0  0  0  0
   -6.8410   23.1760  -29.7140 C   0  0  0  0  0  0  0  0  0  0  0  0
   -5.7180   24.2350  -29.7160 C   0  0  0  0  0  0  0  0  0  0  0  0
   -4.4670   23.6880  -29.0710 C   0  0  0  0  0  0  0  0  0  0  0  0
   -4.4090   22.4400  -28.5410 N   0  0  0  0  0  0  0  0  0  0  0  0
   -3.1620   22.1580  -28.0820 C   0  0  0  0  0  0  0  0  0  0  0  0
   -2.7980   20.9510  -27.4810 C   0  0  0  0  0  0  0  0  0  0  0  0
   -1.4680   20.7840  -27.0560 C   0  0  0  0  0  0  0  0  0  0  0  0
   -0.5250   21.8150  -27.2370 C   0  0  0  0  0  0  0  0  0  0  0  0
   -0.9030   23.0230  -27.8440 C   0  0  0  0  0  0  0  0  0  0  0  0
   -2.2250   23.1640  -28.2540 C   0  0  0  0  0  0  0  0  0  0  0  0
   -2.9580   24.4700  -29.0080 S   0  0  0  0  0  0  0  0  0  0  0  0
   -5.4500   24.8200  -31.1340 C   0  0  0  0  0  0  0  0  0  0  0  0
   -6.0940   23.9990  -32.2620 C   0  0  0  0  0  0  0  0  0  0  0  0
   -6.6070   19.7140  -32.5560 C   0  0  0  0  0  0  0  0  0  0  0  0
   -8.9468   18.2909  -30.5547 H   0  0  0  0  0  0  0  0  0  0  0  0
   -9.1148   19.4543  -31.9131 H   0  0  0  0  0  0  0  0  0  0  0  0
  -10.0654   17.9301  -31.9131 H   0  0  0  0  0  0  0  0  0  0  0  0
   -5.9470   16.4200  -33.1960 H   0  0  0  0  0  0  0  0  0  0  0  0
   -1.7877   17.7339  -32.8272 H   0  0  0  0  0  0  0  0  0  0  0  0
   -1.4899   16.8847  -34.3818 H   0  0  0  0  0  0  0  0  0  0  0  0
   -1.9762   18.6139  -34.3818 H   0  0  0  0  0  0  0  0  0  0  0  0
   -3.3662   19.8635  -33.6361 H   0  0  0  0  0  0  0  0  0  0  0  0
   -7.5183   21.5405  -30.9547 H   0  0  0  0  0  0  0  0  0  0  0  0
   -5.8491   21.3499  -30.2735 H   0  0  0  0  0  0  0  0  0  0  0  0
   -7.7912   23.6653  -29.9743 H   0  0  0  0  0  0  0  0  0  0  0  0
   -6.8858   22.7297  -28.7096 H   0  0  0  0  0  0  0  0  0  0  0  0
   -6.0626   25.0840  -29.1074 H   0  0  0  0  0  0  0  0  0  0  0  0
   -3.5365   20.1475  -27.3429 H   0  0  0  0  0  0  0  0  0  0  0  0
   -1.1616   19.8415  -26.5787 H   0  0  0  0  0  0  0  0  0  0  0  0
    0.5127   21.6727  -26.9010 H   0  0  0  0  0  0  0  0  0  0  0  0
   -0.1751   23.8345  -27.9912 H   0  0  0  0  0  0  0  0  0  0  0  0
   -5.8540   25.8424  -31.1719 H   0  0  0  0  0  0  0  0  0  0  0  0
   -4.3621   24.7979  -31.2952 H   0  0  0  0  0  0  0  0  0  0  0  0
   -7.1553   24.2743  -32.3503 H   0  0  0  0  0  0  0  0  0  0  0  0
   -5.5685   24.2133  -33.2043 H   0  0  0  0  0  0  0  0  0  0  0  0
   -7.4215   20.3685  -32.2123 H   0  0  0  0  0  0  0  0  0  0  0  0
  1  2  1  0
  2  3  1  0
  3  4  2  0
  4  5  1  0
  5  6  1  0
  6  7  1  0
  5  8  2  0
  8  9  1  0
  9 10  1  0
 10 11  2  0
 10 12  1  0
 12 13  1  0
 13 14  1  0
 14 15  1  0
 15 16  1  0
 16 17  2  0
 17 18  1  0
 18 19  2  0
 19 20  1  0
 20 21  2  0
 21 22  1  0
 22 23  2  0
 23 24  1  0
 15 25  1  0
 25 26  1  0
  9 27  2  0
 27  3  1  0
 26 12  1  0
 24 16  1  0
 23 18  1  0
  1 28  1  0
  1 29  1  0
  1 30  1  0
  4 31  1  0
  7 32  1  0
  7 33  1  0
  7 34  1  0
  8 35  1  0
 13 36  1  0
 13 37  1  0
 14 38  1  0
 14 39  1  0
 15 40  1  0
 19 41  1  0
 20 42  1  0
 21 43  1  0
 22 44  1  0
 25 45  1  0
 25 46  1  0
 26 47  1  0
 26 48  1  0
 27 49  1  0
M  END
>  <UniqueID>  (8) 
7

>  <SMILES>  (8) 
COc1cc(OC)cc(C(=O)N2CCC(c3nc4ccccc4s3)CC2)c1

>  <Energy>  (8) 
92.85973019910114

>  <Genealogy>  (8) 
COc1cc(OC)cc(C(=O)N2CCC(c3nc4ccccc4s3)CC2)c1 (3D coordinates assigned)
COc1cc(OC)cc(C(=O)N2CCC(c3nc4ccccc4s3)CC2)c1 (nonaromatic ring conformer: 92.85973019910114 kcal/mol)

>  <smiles>  (8) 
COc1cc(OC)cc(C(=O)N2CCC(c3nc4ccccc4s3)CC2)c1

>  <score_type>  (8) 
oracle

>  <origin>  (8) 
adgpu

>  <m_score__min__energy>  (8) 
-7.7400000000000002

>  <m_primary>  (8) 
energy

$$$$
8:0
     RDKit          3D

 39 41  0  0  0  0  0  0  0  0999 V2000
    0.0260   25.8950  -24.1560 C   0  0  0  0  0  0  0  0  0  0  0  0
    0.2370   25.1990  -25.3800 O   0  0  0  0  0  0  0  0  0  0  0  0
   -0.7420   25.0120  -26.3690 C   0  0  0  0  0  0  0  0  0  0  0  0
   -2.1150   24.9770  -26.0630 C   0  0  0  0  0  0  0  0  0  0  0  0
   -3.0600   24.7880  -27.0720 C   0  0  0  0  0  0  0  0  0  0  0  0
   -2.6540   24.6310  -28.4040 C   0  0  0  0  0  0  0  0  0  0  0  0
   -3.6520   24.4320  -29.4750 C   0  0  0  0  0  0  0  0  0  0  0  0
   -4.4520   23.3530  -29.5770 N   0  0  0  0  0  0  0  0  0  0  0  0
   -5.1620   23.6390  -30.6910 C   0  0  0  0  0  0  0  0  0  0  0  0
   -6.2080   22.7460  -31.2500 C   0  0  0  0  0  0  0  0  0  0  0  0
   -7.5610   23.1210  -31.1300 C   0  0  0  0  0  0  0  0  0  0  0  0
   -8.5740   22.3090  -31.6430 C   0  0  0  0  0  0  0  0  0  0  0  0
   -8.2550   21.1130  -32.2810 C   0  0  0  0  0  0  0  0  0  0  0  0
   -6.9220   20.7230  -32.4120 C   0  0  0  0  0  0  0  0  0  0  0  0
   -5.8840   21.5300  -31.9000 C   0  0  0  0  0  0  0  0  0  0  0  0
   -4.5380   21.1490  -32.0250 O   0  0  0  0  0  0  0  0  0  0  0  0
   -3.9530   20.6030  -33.2040 C   0  0  0  0  0  0  0  0  0  0  0  0
   -4.8040   24.8240  -31.2260 N   0  0  0  0  0  0  0  0  0  0  0  0
   -3.8710   25.2810  -30.4480 O   0  0  0  0  0  0  0  0  0  0  0  0
   -1.2850   24.6660  -28.7130 C   0  0  0  0  0  0  0  0  0  0  0  0
   -0.3250   24.8550  -27.7000 C   0  0  0  0  0  0  0  0  0  0  0  0
    1.0510   24.8940  -27.9750 O   0  0  0  0  0  0  0  0  0  0  0  0
    2.0180   24.0370  -27.3760 C   0  0  0  0  0  0  0  0  0  0  0  0
    0.2303   25.2210  -23.3110 H   0  0  0  0  0  0  0  0  0  0  0  0
    0.7018   26.7614  -24.1057 H   0  0  0  0  0  0  0  0  0  0  0  0
   -1.0172   26.2403  -24.1057 H   0  0  0  0  0  0  0  0  0  0  0  0
   -2.4456   25.0995  -25.0210 H   0  0  0  0  0  0  0  0  0  0  0  0
   -4.1305   24.7621  -26.8203 H   0  0  0  0  0  0  0  0  0  0  0  0
   -7.8217   24.0637  -30.6267 H   0  0  0  0  0  0  0  0  0  0  0  0
   -9.6260   22.6144  -31.5431 H   0  0  0  0  0  0  0  0  0  0  0  0
   -9.0557   20.4745  -32.6825 H   0  0  0  0  0  0  0  0  0  0  0  0
   -6.6780   19.7778  -32.9190 H   0  0  0  0  0  0  0  0  0  0  0  0
   -3.1751   19.8770  -32.9250 H   0  0  0  0  0  0  0  0  0  0  0  0
   -4.7289   20.0987  -33.7986 H   0  0  0  0  0  0  0  0  0  0  0  0
   -3.5033   21.4118  -33.7986 H   0  0  0  0  0  0  0  0  0  0  0  0
   -0.9589   24.5446  -29.7565 H   0  0  0  0  0  0  0  0  0  0  0  0
    1.9405   24.1057  -26.2809 H   0  0  0  0  0  0  0  0  0  0  0  0
    1.8345   22.9995  -27.6922 H   0  0  0  0  0  0  0  0  0  0  0  0
    3.0259   24.3439  -27.6922 H   0  0  0  0  0  0  0  0  0  0  0  0
  1  2  1  0
  2  3  1  0
  3  4  2  0
  4  5  1  0
  5  6  2  0
  6  7  1  0
  7  8  2  0
  8  9  1  0
  9 10  1  0
 10 11  2  0
 11 12  1  0
 12 13  2  0
 13 14  1  0
 14 15  2  0
 15 16  1  0
 16 17  1  0
  9 18  2  0
 18 19  1  0
  6 20  1  0
 20 21  2  0
 21 22  1  0
 22 23  1  0
 21  3  1  0
 19  7  1  0
 15 10  1  0
  1 24  1  0
  1 25  1  0
  1 26  1  0
  4 27  1  0
  5 28  1  0
 11 29  1  0
 12 30  1  0
 13 31  1  0
 14 32  1  0
 17 33  1  0
 17 34  1  0
 17 35  1  0
 20 36  1  0
 23 37  1  0
 23 38  1  0
 23 39  1  0
M  END
>  <UniqueID>  (9) 
8

>  <SMILES>  (9) 
COc1ccc(-c2nc(-c3ccccc3OC)no2)cc1OC

>  <Energy>  (9) 
75.26438673984319

>  <Genealogy>  (9) 
COc1ccc(-c2nc(-c3ccccc3OC)no2)cc1OC (3D coordinates assigned)
COc1ccc(-c2nc(-c3ccccc3OC)no2)cc1OC (optimized conformer: 75.26438673984319 kcal/mol)

>  <smiles>  (9) 
COc1ccc(-c2nc(-c3ccccc3OC)no2)cc1OC

>  <score_type>  (9) 
oracle

>  <origin>  (9) 
adgpu

>  <m_score__min__energy>  (9) 
-7.9400000000000004

>  <m_primary>  (9) 
energy

$$$$
9:0
     RDKit          3D

 48 50  0  0  0  0  0  0  0  0999 V2000
   -4.3380   24.5730  -30.8900 O   0  0  0  0  0  0  0  0  0  0  0  0
   -4.7740   23.4330  -31.2060 C   0  0  0  0  0  0  0  0  0  0  0  0
   -5.8850   23.3180  -32.1980 C   0  0  0  0  0  0  0  0  0  0  0  0
   -5.9380   21.9810  -32.6880 O   0  0  0  0  0  0  0  0  0  0  0  0
   -6.9960   21.0890  -32.4570 C   0  0  0  0  0  0  0  0  0  0  0  0
   -8.1800   21.4840  -31.8020 C   0  0  0  0  0  0  0  0  0  0  0  0
   -9.2110   20.5630  -31.5920 C   0  0  0  0  0  0  0  0  0  0  0  0
   -9.0720   19.2440  -32.0280 C   0  0  0  0  0  0  0  0  0  0  0  0
   -7.9020   18.8430  -32.6780 C   0  0  0  0  0  0  0  0  0  0  0  0
   -6.8660   19.7590  -32.8930 C   0  0  0  0  0  0  0  0  0  0  0  0
   -5.4060   19.2310  -33.7140 Cl  0  0  0  0  0  0  0  0  0  0  0  0
   -4.1790   22.2450  -30.6600 N   0  0  0  0  0  0  0  0  0  0  0  0
   -3.2590   22.2370  -29.5540 C   0  0  0  0  0  0  0  0  0  0  0  0
   -3.1100   21.1070  -28.7310 C   0  0  0  0  0  0  0  0  0  0  0  0
   -2.1930   21.1190  -27.6770 C   0  0  0  0  0  0  0  0  0  0  0  0
   -1.4090   22.2520  -27.4420 C   0  0  0  0  0  0  0  0  0  0  0  0
   -1.5320   23.3770  -28.2680 C   0  0  0  0  0  0  0  0  0  0  0  0
   -0.5410   24.8090  -27.9750 S   0  0  0  0  0  0  0  0  0  0  0  0
   -1.0800   25.9530  -28.7880 O   0  0  0  0  0  0  0  0  0  0  0  0
    0.8680   24.5410  -28.4260 O   0  0  0  0  0  0  0  0  0  0  0  0
   -0.5370   25.2520  -26.2850 N   0  0  0  0  0  0  0  0  0  0  0  0
    0.7190   25.9380  -25.9380 C   0  0  0  0  0  0  0  0  0  0  0  0
    0.8330   26.1050  -24.4120 C   0  0  0  0  0  0  0  0  0  0  0  0
   -0.5390   26.0890  -23.7150 C   0  0  0  0  0  0  0  0  0  0  0  0
   -1.6060   26.7600  -24.5840 C   0  0  0  0  0  0  0  0  0  0  0  0
   -1.7060   26.1030  -25.9790 C   0  0  0  0  0  0  0  0  0  0  0  0
   -2.4490   23.3610  -29.3280 C   0  0  0  0  0  0  0  0  0  0  0  0
   -6.8394   23.5702  -31.7127 H   0  0  0  0  0  0  0  0  0  0  0  0
   -5.7082   24.0114  -33.0334 H   0  0  0  0  0  0  0  0  0  0  0  0
   -8.2934   22.5215  -31.4545 H   0  0  0  0  0  0  0  0  0  0  0  0
  -10.1334   20.8783  -31.0823 H   0  0  0  0  0  0  0  0  0  0  0  0
   -9.8834   18.5206  -31.8598 H   0  0  0  0  0  0  0  0  0  0  0  0
   -7.7948   17.8037  -33.0220 H   0  0  0  0  0  0  0  0  0  0  0  0
   -4.3690   21.3400  -31.1480 H   0  0  0  0  0  0  0  0  0  0  0  0
   -3.7180   20.2095  -28.9177 H   0  0  0  0  0  0  0  0  0  0  0  0
   -2.0878   20.2350  -27.0308 H   0  0  0  0  0  0  0  0  0  0  0  0
   -0.6936   22.2605  -26.6064 H   0  0  0  0  0  0  0  0  0  0  0  0
    1.5697   25.3435  -26.3025 H   0  0  0  0  0  0  0  0  0  0  0  0
    0.7250   26.9325  -26.4081 H   0  0  0  0  0  0  0  0  0  0  0  0
    1.4423   25.2815  -24.0112 H   0  0  0  0  0  0  0  0  0  0  0  0
    1.2970   27.0828  -24.2158 H   0  0  0  0  0  0  0  0  0  0  0  0
   -0.8336   25.0463  -23.5254 H   0  0  0  0  0  0  0  0  0  0  0  0
   -0.4574   26.6455  -22.7697 H   0  0  0  0  0  0  0  0  0  0  0  0
   -2.5802   26.6759  -24.0801 H   0  0  0  0  0  0  0  0  0  0  0  0
   -1.3219   27.8137  -24.7218 H   0  0  0  0  0  0  0  0  0  0  0  0
   -2.6136   25.4824  -26.0132 H   0  0  0  0  0  0  0  0  0  0  0  0
   -1.7405   26.9081  -26.7277 H   0  0  0  0  0  0  0  0  0  0  0  0
   -2.5346   24.2366  -29.9883 H   0  0  0  0  0  0  0  0  0  0  0  0
  1  2  2  0
  2  3  1  0
  3  4  1  0
  4  5  1  0
  5  6  2  0
  6  7  1  0
  7  8  2  0
  8  9  1  0
  9 10  2  0
 10 11  1  0
  2 12  1  0
 12 13  1  0
 13 14  2  0
 14 15  1  0
 15 16  2  0
 16 17  1  0
 17 18  1  0
 18 19  2  0
 18 20  2  0
 18 21  1  0
 21 22  1  0
 22 23  1  0
 23 24  1  0
 24 25  1  0
 25 26  1  0
 17 27  2  0
 10  5  1  0
 27 13  1  0
 26 21  1  0
  3 28  1  0
  3 29  1  0
  6 30  1  0
  7 31  1  0
  8 32  1  0
  9 33  1  0
 12 34  1  0
 14 35  1  0
 15 36  1  0
 16 37  1  0
 22 38  1  0
 22 39  1  0
 23 40  1  0
 23 41  1  0
 24 42  1  0
 24 43  1  0
 25 44  1  0
 25 45  1  0
 26 46  1  0
 26 47  1  0
 27 48  1  0
M  END
>  <UniqueID>  (10) 
9

>  <SMILES>  (10) 
O=C(COc1ccccc1Cl)Nc1cccc(S(=O)(=O)N2CCCCC2)c1

>  <Energy>  (10) 
53.299148457738575

>  <Genealogy>  (10) 
O=C(COc1ccccc1Cl)Nc1cccc(S(=O)(=O)N2CCCCC2)c1 (3D coordinates assigned)
O=C(COc1ccccc1Cl)Nc1cccc(S(=O)(=O)N2CCCCC2)c1 (nonaromatic ring conformer: 53.299148457738575 kcal/mol)

>  <smiles>  (10) 
O=C(COc1ccccc1Cl)Nc1cccc(S(=O)(=O)N2CCCCC2)c1

>  <score_type>  (10) 
oracle

>  <origin>  (10) 
adgpu

>  <m_score__min__energy>  (10) 
-9.6099999999999994

>  <m_primary>  (10) 
energy

$$$$
10:0
     RDKit          3D

 46 48  0  0  0  0  0  0  0  0999 V2000
   -9.3470   21.1370  -31.9530 C   0  0  0  0  0  0  0  0  0  0  0  0
   -8.0080   21.8080  -31.8760 C   0  0  0  0  0  0  0  0  0  0  0  0
   -6.8300   21.0570  -31.9980 C   0  0  0  0  0  0  0  0  0  0  0  0
   -5.5830   21.6790  -31.8850 C   0  0  0  0  0  0  0  0  0  0  0  0
   -5.4940   23.0570  -31.6530 C   0  0  0  0  0  0  0  0  0  0  0  0
   -4.1940   23.6480  -31.5130 N   0  0  0  0  0  0  0  0  0  0  0  0
   -3.7240   24.4310  -30.4060 C   0  0  0  0  0  0  0  0  0  0  0  0
   -4.1540   25.6050  -30.2430 O   0  0  0  0  0  0  0  0  0  0  0  0
   -2.6970   23.8730  -29.4860 C   0  0  0  0  0  0  0  0  0  0  0  0
   -2.7250   22.5010  -29.1610 C   0  0  0  0  0  0  0  0  0  0  0  0
   -1.7750   21.9480  -28.2920 C   0  0  0  0  0  0  0  0  0  0  0  0
   -1.8200   20.2330  -27.8900 S   0  0  0  0  0  0  0  0  0  0  0  0
   -1.4870   20.0780  -26.4320 O   0  0  0  0  0  0  0  0  0  0  0  0
   -3.2000   19.6770  -28.1110 O   0  0  0  0  0  0  0  0  0  0  0  0
   -0.6660   19.3470  -28.9170 C   0  0  0  0  0  0  0  0  0  0  0  0
   -0.6350   19.5390  -30.3220 C   0  0  0  0  0  0  0  0  0  0  0  0
   -1.5800   20.4830  -31.0210 C   0  0  0  0  0  0  0  0  0  0  0  0
    0.2800   18.8100  -31.0960 C   0  0  0  0  0  0  0  0  0  0  0  0
    1.1640   17.9220  -30.4800 C   0  0  0  0  0  0  0  0  0  0  0  0
    2.1590   17.1570  -31.2930 C   0  0  0  0  0  0  0  0  0  0  0  0
    1.1390   17.7770  -29.1310 N   0  0  0  0  0  0  0  0  0  0  0  0
    0.2640   18.4530  -28.3440 C   0  0  0  0  0  0  0  0  0  0  0  0
    0.3040   18.2710  -27.0980 O   0  0  0  0  0  0  0  0  0  0  0  0
   -0.7880   22.7660  -27.7340 C   0  0  0  0  0  0  0  0  0  0  0  0
   -0.7460   24.1250  -28.0450 C   0  0  0  0  0  0  0  0  0  0  0  0
   -1.6890   24.6830  -28.9130 C   0  0  0  0  0  0  0  0  0  0  0  0
   -1.6110   26.0440  -29.1930 O   0  0  0  0  0  0  0  0  0  0  0  0
   -6.6750   23.8040  -31.4900 C   0  0  0  0  0  0  0  0  0  0  0  0
   -7.9220   23.1810  -31.6020 C   0  0  0  0  0  0  0  0  0  0  0  0
   -9.7220   20.9491  -30.9361 H   0  0  0  0  0  0  0  0  0  0  0  0
  -10.0530   21.7878  -32.4897 H   0  0  0  0  0  0  0  0  0  0  0  0
   -9.2482   20.1819  -32.4897 H   0  0  0  0  0  0  0  0  0  0  0  0
   -6.8873   19.9742  -32.1833 H   0  0  0  0  0  0  0  0  0  0  0  0
   -4.6645   21.0811  -31.9791 H   0  0  0  0  0  0  0  0  0  0  0  0
   -3.5031   21.8562  -29.5955 H   0  0  0  0  0  0  0  0  0  0  0  0
   -2.1500   21.0524  -30.2721 H   0  0  0  0  0  0  0  0  0  0  0  0
   -1.0050   21.1781  -31.6504 H   0  0  0  0  0  0  0  0  0  0  0  0
   -2.2745   19.9073  -31.6504 H   0  0  0  0  0  0  0  0  0  0  0  0
    0.3011   18.9379  -32.1883 H   0  0  0  0  0  0  0  0  0  0  0  0
    2.8500   16.6258  -30.6219 H   0  0  0  0  0  0  0  0  0  0  0  0
    1.6320   16.4292  -31.9276 H   0  0  0  0  0  0  0  0  0  0  0  0
    2.7269   17.8533  -31.9276 H   0  0  0  0  0  0  0  0  0  0  0  0
   -0.0428   22.3368  -27.0481 H   0  0  0  0  0  0  0  0  0  0  0  0
    0.0347   24.7622  -27.6041 H   0  0  0  0  0  0  0  0  0  0  0  0
   -6.6174   24.8810  -31.2739 H   0  0  0  0  0  0  0  0  0  0  0  0
   -8.8413   23.7714  -31.4744 H   0  0  0  0  0  0  0  0  0  0  0  0
  1  2  1  0
  2  3  2  0
  3  4  1  0
  4  5  2  0
  5  6  1  0
  6  7  1  0
  7  8  2  0
  7  9  1  0
  9 10  2  0
 10 11  1  0
 11 12  1  0
 12 13  2  0
 12 14  2  0
 12 15  1  0
 15 16  2  0
 16 17  1  0
 16 18  1  0
 18 19  2  0
 19 20  1  0
 19 21  1  0
 21 22  1  0
 22 23  2  0
 11 24  2  0
 24 25  1  0
 25 26  2  0
 26 27  1  0
  5 28  1  0
 28 29  2  0
 29  2  1  0
 26  9  1  0
 22 15  1  0
  1 30  1  0
  1 31  1  0
  1 32  1  0
  3 33  1  0
  4 34  1  0
 10 35  1  0
 17 36  1  0
 17 37  1  0
 17 38  1  0
 18 39  1  0
 20 40  1  0
 20 41  1  0
 20 42  1  0
 24 43  1  0
 25 44  1  0
 28 45  1  0
 29 46  1  0
M  CHG  3   6  -1  21  -1  27  -1
M  END
>  <UniqueID>  (11) 
10

>  <SMILES>  (11) 
Cc1ccc([N-]C(=O)c2cc(S(=O)(=O)c3c(C)cc(C)[n-]c3=O)ccc2[O-])cc1

>  <Energy>  (11) 
58.351407574070386

>  <Genealogy>  (11) 
Cc1ccc([N-]C(=O)c2cc(S(=O)(=O)c3c(C)cc(C)[n-]c3=O)ccc2[O-])cc1 (protonated)
Cc1ccc([N-]C(=O)c2cc(S(=O)(=O)c3c(C)cc(C)[n-]c3=O)ccc2[O-])cc1 (3D coordinates assigned)
Cc1ccc([N-]C(=O)c2cc(S(=O)(=O)c3c(C)cc(C)[n-]c3=O)ccc2[O-])cc1 (optimized conformer: 58.351407574070386 kcal/mol)

>  <smiles>  (11) 
Cc1ccc(NC(=O)c2cc(S(=O)(=O)c3c(C)cc(C)[nH]c3=O)ccc2O)cc1

>  <score_type>  (11) 
oracle

>  <origin>  (11) 
adgpu

>  <m_score__min__energy>  (11) 
-13.49

>  <m_primary>  (11) 
energy

$$$$
11:0
     RDKit          3D

 38 39  0  0  0  0  0  0  0  0999 V2000
   -2.0620   19.8120  -26.8220 C   0  0  0  0  0  0  0  0  0  0  0  0
   -1.2660   20.8380  -27.4070 O   0  0  0  0  0  0  0  0  0  0  0  0
   -1.7810   21.9120  -28.1480 C   0  0  0  0  0  0  0  0  0  0  0  0
   -2.1530   23.1320  -27.5500 C   0  0  0  0  0  0  0  0  0  0  0  0
   -2.6890   24.1630  -28.3290 C   0  0  0  0  0  0  0  0  0  0  0  0
   -2.8810   23.9840  -29.7030 C   0  0  0  0  0  0  0  0  0  0  0  0
   -3.5090   25.0230  -30.4660 N   0  0  0  0  0  0  0  0  0  0  0  0
   -4.9260   25.2260  -30.5830 C   0  0  0  0  0  0  0  0  0  0  0  0
   -5.3700   26.4040  -30.5280 O   0  0  0  0  0  0  0  0  0  0  0  0
   -5.8790   24.0640  -30.7740 C   0  0  2  0  0  0  0  0  0  0  0  0
   -6.0300   23.2290  -29.4990 C   0  0  0  0  0  0  0  0  0  0  0  0
   -5.3870   23.2290  -31.8250 O   0  0  0  0  0  0  0  0  0  0  0  0
   -6.0320   22.0890  -32.3260 C   0  0  0  0  0  0  0  0  0  0  0  0
   -5.3670   21.1130  -33.0840 C   0  0  0  0  0  0  0  0  0  0  0  0
   -6.0820   19.9920  -33.5060 C   0  0  0  0  0  0  0  0  0  0  0  0
   -5.5090   19.1000  -34.1870 O   0  0  0  0  0  0  0  0  0  0  0  0
   -7.3980   19.8600  -33.1820 N   0  0  0  0  0  0  0  0  0  0  0  0
   -8.0330   20.8190  -32.4520 C   0  0  0  0  0  0  0  0  0  0  0  0
   -9.4760   20.6640  -32.0940 C   0  0  0  0  0  0  0  0  0  0  0  0
   -7.3490   21.9200  -32.0430 N   0  0  0  0  0  0  0  0  0  0  0  0
   -2.4670   22.7860  -30.3080 C   0  0  0  0  0  0  0  0  0  0  0  0
   -1.9280   21.7570  -29.5310 C   0  0  0  0  0  0  0  0  0  0  0  0
   -2.0058   19.8844  -25.7258 H   0  0  0  0  0  0  0  0  0  0  0  0
   -3.1071   19.9301  -27.1442 H   0  0  0  0  0  0  0  0  0  0  0  0
   -1.6879   18.8290  -27.1442 H   0  0  0  0  0  0  0  0  0  0  0  0
   -2.0216   23.2744  -26.4672 H   0  0  0  0  0  0  0  0  0  0  0  0
   -2.9609   25.1194  -27.8586 H   0  0  0  0  0  0  0  0  0  0  0  0
   -6.8681   24.4736  -31.0267 H   0  0  0  0  0  0  0  0  0  0  0  0
   -5.9125   23.8787  -28.6192 H   0  0  0  0  0  0  0  0  0  0  0  0
   -7.0268   22.7641  -29.4810 H   0  0  0  0  0  0  0  0  0  0  0  0
   -5.2592   22.4445  -29.4810 H   0  0  0  0  0  0  0  0  0  0  0  0
   -4.3036   21.2296  -33.3402 H   0  0  0  0  0  0  0  0  0  0  0  0
   -7.9240   19.0150  -33.4980 H   0  0  0  0  0  0  0  0  0  0  0  0
   -9.5830   20.6525  -30.9993 H   0  0  0  0  0  0  0  0  0  0  0  0
  -10.0494   21.5057  -32.5096 H   0  0  0  0  0  0  0  0  0  0  0  0
   -9.8575   19.7197  -32.5096 H   0  0  0  0  0  0  0  0  0  0  0  0
   -2.5672   22.6574  -31.3958 H   0  0  0  0  0  0  0  0  0  0  0  0
   -1.6167   20.8173  -30.0106 H   0  0  0  0  0  0  0  0  0  0  0  0
  1  2  1  0
  2  3  1  0
  3  4  2  0
  4  5  1  0
  5  6  2  0
  6  7  1  0
  7  8  1  0
  8  9  2  0
  8 10  1  0
 10 11  1  0
 10 12  1  0
 12 13  1  0
 13 14  2  0
 14 15  1  0
 15 16  2  0
 15 17  1  0
 17 18  1  0
 18 19  1  0
 18 20  2  0
  6 21  1  0
 21 22  2  0
 22  3  1  0
 20 13  1  0
  1 23  1  0
  1 24  1  0
  1 25  1  0
  4 26  1  0
  5 27  1  0
 10 28  1  6
 11 29  1  0
 11 30  1  0
 11 31  1  0
 14 32  1  0
 17 33  1  0
 19 34  1  0
 19 35  1  0
 19 36  1  0
 21 37  1  0
 22 38  1  0
M  CHG  1   7  -1
M  END
>  <UniqueID>  (12) 
11

>  <SMILES>  (12) 
COc1ccc([N-]C(=O)[C@H](C)Oc2cc(=O)[nH]c(C)n2)cc1

>  <Energy>  (12) 
39.96006079920486

>  <Genealogy>  (12) 
COc1ccc([N-]C(=O)C(C)Oc2cc(=O)[nH]c(C)n2)cc1 (protonated)
COc1ccc([N-]C(=O)[C@H](C)Oc2cc(=O)[nH]c(C)n2)cc1 (chirality)
COc1ccc([N-]C(=O)[C@H](C)Oc2cc(=O)[nH]c(C)n2)cc1 (3D coordinates assigned)
COc1ccc([N-]C(=O)[C@H](C)Oc2cc(=O)[nH]c(C)n2)cc1 (optimized conformer: 39.96006079920486 kcal/mol)

>  <smiles>  (12) 
COc1ccc(NC(=O)C(C)Oc2cc(=O)[nH]c(C)n2)cc1

>  <score_type>  (12) 
oracle

>  <origin>  (12) 
adgpu

>  <m_score__min__energy>  (12) 
-8.5999999999999996

>  <m_primary>  (12) 
energy

$$$$
12:0
     RDKit          3D

 36 39  0  0  0  0  0  0  0  0999 V2000
   -1.8100   25.0950  -28.1110 C   0  0  0  0  0  0  0  0  0  0  0  0
   -2.6030   25.2920  -29.2780 O   0  0  0  0  0  0  0  0  0  0  0  0
   -3.3560   24.2860  -29.8980 C   0  0  0  0  0  0  0  0  0  0  0  0
   -4.4940   24.6690  -30.6500 C   0  0  0  0  0  0  0  0  0  0  0  0
   -5.2900   23.7070  -31.2960 C   0  0  0  0  0  0  0  0  0  0  0  0
   -4.9230   22.3670  -31.1640 C   0  0  0  0  0  0  0  0  0  0  0  0
   -3.8270   21.9890  -30.4490 C   0  0  0  0  0  0  0  0  0  0  0  0
   -3.0150   22.9150  -29.7970 C   0  0  0  0  0  0  0  0  0  0  0  0
   -3.6650   20.6560  -30.5030 N   0  0  0  0  0  0  0  0  0  0  0  0
   -4.7070   20.2510  -31.2750 C   0  0  0  0  0  0  0  0  0  0  0  0
   -5.5050   21.2740  -31.6870 N   0  0  0  0  0  0  0  0  0  0  0  0
   -6.6600   21.2460  -32.6000 C   0  0  2  0  0  0  0  0  0  0  0  0
   -7.9320   20.6620  -31.9470 C   0  0  0  0  0  0  0  0  0  0  0  0
   -7.8990   19.1580  -31.9030 C   0  0  0  0  0  0  0  0  0  0  0  0
   -8.5640   18.5500  -31.0230 O   0  0  0  0  0  0  0  0  0  0  0  0
   -7.1420   18.4100  -32.9260 C   0  0  0  0  0  0  0  0  0  0  0  0
   -7.1860   17.0080  -33.0010 C   0  0  0  0  0  0  0  0  0  0  0  0
   -6.4910   16.3380  -34.0120 C   0  0  0  0  0  0  0  0  0  0  0  0
   -5.7540   17.0620  -34.9550 C   0  0  0  0  0  0  0  0  0  0  0  0
   -5.7020   18.4560  -34.8820 C   0  0  0  0  0  0  0  0  0  0  0  0
   -6.3820   19.1310  -33.8620 C   0  0  0  0  0  0  0  0  0  0  0  0
   -6.3110   20.5260  -33.7840 O   0  0  0  0  0  0  0  0  0  0  0  0
   -2.4304   25.2491  -27.2158 H   0  0  0  0  0  0  0  0  0  0  0  0
   -1.4102   24.0702  -28.1081 H   0  0  0  0  0  0  0  0  0  0  0  0
   -0.9771   25.8135  -28.1081 H   0  0  0  0  0  0  0  0  0  0  0  0
   -4.7584   25.7338  -30.7295 H   0  0  0  0  0  0  0  0  0  0  0  0
   -6.1715   24.0003  -31.8850 H   0  0  0  0  0  0  0  0  0  0  0  0
   -2.1356   22.5909  -29.2212 H   0  0  0  0  0  0  0  0  0  0  0  0
   -4.8881   19.1992  -31.5411 H   0  0  0  0  0  0  0  0  0  0  0  0
   -6.9071   22.2863  -32.8583 H   0  0  0  0  0  0  0  0  0  0  0  0
   -8.0130   21.0463  -30.9195 H   0  0  0  0  0  0  0  0  0  0  0  0
   -8.7977   20.9669  -32.5533 H   0  0  0  0  0  0  0  0  0  0  0  0
   -7.7682   16.4365  -32.2631 H   0  0  0  0  0  0  0  0  0  0  0  0
   -6.5237   15.2398  -34.0661 H   0  0  0  0  0  0  0  0  0  0  0  0
   -5.2149   16.5331  -35.7548 H   0  0  0  0  0  0  0  0  0  0  0  0
   -5.1258   19.0239  -35.6273 H   0  0  0  0  0  0  0  0  0  0  0  0
  1  2  1  0
  2  3  1  0
  3  4  2  0
  4  5  1  0
  5  6  2  0
  6  7  1  0
  7  8  2  0
  7  9  1  0
  9 10  2  0
 10 11  1  0
 11 12  1  0
 12 13  1  0
 13 14  1  0
 14 15  2  0
 14 16  1  0
 16 17  2  0
 17 18  1  0
 18 19  2  0
 19 20  1  0
 20 21  2  0
 21 22  1  0
  8  3  1  0
 22 12  1  0
 11  6  1  0
 21 16  1  0
  1 23  1  0
  1 24  1  0
  1 25  1  0
  4 26  1  0
  5 27  1  0
  8 28  1  0
 10 29  1  0
 12 30  1  6
 13 31  1  0
 13 32  1  0
 17 33  1  0
 18 34  1  0
 19 35  1  0
 20 36  1  0
M  END
>  <UniqueID>  (13) 
12

>  <SMILES>  (13) 
COc1ccc2c(c1)ncn2[C@@H]1CC(=O)c2ccccc2O1

>  <Energy>  (13) 
79.91388903513882

>  <Genealogy>  (13) 
COc1ccc2c(c1)ncn2[C@@H]1CC(=O)c2ccccc2O1 (chirality)
COc1ccc2c(c1)ncn2[C@@H]1CC(=O)c2ccccc2O1 (3D coordinates assigned)
COc1ccc2c(c1)ncn2[C@@H]1CC(=O)c2ccccc2O1 (nonaromatic ring conformer: 79.91388903513882 kcal/mol)

>  <smiles>  (13) 
COc1ccc2c(c1)ncn2C1CC(=O)c2ccccc2O1

>  <score_type>  (13) 
oracle

>  <origin>  (13) 
adgpu

>  <m_score__min__energy>  (13) 
-7.6399999999999997

>  <m_primary>  (13) 
energy

$$$$
13:0
     RDKit          3D

 28 30  0  0  0  0  0  0  0  0999 V2000
   -3.7520   18.4950  -34.5900 N   0  0  0  0  0  0  0  0  0  0  0  0
   -4.7630   17.8740  -34.1980 C   0  0  0  0  0  0  0  0  0  0  0  0
   -4.7980   16.5310  -34.4810 N   0  0  0  0  0  0  0  0  0  0  0  0
   -5.8140   15.7410  -34.1230 C   0  0  0  0  0  0  0  0  0  0  0  0
   -6.8450   16.2880  -33.4620 N   0  0  0  0  0  0  0  0  0  0  0  0
   -6.8940   17.5770  -33.1480 C   0  0  0  0  0  0  0  0  0  0  0  0
   -5.8440   18.4170  -33.5110 C   0  0  0  0  0  0  0  0  0  0  0  0
   -5.8640   19.8300  -33.1800 C   0  0  0  0  0  0  0  0  0  0  0  0
   -4.8980   20.6030  -33.5150 O   0  0  0  0  0  0  0  0  0  0  0  0
   -6.9180   20.4700  -32.4810 N   0  0  0  0  0  0  0  0  0  0  0  0
   -6.6510   21.7120  -31.7930 C   0  0  0  0  0  0  0  0  0  0  0  0
   -7.6710   22.6370  -31.8000 C   0  0  0  0  0  0  0  0  0  0  0  0
   -7.4900   23.8470  -31.1640 C   0  0  0  0  0  0  0  0  0  0  0  0
   -6.2710   24.0860  -30.5360 C   0  0  0  0  0  0  0  0  0  0  0  0
   -6.1050   25.6520  -29.7420 Cl  0  0  0  0  0  0  0  0  0  0  0  0
   -5.2740   23.1530  -30.5430 C   0  0  0  0  0  0  0  0  0  0  0  0
   -3.7710   23.5340  -29.7280 Cl  0  0  0  0  0  0  0  0  0  0  0  0
   -5.4350   21.9240  -31.1790 C   0  0  0  0  0  0  0  0  0  0  0  0
   -8.2660   19.9760  -32.3920 C   0  0  0  0  0  0  0  0  0  0  0  0
   -8.3290   18.1710  -32.2690 S   0  0  0  0  0  0  0  0  0  0  0  0
   -3.3930   19.4310  -34.5690 H   0  0  0  0  0  0  0  0  0  0  0  0
   -3.9920   16.0810  -35.0030 H   0  0  0  0  0  0  0  0  0  0  0  0
   -5.8053   14.6679  -34.3645 H   0  0  0  0  0  0  0  0  0  0  0  0
   -8.6207   22.4129  -32.3078 H   0  0  0  0  0  0  0  0  0  0  0  0
   -8.2882   24.6038  -31.1532 H   0  0  0  0  0  0  0  0  0  0  0  0
   -4.6377   21.1663  -31.1906 H   0  0  0  0  0  0  0  0  0  0  0  0
   -8.7431   20.4083  -31.5001 H   0  0  0  0  0  0  0  0  0  0  0  0
   -8.7935   20.2694  -33.3116 H   0  0  0  0  0  0  0  0  0  0  0  0
  1  2  2  3
  2  3  1  0
  3  4  1  0
  4  5  2  0
  5  6  1  0
  6  7  2  0
  7  8  1  0
  8  9  2  0
  8 10  1  0
 10 11  1  0
 11 12  2  0
 12 13  1  0
 13 14  2  0
 14 15  1  0
 14 16  1  0
 16 17  1  0
 16 18  2  0
 10 19  1  0
 19 20  1  0
  7  2  1  0
 18 11  1  0
 20  6  1  0
  1 21  1  0
  3 22  1  0
  4 23  1  0
 12 24  1  0
 13 25  1  0
 18 26  1  0
 19 27  1  0
 19 28  1  0
M  END
>  <smiles>  (14) 
N=c1[nH]cnc2c1C(=O)N(c1ccc(Cl)c(Cl)c1)CS2

>  <score_type>  (14) 
oracle

>  <origin>  (14) 
adgpu

>  <m_score__min__energy>  (14) 
-7.6399999999999997

>  <m_primary>  (14) 
energy

$$$$
14:0
     RDKit          3D

 58 62  0  0  0  0  0  0  0  0999 V2000
   -1.9860   25.2630  -27.6860 C   0  0  0  0  0  0  0  0  0  0  0  0
   -2.3800   25.3050  -29.0550 O   0  0  0  0  0  0  0  0  0  0  0  0
   -3.1840   24.3380  -29.6790 C   0  0  0  0  0  0  0  0  0  0  0  0
   -4.5560   24.5670  -29.9490 C   0  0  0  0  0  0  0  0  0  0  0  0
   -5.2990   23.5610  -30.5650 C   0  0  0  0  0  0  0  0  0  0  0  0
   -4.7120   22.3600  -30.9130 C   0  0  0  0  0  0  0  0  0  0  0  0
   -3.3670   22.1020  -30.6640 C   0  0  0  0  0  0  0  0  0  0  0  0
   -2.6000   23.1010  -30.0410 C   0  0  0  0  0  0  0  0  0  0  0  0
   -0.7500   22.7610  -29.6850 Br  0  0  0  0  0  0  0  0  0  0  0  0
   -5.7260   21.5180  -31.5130 C   0  0  0  0  0  0  0  0  0  0  0  0
   -5.6330   20.2220  -32.0130 C   0  0  0  0  0  0  0  0  0  0  0  0
   -6.7930   19.6230  -32.5360 C   0  0  0  0  0  0  0  0  0  0  0  0
   -6.7270   18.3000  -33.0640 N   0  0  0  0  0  0  0  0  0  0  0  0
   -5.7390   17.9660  -34.4430 S   0  0  0  0  0  0  0  0  0  0  0  0
   -6.1180   18.9040  -35.5560 O   0  0  0  0  0  0  0  0  0  0  0  0
   -5.9950   16.5620  -34.9140 O   0  0  0  0  0  0  0  0  0  0  0  0
   -4.0340   18.1730  -34.0120 C   0  0  0  0  0  0  0  0  0  0  0  0
   -3.5360   19.4740  -33.8400 C   0  0  0  0  0  0  0  0  0  0  0  0
   -2.2090   19.6830  -33.4670 C   0  0  0  0  0  0  0  0  0  0  0  0
   -1.3650   18.5980  -33.2470 C   0  0  0  0  0  0  0  0  0  0  0  0
   -1.8390   17.2860  -33.3970 C   0  0  0  0  0  0  0  0  0  0  0  0
   -0.9520   16.1940  -33.1240 N   0  0  0  0  0  0  0  0  0  0  0  0
   -3.1820   17.0650  -33.7920 C   0  0  0  0  0  0  0  0  0  0  0  0
   -3.6780   15.7260  -33.9510 N   0  0  0  0  0  0  0  0  0  0  0  0
   -4.1050   14.9700  -32.7680 C   0  0  0  0  0  0  0  0  0  0  0  0
   -5.2940   14.0390  -33.0970 C   0  0  0  0  0  0  0  0  0  0  0  0
   -5.3570   13.6020  -34.5080 N   0  0  0  0  0  0  0  0  0  0  0  0
   -4.0440   13.6080  -35.1700 C   0  0  0  0  0  0  0  0  0  0  0  0
   -3.4820   15.0340  -35.2330 C   0  0  0  0  0  0  0  0  0  0  0  0
   -8.0170   20.3310  -32.5480 C   0  0  0  0  0  0  0  0  0  0  0  0
   -9.1580   19.7270  -33.0730 O   0  0  0  0  0  0  0  0  0  0  0  0
   -8.0790   21.6440  -32.0370 C   0  0  0  0  0  0  0  0  0  0  0  0
   -6.9170   22.2180  -31.5220 C   0  0  0  0  0  0  0  0  0  0  0  0
   -6.7570   23.5870  -30.9240 C   0  0  0  0  0  0  0  0  0  0  0  0
   -2.8752   25.3578  -27.0455 H   0  0  0  0  0  0  0  0  0  0  0  0
   -1.4845   24.3063  -27.4780 H   0  0  0  0  0  0  0  0  0  0  0  0
   -1.2941   26.0925  -27.4780 H   0  0  0  0  0  0  0  0  0  0  0  0
   -5.0272   25.5230  -29.6770 H   0  0  0  0  0  0  0  0  0  0  0  0
   -2.9157   21.1398  -30.9479 H   0  0  0  0  0  0  0  0  0  0  0  0
   -4.6759   19.6799  -31.9993 H   0  0  0  0  0  0  0  0  0  0  0  0
   -4.1990   20.3368  -34.0010 H   0  0  0  0  0  0  0  0  0  0  0  0
   -1.8280   20.7078  -33.3462 H   0  0  0  0  0  0  0  0  0  0  0  0
   -0.3190   18.7705  -32.9535 H   0  0  0  0  0  0  0  0  0  0  0  0
   -1.2520   15.1980  -33.2220 H   0  0  0  0  0  0  0  0  0  0  0  0
    0.0030   16.3690  -32.7360 H   0  0  0  0  0  0  0  0  0  0  0  0
   -3.2623   14.3617  -32.4078 H   0  0  0  0  0  0  0  0  0  0  0  0
   -4.4263   15.6847  -31.9960 H   0  0  0  0  0  0  0  0  0  0  0  0
   -5.2152   13.1436  -32.4630 H   0  0  0  0  0  0  0  0  0  0  0  0
   -6.2086   14.6201  -32.9078 H   0  0  0  0  0  0  0  0  0  0  0  0
   -5.9990   14.2410  -35.0360 H   0  0  0  0  0  0  0  0  0  0  0  0
   -3.3498   12.9698  -34.6036 H   0  0  0  0  0  0  0  0  0  0  0  0
   -4.1599   13.2251  -36.1947 H   0  0  0  0  0  0  0  0  0  0  0  0
   -2.4063   14.9887  -35.4583 H   0  0  0  0  0  0  0  0  0  0  0  0
   -4.0133   15.5894  -36.0199 H   0  0  0  0  0  0  0  0  0  0  0  0
   -9.1010   18.8880  -33.6400 H   0  0  0  0  0  0  0  0  0  0  0  0
   -9.0255   22.2045  -32.0445 H   0  0  0  0  0  0  0  0  0  0  0  0
   -6.9811   24.3780  -31.6548 H   0  0  0  0  0  0  0  0  0  0  0  0
   -7.4322   23.8010  -30.0824 H   0  0  0  0  0  0  0  0  0  0  0  0
  1  2  1  0
  2  3  1  0
  3  4  2  0
  4  5  1  0
  5  6  2  0
  6  7  1  0
  7  8  2  0
  8  9  1  0
  6 10  1  0
 10 11  2  0
 11 12  1  0
 12 13  1  0
 13 14  1  0
 14 15  2  0
 14 16  2  0
 14 17  1  0
 17 18  2  0
 18 19  1  0
 19 20  2  0
 20 21  1  0
 21 22  1  0
 21 23  2  0
 23 24  1  0
 24 25  1  0
 25 26  1  0
 26 27  1  0
 27 28  1  0
 28 29  1  0
 12 30  2  0
 30 31  1  0
 30 32  1  0
 32 33  2  0
 33 34  1  0
  8  3  1  0
 33 10  1  0
 34  5  1  0
 23 17  1  0
 29 24  1  0
  1 35  1  0
  1 36  1  0
  1 37  1  0
  4 38  1  0
  7 39  1  0
 11 40  1  0
 18 41  1  0
 19 42  1  0
 20 43  1  0
 22 44  1  0
 22 45  1  0
 25 46  1  0
 25 47  1  0
 26 48  1  0
 26 49  1  0
 27 50  1  0
 28 51  1  0
 28 52  1  0
 29 53  1  0
 29 54  1  0
 31 55  1  0
 32 56  1  0
 34 57  1  0
 34 58  1  0
M  CHG  1  13  -1
M  END
>  <UniqueID>  (15) 
13

>  <SMILES>  (15) 
COc1cc2c(cc1Br)-c1cc([N-]S(=O)(=O)c3cccc(N)c3N3CCNCC3)c(O)cc1C2

>  <Energy>  (15) 
102.88272163636633

>  <Genealogy>  (15) 
COc1cc2c(cc1Br)-c1cc([N-]S(=O)(=O)c3cccc(N)c3N3CCNCC3)c(O)cc1C2 (protonated)
COc1cc2c(cc1Br)-c1cc([N-]S(=O)(=O)c3cccc(N)c3N3CCNCC3)c(O)cc1C2 (3D coordinates assigned)
COc1cc2c(cc1Br)-c1cc([N-]S(=O)(=O)c3cccc(N)c3N3CCNCC3)c(O)cc1C2 (nonaromatic ring conformer: 102.88272163636633 kcal/mol)

>  <smiles>  (15) 
COc1cc2c(cc1Br)-c1cc(NS(=O)(=O)c3cccc(N)c3N3CCNCC3)c(O)cc1C2

>  <score_type>  (15) 
oracle

>  <origin>  (15) 
adgpu

>  <m_score__min__energy>  (15) 
-11.67

>  <m_primary>  (15) 
energy

$$$$
15:0
     RDKit          3D

 36 37  0  0  0  0  0  0  0  0999 V2000
   -2.6960   24.5480  -29.4330 C   0  0  0  0  0  0  0  0  0  0  0  0
   -3.5210   25.1450  -30.4760 N   0  0  0  0  0  0  0  0  0  0  0  0
   -5.2000   24.8540  -30.1380 S   0  0  0  0  0  0  0  0  0  0  0  0
   -6.0140   26.0550  -30.5310 O   0  0  0  0  0  0  0  0  0  0  0  0
   -5.3720   24.6250  -28.6620 O   0  0  0  0  0  0  0  0  0  0  0  0
   -5.7600   23.4280  -31.0100 C   0  0  0  0  0  0  0  0  0  0  0  0
   -4.8890   22.3530  -31.2220 C   0  0  0  0  0  0  0  0  0  0  0  0
   -5.3190   21.2290  -31.9340 C   0  0  0  0  0  0  0  0  0  0  0  0
   -6.6220   21.1690  -32.4520 C   0  0  0  0  0  0  0  0  0  0  0  0
   -7.0260   20.0050  -33.1980 N   0  0  0  0  0  0  0  0  0  0  0  0
   -6.7470   18.3770  -32.6680 S   0  0  0  0  0  0  0  0  0  0  0  0
   -8.0560   17.6380  -32.6500 O   0  0  0  0  0  0  0  0  0  0  0  0
   -6.1810   18.3980  -31.2760 O   0  0  0  0  0  0  0  0  0  0  0  0
   -5.5890   17.5880  -33.7370 C   0  0  0  0  0  0  0  0  0  0  0  0
   -4.3530   18.0440  -34.1520 C   0  0  0  0  0  0  0  0  0  0  0  0
   -3.6970   19.3330  -33.7790 C   0  0  0  0  0  0  0  0  0  0  0  0
   -3.7800   17.1140  -34.9400 N   0  0  0  0  0  0  0  0  0  0  0  0
   -4.6150   16.1190  -35.0290 O   0  0  0  0  0  0  0  0  0  0  0  0
   -5.7070   16.3520  -34.3380 C   0  0  0  0  0  0  0  0  0  0  0  0
   -6.8450   15.3920  -34.2160 C   0  0  0  0  0  0  0  0  0  0  0  0
   -7.4950   22.2490  -32.2310 C   0  0  0  0  0  0  0  0  0  0  0  0
   -7.0640   23.3720  -31.5190 C   0  0  0  0  0  0  0  0  0  0  0  0
   -3.0896   24.8329  -28.4461 H   0  0  0  0  0  0  0  0  0  0  0  0
   -2.7144   23.4527  -29.5329 H   0  0  0  0  0  0  0  0  0  0  0  0
   -1.6614   24.9079  -29.5329 H   0  0  0  0  0  0  0  0  0  0  0  0
   -3.8630   22.3925  -30.8273 H   0  0  0  0  0  0  0  0  0  0  0  0
   -4.6306   20.3852  -32.0893 H   0  0  0  0  0  0  0  0  0  0  0  0
   -7.6070   20.1310  -34.0560 H   0  0  0  0  0  0  0  0  0  0  0  0
   -3.6534   19.4186  -32.6832 H   0  0  0  0  0  0  0  0  0  0  0  0
   -2.6768   19.3575  -34.1895 H   0  0  0  0  0  0  0  0  0  0  0  0
   -4.2777   20.1722  -34.1895 H   0  0  0  0  0  0  0  0  0  0  0  0
   -7.0596   15.2110  -33.1524 H   0  0  0  0  0  0  0  0  0  0  0  0
   -7.7358   15.8156  -34.7029 H   0  0  0  0  0  0  0  0  0  0  0  0
   -6.5776   14.4426  -34.7029 H   0  0  0  0  0  0  0  0  0  0  0  0
   -8.5229   22.2099  -32.6206 H   0  0  0  0  0  0  0  0  0  0  0  0
   -7.7516   24.2153  -31.3577 H   0  0  0  0  0  0  0  0  0  0  0  0
  1  2  1  0
  2  3  1  0
  3  4  2  0
  3  5  2  0
  3  6  1  0
  6  7  2  0
  7  8  1  0
  8  9  2  0
  9 10  1  0
 10 11  1  0
 11 12  2  0
 11 13  2  0
 11 14  1  0
 14 15  1  0
 15 16  1  0
 15 17  2  0
 17 18  1  0
 18 19  1  0
 19 20  1  0
  9 21  1  0
 21 22  2  0
 22  6  1  0
 19 14  2  0
  1 23  1  0
  1 24  1  0
  1 25  1  0
  7 26  1  0
  8 27  1  0
 10 28  1  0
 16 29  1  0
 16 30  1  0
 16 31  1  0
 20 32  1  0
 20 33  1  0
 20 34  1  0
 21 35  1  0
 22 36  1  0
M  CHG  1   2  -1
M  END
>  <UniqueID>  (16) 
14

>  <SMILES>  (16) 
C[N-]S(=O)(=O)c1ccc(NS(=O)(=O)c2c(C)noc2C)cc1

>  <Energy>  (16) 
64.69588794098343

>  <Genealogy>  (16) 
C[N-]S(=O)(=O)c1ccc(NS(=O)(=O)c2c(C)noc2C)cc1 (protonated)
C[N-]S(=O)(=O)c1ccc(NS(=O)(=O)c2c(C)noc2C)cc1 (3D coordinates assigned)
C[N-]S(=O)(=O)c1ccc(NS(=O)(=O)c2c(C)noc2C)cc1 (optimized conformer: 64.69588794098343 kcal/mol)

>  <smiles>  (16) 
CNS(=O)(=O)c1ccc(NS(=O)(=O)c2c(C)noc2C)cc1

>  <score_type>  (16) 
oracle

>  <origin>  (16) 
adgpu

>  <m_score__min__energy>  (16) 
-9.3800000000000008

>  <m_primary>  (16) 
energy

$$$$
16:0
     RDKit          3D

 34 36  0  0  1  0  0  0  0  0999 V2000
   -0.2690   25.0900  -26.7340 C   0  0  0  0  0  0  0  0  0  0  0  0
   -1.3090   24.9300  -27.8110 C   0  0  0  0  0  0  0  0  0  0  0  0
   -2.6170   24.6030  -27.5350 C   0  0  0  0  0  0  0  0  0  0  0  0
   -3.2480   24.5470  -28.7600 C   0  0  0  0  0  0  0  0  0  0  0  0
   -4.4990   24.2710  -29.0070 N   0  0  0  0  0  0  0  0  0  0  0  0
   -4.9160   24.2740  -30.3530 C   0  0  0  0  0  0  0  0  0  0  0  0
   -4.5930   25.2980  -31.0450 O   0  0  0  0  0  0  0  0  0  0  0  0
   -5.6660   23.2420  -31.0110 C   0  0  0  0  0  0  0  0  0  0  0  0
   -6.9290   23.0940  -31.4550 C   0  0  0  0  0  0  0  0  0  0  0  0
   -7.2840   21.9420  -32.0480 C   0  0  0  0  0  0  0  0  0  0  0  0
   -6.3820   20.9640  -32.1890 C   0  0  0  0  0  0  0  0  0  0  0  0
   -6.4360   19.6320  -32.7740 C   0  0  0  0  0  0  0  0  0  0  0  0
   -7.2000   18.6750  -32.1550 C   0  0  0  0  0  0  0  0  0  0  0  0
   -7.2600   17.3950  -32.7250 C   0  0  0  0  0  0  0  0  0  0  0  0
   -6.5430   17.1680  -33.8830 C   0  0  0  0  0  0  0  0  0  0  0  0
   -5.7780   18.1320  -34.5010 C   0  0  0  0  0  0  0  0  0  0  0  0
   -5.0970   17.7980  -35.6650 O   0  0  0  0  0  0  0  0  0  0  0  0
   -5.7320   19.3830  -33.9260 C   0  0  0  0  0  0  0  0  0  0  0  0
   -4.8100   21.6180  -31.4350 S   0  0  0  0  0  0  0  0  0  0  0  0
   -2.3300   24.8330  -29.7040 N   0  0  0  0  0  0  0  0  0  0  0  0
   -1.1630   25.0650  -29.1380 N   0  0  0  0  0  0  0  0  0  0  0  0
   -0.7489   25.0162  -25.7470 H   0  0  0  0  0  0  0  0  0  0  0  0
    0.4874   24.2977  -26.8341 H   0  0  0  0  0  0  0  0  0  0  0  0
    0.2143   26.0731  -26.8341 H   0  0  0  0  0  0  0  0  0  0  0  0
   -3.0646   24.4241  -26.5462 H   0  0  0  0  0  0  0  0  0  0  0  0
   -7.6607   23.9063  -31.3336 H   0  0  0  0  0  0  0  0  0  0  0  0
   -8.3114   21.8035  -32.4159 H   0  0  0  0  0  0  0  0  0  0  0  0
   -7.7529   18.9065  -31.2326 H   0  0  0  0  0  0  0  0  0  0  0  0
   -7.8598   16.5965  -32.2638 H   0  0  0  0  0  0  0  0  0  0  0  0
   -6.5850   16.1660  -34.3349 H   0  0  0  0  0  0  0  0  0  0  0  0
   -4.4680   16.9870  -35.6300 H   0  0  0  0  0  0  0  0  0  0  0  0
   -5.1325   20.1807  -34.3889 H   0  0  0  0  0  0  0  0  0  0  0  0
   -2.4880   24.8770  -30.7500 H   0  0  0  0  0  0  0  0  0  0  0  0
   -0.2410   25.3150  -29.5880 H   0  0  0  0  0  0  0  0  0  0  0  0
  1  2  1  0
  2  3  2  0
  3  4  1  0
  4  5  2  0
  5  6  1  0
  6  7  2  0
  6  8  1  0
  8  9  2  0
  9 10  1  0
 10 11  2  0
 11 12  1  0
 12 13  2  0
 13 14  1  0
 14 15  2  0
 15 16  1  0
 16 17  1  0
 16 18  2  0
 11 19  1  0
  4 20  1  0
 20 21  1  0
 21  2  1  0
 19  8  1  0
 18 12  1  0
  1 22  1  0
  1 23  1  0
  1 24  1  0
  3 25  1  0
  9 26  1  0
 10 27  1  0
 13 28  1  0
 14 29  1  0
 15 30  1  0
 17 31  1  0
 18 32  1  0
 20 33  1  0
 21 34  1  0
M  END
>  <smiles>  (17) 
Cc1cc(=NC(=O)c2ccc(-c3cccc(O)c3)s2)[nH][nH]1

>  <score_type>  (17) 
oracle

>  <origin>  (17) 
adgpu

>  <m_score__min__energy>  (17) 
-8.6500000000000004

>  <m_primary>  (17) 
energy

$$$$
17:0
     RDKit          3D

 52 54  0  0  1  0  0  0  0  0999 V2000
    1.2870   28.5160  -23.0350 C   0  0  0  0  0  0  0  0  0  0  0  0
    1.9380   27.2450  -23.1520 N   0  0  0  0  0  0  0  0  0  0  0  0
    2.2510   26.9100  -24.8130 S   0  0  0  0  0  0  0  0  0  0  0  0
    3.4260   25.9680  -24.9450 O   0  0  0  0  0  0  0  0  0  0  0  0
    2.6770   28.2030  -25.4620 O   0  0  0  0  0  0  0  0  0  0  0  0
    0.8540   26.3220  -25.6460 C   0  0  0  0  0  0  0  0  0  0  0  0
   -0.4410   26.7170  -25.3610 C   0  0  0  0  0  0  0  0  0  0  0  0
   -1.5350   26.2110  -26.0640 C   0  0  0  0  0  0  0  0  0  0  0  0
   -1.3530   25.3020  -27.0670 C   0  0  0  0  0  0  0  0  0  0  0  0
   -2.4390   24.7230  -27.8520 C   0  0  0  0  0  0  0  0  0  0  0  0
   -3.2770   23.9100  -27.3390 O   0  0  0  0  0  0  0  0  0  0  0  0
   -2.6320   25.0270  -29.2280 N   0  0  0  0  0  0  0  0  0  0  0  0
   -3.7110   24.4360  -29.9610 C   0  0  0  0  0  0  0  0  0  0  0  0
   -3.8590   23.0610  -30.0380 C   0  0  0  0  0  0  0  0  0  0  0  0
   -4.9330   22.5670  -30.7690 C   0  0  0  0  0  0  0  0  0  0  0  0
   -5.1090   21.3120  -30.8680 N   0  0  0  0  0  0  0  0  0  0  0  0
   -6.1710   20.6920  -31.5890 C   0  0  0  0  0  0  0  0  0  0  0  0
   -7.5020   20.9690  -31.3400 C   0  0  0  0  0  0  0  0  0  0  0  0
   -8.4650   20.3120  -32.0960 C   0  0  0  0  0  0  0  0  0  0  0  0
   -8.1030   19.3920  -33.0840 C   0  0  0  0  0  0  0  0  0  0  0  0
   -6.7520   19.1230  -33.3230 C   0  0  0  0  0  0  0  0  0  0  0  0
   -6.4740   18.1790  -34.3440 N   0  0  0  0  0  0  0  0  0  0  0  0
   -5.8290   16.6090  -34.0480 S   0  0  0  0  0  0  0  0  0  0  0  0
   -4.2790   16.3200  -34.8170 C   0  0  0  0  0  0  0  0  0  0  0  0
   -6.8750   15.6310  -34.5690 O   0  0  0  0  0  0  0  0  0  0  0  0
   -5.7630   16.3870  -32.5520 O   0  0  0  0  0  0  0  0  0  0  0  0
   -5.8070   19.7710  -32.5780 C   0  0  0  0  0  0  0  0  0  0  0  0
   -5.7890   23.3890  -31.3720 N   0  0  0  0  0  0  0  0  0  0  0  0
   -5.6410   24.7300  -31.2940 C   0  0  0  0  0  0  0  0  0  0  0  0
   -4.6060   25.2300  -30.5900 N   0  0  0  0  0  0  0  0  0  0  0  0
   -0.0680   24.9060  -27.3540 C   0  0  0  0  0  0  0  0  0  0  0  0
    1.0150   25.3910  -26.6760 C   0  0  0  0  0  0  0  0  0  0  0  0
    1.1590   28.7659  -21.9714 H   0  0  0  0  0  0  0  0  0  0  0  0
    1.9005   29.2884  -23.5219 H   0  0  0  0  0  0  0  0  0  0  0  0
    0.3017   28.4695  -23.5219 H   0  0  0  0  0  0  0  0  0  0  0  0
    1.5270   26.4690  -22.6260 H   0  0  0  0  0  0  0  0  0  0  0  0
   -0.6128   27.4496  -24.5587 H   0  0  0  0  0  0  0  0  0  0  0  0
   -2.5510   26.5465  -25.8086 H   0  0  0  0  0  0  0  0  0  0  0  0
   -1.9920   25.6820  -29.7190 H   0  0  0  0  0  0  0  0  0  0  0  0
   -3.1512   22.3835  -29.5380 H   0  0  0  0  0  0  0  0  0  0  0  0
   -7.7917   21.6915  -30.5628 H   0  0  0  0  0  0  0  0  0  0  0  0
   -9.5298   20.5193  -31.9140 H   0  0  0  0  0  0  0  0  0  0  0  0
   -8.8793   18.8807  -33.6722 H   0  0  0  0  0  0  0  0  0  0  0  0
   -6.6820   18.4800  -35.3230 H   0  0  0  0  0  0  0  0  0  0  0  0
   -3.5081   16.1763  -34.0456 H   0  0  0  0  0  0  0  0  0  0  0  0
   -4.3431   15.4183  -35.4438 H   0  0  0  0  0  0  0  0  0  0  0  0
   -4.0139   17.1842  -35.4438 H   0  0  0  0  0  0  0  0  0  0  0  0
   -4.7417   19.5651  -32.7589 H   0  0  0  0  0  0  0  0  0  0  0  0
   -6.5940   23.0190  -31.9210 H   0  0  0  0  0  0  0  0  0  0  0  0
   -6.3527   25.4017  -31.7962 H   0  0  0  0  0  0  0  0  0  0  0  0
    0.0941   24.1728  -28.1578 H   0  0  0  0  0  0  0  0  0  0  0  0
    2.0242   25.0449  -26.9438 H   0  0  0  0  0  0  0  0  0  0  0  0
  1  2  1  0
  2  3  1  0
  3  4  2  0
  3  5  2  0
  3  6  1  0
  6  7  2  0
  7  8  1  0
  8  9  2  0
  9 10  1  0
 10 11  2  0
 10 12  1  0
 12 13  1  0
 13 14  2  0
 14 15  1  0
 15 16  2  0
 16 17  1  0
 17 18  2  0
 18 19  1  0
 19 20  2  0
 20 21  1  0
 21 22  1  0
 22 23  1  0
 23 24  1  0
 23 25  2  0
 23 26  2  0
 21 27  2  0
 15 28  1  0
 28 29  1  0
 29 30  2  0
  9 31  1  0
 31 32  2  0
 32  6  1  0
 30 13  1  0
 27 17  1  0
  1 33  1  0
  1 34  1  0
  1 35  1  0
  2 36  1  0
  7 37  1  0
  8 38  1  0
 12 39  1  0
 14 40  1  0
 18 41  1  0
 19 42  1  0
 20 43  1  0
 22 44  1  0
 24 45  1  0
 24 46  1  0
 24 47  1  0
 27 48  1  0
 28 49  1  0
 29 50  1  0
 31 51  1  0
 32 52  1  0
M  END
>  <smiles>  (18) 
CNS(=O)(=O)c1ccc(C(=O)Nc2cc(=Nc3cccc(NS(C)(=O)=O)c3)[nH]cn2)cc1

>  <score_type>  (18) 
oracle

>  <origin>  (18) 
adgpu

>  <m_score__min__energy>  (18) 
-10.01

>  <m_primary>  (18) 
energy

$$$$
18:0
     RDKit          3D

 65 68  0  0  0  0  0  0  0  0999 V2000
   -1.9940   20.2860  -28.1460 C   0  0  0  0  0  0  0  0  0  0  0  0
   -1.2660   20.4110  -29.4570 C   0  0  0  0  0  0  0  0  0  0  0  0
    0.0320   19.8860  -29.5680 C   0  0  0  0  0  0  0  0  0  0  0  0
    0.7300   19.9630  -30.7750 C   0  0  0  0  0  0  0  0  0  0  0  0
    0.1400   20.5480  -31.8960 C   0  0  0  0  0  0  0  0  0  0  0  0
    0.8900   20.6100  -33.1170 N   0  0  0  0  0  0  0  0  0  0  0  0
    0.4240   21.1290  -34.3690 C   0  0  0  0  0  0  0  0  0  0  0  0
    0.7390   22.2910  -34.7410 O   0  0  0  0  0  0  0  0  0  0  0  0
   -0.4560   20.2890  -35.2430 C   0  0  0  0  0  0  0  0  0  0  0  0
   -0.6320   18.9500  -34.6780 N   0  0  0  0  0  0  0  0  0  0  0  0
   -1.8920   18.4160  -34.2260 C   0  0  0  0  0  0  0  0  0  0  0  0
   -2.0630   17.0450  -33.9490 C   0  0  0  0  0  0  0  0  0  0  0  0
   -3.3010   16.5610  -33.5200 C   0  0  0  0  0  0  0  0  0  0  0  0
   -4.3790   17.4330  -33.3620 C   0  0  0  0  0  0  0  0  0  0  0  0
   -4.2280   18.7970  -33.6350 C   0  0  0  0  0  0  0  0  0  0  0  0
   -5.5990   19.8860  -33.4260 S   0  0  0  0  0  0  0  0  0  0  0  0
   -5.1270   21.3140  -33.4400 O   0  0  0  0  0  0  0  0  0  0  0  0
   -6.5450   19.6840  -34.5760 O   0  0  0  0  0  0  0  0  0  0  0  0
   -6.4110   19.5300  -31.9170 N   0  0  0  0  0  0  0  0  0  0  0  0
   -7.1620   18.2720  -32.0060 C   0  0  0  0  0  0  0  0  0  0  0  0
   -8.5860   18.6160  -32.4200 C   0  0  0  0  0  0  0  0  0  0  0  0
   -8.7500   20.0980  -32.1270 C   0  0  0  0  0  0  0  0  0  0  0  0
   -7.4020   20.5640  -31.5900 C   0  0  0  0  0  0  0  0  0  0  0  0
   -2.9840   19.2850  -34.0600 C   0  0  0  0  0  0  0  0  0  0  0  0
   -1.1430   21.1070  -31.7890 C   0  0  0  0  0  0  0  0  0  0  0  0
   -1.8530   21.0490  -30.5780 C   0  0  0  0  0  0  0  0  0  0  0  0
   -3.4780   21.7570  -30.5050 S   0  0  0  0  0  0  0  0  0  0  0  0
   -3.6370   22.7210  -31.6500 O   0  0  0  0  0  0  0  0  0  0  0  0
   -4.5120   20.6770  -30.6640 O   0  0  0  0  0  0  0  0  0  0  0  0
   -3.7180   22.6050  -28.9890 N   0  0  0  0  0  0  0  0  0  0  0  0
   -4.9500   23.4150  -29.0030 C   0  0  0  0  0  0  0  0  0  0  0  0
   -4.8090   24.6740  -29.8920 C   0  0  0  0  0  0  0  0  0  0  0  0
   -3.4640   25.0510  -30.1390 O   0  0  0  0  0  0  0  0  0  0  0  0
   -2.6870   24.8990  -28.9720 C   0  0  0  0  0  0  0  0  0  0  0  0
   -2.5310   23.4070  -28.6180 C   0  0  0  0  0  0  0  0  0  0  0  0
   -1.2809   20.4084  -27.3175 H   0  0  0  0  0  0  0  0  0  0  0  0
   -2.7686   21.0643  -28.0811 H   0  0  0  0  0  0  0  0  0  0  0  0
   -2.4647   19.2939  -28.0811 H   0  0  0  0  0  0  0  0  0  0  0  0
    0.5033   19.4096  -28.6957 H   0  0  0  0  0  0  0  0  0  0  0  0
    1.7513   19.5600  -30.8425 H   0  0  0  0  0  0  0  0  0  0  0  0
   -1.4396   20.7730  -35.3344 H   0  0  0  0  0  0  0  0  0  0  0  0
    0.0195   20.1931  -36.2303 H   0  0  0  0  0  0  0  0  0  0  0  0
    0.2240   18.3590  -34.5760 H   0  0  0  0  0  0  0  0  0  0  0  0
   -1.2172   16.3524  -34.0712 H   0  0  0  0  0  0  0  0  0  0  0  0
   -3.4266   15.4893  -33.3061 H   0  0  0  0  0  0  0  0  0  0  0  0
   -5.3510   17.0466  -33.0216 H   0  0  0  0  0  0  0  0  0  0  0  0
   -5.6870   19.4690  -31.1620 H   0  0  0  0  0  0  0  0  0  0  0  0
   -6.7019   17.6125  -32.7565 H   0  0  0  0  0  0  0  0  0  0  0  0
   -7.1561   17.7486  -31.0385 H   0  0  0  0  0  0  0  0  0  0  0  0
   -8.7326   18.4180  -33.4921 H   0  0  0  0  0  0  0  0  0  0  0  0
   -9.3256   18.0094  -31.8768 H   0  0  0  0  0  0  0  0  0  0  0  0
   -9.0063   20.6447  -33.0465 H   0  0  0  0  0  0  0  0  0  0  0  0
   -9.5599   20.2820  -31.4057 H   0  0  0  0  0  0  0  0  0  0  0  0
   -7.1195   21.5166  -32.0619 H   0  0  0  0  0  0  0  0  0  0  0  0
   -7.4528   20.7196  -30.5022 H   0  0  0  0  0  0  0  0  0  0  0  0
   -2.8616   20.3587  -34.2655 H   0  0  0  0  0  0  0  0  0  0  0  0
   -1.5977   21.5960  -32.6631 H   0  0  0  0  0  0  0  0  0  0  0  0
   -5.7753   22.7987  -29.3892 H   0  0  0  0  0  0  0  0  0  0  0  0
   -5.1483   23.7478  -27.9735 H   0  0  0  0  0  0  0  0  0  0  0  0
   -5.2962   24.4734  -30.8576 H   0  0  0  0  0  0  0  0  0  0  0  0
   -5.2808   25.5056  -29.3480 H   0  0  0  0  0  0  0  0  0  0  0  0
   -1.6921   25.3372  -29.1399 H   0  0  0  0  0  0  0  0  0  0  0  0
   -3.1914   25.4114  -28.1395 H   0  0  0  0  0  0  0  0  0  0  0  0
   -1.6559   23.0082  -29.1520 H   0  0  0  0  0  0  0  0  0  0  0  0
   -2.4092   23.3353  -27.5271 H   0  0  0  0  0  0  0  0  0  0  0  0
  1  2  1  0
  2  3  2  0
  3  4  1  0
  4  5  2  0
  5  6  1  0
  6  7  1  0
  7  8  2  0
  7  9  1  0
  9 10  1  0
 10 11  1  0
 11 12  2  0
 12 13  1  0
 13 14  2  0
 14 15  1  0
 15 16  1  0
 16 17  2  0
 16 18  2  0
 16 19  1  0
 19 20  1  0
 20 21  1  0
 21 22  1  0
 22 23  1  0
 15 24  2  0
  5 25  1  0
 25 26  2  0
 26 27  1  0
 27 28  2  0
 27 29  2  0
 27 30  1  0
 30 31  1  0
 31 32  1  0
 32 33  1  0
 33 34  1  0
 34 35  1  0
 26  2  1  0
 35 30  1  0
 24 11  1  0
 23 19  1  0
  1 36  1  0
  1 37  1  0
  1 38  1  0
  3 39  1  0
  4 40  1  0
  9 41  1  0
  9 42  1  0
 10 43  1  0
 12 44  1  0
 13 45  1  0
 14 46  1  0
 19 47  1  0
 20 48  1  0
 20 49  1  0
 21 50  1  0
 21 51  1  0
 22 52  1  0
 22 53  1  0
 23 54  1  0
 23 55  1  0
 24 56  1  0
 25 57  1  0
 31 58  1  0
 31 59  1  0
 32 60  1  0
 32 61  1  0
 34 62  1  0
 34 63  1  0
 35 64  1  0
 35 65  1  0
M  CHG  2   6  -1  19   1
M  END
>  <UniqueID>  (19) 
15

>  <SMILES>  (19) 
Cc1ccc([N-]C(=O)CNc2cccc(S(=O)(=O)[NH+]3CCCC3)c2)cc1S(=O)(=O)N1CCOCC1

>  <Energy>  (19) 
81.66371054025953

>  <Genealogy>  (19) 
Cc1ccc([N-]C(=O)CNc2cccc(S(=O)(=O)[NH+]3CCCC3)c2)cc1S(=O)(=O)N1CCOCC1 (protonated)
Cc1ccc([N-]C(=O)CNc2cccc(S(=O)(=O)[NH+]3CCCC3)c2)cc1S(=O)(=O)N1CCOCC1 (3D coordinates assigned)
Cc1ccc([N-]C(=O)CNc2cccc(S(=O)(=O)[NH+]3CCCC3)c2)cc1S(=O)(=O)N1CCOCC1 (nonaromatic ring conformer: 81.66371054025953 kcal/mol)

>  <smiles>  (19) 
Cc1ccc(NC(=O)CNc2cccc(S(=O)(=O)N3CCCC3)c2)cc1S(=O)(=O)N1CCOCC1

>  <score_type>  (19) 
oracle

>  <origin>  (19) 
adgpu

>  <m_score__min__energy>  (19) 
-12.35

>  <m_primary>  (19) 
energy

$$$$
19:0
     RDKit          3D

 50 52  0  0  0  0  0  0  0  0999 V2000
   -9.4330   18.5570  -32.3410 C   0  0  0  0  0  0  0  0  0  0  0  0
   -9.4480   19.9800  -32.2950 O   0  0  0  0  0  0  0  0  0  0  0  0
   -8.4270   20.7650  -31.7380 C   0  0  0  0  0  0  0  0  0  0  0  0
   -7.0630   20.4650  -31.9150 C   0  0  0  0  0  0  0  0  0  0  0  0
   -6.0810   21.2790  -31.3410 C   0  0  0  0  0  0  0  0  0  0  0  0
   -6.4460   22.4130  -30.5920 C   0  0  0  0  0  0  0  0  0  0  0  0
   -5.4560   23.2520  -29.9720 N   0  0  0  0  0  0  0  0  0  0  0  0
   -4.8250   24.3660  -30.6220 C   0  0  0  0  0  0  0  0  0  0  0  0
   -5.3760   24.9190  -31.6100 O   0  0  0  0  0  0  0  0  0  0  0  0
   -3.6170   24.9310  -30.1000 N   0  0  0  0  0  0  0  0  0  0  0  0
   -2.6460   24.2460  -29.2950 C   0  0  0  0  0  0  0  0  0  0  0  0
   -2.6960   22.8570  -29.1180 C   0  0  0  0  0  0  0  0  0  0  0  0
   -1.7230   22.2080  -28.3640 C   0  0  0  0  0  0  0  0  0  0  0  0
   -0.6660   22.9260  -27.7830 C   0  0  0  0  0  0  0  0  0  0  0  0
    0.3600   22.1700  -26.9780 C   0  0  0  0  0  0  0  0  0  0  0  0
   -0.6020   24.3340  -27.9520 C   0  0  0  0  0  0  0  0  0  0  0  0
    0.7270   25.2760  -27.2290 S   0  0  0  0  0  0  0  0  0  0  0  0
    2.0410   24.9440  -27.8790 O   0  0  0  0  0  0  0  0  0  0  0  0
    0.4610   26.7360  -27.4670 O   0  0  0  0  0  0  0  0  0  0  0  0
    0.8160   24.9790  -25.5040 N   0  0  0  0  0  0  0  0  0  0  0  0
    1.6780   25.9600  -24.8200 C   0  0  0  0  0  0  0  0  0  0  0  0
    1.0000   27.3440  -24.6820 C   0  0  0  0  0  0  0  0  0  0  0  0
   -0.4060   27.3070  -24.8580 O   0  0  0  0  0  0  0  0  0  0  0  0
   -0.9510   26.1930  -24.1900 C   0  0  0  0  0  0  0  0  0  0  0  0
   -0.5280   24.8890  -24.8910 C   0  0  0  0  0  0  0  0  0  0  0  0
   -1.5890   24.9770  -28.7340 C   0  0  0  0  0  0  0  0  0  0  0  0
   -1.5320   26.3470  -28.9650 O   0  0  0  0  0  0  0  0  0  0  0  0
   -7.8050   22.6950  -30.4020 C   0  0  0  0  0  0  0  0  0  0  0  0
   -8.7860   21.8820  -30.9770 C   0  0  0  0  0  0  0  0  0  0  0  0
   -9.4288   18.1570  -31.3163 H   0  0  0  0  0  0  0  0  0  0  0  0
  -10.3274   18.1978  -32.8711 H   0  0  0  0  0  0  0  0  0  0  0  0
   -8.5312   18.2168  -32.8711 H   0  0  0  0  0  0  0  0  0  0  0  0
   -6.7681   19.5864  -32.5075 H   0  0  0  0  0  0  0  0  0  0  0  0
   -5.0177   21.0314  -31.4758 H   0  0  0  0  0  0  0  0  0  0  0  0
   -5.2440   23.0980  -28.9600 H   0  0  0  0  0  0  0  0  0  0  0  0
   -3.5092   22.2761  -29.5778 H   0  0  0  0  0  0  0  0  0  0  0  0
   -1.7829   21.1189  -28.2215 H   0  0  0  0  0  0  0  0  0  0  0  0
    0.1637   22.3146  -25.9054 H   0  0  0  0  0  0  0  0  0  0  0  0
    0.2997   21.0988  -27.2206 H   0  0  0  0  0  0  0  0  0  0  0  0
    1.3653   22.5449  -27.2206 H   0  0  0  0  0  0  0  0  0  0  0  0
    1.9162   25.5813  -23.8151 H   0  0  0  0  0  0  0  0  0  0  0  0
    2.5862   26.0899  -25.4268 H   0  0  0  0  0  0  0  0  0  0  0  0
    1.2145   27.7378  -23.6775 H   0  0  0  0  0  0  0  0  0  0  0  0
    1.4081   27.9840  -25.4781 H   0  0  0  0  0  0  0  0  0  0  0  0
   -0.5893   26.1802  -23.1513 H   0  0  0  0  0  0  0  0  0  0  0  0
   -2.0483   26.2680  -24.2064 H   0  0  0  0  0  0  0  0  0  0  0  0
   -0.5226   24.0767  -24.1493 H   0  0  0  0  0  0  0  0  0  0  0  0
   -1.2492   24.6977  -25.6993 H   0  0  0  0  0  0  0  0  0  0  0  0
   -8.1025   23.5631  -29.7955 H   0  0  0  0  0  0  0  0  0  0  0  0
   -9.8492   22.1228  -30.8297 H   0  0  0  0  0  0  0  0  0  0  0  0
  1  2  1  0
  2  3  1  0
  3  4  2  0
  4  5  1  0
  5  6  2  0
  6  7  1  0
  7  8  1  0
  8  9  2  0
  8 10  1  0
 10 11  1  0
 11 12  2  0
 12 13  1  0
 13 14  2  0
 14 15  1  0
 14 16  1  0
 16 17  1  0
 17 18  2  0
 17 19  2  0
 17 20  1  0
 20 21  1  0
 21 22  1  0
 22 23  1  0
 23 24  1  0
 24 25  1  0
 16 26  2  0
 26 27  1  0
  6 28  1  0
 28 29  2  0
 29  3  1  0
 26 11  1  0
 25 20  1  0
  1 30  1  0
  1 31  1  0
  1 32  1  0
  4 33  1  0
  5 34  1  0
  7 35  1  0
 12 36  1  0
 13 37  1  0
 15 38  1  0
 15 39  1  0
 15 40  1  0
 21 41  1  0
 21 42  1  0
 22 43  1  0
 22 44  1  0
 24 45  1  0
 24 46  1  0
 25 47  1  0
 25 48  1  0
 28 49  1  0
 29 50  1  0
M  CHG  2  10  -1  27  -1
M  END
>  <UniqueID>  (20) 
16

>  <SMILES>  (20) 
COc1ccc(NC(=O)[N-]c2ccc(C)c(S(=O)(=O)N3CCOCC3)c2[O-])cc1

>  <Energy>  (20) 
71.74887307717346

>  <Genealogy>  (20) 
COc1ccc(NC(=O)[N-]c2ccc(C)c(S(=O)(=O)N3CCOCC3)c2[O-])cc1 (protonated)
COc1ccc(NC(=O)[N-]c2ccc(C)c(S(=O)(=O)N3CCOCC3)c2[O-])cc1 (3D coordinates assigned)
COc1ccc(NC(=O)[N-]c2ccc(C)c(S(=O)(=O)N3CCOCC3)c2[O-])cc1 (nonaromatic ring conformer: 71.74887307717346 kcal/mol)

>  <smiles>  (20) 
COc1ccc(NC(=O)Nc2ccc(C)c(S(=O)(=O)N3CCOCC3)c2O)cc1

>  <score_type>  (20) 
oracle

>  <origin>  (20) 
adgpu

>  <m_score__min__energy>  (20) 
-12.51

>  <m_primary>  (20) 
energy

$$$$
20:0
     RDKit          3D

 47 49  0  0  0  0  0  0  0  0999 V2000
   -7.5839   17.0193  -31.5048 H   0  0  0  0  0  0  0  0  0  0  0  0
   -7.0690   17.6410  -32.2520 C   0  0  0  0  0  0  0  0  0  0  0  0
   -5.9660   17.1300  -32.9420 C   0  0  0  0  0  0  0  0  0  0  0  0
   -5.6150   16.1085  -32.7339 H   0  0  0  0  0  0  0  0  0  0  0  0
   -5.3060   17.9130  -33.8970 C   0  0  0  0  0  0  0  0  0  0  0  0
   -3.9090   17.2610  -34.7450 S   0  0  0  0  0  0  0  0  0  0  0  0
   -3.5490   15.9350  -34.1350 O   0  0  0  0  0  0  0  0  0  0  0  0
   -4.2110   17.0600  -36.2050 O   0  0  0  0  0  0  0  0  0  0  0  0
   -2.5640   18.3490  -34.5870 N   0  0  0  0  0  0  0  0  0  0  0  0
   -1.8440   18.3250  -35.3450 H   0  0  0  0  0  0  0  0  0  0  0  0
   -2.3580   19.2130  -33.4550 C   0  0  0  0  0  0  0  0  0  0  0  0
   -2.7500   20.5650  -33.4690 C   0  0  0  0  0  0  0  0  0  0  0  0
   -3.2346   20.9845  -34.3630 H   0  0  0  0  0  0  0  0  0  0  0  0
   -2.5270   21.3780  -32.3530 C   0  0  0  0  0  0  0  0  0  0  0  0
   -2.8441   22.4312  -32.3704 H   0  0  0  0  0  0  0  0  0  0  0  0
   -1.9020   20.8570  -31.2140 C   0  0  0  0  0  0  0  0  0  0  0  0
   -1.5970   21.8910  -29.8230 S   0  0  0  0  0  0  0  0  0  0  0  0
   -2.4030   21.3610  -28.6690 O   0  0  0  0  0  0  0  0  0  0  0  0
   -0.1460   21.8710  -29.4350 O   0  0  0  0  0  0  0  0  0  0  0  0
   -2.1080   23.5220  -30.1340 N   0  0  0  0  0  0  0  0  0  0  0  0
   -3.3010   23.9990  -30.3500 C   0  0  0  0  0  0  0  0  0  0  0  0
   -3.4990   25.2840  -30.5310 O   0  0  0  0  0  0  0  0  0  0  0  0
   -4.7570   25.5500  -30.7230 N   0  0  0  0  0  0  0  0  0  0  0  0
   -5.4220   24.3800  -30.6690 C   0  0  0  0  0  0  0  0  0  0  0  0
   -6.8990   24.2650  -30.8660 C   0  0  0  0  0  0  0  0  0  0  0  0
   -7.3977   24.2262  -29.8863 H   0  0  0  0  0  0  0  0  0  0  0  0
   -7.2629   25.1375  -31.4284 H   0  0  0  0  0  0  0  0  0  0  0  0
   -7.1235   23.3467  -31.4284 H   0  0  0  0  0  0  0  0  0  0  0  0
   -4.5320   23.3430  -30.4240 C   0  0  0  0  0  0  0  0  0  0  0  0
   -4.8790   21.8830  -30.3780 C   0  0  0  0  0  0  0  0  0  0  0  0
   -4.9564   21.5574  -29.3302 H   0  0  0  0  0  0  0  0  0  0  0  0
   -5.8412   21.7187  -30.8851 H   0  0  0  0  0  0  0  0  0  0  0  0
   -4.0936   21.3033  -30.8851 H   0  0  0  0  0  0  0  0  0  0  0  0
   -1.5150   19.5120  -31.1910 C   0  0  0  0  0  0  0  0  0  0  0  0
   -1.0348   19.0946  -30.2936 H   0  0  0  0  0  0  0  0  0  0  0  0
   -1.7370   18.6980  -32.3050 C   0  0  0  0  0  0  0  0  0  0  0  0
   -1.4225   17.6442  -32.2812 H   0  0  0  0  0  0  0  0  0  0  0  0
   -5.7600   19.2120  -34.1610 C   0  0  0  0  0  0  0  0  0  0  0  0
   -5.2489   19.8291  -34.9146 H   0  0  0  0  0  0  0  0  0  0  0  0
   -6.8610   19.7260  -33.4690 C   0  0  0  0  0  0  0  0  0  0  0  0
   -7.2092   20.7480  -33.6795 H   0  0  0  0  0  0  0  0  0  0  0  0
   -7.5240   18.9500  -32.5100 C   0  0  0  0  0  0  0  0  0  0  0  0
   -8.6220   19.5110  -31.8400 O   0  0  0  0  0  0  0  0  0  0  0  0
   -8.8690   20.9090  -31.7350 C   0  0  0  0  0  0  0  0  0  0  0  0
   -8.9193   21.1938  -30.6737 H   0  0  0  0  0  0  0  0  0  0  0  0
   -8.0548   21.4630  -32.2251 H   0  0  0  0  0  0  0  0  0  0  0  0
   -9.8237   21.1505  -32.2251 H   0  0  0  0  0  0  0  0  0  0  0  0
  1  2  1  0
  2  3  2  0
  3  4  1  0
  3  5  1  0
  5  6  1  0
  6  7  2  0
  6  8  2  0
  6  9  1  0
  9 10  1  0
  9 11  1  0
 11 12  2  0
 12 13  1  0
 12 14  1  0
 14 15  1  0
 14 16  2  0
 16 17  1  0
 17 18  2  0
 17 19  2  0
 17 20  1  0
 20 21  2  0
 21 22  1  0
 22 23  1  0
 23 24  1  0
 24 25  1  0
 25 26  1  0
 25 27  1  0
 25 28  1  0
 24 29  2  0
 29 30  1  0
 30 31  1  0
 30 32  1  0
 30 33  1  0
 16 34  1  0
 34 35  1  0
 34 36  2  0
 36 37  1  0
  5 38  2  0
 38 39  1  0
 38 40  1  0
 40 41  1  0
 40 42  2  0
 42 43  1  0
 43 44  1  0
 44 45  1  0
 44 46  1  0
 44 47  1  0
 42  2  1  0
 36 11  1  0
 29 21  1  0
M  CHG  1  23  -1
M  END
>  <UniqueID>  (21) 
17

>  <SMILES>  (21) 
COc1ccc(S(=O)(=O)Nc2ccc(S(=O)(=O)/N=c3/o[n-]c(C)c3C)cc2)cc1

>  <Energy>  (21) 
90.42842452466002

>  <Genealogy>  (21) 
COc1ccc(S(=O)(=O)Nc2ccc(S(=O)(=O)N=c3o[n-]c(C)c3C)cc2)cc1 (protonated)
COc1ccc(S(=O)(=O)Nc2ccc(S(=O)(=O)/N=c3/o[n-]c(C)c3C)cc2)cc1 (cis-trans isomerization)
COc1ccc(S(=O)(=O)Nc2ccc(S(=O)(=O)/N=c3/o[n-]c(C)c3C)cc2)cc1 (3D coordinates assigned)
COc1ccc(S(=O)(=O)Nc2ccc(S(=O)(=O)/N=c3/o[n-]c(C)c3C)cc2)cc1 (optimized conformer: 90.42842452466002 kcal/mol)

>  <smiles>  (21) 
COc1ccc(S(=O)(=O)Nc2ccc(S(=O)(=O)N=c3o[nH]c(C)c3C)cc2)cc1

>  <score_type>  (21) 
oracle

>  <origin>  (21) 
adgpu

>  <m_score__min__energy>  (21) 
-10.49

>  <m_primary>  (21) 
energy

$$$$
21:0
     RDKit          3D

 33 35  0  0  0  0  0  0  0  0999 V2000
    0.6640   23.6220  -36.0840 C   0  0  0  0  0  0  0  0  0  0  0  0
    0.6680   22.1560  -35.8110 C   0  0  0  0  0  0  0  0  0  0  0  0
    0.2570   21.5470  -34.6440 C   0  0  0  0  0  0  0  0  0  0  0  0
    0.4760   20.2070  -34.9070 C   0  0  0  0  0  0  0  0  0  0  0  0
    0.2540   19.2100  -34.1040 N   0  0  0  0  0  0  0  0  0  0  0  0
   -0.3800   19.3700  -32.4960 S   0  0  0  0  0  0  0  0  0  0  0  0
   -0.7490   18.0080  -31.9770 O   0  0  0  0  0  0  0  0  0  0  0  0
    0.6760   19.9630  -31.6070 O   0  0  0  0  0  0  0  0  0  0  0  0
   -1.7850   20.4310  -32.5000 C   0  0  0  0  0  0  0  0  0  0  0  0
   -2.8070   20.2490  -33.4420 C   0  0  0  0  0  0  0  0  0  0  0  0
   -3.9130   21.1050  -33.4510 C   0  0  0  0  0  0  0  0  0  0  0  0
   -4.0030   22.1590  -32.5320 C   0  0  0  0  0  0  0  0  0  0  0  0
   -5.1520   23.0200  -32.5520 N   0  0  0  0  0  0  0  0  0  0  0  0
   -5.5500   23.8280  -31.4400 C   0  0  0  0  0  0  0  0  0  0  0  0
   -5.0240   24.9080  -30.7510 C   0  0  0  0  0  0  0  0  0  0  0  0
   -3.8640   25.6660  -30.8390 O   0  0  0  0  0  0  0  0  0  0  0  0
   -6.1390   24.9330  -29.9380 C   0  0  0  0  0  0  0  0  0  0  0  0
   -6.5170   25.6410  -28.9690 O   0  0  0  0  0  0  0  0  0  0  0  0
   -6.6740   23.8710  -30.6390 C   0  0  0  0  0  0  0  0  0  0  0  0
   -7.7450   23.2120  -30.5710 O   0  0  0  0  0  0  0  0  0  0  0  0
   -2.9920   22.3180  -31.5680 C   0  0  0  0  0  0  0  0  0  0  0  0
   -1.8880   21.4610  -31.5570 C   0  0  0  0  0  0  0  0  0  0  0  0
    0.9810   20.0470  -36.1440 N   0  0  0  0  0  0  0  0  0  0  0  0
    1.0820   21.2390  -36.6560 O   0  0  0  0  0  0  0  0  0  0  0  0
    0.6625   24.1723  -35.1316 H   0  0  0  0  0  0  0  0  0  0  0  0
    1.5614   23.8900  -36.6609 H   0  0  0  0  0  0  0  0  0  0  0  0
   -0.2349   23.8851  -36.6609 H   0  0  0  0  0  0  0  0  0  0  0  0
   -0.1449   22.0113  -33.7314 H   0  0  0  0  0  0  0  0  0  0  0  0
   -2.7390   19.4318  -34.1752 H   0  0  0  0  0  0  0  0  0  0  0  0
   -4.7178   20.9498  -34.1846 H   0  0  0  0  0  0  0  0  0  0  0  0
   -5.6750   23.1380  -33.4480 H   0  0  0  0  0  0  0  0  0  0  0  0
   -3.0702   23.1202  -30.8194 H   0  0  0  0  0  0  0  0  0  0  0  0
   -1.0970   21.5962  -30.8047 H   0  0  0  0  0  0  0  0  0  0  0  0
  1  2  1  0
  2  3  2  0
  3  4  1  0
  4  5  2  3
  5  6  1  0
  6  7  2  0
  6  8  2  0
  6  9  1  0
  9 10  2  0
 10 11  1  0
 11 12  2  0
 12 13  1  0
 13 14  1  0
 14 15  2  0
 15 16  1  0
 15 17  1  0
 17 18  2  0
 17 19  1  0
 19 20  2  0
 12 21  1  0
 21 22  2  0
  4 23  1  0
 23 24  1  0
 24  2  1  0
 22  9  1  0
 19 14  1  0
  1 25  1  0
  1 26  1  0
  1 27  1  0
  3 28  1  0
 10 29  1  0
 11 30  1  0
 13 31  1  0
 21 32  1  0
 22 33  1  0
M  CHG  2  16  -1  23  -1
M  END
>  <UniqueID>  (22) 
18

>  <SMILES>  (22) 
Cc1cc(=NS(=O)(=O)c2ccc(Nc3c([O-])c(=O)c3=O)cc2)[n-]o1

>  <Energy>  (22) 
63.33885600840038

>  <Genealogy>  (22) 
Cc1cc(=NS(=O)(=O)c2ccc(Nc3c([O-])c(=O)c3=O)cc2)[n-]o1 (protonated)
Cc1cc(=NS(=O)(=O)c2ccc(Nc3c([O-])c(=O)c3=O)cc2)[n-]o1 (3D coordinates assigned)
Cc1cc(=NS(=O)(=O)c2ccc(Nc3c([O-])c(=O)c3=O)cc2)[n-]o1 (optimized conformer: 63.33885600840038 kcal/mol)

>  <smiles>  (22) 
Cc1cc(=NS(=O)(=O)c2ccc(Nc3c(O)c(=O)c3=O)cc2)[nH]o1

>  <score_type>  (22) 
oracle

>  <origin>  (22) 
adgpu

>  <m_score__min__energy>  (22) 
-11.32

>  <m_primary>  (22) 
energy

$$$$
22:0
     RDKit          3D

 30 31  0  0  0  0  0  0  0  0999 V2000
   -6.8940   19.4010  -34.9890 H   0  0  0  0  0  0  0  0  0  0  0  0
   -6.4760   18.9240  -34.1590 N   0  0  0  0  0  0  0  0  0  0  0  0
   -7.3220   19.5000  -32.7680 S   0  0  0  0  0  0  0  0  0  0  0  0
   -8.7920   19.5760  -33.0730 O   0  0  0  0  0  0  0  0  0  0  0  0
   -7.1170   18.5460  -31.6230 O   0  0  0  0  0  0  0  0  0  0  0  0
   -6.7190   21.0950  -32.3310 C   0  0  0  0  0  0  0  0  0  0  0  0
   -5.3900   21.4460  -32.6040 C   0  0  0  0  0  0  0  0  0  0  0  0
   -4.7242   20.7265  -33.1030 H   0  0  0  0  0  0  0  0  0  0  0  0
   -4.9080   22.7080  -32.2440 C   0  0  0  0  0  0  0  0  0  0  0  0
   -3.8705   22.9862  -32.4812 H   0  0  0  0  0  0  0  0  0  0  0  0
   -5.7440   23.6230  -31.5800 C   0  0  0  0  0  0  0  0  0  0  0  0
   -5.2860   24.9380  -31.2240 N   0  0  0  0  0  0  0  0  0  0  0  0
   -4.3620   25.2470  -30.3580 C   0  0  0  0  0  0  0  0  0  0  0  0
   -4.0333   26.2956  -30.3091 H   0  0  0  0  0  0  0  0  0  0  0  0
   -3.7260   24.2790  -29.4360 C   0  0  0  0  0  0  0  0  0  0  0  0
   -4.4240   23.1420  -28.9900 C   0  0  0  0  0  0  0  0  0  0  0  0
   -5.4482   22.9550  -29.3449 H   0  0  0  0  0  0  0  0  0  0  0  0
   -3.8240   22.2490  -28.0990 C   0  0  0  0  0  0  0  0  0  0  0  0
   -4.3711   21.3538  -27.7685 H   0  0  0  0  0  0  0  0  0  0  0  0
   -2.5310   22.4890  -27.6260 C   0  0  0  0  0  0  0  0  0  0  0  0
   -1.9450   21.5890  -26.7390 O   0  0  0  0  0  0  0  0  0  0  0  0
   -1.0330   21.7640  -26.3330 H   0  0  0  0  0  0  0  0  0  0  0  0
   -1.8390   23.6330  -28.0440 C   0  0  0  0  0  0  0  0  0  0  0  0
   -0.8240   23.8277  -27.6672 H   0  0  0  0  0  0  0  0  0  0  0  0
   -2.4340   24.5290  -28.9390 C   0  0  0  0  0  0  0  0  0  0  0  0
   -1.7310   25.6610  -29.3380 O   0  0  0  0  0  0  0  0  0  0  0  0
   -7.0780   23.2780  -31.3330 C   0  0  0  0  0  0  0  0  0  0  0  0
   -7.7502   24.0037  -30.8519 H   0  0  0  0  0  0  0  0  0  0  0  0
   -7.5610   22.0170  -31.6940 C   0  0  0  0  0  0  0  0  0  0  0  0
   -8.6052   21.7473  -31.4775 H   0  0  0  0  0  0  0  0  0  0  0  0
  1  2  1  0
  2  3  1  0
  3  4  2  0
  3  5  2  0
  3  6  1  0
  6  7  2  0
  7  8  1  0
  7  9  1  0
  9 10  1  0
  9 11  2  0
 11 12  1  0
 12 13  2  0
 13 14  1  0
 13 15  1  0
 15 16  2  0
 16 17  1  0
 16 18  1  0
 18 19  1  0
 18 20  2  0
 20 21  1  0
 21 22  1  0
 20 23  1  0
 23 24  1  0
 23 25  2  0
 25 26  1  0
 11 27  1  0
 27 28  1  0
 27 29  2  0
 29 30  1  0
 29  6  1  0
 25 15  1  0
M  CHG  2   2  -1  26  -1
M  END
>  <UniqueID>  (23) 
19

>  <SMILES>  (23) 
[NH-]S(=O)(=O)c1ccc(/N=C\c2ccc(O)cc2[O-])cc1

>  <Energy>  (23) 
41.86797341943998

>  <Genealogy>  (23) 
[NH-]S(=O)(=O)c1ccc(N=Cc2ccc(O)cc2[O-])cc1 (protonated)
[NH-]S(=O)(=O)c1ccc(/N=C\c2ccc(O)cc2[O-])cc1 (cis-trans isomerization)
[NH-]S(=O)(=O)c1ccc(/N=C\c2ccc(O)cc2[O-])cc1 (3D coordinates assigned)
[NH-]S(=O)(=O)c1ccc(/N=C\c2ccc(O)cc2[O-])cc1 (optimized conformer: 41.86797341943998 kcal/mol)

>  <smiles>  (23) 
NS(=O)(=O)c1ccc(N=Cc2ccc(O)cc2O)cc1

>  <score_type>  (23) 
oracle

>  <origin>  (23) 
adgpu

>  <m_score__min__energy>  (23) 
-9.8699999999999992

>  <m_primary>  (23) 
energy

$$$$
23:0
     RDKit          3D

 56 58  0  0  0  0  0  0  0  0999 V2000
   -0.4030   22.2240  -26.6870 C   0  0  0  0  0  0  0  0  0  0  0  0
   -1.2100   22.9910  -27.7020 C   0  0  0  0  0  0  0  0  0  0  0  0
   -1.1330   24.3940  -27.6880 C   0  0  0  0  0  0  0  0  0  0  0  0
   -1.8750   25.1580  -28.5860 C   0  0  0  0  0  0  0  0  0  0  0  0
   -2.7050   24.5340  -29.5250 C   0  0  0  0  0  0  0  0  0  0  0  0
   -3.5150   25.2820  -30.4430 N   0  0  0  0  0  0  0  0  0  0  0  0
   -4.9450   25.2570  -30.5420 C   0  0  0  0  0  0  0  0  0  0  0  0
   -5.5970   26.3360  -30.5680 O   0  0  0  0  0  0  0  0  0  0  0  0
   -5.6560   23.9640  -30.6750 C   0  0  0  0  0  0  0  0  0  0  0  0
   -6.9260   23.7810  -30.0970 C   0  0  0  0  0  0  0  0  0  0  0  0
   -7.5900   22.5580  -30.2160 C   0  0  0  0  0  0  0  0  0  0  0  0
   -6.9960   21.5020  -30.9110 C   0  0  0  0  0  0  0  0  0  0  0  0
   -5.7320   21.6640  -31.4920 C   0  0  0  0  0  0  0  0  0  0  0  0
   -4.9770   20.3240  -32.3590 S   0  0  0  0  0  0  0  0  0  0  0  0
   -5.4960   19.0270  -31.8040 O   0  0  0  0  0  0  0  0  0  0  0  0
   -5.3600   20.3960  -33.8110 O   0  0  0  0  0  0  0  0  0  0  0  0
   -3.2350   20.3580  -32.2150 N   0  0  0  0  0  0  0  0  0  0  0  0
   -2.6440   19.1100  -32.7360 C   0  0  0  0  0  0  0  0  0  0  0  0
   -1.1140   19.2370  -32.8930 C   0  0  0  0  0  0  0  0  0  0  0  0
   -0.6230   20.3710  -32.2070 O   0  0  0  0  0  0  0  0  0  0  0  0
   -1.1380   21.5520  -32.7970 C   0  0  0  0  0  0  0  0  0  0  0  0
   -2.6800   21.5300  -32.9120 C   0  0  0  0  0  0  0  0  0  0  0  0
   -5.0690   22.8940  -31.3760 C   0  0  0  0  0  0  0  0  0  0  0  0
   -2.7980   23.1390  -29.5360 C   0  0  0  0  0  0  0  0  0  0  0  0
   -2.0280   22.3450  -28.6680 C   0  0  0  0  0  0  0  0  0  0  0  0
   -2.1540   20.5650  -28.7440 S   0  0  0  0  0  0  0  0  0  0  0  0
   -3.4960   20.1930  -29.3090 O   0  0  0  0  0  0  0  0  0  0  0  0
   -1.0910   20.0560  -29.6770 O   0  0  0  0  0  0  0  0  0  0  0  0
   -2.0130   19.7370  -27.2070 N   0  0  0  0  0  0  0  0  0  0  0  0
   -3.2980   19.2340  -26.6910 C   0  0  0  0  0  0  0  0  0  0  0  0
   -0.9790   18.6970  -27.2550 C   0  0  0  0  0  0  0  0  0  0  0  0
   -0.7130   22.5187  -25.6736 H   0  0  0  0  0  0  0  0  0  0  0  0
   -0.5721   21.1456  -26.8232 H   0  0  0  0  0  0  0  0  0  0  0  0
    0.6654   22.4477  -26.8232 H   0  0  0  0  0  0  0  0  0  0  0  0
   -0.4790   24.8951  -26.9592 H   0  0  0  0  0  0  0  0  0  0  0  0
   -1.8085   26.2556  -28.5572 H   0  0  0  0  0  0  0  0  0  0  0  0
   -7.3995   24.6077  -29.5471 H   0  0  0  0  0  0  0  0  0  0  0  0
   -8.5829   22.4261  -29.7614 H   0  0  0  0  0  0  0  0  0  0  0  0
   -7.5224   20.5405  -31.0023 H   0  0  0  0  0  0  0  0  0  0  0  0
   -3.0150   20.4370  -31.1920 H   0  0  0  0  0  0  0  0  0  0  0  0
   -2.8657   18.2897  -32.0375 H   0  0  0  0  0  0  0  0  0  0  0  0
   -3.0789   18.9066  -33.7257 H   0  0  0  0  0  0  0  0  0  0  0  0
   -0.6351   18.3350  -32.4843 H   0  0  0  0  0  0  0  0  0  0  0  0
   -0.8813   19.3485  -33.9623 H   0  0  0  0  0  0  0  0  0  0  0  0
   -0.8421   22.4131  -32.1798 H   0  0  0  0  0  0  0  0  0  0  0  0
   -0.7270   21.6250  -33.8147 H   0  0  0  0  0  0  0  0  0  0  0  0
   -3.0892   22.4461  -32.4611 H   0  0  0  0  0  0  0  0  0  0  0  0
   -2.9555   21.4734  -33.9754 H   0  0  0  0  0  0  0  0  0  0  0  0
   -4.0792   23.0241  -31.8379 H   0  0  0  0  0  0  0  0  0  0  0  0
   -3.4891   22.6517  -30.2395 H   0  0  0  0  0  0  0  0  0  0  0  0
   -3.2796   19.2412  -25.5912 H   0  0  0  0  0  0  0  0  0  0  0  0
   -4.1143   19.8790  -27.0483 H   0  0  0  0  0  0  0  0  0  0  0  0
   -3.4596   18.2063  -27.0483 H   0  0  0  0  0  0  0  0  0  0  0  0
   -0.6967   18.4131  -26.2305 H   0  0  0  0  0  0  0  0  0  0  0  0
   -1.3695   17.8159  -27.7853 H   0  0  0  0  0  0  0  0  0  0  0  0
   -0.0957   19.0824  -27.7853 H   0  0  0  0  0  0  0  0  0  0  0  0
  1  2  1  0
  2  3  2  0
  3  4  1  0
  4  5  2  0
  5  6  1  0
  6  7  1  0
  7  8  2  0
  7  9  1  0
  9 10  2  0
 10 11  1  0
 11 12  2  0
 12 13  1  0
 13 14  1  0
 14 15  2  0
 14 16  2  0
 14 17  1  0
 17 18  1  0
 18 19  1  0
 19 20  1  0
 20 21  1  0
 21 22  1  0
 13 23  2  0
  5 24  1  0
 24 25  2  0
 25 26  1  0
 26 27  2  0
 26 28  2  0
 26 29  1  0
 29 30  1  0
 29 31  1  0
 25  2  1  0
 23  9  1  0
 22 17  1  0
  1 32  1  0
  1 33  1  0
  1 34  1  0
  3 35  1  0
  4 36  1  0
 10 37  1  0
 11 38  1  0
 12 39  1  0
 17 40  1  0
 18 41  1  0
 18 42  1  0
 19 43  1  0
 19 44  1  0
 21 45  1  0
 21 46  1  0
 22 47  1  0
 22 48  1  0
 23 49  1  0
 24 50  1  0
 30 51  1  0
 30 52  1  0
 30 53  1  0
 31 54  1  0
 31 55  1  0
 31 56  1  0
M  CHG  2   6  -1  17   1
M  END
>  <UniqueID>  (24) 
20

>  <SMILES>  (24) 
Cc1ccc([N-]C(=O)c2cccc(S(=O)(=O)[NH+]3CCOCC3)c2)cc1S(=O)(=O)N(C)C

>  <Energy>  (24) 
75.27777646593852

>  <Genealogy>  (24) 
Cc1ccc([N-]C(=O)c2cccc(S(=O)(=O)[NH+]3CCOCC3)c2)cc1S(=O)(=O)N(C)C (protonated)
Cc1ccc([N-]C(=O)c2cccc(S(=O)(=O)[NH+]3CCOCC3)c2)cc1S(=O)(=O)N(C)C (3D coordinates assigned)
Cc1ccc([N-]C(=O)c2cccc(S(=O)(=O)[NH+]3CCOCC3)c2)cc1S(=O)(=O)N(C)C (nonaromatic ring conformer: 75.27777646593852 kcal/mol)

>  <smiles>  (24) 
Cc1ccc(NC(=O)c2cccc(S(=O)(=O)N3CCOCC3)c2)cc1S(=O)(=O)N(C)C

>  <score_type>  (24) 
oracle

>  <origin>  (24) 
adgpu

>  <m_score__min__energy>  (24) 
-11.109999999999999

>  <m_primary>  (24) 
energy

$$$$
24:0
     RDKit          3D

 45 48  0  0  0  0  0  0  0  0999 V2000
    0.2650   27.1530  -23.5080 C   0  0  0  0  0  0  0  0  0  0  0  0
    0.1610   25.7770  -23.9820 N   0  0  0  0  0  0  0  0  0  0  0  0
   -0.6560   25.3810  -25.1000 C   0  0  0  0  0  0  0  0  0  0  0  0
   -0.1090   24.5490  -26.0880 C   0  0  0  0  0  0  0  0  0  0  0  0
   -0.8750   24.1460  -27.1860 C   0  0  0  0  0  0  0  0  0  0  0  0
   -2.2090   24.5690  -27.3170 C   0  0  0  0  0  0  0  0  0  0  0  0
   -3.0440   24.1570  -28.4700 C   0  0  0  0  0  0  0  0  0  0  0  0
   -4.4180   24.3660  -28.6230 C   0  0  0  0  0  0  0  0  0  0  0  0
   -4.7170   23.8070  -29.8430 C   0  0  0  0  0  0  0  0  0  0  0  0
   -5.9250   23.7110  -30.5280 C   0  0  0  0  0  0  0  0  0  0  0  0
   -5.9260   23.0720  -31.7930 C   0  0  0  0  0  0  0  0  0  0  0  0
   -7.1300   22.9360  -32.5720 N   0  0  0  0  0  0  0  0  0  0  0  0
   -8.3220   22.2100  -32.1310 C   0  0  0  0  0  0  0  0  0  0  0  0
   -8.0970   20.7220  -32.2070 C   0  0  0  0  0  0  0  0  0  0  0  0
   -7.0510   20.1960  -32.9850 C   0  0  0  0  0  0  0  0  0  0  0  0
   -6.8510   18.8140  -33.0550 C   0  0  0  0  0  0  0  0  0  0  0  0
   -7.6970   17.9470  -32.3580 C   0  0  0  0  0  0  0  0  0  0  0  0
   -8.7470   18.4610  -31.5920 C   0  0  0  0  0  0  0  0  0  0  0  0
   -8.9500   19.8420  -31.5190 C   0  0  0  0  0  0  0  0  0  0  0  0
   -4.7110   22.5470  -32.3070 C   0  0  0  0  0  0  0  0  0  0  0  0
   -3.5100   22.6630  -31.5840 C   0  0  0  0  0  0  0  0  0  0  0  0
   -3.5540   23.3040  -30.3500 C   0  0  0  0  0  0  0  0  0  0  0  0
   -2.5620   23.5180  -29.5230 O   0  0  0  0  0  0  0  0  0  0  0  0
   -2.7570   25.4020  -26.3280 C   0  0  0  0  0  0  0  0  0  0  0  0
   -1.9900   25.8040  -25.2300 C   0  0  0  0  0  0  0  0  0  0  0  0
    0.2657   27.1628  -22.4080 H   0  0  0  0  0  0  0  0  0  0  0  0
    1.1994   27.5991  -23.8793 H   0  0  0  0  0  0  0  0  0  0  0  0
   -0.5918   27.7345  -23.8793 H   0  0  0  0  0  0  0  0  0  0  0  0
    0.7120   25.0480  -23.4750 H   0  0  0  0  0  0  0  0  0  0  0  0
    0.9336   24.2100  -25.9980 H   0  0  0  0  0  0  0  0  0  0  0  0
   -0.4308   23.4937  -27.9523 H   0  0  0  0  0  0  0  0  0  0  0  0
   -5.1053   24.8654  -27.9243 H   0  0  0  0  0  0  0  0  0  0  0  0
   -6.8522   24.1194  -30.0997 H   0  0  0  0  0  0  0  0  0  0  0  0
   -7.1820   23.4210  -33.4970 H   0  0  0  0  0  0  0  0  0  0  0  0
   -8.5504   22.4882  -31.0916 H   0  0  0  0  0  0  0  0  0  0  0  0
   -9.1619   22.4751  -32.7900 H   0  0  0  0  0  0  0  0  0  0  0  0
   -6.3872   20.8744  -33.5410 H   0  0  0  0  0  0  0  0  0  0  0  0
   -6.0264   18.4084  -33.6597 H   0  0  0  0  0  0  0  0  0  0  0  0
   -7.5365   16.8601  -32.4123 H   0  0  0  0  0  0  0  0  0  0  0  0
   -9.4143   17.7780  -31.0460 H   0  0  0  0  0  0  0  0  0  0  0  0
   -9.7815   20.2421  -30.9201 H   0  0  0  0  0  0  0  0  0  0  0  0
   -4.7089   22.0424  -33.2844 H   0  0  0  0  0  0  0  0  0  0  0  0
   -2.5667   22.2600  -31.9813 H   0  0  0  0  0  0  0  0  0  0  0  0
   -3.7994   25.7415  -26.4179 H   0  0  0  0  0  0  0  0  0  0  0  0
   -2.4337   26.4557  -24.4629 H   0  0  0  0  0  0  0  0  0  0  0  0
  1  2  1  0
  2  3  1  0
  3  4  2  0
  4  5  1  0
  5  6  2  0
  6  7  1  0
  7  8  2  0
  8  9  1  0
  9 10  2  0
 10 11  1  0
 11 12  1  0
 12 13  1  0
 13 14  1  0
 14 15  2  0
 15 16  1  0
 16 17  2  0
 17 18  1  0
 18 19  2  0
 11 20  2  0
 20 21  1  0
 21 22  2  0
 22 23  1  0
  6 24  1  0
 24 25  2  0
 25  3  1  0
 23  7  1  0
 22  9  1  0
 19 14  1  0
  1 26  1  0
  1 27  1  0
  1 28  1  0
  2 29  1  0
  4 30  1  0
  5 31  1  0
  8 32  1  0
 10 33  1  0
 12 34  1  0
 13 35  1  0
 13 36  1  0
 15 37  1  0
 16 38  1  0
 17 39  1  0
 18 40  1  0
 19 41  1  0
 20 42  1  0
 21 43  1  0
 24 44  1  0
 25 45  1  0
M  END
>  <UniqueID>  (25) 
21

>  <SMILES>  (25) 
CNc1ccc(-c2cc3cc(NCc4ccccc4)ccc3o2)cc1

>  <Energy>  (25) 
81.72824645595183

>  <Genealogy>  (25) 
CNc1ccc(-c2cc3cc(NCc4ccccc4)ccc3o2)cc1 (3D coordinates assigned)
CNc1ccc(-c2cc3cc(NCc4ccccc4)ccc3o2)cc1 (optimized conformer: 81.72824645595183 kcal/mol)

>  <smiles>  (25) 
CNc1ccc(-c2cc3cc(NCc4ccccc4)ccc3o2)cc1

>  <score_type>  (25) 
oracle

>  <origin>  (25) 
adgpu

>  <m_score__min__energy>  (25) 
-8.9100000000000001

>  <m_primary>  (25) 
energy

$$$$
25:0
     RDKit          3D

 40 43  0  0  0  0  0  0  0  0999 V2000
    1.3040   25.2690  -24.1010 N   0  0  0  0  0  0  0  0  0  0  0  0
    0.2580   24.5000  -24.7080 C   0  0  0  0  0  0  0  0  0  0  0  0
   -0.1470   23.4090  -24.1260 N   0  0  0  0  0  0  0  0  0  0  0  0
   -0.3320   24.9480  -25.9960 C   0  0  0  0  0  0  0  0  0  0  0  0
   -1.1540   24.2130  -26.8510 C   0  0  0  0  0  0  0  0  0  0  0  0
   -1.5460   24.9200  -28.0030 C   0  0  0  0  0  0  0  0  0  0  0  0
   -2.4140   24.3350  -29.0430 C   0  0  0  0  0  0  0  0  0  0  0  0
   -2.4130   23.0260  -29.3660 N   0  0  0  0  0  0  0  0  0  0  0  0
   -3.3470   22.9750  -30.3420 C   0  0  0  0  0  0  0  0  0  0  0  0
   -3.7060   21.7170  -31.0800 C   0  0  1  0  0  0  0  0  0  0  0  0
   -5.2320   21.5090  -31.1010 C   0  0  0  0  0  0  0  0  0  0  0  0
   -5.6240   20.3970  -32.0380 C   0  0  0  0  0  0  0  0  0  0  0  0
   -6.9160   19.8530  -31.9610 C   0  0  0  0  0  0  0  0  0  0  0  0
   -7.3170   18.8560  -32.8540 C   0  0  0  0  0  0  0  0  0  0  0  0
   -6.4340   18.3990  -33.8340 C   0  0  0  0  0  0  0  0  0  0  0  0
   -5.1500   18.9420  -33.9290 C   0  0  0  0  0  0  0  0  0  0  0  0
   -4.7410   19.9540  -33.0480 C   0  0  0  0  0  0  0  0  0  0  0  0
   -3.3250   20.4790  -33.1220 C   0  0  0  0  0  0  0  0  0  0  0  0
   -3.1720   21.7760  -32.4480 N   0  0  0  0  0  0  0  0  0  0  0  0
   -3.8810   24.1830  -30.6120 N   0  0  0  0  0  0  0  0  0  0  0  0
   -3.2930   25.0290  -29.7890 N   0  0  0  0  0  0  0  0  0  0  0  0
   -1.0350   26.2140  -28.0590 C   0  0  0  0  0  0  0  0  0  0  0  0
   -0.1050   26.4670  -26.6860 S   0  0  0  0  0  0  0  0  0  0  0  0
    1.6430   26.1600  -24.5250 H   0  0  0  0  0  0  0  0  0  0  0  0
    1.7460   24.9570  -23.2070 H   0  0  0  0  0  0  0  0  0  0  0  0
    0.2770   23.1020  -23.2220 H   0  0  0  0  0  0  0  0  0  0  0  0
   -0.8910   22.8010  -24.5320 H   0  0  0  0  0  0  0  0  0  0  0  0
   -1.4661   23.1787  -26.6442 H   0  0  0  0  0  0  0  0  0  0  0  0
   -3.2576   20.8596  -30.5569 H   0  0  0  0  0  0  0  0  0  0  0  0
   -5.5726   21.2578  -30.0857 H   0  0  0  0  0  0  0  0  0  0  0  0
   -5.7026   22.4390  -31.4527 H   0  0  0  0  0  0  0  0  0  0  0  0
   -7.6165   20.2137  -31.1934 H   0  0  0  0  0  0  0  0  0  0  0  0
   -8.3292   18.4309  -32.7848 H   0  0  0  0  0  0  0  0  0  0  0  0
   -6.7496   17.6101  -34.5326 H   0  0  0  0  0  0  0  0  0  0  0  0
   -4.4561   18.5738  -34.6990 H   0  0  0  0  0  0  0  0  0  0  0  0
   -2.6530   19.7511  -32.6439 H   0  0  0  0  0  0  0  0  0  0  0  0
   -3.0754   20.6215  -34.1838 H   0  0  0  0  0  0  0  0  0  0  0  0
   -3.6950   22.5000  -32.9980 H   0  0  0  0  0  0  0  0  0  0  0  0
   -3.5000   26.0520  -29.7490 H   0  0  0  0  0  0  0  0  0  0  0  0
   -1.2106   26.9434  -28.8635 H   0  0  0  0  0  0  0  0  0  0  0  0
  1  2  1  0
  2  3  2  0
  2  4  1  0
  4  5  2  0
  5  6  1  0
  6  7  1  0
  7  8  2  0
  8  9  1  0
  9 10  1  0
 10 11  1  0
 11 12  1  0
 12 13  2  0
 13 14  1  0
 14 15  2  0
 15 16  1  0
 16 17  2  0
 17 18  1  0
 18 19  1  0
  9 20  2  0
 20 21  1  0
  6 22  2  0
 22 23  1  0
 23  4  1  0
 21  7  1  0
 19 10  1  0
 17 12  1  0
  1 24  1  0
  1 25  1  0
  3 26  1  0
  3 27  1  0
  5 28  1  0
 10 29  1  1
 11 30  1  0
 11 31  1  0
 13 32  1  0
 14 33  1  0
 15 34  1  0
 16 35  1  0
 18 36  1  0
 18 37  1  0
 19 38  1  0
 21 39  1  0
 22 40  1  0
M  CHG  1   3   1
M  END
>  <UniqueID>  (26) 
22

>  <SMILES>  (26) 
NC(=[NH2+])c1cc(-c2nc([C@H]3Cc4ccccc4CN3)n[nH]2)cs1

>  <Energy>  (26) 
103.41625539030512

>  <Genealogy>  (26) 
NC(=[NH2+])c1cc(-c2nc(C3Cc4ccccc4CN3)n[nH]2)cs1 (protonated)
NC(=[NH2+])c1cc(-c2nc([C@H]3Cc4ccccc4CN3)n[nH]2)cs1 (chirality)
NC(=[NH2+])c1cc(-c2nc([C@H]3Cc4ccccc4CN3)n[nH]2)cs1 (3D coordinates assigned)
NC(=[NH2+])c1cc(-c2nc([C@H]3Cc4ccccc4CN3)n[nH]2)cs1 (nonaromatic ring conformer: 103.41625539030512 kcal/mol)

>  <smiles>  (26) 
N=C(N)c1cc(-c2nc(C3Cc4ccccc4CN3)n[nH]2)cs1

>  <score_type>  (26) 
oracle

>  <origin>  (26) 
adgpu

>  <m_score__min__energy>  (26) 
-10.35

>  <m_primary>  (26) 
energy

$$$$
26:0
     RDKit          3D

 39 41  0  0  0  0  0  0  0  0999 V2000
   -1.4110   17.7720  -34.9570 C   0  0  0  0  0  0  0  0  0  0  0  0
   -2.7320   17.9280  -34.2660 C   0  0  0  0  0  0  0  0  0  0  0  0
   -2.8630   18.8060  -33.1800 C   0  0  0  0  0  0  0  0  0  0  0  0
   -4.1040   18.9790  -32.5600 C   0  0  0  0  0  0  0  0  0  0  0  0
   -5.2280   18.2820  -33.0220 C   0  0  0  0  0  0  0  0  0  0  0  0
   -6.7850   18.5050  -32.2290 S   0  0  0  0  0  0  0  0  0  0  0  0
   -6.8020   17.8220  -30.8890 O   0  0  0  0  0  0  0  0  0  0  0  0
   -7.8490   17.8860  -33.0920 O   0  0  0  0  0  0  0  0  0  0  0  0
   -7.0980   20.2310  -31.9930 C   0  0  0  0  0  0  0  0  0  0  0  0
   -6.0600   21.0480  -31.5130 C   0  0  0  0  0  0  0  0  0  0  0  0
   -6.2580   22.4200  -31.2940 C   0  0  0  0  0  0  0  0  0  0  0  0
   -5.1410   23.2500  -30.7880 C   0  0  0  0  0  0  0  0  0  0  0  0
   -4.2060   22.9090  -29.8260 C   0  0  0  0  0  0  0  0  0  0  0  0
   -3.4060   24.0280  -29.7430 C   0  0  0  0  0  0  0  0  0  0  0  0
   -2.2680   24.2220  -28.7970 C   0  0  0  0  0  0  0  0  0  0  0  0
   -3.8540   24.9750  -30.5880 N   0  0  0  0  0  0  0  0  0  0  0  0
   -4.8870   24.4720  -31.2000 O   0  0  0  0  0  0  0  0  0  0  0  0
   -7.5180   22.9760  -31.5600 C   0  0  0  0  0  0  0  0  0  0  0  0
   -8.5580   22.1750  -32.0330 C   0  0  0  0  0  0  0  0  0  0  0  0
   -8.3660   20.8040  -32.2530 C   0  0  0  0  0  0  0  0  0  0  0  0
   -9.4700   20.0230  -32.7340 N   0  0  0  0  0  0  0  0  0  0  0  0
   -5.1040   17.4220  -34.1220 C   0  0  0  0  0  0  0  0  0  0  0  0
   -3.8650   17.2490  -34.7440 C   0  0  0  0  0  0  0  0  0  0  0  0
   -0.6131   17.6778  -34.2057 H   0  0  0  0  0  0  0  0  0  0  0  0
   -1.4306   16.8699  -35.5862 H   0  0  0  0  0  0  0  0  0  0  0  0
   -1.2199   18.6538  -35.5862 H   0  0  0  0  0  0  0  0  0  0  0  0
   -1.9860   19.3605  -32.8148 H   0  0  0  0  0  0  0  0  0  0  0  0
   -4.1983   19.6654  -31.7056 H   0  0  0  0  0  0  0  0  0  0  0  0
   -5.0751   20.6043  -31.3053 H   0  0  0  0  0  0  0  0  0  0  0  0
   -4.1216   21.9684  -29.2619 H   0  0  0  0  0  0  0  0  0  0  0  0
   -2.6364   24.1592  -27.7624 H   0  0  0  0  0  0  0  0  0  0  0  0
   -1.5135   23.4395  -28.9657 H   0  0  0  0  0  0  0  0  0  0  0  0
   -1.8154   25.2103  -28.9657 H   0  0  0  0  0  0  0  0  0  0  0  0
   -7.6873   24.0502  -31.3947 H   0  0  0  0  0  0  0  0  0  0  0  0
   -9.5410   22.6251  -32.2358 H   0  0  0  0  0  0  0  0  0  0  0  0
  -10.4320   20.1850  -32.3630 H   0  0  0  0  0  0  0  0  0  0  0  0
   -9.3610   19.2800  -33.4560 H   0  0  0  0  0  0  0  0  0  0  0  0
   -5.9855   16.8813  -34.4969 H   0  0  0  0  0  0  0  0  0  0  0  0
   -3.7764   16.5784  -35.6115 H   0  0  0  0  0  0  0  0  0  0  0  0
  1  2  1  0
  2  3  2  0
  3  4  1  0
  4  5  2  0
  5  6  1  0
  6  7  2  0
  6  8  2  0
  6  9  1  0
  9 10  2  0
 10 11  1  0
 11 12  1  0
 12 13  2  0
 13 14  1  0
 14 15  1  0
 14 16  2  0
 16 17  1  0
 11 18  2  0
 18 19  1  0
 19 20  2  0
 20 21  1  0
  5 22  1  0
 22 23  2  0
 23  2  1  0
 20  9  1  0
 17 12  1  0
  1 24  1  0
  1 25  1  0
  1 26  1  0
  3 27  1  0
  4 28  1  0
 10 29  1  0
 13 30  1  0
 15 31  1  0
 15 32  1  0
 15 33  1  0
 18 34  1  0
 19 35  1  0
 21 36  1  0
 21 37  1  0
 22 38  1  0
 23 39  1  0
M  END
>  <UniqueID>  (27) 
23

>  <SMILES>  (27) 
Cc1ccc(S(=O)(=O)c2cc(-c3cc(C)no3)ccc2N)cc1

>  <Energy>  (27) 
73.60831397388081

>  <Genealogy>  (27) 
Cc1ccc(S(=O)(=O)c2cc(-c3cc(C)no3)ccc2N)cc1 (3D coordinates assigned)
Cc1ccc(S(=O)(=O)c2cc(-c3cc(C)no3)ccc2N)cc1 (optimized conformer: 73.60831397388081 kcal/mol)

>  <smiles>  (27) 
Cc1ccc(S(=O)(=O)c2cc(-c3cc(C)no3)ccc2N)cc1

>  <score_type>  (27) 
oracle

>  <origin>  (27) 
adgpu

>  <m_score__min__energy>  (27) 
-9

>  <m_primary>  (27) 
energy

$$$$
27:0
     RDKit          3D

 55 58  0  0  0  0  0  0  0  0999 V2000
   -1.4270   25.6790  -29.0840 O   0  0  0  0  0  0  0  0  0  0  0  0
   -1.7920   24.3190  -28.5590 S   0  0  0  0  0  0  0  0  0  0  0  0
   -0.6920   23.3650  -28.9320 O   0  0  0  0  0  0  0  0  0  0  0  0
   -3.2960   23.7910  -29.3240 C   0  0  0  0  0  0  0  0  0  0  0  0
   -4.4490   24.5790  -29.2310 C   0  0  0  0  0  0  0  0  0  0  0  0
   -5.6390   24.1610  -29.8320 C   0  0  0  0  0  0  0  0  0  0  0  0
   -5.6930   22.9490  -30.5370 C   0  0  0  0  0  0  0  0  0  0  0  0
   -6.9430   22.5020  -31.0900 N   0  0  0  0  0  0  0  0  0  0  0  0
   -7.8540   23.3710  -31.8160 C   0  0  0  0  0  0  0  0  0  0  0  0
   -9.1410   22.5710  -31.9790 C   0  0  0  0  0  0  0  0  0  0  0  0
   -8.7800   21.1230  -31.6550 C   0  0  0  0  0  0  0  0  0  0  0  0
   -7.5060   21.1890  -30.8270 C   0  0  0  0  0  0  0  0  0  0  0  0
   -4.5260   22.1620  -30.6470 C   0  0  0  0  0  0  0  0  0  0  0  0
   -4.5210   20.9420  -31.3980 N   0  0  0  0  0  0  0  0  0  0  0  0
   -3.6670   20.7350  -32.5400 C   0  0  0  0  0  0  0  0  0  0  0  0
   -2.2440   21.5420  -32.6630 S   0  0  0  0  0  0  0  0  0  0  0  0
   -4.0890   19.9070  -33.6330 N   0  0  0  0  0  0  0  0  0  0  0  0
   -5.1100   18.9060  -33.5320 C   0  0  0  0  0  0  0  0  0  0  0  0
   -6.4090   19.2430  -33.1140 C   0  0  0  0  0  0  0  0  0  0  0  0
   -7.3870   18.2500  -32.9910 C   0  0  0  0  0  0  0  0  0  0  0  0
   -7.0690   16.9170  -33.2650 C   0  0  0  0  0  0  0  0  0  0  0  0
   -5.7720   16.5740  -33.6560 C   0  0  0  0  0  0  0  0  0  0  0  0
   -4.7920   17.5630  -33.7800 C   0  0  0  0  0  0  0  0  0  0  0  0
   -3.3450   22.5750  -30.0170 C   0  0  0  0  0  0  0  0  0  0  0  0
   -1.9110   24.3950  -26.8160 N   0  0  0  0  0  0  0  0  0  0  0  0
   -0.7430   23.8130  -26.1590 C   0  0  0  0  0  0  0  0  0  0  0  0
   -0.6490   24.4690  -24.7910 C   0  0  0  0  0  0  0  0  0  0  0  0
   -1.4580   25.7520  -24.9040 C   0  0  0  0  0  0  0  0  0  0  0  0
   -1.9860   25.7720  -26.3310 C   0  0  0  0  0  0  0  0  0  0  0  0
   -4.4181   25.5318  -28.6822 H   0  0  0  0  0  0  0  0  0  0  0  0
   -6.5402   24.7866  -29.7519 H   0  0  0  0  0  0  0  0  0  0  0  0
   -8.0439   24.2915  -31.2446 H   0  0  0  0  0  0  0  0  0  0  0  0
   -7.4383   23.6757  -32.7878 H   0  0  0  0  0  0  0  0  0  0  0  0
   -9.9100   22.9381  -31.2834 H   0  0  0  0  0  0  0  0  0  0  0  0
   -9.5490   22.6668  -32.9960 H   0  0  0  0  0  0  0  0  0  0  0  0
   -9.5870   20.6467  -31.0789 H   0  0  0  0  0  0  0  0  0  0  0  0
   -8.6387   20.5268  -32.5686 H   0  0  0  0  0  0  0  0  0  0  0  0
   -7.7359   21.0760  -29.7572 H   0  0  0  0  0  0  0  0  0  0  0  0
   -6.8050   20.3831  -31.0897 H   0  0  0  0  0  0  0  0  0  0  0  0
   -5.1860   20.1980  -31.0980 H   0  0  0  0  0  0  0  0  0  0  0  0
   -3.6980   20.1110  -34.5820 H   0  0  0  0  0  0  0  0  0  0  0  0
   -6.6572   20.2895  -32.8831 H   0  0  0  0  0  0  0  0  0  0  0  0
   -8.4069   18.5187  -32.6784 H   0  0  0  0  0  0  0  0  0  0  0  0
   -7.8398   16.1377  -33.1729 H   0  0  0  0  0  0  0  0  0  0  0  0
   -5.5218   15.5237  -33.8666 H   0  0  0  0  0  0  0  0  0  0  0  0
   -3.7683   17.2869  -34.0730 H   0  0  0  0  0  0  0  0  0  0  0  0
   -2.4488   21.9391  -30.0670 H   0  0  0  0  0  0  0  0  0  0  0  0
   -0.8693   22.7256  -26.0516 H   0  0  0  0  0  0  0  0  0  0  0  0
    0.1712   23.9832  -26.7466 H   0  0  0  0  0  0  0  0  0  0  0  0
   -1.0750   23.8118  -24.0186 H   0  0  0  0  0  0  0  0  0  0  0  0
    0.3938   24.6662  -24.5018 H   0  0  0  0  0  0  0  0  0  0  0  0
   -2.2909   25.7464  -24.1855 H   0  0  0  0  0  0  0  0  0  0  0  0
   -0.8494   26.6406  -24.6804 H   0  0  0  0  0  0  0  0  0  0  0  0
   -3.0277   26.1251  -26.3467 H   0  0  0  0  0  0  0  0  0  0  0  0
   -1.3979   26.4517  -26.9652 H   0  0  0  0  0  0  0  0  0  0  0  0
  1  2  2  0
  2  3  2  0
  2  4  1  0
  4  5  2  0
  5  6  1  0
  6  7  2  0
  7  8  1  0
  8  9  1  0
  9 10  1  0
 10 11  1  0
 11 12  1  0
  7 13  1  0
 13 14  1  0
 14 15  1  0
 15 16  2  0
 15 17  1  0
 17 18  1  0
 18 19  2  0
 19 20  1  0
 20 21  2  0
 21 22  1  0
 22 23  2  0
 13 24  2  0
  2 25  1  0
 25 26  1  0
 26 27  1  0
 27 28  1  0
 28 29  1  0
 24  4  1  0
 29 25  1  0
 12  8  1  0
 23 18  1  0
  5 30  1  0
  6 31  1  0
  9 32  1  0
  9 33  1  0
 10 34  1  0
 10 35  1  0
 11 36  1  0
 11 37  1  0
 12 38  1  0
 12 39  1  0
 14 40  1  0
 17 41  1  0
 19 42  1  0
 20 43  1  0
 21 44  1  0
 22 45  1  0
 23 46  1  0
 24 47  1  0
 26 48  1  0
 26 49  1  0
 27 50  1  0
 27 51  1  0
 28 52  1  0
 28 53  1  0
 29 54  1  0
 29 55  1  0
M  END
>  <UniqueID>  (28) 
24

>  <SMILES>  (28) 
O=S(=O)(c1ccc(N2CCCC2)c(NC(=S)Nc2ccccc2)c1)N1CCCC1

>  <Energy>  (28) 
72.69898446366818

>  <Genealogy>  (28) 
O=S(=O)(c1ccc(N2CCCC2)c(NC(=S)Nc2ccccc2)c1)N1CCCC1 (3D coordinates assigned)
O=S(=O)(c1ccc(N2CCCC2)c(NC(=S)Nc2ccccc2)c1)N1CCCC1 (nonaromatic ring conformer: 72.69898446366818 kcal/mol)

>  <smiles>  (28) 
O=S(=O)(c1ccc(N2CCCC2)c(NC(=S)Nc2ccccc2)c1)N1CCCC1

>  <score_type>  (28) 
oracle

>  <origin>  (28) 
adgpu

>  <m_score__min__energy>  (28) 
-9.5

>  <m_primary>  (28) 
energy

$$$$
28:0
     RDKit          3D

 45 48  0  0  0  0  0  0  0  0999 V2000
   -2.2650   20.7080  -29.5550 C   0  0  0  0  0  0  0  0  0  0  0  0
   -2.2160   20.5850  -31.0500 C   0  0  0  0  0  0  0  0  0  0  0  0
   -1.2460   21.2860  -31.7830 C   0  0  0  0  0  0  0  0  0  0  0  0
   -1.2190   21.2000  -33.1760 C   0  0  0  0  0  0  0  0  0  0  0  0
   -2.1720   20.4330  -33.8490 C   0  0  0  0  0  0  0  0  0  0  0  0
   -3.1710   19.7540  -33.1320 C   0  0  0  0  0  0  0  0  0  0  0  0
   -4.1920   18.9570  -33.8410 C   0  0  0  0  0  0  0  0  0  0  0  0
   -3.9560   17.8600  -34.6460 C   0  0  0  0  0  0  0  0  0  0  0  0
   -5.1240   17.4170  -35.1500 N   0  0  0  0  0  0  0  0  0  0  0  0
   -6.0910   18.1910  -34.6870 N   0  0  0  0  0  0  0  0  0  0  0  0
   -5.5690   19.1390  -33.8830 C   0  0  0  0  0  0  0  0  0  0  0  0
   -6.3690   20.0950  -33.0850 C   0  0  0  0  0  0  0  0  0  0  0  0
   -7.7560   19.9480  -32.9460 C   0  0  0  0  0  0  0  0  0  0  0  0
   -8.4640   20.8610  -32.1660 C   0  0  0  0  0  0  0  0  0  0  0  0
   -7.7950   21.9100  -31.5320 C   0  0  0  0  0  0  0  0  0  0  0  0
   -6.4020   22.0390  -31.6870 C   0  0  0  0  0  0  0  0  0  0  0  0
   -5.6600   23.1170  -31.0630 N   0  0  0  0  0  0  0  0  0  0  0  0
   -4.1910   23.0820  -31.0020 C   0  0  0  0  0  0  0  0  0  0  0  0
   -3.6430   24.2440  -30.1680 C   0  0  0  0  0  0  0  0  0  0  0  0
   -4.2370   25.5140  -30.6010 N   0  0  0  0  0  0  0  0  0  0  0  0
   -5.7120   25.5400  -30.5110 C   0  0  0  0  0  0  0  0  0  0  0  0
   -6.3690   24.1610  -30.3030 C   0  0  0  0  0  0  0  0  0  0  0  0
   -5.7450   21.1240  -32.4510 N   0  0  0  0  0  0  0  0  0  0  0  0
   -3.1800   19.8250  -31.7310 C   0  0  0  0  0  0  0  0  0  0  0  0
   -1.8947   19.7784  -29.0983 H   0  0  0  0  0  0  0  0  0  0  0  0
   -1.6338   21.5503  -29.2355 H   0  0  0  0  0  0  0  0  0  0  0  0
   -3.3025   20.8855  -29.2355 H   0  0  0  0  0  0  0  0  0  0  0  0
   -0.5042   21.9056  -31.2578 H   0  0  0  0  0  0  0  0  0  0  0  0
   -0.4456   21.7374  -33.7444 H   0  0  0  0  0  0  0  0  0  0  0  0
   -2.1403   20.3601  -34.9461 H   0  0  0  0  0  0  0  0  0  0  0  0
   -2.9688   17.4173  -34.8445 H   0  0  0  0  0  0  0  0  0  0  0  0
   -7.1010   18.0360  -34.8960 H   0  0  0  0  0  0  0  0  0  0  0  0
   -8.2803   19.1209  -33.4471 H   0  0  0  0  0  0  0  0  0  0  0  0
   -9.5527   20.7548  -32.0496 H   0  0  0  0  0  0  0  0  0  0  0  0
   -8.3528   22.6305  -30.9157 H   0  0  0  0  0  0  0  0  0  0  0  0
   -3.8734   22.1324  -30.5465 H   0  0  0  0  0  0  0  0  0  0  0  0
   -3.7978   23.1722  -32.0254 H   0  0  0  0  0  0  0  0  0  0  0  0
   -3.8846   24.0743  -29.1084 H   0  0  0  0  0  0  0  0  0  0  0  0
   -2.5529   24.2967  -30.3053 H   0  0  0  0  0  0  0  0  0  0  0  0
   -3.9550   25.6860  -31.5950 H   0  0  0  0  0  0  0  0  0  0  0  0
   -5.9923   26.1843  -29.6646 H   0  0  0  0  0  0  0  0  0  0  0  0
   -6.0758   25.9147  -31.4791 H   0  0  0  0  0  0  0  0  0  0  0  0
   -6.3419   23.9076  -29.2329 H   0  0  0  0  0  0  0  0  0  0  0  0
   -7.4077   24.2106  -30.6618 H   0  0  0  0  0  0  0  0  0  0  0  0
   -3.9482   19.2811  -31.1618 H   0  0  0  0  0  0  0  0  0  0  0  0
  1  2  1  0
  2  3  2  0
  3  4  1  0
  4  5  2  0
  5  6  1  0
  6  7  1  0
  7  8  1  0
  8  9  2  0
  9 10  1  0
 10 11  1  0
 11 12  1  0
 12 13  2  0
 13 14  1  0
 14 15  2  0
 15 16  1  0
 16 17  1  0
 17 18  1  0
 18 19  1  0
 19 20  1  0
 20 21  1  0
 21 22  1  0
 16 23  2  0
  6 24  2  0
 24  2  1  0
 11  7  2  0
 23 12  1  0
 22 17  1  0
  1 25  1  0
  1 26  1  0
  1 27  1  0
  3 28  1  0
  4 29  1  0
  5 30  1  0
  8 31  1  0
 10 32  1  0
 13 33  1  0
 14 34  1  0
 15 35  1  0
 18 36  1  0
 18 37  1  0
 19 38  1  0
 19 39  1  0
 20 40  1  0
 21 41  1  0
 21 42  1  0
 22 43  1  0
 22 44  1  0
 24 45  1  0
M  END
>  <UniqueID>  (29) 
25

>  <SMILES>  (29) 
Cc1cccc(-c2cn[nH]c2-c2cccc(N3CCNCC3)n2)c1

>  <Energy>  (29) 
88.93461192984664

>  <Genealogy>  (29) 
Cc1cccc(-c2cn[nH]c2-c2cccc(N3CCNCC3)n2)c1 (3D coordinates assigned)
Cc1cccc(-c2cn[nH]c2-c2cccc(N3CCNCC3)n2)c1 (nonaromatic ring conformer: 88.93461192984664 kcal/mol)

>  <smiles>  (29) 
Cc1cccc(-c2cn[nH]c2-c2cccc(N3CCNCC3)n2)c1

>  <score_type>  (29) 
oracle

>  <origin>  (29) 
adgpu

>  <m_score__min__energy>  (29) 
-9.1999999999999993

>  <m_primary>  (29) 
energy

$$$$
29:0
     RDKit          3D

 44 46  0  0  0  0  0  0  0  0999 V2000
    1.3400   28.0990  -24.0930 C   0  0  0  0  0  0  0  0  0  0  0  0
    1.1750   26.8030  -23.4040 N   0  0  0  0  0  0  0  0  0  0  0  0
    1.8730   25.7140  -24.1240 C   0  0  0  0  0  0  0  0  0  0  0  0
    1.2210   25.4250  -25.4840 C   0  0  0  0  0  0  0  0  0  0  0  0
   -0.2420   25.4090  -25.3740 N   0  0  0  0  0  0  0  0  0  0  0  0
   -1.0350   25.1250  -26.5450 C   0  0  0  0  0  0  0  0  0  0  0  0
   -0.4580   25.1670  -27.8250 C   0  0  0  0  0  0  0  0  0  0  0  0
   -1.2290   24.8940  -28.9590 C   0  0  0  0  0  0  0  0  0  0  0  0
   -2.5850   24.5590  -28.8310 C   0  0  0  0  0  0  0  0  0  0  0  0
   -3.3970   24.2900  -30.0340 C   0  0  0  0  0  0  0  0  0  0  0  0
   -3.9200   25.2610  -30.6440 O   0  0  0  0  0  0  0  0  0  0  0  0
   -3.5950   22.9520  -30.5280 N   0  0  0  0  0  0  0  0  0  0  0  0
   -2.6320   21.8750  -30.3540 C   0  0  0  0  0  0  0  0  0  0  0  0
   -3.2070   20.6830  -31.1060 C   0  0  0  0  0  0  0  0  0  0  0  0
   -4.2740   21.2490  -32.0380 C   0  0  0  0  0  0  0  0  0  0  0  0
   -4.6450   22.6140  -31.4750 C   0  0  0  0  0  0  0  0  0  0  0  0
   -3.1680   24.5360  -27.5550 C   0  0  0  0  0  0  0  0  0  0  0  0
   -2.3990   24.8110  -26.4200 C   0  0  0  0  0  0  0  0  0  0  0  0
   -0.8620   25.4060  -24.0450 C   0  0  0  0  0  0  0  0  0  0  0  0
   -0.2620   26.5060  -23.1430 C   0  0  0  0  0  0  0  0  0  0  0  0
    1.4421   28.9006  -23.3467 H   0  0  0  0  0  0  0  0  0  0  0  0
    2.2414   28.0673  -24.7227 H   0  0  0  0  0  0  0  0  0  0  0  0
    0.4595   28.2942  -24.7227 H   0  0  0  0  0  0  0  0  0  0  0  0
    1.6530   26.9020  -22.4760 H   0  0  0  0  0  0  0  0  0  0  0  0
    2.9207   26.0076  -24.2859 H   0  0  0  0  0  0  0  0  0  0  0  0
    1.8099   24.8021  -23.5121 H   0  0  0  0  0  0  0  0  0  0  0  0
    1.5193   26.2060  -26.1989 H   0  0  0  0  0  0  0  0  0  0  0  0
    1.5568   24.4364  -25.8301 H   0  0  0  0  0  0  0  0  0  0  0  0
    0.6076   25.4163  -27.9360 H   0  0  0  0  0  0  0  0  0  0  0  0
   -0.7695   24.9422  -29.9573 H   0  0  0  0  0  0  0  0  0  0  0  0
   -1.6570   22.1605  -30.7757 H   0  0  0  0  0  0  0  0  0  0  0  0
   -2.4687   21.6441  -29.2910 H   0  0  0  0  0  0  0  0  0  0  0  0
   -2.4191   20.1813  -31.6870 H   0  0  0  0  0  0  0  0  0  0  0  0
   -3.6288   19.9369  -30.4165 H   0  0  0  0  0  0  0  0  0  0  0  0
   -3.8745   21.3523  -33.0577 H   0  0  0  0  0  0  0  0  0  0  0  0
   -5.1501   20.5863  -32.0955 H   0  0  0  0  0  0  0  0  0  0  0  0
   -4.6888   23.3614  -32.2809 H   0  0  0  0  0  0  0  0  0  0  0  0
   -5.6338   22.5976  -30.9934 H   0  0  0  0  0  0  0  0  0  0  0  0
   -4.2369   24.3001  -27.4468 H   0  0  0  0  0  0  0  0  0  0  0  0
   -2.8644   24.7814  -25.4237 H   0  0  0  0  0  0  0  0  0  0  0  0
   -1.9425   25.5815  -24.1534 H   0  0  0  0  0  0  0  0  0  0  0  0
   -0.6712   24.4298  -23.5753 H   0  0  0  0  0  0  0  0  0  0  0  0
   -0.8378   27.4302  -23.2989 H   0  0  0  0  0  0  0  0  0  0  0  0
   -0.3217   26.1313  -22.1105 H   0  0  0  0  0  0  0  0  0  0  0  0
  1  2  1  0
  2  3  1  0
  3  4  1  0
  4  5  1  0
  5  6  1  0
  6  7  2  0
  7  8  1  0
  8  9  2  0
  9 10  1  0
 10 11  2  0
 10 12  1  0
 12 13  1  0
 13 14  1  0
 14 15  1  0
 15 16  1  0
  9 17  1  0
 17 18  2  0
  5 19  1  0
 19 20  1  0
 20  2  1  0
 18  6  1  0
 16 12  1  0
  1 21  1  0
  1 22  1  0
  1 23  1  0
  2 24  1  0
  3 25  1  0
  3 26  1  0
  4 27  1  0
  4 28  1  0
  7 29  1  0
  8 30  1  0
 13 31  1  0
 13 32  1  0
 14 33  1  0
 14 34  1  0
 15 35  1  0
 15 36  1  0
 16 37  1  0
 16 38  1  0
 17 39  1  0
 18 40  1  0
 19 41  1  0
 19 42  1  0
 20 43  1  0
 20 44  1  0
M  CHG  1   2   1
M  END
>  <UniqueID>  (30) 
26

>  <SMILES>  (30) 
C[NH+]1CCN(c2ccc(C(=O)N3CCCC3)cc2)CC1

>  <Energy>  (30) 
59.90951986544511

>  <Genealogy>  (30) 
C[NH+]1CCN(c2ccc(C(=O)N3CCCC3)cc2)CC1 (protonated)
C[NH+]1CCN(c2ccc(C(=O)N3CCCC3)cc2)CC1 (3D coordinates assigned)
C[NH+]1CCN(c2ccc(C(=O)N3CCCC3)cc2)CC1 (nonaromatic ring conformer: 59.90951986544511 kcal/mol)

>  <smiles>  (30) 
CN1CCN(c2ccc(C(=O)N3CCCC3)cc2)CC1

>  <score_type>  (30) 
oracle

>  <origin>  (30) 
adgpu

>  <m_score__min__energy>  (30) 
-7

>  <m_primary>  (30) 
energy

$$$$
30:0
     RDKit          3D

 43 45  0  0  0  0  0  0  0  0999 V2000
   -3.9330   20.6130  -30.5230 C   0  0  0  0  0  0  0  0  0  0  0  0
   -3.4790   21.9640  -30.0330 C   0  0  0  0  0  0  0  0  0  0  0  0
   -2.5760   22.0150  -28.9610 C   0  0  0  0  0  0  0  0  0  0  0  0
   -2.0990   23.2340  -28.4880 C   0  0  0  0  0  0  0  0  0  0  0  0
   -2.5230   24.4340  -29.0690 C   0  0  0  0  0  0  0  0  0  0  0  0
   -1.9730   25.6850  -28.6310 N   0  0  0  0  0  0  0  0  0  0  0  0
   -1.2950   25.8550  -27.0450 S   0  0  0  0  0  0  0  0  0  0  0  0
   -2.1370   25.0910  -26.0630 O   0  0  0  0  0  0  0  0  0  0  0  0
   -1.2810   27.3070  -26.6580 O   0  0  0  0  0  0  0  0  0  0  0  0
    0.3610   25.2520  -27.0540 C   0  0  0  0  0  0  0  0  0  0  0  0
    1.4290   26.1610  -27.0770 C   0  0  0  0  0  0  0  0  0  0  0  0
    2.7480   25.6970  -27.1290 C   0  0  0  0  0  0  0  0  0  0  0  0
    3.0040   24.3230  -27.1520 C   0  0  0  0  0  0  0  0  0  0  0  0
    4.2820   23.8730  -27.2030 F   0  0  0  0  0  0  0  0  0  0  0  0
    1.9420   23.4120  -27.1240 C   0  0  0  0  0  0  0  0  0  0  0  0
    0.6230   23.8750  -27.0760 C   0  0  0  0  0  0  0  0  0  0  0  0
   -3.4530   24.4040  -30.1210 C   0  0  0  0  0  0  0  0  0  0  0  0
   -3.8480   25.6050  -30.7020 O   0  0  0  0  0  0  0  0  0  0  0  0
   -3.9480   23.1740  -30.6090 C   0  0  0  0  0  0  0  0  0  0  0  0
   -5.0450   23.1560  -32.0110 S   0  0  0  0  0  0  0  0  0  0  0  0
   -4.3450   22.6740  -33.2510 O   0  0  0  0  0  0  0  0  0  0  0  0
   -5.5410   24.5510  -32.2710 O   0  0  0  0  0  0  0  0  0  0  0  0
   -6.3970   22.0800  -31.6680 C   0  0  0  0  0  0  0  0  0  0  0  0
   -6.4780   20.8230  -32.2840 C   0  0  0  0  0  0  0  0  0  0  0  0
   -7.5590   19.9770  -32.0150 C   0  0  0  0  0  0  0  0  0  0  0  0
   -8.5610   20.3820  -31.1280 C   0  0  0  0  0  0  0  0  0  0  0  0
   -8.4830   21.6310  -30.5070 C   0  0  0  0  0  0  0  0  0  0  0  0
   -7.4010   22.4780  -30.7720 C   0  0  0  0  0  0  0  0  0  0  0  0
   -4.1509   19.9647  -29.6615 H   0  0  0  0  0  0  0  0  0  0  0  0
   -4.8411   20.7302  -31.1326 H   0  0  0  0  0  0  0  0  0  0  0  0
   -3.1384   20.1580  -31.1326 H   0  0  0  0  0  0  0  0  0  0  0  0
   -2.2407   21.0801  -28.4883 H   0  0  0  0  0  0  0  0  0  0  0  0
   -1.3842   23.2540  -27.6522 H   0  0  0  0  0  0  0  0  0  0  0  0
   -1.7250   26.4130  -29.3370 H   0  0  0  0  0  0  0  0  0  0  0  0
    1.2289   27.2424  -27.0541 H   0  0  0  0  0  0  0  0  0  0  0  0
    3.5828   26.4129  -27.1518 H   0  0  0  0  0  0  0  0  0  0  0  0
    2.1447   22.3310  -27.1398 H   0  0  0  0  0  0  0  0  0  0  0  0
   -0.2103   23.1573  -27.0555 H   0  0  0  0  0  0  0  0  0  0  0  0
   -5.6896   20.5014  -32.9804 H   0  0  0  0  0  0  0  0  0  0  0  0
   -7.6208   18.9924  -32.5016 H   0  0  0  0  0  0  0  0  0  0  0  0
   -9.4116   19.7166  -30.9189 H   0  0  0  0  0  0  0  0  0  0  0  0
   -9.2722   21.9487  -29.8097 H   0  0  0  0  0  0  0  0  0  0  0  0
   -7.3374   23.4581  -30.2768 H   0  0  0  0  0  0  0  0  0  0  0  0
  1  2  1  0
  2  3  2  0
  3  4  1  0
  4  5  2  0
  5  6  1  0
  6  7  1  0
  7  8  2  0
  7  9  2  0
  7 10  1  0
 10 11  2  0
 11 12  1  0
 12 13  2  0
 13 14  1  0
 13 15  1  0
 15 16  2  0
  5 17  1  0
 17 18  1  0
 17 19  2  0
 19 20  1  0
 20 21  2  0
 20 22  2  0
 20 23  1  0
 23 24  2  0
 24 25  1  0
 25 26  2  0
 26 27  1  0
 27 28  2  0
 19  2  1  0
 28 23  1  0
 16 10  1  0
  1 29  1  0
  1 30  1  0
  1 31  1  0
  3 32  1  0
  4 33  1  0
  6 34  1  0
 11 35  1  0
 12 36  1  0
 15 37  1  0
 16 38  1  0
 24 39  1  0
 25 40  1  0
 26 41  1  0
 27 42  1  0
 28 43  1  0
M  CHG  1  18  -1
M  END
>  <UniqueID>  (31) 
27

>  <SMILES>  (31) 
Cc1ccc(NS(=O)(=O)c2ccc(F)cc2)c([O-])c1S(=O)(=O)c1ccccc1

>  <Energy>  (31) 
54.19591137052767

>  <Genealogy>  (31) 
Cc1ccc(NS(=O)(=O)c2ccc(F)cc2)c([O-])c1S(=O)(=O)c1ccccc1 (protonated)
Cc1ccc(NS(=O)(=O)c2ccc(F)cc2)c([O-])c1S(=O)(=O)c1ccccc1 (3D coordinates assigned)
Cc1ccc(NS(=O)(=O)c2ccc(F)cc2)c([O-])c1S(=O)(=O)c1ccccc1 (optimized conformer: 54.19591137052767 kcal/mol)

>  <smiles>  (31) 
Cc1ccc(NS(=O)(=O)c2ccc(F)cc2)c(O)c1S(=O)(=O)c1ccccc1

>  <score_type>  (31) 
oracle

>  <origin>  (31) 
adgpu

>  <m_score__min__energy>  (31) 
-13.09

>  <m_primary>  (31) 
energy

$$$$
31:0
     RDKit          3D

 38 40  0  0  0  0  0  0  0  0999 V2000
   -8.7460   22.6830  -31.5910 C   0  0  0  0  0  0  0  0  0  0  0  0
   -7.6360   21.7970  -32.0720 C   0  0  0  0  0  0  0  0  0  0  0  0
   -6.3440   22.1880  -32.4000 C   0  0  0  0  0  0  0  0  0  0  0  0
   -5.8080   23.5190  -32.3620 N   0  0  0  0  0  0  0  0  0  0  0  0
   -5.4290   24.3190  -30.8740 S   0  0  0  0  0  0  0  0  0  0  0  0
   -6.7070   24.7120  -30.1840 O   0  0  0  0  0  0  0  0  0  0  0  0
   -4.6200   25.5580  -31.1530 O   0  0  0  0  0  0  0  0  0  0  0  0
   -4.5480   23.2210  -29.8280 C   0  0  0  0  0  0  0  0  0  0  0  0
   -4.6000   23.2250  -28.4460 C   0  0  0  0  0  0  0  0  0  0  0  0
   -3.7980   22.2360  -27.8680 C   0  0  0  0  0  0  0  0  0  0  0  0
   -3.1180   21.4580  -28.7950 C   0  0  0  0  0  0  0  0  0  0  0  0
   -3.5120   22.0010  -30.3360 S   0  0  0  0  0  0  0  0  0  0  0  0
   -5.6990   21.0190  -32.7510 C   0  0  0  0  0  0  0  0  0  0  0  0
   -4.4980   20.9130  -33.1170 O   0  0  0  0  0  0  0  0  0  0  0  0
   -6.5540   19.9810  -32.6390 N   0  0  0  0  0  0  0  0  0  0  0  0
   -6.2380   18.6000  -32.8890 C   0  0  0  0  0  0  0  0  0  0  0  0
   -6.0960   18.1350  -34.2060 C   0  0  0  0  0  0  0  0  0  0  0  0
   -5.7810   16.7970  -34.4510 C   0  0  0  0  0  0  0  0  0  0  0  0
   -5.6010   15.9150  -33.3850 C   0  0  0  0  0  0  0  0  0  0  0  0
   -5.7300   16.3720  -32.0720 C   0  0  0  0  0  0  0  0  0  0  0  0
   -6.0420   17.7110  -31.8220 C   0  0  0  0  0  0  0  0  0  0  0  0
   -7.7350   20.4540  -32.2430 N   0  0  0  0  0  0  0  0  0  0  0  0
   -8.9400   19.6490  -32.0180 C   0  0  0  0  0  0  0  0  0  0  0  0
   -8.7574   22.6921  -30.4911 H   0  0  0  0  0  0  0  0  0  0  0  0
   -8.5871   23.7054  -31.9645 H   0  0  0  0  0  0  0  0  0  0  0  0
   -9.7077   22.3015  -31.9645 H   0  0  0  0  0  0  0  0  0  0  0  0
   -5.7920   24.0940  -33.2340 H   0  0  0  0  0  0  0  0  0  0  0  0
   -5.2083   23.9319  -27.8627 H   0  0  0  0  0  0  0  0  0  0  0  0
   -3.7139   22.0884  -26.7812 H   0  0  0  0  0  0  0  0  0  0  0  0
   -2.4366   20.6268  -28.5607 H   0  0  0  0  0  0  0  0  0  0  0  0
   -6.2336   18.8281  -35.0490 H   0  0  0  0  0  0  0  0  0  0  0  0
   -5.6747   16.4380  -35.4853 H   0  0  0  0  0  0  0  0  0  0  0  0
   -5.3575   14.8600  -33.5789 H   0  0  0  0  0  0  0  0  0  0  0  0
   -5.5857   15.6763  -31.2323 H   0  0  0  0  0  0  0  0  0  0  0  0
   -6.1341   18.0687  -30.7859 H   0  0  0  0  0  0  0  0  0  0  0  0
   -9.1090   19.5361  -30.9369 H   0  0  0  0  0  0  0  0  0  0  0  0
   -9.8064   20.1504  -32.4742 H   0  0  0  0  0  0  0  0  0  0  0  0
   -8.8085   18.6567  -32.4742 H   0  0  0  0  0  0  0  0  0  0  0  0
  1  2  1  0
  2  3  2  0
  3  4  1  0
  4  5  1  0
  5  6  2  0
  5  7  2  0
  5  8  1  0
  8  9  2  0
  9 10  1  0
 10 11  2  0
 11 12  1  0
  3 13  1  0
 13 14  2  0
 13 15  1  0
 15 16  1  0
 16 17  2  0
 17 18  1  0
 18 19  2  0
 19 20  1  0
 20 21  2  0
 15 22  1  0
 22 23  1  0
 22  2  1  0
 12  8  1  0
 21 16  1  0
  1 24  1  0
  1 25  1  0
  1 26  1  0
  4 27  1  0
  9 28  1  0
 10 29  1  0
 11 30  1  0
 17 31  1  0
 18 32  1  0
 19 33  1  0
 20 34  1  0
 21 35  1  0
 23 36  1  0
 23 37  1  0
 23 38  1  0
M  END
>  <UniqueID>  (32) 
28

>  <SMILES>  (32) 
Cc1c(NS(=O)(=O)c2cccs2)c(=O)n(-c2ccccc2)n1C

>  <Energy>  (32) 
109.85661449614564

>  <Genealogy>  (32) 
Cc1c(NS(=O)(=O)c2cccs2)c(=O)n(-c2ccccc2)n1C (3D coordinates assigned)
Cc1c(NS(=O)(=O)c2cccs2)c(=O)n(-c2ccccc2)n1C (optimized conformer: 109.85661449614564 kcal/mol)

>  <smiles>  (32) 
Cc1c(NS(=O)(=O)c2cccs2)c(=O)n(-c2ccccc2)n1C

>  <score_type>  (32) 
oracle

>  <origin>  (32) 
adgpu

>  <m_score__min__energy>  (32) 
-8.4499999999999993

>  <m_primary>  (32) 
energy

$$$$
32:0
     RDKit          3D

 48 50  0  0  0  0  0  0  0  0999 V2000
   -4.9990   14.8690  -34.1910 C   0  0  0  0  0  0  0  0  0  0  0  0
   -4.8290   16.3460  -34.0690 C   0  0  0  0  0  0  0  0  0  0  0  0
   -5.8190   17.2470  -33.7260 C   0  0  0  0  0  0  0  0  0  0  0  0
   -5.1690   18.4680  -33.6810 C   0  0  0  0  0  0  0  0  0  0  0  0
   -5.8070   19.7700  -33.3770 C   0  0  0  0  0  0  0  0  0  0  0  0
   -6.8740   20.0990  -33.9620 O   0  0  0  0  0  0  0  0  0  0  0  0
   -5.1970   20.6750  -32.4410 N   0  0  0  0  0  0  0  0  0  0  0  0
   -5.8910   21.7760  -31.8280 C   0  0  0  0  0  0  0  0  0  0  0  0
   -7.2400   21.6690  -31.4490 C   0  0  0  0  0  0  0  0  0  0  0  0
   -7.8830   22.7410  -30.8300 C   0  0  0  0  0  0  0  0  0  0  0  0
   -7.1900   23.9270  -30.5730 C   0  0  0  0  0  0  0  0  0  0  0  0
   -5.8350   24.0490  -30.9270 C   0  0  0  0  0  0  0  0  0  0  0  0
   -5.0930   25.3020  -30.6480 C   0  0  0  0  0  0  0  0  0  0  0  0
   -5.7200   26.3900  -30.5270 O   0  0  0  0  0  0  0  0  0  0  0  0
   -3.6710   25.2680  -30.4620 N   0  0  0  0  0  0  0  0  0  0  0  0
   -2.9290   24.3070  -29.6980 C   0  0  0  0  0  0  0  0  0  0  0  0
   -2.5810   24.5290  -28.3540 C   0  0  0  0  0  0  0  0  0  0  0  0
   -1.8400   23.5730  -27.6510 C   0  0  0  0  0  0  0  0  0  0  0  0
   -1.4250   22.4000  -28.2870 C   0  0  0  0  0  0  0  0  0  0  0  0
   -1.7370   22.1840  -29.6360 C   0  0  0  0  0  0  0  0  0  0  0  0
   -1.2150   20.7070  -30.4410 S   0  0  0  0  0  0  0  0  0  0  0  0
   -0.5990   19.5620  -29.2300 C   0  0  0  0  0  0  0  0  0  0  0  0
   -2.3750   20.0920  -31.1730 O   0  0  0  0  0  0  0  0  0  0  0  0
   -0.1300   21.0220  -31.4330 O   0  0  0  0  0  0  0  0  0  0  0  0
   -2.4880   23.1390  -30.3360 C   0  0  0  0  0  0  0  0  0  0  0  0
   -5.1920   22.9610  -31.5480 C   0  0  0  0  0  0  0  0  0  0  0  0
   -3.8630   18.2680  -33.9760 N   0  0  0  0  0  0  0  0  0  0  0  0
   -2.8010   19.2680  -34.0380 C   0  0  0  0  0  0  0  0  0  0  0  0
   -3.6500   16.9810  -34.2050 N   0  0  0  0  0  0  0  0  0  0  0  0
   -5.0505   14.4217  -33.1874 H   0  0  0  0  0  0  0  0  0  0  0  0
   -5.9282   14.6508  -34.7378 H   0  0  0  0  0  0  0  0  0  0  0  0
   -4.1437   14.4454  -34.7378 H   0  0  0  0  0  0  0  0  0  0  0  0
   -6.8820   17.0407  -33.5327 H   0  0  0  0  0  0  0  0  0  0  0  0
   -4.1690   20.5940  -32.2760 H   0  0  0  0  0  0  0  0  0  0  0  0
   -7.7909   20.7365  -31.6412 H   0  0  0  0  0  0  0  0  0  0  0  0
   -8.9411   22.6523  -30.5427 H   0  0  0  0  0  0  0  0  0  0  0  0
   -7.7075   24.7696  -30.0911 H   0  0  0  0  0  0  0  0  0  0  0  0
   -2.8925   25.4577  -27.8534 H   0  0  0  0  0  0  0  0  0  0  0  0
   -1.5835   23.7451  -26.5953 H   0  0  0  0  0  0  0  0  0  0  0  0
   -0.8526   21.6451  -27.7280 H   0  0  0  0  0  0  0  0  0  0  0  0
   -0.8068   19.9482  -28.2212 H   0  0  0  0  0  0  0  0  0  0  0  0
   -1.0954   18.5890  -29.3595 H   0  0  0  0  0  0  0  0  0  0  0  0
    0.4865   19.4400  -29.3595 H   0  0  0  0  0  0  0  0  0  0  0  0
   -2.7333   22.9704  -31.3950 H   0  0  0  0  0  0  0  0  0  0  0  0
   -4.1284   23.0405  -31.8172 H   0  0  0  0  0  0  0  0  0  0  0  0
   -2.5022   19.5493  -33.0174 H   0  0  0  0  0  0  0  0  0  0  0  0
   -1.9346   18.8502  -34.5716 H   0  0  0  0  0  0  0  0  0  0  0  0
   -3.1660   20.1579  -34.5716 H   0  0  0  0  0  0  0  0  0  0  0  0
  1  2  1  0
  2  3  1  0
  3  4  2  0
  4  5  1  0
  5  6  2  0
  5  7  1  0
  7  8  1  0
  8  9  2  0
  9 10  1  0
 10 11  2  0
 11 12  1  0
 12 13  1  0
 13 14  2  0
 13 15  1  0
 15 16  1  0
 16 17  2  0
 17 18  1  0
 18 19  2  0
 19 20  1  0
 20 21  1  0
 21 22  1  0
 21 23  2  0
 21 24  2  0
 20 25  2  0
 12 26  2  0
  4 27  1  0
 27 28  1  0
 27 29  1  0
 29  2  2  0
 26  8  1  0
 25 16  1  0
  1 30  1  0
  1 31  1  0
  1 32  1  0
  3 33  1  0
  7 34  1  0
  9 35  1  0
 10 36  1  0
 11 37  1  0
 17 38  1  0
 18 39  1  0
 19 40  1  0
 22 41  1  0
 22 42  1  0
 22 43  1  0
 25 44  1  0
 26 45  1  0
 28 46  1  0
 28 47  1  0
 28 48  1  0
M  CHG  1  15  -1
M  END
>  <UniqueID>  (33) 
29

>  <SMILES>  (33) 
Cc1cc(C(=O)Nc2cccc(C(=O)[N-]c3cccc(S(C)(=O)=O)c3)c2)n(C)n1

>  <Energy>  (33) 
84.29699191043233

>  <Genealogy>  (33) 
Cc1cc(C(=O)Nc2cccc(C(=O)[N-]c3cccc(S(C)(=O)=O)c3)c2)n(C)n1 (protonated)
Cc1cc(C(=O)Nc2cccc(C(=O)[N-]c3cccc(S(C)(=O)=O)c3)c2)n(C)n1 (3D coordinates assigned)
Cc1cc(C(=O)Nc2cccc(C(=O)[N-]c3cccc(S(C)(=O)=O)c3)c2)n(C)n1 (optimized conformer: 84.29699191043233 kcal/mol)

>  <smiles>  (33) 
Cc1cc(C(=O)Nc2cccc(C(=O)Nc3cccc(S(C)(=O)=O)c3)c2)n(C)n1

>  <score_type>  (33) 
oracle

>  <origin>  (33) 
adgpu

>  <m_score__min__energy>  (33) 
-11.210000000000001

>  <m_primary>  (33) 
energy

$$$$
33:0
     RDKit          3D

 52 54  0  0  1  0  0  0  0  0999 V2000
   -2.0950   23.1180  -27.0100 C   0  0  0  0  0  0  0  0  0  0  0  0
   -2.9570   23.5410  -28.1150 C   0  0  0  0  0  0  0  0  0  0  0  0
   -4.2070   22.9940  -28.3750 C   0  0  0  0  0  0  0  0  0  0  0  0
   -4.9970   23.3820  -29.3830 N   0  0  0  0  0  0  0  0  0  0  0  0
   -4.5770   24.3550  -30.2060 C   0  0  0  0  0  0  0  0  0  0  0  0
   -5.3240   24.7390  -31.1790 N   0  0  0  0  0  0  0  0  0  0  0  0
   -6.6270   24.1790  -31.4600 C   0  0  0  0  0  0  0  0  0  0  0  0
   -6.3550   22.8150  -32.0360 C   0  0  0  0  0  0  0  0  0  0  0  0
   -7.3930   21.8900  -32.1010 C   0  0  0  0  0  0  0  0  0  0  0  0
   -7.2270   20.6340  -32.6100 C   0  0  0  0  0  0  0  0  0  0  0  0
   -5.9790   20.2760  -33.0740 C   0  0  0  0  0  0  0  0  0  0  0  0
   -5.8390   18.8970  -33.6200 C   0  0  0  0  0  0  0  0  0  0  0  0
   -6.0780   18.8860  -34.9690 F   0  0  0  0  0  0  0  0  0  0  0  0
   -4.5710   18.4770  -33.3610 F   0  0  0  0  0  0  0  0  0  0  0  0
   -6.7000   18.0400  -32.9710 F   0  0  0  0  0  0  0  0  0  0  0  0
   -4.9370   21.1750  -33.0190 C   0  0  0  0  0  0  0  0  0  0  0  0
   -5.1180   22.4470  -32.5010 C   0  0  0  0  0  0  0  0  0  0  0  0
   -3.3780   24.9080  -29.9890 N   0  0  0  0  0  0  0  0  0  0  0  0
   -2.5500   24.5400  -28.9780 C   0  0  0  0  0  0  0  0  0  0  0  0
   -1.4470   25.1640  -28.9080 N   0  0  0  0  0  0  0  0  0  0  0  0
   -0.4870   24.8950  -27.9100 C   0  0  0  0  0  0  0  0  0  0  0  0
   -0.2310   25.9480  -26.8890 C   0  0  0  0  0  0  0  0  0  0  0  0
   -1.0320   25.6740  -25.6440 C   0  0  0  0  0  0  0  0  0  0  0  0
   -0.8680   26.7840  -24.6600 C   0  0  0  0  0  0  0  0  0  0  0  0
   -1.1350   28.1490  -25.2540 C   0  0  0  0  0  0  0  0  0  0  0  0
   -0.2350   28.3970  -26.4690 C   0  0  0  0  0  0  0  0  0  0  0  0
   -0.5810   27.2960  -27.4500 C   0  0  0  0  0  0  0  0  0  0  0  0
   -2.5819   23.3569  -26.0530 H   0  0  0  0  0  0  0  0  0  0  0  0
   -1.9234   22.0333  -27.0733 H   0  0  0  0  0  0  0  0  0  0  0  0
   -1.1320   23.6459  -27.0733 H   0  0  0  0  0  0  0  0  0  0  0  0
   -4.5692   22.1940  -27.7126 H   0  0  0  0  0  0  0  0  0  0  0  0
   -5.9260   22.9410  -29.5350 H   0  0  0  0  0  0  0  0  0  0  0  0
   -7.2187   24.0966  -30.5364 H   0  0  0  0  0  0  0  0  0  0  0  0
   -7.2048   24.8095  -32.1518 H   0  0  0  0  0  0  0  0  0  0  0  0
   -8.3856   22.1822  -31.7278 H   0  0  0  0  0  0  0  0  0  0  0  0
   -8.0677   19.9256  -32.6489 H   0  0  0  0  0  0  0  0  0  0  0  0
   -3.9457   20.8784  -33.3922 H   0  0  0  0  0  0  0  0  0  0  0  0
   -4.2774   23.1555  -32.4629 H   0  0  0  0  0  0  0  0  0  0  0  0
   -3.1010   25.6730  -30.6740 H   0  0  0  0  0  0  0  0  0  0  0  0
   -0.8152   23.9920  -27.3744 H   0  0  0  0  0  0  0  0  0  0  0  0
    0.4627   24.8043  -28.4575 H   0  0  0  0  0  0  0  0  0  0  0  0
    0.8366   25.9382  -26.6242 H   0  0  0  0  0  0  0  0  0  0  0  0
   -2.0951   25.5815  -25.9110 H   0  0  0  0  0  0  0  0  0  0  0  0
   -0.6718   24.7398  -25.1886 H   0  0  0  0  0  0  0  0  0  0  0  0
   -1.5694   26.6210  -23.8285 H   0  0  0  0  0  0  0  0  0  0  0  0
    0.1795   26.7720  -24.3243 H   0  0  0  0  0  0  0  0  0  0  0  0
   -2.1880   28.2068  -25.5669 H   0  0  0  0  0  0  0  0  0  0  0  0
   -0.9202   28.9137  -24.4931 H   0  0  0  0  0  0  0  0  0  0  0  0
   -0.4425   29.3841  -26.9079 H   0  0  0  0  0  0  0  0  0  0  0  0
    0.8315   28.3879  -26.1997 H   0  0  0  0  0  0  0  0  0  0  0  0
   -1.6599   27.3286  -27.6620 H   0  0  0  0  0  0  0  0  0  0  0  0
   -0.0029   27.4533  -28.3725 H   0  0  0  0  0  0  0  0  0  0  0  0
  1  2  1  0
  2  3  2  0
  3  4  1  0
  4  5  1  0
  5  6  2  0
  6  7  1  0
  7  8  1  0
  8  9  2  0
  9 10  1  0
 10 11  2  0
 11 12  1  0
 12 13  1  0
 12 14  1  0
 12 15  1  0
 11 16  1  0
 16 17  2  0
  5 18  1  0
 18 19  1  0
 19 20  2  0
 20 21  1  0
 21 22  1  0
 22 23  1  0
 23 24  1  0
 24 25  1  0
 25 26  1  0
 26 27  1  0
 19  2  1  0
 27 22  1  0
 17  8  1  0
  1 28  1  0
  1 29  1  0
  1 30  1  0
  3 31  1  0
  4 32  1  0
  7 33  1  0
  7 34  1  0
  9 35  1  0
 10 36  1  0
 16 37  1  0
 17 38  1  0
 18 39  1  0
 21 40  1  0
 21 41  1  0
 22 42  1  0
 23 43  1  0
 23 44  1  0
 24 45  1  0
 24 46  1  0
 25 47  1  0
 25 48  1  0
 26 49  1  0
 26 50  1  0
 27 51  1  0
 27 52  1  0
M  END
>  <smiles>  (34) 
Cc1c[nH]c(=NCc2ccc(C(F)(F)F)cc2)[nH]c1=NCC1CCCCC1

>  <score_type>  (34) 
oracle

>  <origin>  (34) 
adgpu

>  <m_score__min__energy>  (34) 
-9.2899999999999991

>  <m_primary>  (34) 
energy

$$$$
34:0
     RDKit          3D

 38 40  0  0  0  0  0  0  0  0999 V2000
   -9.4160   23.7960  -32.5230 N   0  0  0  0  0  0  0  0  0  0  0  0
   -9.4710   22.7900  -31.9530 C   0  0  0  0  0  0  0  0  0  0  0  0
   -9.5430   21.5150  -31.2340 C   0  0  0  0  0  0  0  0  0  0  0  0
   -9.1270   20.1370  -32.3520 S   0  0  0  0  0  0  0  0  0  0  0  0
   -7.3660   20.4590  -32.3300 C   0  0  0  0  0  0  0  0  0  0  0  0
   -6.5140   19.6200  -32.9710 N   0  0  0  0  0  0  0  0  0  0  0  0
   -5.1710   19.8370  -32.9750 C   0  0  0  0  0  0  0  0  0  0  0  0
   -4.2820   18.8790  -33.6810 C   0  0  0  0  0  0  0  0  0  0  0  0
   -4.8040   17.8680  -34.5130 C   0  0  0  0  0  0  0  0  0  0  0  0
   -3.9490   16.9700  -35.1600 C   0  0  0  0  0  0  0  0  0  0  0  0
   -2.5670   17.0660  -34.9830 C   0  0  0  0  0  0  0  0  0  0  0  0
   -2.0380   18.0550  -34.1530 C   0  0  0  0  0  0  0  0  0  0  0  0
   -2.8880   18.9540  -33.5010 C   0  0  0  0  0  0  0  0  0  0  0  0
   -4.6610   20.9510  -32.2870 C   0  0  0  0  0  0  0  0  0  0  0  0
   -5.5530   21.8200  -31.6420 C   0  0  0  0  0  0  0  0  0  0  0  0
   -5.0810   22.9710  -30.9160 N   0  0  0  0  0  0  0  0  0  0  0  0
   -3.7500   22.9170  -30.2990 C   0  0  0  0  0  0  0  0  0  0  0  0
   -3.3930   24.2640  -29.6710 C   0  0  0  0  0  0  0  0  0  0  0  0
   -3.8530   25.3050  -30.5060 O   0  0  0  0  0  0  0  0  0  0  0  0
   -5.2640   25.4110  -30.4170 C   0  0  0  0  0  0  0  0  0  0  0  0
   -6.0030   24.0570  -30.5480 C   0  0  0  0  0  0  0  0  0  0  0  0
   -6.8840   21.5420  -31.6700 N   0  0  0  0  0  0  0  0  0  0  0  0
   -8.8312   21.5301  -30.3955 H   0  0  0  0  0  0  0  0  0  0  0  0
  -10.5662   21.3737  -30.8558 H   0  0  0  0  0  0  0  0  0  0  0  0
   -5.8917   17.7847  -34.6544 H   0  0  0  0  0  0  0  0  0  0  0  0
   -4.3660   16.1864  -35.8097 H   0  0  0  0  0  0  0  0  0  0  0  0
   -1.8960   16.3624  -35.4976 H   0  0  0  0  0  0  0  0  0  0  0  0
   -0.9496   18.1278  -34.0111 H   0  0  0  0  0  0  0  0  0  0  0  0
   -2.4637   19.7260  -32.8422 H   0  0  0  0  0  0  0  0  0  0  0  0
   -3.5776   21.1388  -32.2548 H   0  0  0  0  0  0  0  0  0  0  0  0
   -3.7444   22.1416  -29.5188 H   0  0  0  0  0  0  0  0  0  0  0  0
   -3.0083   22.6803  -31.0761 H   0  0  0  0  0  0  0  0  0  0  0  0
   -3.8704   24.3470  -28.6835 H   0  0  0  0  0  0  0  0  0  0  0  0
   -2.3016   24.3391  -29.5560 H   0  0  0  0  0  0  0  0  0  0  0  0
   -5.5176   25.8513  -29.4414 H   0  0  0  0  0  0  0  0  0  0  0  0
   -5.5915   26.0370  -31.2601 H   0  0  0  0  0  0  0  0  0  0  0  0
   -6.4755   23.8134  -29.5850 H   0  0  0  0  0  0  0  0  0  0  0  0
   -6.7578   24.1520  -31.3425 H   0  0  0  0  0  0  0  0  0  0  0  0
  1  2  3  0
  2  3  1  0
  3  4  1  0
  4  5  1  0
  5  6  2  0
  6  7  1  0
  7  8  1  0
  8  9  2  0
  9 10  1  0
 10 11  2  0
 11 12  1  0
 12 13  2  0
  7 14  2  0
 14 15  1  0
 15 16  1  0
 16 17  1  0
 17 18  1  0
 18 19  1  0
 19 20  1  0
 20 21  1  0
 15 22  2  0
 22  5  1  0
 13  8  1  0
 21 16  1  0
  3 23  1  0
  3 24  1  0
  9 25  1  0
 10 26  1  0
 11 27  1  0
 12 28  1  0
 13 29  1  0
 14 30  1  0
 17 31  1  0
 17 32  1  0
 18 33  1  0
 18 34  1  0
 20 35  1  0
 20 36  1  0
 21 37  1  0
 21 38  1  0
M  END
>  <UniqueID>  (35) 
30

>  <SMILES>  (35) 
N#CCSc1nc(-c2ccccc2)cc(N2CCOCC2)n1

>  <Energy>  (35) 
48.359047788379875

>  <Genealogy>  (35) 
N#CCSc1nc(-c2ccccc2)cc(N2CCOCC2)n1 (3D coordinates assigned)
N#CCSc1nc(-c2ccccc2)cc(N2CCOCC2)n1 (nonaromatic ring conformer: 48.359047788379875 kcal/mol)

>  <smiles>  (35) 
N#CCSc1nc(-c2ccccc2)cc(N2CCOCC2)n1

>  <score_type>  (35) 
oracle

>  <origin>  (35) 
adgpu

>  <m_score__min__energy>  (35) 
-8.1199999999999992

>  <m_primary>  (35) 
energy

$$$$
35:0
     RDKit          3D

 44 47  0  0  0  0  0  0  0  0999 V2000
    3.1760   14.0410  -26.6970 N   0  0  0  0  0  0  0  0  0  0  0  0
    3.3730   15.4080  -26.3420 C   0  0  0  0  0  0  0  0  0  0  0  0
    4.2840   15.7050  -25.5230 O   0  0  0  0  0  0  0  0  0  0  0  0
    2.5180   16.4690  -26.9270 C   0  0  0  0  0  0  0  0  0  0  0  0
    3.0760   17.6950  -27.3280 C   0  0  0  0  0  0  0  0  0  0  0  0
    2.2700   18.6950  -27.8800 C   0  0  0  0  0  0  0  0  0  0  0  0
    0.8910   18.4980  -28.0270 C   0  0  0  0  0  0  0  0  0  0  0  0
    0.0910   19.5350  -28.6210 N   0  0  0  0  0  0  0  0  0  0  0  0
   -0.0330   20.8630  -28.0790 C   0  0  0  0  0  0  0  0  0  0  0  0
    0.6580   21.2010  -27.0790 O   0  0  0  0  0  0  0  0  0  0  0  0
   -0.9570   21.8560  -28.6780 C   0  0  0  0  0  0  0  0  0  0  0  0
   -0.5750   23.2060  -28.7550 C   0  0  0  0  0  0  0  0  0  0  0  0
   -1.4300   24.1560  -29.3200 C   0  0  0  0  0  0  0  0  0  0  0  0
   -2.6780   23.7780  -29.8250 C   0  0  0  0  0  0  0  0  0  0  0  0
   -3.5230   24.7860  -30.3940 N   0  0  0  0  0  0  0  0  0  0  0  0
   -5.2280   24.9350  -30.1170 S   0  0  0  0  0  0  0  0  0  0  0  0
   -5.5050   25.0440  -28.6450 O   0  0  0  0  0  0  0  0  0  0  0  0
   -5.7380   26.1600  -30.8240 O   0  0  0  0  0  0  0  0  0  0  0  0
   -6.0370   23.5060  -30.7480 C   0  0  0  0  0  0  0  0  0  0  0  0
   -7.2970   23.0910  -30.2620 C   0  0  0  0  0  0  0  0  0  0  0  0
   -7.9220   21.9320  -30.7840 C   0  0  0  0  0  0  0  0  0  0  0  0
   -7.2950   21.1750  -31.7930 C   0  0  0  0  0  0  0  0  0  0  0  0
   -6.0540   21.6140  -32.2410 C   0  0  0  0  0  0  0  0  0  0  0  0
   -5.2560   21.0780  -33.1750 N   0  0  0  0  0  0  0  0  0  0  0  0
   -4.2150   21.8720  -33.2090 O   0  0  0  0  0  0  0  0  0  0  0  0
   -4.2760   22.8790  -32.3700 N   0  0  0  0  0  0  0  0  0  0  0  0
   -5.4520   22.7220  -31.7450 C   0  0  0  0  0  0  0  0  0  0  0  0
   -3.0610   22.4270  -29.7640 C   0  0  0  0  0  0  0  0  0  0  0  0
   -2.2070   21.4750  -29.1990 C   0  0  0  0  0  0  0  0  0  0  0  0
    0.3330   17.2650  -27.6510 C   0  0  0  0  0  0  0  0  0  0  0  0
    1.1370   16.2630  -27.0990 C   0  0  0  0  0  0  0  0  0  0  0  0
    3.3370   13.7110  -27.6740 H   0  0  0  0  0  0  0  0  0  0  0  0
    4.1553   17.8691  -27.2066 H   0  0  0  0  0  0  0  0  0  0  0  0
    2.7226   19.6446  -28.2016 H   0  0  0  0  0  0  0  0  0  0  0  0
   -0.3810   19.3060  -29.5240 H   0  0  0  0  0  0  0  0  0  0  0  0
    0.4059   23.5179  -28.3670 H   0  0  0  0  0  0  0  0  0  0  0  0
   -1.1187   25.2099  -29.3679 H   0  0  0  0  0  0  0  0  0  0  0  0
   -7.7962   23.6721  -29.4726 H   0  0  0  0  0  0  0  0  0  0  0  0
   -8.9042   21.6208  -30.3986 H   0  0  0  0  0  0  0  0  0  0  0  0
   -7.7678   20.2734  -32.2095 H   0  0  0  0  0  0  0  0  0  0  0  0
   -4.0381   22.1170  -30.1630 H   0  0  0  0  0  0  0  0  0  0  0  0
   -2.5150   20.4197  -29.1616 H   0  0  0  0  0  0  0  0  0  0  0  0
   -0.7433   17.0866  -27.7917 H   0  0  0  0  0  0  0  0  0  0  0  0
    0.6862   15.3062  -26.7969 H   0  0  0  0  0  0  0  0  0  0  0  0
  1  2  1  0
  2  3  2  0
  2  4  1  0
  4  5  2  0
  5  6  1  0
  6  7  2  0
  7  8  1  0
  8  9  1  0
  9 10  2  0
  9 11  1  0
 11 12  2  0
 12 13  1  0
 13 14  2  0
 14 15  1  0
 15 16  1  0
 16 17  2  0
 16 18  2  0
 16 19  1  0
 19 20  2  0
 20 21  1  0
 21 22  2  0
 22 23  1  0
 23 24  2  0
 24 25  1  0
 25 26  1  0
 26 27  2  0
 14 28  1  0
 28 29  2  0
  7 30  1  0
 30 31  2  0
 31  4  1  0
 29 11  1  0
 27 19  1  0
 27 23  1  0
  1 32  1  0
  5 33  1  0
  6 34  1  0
  8 35  1  0
 12 36  1  0
 13 37  1  0
 20 38  1  0
 21 39  1  0
 22 40  1  0
 28 41  1  0
 29 42  1  0
 30 43  1  0
 31 44  1  0
M  CHG  2   1  -1  15  -1
M  END
>  <UniqueID>  (36) 
31

>  <SMILES>  (36) 
[NH-]C(=O)c1ccc(NC(=O)c2ccc([N-]S(=O)(=O)c3cccc4nonc34)cc2)cc1

>  <Energy>  (36) 
103.53665599766059

>  <Genealogy>  (36) 
[NH-]C(=O)c1ccc(NC(=O)c2ccc([N-]S(=O)(=O)c3cccc4nonc34)cc2)cc1 (protonated)
[NH-]C(=O)c1ccc(NC(=O)c2ccc([N-]S(=O)(=O)c3cccc4nonc34)cc2)cc1 (3D coordinates assigned)
[NH-]C(=O)c1ccc(NC(=O)c2ccc([N-]S(=O)(=O)c3cccc4nonc34)cc2)cc1 (optimized conformer: 103.53665599766059 kcal/mol)

>  <smiles>  (36) 
NC(=O)c1ccc(NC(=O)c2ccc(NS(=O)(=O)c3cccc4nonc34)cc2)cc1

>  <score_type>  (36) 
oracle

>  <origin>  (36) 
adgpu

>  <m_score__min__energy>  (36) 
-9.6199999999999992

>  <m_primary>  (36) 
energy

$$$$
36:0
     RDKit          3D

 41 43  0  0  0  0  0  0  0  0999 V2000
   -2.0740   25.2800  -29.2370 N   0  0  0  0  0  0  0  0  0  0  0  0
   -3.4890   24.4640  -29.8070 S   0  0  0  0  0  0  0  0  0  0  0  0
   -4.3030   24.0410  -28.6170 O   0  0  0  0  0  0  0  0  0  0  0  0
   -4.2900   25.4110  -30.6550 O   0  0  0  0  0  0  0  0  0  0  0  0
   -3.0550   23.0370  -30.7610 C   0  0  0  0  0  0  0  0  0  0  0  0
   -1.8370   22.3850  -30.5020 C   0  0  0  0  0  0  0  0  0  0  0  0
   -1.4830   21.2360  -31.2090 C   0  0  0  0  0  0  0  0  0  0  0  0
   -2.3370   20.7240  -32.1840 C   0  0  0  0  0  0  0  0  0  0  0  0
   -3.5470   21.3610  -32.4580 C   0  0  0  0  0  0  0  0  0  0  0  0
   -3.9250   22.5190  -31.7520 C   0  0  0  0  0  0  0  0  0  0  0  0
   -5.1750   23.1650  -32.0510 N   0  0  0  0  0  0  0  0  0  0  0  0
   -6.7030   22.3670  -31.8580 S   0  0  0  0  0  0  0  0  0  0  0  0
   -7.7270   23.0450  -32.7250 O   0  0  0  0  0  0  0  0  0  0  0  0
   -7.1370   22.4610  -30.4220 O   0  0  0  0  0  0  0  0  0  0  0  0
   -6.5430   20.6670  -32.2890 C   0  0  0  0  0  0  0  0  0  0  0  0
   -6.2780   20.2860  -33.6100 C   0  0  0  0  0  0  0  0  0  0  0  0
   -6.1220   18.9350  -33.9340 C   0  0  0  0  0  0  0  0  0  0  0  0
   -6.2310   17.9450  -32.9410 C   0  0  0  0  0  0  0  0  0  0  0  0
   -6.0600   16.5100  -33.2820 C   0  0  0  0  0  0  0  0  0  0  0  0
   -5.0460   15.7440  -32.6730 C   0  0  0  0  0  0  0  0  0  0  0  0
   -4.8880   14.3930  -32.9950 C   0  0  0  0  0  0  0  0  0  0  0  0
   -5.7370   13.7910  -33.9270 C   0  0  0  0  0  0  0  0  0  0  0  0
   -6.7460   14.5390  -34.5390 C   0  0  0  0  0  0  0  0  0  0  0  0
   -6.9090   15.8900  -34.2190 C   0  0  0  0  0  0  0  0  0  0  0  0
   -6.5020   18.3370  -31.6170 C   0  0  0  0  0  0  0  0  0  0  0  0
   -6.6560   19.6880  -31.2960 C   0  0  0  0  0  0  0  0  0  0  0  0
   -1.5900   25.6770  -30.0730 H   0  0  0  0  0  0  0  0  0  0  0  0
   -1.1571   22.7844  -29.7351 H   0  0  0  0  0  0  0  0  0  0  0  0
   -0.5280   20.7331  -30.9966 H   0  0  0  0  0  0  0  0  0  0  0  0
   -2.0563   19.8162  -32.7382 H   0  0  0  0  0  0  0  0  0  0  0  0
   -4.2128   20.9546  -33.2336 H   0  0  0  0  0  0  0  0  0  0  0  0
   -5.2000   24.1790  -32.2900 H   0  0  0  0  0  0  0  0  0  0  0  0
   -6.1923   21.0518  -34.3950 H   0  0  0  0  0  0  0  0  0  0  0  0
   -5.9123   18.6440  -34.9739 H   0  0  0  0  0  0  0  0  0  0  0  0
   -4.3740   16.2126  -31.9390 H   0  0  0  0  0  0  0  0  0  0  0  0
   -4.0940   13.8030  -32.5139 H   0  0  0  0  0  0  0  0  0  0  0  0
   -5.6110   12.7277  -34.1791 H   0  0  0  0  0  0  0  0  0  0  0  0
   -7.4130   14.0642  -35.2736 H   0  0  0  0  0  0  0  0  0  0  0  0
   -7.7064   16.4732  -34.7027 H   0  0  0  0  0  0  0  0  0  0  0  0
   -6.5932   17.5746  -30.8294 H   0  0  0  0  0  0  0  0  0  0  0  0
   -6.8671   19.9833  -30.2576 H   0  0  0  0  0  0  0  0  0  0  0  0
  1  2  1  0
  2  3  2  0
  2  4  2  0
  2  5  1  0
  5  6  2  0
  6  7  1  0
  7  8  2  0
  8  9  1  0
  9 10  2  0
 10 11  1  0
 11 12  1  0
 12 13  2  0
 12 14  2  0
 12 15  1  0
 15 16  2  0
 16 17  1  0
 17 18  2  0
 18 19  1  0
 19 20  2  0
 20 21  1  0
 21 22  2  0
 22 23  1  0
 23 24  2  0
 18 25  1  0
 25 26  2  0
 10  5  1  0
 26 15  1  0
 24 19  1  0
  1 27  1  0
  6 28  1  0
  7 29  1  0
  8 30  1  0
  9 31  1  0
 11 32  1  0
 16 33  1  0
 17 34  1  0
 20 35  1  0
 21 36  1  0
 22 37  1  0
 23 38  1  0
 24 39  1  0
 25 40  1  0
 26 41  1  0
M  CHG  1   1  -1
M  END
>  <UniqueID>  (37) 
32

>  <SMILES>  (37) 
[NH-]S(=O)(=O)c1ccccc1NS(=O)(=O)c1ccc(-c2ccccc2)cc1

>  <Energy>  (37) 
53.82606966109479

>  <Genealogy>  (37) 
[NH-]S(=O)(=O)c1ccccc1NS(=O)(=O)c1ccc(-c2ccccc2)cc1 (protonated)
[NH-]S(=O)(=O)c1ccccc1NS(=O)(=O)c1ccc(-c2ccccc2)cc1 (3D coordinates assigned)
[NH-]S(=O)(=O)c1ccccc1NS(=O)(=O)c1ccc(-c2ccccc2)cc1 (optimized conformer: 53.82606966109479 kcal/mol)

>  <smiles>  (37) 
NS(=O)(=O)c1ccccc1NS(=O)(=O)c1ccc(-c2ccccc2)cc1

>  <score_type>  (37) 
oracle

>  <origin>  (37) 
adgpu

>  <m_score__min__energy>  (37) 
-12.720000000000001

>  <m_primary>  (37) 
energy

$$$$
37:0
     RDKit          3D

 40 42  0  0  0  0  0  0  0  0999 V2000
   -5.7770   24.6290  -31.9630 O   0  0  0  0  0  0  0  0  0  0  0  0
   -5.1320   24.1470  -30.9930 C   0  0  0  0  0  0  0  0  0  0  0  0
   -3.9860   24.8580  -30.5120 N   0  0  0  0  0  0  0  0  0  0  0  0
   -3.0280   24.3780  -29.1500 S   0  0  0  0  0  0  0  0  0  0  0  0
   -3.8750   24.3840  -27.9080 O   0  0  0  0  0  0  0  0  0  0  0  0
   -1.9110   25.3670  -28.9660 O   0  0  0  0  0  0  0  0  0  0  0  0
   -2.3290   22.7850  -29.4280 C   0  0  0  0  0  0  0  0  0  0  0  0
   -1.3350   22.5970  -30.4010 C   0  0  0  0  0  0  0  0  0  0  0  0
   -0.7870   21.3270  -30.6080 C   0  0  0  0  0  0  0  0  0  0  0  0
   -1.2360   20.2390  -29.8540 C   0  0  0  0  0  0  0  0  0  0  0  0
   -2.2320   20.4200  -28.8900 C   0  0  0  0  0  0  0  0  0  0  0  0
   -2.7730   21.6920  -28.6720 C   0  0  0  0  0  0  0  0  0  0  0  0
   -5.5640   22.9230  -30.3790 N   0  0  0  0  0  0  0  0  0  0  0  0
   -6.6260   22.1150  -30.9130 C   0  0  0  0  0  0  0  0  0  0  0  0
   -7.9240   22.3020  -30.4140 C   0  0  0  0  0  0  0  0  0  0  0  0
   -8.9960   21.5720  -30.9290 C   0  0  0  0  0  0  0  0  0  0  0  0
   -8.7840   20.6400  -31.9430 C   0  0  0  0  0  0  0  0  0  0  0  0
   -7.4940   20.4200  -32.4320 C   0  0  0  0  0  0  0  0  0  0  0  0
   -6.4000   21.1380  -31.9160 C   0  0  0  0  0  0  0  0  0  0  0  0
   -5.0390   20.8070  -32.4030 C   0  0  0  0  0  0  0  0  0  0  0  0
   -4.5630   19.4840  -32.3530 C   0  0  0  0  0  0  0  0  0  0  0  0
   -3.2870   19.1780  -32.8350 C   0  0  0  0  0  0  0  0  0  0  0  0
   -2.4760   20.1850  -33.3640 C   0  0  0  0  0  0  0  0  0  0  0  0
   -2.9430   21.5010  -33.4220 C   0  0  0  0  0  0  0  0  0  0  0  0
   -4.2210   21.8110  -32.9490 C   0  0  0  0  0  0  0  0  0  0  0  0
   -0.9864   23.4500  -31.0018 H   0  0  0  0  0  0  0  0  0  0  0  0
   -0.0018   21.1842  -31.3650 H   0  0  0  0  0  0  0  0  0  0  0  0
   -0.8055   19.2403  -30.0192 H   0  0  0  0  0  0  0  0  0  0  0  0
   -2.5907   19.5620  -28.3024 H   0  0  0  0  0  0  0  0  0  0  0  0
   -3.5488   21.8342  -27.9052 H   0  0  0  0  0  0  0  0  0  0  0  0
   -5.2620   22.7230  -29.4020 H   0  0  0  0  0  0  0  0  0  0  0  0
   -8.0983   23.0311  -29.6090 H   0  0  0  0  0  0  0  0  0  0  0  0
  -10.0100   21.7325  -30.5339 H   0  0  0  0  0  0  0  0  0  0  0  0
   -9.6328   20.0772  -32.3586 H   0  0  0  0  0  0  0  0  0  0  0  0
   -7.3322   19.6783  -33.2281 H   0  0  0  0  0  0  0  0  0  0  0  0
   -5.1964   18.6885  -31.9336 H   0  0  0  0  0  0  0  0  0  0  0  0
   -2.9205   18.1415  -32.7976 H   0  0  0  0  0  0  0  0  0  0  0  0
   -1.4694   19.9420  -33.7351 H   0  0  0  0  0  0  0  0  0  0  0  0
   -2.3044   22.2931  -33.8401 H   0  0  0  0  0  0  0  0  0  0  0  0
   -4.5886   22.8463  -33.0043 H   0  0  0  0  0  0  0  0  0  0  0  0
  1  2  2  0
  2  3  1  0
  3  4  1  0
  4  5  2  0
  4  6  2  0
  4  7  1  0
  7  8  2  0
  8  9  1  0
  9 10  2  0
 10 11  1  0
 11 12  2  0
  2 13  1  0
 13 14  1  0
 14 15  2  0
 15 16  1  0
 16 17  2  0
 17 18  1  0
 18 19  2  0
 19 20  1  0
 20 21  2  0
 21 22  1  0
 22 23  2  0
 23 24  1  0
 24 25  2  0
 12  7  1  0
 19 14  1  0
 25 20  1  0
  8 26  1  0
  9 27  1  0
 10 28  1  0
 11 29  1  0
 12 30  1  0
 13 31  1  0
 15 32  1  0
 16 33  1  0
 17 34  1  0
 18 35  1  0
 21 36  1  0
 22 37  1  0
 23 38  1  0
 24 39  1  0
 25 40  1  0
M  CHG  1   3  -1
M  END
>  <UniqueID>  (38) 
33

>  <SMILES>  (38) 
O=C([N-]S(=O)(=O)c1ccccc1)Nc1ccccc1-c1ccccc1

>  <Energy>  (38) 
53.74727731107075

>  <Genealogy>  (38) 
O=C([N-]S(=O)(=O)c1ccccc1)Nc1ccccc1-c1ccccc1 (protonated)
O=C([N-]S(=O)(=O)c1ccccc1)Nc1ccccc1-c1ccccc1 (3D coordinates assigned)
O=C([N-]S(=O)(=O)c1ccccc1)Nc1ccccc1-c1ccccc1 (optimized conformer: 53.74727731107075 kcal/mol)

>  <smiles>  (38) 
O=C(Nc1ccccc1-c1ccccc1)NS(=O)(=O)c1ccccc1

>  <score_type>  (38) 
oracle

>  <origin>  (38) 
adgpu

>  <m_score__min__energy>  (38) 
-9.8300000000000001

>  <m_primary>  (38) 
energy

$$$$
38:0
     RDKit          3D

 68 71  0  0  0  0  0  0  0  0999 V2000
   -1.2220   18.3990  -27.0900 C   0  0  0  0  0  0  0  0  0  0  0  0
   -0.0200   18.4740  -28.0300 C   0  0  0  0  0  0  0  0  0  0  0  0
    0.0760   19.7960  -28.6760 N   0  0  0  0  0  0  0  0  0  0  0  0
    0.5480   19.8700  -30.0680 C   0  0  0  0  0  0  0  0  0  0  0  0
   -0.4830   19.3220  -31.0130 C   0  0  0  0  0  0  0  0  0  0  0  0
   -0.4170   18.1130  -31.3640 O   0  0  0  0  0  0  0  0  0  0  0  0
   -1.4920   20.1800  -31.5610 N   0  0  0  0  0  0  0  0  0  0  0  0
   -2.6700   19.6950  -32.2220 C   0  0  0  0  0  0  0  0  0  0  0  0
   -2.7740   18.9160  -33.3710 C   0  0  0  0  0  0  0  0  0  0  0  0
   -1.6470   18.3880  -34.2140 C   0  0  0  0  0  0  0  0  0  0  0  0
   -4.0900   18.6500  -33.5850 N   0  0  0  0  0  0  0  0  0  0  0  0
   -4.6430   17.8800  -34.7040 C   0  0  0  0  0  0  0  0  0  0  0  0
   -4.8080   19.2180  -32.6170 N   0  0  0  0  0  0  0  0  0  0  0  0
   -6.2400   19.1840  -32.4940 C   0  0  0  0  0  0  0  0  0  0  0  0
   -7.0360   20.0850  -33.2200 C   0  0  0  0  0  0  0  0  0  0  0  0
   -8.4290   20.0560  -33.0890 C   0  0  0  0  0  0  0  0  0  0  0  0
   -9.0330   19.1290  -32.2330 C   0  0  0  0  0  0  0  0  0  0  0  0
   -8.2450   18.2330  -31.5040 C   0  0  0  0  0  0  0  0  0  0  0  0
   -6.8520   18.2630  -31.6280 C   0  0  0  0  0  0  0  0  0  0  0  0
   -3.9620   19.8350  -31.7680 C   0  0  0  0  0  0  0  0  0  0  0  0
   -4.3170   20.4650  -30.7350 O   0  0  0  0  0  0  0  0  0  0  0  0
   -0.3480   21.0010  -27.9970 C   0  0  0  0  0  0  0  0  0  0  0  0
    0.2850   21.4020  -26.9820 O   0  0  0  0  0  0  0  0  0  0  0  0
   -1.4960   21.8010  -28.4710 C   0  0  0  0  0  0  0  0  0  0  0  0
   -2.7590   21.6720  -27.8750 C   0  0  0  0  0  0  0  0  0  0  0  0
   -3.8460   22.4030  -28.3610 C   0  0  0  0  0  0  0  0  0  0  0  0
   -3.6820   23.2800  -29.4420 C   0  0  0  0  0  0  0  0  0  0  0  0
   -5.0670   24.1660  -30.0900 S   0  0  0  0  0  0  0  0  0  0  0  0
   -5.7440   24.9060  -28.9690 O   0  0  0  0  0  0  0  0  0  0  0  0
   -4.5770   25.1790  -31.0870 O   0  0  0  0  0  0  0  0  0  0  0  0
   -6.2310   23.1190  -30.8660 N   0  0  0  0  0  0  0  0  0  0  0  0
   -7.2170   22.5970  -29.9220 C   0  0  0  0  0  0  0  0  0  0  0  0
   -8.4520   22.2540  -30.7400 C   0  0  0  0  0  0  0  0  0  0  0  0
   -8.3200   23.0640  -32.0230 C   0  0  0  0  0  0  0  0  0  0  0  0
   -7.0070   23.8200  -31.8880 C   0  0  0  0  0  0  0  0  0  0  0  0
   -2.4080   23.4530  -30.0020 C   0  0  0  0  0  0  0  0  0  0  0  0
   -1.3200   22.7200  -29.5180 C   0  0  0  0  0  0  0  0  0  0  0  0
   -0.8736   18.4207  -26.0469 H   0  0  0  0  0  0  0  0  0  0  0  0
   -1.8849   19.2575  -27.2732 H   0  0  0  0  0  0  0  0  0  0  0  0
   -1.7730   17.4647  -27.2732 H   0  0  0  0  0  0  0  0  0  0  0  0
    0.8980   18.2903  -27.4525 H   0  0  0  0  0  0  0  0  0  0  0  0
   -0.1461   17.7135  -28.8147 H   0  0  0  0  0  0  0  0  0  0  0  0
    0.7497   20.9205  -30.3246 H   0  0  0  0  0  0  0  0  0  0  0  0
    1.4647   19.2692  -30.1609 H   0  0  0  0  0  0  0  0  0  0  0  0
   -1.3130   21.2080  -31.5790 H   0  0  0  0  0  0  0  0  0  0  0  0
   -0.8454   18.0125  -33.5610 H   0  0  0  0  0  0  0  0  0  0  0  0
   -2.0165   17.5693  -34.8490 H   0  0  0  0  0  0  0  0  0  0  0  0
   -1.2544   19.1959  -34.8490 H   0  0  0  0  0  0  0  0  0  0  0  0
   -5.2428   17.0448  -34.3134 H   0  0  0  0  0  0  0  0  0  0  0  0
   -5.2800   18.5328  -35.3190 H   0  0  0  0  0  0  0  0  0  0  0  0
   -3.8210   17.4849  -35.3190 H   0  0  0  0  0  0  0  0  0  0  0  0
   -6.5633   20.8153  -33.8933 H   0  0  0  0  0  0  0  0  0  0  0  0
   -9.0495   20.7627  -33.6596 H   0  0  0  0  0  0  0  0  0  0  0  0
  -10.1282   19.1049  -32.1334 H   0  0  0  0  0  0  0  0  0  0  0  0
   -8.7211   17.5036  -30.8322 H   0  0  0  0  0  0  0  0  0  0  0  0
   -6.2343   17.5634  -31.0457 H   0  0  0  0  0  0  0  0  0  0  0  0
   -2.8944   20.9921  -27.0209 H   0  0  0  0  0  0  0  0  0  0  0  0
   -4.8351   22.2897  -27.8931 H   0  0  0  0  0  0  0  0  0  0  0  0
   -6.8280   21.6966  -29.4240 H   0  0  0  0  0  0  0  0  0  0  0  0
   -7.4487   23.3333  -29.1383 H   0  0  0  0  0  0  0  0  0  0  0  0
   -8.4789   21.1775  -30.9647 H   0  0  0  0  0  0  0  0  0  0  0  0
   -9.3809   22.4890  -30.1996 H   0  0  0  0  0  0  0  0  0  0  0  0
   -8.2927   22.3979  -32.8980 H   0  0  0  0  0  0  0  0  0  0  0  0
   -9.1719   23.7448  -32.1673 H   0  0  0  0  0  0  0  0  0  0  0  0
   -6.4658   23.8168  -32.8456 H   0  0  0  0  0  0  0  0  0  0  0  0
   -7.1780   24.8701  -31.6088 H   0  0  0  0  0  0  0  0  0  0  0  0
   -2.2640   24.1682  -30.8253 H   0  0  0  0  0  0  0  0  0  0  0  0
   -0.3226   22.8638  -29.9591 H   0  0  0  0  0  0  0  0  0  0  0  0
  1  2  1  0
  2  3  1  0
  3  4  1  0
  4  5  1  0
  5  6  2  0
  5  7  1  0
  7  8  1  0
  8  9  2  0
  9 10  1  0
  9 11  1  0
 11 12  1  0
 11 13  1  0
 13 14  1  0
 14 15  2  0
 15 16  1  0
 16 17  2  0
 17 18  1  0
 18 19  2  0
 13 20  1  0
 20 21  2  0
  3 22  1  0
 22 23  2  0
 22 24  1  0
 24 25  2  0
 25 26  1  0
 26 27  2  0
 27 28  1  0
 28 29  2  0
 28 30  2  0
 28 31  1  0
 31 32  1  0
 32 33  1  0
 33 34  1  0
 34 35  1  0
 27 36  1  0
 36 37  2  0
 20  8  1  0
 37 24  1  0
 19 14  1  0
 35 31  1  0
  1 38  1  0
  1 39  1  0
  1 40  1  0
  2 41  1  0
  2 42  1  0
  4 43  1  0
  4 44  1  0
  7 45  1  0
 10 46  1  0
 10 47  1  0
 10 48  1  0
 12 49  1  0
 12 50  1  0
 12 51  1  0
 15 52  1  0
 16 53  1  0
 17 54  1  0
 18 55  1  0
 19 56  1  0
 25 57  1  0
 26 58  1  0
 32 59  1  0
 32 60  1  0
 33 61  1  0
 33 62  1  0
 34 63  1  0
 34 64  1  0
 35 65  1  0
 35 66  1  0
 36 67  1  0
 37 68  1  0
M  END
>  <UniqueID>  (39) 
34

>  <SMILES>  (39) 
CCN(CC(=O)Nc1c(C)n(C)n(-c2ccccc2)c1=O)C(=O)c1ccc(S(=O)(=O)N2CCCC2)cc1

>  <Energy>  (39) 
116.82526153102

>  <Genealogy>  (39) 
CCN(CC(=O)Nc1c(C)n(C)n(-c2ccccc2)c1=O)C(=O)c1ccc(S(=O)(=O)N2CCCC2)cc1 (3D coordinates assigned)
CCN(CC(=O)Nc1c(C)n(C)n(-c2ccccc2)c1=O)C(=O)c1ccc(S(=O)(=O)N2CCCC2)cc1 (nonaromatic ring conformer: 116.82526153102 kcal/mol)

>  <smiles>  (39) 
CCN(CC(=O)Nc1c(C)n(C)n(-c2ccccc2)c1=O)C(=O)c1ccc(S(=O)(=O)N2CCCC2)cc1

>  <score_type>  (39) 
oracle

>  <origin>  (39) 
adgpu

>  <m_score__min__energy>  (39) 
-10.51

>  <m_primary>  (39) 
energy

$$$$
39:0
     RDKit          3D

 43 45  0  0  0  0  0  0  0  0999 V2000
    0.8380   24.5700  -36.0940 C   0  0  0  0  0  0  0  0  0  0  0  0
    2.0140   23.6050  -35.9840 C   0  0  0  0  0  0  0  0  0  0  0  0
    1.5280   22.1860  -35.8380 C   0  0  0  0  0  0  0  0  0  0  0  0
    0.3680   21.9210  -35.0910 C   0  0  0  0  0  0  0  0  0  0  0  0
   -0.1180   20.6090  -34.9560 C   0  0  0  0  0  0  0  0  0  0  0  0
   -1.3460   20.3530  -34.1720 C   0  0  0  0  0  0  0  0  0  0  0  0
   -2.2030   21.3250  -33.6830 C   0  0  0  0  0  0  0  0  0  0  0  0
   -3.2150   20.6580  -33.0090 C   0  0  0  0  0  0  0  0  0  0  0  0
   -4.3690   21.2960  -32.3270 C   0  0  0  0  0  0  0  0  0  0  0  0
   -5.6300   20.6730  -32.3150 C   0  0  0  0  0  0  0  0  0  0  0  0
   -6.7150   21.2780  -31.6760 C   0  0  0  0  0  0  0  0  0  0  0  0
   -6.5560   22.5090  -31.0380 C   0  0  0  0  0  0  0  0  0  0  0  0
   -5.3070   23.1420  -31.0340 C   0  0  0  0  0  0  0  0  0  0  0  0
   -5.1090   24.7050  -30.2490 S   0  0  0  0  0  0  0  0  0  0  0  0
   -3.4970   25.2720  -30.5010 N   0  0  0  0  0  0  0  0  0  0  0  0
   -6.0860   25.6930  -30.8230 O   0  0  0  0  0  0  0  0  0  0  0  0
   -5.3710   24.5700  -28.7740 O   0  0  0  0  0  0  0  0  0  0  0  0
   -4.2200   22.5390  -31.6820 C   0  0  0  0  0  0  0  0  0  0  0  0
   -3.0030   19.3270  -33.0630 N   0  0  0  0  0  0  0  0  0  0  0  0
   -1.8650   19.1320  -33.7550 C   0  0  0  0  0  0  0  0  0  0  0  0
   -1.2840   17.7740  -34.0050 C   0  0  0  0  0  0  0  0  0  0  0  0
    0.5540   19.5620  -35.6060 C   0  0  0  0  0  0  0  0  0  0  0  0
    1.7000   19.8200  -36.3620 C   0  0  0  0  0  0  0  0  0  0  0  0
    2.1880   21.1230  -36.4840 C   0  0  0  0  0  0  0  0  0  0  0  0
    3.3240   21.3550  -37.2530 O   0  0  0  0  0  0  0  0  0  0  0  0
    0.4975   24.8494  -35.0861 H   0  0  0  0  0  0  0  0  0  0  0  0
    1.1539   25.4726  -36.6376 H   0  0  0  0  0  0  0  0  0  0  0  0
    0.0145   24.0840  -36.6376 H   0  0  0  0  0  0  0  0  0  0  0  0
    2.6314   23.6835  -36.8910 H   0  0  0  0  0  0  0  0  0  0  0  0
    2.6056   23.8690  -35.0950 H   0  0  0  0  0  0  0  0  0  0  0  0
   -0.1667   22.7508  -34.6056 H   0  0  0  0  0  0  0  0  0  0  0  0
   -2.1009   22.4134  -33.8053 H   0  0  0  0  0  0  0  0  0  0  0  0
   -5.7629   19.7012  -32.8130 H   0  0  0  0  0  0  0  0  0  0  0  0
   -7.6972   20.7828  -31.6757 H   0  0  0  0  0  0  0  0  0  0  0  0
   -7.4133   22.9828  -30.5374 H   0  0  0  0  0  0  0  0  0  0  0  0
   -3.5500   26.0330  -31.2170 H   0  0  0  0  0  0  0  0  0  0  0  0
   -3.2415   23.0414  -31.6867 H   0  0  0  0  0  0  0  0  0  0  0  0
   -3.6060   18.5760  -32.6590 H   0  0  0  0  0  0  0  0  0  0  0  0
   -1.0737   17.2825  -33.0436 H   0  0  0  0  0  0  0  0  0  0  0  0
   -2.0016   17.1679  -34.5775 H   0  0  0  0  0  0  0  0  0  0  0  0
   -0.3501   17.8745  -34.5775 H   0  0  0  0  0  0  0  0  0  0  0  0
    0.1761   18.5326  -35.5196 H   0  0  0  0  0  0  0  0  0  0  0  0
    2.2213   18.9918  -36.8643 H   0  0  0  0  0  0  0  0  0  0  0  0
  1  2  1  0
  2  3  1  0
  3  4  2  0
  4  5  1  0
  5  6  1  0
  6  7  1  0
  7  8  2  0
  8  9  1  0
  9 10  2  0
 10 11  1  0
 11 12  2  0
 12 13  1  0
 13 14  1  0
 14 15  1  0
 14 16  2  0
 14 17  2  0
 13 18  2  0
  8 19  1  0
 19 20  1  0
 20 21  1  0
  5 22  2  0
 22 23  1  0
 23 24  2  0
 24 25  1  0
 24  3  1  0
 20  6  2  0
 18  9  1  0
  1 26  1  0
  1 27  1  0
  1 28  1  0
  2 29  1  0
  2 30  1  0
  4 31  1  0
  7 32  1  0
 10 33  1  0
 11 34  1  0
 12 35  1  0
 15 36  1  0
 18 37  1  0
 19 38  1  0
 21 39  1  0
 21 40  1  0
 21 41  1  0
 22 42  1  0
 23 43  1  0
M  CHG  2  15  -1  25  -1
M  END
>  <UniqueID>  (40) 
35

>  <SMILES>  (40) 
CCc1cc(-c2cc(-c3cccc(S([NH-])(=O)=O)c3)[nH]c2C)ccc1[O-]

>  <Energy>  (40) 
74.03016719506134

>  <Genealogy>  (40) 
CCc1cc(-c2cc(-c3cccc(S([NH-])(=O)=O)c3)[nH]c2C)ccc1[O-] (protonated)
CCc1cc(-c2cc(-c3cccc(S([NH-])(=O)=O)c3)[nH]c2C)ccc1[O-] (3D coordinates assigned)
CCc1cc(-c2cc(-c3cccc(S([NH-])(=O)=O)c3)[nH]c2C)ccc1[O-] (optimized conformer: 74.03016719506134 kcal/mol)

>  <smiles>  (40) 
CCc1cc(-c2cc(-c3cccc(S(N)(=O)=O)c3)[nH]c2C)ccc1O

>  <score_type>  (40) 
oracle

>  <origin>  (40) 
adgpu

>  <m_score__min__energy>  (40) 
-11.26

>  <m_primary>  (40) 
energy

$$$$
40:0
     RDKit          3D

 48 50  0  0  0  0  0  0  0  0999 V2000
   -0.7830   27.1820  -27.7640 C   0  0  0  0  0  0  0  0  0  0  0  0
   -1.2590   26.2600  -28.7380 O   0  0  0  0  0  0  0  0  0  0  0  0
   -1.3830   24.8770  -28.5340 C   0  0  0  0  0  0  0  0  0  0  0  0
   -0.5270   24.1700  -27.6650 C   0  0  0  0  0  0  0  0  0  0  0  0
   -0.6820   22.7930  -27.4900 C   0  0  0  0  0  0  0  0  0  0  0  0
   -1.6850   22.1080  -28.1760 C   0  0  0  0  0  0  0  0  0  0  0  0
   -2.5380   22.7970  -29.0410 C   0  0  0  0  0  0  0  0  0  0  0  0
   -2.3930   24.1840  -29.2230 C   0  0  0  0  0  0  0  0  0  0  0  0
   -3.2550   24.9240  -30.0970 N   0  0  0  0  0  0  0  0  0  0  0  0
   -4.9070   24.5380  -30.4590 S   0  0  0  0  0  0  0  0  0  0  0  0
   -5.6520   24.3110  -29.1740 O   0  0  0  0  0  0  0  0  0  0  0  0
   -5.5310   25.6700  -31.2280 O   0  0  0  0  0  0  0  0  0  0  0  0
   -4.9730   23.0720  -31.4400 C   0  0  0  0  0  0  0  0  0  0  0  0
   -3.7810   22.4430  -31.8300 C   0  0  0  0  0  0  0  0  0  0  0  0
   -3.8050   21.2700  -32.6030 C   0  0  0  0  0  0  0  0  0  0  0  0
   -2.5460   20.5990  -33.0080 C   0  0  0  0  0  0  0  0  0  0  0  0
   -2.2330   19.4970  -32.4810 O   0  0  0  0  0  0  0  0  0  0  0  0
   -1.6710   21.1900  -33.9820 N   0  0  0  0  0  0  0  0  0  0  0  0
   -0.5410   20.4500  -34.5390 C   0  0  0  0  0  0  0  0  0  0  0  0
    0.4900   21.3910  -35.0790 C   0  0  0  0  0  0  0  0  0  0  0  0
    1.7790   21.0540  -35.4380 C   0  0  0  0  0  0  0  0  0  0  0  0
    2.3710   22.2320  -35.8400 C   0  0  0  0  0  0  0  0  0  0  0  0
    1.4080   23.2130  -35.6960 C   0  0  0  0  0  0  0  0  0  0  0  0
    0.3000   22.6800  -35.2380 O   0  0  0  0  0  0  0  0  0  0  0  0
   -5.0420   20.7500  -33.0090 C   0  0  0  0  0  0  0  0  0  0  0  0
   -6.2340   21.3760  -32.6350 C   0  0  0  0  0  0  0  0  0  0  0  0
   -6.2110   22.5420  -31.8460 C   0  0  0  0  0  0  0  0  0  0  0  0
   -7.3910   23.1950  -31.4550 O   0  0  0  0  0  0  0  0  0  0  0  0
   -8.7020   22.6630  -31.6170 C   0  0  0  0  0  0  0  0  0  0  0  0
   -0.9860   26.7889  -26.7569 H   0  0  0  0  0  0  0  0  0  0  0  0
    0.3005   27.3229  -27.8911 H   0  0  0  0  0  0  0  0  0  0  0  0
   -1.2956   28.1469  -27.8911 H   0  0  0  0  0  0  0  0  0  0  0  0
    0.2663   24.7051  -27.1225 H   0  0  0  0  0  0  0  0  0  0  0  0
   -0.0116   22.2474  -26.8096 H   0  0  0  0  0  0  0  0  0  0  0  0
   -1.8043   21.0236  -28.0355 H   0  0  0  0  0  0  0  0  0  0  0  0
   -3.3262   22.2528  -29.5819 H   0  0  0  0  0  0  0  0  0  0  0  0
   -2.8154   22.8737  -31.5267 H   0  0  0  0  0  0  0  0  0  0  0  0
   -1.8170   22.1870  -34.2630 H   0  0  0  0  0  0  0  0  0  0  0  0
   -0.0885   19.8325  -33.7491 H   0  0  0  0  0  0  0  0  0  0  0  0
   -0.9038   19.8129  -35.3590 H   0  0  0  0  0  0  0  0  0  0  0  0
    2.2379   20.0547  -35.4094 H   0  0  0  0  0  0  0  0  0  0  0  0
    3.4012   22.3646  -36.2021 H   0  0  0  0  0  0  0  0  0  0  0  0
    1.5491   24.2786  -35.9298 H   0  0  0  0  0  0  0  0  0  0  0  0
   -5.0745   19.8410  -33.6276 H   0  0  0  0  0  0  0  0  0  0  0  0
   -7.1971   20.9549  -32.9593 H   0  0  0  0  0  0  0  0  0  0  0  0
   -9.1489   22.4817  -30.6284 H   0  0  0  0  0  0  0  0  0  0  0  0
   -9.3226   23.3804  -32.1739 H   0  0  0  0  0  0  0  0  0  0  0  0
   -8.6472   21.7160  -32.1739 H   0  0  0  0  0  0  0  0  0  0  0  0
  1  2  1  0
  2  3  1  0
  3  4  2  0
  4  5  1  0
  5  6  2  0
  6  7  1  0
  7  8  2  0
  8  9  1  0
  9 10  1  0
 10 11  2  0
 10 12  2  0
 10 13  1  0
 13 14  2  0
 14 15  1  0
 15 16  1  0
 16 17  2  0
 16 18  1  0
 18 19  1  0
 19 20  1  0
 20 21  2  0
 21 22  1  0
 22 23  2  0
 23 24  1  0
 15 25  2  0
 25 26  1  0
 26 27  2  0
 27 28  1  0
 28 29  1  0
  8  3  1  0
 27 13  1  0
 24 20  1  0
  1 30  1  0
  1 31  1  0
  1 32  1  0
  4 33  1  0
  5 34  1  0
  6 35  1  0
  7 36  1  0
 14 37  1  0
 18 38  1  0
 19 39  1  0
 19 40  1  0
 21 41  1  0
 22 42  1  0
 23 43  1  0
 25 44  1  0
 26 45  1  0
 29 46  1  0
 29 47  1  0
 29 48  1  0
M  CHG  1   9  -1
M  END
>  <UniqueID>  (41) 
36

>  <SMILES>  (41) 
COc1ccccc1[N-]S(=O)(=O)c1cc(C(=O)NCc2ccco2)ccc1OC

>  <Energy>  (41) 
78.70076815331207

>  <Genealogy>  (41) 
COc1ccccc1[N-]S(=O)(=O)c1cc(C(=O)NCc2ccco2)ccc1OC (protonated)
COc1ccccc1[N-]S(=O)(=O)c1cc(C(=O)NCc2ccco2)ccc1OC (3D coordinates assigned)
COc1ccccc1[N-]S(=O)(=O)c1cc(C(=O)NCc2ccco2)ccc1OC (optimized conformer: 78.70076815331207 kcal/mol)

>  <smiles>  (41) 
COc1ccccc1NS(=O)(=O)c1cc(C(=O)NCc2ccco2)ccc1OC

>  <score_type>  (41) 
oracle

>  <origin>  (41) 
adgpu

>  <m_score__min__energy>  (41) 
-10.42

>  <m_primary>  (41) 
energy

$$$$
41:0
     RDKit          3D

 50 53  0  0  0  0  0  0  0  0999 V2000
   -8.7590   18.5420  -31.5300 C   0  0  0  0  0  0  0  0  0  0  0  0
   -7.5900   19.3840  -31.2580 N   0  0  0  0  0  0  0  0  0  0  0  0
   -6.3110   18.6420  -31.2160 C   0  0  0  0  0  0  0  0  0  0  0  0
   -5.7760   18.2270  -32.5700 C   0  0  0  0  0  0  0  0  0  0  0  0
   -4.5880   18.7830  -33.0760 C   0  0  0  0  0  0  0  0  0  0  0  0
   -4.1070   18.3970  -34.3310 C   0  0  0  0  0  0  0  0  0  0  0  0
   -4.8200   17.4780  -35.1040 C   0  0  0  0  0  0  0  0  0  0  0  0
   -6.0270   16.9580  -34.6310 C   0  0  0  0  0  0  0  0  0  0  0  0
   -6.5080   17.3350  -33.3740 C   0  0  0  0  0  0  0  0  0  0  0  0
   -7.5610   20.8220  -32.2580 S   0  0  0  0  0  0  0  0  0  0  0  0
   -8.9270   21.4490  -32.2600 O   0  0  0  0  0  0  0  0  0  0  0  0
   -7.2380   20.4220  -33.6700 O   0  0  0  0  0  0  0  0  0  0  0  0
   -6.3630   22.0170  -31.7390 C   0  0  0  0  0  0  0  0  0  0  0  0
   -4.9940   21.7630  -31.9050 C   0  0  0  0  0  0  0  0  0  0  0  0
   -4.0440   22.6890  -31.4680 C   0  0  0  0  0  0  0  0  0  0  0  0
   -4.4530   23.9060  -30.8940 C   0  0  0  0  0  0  0  0  0  0  0  0
   -3.5140   24.8630  -30.3830 N   0  0  0  0  0  0  0  0  0  0  0  0
   -2.4970   24.6290  -29.4020 C   0  0  0  0  0  0  0  0  0  0  0  0
   -1.8500   25.5960  -28.9200 O   0  0  0  0  0  0  0  0  0  0  0  0
   -2.2380   23.2620  -28.8990 C   0  0  0  0  0  0  0  0  0  0  0  0
   -1.0190   22.5890  -29.0810 C   0  0  0  0  0  0  0  0  0  0  0  0
   -1.2240   21.3790  -28.4710 C   0  0  0  0  0  0  0  0  0  0  0  0
   -0.4010   19.9540  -28.1780 S   0  0  0  0  0  0  0  0  0  0  0  0
   -1.7320   19.2570  -27.3560 C   0  0  0  0  0  0  0  0  0  0  0  0
   -2.8090   20.1550  -27.3240 C   0  0  0  0  0  0  0  0  0  0  0  0
   -2.4630   21.3380  -27.9700 C   0  0  0  0  0  0  0  0  0  0  0  0
   -3.1300   22.4820  -28.2120 N   0  0  0  0  0  0  0  0  0  0  0  0
   -4.5060   22.7930  -27.8270 C   0  0  0  0  0  0  0  0  0  0  0  0
   -5.8200   24.1720  -30.7580 C   0  0  0  0  0  0  0  0  0  0  0  0
   -6.7680   23.2450  -31.1990 C   0  0  0  0  0  0  0  0  0  0  0  0
   -9.2075   18.2190  -30.5789 H   0  0  0  0  0  0  0  0  0  0  0  0
   -9.4982   19.1164  -32.1076 H   0  0  0  0  0  0  0  0  0  0  0  0
   -8.4484   17.6589  -32.1076 H   0  0  0  0  0  0  0  0  0  0  0  0
   -5.5590   19.2825  -30.7320 H   0  0  0  0  0  0  0  0  0  0  0  0
   -6.5089   17.7126  -30.6618 H   0  0  0  0  0  0  0  0  0  0  0  0
   -4.0343   19.5250  -32.4820 H   0  0  0  0  0  0  0  0  0  0  0  0
   -3.1644   18.8184  -34.7105 H   0  0  0  0  0  0  0  0  0  0  0  0
   -4.4315   17.1641  -36.0841 H   0  0  0  0  0  0  0  0  0  0  0  0
   -6.5999   16.2507  -35.2487 H   0  0  0  0  0  0  0  0  0  0  0  0
   -7.4649   16.9316  -33.0114 H   0  0  0  0  0  0  0  0  0  0  0  0
   -4.6660   20.8280  -32.3827 H   0  0  0  0  0  0  0  0  0  0  0  0
   -2.9721   22.4656  -31.5732 H   0  0  0  0  0  0  0  0  0  0  0  0
   -0.1137   22.9481  -29.5923 H   0  0  0  0  0  0  0  0  0  0  0  0
   -1.7410   18.2489  -26.9159 H   0  0  0  0  0  0  0  0  0  0  0  0
   -3.7842   19.9536  -26.8567 H   0  0  0  0  0  0  0  0  0  0  0  0
   -4.5847   22.8108  -26.7300 H   0  0  0  0  0  0  0  0  0  0  0  0
   -4.7862   23.7771  -28.2307 H   0  0  0  0  0  0  0  0  0  0  0  0
   -5.1822   22.0250  -28.2307 H   0  0  0  0  0  0  0  0  0  0  0  0
   -6.1503   25.1166  -30.3012 H   0  0  0  0  0  0  0  0  0  0  0  0
   -7.8396   23.4809  -31.1217 H   0  0  0  0  0  0  0  0  0  0  0  0
  1  2  1  0
  2  3  1  0
  3  4  1  0
  4  5  2  0
  5  6  1  0
  6  7  2  0
  7  8  1  0
  8  9  2  0
  2 10  1  0
 10 11  2  0
 10 12  2  0
 10 13  1  0
 13 14  2  0
 14 15  1  0
 15 16  2  0
 16 17  1  0
 17 18  1  0
 18 19  2  0
 18 20  1  0
 20 21  2  0
 21 22  1  0
 22 23  1  0
 23 24  1  0
 24 25  2  0
 25 26  1  0
 26 27  1  0
 27 28  1  0
 16 29  1  0
 29 30  2  0
  9  4  1  0
 30 13  1  0
 27 20  1  0
 26 22  2  0
  1 31  1  0
  1 32  1  0
  1 33  1  0
  3 34  1  0
  3 35  1  0
  5 36  1  0
  6 37  1  0
  7 38  1  0
  8 39  1  0
  9 40  1  0
 14 41  1  0
 15 42  1  0
 21 43  1  0
 24 44  1  0
 25 45  1  0
 28 46  1  0
 28 47  1  0
 28 48  1  0
 29 49  1  0
 30 50  1  0
M  CHG  1  17  -1
M  END
>  <UniqueID>  (42) 
37

>  <SMILES>  (42) 
CN(Cc1ccccc1)S(=O)(=O)c1ccc([N-]C(=O)c2cc3sccc3n2C)cc1

>  <Energy>  (42) 
134.75712170593582

>  <Genealogy>  (42) 
CN(Cc1ccccc1)S(=O)(=O)c1ccc([N-]C(=O)c2cc3sccc3n2C)cc1 (protonated)
CN(Cc1ccccc1)S(=O)(=O)c1ccc([N-]C(=O)c2cc3sccc3n2C)cc1 (3D coordinates assigned)
CN(Cc1ccccc1)S(=O)(=O)c1ccc([N-]C(=O)c2cc3sccc3n2C)cc1 (optimized conformer: 134.75712170593582 kcal/mol)

>  <smiles>  (42) 
CN(Cc1ccccc1)S(=O)(=O)c1ccc(NC(=O)c2cc3sccc3n2C)cc1

>  <score_type>  (42) 
oracle

>  <origin>  (42) 
adgpu

>  <m_score__min__energy>  (42) 
-12.220000000000001

>  <m_primary>  (42) 
energy

$$$$
42:0
     RDKit          3D

 42 43  0  0  0  0  0  0  0  0999 V2000
   -6.3750   16.8320  -33.8490 C   0  0  0  0  0  0  0  0  0  0  0  0
   -6.5080   18.2500  -33.3740 C   0  0  0  0  0  0  0  0  0  0  0  0
   -7.6770   18.6710  -32.7410 C   0  0  0  0  0  0  0  0  0  0  0  0
   -7.8040   19.9810  -32.2540 C   0  0  0  0  0  0  0  0  0  0  0  0
   -9.0990   20.3530  -31.5750 C   0  0  0  0  0  0  0  0  0  0  0  0
   -6.7390   20.9100  -32.4290 C   0  0  0  0  0  0  0  0  0  0  0  0
   -6.9140   22.5910  -31.8390 S   0  0  0  0  0  0  0  0  0  0  0  0
   -8.3670   22.9700  -31.7940 O   0  0  0  0  0  0  0  0  0  0  0  0
   -6.2300   23.5850  -32.7320 O   0  0  0  0  0  0  0  0  0  0  0  0
   -6.2520   22.6950  -30.2430 N   0  0  0  0  0  0  0  0  0  0  0  0
   -5.0040   23.3560  -30.0330 C   0  0  0  0  0  0  0  0  0  0  0  0
   -4.7500   24.7100  -30.1240 C   0  0  0  0  0  0  0  0  0  0  0  0
   -5.7350   25.7910  -30.4230 C   0  0  0  0  0  0  0  0  0  0  0  0
   -3.4230   24.9180  -29.9960 N   0  0  0  0  0  0  0  0  0  0  0  0
   -2.8470   23.7370  -29.8070 N   0  0  0  0  0  0  0  0  0  0  0  0
   -1.4050   23.5580  -29.6840 C   0  0  0  0  0  0  0  0  0  0  0  0
   -3.7810   22.7610  -29.8150 C   0  0  0  0  0  0  0  0  0  0  0  0
   -3.4970   21.2910  -29.7910 C   0  0  0  0  0  0  0  0  0  0  0  0
   -5.5250   20.4520  -33.0170 C   0  0  0  0  0  0  0  0  0  0  0  0
   -4.3130   21.3330  -33.1750 C   0  0  0  0  0  0  0  0  0  0  0  0
   -5.4340   19.1320  -33.4890 C   0  0  0  0  0  0  0  0  0  0  0  0
   -6.3119   16.1590  -32.9812 H   0  0  0  0  0  0  0  0  0  0  0  0
   -7.2521   16.5652  -34.4569 H   0  0  0  0  0  0  0  0  0  0  0  0
   -5.4636   16.7329  -34.4569 H   0  0  0  0  0  0  0  0  0  0  0  0
   -8.5124   17.9655  -32.6216 H   0  0  0  0  0  0  0  0  0  0  0  0
   -8.9651   20.3145  -30.4839 H   0  0  0  0  0  0  0  0  0  0  0  0
   -9.3900   21.3711  -31.8731 H   0  0  0  0  0  0  0  0  0  0  0  0
   -9.8860   19.6446  -31.8731 H   0  0  0  0  0  0  0  0  0  0  0  0
   -6.5530   21.9780  -29.5470 H   0  0  0  0  0  0  0  0  0  0  0  0
   -6.1169   26.2101  -29.4804 H   0  0  0  0  0  0  0  0  0  0  0  0
   -5.2431   26.5847  -31.0045 H   0  0  0  0  0  0  0  0  0  0  0  0
   -6.5709   25.3748  -31.0045 H   0  0  0  0  0  0  0  0  0  0  0  0
   -1.1292   23.5238  -28.6197 H   0  0  0  0  0  0  0  0  0  0  0  0
   -1.1097   22.6163  -30.1698 H   0  0  0  0  0  0  0  0  0  0  0  0
   -0.8884   24.3989  -30.1698 H   0  0  0  0  0  0  0  0  0  0  0  0
   -3.4306   20.9474  -28.7482 H   0  0  0  0  0  0  0  0  0  0  0  0
   -4.3077   20.7525  -30.3036 H   0  0  0  0  0  0  0  0  0  0  0  0
   -2.5440   21.0932  -30.3036 H   0  0  0  0  0  0  0  0  0  0  0  0
   -3.9301   21.6113  -32.1821 H   0  0  0  0  0  0  0  0  0  0  0  0
   -3.5339   20.7889  -33.7291 H   0  0  0  0  0  0  0  0  0  0  0  0
   -4.5901   22.2419  -33.7291 H   0  0  0  0  0  0  0  0  0  0  0  0
   -4.4998   18.7883  -33.9572 H   0  0  0  0  0  0  0  0  0  0  0  0
  1  2  1  0
  2  3  2  0
  3  4  1  0
  4  5  1  0
  4  6  2  0
  6  7  1  0
  7  8  2  0
  7  9  2  0
  7 10  1  0
 10 11  1  0
 11 12  1  0
 12 13  1  0
 12 14  2  0
 14 15  1  0
 15 16  1  0
 15 17  1  0
 17 18  1  0
  6 19  1  0
 19 20  1  0
 19 21  2  0
 21  2  1  0
 17 11  2  0
  1 22  1  0
  1 23  1  0
  1 24  1  0
  3 25  1  0
  5 26  1  0
  5 27  1  0
  5 28  1  0
 10 29  1  0
 13 30  1  0
 13 31  1  0
 13 32  1  0
 16 33  1  0
 16 34  1  0
 16 35  1  0
 18 36  1  0
 18 37  1  0
 18 38  1  0
 20 39  1  0
 20 40  1  0
 20 41  1  0
 21 42  1  0
M  END
>  <UniqueID>  (43) 
38

>  <SMILES>  (43) 
Cc1cc(C)c(S(=O)(=O)Nc2c(C)nn(C)c2C)c(C)c1

>  <Energy>  (43) 
79.91689544970215

>  <Genealogy>  (43) 
Cc1cc(C)c(S(=O)(=O)Nc2c(C)nn(C)c2C)c(C)c1 (3D coordinates assigned)
Cc1cc(C)c(S(=O)(=O)Nc2c(C)nn(C)c2C)c(C)c1 (optimized conformer: 79.91689544970215 kcal/mol)

>  <smiles>  (43) 
Cc1cc(C)c(S(=O)(=O)Nc2c(C)nn(C)c2C)c(C)c1

>  <score_type>  (43) 
oracle

>  <origin>  (43) 
adgpu

>  <m_score__min__energy>  (43) 
-8.25

>  <m_primary>  (43) 
energy

$$$$
43:0
     RDKit          3D

 45 48  0  0  0  0  0  0  0  0999 V2000
   -2.0500   25.2790  -29.0250 O   0  0  0  0  0  0  0  0  0  0  0  0
   -2.4430   24.9220  -27.8800 C   0  0  0  0  0  0  0  0  0  0  0  0
   -3.7800   24.4140  -27.7060 N   0  0  0  0  0  0  0  0  0  0  0  0
   -4.6930   24.1800  -28.7900 C   0  0  0  0  0  0  0  0  0  0  0  0
   -5.7420   25.0730  -29.0710 C   0  0  0  0  0  0  0  0  0  0  0  0
   -6.6030   24.8360  -30.1480 C   0  0  0  0  0  0  0  0  0  0  0  0
   -6.4200   23.7080  -30.9690 C   0  0  0  0  0  0  0  0  0  0  0  0
   -7.2610   23.4170  -32.0560 O   0  0  0  0  0  0  0  0  0  0  0  0
   -8.4490   22.6290  -31.9880 C   0  0  0  0  0  0  0  0  0  0  0  0
   -8.1380   21.1770  -32.2140 C   0  0  0  0  0  0  0  0  0  0  0  0
   -8.8970   20.1760  -31.5900 C   0  0  0  0  0  0  0  0  0  0  0  0
   -8.5970   18.8330  -31.8280 C   0  0  0  0  0  0  0  0  0  0  0  0
   -7.5480   18.4960  -32.6930 C   0  0  0  0  0  0  0  0  0  0  0  0
   -7.2180   17.1580  -32.9520 C   0  0  0  0  0  0  0  0  0  0  0  0
   -6.1660   16.8550  -33.8240 C   0  0  0  0  0  0  0  0  0  0  0  0
   -5.4420   17.8820  -34.4370 C   0  0  0  0  0  0  0  0  0  0  0  0
   -5.7650   19.2190  -34.1840 C   0  0  0  0  0  0  0  0  0  0  0  0
   -6.8150   19.5330  -33.3130 C   0  0  0  0  0  0  0  0  0  0  0  0
   -7.1310   20.8310  -33.0620 N   0  0  0  0  0  0  0  0  0  0  0  0
   -5.3580   22.8370  -30.7030 C   0  0  0  0  0  0  0  0  0  0  0  0
   -4.4960   23.0740  -29.6280 C   0  0  0  0  0  0  0  0  0  0  0  0
   -1.5100   25.0440  -26.7340 C   0  0  0  0  0  0  0  0  0  0  0  0
   -0.3980   24.1900  -26.5970 C   0  0  0  0  0  0  0  0  0  0  0  0
    0.4650   24.3200  -25.5040 C   0  0  0  0  0  0  0  0  0  0  0  0
    0.2270   25.2960  -24.5350 C   0  0  0  0  0  0  0  0  0  0  0  0
   -0.8790   26.1410  -24.6520 C   0  0  0  0  0  0  0  0  0  0  0  0
   -1.7460   26.0140  -25.7410 C   0  0  0  0  0  0  0  0  0  0  0  0
   -4.1400   24.2470  -26.7400 H   0  0  0  0  0  0  0  0  0  0  0  0
   -5.8865   25.9628  -28.4407 H   0  0  0  0  0  0  0  0  0  0  0  0
   -7.4271   25.5349  -30.3540 H   0  0  0  0  0  0  0  0  0  0  0  0
   -8.9058   22.7499  -30.9947 H   0  0  0  0  0  0  0  0  0  0  0  0
   -9.1428   22.9677  -32.7716 H   0  0  0  0  0  0  0  0  0  0  0  0
   -9.7238   20.4473  -30.9171 H   0  0  0  0  0  0  0  0  0  0  0  0
   -9.1830   18.0418  -31.3374 H   0  0  0  0  0  0  0  0  0  0  0  0
   -7.7851   16.3477  -32.4705 H   0  0  0  0  0  0  0  0  0  0  0  0
   -5.9080   15.8053  -34.0277 H   0  0  0  0  0  0  0  0  0  0  0  0
   -4.6156   17.6376  -35.1206 H   0  0  0  0  0  0  0  0  0  0  0  0
   -5.1939   20.0240  -34.6695 H   0  0  0  0  0  0  0  0  0  0  0  0
   -5.1998   21.9581  -31.3452 H   0  0  0  0  0  0  0  0  0  0  0  0
   -3.6575   22.3877  -29.4387 H   0  0  0  0  0  0  0  0  0  0  0  0
   -0.2072   23.4157  -27.3547 H   0  0  0  0  0  0  0  0  0  0  0  0
    1.3333   23.6515  -25.4078 H   0  0  0  0  0  0  0  0  0  0  0  0
    0.9104   25.3997  -23.6793 H   0  0  0  0  0  0  0  0  0  0  0  0
   -1.0680   26.9075  -23.8860 H   0  0  0  0  0  0  0  0  0  0  0  0
   -2.6198   26.6772  -25.8229 H   0  0  0  0  0  0  0  0  0  0  0  0
  1  2  2  0
  2  3  1  0
  3  4  1  0
  4  5  2  0
  5  6  1  0
  6  7  2  0
  7  8  1  0
  8  9  1  0
  9 10  1  0
 10 11  2  0
 11 12  1  0
 12 13  2  0
 13 14  1  0
 14 15  2  0
 15 16  1  0
 16 17  2  0
 17 18  1  0
 18 19  2  0
  7 20  1  0
 20 21  2  0
  2 22  1  0
 22 23  2  0
 23 24  1  0
 24 25  2  0
 25 26  1  0
 26 27  2  0
 21  4  1  0
 27 22  1  0
 19 10  1  0
 18 13  1  0
  3 28  1  0
  5 29  1  0
  6 30  1  0
  9 31  1  0
  9 32  1  0
 11 33  1  0
 12 34  1  0
 14 35  1  0
 15 36  1  0
 16 37  1  0
 17 38  1  0
 20 39  1  0
 21 40  1  0
 23 41  1  0
 24 42  1  0
 25 43  1  0
 26 44  1  0
 27 45  1  0
M  END
>  <UniqueID>  (44) 
39

>  <SMILES>  (44) 
O=C(Nc1ccc(OCc2ccc3ccccc3n2)cc1)c1ccccc1

>  <Energy>  (44) 
59.331054334738354

>  <Genealogy>  (44) 
O=C(Nc1ccc(OCc2ccc3ccccc3n2)cc1)c1ccccc1 (3D coordinates assigned)
O=C(Nc1ccc(OCc2ccc3ccccc3n2)cc1)c1ccccc1 (optimized conformer: 59.331054334738354 kcal/mol)

>  <smiles>  (44) 
O=C(Nc1ccc(OCc2ccc3ccccc3n2)cc1)c1ccccc1

>  <score_type>  (44) 
oracle

>  <origin>  (44) 
adgpu

>  <m_score__min__energy>  (44) 
-9.8399999999999999

>  <m_primary>  (44) 
energy

$$$$
44:0
     RDKit          3D

 44 46  0  0  0  0  0  0  0  0999 V2000
   -6.9150   23.3920  -30.1250 C   0  0  0  0  0  0  0  0  0  0  0  0
   -6.9100   23.7130  -31.6150 C   0  0  0  0  0  0  0  0  0  0  0  0
   -7.2920   22.5680  -32.3770 O   0  0  0  0  0  0  0  0  0  0  0  0
   -8.4440   21.8170  -32.1180 C   0  0  0  0  0  0  0  0  0  0  0  0
   -9.5200   22.3920  -31.7970 O   0  0  0  0  0  0  0  0  0  0  0  0
   -8.4080   20.3480  -32.2120 C   0  0  0  0  0  0  0  0  0  0  0  0
   -9.4600   19.4870  -31.9090 C   0  0  0  0  0  0  0  0  0  0  0  0
   -9.0930   18.2020  -32.1020 N   0  0  0  0  0  0  0  0  0  0  0  0
   -7.8170   18.2390  -32.5240 C   0  0  0  0  0  0  0  0  0  0  0  0
   -7.0140   17.1530  -32.8550 C   0  0  0  0  0  0  0  0  0  0  0  0
   -5.7000   17.4080  -33.2810 C   0  0  0  0  0  0  0  0  0  0  0  0
   -5.2080   18.7380  -33.3660 C   0  0  0  0  0  0  0  0  0  0  0  0
   -3.8620   19.0220  -33.7940 N   0  0  0  0  0  0  0  0  0  0  0  0
   -2.7380   19.2620  -32.8870 C   0  0  0  0  0  0  0  0  0  0  0  0
   -2.9270   20.5550  -32.1370 C   0  0  0  0  0  0  0  0  0  0  0  0
   -3.6860   21.5990  -32.6910 C   0  0  0  0  0  0  0  0  0  0  0  0
   -3.8600   22.7940  -31.9870 C   0  0  0  0  0  0  0  0  0  0  0  0
   -3.2820   22.9600  -30.7220 C   0  0  0  0  0  0  0  0  0  0  0  0
   -3.5140   24.4620  -29.8340 S   0  0  0  0  0  0  0  0  0  0  0  0
   -1.9810   25.0730  -29.3220 N   0  0  0  0  0  0  0  0  0  0  0  0
   -4.3840   24.2130  -28.6340 O   0  0  0  0  0  0  0  0  0  0  0  0
   -4.1870   25.4760  -30.7140 O   0  0  0  0  0  0  0  0  0  0  0  0
   -2.5420   21.9120  -30.1580 C   0  0  0  0  0  0  0  0  0  0  0  0
   -2.3660   20.7170  -30.8600 C   0  0  0  0  0  0  0  0  0  0  0  0
   -6.0580   19.8140  -33.0270 C   0  0  0  0  0  0  0  0  0  0  0  0
   -7.3600   19.5300  -32.6060 C   0  0  0  0  0  0  0  0  0  0  0  0
   -6.9004   24.3285  -29.5481 H   0  0  0  0  0  0  0  0  0  0  0  0
   -7.8221   22.8219  -29.8758 H   0  0  0  0  0  0  0  0  0  0  0  0
   -6.0261   22.7939  -29.8758 H   0  0  0  0  0  0  0  0  0  0  0  0
   -7.6192   24.5307  -31.8110 H   0  0  0  0  0  0  0  0  0  0  0  0
   -5.8933   24.0121  -31.9099 H   0  0  0  0  0  0  0  0  0  0  0  0
  -10.4524   19.8092  -31.5607 H   0  0  0  0  0  0  0  0  0  0  0  0
   -9.6840   17.3540  -31.9530 H   0  0  0  0  0  0  0  0  0  0  0  0
   -7.3967   16.1241  -32.7853 H   0  0  0  0  0  0  0  0  0  0  0  0
   -5.0440   16.5677  -33.5521 H   0  0  0  0  0  0  0  0  0  0  0  0
   -3.6740   19.1150  -34.8190 H   0  0  0  0  0  0  0  0  0  0  0  0
   -2.6714   18.4331  -32.1670 H   0  0  0  0  0  0  0  0  0  0  0  0
   -1.8132   19.3279  -33.4789 H   0  0  0  0  0  0  0  0  0  0  0  0
   -4.1453   21.4757  -33.6829 H   0  0  0  0  0  0  0  0  0  0  0  0
   -4.4537   23.6079  -32.4286 H   0  0  0  0  0  0  0  0  0  0  0  0
   -1.6260   25.6860  -30.0900 H   0  0  0  0  0  0  0  0  0  0  0  0
   -2.0980   22.0308  -29.1586 H   0  0  0  0  0  0  0  0  0  0  0  0
   -1.7848   19.8986  -30.4099 H   0  0  0  0  0  0  0  0  0  0  0  0
   -5.7028   20.8530  -33.0929 H   0  0  0  0  0  0  0  0  0  0  0  0
  1  2  1  0
  2  3  1  0
  3  4  1  0
  4  5  2  0
  4  6  1  0
  6  7  2  0
  7  8  1  0
  8  9  1  0
  9 10  2  0
 10 11  1  0
 11 12  2  0
 12 13  1  0
 13 14  1  0
 14 15  1  0
 15 16  2  0
 16 17  1  0
 17 18  2  0
 18 19  1  0
 19 20  1  0
 19 21  2  0
 19 22  2  0
 18 23  1  0
 23 24  2  0
 12 25  1  0
 25 26  2  0
 26  6  1  0
 26  9  1  0
 24 15  1  0
  1 27  1  0
  1 28  1  0
  1 29  1  0
  2 30  1  0
  2 31  1  0
  7 32  1  0
  8 33  1  0
 10 34  1  0
 11 35  1  0
 13 36  1  0
 14 37  1  0
 14 38  1  0
 16 39  1  0
 17 40  1  0
 20 41  1  0
 23 42  1  0
 24 43  1  0
 25 44  1  0
M  CHG  1  20  -1
M  END
>  <UniqueID>  (45) 
40

>  <SMILES>  (45) 
CCOC(=O)c1c[nH]c2ccc(NCc3ccc(S([NH-])(=O)=O)cc3)cc12

>  <Energy>  (45) 
74.05886848143412

>  <Genealogy>  (45) 
CCOC(=O)c1c[nH]c2ccc(NCc3ccc(S([NH-])(=O)=O)cc3)cc12 (protonated)
CCOC(=O)c1c[nH]c2ccc(NCc3ccc(S([NH-])(=O)=O)cc3)cc12 (3D coordinates assigned)
CCOC(=O)c1c[nH]c2ccc(NCc3ccc(S([NH-])(=O)=O)cc3)cc12 (optimized conformer: 74.05886848143412 kcal/mol)

>  <smiles>  (45) 
CCOC(=O)c1c[nH]c2ccc(NCc3ccc(S(N)(=O)=O)cc3)cc12

>  <score_type>  (45) 
oracle

>  <origin>  (45) 
adgpu

>  <m_score__min__energy>  (45) 
-10.720000000000001

>  <m_primary>  (45) 
energy

$$$$
45:0
     RDKit          3D

 46 48  0  0  0  0  0  0  0  0999 V2000
   -0.1250   22.7460  -24.1600 C   0  0  0  0  0  0  0  0  0  0  0  0
    0.6070   23.7790  -24.8110 O   0  0  0  0  0  0  0  0  0  0  0  0
    0.1830   25.1150  -24.9110 C   0  0  0  0  0  0  0  0  0  0  0  0
   -0.5330   25.7410  -23.8710 C   0  0  0  0  0  0  0  0  0  0  0  0
   -0.9180   27.0790  -23.9830 C   0  0  0  0  0  0  0  0  0  0  0  0
   -0.5890   27.8100  -25.1250 C   0  0  0  0  0  0  0  0  0  0  0  0
    0.1170   27.2020  -26.1640 C   0  0  0  0  0  0  0  0  0  0  0  0
    0.4910   25.8500  -26.0780 C   0  0  0  0  0  0  0  0  0  0  0  0
    1.1840   25.2220  -27.2280 C   0  0  0  0  0  0  0  0  0  0  0  0
    2.3950   25.4980  -27.4370 O   0  0  0  0  0  0  0  0  0  0  0  0
    0.5310   24.2840  -28.0990 N   0  0  0  0  0  0  0  0  0  0  0  0
   -0.8850   24.1100  -28.2690 C   0  0  0  0  0  0  0  0  0  0  0  0
   -1.5810   23.3070  -27.3570 C   0  0  0  0  0  0  0  0  0  0  0  0
   -2.9640   23.1510  -27.4670 C   0  0  0  0  0  0  0  0  0  0  0  0
   -3.6600   23.7820  -28.5020 C   0  0  0  0  0  0  0  0  0  0  0  0
   -2.9750   24.5470  -29.4540 C   0  0  0  0  0  0  0  0  0  0  0  0
   -3.7290   25.2080  -30.4800 N   0  0  0  0  0  0  0  0  0  0  0  0
   -5.1580   25.2180  -30.6150 C   0  0  0  0  0  0  0  0  0  0  0  0
   -5.8020   26.2790  -30.3920 O   0  0  0  0  0  0  0  0  0  0  0  0
   -5.8670   23.9970  -31.0730 C   0  0  0  0  0  0  0  0  0  0  0  0
   -7.2590   23.8980  -30.8890 C   0  0  0  0  0  0  0  0  0  0  0  0
   -7.9520   22.7580  -31.3040 C   0  0  0  0  0  0  0  0  0  0  0  0
   -7.2670   21.7040  -31.9080 C   0  0  0  0  0  0  0  0  0  0  0  0
   -5.8900   21.7870  -32.1080 C   0  0  0  0  0  0  0  0  0  0  0  0
   -5.1740   22.9320  -31.7010 C   0  0  0  0  0  0  0  0  0  0  0  0
   -3.7900   23.0440  -31.9210 O   0  0  0  0  0  0  0  0  0  0  0  0
   -2.8540   21.9840  -31.7560 C   0  0  0  0  0  0  0  0  0  0  0  0
   -1.5840   24.7080  -29.3330 C   0  0  0  0  0  0  0  0  0  0  0  0
   -0.0393   22.8669  -23.0700 H   0  0  0  0  0  0  0  0  0  0  0  0
   -1.1834   22.8058  -24.4535 H   0  0  0  0  0  0  0  0  0  0  0  0
    0.2822   21.7672  -24.4535 H   0  0  0  0  0  0  0  0  0  0  0  0
   -0.7903   25.1723  -22.9653 H   0  0  0  0  0  0  0  0  0  0  0  0
   -1.4820   27.5576  -23.1688 H   0  0  0  0  0  0  0  0  0  0  0  0
   -0.8862   28.8660  -25.2064 H   0  0  0  0  0  0  0  0  0  0  0  0
    0.3829   27.7858  -27.0576 H   0  0  0  0  0  0  0  0  0  0  0  0
   -1.0353   22.7965  -26.5498 H   0  0  0  0  0  0  0  0  0  0  0  0
   -3.5066   22.5308  -26.7383 H   0  0  0  0  0  0  0  0  0  0  0  0
   -4.7529   23.6769  -28.5691 H   0  0  0  0  0  0  0  0  0  0  0  0
   -7.8062   24.7257  -30.4141 H   0  0  0  0  0  0  0  0  0  0  0  0
   -9.0397   22.6917  -31.1541 H   0  0  0  0  0  0  0  0  0  0  0  0
   -7.8146   20.8050  -32.2273 H   0  0  0  0  0  0  0  0  0  0  0  0
   -5.3573   20.9525  -32.5873 H   0  0  0  0  0  0  0  0  0  0  0  0
   -2.6925   21.8011  -30.6834 H   0  0  0  0  0  0  0  0  0  0  0  0
   -3.2464   21.0715  -32.2286 H   0  0  0  0  0  0  0  0  0  0  0  0
   -1.8999   22.2604  -32.2286 H   0  0  0  0  0  0  0  0  0  0  0  0
   -1.0375   25.3067  -30.0766 H   0  0  0  0  0  0  0  0  0  0  0  0
  1  2  1  0
  2  3  1  0
  3  4  2  0
  4  5  1  0
  5  6  2  0
  6  7  1  0
  7  8  2  0
  8  9  1  0
  9 10  2  0
  9 11  1  0
 11 12  1  0
 12 13  2  0
 13 14  1  0
 14 15  2  0
 15 16  1  0
 16 17  1  0
 17 18  1  0
 18 19  2  0
 18 20  1  0
 20 21  2  0
 21 22  1  0
 22 23  2  0
 23 24  1  0
 24 25  2  0
 25 26  1  0
 26 27  1  0
 16 28  2  0
  8  3  1  0
 28 12  1  0
 25 20  1  0
  1 29  1  0
  1 30  1  0
  1 31  1  0
  4 32  1  0
  5 33  1  0
  6 34  1  0
  7 35  1  0
 13 36  1  0
 14 37  1  0
 15 38  1  0
 21 39  1  0
 22 40  1  0
 23 41  1  0
 24 42  1  0
 27 43  1  0
 27 44  1  0
 27 45  1  0
 28 46  1  0
M  CHG  2  11  -1  17  -1
M  END
>  <UniqueID>  (46) 
41

>  <SMILES>  (46) 
COc1ccccc1C(=O)[N-]c1cccc([N-]C(=O)c2ccccc2OC)c1

>  <Energy>  (46) 
60.73527925703132

>  <Genealogy>  (46) 
COc1ccccc1C(=O)[N-]c1cccc([N-]C(=O)c2ccccc2OC)c1 (protonated)
COc1ccccc1C(=O)[N-]c1cccc([N-]C(=O)c2ccccc2OC)c1 (3D coordinates assigned)
COc1ccccc1C(=O)[N-]c1cccc([N-]C(=O)c2ccccc2OC)c1 (optimized conformer: 60.73527925703132 kcal/mol)

>  <smiles>  (46) 
COc1ccccc1C(=O)Nc1cccc(NC(=O)c2ccccc2OC)c1

>  <score_type>  (46) 
oracle

>  <origin>  (46) 
adgpu

>  <m_score__min__energy>  (46) 
-10.529999999999999

>  <m_primary>  (46) 
energy

$$$$
46:0
     RDKit          3D

 57 60  0  0  1  0  0  0  0  0999 V2000
   -1.8840   17.7770  -34.5480 C   0  0  0  0  0  0  0  0  0  0  0  0
   -3.2170   16.5960  -34.6130 S   0  0  0  0  0  0  0  0  0  0  0  0
   -3.5220   16.3790  -36.0700 O   0  0  0  0  0  0  0  0  0  0  0  0
   -2.7770   15.2910  -34.0190 O   0  0  0  0  0  0  0  0  0  0  0  0
   -4.6090   17.1510  -33.7340 C   0  0  0  0  0  0  0  0  0  0  0  0
   -5.0210   16.6140  -32.5290 C   0  0  0  0  0  0  0  0  0  0  0  0
   -6.1480   17.0940  -31.8580 C   0  0  0  0  0  0  0  0  0  0  0  0
   -6.8520   18.1310  -32.4290 C   0  0  0  0  0  0  0  0  0  0  0  0
   -7.9890   18.6860  -31.8490 O   0  0  0  0  0  0  0  0  0  0  0  0
   -8.2210   20.0310  -31.7570 C   0  0  0  0  0  0  0  0  0  0  0  0
   -9.4290   20.5170  -32.2040 C   0  0  0  0  0  0  0  0  0  0  0  0
   -9.6330   21.8750  -32.0990 C   0  0  0  0  0  0  0  0  0  0  0  0
   -8.6470   22.7000  -31.5610 C   0  0  0  0  0  0  0  0  0  0  0  0
   -7.4410   22.2160  -31.1140 C   0  0  0  0  0  0  0  0  0  0  0  0
   -6.4020   22.9960  -30.5650 N   0  0  0  0  0  0  0  0  0  0  0  0
   -5.4210   23.7110  -31.2620 C   0  0  0  0  0  0  0  0  0  0  0  0
   -5.3590   23.7330  -32.5050 O   0  0  0  0  0  0  0  0  0  0  0  0
   -4.4370   24.4550  -30.5220 N   0  0  0  0  0  0  0  0  0  0  0  0
   -3.9140   23.8760  -29.4990 C   0  0  0  0  0  0  0  0  0  0  0  0
   -2.9510   24.5360  -28.7310 C   0  0  0  0  0  0  0  0  0  0  0  0
   -2.3820   23.9430  -27.6390 C   0  0  0  0  0  0  0  0  0  0  0  0
   -1.4030   24.5990  -26.8470 N   0  0  0  0  0  0  0  0  0  0  0  0
   -0.0060   24.2200  -26.8110 C   0  0  0  0  0  0  0  0  0  0  0  0
    0.2400   23.6140  -25.4470 C   0  0  0  0  0  0  0  0  0  0  0  0
   -0.4000   24.4500  -24.4540 N   0  0  0  0  0  0  0  0  0  0  0  0
   -0.7010   25.7790  -24.9160 C   0  0  0  0  0  0  0  0  0  0  0  0
   -1.7840   25.7300  -25.9990 C   0  0  0  0  0  0  0  0  0  0  0  0
   -2.7690   22.7060  -27.3190 N   0  0  0  0  0  0  0  0  0  0  0  0
   -3.7070   22.0320  -28.0460 C   0  0  0  0  0  0  0  0  0  0  0  0
   -4.2730   22.6250  -29.1340 N   0  0  0  0  0  0  0  0  0  0  0  0
   -7.2560   20.8470  -31.2300 C   0  0  0  0  0  0  0  0  0  0  0  0
   -6.4580   18.6910  -33.6450 C   0  0  0  0  0  0  0  0  0  0  0  0
   -5.3420   18.2020  -34.2910 C   0  0  0  0  0  0  0  0  0  0  0  0
   -1.6381   17.9949  -33.4982 H   0  0  0  0  0  0  0  0  0  0  0  0
   -1.0000   17.3603  -35.0528 H   0  0  0  0  0  0  0  0  0  0  0  0
   -2.1912   18.7048  -35.0528 H   0  0  0  0  0  0  0  0  0  0  0  0
   -4.4463   15.7869  -32.0868 H   0  0  0  0  0  0  0  0  0  0  0  0
   -6.4646   16.6559  -30.9000 H   0  0  0  0  0  0  0  0  0  0  0  0
  -10.1963   19.8511  -32.6258 H   0  0  0  0  0  0  0  0  0  0  0  0
  -10.5821   22.3121  -32.4427 H   0  0  0  0  0  0  0  0  0  0  0  0
   -8.8416   23.7804  -31.4915 H   0  0  0  0  0  0  0  0  0  0  0  0
   -6.3540   23.0520  -29.5040 H   0  0  0  0  0  0  0  0  0  0  0  0
   -2.6444   25.5545  -29.0113 H   0  0  0  0  0  0  0  0  0  0  0  0
    0.2080   23.4825  -27.5986 H   0  0  0  0  0  0  0  0  0  0  0  0
    0.6463   25.0888  -26.9837 H   0  0  0  0  0  0  0  0  0  0  0  0
   -0.1848   22.6001  -25.4088 H   0  0  0  0  0  0  0  0  0  0  0  0
    1.3204   23.5524  -25.2499 H   0  0  0  0  0  0  0  0  0  0  0  0
    0.2580   24.5470  -23.6540 H   0  0  0  0  0  0  0  0  0  0  0  0
   -1.0594   26.3850  -24.0709 H   0  0  0  0  0  0  0  0  0  0  0  0
    0.2101   26.2268  -25.3394 H   0  0  0  0  0  0  0  0  0  0  0  0
   -2.7748   25.5637  -25.5510 H   0  0  0  0  0  0  0  0  0  0  0  0
   -1.8540   26.6714  -26.5636 H   0  0  0  0  0  0  0  0  0  0  0  0
   -2.3930   22.1620  -26.4990 H   0  0  0  0  0  0  0  0  0  0  0  0
   -4.0048   21.0140  -27.7546 H   0  0  0  0  0  0  0  0  0  0  0  0
   -6.3083   20.4043  -30.8895 H   0  0  0  0  0  0  0  0  0  0  0  0
   -7.0343   19.5178  -34.0857 H   0  0  0  0  0  0  0  0  0  0  0  0
   -5.0275   18.6414  -35.2491 H   0  0  0  0  0  0  0  0  0  0  0  0
  1  2  1  0
  2  3  2  0
  2  4  2  0
  2  5  1  0
  5  6  2  0
  6  7  1  0
  7  8  2  0
  8  9  1  0
  9 10  1  0
 10 11  2  0
 11 12  1  0
 12 13  2  0
 13 14  1  0
 14 15  1  0
 15 16  1  0
 16 17  2  0
 16 18  1  0
 18 19  2  0
 19 20  1  0
 20 21  2  0
 21 22  1  0
 22 23  1  0
 23 24  1  0
 24 25  1  0
 25 26  1  0
 26 27  1  0
 21 28  1  0
 28 29  1  0
 29 30  2  0
 14 31  2  0
  8 32  1  0
 32 33  2  0
 33  5  1  0
 31 10  1  0
 30 19  1  0
 27 22  1  0
  1 34  1  0
  1 35  1  0
  1 36  1  0
  6 37  1  0
  7 38  1  0
 11 39  1  0
 12 40  1  0
 13 41  1  0
 15 42  1  0
 20 43  1  0
 23 44  1  0
 23 45  1  0
 24 46  1  0
 24 47  1  0
 25 48  1  0
 26 49  1  0
 26 50  1  0
 27 51  1  0
 27 52  1  0
 28 53  1  0
 29 54  1  0
 31 55  1  0
 32 56  1  0
 33 57  1  0
M  END
>  <smiles>  (47) 
CS(=O)(=O)c1ccc(Oc2cccc(NC(=O)N=c3cc(N4CCNCC4)[nH]cn3)c2)cc1

>  <score_type>  (47) 
oracle

>  <origin>  (47) 
adgpu

>  <m_score__min__energy>  (47) 
-9.7699999999999996

>  <m_primary>  (47) 
energy

$$$$
47:0
     RDKit          3D

 55 58  0  0  0  0  0  0  0  0999 V2000
   -5.9821   18.7223  -33.8097 H   0  0  0  0  0  0  0  0  0  0  0  0
   -6.1570   19.6720  -33.2830 C   0  0  0  0  0  0  0  0  0  0  0  0
   -5.1000   20.5600  -33.0750 C   0  0  0  0  0  0  0  0  0  0  0  0
   -4.0936   20.3126  -33.4437 H   0  0  0  0  0  0  0  0  0  0  0  0
   -5.3200   21.7640  -32.3980 C   0  0  0  0  0  0  0  0  0  0  0  0
   -4.4841   22.4603  -32.2357 H   0  0  0  0  0  0  0  0  0  0  0  0
   -6.5990   22.0890  -31.9250 C   0  0  0  0  0  0  0  0  0  0  0  0
   -6.8430   23.3760  -31.1830 C   0  0  0  0  0  0  0  0  0  0  0  0
   -7.0740   23.1479  -30.1320 H   0  0  0  0  0  0  0  0  0  0  0  0
   -7.6864   23.9007  -31.6557 H   0  0  0  0  0  0  0  0  0  0  0  0
   -5.6650   24.2390  -31.2380 N   0  0  0  0  0  0  0  0  0  0  0  0
   -4.7050   24.2530  -30.3610 C   0  0  0  0  0  0  0  0  0  0  0  0
   -3.6450   25.0840  -30.4670 N   0  0  0  0  0  0  0  0  0  0  0  0
   -2.7850   24.9260  -29.4260 C   0  0  0  0  0  0  0  0  0  0  0  0
   -1.6170   25.6730  -29.3250 O   0  0  0  0  0  0  0  0  0  0  0  0
   -3.1620   23.9750  -28.4820 C   0  0  0  0  0  0  0  0  0  0  0  0
   -2.3890   23.5710  -27.2650 C   0  0  0  0  0  0  0  0  0  0  0  0
   -3.0615   23.5628  -26.3945 H   0  0  0  0  0  0  0  0  0  0  0  0
   -1.5729   24.2910  -27.1050 H   0  0  0  0  0  0  0  0  0  0  0  0
   -1.8030   22.2050  -27.4490 C   0  0  0  0  0  0  0  0  0  0  0  0
   -1.5950   21.4830  -26.4350 O   0  0  0  0  0  0  0  0  0  0  0  0
   -1.5340   21.7100  -28.7700 N   0  0  0  0  0  0  0  0  0  0  0  0
   -1.9790   22.2090  -29.5760 H   0  0  0  0  0  0  0  0  0  0  0  0
   -0.7790   20.5190  -29.0530 C   0  0  0  0  0  0  0  0  0  0  0  0
   -0.8330   19.4430  -28.1560 C   0  0  0  0  0  0  0  0  0  0  0  0
   -1.4320   19.5285  -27.2374 H   0  0  0  0  0  0  0  0  0  0  0  0
   -0.1320   18.2620  -28.4190 C   0  0  0  0  0  0  0  0  0  0  0  0
   -0.1767   17.4270  -27.7043 H   0  0  0  0  0  0  0  0  0  0  0  0
    0.6270   18.1390  -29.5900 C   0  0  0  0  0  0  0  0  0  0  0  0
    1.5230   16.6550  -29.9200 S   0  0  0  0  0  0  0  0  0  0  0  0
    0.5580   15.5080  -30.0180 O   0  0  0  0  0  0  0  0  0  0  0  0
    2.2260   16.7840  -31.2410 O   0  0  0  0  0  0  0  0  0  0  0  0
    2.6990   16.3200  -28.6720 N   0  0  0  0  0  0  0  0  0  0  0  0
    2.2860   15.1840  -27.8230 C   0  0  0  0  0  0  0  0  0  0  0  0
    1.4484   14.6631  -28.3100 H   0  0  0  0  0  0  0  0  0  0  0  0
    3.1532   14.5181  -27.7019 H   0  0  0  0  0  0  0  0  0  0  0  0
    1.8400   15.6410  -26.4240 C   0  0  0  0  0  0  0  0  0  0  0  0
    0.9710   16.3067  -26.5318 H   0  0  0  0  0  0  0  0  0  0  0  0
    1.5931   14.7399  -25.8435 H   0  0  0  0  0  0  0  0  0  0  0  0
    2.8600   16.3360  -25.7230 O   0  0  0  0  0  0  0  0  0  0  0  0
    3.6410   17.1950  -26.5510 C   0  0  0  0  0  0  0  0  0  0  0  0
    3.8169   18.1326  -26.0033 H   0  0  0  0  0  0  0  0  0  0  0  0
    4.5680   16.6489  -26.7802 H   0  0  0  0  0  0  0  0  0  0  0  0
    2.9940   17.5430  -27.9030 C   0  0  0  0  0  0  0  0  0  0  0  0
    2.0574   18.0914  -27.7242 H   0  0  0  0  0  0  0  0  0  0  0  0
    3.6957   18.1624  -28.4809 H   0  0  0  0  0  0  0  0  0  0  0  0
    0.6610   19.2020  -30.5040 C   0  0  0  0  0  0  0  0  0  0  0  0
    1.2442   19.1076  -31.4319 H   0  0  0  0  0  0  0  0  0  0  0  0
   -0.0420   20.3800  -30.2420 C   0  0  0  0  0  0  0  0  0  0  0  0
   -0.0189   21.2040  -30.9704 H   0  0  0  0  0  0  0  0  0  0  0  0
   -4.6170   23.2900  -28.9760 S   0  0  0  0  0  0  0  0  0  0  0  0
   -7.6600   21.1930  -32.1460 C   0  0  0  0  0  0  0  0  0  0  0  0
   -8.6695   21.4398  -31.7855 H   0  0  0  0  0  0  0  0  0  0  0  0
   -7.4370   19.9900  -32.8220 C   0  0  0  0  0  0  0  0  0  0  0  0
   -8.2706   19.2926  -32.9913 H   0  0  0  0  0  0  0  0  0  0  0  0
  1  2  1  0
  2  3  2  0
  3  4  1  0
  3  5  1  0
  5  6  1  0
  5  7  2  0
  7  8  1  0
  8  9  1  0
  8 10  1  0
  8 11  1  0
 11 12  2  0
 12 13  1  0
 13 14  1  0
 14 15  1  0
 14 16  2  0
 16 17  1  0
 17 18  1  0
 17 19  1  0
 17 20  1  0
 20 21  2  0
 20 22  1  0
 22 23  1  0
 22 24  1  0
 24 25  2  0
 25 26  1  0
 25 27  1  0
 27 28  1  0
 27 29  2  0
 29 30  1  0
 30 31  2  0
 30 32  2  0
 30 33  1  0
 33 34  1  0
 34 35  1  0
 34 36  1  0
 34 37  1  0
 37 38  1  0
 37 39  1  0
 37 40  1  0
 40 41  1  0
 41 42  1  0
 41 43  1  0
 41 44  1  0
 44 45  1  0
 44 46  1  0
 29 47  1  0
 47 48  1  0
 47 49  2  0
 49 50  1  0
 16 51  1  0
  7 52  1  0
 52 53  1  0
 52 54  2  0
 54 55  1  0
 54  2  1  0
 51 12  1  0
 49 24  1  0
 44 33  1  0
M  CHG  2  13  -1  15  -1
M  END
>  <UniqueID>  (48) 
42

>  <SMILES>  (48) 
O=C(Cc1s/c(=N\Cc2ccccc2)[n-]c1[O-])Nc1ccc(S(=O)(=O)N2CCOCC2)cc1

>  <Energy>  (48) 
101.05892402775739

>  <Genealogy>  (48) 
O=C(Cc1sc(=NCc2ccccc2)[n-]c1[O-])Nc1ccc(S(=O)(=O)N2CCOCC2)cc1 (protonated)
O=C(Cc1s/c(=N\Cc2ccccc2)[n-]c1[O-])Nc1ccc(S(=O)(=O)N2CCOCC2)cc1 (cis-trans isomerization)
O=C(Cc1s/c(=N\Cc2ccccc2)[n-]c1[O-])Nc1ccc(S(=O)(=O)N2CCOCC2)cc1 (3D coordinates assigned)
O=C(Cc1s/c(=N\Cc2ccccc2)[n-]c1[O-])Nc1ccc(S(=O)(=O)N2CCOCC2)cc1 (nonaromatic ring conformer: 101.05892402775739 kcal/mol)

>  <smiles>  (48) 
O=C(Cc1sc(=NCc2ccccc2)[nH]c1O)Nc1ccc(S(=O)(=O)N2CCOCC2)cc1

>  <score_type>  (48) 
oracle

>  <origin>  (48) 
adgpu

>  <m_score__min__energy>  (48) 
-13.34

>  <m_primary>  (48) 
energy

$$$$
48:0
     RDKit          3D

 33 35  0  0  0  0  0  0  0  0999 V2000
   -2.2970   23.3330  -27.8360 C   0  0  0  0  0  0  0  0  0  0  0  0
   -3.1660   23.9480  -28.8800 C   0  0  0  0  0  0  0  0  0  0  0  0
   -4.5020   23.6750  -29.0820 C   0  0  0  0  0  0  0  0  0  0  0  0
   -4.8650   24.5410  -30.0930 C   0  0  0  0  0  0  0  0  0  0  0  0
   -6.2010   24.6380  -30.7100 C   0  0  0  0  0  0  0  0  0  0  0  0
   -7.0980   25.3090  -30.1350 O   0  0  0  0  0  0  0  0  0  0  0  0
   -6.5300   23.9320  -31.9130 N   0  0  0  0  0  0  0  0  0  0  0  0
   -7.2810   22.7130  -31.9990 C   0  0  0  0  0  0  0  0  0  0  0  0
   -8.6210   22.7130  -31.5990 C   0  0  0  0  0  0  0  0  0  0  0  0
   -9.3830   21.5470  -31.6870 C   0  0  0  0  0  0  0  0  0  0  0  0
   -8.8160   20.3730  -32.1900 C   0  0  0  0  0  0  0  0  0  0  0  0
   -7.4790   20.3580  -32.6240 C   0  0  0  0  0  0  0  0  0  0  0  0
   -6.8760   19.1150  -33.1700 C   0  0  0  0  0  0  0  0  0  0  0  0
   -7.1240   17.8700  -32.5630 C   0  0  0  0  0  0  0  0  0  0  0  0
   -6.5480   16.7140  -33.0970 C   0  0  0  0  0  0  0  0  0  0  0  0
   -5.7540   16.7910  -34.1960 N   0  0  0  0  0  0  0  0  0  0  0  0
   -5.4960   17.9780  -34.8050 C   0  0  0  0  0  0  0  0  0  0  0  0
   -6.0490   19.1590  -34.3060 C   0  0  0  0  0  0  0  0  0  0  0  0
   -6.7200   21.5400  -32.5360 C   0  0  0  0  0  0  0  0  0  0  0  0
   -3.8000   25.2800  -30.4620 N   0  0  0  0  0  0  0  0  0  0  0  0
   -2.7660   24.9260  -29.7140 N   0  0  0  0  0  0  0  0  0  0  0  0
   -2.6760   23.6012  -26.8388 H   0  0  0  0  0  0  0  0  0  0  0  0
   -2.3058   22.2389  -27.9495 H   0  0  0  0  0  0  0  0  0  0  0  0
   -1.2681   23.7052  -27.9495 H   0  0  0  0  0  0  0  0  0  0  0  0
   -5.1312   22.9393  -28.5597 H   0  0  0  0  0  0  0  0  0  0  0  0
   -9.0768   23.6367  -31.2130 H   0  0  0  0  0  0  0  0  0  0  0  0
  -10.4331   21.5522  -31.3594 H   0  0  0  0  0  0  0  0  0  0  0  0
   -9.4195   19.4551  -32.2467 H   0  0  0  0  0  0  0  0  0  0  0  0
   -7.7676   17.8069  -31.6732 H   0  0  0  0  0  0  0  0  0  0  0  0
   -6.7384   15.7386  -32.6255 H   0  0  0  0  0  0  0  0  0  0  0  0
   -4.8492   18.0086  -35.6942 H   0  0  0  0  0  0  0  0  0  0  0  0
   -5.8386   20.1193  -34.7994 H   0  0  0  0  0  0  0  0  0  0  0  0
   -5.6787   21.5466  -32.8903 H   0  0  0  0  0  0  0  0  0  0  0  0
  1  2  1  0
  2  3  1  0
  3  4  2  0
  4  5  1  0
  5  6  2  0
  5  7  1  0
  7  8  1  0
  8  9  2  0
  9 10  1  0
 10 11  2  0
 11 12  1  0
 12 13  1  0
 13 14  2  0
 14 15  1  0
 15 16  2  0
 16 17  1  0
 17 18  2  0
 12 19  2  0
  4 20  1  0
 20 21  1  0
 21  2  2  0
 19  8  1  0
 18 13  1  0
  1 22  1  0
  1 23  1  0
  1 24  1  0
  3 25  1  0
  9 26  1  0
 10 27  1  0
 11 28  1  0
 14 29  1  0
 15 30  1  0
 17 31  1  0
 18 32  1  0
 19 33  1  0
M  CHG  2   7  -1  20  -1
M  END
>  <UniqueID>  (49) 
43

>  <SMILES>  (49) 
Cc1cc(C(=O)[N-]c2cccc(-c3ccncc3)c2)[n-]n1

>  <Energy>  (49) 
74.20774832027536

>  <Genealogy>  (49) 
Cc1cc(C(=O)[N-]c2cccc(-c3ccncc3)c2)[n-]n1 (protonated)
Cc1cc(C(=O)[N-]c2cccc(-c3ccncc3)c2)[n-]n1 (3D coordinates assigned)
Cc1cc(C(=O)[N-]c2cccc(-c3ccncc3)c2)[n-]n1 (optimized conformer: 74.20774832027536 kcal/mol)

>  <smiles>  (49) 
Cc1cc(C(=O)Nc2cccc(-c3ccncc3)c2)[nH]n1

>  <score_type>  (49) 
oracle

>  <origin>  (49) 
adgpu

>  <m_score__min__energy>  (49) 
-10.94

>  <m_primary>  (49) 
energy

$$$$
