0:0
     RDKit          3D

 59 61  0  0  0  0  0  0  0  0999 V2000
   -6.5080   17.7670  -31.2570 C   0  0  0  0  0  0  0  0  0  0  0  0
   -7.2460   18.3960  -32.4350 C   0  0  0  0  0  0  0  0  0  0  0  0
   -6.4110   19.4010  -33.1090 N   0  0  0  0  0  0  0  0  0  0  0  0
   -6.1250   19.2460  -34.5440 C   0  0  0  0  0  0  0  0  0  0  0  0
   -5.7470   17.8050  -34.8810 C   0  0  0  0  0  0  0  0  0  0  0  0
   -6.1590   20.6590  -32.4500 C   0  0  0  0  0  0  0  0  0  0  0  0
   -7.2540   21.4940  -32.1710 C   0  0  0  0  0  0  0  0  0  0  0  0
   -7.0750   22.7110  -31.5170 C   0  0  0  0  0  0  0  0  0  0  0  0
   -5.7990   23.1130  -31.1190 C   0  0  0  0  0  0  0  0  0  0  0  0
   -5.5950   24.6360  -30.2590 S   0  0  0  0  0  0  0  0  0  0  0  0
   -6.9410   25.2870  -30.1120 O   0  0  0  0  0  0  0  0  0  0  0  0
   -4.6850   25.5630  -31.0160 O   0  0  0  0  0  0  0  0  0  0  0  0
   -4.9260   24.3390  -28.6870 N   0  0  0  0  0  0  0  0  0  0  0  0
   -3.7560   23.5280  -28.4610 C   0  0  0  0  0  0  0  0  0  0  0  0
   -3.8550   22.2370  -27.9070 C   0  0  0  0  0  0  0  0  0  0  0  0
   -2.7070   21.4690  -27.6900 C   0  0  0  0  0  0  0  0  0  0  0  0
   -1.4510   21.9740  -28.0300 C   0  0  0  0  0  0  0  0  0  0  0  0
   -1.3400   23.2480  -28.5910 C   0  0  0  0  0  0  0  0  0  0  0  0
   -2.4840   24.0240  -28.8090 C   0  0  0  0  0  0  0  0  0  0  0  0
   -2.3460   25.2920  -29.3650 O   0  0  0  0  0  0  0  0  0  0  0  0
   -4.6990   22.2930  -31.3890 C   0  0  0  0  0  0  0  0  0  0  0  0
   -4.8560   21.0700  -32.0650 C   0  0  0  0  0  0  0  0  0  0  0  0
   -3.4080   20.1020  -32.3940 S   0  0  0  0  0  0  0  0  0  0  0  0
   -2.5160   20.0600  -31.1840 O   0  0  0  0  0  0  0  0  0  0  0  0
   -3.8020   18.6910  -32.7200 O   0  0  0  0  0  0  0  0  0  0  0  0
   -2.5390   20.7650  -33.7410 N   0  0  0  0  0  0  0  0  0  0  0  0
   -1.1490   20.5630  -34.0290 C   0  0  0  0  0  0  0  0  0  0  0  0
   -0.4710   19.3900  -33.6610 C   0  0  0  0  0  0  0  0  0  0  0  0
    0.8860   19.2370  -33.9590 C   0  0  0  0  0  0  0  0  0  0  0  0
    1.5850   20.2440  -34.6320 C   0  0  0  0  0  0  0  0  0  0  0  0
    2.9470   20.0430  -34.9050 O   0  0  0  0  0  0  0  0  0  0  0  0
    3.8860   19.5250  -33.9680 C   0  0  0  0  0  0  0  0  0  0  0  0
    0.9030   21.4150  -35.0120 C   0  0  0  0  0  0  0  0  0  0  0  0
   -0.4570   21.5640  -34.7180 C   0  0  0  0  0  0  0  0  0  0  0  0
   -6.9400   18.1352  -30.3148 H   0  0  0  0  0  0  0  0  0  0  0  0
   -6.6085   16.6726  -31.3035 H   0  0  0  0  0  0  0  0  0  0  0  0
   -5.4434   18.0397  -31.3035 H   0  0  0  0  0  0  0  0  0  0  0  0
   -7.5105   17.6077  -33.1551 H   0  0  0  0  0  0  0  0  0  0  0  0
   -8.1508   18.8927  -32.0546 H   0  0  0  0  0  0  0  0  0  0  0  0
   -7.0192   19.5262  -35.1201 H   0  0  0  0  0  0  0  0  0  0  0  0
   -5.2768   19.8973  -34.8018 H   0  0  0  0  0  0  0  0  0  0  0  0
   -5.5982   17.2377  -33.9504 H   0  0  0  0  0  0  0  0  0  0  0  0
   -6.5540   17.3418  -35.4677 H   0  0  0  0  0  0  0  0  0  0  0  0
   -4.8165   17.7976  -35.4677 H   0  0  0  0  0  0  0  0  0  0  0  0
   -8.2651   21.1830  -32.4727 H   0  0  0  0  0  0  0  0  0  0  0  0
   -7.9418   23.3570  -31.3137 H   0  0  0  0  0  0  0  0  0  0  0  0
   -5.4770   24.6870  -27.8700 H   0  0  0  0  0  0  0  0  0  0  0  0
   -4.8423   21.8301  -27.6432 H   0  0  0  0  0  0  0  0  0  0  0  0
   -2.7939   20.4644  -27.2503 H   0  0  0  0  0  0  0  0  0  0  0  0
   -0.5491   21.3688  -27.8561 H   0  0  0  0  0  0  0  0  0  0  0  0
   -0.3499   23.6430  -28.8625 H   0  0  0  0  0  0  0  0  0  0  0  0
   -3.6957   22.6094  -31.0677 H   0  0  0  0  0  0  0  0  0  0  0  0
   -1.0101   18.5878  -33.1358 H   0  0  0  0  0  0  0  0  0  0  0  0
    1.4089   18.3161  -33.6614 H   0  0  0  0  0  0  0  0  0  0  0  0
    3.5303   19.7212  -32.9458 H   0  0  0  0  0  0  0  0  0  0  0  0
    3.9927   18.4404  -34.1172 H   0  0  0  0  0  0  0  0  0  0  0  0
    4.8603   20.0132  -34.1172 H   0  0  0  0  0  0  0  0  0  0  0  0
    1.4405   22.2154  -35.5416 H   0  0  0  0  0  0  0  0  0  0  0  0
   -0.9861   22.4760  -35.0314 H   0  0  0  0  0  0  0  0  0  0  0  0
  1  2  1  0
  2  3  1  0
  3  4  1  0
  4  5  1  0
  3  6  1  0
  6  7  2  0
  7  8  1  0
  8  9  2  0
  9 10  1  0
 10 11  2  0
 10 12  2  0
 10 13  1  0
 13 14  1  0
 14 15  2  0
 15 16  1  0
 16 17  2  0
 17 18  1  0
 18 19  2  0
 19 20  1  0
  9 21  1  0
 21 22  2  0
 22 23  1  0
 23 24  2  0
 23 25  2  0
 23 26  1  0
 26 27  1  0
 27 28  2  0
 28 29  1  0
 29 30  2  0
 30 31  1  0
 31 32  1  0
 30 33  1  0
 33 34  2  0
 22  6  1  0
 34 27  1  0
 19 14  1  0
  1 35  1  0
  1 36  1  0
  1 37  1  0
  2 38  1  0
  2 39  1  0
  4 40  1  0
  4 41  1  0
  5 42  1  0
  5 43  1  0
  5 44  1  0
  7 45  1  0
  8 46  1  0
 13 47  1  0
 15 48  1  0
 16 49  1  0
 17 50  1  0
 18 51  1  0
 21 52  1  0
 28 53  1  0
 29 54  1  0
 32 55  1  0
 32 56  1  0
 32 57  1  0
 33 58  1  0
 34 59  1  0
M  CHG  2  20  -1  26  -1
M  END
>  <UniqueID>  (1) 
1

>  <SMILES>  (1) 
CCN(CC)c1ccc(S(=O)(=O)Nc2ccccc2[O-])cc1S(=O)(=O)[N-]c1ccc(OC)cc1

>  <Energy>  (1) 
68.82906977271425

>  <Genealogy>  (1) 
CCN(CC)c1ccc(S(=O)(=O)Nc2ccccc2[O-])cc1S(=O)(=O)[N-]c1ccc(OC)cc1 (protonated)
CCN(CC)c1ccc(S(=O)(=O)Nc2ccccc2[O-])cc1S(=O)(=O)[N-]c1ccc(OC)cc1 (3D coordinates assigned)
CCN(CC)c1ccc(S(=O)(=O)Nc2ccccc2[O-])cc1S(=O)(=O)[N-]c1ccc(OC)cc1 (optimized conformer: 68.82906977271425 kcal/mol)

>  <smiles>  (1) 
CCN(CC)c1ccc(S(=O)(=O)Nc2ccccc2O)cc1S(=O)(=O)Nc1ccc(OC)cc1

>  <score_type>  (1) 
oracle

>  <origin>  (1) 
adgpu

>  <m_score__min__energy>  (1) 
-13.029999999999999

>  <m_primary>  (1) 
energy

$$$$
1:0
     RDKit          3D

 35 37  0  0  0  0  0  0  0  0999 V2000
   -4.0320   25.5790  -30.4820 O   0  0  0  0  0  0  0  0  0  0  0  0
   -3.5030   24.4390  -30.3780 C   0  0  0  0  0  0  0  0  0  0  0  0
   -3.6880   23.4730  -31.4220 N   0  0  0  0  0  0  0  0  0  0  0  0
   -4.8040   22.5850  -31.5810 C   0  0  0  0  0  0  0  0  0  0  0  0
   -4.5920   21.2080  -31.4400 C   0  0  0  0  0  0  0  0  0  0  0  0
   -5.6480   20.3070  -31.6070 C   0  0  0  0  0  0  0  0  0  0  0  0
   -6.9260   20.7740  -31.9390 C   0  0  0  0  0  0  0  0  0  0  0  0
   -8.2590   19.6410  -32.1350 S   0  0  0  0  0  0  0  0  0  0  0  0
   -9.1000   20.0520  -33.3120 O   0  0  0  0  0  0  0  0  0  0  0  0
   -9.1100   19.6460  -30.8960 O   0  0  0  0  0  0  0  0  0  0  0  0
   -7.6130   18.0550  -32.3990 N   0  0  0  0  0  0  0  0  0  0  0  0
   -6.7130   17.7960  -33.2960 C   0  0  0  0  0  0  0  0  0  0  0  0
   -6.1800   18.7240  -34.1200 N   0  0  0  0  0  0  0  0  0  0  0  0
   -5.2620   18.1720  -34.9580 C   0  0  0  0  0  0  0  0  0  0  0  0
   -5.0650   16.8040  -34.7980 C   0  0  0  0  0  0  0  0  0  0  0  0
   -6.0770   16.2670  -33.5640 S   0  0  0  0  0  0  0  0  0  0  0  0
   -7.1400   22.1490  -32.0980 C   0  0  0  0  0  0  0  0  0  0  0  0
   -6.0850   23.0510  -31.9300 C   0  0  0  0  0  0  0  0  0  0  0  0
   -2.7450   24.0900  -29.1460 C   0  0  0  0  0  0  0  0  0  0  0  0
   -3.1060   22.9400  -28.4140 C   0  0  0  0  0  0  0  0  0  0  0  0
   -2.4120   22.5840  -27.2550 C   0  0  0  0  0  0  0  0  0  0  0  0
   -1.3500   23.3680  -26.8050 C   0  0  0  0  0  0  0  0  0  0  0  0
   -0.9800   24.5110  -27.5130 C   0  0  0  0  0  0  0  0  0  0  0  0
   -1.6670   24.8800  -28.6760 C   0  0  0  0  0  0  0  0  0  0  0  0
   -1.2690   26.0340  -29.3420 O   0  0  0  0  0  0  0  0  0  0  0  0
   -3.5873   20.8324  -31.1961 H   0  0  0  0  0  0  0  0  0  0  0  0
   -5.4746   19.2285  -31.4773 H   0  0  0  0  0  0  0  0  0  0  0  0
   -4.7154   18.7636  -35.7072 H   0  0  0  0  0  0  0  0  0  0  0  0
   -4.3683   16.1807  -35.3777 H   0  0  0  0  0  0  0  0  0  0  0  0
   -8.1425   22.5209  -32.3562 H   0  0  0  0  0  0  0  0  0  0  0  0
   -6.2569   24.1283  -32.0711 H   0  0  0  0  0  0  0  0  0  0  0  0
   -3.9435   22.3162  -28.7595 H   0  0  0  0  0  0  0  0  0  0  0  0
   -2.7040   21.6829  -26.6958 H   0  0  0  0  0  0  0  0  0  0  0  0
   -0.8048   23.0850  -25.8925 H   0  0  0  0  0  0  0  0  0  0  0  0
   -0.1421   25.1274  -27.1552 H   0  0  0  0  0  0  0  0  0  0  0  0
  1  2  2  0
  2  3  1  0
  3  4  1  0
  4  5  2  0
  5  6  1  0
  6  7  2  0
  7  8  1  0
  8  9  2  0
  8 10  2  0
  8 11  1  0
 11 12  2  3
 12 13  1  0
 13 14  1  0
 14 15  2  0
 15 16  1  0
  7 17  1  0
 17 18  2  0
  2 19  1  0
 19 20  2  0
 20 21  1  0
 21 22  2  0
 22 23  1  0
 23 24  2  0
 24 25  1  0
 18  4  1  0
 24 19  1  0
 16 12  1  0
  5 26  1  0
  6 27  1  0
 14 28  1  0
 15 29  1  0
 17 30  1  0
 18 31  1  0
 20 32  1  0
 21 33  1  0
 22 34  1  0
 23 35  1  0
M  CHG  3   3  -1  13  -1  25  -1
M  END
>  <UniqueID>  (2) 
2

>  <SMILES>  (2) 
O=C([N-]c1ccc(S(=O)(=O)N=c2[n-]ccs2)cc1)c1ccccc1[O-]

>  <Energy>  (2) 
77.94336196648875

>  <Genealogy>  (2) 
O=C([N-]c1ccc(S(=O)(=O)N=c2[n-]ccs2)cc1)c1ccccc1[O-] (protonated)
O=C([N-]c1ccc(S(=O)(=O)N=c2[n-]ccs2)cc1)c1ccccc1[O-] (3D coordinates assigned)
O=C([N-]c1ccc(S(=O)(=O)N=c2[n-]ccs2)cc1)c1ccccc1[O-] (optimized conformer: 77.94336196648875 kcal/mol)

>  <smiles>  (2) 
O=C(Nc1ccc(S(=O)(=O)N=c2[nH]ccs2)cc1)c1ccccc1O

>  <score_type>  (2) 
oracle

>  <origin>  (2) 
adgpu

>  <m_score__min__energy>  (2) 
-13.01

>  <m_primary>  (2) 
energy

$$$$
2:0
     RDKit          3D

 39 41  0  0  0  0  0  0  0  0999 V2000
   -2.9867   13.2148  -34.8974 H   0  0  0  0  0  0  0  0  0  0  0  0
   -3.3930   13.7620  -34.0340 C   0  0  0  0  0  0  0  0  0  0  0  0
   -3.2270   13.4530  -32.7010 C   0  0  0  0  0  0  0  0  0  0  0  0
   -2.2340   11.9750  -32.0200 Br  0  0  0  0  0  0  0  0  0  0  0  0
   -3.8550   14.3280  -31.9520 O   0  0  0  0  0  0  0  0  0  0  0  0
   -4.4320   15.2070  -32.7400 C   0  0  0  0  0  0  0  0  0  0  0  0
   -5.2330   16.3430  -32.2590 C   0  0  0  0  0  0  0  0  0  0  0  0
   -5.7200   16.3110  -31.0960 O   0  0  0  0  0  0  0  0  0  0  0  0
   -5.4910   17.4590  -33.1270 N   0  0  0  0  0  0  0  0  0  0  0  0
   -5.3360   17.3260  -34.1530 H   0  0  0  0  0  0  0  0  0  0  0  0
   -6.0590   18.7050  -32.6890 C   0  0  0  0  0  0  0  0  0  0  0  0
   -5.2170   19.6990  -32.1680 C   0  0  0  0  0  0  0  0  0  0  0  0
   -4.1323   19.5238  -32.1158 H   0  0  0  0  0  0  0  0  0  0  0  0
   -5.7470   20.9100  -31.7150 C   0  0  0  0  0  0  0  0  0  0  0  0
   -5.0767   21.6893  -31.3233 H   0  0  0  0  0  0  0  0  0  0  0  0
   -7.1290   21.1350  -31.7580 C   0  0  0  0  0  0  0  0  0  0  0  0
   -7.8020   22.6540  -31.1750 S   0  0  0  0  0  0  0  0  0  0  0  0
   -8.0620   22.6030  -29.6960 O   0  0  0  0  0  0  0  0  0  0  0  0
   -9.1110   22.8780  -31.8780 O   0  0  0  0  0  0  0  0  0  0  0  0
   -6.7530   23.9870  -31.5480 N   0  0  0  0  0  0  0  0  0  0  0  0
   -5.6300   24.3440  -30.9930 C   0  0  0  0  0  0  0  0  0  0  0  0
   -4.9500   25.3780  -31.4330 O   0  0  0  0  0  0  0  0  0  0  0  0
   -3.8670   25.5660  -30.7400 N   0  0  0  0  0  0  0  0  0  0  0  0
   -3.8290   24.6080  -29.7960 C   0  0  0  0  0  0  0  0  0  0  0  0
   -2.7420   24.5010  -28.7760 C   0  0  0  0  0  0  0  0  0  0  0  0
   -3.1797   24.5441  -27.7678 H   0  0  0  0  0  0  0  0  0  0  0  0
   -2.2111   23.5463  -28.9047 H   0  0  0  0  0  0  0  0  0  0  0  0
   -2.0351   25.3339  -28.9047 H   0  0  0  0  0  0  0  0  0  0  0  0
   -4.9400   23.7840  -29.9160 C   0  0  0  0  0  0  0  0  0  0  0  0
   -5.2980   22.6600  -28.9880 C   0  0  0  0  0  0  0  0  0  0  0  0
   -5.1909   22.9964  -27.9462 H   0  0  0  0  0  0  0  0  0  0  0  0
   -6.3385   22.3525  -29.1688 H   0  0  0  0  0  0  0  0  0  0  0  0
   -4.6270   21.8073  -29.1688 H   0  0  0  0  0  0  0  0  0  0  0  0
   -7.9770   20.1420  -32.2620 C   0  0  0  0  0  0  0  0  0  0  0  0
   -9.0626   20.3154  -32.2998 H   0  0  0  0  0  0  0  0  0  0  0  0
   -7.4480   18.9290  -32.7180 C   0  0  0  0  0  0  0  0  0  0  0  0
   -8.1209   18.1475  -33.1007 H   0  0  0  0  0  0  0  0  0  0  0  0
   -4.1730   14.8980  -34.0620 C   0  0  0  0  0  0  0  0  0  0  0  0
   -4.5178   15.4451  -34.9518 H   0  0  0  0  0  0  0  0  0  0  0  0
  1  2  1  0
  2  3  2  0
  3  4  1  0
  3  5  1  0
  5  6  1  0
  6  7  1  0
  7  8  2  0
  7  9  1  0
  9 10  1  0
  9 11  1  0
 11 12  2  0
 12 13  1  0
 12 14  1  0
 14 15  1  0
 14 16  2  0
 16 17  1  0
 17 18  2  0
 17 19  2  0
 17 20  1  0
 20 21  2  0
 21 22  1  0
 22 23  1  0
 23 24  1  0
 24 25  1  0
 25 26  1  0
 25 27  1  0
 25 28  1  0
 24 29  2  0
 29 30  1  0
 30 31  1  0
 30 32  1  0
 30 33  1  0
 16 34  1  0
 34 35  1  0
 34 36  2  0
 36 37  1  0
  6 38  2  0
 38 39  1  0
 38  2  1  0
 36 11  1  0
 29 21  1  0
M  CHG  1  23  -1
M  END
>  <UniqueID>  (3) 
3

>  <SMILES>  (3) 
Cc1[n-]o/c(=N/S(=O)(=O)c2ccc(NC(=O)c3ccc(Br)o3)cc2)c1C

>  <Energy>  (3) 
109.06025891601828

>  <Genealogy>  (3) 
Cc1[n-]oc(=NS(=O)(=O)c2ccc(NC(=O)c3ccc(Br)o3)cc2)c1C (protonated)
Cc1[n-]o/c(=N/S(=O)(=O)c2ccc(NC(=O)c3ccc(Br)o3)cc2)c1C (cis-trans isomerization)
Cc1[n-]o/c(=N/S(=O)(=O)c2ccc(NC(=O)c3ccc(Br)o3)cc2)c1C (3D coordinates assigned)
Cc1[n-]o/c(=N/S(=O)(=O)c2ccc(NC(=O)c3ccc(Br)o3)cc2)c1C (optimized conformer: 109.06025891601828 kcal/mol)

>  <smiles>  (3) 
Cc1[nH]oc(=NS(=O)(=O)c2ccc(NC(=O)c3ccc(Br)o3)cc2)c1C

>  <score_type>  (3) 
oracle

>  <origin>  (3) 
adgpu

>  <m_score__min__energy>  (3) 
-10.56

>  <m_primary>  (3) 
energy

$$$$
3:0
     RDKit          3D

 36 37  0  0  0  0  0  0  0  0999 V2000
   -3.8620   24.0710  -27.5690 C   0  0  0  0  0  0  0  0  0  0  0  0
   -2.8870   23.1380  -28.2790 C   0  0  0  0  0  0  0  0  0  0  0  0
   -3.1270   23.1290  -29.6860 O   0  0  0  0  0  0  0  0  0  0  0  0
   -4.3730   23.3180  -30.3100 C   0  0  0  0  0  0  0  0  0  0  0  0
   -5.2670   22.2570  -30.5590 C   0  0  0  0  0  0  0  0  0  0  0  0
   -6.4980   22.4920  -31.2000 C   0  0  0  0  0  0  0  0  0  0  0  0
   -7.4360   21.3780  -31.4750 C   0  0  0  0  0  0  0  0  0  0  0  0
   -8.6310   21.4600  -31.0800 O   0  0  0  0  0  0  0  0  0  0  0  0
   -7.0180   20.1760  -32.2240 C   0  0  0  0  0  0  0  0  0  0  0  0
   -7.6760   18.9580  -32.2520 C   0  0  0  0  0  0  0  0  0  0  0  0
   -8.9380   18.6270  -31.5230 C   0  0  0  0  0  0  0  0  0  0  0  0
   -7.0230   18.0740  -33.0320 N   0  0  0  0  0  0  0  0  0  0  0  0
   -5.9410   18.7230  -33.5070 C   0  0  0  0  0  0  0  0  0  0  0  0
   -4.9700   18.0750  -34.4040 C   0  0  0  0  0  0  0  0  0  0  0  0
   -3.8100   17.7880  -34.0070 O   0  0  0  0  0  0  0  0  0  0  0  0
   -5.3310   17.7830  -35.7130 O   0  0  0  0  0  0  0  0  0  0  0  0
   -5.8950   20.0260  -33.0230 C   0  0  0  0  0  0  0  0  0  0  0  0
   -4.7960   21.0260  -33.2410 C   0  0  0  0  0  0  0  0  0  0  0  0
   -6.8200   23.7970  -31.6050 C   0  0  0  0  0  0  0  0  0  0  0  0
   -5.9400   24.8510  -31.3540 C   0  0  0  0  0  0  0  0  0  0  0  0
   -4.7240   24.6140  -30.7090 C   0  0  0  0  0  0  0  0  0  0  0  0
   -3.8570   25.6750  -30.4690 O   0  0  0  0  0  0  0  0  0  0  0  0
   -3.7476   23.9615  -26.4805 H   0  0  0  0  0  0  0  0  0  0  0  0
   -3.6499   25.1112  -27.8572 H   0  0  0  0  0  0  0  0  0  0  0  0
   -4.8918   23.8134  -27.8572 H   0  0  0  0  0  0  0  0  0  0  0  0
   -1.8586   23.4801  -28.0908 H   0  0  0  0  0  0  0  0  0  0  0  0
   -3.0286   22.1186  -27.8908 H   0  0  0  0  0  0  0  0  0  0  0  0
   -5.0002   21.2357  -30.2495 H   0  0  0  0  0  0  0  0  0  0  0  0
   -8.7583   18.6741  -30.4388 H   0  0  0  0  0  0  0  0  0  0  0  0
   -9.7201   19.3504  -31.7968 H   0  0  0  0  0  0  0  0  0  0  0  0
   -9.2644   17.6129  -31.7968 H   0  0  0  0  0  0  0  0  0  0  0  0
   -4.4163   21.3715  -32.2681 H   0  0  0  0  0  0  0  0  0  0  0  0
   -3.9789   20.5552  -33.8073 H   0  0  0  0  0  0  0  0  0  0  0  0
   -5.1878   21.8838  -33.8073 H   0  0  0  0  0  0  0  0  0  0  0  0
   -7.7710   23.9900  -32.1230 H   0  0  0  0  0  0  0  0  0  0  0  0
   -6.2052   25.8721  -31.6654 H   0  0  0  0  0  0  0  0  0  0  0  0
  1  2  1  0
  2  3  1  0
  3  4  1  0
  4  5  2  0
  5  6  1  0
  6  7  1  0
  7  8  2  0
  7  9  1  0
  9 10  2  0
 10 11  1  0
 10 12  1  0
 12 13  1  0
 13 14  1  0
 14 15  2  0
 14 16  1  0
 13 17  2  0
 17 18  1  0
  6 19  2  0
 19 20  1  0
 20 21  2  0
 21 22  1  0
 21  4  1  0
 17  9  1  0
  1 23  1  0
  1 24  1  0
  1 25  1  0
  2 26  1  0
  2 27  1  0
  5 28  1  0
 11 29  1  0
 11 30  1  0
 11 31  1  0
 18 32  1  0
 18 33  1  0
 18 34  1  0
 19 35  1  0
 20 36  1  0
M  CHG  3  12  -1  16  -1  22  -1
M  END
>  <UniqueID>  (4) 
4

>  <SMILES>  (4) 
CCOc1cc(C(=O)c2c(C)[n-]c(C(=O)[O-])c2C)ccc1[O-]

>  <Energy>  (4) 
63.741845296731796

>  <Genealogy>  (4) 
CCOc1cc(C(=O)c2c(C)[n-]c(C(=O)[O-])c2C)ccc1[O-] (protonated)
CCOc1cc(C(=O)c2c(C)[n-]c(C(=O)[O-])c2C)ccc1[O-] (3D coordinates assigned)
CCOc1cc(C(=O)c2c(C)[n-]c(C(=O)[O-])c2C)ccc1[O-] (optimized conformer: 63.741845296731796 kcal/mol)

>  <smiles>  (4) 
CCOc1cc(C(=O)c2c(C)[nH]c(C(=O)O)c2C)ccc1O

>  <score_type>  (4) 
oracle

>  <origin>  (4) 
adgpu

>  <m_score__min__energy>  (4) 
-10.220000000000001

>  <m_primary>  (4) 
energy

$$$$
4:0
     RDKit          3D

 35 36  0  0  0  0  0  0  0  0999 V2000
   -3.1630   25.6690  -31.5880 H   0  0  0  0  0  0  0  0  0  0  0  0
   -3.8710   25.6660  -30.8620 O   0  0  0  0  0  0  0  0  0  0  0  0
   -4.6570   24.5430  -30.6170 C   0  0  0  0  0  0  0  0  0  0  0  0
   -4.1670   23.4840  -29.8420 C   0  0  0  0  0  0  0  0  0  0  0  0
   -3.1489   23.5315  -29.4281 H   0  0  0  0  0  0  0  0  0  0  0  0
   -4.9690   22.3680  -29.5940 C   0  0  0  0  0  0  0  0  0  0  0  0
   -4.5842   21.5415  -28.9785 H   0  0  0  0  0  0  0  0  0  0  0  0
   -6.2590   22.2990  -30.1260 C   0  0  0  0  0  0  0  0  0  0  0  0
   -6.8939   21.4264  -29.9126 H   0  0  0  0  0  0  0  0  0  0  0  0
   -6.7490   23.3420  -30.9340 C   0  0  0  0  0  0  0  0  0  0  0  0
   -8.1200   23.3120  -31.4900 C   0  0  0  0  0  0  0  0  0  0  0  0
   -8.6822   24.2574  -31.4999 H   0  0  0  0  0  0  0  0  0  0  0  0
   -8.7340   22.2230  -31.9840 C   0  0  0  0  0  0  0  0  0  0  0  0
   -9.8004   22.3152  -32.2378 H   0  0  0  0  0  0  0  0  0  0  0  0
   -8.0910   20.9100  -32.2140 C   0  0  0  0  0  0  0  0  0  0  0  0
   -8.7220   19.7510  -31.7480 C   0  0  0  0  0  0  0  0  0  0  0  0
   -9.6743   19.8294  -31.2030 H   0  0  0  0  0  0  0  0  0  0  0  0
   -8.1510   18.4940  -31.9700 C   0  0  0  0  0  0  0  0  0  0  0  0
   -8.6521   17.5937  -31.5849 H   0  0  0  0  0  0  0  0  0  0  0  0
   -6.9400   18.3670  -32.6820 C   0  0  0  0  0  0  0  0  0  0  0  0
   -6.3420   17.0630  -32.9080 N   0  0  0  0  0  0  0  0  0  0  0  0
   -5.5000   16.4400  -31.8790 C   0  0  0  0  0  0  0  0  0  0  0  0
   -5.8740   16.7167  -30.8822 H   0  0  0  0  0  0  0  0  0  0  0  0
   -5.5318   15.3463  -31.9919 H   0  0  0  0  0  0  0  0  0  0  0  0
   -4.4634   16.7903  -31.9919 H   0  0  0  0  0  0  0  0  0  0  0  0
   -6.5710   16.3430  -34.1670 C   0  0  0  0  0  0  0  0  0  0  0  0
   -6.8977   15.3158  -33.9477 H   0  0  0  0  0  0  0  0  0  0  0  0
   -7.3493   16.8591  -34.7482 H   0  0  0  0  0  0  0  0  0  0  0  0
   -5.6375   16.3147  -34.7482 H   0  0  0  0  0  0  0  0  0  0  0  0
   -6.3300   19.5390  -33.1740 C   0  0  0  0  0  0  0  0  0  0  0  0
   -5.3899   19.4648  -33.7404 H   0  0  0  0  0  0  0  0  0  0  0  0
   -6.9030   20.7920  -32.9520 C   0  0  0  0  0  0  0  0  0  0  0  0
   -6.4203   21.6932  -33.3581 H   0  0  0  0  0  0  0  0  0  0  0  0
   -5.9470   24.4730  -31.1530 C   0  0  0  0  0  0  0  0  0  0  0  0
   -6.3360   25.3106  -31.7507 H   0  0  0  0  0  0  0  0  0  0  0  0
  1  2  1  0
  2  3  1  0
  3  4  2  0
  4  5  1  0
  4  6  1  0
  6  7  1  0
  6  8  2  0
  8  9  1  0
  8 10  1  0
 10 11  1  0
 11 12  1  0
 11 13  2  0
 13 14  1  0
 13 15  1  0
 15 16  2  0
 16 17  1  0
 16 18  1  0
 18 19  1  0
 18 20  2  0
 20 21  1  0
 21 22  1  0
 22 23  1  0
 22 24  1  0
 22 25  1  0
 21 26  1  0
 26 27  1  0
 26 28  1  0
 26 29  1  0
 20 30  1  0
 30 31  1  0
 30 32  2  0
 32 33  1  0
 10 34  2  0
 34 35  1  0
 34  3  1  0
 32 15  1  0
M  END
>  <UniqueID>  (5) 
5

>  <SMILES>  (5) 
CN(C)c1ccc(/C=C\c2cccc(O)c2)cc1

>  <Energy>  (5) 
45.73373192249227

>  <Genealogy>  (5) 
CN(C)c1ccc(/C=C\c2cccc(O)c2)cc1 (cis-trans isomerization)
CN(C)c1ccc(/C=C\c2cccc(O)c2)cc1 (3D coordinates assigned)
CN(C)c1ccc(/C=C\c2cccc(O)c2)cc1 (optimized conformer: 45.73373192249227 kcal/mol)

>  <smiles>  (5) 
CN(C)c1ccc(C=Cc2cccc(O)c2)cc1

>  <score_type>  (5) 
oracle

>  <origin>  (5) 
adgpu

>  <m_score__min__energy>  (5) 
-8.8200000000000003

>  <m_primary>  (5) 
energy

$$$$
5:0
     RDKit          3D

 39 41  0  0  0  0  0  0  0  0999 V2000
   -4.7104   22.0131  -27.6497 H   0  0  0  0  0  0  0  0  0  0  0  0
   -4.5510   22.7760  -28.4260 C   0  0  0  0  0  0  0  0  0  0  0  0
   -3.3980   23.5650  -28.4010 C   0  0  0  0  0  0  0  0  0  0  0  0
   -2.6564   23.4231  -27.6011 H   0  0  0  0  0  0  0  0  0  0  0  0
   -3.1800   24.5350  -29.3870 C   0  0  0  0  0  0  0  0  0  0  0  0
   -2.0030   25.2950  -29.3230 O   0  0  0  0  0  0  0  0  0  0  0  0
   -1.1120   25.3050  -28.2120 C   0  0  0  0  0  0  0  0  0  0  0  0
   -1.6916   25.2985  -27.2771 H   0  0  0  0  0  0  0  0  0  0  0  0
   -0.4680   24.4140  -28.2504 H   0  0  0  0  0  0  0  0  0  0  0  0
   -0.4882   26.2102  -28.2504 H   0  0  0  0  0  0  0  0  0  0  0  0
   -4.1410   24.7120  -30.4020 C   0  0  0  0  0  0  0  0  0  0  0  0
   -3.9755   25.4661  -31.1856 H   0  0  0  0  0  0  0  0  0  0  0  0
   -5.3090   23.9320  -30.4200 C   0  0  0  0  0  0  0  0  0  0  0  0
   -6.3120   24.0960  -31.5310 C   0  0  0  0  0  0  0  0  0  0  0  0
   -7.3100   24.2543  -31.0964 H   0  0  0  0  0  0  0  0  0  0  0  0
   -6.0222   24.9615  -32.1450 H   0  0  0  0  0  0  0  0  0  0  0  0
   -6.3410   22.9030  -32.3810 N   0  0  0  0  0  0  0  0  0  0  0  0
   -5.5400   22.7480  -33.0360 H   0  0  0  0  0  0  0  0  0  0  0  0
   -7.4210   21.9430  -32.3620 C   0  0  0  0  0  0  0  0  0  0  0  0
   -8.6350   22.2280  -31.7100 C   0  0  0  0  0  0  0  0  0  0  0  0
   -8.7696   23.1952  -31.2036 H   0  0  0  0  0  0  0  0  0  0  0  0
   -9.6670   21.2930  -31.7020 C   0  0  0  0  0  0  0  0  0  0  0  0
  -10.6148   21.5173  -31.1908 H   0  0  0  0  0  0  0  0  0  0  0  0
   -9.4890   20.0730  -32.3460 C   0  0  0  0  0  0  0  0  0  0  0  0
  -10.3004   19.3303  -32.3452 H   0  0  0  0  0  0  0  0  0  0  0  0
   -8.3180   19.7940  -32.9760 N   0  0  0  0  0  0  0  0  0  0  0  0
   -8.2410   18.8640  -33.4450 H   0  0  0  0  0  0  0  0  0  0  0  0
   -7.2800   20.6890  -33.0040 C   0  0  0  0  0  0  0  0  0  0  0  0
   -6.1630   20.4080  -33.6140 N   0  0  0  0  0  0  0  0  0  0  0  0
   -5.8720   19.1610  -34.3170 C   0  0  0  0  0  0  0  0  0  0  0  0
   -6.3771   19.4006  -35.2643 H   0  0  0  0  0  0  0  0  0  0  0  0
   -4.5350   18.5480  -33.9460 C   0  0  0  0  0  0  0  0  0  0  0  0
   -3.9589   17.9879  -34.6973 H   0  0  0  0  0  0  0  0  0  0  0  0
   -3.5984   18.9273  -33.5113 H   0  0  0  0  0  0  0  0  0  0  0  0
   -5.8230   17.9660  -33.3860 C   0  0  0  0  0  0  0  0  0  0  0  0
   -6.1791   16.9843  -33.7317 H   0  0  0  0  0  0  0  0  0  0  0  0
   -6.2050   17.7492  -32.3775 H   0  0  0  0  0  0  0  0  0  0  0  0
   -5.5010   22.9530  -29.4330 C   0  0  0  0  0  0  0  0  0  0  0  0
   -6.4028   22.3234  -29.4531 H   0  0  0  0  0  0  0  0  0  0  0  0
  1  2  1  0
  2  3  2  0
  3  4  1  0
  3  5  1  0
  5  6  1  0
  6  7  1  0
  7  8  1  0
  7  9  1  0
  7 10  1  0
  5 11  2  0
 11 12  1  0
 11 13  1  0
 13 14  1  0
 14 15  1  0
 14 16  1  0
 14 17  1  0
 17 18  1  0
 17 19  1  0
 19 20  2  0
 20 21  1  0
 20 22  1  0
 22 23  1  0
 22 24  2  0
 24 25  1  0
 24 26  1  0
 26 27  1  0
 26 28  1  0
 28 29  2  0
 29 30  1  0
 30 31  1  0
 30 32  1  0
 32 33  1  0
 32 34  1  0
 32 35  1  0
 35 36  1  0
 35 37  1  0
 13 38  2  0
 38 39  1  0
 38  2  1  0
 28 19  1  0
 35 30  1  0
M  END
>  <UniqueID>  (6) 
6

>  <SMILES>  (6) 
COc1cccc(CNc2ccc[nH]/c2=N\C2CC2)c1

>  <Energy>  (6) 
305.7593169523977

>  <Genealogy>  (6) 
COc1cccc(CNc2ccc[nH]/c2=N\C2CC2)c1 (cis-trans isomerization)
COc1cccc(CNc2ccc[nH]/c2=N\C2CC2)c1 (3D coordinates assigned)
COc1cccc(CNc2ccc[nH]/c2=N\C2CC2)c1 (nonaromatic ring conformer: 305.7593169523977 kcal/mol)

>  <smiles>  (6) 
COc1cccc(CNc2ccc[nH]c2=NC2CC2)c1

>  <score_type>  (6) 
oracle

>  <origin>  (6) 
adgpu

>  <m_score__min__energy>  (6) 
-7.8099999999999996

>  <m_primary>  (6) 
energy

$$$$
6:0
     RDKit          3D

 44 46  0  0  0  0  0  0  0  0999 V2000
   -5.3490   26.0470  -30.2170 O   0  0  0  0  0  0  0  0  0  0  0  0
   -4.8920   24.9380  -30.6000 C   0  0  0  0  0  0  0  0  0  0  0  0
   -3.4830   24.6970  -30.4810 N   0  0  0  0  0  0  0  0  0  0  0  0
   -2.8200   24.1520  -29.3300 C   0  0  0  0  0  0  0  0  0  0  0  0
   -3.1510   22.8580  -28.9080 C   0  0  0  0  0  0  0  0  0  0  0  0
   -2.5000   22.2840  -27.8120 C   0  0  0  0  0  0  0  0  0  0  0  0
   -1.5300   23.0090  -27.1160 C   0  0  0  0  0  0  0  0  0  0  0  0
   -1.2180   24.3140  -27.5070 C   0  0  0  0  0  0  0  0  0  0  0  0
   -1.8610   24.8910  -28.6070 C   0  0  0  0  0  0  0  0  0  0  0  0
   -1.5720   26.1730  -28.9410 F   0  0  0  0  0  0  0  0  0  0  0  0
   -5.8230   23.9080  -31.1210 C   0  0  0  0  0  0  0  0  0  0  0  0
   -7.2120   24.1040  -31.0420 C   0  0  0  0  0  0  0  0  0  0  0  0
   -8.0900   23.1520  -31.5700 C   0  0  0  0  0  0  0  0  0  0  0  0
   -7.5920   21.9980  -32.1790 C   0  0  0  0  0  0  0  0  0  0  0  0
   -6.2100   21.7790  -32.2430 C   0  0  0  0  0  0  0  0  0  0  0  0
   -5.5510   20.3580  -33.0490 S   0  0  0  0  0  0  0  0  0  0  0  0
   -6.3990   20.0580  -34.2540 O   0  0  0  0  0  0  0  0  0  0  0  0
   -4.1450   20.6360  -33.5060 O   0  0  0  0  0  0  0  0  0  0  0  0
   -5.5770   19.0080  -31.9320 N   0  0  0  0  0  0  0  0  0  0  0  0
   -6.9620   18.6440  -31.5600 C   0  0  0  0  0  0  0  0  0  0  0  0
   -7.7240   17.9310  -32.6940 C   0  0  0  0  0  0  0  0  0  0  0  0
   -6.8570   16.9210  -33.4640 C   0  0  0  0  0  0  0  0  0  0  0  0
   -5.5670   16.5890  -32.7180 C   0  0  0  0  0  0  0  0  0  0  0  0
   -4.7590   17.8670  -32.4360 C   0  0  0  0  0  0  0  0  0  0  0  0
   -5.3330   22.7240  -31.6980 C   0  0  0  0  0  0  0  0  0  0  0  0
   -3.9274   22.2904  -29.4419 H   0  0  0  0  0  0  0  0  0  0  0  0
   -2.7519   21.2605  -27.4975 H   0  0  0  0  0  0  0  0  0  0  0  0
   -1.0115   22.5527  -26.2599 H   0  0  0  0  0  0  0  0  0  0  0  0
   -0.4648   24.8888  -26.9482 H   0  0  0  0  0  0  0  0  0  0  0  0
   -7.6107   25.0103  -30.5627 H   0  0  0  0  0  0  0  0  0  0  0  0
   -9.1763   23.3126  -31.5054 H   0  0  0  0  0  0  0  0  0  0  0  0
   -8.2857   21.2604  -32.6088 H   0  0  0  0  0  0  0  0  0  0  0  0
   -5.1220   19.3600  -31.0580 H   0  0  0  0  0  0  0  0  0  0  0  0
   -6.9260   17.9750  -30.6876 H   0  0  0  0  0  0  0  0  0  0  0  0
   -7.4993   19.5783  -31.3401 H   0  0  0  0  0  0  0  0  0  0  0  0
   -8.5801   17.3957  -32.2574 H   0  0  0  0  0  0  0  0  0  0  0  0
   -8.0415   18.7029  -33.4106 H   0  0  0  0  0  0  0  0  0  0  0  0
   -7.4330   15.9948  -33.6070 H   0  0  0  0  0  0  0  0  0  0  0  0
   -6.5847   17.3732  -34.4291 H   0  0  0  0  0  0  0  0  0  0  0  0
   -5.8166   16.1015  -31.7640 H   0  0  0  0  0  0  0  0  0  0  0  0
   -4.9600   15.9168  -33.3422 H   0  0  0  0  0  0  0  0  0  0  0  0
   -3.9932   17.6318  -31.6821 H   0  0  0  0  0  0  0  0  0  0  0  0
   -4.3274   18.1868  -33.3960 H   0  0  0  0  0  0  0  0  0  0  0  0
   -4.2491   22.5380  -31.7216 H   0  0  0  0  0  0  0  0  0  0  0  0
  1  2  2  0
  2  3  1  0
  3  4  1  0
  4  5  2  0
  5  6  1  0
  6  7  2  0
  7  8  1  0
  8  9  2  0
  9 10  1  0
  2 11  1  0
 11 12  2  0
 12 13  1  0
 13 14  2  0
 14 15  1  0
 15 16  1  0
 16 17  2  0
 16 18  2  0
 16 19  1  0
 19 20  1  0
 20 21  1  0
 21 22  1  0
 22 23  1  0
 23 24  1  0
 15 25  2  0
  9  4  1  0
 25 11  1  0
 24 19  1  0
  5 26  1  0
  6 27  1  0
  7 28  1  0
  8 29  1  0
 12 30  1  0
 13 31  1  0
 14 32  1  0
 19 33  1  0
 20 34  1  0
 20 35  1  0
 21 36  1  0
 21 37  1  0
 22 38  1  0
 22 39  1  0
 23 40  1  0
 23 41  1  0
 24 42  1  0
 24 43  1  0
 25 44  1  0
M  CHG  2   3  -1  19   1
M  END
>  <UniqueID>  (7) 
7

>  <SMILES>  (7) 
O=C([N-]c1ccccc1F)c1cccc(S(=O)(=O)[NH+]2CCCCC2)c1

>  <Energy>  (7) 
58.065427571176464

>  <Genealogy>  (7) 
O=C([N-]c1ccccc1F)c1cccc(S(=O)(=O)[NH+]2CCCCC2)c1 (protonated)
O=C([N-]c1ccccc1F)c1cccc(S(=O)(=O)[NH+]2CCCCC2)c1 (3D coordinates assigned)
O=C([N-]c1ccccc1F)c1cccc(S(=O)(=O)[NH+]2CCCCC2)c1 (nonaromatic ring conformer: 58.065427571176464 kcal/mol)

>  <smiles>  (7) 
O=C(Nc1ccccc1F)c1cccc(S(=O)(=O)N2CCCCC2)c1

>  <score_type>  (7) 
oracle

>  <origin>  (7) 
adgpu

>  <m_score__min__energy>  (7) 
-10.869999999999999

>  <m_primary>  (7) 
energy

$$$$
7:0
     RDKit          3D

 42 44  0  0  0  0  0  0  0  0999 V2000
   -1.5610   26.0720  -28.9500 N   0  0  0  0  0  0  0  0  0  0  0  0
   -0.6700   25.8830  -27.8520 C   0  0  0  0  0  0  0  0  0  0  0  0
   -0.3310   26.8800  -27.1580 O   0  0  0  0  0  0  0  0  0  0  0  0
   -0.1470   24.5340  -27.5290 C   0  0  0  0  0  0  0  0  0  0  0  0
    1.2380   24.2930  -27.4950 C   0  0  0  0  0  0  0  0  0  0  0  0
    1.7260   23.0190  -27.2020 C   0  0  0  0  0  0  0  0  0  0  0  0
    0.8420   21.9730  -26.9310 C   0  0  0  0  0  0  0  0  0  0  0  0
   -0.5400   22.1930  -26.9370 C   0  0  0  0  0  0  0  0  0  0  0  0
   -1.4050   21.0770  -26.6670 N   0  0  0  0  0  0  0  0  0  0  0  0
   -1.8070   20.0110  -27.5430 C   0  0  0  0  0  0  0  0  0  0  0  0
   -2.9830   20.0190  -27.9920 O   0  0  0  0  0  0  0  0  0  0  0  0
   -0.8550   18.9970  -28.0500 C   0  0  0  0  0  0  0  0  0  0  0  0
   -0.5210   17.9450  -27.1800 C   0  0  0  0  0  0  0  0  0  0  0  0
    0.4830   17.0390  -27.5110 C   0  0  0  0  0  0  0  0  0  0  0  0
    1.1740   17.1970  -28.7060 C   0  0  0  0  0  0  0  0  0  0  0  0
    0.8450   18.2060  -29.5510 N   0  0  0  0  0  0  0  0  0  0  0  0
   -0.1510   19.0980  -29.2930 C   0  0  0  0  0  0  0  0  0  0  0  0
   -0.4000   19.9870  -30.2200 N   0  0  0  0  0  0  0  0  0  0  0  0
   -1.4810   20.9210  -30.3310 C   0  0  0  0  0  0  0  0  0  0  0  0
   -2.7140   20.5310  -30.8740 C   0  0  0  0  0  0  0  0  0  0  0  0
   -3.7480   21.4620  -31.0110 C   0  0  0  0  0  0  0  0  0  0  0  0
   -3.5490   22.7960  -30.6330 C   0  0  0  0  0  0  0  0  0  0  0  0
   -4.8460   23.9720  -30.8180 S   0  0  0  0  0  0  0  0  0  0  0  0
   -4.1910   25.5700  -30.7510 N   0  0  0  0  0  0  0  0  0  0  0  0
   -5.5330   23.7690  -32.1380 O   0  0  0  0  0  0  0  0  0  0  0  0
   -5.8550   23.7950  -29.7170 O   0  0  0  0  0  0  0  0  0  0  0  0
   -2.2990   23.1970  -30.1420 C   0  0  0  0  0  0  0  0  0  0  0  0
   -1.2660   22.2650  -30.0030 C   0  0  0  0  0  0  0  0  0  0  0  0
   -1.0300   23.4720  -27.2570 C   0  0  0  0  0  0  0  0  0  0  0  0
   -1.2190   26.0160  -29.9350 H   0  0  0  0  0  0  0  0  0  0  0  0
    1.9409   25.1137  -27.7006 H   0  0  0  0  0  0  0  0  0  0  0  0
    2.8109   22.8382  -27.1845 H   0  0  0  0  0  0  0  0  0  0  0  0
    1.2344   20.9691  -26.7113 H   0  0  0  0  0  0  0  0  0  0  0  0
   -1.0589   17.8362  -26.2267 H   0  0  0  0  0  0  0  0  0  0  0  0
    0.7265   16.2071  -26.8338 H   0  0  0  0  0  0  0  0  0  0  0  0
    1.9876   16.5042  -28.9668 H   0  0  0  0  0  0  0  0  0  0  0  0
   -2.8679   19.4896  -31.1930 H   0  0  0  0  0  0  0  0  0  0  0  0
   -4.7204   21.1461  -31.4167 H   0  0  0  0  0  0  0  0  0  0  0  0
   -3.2630   25.5390  -31.2300 H   0  0  0  0  0  0  0  0  0  0  0  0
   -2.1301   24.2481  -29.8652 H   0  0  0  0  0  0  0  0  0  0  0  0
   -0.2813   22.5888  -29.6348 H   0  0  0  0  0  0  0  0  0  0  0  0
   -2.1157   23.6444  -27.2951 H   0  0  0  0  0  0  0  0  0  0  0  0
  1  2  1  0
  2  3  2  0
  2  4  1  0
  4  5  2  0
  5  6  1  0
  6  7  2  0
  7  8  1  0
  8  9  1  0
  9 10  1  0
 10 11  2  0
 10 12  1  0
 12 13  2  0
 13 14  1  0
 14 15  2  0
 15 16  1  0
 16 17  1  0
 17 18  2  3
 18 19  1  0
 19 20  2  0
 20 21  1  0
 21 22  2  0
 22 23  1  0
 23 24  1  0
 23 25  2  0
 23 26  2  0
 22 27  1  0
 27 28  2  0
  8 29  2  0
 29  4  1  0
 17 12  1  0
 28 19  1  0
  1 30  1  0
  5 31  1  0
  6 32  1  0
  7 33  1  0
 13 34  1  0
 14 35  1  0
 15 36  1  0
 20 37  1  0
 21 38  1  0
 24 39  1  0
 27 40  1  0
 28 41  1  0
 29 42  1  0
M  CHG  4   1  -1   9  -1  16  -1  24  -1
M  END
>  <UniqueID>  (8) 
8

>  <SMILES>  (8) 
[NH-]C(=O)c1cccc([N-]C(=O)c2ccc[n-]c2=Nc2ccc(S([NH-])(=O)=O)cc2)c1

>  <Energy>  (8) 
70.09907370433865

>  <Genealogy>  (8) 
[NH-]C(=O)c1cccc([N-]C(=O)c2ccc[n-]c2=Nc2ccc(S([NH-])(=O)=O)cc2)c1 (protonated)
[NH-]C(=O)c1cccc([N-]C(=O)c2ccc[n-]c2=Nc2ccc(S([NH-])(=O)=O)cc2)c1 (3D coordinates assigned)
[NH-]C(=O)c1cccc([N-]C(=O)c2ccc[n-]c2=Nc2ccc(S([NH-])(=O)=O)cc2)c1 (optimized conformer: 70.09907370433865 kcal/mol)

>  <smiles>  (8) 
NC(=O)c1cccc(NC(=O)c2ccc[nH]c2=Nc2ccc(S(N)(=O)=O)cc2)c1

>  <score_type>  (8) 
oracle

>  <origin>  (8) 
adgpu

>  <m_score__min__energy>  (8) 
-12.82

>  <m_primary>  (8) 
energy

$$$$
8:0
     RDKit          3D

 49 51  0  0  0  0  0  0  0  0999 V2000
   -4.8430   14.9240  -33.7770 C   0  0  0  0  0  0  0  0  0  0  0  0
   -5.3000   16.0560  -34.5120 O   0  0  0  0  0  0  0  0  0  0  0  0
   -5.7130   17.2620  -33.9290 C   0  0  0  0  0  0  0  0  0  0  0  0
   -5.7040   18.4810  -34.6330 C   0  0  0  0  0  0  0  0  0  0  0  0
   -6.0980   19.6630  -34.0010 C   0  0  0  0  0  0  0  0  0  0  0  0
   -6.4990   19.6530  -32.6540 C   0  0  0  0  0  0  0  0  0  0  0  0
   -6.9050   20.9030  -31.9700 C   0  0  0  0  0  0  0  0  0  0  0  0
   -7.9380   21.5130  -32.3540 O   0  0  0  0  0  0  0  0  0  0  0  0
   -6.1260   21.4730  -30.9120 N   0  0  0  0  0  0  0  0  0  0  0  0
   -5.8950   22.8740  -30.7060 C   0  0  0  0  0  0  0  0  0  0  0  0
   -7.0020   23.7070  -30.4960 C   0  0  0  0  0  0  0  0  0  0  0  0
   -6.8260   25.0690  -30.2450 C   0  0  0  0  0  0  0  0  0  0  0  0
   -5.5420   25.5990  -30.1430 C   0  0  0  0  0  0  0  0  0  0  0  0
   -4.4250   24.7730  -30.3040 C   0  0  0  0  0  0  0  0  0  0  0  0
   -3.1590   25.2980  -30.0750 O   0  0  0  0  0  0  0  0  0  0  0  0
   -4.5910   23.4150  -30.6430 C   0  0  0  0  0  0  0  0  0  0  0  0
   -3.4500   22.5530  -30.7490 N   0  0  0  0  0  0  0  0  0  0  0  0
   -2.9350   22.0130  -31.9740 C   0  0  0  0  0  0  0  0  0  0  0  0
   -3.6690   22.0160  -32.9970 O   0  0  0  0  0  0  0  0  0  0  0  0
   -1.5090   21.5460  -32.0940 C   0  0  0  0  0  0  0  0  0  0  0  0
   -1.3580   20.3650  -33.0210 C   0  0  0  0  0  0  0  0  0  0  0  0
   -2.1160   19.2060  -32.7870 C   0  0  0  0  0  0  0  0  0  0  0  0
   -2.0010   18.1000  -33.6320 C   0  0  0  0  0  0  0  0  0  0  0  0
   -1.1340   18.1430  -34.7230 C   0  0  0  0  0  0  0  0  0  0  0  0
   -0.3820   19.2910  -34.9780 C   0  0  0  0  0  0  0  0  0  0  0  0
   -0.4870   20.4160  -34.1340 C   0  0  0  0  0  0  0  0  0  0  0  0
    0.2610   21.5830  -34.3690 O   0  0  0  0  0  0  0  0  0  0  0  0
    0.6280   22.0690  -35.6540 C   0  0  0  0  0  0  0  0  0  0  0  0
   -6.5400   18.4290  -31.9650 C   0  0  0  0  0  0  0  0  0  0  0  0
   -6.1450   17.2470  -32.5990 C   0  0  0  0  0  0  0  0  0  0  0  0
   -4.9257   15.1288  -32.6994 H   0  0  0  0  0  0  0  0  0  0  0  0
   -5.4581   14.0485  -34.0321 H   0  0  0  0  0  0  0  0  0  0  0  0
   -3.7924   14.7209  -34.0321 H   0  0  0  0  0  0  0  0  0  0  0  0
   -5.3853   18.5030  -35.6856 H   0  0  0  0  0  0  0  0  0  0  0  0
   -6.0943   20.6091  -34.5621 H   0  0  0  0  0  0  0  0  0  0  0  0
   -8.0172   23.2847  -30.5292 H   0  0  0  0  0  0  0  0  0  0  0  0
   -7.7019   25.7240  -30.1277 H   0  0  0  0  0  0  0  0  0  0  0  0
   -5.4061   26.6706  -29.9352 H   0  0  0  0  0  0  0  0  0  0  0  0
   -0.8984   22.3759  -32.4793 H   0  0  0  0  0  0  0  0  0  0  0  0
   -1.1789   21.2274  -31.0942 H   0  0  0  0  0  0  0  0  0  0  0  0
   -2.8060   19.1691  -31.9311 H   0  0  0  0  0  0  0  0  0  0  0  0
   -2.5946   17.1947  -33.4367 H   0  0  0  0  0  0  0  0  0  0  0  0
   -1.0423   17.2693  -35.3850 H   0  0  0  0  0  0  0  0  0  0  0  0
    0.2970   19.3184  -35.8430 H   0  0  0  0  0  0  0  0  0  0  0  0
    1.2874   22.9422  -35.5412 H   0  0  0  0  0  0  0  0  0  0  0  0
    1.1570   21.2791  -36.2074 H   0  0  0  0  0  0  0  0  0  0  0  0
   -0.2765   22.3616  -36.2074 H   0  0  0  0  0  0  0  0  0  0  0  0
   -6.8848   18.4006  -30.9208 H   0  0  0  0  0  0  0  0  0  0  0  0
   -6.1743   16.2963  -32.0464 H   0  0  0  0  0  0  0  0  0  0  0  0
  1  2  1  0
  2  3  1  0
  3  4  2  0
  4  5  1  0
  5  6  2  0
  6  7  1  0
  7  8  2  0
  7  9  1  0
  9 10  1  0
 10 11  2  0
 11 12  1  0
 12 13  2  0
 13 14  1  0
 14 15  1  0
 14 16  2  0
 16 17  1  0
 17 18  1  0
 18 19  2  0
 18 20  1  0
 20 21  1  0
 21 22  2  0
 22 23  1  0
 23 24  2  0
 24 25  1  0
 25 26  2  0
 26 27  1  0
 27 28  1  0
  6 29  1  0
 29 30  2  0
 30  3  1  0
 16 10  1  0
 26 21  1  0
  1 31  1  0
  1 32  1  0
  1 33  1  0
  4 34  1  0
  5 35  1  0
 11 36  1  0
 12 37  1  0
 13 38  1  0
 20 39  1  0
 20 40  1  0
 22 41  1  0
 23 42  1  0
 24 43  1  0
 25 44  1  0
 28 45  1  0
 28 46  1  0
 28 47  1  0
 29 48  1  0
 30 49  1  0
M  CHG  3   9  -1  15  -1  17  -1
M  END
>  <UniqueID>  (9) 
9

>  <SMILES>  (9) 
COc1ccc(C(=O)[N-]c2cccc([O-])c2[N-]C(=O)Cc2ccccc2OC)cc1

>  <Energy>  (9) 
62.20189173316082

>  <Genealogy>  (9) 
COc1ccc(C(=O)[N-]c2cccc([O-])c2[N-]C(=O)Cc2ccccc2OC)cc1 (protonated)
COc1ccc(C(=O)[N-]c2cccc([O-])c2[N-]C(=O)Cc2ccccc2OC)cc1 (3D coordinates assigned)
COc1ccc(C(=O)[N-]c2cccc([O-])c2[N-]C(=O)Cc2ccccc2OC)cc1 (optimized conformer: 62.20189173316082 kcal/mol)

>  <smiles>  (9) 
COc1ccc(C(=O)Nc2cccc(O)c2NC(=O)Cc2ccccc2OC)cc1

>  <score_type>  (9) 
oracle

>  <origin>  (9) 
adgpu

>  <m_score__min__energy>  (9) 
-11.960000000000001

>  <m_primary>  (9) 
energy

$$$$
9:0
     RDKit          3D

 53 55  0  0  0  0  0  0  0  0999 V2000
   -8.6000   19.2520  -31.5540 C   0  0  0  0  0  0  0  0  0  0  0  0
   -8.2320   20.6960  -31.7140 C   0  0  0  0  0  0  0  0  0  0  0  0
   -9.2350   21.6620  -31.8900 C   0  0  0  0  0  0  0  0  0  0  0  0
   -8.9010   23.0170  -31.9710 C   0  0  0  0  0  0  0  0  0  0  0  0
   -7.5680   23.4180  -31.8620 C   0  0  0  0  0  0  0  0  0  0  0  0
   -6.5560   22.4640  -31.6850 C   0  0  0  0  0  0  0  0  0  0  0  0
   -5.1940   22.8760  -31.5070 N   0  0  0  0  0  0  0  0  0  0  0  0
   -4.1540   22.4260  -32.4390 C   0  0  0  0  0  0  0  0  0  0  0  0
   -4.0000   20.9370  -32.3540 C   0  0  0  0  0  0  0  0  0  0  0  0
   -3.8910   20.3820  -31.2270 O   0  0  0  0  0  0  0  0  0  0  0  0
   -3.9780   20.1510  -33.5530 N   0  0  0  0  0  0  0  0  0  0  0  0
   -4.5390   18.8280  -33.6450 C   0  0  0  0  0  0  0  0  0  0  0  0
   -5.9350   18.6480  -33.6660 C   0  0  0  0  0  0  0  0  0  0  0  0
   -6.4870   17.3780  -33.8310 C   0  0  0  0  0  0  0  0  0  0  0  0
   -5.6590   16.2590  -33.9670 C   0  0  0  0  0  0  0  0  0  0  0  0
   -6.2500   14.8980  -34.1910 C   0  0  0  0  0  0  0  0  0  0  0  0
   -4.2690   16.4270  -33.9670 C   0  0  0  0  0  0  0  0  0  0  0  0
   -3.6980   17.7020  -33.8000 C   0  0  0  0  0  0  0  0  0  0  0  0
   -2.2010   17.8490  -33.8290 C   0  0  0  0  0  0  0  0  0  0  0  0
   -4.7900   23.9990  -30.2450 S   0  0  0  0  0  0  0  0  0  0  0  0
   -4.3240   25.2910  -30.8570 O   0  0  0  0  0  0  0  0  0  0  0  0
   -5.9970   24.2780  -29.3920 O   0  0  0  0  0  0  0  0  0  0  0  0
   -3.5360   23.2980  -29.2300 C   0  0  0  0  0  0  0  0  0  0  0  0
   -3.8340   22.2680  -28.3260 C   0  0  0  0  0  0  0  0  0  0  0  0
   -2.8260   21.7300  -27.5190 C   0  0  0  0  0  0  0  0  0  0  0  0
   -1.5200   22.2190  -27.6090 C   0  0  0  0  0  0  0  0  0  0  0  0
   -1.2200   23.2500  -28.5050 C   0  0  0  0  0  0  0  0  0  0  0  0
   -2.2260   23.7900  -29.3130 C   0  0  0  0  0  0  0  0  0  0  0  0
   -6.8930   21.1040  -31.6070 C   0  0  0  0  0  0  0  0  0  0  0  0
   -8.6627   19.0060  -30.4837 H   0  0  0  0  0  0  0  0  0  0  0  0
   -9.5740   19.0669  -32.0304 H   0  0  0  0  0  0  0  0  0  0  0  0
   -7.8334   18.6233  -32.0304 H   0  0  0  0  0  0  0  0  0  0  0  0
  -10.2877   21.3517  -31.9645 H   0  0  0  0  0  0  0  0  0  0  0  0
   -9.6899   23.7688  -32.1209 H   0  0  0  0  0  0  0  0  0  0  0  0
   -7.3109   24.4862  -31.9152 H   0  0  0  0  0  0  0  0  0  0  0  0
   -4.4380   22.7051  -33.4644 H   0  0  0  0  0  0  0  0  0  0  0  0
   -3.1994   22.9039  -32.1736 H   0  0  0  0  0  0  0  0  0  0  0  0
   -3.6280   20.6120  -34.4230 H   0  0  0  0  0  0  0  0  0  0  0  0
   -6.5976   19.5185  -33.5510 H   0  0  0  0  0  0  0  0  0  0  0  0
   -7.5799   17.2556  -33.8543 H   0  0  0  0  0  0  0  0  0  0  0  0
   -6.4561   14.4234  -33.2203 H   0  0  0  0  0  0  0  0  0  0  0  0
   -7.1874   14.9942  -34.7585 H   0  0  0  0  0  0  0  0  0  0  0  0
   -5.5398   14.2787  -34.7585 H   0  0  0  0  0  0  0  0  0  0  0  0
   -3.6157   15.5519  -34.0991 H   0  0  0  0  0  0  0  0  0  0  0  0
   -1.8163   17.8868  -32.7992 H   0  0  0  0  0  0  0  0  0  0  0  0
   -1.7583   16.9900  -34.3545 H   0  0  0  0  0  0  0  0  0  0  0  0
   -1.9339   18.7777  -34.3545 H   0  0  0  0  0  0  0  0  0  0  0  0
   -4.8616   21.8827  -28.2515 H   0  0  0  0  0  0  0  0  0  0  0  0
   -3.0618   20.9206  -26.8124 H   0  0  0  0  0  0  0  0  0  0  0  0
   -0.7282   21.7931  -26.9753 H   0  0  0  0  0  0  0  0  0  0  0  0
   -0.1925   23.6364  -28.5744 H   0  0  0  0  0  0  0  0  0  0  0  0
   -1.9886   24.6027  -30.0153 H   0  0  0  0  0  0  0  0  0  0  0  0
   -6.1029   20.3528  -31.4611 H   0  0  0  0  0  0  0  0  0  0  0  0
  1  2  1  0
  2  3  2  0
  3  4  1  0
  4  5  2  0
  5  6  1  0
  6  7  1  0
  7  8  1  0
  8  9  1  0
  9 10  2  0
  9 11  1  0
 11 12  1  0
 12 13  2  0
 13 14  1  0
 14 15  2  0
 15 16  1  0
 15 17  1  0
 17 18  2  0
 18 19  1  0
  7 20  1  0
 20 21  2  0
 20 22  2  0
 20 23  1  0
 23 24  2  0
 24 25  1  0
 25 26  2  0
 26 27  1  0
 27 28  2  0
  6 29  2  0
 29  2  1  0
 18 12  1  0
 28 23  1  0
  1 30  1  0
  1 31  1  0
  1 32  1  0
  3 33  1  0
  4 34  1  0
  5 35  1  0
  8 36  1  0
  8 37  1  0
 11 38  1  0
 13 39  1  0
 14 40  1  0
 16 41  1  0
 16 42  1  0
 16 43  1  0
 17 44  1  0
 19 45  1  0
 19 46  1  0
 19 47  1  0
 24 48  1  0
 25 49  1  0
 26 50  1  0
 27 51  1  0
 28 52  1  0
 29 53  1  0
M  END
>  <UniqueID>  (10) 
10

>  <SMILES>  (10) 
Cc1cccc(N(CC(=O)Nc2ccc(C)cc2C)S(=O)(=O)c2ccccc2)c1

>  <Energy>  (10) 
59.376611631549615

>  <Genealogy>  (10) 
Cc1cccc(N(CC(=O)Nc2ccc(C)cc2C)S(=O)(=O)c2ccccc2)c1 (3D coordinates assigned)
Cc1cccc(N(CC(=O)Nc2ccc(C)cc2C)S(=O)(=O)c2ccccc2)c1 (optimized conformer: 59.376611631549615 kcal/mol)

>  <smiles>  (10) 
Cc1cccc(N(CC(=O)Nc2ccc(C)cc2C)S(=O)(=O)c2ccccc2)c1

>  <score_type>  (10) 
oracle

>  <origin>  (10) 
adgpu

>  <m_score__min__energy>  (10) 
-10.44

>  <m_primary>  (10) 
energy

$$$$
10:0
     RDKit          3D

 42 44  0  0  0  0  0  0  0  0999 V2000
   -4.2330   24.1710  -27.5400 C   0  0  0  0  0  0  0  0  0  0  0  0
   -3.8070   23.0070  -28.3960 C   0  0  0  0  0  0  0  0  0  0  0  0
   -3.0050   21.9980  -27.8320 C   0  0  0  0  0  0  0  0  0  0  0  0
   -2.5950   20.9060  -28.5970 C   0  0  0  0  0  0  0  0  0  0  0  0
   -2.9780   20.8050  -29.9340 C   0  0  0  0  0  0  0  0  0  0  0  0
   -3.7640   21.8010  -30.5140 C   0  0  0  0  0  0  0  0  0  0  0  0
   -4.1700   22.9200  -29.7640 C   0  0  0  0  0  0  0  0  0  0  0  0
   -5.0400   23.9610  -30.4240 C   0  0  0  0  0  0  0  0  0  0  0  0
   -5.1230   23.6750  -31.8040 O   0  0  0  0  0  0  0  0  0  0  0  0
   -6.4620   23.4120  -32.1760 C   0  0  0  0  0  0  0  0  0  0  0  0
   -6.6950   21.9180  -32.3480 C   0  0  0  0  0  0  0  0  0  0  0  0
   -7.9030   21.3090  -31.9220 C   0  0  0  0  0  0  0  0  0  0  0  0
   -8.9870   22.1130  -31.2350 C   0  0  0  0  0  0  0  0  0  0  0  0
   -8.0830   19.9320  -32.1380 C   0  0  0  0  0  0  0  0  0  0  0  0
   -9.1560   19.3710  -31.7790 O   0  0  0  0  0  0  0  0  0  0  0  0
   -7.0690   19.1740  -32.7440 C   0  0  0  0  0  0  0  0  0  0  0  0
   -7.2300   17.7880  -32.9460 C   0  0  0  0  0  0  0  0  0  0  0  0
   -6.2070   17.0320  -33.5120 C   0  0  0  0  0  0  0  0  0  0  0  0
   -5.0080   17.6400  -33.8700 C   0  0  0  0  0  0  0  0  0  0  0  0
   -4.8300   19.0120  -33.6820 C   0  0  0  0  0  0  0  0  0  0  0  0
   -5.8660   19.8120  -33.1410 C   0  0  0  0  0  0  0  0  0  0  0  0
   -5.7230   21.1710  -32.9670 N   0  0  0  0  0  0  0  0  0  0  0  0
   -4.6050   21.8490  -33.4270 O   0  0  0  0  0  0  0  0  0  0  0  0
   -4.1341   23.9009  -26.4783 H   0  0  0  0  0  0  0  0  0  0  0  0
   -3.5945   25.0397  -27.7583 H   0  0  0  0  0  0  0  0  0  0  0  0
   -5.2814   24.4224  -27.7583 H   0  0  0  0  0  0  0  0  0  0  0  0
   -2.6985   22.0709  -26.7781 H   0  0  0  0  0  0  0  0  0  0  0  0
   -1.9684   20.1231  -28.1448 H   0  0  0  0  0  0  0  0  0  0  0  0
   -2.6598   19.9385  -30.5324 H   0  0  0  0  0  0  0  0  0  0  0  0
   -4.0690   21.7107  -31.5670 H   0  0  0  0  0  0  0  0  0  0  0  0
   -6.0462   23.9374  -29.9802 H   0  0  0  0  0  0  0  0  0  0  0  0
   -4.6059   24.9606  -30.2746 H   0  0  0  0  0  0  0  0  0  0  0  0
   -7.1346   23.7936  -31.3937 H   0  0  0  0  0  0  0  0  0  0  0  0
   -6.6648   23.9117  -33.1347 H   0  0  0  0  0  0  0  0  0  0  0  0
   -8.8716   22.0274  -30.1444 H   0  0  0  0  0  0  0  0  0  0  0  0
   -8.9033   23.1692  -31.5308 H   0  0  0  0  0  0  0  0  0  0  0  0
   -9.9734   21.7264  -31.5308 H   0  0  0  0  0  0  0  0  0  0  0  0
   -8.1716   17.2999  -32.6540 H   0  0  0  0  0  0  0  0  0  0  0  0
   -6.3469   15.9534  -33.6762 H   0  0  0  0  0  0  0  0  0  0  0  0
   -4.1964   17.0370  -34.3032 H   0  0  0  0  0  0  0  0  0  0  0  0
   -3.8724   19.4778  -33.9577 H   0  0  0  0  0  0  0  0  0  0  0  0
   -4.6110   22.8120  -33.7280 H   0  0  0  0  0  0  0  0  0  0  0  0
  1  2  1  0
  2  3  2  0
  3  4  1  0
  4  5  2  0
  5  6  1  0
  6  7  2  0
  7  8  1  0
  8  9  1  0
  9 10  1  0
 10 11  1  0
 11 12  2  0
 12 13  1  0
 12 14  1  0
 14 15  2  0
 14 16  1  0
 16 17  2  0
 17 18  1  0
 18 19  2  0
 19 20  1  0
 20 21  2  0
 21 22  1  0
 22 23  1  0
  7  2  1  0
 22 11  1  0
 21 16  1  0
  1 24  1  0
  1 25  1  0
  1 26  1  0
  3 27  1  0
  4 28  1  0
  5 29  1  0
  6 30  1  0
  8 31  1  0
  8 32  1  0
 10 33  1  0
 10 34  1  0
 13 35  1  0
 13 36  1  0
 13 37  1  0
 17 38  1  0
 18 39  1  0
 19 40  1  0
 20 41  1  0
 23 42  1  0
M  END
>  <UniqueID>  (11) 
11

>  <SMILES>  (11) 
Cc1ccccc1COCc1c(C)c(=O)c2ccccc2n1O

>  <Energy>  (11) 
61.10801920163075

>  <Genealogy>  (11) 
Cc1ccccc1COCc1c(C)c(=O)c2ccccc2n1O (3D coordinates assigned)
Cc1ccccc1COCc1c(C)c(=O)c2ccccc2n1O (optimized conformer: 61.10801920163075 kcal/mol)

>  <smiles>  (11) 
Cc1ccccc1COCc1c(C)c(=O)c2ccccc2n1O

>  <score_type>  (11) 
oracle

>  <origin>  (11) 
adgpu

>  <m_score__min__energy>  (11) 
-8.7799999999999994

>  <m_primary>  (11) 
energy

$$$$
11:0
     RDKit          3D

 49 51  0  0  0  0  0  0  0  0999 V2000
   -9.5380   21.5830  -31.0940 C   0  0  0  0  0  0  0  0  0  0  0  0
   -8.6280   20.6140  -31.7900 C   0  0  0  0  0  0  0  0  0  0  0  0
   -7.5780   21.0770  -32.5980 C   0  0  0  0  0  0  0  0  0  0  0  0
   -6.7120   20.1710  -33.2200 C   0  0  0  0  0  0  0  0  0  0  0  0
   -6.8770   18.7920  -33.0260 C   0  0  0  0  0  0  0  0  0  0  0  0
   -5.7800   17.6390  -33.7810 S   0  0  0  0  0  0  0  0  0  0  0  0
   -5.4910   18.0260  -35.2070 O   0  0  0  0  0  0  0  0  0  0  0  0
   -6.4240   16.2820  -33.7660 O   0  0  0  0  0  0  0  0  0  0  0  0
   -4.2900   17.5790  -32.8950 N   0  0  0  0  0  0  0  0  0  0  0  0
   -3.0910   18.2600  -33.3100 C   0  0  0  0  0  0  0  0  0  0  0  0
   -2.2100   17.6960  -34.2490 C   0  0  0  0  0  0  0  0  0  0  0  0
   -1.0570   18.3800  -34.6330 C   0  0  0  0  0  0  0  0  0  0  0  0
   -0.7830   19.6240  -34.0700 C   0  0  0  0  0  0  0  0  0  0  0  0
   -1.6320   20.1560  -33.1540 N   0  0  0  0  0  0  0  0  0  0  0  0
   -2.7730   19.5200  -32.7660 C   0  0  0  0  0  0  0  0  0  0  0  0
   -3.6170   20.0930  -31.8020 O   0  0  0  0  0  0  0  0  0  0  0  0
   -3.5270   21.4070  -31.3200 C   0  0  0  0  0  0  0  0  0  0  0  0
   -2.3410   21.8100  -30.7040 C   0  0  0  0  0  0  0  0  0  0  0  0
   -2.2110   23.1050  -30.1990 C   0  0  0  0  0  0  0  0  0  0  0  0
   -3.2700   24.0120  -30.2950 C   0  0  0  0  0  0  0  0  0  0  0  0
   -3.0990   25.2910  -29.7800 O   0  0  0  0  0  0  0  0  0  0  0  0
   -4.4880   23.6220  -30.9010 C   0  0  0  0  0  0  0  0  0  0  0  0
   -5.6790   24.5640  -31.0190 C   0  0  0  0  0  0  0  0  0  0  0  0
   -6.0050   25.2410  -29.6820 C   0  0  0  0  0  0  0  0  0  0  0  0
   -6.9060   23.8560  -31.6100 C   0  0  0  0  0  0  0  0  0  0  0  0
   -4.6040   22.3090  -31.3980 C   0  0  0  0  0  0  0  0  0  0  0  0
   -7.9160   18.3280  -32.2060 C   0  0  0  0  0  0  0  0  0  0  0  0
   -8.7840   19.2340  -31.5870 C   0  0  0  0  0  0  0  0  0  0  0  0
   -9.4311   21.4691  -30.0051 H   0  0  0  0  0  0  0  0  0  0  0  0
   -9.2703   22.6100  -31.3833 H   0  0  0  0  0  0  0  0  0  0  0  0
  -10.5797   21.3803  -31.3833 H   0  0  0  0  0  0  0  0  0  0  0  0
   -7.4351   22.1580  -32.7431 H   0  0  0  0  0  0  0  0  0  0  0  0
   -5.8998   20.5413  -33.8627 H   0  0  0  0  0  0  0  0  0  0  0  0
   -4.3120   17.0900  -31.9740 H   0  0  0  0  0  0  0  0  0  0  0  0
   -2.4313   16.7098  -34.6832 H   0  0  0  0  0  0  0  0  0  0  0  0
   -0.3711   17.9416  -35.3728 H   0  0  0  0  0  0  0  0  0  0  0  0
    0.1212   20.1754  -34.3675 H   0  0  0  0  0  0  0  0  0  0  0  0
   -1.5033   21.1025  -30.6159 H   0  0  0  0  0  0  0  0  0  0  0  0
   -1.2689   23.4136  -29.7224 H   0  0  0  0  0  0  0  0  0  0  0  0
   -5.3923   25.3597  -31.7223 H   0  0  0  0  0  0  0  0  0  0  0  0
   -5.6907   24.5883  -28.8543 H   0  0  0  0  0  0  0  0  0  0  0  0
   -5.4699   26.1998  -29.6164 H   0  0  0  0  0  0  0  0  0  0  0  0
   -7.0883   25.4205  -29.6164 H   0  0  0  0  0  0  0  0  0  0  0  0
   -7.5450   23.4873  -30.7940 H   0  0  0  0  0  0  0  0  0  0  0  0
   -7.4751   24.5646  -32.2297 H   0  0  0  0  0  0  0  0  0  0  0  0
   -6.5773   23.0087  -32.2297 H   0  0  0  0  0  0  0  0  0  0  0  0
   -5.5508   21.9840  -31.8539 H   0  0  0  0  0  0  0  0  0  0  0  0
   -8.0489   17.2474  -32.0489 H   0  0  0  0  0  0  0  0  0  0  0  0
   -9.5918   18.8634  -30.9388 H   0  0  0  0  0  0  0  0  0  0  0  0
  1  2  1  0
  2  3  2  0
  3  4  1  0
  4  5  2  0
  5  6  1  0
  6  7  2  0
  6  8  2  0
  6  9  1  0
  9 10  1  0
 10 11  2  0
 11 12  1  0
 12 13  2  0
 13 14  1  0
 14 15  2  0
 15 16  1  0
 16 17  1  0
 17 18  2  0
 18 19  1  0
 19 20  2  0
 20 21  1  0
 20 22  1  0
 22 23  1  0
 23 24  1  0
 23 25  1  0
 22 26  2  0
  5 27  1  0
 27 28  2  0
 28  2  1  0
 15 10  1  0
 26 17  1  0
  1 29  1  0
  1 30  1  0
  1 31  1  0
  3 32  1  0
  4 33  1  0
  9 34  1  0
 11 35  1  0
 12 36  1  0
 13 37  1  0
 18 38  1  0
 19 39  1  0
 23 40  1  0
 24 41  1  0
 24 42  1  0
 24 43  1  0
 25 44  1  0
 25 45  1  0
 25 46  1  0
 26 47  1  0
 27 48  1  0
 28 49  1  0
M  CHG  1  21  -1
M  END
>  <UniqueID>  (12) 
12

>  <SMILES>  (12) 
Cc1ccc(S(=O)(=O)Nc2cccnc2Oc2ccc([O-])c(C(C)C)c2)cc1

>  <Energy>  (12) 
57.531947690620285

>  <Genealogy>  (12) 
Cc1ccc(S(=O)(=O)Nc2cccnc2Oc2ccc([O-])c(C(C)C)c2)cc1 (protonated)
Cc1ccc(S(=O)(=O)Nc2cccnc2Oc2ccc([O-])c(C(C)C)c2)cc1 (3D coordinates assigned)
Cc1ccc(S(=O)(=O)Nc2cccnc2Oc2ccc([O-])c(C(C)C)c2)cc1 (optimized conformer: 57.531947690620285 kcal/mol)

>  <smiles>  (12) 
Cc1ccc(S(=O)(=O)Nc2cccnc2Oc2ccc(O)c(C(C)C)c2)cc1

>  <score_type>  (12) 
oracle

>  <origin>  (12) 
adgpu

>  <m_score__min__energy>  (12) 
-12.109999999999999

>  <m_primary>  (12) 
energy

$$$$
12:0
     RDKit          3D

 51 52  0  0  0  0  0  0  0  0999 V2000
   -1.0170   20.1670  -30.3750 C   0  0  0  0  0  0  0  0  0  0  0  0
   -0.4640   18.9960  -31.1710 C   0  0  0  0  0  0  0  0  0  0  0  0
   -0.3590   19.3650  -32.5420 O   0  0  0  0  0  0  0  0  0  0  0  0
   -1.0780   18.7230  -33.5570 C   0  0  0  0  0  0  0  0  0  0  0  0
   -0.5050   17.8810  -34.2960 O   0  0  0  0  0  0  0  0  0  0  0  0
   -2.5110   19.0350  -33.7570 C   0  0  0  0  0  0  0  0  0  0  0  0
   -3.1310   20.2650  -33.5550 C   0  0  0  0  0  0  0  0  0  0  0  0
   -2.4810   21.5320  -33.0900 C   0  0  0  0  0  0  0  0  0  0  0  0
   -4.4460   20.1720  -33.8230 N   0  0  0  0  0  0  0  0  0  0  0  0
   -4.6940   18.9020  -34.2010 C   0  0  0  0  0  0  0  0  0  0  0  0
   -6.0780   18.4220  -34.5570 C   0  0  0  0  0  0  0  0  0  0  0  0
   -6.7150   17.6120  -33.4150 C   0  0  0  0  0  0  0  0  0  0  0  0
   -7.0670   18.4360  -32.2070 C   0  0  0  0  0  0  0  0  0  0  0  0
   -6.8650   17.9870  -31.0450 O   0  0  0  0  0  0  0  0  0  0  0  0
   -7.5530   19.7730  -32.3820 N   0  0  0  0  0  0  0  0  0  0  0  0
   -7.8510   20.6320  -31.2340 C   0  0  0  0  0  0  0  0  0  0  0  0
   -8.0810   22.0880  -31.6610 C   0  0  0  0  0  0  0  0  0  0  0  0
   -6.8720   22.9430  -31.3710 C   0  0  0  0  0  0  0  0  0  0  0  0
   -5.5750   22.4380  -31.5680 C   0  0  0  0  0  0  0  0  0  0  0  0
   -4.4570   23.2240  -31.2640 C   0  0  0  0  0  0  0  0  0  0  0  0
   -4.6260   24.5180  -30.7600 C   0  0  0  0  0  0  0  0  0  0  0  0
   -3.5140   25.2950  -30.4560 O   0  0  0  0  0  0  0  0  0  0  0  0
   -5.9130   25.0280  -30.5610 C   0  0  0  0  0  0  0  0  0  0  0  0
   -7.0320   24.2450  -30.8620 C   0  0  0  0  0  0  0  0  0  0  0  0
   -3.5140   18.1600  -34.1730 C   0  0  0  0  0  0  0  0  0  0  0  0
   -3.3310   16.7090  -34.5210 C   0  0  0  0  0  0  0  0  0  0  0  0
   -0.9185   19.9584  -29.2995 H   0  0  0  0  0  0  0  0  0  0  0  0
   -0.4542   21.0785  -30.6248 H   0  0  0  0  0  0  0  0  0  0  0  0
   -2.0785   20.3115  -30.6248 H   0  0  0  0  0  0  0  0  0  0  0  0
    0.5307   18.7273  -30.7858 H   0  0  0  0  0  0  0  0  0  0  0  0
   -1.1390   18.1330  -31.0730 H   0  0  0  0  0  0  0  0  0  0  0  0
   -2.4688   21.5557  -31.9903 H   0  0  0  0  0  0  0  0  0  0  0  0
   -1.4493   21.5754  -33.4691 H   0  0  0  0  0  0  0  0  0  0  0  0
   -3.0475   22.3953  -33.4691 H   0  0  0  0  0  0  0  0  0  0  0  0
   -5.1490   20.9420  -33.7500 H   0  0  0  0  0  0  0  0  0  0  0  0
   -6.7128   19.2943  -34.7715 H   0  0  0  0  0  0  0  0  0  0  0  0
   -5.9959   17.7659  -35.4361 H   0  0  0  0  0  0  0  0  0  0  0  0
   -7.6347   17.1426  -33.7942 H   0  0  0  0  0  0  0  0  0  0  0  0
   -5.9670   16.8734  -33.0911 H   0  0  0  0  0  0  0  0  0  0  0  0
   -7.6830   20.1350  -33.3550 H   0  0  0  0  0  0  0  0  0  0  0  0
   -8.7577   20.2590  -30.7352 H   0  0  0  0  0  0  0  0  0  0  0  0
   -6.9880   20.6061  -30.5524 H   0  0  0  0  0  0  0  0  0  0  0  0
   -8.2887   22.1160  -32.7408 H   0  0  0  0  0  0  0  0  0  0  0  0
   -8.9325   22.4864  -31.0899 H   0  0  0  0  0  0  0  0  0  0  0  0
   -5.4378   21.4205  -31.9629 H   0  0  0  0  0  0  0  0  0  0  0  0
   -3.4446   22.8236  -31.4216 H   0  0  0  0  0  0  0  0  0  0  0  0
   -6.0453   26.0465  -30.1671 H   0  0  0  0  0  0  0  0  0  0  0  0
   -8.0422   24.6490  -30.7000 H   0  0  0  0  0  0  0  0  0  0  0  0
   -3.2563   16.1169  -33.5970 H   0  0  0  0  0  0  0  0  0  0  0  0
   -4.1925   16.3618  -35.1103 H   0  0  0  0  0  0  0  0  0  0  0  0
   -2.4103   16.5866  -35.1103 H   0  0  0  0  0  0  0  0  0  0  0  0
  1  2  1  0
  2  3  1  0
  3  4  1  0
  4  5  2  0
  4  6  1  0
  6  7  2  0
  7  8  1  0
  7  9  1  0
  9 10  1  0
 10 11  1  0
 11 12  1  0
 12 13  1  0
 13 14  2  0
 13 15  1  0
 15 16  1  0
 16 17  1  0
 17 18  1  0
 18 19  2  0
 19 20  1  0
 20 21  2  0
 21 22  1  0
 21 23  1  0
 23 24  2  0
 10 25  2  0
 25 26  1  0
 25  6  1  0
 24 18  1  0
  1 27  1  0
  1 28  1  0
  1 29  1  0
  2 30  1  0
  2 31  1  0
  8 32  1  0
  8 33  1  0
  8 34  1  0
  9 35  1  0
 11 36  1  0
 11 37  1  0
 12 38  1  0
 12 39  1  0
 15 40  1  0
 16 41  1  0
 16 42  1  0
 17 43  1  0
 17 44  1  0
 19 45  1  0
 20 46  1  0
 23 47  1  0
 24 48  1  0
 26 49  1  0
 26 50  1  0
 26 51  1  0
M  CHG  1  22  -1
M  END
>  <UniqueID>  (13) 
13

>  <SMILES>  (13) 
CCOC(=O)c1c(C)[nH]c(CCC(=O)NCCc2ccc([O-])cc2)c1C

>  <Energy>  (13) 
64.6820877956484

>  <Genealogy>  (13) 
CCOC(=O)c1c(C)[nH]c(CCC(=O)NCCc2ccc([O-])cc2)c1C (protonated)
CCOC(=O)c1c(C)[nH]c(CCC(=O)NCCc2ccc([O-])cc2)c1C (3D coordinates assigned)
CCOC(=O)c1c(C)[nH]c(CCC(=O)NCCc2ccc([O-])cc2)c1C (optimized conformer: 64.6820877956484 kcal/mol)

>  <smiles>  (13) 
CCOC(=O)c1c(C)[nH]c(CCC(=O)NCCc2ccc(O)cc2)c1C

>  <score_type>  (13) 
oracle

>  <origin>  (13) 
adgpu

>  <m_score__min__energy>  (13) 
-10.48

>  <m_primary>  (13) 
energy

$$$$
13:0
     RDKit          3D

 38 40  0  0  0  0  0  0  0  0999 V2000
   -9.3360   20.2114  -31.1011 H   0  0  0  0  0  0  0  0  0  0  0  0
   -8.4740   19.7680  -31.6210 C   0  0  0  0  0  0  0  0  0  0  0  0
   -7.2900   20.4290  -31.6700 N   0  0  0  0  0  0  0  0  0  0  0  0
   -6.2080   19.9110  -32.3130 C   0  0  0  0  0  0  0  0  0  0  0  0
   -5.0710   20.5500  -32.3330 N   0  0  0  0  0  0  0  0  0  0  0  0
   -4.8040   21.8600  -31.8060 C   0  0  0  0  0  0  0  0  0  0  0  0
   -5.7160   22.9250  -31.9520 C   0  0  0  0  0  0  0  0  0  0  0  0
   -6.6790   22.7566  -32.4563 H   0  0  0  0  0  0  0  0  0  0  0  0
   -5.4010   24.1950  -31.4580 C   0  0  0  0  0  0  0  0  0  0  0  0
   -6.1227   25.0188  -31.5609 H   0  0  0  0  0  0  0  0  0  0  0  0
   -4.1710   24.4190  -30.8340 C   0  0  0  0  0  0  0  0  0  0  0  0
   -3.8590   25.6800  -30.3430 O   0  0  0  0  0  0  0  0  0  0  0  0
   -3.2490   23.3740  -30.7130 C   0  0  0  0  0  0  0  0  0  0  0  0
   -2.2775   23.5517  -30.2287 H   0  0  0  0  0  0  0  0  0  0  0  0
   -3.5610   22.1040  -31.2070 C   0  0  0  0  0  0  0  0  0  0  0  0
   -2.8254   21.2903  -31.1249 H   0  0  0  0  0  0  0  0  0  0  0  0
   -6.3160   18.6460  -32.9260 C   0  0  0  0  0  0  0  0  0  0  0  0
   -5.2780   18.1410  -33.5350 N   0  0  0  0  0  0  0  0  0  0  0  0
   -5.2100   16.6170  -34.3640 S   0  0  0  0  0  0  0  0  0  0  0  0
   -4.6110   16.8240  -35.7280 O   0  0  0  0  0  0  0  0  0  0  0  0
   -6.6060   16.0830  -34.5210 O   0  0  0  0  0  0  0  0  0  0  0  0
   -4.2620   15.4600  -33.4360 C   0  0  0  0  0  0  0  0  0  0  0  0
   -4.8950   14.5650  -32.5610 C   0  0  0  0  0  0  0  0  0  0  0  0
   -5.9890   14.5889  -32.4490 H   0  0  0  0  0  0  0  0  0  0  0  0
   -4.1400   13.6430  -31.8310 C   0  0  0  0  0  0  0  0  0  0  0  0
   -4.6420   12.9409  -31.1491 H   0  0  0  0  0  0  0  0  0  0  0  0
   -2.7440   13.6100  -31.9650 C   0  0  0  0  0  0  0  0  0  0  0  0
   -1.9720   12.6660  -31.2180 N   0  0  0  0  0  0  0  0  0  0  0  0
   -2.2200   12.4340  -30.2310 H   0  0  0  0  0  0  0  0  0  0  0  0
   -1.1420   12.1960  -31.6460 H   0  0  0  0  0  0  0  0  0  0  0  0
   -2.1120   14.5080  -32.8350 C   0  0  0  0  0  0  0  0  0  0  0  0
   -1.0176   14.4877  -32.9436 H   0  0  0  0  0  0  0  0  0  0  0  0
   -2.8670   15.4290  -33.5650 C   0  0  0  0  0  0  0  0  0  0  0  0
   -2.3642   16.1332  -34.2442 H   0  0  0  0  0  0  0  0  0  0  0  0
   -7.5140   17.9850  -32.8700 N   0  0  0  0  0  0  0  0  0  0  0  0
   -7.6440   17.0480  -33.3090 H   0  0  0  0  0  0  0  0  0  0  0  0
   -8.5880   18.5230  -32.2350 C   0  0  0  0  0  0  0  0  0  0  0  0
   -9.5430   17.9779  -32.2060 H   0  0  0  0  0  0  0  0  0  0  0  0
  1  2  1  0
  2  3  1  0
  3  4  1  0
  4  5  2  0
  5  6  1  0
  6  7  2  0
  7  8  1  0
  7  9  1  0
  9 10  1  0
  9 11  2  0
 11 12  1  0
 11 13  1  0
 13 14  1  0
 13 15  2  0
 15 16  1  0
  4 17  1  0
 17 18  2  0
 18 19  1  0
 19 20  2  0
 19 21  2  0
 19 22  1  0
 22 23  2  0
 23 24  1  0
 23 25  1  0
 25 26  1  0
 25 27  2  0
 27 28  1  0
 28 29  1  0
 28 30  1  0
 27 31  1  0
 31 32  1  0
 31 33  2  0
 33 34  1  0
 17 35  1  0
 35 36  1  0
 35 37  1  0
 37 38  1  0
 37  2  2  0
 15  6  1  0
 33 22  1  0
M  CHG  2   3  -1  12  -1
M  END
>  <UniqueID>  (14) 
14

>  <SMILES>  (14) 
Nc1ccc(S(=O)(=O)/N=c2\[nH]cc[n-]c2=Nc2ccc([O-])cc2)cc1

>  <Energy>  (14) 
53.46252609921219

>  <Genealogy>  (14) 
Nc1ccc(S(=O)(=O)N=c2[nH]cc[n-]c2=Nc2ccc([O-])cc2)cc1 (protonated)
Nc1ccc(S(=O)(=O)/N=c2\[nH]cc[n-]c2=Nc2ccc([O-])cc2)cc1 (cis-trans isomerization)
Nc1ccc(S(=O)(=O)/N=c2\[nH]cc[n-]c2=Nc2ccc([O-])cc2)cc1 (3D coordinates assigned)
Nc1ccc(S(=O)(=O)/N=c2\[nH]cc[n-]c2=Nc2ccc([O-])cc2)cc1 (optimized conformer: 53.46252609921219 kcal/mol)

>  <smiles>  (14) 
Nc1ccc(S(=O)(=O)N=c2[nH]cc[nH]c2=Nc2ccc(O)cc2)cc1

>  <score_type>  (14) 
oracle

>  <origin>  (14) 
adgpu

>  <m_score__min__energy>  (14) 
-10.16

>  <m_primary>  (14) 
energy

$$$$
14:0
     RDKit          3D

 38 40  0  0  1  0  0  0  0  0999 V2000
   -9.7580   21.6310  -30.8270 C   0  0  0  0  0  0  0  0  0  0  0  0
   -8.7130   21.3230  -31.3560 C   0  0  0  0  0  0  0  0  0  0  0  0
   -7.4660   20.9610  -31.9870 C   0  0  0  0  0  0  0  0  0  0  0  0
   -7.4040   20.3860  -33.2370 C   0  0  0  0  0  0  0  0  0  0  0  0
   -6.1850   20.0490  -33.8150 C   0  0  0  0  0  0  0  0  0  0  0  0
   -5.0110   20.2920  -33.1320 C   0  0  0  0  0  0  0  0  0  0  0  0
   -5.0930   20.8680  -31.8800 C   0  0  0  0  0  0  0  0  0  0  0  0
   -3.9030   21.1480  -31.1130 N   0  0  0  0  0  0  0  0  0  0  0  0
   -3.7950   22.4150  -30.7850 C   0  0  0  0  0  0  0  0  0  0  0  0
   -4.7390   23.3150  -31.1600 N   0  0  0  0  0  0  0  0  0  0  0  0
   -4.6110   24.6300  -30.8110 C   0  0  0  0  0  0  0  0  0  0  0  0
   -3.5490   25.0380  -30.0940 N   0  0  0  0  0  0  0  0  0  0  0  0
   -2.5810   24.1760  -29.6960 C   0  0  0  0  0  0  0  0  0  0  0  0
   -1.5050   24.6510  -28.9550 C   0  0  0  0  0  0  0  0  0  0  0  0
   -1.4920   26.0090  -28.6670 O   0  0  0  0  0  0  0  0  0  0  0  0
   -0.8460   26.6250  -27.6000 C   0  0  0  0  0  0  0  0  0  0  0  0
   -0.5100   23.7890  -28.5430 C   0  0  0  0  0  0  0  0  0  0  0  0
   -0.6300   22.4410  -28.8940 C   0  0  0  0  0  0  0  0  0  0  0  0
    0.3350   21.5390  -28.5060 O   0  0  0  0  0  0  0  0  0  0  0  0
    0.0350   20.1670  -28.3300 C   0  0  0  0  0  0  0  0  0  0  0  0
   -1.7190   21.9910  -29.6360 C   0  0  0  0  0  0  0  0  0  0  0  0
   -2.7040   22.8470  -30.0450 C   0  0  0  0  0  0  0  0  0  0  0  0
   -6.2900   21.2120  -31.2830 C   0  0  0  0  0  0  0  0  0  0  0  0
  -10.7071   21.9107  -30.3465 H   0  0  0  0  0  0  0  0  0  0  0  0
   -8.3356   20.1898  -33.7880 H   0  0  0  0  0  0  0  0  0  0  0  0
   -6.1567   19.5899  -34.8142 H   0  0  0  0  0  0  0  0  0  0  0  0
   -4.0368   20.0340  -33.5728 H   0  0  0  0  0  0  0  0  0  0  0  0
   -5.3783   25.3563  -31.1172 H   0  0  0  0  0  0  0  0  0  0  0  0
   -3.4990   26.0490  -29.8530 H   0  0  0  0  0  0  0  0  0  0  0  0
   -1.2514   26.2384  -26.6533 H   0  0  0  0  0  0  0  0  0  0  0  0
    0.2319   26.4118  -27.6515 H   0  0  0  0  0  0  0  0  0  0  0  0
   -1.0077   27.7118  -27.6515 H   0  0  0  0  0  0  0  0  0  0  0  0
    0.3488   24.1500  -27.9581 H   0  0  0  0  0  0  0  0  0  0  0  0
   -0.0152   19.9376  -27.2554 H   0  0  0  0  0  0  0  0  0  0  0  0
   -0.9339   19.9404  -28.7989 H   0  0  0  0  0  0  0  0  0  0  0  0
    0.8209   19.5567  -28.7989 H   0  0  0  0  0  0  0  0  0  0  0  0
   -1.7884   20.9251  -29.8986 H   0  0  0  0  0  0  0  0  0  0  0  0
   -6.3142   21.6698  -30.2831 H   0  0  0  0  0  0  0  0  0  0  0  0
  1  2  3  0
  2  3  1  0
  3  4  2  0
  4  5  1  0
  5  6  2  0
  6  7  1  0
  7  8  1  0
  8  9  2  0
  9 10  1  0
 10 11  2  0
 11 12  1  0
 12 13  1  0
 13 14  2  0
 14 15  1  0
 15 16  1  0
 14 17  1  0
 17 18  2  0
 18 19  1  0
 19 20  1  0
 18 21  1  0
 21 22  2  0
  7 23  2  0
 23  3  1  0
 22  9  1  0
 22 13  1  0
  1 24  1  0
  4 25  1  0
  5 26  1  0
  6 27  1  0
 11 28  1  0
 12 29  1  0
 16 30  1  0
 16 31  1  0
 16 32  1  0
 17 33  1  0
 20 34  1  0
 20 35  1  0
 20 36  1  0
 21 37  1  0
 23 38  1  0
M  END
>  <smiles>  (15) 
C#Cc1cccc(N=c2nc[nH]c3c(OC)cc(OC)cc23)c1

>  <score_type>  (15) 
oracle

>  <origin>  (15) 
adgpu

>  <m_score__min__energy>  (15) 
-7.8899999999999997

>  <m_primary>  (15) 
energy

$$$$
15:0
     RDKit          3D

 42 44  0  0  0  0  0  0  0  0999 V2000
   -2.5970   21.0130  -27.4590 C   0  0  0  0  0  0  0  0  0  0  0  0
   -2.2530   22.3970  -27.9220 C   0  0  0  0  0  0  0  0  0  0  0  0
   -1.0160   22.9720  -27.5960 C   0  0  0  0  0  0  0  0  0  0  0  0
   -0.6910   24.2490  -28.0590 C   0  0  0  0  0  0  0  0  0  0  0  0
   -1.5860   24.9520  -28.8700 C   0  0  0  0  0  0  0  0  0  0  0  0
   -1.2400   26.2160  -29.3380 O   0  0  0  0  0  0  0  0  0  0  0  0
   -2.8210   24.3860  -29.2130 C   0  0  0  0  0  0  0  0  0  0  0  0
   -3.6930   25.0950  -30.1070 N   0  0  0  0  0  0  0  0  0  0  0  0
   -4.8080   24.5310  -30.8070 C   0  0  0  0  0  0  0  0  0  0  0  0
   -5.8830   25.1840  -30.8550 O   0  0  0  0  0  0  0  0  0  0  0  0
   -4.7460   23.1790  -31.4130 C   0  0  0  0  0  0  0  0  0  0  0  0
   -3.5320   22.6860  -31.9130 C   0  0  0  0  0  0  0  0  0  0  0  0
   -3.4810   21.4410  -32.5410 C   0  0  0  0  0  0  0  0  0  0  0  0
   -4.6410   20.6730  -32.6920 C   0  0  0  0  0  0  0  0  0  0  0  0
   -4.5100   19.1490  -33.5630 Cl  0  0  0  0  0  0  0  0  0  0  0  0
   -5.8680   21.1510  -32.1840 C   0  0  0  0  0  0  0  0  0  0  0  0
   -7.3820   20.2620  -32.4050 S   0  0  0  0  0  0  0  0  0  0  0  0
   -8.4990   21.0440  -31.7740 O   0  0  0  0  0  0  0  0  0  0  0  0
   -7.6920   20.0580  -33.8610 O   0  0  0  0  0  0  0  0  0  0  0  0
   -7.2830   18.7100  -31.6350 N   0  0  0  0  0  0  0  0  0  0  0  0
   -6.7430   17.5250  -32.2350 C   0  0  0  0  0  0  0  0  0  0  0  0
   -7.2030   17.1450  -33.5030 C   0  0  0  0  0  0  0  0  0  0  0  0
   -6.6660   16.0250  -34.1440 C   0  0  0  0  0  0  0  0  0  0  0  0
   -5.6650   15.2740  -33.5220 C   0  0  0  0  0  0  0  0  0  0  0  0
   -5.2140   15.6330  -32.2490 C   0  0  0  0  0  0  0  0  0  0  0  0
   -5.7560   16.7470  -31.6000 C   0  0  0  0  0  0  0  0  0  0  0  0
   -5.9080   22.4030  -31.5520 C   0  0  0  0  0  0  0  0  0  0  0  0
   -3.1480   23.1030  -28.7390 C   0  0  0  0  0  0  0  0  0  0  0  0
   -2.6039   20.9853  -26.3594 H   0  0  0  0  0  0  0  0  0  0  0  0
   -3.5914   20.7358  -27.8390 H   0  0  0  0  0  0  0  0  0  0  0  0
   -1.8481   20.3025  -27.8390 H   0  0  0  0  0  0  0  0  0  0  0  0
   -0.2996   22.4155  -26.9738 H   0  0  0  0  0  0  0  0  0  0  0  0
    0.2726   24.7029  -27.7844 H   0  0  0  0  0  0  0  0  0  0  0  0
   -2.6147   23.2842  -31.8095 H   0  0  0  0  0  0  0  0  0  0  0  0
   -2.5213   21.0602  -32.9204 H   0  0  0  0  0  0  0  0  0  0  0  0
   -7.9915   17.7318  -33.9969 H   0  0  0  0  0  0  0  0  0  0  0  0
   -7.0319   15.7342  -35.1398 H   0  0  0  0  0  0  0  0  0  0  0  0
   -5.2327   14.4015  -34.0337 H   0  0  0  0  0  0  0  0  0  0  0  0
   -4.4309   15.0380  -31.7563 H   0  0  0  0  0  0  0  0  0  0  0  0
   -5.4104   17.0161  -30.5910 H   0  0  0  0  0  0  0  0  0  0  0  0
   -6.8632   22.7821  -31.1598 H   0  0  0  0  0  0  0  0  0  0  0  0
   -4.1127   22.6499  -29.0110 H   0  0  0  0  0  0  0  0  0  0  0  0
  1  2  1  0
  2  3  2  0
  3  4  1  0
  4  5  2  0
  5  6  1  0
  5  7  1  0
  7  8  1  0
  8  9  1  0
  9 10  2  0
  9 11  1  0
 11 12  2  0
 12 13  1  0
 13 14  2  0
 14 15  1  0
 14 16  1  0
 16 17  1  0
 17 18  2  0
 17 19  2  0
 17 20  1  0
 20 21  1  0
 21 22  2  0
 22 23  1  0
 23 24  2  0
 24 25  1  0
 25 26  2  0
 16 27  2  0
  7 28  2  0
 28  2  1  0
 27 11  1  0
 26 21  1  0
  1 29  1  0
  1 30  1  0
  1 31  1  0
  3 32  1  0
  4 33  1  0
 12 34  1  0
 13 35  1  0
 22 36  1  0
 23 37  1  0
 24 38  1  0
 25 39  1  0
 26 40  1  0
 27 41  1  0
 28 42  1  0
M  CHG  3   6  -1   8  -1  20  -1
M  END
>  <UniqueID>  (16) 
15

>  <SMILES>  (16) 
Cc1ccc([O-])c([N-]C(=O)c2ccc(Cl)c(S(=O)(=O)[N-]c3ccccc3)c2)c1

>  <Energy>  (16) 
51.805280237677955

>  <Genealogy>  (16) 
Cc1ccc([O-])c([N-]C(=O)c2ccc(Cl)c(S(=O)(=O)[N-]c3ccccc3)c2)c1 (protonated)
Cc1ccc([O-])c([N-]C(=O)c2ccc(Cl)c(S(=O)(=O)[N-]c3ccccc3)c2)c1 (3D coordinates assigned)
Cc1ccc([O-])c([N-]C(=O)c2ccc(Cl)c(S(=O)(=O)[N-]c3ccccc3)c2)c1 (optimized conformer: 51.805280237677955 kcal/mol)

>  <smiles>  (16) 
Cc1ccc(O)c(NC(=O)c2ccc(Cl)c(S(=O)(=O)Nc3ccccc3)c2)c1

>  <score_type>  (16) 
oracle

>  <origin>  (16) 
adgpu

>  <m_score__min__energy>  (16) 
-14.52

>  <m_primary>  (16) 
energy

$$$$
16:0
     RDKit          3D

 35 37  0  0  0  0  0  0  0  0999 V2000
   -9.4910   20.6950  -32.4150 C   0  0  0  0  0  0  0  0  0  0  0  0
   -8.2510   21.3270  -31.8570 C   0  0  0  0  0  0  0  0  0  0  0  0
   -8.3140   22.0880  -30.6840 C   0  0  0  0  0  0  0  0  0  0  0  0
   -7.1720   22.7160  -30.1890 C   0  0  0  0  0  0  0  0  0  0  0  0
   -5.9440   22.6120  -30.8640 C   0  0  0  0  0  0  0  0  0  0  0  0
   -4.7790   23.3330  -30.3030 C   0  0  0  0  0  0  0  0  0  0  0  0
   -3.9450   22.9010  -29.2890 C   0  0  0  0  0  0  0  0  0  0  0  0
   -2.9840   23.8890  -29.1950 C   0  0  0  0  0  0  0  0  0  0  0  0
   -1.8140   23.9160  -28.2850 C   0  0  0  0  0  0  0  0  0  0  0  0
   -1.5610   22.7980  -27.4680 C   0  0  0  0  0  0  0  0  0  0  0  0
   -0.4750   22.7890  -26.5890 C   0  0  0  0  0  0  0  0  0  0  0  0
    0.3780   23.8910  -26.5190 C   0  0  0  0  0  0  0  0  0  0  0  0
    1.4550   23.8820  -25.6420 O   0  0  0  0  0  0  0  0  0  0  0  0
    0.1510   25.0030  -27.3340 C   0  0  0  0  0  0  0  0  0  0  0  0
   -0.9330   25.0200  -28.2250 C   0  0  0  0  0  0  0  0  0  0  0  0
   -1.1150   26.1220  -29.0600 O   0  0  0  0  0  0  0  0  0  0  0  0
   -3.2270   24.8360  -30.1240 N   0  0  0  0  0  0  0  0  0  0  0  0
   -4.3140   24.4970  -30.7990 N   0  0  0  0  0  0  0  0  0  0  0  0
   -5.8660   21.8210  -32.0400 C   0  0  0  0  0  0  0  0  0  0  0  0
   -4.5740   21.6050  -32.7850 C   0  0  0  0  0  0  0  0  0  0  0  0
   -7.0320   21.2110  -32.5380 C   0  0  0  0  0  0  0  0  0  0  0  0
  -10.1381   20.3652  -31.5888 H   0  0  0  0  0  0  0  0  0  0  0  0
  -10.0301   21.4283  -33.0328 H   0  0  0  0  0  0  0  0  0  0  0  0
   -9.2145   19.8279  -33.0328 H   0  0  0  0  0  0  0  0  0  0  0  0
   -9.2700   22.1911  -30.1497 H   0  0  0  0  0  0  0  0  0  0  0  0
   -7.2330   23.3000  -29.2588 H   0  0  0  0  0  0  0  0  0  0  0  0
   -4.0276   21.9803  -28.6927 H   0  0  0  0  0  0  0  0  0  0  0  0
   -2.2250   21.9226  -27.5221 H   0  0  0  0  0  0  0  0  0  0  0  0
   -0.2922   21.9117  -25.9511 H   0  0  0  0  0  0  0  0  0  0  0  0
    0.8257   25.8699  -27.2769 H   0  0  0  0  0  0  0  0  0  0  0  0
   -1.6120   26.0480  -29.9400 H   0  0  0  0  0  0  0  0  0  0  0  0
   -3.7540   21.4679  -32.0648 H   0  0  0  0  0  0  0  0  0  0  0  0
   -4.6606   20.7089  -33.4170 H   0  0  0  0  0  0  0  0  0  0  0  0
   -4.3644   22.4806  -33.4170 H   0  0  0  0  0  0  0  0  0  0  0  0
   -6.9860   20.6355  -33.4743 H   0  0  0  0  0  0  0  0  0  0  0  0
  1  2  1  0
  2  3  2  0
  3  4  1  0
  4  5  2  0
  5  6  1  0
  6  7  2  0
  7  8  1  0
  8  9  1  0
  9 10  2  0
 10 11  1  0
 11 12  2  0
 12 13  1  0
 12 14  1  0
 14 15  2  0
 15 16  1  0
  8 17  2  0
 17 18  1  0
  5 19  1  0
 19 20  1  0
 19 21  2  0
 21  2  1  0
 18  6  1  0
 15  9  1  0
  1 22  1  0
  1 23  1  0
  1 24  1  0
  3 25  1  0
  4 26  1  0
  7 27  1  0
 10 28  1  0
 11 29  1  0
 14 30  1  0
 16 31  1  0
 20 32  1  0
 20 33  1  0
 20 34  1  0
 21 35  1  0
M  CHG  2  13  -1  18  -1
M  END
>  <UniqueID>  (17) 
16

>  <SMILES>  (17) 
Cc1ccc(-c2cc(-c3ccc([O-])cc3O)n[n-]2)c(C)c1

>  <Energy>  (17) 
75.44536731824688

>  <Genealogy>  (17) 
Cc1ccc(-c2cc(-c3ccc([O-])cc3O)n[n-]2)c(C)c1 (protonated)
Cc1ccc(-c2cc(-c3ccc([O-])cc3O)n[n-]2)c(C)c1 (3D coordinates assigned)
Cc1ccc(-c2cc(-c3ccc([O-])cc3O)n[n-]2)c(C)c1 (optimized conformer: 75.44536731824688 kcal/mol)

>  <smiles>  (17) 
Cc1ccc(-c2cc(-c3ccc(O)cc3O)n[nH]2)c(C)c1

>  <score_type>  (17) 
oracle

>  <origin>  (17) 
adgpu

>  <m_score__min__energy>  (17) 
-10.470000000000001

>  <m_primary>  (17) 
energy

$$$$
17:0
     RDKit          3D

 42 44  0  0  0  0  0  0  0  0999 V2000
   -1.1180   20.1530  -27.8950 C   0  0  0  0  0  0  0  0  0  0  0  0
   -1.9200   20.7000  -29.0380 C   0  0  0  0  0  0  0  0  0  0  0  0
   -3.0830   21.4450  -28.7930 C   0  0  0  0  0  0  0  0  0  0  0  0
   -3.8490   21.9240  -29.8600 C   0  0  0  0  0  0  0  0  0  0  0  0
   -3.4690   21.6510  -31.1780 C   0  0  0  0  0  0  0  0  0  0  0  0
   -4.4630   22.2480  -32.5460 S   0  0  0  0  0  0  0  0  0  0  0  0
   -5.2870   23.4850  -31.5340 C   0  0  0  0  0  0  0  0  0  0  0  0
   -4.5970   24.6120  -31.2140 N   0  0  0  0  0  0  0  0  0  0  0  0
   -5.1110   25.5660  -30.3950 C   0  0  0  0  0  0  0  0  0  0  0  0
   -6.3790   25.4000  -29.8410 C   0  0  0  0  0  0  0  0  0  0  0  0
   -7.1160   24.2580  -30.1510 C   0  0  0  0  0  0  0  0  0  0  0  0
   -6.5900   23.2900  -31.0200 C   0  0  0  0  0  0  0  0  0  0  0  0
   -7.4070   22.1050  -31.3550 C   0  0  0  0  0  0  0  0  0  0  0  0
   -8.1400   21.5880  -30.4670 O   0  0  0  0  0  0  0  0  0  0  0  0
   -7.4130   21.5720  -32.6880 N   0  0  0  0  0  0  0  0  0  0  0  0
   -8.0280   20.2870  -33.0160 C   0  0  0  0  0  0  0  0  0  0  0  0
   -6.9950   19.1950  -32.9780 C   0  0  0  0  0  0  0  0  0  0  0  0
   -6.0130   19.1030  -33.9790 C   0  0  0  0  0  0  0  0  0  0  0  0
   -5.0880   18.0530  -33.9630 C   0  0  0  0  0  0  0  0  0  0  0  0
   -5.1410   17.0880  -32.9540 C   0  0  0  0  0  0  0  0  0  0  0  0
   -6.1160   17.1710  -31.9570 C   0  0  0  0  0  0  0  0  0  0  0  0
   -7.0410   18.2200  -31.9680 C   0  0  0  0  0  0  0  0  0  0  0  0
   -2.3200   20.8930  -31.4270 C   0  0  0  0  0  0  0  0  0  0  0  0
   -1.5500   20.4150  -30.3620 C   0  0  0  0  0  0  0  0  0  0  0  0
   -1.5749   20.4647  -26.9442 H   0  0  0  0  0  0  0  0  0  0  0  0
   -1.1015   19.0546  -27.9512 H   0  0  0  0  0  0  0  0  0  0  0  0
   -0.0893   20.5385  -27.9512 H   0  0  0  0  0  0  0  0  0  0  0  0
   -3.3932   21.6530  -27.7584 H   0  0  0  0  0  0  0  0  0  0  0  0
   -4.7537   22.5176  -29.6622 H   0  0  0  0  0  0  0  0  0  0  0  0
   -4.5262   26.4699  -30.1690 H   0  0  0  0  0  0  0  0  0  0  0  0
   -6.7942   26.1626  -29.1657 H   0  0  0  0  0  0  0  0  0  0  0  0
   -8.1146   24.1151  -29.7123 H   0  0  0  0  0  0  0  0  0  0  0  0
   -6.9820   22.1270  -33.4610 H   0  0  0  0  0  0  0  0  0  0  0  0
   -8.8191   20.0651  -32.2846 H   0  0  0  0  0  0  0  0  0  0  0  0
   -8.4576   20.3412  -34.0272 H   0  0  0  0  0  0  0  0  0  0  0  0
   -5.9713   19.8585  -34.7774 H   0  0  0  0  0  0  0  0  0  0  0  0
   -4.3181   17.9873  -34.7459 H   0  0  0  0  0  0  0  0  0  0  0  0
   -4.4144   16.2622  -32.9447 H   0  0  0  0  0  0  0  0  0  0  0  0
   -6.1563   16.4109  -31.1629 H   0  0  0  0  0  0  0  0  0  0  0  0
   -7.8081   18.2817  -31.1820 H   0  0  0  0  0  0  0  0  0  0  0  0
   -2.0216   20.6725  -32.4625 H   0  0  0  0  0  0  0  0  0  0  0  0
   -0.6511   19.8135  -30.5624 H   0  0  0  0  0  0  0  0  0  0  0  0
  1  2  1  0
  2  3  2  0
  3  4  1  0
  4  5  2  0
  5  6  1  0
  6  7  1  0
  7  8  2  0
  8  9  1  0
  9 10  2  0
 10 11  1  0
 11 12  2  0
 12 13  1  0
 13 14  2  0
 13 15  1  0
 15 16  1  0
 16 17  1  0
 17 18  2  0
 18 19  1  0
 19 20  2  0
 20 21  1  0
 21 22  2  0
  5 23  1  0
 23 24  2  0
 24  2  1  0
 12  7  1  0
 22 17  1  0
  1 25  1  0
  1 26  1  0
  1 27  1  0
  3 28  1  0
  4 29  1  0
  9 30  1  0
 10 31  1  0
 11 32  1  0
 15 33  1  0
 16 34  1  0
 16 35  1  0
 18 36  1  0
 19 37  1  0
 20 38  1  0
 21 39  1  0
 22 40  1  0
 23 41  1  0
 24 42  1  0
M  END
>  <UniqueID>  (18) 
17

>  <SMILES>  (18) 
Cc1ccc(Sc2ncccc2C(=O)NCc2ccccc2)cc1

>  <Energy>  (18) 
39.62943529516061

>  <Genealogy>  (18) 
Cc1ccc(Sc2ncccc2C(=O)NCc2ccccc2)cc1 (3D coordinates assigned)
Cc1ccc(Sc2ncccc2C(=O)NCc2ccccc2)cc1 (optimized conformer: 39.62943529516061 kcal/mol)

>  <smiles>  (18) 
Cc1ccc(Sc2ncccc2C(=O)NCc2ccccc2)cc1

>  <score_type>  (18) 
oracle

>  <origin>  (18) 
adgpu

>  <m_score__min__energy>  (18) 
-8.5399999999999991

>  <m_primary>  (18) 
energy

$$$$
18:0
     RDKit          3D

 49 51  0  0  0  0  0  0  0  0999 V2000
    1.4800   22.2650  -35.7130 C   0  0  0  0  0  0  0  0  0  0  0  0
    1.3730   20.7920  -35.3320 C   0  0  0  0  0  0  0  0  0  0  0  0
    0.0330   20.4980  -34.7110 C   0  0  0  0  0  0  0  0  0  0  0  0
   -0.4860   19.1950  -34.7310 C   0  0  0  0  0  0  0  0  0  0  0  0
   -1.7160   18.9160  -34.1280 C   0  0  0  0  0  0  0  0  0  0  0  0
   -2.4350   19.9310  -33.4750 C   0  0  0  0  0  0  0  0  0  0  0  0
   -3.7130   19.6760  -32.8690 N   0  0  0  0  0  0  0  0  0  0  0  0
   -4.8390   19.1230  -33.5730 C   0  0  0  0  0  0  0  0  0  0  0  0
   -4.6580   18.5440  -34.6780 O   0  0  0  0  0  0  0  0  0  0  0  0
   -6.1990   19.2260  -32.9870 C   0  0  0  0  0  0  0  0  0  0  0  0
   -6.5970   20.4370  -32.5120 N   0  0  0  0  0  0  0  0  0  0  0  0
   -7.8290   20.6270  -31.9750 C   0  0  0  0  0  0  0  0  0  0  0  0
   -8.3110   22.2210  -31.4290 S   0  0  0  0  0  0  0  0  0  0  0  0
   -8.2000   22.2870  -29.9320 O   0  0  0  0  0  0  0  0  0  0  0  0
   -9.7430   22.4630  -31.8160 O   0  0  0  0  0  0  0  0  0  0  0  0
   -7.2660   23.4770  -32.1540 C   0  0  0  0  0  0  0  0  0  0  0  0
   -5.9490   23.5650  -31.4180 C   0  0  0  0  0  0  0  0  0  0  0  0
   -4.8850   22.7560  -31.8570 C   0  0  0  0  0  0  0  0  0  0  0  0
   -3.6620   22.7620  -31.1850 C   0  0  0  0  0  0  0  0  0  0  0  0
   -3.4820   23.5710  -30.0660 C   0  0  0  0  0  0  0  0  0  0  0  0
   -4.5250   24.3800  -29.6120 C   0  0  0  0  0  0  0  0  0  0  0  0
   -5.7680   24.3840  -30.2710 C   0  0  0  0  0  0  0  0  0  0  0  0
   -6.8580   25.2900  -29.7590 C   0  0  0  0  0  0  0  0  0  0  0  0
   -8.7050   19.5940  -31.9070 N   0  0  0  0  0  0  0  0  0  0  0  0
   -8.3660   18.3630  -32.3620 C   0  0  0  0  0  0  0  0  0  0  0  0
   -7.1030   18.1390  -32.9180 C   0  0  0  0  0  0  0  0  0  0  0  0
   -6.7210   16.5090  -33.4630 Cl  0  0  0  0  0  0  0  0  0  0  0  0
   -1.9180   21.2360  -33.4660 C   0  0  0  0  0  0  0  0  0  0  0  0
   -0.6880   21.5150  -34.0670 C   0  0  0  0  0  0  0  0  0  0  0  0
    1.5245   22.8775  -34.8004 H   0  0  0  0  0  0  0  0  0  0  0  0
    2.3921   22.4248  -36.3067 H   0  0  0  0  0  0  0  0  0  0  0  0
    0.6006   22.5550  -36.3067 H   0  0  0  0  0  0  0  0  0  0  0  0
    1.4954   20.1758  -36.2350 H   0  0  0  0  0  0  0  0  0  0  0  0
    2.1604   20.5582  -34.6003 H   0  0  0  0  0  0  0  0  0  0  0  0
    0.0775   18.3889  -35.2235 H   0  0  0  0  0  0  0  0  0  0  0  0
   -2.1235   17.8950  -34.1651 H   0  0  0  0  0  0  0  0  0  0  0  0
   -3.8000   19.8190  -31.8380 H   0  0  0  0  0  0  0  0  0  0  0  0
   -7.0750   23.2242  -33.2074 H   0  0  0  0  0  0  0  0  0  0  0  0
   -7.7775   24.4481  -32.0818 H   0  0  0  0  0  0  0  0  0  0  0  0
   -5.0185   22.1122  -32.7389 H   0  0  0  0  0  0  0  0  0  0  0  0
   -2.8379   22.1259  -31.5402 H   0  0  0  0  0  0  0  0  0  0  0  0
   -2.5164   23.5725  -29.5390 H   0  0  0  0  0  0  0  0  0  0  0  0
   -4.3736   25.0205  -28.7306 H   0  0  0  0  0  0  0  0  0  0  0  0
   -6.8522   25.2852  -28.6590 H   0  0  0  0  0  0  0  0  0  0  0  0
   -6.6846   26.3138  -30.1221 H   0  0  0  0  0  0  0  0  0  0  0  0
   -7.8328   24.9324  -30.1221 H   0  0  0  0  0  0  0  0  0  0  0  0
   -9.0882   17.5362  -32.2934 H   0  0  0  0  0  0  0  0  0  0  0  0
   -2.4854   22.0448  -32.9823 H   0  0  0  0  0  0  0  0  0  0  0  0
   -0.2827   22.5371  -34.0352 H   0  0  0  0  0  0  0  0  0  0  0  0
  1  2  1  0
  2  3  1  0
  3  4  2  0
  4  5  1  0
  5  6  2  0
  6  7  1  0
  7  8  1  0
  8  9  2  0
  8 10  1  0
 10 11  2  0
 11 12  1  0
 12 13  1  0
 13 14  2  0
 13 15  2  0
 13 16  1  0
 16 17  1  0
 17 18  2  0
 18 19  1  0
 19 20  2  0
 20 21  1  0
 21 22  2  0
 22 23  1  0
 12 24  2  0
 24 25  1  0
 25 26  2  0
 26 27  1  0
  6 28  1  0
 28 29  2  0
 29  3  1  0
 26 10  1  0
 22 17  1  0
  1 30  1  0
  1 31  1  0
  1 32  1  0
  2 33  1  0
  2 34  1  0
  4 35  1  0
  5 36  1  0
  7 37  1  0
 16 38  1  0
 16 39  1  0
 18 40  1  0
 19 41  1  0
 20 42  1  0
 21 43  1  0
 23 44  1  0
 23 45  1  0
 23 46  1  0
 25 47  1  0
 28 48  1  0
 29 49  1  0
M  END
>  <UniqueID>  (19) 
18

>  <SMILES>  (19) 
CCc1ccc(NC(=O)c2nc(S(=O)(=O)Cc3ccccc3C)ncc2Cl)cc1

>  <Energy>  (19) 
52.00084471281277

>  <Genealogy>  (19) 
CCc1ccc(NC(=O)c2nc(S(=O)(=O)Cc3ccccc3C)ncc2Cl)cc1 (3D coordinates assigned)
CCc1ccc(NC(=O)c2nc(S(=O)(=O)Cc3ccccc3C)ncc2Cl)cc1 (optimized conformer: 52.00084471281277 kcal/mol)

>  <smiles>  (19) 
CCc1ccc(NC(=O)c2nc(S(=O)(=O)Cc3ccccc3C)ncc2Cl)cc1

>  <score_type>  (19) 
oracle

>  <origin>  (19) 
adgpu

>  <m_score__min__energy>  (19) 
-9.6400000000000006

>  <m_primary>  (19) 
energy

$$$$
19:0
     RDKit          3D

 39 41  0  0  0  0  0  0  0  0999 V2000
   -5.8990   15.0590  -34.2210 C   0  0  0  0  0  0  0  0  0  0  0  0
   -6.0890   16.4890  -33.7970 C   0  0  0  0  0  0  0  0  0  0  0  0
   -7.2320   16.8560  -33.0680 C   0  0  0  0  0  0  0  0  0  0  0  0
   -7.4190   18.1800  -32.6650 C   0  0  0  0  0  0  0  0  0  0  0  0
   -6.4770   19.1640  -32.9920 C   0  0  0  0  0  0  0  0  0  0  0  0
   -6.6830   20.5170  -32.5480 N   0  0  0  0  0  0  0  0  0  0  0  0
   -5.6700   21.5360  -32.5950 C   0  0  0  0  0  0  0  0  0  0  0  0
   -4.7010   21.4160  -33.3950 O   0  0  0  0  0  0  0  0  0  0  0  0
   -5.7710   22.7490  -31.7480 C   0  0  0  0  0  0  0  0  0  0  0  0
   -7.0210   23.2250  -31.3130 C   0  0  0  0  0  0  0  0  0  0  0  0
   -7.1030   24.3710  -30.5180 C   0  0  0  0  0  0  0  0  0  0  0  0
   -5.9430   25.0460  -30.1350 C   0  0  0  0  0  0  0  0  0  0  0  0
   -4.6870   24.5690  -30.5270 C   0  0  0  0  0  0  0  0  0  0  0  0
   -3.5160   25.2940  -30.1310 N   0  0  0  0  0  0  0  0  0  0  0  0
   -2.4450   24.7930  -29.3200 C   0  0  0  0  0  0  0  0  0  0  0  0
   -1.5330   25.5840  -28.9620 O   0  0  0  0  0  0  0  0  0  0  0  0
   -2.4230   23.3990  -28.8400 C   0  0  0  0  0  0  0  0  0  0  0  0
   -3.3160   22.8380  -27.9480 C   0  0  0  0  0  0  0  0  0  0  0  0
   -2.9200   21.5260  -27.8000 C   0  0  0  0  0  0  0  0  0  0  0  0
   -1.8160   21.3650  -28.6130 C   0  0  0  0  0  0  0  0  0  0  0  0
   -1.5470   22.4970  -29.2210 O   0  0  0  0  0  0  0  0  0  0  0  0
   -4.6060   23.4350  -31.3540 C   0  0  0  0  0  0  0  0  0  0  0  0
   -5.3210   18.7960  -33.7020 C   0  0  0  0  0  0  0  0  0  0  0  0
   -5.1270   17.4700  -34.1080 C   0  0  0  0  0  0  0  0  0  0  0  0
   -3.6590   17.0670  -34.9940 Cl  0  0  0  0  0  0  0  0  0  0  0  0
   -5.8141   14.4204  -33.3294 H   0  0  0  0  0  0  0  0  0  0  0  0
   -6.7622   14.7369  -34.8219 H   0  0  0  0  0  0  0  0  0  0  0  0
   -4.9816   14.9735  -34.8219 H   0  0  0  0  0  0  0  0  0  0  0  0
   -7.9848   16.0956  -32.8128 H   0  0  0  0  0  0  0  0  0  0  0  0
   -8.3136   18.4525  -32.0859 H   0  0  0  0  0  0  0  0  0  0  0  0
   -7.6540   20.8010  -32.2840 H   0  0  0  0  0  0  0  0  0  0  0  0
   -7.9393   22.6919  -31.6004 H   0  0  0  0  0  0  0  0  0  0  0  0
   -8.0858   24.7428  -30.1926 H   0  0  0  0  0  0  0  0  0  0  0  0
   -6.0162   25.9567  -29.5225 H   0  0  0  0  0  0  0  0  0  0  0  0
   -4.1662   23.3348  -27.4578 H   0  0  0  0  0  0  0  0  0  0  0  0
   -3.3889   20.7617  -27.1628 H   0  0  0  0  0  0  0  0  0  0  0  0
   -1.2482   20.4306  -28.7331 H   0  0  0  0  0  0  0  0  0  0  0  0
   -3.6229   23.0801  -31.6967 H   0  0  0  0  0  0  0  0  0  0  0  0
   -4.5624   19.5560  -33.9407 H   0  0  0  0  0  0  0  0  0  0  0  0
  1  2  1  0
  2  3  2  0
  3  4  1  0
  4  5  2  0
  5  6  1  0
  6  7  1  0
  7  8  2  0
  7  9  1  0
  9 10  2  0
 10 11  1  0
 11 12  2  0
 12 13  1  0
 13 14  1  0
 14 15  1  0
 15 16  2  0
 15 17  1  0
 17 18  2  0
 18 19  1  0
 19 20  2  0
 20 21  1  0
 13 22  2  0
  5 23  1  0
 23 24  2  0
 24 25  1  0
 24  2  1  0
 22  9  1  0
 21 17  1  0
  1 26  1  0
  1 27  1  0
  1 28  1  0
  3 29  1  0
  4 30  1  0
  6 31  1  0
 10 32  1  0
 11 33  1  0
 12 34  1  0
 18 35  1  0
 19 36  1  0
 20 37  1  0
 22 38  1  0
 23 39  1  0
M  CHG  1  14  -1
M  END
>  <UniqueID>  (20) 
19

>  <SMILES>  (20) 
Cc1ccc(NC(=O)c2cccc([N-]C(=O)c3ccco3)c2)cc1Cl

>  <Energy>  (20) 
77.41804551720334

>  <Genealogy>  (20) 
Cc1ccc(NC(=O)c2cccc([N-]C(=O)c3ccco3)c2)cc1Cl (protonated)
Cc1ccc(NC(=O)c2cccc([N-]C(=O)c3ccco3)c2)cc1Cl (3D coordinates assigned)
Cc1ccc(NC(=O)c2cccc([N-]C(=O)c3ccco3)c2)cc1Cl (optimized conformer: 77.41804551720334 kcal/mol)

>  <smiles>  (20) 
Cc1ccc(NC(=O)c2cccc(NC(=O)c3ccco3)c2)cc1Cl

>  <score_type>  (20) 
oracle

>  <origin>  (20) 
adgpu

>  <m_score__min__energy>  (20) 
-10.050000000000001

>  <m_primary>  (20) 
energy

$$$$
20:0
     RDKit          3D

 58 61  0  0  0  0  0  0  0  0999 V2000
    1.9023   19.2898  -32.7210 H   0  0  0  0  0  0  0  0  0  0  0  0
    1.3470   20.0150  -33.3340 C   0  0  0  0  0  0  0  0  0  0  0  0
   -0.0430   20.0990  -33.2250 C   0  0  0  0  0  0  0  0  0  0  0  0
   -0.5815   19.4245  -32.5431 H   0  0  0  0  0  0  0  0  0  0  0  0
   -0.7560   21.0440  -33.9850 C   0  0  0  0  0  0  0  0  0  0  0  0
   -2.1880   21.1500  -33.9180 N   0  0  0  0  0  0  0  0  0  0  0  0
   -2.9170   21.2450  -32.8420 C   0  0  0  0  0  0  0  0  0  0  0  0
   -2.3460   21.3510  -31.6140 N   0  0  0  0  0  0  0  0  0  0  0  0
   -3.1170   21.4830  -30.5050 C   0  0  0  0  0  0  0  0  0  0  0  0
   -2.4830   21.5560  -29.1570 C   0  0  0  0  0  0  0  0  0  0  0  0
   -3.2583   21.4667  -28.3818 H   0  0  0  0  0  0  0  0  0  0  0  0
   -1.7588   20.7353  -29.0475 H   0  0  0  0  0  0  0  0  0  0  0  0
   -1.9643   22.5198  -29.0475 H   0  0  0  0  0  0  0  0  0  0  0  0
   -4.4670   21.4860  -30.6220 N   0  0  0  0  0  0  0  0  0  0  0  0
   -5.0520   21.3890  -31.8420 C   0  0  0  0  0  0  0  0  0  0  0  0
   -6.5260   21.3920  -31.9510 C   0  0  0  0  0  0  0  0  0  0  0  0
   -7.3260   20.4260  -32.5510 C   0  0  0  0  0  0  0  0  0  0  0  0
   -6.9150   19.1060  -33.0780 C   0  0  0  0  0  0  0  0  0  0  0  0
   -7.3380   17.9120  -32.4650 C   0  0  0  0  0  0  0  0  0  0  0  0
   -7.9811   17.9531  -31.5735 H   0  0  0  0  0  0  0  0  0  0  0  0
   -6.9460   16.6750  -32.9820 C   0  0  0  0  0  0  0  0  0  0  0  0
   -7.2705   15.7464  -32.4896 H   0  0  0  0  0  0  0  0  0  0  0  0
   -6.1420   16.6150  -34.1240 C   0  0  0  0  0  0  0  0  0  0  0  0
   -5.7620   15.4140  -34.6240 F   0  0  0  0  0  0  0  0  0  0  0  0
   -5.7350   17.7950  -34.7530 C   0  0  0  0  0  0  0  0  0  0  0  0
   -5.1072   17.7483  -35.6550 H   0  0  0  0  0  0  0  0  0  0  0  0
   -6.1250   19.0350  -34.2370 C   0  0  0  0  0  0  0  0  0  0  0  0
   -5.8110   19.9604  -34.7420 H   0  0  0  0  0  0  0  0  0  0  0  0
   -8.6090   20.8450  -32.5510 N   0  0  0  0  0  0  0  0  0  0  0  0
   -8.5730   22.0490  -31.9470 C   0  0  0  0  0  0  0  0  0  0  0  0
   -9.4638   22.6720  -31.7785 H   0  0  0  0  0  0  0  0  0  0  0  0
   -7.3290   22.4090  -31.5710 N   0  0  0  0  0  0  0  0  0  0  0  0
   -6.9670   23.6650  -30.9110 C   0  0  0  0  0  0  0  0  0  0  0  0
   -7.8367   24.3384  -30.9170 H   0  0  0  0  0  0  0  0  0  0  0  0
   -6.6594   23.4429  -29.8785 H   0  0  0  0  0  0  0  0  0  0  0  0
   -5.7980   24.3480  -31.6340 C   0  0  0  0  0  0  0  0  0  0  0  0
   -5.0969   23.5783  -31.9890 H   0  0  0  0  0  0  0  0  0  0  0  0
   -6.2009   24.9254  -32.4792 H   0  0  0  0  0  0  0  0  0  0  0  0
   -5.0800   25.2760  -30.7330 N   0  0  0  0  0  0  0  0  0  0  0  0
   -5.9900   25.7880  -29.6960 C   0  0  0  0  0  0  0  0  0  0  0  0
   -5.5798   25.5572  -28.7018 H   0  0  0  0  0  0  0  0  0  0  0  0
   -6.0948   26.8775  -29.8055 H   0  0  0  0  0  0  0  0  0  0  0  0
   -6.9756   25.3120  -29.8055 H   0  0  0  0  0  0  0  0  0  0  0  0
   -3.9310   24.6120  -30.0920 C   0  0  0  0  0  0  0  0  0  0  0  0
   -4.0357   24.6725  -28.9987 H   0  0  0  0  0  0  0  0  0  0  0  0
   -3.8992   23.5563  -30.3994 H   0  0  0  0  0  0  0  0  0  0  0  0
   -3.0005   25.1116  -30.3994 H   0  0  0  0  0  0  0  0  0  0  0  0
   -4.2730   21.2840  -32.9550 N   0  0  0  0  0  0  0  0  0  0  0  0
   -4.7130   21.2380  -33.9020 H   0  0  0  0  0  0  0  0  0  0  0  0
   -0.0640   21.8550  -34.8950 C   0  0  0  0  0  0  0  0  0  0  0  0
   -0.6198   22.5767  -35.5116 H   0  0  0  0  0  0  0  0  0  0  0  0
    1.3320   21.7570  -35.0290 C   0  0  0  0  0  0  0  0  0  0  0  0
    2.0740   22.6810  -35.9620 C   0  0  0  0  0  0  0  0  0  0  0  0
    1.1880   23.4720  -36.6750 F   0  0  0  0  0  0  0  0  0  0  0  0
    2.9210   23.5140  -35.2520 F   0  0  0  0  0  0  0  0  0  0  0  0
    2.8200   21.9290  -36.8500 F   0  0  0  0  0  0  0  0  0  0  0  0
    2.0340   20.8490  -34.2190 C   0  0  0  0  0  0  0  0  0  0  0  0
    3.1308   20.7945  -34.2821 H   0  0  0  0  0  0  0  0  0  0  0  0
  1  2  1  0
  2  3  2  0
  3  4  1  0
  3  5  1  0
  5  6  1  0
  6  7  2  0
  7  8  1  0
  8  9  2  0
  9 10  1  0
 10 11  1  0
 10 12  1  0
 10 13  1  0
  9 14  1  0
 14 15  2  0
 15 16  1  0
 16 17  2  0
 17 18  1  0
 18 19  2  0
 19 20  1  0
 19 21  1  0
 21 22  1  0
 21 23  2  0
 23 24  1  0
 23 25  1  0
 25 26  1  0
 25 27  2  0
 27 28  1  0
 17 29  1  0
 29 30  2  0
 30 31  1  0
 30 32  1  0
 32 33  1  0
 33 34  1  0
 33 35  1  0
 33 36  1  0
 36 37  1  0
 36 38  1  0
 36 39  1  0
 39 40  1  0
 40 41  1  0
 40 42  1  0
 40 43  1  0
 39 44  1  0
 44 45  1  0
 44 46  1  0
 44 47  1  0
 15 48  1  0
 48 49  1  0
  5 50  2  0
 50 51  1  0
 50 52  1  0
 52 53  1  0
 53 54  1  0
 53 55  1  0
 53 56  1  0
 52 57  2  0
 57 58  1  0
 57  2  1  0
 48  7  1  0
 32 16  1  0
 27 18  1  0
M  END
>  <UniqueID>  (21) 
20

>  <SMILES>  (21) 
Cc1nc(-c2c(-c3ccc(F)cc3)ncn2CCN(C)C)[nH]/c(=N/c2cccc(C(F)(F)F)c2)n1

>  <Energy>  (21) 
102.49353450963825

>  <Genealogy>  (21) 
Cc1nc(-c2c(-c3ccc(F)cc3)ncn2CCN(C)C)[nH]/c(=N/c2cccc(C(F)(F)F)c2)n1 (cis-trans isomerization)
Cc1nc(-c2c(-c3ccc(F)cc3)ncn2CCN(C)C)[nH]/c(=N/c2cccc(C(F)(F)F)c2)n1 (3D coordinates assigned)
Cc1nc(-c2c(-c3ccc(F)cc3)ncn2CCN(C)C)[nH]/c(=N/c2cccc(C(F)(F)F)c2)n1 (optimized conformer: 102.49353450963825 kcal/mol)

>  <smiles>  (21) 
Cc1nc(-c2c(-c3ccc(F)cc3)ncn2CCN(C)C)[nH]c(=Nc2cccc(C(F)(F)F)c2)n1

>  <score_type>  (21) 
oracle

>  <origin>  (21) 
adgpu

>  <m_score__min__energy>  (21) 
-9.1500000000000004

>  <m_primary>  (21) 
energy

$$$$
21:0
     RDKit          3D

 19 20  0  0  0  0  0  0  0  0999 V2000
   -7.8660   18.5540  -32.5580 C   0  0  0  0  0  0  0  0  0  0  0  0
   -7.3700   19.7410  -33.1670 O   0  0  0  0  0  0  0  0  0  0  0  0
   -7.1680   20.9530  -32.4910 C   0  0  0  0  0  0  0  0  0  0  0  0
   -8.2350   21.6730  -31.8880 C   0  0  0  0  0  0  0  0  0  0  0  0
   -7.9930   22.8840  -31.2190 C   0  0  0  0  0  0  0  0  0  0  0  0
   -6.6850   23.3530  -31.1650 C   0  0  0  0  0  0  0  0  0  0  0  0
   -5.6370   22.6640  -31.7460 C   0  0  0  0  0  0  0  0  0  0  0  0
   -5.8560   21.4610  -32.4140 C   0  0  0  0  0  0  0  0  0  0  0  0
   -4.3740   23.3140  -31.5780 N   0  0  0  0  0  0  0  0  0  0  0  0
   -4.7070   24.4880  -30.8340 C   0  0  0  0  0  0  0  0  0  0  0  0
   -3.8620   25.3470  -30.4720 O   0  0  0  0  0  0  0  0  0  0  0  0
   -6.1340   24.5460  -30.5590 C   0  0  0  0  0  0  0  0  0  0  0  0
   -6.7550   25.4410  -29.9280 O   0  0  0  0  0  0  0  0  0  0  0  0
   -7.8227   18.6577  -31.4637 H   0  0  0  0  0  0  0  0  0  0  0  0
   -8.9080   18.3898  -32.8698 H   0  0  0  0  0  0  0  0  0  0  0  0
   -7.2506   17.6972  -32.8698 H   0  0  0  0  0  0  0  0  0  0  0  0
   -9.2600   21.2780  -31.9459 H   0  0  0  0  0  0  0  0  0  0  0  0
   -8.8149   23.4456  -30.7510 H   0  0  0  0  0  0  0  0  0  0  0  0
   -5.0181   20.9166  -32.8739 H   0  0  0  0  0  0  0  0  0  0  0  0
  1  2  1  0
  2  3  1  0
  3  4  2  0
  4  5  1  0
  5  6  2  0
  6  7  1  0
  7  8  2  0
  7  9  1  0
  9 10  1  0
 10 11  2  0
 10 12  1  0
 12 13  2  0
  8  3  1  0
 12  6  1  0
  1 14  1  0
  1 15  1  0
  1 16  1  0
  4 17  1  0
  5 18  1  0
  8 19  1  0
M  CHG  1   9  -1
M  END
>  <UniqueID>  (22) 
21

>  <SMILES>  (22) 
COc1ccc2c(c1)[N-]C(=O)C2=O

>  <Energy>  (22) 
49.38437093672242

>  <Genealogy>  (22) 
COc1ccc2c(c1)[N-]C(=O)C2=O (protonated)
COc1ccc2c(c1)[N-]C(=O)C2=O (3D coordinates assigned)
COc1ccc2c(c1)[N-]C(=O)C2=O (nonaromatic ring conformer: 49.38437093672242 kcal/mol)

>  <smiles>  (22) 
COc1ccc2c(c1)NC(=O)C2=O

>  <score_type>  (22) 
oracle

>  <origin>  (22) 
adgpu

>  <m_score__min__energy>  (22) 
-6.6600000000000001

>  <m_primary>  (22) 
energy

$$$$
22:0
     RDKit          3D

 70 73  0  0  0  0  0  0  0  0999 V2000
   -8.4930   22.1730  -31.6550 C   0  0  0  0  0  0  0  0  0  0  0  0
   -7.5090   23.3300  -31.4980 C   0  0  0  0  0  0  0  0  0  0  0  0
   -6.7630   23.2700  -30.1600 C   0  0  0  0  0  0  0  0  0  0  0  0
   -5.9300   24.4670  -29.9640 N   0  0  0  0  0  0  0  0  0  0  0  0
   -6.5090   25.6730  -29.3600 C   0  0  0  0  0  0  0  0  0  0  0  0
   -4.5140   24.4110  -30.2390 C   0  0  0  0  0  0  0  0  0  0  0  0
   -3.9450   25.3860  -30.8030 O   0  0  0  0  0  0  0  0  0  0  0  0
   -3.7000   23.2350  -29.8580 C   0  0  0  0  0  0  0  0  0  0  0  0
   -3.0150   23.2560  -28.6350 C   0  0  0  0  0  0  0  0  0  0  0  0
   -2.2340   22.1660  -28.2210 C   0  0  0  0  0  0  0  0  0  0  0  0
   -1.5560   22.2350  -26.8770 C   0  0  0  0  0  0  0  0  0  0  0  0
   -2.0900   21.0520  -29.0800 C   0  0  0  0  0  0  0  0  0  0  0  0
   -1.2920   19.8600  -28.6980 C   0  0  0  0  0  0  0  0  0  0  0  0
   -1.6370   19.1380  -27.5450 C   0  0  0  0  0  0  0  0  0  0  0  0
   -0.8710   18.0950  -27.1300 N   0  0  0  0  0  0  0  0  0  0  0  0
    0.2510   17.7240  -27.7980 C   0  0  0  0  0  0  0  0  0  0  0  0
    0.6450   18.4150  -28.9430 C   0  0  0  0  0  0  0  0  0  0  0  0
   -0.1300   19.4790  -29.4130 C   0  0  0  0  0  0  0  0  0  0  0  0
    0.3020   20.1540  -30.5670 O   0  0  0  0  0  0  0  0  0  0  0  0
   -0.3570   20.1170  -31.8030 C   0  0  0  0  0  0  0  0  0  0  0  0
   -0.3190   21.2040  -32.6890 C   0  0  0  0  0  0  0  0  0  0  0  0
   -0.9540   21.1200  -33.9280 C   0  0  0  0  0  0  0  0  0  0  0  0
   -1.6400   19.9590  -34.2890 C   0  0  0  0  0  0  0  0  0  0  0  0
   -1.7070   18.8660  -33.4040 C   0  0  0  0  0  0  0  0  0  0  0  0
   -2.4220   17.6270  -33.7890 C   0  0  0  0  0  0  0  0  0  0  0  0
   -2.1290   17.0410  -34.8670 O   0  0  0  0  0  0  0  0  0  0  0  0
   -3.4850   17.1290  -32.9660 N   0  0  0  0  0  0  0  0  0  0  0  0
   -4.8020   17.6890  -32.8310 C   0  0  0  0  0  0  0  0  0  0  0  0
   -4.9900   19.0080  -32.3730 C   0  0  0  0  0  0  0  0  0  0  0  0
   -6.2760   19.5400  -32.2610 C   0  0  0  0  0  0  0  0  0  0  0  0
   -7.3860   18.7700  -32.6110 C   0  0  0  0  0  0  0  0  0  0  0  0
   -7.2120   17.4690  -33.0880 C   0  0  0  0  0  0  0  0  0  0  0  0
   -5.9230   16.9260  -33.2220 C   0  0  0  0  0  0  0  0  0  0  0  0
   -5.7590   15.5110  -33.7040 C   0  0  0  0  0  0  0  0  0  0  0  0
   -1.0720   18.9650  -32.1530 C   0  0  0  0  0  0  0  0  0  0  0  0
   -2.7520   21.0470  -30.3190 C   0  0  0  0  0  0  0  0  0  0  0  0
   -3.5760   22.1130  -30.7060 C   0  0  0  0  0  0  0  0  0  0  0  0
   -4.3070   22.0370  -32.0210 C   0  0  0  0  0  0  0  0  0  0  0  0
   -8.7984   21.8139  -30.6611 H   0  0  0  0  0  0  0  0  0  0  0  0
   -9.3789   22.5177  -32.2085 H   0  0  0  0  0  0  0  0  0  0  0  0
   -8.0106   21.3539  -32.2085 H   0  0  0  0  0  0  0  0  0  0  0  0
   -6.7752   23.2860  -32.3163 H   0  0  0  0  0  0  0  0  0  0  0  0
   -8.0806   24.2694  -31.5272 H   0  0  0  0  0  0  0  0  0  0  0  0
   -7.4961   23.2047  -29.3425 H   0  0  0  0  0  0  0  0  0  0  0  0
   -6.1087   22.3858  -30.1640 H   0  0  0  0  0  0  0  0  0  0  0  0
   -6.4689   25.5895  -28.2639 H   0  0  0  0  0  0  0  0  0  0  0  0
   -5.9363   26.5553  -29.6817 H   0  0  0  0  0  0  0  0  0  0  0  0
   -7.5557   25.7779  -29.6817 H   0  0  0  0  0  0  0  0  0  0  0  0
   -3.0910   24.1426  -27.9884 H   0  0  0  0  0  0  0  0  0  0  0  0
   -2.3112   22.1581  -26.0810 H   0  0  0  0  0  0  0  0  0  0  0  0
   -0.8400   21.4051  -26.7845 H   0  0  0  0  0  0  0  0  0  0  0  0
   -1.0219   23.1921  -26.7845 H   0  0  0  0  0  0  0  0  0  0  0  0
   -2.5339   19.4184  -26.9731 H   0  0  0  0  0  0  0  0  0  0  0  0
    0.8507   16.8763  -27.4351 H   0  0  0  0  0  0  0  0  0  0  0  0
    1.5628   18.1238  -29.4748 H   0  0  0  0  0  0  0  0  0  0  0  0
    0.2127   22.1245  -32.4060 H   0  0  0  0  0  0  0  0  0  0  0  0
   -0.9141   21.9716  -34.6231 H   0  0  0  0  0  0  0  0  0  0  0  0
   -2.1314   19.8977  -35.2712 H   0  0  0  0  0  0  0  0  0  0  0  0
   -4.1186   19.6222  -32.1021 H   0  0  0  0  0  0  0  0  0  0  0  0
   -6.4146   20.5684  -31.8961 H   0  0  0  0  0  0  0  0  0  0  0  0
   -8.3986   19.1880  -32.5111 H   0  0  0  0  0  0  0  0  0  0  0  0
   -8.0901   16.8652  -33.3607 H   0  0  0  0  0  0  0  0  0  0  0  0
   -5.6807   14.8358  -32.8391 H   0  0  0  0  0  0  0  0  0  0  0  0
   -6.6303   15.2277  -34.3127 H   0  0  0  0  0  0  0  0  0  0  0  0
   -4.8460   15.4345  -34.3127 H   0  0  0  0  0  0  0  0  0  0  0  0
   -1.1377   18.1284  -31.4418 H   0  0  0  0  0  0  0  0  0  0  0  0
   -2.6214   20.1912  -30.9977 H   0  0  0  0  0  0  0  0  0  0  0  0
   -5.3854   21.9249  -31.8351 H   0  0  0  0  0  0  0  0  0  0  0  0
   -4.1276   22.9586  -32.5941 H   0  0  0  0  0  0  0  0  0  0  0  0
   -3.9418   21.1720  -32.5941 H   0  0  0  0  0  0  0  0  0  0  0  0
  1  2  1  0
  2  3  1  0
  3  4  1  0
  4  5  1  0
  4  6  1  0
  6  7  2  0
  6  8  1  0
  8  9  2  0
  9 10  1  0
 10 11  1  0
 10 12  2  0
 12 13  1  0
 13 14  2  0
 14 15  1  0
 15 16  2  0
 16 17  1  0
 17 18  2  0
 18 19  1  0
 19 20  1  0
 20 21  2  0
 21 22  1  0
 22 23  2  0
 23 24  1  0
 24 25  1  0
 25 26  2  0
 25 27  1  0
 27 28  1  0
 28 29  2  0
 29 30  1  0
 30 31  2  0
 31 32  1  0
 32 33  2  0
 33 34  1  0
 24 35  2  0
 12 36  1  0
 36 37  2  0
 37 38  1  0
 37  8  1  0
 18 13  1  0
 35 20  1  0
 33 28  1  0
  1 39  1  0
  1 40  1  0
  1 41  1  0
  2 42  1  0
  2 43  1  0
  3 44  1  0
  3 45  1  0
  5 46  1  0
  5 47  1  0
  5 48  1  0
  9 49  1  0
 11 50  1  0
 11 51  1  0
 11 52  1  0
 14 53  1  0
 16 54  1  0
 17 55  1  0
 21 56  1  0
 22 57  1  0
 23 58  1  0
 29 59  1  0
 30 60  1  0
 31 61  1  0
 32 62  1  0
 34 63  1  0
 34 64  1  0
 34 65  1  0
 35 66  1  0
 36 67  1  0
 38 68  1  0
 38 69  1  0
 38 70  1  0
M  CHG  1  27  -1
M  END
>  <UniqueID>  (23) 
22

>  <SMILES>  (23) 
CCCN(C)C(=O)c1cc(C)c(-c2cnccc2Oc2cccc(C(=O)[N-]c3ccccc3C)c2)cc1C

>  <Energy>  (23) 
87.46806022784911

>  <Genealogy>  (23) 
CCCN(C)C(=O)c1cc(C)c(-c2cnccc2Oc2cccc(C(=O)[N-]c3ccccc3C)c2)cc1C (protonated)
CCCN(C)C(=O)c1cc(C)c(-c2cnccc2Oc2cccc(C(=O)[N-]c3ccccc3C)c2)cc1C (3D coordinates assigned)
CCCN(C)C(=O)c1cc(C)c(-c2cnccc2Oc2cccc(C(=O)[N-]c3ccccc3C)c2)cc1C (optimized conformer: 87.46806022784911 kcal/mol)

>  <smiles>  (23) 
CCCN(C)C(=O)c1cc(C)c(-c2cnccc2Oc2cccc(C(=O)Nc3ccccc3C)c2)cc1C

>  <score_type>  (23) 
oracle

>  <origin>  (23) 
adgpu

>  <m_score__min__energy>  (23) 
-11.92

>  <m_primary>  (23) 
energy

$$$$
23:0
     RDKit          3D

 41 43  0  0  0  0  0  0  0  0999 V2000
   -4.4160   19.0870  -32.7290 O   0  0  0  0  0  0  0  0  0  0  0  0
   -3.8500   20.1880  -32.9570 C   0  0  0  0  0  0  0  0  0  0  0  0
   -4.6660   21.3370  -33.2210 N   0  0  0  0  0  0  0  0  0  0  0  0
   -5.7870   21.7870  -32.4450 C   0  0  0  0  0  0  0  0  0  0  0  0
   -7.0180   21.1060  -32.4940 C   0  0  0  0  0  0  0  0  0  0  0  0
   -8.0860   21.5150  -31.6940 C   0  0  0  0  0  0  0  0  0  0  0  0
   -7.9410   22.6090  -30.8400 C   0  0  0  0  0  0  0  0  0  0  0  0
   -6.7350   23.3120  -30.8040 C   0  0  0  0  0  0  0  0  0  0  0  0
   -5.6660   22.9330  -31.6250 C   0  0  0  0  0  0  0  0  0  0  0  0
   -4.4520   23.6980  -31.5570 N   0  0  0  0  0  0  0  0  0  0  0  0
   -4.0070   24.4830  -30.4410 C   0  0  0  0  0  0  0  0  0  0  0  0
   -4.2210   25.7250  -30.4560 O   0  0  0  0  0  0  0  0  0  0  0  0
   -3.2600   23.8850  -29.3080 C   0  0  0  0  0  0  0  0  0  0  0  0
   -3.7080   22.6860  -28.7220 C   0  0  0  0  0  0  0  0  0  0  0  0
   -3.0150   22.1190  -27.6500 C   0  0  0  0  0  0  0  0  0  0  0  0
   -1.8640   22.7340  -27.1560 C   0  0  0  0  0  0  0  0  0  0  0  0
   -1.4020   23.9180  -27.7350 C   0  0  0  0  0  0  0  0  0  0  0  0
   -2.0910   24.4950  -28.8060 C   0  0  0  0  0  0  0  0  0  0  0  0
   -1.6190   25.6850  -29.3520 O   0  0  0  0  0  0  0  0  0  0  0  0
   -2.3690   20.2490  -33.0030 C   0  0  0  0  0  0  0  0  0  0  0  0
   -1.5970   19.6650  -31.9890 C   0  0  0  0  0  0  0  0  0  0  0  0
   -0.2050   19.7290  -32.0380 C   0  0  0  0  0  0  0  0  0  0  0  0
    0.4430   20.3830  -33.0940 C   0  0  0  0  0  0  0  0  0  0  0  0
    1.8370   20.4350  -33.1110 O   0  0  0  0  0  0  0  0  0  0  0  0
   -0.3170   20.9900  -34.1210 C   0  0  0  0  0  0  0  0  0  0  0  0
    0.3170   21.6730  -35.2230 N   0  0  0  0  0  0  0  0  0  0  0  0
   -0.0740   21.4810  -36.3950 O   0  0  0  0  0  0  0  0  0  0  0  0
    1.3710   22.5330  -35.0210 O   0  0  0  0  0  0  0  0  0  0  0  0
   -1.7230   20.9180  -34.0550 C   0  0  0  0  0  0  0  0  0  0  0  0
   -7.1391   20.2450  -33.1679 H   0  0  0  0  0  0  0  0  0  0  0  0
   -9.0430   20.9744  -31.7367 H   0  0  0  0  0  0  0  0  0  0  0  0
   -8.7769   22.9177  -30.1950 H   0  0  0  0  0  0  0  0  0  0  0  0
   -6.6239   24.1704  -30.1252 H   0  0  0  0  0  0  0  0  0  0  0  0
   -4.6105   22.1920  -29.1112 H   0  0  0  0  0  0  0  0  0  0  0  0
   -3.3773   21.1857  -27.1942 H   0  0  0  0  0  0  0  0  0  0  0  0
   -1.3207   22.2864  -26.3108 H   0  0  0  0  0  0  0  0  0  0  0  0
   -0.4920   24.3987  -27.3467 H   0  0  0  0  0  0  0  0  0  0  0  0
   -2.0920   19.1536  -31.1503 H   0  0  0  0  0  0  0  0  0  0  0  0
    0.3902   19.2615  -31.2398 H   0  0  0  0  0  0  0  0  0  0  0  0
    2.3390   21.0570  -33.7330 H   0  0  0  0  0  0  0  0  0  0  0  0
   -2.3255   21.3947  -34.8422 H   0  0  0  0  0  0  0  0  0  0  0  0
  1  2  2  0
  2  3  1  0
  3  4  1  0
  4  5  2  0
  5  6  1  0
  6  7  2  0
  7  8  1  0
  8  9  2  0
  9 10  1  0
 10 11  1  0
 11 12  2  0
 11 13  1  0
 13 14  2  0
 14 15  1  0
 15 16  2  0
 16 17  1  0
 17 18  2  0
 18 19  1  0
  2 20  1  0
 20 21  2  0
 21 22  1  0
 22 23  2  0
 23 24  1  0
 23 25  1  0
 25 26  1  0
 26 27  2  0
 26 28  1  0
 25 29  2  0
  9  4  1  0
 18 13  1  0
 29 20  1  0
  5 30  1  0
  6 31  1  0
  7 32  1  0
  8 33  1  0
 14 34  1  0
 15 35  1  0
 16 36  1  0
 17 37  1  0
 21 38  1  0
 22 39  1  0
 24 40  1  0
 29 41  1  0
M  CHG  5   3  -1  10  -1  19  -1  26   1  28  -1
M  END
>  <UniqueID>  (24) 
23

>  <SMILES>  (24) 
O=C([N-]c1ccccc1[N-]C(=O)c1ccccc1[O-])c1ccc(O)c([N+](=O)[O-])c1

>  <Energy>  (24) 
63.35923764756621

>  <Genealogy>  (24) 
O=C([N-]c1ccccc1[N-]C(=O)c1ccccc1[O-])c1ccc(O)c([N+](=O)[O-])c1 (protonated)
O=C([N-]c1ccccc1[N-]C(=O)c1ccccc1[O-])c1ccc(O)c([N+](=O)[O-])c1 (3D coordinates assigned)
O=C([N-]c1ccccc1[N-]C(=O)c1ccccc1[O-])c1ccc(O)c([N+](=O)[O-])c1 (optimized conformer: 63.35923764756621 kcal/mol)

>  <smiles>  (24) 
O=C(Nc1ccccc1NC(=O)c1ccccc1O)c1ccc(O)c([N+](=O)[O-])c1

>  <score_type>  (24) 
oracle

>  <origin>  (24) 
adgpu

>  <m_score__min__energy>  (24) 
-13.039999999999999

>  <m_primary>  (24) 
energy

$$$$
24:0
     RDKit          3D

 21 21  0  0  0  0  0  0  0  0999 V2000
    1.2480   26.4320  -23.3380 N   0  0  0  0  0  0  0  0  0  0  0  0
    0.2600   27.4130  -23.7900 C   0  0  0  0  0  0  0  0  0  0  0  0
   -1.1260   26.7790  -23.9930 C   0  0  0  0  0  0  0  0  0  0  0  0
   -1.3120   26.2760  -25.4010 C   0  0  0  0  0  0  0  0  0  0  0  0
   -2.3270   25.3510  -25.6990 C   0  0  0  0  0  0  0  0  0  0  0  0
   -2.4810   24.8690  -27.0040 C   0  0  0  0  0  0  0  0  0  0  0  0
   -1.6210   25.3030  -28.0170 C   0  0  0  0  0  0  0  0  0  0  0  0
   -0.6040   26.2170  -27.7260 C   0  0  0  0  0  0  0  0  0  0  0  0
   -0.4470   26.7020  -26.4240 C   0  0  0  0  0  0  0  0  0  0  0  0
    1.9720   26.2800  -24.0770 H   0  0  0  0  0  0  0  0  0  0  0  0
    0.7640   25.5250  -23.1480 H   0  0  0  0  0  0  0  0  0  0  0  0
    1.7040   26.7570  -22.4550 H   0  0  0  0  0  0  0  0  0  0  0  0
    0.1795   28.2100  -23.0361 H   0  0  0  0  0  0  0  0  0  0  0  0
    0.5962   27.8146  -24.7573 H   0  0  0  0  0  0  0  0  0  0  0  0
   -1.2367   25.9351  -23.2962 H   0  0  0  0  0  0  0  0  0  0  0  0
   -1.8858   27.5515  -23.8034 H   0  0  0  0  0  0  0  0  0  0  0  0
   -3.0031   25.0044  -24.9036 H   0  0  0  0  0  0  0  0  0  0  0  0
   -3.2796   24.1479  -27.2327 H   0  0  0  0  0  0  0  0  0  0  0  0
   -1.7445   24.9255  -29.0428 H   0  0  0  0  0  0  0  0  0  0  0  0
    0.0743   26.5554  -28.5231 H   0  0  0  0  0  0  0  0  0  0  0  0
    0.3561   27.4193  -26.1994 H   0  0  0  0  0  0  0  0  0  0  0  0
  1  2  1  0
  2  3  1  0
  3  4  1  0
  4  5  2  0
  5  6  1  0
  6  7  2  0
  7  8  1  0
  8  9  2  0
  9  4  1  0
  1 10  1  0
  1 11  1  0
  1 12  1  0
  2 13  1  0
  2 14  1  0
  3 15  1  0
  3 16  1  0
  5 17  1  0
  6 18  1  0
  7 19  1  0
  8 20  1  0
  9 21  1  0
M  CHG  1   1   1
M  END
>  <UniqueID>  (25) 
24

>  <SMILES>  (25) 
[NH3+]CCc1ccccc1

>  <Energy>  (25) 
15.6052222940299

>  <Genealogy>  (25) 
[NH3+]CCc1ccccc1 (protonated)
[NH3+]CCc1ccccc1 (3D coordinates assigned)
[NH3+]CCc1ccccc1 (optimized conformer: 15.6052222940299 kcal/mol)

>  <smiles>  (25) 
NCCc1ccccc1

>  <score_type>  (25) 
oracle

>  <origin>  (25) 
adgpu

>  <m_score__min__energy>  (25) 
-4.5099999999999998

>  <m_primary>  (25) 
energy

$$$$
25:0
     RDKit          3D

 32 34  0  0  0  0  0  0  0  0999 V2000
   -5.9150   24.4990  -29.4330 O   0  0  0  0  0  0  0  0  0  0  0  0
   -4.6150   24.1270  -30.0890 S   0  0  0  0  0  0  0  0  0  0  0  0
   -4.0490   25.2990  -30.8360 O   0  0  0  0  0  0  0  0  0  0  0  0
   -3.4780   23.5910  -28.8880 C   0  0  0  0  0  0  0  0  0  0  0  0
   -3.0250   24.4850  -27.9100 C   0  0  0  0  0  0  0  0  0  0  0  0
   -2.1120   24.0620  -26.9430 C   0  0  0  0  0  0  0  0  0  0  0  0
   -1.6510   22.7450  -26.9500 C   0  0  0  0  0  0  0  0  0  0  0  0
   -2.1030   21.8500  -27.9230 C   0  0  0  0  0  0  0  0  0  0  0  0
   -3.0210   22.2600  -28.9070 C   0  0  0  0  0  0  0  0  0  0  0  0
   -3.4650   21.3000  -29.8910 N   0  0  0  0  0  0  0  0  0  0  0  0
   -4.2750   21.5210  -30.8910 C   0  0  0  0  0  0  0  0  0  0  0  0
   -4.8610   22.8030  -31.1680 N   0  0  0  0  0  0  0  0  0  0  0  0
   -5.7420   22.9700  -32.3250 C   0  0  0  0  0  0  0  0  0  0  0  0
   -6.9210   22.0380  -32.2260 C   0  0  0  0  0  0  0  0  0  0  0  0
   -6.8560   20.7540  -32.7890 C   0  0  0  0  0  0  0  0  0  0  0  0
   -7.9380   19.8750  -32.6700 C   0  0  0  0  0  0  0  0  0  0  0  0
   -9.0890   20.2720  -31.9840 C   0  0  0  0  0  0  0  0  0  0  0  0
   -9.1590   21.5450  -31.4140 C   0  0  0  0  0  0  0  0  0  0  0  0
   -8.0790   22.4260  -31.5310 C   0  0  0  0  0  0  0  0  0  0  0  0
   -3.3895   25.5228  -27.9039 H   0  0  0  0  0  0  0  0  0  0  0  0
   -1.7562   24.7659  -26.1762 H   0  0  0  0  0  0  0  0  0  0  0  0
   -0.9308   22.4110  -26.1885 H   0  0  0  0  0  0  0  0  0  0  0  0
   -1.7368   20.8127  -27.9196 H   0  0  0  0  0  0  0  0  0  0  0  0
   -3.1000   20.3250  -29.8000 H   0  0  0  0  0  0  0  0  0  0  0  0
   -4.5218   20.6808  -31.5567 H   0  0  0  0  0  0  0  0  0  0  0  0
   -6.1028   24.0086  -32.3589 H   0  0  0  0  0  0  0  0  0  0  0  0
   -5.1779   22.7358  -33.2398 H   0  0  0  0  0  0  0  0  0  0  0  0
   -5.9500   20.4372  -33.3264 H   0  0  0  0  0  0  0  0  0  0  0  0
   -7.8827   18.8712  -33.1165 H   0  0  0  0  0  0  0  0  0  0  0  0
   -9.9403   19.5814  -31.8929 H   0  0  0  0  0  0  0  0  0  0  0  0
  -10.0647   21.8552  -30.8723 H   0  0  0  0  0  0  0  0  0  0  0  0
   -8.1363   23.4264  -31.0772 H   0  0  0  0  0  0  0  0  0  0  0  0
  1  2  2  0
  2  3  2  0
  2  4  1  0
  4  5  2  0
  5  6  1  0
  6  7  2  0
  7  8  1  0
  8  9  2  0
  9 10  1  0
 10 11  2  0
 11 12  1  0
 12 13  1  0
 13 14  1  0
 14 15  2  0
 15 16  1  0
 16 17  2  0
 17 18  1  0
 18 19  2  0
 12  2  1  0
 19 14  1  0
  9  4  1  0
  5 20  1  0
  6 21  1  0
  7 22  1  0
  8 23  1  0
 10 24  1  0
 11 25  1  0
 13 26  1  0
 13 27  1  0
 15 28  1  0
 16 29  1  0
 17 30  1  0
 18 31  1  0
 19 32  1  0
M  CHG  1  10   1
M  END
>  <UniqueID>  (26) 
25

>  <SMILES>  (26) 
O=S1(=O)c2ccccc2[NH+]=CN1Cc1ccccc1

>  <Energy>  (26) 
37.912369004310506

>  <Genealogy>  (26) 
O=S1(=O)c2ccccc2[NH+]=CN1Cc1ccccc1 (protonated)
O=S1(=O)c2ccccc2[NH+]=CN1Cc1ccccc1 (3D coordinates assigned)
O=S1(=O)c2ccccc2[NH+]=CN1Cc1ccccc1 (nonaromatic ring conformer: 37.912369004310506 kcal/mol)

>  <smiles>  (26) 
O=S1(=O)c2ccccc2N=CN1Cc1ccccc1

>  <score_type>  (26) 
oracle

>  <origin>  (26) 
adgpu

>  <m_score__min__energy>  (26) 
-6.9699999999999998

>  <m_primary>  (26) 
energy

$$$$
26:0
     RDKit          3D

 44 45  0  0  0  0  0  0  0  0999 V2000
   -2.8920   24.5590  -27.0920 C   0  0  0  0  0  0  0  0  0  0  0  0
   -2.0020   25.0280  -28.2380 C   0  0  0  0  0  0  0  0  0  0  0  0
   -2.0360   24.0610  -29.3460 N   0  0  0  0  0  0  0  0  0  0  0  0
   -0.8370   23.2830  -29.6740 C   0  0  0  0  0  0  0  0  0  0  0  0
   -3.2440   23.8580  -30.1090 C   0  0  0  0  0  0  0  0  0  0  0  0
   -4.0490   24.9120  -30.4180 N   0  0  0  0  0  0  0  0  0  0  0  0
   -5.1950   24.7440  -31.1270 C   0  0  0  0  0  0  0  0  0  0  0  0
   -5.5750   23.4620  -31.5560 C   0  0  0  0  0  0  0  0  0  0  0  0
   -6.7810   23.2210  -32.3040 N   0  0  0  0  0  0  0  0  0  0  0  0
   -8.0720   22.1960  -31.7590 S   0  0  0  0  0  0  0  0  0  0  0  0
   -8.1590   22.2640  -30.2600 O   0  0  0  0  0  0  0  0  0  0  0  0
   -9.3670   22.6820  -32.3470 O   0  0  0  0  0  0  0  0  0  0  0  0
   -7.7590   20.5300  -32.2360 C   0  0  0  0  0  0  0  0  0  0  0  0
   -8.5220   19.4860  -31.7000 C   0  0  0  0  0  0  0  0  0  0  0  0
   -8.2740   18.1670  -32.0820 C   0  0  0  0  0  0  0  0  0  0  0  0
   -7.2490   17.8710  -33.0020 C   0  0  0  0  0  0  0  0  0  0  0  0
   -6.9650   16.5560  -33.4050 O   0  0  0  0  0  0  0  0  0  0  0  0
   -5.7060   15.9130  -33.2300 C   0  0  0  0  0  0  0  0  0  0  0  0
   -6.4770   18.9150  -33.5390 C   0  0  0  0  0  0  0  0  0  0  0  0
   -5.4560   18.5940  -34.4510 O   0  0  0  0  0  0  0  0  0  0  0  0
   -4.0630   18.6840  -34.1700 C   0  0  0  0  0  0  0  0  0  0  0  0
   -6.7380   20.2440  -33.1510 C   0  0  0  0  0  0  0  0  0  0  0  0
   -4.7340   22.3930  -31.2290 C   0  0  0  0  0  0  0  0  0  0  0  0
   -3.5960   22.6080  -30.5180 N   0  0  0  0  0  0  0  0  0  0  0  0
   -2.4165   24.8096  -26.1323 H   0  0  0  0  0  0  0  0  0  0  0  0
   -3.8695   25.0591  -27.1585 H   0  0  0  0  0  0  0  0  0  0  0  0
   -3.0320   23.4700  -27.1585 H   0  0  0  0  0  0  0  0  0  0  0  0
   -2.3598   26.0038  -28.5981 H   0  0  0  0  0  0  0  0  0  0  0  0
   -0.9680   25.1143  -27.8729 H   0  0  0  0  0  0  0  0  0  0  0  0
   -0.3426   22.9622  -28.7452 H   0  0  0  0  0  0  0  0  0  0  0  0
   -1.1234   22.3982  -30.2614 H   0  0  0  0  0  0  0  0  0  0  0  0
   -0.1456   23.9050  -30.2614 H   0  0  0  0  0  0  0  0  0  0  0  0
   -5.8261   25.6128  -31.3654 H   0  0  0  0  0  0  0  0  0  0  0  0
   -6.9120   23.7010  -33.2230 H   0  0  0  0  0  0  0  0  0  0  0  0
   -9.3197   19.7061  -30.9753 H   0  0  0  0  0  0  0  0  0  0  0  0
   -8.8829   17.3529  -31.6620 H   0  0  0  0  0  0  0  0  0  0  0  0
   -5.4954   15.8054  -32.1557 H   0  0  0  0  0  0  0  0  0  0  0  0
   -5.7337   14.9186  -33.6996 H   0  0  0  0  0  0  0  0  0  0  0  0
   -4.9167   16.5184  -33.6996 H   0  0  0  0  0  0  0  0  0  0  0  0
   -3.9085   18.6940  -33.0809 H   0  0  0  0  0  0  0  0  0  0  0  0
   -3.5443   17.8175  -34.6060 H   0  0  0  0  0  0  0  0  0  0  0  0
   -3.6601   19.6101  -34.6060 H   0  0  0  0  0  0  0  0  0  0  0  0
   -6.1353   21.0633  -33.5699 H   0  0  0  0  0  0  0  0  0  0  0  0
   -4.9951   21.3735  -31.5489 H   0  0  0  0  0  0  0  0  0  0  0  0
  1  2  1  0
  2  3  1  0
  3  4  1  0
  3  5  1  0
  5  6  2  0
  6  7  1  0
  7  8  2  0
  8  9  1  0
  9 10  1  0
 10 11  2  0
 10 12  2  0
 10 13  1  0
 13 14  2  0
 14 15  1  0
 15 16  2  0
 16 17  1  0
 17 18  1  0
 16 19  1  0
 19 20  1  0
 20 21  1  0
 19 22  2  0
  8 23  1  0
 23 24  2  0
 24  5  1  0
 22 13  1  0
  1 25  1  0
  1 26  1  0
  1 27  1  0
  2 28  1  0
  2 29  1  0
  4 30  1  0
  4 31  1  0
  4 32  1  0
  7 33  1  0
  9 34  1  0
 14 35  1  0
 15 36  1  0
 18 37  1  0
 18 38  1  0
 18 39  1  0
 21 40  1  0
 21 41  1  0
 21 42  1  0
 22 43  1  0
 23 44  1  0
M  END
>  <UniqueID>  (27) 
26

>  <SMILES>  (27) 
CCN(C)c1ncc(NS(=O)(=O)c2ccc(OC)c(OC)c2)cn1

>  <Energy>  (27) 
41.25791800397706

>  <Genealogy>  (27) 
CCN(C)c1ncc(NS(=O)(=O)c2ccc(OC)c(OC)c2)cn1 (3D coordinates assigned)
CCN(C)c1ncc(NS(=O)(=O)c2ccc(OC)c(OC)c2)cn1 (optimized conformer: 41.25791800397706 kcal/mol)

>  <smiles>  (27) 
CCN(C)c1ncc(NS(=O)(=O)c2ccc(OC)c(OC)c2)cn1

>  <score_type>  (27) 
oracle

>  <origin>  (27) 
adgpu

>  <m_score__min__energy>  (27) 
-7.4199999999999999

>  <m_primary>  (27) 
energy

$$$$
27:0
     RDKit          3D

 47 49  0  0  0  0  0  0  0  0999 V2000
   -5.3410   18.2490  -33.7850 C   0  0  0  0  0  0  0  0  0  0  0  0
   -4.6560   19.4660  -34.0750 O   0  0  0  0  0  0  0  0  0  0  0  0
   -3.5790   19.9730  -33.3230 C   0  0  0  0  0  0  0  0  0  0  0  0
   -2.2990   20.1500  -33.8850 C   0  0  0  0  0  0  0  0  0  0  0  0
   -1.2580   20.6800  -33.1150 C   0  0  0  0  0  0  0  0  0  0  0  0
   -1.4800   21.0220  -31.7810 C   0  0  0  0  0  0  0  0  0  0  0  0
   -2.7430   20.8360  -31.2120 C   0  0  0  0  0  0  0  0  0  0  0  0
   -3.8020   20.3130  -31.9760 C   0  0  0  0  0  0  0  0  0  0  0  0
   -5.1220   20.1350  -31.4360 N   0  0  0  0  0  0  0  0  0  0  0  0
   -6.4770   21.2050  -31.6130 S   0  0  0  0  0  0  0  0  0  0  0  0
   -6.8330   21.3920  -33.0610 O   0  0  0  0  0  0  0  0  0  0  0  0
   -7.6620   20.5840  -30.9290 O   0  0  0  0  0  0  0  0  0  0  0  0
   -6.1160   22.7520  -30.8500 C   0  0  0  0  0  0  0  0  0  0  0  0
   -7.1510   23.5430  -30.3270 C   0  0  0  0  0  0  0  0  0  0  0  0
   -6.8690   24.8010  -29.7900 C   0  0  0  0  0  0  0  0  0  0  0  0
   -5.5530   25.2710  -29.7510 C   0  0  0  0  0  0  0  0  0  0  0  0
   -4.5000   24.4670  -30.2260 C   0  0  0  0  0  0  0  0  0  0  0  0
   -3.1320   24.9020  -30.1930 N   0  0  0  0  0  0  0  0  0  0  0  0
   -2.2300   24.8450  -29.0780 C   0  0  0  0  0  0  0  0  0  0  0  0
   -1.8530   25.9280  -28.5580 O   0  0  0  0  0  0  0  0  0  0  0  0
   -1.7040   23.5650  -28.5430 C   0  0  0  0  0  0  0  0  0  0  0  0
   -2.6010   22.5170  -28.2680 C   0  0  0  0  0  0  0  0  0  0  0  0
   -2.1360   21.2790  -27.7920 C   0  0  0  0  0  0  0  0  0  0  0  0
   -3.1080   20.1800  -27.4750 C   0  0  0  0  0  0  0  0  0  0  0  0
   -0.7650   21.1030  -27.5520 C   0  0  0  0  0  0  0  0  0  0  0  0
    0.1310   22.1470  -27.7980 C   0  0  0  0  0  0  0  0  0  0  0  0
   -0.3290   23.3820  -28.2810 C   0  0  0  0  0  0  0  0  0  0  0  0
    0.5720   24.4290  -28.4770 O   0  0  0  0  0  0  0  0  0  0  0  0
   -4.7940   23.2230  -30.7990 C   0  0  0  0  0  0  0  0  0  0  0  0
   -5.4137   18.1199  -32.6950 H   0  0  0  0  0  0  0  0  0  0  0  0
   -6.3515   18.2848  -34.2182 H   0  0  0  0  0  0  0  0  0  0  0  0
   -4.7861   17.4037  -34.2182 H   0  0  0  0  0  0  0  0  0  0  0  0
   -2.1175   19.8704  -34.9333 H   0  0  0  0  0  0  0  0  0  0  0  0
   -0.2637   20.8271  -33.5619 H   0  0  0  0  0  0  0  0  0  0  0  0
   -0.6606   21.4383  -31.1765 H   0  0  0  0  0  0  0  0  0  0  0  0
   -2.9103   21.1009  -30.1576 H   0  0  0  0  0  0  0  0  0  0  0  0
   -8.1862   23.1713  -30.3401 H   0  0  0  0  0  0  0  0  0  0  0  0
   -7.6854   25.4243  -29.3963 H   0  0  0  0  0  0  0  0  0  0  0  0
   -5.3399   26.2721  -29.3479 H   0  0  0  0  0  0  0  0  0  0  0  0
   -3.6789   22.6681  -28.4273 H   0  0  0  0  0  0  0  0  0  0  0  0
   -3.2003   20.0756  -26.3839 H   0  0  0  0  0  0  0  0  0  0  0  0
   -4.0908   20.4245  -27.9044 H   0  0  0  0  0  0  0  0  0  0  0  0
   -2.7452   19.2345  -27.9044 H   0  0  0  0  0  0  0  0  0  0  0  0
   -0.3943   20.1407  -27.1692 H   0  0  0  0  0  0  0  0  0  0  0  0
    1.2050   21.9997  -27.6116 H   0  0  0  0  0  0  0  0  0  0  0  0
    0.2560   25.3870  -28.5920 H   0  0  0  0  0  0  0  0  0  0  0  0
   -3.9810   22.6087  -31.2133 H   0  0  0  0  0  0  0  0  0  0  0  0
  1  2  1  0
  2  3  1  0
  3  4  2  0
  4  5  1  0
  5  6  2  0
  6  7  1  0
  7  8  2  0
  8  9  1  0
  9 10  1  0
 10 11  2  0
 10 12  2  0
 10 13  1  0
 13 14  2  0
 14 15  1  0
 15 16  2  0
 16 17  1  0
 17 18  1  0
 18 19  1  0
 19 20  2  0
 19 21  1  0
 21 22  2  0
 22 23  1  0
 23 24  1  0
 23 25  2  0
 25 26  1  0
 26 27  2  0
 27 28  1  0
 17 29  2  0
  8  3  1  0
 29 13  1  0
 27 21  1  0
  1 30  1  0
  1 31  1  0
  1 32  1  0
  4 33  1  0
  5 34  1  0
  6 35  1  0
  7 36  1  0
 14 37  1  0
 15 38  1  0
 16 39  1  0
 22 40  1  0
 24 41  1  0
 24 42  1  0
 24 43  1  0
 25 44  1  0
 26 45  1  0
 28 46  1  0
 29 47  1  0
M  CHG  2   9  -1  18  -1
M  END
>  <UniqueID>  (28) 
27

>  <SMILES>  (28) 
COc1ccccc1[N-]S(=O)(=O)c1cccc([N-]C(=O)c2cc(C)ccc2O)c1

>  <Energy>  (28) 
62.066269944478435

>  <Genealogy>  (28) 
COc1ccccc1[N-]S(=O)(=O)c1cccc([N-]C(=O)c2cc(C)ccc2O)c1 (protonated)
COc1ccccc1[N-]S(=O)(=O)c1cccc([N-]C(=O)c2cc(C)ccc2O)c1 (3D coordinates assigned)
COc1ccccc1[N-]S(=O)(=O)c1cccc([N-]C(=O)c2cc(C)ccc2O)c1 (optimized conformer: 62.066269944478435 kcal/mol)

>  <smiles>  (28) 
COc1ccccc1NS(=O)(=O)c1cccc(NC(=O)c2cc(C)ccc2O)c1

>  <score_type>  (28) 
oracle

>  <origin>  (28) 
adgpu

>  <m_score__min__energy>  (28) 
-10.640000000000001

>  <m_primary>  (28) 
energy

$$$$
28:0
     RDKit          3D

 36 38  0  0  0  0  0  0  0  0999 V2000
   -3.4780   25.1370  -30.4620 N   0  0  0  0  0  0  0  0  0  0  0  0
   -3.7230   23.4260  -30.4930 S   0  0  0  0  0  0  0  0  0  0  0  0
   -3.3080   22.8360  -29.1730 O   0  0  0  0  0  0  0  0  0  0  0  0
   -2.8810   22.8150  -31.5790 O   0  0  0  0  0  0  0  0  0  0  0  0
   -5.4240   23.0820  -30.7880 C   0  0  0  0  0  0  0  0  0  0  0  0
   -5.9510   23.1990  -32.0790 C   0  0  0  0  0  0  0  0  0  0  0  0
   -7.2970   22.9080  -32.3200 C   0  0  0  0  0  0  0  0  0  0  0  0
   -8.1340   22.4850  -31.2700 C   0  0  0  0  0  0  0  0  0  0  0  0
   -9.5180   22.1480  -31.4890 N   0  0  0  0  0  0  0  0  0  0  0  0
   -9.9780   21.0240  -32.3070 C   0  0  0  0  0  0  0  0  0  0  0  0
   -9.0190   19.8760  -32.2330 C   0  0  0  0  0  0  0  0  0  0  0  0
   -9.0570   18.9260  -31.2810 N   0  0  0  0  0  0  0  0  0  0  0  0
   -8.0700   18.0860  -31.5570 N   0  0  0  0  0  0  0  0  0  0  0  0
   -7.4690   18.5530  -32.6720 C   0  0  0  0  0  0  0  0  0  0  0  0
   -6.3100   17.9030  -33.3290 C   0  0  0  0  0  0  0  0  0  0  0  0
   -6.4080   16.5480  -33.6950 C   0  0  0  0  0  0  0  0  0  0  0  0
   -5.3350   15.8930  -34.3040 C   0  0  0  0  0  0  0  0  0  0  0  0
   -4.1510   16.5820  -34.5640 C   0  0  0  0  0  0  0  0  0  0  0  0
   -4.0370   17.9280  -34.2150 C   0  0  0  0  0  0  0  0  0  0  0  0
   -5.1030   18.5970  -33.5980 C   0  0  0  0  0  0  0  0  0  0  0  0
   -4.8760   20.3040  -33.2200 Cl  0  0  0  0  0  0  0  0  0  0  0  0
   -8.0480   19.6550  -33.0870 O   0  0  0  0  0  0  0  0  0  0  0  0
   -7.5970   22.3730  -29.9780 C   0  0  0  0  0  0  0  0  0  0  0  0
   -6.2510   22.6640  -29.7390 C   0  0  0  0  0  0  0  0  0  0  0  0
   -2.4460   25.2950  -30.4170 H   0  0  0  0  0  0  0  0  0  0  0  0
   -5.3035   23.5213  -32.9077 H   0  0  0  0  0  0  0  0  0  0  0  0
   -7.7047   23.0102  -33.3365 H   0  0  0  0  0  0  0  0  0  0  0  0
  -10.2510   22.7220  -31.0120 H   0  0  0  0  0  0  0  0  0  0  0  0
  -10.9623   20.6940  -31.9433 H   0  0  0  0  0  0  0  0  0  0  0  0
  -10.0445   21.3571  -33.3532 H   0  0  0  0  0  0  0  0  0  0  0  0
   -7.3404   15.9981  -33.4993 H   0  0  0  0  0  0  0  0  0  0  0  0
   -5.4243   14.8317  -34.5790 H   0  0  0  0  0  0  0  0  0  0  0  0
   -3.3073   16.0646  -35.0440 H   0  0  0  0  0  0  0  0  0  0  0  0
   -3.1026   18.4688  -34.4258 H   0  0  0  0  0  0  0  0  0  0  0  0
   -8.2415   22.0532  -29.1459 H   0  0  0  0  0  0  0  0  0  0  0  0
   -5.8404   22.5642  -28.7234 H   0  0  0  0  0  0  0  0  0  0  0  0
  1  2  1  0
  2  3  2  0
  2  4  2  0
  2  5  1  0
  5  6  2  0
  6  7  1  0
  7  8  2  0
  8  9  1  0
  9 10  1  0
 10 11  1  0
 11 12  2  0
 12 13  1  0
 13 14  2  0
 14 15  1  0
 15 16  2  0
 16 17  1  0
 17 18  2  0
 18 19  1  0
 19 20  2  0
 20 21  1  0
 14 22  1  0
  8 23  1  0
 23 24  2  0
 24  5  1  0
 22 11  1  0
 20 15  1  0
  1 25  1  0
  6 26  1  0
  7 27  1  0
  9 28  1  0
 10 29  1  0
 10 30  1  0
 16 31  1  0
 17 32  1  0
 18 33  1  0
 19 34  1  0
 23 35  1  0
 24 36  1  0
M  CHG  1   1  -1
M  END
>  <UniqueID>  (29) 
28

>  <SMILES>  (29) 
[NH-]S(=O)(=O)c1ccc(NCc2nnc(-c3ccccc3Cl)o2)cc1

>  <Energy>  (29) 
73.40500924950378

>  <Genealogy>  (29) 
[NH-]S(=O)(=O)c1ccc(NCc2nnc(-c3ccccc3Cl)o2)cc1 (protonated)
[NH-]S(=O)(=O)c1ccc(NCc2nnc(-c3ccccc3Cl)o2)cc1 (3D coordinates assigned)
[NH-]S(=O)(=O)c1ccc(NCc2nnc(-c3ccccc3Cl)o2)cc1 (optimized conformer: 73.40500924950378 kcal/mol)

>  <smiles>  (29) 
NS(=O)(=O)c1ccc(NCc2nnc(-c3ccccc3Cl)o2)cc1

>  <score_type>  (29) 
oracle

>  <origin>  (29) 
adgpu

>  <m_score__min__energy>  (29) 
-10.91

>  <m_primary>  (29) 
energy

$$$$
29:0
     RDKit          3D

 41 43  0  0  0  0  0  0  0  0999 V2000
    1.0410   24.2777  -28.1542 H   0  0  0  0  0  0  0  0  0  0  0  0
   -0.0320   24.3620  -27.9270 C   0  0  0  0  0  0  0  0  0  0  0  0
   -0.9350   24.6950  -28.9390 C   0  0  0  0  0  0  0  0  0  0  0  0
   -0.5699   24.8596  -29.9635 H   0  0  0  0  0  0  0  0  0  0  0  0
   -2.3010   24.8210  -28.6600 C   0  0  0  0  0  0  0  0  0  0  0  0
   -3.1550   25.1980  -29.7060 O   0  0  0  0  0  0  0  0  0  0  0  0
   -4.2450   24.4450  -30.1750 C   0  0  0  0  0  0  0  0  0  0  0  0
   -5.4600   25.1120  -30.3740 C   0  0  0  0  0  0  0  0  0  0  0  0
   -5.5328   26.1872  -30.1533 H   0  0  0  0  0  0  0  0  0  0  0  0
   -6.5790   24.4280  -30.8490 C   0  0  0  0  0  0  0  0  0  0  0  0
   -7.5226   24.9686  -31.0143 H   0  0  0  0  0  0  0  0  0  0  0  0
   -6.5050   23.0560  -31.1160 C   0  0  0  0  0  0  0  0  0  0  0  0
   -7.9230   22.1840  -31.6920 S   0  0  0  0  0  0  0  0  0  0  0  0
   -8.5460   21.3900  -30.5780 O   0  0  0  0  0  0  0  0  0  0  0  0
   -8.9270   23.1790  -32.2020 O   0  0  0  0  0  0  0  0  0  0  0  0
   -7.4870   21.1060  -32.9830 N   0  0  0  0  0  0  0  0  0  0  0  0
   -7.0620   19.8790  -32.8650 C   0  0  0  0  0  0  0  0  0  0  0  0
   -6.9050   19.2540  -31.6100 C   0  0  0  0  0  0  0  0  0  0  0  0
   -7.1512   19.7976  -30.6859 H   0  0  0  0  0  0  0  0  0  0  0  0
   -6.4350   17.9410  -31.5490 C   0  0  0  0  0  0  0  0  0  0  0  0
   -6.3064   17.4470  -30.5746 H   0  0  0  0  0  0  0  0  0  0  0  0
   -6.1290   17.2570  -32.7230 C   0  0  0  0  0  0  0  0  0  0  0  0
   -5.6740   15.9810  -32.6750 F   0  0  0  0  0  0  0  0  0  0  0  0
   -6.2970   17.8990  -33.9500 C   0  0  0  0  0  0  0  0  0  0  0  0
   -6.0582   17.3680  -34.8833 H   0  0  0  0  0  0  0  0  0  0  0  0
   -6.7550   19.1790  -33.9970 N   0  0  0  0  0  0  0  0  0  0  0  0
   -6.8700   19.6330  -34.9320 H   0  0  0  0  0  0  0  0  0  0  0  0
   -5.3020   22.3730  -30.9010 C   0  0  0  0  0  0  0  0  0  0  0  0
   -5.2423   21.2943  -31.1080 H   0  0  0  0  0  0  0  0  0  0  0  0
   -4.1730   23.0530  -30.4240 C   0  0  0  0  0  0  0  0  0  0  0  0
   -2.9830   22.2890  -30.1410 C   0  0  0  0  0  0  0  0  0  0  0  0
   -2.0290   21.6750  -29.9150 N   0  0  0  0  0  0  0  0  0  0  0  0
   -2.7760   24.5440  -27.3550 C   0  0  0  0  0  0  0  0  0  0  0  0
   -4.2430   24.5780  -27.0270 C   0  0  0  0  0  0  0  0  0  0  0  0
   -4.3746   24.5810  -25.9349 H   0  0  0  0  0  0  0  0  0  0  0  0
   -4.6930   25.4868  -27.4531 H   0  0  0  0  0  0  0  0  0  0  0  0
   -4.7346   23.6910  -27.4531 H   0  0  0  0  0  0  0  0  0  0  0  0
   -1.8550   24.2230  -26.3430 C   0  0  0  0  0  0  0  0  0  0  0  0
   -2.2117   24.0388  -25.3189 H   0  0  0  0  0  0  0  0  0  0  0  0
   -0.4890   24.1360  -26.6280 C   0  0  0  0  0  0  0  0  0  0  0  0
    0.6490   23.7260  -25.3580 Cl  0  0  0  0  0  0  0  0  0  0  0  0
  1  2  1  0
  2  3  2  0
  3  4  1  0
  3  5  1  0
  5  6  1  0
  6  7  1  0
  7  8  2  0
  8  9  1  0
  8 10  1  0
 10 11  1  0
 10 12  2  0
 12 13  1  0
 13 14  2  0
 13 15  2  0
 13 16  1  0
 16 17  2  0
 17 18  1  0
 18 19  1  0
 18 20  2  0
 20 21  1  0
 20 22  1  0
 22 23  1  0
 22 24  2  0
 24 25  1  0
 24 26  1  0
 26 27  1  0
 12 28  1  0
 28 29  1  0
 28 30  2  0
 30 31  1  0
 31 32  3  0
  5 33  2  0
 33 34  1  0
 34 35  1  0
 34 36  1  0
 34 37  1  0
 33 38  1  0
 38 39  1  0
 38 40  2  0
 40 41  1  0
 40  2  1  0
 30  7  1  0
 26 17  1  0
M  END
>  <UniqueID>  (30) 
29

>  <SMILES>  (30) 
Cc1cc(Cl)ccc1Oc1ccc(S(=O)(=O)/N=c2\ccc(F)c[nH]2)cc1C#N

>  <Energy>  (30) 
58.95858617330635

>  <Genealogy>  (30) 
Cc1cc(Cl)ccc1Oc1ccc(S(=O)(=O)/N=c2\ccc(F)c[nH]2)cc1C#N (cis-trans isomerization)
Cc1cc(Cl)ccc1Oc1ccc(S(=O)(=O)/N=c2\ccc(F)c[nH]2)cc1C#N (3D coordinates assigned)
Cc1cc(Cl)ccc1Oc1ccc(S(=O)(=O)/N=c2\ccc(F)c[nH]2)cc1C#N (optimized conformer: 58.95858617330635 kcal/mol)

>  <smiles>  (30) 
Cc1cc(Cl)ccc1Oc1ccc(S(=O)(=O)N=c2ccc(F)c[nH]2)cc1C#N

>  <score_type>  (30) 
oracle

>  <origin>  (30) 
adgpu

>  <m_score__min__energy>  (30) 
-10.050000000000001

>  <m_primary>  (30) 
energy

$$$$
30:0
     RDKit          3D

 47 50  0  0  0  0  0  0  0  0999 V2000
   -0.3160   22.8300  -27.1310 H   0  0  0  0  0  0  0  0  0  0  0  0
   -0.0610   22.0260  -27.6580 O   0  0  0  0  0  0  0  0  0  0  0  0
   -0.9110   21.9690  -28.7740 C   0  0  2  0  0  0  0  0  0  0  0  0
   -1.6851   21.2116  -28.5813 H   0  0  0  0  0  0  0  0  0  0  0  0
   -0.1630   21.5810  -29.9740 N   0  0  0  0  0  0  0  0  0  0  0  0
   -0.7080   21.2420  -31.1030 C   0  0  0  0  0  0  0  0  0  0  0  0
   -2.0600   21.2240  -31.2490 N   0  0  0  0  0  0  0  0  0  0  0  0
   -2.6520   20.8790  -32.3960 N   0  0  0  0  0  0  0  0  0  0  0  0
   -4.0930   20.8930  -32.4420 C   0  0  0  0  0  0  0  0  0  0  0  0
   -4.8110   22.0820  -32.2200 C   0  0  0  0  0  0  0  0  0  0  0  0
   -4.2720   23.0122  -31.9873 H   0  0  0  0  0  0  0  0  0  0  0  0
   -6.2080   22.0860  -32.2940 C   0  0  0  0  0  0  0  0  0  0  0  0
   -6.7648   23.0173  -32.1133 H   0  0  0  0  0  0  0  0  0  0  0  0
   -6.8970   20.9090  -32.5970 C   0  0  0  0  0  0  0  0  0  0  0  0
   -7.9958   20.9127  -32.6489 H   0  0  0  0  0  0  0  0  0  0  0  0
   -6.1910   19.7280  -32.8340 C   0  0  0  0  0  0  0  0  0  0  0  0
   -6.7344   18.8028  -33.0763 H   0  0  0  0  0  0  0  0  0  0  0  0
   -4.7950   19.7190  -32.7640 C   0  0  0  0  0  0  0  0  0  0  0  0
   -4.2431   18.7883  -32.9620 H   0  0  0  0  0  0  0  0  0  0  0  0
   -1.8980   20.5470  -33.4950 C   0  0  0  0  0  0  0  0  0  0  0  0
   -2.4560   20.3010  -34.6000 O   0  0  0  0  0  0  0  0  0  0  0  0
   -0.4940   20.5260  -33.3970 C   0  0  0  0  0  0  0  0  0  0  0  0
    0.3640   20.1480  -34.5490 C   0  0  0  0  0  0  0  0  0  0  0  0
    0.9930   21.1340  -35.3260 C   0  0  0  0  0  0  0  0  0  0  0  0
    0.8563   22.1963  -35.0755 H   0  0  0  0  0  0  0  0  0  0  0  0
    1.7920   20.7750  -36.4160 C   0  0  0  0  0  0  0  0  0  0  0  0
    2.2814   21.5573  -37.0148 H   0  0  0  0  0  0  0  0  0  0  0  0
    1.9740   19.4290  -36.7510 C   0  0  0  0  0  0  0  0  0  0  0  0
    2.7850   19.1190  -37.8530 O   0  0  0  0  0  0  0  0  0  0  0  0
    2.4800   18.1190  -38.8200 C   0  0  0  0  0  0  0  0  0  0  0  0
    2.1960   17.1880  -38.3076 H   0  0  0  0  0  0  0  0  0  0  0  0
    1.6451   18.4603  -39.4497 H   0  0  0  0  0  0  0  0  0  0  0  0
    3.3633   17.9363  -39.4497 H   0  0  0  0  0  0  0  0  0  0  0  0
    1.3390   18.4370  -35.9790 C   0  0  0  0  0  0  0  0  0  0  0  0
    1.4730   17.3753  -36.2338 H   0  0  0  0  0  0  0  0  0  0  0  0
    0.5390   18.7960  -34.8900 C   0  0  0  0  0  0  0  0  0  0  0  0
    0.0429   18.0144  -34.2958 H   0  0  0  0  0  0  0  0  0  0  0  0
    0.0970   20.8860  -32.1800 C   0  0  0  0  0  0  0  0  0  0  0  0
    1.1921   20.8873  -32.0761 H   0  0  0  0  0  0  0  0  0  0  0  0
   -1.5680   23.3010  -28.9920 C   0  0  0  0  0  0  0  0  0  0  0  0
   -1.1250   24.5200  -28.5120 C   0  0  0  0  0  0  0  0  0  0  0  0
   -0.2452   24.6558  -27.8659 H   0  0  0  0  0  0  0  0  0  0  0  0
   -1.9200   25.5190  -28.9450 N   0  0  0  0  0  0  0  0  0  0  0  0
   -2.8560   24.9190  -29.7050 C   0  0  0  0  0  0  0  0  0  0  0  0
   -3.8740   25.6110  -30.3480 O   0  0  0  0  0  0  0  0  0  0  0  0
   -2.6780   23.5550  -29.7700 C   0  0  0  0  0  0  0  0  0  0  0  0
   -3.2888   22.8260  -30.3227 H   0  0  0  0  0  0  0  0  0  0  0  0
  1  2  1  0
  2  3  1  0
  3  4  1  1
  3  5  1  0
  5  6  2  0
  6  7  1  0
  7  8  1  0
  8  9  1  0
  9 10  2  0
 10 11  1  0
 10 12  1  0
 12 13  1  0
 12 14  2  0
 14 15  1  0
 14 16  1  0
 16 17  1  0
 16 18  2  0
 18 19  1  0
  8 20  1  0
 20 21  2  0
 20 22  1  0
 22 23  1  0
 23 24  2  0
 24 25  1  0
 24 26  1  0
 26 27  1  0
 26 28  2  0
 28 29  1  0
 29 30  1  0
 30 31  1  0
 30 32  1  0
 30 33  1  0
 28 34  1  0
 34 35  1  0
 34 36  2  0
 36 37  1  0
 22 38  2  0
 38 39  1  0
  3 40  1  0
 40 41  2  0
 41 42  1  0
 41 43  1  0
 43 44  1  0
 44 45  1  0
 44 46  2  0
 46 47  1  0
 38  6  1  0
 46 40  1  0
 18  9  1  0
 36 23  1  0
M  CHG  3   7  -1  43  -1  45  -1
M  END
>  <UniqueID>  (31) 
30

>  <SMILES>  (31) 
COc1ccc(-c2c/c(=N/[C@@H](O)c3c[n-]c([O-])c3)[n-]n(-c3ccccc3)c2=O)cc1

>  <Energy>  (31) 
90.62694251986144

>  <Genealogy>  (31) 
COc1ccc(-c2cc(=NC(O)c3c[n-]c([O-])c3)[n-]n(-c3ccccc3)c2=O)cc1 (protonated)
COc1ccc(-c2cc(=N[C@@H](O)c3c[n-]c([O-])c3)[n-]n(-c3ccccc3)c2=O)cc1 (chirality)
COc1ccc(-c2c/c(=N/[C@@H](O)c3c[n-]c([O-])c3)[n-]n(-c3ccccc3)c2=O)cc1 (cis-trans isomerization)
COc1ccc(-c2c/c(=N/[C@@H](O)c3c[n-]c([O-])c3)[n-]n(-c3ccccc3)c2=O)cc1 (3D coordinates assigned)
COc1ccc(-c2c/c(=N/[C@@H](O)c3c[n-]c([O-])c3)[n-]n(-c3ccccc3)c2=O)cc1 (optimized conformer: 90.62694251986144 kcal/mol)

>  <smiles>  (31) 
COc1ccc(-c2cc(=NC(O)c3c[nH]c(O)c3)[nH]n(-c3ccccc3)c2=O)cc1

>  <score_type>  (31) 
oracle

>  <origin>  (31) 
adgpu

>  <m_score__min__energy>  (31) 
-11.59

>  <m_primary>  (31) 
energy

$$$$
31:0
     RDKit          3D

 44 46  0  0  0  0  0  0  0  0999 V2000
   -0.9180   22.5780  -30.3020 C   0  0  0  0  0  0  0  0  0  0  0  0
   -0.7220   23.5930  -29.2230 C   0  0  0  0  0  0  0  0  0  0  0  0
    0.4830   23.9460  -28.7350 N   0  0  0  0  0  0  0  0  0  0  0  0
    0.2830   24.8580  -27.7960 N   0  0  0  0  0  0  0  0  0  0  0  0
    1.3650   25.4920  -27.0480 C   0  0  0  0  0  0  0  0  0  0  0  0
   -1.0370   25.1160  -27.6810 C   0  0  0  0  0  0  0  0  0  0  0  0
   -1.6490   26.0750  -26.7030 C   0  0  0  0  0  0  0  0  0  0  0  0
   -1.7180   24.2920  -28.5600 C   0  0  0  0  0  0  0  0  0  0  0  0
   -3.1940   24.2430  -28.8140 C   0  0  0  0  0  0  0  0  0  0  0  0
   -3.4910   24.9320  -30.0610 N   0  0  0  0  0  0  0  0  0  0  0  0
   -4.8250   25.1950  -30.5050 C   0  0  0  0  0  0  0  0  0  0  0  0
   -5.2740   26.3740  -30.4710 O   0  0  0  0  0  0  0  0  0  0  0  0
   -5.6760   24.0890  -31.0050 C   0  0  0  0  0  0  0  0  0  0  0  0
   -7.0680   24.1180  -30.8160 C   0  0  0  0  0  0  0  0  0  0  0  0
   -7.8690   23.0780  -31.2890 C   0  0  0  0  0  0  0  0  0  0  0  0
   -7.2930   21.9960  -31.9560 C   0  0  0  0  0  0  0  0  0  0  0  0
   -5.9040   21.9410  -32.1580 C   0  0  0  0  0  0  0  0  0  0  0  0
   -5.2910   20.7870  -32.8670 C   0  0  0  0  0  0  0  0  0  0  0  0
   -6.1010   19.8100  -33.4770 C   0  0  0  0  0  0  0  0  0  0  0  0
   -5.5220   18.7250  -34.1420 C   0  0  0  0  0  0  0  0  0  0  0  0
   -4.1320   18.6030  -34.2070 C   0  0  0  0  0  0  0  0  0  0  0  0
   -3.3190   19.5660  -33.6060 C   0  0  0  0  0  0  0  0  0  0  0  0
   -3.8920   20.6520  -32.9390 C   0  0  0  0  0  0  0  0  0  0  0  0
   -5.1030   22.9940  -31.6790 C   0  0  0  0  0  0  0  0  0  0  0  0
   -1.1081   21.5937  -29.8493 H   0  0  0  0  0  0  0  0  0  0  0  0
   -1.7770   22.8669  -30.9255 H   0  0  0  0  0  0  0  0  0  0  0  0
   -0.0132   22.5263  -30.9255 H   0  0  0  0  0  0  0  0  0  0  0  0
    1.1783   25.3826  -25.9695 H   0  0  0  0  0  0  0  0  0  0  0  0
    2.3199   25.0106  -27.3055 H   0  0  0  0  0  0  0  0  0  0  0  0
    1.4118   26.5604  -27.3055 H   0  0  0  0  0  0  0  0  0  0  0  0
   -1.4349   25.7395  -25.6775 H   0  0  0  0  0  0  0  0  0  0  0  0
   -1.2233   27.0775  -26.8572 H   0  0  0  0  0  0  0  0  0  0  0  0
   -2.7375   26.1112  -26.8572 H   0  0  0  0  0  0  0  0  0  0  0  0
   -3.5196   23.1948  -28.8868 H   0  0  0  0  0  0  0  0  0  0  0  0
   -3.7267   24.7338  -27.9861 H   0  0  0  0  0  0  0  0  0  0  0  0
   -7.5299   24.9672  -30.2911 H   0  0  0  0  0  0  0  0  0  0  0  0
   -8.9578   23.1111  -31.1357 H   0  0  0  0  0  0  0  0  0  0  0  0
   -7.9313   21.1803  -32.3263 H   0  0  0  0  0  0  0  0  0  0  0  0
   -7.1962   19.9010  -33.4300 H   0  0  0  0  0  0  0  0  0  0  0  0
   -6.1623   17.9659  -34.6150 H   0  0  0  0  0  0  0  0  0  0  0  0
   -3.6783   17.7490  -34.7312 H   0  0  0  0  0  0  0  0  0  0  0  0
   -2.2245   19.4695  -33.6577 H   0  0  0  0  0  0  0  0  0  0  0  0
   -3.2453   21.4064  -32.4671 H   0  0  0  0  0  0  0  0  0  0  0  0
   -4.0144   22.9611  -31.8333 H   0  0  0  0  0  0  0  0  0  0  0  0
  1  2  1  0
  2  3  2  0
  3  4  1  0
  4  5  1  0
  4  6  1  0
  6  7  1  0
  6  8  2  0
  8  9  1  0
  9 10  1  0
 10 11  1  0
 11 12  2  0
 11 13  1  0
 13 14  2  0
 14 15  1  0
 15 16  2  0
 16 17  1  0
 17 18  1  0
 18 19  2  0
 19 20  1  0
 20 21  2  0
 21 22  1  0
 22 23  2  0
 17 24  2  0
  8  2  1  0
 24 13  1  0
 23 18  1  0
  1 25  1  0
  1 26  1  0
  1 27  1  0
  5 28  1  0
  5 29  1  0
  5 30  1  0
  7 31  1  0
  7 32  1  0
  7 33  1  0
  9 34  1  0
  9 35  1  0
 14 36  1  0
 15 37  1  0
 16 38  1  0
 19 39  1  0
 20 40  1  0
 21 41  1  0
 22 42  1  0
 23 43  1  0
 24 44  1  0
M  CHG  1  10  -1
M  END
>  <UniqueID>  (32) 
31

>  <SMILES>  (32) 
Cc1nn(C)c(C)c1C[N-]C(=O)c1cccc(-c2ccccc2)c1

>  <Energy>  (32) 
76.43905908476955

>  <Genealogy>  (32) 
Cc1nn(C)c(C)c1C[N-]C(=O)c1cccc(-c2ccccc2)c1 (protonated)
Cc1nn(C)c(C)c1C[N-]C(=O)c1cccc(-c2ccccc2)c1 (3D coordinates assigned)
Cc1nn(C)c(C)c1C[N-]C(=O)c1cccc(-c2ccccc2)c1 (optimized conformer: 76.43905908476955 kcal/mol)

>  <smiles>  (32) 
Cc1nn(C)c(C)c1CNC(=O)c1cccc(-c2ccccc2)c1

>  <score_type>  (32) 
oracle

>  <origin>  (32) 
adgpu

>  <m_score__min__energy>  (32) 
-10.470000000000001

>  <m_primary>  (32) 
energy

$$$$
32:0
     RDKit          3D

 34 36  0  0  0  0  0  0  0  0999 V2000
  -10.3360   21.7130  -31.9790 H   0  0  0  0  0  0  0  0  0  0  0  0
   -9.4890   22.2270  -31.6490 N   0  0  0  0  0  0  0  0  0  0  0  0
   -8.2790   21.7630  -31.7300 C   0  0  0  0  0  0  0  0  0  0  0  0
   -7.2610   22.5330  -31.2640 N   0  0  0  0  0  0  0  0  0  0  0  0
   -5.9600   22.1370  -31.2910 C   0  0  0  0  0  0  0  0  0  0  0  0
   -4.9140   23.0470  -30.7580 C   0  0  0  0  0  0  0  0  0  0  0  0
   -3.6640   22.5560  -30.3280 C   0  0  0  0  0  0  0  0  0  0  0  0
   -3.4482   21.4793  -30.3917 H   0  0  0  0  0  0  0  0  0  0  0  0
   -2.6970   23.4300  -29.8210 C   0  0  0  0  0  0  0  0  0  0  0  0
   -1.7230   23.0388  -29.4920 H   0  0  0  0  0  0  0  0  0  0  0  0
   -2.9640   24.7980  -29.7310 C   0  0  0  0  0  0  0  0  0  0  0  0
   -1.9990   25.6630  -29.2280 O   0  0  0  0  0  0  0  0  0  0  0  0
   -4.2020   25.2950  -30.1450 C   0  0  0  0  0  0  0  0  0  0  0  0
   -4.4127   26.3722  -30.0727 H   0  0  0  0  0  0  0  0  0  0  0  0
   -5.1740   24.4270  -30.6510 C   0  0  0  0  0  0  0  0  0  0  0  0
   -6.1493   24.8249  -30.9680 H   0  0  0  0  0  0  0  0  0  0  0  0
   -5.6390   20.8890  -31.8450 C   0  0  0  0  0  0  0  0  0  0  0  0
   -4.5901   20.5600  -31.8857 H   0  0  0  0  0  0  0  0  0  0  0  0
   -6.6520   20.0600  -32.3470 C   0  0  0  0  0  0  0  0  0  0  0  0
   -6.2730   18.7520  -32.9360 C   0  0  0  0  0  0  0  0  0  0  0  0
   -6.1860   17.6090  -32.1230 C   0  0  0  0  0  0  0  0  0  0  0  0
   -6.4127   17.6833  -31.0492 H   0  0  0  0  0  0  0  0  0  0  0  0
   -5.8130   16.3780  -32.6710 C   0  0  0  0  0  0  0  0  0  0  0  0
   -5.7519   15.4871  -32.0287 H   0  0  0  0  0  0  0  0  0  0  0  0
   -5.5170   16.2770  -34.0360 C   0  0  0  0  0  0  0  0  0  0  0  0
   -5.1450   15.0560  -34.5940 O   0  0  0  0  0  0  0  0  0  0  0  0
   -4.3040   14.5730  -34.2990 H   0  0  0  0  0  0  0  0  0  0  0  0
   -5.5910   17.4130  -34.8490 C   0  0  0  0  0  0  0  0  0  0  0  0
   -5.3566   17.3365  -35.9210 H   0  0  0  0  0  0  0  0  0  0  0  0
   -5.9620   18.6450  -34.3030 C   0  0  0  0  0  0  0  0  0  0  0  0
   -6.0109   19.5359  -34.9464 H   0  0  0  0  0  0  0  0  0  0  0  0
   -7.9970   20.4910  -32.2800 C   0  0  0  0  0  0  0  0  0  0  0  0
   -9.0680   19.6230  -32.7290 C   0  0  0  0  0  0  0  0  0  0  0  0
   -9.9220   18.9300  -33.0870 N   0  0  0  0  0  0  0  0  0  0  0  0
  1  2  1  0
  2  3  2  0
  3  4  1  0
  4  5  1  0
  5  6  1  0
  6  7  2  0
  7  8  1  0
  7  9  1  0
  9 10  1  0
  9 11  2  0
 11 12  1  0
 11 13  1  0
 13 14  1  0
 13 15  2  0
 15 16  1  0
  5 17  2  0
 17 18  1  0
 17 19  1  0
 19 20  1  0
 20 21  2  0
 21 22  1  0
 21 23  1  0
 23 24  1  0
 23 25  2  0
 25 26  1  0
 26 27  1  0
 25 28  1  0
 28 29  1  0
 28 30  2  0
 30 31  1  0
 19 32  2  0
 32 33  1  0
 33 34  3  0
 32  3  1  0
 15  6  1  0
 30 20  1  0
M  CHG  2   4  -1  12  -1
M  END
>  <UniqueID>  (33) 
32

>  <SMILES>  (33) 
[H]/N=c1/[n-]c(-c2ccc([O-])cc2)cc(-c2ccc(O)cc2)c1C#N

>  <Energy>  (33) 
50.80350716861321

>  <Genealogy>  (33) 
N#Cc1c(-c2ccc(O)cc2)cc(-c2ccc([O-])cc2)[n-]c1=N (protonated)
[H]/N=c1/[n-]c(-c2ccc([O-])cc2)cc(-c2ccc(O)cc2)c1C#N (cis-trans isomerization)
[H]/N=c1/[n-]c(-c2ccc([O-])cc2)cc(-c2ccc(O)cc2)c1C#N (3D coordinates assigned)
[H]/N=c1/[n-]c(-c2ccc([O-])cc2)cc(-c2ccc(O)cc2)c1C#N (optimized conformer: 50.80350716861321 kcal/mol)

>  <smiles>  (33) 
N#Cc1c(-c2ccc(O)cc2)cc(-c2ccc(O)cc2)[nH]c1=N

>  <score_type>  (33) 
oracle

>  <origin>  (33) 
adgpu

>  <m_score__min__energy>  (33) 
-10.41

>  <m_primary>  (33) 
energy

$$$$
33:0
     RDKit          3D

 60 64  0  0  0  0  0  0  0  0999 V2000
   -6.0090   18.2690  -30.9280 O   0  0  0  0  0  0  0  0  0  0  0  0
   -5.8700   17.7400  -32.3290 S   0  0  0  0  0  0  0  0  0  0  0  0
   -5.8520   16.2390  -32.2690 O   0  0  0  0  0  0  0  0  0  0  0  0
   -7.2230   18.2510  -33.2910 N   0  0  0  0  0  0  0  0  0  0  0  0
   -7.3160   19.7130  -33.2960 C   0  0  0  0  0  0  0  0  0  0  0  0
   -8.2910   20.1700  -32.2060 C   0  0  0  0  0  0  0  0  0  0  0  0
   -8.1210   21.6070  -31.9140 N   0  0  0  0  0  0  0  0  0  0  0  0
   -6.7970   22.0810  -32.3260 C   0  0  0  0  0  0  0  0  0  0  0  0
   -6.4850   23.2830  -31.4600 C   0  0  0  0  0  0  0  0  0  0  0  0
   -7.2170   23.0140  -30.1600 C   0  0  0  0  0  0  0  0  0  0  0  0
   -8.2370   21.9230  -30.4820 C   0  0  0  0  0  0  0  0  0  0  0  0
   -4.3580   18.2960  -33.0440 C   0  0  0  0  0  0  0  0  0  0  0  0
   -4.1440   19.6570  -33.3020 C   0  0  0  0  0  0  0  0  0  0  0  0
   -2.9260   20.0910  -33.8330 C   0  0  0  0  0  0  0  0  0  0  0  0
   -1.9080   19.1650  -34.1250 C   0  0  0  0  0  0  0  0  0  0  0  0
   -0.6010   19.6220  -34.6610 C   0  0  0  0  0  0  0  0  0  0  0  0
    0.4090   18.6930  -34.9620 C   0  0  0  0  0  0  0  0  0  0  0  0
    1.6150   19.1200  -35.5220 C   0  0  0  0  0  0  0  0  0  0  0  0
    1.8310   20.4770  -35.7750 C   0  0  0  0  0  0  0  0  0  0  0  0
    0.8430   21.4250  -35.4610 C   0  0  0  0  0  0  0  0  0  0  0  0
    1.0770   22.8630  -35.7120 C   0  0  0  0  0  0  0  0  0  0  0  0
    0.0730   23.7810  -35.7460 N   0  0  0  0  0  0  0  0  0  0  0  0
    0.7280   24.9220  -36.0040 C   0  0  0  0  0  0  0  0  0  0  0  0
    0.1900   26.1980  -36.1550 C   0  0  0  0  0  0  0  0  0  0  0  0
    1.0770   27.2630  -36.4430 C   0  0  0  0  0  0  0  0  0  0  0  0
    0.5790   28.6790  -36.5840 C   0  0  0  0  0  0  0  0  0  0  0  0
    1.3600   29.5280  -35.8200 F   0  0  0  0  0  0  0  0  0  0  0  0
   -0.7290   28.7490  -36.1400 F   0  0  0  0  0  0  0  0  0  0  0  0
    0.6280   29.1060  -37.9000 F   0  0  0  0  0  0  0  0  0  0  0  0
    2.4690   26.9980  -36.5650 C   0  0  0  0  0  0  0  0  0  0  0  0
    2.9710   25.6920  -36.4140 C   0  0  0  0  0  0  0  0  0  0  0  0
    2.0600   24.6820  -36.1250 C   0  0  0  0  0  0  0  0  0  0  0  0
    2.3150   23.3790  -35.9400 N   0  0  0  0  0  0  0  0  0  0  0  0
   -0.3730   20.9880  -34.9060 C   0  0  0  0  0  0  0  0  0  0  0  0
   -2.1370   17.7980  -33.8820 C   0  0  0  0  0  0  0  0  0  0  0  0
   -3.3530   17.3690  -33.3430 C   0  0  0  0  0  0  0  0  0  0  0  0
   -7.0430   17.9280  -34.2710 H   0  0  0  0  0  0  0  0  0  0  0  0
   -6.3225   20.1436  -33.1024 H   0  0  0  0  0  0  0  0  0  0  0  0
   -7.6798   20.0524  -34.2770 H   0  0  0  0  0  0  0  0  0  0  0  0
   -9.3215   19.9915  -32.5470 H   0  0  0  0  0  0  0  0  0  0  0  0
   -8.0847   19.5988  -31.2888 H   0  0  0  0  0  0  0  0  0  0  0  0
   -6.0451   21.2935  -32.1691 H   0  0  0  0  0  0  0  0  0  0  0  0
   -6.7821   22.3442  -33.3940 H   0  0  0  0  0  0  0  0  0  0  0  0
   -5.4020   23.3666  -31.2864 H   0  0  0  0  0  0  0  0  0  0  0  0
   -6.7971   24.2283  -31.9281 H   0  0  0  0  0  0  0  0  0  0  0  0
   -6.5142   22.6671  -29.3881 H   0  0  0  0  0  0  0  0  0  0  0  0
   -7.7007   23.9215  -29.7695 H   0  0  0  0  0  0  0  0  0  0  0  0
   -8.0263   21.0251  -29.8825 H   0  0  0  0  0  0  0  0  0  0  0  0
   -9.2548   22.2670  -30.2458 H   0  0  0  0  0  0  0  0  0  0  0  0
   -4.9381   20.3868  -33.0856 H   0  0  0  0  0  0  0  0  0  0  0  0
   -2.7627   21.1620  -34.0235 H   0  0  0  0  0  0  0  0  0  0  0  0
    0.2492   17.6244  -34.7557 H   0  0  0  0  0  0  0  0  0  0  0  0
    2.3973   18.3857  -35.7646 H   0  0  0  0  0  0  0  0  0  0  0  0
    2.7806   20.8051  -36.2229 H   0  0  0  0  0  0  0  0  0  0  0  0
   -0.8913   26.3728  -36.0535 H   0  0  0  0  0  0  0  0  0  0  0  0
    3.1622   27.8246  -36.7802 H   0  0  0  0  0  0  0  0  0  0  0  0
    4.0447   25.4780  -36.5207 H   0  0  0  0  0  0  0  0  0  0  0  0
   -1.1543   21.7225  -34.6609 H   0  0  0  0  0  0  0  0  0  0  0  0
   -1.3539   17.0624  -34.1178 H   0  0  0  0  0  0  0  0  0  0  0  0
   -3.5208   16.2986  -33.1530 H   0  0  0  0  0  0  0  0  0  0  0  0
  1  2  2  0
  2  3  2  0
  2  4  1  0
  4  5  1  0
  5  6  1  0
  6  7  1  0
  7  8  1  0
  8  9  1  0
  9 10  1  0
 10 11  1  0
  2 12  1  0
 12 13  2  0
 13 14  1  0
 14 15  2  0
 15 16  1  0
 16 17  2  0
 17 18  1  0
 18 19  2  0
 19 20  1  0
 20 21  1  0
 21 22  2  0
 22 23  1  0
 23 24  2  0
 24 25  1  0
 25 26  1  0
 26 27  1  0
 26 28  1  0
 26 29  1  0
 25 30  2  0
 30 31  1  0
 31 32  2  0
 32 33  1  0
 20 34  2  0
 15 35  1  0
 35 36  2  0
 11  7  1  0
 36 12  1  0
 34 16  1  0
 33 21  1  0
 32 23  1  0
  4 37  1  0
  5 38  1  0
  5 39  1  0
  6 40  1  0
  6 41  1  0
  8 42  1  0
  8 43  1  0
  9 44  1  0
  9 45  1  0
 10 46  1  0
 10 47  1  0
 11 48  1  0
 11 49  1  0
 13 50  1  0
 14 51  1  0
 17 52  1  0
 18 53  1  0
 19 54  1  0
 24 55  1  0
 30 56  1  0
 31 57  1  0
 34 58  1  0
 35 59  1  0
 36 60  1  0
M  CHG  1  33  -1
M  END
>  <UniqueID>  (34) 
33

>  <SMILES>  (34) 
O=S(=O)(NCCN1CCCC1)c1ccc(-c2cccc(-c3nc4cc(C(F)(F)F)ccc4[n-]3)c2)cc1

>  <Energy>  (34) 
104.6940395591081

>  <Genealogy>  (34) 
O=S(=O)(NCCN1CCCC1)c1ccc(-c2cccc(-c3nc4cc(C(F)(F)F)ccc4[n-]3)c2)cc1 (protonated)
O=S(=O)(NCCN1CCCC1)c1ccc(-c2cccc(-c3nc4cc(C(F)(F)F)ccc4[n-]3)c2)cc1 (3D coordinates assigned)
O=S(=O)(NCCN1CCCC1)c1ccc(-c2cccc(-c3nc4cc(C(F)(F)F)ccc4[n-]3)c2)cc1 (nonaromatic ring conformer: 104.6940395591081 kcal/mol)

>  <smiles>  (34) 
O=S(=O)(NCCN1CCCC1)c1ccc(-c2cccc(-c3nc4cc(C(F)(F)F)ccc4[nH]3)c2)cc1

>  <score_type>  (34) 
oracle

>  <origin>  (34) 
adgpu

>  <m_score__min__energy>  (34) 
-10.31

>  <m_primary>  (34) 
energy

$$$$
34:0
     RDKit          3D

 34 36  0  0  0  0  0  0  0  0999 V2000
   -2.4730   23.4418  -26.1392 H   0  0  0  0  0  0  0  0  0  0  0  0
   -2.5960   23.7790  -27.1790 C   0  0  0  0  0  0  0  0  0  0  0  0
   -4.0570   24.1650  -27.9280 S   0  0  0  0  0  0  0  0  0  0  0  0
   -3.3200   24.5490  -29.3960 C   0  0  0  0  0  0  0  0  0  0  0  0
   -3.9250   24.9440  -30.4770 N   0  0  0  0  0  0  0  0  0  0  0  0
   -5.3680   25.1490  -30.6040 C   0  0  0  0  0  0  0  0  0  0  0  0
   -5.5543   26.0145  -31.2569 H   0  0  0  0  0  0  0  0  0  0  0  0
   -5.7904   25.3291  -29.6044 H   0  0  0  0  0  0  0  0  0  0  0  0
   -6.0250   23.9310  -31.1970 C   0  0  0  0  0  0  0  0  0  0  0  0
   -7.4200   23.7950  -31.1500 C   0  0  0  0  0  0  0  0  0  0  0  0
   -8.0328   24.5904  -30.7008 H   0  0  0  0  0  0  0  0  0  0  0  0
   -8.0350   22.6540  -31.6710 C   0  0  0  0  0  0  0  0  0  0  0  0
   -9.1292   22.5503  -31.6259 H   0  0  0  0  0  0  0  0  0  0  0  0
   -7.2620   21.6450  -32.2490 C   0  0  0  0  0  0  0  0  0  0  0  0
   -7.7503   20.7441  -32.6489 H   0  0  0  0  0  0  0  0  0  0  0  0
   -5.8710   21.7720  -32.3230 C   0  0  0  0  0  0  0  0  0  0  0  0
   -5.1300   20.7270  -32.8940 O   0  0  0  0  0  0  0  0  0  0  0  0
   -5.5840   19.4120  -33.0780 C   0  0  0  0  0  0  0  0  0  0  0  0
   -5.6390   18.8140  -34.3510 C   0  0  0  0  0  0  0  0  0  0  0  0
   -5.3066   19.3765  -35.2359 H   0  0  0  0  0  0  0  0  0  0  0  0
   -6.1150   17.5070  -34.4940 C   0  0  0  0  0  0  0  0  0  0  0  0
   -6.1470   17.0397  -35.4893 H   0  0  0  0  0  0  0  0  0  0  0  0
   -6.5500   16.7940  -33.3740 C   0  0  0  0  0  0  0  0  0  0  0  0
   -6.9198   15.7642  -33.4868 H   0  0  0  0  0  0  0  0  0  0  0  0
   -6.5150   17.3900  -32.1100 C   0  0  0  0  0  0  0  0  0  0  0  0
   -6.8617   16.8303  -31.2288 H   0  0  0  0  0  0  0  0  0  0  0  0
   -6.0400   18.6960  -31.9650 C   0  0  0  0  0  0  0  0  0  0  0  0
   -6.0243   19.1645  -30.9699 H   0  0  0  0  0  0  0  0  0  0  0  0
   -5.2530   22.9140  -31.7820 C   0  0  0  0  0  0  0  0  0  0  0  0
   -4.1579   23.0111  -31.8174 H   0  0  0  0  0  0  0  0  0  0  0  0
   -1.9820   24.3870  -29.3300 N   0  0  0  0  0  0  0  0  0  0  0  0
   -1.3300   24.5670  -30.1250 H   0  0  0  0  0  0  0  0  0  0  0  0
   -1.5740   23.9610  -28.1040 C   0  0  0  0  0  0  0  0  0  0  0  0
   -0.5170   23.7749  -27.8631 H   0  0  0  0  0  0  0  0  0  0  0  0
  1  2  1  0
  2  3  1  0
  3  4  1  0
  4  5  2  0
  5  6  1  0
  6  7  1  0
  6  8  1  0
  6  9  1  0
  9 10  2  0
 10 11  1  0
 10 12  1  0
 12 13  1  0
 12 14  2  0
 14 15  1  0
 14 16  1  0
 16 17  1  0
 17 18  1  0
 18 19  2  0
 19 20  1  0
 19 21  1  0
 21 22  1  0
 21 23  2  0
 23 24  1  0
 23 25  1  0
 25 26  1  0
 25 27  2  0
 27 28  1  0
 16 29  2  0
 29 30  1  0
  4 31  1  0
 31 32  1  0
 31 33  1  0
 33 34  1  0
 33  2  2  0
 29  9  1  0
 27 18  1  0
M  END
>  <UniqueID>  (35) 
34

>  <SMILES>  (35) 
c1ccc(Oc2cccc(C/N=c3/[nH]ccs3)c2)cc1

>  <Energy>  (35) 
72.09418405830914

>  <Genealogy>  (35) 
c1ccc(Oc2cccc(C/N=c3/[nH]ccs3)c2)cc1 (cis-trans isomerization)
c1ccc(Oc2cccc(C/N=c3/[nH]ccs3)c2)cc1 (3D coordinates assigned)
c1ccc(Oc2cccc(C/N=c3/[nH]ccs3)c2)cc1 (optimized conformer: 72.09418405830914 kcal/mol)

>  <smiles>  (35) 
c1ccc(Oc2cccc(CN=c3[nH]ccs3)c2)cc1

>  <score_type>  (35) 
oracle

>  <origin>  (35) 
adgpu

>  <m_score__min__energy>  (35) 
-7.9900000000000002

>  <m_primary>  (35) 
energy

$$$$
35:0
     RDKit          3D

 37 38  0  0  0  0  0  0  0  0999 V2000
   -2.7310   20.7380  -30.3950 C   0  0  0  0  0  0  0  0  0  0  0  0
   -1.8970   22.1930  -31.0990 S   0  0  0  0  0  0  0  0  0  0  0  0
   -1.8770   23.0860  -29.5390 C   0  0  0  0  0  0  0  0  0  0  0  0
   -1.0580   22.6230  -28.5010 C   0  0  0  0  0  0  0  0  0  0  0  0
   -1.0180   23.3010  -27.2800 C   0  0  0  0  0  0  0  0  0  0  0  0
    0.0980   22.6610  -25.8680 Br  0  0  0  0  0  0  0  0  0  0  0  0
   -1.7940   24.4470  -27.0930 C   0  0  0  0  0  0  0  0  0  0  0  0
   -2.6090   24.9200  -28.1260 C   0  0  0  0  0  0  0  0  0  0  0  0
   -2.6580   24.2440  -29.3590 C   0  0  0  0  0  0  0  0  0  0  0  0
   -3.4760   24.7090  -30.4450 N   0  0  0  0  0  0  0  0  0  0  0  0
   -5.2100   24.6750  -30.4820 S   0  0  0  0  0  0  0  0  0  0  0  0
   -5.7330   24.7120  -29.0740 O   0  0  0  0  0  0  0  0  0  0  0  0
   -5.7090   25.8850  -31.2210 O   0  0  0  0  0  0  0  0  0  0  0  0
   -5.7610   23.1930  -31.2580 C   0  0  0  0  0  0  0  0  0  0  0  0
   -4.9320   22.5110  -32.1590 C   0  0  0  0  0  0  0  0  0  0  0  0
   -5.3690   21.3250  -32.7580 C   0  0  0  0  0  0  0  0  0  0  0  0
   -6.6410   20.8060  -32.4580 C   0  0  0  0  0  0  0  0  0  0  0  0
   -7.1260   19.6070  -33.0860 N   0  0  0  0  0  0  0  0  0  0  0  0
   -6.8560   18.2850  -32.5960 C   0  0  0  0  0  0  0  0  0  0  0  0
   -7.1900   17.1000  -33.4420 C   0  0  0  0  0  0  0  0  0  0  0  0
   -6.3790   18.1120  -31.4420 O   0  0  0  0  0  0  0  0  0  0  0  0
   -7.4760   21.5070  -31.5740 C   0  0  0  0  0  0  0  0  0  0  0  0
   -7.0350   22.6890  -30.9700 C   0  0  0  0  0  0  0  0  0  0  0  0
   -2.6995   20.7929  -29.2968 H   0  0  0  0  0  0  0  0  0  0  0  0
   -3.7782   20.7172  -30.7312 H   0  0  0  0  0  0  0  0  0  0  0  0
   -2.2197   19.8239  -30.7312 H   0  0  0  0  0  0  0  0  0  0  0  0
   -0.4440   21.7222  -28.6478 H   0  0  0  0  0  0  0  0  0  0  0  0
   -1.7640   24.9789  -26.1306 H   0  0  0  0  0  0  0  0  0  0  0  0
   -3.2150   25.8253  -27.9739 H   0  0  0  0  0  0  0  0  0  0  0  0
   -3.9345   22.9097  -32.3958 H   0  0  0  0  0  0  0  0  0  0  0  0
   -4.7149   20.7960  -33.4667 H   0  0  0  0  0  0  0  0  0  0  0  0
   -7.7790   19.7040  -33.8970 H   0  0  0  0  0  0  0  0  0  0  0  0
   -7.4313   16.2438  -32.7949 H   0  0  0  0  0  0  0  0  0  0  0  0
   -8.0568   17.3354  -34.0770 H   0  0  0  0  0  0  0  0  0  0  0  0
   -6.3279   16.8481  -34.0770 H   0  0  0  0  0  0  0  0  0  0  0  0
   -8.4837   21.1243  -31.3548 H   0  0  0  0  0  0  0  0  0  0  0  0
   -7.6907   23.2238  -30.2671 H   0  0  0  0  0  0  0  0  0  0  0  0
  1  2  1  0
  2  3  1  0
  3  4  2  0
  4  5  1  0
  5  6  1  0
  5  7  2  0
  7  8  1  0
  8  9  2  0
  9 10  1  0
 10 11  1  0
 11 12  2  0
 11 13  2  0
 11 14  1  0
 14 15  2  0
 15 16  1  0
 16 17  2  0
 17 18  1  0
 18 19  1  0
 19 20  1  0
 19 21  2  0
 17 22  1  0
 22 23  2  0
  9  3  1  0
 23 14  1  0
  1 24  1  0
  1 25  1  0
  1 26  1  0
  4 27  1  0
  7 28  1  0
  8 29  1  0
 15 30  1  0
 16 31  1  0
 18 32  1  0
 20 33  1  0
 20 34  1  0
 20 35  1  0
 22 36  1  0
 23 37  1  0
M  CHG  1  10  -1
M  END
>  <UniqueID>  (36) 
35

>  <SMILES>  (36) 
CSc1cc(Br)ccc1[N-]S(=O)(=O)c1ccc(NC(C)=O)cc1

>  <Energy>  (36) 
37.93083063662991

>  <Genealogy>  (36) 
CSc1cc(Br)ccc1[N-]S(=O)(=O)c1ccc(NC(C)=O)cc1 (protonated)
CSc1cc(Br)ccc1[N-]S(=O)(=O)c1ccc(NC(C)=O)cc1 (3D coordinates assigned)
CSc1cc(Br)ccc1[N-]S(=O)(=O)c1ccc(NC(C)=O)cc1 (optimized conformer: 37.93083063662991 kcal/mol)

>  <smiles>  (36) 
CSc1cc(Br)ccc1NS(=O)(=O)c1ccc(NC(C)=O)cc1

>  <score_type>  (36) 
oracle

>  <origin>  (36) 
adgpu

>  <m_score__min__energy>  (36) 
-9.8300000000000001

>  <m_primary>  (36) 
energy

$$$$
36:0
     RDKit          3D

 59 62  0  0  0  0  0  0  0  0999 V2000
   -0.7960   27.1030  -25.4840 C   0  0  0  0  0  0  0  0  0  0  0  0
   -1.1390   26.5460  -26.7490 O   0  0  0  0  0  0  0  0  0  0  0  0
   -1.2000   25.1690  -27.0170 C   0  0  0  0  0  0  0  0  0  0  0  0
   -1.0340   24.1990  -26.0100 C   0  0  0  0  0  0  0  0  0  0  0  0
   -1.1080   22.8390  -26.3220 C   0  0  0  0  0  0  0  0  0  0  0  0
   -1.3460   22.4250  -27.6410 C   0  0  0  0  0  0  0  0  0  0  0  0
   -1.4960   20.9590  -27.9550 C   0  0  0  0  0  0  0  0  0  0  0  0
   -2.1100   20.7980  -29.2740 N   0  0  0  0  0  0  0  0  0  0  0  0
   -3.3940   21.1030  -29.5780 C   0  0  0  0  0  0  0  0  0  0  0  0
   -3.5880   21.0410  -30.9490 C   0  0  0  0  0  0  0  0  0  0  0  0
   -5.0140   21.5960  -31.8100 S   0  0  0  0  0  0  0  0  0  0  0  0
   -6.1470   21.7510  -30.8350 O   0  0  0  0  0  0  0  0  0  0  0  0
   -4.7220   22.9370  -32.4220 O   0  0  0  0  0  0  0  0  0  0  0  0
   -5.4720   20.4100  -33.0880 C   0  0  0  0  0  0  0  0  0  0  0  0
   -6.9760   20.4860  -33.4270 C   0  0  0  0  0  0  0  0  0  0  0  0
   -7.8680   19.9220  -32.3070 C   0  0  0  0  0  0  0  0  0  0  0  0
   -7.2990   18.6480  -31.6460 C   0  0  0  0  0  0  0  0  0  0  0  0
   -6.1880   17.9960  -32.4770 C   0  0  0  0  0  0  0  0  0  0  0  0
   -5.0220   18.9710  -32.7140 C   0  0  0  0  0  0  0  0  0  0  0  0
   -2.3690   20.6980  -31.4950 C   0  0  0  0  0  0  0  0  0  0  0  0
   -1.9640   20.5730  -32.8220 C   0  0  0  0  0  0  0  0  0  0  0  0
   -0.6070   20.2890  -33.0840 C   0  0  0  0  0  0  0  0  0  0  0  0
   -0.1760   20.1250  -34.4450 N   0  0  0  0  0  0  0  0  0  0  0  0
    0.5430   21.1230  -35.1870 C   0  0  0  0  0  0  0  0  0  0  0  0
    1.1170   20.7800  -36.5220 C   0  0  0  0  0  0  0  0  0  0  0  0
    0.6630   22.2960  -34.7410 O   0  0  0  0  0  0  0  0  0  0  0  0
    0.2950   20.1220  -32.0000 C   0  0  0  0  0  0  0  0  0  0  0  0
   -0.1410   20.2710  -30.6710 C   0  0  0  0  0  0  0  0  0  0  0  0
   -1.4900   20.5600  -30.4500 C   0  0  0  0  0  0  0  0  0  0  0  0
   -1.5120   23.3910  -28.6440 C   0  0  0  0  0  0  0  0  0  0  0  0
   -1.4360   24.7530  -28.3350 C   0  0  0  0  0  0  0  0  0  0  0  0
   -1.6010   25.6960  -29.3430 O   0  0  0  0  0  0  0  0  0  0  0  0
   -1.1907   26.4620  -24.6819 H   0  0  0  0  0  0  0  0  0  0  0  0
    0.2986   27.1677  -25.3965 H   0  0  0  0  0  0  0  0  0  0  0  0
   -1.2309   28.1096  -25.3965 H   0  0  0  0  0  0  0  0  0  0  0  0
   -0.8452   24.5133  -24.9729 H   0  0  0  0  0  0  0  0  0  0  0  0
   -0.9788   22.0883  -25.5284 H   0  0  0  0  0  0  0  0  0  0  0  0
   -0.5053   20.4810  -27.9519 H   0  0  0  0  0  0  0  0  0  0  0  0
   -2.1359   20.4869  -27.1949 H   0  0  0  0  0  0  0  0  0  0  0  0
   -4.1705   21.3624  -28.8433 H   0  0  0  0  0  0  0  0  0  0  0  0
   -4.9310   20.6854  -34.0053 H   0  0  0  0  0  0  0  0  0  0  0  0
   -7.2459   21.5391  -33.5948 H   0  0  0  0  0  0  0  0  0  0  0  0
   -7.1448   19.8739  -34.3253 H   0  0  0  0  0  0  0  0  0  0  0  0
   -7.9831   20.6941  -31.5320 H   0  0  0  0  0  0  0  0  0  0  0  0
   -8.8278   19.6452  -32.7676 H   0  0  0  0  0  0  0  0  0  0  0  0
   -6.8904   18.9154  -30.6604 H   0  0  0  0  0  0  0  0  0  0  0  0
   -8.1209   17.9218  -31.5622 H   0  0  0  0  0  0  0  0  0  0  0  0
   -5.8123   17.1115  -31.9418 H   0  0  0  0  0  0  0  0  0  0  0  0
   -6.6065   17.7112  -33.4536 H   0  0  0  0  0  0  0  0  0  0  0  0
   -4.4219   19.0238  -31.7936 H   0  0  0  0  0  0  0  0  0  0  0  0
   -4.4494   18.5827  -33.5692 H   0  0  0  0  0  0  0  0  0  0  0  0
   -2.6841   20.6927  -33.6449 H   0  0  0  0  0  0  0  0  0  0  0  0
   -0.4880   19.2700  -34.9600 H   0  0  0  0  0  0  0  0  0  0  0  0
    2.0539   20.2201  -36.3854 H   0  0  0  0  0  0  0  0  0  0  0  0
    0.3993   20.1626  -37.0821 H   0  0  0  0  0  0  0  0  0  0  0  0
    1.3207   21.7046  -37.0821 H   0  0  0  0  0  0  0  0  0  0  0  0
    1.3473   19.8731  -32.2020 H   0  0  0  0  0  0  0  0  0  0  0  0
    0.5598   20.1631  -29.8300 H   0  0  0  0  0  0  0  0  0  0  0  0
   -1.7032   23.0755  -29.6803 H   0  0  0  0  0  0  0  0  0  0  0  0
  1  2  1  0
  2  3  1  0
  3  4  2  0
  4  5  1  0
  5  6  2  0
  6  7  1  0
  7  8  1  0
  8  9  1  0
  9 10  2  0
 10 11  1  0
 11 12  2  0
 11 13  2  0
 11 14  1  0
 14 15  1  0
 15 16  1  0
 16 17  1  0
 17 18  1  0
 18 19  1  0
 10 20  1  0
 20 21  2  0
 21 22  1  0
 22 23  1  0
 23 24  1  0
 24 25  1  0
 24 26  2  0
 22 27  2  0
 27 28  1  0
 28 29  2  0
  6 30  1  0
 30 31  2  0
 31 32  1  0
 31  3  1  0
 29  8  1  0
 19 14  1  0
 29 20  1  0
  1 33  1  0
  1 34  1  0
  1 35  1  0
  4 36  1  0
  5 37  1  0
  7 38  1  0
  7 39  1  0
  9 40  1  0
 14 41  1  0
 15 42  1  0
 15 43  1  0
 16 44  1  0
 16 45  1  0
 17 46  1  0
 17 47  1  0
 18 48  1  0
 18 49  1  0
 19 50  1  0
 19 51  1  0
 21 52  1  0
 23 53  1  0
 25 54  1  0
 25 55  1  0
 25 56  1  0
 27 57  1  0
 28 58  1  0
 30 59  1  0
M  CHG  1  32  -1
M  END
>  <UniqueID>  (37) 
36

>  <SMILES>  (37) 
COc1ccc(Cn2cc(S(=O)(=O)C3CCCCC3)c3cc(NC(C)=O)ccc32)cc1[O-]

>  <Energy>  (37) 
94.13722600502238

>  <Genealogy>  (37) 
COc1ccc(Cn2cc(S(=O)(=O)C3CCCCC3)c3cc(NC(C)=O)ccc32)cc1[O-] (protonated)
COc1ccc(Cn2cc(S(=O)(=O)C3CCCCC3)c3cc(NC(C)=O)ccc32)cc1[O-] (3D coordinates assigned)
COc1ccc(Cn2cc(S(=O)(=O)C3CCCCC3)c3cc(NC(C)=O)ccc32)cc1[O-] (nonaromatic ring conformer: 94.13722600502238 kcal/mol)

>  <smiles>  (37) 
COc1ccc(Cn2cc(S(=O)(=O)C3CCCCC3)c3cc(NC(C)=O)ccc32)cc1O

>  <score_type>  (37) 
oracle

>  <origin>  (37) 
adgpu

>  <m_score__min__energy>  (37) 
-12.67

>  <m_primary>  (37) 
energy

$$$$
37:0
     RDKit          3D

 64 68  0  0  0  0  0  0  0  0999 V2000
   -8.4420   20.9970  -32.3420 C   0  0  0  0  0  0  0  0  0  0  0  0
   -7.5010   19.8340  -32.4450 C   0  0  0  0  0  0  0  0  0  0  0  0
   -7.9780   18.5230  -32.2800 C   0  0  0  0  0  0  0  0  0  0  0  0
   -7.0930   17.4410  -32.3320 C   0  0  0  0  0  0  0  0  0  0  0  0
   -5.7290   17.6600  -32.5380 C   0  0  0  0  0  0  0  0  0  0  0  0
   -5.2400   18.9650  -32.6940 C   0  0  0  0  0  0  0  0  0  0  0  0
   -3.5190   19.2470  -32.9170 S   0  0  0  0  0  0  0  0  0  0  0  0
   -3.2630   19.7350  -34.3160 O   0  0  0  0  0  0  0  0  0  0  0  0
   -2.7530   17.9690  -32.7210 O   0  0  0  0  0  0  0  0  0  0  0  0
   -2.9790   20.4460  -31.7470 C   0  0  0  0  0  0  0  0  0  0  0  0
   -1.6740   20.9600  -31.8080 C   0  0  0  0  0  0  0  0  0  0  0  0
   -1.2530   21.9180  -30.8810 C   0  0  0  0  0  0  0  0  0  0  0  0
   -2.1350   22.3720  -29.8900 C   0  0  0  0  0  0  0  0  0  0  0  0
   -1.6810   23.3550  -28.8900 C   0  0  0  0  0  0  0  0  0  0  0  0
   -2.2110   24.6480  -28.9150 C   0  0  0  0  0  0  0  0  0  0  0  0
   -1.8280   25.5630  -27.9880 N   0  0  0  0  0  0  0  0  0  0  0  0
   -0.9270   25.2830  -27.0040 C   0  0  0  0  0  0  0  0  0  0  0  0
   -0.5820   26.3880  -26.0060 C   0  0  0  0  0  0  0  0  0  0  0  0
    0.1980   27.6170  -26.5250 C   0  0  0  0  0  0  0  0  0  0  0  0
   -0.4890   28.2970  -27.5190 F   0  0  0  0  0  0  0  0  0  0  0  0
    0.4270   28.4910  -25.4780 F   0  0  0  0  0  0  0  0  0  0  0  0
    1.4140   27.2050  -27.0410 F   0  0  0  0  0  0  0  0  0  0  0  0
   -1.5970   26.6650  -24.8980 C   0  0  0  0  0  0  0  0  0  0  0  0
   -0.2780   25.9650  -24.5690 C   0  0  0  0  0  0  0  0  0  0  0  0
   -0.3680   23.9900  -26.9510 C   0  0  0  0  0  0  0  0  0  0  0  0
   -0.7370   23.0210  -27.8960 C   0  0  0  0  0  0  0  0  0  0  0  0
   -0.1490   21.6290  -27.8070 C   0  0  0  0  0  0  0  0  0  0  0  0
   -1.2160   20.6060  -27.8120 N   0  0  0  0  0  0  0  0  0  0  0  0
   -1.6680   20.2850  -26.4360 C   0  0  0  0  0  0  0  0  0  0  0  0
   -2.3970   18.9370  -26.3920 C   0  0  0  0  0  0  0  0  0  0  0  0
   -1.5300   17.8200  -26.8120 N   0  0  0  0  0  0  0  0  0  0  0  0
   -0.4310   18.2240  -27.7080 C   0  0  0  0  0  0  0  0  0  0  0  0
   -0.8280   19.4090  -28.6010 C   0  0  0  0  0  0  0  0  0  0  0  0
   -3.4460   21.8750  -29.8410 C   0  0  0  0  0  0  0  0  0  0  0  0
   -3.8640   20.9130  -30.7660 C   0  0  0  0  0  0  0  0  0  0  0  0
   -6.1270   20.0500  -32.6330 C   0  0  0  0  0  0  0  0  0  0  0  0
   -8.6273   21.2260  -31.2822 H   0  0  0  0  0  0  0  0  0  0  0  0
   -7.9963   21.8740  -32.8341 H   0  0  0  0  0  0  0  0  0  0  0  0
   -9.3927   20.7441  -32.8341 H   0  0  0  0  0  0  0  0  0  0  0  0
   -9.0503   18.3469  -32.1094 H   0  0  0  0  0  0  0  0  0  0  0  0
   -7.4720   16.4156  -32.2104 H   0  0  0  0  0  0  0  0  0  0  0  0
   -5.0364   16.8064  -32.5780 H   0  0  0  0  0  0  0  0  0  0  0  0
   -0.9814   20.6082  -32.5868 H   0  0  0  0  0  0  0  0  0  0  0  0
   -0.2287   22.3161  -30.9291 H   0  0  0  0  0  0  0  0  0  0  0  0
   -2.9416   24.9255  -29.6891 H   0  0  0  0  0  0  0  0  0  0  0  0
   -1.7721   27.6963  -24.5578 H   0  0  0  0  0  0  0  0  0  0  0  0
   -2.6608   26.4329  -24.7419 H   0  0  0  0  0  0  0  0  0  0  0  0
    0.4959   26.4927  -23.9923 H   0  0  0  0  0  0  0  0  0  0  0  0
    0.0004   25.0207  -24.0783 H   0  0  0  0  0  0  0  0  0  0  0  0
    0.3604   23.7398  -26.1656 H   0  0  0  0  0  0  0  0  0  0  0  0
    0.5143   21.4622  -28.6685 H   0  0  0  0  0  0  0  0  0  0  0  0
    0.4153   21.5446  -26.8666 H   0  0  0  0  0  0  0  0  0  0  0  0
   -0.7923   20.2411  -25.7718 H   0  0  0  0  0  0  0  0  0  0  0  0
   -2.3657   21.0691  -26.1068 H   0  0  0  0  0  0  0  0  0  0  0  0
   -2.7385   18.7525  -25.3628 H   0  0  0  0  0  0  0  0  0  0  0  0
   -3.2439   18.9884  -27.0920 H   0  0  0  0  0  0  0  0  0  0  0  0
   -1.1080   17.3850  -25.9580 H   0  0  0  0  0  0  0  0  0  0  0  0
    0.4374   18.5134  -27.0980 H   0  0  0  0  0  0  0  0  0  0  0  0
   -0.1905   17.3710  -28.3595 H   0  0  0  0  0  0  0  0  0  0  0  0
    0.0267   19.6702  -29.2423 H   0  0  0  0  0  0  0  0  0  0  0  0
   -1.7000   19.1027  -29.1975 H   0  0  0  0  0  0  0  0  0  0  0  0
   -4.1451   22.2419  -29.0751 H   0  0  0  0  0  0  0  0  0  0  0  0
   -4.8911   20.5215  -30.7234 H   0  0  0  0  0  0  0  0  0  0  0  0
   -5.7435   21.0761  -32.7331 H   0  0  0  0  0  0  0  0  0  0  0  0
  1  2  1  0
  2  3  2  0
  3  4  1  0
  4  5  2  0
  5  6  1  0
  6  7  1  0
  7  8  2  0
  7  9  2  0
  7 10  1  0
 10 11  2  0
 11 12  1  0
 12 13  2  0
 13 14  1  0
 14 15  2  0
 15 16  1  0
 16 17  2  0
 17 18  1  0
 18 19  1  0
 19 20  1  0
 19 21  1  0
 19 22  1  0
 18 23  1  0
 23 24  1  0
 17 25  1  0
 25 26  2  0
 26 27  1  0
 27 28  1  0
 28 29  1  0
 29 30  1  0
 30 31  1  0
 31 32  1  0
 32 33  1  0
 13 34  1  0
 34 35  2  0
  6 36  2  0
 36  2  1  0
 35 10  1  0
 26 14  1  0
 33 28  1  0
 24 18  1  0
  1 37  1  0
  1 38  1  0
  1 39  1  0
  3 40  1  0
  4 41  1  0
  5 42  1  0
 11 43  1  0
 12 44  1  0
 15 45  1  0
 23 46  1  0
 23 47  1  0
 24 48  1  0
 24 49  1  0
 25 50  1  0
 27 51  1  0
 27 52  1  0
 29 53  1  0
 29 54  1  0
 30 55  1  0
 30 56  1  0
 31 57  1  0
 32 58  1  0
 32 59  1  0
 33 60  1  0
 33 61  1  0
 34 62  1  0
 35 63  1  0
 36 64  1  0
M  END
>  <UniqueID>  (38) 
37

>  <SMILES>  (38) 
Cc1cccc(S(=O)(=O)c2ccc(-c3cnc(C4(C(F)(F)F)CC4)cc3CN3CCNCC3)cc2)c1

>  <Energy>  (38) 
358.3499369072175

>  <Genealogy>  (38) 
Cc1cccc(S(=O)(=O)c2ccc(-c3cnc(C4(C(F)(F)F)CC4)cc3CN3CCNCC3)cc2)c1 (3D coordinates assigned)
Cc1cccc(S(=O)(=O)c2ccc(-c3cnc(C4(C(F)(F)F)CC4)cc3CN3CCNCC3)cc2)c1 (nonaromatic ring conformer: 358.3499369072175 kcal/mol)

>  <smiles>  (38) 
Cc1cccc(S(=O)(=O)c2ccc(-c3cnc(C4(C(F)(F)F)CC4)cc3CN3CCNCC3)cc2)c1

>  <score_type>  (38) 
oracle

>  <origin>  (38) 
adgpu

>  <m_score__min__energy>  (38) 
-9.7400000000000002

>  <m_primary>  (38) 
energy

$$$$
38:0
     RDKit          3D

 45 47  0  0  0  0  0  0  0  0999 V2000
   -0.9410   19.3220  -27.1620 C   0  0  0  0  0  0  0  0  0  0  0  0
   -0.4700   20.6660  -27.1850 O   0  0  0  0  0  0  0  0  0  0  0  0
   -1.0950   21.7120  -27.8800 C   0  0  0  0  0  0  0  0  0  0  0  0
   -0.7690   22.0360  -29.2110 C   0  0  0  0  0  0  0  0  0  0  0  0
   -1.4200   23.0890  -29.8610 C   0  0  0  0  0  0  0  0  0  0  0  0
   -2.3950   23.8440  -29.1860 C   0  0  0  0  0  0  0  0  0  0  0  0
   -3.1050   24.9150  -29.8260 N   0  0  0  0  0  0  0  0  0  0  0  0
   -4.4440   24.8630  -30.3330 C   0  0  0  0  0  0  0  0  0  0  0  0
   -4.8350   25.6800  -31.2100 O   0  0  0  0  0  0  0  0  0  0  0  0
   -5.3880   23.8290  -29.8100 C   0  0  0  0  0  0  0  0  0  0  0  0
   -5.3720   22.6250  -30.7090 C   0  0  0  0  0  0  0  0  0  0  0  0
   -6.4350   22.3870  -31.5940 C   0  0  0  0  0  0  0  0  0  0  0  0
   -6.4440   21.2430  -32.3970 C   0  0  0  0  0  0  0  0  0  0  0  0
   -5.3980   20.3100  -32.3150 C   0  0  0  0  0  0  0  0  0  0  0  0
   -5.3950   19.1020  -33.1690 C   0  0  0  0  0  0  0  0  0  0  0  0
   -4.4490   18.9160  -34.1760 C   0  0  0  0  0  0  0  0  0  0  0  0
   -4.7720   17.4650  -34.9550 S   0  0  0  0  0  0  0  0  0  0  0  0
   -6.1100   17.0450  -34.0310 C   0  0  0  0  0  0  0  0  0  0  0  0
   -6.8830   15.7740  -34.1910 C   0  0  0  0  0  0  0  0  0  0  0  0
   -6.3160   18.0310  -33.0630 C   0  0  0  0  0  0  0  0  0  0  0  0
   -7.4050   17.9470  -32.0290 C   0  0  0  0  0  0  0  0  0  0  0  0
   -4.3310   20.5510  -31.4330 C   0  0  0  0  0  0  0  0  0  0  0  0
   -4.3250   21.6940  -30.6290 C   0  0  0  0  0  0  0  0  0  0  0  0
   -2.7330   23.5050  -27.8700 C   0  0  0  0  0  0  0  0  0  0  0  0
   -2.0820   22.4530  -27.2210 C   0  0  0  0  0  0  0  0  0  0  0  0
   -1.0567   18.9918  -26.1191 H   0  0  0  0  0  0  0  0  0  0  0  0
   -1.9126   19.2651  -27.6746 H   0  0  0  0  0  0  0  0  0  0  0  0
   -0.2174   18.6711  -27.6746 H   0  0  0  0  0  0  0  0  0  0  0  0
    0.0016   21.4579  -29.7420 H   0  0  0  0  0  0  0  0  0  0  0  0
   -1.1682   23.3276  -30.9049 H   0  0  0  0  0  0  0  0  0  0  0  0
   -5.0799   23.5323  -28.7965 H   0  0  0  0  0  0  0  0  0  0  0  0
   -6.4050   24.2471  -29.7804 H   0  0  0  0  0  0  0  0  0  0  0  0
   -7.2660   23.1051  -31.6560 H   0  0  0  0  0  0  0  0  0  0  0  0
   -7.2752   21.0727  -33.0971 H   0  0  0  0  0  0  0  0  0  0  0  0
   -3.6274   19.6057  -34.4195 H   0  0  0  0  0  0  0  0  0  0  0  0
   -7.1301   15.3678  -33.1991 H   0  0  0  0  0  0  0  0  0  0  0  0
   -7.8110   15.9766  -34.7458 H   0  0  0  0  0  0  0  0  0  0  0  0
   -6.2763   15.0432  -34.7458 H   0  0  0  0  0  0  0  0  0  0  0  0
   -6.9596   17.9814  -31.0238 H   0  0  0  0  0  0  0  0  0  0  0  0
   -8.0950   18.7946  -32.1535 H   0  0  0  0  0  0  0  0  0  0  0  0
   -7.9568   17.0036  -32.1535 H   0  0  0  0  0  0  0  0  0  0  0  0
   -3.4965   19.8366  -31.3751 H   0  0  0  0  0  0  0  0  0  0  0  0
   -3.4941   21.8651  -29.9288 H   0  0  0  0  0  0  0  0  0  0  0  0
   -3.5161   24.0707  -27.3439 H   0  0  0  0  0  0  0  0  0  0  0  0
   -2.3477   22.2051  -26.1828 H   0  0  0  0  0  0  0  0  0  0  0  0
  1  2  1  0
  2  3  1  0
  3  4  2  0
  4  5  1  0
  5  6  2  0
  6  7  1  0
  7  8  1  0
  8  9  2  0
  8 10  1  0
 10 11  1  0
 11 12  2  0
 12 13  1  0
 13 14  2  0
 14 15  1  0
 15 16  2  0
 16 17  1  0
 17 18  1  0
 18 19  1  0
 18 20  2  0
 20 21  1  0
 14 22  1  0
 22 23  2  0
  6 24  1  0
 24 25  2  0
 25  3  1  0
 23 11  1  0
 20 15  1  0
  1 26  1  0
  1 27  1  0
  1 28  1  0
  4 29  1  0
  5 30  1  0
 10 31  1  0
 10 32  1  0
 12 33  1  0
 13 34  1  0
 16 35  1  0
 19 36  1  0
 19 37  1  0
 19 38  1  0
 21 39  1  0
 21 40  1  0
 21 41  1  0
 22 42  1  0
 23 43  1  0
 24 44  1  0
 25 45  1  0
M  CHG  1   7  -1
M  END
>  <UniqueID>  (39) 
38

>  <SMILES>  (39) 
COc1ccc([N-]C(=O)Cc2ccc(-c3csc(C)c3C)cc2)cc1

>  <Energy>  (39) 
77.52922591895883

>  <Genealogy>  (39) 
COc1ccc([N-]C(=O)Cc2ccc(-c3csc(C)c3C)cc2)cc1 (protonated)
COc1ccc([N-]C(=O)Cc2ccc(-c3csc(C)c3C)cc2)cc1 (3D coordinates assigned)
COc1ccc([N-]C(=O)Cc2ccc(-c3csc(C)c3C)cc2)cc1 (optimized conformer: 77.52922591895883 kcal/mol)

>  <smiles>  (39) 
COc1ccc(NC(=O)Cc2ccc(-c3csc(C)c3C)cc2)cc1

>  <score_type>  (39) 
oracle

>  <origin>  (39) 
adgpu

>  <m_score__min__energy>  (39) 
-9.9600000000000009

>  <m_primary>  (39) 
energy

$$$$
39:0
     RDKit          3D

 49 52  0  0  0  0  0  0  0  0999 V2000
    0.4670   26.6600  -22.2900 H   0  0  0  0  0  0  0  0  0  0  0  0
   -0.2390   26.9410  -22.9600 O   0  0  0  0  0  0  0  0  0  0  0  0
   -0.4840   26.1990  -24.1140 C   0  0  0  0  0  0  0  0  0  0  0  0
   -1.6760   26.3650  -24.8290 C   0  0  0  0  0  0  0  0  0  0  0  0
   -2.4288   27.0859  -24.4774 H   0  0  0  0  0  0  0  0  0  0  0  0
   -1.9150   25.6200  -25.9870 C   0  0  0  0  0  0  0  0  0  0  0  0
   -2.8598   25.7488  -26.5353 H   0  0  0  0  0  0  0  0  0  0  0  0
   -0.9510   24.7040  -26.4560 C   0  0  0  0  0  0  0  0  0  0  0  0
   -1.1290   23.9260  -27.6260 C   0  0  0  0  0  0  0  0  0  0  0  0
   -2.2950   24.0570  -28.5250 C   0  0  0  0  0  0  0  0  0  0  0  0
   -2.5127   25.0335  -28.9822 H   0  0  0  0  0  0  0  0  0  0  0  0
   -3.0940   23.0150  -28.7970 C   0  0  0  0  0  0  0  0  0  0  0  0
   -2.8437   22.0419  -28.3494 H   0  0  0  0  0  0  0  0  0  0  0  0
   -4.2940   23.0940  -29.6640 C   0  0  0  0  0  0  0  0  0  0  0  0
   -4.2160   23.2200  -31.0650 C   0  0  0  0  0  0  0  0  0  0  0  0
   -3.2321   23.2581  -31.5554 H   0  0  0  0  0  0  0  0  0  0  0  0
   -5.3790   23.2970  -31.8370 C   0  0  0  0  0  0  0  0  0  0  0  0
   -5.3042   23.3926  -32.9303 H   0  0  0  0  0  0  0  0  0  0  0  0
   -6.6440   23.2530  -31.2240 C   0  0  0  0  0  0  0  0  0  0  0  0
   -7.8420   23.3180  -31.9530 O   0  0  0  0  0  0  0  0  0  0  0  0
   -8.8870   22.3440  -31.9140 C   0  0  0  0  0  0  0  0  0  0  0  0
   -9.6255   22.5764  -32.6954 H   0  0  0  0  0  0  0  0  0  0  0  0
   -9.3579   22.3727  -30.9203 H   0  0  0  0  0  0  0  0  0  0  0  0
   -8.3400   20.9610  -32.1480 C   0  0  0  0  0  0  0  0  0  0  0  0
   -7.2430   20.7740  -33.0040 C   0  0  0  0  0  0  0  0  0  0  0  0
   -6.7865   21.6400  -33.5057 H   0  0  0  0  0  0  0  0  0  0  0  0
   -6.7280   19.4930  -33.2220 C   0  0  0  0  0  0  0  0  0  0  0  0
   -5.8796   19.3534  -33.9081 H   0  0  0  0  0  0  0  0  0  0  0  0
   -7.2880   18.3850  -32.5700 C   0  0  0  0  0  0  0  0  0  0  0  0
   -6.7610   17.0060  -32.8350 C   0  0  0  0  0  0  0  0  0  0  0  0
   -6.5668   16.4977  -31.8790 H   0  0  0  0  0  0  0  0  0  0  0  0
   -7.5038   16.4338  -33.4102 H   0  0  0  0  0  0  0  0  0  0  0  0
   -5.8259   17.0751  -33.4102 H   0  0  0  0  0  0  0  0  0  0  0  0
   -8.3880   18.5700  -31.7180 C   0  0  0  0  0  0  0  0  0  0  0  0
   -8.8462   17.7031  -31.2195 H   0  0  0  0  0  0  0  0  0  0  0  0
   -8.9040   19.8510  -31.5000 C   0  0  0  0  0  0  0  0  0  0  0  0
   -9.7556   19.9895  -30.8177 H   0  0  0  0  0  0  0  0  0  0  0  0
   -6.7220   23.1480  -29.8330 C   0  0  0  0  0  0  0  0  0  0  0  0
   -7.7065   23.1249  -29.3429 H   0  0  0  0  0  0  0  0  0  0  0  0
   -5.5610   23.0720  -29.0580 C   0  0  0  0  0  0  0  0  0  0  0  0
   -5.6404   22.9943  -27.9636 H   0  0  0  0  0  0  0  0  0  0  0  0
   -0.1560   22.9750  -27.9550 C   0  0  0  0  0  0  0  0  0  0  0  0
   -0.2885   22.3285  -28.8350 H   0  0  0  0  0  0  0  0  0  0  0  0
    0.9840   22.8530  -27.1580 C   0  0  0  0  0  0  0  0  0  0  0  0
    1.8730   22.0140  -27.4590 O   0  0  0  0  0  0  0  0  0  0  0  0
    1.1420   23.6200  -26.0860 O   0  0  0  0  0  0  0  0  0  0  0  0
    0.2380   24.5180  -25.7070 C   0  0  0  0  0  0  0  0  0  0  0  0
    0.4670   25.2740  -24.5530 C   0  0  0  0  0  0  0  0  0  0  0  0
    1.4010   25.1398  -23.9877 H   0  0  0  0  0  0  0  0  0  0  0  0
  1  2  1  0
  2  3  1  0
  3  4  2  0
  4  5  1  0
  4  6  1  0
  6  7  1  0
  6  8  2  0
  8  9  1  0
  9 10  1  0
 10 11  1  0
 10 12  2  0
 12 13  1  0
 12 14  1  0
 14 15  2  0
 15 16  1  0
 15 17  1  0
 17 18  1  0
 17 19  2  0
 19 20  1  0
 20 21  1  0
 21 22  1  0
 21 23  1  0
 21 24  1  0
 24 25  2  0
 25 26  1  0
 25 27  1  0
 27 28  1  0
 27 29  2  0
 29 30  1  0
 30 31  1  0
 30 32  1  0
 30 33  1  0
 29 34  1  0
 34 35  1  0
 34 36  2  0
 36 37  1  0
 19 38  1  0
 38 39  1  0
 38 40  2  0
 40 41  1  0
  9 42  2  0
 42 43  1  0
 42 44  1  0
 44 45  2  0
 44 46  1  0
 46 47  1  0
 47 48  2  0
 48 49  1  0
 48  3  1  0
 47  8  1  0
 40 14  1  0
 36 24  1  0
M  END
>  <UniqueID>  (40) 
39

>  <SMILES>  (40) 
Cc1ccc(COc2ccc(/C=C/c3cc(=O)oc4cc(O)ccc34)cc2)cc1

>  <Energy>  (40) 
66.12577783408157

>  <Genealogy>  (40) 
Cc1ccc(COc2ccc(/C=C/c3cc(=O)oc4cc(O)ccc34)cc2)cc1 (cis-trans isomerization)
Cc1ccc(COc2ccc(/C=C/c3cc(=O)oc4cc(O)ccc34)cc2)cc1 (3D coordinates assigned)
Cc1ccc(COc2ccc(/C=C/c3cc(=O)oc4cc(O)ccc34)cc2)cc1 (optimized conformer: 66.12577783408157 kcal/mol)

>  <smiles>  (40) 
Cc1ccc(COc2ccc(C=Cc3cc(=O)oc4cc(O)ccc34)cc2)cc1

>  <score_type>  (40) 
oracle

>  <origin>  (40) 
adgpu

>  <m_score__min__energy>  (40) 
-9.0800000000000001

>  <m_primary>  (40) 
energy

$$$$
40:0
     RDKit          3D

 54 56  0  0  0  0  0  0  0  0999 V2000
   -2.6600   22.1820  -30.4700 C   0  0  0  0  0  0  0  0  0  0  0  0
   -4.0660   22.7160  -30.4780 C   0  0  0  0  0  0  0  0  0  0  0  0
   -5.1120   21.9270  -30.9790 C   0  0  0  0  0  0  0  0  0  0  0  0
   -6.4360   22.3900  -30.9510 C   0  0  0  0  0  0  0  0  0  0  0  0
   -7.5390   21.5110  -31.3980 C   0  0  0  0  0  0  0  0  0  0  0  0
   -8.8490   22.0030  -31.5240 C   0  0  0  0  0  0  0  0  0  0  0  0
   -9.8560   21.1940  -32.0570 C   0  0  0  0  0  0  0  0  0  0  0  0
   -9.5530   19.9140  -32.5280 C   0  0  0  0  0  0  0  0  0  0  0  0
   -8.2440   19.4240  -32.4460 C   0  0  0  0  0  0  0  0  0  0  0  0
   -7.9250   18.1850  -33.0940 N   0  0  0  0  0  0  0  0  0  0  0  0
   -6.5240   17.2130  -32.7460 S   0  0  0  0  0  0  0  0  0  0  0  0
   -6.4420   16.9930  -31.2620 O   0  0  0  0  0  0  0  0  0  0  0  0
   -6.6620   15.8860  -33.4370 O   0  0  0  0  0  0  0  0  0  0  0  0
   -5.0580   18.0020  -33.3350 C   0  0  0  0  0  0  0  0  0  0  0  0
   -3.8950   17.2570  -33.5670 C   0  0  0  0  0  0  0  0  0  0  0  0
   -2.6840   17.9010  -33.8300 C   0  0  0  0  0  0  0  0  0  0  0  0
   -2.6060   19.3100  -33.8660 C   0  0  0  0  0  0  0  0  0  0  0  0
   -1.3320   19.9850  -34.0520 N   0  0  0  0  0  0  0  0  0  0  0  0
   -0.2880   19.3950  -34.8990 C   0  0  0  0  0  0  0  0  0  0  0  0
   -1.0720   21.2840  -33.4130 C   0  0  0  0  0  0  0  0  0  0  0  0
   -3.7980   20.0450  -33.6840 C   0  0  0  0  0  0  0  0  0  0  0  0
   -5.0090   19.3960  -33.4280 C   0  0  0  0  0  0  0  0  0  0  0  0
   -7.2610   20.1960  -31.8050 C   0  0  0  0  0  0  0  0  0  0  0  0
   -6.7070   23.6550  -30.4110 C   0  0  0  0  0  0  0  0  0  0  0  0
   -5.6730   24.4470  -29.9090 C   0  0  0  0  0  0  0  0  0  0  0  0
   -4.3430   23.9840  -29.9300 C   0  0  0  0  0  0  0  0  0  0  0  0
   -3.2800   24.7410  -29.4090 O   0  0  0  0  0  0  0  0  0  0  0  0
   -2.7000   24.5760  -28.1160 C   0  0  0  0  0  0  0  0  0  0  0  0
   -1.6120   25.5790  -27.8870 C   0  0  0  0  0  0  0  0  0  0  0  0
   -1.1760   26.4160  -28.9560 N   0  0  0  0  0  0  0  0  0  0  0  0
   -1.0500   25.6530  -26.7620 O   0  0  0  0  0  0  0  0  0  0  0  0
   -2.3224   22.0538  -29.4310 H   0  0  0  0  0  0  0  0  0  0  0  0
   -2.6335   21.2112  -30.9866 H   0  0  0  0  0  0  0  0  0  0  0  0
   -1.9958   22.8905  -30.9866 H   0  0  0  0  0  0  0  0  0  0  0  0
   -4.8917   20.9343  -31.3985 H   0  0  0  0  0  0  0  0  0  0  0  0
   -9.0827   23.0285  -31.2020 H   0  0  0  0  0  0  0  0  0  0  0  0
  -10.8901   21.5659  -32.1059 H   0  0  0  0  0  0  0  0  0  0  0  0
  -10.3458   19.2889  -32.9648 H   0  0  0  0  0  0  0  0  0  0  0  0
   -3.9356   16.1580  -33.5419 H   0  0  0  0  0  0  0  0  0  0  0  0
   -1.7791   17.3025  -34.0115 H   0  0  0  0  0  0  0  0  0  0  0  0
    0.4936   18.9533  -34.2634 H   0  0  0  0  0  0  0  0  0  0  0  0
   -0.7296   18.6129  -35.5341 H   0  0  0  0  0  0  0  0  0  0  0  0
    0.1542   20.1768  -35.5341 H   0  0  0  0  0  0  0  0  0  0  0  0
   -1.0956   21.1660  -32.3196 H   0  0  0  0  0  0  0  0  0  0  0  0
   -0.0823   21.6525  -33.7208 H   0  0  0  0  0  0  0  0  0  0  0  0
   -1.8436   22.0050  -33.7208 H   0  0  0  0  0  0  0  0  0  0  0  0
   -3.7730   21.1430  -33.7445 H   0  0  0  0  0  0  0  0  0  0  0  0
   -5.9288   19.9854  -33.2990 H   0  0  0  0  0  0  0  0  0  0  0  0
   -6.2651   19.7669  -31.6203 H   0  0  0  0  0  0  0  0  0  0  0  0
   -7.7421   24.0262  -30.3827 H   0  0  0  0  0  0  0  0  0  0  0  0
   -5.8986   25.4403  -29.4938 H   0  0  0  0  0  0  0  0  0  0  0  0
   -3.4798   24.7095  -27.3517 H   0  0  0  0  0  0  0  0  0  0  0  0
   -2.2673   23.5668  -28.0509 H   0  0  0  0  0  0  0  0  0  0  0  0
   -1.2100   26.0840  -29.9440 H   0  0  0  0  0  0  0  0  0  0  0  0
  1  2  1  0
  2  3  2  0
  3  4  1  0
  4  5  1  0
  5  6  2  0
  6  7  1  0
  7  8  2  0
  8  9  1  0
  9 10  1  0
 10 11  1  0
 11 12  2  0
 11 13  2  0
 11 14  1  0
 14 15  2  0
 15 16  1  0
 16 17  2  0
 17 18  1  0
 18 19  1  0
 18 20  1  0
 17 21  1  0
 21 22  2  0
  9 23  2  0
  4 24  2  0
 24 25  1  0
 25 26  2  0
 26 27  1  0
 27 28  1  0
 28 29  1  0
 29 30  1  0
 29 31  2  0
 26  2  1  0
 23  5  1  0
 22 14  1  0
  1 32  1  0
  1 33  1  0
  1 34  1  0
  3 35  1  0
  6 36  1  0
  7 37  1  0
  8 38  1  0
 15 39  1  0
 16 40  1  0
 19 41  1  0
 19 42  1  0
 19 43  1  0
 20 44  1  0
 20 45  1  0
 20 46  1  0
 21 47  1  0
 22 48  1  0
 23 49  1  0
 24 50  1  0
 25 51  1  0
 28 52  1  0
 28 53  1  0
 30 54  1  0
M  CHG  2  10  -1  30  -1
M  END
>  <UniqueID>  (41) 
40

>  <SMILES>  (41) 
Cc1cc(-c2cccc([N-]S(=O)(=O)c3ccc(N(C)C)cc3)c2)ccc1OCC([NH-])=O

>  <Energy>  (41) 
63.196308529380694

>  <Genealogy>  (41) 
Cc1cc(-c2cccc([N-]S(=O)(=O)c3ccc(N(C)C)cc3)c2)ccc1OCC([NH-])=O (protonated)
Cc1cc(-c2cccc([N-]S(=O)(=O)c3ccc(N(C)C)cc3)c2)ccc1OCC([NH-])=O (3D coordinates assigned)
Cc1cc(-c2cccc([N-]S(=O)(=O)c3ccc(N(C)C)cc3)c2)ccc1OCC([NH-])=O (optimized conformer: 63.196308529380694 kcal/mol)

>  <smiles>  (41) 
Cc1cc(-c2cccc(NS(=O)(=O)c3ccc(N(C)C)cc3)c2)ccc1OCC(N)=O

>  <score_type>  (41) 
oracle

>  <origin>  (41) 
adgpu

>  <m_score__min__energy>  (41) 
-11.779999999999999

>  <m_primary>  (41) 
energy

$$$$
41:0
     RDKit          3D

 35 36  0  0  0  0  0  0  0  0999 V2000
   -2.9230   24.1300  -28.3220 C   0  0  0  0  0  0  0  0  0  0  0  0
   -3.9090   24.5430  -29.3650 C   0  0  0  0  0  0  0  0  0  0  0  0
   -3.5000   24.8890  -30.5070 O   0  0  0  0  0  0  0  0  0  0  0  0
   -5.3130   24.5100  -29.0760 N   0  0  0  0  0  0  0  0  0  0  0  0
   -6.3250   24.9260  -30.0440 C   0  0  0  0  0  0  0  0  0  0  0  0
   -6.9410   23.7220  -30.7030 C   0  0  0  0  0  0  0  0  0  0  0  0
   -7.6160   22.7570  -29.9410 C   0  0  0  0  0  0  0  0  0  0  0  0
   -8.1690   21.6300  -30.5570 C   0  0  0  0  0  0  0  0  0  0  0  0
   -8.0390   21.4450  -31.9460 C   0  0  0  0  0  0  0  0  0  0  0  0
   -8.5860   20.3360  -32.6100 O   0  0  0  0  0  0  0  0  0  0  0  0
   -8.2490   18.9970  -32.3680 C   0  0  0  0  0  0  0  0  0  0  0  0
   -8.8990   18.3180  -31.5260 O   0  0  0  0  0  0  0  0  0  0  0  0
   -7.0890   18.3980  -33.0640 C   0  0  0  0  0  0  0  0  0  0  0  0
   -6.1220   19.2130  -33.6830 C   0  0  0  0  0  0  0  0  0  0  0  0
   -5.0280   18.6390  -34.3370 C   0  0  0  0  0  0  0  0  0  0  0  0
   -4.8870   17.2500  -34.3810 C   0  0  0  0  0  0  0  0  0  0  0  0
   -5.8400   16.4320  -33.7700 C   0  0  0  0  0  0  0  0  0  0  0  0
   -6.9360   17.0000  -33.1150 C   0  0  0  0  0  0  0  0  0  0  0  0
   -7.3790   22.4180  -32.7060 C   0  0  0  0  0  0  0  0  0  0  0  0
   -6.8250   23.5450  -32.0900 C   0  0  0  0  0  0  0  0  0  0  0  0
   -3.3490   24.3084  -27.3236 H   0  0  0  0  0  0  0  0  0  0  0  0
   -2.6939   23.0603  -28.4371 H   0  0  0  0  0  0  0  0  0  0  0  0
   -1.9999   24.7171  -28.4371 H   0  0  0  0  0  0  0  0  0  0  0  0
   -5.6290   24.1680  -28.1410 H   0  0  0  0  0  0  0  0  0  0  0  0
   -7.1093   25.4978  -29.5264 H   0  0  0  0  0  0  0  0  0  0  0  0
   -5.8493   25.5517  -30.8135 H   0  0  0  0  0  0  0  0  0  0  0  0
   -7.7109   22.8875  -28.8529 H   0  0  0  0  0  0  0  0  0  0  0  0
   -8.7079   20.8849  -29.9533 H   0  0  0  0  0  0  0  0  0  0  0  0
   -6.2280   20.3074  -33.6518 H   0  0  0  0  0  0  0  0  0  0  0  0
   -4.2766   19.2825  -34.8180 H   0  0  0  0  0  0  0  0  0  0  0  0
   -4.0256   16.8005  -34.8967 H   0  0  0  0  0  0  0  0  0  0  0  0
   -5.7276   15.3383  -33.8044 H   0  0  0  0  0  0  0  0  0  0  0  0
   -7.6836   16.3504  -32.6364 H   0  0  0  0  0  0  0  0  0  0  0  0
   -7.2955   22.2953  -33.7959 H   0  0  0  0  0  0  0  0  0  0  0  0
   -6.2961   24.2957  -32.6956 H   0  0  0  0  0  0  0  0  0  0  0  0
  1  2  1  0
  2  3  2  0
  2  4  1  0
  4  5  1  0
  5  6  1  0
  6  7  2  0
  7  8  1  0
  8  9  2  0
  9 10  1  0
 10 11  1  0
 11 12  2  0
 11 13  1  0
 13 14  2  0
 14 15  1  0
 15 16  2  0
 16 17  1  0
 17 18  2  0
  9 19  1  0
 19 20  2  0
 20  6  1  0
 18 13  1  0
  1 21  1  0
  1 22  1  0
  1 23  1  0
  4 24  1  0
  5 25  1  0
  5 26  1  0
  7 27  1  0
  8 28  1  0
 14 29  1  0
 15 30  1  0
 16 31  1  0
 17 32  1  0
 18 33  1  0
 19 34  1  0
 20 35  1  0
M  END
>  <UniqueID>  (42) 
41

>  <SMILES>  (42) 
CC(=O)NCc1ccc(OC(=O)c2ccccc2)cc1

>  <Energy>  (42) 
36.035386534688165

>  <Genealogy>  (42) 
CC(=O)NCc1ccc(OC(=O)c2ccccc2)cc1 (3D coordinates assigned)
CC(=O)NCc1ccc(OC(=O)c2ccccc2)cc1 (optimized conformer: 36.035386534688165 kcal/mol)

>  <smiles>  (42) 
CC(=O)NCc1ccc(OC(=O)c2ccccc2)cc1

>  <score_type>  (42) 
oracle

>  <origin>  (42) 
adgpu

>  <m_score__min__energy>  (42) 
-8.0299999999999994

>  <m_primary>  (42) 
energy

$$$$
42:0
     RDKit          3D

 51 54  0  0  0  0  0  0  0  0999 V2000
   -2.8450   25.2830  -30.3510 H   0  0  0  0  0  0  0  0  0  0  0  0
   -3.8560   25.3190  -30.5880 N   0  0  0  0  0  0  0  0  0  0  0  0
   -4.6040   24.2910  -30.8450 C   0  0  0  0  0  0  0  0  0  0  0  0
   -5.8970   24.5180  -31.1940 N   0  0  0  0  0  0  0  0  0  0  0  0
   -6.7500   23.5220  -31.5430 C   0  0  0  0  0  0  0  0  0  0  0  0
   -7.7920   23.7590  -31.8039 H   0  0  0  0  0  0  0  0  0  0  0  0
   -6.3090   22.1960  -31.5720 C   0  0  0  0  0  0  0  0  0  0  0  0
   -7.2320   21.1010  -31.9580 C   0  0  0  0  0  0  0  0  0  0  0  0
   -8.6220   21.3200  -31.9630 C   0  0  0  0  0  0  0  0  0  0  0  0
   -9.0204   22.3066  -31.6839 H   0  0  0  0  0  0  0  0  0  0  0  0
   -9.5000   20.2930  -32.3200 C   0  0  0  0  0  0  0  0  0  0  0  0
  -10.5851   20.4734  -32.3188 H   0  0  0  0  0  0  0  0  0  0  0  0
   -9.0030   19.0390  -32.6780 C   0  0  0  0  0  0  0  0  0  0  0  0
   -9.6966   18.2314  -32.9548 H   0  0  0  0  0  0  0  0  0  0  0  0
   -7.6260   18.8090  -32.6850 C   0  0  0  0  0  0  0  0  0  0  0  0
   -7.2366   17.8209  -32.9714 H   0  0  0  0  0  0  0  0  0  0  0  0
   -6.7400   19.8310  -32.3290 C   0  0  0  0  0  0  0  0  0  0  0  0
   -5.4040   19.5910  -32.3810 F   0  0  0  0  0  0  0  0  0  0  0  0
   -4.9840   21.9240  -31.2030 C   0  0  0  0  0  0  0  0  0  0  0  0
   -4.6207   20.8858  -31.2156 H   0  0  0  0  0  0  0  0  0  0  0  0
   -4.1120   22.9580  -30.8170 C   0  0  0  0  0  0  0  0  0  0  0  0
   -2.7460   22.5850  -30.3700 C   0  0  0  0  0  0  0  0  0  0  0  0
   -1.8460   23.4720  -29.9010 N   0  0  0  0  0  0  0  0  0  0  0  0
   -0.7380   22.7920  -29.6530 N   0  0  0  0  0  0  0  0  0  0  0  0
   -1.0020   21.5110  -29.9750 C   0  0  0  0  0  0  0  0  0  0  0  0
    0.0050   20.3850  -29.9070 C   0  0  1  0  0  0  0  0  0  0  0  0
    0.8792   20.9043  -29.4874 H   0  0  0  0  0  0  0  0  0  0  0  0
   -0.4080   19.2350  -28.9980 C   0  0  0  0  0  0  0  0  0  0  0  0
   -0.1456   19.4513  -27.9519 H   0  0  0  0  0  0  0  0  0  0  0  0
   -1.4934   19.0569  -29.0114 H   0  0  0  0  0  0  0  0  0  0  0  0
    0.3830   18.0450  -29.5170 C   0  0  0  0  0  0  0  0  0  0  0  0
    1.2249   17.8231  -28.8447 H   0  0  0  0  0  0  0  0  0  0  0  0
   -0.2394   17.1396  -29.5699 H   0  0  0  0  0  0  0  0  0  0  0  0
    0.8990   18.4520  -30.8990 C   0  0  0  0  0  0  0  0  0  0  0  0
    1.9987   18.4763  -30.8935 H   0  0  0  0  0  0  0  0  0  0  0  0
    0.5669   17.7273  -31.6569 H   0  0  0  0  0  0  0  0  0  0  0  0
    0.3710   19.7950  -31.2120 N   0  0  1  0  0  0  0  0  0  0  0  0
    1.1540   20.3650  -31.6170 H   0  0  0  0  0  0  0  0  0  0  0  0
   -0.7080   19.7500  -32.1980 C   0  0  0  0  0  0  0  0  0  0  0  0
   -1.3930   18.7380  -32.2730 O   0  0  0  0  0  0  0  0  0  0  0  0
   -1.0350   20.9060  -33.1330 C   0  0  0  0  0  0  0  0  0  0  0  0
   -0.7571   21.8435  -32.6291 H   0  0  0  0  0  0  0  0  0  0  0  0
   -2.5370   20.9320  -33.4420 C   0  0  0  0  0  0  0  0  0  0  0  0
   -3.1050   20.9418  -32.5001 H   0  0  0  0  0  0  0  0  0  0  0  0
   -2.7761   21.8344  -34.0238 H   0  0  0  0  0  0  0  0  0  0  0  0
   -2.8072   20.0384  -34.0238 H   0  0  0  0  0  0  0  0  0  0  0  0
   -0.2320   20.8000  -34.4340 C   0  0  0  0  0  0  0  0  0  0  0  0
    0.8330   20.6594  -34.1971 H   0  0  0  0  0  0  0  0  0  0  0  0
   -0.5938   19.9418  -35.0193 H   0  0  0  0  0  0  0  0  0  0  0  0
   -0.3588   21.7227  -35.0193 H   0  0  0  0  0  0  0  0  0  0  0  0
   -2.2260   21.3810  -30.4270 O   0  0  0  0  0  0  0  0  0  0  0  0
  1  2  1  0
  2  3  2  0
  3  4  1  0
  4  5  1  0
  5  6  1  0
  5  7  2  0
  7  8  1  0
  8  9  2  0
  9 10  1  0
  9 11  1  0
 11 12  1  0
 11 13  2  0
 13 14  1  0
 13 15  1  0
 15 16  1  0
 15 17  2  0
 17 18  1  0
  7 19  1  0
 19 20  1  0
 19 21  2  0
 21 22  1  0
 22 23  2  0
 23 24  1  0
 24 25  2  0
 25 26  1  0
 26 27  1  1
 26 28  1  0
 28 29  1  0
 28 30  1  0
 28 31  1  0
 31 32  1  0
 31 33  1  0
 31 34  1  0
 34 35  1  0
 34 36  1  0
 34 37  1  0
 37 38  1  6
 37 39  1  0
 39 40  2  0
 39 41  1  0
 41 42  1  0
 41 43  1  0
 43 44  1  0
 43 45  1  0
 43 46  1  0
 41 47  1  0
 47 48  1  0
 47 49  1  0
 47 50  1  0
 25 51  1  0
 21  3  1  0
 51 22  1  0
 17  8  1  0
 37 26  1  0
M  CHG  2   4  -1  37   1
M  END
>  <UniqueID>  (43) 
42

>  <SMILES>  (43) 
[H]/N=c1/[n-]cc(-c2ccccc2F)cc1-c1nnc([C@H]2CCC[N@H+]2C(=O)C(C)C)o1

>  <Energy>  (43) 
106.39115037795582

>  <Genealogy>  (43) 
CC(C)C(=O)[NH+]1CCCC1c1nnc(-c2cc(-c3ccccc3F)c[n-]c2=N)o1 (protonated)
CC(C)C(=O)[N@@H+]1CCC[C@@H]1c1nnc(-c2cc(-c3ccccc3F)c[n-]c2=N)o1 (chirality)
[H]/N=c1/[n-]cc(-c2ccccc2F)cc1-c1nnc([C@H]2CCC[N@H+]2C(=O)C(C)C)o1 (cis-trans isomerization)
[H]/N=c1/[n-]cc(-c2ccccc2F)cc1-c1nnc([C@H]2CCC[N@H+]2C(=O)C(C)C)o1 (3D coordinates assigned)
[H]/N=c1/[n-]cc(-c2ccccc2F)cc1-c1nnc([C@H]2CCC[N@H+]2C(=O)C(C)C)o1 (nonaromatic ring conformer: 106.39115037795582 kcal/mol)

>  <smiles>  (43) 
CC(C)C(=O)N1CCCC1c1nnc(-c2cc(-c3ccccc3F)c[nH]c2=N)o1

>  <score_type>  (43) 
oracle

>  <origin>  (43) 
adgpu

>  <m_score__min__energy>  (43) 
-10.050000000000001

>  <m_primary>  (43) 
energy

$$$$
43:0
     RDKit          3D

 29 32  0  0  0  0  0  0  0  0999 V2000
   -5.3430   26.2330  -30.3350 O   0  0  0  0  0  0  0  0  0  0  0  0
   -5.5840   25.0470  -30.6820 C   0  0  0  0  0  0  0  0  0  0  0  0
   -6.8670   24.5170  -30.5080 C   0  0  0  0  0  0  0  0  0  0  0  0
   -7.1120   23.2010  -30.9000 C   0  0  0  0  0  0  0  0  0  0  0  0
   -6.0740   22.4450  -31.4550 C   0  0  0  0  0  0  0  0  0  0  0  0
   -6.2710   21.1190  -31.8650 C   0  0  0  0  0  0  0  0  0  0  0  0
   -5.2080   20.3820  -32.4220 C   0  0  0  0  0  0  0  0  0  0  0  0
   -5.4220   18.9800  -32.8520 C   0  0  0  0  0  0  0  0  0  0  0  0
   -4.4040   18.1150  -33.1010 N   0  0  0  0  0  0  0  0  0  0  0  0
   -4.8680   16.8970  -33.4790 C   0  0  0  0  0  0  0  0  0  0  0  0
   -4.0560   15.8070  -33.7990 C   0  0  0  0  0  0  0  0  0  0  0  0
   -4.6660   14.5990  -34.1760 C   0  0  0  0  0  0  0  0  0  0  0  0
   -6.0710   14.4930  -34.2300 C   0  0  0  0  0  0  0  0  0  0  0  0
   -6.8770   15.5960  -33.9070 C   0  0  0  0  0  0  0  0  0  0  0  0
   -6.2470   16.7810  -33.5350 C   0  0  0  0  0  0  0  0  0  0  0  0
   -6.9350   18.2460  -33.0990 S   0  0  0  0  0  0  0  0  0  0  0  0
   -3.9490   20.9950  -32.5610 C   0  0  0  0  0  0  0  0  0  0  0  0
   -3.7520   22.3190  -32.1530 C   0  0  0  0  0  0  0  0  0  0  0  0
   -4.8070   23.0480  -31.6010 C   0  0  0  0  0  0  0  0  0  0  0  0
   -4.6150   24.3070  -31.2140 O   0  0  0  0  0  0  0  0  0  0  0  0
   -7.6695   25.1281  -30.0692 H   0  0  0  0  0  0  0  0  0  0  0  0
   -8.1125   22.7615  -30.7739 H   0  0  0  0  0  0  0  0  0  0  0  0
   -7.2604   20.6520  -31.7511 H   0  0  0  0  0  0  0  0  0  0  0  0
   -2.9601   15.8926  -33.7567 H   0  0  0  0  0  0  0  0  0  0  0  0
   -4.0428   13.7292  -34.4310 H   0  0  0  0  0  0  0  0  0  0  0  0
   -6.5375   13.5420  -34.5265 H   0  0  0  0  0  0  0  0  0  0  0  0
   -7.9741   15.5264  -33.9466 H   0  0  0  0  0  0  0  0  0  0  0  0
   -3.1119   20.4281  -32.9944 H   0  0  0  0  0  0  0  0  0  0  0  0
   -2.7630   22.7867  -32.2675 H   0  0  0  0  0  0  0  0  0  0  0  0
  1  2  2  0
  2  3  1  0
  3  4  2  0
  4  5  1  0
  5  6  2  0
  6  7  1  0
  7  8  1  0
  8  9  2  0
  9 10  1  0
 10 11  2  0
 11 12  1  0
 12 13  2  0
 13 14  1  0
 14 15  2  0
 15 16  1  0
  7 17  2  0
 17 18  1  0
 18 19  2  0
 19 20  1  0
 20  2  1  0
 19  5  1  0
 16  8  1  0
 15 10  1  0
  3 21  1  0
  4 22  1  0
  6 23  1  0
 11 24  1  0
 12 25  1  0
 13 26  1  0
 14 27  1  0
 17 28  1  0
 18 29  1  0
M  END
>  <UniqueID>  (44) 
43

>  <SMILES>  (44) 
O=c1ccc2cc(-c3nc4ccccc4s3)ccc2o1

>  <Energy>  (44) 
73.56964660638532

>  <Genealogy>  (44) 
O=c1ccc2cc(-c3nc4ccccc4s3)ccc2o1 (3D coordinates assigned)
O=c1ccc2cc(-c3nc4ccccc4s3)ccc2o1 (optimized conformer: 73.56964660638532 kcal/mol)

>  <smiles>  (44) 
O=c1ccc2cc(-c3nc4ccccc4s3)ccc2o1

>  <score_type>  (44) 
oracle

>  <origin>  (44) 
adgpu

>  <m_score__min__energy>  (44) 
-7.9900000000000002

>  <m_primary>  (44) 
energy

$$$$
44:0
     RDKit          3D

 55 58  0  0  0  0  0  0  0  0999 V2000
    0.1930   22.9990  -24.7600 C   0  0  0  0  0  0  0  0  0  0  0  0
   -0.2050   22.6750  -26.0880 O   0  0  0  0  0  0  0  0  0  0  0  0
   -1.3840   23.1300  -26.7000 C   0  0  0  0  0  0  0  0  0  0  0  0
   -1.8040   24.4730  -26.6030 C   0  0  0  0  0  0  0  0  0  0  0  0
   -2.9920   24.8890  -27.2110 C   0  0  0  0  0  0  0  0  0  0  0  0
   -3.7770   23.9820  -27.9330 C   0  0  0  0  0  0  0  0  0  0  0  0
   -4.9940   24.4270  -28.5510 N   0  0  0  0  0  0  0  0  0  0  0  0
   -5.1160   24.7260  -30.2590 S   0  0  0  0  0  0  0  0  0  0  0  0
   -6.2830   25.6350  -30.5200 O   0  0  0  0  0  0  0  0  0  0  0  0
   -3.8620   25.4100  -30.7260 O   0  0  0  0  0  0  0  0  0  0  0  0
   -5.3650   23.2240  -31.1440 C   0  0  0  0  0  0  0  0  0  0  0  0
   -4.2820   22.3820  -31.4310 C   0  0  0  0  0  0  0  0  0  0  0  0
   -4.5040   21.1090  -31.9650 C   0  0  0  0  0  0  0  0  0  0  0  0
   -5.8110   20.6640  -32.2260 C   0  0  0  0  0  0  0  0  0  0  0  0
   -6.0520   19.2850  -32.7180 C   0  0  0  0  0  0  0  0  0  0  0  0
   -6.9930   18.4550  -32.0810 C   0  0  0  0  0  0  0  0  0  0  0  0
   -7.2330   17.1620  -32.5530 C   0  0  0  0  0  0  0  0  0  0  0  0
   -6.5350   16.6810  -33.6660 C   0  0  0  0  0  0  0  0  0  0  0  0
   -6.8390   15.0580  -34.2570 Cl  0  0  0  0  0  0  0  0  0  0  0  0
   -5.5980   17.4970  -34.3080 C   0  0  0  0  0  0  0  0  0  0  0  0
   -5.3580   18.7920  -33.8390 C   0  0  0  0  0  0  0  0  0  0  0  0
   -6.8910   21.5310  -31.9770 C   0  0  0  0  0  0  0  0  0  0  0  0
   -6.6670   22.8010  -31.4360 C   0  0  0  0  0  0  0  0  0  0  0  0
   -3.3730   22.6420  -28.0050 C   0  0  0  0  0  0  0  0  0  0  0  0
   -2.1780   22.2130  -27.4140 C   0  0  0  0  0  0  0  0  0  0  0  0
   -1.7730   20.8380  -27.5520 N   0  0  0  0  0  0  0  0  0  0  0  0
   -0.6740   20.5230  -28.4730 C   0  0  0  0  0  0  0  0  0  0  0  0
   -0.5130   19.0080  -28.6320 C   0  0  0  0  0  0  0  0  0  0  0  0
   -0.5930   18.3510  -27.3230 N   0  0  0  0  0  0  0  0  0  0  0  0
   -1.9200   18.5010  -26.6960 C   0  0  0  0  0  0  0  0  0  0  0  0
   -2.6870   19.7720  -27.1220 C   0  0  0  0  0  0  0  0  0  0  0  0
   -0.4547   22.4717  -24.0441 H   0  0  0  0  0  0  0  0  0  0  0  0
    1.2376   22.6913  -24.6049 H   0  0  0  0  0  0  0  0  0  0  0  0
    0.1036   24.0843  -24.6049 H   0  0  0  0  0  0  0  0  0  0  0  0
   -1.1927   25.1978  -26.0453 H   0  0  0  0  0  0  0  0  0  0  0  0
   -3.3127   25.9374  -27.1215 H   0  0  0  0  0  0  0  0  0  0  0  0
   -5.7260   24.8660  -27.9470 H   0  0  0  0  0  0  0  0  0  0  0  0
   -3.2548   22.7235  -31.2357 H   0  0  0  0  0  0  0  0  0  0  0  0
   -3.6495   20.4513  -32.1823 H   0  0  0  0  0  0  0  0  0  0  0  0
   -7.5439   18.8270  -31.2046 H   0  0  0  0  0  0  0  0  0  0  0  0
   -7.9716   16.5215  -32.0489 H   0  0  0  0  0  0  0  0  0  0  0  0
   -5.0491   17.1193  -35.1832 H   0  0  0  0  0  0  0  0  0  0  0  0
   -4.6217   19.4301  -34.3496 H   0  0  0  0  0  0  0  0  0  0  0  0
   -7.9166   21.2082  -32.2091 H   0  0  0  0  0  0  0  0  0  0  0  0
   -7.5175   23.4703  -31.2391 H   0  0  0  0  0  0  0  0  0  0  0  0
   -4.0055   21.9146  -28.5349 H   0  0  0  0  0  0  0  0  0  0  0  0
   -0.8888   20.9677  -29.4559 H   0  0  0  0  0  0  0  0  0  0  0  0
    0.2592   20.9349  -28.0614 H   0  0  0  0  0  0  0  0  0  0  0  0
   -1.3134   18.6235  -29.2813 H   0  0  0  0  0  0  0  0  0  0  0  0
    0.4685   18.7961  -29.0811 H   0  0  0  0  0  0  0  0  0  0  0  0
    0.1290   18.7750  -26.6920 H   0  0  0  0  0  0  0  0  0  0  0  0
   -2.5288   17.6253  -26.9654 H   0  0  0  0  0  0  0  0  0  0  0  0
   -1.7476   18.5866  -25.6130 H   0  0  0  0  0  0  0  0  0  0  0  0
   -3.3590   19.5205  -27.9557 H   0  0  0  0  0  0  0  0  0  0  0  0
   -3.2560   20.1368  -26.2542 H   0  0  0  0  0  0  0  0  0  0  0  0
  1  2  1  0
  2  3  1  0
  3  4  2  0
  4  5  1  0
  5  6  2  0
  6  7  1  0
  7  8  1  0
  8  9  2  0
  8 10  2  0
  8 11  1  0
 11 12  2  0
 12 13  1  0
 13 14  2  0
 14 15  1  0
 15 16  2  0
 16 17  1  0
 17 18  2  0
 18 19  1  0
 18 20  1  0
 20 21  2  0
 14 22  1  0
 22 23  2  0
  6 24  1  0
 24 25  2  0
 25 26  1  0
 26 27  1  0
 27 28  1  0
 28 29  1  0
 29 30  1  0
 30 31  1  0
 25  3  1  0
 31 26  1  0
 23 11  1  0
 21 15  1  0
  1 32  1  0
  1 33  1  0
  1 34  1  0
  4 35  1  0
  5 36  1  0
  7 37  1  0
 12 38  1  0
 13 39  1  0
 16 40  1  0
 17 41  1  0
 20 42  1  0
 21 43  1  0
 22 44  1  0
 23 45  1  0
 24 46  1  0
 27 47  1  0
 27 48  1  0
 28 49  1  0
 28 50  1  0
 29 51  1  0
 30 52  1  0
 30 53  1  0
 31 54  1  0
 31 55  1  0
M  END
>  <UniqueID>  (45) 
44

>  <SMILES>  (45) 
COc1ccc(NS(=O)(=O)c2ccc(-c3ccc(Cl)cc3)cc2)cc1N1CCNCC1

>  <Energy>  (45) 
75.53841140400712

>  <Genealogy>  (45) 
COc1ccc(NS(=O)(=O)c2ccc(-c3ccc(Cl)cc3)cc2)cc1N1CCNCC1 (3D coordinates assigned)
COc1ccc(NS(=O)(=O)c2ccc(-c3ccc(Cl)cc3)cc2)cc1N1CCNCC1 (nonaromatic ring conformer: 75.53841140400712 kcal/mol)

>  <smiles>  (45) 
COc1ccc(NS(=O)(=O)c2ccc(-c3ccc(Cl)cc3)cc2)cc1N1CCNCC1

>  <score_type>  (45) 
oracle

>  <origin>  (45) 
adgpu

>  <m_score__min__energy>  (45) 
-10.9

>  <m_primary>  (45) 
energy

$$$$
45:0
     RDKit          3D

 17 18  0  0  0  0  0  0  0  0999 V2000
   -1.6490   24.4960  -27.5050 H   0  0  0  0  0  0  0  0  0  0  0  0
   -2.2060   23.6790  -27.1700 N   0  0  0  0  0  0  0  0  0  0  0  0
   -3.2480   23.2720  -27.7780 N   0  0  0  0  0  0  0  0  0  0  0  0
   -3.7820   23.9230  -28.9380 C   0  0  0  0  0  0  0  0  0  0  0  0
   -3.1510   24.9240  -29.6560 C   0  0  0  0  0  0  0  0  0  0  0  0
   -1.9160   25.4730  -29.3330 O   0  0  0  0  0  0  0  0  0  0  0  0
   -3.8810   25.3210  -30.7230 N   0  0  0  0  0  0  0  0  0  0  0  0
   -4.9810   24.5400  -30.6780 C   0  0  0  0  0  0  0  0  0  0  0  0
   -6.0290   24.5410  -31.5970 C   0  0  0  0  0  0  0  0  0  0  0  0
   -6.0447   25.2516  -32.4365 H   0  0  0  0  0  0  0  0  0  0  0  0
   -7.0660   23.6070  -31.4200 C   0  0  0  0  0  0  0  0  0  0  0  0
   -7.9132   23.5913  -32.1214 H   0  0  0  0  0  0  0  0  0  0  0  0
   -7.0260   22.6900  -30.3480 C   0  0  0  0  0  0  0  0  0  0  0  0
   -7.8378   21.9579  -30.2255 H   0  0  0  0  0  0  0  0  0  0  0  0
   -5.9560   22.7050  -29.4350 C   0  0  0  0  0  0  0  0  0  0  0  0
   -5.9081   21.9843  -28.6054 H   0  0  0  0  0  0  0  0  0  0  0  0
   -4.9560   23.6640  -29.6150 C   0  0  0  0  0  0  0  0  0  0  0  0
  1  2  1  0
  2  3  2  0
  3  4  1  0
  4  5  2  0
  5  6  1  0
  5  7  1  0
  7  8  1  0
  8  9  2  0
  9 10  1  0
  9 11  1  0
 11 12  1  0
 11 13  2  0
 13 14  1  0
 13 15  1  0
 15 16  1  0
 15 17  2  0
 17  4  1  0
 17  8  1  0
M  CHG  2   6  -1   7  -1
M  END
>  <UniqueID>  (46) 
45

>  <SMILES>  (46) 
[H]/N=N\c1c([O-])[n-]c2ccccc12

>  <Energy>  (46) 
56.788657389672146

>  <Genealogy>  (46) 
N=Nc1c([O-])[n-]c2ccccc12 (protonated)
[H]/N=N\c1c([O-])[n-]c2ccccc12 (cis-trans isomerization)
[H]/N=N\c1c([O-])[n-]c2ccccc12 (3D coordinates assigned)
[H]/N=N\c1c([O-])[n-]c2ccccc12 (optimized conformer: 56.788657389672146 kcal/mol)

>  <smiles>  (46) 
N=Nc1c(O)[nH]c2ccccc12

>  <score_type>  (46) 
oracle

>  <origin>  (46) 
adgpu

>  <m_score__min__energy>  (46) 
-9.5800000000000001

>  <m_primary>  (46) 
energy

$$$$
46:0
     RDKit          3D

 27 28  0  0  0  0  0  0  0  0999 V2000
   -5.2113   20.5849  -32.7754 H   0  0  0  0  0  0  0  0  0  0  0  0
   -5.9110   21.2860  -32.2970 C   0  0  0  0  0  0  0  0  0  0  0  0
   -5.4360   22.3850  -31.6540 N   0  0  0  0  0  0  0  0  0  0  0  0
   -6.2630   23.2840  -31.0480 C   0  0  0  0  0  0  0  0  0  0  0  0
   -5.7900   24.3380  -30.4480 N   0  0  0  0  0  0  0  0  0  0  0  0
   -4.4020   24.6580  -30.2590 C   0  0  0  0  0  0  0  0  0  0  0  0
   -3.9280   25.6540  -30.8660 O   0  0  0  0  0  0  0  0  0  0  0  0
   -3.5380   23.9030  -29.3170 C   0  0  0  0  0  0  0  0  0  0  0  0
   -3.9570   22.6520  -28.8320 C   0  0  0  0  0  0  0  0  0  0  0  0
   -4.9188   22.2329  -29.1625 H   0  0  0  0  0  0  0  0  0  0  0  0
   -3.1620   21.9370  -27.9340 C   0  0  0  0  0  0  0  0  0  0  0  0
   -3.4959   20.9555  -27.5664 H   0  0  0  0  0  0  0  0  0  0  0  0
   -1.9450   22.4650  -27.5020 C   0  0  0  0  0  0  0  0  0  0  0  0
   -1.3203   21.8986  -26.7956 H   0  0  0  0  0  0  0  0  0  0  0  0
   -1.5180   23.7140  -27.9660 C   0  0  0  0  0  0  0  0  0  0  0  0
    0.0170   24.3600  -27.4080 Cl  0  0  0  0  0  0  0  0  0  0  0  0
   -2.3100   24.4360  -28.8720 C   0  0  0  0  0  0  0  0  0  0  0  0
   -1.8670   25.6710  -29.3360 O   0  0  0  0  0  0  0  0  0  0  0  0
   -7.6480   23.0930  -31.1070 C   0  0  0  0  0  0  0  0  0  0  0  0
   -8.3283   23.8207  -30.6404 H   0  0  0  0  0  0  0  0  0  0  0  0
   -8.1600   21.9710  -31.7630 C   0  0  0  0  0  0  0  0  0  0  0  0
   -9.2475   21.8151  -31.8172 H   0  0  0  0  0  0  0  0  0  0  0  0
   -7.2900   21.0440  -32.3520 C   0  0  0  0  0  0  0  0  0  0  0  0
   -7.8280   19.8580  -33.0940 C   0  0  0  0  0  0  0  0  0  0  0  0
   -8.1717   19.1003  -32.3744 H   0  0  0  0  0  0  0  0  0  0  0  0
   -8.6715   20.1727  -33.7261 H   0  0  0  0  0  0  0  0  0  0  0  0
   -7.0356   19.4306  -33.7261 H   0  0  0  0  0  0  0  0  0  0  0  0
  1  2  1  0
  2  3  1  0
  3  4  1  0
  4  5  2  0
  5  6  1  0
  6  7  2  0
  6  8  1  0
  8  9  2  0
  9 10  1  0
  9 11  1  0
 11 12  1  0
 11 13  2  0
 13 14  1  0
 13 15  1  0
 15 16  1  0
 15 17  2  0
 17 18  1  0
  4 19  1  0
 19 20  1  0
 19 21  2  0
 21 22  1  0
 21 23  1  0
 23 24  1  0
 24 25  1  0
 24 26  1  0
 24 27  1  0
 23  2  2  0
 17  8  1  0
M  CHG  2   3  -1  18  -1
M  END
>  <UniqueID>  (47) 
46

>  <SMILES>  (47) 
Cc1cc/c(=N/C(=O)c2cccc(Cl)c2[O-])[n-]c1

>  <Energy>  (47) 
37.07340016233044

>  <Genealogy>  (47) 
Cc1ccc(=NC(=O)c2cccc(Cl)c2[O-])[n-]c1 (protonated)
Cc1cc/c(=N/C(=O)c2cccc(Cl)c2[O-])[n-]c1 (cis-trans isomerization)
Cc1cc/c(=N/C(=O)c2cccc(Cl)c2[O-])[n-]c1 (3D coordinates assigned)
Cc1cc/c(=N/C(=O)c2cccc(Cl)c2[O-])[n-]c1 (optimized conformer: 37.07340016233044 kcal/mol)

>  <smiles>  (47) 
Cc1ccc(=NC(=O)c2cccc(Cl)c2O)[nH]c1

>  <score_type>  (47) 
oracle

>  <origin>  (47) 
adgpu

>  <m_score__min__energy>  (47) 
-11.039999999999999

>  <m_primary>  (47) 
energy

$$$$
47:0
     RDKit          3D

 70 76  0  0  0  0  0  0  0  0999 V2000
   -6.9020   19.3010  -32.4760 O   0  0  0  0  0  0  0  0  0  0  0  0
   -5.5540   19.2250  -32.8020 C   0  0  0  0  0  0  0  0  0  0  0  0
   -4.8340   20.3910  -33.0770 C   0  0  0  0  0  0  0  0  0  0  0  0
   -3.4770   20.3160  -33.4060 C   0  0  0  0  0  0  0  0  0  0  0  0
   -2.8310   19.0690  -33.4730 C   0  0  0  0  0  0  0  0  0  0  0  0
   -1.3940   18.9780  -33.8220 C   0  0  0  0  0  0  0  0  0  0  0  0
   -0.9140   18.7440  -35.1010 C   0  0  0  0  0  0  0  0  0  0  0  0
    0.4660   18.6630  -35.0020 C   0  0  0  0  0  0  0  0  0  0  0  0
    1.4120   18.4310  -36.1200 C   0  0  0  0  0  0  0  0  0  0  0  0
    1.5360   17.1500  -36.6860 C   0  0  0  0  0  0  0  0  0  0  0  0
    2.4260   16.9240  -37.7400 C   0  0  0  0  0  0  0  0  0  0  0  0
    3.2100   17.9670  -38.2390 C   0  0  0  0  0  0  0  0  0  0  0  0
    4.0880   17.7140  -39.2920 O   0  0  0  0  0  0  0  0  0  0  0  0
    3.1010   19.2480  -37.6750 C   0  0  0  0  0  0  0  0  0  0  0  0
    3.8790   20.2970  -38.1510 O   0  0  0  0  0  0  0  0  0  0  0  0
    2.2090   19.4770  -36.6200 C   0  0  0  0  0  0  0  0  0  0  0  0
    0.7640   18.8730  -33.6660 C   0  0  0  0  0  0  0  0  0  0  0  0
    2.0440   18.9540  -33.1270 O   0  0  0  0  0  0  0  0  0  0  0  0
   -0.3620   19.0590  -32.9460 N   0  0  0  0  0  0  0  0  0  0  0  0
   -0.4140   19.4080  -31.5520 C   0  0  0  0  0  0  0  0  0  0  0  0
    0.7120   19.2220  -30.7340 C   0  0  0  0  0  0  0  0  0  0  0  0
    0.6620   19.5550  -29.3780 C   0  0  0  0  0  0  0  0  0  0  0  0
   -0.5170   20.0740  -28.8180 C   0  0  0  0  0  0  0  0  0  0  0  0
   -0.5600   20.4640  -27.3660 C   0  0  0  0  0  0  0  0  0  0  0  0
   -0.5060   21.9610  -27.2270 C   0  0  0  0  0  0  0  0  0  0  0  0
    0.5980   22.6780  -27.7160 C   0  0  0  0  0  0  0  0  0  0  0  0
    0.6640   24.0660  -27.5570 C   0  0  0  0  0  0  0  0  0  0  0  0
   -0.3680   24.7560  -26.9010 C   0  0  0  0  0  0  0  0  0  0  0  0
   -0.3060   26.1850  -26.7410 N   0  0  0  0  0  0  0  0  0  0  0  0
    0.1870   26.8680  -25.6800 C   0  0  0  0  0  0  0  0  0  0  0  0
    0.7010   26.2790  -24.5300 O   0  0  0  0  0  0  0  0  0  0  0  0
    0.0940   28.2260  -25.9040 C   0  0  0  0  0  0  0  0  0  0  0  0
   -0.4800   28.3890  -27.1360 C   0  0  0  0  0  0  0  0  0  0  0  0
   -0.6960   27.1220  -27.6380 C   0  0  0  0  0  0  0  0  0  0  0  0
   -1.1970   26.8390  -28.9040 O   0  0  0  0  0  0  0  0  0  0  0  0
   -0.5860   29.7280  -27.7980 C   0  0  0  0  0  0  0  0  0  0  0  0
   -0.6390   30.8490  -26.7280 C   0  0  0  0  0  0  0  0  0  0  0  0
    0.2750   30.6030  -25.5360 C   0  0  0  0  0  0  0  0  0  0  0  0
    0.5500   29.3630  -25.1020 C   0  0  0  0  0  0  0  0  0  0  0  0
   -1.4650   24.0350  -26.4020 C   0  0  0  0  0  0  0  0  0  0  0  0
   -1.5310   22.6480  -26.5590 C   0  0  0  0  0  0  0  0  0  0  0  0
   -1.6360   20.2800  -29.6400 C   0  0  0  0  0  0  0  0  0  0  0  0
   -1.5850   19.9490  -30.9970 C   0  0  0  0  0  0  0  0  0  0  0  0
   -3.5590   17.9040  -33.1790 C   0  0  0  0  0  0  0  0  0  0  0  0
   -4.9150   17.9820  -32.8490 C   0  0  0  0  0  0  0  0  0  0  0  0
   -5.3356   21.3691  -33.0346 H   0  0  0  0  0  0  0  0  0  0  0  0
   -2.9123   21.2369  -33.6134 H   0  0  0  0  0  0  0  0  0  0  0  0
   -1.5130   18.6422  -36.0180 H   0  0  0  0  0  0  0  0  0  0  0  0
    0.9284   16.3198  -36.2967 H   0  0  0  0  0  0  0  0  0  0  0  0
    2.5095   15.9189  -38.1791 H   0  0  0  0  0  0  0  0  0  0  0  0
    4.9190   18.2720  -39.4440 H   0  0  0  0  0  0  0  0  0  0  0  0
    2.1309   20.4818  -36.1791 H   0  0  0  0  0  0  0  0  0  0  0  0
    1.6382   18.8120  -31.1630 H   0  0  0  0  0  0  0  0  0  0  0  0
    1.5504   19.4100  -28.7458 H   0  0  0  0  0  0  0  0  0  0  0  0
   -1.4925   20.0911  -26.9173 H   0  0  0  0  0  0  0  0  0  0  0  0
    0.3072   20.0248  -26.8511 H   0  0  0  0  0  0  0  0  0  0  0  0
    1.4143   22.1458  -28.2262 H   0  0  0  0  0  0  0  0  0  0  0  0
    1.5297   24.6205  -27.9483 H   0  0  0  0  0  0  0  0  0  0  0  0
    0.2895   29.8841  -28.4453 H   0  0  0  0  0  0  0  0  0  0  0  0
   -1.5066   29.7604  -28.3992 H   0  0  0  0  0  0  0  0  0  0  0  0
   -0.3428   31.7961  -27.2027 H   0  0  0  0  0  0  0  0  0  0  0  0
   -1.6688   30.8759  -26.3424 H   0  0  0  0  0  0  0  0  0  0  0  0
    0.7217   31.4637  -25.0168 H   0  0  0  0  0  0  0  0  0  0  0  0
    1.1050   29.2046  -24.1656 H   0  0  0  0  0  0  0  0  0  0  0  0
   -2.2776   24.5655  -25.8842 H   0  0  0  0  0  0  0  0  0  0  0  0
   -2.3908   22.0920  -26.1569 H   0  0  0  0  0  0  0  0  0  0  0  0
   -2.5574   20.7039  -29.2142 H   0  0  0  0  0  0  0  0  0  0  0  0
   -2.4669   20.1132  -31.6336 H   0  0  0  0  0  0  0  0  0  0  0  0
   -3.0589   16.9247  -33.2087 H   0  0  0  0  0  0  0  0  0  0  0  0
   -5.4800   17.0649  -32.6261 H   0  0  0  0  0  0  0  0  0  0  0  0
  1  2  1  0
  2  3  2  0
  3  4  1  0
  4  5  2  0
  5  6  1  0
  6  7  2  0
  7  8  1  0
  8  9  1  0
  9 10  2  0
 10 11  1  0
 11 12  2  0
 12 13  1  0
 12 14  1  0
 14 15  1  0
 14 16  2  0
  8 17  2  0
 17 18  1  0
 17 19  1  0
 19 20  1  0
 20 21  2  0
 21 22  1  0
 22 23  2  0
 23 24  1  0
 24 25  1  0
 25 26  2  0
 26 27  1  0
 27 28  2  0
 28 29  1  0
 29 30  1  0
 30 31  1  0
 30 32  2  0
 32 33  1  0
 33 34  2  0
 34 35  1  0
 33 36  1  0
 36 37  1  0
 37 38  1  0
 38 39  2  0
 28 40  1  0
 40 41  2  0
 23 42  1  0
 42 43  2  0
  5 44  1  0
 44 45  2  0
 45  2  1  0
 19  6  1  0
 43 20  1  0
 16  9  1  0
 41 25  1  0
 34 29  1  0
 39 32  1  0
  3 46  1  0
  4 47  1  0
  7 48  1  0
 10 49  1  0
 11 50  1  0
 13 51  1  0
 16 52  1  0
 21 53  1  0
 22 54  1  0
 24 55  1  0
 24 56  1  0
 26 57  1  0
 27 58  1  0
 36 59  1  0
 36 60  1  0
 37 61  1  0
 37 62  1  0
 38 63  1  0
 39 64  1  0
 40 65  1  0
 41 66  1  0
 42 67  1  0
 43 68  1  0
 44 69  1  0
 45 70  1  0
M  CHG  5   1  -1  15  -1  18  -1  31  -1  35  -1
M  END
>  <UniqueID>  (48) 
47

>  <SMILES>  (48) 
[O-]c1ccc(-c2cc(-c3ccc(O)c([O-])c3)c([O-])n2-c2ccc(Cc3ccc(-n4c([O-])c5c(c4[O-])CCC=C5)cc3)cc2)cc1

>  <Energy>  (48) 
159.14229038210294

>  <Genealogy>  (48) 
[O-]c1ccc(-c2cc(-c3ccc(O)c([O-])c3)c([O-])n2-c2ccc(Cc3ccc(-n4c([O-])c5c(c4[O-])CCC=C5)cc3)cc2)cc1 (protonated)
[O-]c1ccc(-c2cc(-c3ccc(O)c([O-])c3)c([O-])n2-c2ccc(Cc3ccc(-n4c([O-])c5c(c4[O-])CCC=C5)cc3)cc2)cc1 (3D coordinates assigned)
[O-]c1ccc(-c2cc(-c3ccc(O)c([O-])c3)c([O-])n2-c2ccc(Cc3ccc(-n4c([O-])c5c(c4[O-])CCC=C5)cc3)cc2)cc1 (nonaromatic ring conformer: 159.14229038210294 kcal/mol)

>  <smiles>  (48) 
Oc1ccc(-c2cc(-c3ccc(O)c(O)c3)c(O)n2-c2ccc(Cc3ccc(-n4c(O)c5c(c4O)CCC=C5)cc3)cc2)cc1

>  <score_type>  (48) 
oracle

>  <origin>  (48) 
adgpu

>  <m_score__min__energy>  (48) 
-11.91

>  <m_primary>  (48) 
energy

$$$$
