0:0
     RDKit          3D

 25 27  0  0  0  0  0  0  0  0999 V2000
   -7.9520   24.5820  -29.9440 H   0  0  0  0  0  0  0  0  0  0  0  0
   -7.1750   25.2750  -29.9130 N   0  0  0  0  0  0  0  0  0  0  0  0
   -5.9850   25.0300  -30.3620 C   0  0  0  0  0  0  0  0  0  0  0  0
   -5.5080   23.8670  -30.9410 C   0  0  0  0  0  0  0  0  0  0  0  0
   -6.2380   22.6210  -31.2720 C   0  0  0  0  0  0  0  0  0  0  0  0
   -7.5430   22.4330  -30.9460 N   0  0  0  0  0  0  0  0  0  0  0  0
   -7.8250   21.2270  -31.4680 C   0  0  0  0  0  0  0  0  0  0  0  0
   -9.0420   20.5520  -31.4320 C   0  0  0  0  0  0  0  0  0  0  0  0
   -9.9165   20.9836  -30.9231 H   0  0  0  0  0  0  0  0  0  0  0  0
   -9.1160   19.3000  -32.0680 C   0  0  0  0  0  0  0  0  0  0  0  0
  -10.0607   18.7366  -32.0570 H   0  0  0  0  0  0  0  0  0  0  0  0
   -7.9850   18.7610  -32.7210 C   0  0  0  0  0  0  0  0  0  0  0  0
   -8.0550   17.7815  -33.2167 H   0  0  0  0  0  0  0  0  0  0  0  0
   -6.7690   19.4700  -32.7410 C   0  0  0  0  0  0  0  0  0  0  0  0
   -5.8816   19.0634  -33.2481 H   0  0  0  0  0  0  0  0  0  0  0  0
   -6.7280   20.7090  -32.0940 C   0  0  0  0  0  0  0  0  0  0  0  0
   -5.7060   21.5760  -31.9690 N   0  0  0  0  0  0  0  0  0  0  0  0
   -4.3500   21.4450  -32.5020 C   0  0  0  0  0  0  0  0  0  0  0  0
   -3.6340   21.3758  -31.6698 H   0  0  0  0  0  0  0  0  0  0  0  0
   -4.2845   20.5363  -33.1185 H   0  0  0  0  0  0  0  0  0  0  0  0
   -4.1118   22.3243  -33.1185 H   0  0  0  0  0  0  0  0  0  0  0  0
   -4.2030   24.0830  -31.2130 N   0  0  0  0  0  0  0  0  0  0  0  0
   -3.9390   25.2980  -30.8140 O   0  0  0  0  0  0  0  0  0  0  0  0
   -4.9700   25.9020  -30.2990 N   0  0  0  0  0  0  0  0  0  0  0  0
   -4.9790   26.8720  -29.9140 H   0  0  0  0  0  0  0  0  0  0  0  0
  1  2  1  0
  2  3  2  0
  3  4  1  0
  4  5  1  0
  5  6  2  0
  6  7  1  0
  7  8  2  0
  8  9  1  0
  8 10  1  0
 10 11  1  0
 10 12  2  0
 12 13  1  0
 12 14  1  0
 14 15  1  0
 14 16  2  0
 16 17  1  0
 17 18  1  0
 18 19  1  0
 18 20  1  0
 18 21  1  0
  4 22  2  0
 22 23  1  0
 23 24  1  0
 24 25  1  0
 24  3  1  0
 17  5  1  0
 16  7  1  0
M  END
>  <UniqueID>  (1) 
1

>  <SMILES>  (1) 
[H]/N=c1/[nH]onc1-c1nc2ccccc2n1C

>  <Energy>  (1) 
105.44054574998312

>  <Genealogy>  (1) 
[H]/N=c1/[nH]onc1-c1nc2ccccc2n1C (cis-trans isomerization)
[H]/N=c1/[nH]onc1-c1nc2ccccc2n1C (3D coordinates assigned)
[H]/N=c1/[nH]onc1-c1nc2ccccc2n1C (optimized conformer: 105.44054574998312 kcal/mol)

>  <smiles>  (1) 
Cn1c(-c2no[nH]c2=N)nc2ccccc21

>  <score_type>  (1) 
oracle

>  <origin>  (1) 
adgpu

>  <m_score__min__energy>  (1) 
-8.0700000000000003

>  <m_primary>  (1) 
energy

$$$$
1:0
     RDKit          3D

 43 45  0  0  0  0  0  0  0  0999 V2000
    0.2950   24.9020  -27.3270 C   0  0  0  0  0  0  0  0  0  0  0  0
   -1.0120   24.8240  -28.0450 C   0  0  0  0  0  0  0  0  0  0  0  0
   -1.3910   25.6820  -29.0170 N   0  0  0  0  0  0  0  0  0  0  0  0
   -2.5640   25.2970  -29.4320 O   0  0  0  0  0  0  0  0  0  0  0  0
   -2.9600   24.2320  -28.7730 C   0  0  0  0  0  0  0  0  0  0  0  0
   -4.0760   23.6060  -28.9820 N   0  0  0  0  0  0  0  0  0  0  0  0
   -5.2110   24.1120  -30.1890 S   0  0  0  0  0  0  0  0  0  0  0  0
   -6.4630   24.5980  -29.5160 O   0  0  0  0  0  0  0  0  0  0  0  0
   -4.6100   25.2380  -30.9830 O   0  0  0  0  0  0  0  0  0  0  0  0
   -5.6140   22.7610  -31.2430 C   0  0  0  0  0  0  0  0  0  0  0  0
   -6.9510   22.4440  -31.5100 C   0  0  0  0  0  0  0  0  0  0  0  0
   -7.2660   21.3720  -32.3490 C   0  0  0  0  0  0  0  0  0  0  0  0
   -6.2500   20.5970  -32.9300 C   0  0  0  0  0  0  0  0  0  0  0  0
   -6.6110   19.4960  -33.7850 N   0  0  0  0  0  0  0  0  0  0  0  0
   -6.1780   17.8440  -33.4750 S   0  0  0  0  0  0  0  0  0  0  0  0
   -6.2370   17.5860  -31.9960 O   0  0  0  0  0  0  0  0  0  0  0  0
   -7.1610   16.9410  -34.1670 O   0  0  0  0  0  0  0  0  0  0  0  0
   -4.5400   17.5330  -34.0380 C   0  0  0  0  0  0  0  0  0  0  0  0
   -4.2800   16.5020  -34.9490 C   0  0  0  0  0  0  0  0  0  0  0  0
   -2.9770   16.2770  -35.3940 C   0  0  0  0  0  0  0  0  0  0  0  0
   -1.9370   17.0900  -34.9150 C   0  0  0  0  0  0  0  0  0  0  0  0
   -0.7160   16.9070  -35.3070 N   0  0  0  0  0  0  0  0  0  0  0  0
   -2.2130   18.0820  -34.0270 N   0  0  0  0  0  0  0  0  0  0  0  0
   -3.4760   18.3180  -33.5820 C   0  0  0  0  0  0  0  0  0  0  0  0
   -4.9070   20.9220  -32.6590 C   0  0  0  0  0  0  0  0  0  0  0  0
   -4.5950   21.9940  -31.8190 C   0  0  0  0  0  0  0  0  0  0  0  0
   -2.0060   23.8830  -27.8460 C   0  0  0  0  0  0  0  0  0  0  0  0
   -1.9800   22.6860  -26.9490 C   0  0  0  0  0  0  0  0  0  0  0  0
    0.1182   24.8914  -26.2414 H   0  0  0  0  0  0  0  0  0  0  0  0
    0.9183   24.0395  -27.6054 H   0  0  0  0  0  0  0  0  0  0  0  0
    0.8113   25.8326  -27.6054 H   0  0  0  0  0  0  0  0  0  0  0  0
   -7.7566   23.0410  -31.0577 H   0  0  0  0  0  0  0  0  0  0  0  0
   -8.3196   21.1332  -32.5561 H   0  0  0  0  0  0  0  0  0  0  0  0
   -7.2230   19.6760  -34.6120 H   0  0  0  0  0  0  0  0  0  0  0  0
   -5.1028   15.8696  -35.3137 H   0  0  0  0  0  0  0  0  0  0  0  0
   -2.7665   15.4712  -36.1126 H   0  0  0  0  0  0  0  0  0  0  0  0
   -0.4520   16.1590  -35.9870 H   0  0  0  0  0  0  0  0  0  0  0  0
   -3.6614   19.1283  -32.8616 H   0  0  0  0  0  0  0  0  0  0  0  0
   -4.0988   20.3285  -33.1112 H   0  0  0  0  0  0  0  0  0  0  0  0
   -3.5427   22.2364  -31.6093 H   0  0  0  0  0  0  0  0  0  0  0  0
   -1.9871   23.0143  -25.8992 H   0  0  0  0  0  0  0  0  0  0  0  0
   -2.8648   22.0623  -27.1441 H   0  0  0  0  0  0  0  0  0  0  0  0
   -1.0689   22.1013  -27.1441 H   0  0  0  0  0  0  0  0  0  0  0  0
  1  2  1  0
  2  3  1  0
  3  4  1  0
  4  5  1  0
  5  6  2  3
  6  7  1  0
  7  8  2  0
  7  9  2  0
  7 10  1  0
 10 11  2  0
 11 12  1  0
 12 13  2  0
 13 14  1  0
 14 15  1  0
 15 16  2  0
 15 17  2  0
 15 18  1  0
 18 19  1  0
 19 20  2  0
 20 21  1  0
 21 22  2  3
 21 23  1  0
 23 24  1  0
 13 25  1  0
 25 26  2  0
  5 27  1  0
 27 28  1  0
 27  2  2  0
 26 10  1  0
 24 18  2  0
  1 29  1  0
  1 30  1  0
  1 31  1  0
 11 32  1  0
 12 33  1  0
 14 34  1  0
 19 35  1  0
 20 36  1  0
 22 37  1  0
 24 38  1  0
 25 39  1  0
 26 40  1  0
 28 41  1  0
 28 42  1  0
 28 43  1  0
M  CHG  2   3  -1  23  -1
M  END
>  <UniqueID>  (2) 
2

>  <SMILES>  (2) 
Cc1[n-]oc(=NS(=O)(=O)c2ccc(NS(=O)(=O)c3ccc(=N)[n-]c3)cc2)c1C

>  <Energy>  (2) 
81.18047187335422

>  <Genealogy>  (2) 
Cc1[n-]oc(=NS(=O)(=O)c2ccc(NS(=O)(=O)c3ccc(=N)[n-]c3)cc2)c1C (protonated)
Cc1[n-]oc(=NS(=O)(=O)c2ccc(NS(=O)(=O)c3ccc(=N)[n-]c3)cc2)c1C (3D coordinates assigned)
Cc1[n-]oc(=NS(=O)(=O)c2ccc(NS(=O)(=O)c3ccc(=N)[n-]c3)cc2)c1C (optimized conformer: 81.18047187335422 kcal/mol)

>  <smiles>  (2) 
Cc1[nH]oc(=NS(=O)(=O)c2ccc(NS(=O)(=O)c3ccc(=N)[nH]c3)cc2)c1C

>  <score_type>  (2) 
oracle

>  <origin>  (2) 
adgpu

>  <m_score__min__energy>  (2) 
-12.32

>  <m_primary>  (2) 
energy

$$$$
2:0
     RDKit          3D

 80 85  0  0  0  0  0  0  0  0999 V2000
   -7.4405   18.5719  -30.9716 H   0  0  0  0  0  0  0  0  0  0  0  0
   -6.8170   18.2560  -31.8210 C   0  0  0  0  0  0  0  0  0  0  0  0
   -6.1290   17.0440  -31.7680 C   0  0  0  0  0  0  0  0  0  0  0  0
   -6.2199   16.4038  -30.8782 H   0  0  0  0  0  0  0  0  0  0  0  0
   -5.3190   16.6330  -32.8440 C   0  0  0  0  0  0  0  0  0  0  0  0
   -4.6130   15.3710  -32.7960 N   0  0  0  0  0  0  0  0  0  0  0  0
   -3.7270   14.9840  -33.8990 C   0  0  0  0  0  0  0  0  0  0  0  0
   -3.1970   15.8744  -34.2682 H   0  0  0  0  0  0  0  0  0  0  0  0
   -4.3314   14.5437  -34.7057 H   0  0  0  0  0  0  0  0  0  0  0  0
   -2.7080   13.9530  -33.4230 C   0  0  0  0  0  0  0  0  0  0  0  0
   -2.0786   14.4024  -32.6408 H   0  0  0  0  0  0  0  0  0  0  0  0
   -2.0913   13.6447  -34.2801 H   0  0  0  0  0  0  0  0  0  0  0  0
   -3.3870   12.7590  -32.8730 N   0  0  0  0  0  0  0  0  0  0  0  0
   -2.4000   11.8600  -32.2500 C   0  0  0  0  0  0  0  0  0  0  0  0
   -2.4786   11.9316  -31.1551 H   0  0  0  0  0  0  0  0  0  0  0  0
   -2.5970   10.8246  -32.5648 H   0  0  0  0  0  0  0  0  0  0  0  0
   -1.3874   12.1526  -32.5648 H   0  0  0  0  0  0  0  0  0  0  0  0
   -4.5160   13.0540  -31.9480 C   0  0  0  0  0  0  0  0  0  0  0  0
   -4.3608   12.4841  -31.0200 H   0  0  0  0  0  0  0  0  0  0  0  0
   -5.4398   12.7672  -32.4718 H   0  0  0  0  0  0  0  0  0  0  0  0
   -4.6540   14.5390  -31.5850 C   0  0  0  0  0  0  0  0  0  0  0  0
   -3.8269   14.8273  -30.9195 H   0  0  0  0  0  0  0  0  0  0  0  0
   -5.6188   14.6935  -31.0797 H   0  0  0  0  0  0  0  0  0  0  0  0
   -5.2100   17.4750  -33.9700 C   0  0  0  0  0  0  0  0  0  0  0  0
   -4.5719   17.1732  -34.8137 H   0  0  0  0  0  0  0  0  0  0  0  0
   -5.9010   18.6860  -34.0280 C   0  0  0  0  0  0  0  0  0  0  0  0
   -5.8065   19.3337  -34.9120 H   0  0  0  0  0  0  0  0  0  0  0  0
   -6.7140   19.0730  -32.9580 C   0  0  0  0  0  0  0  0  0  0  0  0
   -7.4480   20.3000  -33.0320 N   0  0  0  0  0  0  0  0  0  0  0  0
   -7.2590   21.3600  -32.3010 C   0  0  0  0  0  0  0  0  0  0  0  0
   -8.0960   22.4180  -32.4710 N   0  0  0  0  0  0  0  0  0  0  0  0
   -7.9640   23.5680  -31.7570 C   0  0  0  0  0  0  0  0  0  0  0  0
   -8.6706   24.3960  -31.9153 H   0  0  0  0  0  0  0  0  0  0  0  0
   -6.9300   23.7010  -30.8200 C   0  0  0  0  0  0  0  0  0  0  0  0
   -6.7850   24.8740  -30.0790 C   0  0  0  0  0  0  0  0  0  0  0  0
   -7.4915   25.7065  -30.2124 H   0  0  0  0  0  0  0  0  0  0  0  0
   -5.7370   24.9800  -29.1690 C   0  0  0  0  0  0  0  0  0  0  0  0
   -5.6216   25.9021  -28.5804 H   0  0  0  0  0  0  0  0  0  0  0  0
   -4.8490   23.9550  -28.9960 N   0  0  0  0  0  0  0  0  0  0  0  0
   -3.7810   24.1290  -28.0420 C   0  0  0  0  0  0  0  0  0  0  0  0
   -3.9830   24.9220  -26.9040 C   0  0  0  0  0  0  0  0  0  0  0  0
   -4.9602   25.3970  -26.7325 H   0  0  0  0  0  0  0  0  0  0  0  0
   -2.9480   25.1100  -25.9890 C   0  0  0  0  0  0  0  0  0  0  0  0
   -3.1168   25.7255  -25.0931 H   0  0  0  0  0  0  0  0  0  0  0  0
   -1.6920   24.5200  -26.2020 C   0  0  0  0  0  0  0  0  0  0  0  0
   -0.6170   24.7580  -25.2230 C   0  0  0  0  0  0  0  0  0  0  0  0
    0.0670   23.7930  -24.7870 O   0  0  0  0  0  0  0  0  0  0  0  0
   -0.4280   26.0580  -24.6710 N   0  0  0  0  0  0  0  0  0  0  0  0
   -1.0370   26.2890  -23.8500 H   0  0  0  0  0  0  0  0  0  0  0  0
   -0.1930   26.8570  -25.2990 H   0  0  0  0  0  0  0  0  0  0  0  0
   -1.4860   23.6930  -27.3350 C   0  0  0  0  0  0  0  0  0  0  0  0
   -0.2220   23.0160  -27.5330 N   0  0  0  0  0  0  0  0  0  0  0  0
    0.9440   23.8200  -27.9080 C   0  0  0  0  0  0  0  0  0  0  0  0
    1.4543   24.1719  -26.9993 H   0  0  0  0  0  0  0  0  0  0  0  0
    1.6364   23.2065  -28.5031 H   0  0  0  0  0  0  0  0  0  0  0  0
    0.6167   24.6853  -28.5031 H   0  0  0  0  0  0  0  0  0  0  0  0
   -0.0670   21.5470  -27.4580 C   0  0  0  0  0  0  0  0  0  0  0  0
    0.8202   21.3430  -26.8405 H   0  0  0  0  0  0  0  0  0  0  0  0
    0.2670   20.8810  -28.8340 C   0  0  0  0  0  0  0  0  0  0  0  0
    0.2434   21.6570  -29.6133 H   0  0  0  0  0  0  0  0  0  0  0  0
    1.2612   20.4194  -28.7420 H   0  0  0  0  0  0  0  0  0  0  0  0
   -0.7190   19.7700  -29.2210 C   0  0  0  0  0  0  0  0  0  0  0  0
   -1.6998   20.2189  -29.4366 H   0  0  0  0  0  0  0  0  0  0  0  0
   -0.3292   19.2497  -30.1083 H   0  0  0  0  0  0  0  0  0  0  0  0
   -0.8740   18.7440  -28.0790 C   0  0  0  0  0  0  0  0  0  0  0  0
   -1.7140   18.0772  -28.3235 H   0  0  0  0  0  0  0  0  0  0  0  0
    0.0819   18.2054  -28.0002 H   0  0  0  0  0  0  0  0  0  0  0  0
   -1.1460   19.3850  -26.6960 C   0  0  0  0  0  0  0  0  0  0  0  0
   -2.0794   18.9647  -26.2934 H   0  0  0  0  0  0  0  0  0  0  0  0
   -0.2809   19.1591  -26.0553 H   0  0  0  0  0  0  0  0  0  0  0  0
   -1.2840   20.9130  -26.7540 C   0  0  0  0  0  0  0  0  0  0  0  0
   -2.1973   21.1717  -27.3099 H   0  0  0  0  0  0  0  0  0  0  0  0
   -1.3382   21.3012  -25.7262 H   0  0  0  0  0  0  0  0  0  0  0  0
   -2.5340   23.5170  -28.2530 C   0  0  0  0  0  0  0  0  0  0  0  0
   -2.3771   22.8940  -29.1459 H   0  0  0  0  0  0  0  0  0  0  0  0
   -4.9770   22.7830  -29.7040 C   0  0  0  0  0  0  0  0  0  0  0  0
   -4.1610   21.8320  -29.5140 O   0  0  0  0  0  0  0  0  0  0  0  0
   -6.0290   22.6370  -30.6330 C   0  0  0  0  0  0  0  0  0  0  0  0
   -6.2040   21.4520  -31.3710 C   0  0  0  0  0  0  0  0  0  0  0  0
   -5.5214   20.6022  -31.2230 H   0  0  0  0  0  0  0  0  0  0  0  0
  1  2  1  0
  2  3  2  0
  3  4  1  0
  3  5  1  0
  5  6  1  0
  6  7  1  0
  7  8  1  0
  7  9  1  0
  7 10  1  0
 10 11  1  0
 10 12  1  0
 10 13  1  0
 13 14  1  0
 14 15  1  0
 14 16  1  0
 14 17  1  0
 13 18  1  0
 18 19  1  0
 18 20  1  0
 18 21  1  0
 21 22  1  0
 21 23  1  0
  5 24  2  0
 24 25  1  0
 24 26  1  0
 26 27  1  0
 26 28  2  0
 28 29  1  0
 29 30  2  0
 30 31  1  0
 31 32  1  0
 32 33  1  0
 32 34  2  0
 34 35  1  0
 35 36  1  0
 35 37  2  0
 37 38  1  0
 37 39  1  0
 39 40  1  0
 40 41  2  0
 41 42  1  0
 41 43  1  0
 43 44  1  0
 43 45  2  0
 45 46  1  0
 46 47  2  0
 46 48  1  0
 48 49  1  0
 48 50  1  0
 45 51  1  0
 51 52  1  0
 52 53  1  0
 53 54  1  0
 53 55  1  0
 53 56  1  0
 52 57  1  0
 57 58  1  0
 57 59  1  0
 59 60  1  0
 59 61  1  0
 59 62  1  0
 62 63  1  0
 62 64  1  0
 62 65  1  0
 65 66  1  0
 65 67  1  0
 65 68  1  0
 68 69  1  0
 68 70  1  0
 68 71  1  0
 71 72  1  0
 71 73  1  0
 51 74  2  0
 74 75  1  0
 39 76  1  0
 76 77  2  0
 76 78  1  0
 78 79  2  0
 79 80  1  0
 28  2  1  0
 79 30  1  0
 21  6  1  0
 78 34  1  0
 74 40  1  0
 71 57  1  0
M  CHG  1  31  -1
M  END
>  <UniqueID>  (3) 
3

>  <SMILES>  (3) 
CN1CCN(c2ccc(/N=c3\cc4c(=O)n(-c5ccc(C(N)=O)c(N(C)C6CCCCC6)c5)ccc4c[n-]3)cc2)CC1

>  <Energy>  (3) 
144.6216952007355

>  <Genealogy>  (3) 
CN1CCN(c2ccc(N=c3cc4c(=O)n(-c5ccc(C(N)=O)c(N(C)C6CCCCC6)c5)ccc4c[n-]3)cc2)CC1 (protonated)
CN1CCN(c2ccc(/N=c3\cc4c(=O)n(-c5ccc(C(N)=O)c(N(C)C6CCCCC6)c5)ccc4c[n-]3)cc2)CC1 (cis-trans isomerization)
CN1CCN(c2ccc(/N=c3\cc4c(=O)n(-c5ccc(C(N)=O)c(N(C)C6CCCCC6)c5)ccc4c[n-]3)cc2)CC1 (3D coordinates assigned)
CN1CCN(c2ccc(/N=c3\cc4c(=O)n(-c5ccc(C(N)=O)c(N(C)C6CCCCC6)c5)ccc4c[n-]3)cc2)CC1 (nonaromatic ring conformer: 144.6216952007355 kcal/mol)

>  <smiles>  (3) 
CN1CCN(c2ccc(N=c3cc4c(=O)n(-c5ccc(C(N)=O)c(N(C)C6CCCCC6)c5)ccc4c[nH]3)cc2)CC1

>  <score_type>  (3) 
oracle

>  <origin>  (3) 
adgpu

>  <m_score__min__energy>  (3) 
-12.029999999999999

>  <m_primary>  (3) 
energy

$$$$
3:0
     RDKit          3D

 46 48  0  0  0  0  0  0  0  0999 V2000
   -5.7250   25.8270  -30.1880 C   0  0  0  0  0  0  0  0  0  0  0  0
   -4.9970   24.9200  -31.0080 O   0  0  0  0  0  0  0  0  0  0  0  0
   -5.4410   23.6390  -31.3720 C   0  0  0  0  0  0  0  0  0  0  0  0
   -6.5100   23.4510  -32.2720 C   0  0  0  0  0  0  0  0  0  0  0  0
   -6.9050   22.1640  -32.6420 C   0  0  0  0  0  0  0  0  0  0  0  0
   -6.2400   21.0520  -32.1250 C   0  0  0  0  0  0  0  0  0  0  0  0
   -5.1840   21.2220  -31.2300 C   0  0  0  0  0  0  0  0  0  0  0  0
   -4.7840   22.5110  -30.8390 C   0  0  0  0  0  0  0  0  0  0  0  0
   -3.7000   22.6650  -29.9060 N   0  0  0  0  0  0  0  0  0  0  0  0
   -3.8500   23.5500  -28.7430 C   0  0  0  0  0  0  0  0  0  0  0  0
   -2.8100   23.2140  -27.6650 C   0  0  0  0  0  0  0  0  0  0  0  0
   -1.4280   23.1630  -28.1910 N   0  0  0  0  0  0  0  0  0  0  0  0
   -0.5840   24.6840  -27.9860 S   0  0  0  0  0  0  0  0  0  0  0  0
   -1.2580   25.7360  -28.8210 O   0  0  0  0  0  0  0  0  0  0  0  0
    0.8180   24.5340  -28.5070 O   0  0  0  0  0  0  0  0  0  0  0  0
   -0.5210   25.2220  -26.2930 C   0  0  0  0  0  0  0  0  0  0  0  0
   -0.6070   26.5190  -25.7850 C   0  0  0  0  0  0  0  0  0  0  0  0
   -0.8350   27.7970  -26.5280 C   0  0  0  0  0  0  0  0  0  0  0  0
   -0.4960   26.4840  -24.4430 N   0  0  0  0  0  0  0  0  0  0  0  0
   -0.3200   25.2270  -24.0780 N   0  0  0  0  0  0  0  0  0  0  0  0
   -0.3170   24.4360  -25.1660 C   0  0  0  0  0  0  0  0  0  0  0  0
   -0.1240   22.9530  -25.1040 C   0  0  0  0  0  0  0  0  0  0  0  0
   -1.2870   22.6450  -29.5710 C   0  0  0  0  0  0  0  0  0  0  0  0
   -2.5020   21.8330  -30.0260 C   0  0  0  0  0  0  0  0  0  0  0  0
   -5.5385   25.5946  -29.1291 H   0  0  0  0  0  0  0  0  0  0  0  0
   -5.3992   26.8559  -30.4005 H   0  0  0  0  0  0  0  0  0  0  0  0
   -6.8000   25.7315  -30.4005 H   0  0  0  0  0  0  0  0  0  0  0  0
   -7.0362   24.3241  -32.6853 H   0  0  0  0  0  0  0  0  0  0  0  0
   -7.7420   22.0266  -33.3424 H   0  0  0  0  0  0  0  0  0  0  0  0
   -6.5490   20.0394  -32.4237 H   0  0  0  0  0  0  0  0  0  0  0  0
   -4.6611   20.3418  -30.8278 H   0  0  0  0  0  0  0  0  0  0  0  0
   -3.7130   24.5933  -29.0636 H   0  0  0  0  0  0  0  0  0  0  0  0
   -4.8553   23.4086  -28.3195 H   0  0  0  0  0  0  0  0  0  0  0  0
   -2.8581   23.9829  -26.8798 H   0  0  0  0  0  0  0  0  0  0  0  0
   -3.0510   22.2138  -27.2756 H   0  0  0  0  0  0  0  0  0  0  0  0
   -0.9814   28.6174  -25.8100 H   0  0  0  0  0  0  0  0  0  0  0  0
    0.0385   28.0145  -27.1602 H   0  0  0  0  0  0  0  0  0  0  0  0
   -1.7298   27.6990  -27.1602 H   0  0  0  0  0  0  0  0  0  0  0  0
   -0.2010   24.9180  -23.0880 H   0  0  0  0  0  0  0  0  0  0  0  0
   -0.0823   22.6323  -24.0526 H   0  0  0  0  0  0  0  0  0  0  0  0
   -0.9646   22.4525  -25.6069 H   0  0  0  0  0  0  0  0  0  0  0  0
    0.8167   22.6843  -25.6069 H   0  0  0  0  0  0  0  0  0  0  0  0
   -1.1574   23.4969  -30.2548 H   0  0  0  0  0  0  0  0  0  0  0  0
   -0.4155   21.9740  -29.5858 H   0  0  0  0  0  0  0  0  0  0  0  0
   -2.3693   21.5256  -31.0738 H   0  0  0  0  0  0  0  0  0  0  0  0
   -2.6069   20.9357  -29.3984 H   0  0  0  0  0  0  0  0  0  0  0  0
  1  2  1  0
  2  3  1  0
  3  4  2  0
  4  5  1  0
  5  6  2  0
  6  7  1  0
  7  8  2  0
  8  9  1  0
  9 10  1  0
 10 11  1  0
 11 12  1  0
 12 13  1  0
 13 14  2  0
 13 15  2  0
 13 16  1  0
 16 17  1  0
 17 18  1  0
 17 19  2  0
 19 20  1  0
 20 21  1  0
 21 22  1  0
 12 23  1  0
 23 24  1  0
  8  3  1  0
 24  9  1  0
 21 16  2  0
  1 25  1  0
  1 26  1  0
  1 27  1  0
  4 28  1  0
  5 29  1  0
  6 30  1  0
  7 31  1  0
 10 32  1  0
 10 33  1  0
 11 34  1  0
 11 35  1  0
 18 36  1  0
 18 37  1  0
 18 38  1  0
 20 39  1  0
 22 40  1  0
 22 41  1  0
 22 42  1  0
 23 43  1  0
 23 44  1  0
 24 45  1  0
 24 46  1  0
M  END
>  <UniqueID>  (4) 
4

>  <SMILES>  (4) 
COc1ccccc1N1CCN(S(=O)(=O)c2c(C)n[nH]c2C)CC1

>  <Energy>  (4) 
85.46049896414355

>  <Genealogy>  (4) 
COc1ccccc1N1CCN(S(=O)(=O)c2c(C)n[nH]c2C)CC1 (3D coordinates assigned)
COc1ccccc1N1CCN(S(=O)(=O)c2c(C)n[nH]c2C)CC1 (nonaromatic ring conformer: 85.46049896414355 kcal/mol)

>  <smiles>  (4) 
COc1ccccc1N1CCN(S(=O)(=O)c2c(C)n[nH]c2C)CC1

>  <score_type>  (4) 
oracle

>  <origin>  (4) 
adgpu

>  <m_score__min__energy>  (4) 
-8.4000000000000004

>  <m_primary>  (4) 
energy

$$$$
4:0
     RDKit          3D

 43 45  0  0  0  0  0  0  0  0999 V2000
   -7.0510   19.0280  -33.0980 C   0  0  0  0  0  0  0  0  0  0  0  0
   -7.7370   20.2610  -32.9020 O   0  0  0  0  0  0  0  0  0  0  0  0
   -7.1830   21.3820  -32.2680 C   0  0  0  0  0  0  0  0  0  0  0  0
   -5.8220   21.6500  -32.4590 C   0  0  0  0  0  0  0  0  0  0  0  0
   -5.2240   22.7560  -31.8480 C   0  0  0  0  0  0  0  0  0  0  0  0
   -5.9820   23.6130  -31.0410 C   0  0  0  0  0  0  0  0  0  0  0  0
   -5.2180   24.9960  -30.2670 S   0  0  0  0  0  0  0  0  0  0  0  0
   -5.5400   24.9650  -28.8000 O   0  0  0  0  0  0  0  0  0  0  0  0
   -5.7300   26.2660  -30.8860 O   0  0  0  0  0  0  0  0  0  0  0  0
   -3.5020   24.8920  -30.5050 N   0  0  0  0  0  0  0  0  0  0  0  0
   -2.5230   24.2990  -29.6370 C   0  0  0  0  0  0  0  0  0  0  0  0
   -2.5050   22.8990  -29.5500 C   0  0  0  0  0  0  0  0  0  0  0  0
   -1.5850   22.2320  -28.7210 C   0  0  0  0  0  0  0  0  0  0  0  0
   -1.5870   20.7520  -28.6330 C   0  0  0  0  0  0  0  0  0  0  0  0
   -1.9750   20.1850  -27.5750 O   0  0  0  0  0  0  0  0  0  0  0  0
   -1.1960   19.9650  -29.7670 N   0  0  0  0  0  0  0  0  0  0  0  0
   -1.2760   20.3500  -31.1470 C   0  0  0  0  0  0  0  0  0  0  0  0
   -0.1480   20.7840  -31.8690 C   0  0  0  0  0  0  0  0  0  0  0  0
   -0.2750   21.1720  -33.2070 C   0  0  0  0  0  0  0  0  0  0  0  0
   -1.5250   21.1420  -33.8300 C   0  0  0  0  0  0  0  0  0  0  0  0
   -2.6530   20.7340  -33.1120 C   0  0  0  0  0  0  0  0  0  0  0  0
   -2.5290   20.3470  -31.7750 C   0  0  0  0  0  0  0  0  0  0  0  0
   -0.6690   22.9900  -27.9750 C   0  0  0  0  0  0  0  0  0  0  0  0
   -0.6700   24.3830  -28.0620 C   0  0  0  0  0  0  0  0  0  0  0  0
   -1.5830   25.0440  -28.8890 C   0  0  0  0  0  0  0  0  0  0  0  0
   -1.5240   26.4290  -28.9560 O   0  0  0  0  0  0  0  0  0  0  0  0
   -7.3430   23.3470  -30.8390 C   0  0  0  0  0  0  0  0  0  0  0  0
   -7.9430   22.2420  -31.4510 C   0  0  0  0  0  0  0  0  0  0  0  0
   -6.8051   18.5859  -32.1212 H   0  0  0  0  0  0  0  0  0  0  0  0
   -7.6940   18.3363  -33.6621 H   0  0  0  0  0  0  0  0  0  0  0  0
   -6.1243   19.2096  -33.6621 H   0  0  0  0  0  0  0  0  0  0  0  0
   -5.2188   20.9852  -33.0947 H   0  0  0  0  0  0  0  0  0  0  0  0
   -4.1530   22.9539  -32.0020 H   0  0  0  0  0  0  0  0  0  0  0  0
   -3.2235   22.3120  -30.1409 H   0  0  0  0  0  0  0  0  0  0  0  0
    0.8364   20.8181  -31.3794 H   0  0  0  0  0  0  0  0  0  0  0  0
    0.6110   21.5013  -33.7696 H   0  0  0  0  0  0  0  0  0  0  0  0
   -1.6216   21.4392  -34.8847 H   0  0  0  0  0  0  0  0  0  0  0  0
   -3.6388   20.7176  -33.5998 H   0  0  0  0  0  0  0  0  0  0  0  0
   -3.4215   20.0377  -31.2112 H   0  0  0  0  0  0  0  0  0  0  0  0
    0.0536   22.4834  -27.3183 H   0  0  0  0  0  0  0  0  0  0  0  0
    0.0543   24.9662  -27.4744 H   0  0  0  0  0  0  0  0  0  0  0  0
   -7.9415   24.0098  -30.1967 H   0  0  0  0  0  0  0  0  0  0  0  0
   -9.0134   22.0434  -31.2937 H   0  0  0  0  0  0  0  0  0  0  0  0
  1  2  1  0
  2  3  1  0
  3  4  2  0
  4  5  1  0
  5  6  2  0
  6  7  1  0
  7  8  2  0
  7  9  2  0
  7 10  1  0
 10 11  1  0
 11 12  2  0
 12 13  1  0
 13 14  1  0
 14 15  2  0
 14 16  1  0
 16 17  1  0
 17 18  2  0
 18 19  1  0
 19 20  2  0
 20 21  1  0
 21 22  2  0
 13 23  2  0
 23 24  1  0
 24 25  2  0
 25 26  1  0
  6 27  1  0
 27 28  2  0
 28  3  1  0
 25 11  1  0
 22 17  1  0
  1 29  1  0
  1 30  1  0
  1 31  1  0
  4 32  1  0
  5 33  1  0
 12 34  1  0
 18 35  1  0
 19 36  1  0
 20 37  1  0
 21 38  1  0
 22 39  1  0
 23 40  1  0
 24 41  1  0
 27 42  1  0
 28 43  1  0
M  CHG  3  10  -1  16  -1  26  -1
M  END
>  <UniqueID>  (5) 
5

>  <SMILES>  (5) 
COc1ccc(S(=O)(=O)[N-]c2cc(C(=O)[N-]c3ccccc3)ccc2[O-])cc1

>  <Energy>  (5) 
57.34738820385684

>  <Genealogy>  (5) 
COc1ccc(S(=O)(=O)[N-]c2cc(C(=O)[N-]c3ccccc3)ccc2[O-])cc1 (protonated)
COc1ccc(S(=O)(=O)[N-]c2cc(C(=O)[N-]c3ccccc3)ccc2[O-])cc1 (3D coordinates assigned)
COc1ccc(S(=O)(=O)[N-]c2cc(C(=O)[N-]c3ccccc3)ccc2[O-])cc1 (optimized conformer: 57.34738820385684 kcal/mol)

>  <smiles>  (5) 
COc1ccc(S(=O)(=O)Nc2cc(C(=O)Nc3ccccc3)ccc2O)cc1

>  <score_type>  (5) 
oracle

>  <origin>  (5) 
adgpu

>  <m_score__min__energy>  (5) 
-12.73

>  <m_primary>  (5) 
energy

$$$$
5:0
     RDKit          3D

 36 38  0  0  0  0  0  0  0  0999 V2000
   -3.8370   25.3040  -30.5140 N   0  0  0  0  0  0  0  0  0  0  0  0
   -3.1230   23.8780  -29.8480 S   0  0  0  0  0  0  0  0  0  0  0  0
   -3.8260   23.5260  -28.5670 O   0  0  0  0  0  0  0  0  0  0  0  0
   -1.6740   24.1360  -29.5510 O   0  0  0  0  0  0  0  0  0  0  0  0
   -3.2490   22.5530  -31.0020 C   0  0  0  0  0  0  0  0  0  0  0  0
   -2.2010   21.6350  -31.1640 C   0  0  0  0  0  0  0  0  0  0  0  0
   -2.2820   20.6410  -32.1450 C   0  0  0  0  0  0  0  0  0  0  0  0
   -3.4210   20.5440  -32.9650 C   0  0  0  0  0  0  0  0  0  0  0  0
   -3.4970   19.6060  -34.0490 N   0  0  0  0  0  0  0  0  0  0  0  0
   -4.2910   18.4150  -34.0920 C   0  0  0  0  0  0  0  0  0  0  0  0
   -3.9330   17.4700  -34.8410 O   0  0  0  0  0  0  0  0  0  0  0  0
   -5.5540   18.3060  -33.3430 C   0  0  0  0  0  0  0  0  0  0  0  0
   -5.8650   17.3290  -32.4150 C   0  0  0  0  0  0  0  0  0  0  0  0
   -7.1450   17.6100  -31.9880 C   0  0  0  0  0  0  0  0  0  0  0  0
   -7.5300   18.7400  -32.6830 C   0  0  0  0  0  0  0  0  0  0  0  0
   -8.8600   19.4160  -32.5860 C   0  0  0  0  0  0  0  0  0  0  0  0
   -8.6960   20.7670  -32.0620 N   0  0  0  0  0  0  0  0  0  0  0  0
   -7.6600   21.2070  -31.3230 C   0  0  0  0  0  0  0  0  0  0  0  0
   -7.8540   22.5490  -31.0900 C   0  0  0  0  0  0  0  0  0  0  0  0
   -6.8250   23.6160  -30.1590 Cl  0  0  0  0  0  0  0  0  0  0  0  0
   -9.0320   22.8700  -31.7340 C   0  0  0  0  0  0  0  0  0  0  0  0
   -9.5250   21.7660  -32.3280 N   0  0  0  0  0  0  0  0  0  0  0  0
   -6.5680   19.1270  -33.4860 O   0  0  0  0  0  0  0  0  0  0  0  0
   -4.4680   21.4580  -32.7910 C   0  0  0  0  0  0  0  0  0  0  0  0
   -4.3870   22.4520  -31.8130 C   0  0  0  0  0  0  0  0  0  0  0  0
   -3.1640   25.6850  -31.2150 H   0  0  0  0  0  0  0  0  0  0  0  0
   -1.3129   21.6968  -30.5179 H   0  0  0  0  0  0  0  0  0  0  0  0
   -1.4513   19.9320  -32.2758 H   0  0  0  0  0  0  0  0  0  0  0  0
   -5.2231   16.4987  -32.0855 H   0  0  0  0  0  0  0  0  0  0  0  0
   -7.7366   17.0510  -31.2481 H   0  0  0  0  0  0  0  0  0  0  0  0
   -9.3170   19.4659  -33.5853 H   0  0  0  0  0  0  0  0  0  0  0  0
   -9.5081   18.8419  -31.9075 H   0  0  0  0  0  0  0  0  0  0  0  0
   -6.8117   20.6026  -30.9694 H   0  0  0  0  0  0  0  0  0  0  0  0
   -9.4943   23.8678  -31.7583 H   0  0  0  0  0  0  0  0  0  0  0  0
   -5.3612   21.3925  -33.4297 H   0  0  0  0  0  0  0  0  0  0  0  0
   -5.2198   23.1581  -31.6791 H   0  0  0  0  0  0  0  0  0  0  0  0
  1  2  1  0
  2  3  2  0
  2  4  2  0
  2  5  1  0
  5  6  2  0
  6  7  1  0
  7  8  2  0
  8  9  1  0
  9 10  1  0
 10 11  2  0
 10 12  1  0
 12 13  2  0
 13 14  1  0
 14 15  2  0
 15 16  1  0
 16 17  1  0
 17 18  1  0
 18 19  2  0
 19 20  1  0
 19 21  1  0
 21 22  2  0
 15 23  1  0
  8 24  1  0
 24 25  2  0
 25  5  1  0
 23 12  1  0
 22 17  1  0
  1 26  1  0
  6 27  1  0
  7 28  1  0
 13 29  1  0
 14 30  1  0
 16 31  1  0
 16 32  1  0
 18 33  1  0
 21 34  1  0
 24 35  1  0
 25 36  1  0
M  CHG  2   1  -1   9  -1
M  END
>  <UniqueID>  (6) 
6

>  <SMILES>  (6) 
[NH-]S(=O)(=O)c1ccc([N-]C(=O)c2ccc(Cn3cc(Cl)cn3)o2)cc1

>  <Energy>  (6) 
92.99431615288296

>  <Genealogy>  (6) 
[NH-]S(=O)(=O)c1ccc([N-]C(=O)c2ccc(Cn3cc(Cl)cn3)o2)cc1 (protonated)
[NH-]S(=O)(=O)c1ccc([N-]C(=O)c2ccc(Cn3cc(Cl)cn3)o2)cc1 (3D coordinates assigned)
[NH-]S(=O)(=O)c1ccc([N-]C(=O)c2ccc(Cn3cc(Cl)cn3)o2)cc1 (optimized conformer: 92.99431615288296 kcal/mol)

>  <smiles>  (6) 
NS(=O)(=O)c1ccc(NC(=O)c2ccc(Cn3cc(Cl)cn3)o2)cc1

>  <score_type>  (6) 
oracle

>  <origin>  (6) 
adgpu

>  <m_score__min__energy>  (6) 
-10.81

>  <m_primary>  (6) 
energy

$$$$
6:0
     RDKit          3D

 44 46  0  0  0  0  0  0  0  0999 V2000
   -2.1940   20.4250  -33.7580 C   0  0  0  0  0  0  0  0  0  0  0  0
   -2.0870   21.2230  -32.5020 C   0  0  0  0  0  0  0  0  0  0  0  0
   -3.1430   21.6450  -31.7240 C   0  0  0  0  0  0  0  0  0  0  0  0
   -2.5310   22.2820  -30.6650 C   0  0  0  0  0  0  0  0  0  0  0  0
   -3.2240   22.8750  -29.4780 C   0  0  0  0  0  0  0  0  0  0  0  0
   -2.8970   24.3650  -29.3570 C   0  0  0  0  0  0  0  0  0  0  0  0
   -3.5130   25.1160  -30.4450 N   0  0  0  0  0  0  0  0  0  0  0  0
   -4.9260   25.3240  -30.5720 C   0  0  0  0  0  0  0  0  0  0  0  0
   -5.4100   26.4730  -30.3820 O   0  0  0  0  0  0  0  0  0  0  0  0
   -5.8180   24.1920  -30.9180 C   0  0  0  0  0  0  0  0  0  0  0  0
   -5.6980   23.5410  -32.1600 C   0  0  0  0  0  0  0  0  0  0  0  0
   -6.5410   22.4730  -32.4850 C   0  0  0  0  0  0  0  0  0  0  0  0
   -7.5180   22.0440  -31.5800 C   0  0  0  0  0  0  0  0  0  0  0  0
   -8.5880   20.7070  -31.9890 S   0  0  0  0  0  0  0  0  0  0  0  0
   -8.7260   19.7620  -30.8280 O   0  0  0  0  0  0  0  0  0  0  0  0
   -9.9430   21.2560  -32.3390 O   0  0  0  0  0  0  0  0  0  0  0  0
   -7.9580   19.8390  -33.3530 N   0  0  0  0  0  0  0  0  0  0  0  0
   -6.8690   18.9060  -33.3070 C   0  0  0  0  0  0  0  0  0  0  0  0
   -6.8020   17.8780  -32.3470 C   0  0  0  0  0  0  0  0  0  0  0  0
   -5.7220   16.9890  -32.3410 C   0  0  0  0  0  0  0  0  0  0  0  0
   -4.7020   17.1200  -33.2870 C   0  0  0  0  0  0  0  0  0  0  0  0
   -4.7610   18.1400  -34.2420 C   0  0  0  0  0  0  0  0  0  0  0  0
   -5.8420   19.0260  -34.2540 C   0  0  0  0  0  0  0  0  0  0  0  0
   -7.6390   22.6820  -30.3400 C   0  0  0  0  0  0  0  0  0  0  0  0
   -6.7980   23.7490  -30.0100 C   0  0  0  0  0  0  0  0  0  0  0  0
   -1.1930   22.2140  -30.7990 N   0  0  0  0  0  0  0  0  0  0  0  0
   -0.9210   21.5680  -31.9220 N   0  0  0  0  0  0  0  0  0  0  0  0
   -2.3363   19.3635  -33.5070 H   0  0  0  0  0  0  0  0  0  0  0  0
   -3.0525   20.7809  -34.3465 H   0  0  0  0  0  0  0  0  0  0  0  0
   -1.2721   20.5422  -34.3465 H   0  0  0  0  0  0  0  0  0  0  0  0
   -4.2192   21.5066  -31.9048 H   0  0  0  0  0  0  0  0  0  0  0  0
   -4.3108   22.7509  -29.5938 H   0  0  0  0  0  0  0  0  0  0  0  0
   -2.8787   22.3596  -28.5696 H   0  0  0  0  0  0  0  0  0  0  0  0
   -3.2782   24.7419  -28.3965 H   0  0  0  0  0  0  0  0  0  0  0  0
   -1.8059   24.4940  -29.4105 H   0  0  0  0  0  0  0  0  0  0  0  0
   -4.9361   23.8743  -32.8801 H   0  0  0  0  0  0  0  0  0  0  0  0
   -6.4353   21.9681  -33.4566 H   0  0  0  0  0  0  0  0  0  0  0  0
   -7.6018   17.7737  -31.5991 H   0  0  0  0  0  0  0  0  0  0  0  0
   -5.6756   16.1859  -31.5907 H   0  0  0  0  0  0  0  0  0  0  0  0
   -3.8527   16.4209  -33.2806 H   0  0  0  0  0  0  0  0  0  0  0  0
   -3.9560   18.2451  -34.9843 H   0  0  0  0  0  0  0  0  0  0  0  0
   -5.8873   19.8225  -35.0113 H   0  0  0  0  0  0  0  0  0  0  0  0
   -8.3996   22.3422  -29.6216 H   0  0  0  0  0  0  0  0  0  0  0  0
   -6.9029   24.2457  -29.0341 H   0  0  0  0  0  0  0  0  0  0  0  0
  1  2  1  0
  2  3  2  0
  3  4  1  0
  4  5  1  0
  5  6  1  0
  6  7  1  0
  7  8  1  0
  8  9  2  0
  8 10  1  0
 10 11  2  0
 11 12  1  0
 12 13  2  0
 13 14  1  0
 14 15  2  0
 14 16  2  0
 14 17  1  0
 17 18  1  0
 18 19  2  0
 19 20  1  0
 20 21  2  0
 21 22  1  0
 22 23  2  0
 13 24  1  0
 24 25  2  0
  4 26  2  0
 26 27  1  0
 27  2  1  0
 25 10  1  0
 23 18  1  0
  1 28  1  0
  1 29  1  0
  1 30  1  0
  3 31  1  0
  5 32  1  0
  5 33  1  0
  6 34  1  0
  6 35  1  0
 11 36  1  0
 12 37  1  0
 19 38  1  0
 20 39  1  0
 21 40  1  0
 22 41  1  0
 23 42  1  0
 24 43  1  0
 25 44  1  0
M  CHG  3   7  -1  17  -1  27  -1
M  END
>  <UniqueID>  (7) 
7

>  <SMILES>  (7) 
Cc1cc(CC[N-]C(=O)c2ccc(S(=O)(=O)[N-]c3ccccc3)cc2)n[n-]1

>  <Energy>  (7) 
73.10484550153657

>  <Genealogy>  (7) 
Cc1cc(CC[N-]C(=O)c2ccc(S(=O)(=O)[N-]c3ccccc3)cc2)n[n-]1 (protonated)
Cc1cc(CC[N-]C(=O)c2ccc(S(=O)(=O)[N-]c3ccccc3)cc2)n[n-]1 (3D coordinates assigned)
Cc1cc(CC[N-]C(=O)c2ccc(S(=O)(=O)[N-]c3ccccc3)cc2)n[n-]1 (optimized conformer: 73.10484550153657 kcal/mol)

>  <smiles>  (7) 
Cc1cc(CCNC(=O)c2ccc(S(=O)(=O)Nc3ccccc3)cc2)n[nH]1

>  <score_type>  (7) 
oracle

>  <origin>  (7) 
adgpu

>  <m_score__min__energy>  (7) 
-12.5

>  <m_primary>  (7) 
energy

$$$$
7:0
     RDKit          3D

 63 66  0  0  0  0  0  0  0  0999 V2000
   -2.3612   26.7671  -25.5685 H   0  0  0  0  0  0  0  0  0  0  0  0
   -2.0490   26.0290  -26.3220 C   0  0  0  0  0  0  0  0  0  0  0  0
   -2.7160   24.8050  -26.4170 C   0  0  0  0  0  0  0  0  0  0  0  0
   -3.5519   24.5829  -25.7373 H   0  0  0  0  0  0  0  0  0  0  0  0
   -2.3240   23.8560  -27.3770 C   0  0  0  0  0  0  0  0  0  0  0  0
   -3.0000   22.5100  -27.4440 C   0  0  0  0  0  0  0  0  0  0  0  0
   -4.0783   22.6363  -27.2672 H   0  0  0  0  0  0  0  0  0  0  0  0
   -2.5664   21.8533  -26.6754 H   0  0  0  0  0  0  0  0  0  0  0  0
   -2.7920   21.8960  -28.7750 N   0  0  0  0  0  0  0  0  0  0  0  0
   -3.5010   22.3480  -29.8620 C   0  0  0  0  0  0  0  0  0  0  0  0
   -4.3860   23.2350  -29.7040 O   0  0  0  0  0  0  0  0  0  0  0  0
   -3.2620   21.8390  -31.1140 N   0  0  0  0  0  0  0  0  0  0  0  0
   -3.9680   22.3660  -32.3020 C   0  0  0  0  0  0  0  0  0  0  0  0
   -3.6990   21.7598  -33.1796 H   0  0  0  0  0  0  0  0  0  0  0  0
   -3.6688   23.4136  -32.4535 H   0  0  0  0  0  0  0  0  0  0  0  0
   -5.4680   22.3140  -32.1040 C   0  0  0  0  0  0  0  0  0  0  0  0
   -6.1480   21.0950  -32.2800 C   0  0  0  0  0  0  0  0  0  0  0  0
   -5.5763   20.1878  -32.5251 H   0  0  0  0  0  0  0  0  0  0  0  0
   -7.5470   21.0160  -32.1480 C   0  0  0  0  0  0  0  0  0  0  0  0
   -8.2730   19.7320  -32.3420 C   0  0  0  0  0  0  0  0  0  0  0  0
   -9.4690   19.7430  -32.7450 O   0  0  0  0  0  0  0  0  0  0  0  0
   -7.6270   18.4060  -32.0740 C   0  0  0  0  0  0  0  0  0  0  0  0
   -7.5502   18.2484  -30.9881 H   0  0  0  0  0  0  0  0  0  0  0  0
   -8.2358   17.6050  -32.5186 H   0  0  0  0  0  0  0  0  0  0  0  0
   -6.6210   18.3917  -32.5186 H   0  0  0  0  0  0  0  0  0  0  0  0
   -8.2590   22.1840  -31.8300 C   0  0  0  0  0  0  0  0  0  0  0  0
   -9.3532   22.1416  -31.7255 H   0  0  0  0  0  0  0  0  0  0  0  0
   -7.5960   23.3970  -31.6450 C   0  0  0  0  0  0  0  0  0  0  0  0
   -8.1718   24.3001  -31.3944 H   0  0  0  0  0  0  0  0  0  0  0  0
   -6.1970   23.4760  -31.7760 C   0  0  0  0  0  0  0  0  0  0  0  0
   -5.5080   24.6830  -31.5790 O   0  0  0  0  0  0  0  0  0  0  0  0
   -5.7660   25.5990  -30.5190 C   0  0  0  0  0  0  0  0  0  0  0  0
   -5.6232   25.0920  -29.5533 H   0  0  0  0  0  0  0  0  0  0  0  0
   -5.0725   26.4497  -30.5926 H   0  0  0  0  0  0  0  0  0  0  0  0
   -6.8015   25.9627  -30.5926 H   0  0  0  0  0  0  0  0  0  0  0  0
   -2.3350   20.8430  -31.2570 C   0  0  0  0  0  0  0  0  0  0  0  0
   -2.1090   20.3260  -32.3840 O   0  0  0  0  0  0  0  0  0  0  0  0
   -1.6450   20.3970  -30.1850 N   0  0  0  0  0  0  0  0  0  0  0  0
   -1.8570   20.9080  -28.9490 C   0  0  0  0  0  0  0  0  0  0  0  0
   -1.1460   20.4890  -27.9380 N   0  0  0  0  0  0  0  0  0  0  0  0
   -0.1670   19.4370  -27.9410 C   0  0  0  0  0  0  0  0  0  0  0  0
   -0.4820   18.1300  -27.5390 C   0  0  0  0  0  0  0  0  0  0  0  0
   -1.5154   17.8779  -27.2586 H   0  0  0  0  0  0  0  0  0  0  0  0
    0.5090   17.1480  -27.4930 C   0  0  0  0  0  0  0  0  0  0  0  0
    0.2473   16.1235  -27.1900 H   0  0  0  0  0  0  0  0  0  0  0  0
    1.8370   17.4560  -27.8300 C   0  0  0  0  0  0  0  0  0  0  0  0
    2.8840   16.3750  -27.7640 C   0  0  0  0  0  0  0  0  0  0  0  0
    3.1072   16.1445  -26.7118 H   0  0  0  0  0  0  0  0  0  0  0  0
    2.5095   15.4707  -28.2660 H   0  0  0  0  0  0  0  0  0  0  0  0
    3.7998   16.7204  -28.2660 H   0  0  0  0  0  0  0  0  0  0  0  0
    2.1630   18.7740  -28.2290 C   0  0  0  0  0  0  0  0  0  0  0  0
    3.5780   19.1600  -28.5770 C   0  0  0  0  0  0  0  0  0  0  0  0
    4.1532   19.3169  -27.6526 H   0  0  0  0  0  0  0  0  0  0  0  0
    4.0431   18.3559  -29.1662 H   0  0  0  0  0  0  0  0  0  0  0  0
    3.5703   20.0889  -29.1662 H   0  0  0  0  0  0  0  0  0  0  0  0
    1.1590   19.7550  -28.2570 C   0  0  0  0  0  0  0  0  0  0  0  0
    1.4181   20.7883  -28.5312 H   0  0  0  0  0  0  0  0  0  0  0  0
   -1.2570   24.1560  -28.2410 C   0  0  0  0  0  0  0  0  0  0  0  0
   -0.9437   23.4225  -28.9985 H   0  0  0  0  0  0  0  0  0  0  0  0
   -0.5920   25.3810  -28.1430 C   0  0  0  0  0  0  0  0  0  0  0  0
    0.2425   25.6085  -28.8227 H   0  0  0  0  0  0  0  0  0  0  0  0
   -0.9850   26.3180  -27.1830 C   0  0  0  0  0  0  0  0  0  0  0  0
   -0.1460   27.8530  -27.0590 Cl  0  0  0  0  0  0  0  0  0  0  0  0
  1  2  1  0
  2  3  2  0
  3  4  1  0
  3  5  1  0
  5  6  1  0
  6  7  1  0
  6  8  1  0
  6  9  1  0
  9 10  1  0
 10 11  2  0
 10 12  1  0
 12 13  1  0
 13 14  1  0
 13 15  1  0
 13 16  1  0
 16 17  2  0
 17 18  1  0
 17 19  1  0
 19 20  1  0
 20 21  2  0
 20 22  1  0
 22 23  1  0
 22 24  1  0
 22 25  1  0
 19 26  2  0
 26 27  1  0
 26 28  1  0
 28 29  1  0
 28 30  2  0
 30 31  1  0
 31 32  1  0
 32 33  1  0
 32 34  1  0
 32 35  1  0
 12 36  1  0
 36 37  2  0
 36 38  1  0
 38 39  1  0
 39 40  2  0
 40 41  1  0
 41 42  2  0
 42 43  1  0
 42 44  1  0
 44 45  1  0
 44 46  2  0
 46 47  1  0
 47 48  1  0
 47 49  1  0
 47 50  1  0
 46 51  1  0
 51 52  1  0
 52 53  1  0
 52 54  1  0
 52 55  1  0
 51 56  2  0
 56 57  1  0
  5 58  2  0
 58 59  1  0
 58 60  1  0
 60 61  1  0
 60 62  2  0
 62 63  1  0
 62  2  1  0
 39  9  1  0
 56 41  1  0
 30 16  1  0
M  CHG  1  38  -1
M  END
>  <UniqueID>  (8) 
8

>  <SMILES>  (8) 
COc1ccc(C(C)=O)cc1Cn1c(=O)[n-]/c(=N\c2ccc(C)c(C)c2)n(Cc2ccc(Cl)cc2)c1=O

>  <Energy>  (8) 
78.9922601382764

>  <Genealogy>  (8) 
COc1ccc(C(C)=O)cc1Cn1c(=O)[n-]c(=Nc2ccc(C)c(C)c2)n(Cc2ccc(Cl)cc2)c1=O (protonated)
COc1ccc(C(C)=O)cc1Cn1c(=O)[n-]/c(=N\c2ccc(C)c(C)c2)n(Cc2ccc(Cl)cc2)c1=O (cis-trans isomerization)
COc1ccc(C(C)=O)cc1Cn1c(=O)[n-]/c(=N\c2ccc(C)c(C)c2)n(Cc2ccc(Cl)cc2)c1=O (3D coordinates assigned)
COc1ccc(C(C)=O)cc1Cn1c(=O)[n-]/c(=N\c2ccc(C)c(C)c2)n(Cc2ccc(Cl)cc2)c1=O (optimized conformer: 78.9922601382764 kcal/mol)

>  <smiles>  (8) 
COc1ccc(C(C)=O)cc1Cn1c(=O)[nH]c(=Nc2ccc(C)c(C)c2)n(Cc2ccc(Cl)cc2)c1=O

>  <score_type>  (8) 
oracle

>  <origin>  (8) 
adgpu

>  <m_score__min__energy>  (8) 
-10.99

>  <m_primary>  (8) 
energy

$$$$
8:0
     RDKit          3D

 32 33  0  0  0  0  0  0  0  0999 V2000
   -2.2650   20.4970  -27.2270 C   0  0  0  0  0  0  0  0  0  0  0  0
   -2.0830   21.8670  -27.8080 C   0  0  0  0  0  0  0  0  0  0  0  0
   -0.9280   22.6090  -27.5210 C   0  0  0  0  0  0  0  0  0  0  0  0
   -0.7770   23.9000  -28.0320 C   0  0  0  0  0  0  0  0  0  0  0  0
   -1.7760   24.4660  -28.8290 C   0  0  0  0  0  0  0  0  0  0  0  0
   -1.5880   25.7460  -29.3390 O   0  0  0  0  0  0  0  0  0  0  0  0
   -2.9490   23.7380  -29.1170 C   0  0  0  0  0  0  0  0  0  0  0  0
   -4.0270   24.3250  -29.9510 C   0  0  0  0  0  0  0  0  0  0  0  0
   -3.7430   25.2150  -30.7960 O   0  0  0  0  0  0  0  0  0  0  0  0
   -5.4030   23.9580  -29.7800 N   0  0  0  0  0  0  0  0  0  0  0  0
   -6.0680   22.8490  -30.4020 C   0  0  0  0  0  0  0  0  0  0  0  0
   -7.4680   22.8420  -30.4560 C   0  0  0  0  0  0  0  0  0  0  0  0
   -8.1470   21.7790  -31.0580 C   0  0  0  0  0  0  0  0  0  0  0  0
   -7.4310   20.7200  -31.6320 C   0  0  0  0  0  0  0  0  0  0  0  0
   -8.2880   19.3710  -32.3720 S   0  0  0  0  0  0  0  0  0  0  0  0
   -7.2350   18.5500  -33.4660 N   0  0  0  0  0  0  0  0  0  0  0  0
   -9.4890   19.8790  -33.1210 O   0  0  0  0  0  0  0  0  0  0  0  0
   -8.7520   18.4160  -31.3080 O   0  0  0  0  0  0  0  0  0  0  0  0
   -6.0310   20.7320  -31.5970 C   0  0  0  0  0  0  0  0  0  0  0  0
   -5.3510   21.7950  -30.9950 C   0  0  0  0  0  0  0  0  0  0  0  0
   -3.0970   22.4440  -28.5860 C   0  0  0  0  0  0  0  0  0  0  0  0
   -2.2566   20.5604  -26.1289 H   0  0  0  0  0  0  0  0  0  0  0  0
   -3.2263   20.0810  -27.5629 H   0  0  0  0  0  0  0  0  0  0  0  0
   -1.4457   19.8444  -27.5629 H   0  0  0  0  0  0  0  0  0  0  0  0
   -0.1385   22.1728  -26.8914 H   0  0  0  0  0  0  0  0  0  0  0  0
    0.1333   24.4746  -27.8059 H   0  0  0  0  0  0  0  0  0  0  0  0
   -8.0361   23.6780  -30.0221 H   0  0  0  0  0  0  0  0  0  0  0  0
   -9.2467   21.7737  -31.0813 H   0  0  0  0  0  0  0  0  0  0  0  0
   -7.2050   19.1170  -34.3440 H   0  0  0  0  0  0  0  0  0  0  0  0
   -5.4644   19.9022  -32.0447 H   0  0  0  0  0  0  0  0  0  0  0  0
   -4.2511   21.8067  -30.9853 H   0  0  0  0  0  0  0  0  0  0  0  0
   -4.0192   21.8778  -28.7834 H   0  0  0  0  0  0  0  0  0  0  0  0
  1  2  1  0
  2  3  2  0
  3  4  1  0
  4  5  2  0
  5  6  1  0
  5  7  1  0
  7  8  1  0
  8  9  2  0
  8 10  1  0
 10 11  1  0
 11 12  2  0
 12 13  1  0
 13 14  2  0
 14 15  1  0
 15 16  1  0
 15 17  2  0
 15 18  2  0
 14 19  1  0
 19 20  2  0
  7 21  2  0
 21  2  1  0
 20 11  1  0
  1 22  1  0
  1 23  1  0
  1 24  1  0
  3 25  1  0
  4 26  1  0
 12 27  1  0
 13 28  1  0
 16 29  1  0
 19 30  1  0
 20 31  1  0
 21 32  1  0
M  CHG  3   6  -1  10  -1  16  -1
M  END
>  <UniqueID>  (9) 
9

>  <SMILES>  (9) 
Cc1ccc([O-])c(C(=O)[N-]c2ccc(S([NH-])(=O)=O)cc2)c1

>  <Energy>  (9) 
39.3389847832731

>  <Genealogy>  (9) 
Cc1ccc([O-])c(C(=O)[N-]c2ccc(S([NH-])(=O)=O)cc2)c1 (protonated)
Cc1ccc([O-])c(C(=O)[N-]c2ccc(S([NH-])(=O)=O)cc2)c1 (3D coordinates assigned)
Cc1ccc([O-])c(C(=O)[N-]c2ccc(S([NH-])(=O)=O)cc2)c1 (optimized conformer: 39.3389847832731 kcal/mol)

>  <smiles>  (9) 
Cc1ccc(O)c(C(=O)Nc2ccc(S(N)(=O)=O)cc2)c1

>  <score_type>  (9) 
oracle

>  <origin>  (9) 
adgpu

>  <m_score__min__energy>  (9) 
-11.630000000000001

>  <m_primary>  (9) 
energy

$$$$
9:0
     RDKit          3D

 47 49  0  0  0  0  0  0  0  0999 V2000
    0.9430   24.1940  -24.4820 C   0  0  0  0  0  0  0  0  0  0  0  0
    1.0490   24.0810  -25.8970 O   0  0  0  0  0  0  0  0  0  0  0  0
   -0.0140   24.2910  -26.7900 C   0  0  0  0  0  0  0  0  0  0  0  0
    0.1870   24.0000  -28.1430 C   0  0  0  0  0  0  0  0  0  0  0  0
   -0.8380   24.1940  -29.0730 C   0  0  0  0  0  0  0  0  0  0  0  0
   -2.0830   24.7010  -28.6610 C   0  0  0  0  0  0  0  0  0  0  0  0
   -3.1640   24.8860  -29.5890 N   0  0  0  0  0  0  0  0  0  0  0  0
   -3.7120   23.8390  -30.4100 C   0  0  0  0  0  0  0  0  0  0  0  0
   -3.2860   22.6590  -30.3080 O   0  0  0  0  0  0  0  0  0  0  0  0
   -4.7730   24.1090  -31.3340 N   0  0  0  0  0  0  0  0  0  0  0  0
   -5.9440   23.3050  -31.5250 C   0  0  0  0  0  0  0  0  0  0  0  0
   -7.2270   23.7890  -31.2190 C   0  0  0  0  0  0  0  0  0  0  0  0
   -8.3520   22.9910  -31.4430 C   0  0  0  0  0  0  0  0  0  0  0  0
   -8.2080   21.7150  -31.9910 C   0  0  0  0  0  0  0  0  0  0  0  0
   -6.9370   21.2340  -32.3300 C   0  0  0  0  0  0  0  0  0  0  0  0
   -6.7730   19.6200  -33.0160 S   0  0  0  0  0  0  0  0  0  0  0  0
   -6.4870   19.7180  -34.4900 O   0  0  0  0  0  0  0  0  0  0  0  0
   -8.0720   18.8880  -32.8260 O   0  0  0  0  0  0  0  0  0  0  0  0
   -5.4760   18.7780  -32.1920 N   0  0  0  0  0  0  0  0  0  0  0  0
   -4.1750   18.9690  -32.8700 C   0  0  0  0  0  0  0  0  0  0  0  0
   -3.7850   17.7750  -33.7590 C   0  0  0  0  0  0  0  0  0  0  0  0
   -4.9360   17.1780  -34.3090 O   0  0  0  0  0  0  0  0  0  0  0  0
   -5.6870   16.5330  -33.2940 C   0  0  0  0  0  0  0  0  0  0  0  0
   -5.7980   17.3550  -31.9870 C   0  0  0  0  0  0  0  0  0  0  0  0
   -5.8080   22.0350  -32.1010 C   0  0  0  0  0  0  0  0  0  0  0  0
   -2.2930   24.9700  -27.3010 C   0  0  0  0  0  0  0  0  0  0  0  0
   -1.2670   24.7770  -26.3710 C   0  0  0  0  0  0  0  0  0  0  0  0
    1.6210   23.4712  -24.0046 H   0  0  0  0  0  0  0  0  0  0  0  0
    1.2181   25.2135  -24.1740 H   0  0  0  0  0  0  0  0  0  0  0  0
   -0.0920   23.9846  -24.1740 H   0  0  0  0  0  0  0  0  0  0  0  0
    1.1612   23.6147  -28.4785 H   0  0  0  0  0  0  0  0  0  0  0  0
   -0.6700   23.9489  -30.1321 H   0  0  0  0  0  0  0  0  0  0  0  0
   -3.5210   25.8600  -29.7180 H   0  0  0  0  0  0  0  0  0  0  0  0
   -7.3463   24.7997  -30.8016 H   0  0  0  0  0  0  0  0  0  0  0  0
   -9.3529   23.3688  -31.1871 H   0  0  0  0  0  0  0  0  0  0  0  0
   -9.0949   21.0859  -32.1569 H   0  0  0  0  0  0  0  0  0  0  0  0
   -4.2349   19.8701  -33.4981 H   0  0  0  0  0  0  0  0  0  0  0  0
   -3.4059   19.0661  -32.0896 H   0  0  0  0  0  0  0  0  0  0  0  0
   -3.1342   18.1263  -34.5733 H   0  0  0  0  0  0  0  0  0  0  0  0
   -3.2544   17.0313  -33.1464 H   0  0  0  0  0  0  0  0  0  0  0  0
   -6.7019   16.3491  -33.6762 H   0  0  0  0  0  0  0  0  0  0  0  0
   -5.1582   15.6012  -33.0447 H   0  0  0  0  0  0  0  0  0  0  0  0
   -6.8270   17.2765  -31.6061 H   0  0  0  0  0  0  0  0  0  0  0  0
   -5.0716   16.9457  -31.2695 H   0  0  0  0  0  0  0  0  0  0  0  0
   -4.8097   21.6635  -32.3755 H   0  0  0  0  0  0  0  0  0  0  0  0
   -3.2736   25.3361  -26.9628 H   0  0  0  0  0  0  0  0  0  0  0  0
   -1.4394   25.0056  -25.3089 H   0  0  0  0  0  0  0  0  0  0  0  0
  1  2  1  0
  2  3  1  0
  3  4  2  0
  4  5  1  0
  5  6  2  0
  6  7  1  0
  7  8  1  0
  8  9  2  0
  8 10  1  0
 10 11  1  0
 11 12  2  0
 12 13  1  0
 13 14  2  0
 14 15  1  0
 15 16  1  0
 16 17  2  0
 16 18  2  0
 16 19  1  0
 19 20  1  0
 20 21  1  0
 21 22  1  0
 22 23  1  0
 23 24  1  0
 15 25  2  0
  6 26  1  0
 26 27  2  0
 27  3  1  0
 25 11  1  0
 24 19  1  0
  1 28  1  0
  1 29  1  0
  1 30  1  0
  4 31  1  0
  5 32  1  0
  7 33  1  0
 12 34  1  0
 13 35  1  0
 14 36  1  0
 20 37  1  0
 20 38  1  0
 21 39  1  0
 21 40  1  0
 23 41  1  0
 23 42  1  0
 24 43  1  0
 24 44  1  0
 25 45  1  0
 26 46  1  0
 27 47  1  0
M  CHG  1  10  -1
M  END
>  <UniqueID>  (10) 
10

>  <SMILES>  (10) 
COc1ccc(NC(=O)[N-]c2cccc(S(=O)(=O)N3CCOCC3)c2)cc1

>  <Energy>  (10) 
66.84005112887921

>  <Genealogy>  (10) 
COc1ccc(NC(=O)[N-]c2cccc(S(=O)(=O)N3CCOCC3)c2)cc1 (protonated)
COc1ccc(NC(=O)[N-]c2cccc(S(=O)(=O)N3CCOCC3)c2)cc1 (3D coordinates assigned)
COc1ccc(NC(=O)[N-]c2cccc(S(=O)(=O)N3CCOCC3)c2)cc1 (nonaromatic ring conformer: 66.84005112887921 kcal/mol)

>  <smiles>  (10) 
COc1ccc(NC(=O)Nc2cccc(S(=O)(=O)N3CCOCC3)c2)cc1

>  <score_type>  (10) 
oracle

>  <origin>  (10) 
adgpu

>  <m_score__min__energy>  (10) 
-10.16

>  <m_primary>  (10) 
energy

$$$$
10:0
     RDKit          3D

 40 42  0  0  0  0  0  0  0  0999 V2000
   -3.8510   25.3000  -30.4640 O   0  0  0  0  0  0  0  0  0  0  0  0
   -4.9550   24.8420  -30.0420 C   0  0  0  0  0  0  0  0  0  0  0  0
   -6.0690   24.7670  -31.0000 C   0  0  0  0  0  0  0  0  0  0  0  0
   -6.3800   23.4090  -31.4790 C   0  0  0  0  0  0  0  0  0  0  0  0
   -7.6260   22.8430  -31.4920 C   0  0  0  0  0  0  0  0  0  0  0  0
   -7.7890   21.5330  -31.9460 C   0  0  0  0  0  0  0  0  0  0  0  0
   -6.7020   20.7780  -32.3920 C   0  0  0  0  0  0  0  0  0  0  0  0
   -5.4350   21.3600  -32.3780 C   0  0  0  0  0  0  0  0  0  0  0  0
   -5.2740   22.6630  -31.9260 C   0  0  0  0  0  0  0  0  0  0  0  0
   -5.0240   24.4400  -28.6870 N   0  0  0  0  0  0  0  0  0  0  0  0
   -3.9310   24.5370  -27.7430 C   0  0  0  0  0  0  0  0  0  0  0  0
   -3.0990   23.3160  -27.6910 C   0  0  0  0  0  0  0  0  0  0  0  0
   -1.7880   23.2520  -27.3300 C   0  0  0  0  0  0  0  0  0  0  0  0
   -1.1390   22.0360  -27.3260 C   0  0  0  0  0  0  0  0  0  0  0  0
   -1.7470   20.8470  -27.6740 C   0  0  0  0  0  0  0  0  0  0  0  0
   -1.0550   19.5650  -27.6690 C   0  0  0  0  0  0  0  0  0  0  0  0
   -0.0320   19.1830  -28.5010 C   0  0  0  0  0  0  0  0  0  0  0  0
    0.3120   17.8800  -28.1300 C   0  0  0  0  0  0  0  0  0  0  0  0
    1.2210   17.1750  -28.6680 O   0  0  0  0  0  0  0  0  0  0  0  0
   -0.5030   17.5130  -27.0940 N   0  0  0  0  0  0  0  0  0  0  0  0
   -1.3140   18.5200  -26.8250 N   0  0  0  0  0  0  0  0  0  0  0  0
   -3.0810   20.9100  -28.0420 C   0  0  0  0  0  0  0  0  0  0  0  0
   -3.7460   22.1250  -28.0510 C   0  0  0  0  0  0  0  0  0  0  0  0
   -6.9678   25.1723  -30.5124 H   0  0  0  0  0  0  0  0  0  0  0  0
   -5.7578   25.3438  -31.8834 H   0  0  0  0  0  0  0  0  0  0  0  0
   -8.4968   23.4189  -31.1456 H   0  0  0  0  0  0  0  0  0  0  0  0
   -8.7942   21.0863  -31.9526 H   0  0  0  0  0  0  0  0  0  0  0  0
   -6.8424   19.7463  -32.7467 H   0  0  0  0  0  0  0  0  0  0  0  0
   -4.5627   20.7867  -32.7251 H   0  0  0  0  0  0  0  0  0  0  0  0
   -4.2719   23.1165  -31.9173 H   0  0  0  0  0  0  0  0  0  0  0  0
   -5.9210   24.0440  -28.3220 H   0  0  0  0  0  0  0  0  0  0  0  0
   -3.2919   25.3839  -28.0333 H   0  0  0  0  0  0  0  0  0  0  0  0
   -4.3714   24.6763  -26.7447 H   0  0  0  0  0  0  0  0  0  0  0  0
   -1.2489   24.1668  -27.0427 H   0  0  0  0  0  0  0  0  0  0  0  0
   -0.0800   22.0120  -27.0296 H   0  0  0  0  0  0  0  0  0  0  0  0
    0.4261   19.7832  -29.3009 H   0  0  0  0  0  0  0  0  0  0  0  0
   -0.4760   16.5870  -26.6110 H   0  0  0  0  0  0  0  0  0  0  0  0
   -2.0540   18.5090  -26.0600 H   0  0  0  0  0  0  0  0  0  0  0  0
   -3.6143   19.9915  -28.3282 H   0  0  0  0  0  0  0  0  0  0  0  0
   -4.8049   22.1564  -28.3470 H   0  0  0  0  0  0  0  0  0  0  0  0
  1  2  2  0
  2  3  1  0
  3  4  1  0
  4  5  2  0
  5  6  1  0
  6  7  2  0
  7  8  1  0
  8  9  2  0
  2 10  1  0
 10 11  1  0
 11 12  1  0
 12 13  2  0
 13 14  1  0
 14 15  2  0
 15 16  1  0
 16 17  2  0
 17 18  1  0
 18 19  2  0
 18 20  1  0
 20 21  1  0
 15 22  1  0
 22 23  2  0
  9  4  1  0
 23 12  1  0
 21 16  1  0
  3 24  1  0
  3 25  1  0
  5 26  1  0
  6 27  1  0
  7 28  1  0
  8 29  1  0
  9 30  1  0
 10 31  1  0
 11 32  1  0
 11 33  1  0
 13 34  1  0
 14 35  1  0
 17 36  1  0
 20 37  1  0
 21 38  1  0
 22 39  1  0
 23 40  1  0
M  END
>  <smiles>  (11) 
O=C(Cc1ccccc1)NCc1ccc(-c2cc(=O)[nH][nH]2)cc1

>  <score_type>  (11) 
oracle

>  <origin>  (11) 
adgpu

>  <m_score__min__energy>  (11) 
-8.7799999999999994

>  <m_primary>  (11) 
energy

$$$$
11:0
     RDKit          3D

 50 53  0  0  0  0  0  0  0  0999 V2000
   -9.0890   20.8290  -31.8380 C   0  0  0  0  0  0  0  0  0  0  0  0
   -7.7920   21.5370  -31.5750 C   0  0  0  0  0  0  0  0  0  0  0  0
   -7.8350   22.8240  -31.1340 N   0  0  0  0  0  0  0  0  0  0  0  0
   -6.7050   23.5190  -30.8490 C   0  0  0  0  0  0  0  0  0  0  0  0
   -6.7740   24.8380  -30.3890 C   0  0  0  0  0  0  0  0  0  0  0  0
   -5.5980   25.5350  -30.0930 C   0  0  0  0  0  0  0  0  0  0  0  0
   -4.3520   24.9130  -30.2490 C   0  0  0  0  0  0  0  0  0  0  0  0
   -4.2790   23.5920  -30.7050 C   0  0  0  0  0  0  0  0  0  0  0  0
   -5.4540   22.8950  -31.0090 C   0  0  0  0  0  0  0  0  0  0  0  0
   -5.4030   21.6160  -31.4600 N   0  0  0  0  0  0  0  0  0  0  0  0
   -6.5320   20.9180  -31.7650 C   0  0  0  0  0  0  0  0  0  0  0  0
   -6.3880   19.5370  -32.2680 C   0  0  0  0  0  0  0  0  0  0  0  0
   -6.5130   19.2760  -33.6430 C   0  0  0  0  0  0  0  0  0  0  0  0
   -6.3910   17.9700  -34.1280 C   0  0  0  0  0  0  0  0  0  0  0  0
   -6.1480   16.9130  -33.2440 C   0  0  0  0  0  0  0  0  0  0  0  0
   -5.9510   15.2370  -33.8610 S   0  0  0  0  0  0  0  0  0  0  0  0
   -4.1340   15.3320  -34.0440 C   0  0  0  0  0  0  0  0  0  0  0  0
   -3.7090   16.6690  -34.5600 C   0  0  0  0  0  0  0  0  0  0  0  0
   -4.0990   17.0570  -35.6940 O   0  0  0  0  0  0  0  0  0  0  0  0
   -2.8760   17.5020  -33.7440 N   0  0  0  0  0  0  0  0  0  0  0  0
   -1.9710   18.5200  -34.1990 C   0  0  0  0  0  0  0  0  0  0  0  0
   -2.2050   19.8440  -33.8100 C   0  0  0  0  0  0  0  0  0  0  0  0
   -1.3150   20.8580  -34.1780 C   0  0  0  0  0  0  0  0  0  0  0  0
   -0.1720   20.5550  -34.9260 C   0  0  0  0  0  0  0  0  0  0  0  0
    0.9600   21.8340  -35.3460 S   0  0  0  0  0  0  0  0  0  0  0  0
    1.8360   21.3870  -36.7700 N   0  0  0  0  0  0  0  0  0  0  0  0
    1.9380   22.0550  -34.2230 O   0  0  0  0  0  0  0  0  0  0  0  0
    0.2010   23.1080  -35.5990 O   0  0  0  0  0  0  0  0  0  0  0  0
    0.0760   19.2270  -35.3050 C   0  0  0  0  0  0  0  0  0  0  0  0
   -0.8170   18.2150  -34.9420 C   0  0  0  0  0  0  0  0  0  0  0  0
   -6.0610   17.1620  -31.8690 C   0  0  0  0  0  0  0  0  0  0  0  0
   -6.1790   18.4660  -31.3820 C   0  0  0  0  0  0  0  0  0  0  0  0
   -9.5654   20.5690  -30.8812 H   0  0  0  0  0  0  0  0  0  0  0  0
   -9.7564   21.4879  -32.4128 H   0  0  0  0  0  0  0  0  0  0  0  0
   -8.8958   19.9112  -32.4128 H   0  0  0  0  0  0  0  0  0  0  0  0
   -7.7512   25.3263  -30.2602 H   0  0  0  0  0  0  0  0  0  0  0  0
   -5.6514   26.5743  -29.7367 H   0  0  0  0  0  0  0  0  0  0  0  0
   -3.4298   25.4640  -30.0126 H   0  0  0  0  0  0  0  0  0  0  0  0
   -3.3010   23.1028  -30.8242 H   0  0  0  0  0  0  0  0  0  0  0  0
   -6.7078   20.1031  -34.3415 H   0  0  0  0  0  0  0  0  0  0  0  0
   -6.4862   17.7734  -35.2061 H   0  0  0  0  0  0  0  0  0  0  0  0
   -3.6657   15.1610  -33.0634 H   0  0  0  0  0  0  0  0  0  0  0  0
   -3.8173   14.5647  -34.7658 H   0  0  0  0  0  0  0  0  0  0  0  0
   -3.0946   20.0885  -33.2110 H   0  0  0  0  0  0  0  0  0  0  0  0
   -1.5142   21.8975  -33.8783 H   0  0  0  0  0  0  0  0  0  0  0  0
    2.5290   22.1470  -36.9510 H   0  0  0  0  0  0  0  0  0  0  0  0
    0.9753   18.9818  -35.8891 H   0  0  0  0  0  0  0  0  0  0  0  0
   -0.6161   17.1751  -35.2390 H   0  0  0  0  0  0  0  0  0  0  0  0
   -5.8992   16.3282  -31.1700 H   0  0  0  0  0  0  0  0  0  0  0  0
   -6.1081   18.6554  -30.3008 H   0  0  0  0  0  0  0  0  0  0  0  0
  1  2  1  0
  2  3  2  0
  3  4  1  0
  4  5  2  0
  5  6  1  0
  6  7  2  0
  7  8  1  0
  8  9  2  0
  9 10  1  0
 10 11  2  0
 11 12  1  0
 12 13  2  0
 13 14  1  0
 14 15  2  0
 15 16  1  0
 16 17  1  0
 17 18  1  0
 18 19  2  0
 18 20  1  0
 20 21  1  0
 21 22  2  0
 22 23  1  0
 23 24  2  0
 24 25  1  0
 25 26  1  0
 25 27  2  0
 25 28  2  0
 24 29  1  0
 29 30  2  0
 15 31  1  0
 31 32  2  0
 11  2  1  0
 32 12  1  0
  9  4  1  0
 30 21  1  0
  1 33  1  0
  1 34  1  0
  1 35  1  0
  5 36  1  0
  6 37  1  0
  7 38  1  0
  8 39  1  0
 13 40  1  0
 14 41  1  0
 17 42  1  0
 17 43  1  0
 22 44  1  0
 23 45  1  0
 26 46  1  0
 29 47  1  0
 30 48  1  0
 31 49  1  0
 32 50  1  0
M  CHG  2  20  -1  26  -1
M  END
>  <UniqueID>  (12) 
11

>  <SMILES>  (12) 
Cc1nc2ccccc2nc1-c1ccc(SCC(=O)[N-]c2ccc(S([NH-])(=O)=O)cc2)cc1

>  <Energy>  (12) 
58.112958231210165

>  <Genealogy>  (12) 
Cc1nc2ccccc2nc1-c1ccc(SCC(=O)[N-]c2ccc(S([NH-])(=O)=O)cc2)cc1 (protonated)
Cc1nc2ccccc2nc1-c1ccc(SCC(=O)[N-]c2ccc(S([NH-])(=O)=O)cc2)cc1 (3D coordinates assigned)
Cc1nc2ccccc2nc1-c1ccc(SCC(=O)[N-]c2ccc(S([NH-])(=O)=O)cc2)cc1 (optimized conformer: 58.112958231210165 kcal/mol)

>  <smiles>  (12) 
Cc1nc2ccccc2nc1-c1ccc(SCC(=O)Nc2ccc(S(N)(=O)=O)cc2)cc1

>  <score_type>  (12) 
oracle

>  <origin>  (12) 
adgpu

>  <m_score__min__energy>  (12) 
-11.9

>  <m_primary>  (12) 
energy

$$$$
12:0
     RDKit          3D

 35 36  0  0  0  0  0  0  0  0999 V2000
   -1.2380   26.1840  -28.2070 C   0  0  0  0  0  0  0  0  0  0  0  0
   -2.1070   25.3550  -28.9710 O   0  0  0  0  0  0  0  0  0  0  0  0
   -2.3120   23.9860  -28.7340 C   0  0  0  0  0  0  0  0  0  0  0  0
   -1.2450   23.0680  -28.6860 C   0  0  0  0  0  0  0  0  0  0  0  0
   -1.4890   21.7170  -28.4240 C   0  0  0  0  0  0  0  0  0  0  0  0
   -2.7940   21.2680  -28.2140 C   0  0  0  0  0  0  0  0  0  0  0  0
   -3.8580   22.1690  -28.2620 C   0  0  0  0  0  0  0  0  0  0  0  0
   -3.6250   23.5290  -28.5170 C   0  0  0  0  0  0  0  0  0  0  0  0
   -4.7190   24.4510  -28.5440 N   0  0  0  0  0  0  0  0  0  0  0  0
   -5.3550   25.0250  -30.0500 S   0  0  0  0  0  0  0  0  0  0  0  0
   -6.4100   26.0580  -29.7710 O   0  0  0  0  0  0  0  0  0  0  0  0
   -4.2710   25.6690  -30.8690 O   0  0  0  0  0  0  0  0  0  0  0  0
   -6.0510   23.6640  -30.9340 C   0  0  0  0  0  0  0  0  0  0  0  0
   -7.4370   23.4460  -30.8930 C   0  0  0  0  0  0  0  0  0  0  0  0
   -8.0000   22.3530  -31.5540 C   0  0  0  0  0  0  0  0  0  0  0  0
   -7.1850   21.4650  -32.2560 C   0  0  0  0  0  0  0  0  0  0  0  0
   -5.8030   21.6660  -32.2990 C   0  0  0  0  0  0  0  0  0  0  0  0
   -5.2220   22.7670  -31.6390 C   0  0  0  0  0  0  0  0  0  0  0  0
   -3.8360   22.9940  -31.6600 O   0  0  0  0  0  0  0  0  0  0  0  0
   -2.8540   21.9810  -31.8450 C   0  0  0  0  0  0  0  0  0  0  0  0
   -1.4169   26.0133  -27.1352 H   0  0  0  0  0  0  0  0  0  0  0  0
   -0.1928   25.9398  -28.4477 H   0  0  0  0  0  0  0  0  0  0  0  0
   -1.4327   27.2395  -28.4477 H   0  0  0  0  0  0  0  0  0  0  0  0
   -0.2153   23.4158  -28.8554 H   0  0  0  0  0  0  0  0  0  0  0  0
   -0.6508   21.0059  -28.3832 H   0  0  0  0  0  0  0  0  0  0  0  0
   -2.9834   20.2037  -28.0107 H   0  0  0  0  0  0  0  0  0  0  0  0
   -4.8854   21.8113  -28.0990 H   0  0  0  0  0  0  0  0  0  0  0  0
   -5.3580   24.4920  -27.7190 H   0  0  0  0  0  0  0  0  0  0  0  0
   -8.0834   24.1407  -30.3366 H   0  0  0  0  0  0  0  0  0  0  0  0
   -9.0876   22.1918  -31.5212 H   0  0  0  0  0  0  0  0  0  0  0  0
   -7.6311   20.6049  -32.7767 H   0  0  0  0  0  0  0  0  0  0  0  0
   -5.1648   20.9606  -32.8513 H   0  0  0  0  0  0  0  0  0  0  0  0
   -2.5071   21.6232  -30.8644 H   0  0  0  0  0  0  0  0  0  0  0  0
   -3.2928   21.1432  -32.4068 H   0  0  0  0  0  0  0  0  0  0  0  0
   -2.0030   22.3935  -32.4068 H   0  0  0  0  0  0  0  0  0  0  0  0
  1  2  1  0
  2  3  1  0
  3  4  2  0
  4  5  1  0
  5  6  2  0
  6  7  1  0
  7  8  2  0
  8  9  1  0
  9 10  1  0
 10 11  2  0
 10 12  2  0
 10 13  1  0
 13 14  2  0
 14 15  1  0
 15 16  2  0
 16 17  1  0
 17 18  2  0
 18 19  1  0
 19 20  1  0
  8  3  1  0
 18 13  1  0
  1 21  1  0
  1 22  1  0
  1 23  1  0
  4 24  1  0
  5 25  1  0
  6 26  1  0
  7 27  1  0
  9 28  1  0
 14 29  1  0
 15 30  1  0
 16 31  1  0
 17 32  1  0
 20 33  1  0
 20 34  1  0
 20 35  1  0
M  END
>  <UniqueID>  (13) 
12

>  <SMILES>  (13) 
COc1ccccc1NS(=O)(=O)c1ccccc1OC

>  <Energy>  (13) 
39.562652515016765

>  <Genealogy>  (13) 
COc1ccccc1NS(=O)(=O)c1ccccc1OC (3D coordinates assigned)
COc1ccccc1NS(=O)(=O)c1ccccc1OC (optimized conformer: 39.562652515016765 kcal/mol)

>  <smiles>  (13) 
COc1ccccc1NS(=O)(=O)c1ccccc1OC

>  <score_type>  (13) 
oracle

>  <origin>  (13) 
adgpu

>  <m_score__min__energy>  (13) 
-7.9400000000000004

>  <m_primary>  (13) 
energy

$$$$
13:0
     RDKit          3D

 51 54  0  0  0  0  0  0  0  0999 V2000
   -5.4138   15.5852  -34.7947 H   0  0  0  0  0  0  0  0  0  0  0  0
   -5.5880   16.5190  -34.2400 C   0  0  0  0  0  0  0  0  0  0  0  0
   -4.5030   17.5180  -34.2140 C   0  0  0  0  0  0  0  0  0  0  0  0
   -3.9880   17.8960  -35.3010 O   0  0  0  0  0  0  0  0  0  0  0  0
   -3.9730   17.9880  -32.9650 N   0  0  0  0  0  0  0  0  0  0  0  0
   -4.0250   17.3470  -32.1400 H   0  0  0  0  0  0  0  0  0  0  0  0
   -3.3770   19.2820  -32.7820 C   0  0  0  0  0  0  0  0  0  0  0  0
   -2.1300   19.5520  -33.3640 C   0  0  0  0  0  0  0  0  0  0  0  0
   -1.6450   18.7915  -33.9936 H   0  0  0  0  0  0  0  0  0  0  0  0
   -1.5000   20.7790  -33.1500 C   0  0  0  0  0  0  0  0  0  0  0  0
   -0.5347   20.9925  -33.6323 H   0  0  0  0  0  0  0  0  0  0  0  0
   -2.0940   21.7360  -32.3240 C   0  0  0  0  0  0  0  0  0  0  0  0
   -1.5977   22.7048  -32.1652 H   0  0  0  0  0  0  0  0  0  0  0  0
   -3.3210   21.4690  -31.6950 C   0  0  0  0  0  0  0  0  0  0  0  0
   -3.9290   22.4670  -30.7420 C   0  0  0  0  0  0  0  0  0  0  0  0
   -4.5135   23.2013  -31.3157 H   0  0  0  0  0  0  0  0  0  0  0  0
   -4.5747   21.9257  -30.0348 H   0  0  0  0  0  0  0  0  0  0  0  0
   -2.8600   23.1920  -29.9570 C   0  0  0  0  0  0  0  0  0  0  0  0
   -2.8410   24.5530  -30.0210 N   0  0  0  0  0  0  0  0  0  0  0  0
   -1.9560   25.2860  -29.3450 N   0  0  0  0  0  0  0  0  0  0  0  0
   -1.0240   24.7170  -28.5420 C   0  0  0  0  0  0  0  0  0  0  0  0
   -0.2100   25.4550  -27.9240 O   0  0  0  0  0  0  0  0  0  0  0  0
   -0.9840   23.3170  -28.4070 C   0  0  0  0  0  0  0  0  0  0  0  0
   -0.0480   22.6880  -27.5620 C   0  0  0  0  0  0  0  0  0  0  0  0
    0.6704   23.2960  -26.9926 H   0  0  0  0  0  0  0  0  0  0  0  0
   -0.0280   21.2980  -27.4440 C   0  0  0  0  0  0  0  0  0  0  0  0
    0.7038   20.8134  -26.7810 H   0  0  0  0  0  0  0  0  0  0  0  0
   -0.9340   20.5230  -28.1650 C   0  0  0  0  0  0  0  0  0  0  0  0
   -0.9091   19.4271  -28.0740 H   0  0  0  0  0  0  0  0  0  0  0  0
   -1.8730   21.1280  -29.0020 C   0  0  0  0  0  0  0  0  0  0  0  0
   -2.5837   20.5050  -29.5648 H   0  0  0  0  0  0  0  0  0  0  0  0
   -1.9180   22.5320  -29.1320 C   0  0  0  0  0  0  0  0  0  0  0  0
   -3.9720   20.2490  -31.9500 C   0  0  0  0  0  0  0  0  0  0  0  0
   -4.9537   20.0488  -31.4959 H   0  0  0  0  0  0  0  0  0  0  0  0
   -6.7740   16.6750  -33.6310 C   0  0  0  0  0  0  0  0  0  0  0  0
   -7.4400   15.8012  -33.5762 H   0  0  0  0  0  0  0  0  0  0  0  0
   -7.2480   17.9410  -33.0280 C   0  0  0  0  0  0  0  0  0  0  0  0
   -6.8590   19.1850  -33.5530 C   0  0  0  0  0  0  0  0  0  0  0  0
   -6.1939   19.2259  -34.4282 H   0  0  0  0  0  0  0  0  0  0  0  0
   -7.3120   20.3680  -32.9700 C   0  0  0  0  0  0  0  0  0  0  0  0
   -6.9719   21.3355  -33.3679 H   0  0  0  0  0  0  0  0  0  0  0  0
   -8.1940   20.3380  -31.8850 C   0  0  0  0  0  0  0  0  0  0  0  0
   -8.6300   21.5630  -31.3530 O   0  0  0  0  0  0  0  0  0  0  0  0
   -7.8020   22.6950  -31.1000 C   0  0  0  0  0  0  0  0  0  0  0  0
   -6.5700   22.4900  -31.6910 F   0  0  0  0  0  0  0  0  0  0  0  0
   -8.3720   23.8320  -31.6440 F   0  0  0  0  0  0  0  0  0  0  0  0
   -7.6230   22.8590  -29.7370 F   0  0  0  0  0  0  0  0  0  0  0  0
   -8.6140   19.0930  -31.3790 C   0  0  0  0  0  0  0  0  0  0  0  0
   -9.3095   19.0542  -30.5277 H   0  0  0  0  0  0  0  0  0  0  0  0
   -8.1500   17.9040  -31.9550 C   0  0  0  0  0  0  0  0  0  0  0  0
   -8.4950   16.9356  -31.5636 H   0  0  0  0  0  0  0  0  0  0  0  0
  1  2  1  0
  2  3  1  0
  3  4  2  0
  3  5  1  0
  5  6  1  0
  5  7  1  0
  7  8  2  0
  8  9  1  0
  8 10  1  0
 10 11  1  0
 10 12  2  0
 12 13  1  0
 12 14  1  0
 14 15  1  0
 15 16  1  0
 15 17  1  0
 15 18  1  0
 18 19  2  0
 19 20  1  0
 20 21  1  0
 21 22  2  0
 21 23  1  0
 23 24  2  0
 24 25  1  0
 24 26  1  0
 26 27  1  0
 26 28  2  0
 28 29  1  0
 28 30  1  0
 30 31  1  0
 30 32  2  0
 14 33  2  0
 33 34  1  0
  2 35  2  0
 35 36  1  0
 35 37  1  0
 37 38  2  0
 38 39  1  0
 38 40  1  0
 40 41  1  0
 40 42  2  0
 42 43  1  0
 43 44  1  0
 44 45  1  0
 44 46  1  0
 44 47  1  0
 42 48  1  0
 48 49  1  0
 48 50  2  0
 50 51  1  0
 33  7  1  0
 50 37  1  0
 32 18  1  0
 32 23  1  0
M  CHG  1  20  -1
M  END
>  <UniqueID>  (14) 
13

>  <SMILES>  (14) 
O=C(/C=C\c1ccc(OC(F)(F)F)cc1)Nc1cccc(Cc2n[n-]c(=O)c3ccccc23)c1

>  <Energy>  (14) 
69.90399948387822

>  <Genealogy>  (14) 
O=C(C=Cc1ccc(OC(F)(F)F)cc1)Nc1cccc(Cc2n[n-]c(=O)c3ccccc23)c1 (protonated)
O=C(/C=C\c1ccc(OC(F)(F)F)cc1)Nc1cccc(Cc2n[n-]c(=O)c3ccccc23)c1 (cis-trans isomerization)
O=C(/C=C\c1ccc(OC(F)(F)F)cc1)Nc1cccc(Cc2n[n-]c(=O)c3ccccc23)c1 (3D coordinates assigned)
O=C(/C=C\c1ccc(OC(F)(F)F)cc1)Nc1cccc(Cc2n[n-]c(=O)c3ccccc23)c1 (optimized conformer: 69.90399948387822 kcal/mol)

>  <smiles>  (14) 
O=C(C=Cc1ccc(OC(F)(F)F)cc1)Nc1cccc(Cc2n[nH]c(=O)c3ccccc23)c1

>  <score_type>  (14) 
oracle

>  <origin>  (14) 
adgpu

>  <m_score__min__energy>  (14) 
-12

>  <m_primary>  (14) 
energy

$$$$
14:0
     RDKit          3D

 42 45  0  0  1  0  0  0  0  0999 V2000
   -3.4150   18.6760  -26.0360 C   0  0  0  0  0  0  0  0  0  0  0  0
   -2.3400   19.5710  -25.9610 O   0  0  0  0  0  0  0  0  0  0  0  0
   -1.9640   20.2910  -27.0860 C   0  0  0  0  0  0  0  0  0  0  0  0
   -1.1450   19.6400  -27.9910 C   0  0  0  0  0  0  0  0  0  0  0  0
   -0.7020   20.2490  -29.1500 C   0  0  0  0  0  0  0  0  0  0  0  0
   -1.0980   21.5500  -29.3990 C   0  0  0  0  0  0  0  0  0  0  0  0
   -1.9260   22.2220  -28.4950 C   0  0  0  0  0  0  0  0  0  0  0  0
   -2.2780   23.5410  -28.7630 N   0  0  0  0  0  0  0  0  0  0  0  0
   -3.2110   23.9340  -29.5280 C   0  0  0  0  0  0  0  0  0  0  0  0
   -3.5080   25.2260  -29.7500 N   0  0  0  0  0  0  0  0  0  0  0  0
   -4.5300   25.3130  -30.5950 N   0  0  0  0  0  0  0  0  0  0  0  0
   -4.8950   24.0600  -30.9210 C   0  0  0  0  0  0  0  0  0  0  0  0
   -5.8650   23.6090  -31.7330 N   0  0  0  0  0  0  0  0  0  0  0  0
   -5.9830   22.2760  -31.8560 C   0  0  0  0  0  0  0  0  0  0  0  0
   -6.8910   21.8190  -32.6170 N   0  0  0  0  0  0  0  0  0  0  0  0
   -7.0780   20.4200  -32.7980 C   0  0  0  0  0  0  0  0  0  0  0  0
   -6.2520   19.6430  -33.5870 C   0  0  0  0  0  0  0  0  0  0  0  0
   -6.4440   18.2870  -33.7530 C   0  0  0  0  0  0  0  0  0  0  0  0
   -7.5080   17.7080  -33.0960 C   0  0  0  0  0  0  0  0  0  0  0  0
   -8.3720   18.4390  -32.2890 C   0  0  0  0  0  0  0  0  0  0  0  0
   -9.4490   17.8310  -31.6280 O   0  0  0  0  0  0  0  0  0  0  0  0
   -8.1380   19.7890  -32.1550 C   0  0  0  0  0  0  0  0  0  0  0  0
   -5.1920   21.3960  -31.2170 N   0  0  0  0  0  0  0  0  0  0  0  0
   -4.1940   21.8110  -30.3820 C   0  0  0  0  0  0  0  0  0  0  0  0
   -4.0580   23.1680  -30.2450 C   0  0  0  0  0  0  0  0  0  0  0  0
   -2.3660   21.5900  -27.3230 C   0  0  0  0  0  0  0  0  0  0  0  0
   -3.7391   18.4062  -25.0200 H   0  0  0  0  0  0  0  0  0  0  0  0
   -4.2497   19.1497  -26.5734 H   0  0  0  0  0  0  0  0  0  0  0  0
   -3.1004   17.7693  -26.5734 H   0  0  0  0  0  0  0  0  0  0  0  0
   -0.8366   18.6051  -27.7817 H   0  0  0  0  0  0  0  0  0  0  0  0
   -0.0512   19.7124  -29.8560 H   0  0  0  0  0  0  0  0  0  0  0  0
   -0.7597   22.0592  -30.3135 H   0  0  0  0  0  0  0  0  0  0  0  0
   -3.0350   26.0550  -29.3430 H   0  0  0  0  0  0  0  0  0  0  0  0
   -4.9850   26.1860  -30.9560 H   0  0  0  0  0  0  0  0  0  0  0  0
   -5.4082   20.1244  -34.1031 H   0  0  0  0  0  0  0  0  0  0  0  0
   -5.7721   17.6896  -34.3868 H   0  0  0  0  0  0  0  0  0  0  0  0
   -7.6798   16.6280  -33.2145 H   0  0  0  0  0  0  0  0  0  0  0  0
   -9.4680   17.8940  -30.6100 H   0  0  0  0  0  0  0  0  0  0  0  0
   -8.8092   20.3865  -31.5206 H   0  0  0  0  0  0  0  0  0  0  0  0
   -5.3480   20.3650  -31.3660 H   0  0  0  0  0  0  0  0  0  0  0  0
   -3.5409   21.1013  -29.8531 H   0  0  0  0  0  0  0  0  0  0  0  0
   -3.0162   22.1171  -26.6093 H   0  0  0  0  0  0  0  0  0  0  0  0
  1  2  1  0
  2  3  1  0
  3  4  2  0
  4  5  1  0
  5  6  2  0
  6  7  1  0
  7  8  1  0
  8  9  2  0
  9 10  1  0
 10 11  1  0
 11 12  1  0
 12 13  2  0
 13 14  1  0
 14 15  2  0
 15 16  1  0
 16 17  2  0
 17 18  1  0
 18 19  2  0
 19 20  1  0
 20 21  1  0
 20 22  2  0
 14 23  1  0
 23 24  1  0
 24 25  2  0
  7 26  2  0
 26  3  1  0
 25  9  1  0
 25 12  1  0
 22 16  1  0
  1 27  1  0
  1 28  1  0
  1 29  1  0
  4 30  1  0
  5 31  1  0
  6 32  1  0
 10 33  1  0
 11 34  1  0
 17 35  1  0
 18 36  1  0
 19 37  1  0
 21 38  1  0
 22 39  1  0
 23 40  1  0
 24 41  1  0
 26 42  1  0
M  END
>  <smiles>  (15) 
COc1cccc(N=c2[nH][nH]c3nc(=Nc4cccc(O)c4)[nH]cc23)c1

>  <score_type>  (15) 
oracle

>  <origin>  (15) 
adgpu

>  <m_score__min__energy>  (15) 
-8.6799999999999997

>  <m_primary>  (15) 
energy

$$$$
15:0
     RDKit          3D

 51 53  0  0  0  0  0  0  0  0999 V2000
   -8.6930   19.0480  -31.2960 C   0  0  0  0  0  0  0  0  0  0  0  0
   -7.9660   20.3070  -31.6670 C   0  0  0  0  0  0  0  0  0  0  0  0
   -8.6420   21.5350  -31.6760 C   0  0  0  0  0  0  0  0  0  0  0  0
   -7.9550   22.7120  -31.9770 C   0  0  0  0  0  0  0  0  0  0  0  0
   -6.5880   22.6750  -32.2600 C   0  0  0  0  0  0  0  0  0  0  0  0
   -5.8910   21.4550  -32.2450 C   0  0  0  0  0  0  0  0  0  0  0  0
   -4.4750   21.4300  -32.5210 N   0  0  0  0  0  0  0  0  0  0  0  0
   -3.9420   20.6650  -33.6600 C   0  0  0  0  0  0  0  0  0  0  0  0
   -4.5110   19.2710  -33.6910 C   0  0  0  0  0  0  0  0  0  0  0  0
   -4.0610   18.3070  -32.7730 C   0  0  0  0  0  0  0  0  0  0  0  0
   -4.6280   17.0290  -32.7620 C   0  0  0  0  0  0  0  0  0  0  0  0
   -5.6520   16.7080  -33.6580 C   0  0  0  0  0  0  0  0  0  0  0  0
   -6.1110   17.6650  -34.5660 C   0  0  0  0  0  0  0  0  0  0  0  0
   -5.5460   18.9440  -34.5830 C   0  0  0  0  0  0  0  0  0  0  0  0
   -3.5710   21.8900  -31.5040 C   0  0  0  0  0  0  0  0  0  0  0  0
   -2.6400   21.0090  -30.9440 C   0  0  0  0  0  0  0  0  0  0  0  0
   -1.7490   21.4570  -29.9660 C   0  0  0  0  0  0  0  0  0  0  0  0
   -1.7850   22.7910  -29.5280 C   0  0  0  0  0  0  0  0  0  0  0  0
   -0.8210   23.2580  -28.5080 C   0  0  0  0  0  0  0  0  0  0  0  0
   -0.2260   24.3550  -28.6950 O   0  0  0  0  0  0  0  0  0  0  0  0
   -0.5500   22.4940  -27.3150 N   0  0  0  0  0  0  0  0  0  0  0  0
   -1.5530   21.5670  -26.7800 C   0  0  0  0  0  0  0  0  0  0  0  0
    0.6850   22.7500  -26.5700 C   0  0  0  0  0  0  0  0  0  0  0  0
   -2.7150   23.6810  -30.0990 C   0  0  0  0  0  0  0  0  0  0  0  0
   -2.7600   25.0120  -29.6840 O   0  0  0  0  0  0  0  0  0  0  0  0
   -3.6070   23.2240  -31.0790 C   0  0  0  0  0  0  0  0  0  0  0  0
   -6.5890   20.2730  -31.9340 C   0  0  0  0  0  0  0  0  0  0  0  0
   -8.7424   18.9624  -30.2004 H   0  0  0  0  0  0  0  0  0  0  0  0
   -9.7126   19.0784  -31.7078 H   0  0  0  0  0  0  0  0  0  0  0  0
   -8.1570   18.1802  -31.7078 H   0  0  0  0  0  0  0  0  0  0  0  0
   -9.7169   21.5711  -31.4452 H   0  0  0  0  0  0  0  0  0  0  0  0
   -8.4920   23.6719  -31.9914 H   0  0  0  0  0  0  0  0  0  0  0  0
   -6.0534   23.6069  -32.4962 H   0  0  0  0  0  0  0  0  0  0  0  0
   -4.2059   21.1816  -34.5946 H   0  0  0  0  0  0  0  0  0  0  0  0
   -2.8496   20.5940  -33.5525 H   0  0  0  0  0  0  0  0  0  0  0  0
   -3.2608   18.5584  -32.0614 H   0  0  0  0  0  0  0  0  0  0  0  0
   -4.2677   16.2747  -32.0470 H   0  0  0  0  0  0  0  0  0  0  0  0
   -6.0962   15.7017  -33.6479 H   0  0  0  0  0  0  0  0  0  0  0  0
   -6.9184   17.4121  -35.2690 H   0  0  0  0  0  0  0  0  0  0  0  0
   -5.9129   19.6962  -35.2968 H   0  0  0  0  0  0  0  0  0  0  0  0
   -2.6094   19.9603  -31.2747 H   0  0  0  0  0  0  0  0  0  0  0  0
   -1.0143   20.7604  -29.5360 H   0  0  0  0  0  0  0  0  0  0  0  0
   -1.5259   21.5920  -25.6806 H   0  0  0  0  0  0  0  0  0  0  0  0
   -2.5522   21.8665  -27.1291 H   0  0  0  0  0  0  0  0  0  0  0  0
   -1.3330   20.5473  -27.1291 H   0  0  0  0  0  0  0  0  0  0  0  0
    0.4777   22.7070  -25.4906 H   0  0  0  0  0  0  0  0  0  0  0  0
    1.4347   21.9882  -26.8300 H   0  0  0  0  0  0  0  0  0  0  0  0
    1.0701   23.7471  -26.8300 H   0  0  0  0  0  0  0  0  0  0  0  0
   -2.0180   25.6650  -29.9100 H   0  0  0  0  0  0  0  0  0  0  0  0
   -4.3399   23.9175  -31.5170 H   0  0  0  0  0  0  0  0  0  0  0  0
   -6.0504   19.3145  -31.9000 H   0  0  0  0  0  0  0  0  0  0  0  0
  1  2  1  0
  2  3  2  0
  3  4  1  0
  4  5  2  0
  5  6  1  0
  6  7  1  0
  7  8  1  0
  8  9  1  0
  9 10  2  0
 10 11  1  0
 11 12  2  0
 12 13  1  0
 13 14  2  0
  7 15  1  0
 15 16  2  0
 16 17  1  0
 17 18  2  0
 18 19  1  0
 19 20  2  0
 19 21  1  0
 21 22  1  0
 21 23  1  0
 18 24  1  0
 24 25  1  0
 24 26  2  0
  6 27  2  0
 27  2  1  0
 14  9  1  0
 26 15  1  0
  1 28  1  0
  1 29  1  0
  1 30  1  0
  3 31  1  0
  4 32  1  0
  5 33  1  0
  8 34  1  0
  8 35  1  0
 10 36  1  0
 11 37  1  0
 12 38  1  0
 13 39  1  0
 14 40  1  0
 16 41  1  0
 17 42  1  0
 22 43  1  0
 22 44  1  0
 22 45  1  0
 23 46  1  0
 23 47  1  0
 23 48  1  0
 25 49  1  0
 26 50  1  0
 27 51  1  0
M  END
>  <UniqueID>  (16) 
14

>  <SMILES>  (16) 
Cc1cccc(N(Cc2ccccc2)c2ccc(C(=O)N(C)C)c(O)c2)c1

>  <Energy>  (16) 
65.1101819591199

>  <Genealogy>  (16) 
Cc1cccc(N(Cc2ccccc2)c2ccc(C(=O)N(C)C)c(O)c2)c1 (3D coordinates assigned)
Cc1cccc(N(Cc2ccccc2)c2ccc(C(=O)N(C)C)c(O)c2)c1 (optimized conformer: 65.1101819591199 kcal/mol)

>  <smiles>  (16) 
Cc1cccc(N(Cc2ccccc2)c2ccc(C(=O)N(C)C)c(O)c2)c1

>  <score_type>  (16) 
oracle

>  <origin>  (16) 
adgpu

>  <m_score__min__energy>  (16) 
-10.08

>  <m_primary>  (16) 
energy

$$$$
16:0
     RDKit          3D

 46 49  0  0  0  0  0  0  0  0999 V2000
   -6.4060   21.6280  -32.9020 N   0  0  0  0  0  0  0  0  0  0  0  0
   -5.1780   21.5410  -32.1670 C   0  0  0  0  0  0  0  0  0  0  0  0
   -4.6280   22.6990  -31.6070 C   0  0  0  0  0  0  0  0  0  0  0  0
   -3.4250   22.6480  -30.8740 C   0  0  0  0  0  0  0  0  0  0  0  0
   -2.8770   23.8120  -30.3010 C   0  0  0  0  0  0  0  0  0  0  0  0
   -3.4630   24.9200  -30.4450 O   0  0  0  0  0  0  0  0  0  0  0  0
   -1.6770   23.7360  -29.5660 C   0  0  0  0  0  0  0  0  0  0  0  0
   -1.0550   24.9310  -28.9350 C   0  0  0  0  0  0  0  0  0  0  0  0
   -1.6300   26.0520  -28.9590 O   0  0  0  0  0  0  0  0  0  0  0  0
    0.1790   24.8300  -28.3040 O   0  0  0  0  0  0  0  0  0  0  0  0
   -1.0520   22.4880  -29.4320 C   0  0  0  0  0  0  0  0  0  0  0  0
   -1.5800   21.3610  -29.9940 N   0  0  0  0  0  0  0  0  0  0  0  0
   -0.8490   20.1340  -29.8210 C   0  0  0  0  0  0  0  0  0  0  0  0
   -0.8460   19.4890  -28.5740 C   0  0  0  0  0  0  0  0  0  0  0  0
   -0.1350   18.2970  -28.4020 C   0  0  0  0  0  0  0  0  0  0  0  0
   -0.1300   17.6800  -27.1940 F   0  0  0  0  0  0  0  0  0  0  0  0
    0.5700   17.7410  -29.4740 C   0  0  0  0  0  0  0  0  0  0  0  0
    0.5640   18.3770  -30.7190 C   0  0  0  0  0  0  0  0  0  0  0  0
   -0.1440   19.5700  -30.8960 C   0  0  0  0  0  0  0  0  0  0  0  0
   -0.1370   20.1820  -32.1060 F   0  0  0  0  0  0  0  0  0  0  0  0
   -2.7580   21.4100  -30.7050 C   0  0  0  0  0  0  0  0  0  0  0  0
   -3.3310   20.2480  -31.2670 C   0  0  0  0  0  0  0  0  0  0  0  0
   -4.5240   20.3100  -31.9920 C   0  0  0  0  0  0  0  0  0  0  0  0
   -5.0570   19.1040  -32.5530 N   0  0  0  0  0  0  0  0  0  0  0  0
   -4.4850   18.5730  -33.7910 C   0  0  0  0  0  0  0  0  0  0  0  0
   -5.3180   17.3940  -34.3030 C   0  0  0  0  0  0  0  0  0  0  0  0
   -6.7490   17.7080  -34.2140 N   0  0  0  0  0  0  0  0  0  0  0  0
   -7.2100   17.9000  -32.8240 C   0  0  0  0  0  0  0  0  0  0  0  0
   -6.1110   18.3710  -31.8470 C   0  0  0  0  0  0  0  0  0  0  0  0
   -6.6920   22.5250  -33.3550 H   0  0  0  0  0  0  0  0  0  0  0  0
   -7.0470   20.8110  -33.0000 H   0  0  0  0  0  0  0  0  0  0  0  0
   -5.1414   23.6627  -31.7405 H   0  0  0  0  0  0  0  0  0  0  0  0
   -0.1147   22.4151  -28.8609 H   0  0  0  0  0  0  0  0  0  0  0  0
   -1.4039   19.9220  -27.7306 H   0  0  0  0  0  0  0  0  0  0  0  0
    1.1291   16.8035  -29.3378 H   0  0  0  0  0  0  0  0  0  0  0  0
    1.1178   17.9378  -31.5618 H   0  0  0  0  0  0  0  0  0  0  0  0
   -2.8299   19.2781  -31.1318 H   0  0  0  0  0  0  0  0  0  0  0  0
   -4.4725   19.3658  -34.5534 H   0  0  0  0  0  0  0  0  0  0  0  0
   -3.4611   18.2250  -33.5898 H   0  0  0  0  0  0  0  0  0  0  0  0
   -5.0550   17.1915  -35.3517 H   0  0  0  0  0  0  0  0  0  0  0  0
   -5.1055   16.5092  -33.6850 H   0  0  0  0  0  0  0  0  0  0  0  0
   -6.9290   18.5880  -34.7550 H   0  0  0  0  0  0  0  0  0  0  0  0
   -8.0121   18.6527  -32.8284 H   0  0  0  0  0  0  0  0  0  0  0  0
   -7.5474   16.9160  -32.4663 H   0  0  0  0  0  0  0  0  0  0  0  0
   -6.5615   19.0297  -31.0899 H   0  0  0  0  0  0  0  0  0  0  0  0
   -5.6630   17.4859  -31.3718 H   0  0  0  0  0  0  0  0  0  0  0  0
  1  2  1  0
  2  3  2  0
  3  4  1  0
  4  5  1  0
  5  6  2  0
  5  7  1  0
  7  8  1  0
  8  9  2  0
  8 10  1  0
  7 11  2  0
 11 12  1  0
 12 13  1  0
 13 14  2  0
 14 15  1  0
 15 16  1  0
 15 17  2  0
 17 18  1  0
 18 19  2  0
 19 20  1  0
 12 21  1  0
 21 22  1  0
 22 23  2  0
 23 24  1  0
 24 25  1  0
 25 26  1  0
 26 27  1  0
 27 28  1  0
 28 29  1  0
 23  2  1  0
 29 24  1  0
 21  4  2  0
 19 13  1  0
  1 30  1  0
  1 31  1  0
  3 32  1  0
 11 33  1  0
 14 34  1  0
 17 35  1  0
 18 36  1  0
 22 37  1  0
 25 38  1  0
 25 39  1  0
 26 40  1  0
 26 41  1  0
 27 42  1  0
 28 43  1  0
 28 44  1  0
 29 45  1  0
 29 46  1  0
M  CHG  1  10  -1
M  END
>  <UniqueID>  (17) 
15

>  <SMILES>  (17) 
Nc1cc2c(=O)c(C(=O)[O-])cn(-c3cc(F)ccc3F)c2cc1N1CCNCC1

>  <Energy>  (17) 
76.99455999097694

>  <Genealogy>  (17) 
Nc1cc2c(=O)c(C(=O)[O-])cn(-c3cc(F)ccc3F)c2cc1N1CCNCC1 (protonated)
Nc1cc2c(=O)c(C(=O)[O-])cn(-c3cc(F)ccc3F)c2cc1N1CCNCC1 (3D coordinates assigned)
Nc1cc2c(=O)c(C(=O)[O-])cn(-c3cc(F)ccc3F)c2cc1N1CCNCC1 (nonaromatic ring conformer: 76.99455999097694 kcal/mol)

>  <smiles>  (17) 
Nc1cc2c(=O)c(C(=O)O)cn(-c3cc(F)ccc3F)c2cc1N1CCNCC1

>  <score_type>  (17) 
oracle

>  <origin>  (17) 
adgpu

>  <m_score__min__energy>  (17) 
-10.109999999999999

>  <m_primary>  (17) 
energy

$$$$
17:0
     RDKit          3D

 29 31  0  0  0  0  0  0  0  0999 V2000
   -2.4120   25.4940  -28.9390 H   0  0  0  0  0  0  0  0  0  0  0  0
   -1.6520   26.0540  -28.4980 N   0  0  0  0  0  0  0  0  0  0  0  0
   -0.4870   25.5730  -28.2000 C   0  0  0  0  0  0  0  0  0  0  0  0
    0.4890   26.2960  -27.6330 N   0  0  0  0  0  0  0  0  0  0  0  0
    1.4900   25.4690  -27.4930 O   0  0  0  0  0  0  0  0  0  0  0  0
    1.2450   24.2610  -27.9230 N   0  0  0  0  0  0  0  0  0  0  0  0
   -0.0180   24.2900  -28.3870 C   0  0  0  0  0  0  0  0  0  0  0  0
   -0.6870   23.1550  -28.9580 N   0  0  0  0  0  0  0  0  0  0  0  0
   -0.2830   21.8980  -28.8720 N   0  0  0  0  0  0  0  0  0  0  0  0
   -1.1310   21.0940  -29.4980 N   0  0  0  0  0  0  0  0  0  0  0  0
   -2.1040   21.8770  -30.0020 C   0  0  0  0  0  0  0  0  0  0  0  0
   -3.2980   21.3730  -30.7510 C   0  0  0  0  0  0  0  0  0  0  0  0
   -2.9834   20.5734  -31.4377 H   0  0  0  0  0  0  0  0  0  0  0  0
   -4.0330   20.9863  -30.0297 H   0  0  0  0  0  0  0  0  0  0  0  0
   -3.9320   22.4850  -31.5430 C   0  0  0  0  0  0  0  0  0  0  0  0
   -3.5400   22.6710  -32.7270 O   0  0  0  0  0  0  0  0  0  0  0  0
   -5.0100   23.3490  -30.9800 C   0  0  0  0  0  0  0  0  0  0  0  0
   -6.3150   22.8450  -30.8040 C   0  0  0  0  0  0  0  0  0  0  0  0
   -6.5388   21.8048  -31.0829 H   0  0  0  0  0  0  0  0  0  0  0  0
   -7.3270   23.6530  -30.2790 C   0  0  0  0  0  0  0  0  0  0  0  0
   -8.3411   23.2471  -30.1494 H   0  0  0  0  0  0  0  0  0  0  0  0
   -7.0550   24.9720  -29.9190 C   0  0  0  0  0  0  0  0  0  0  0  0
   -7.8539   25.6057  -29.5066 H   0  0  0  0  0  0  0  0  0  0  0  0
   -5.7690   25.4880  -30.0820 C   0  0  0  0  0  0  0  0  0  0  0  0
   -5.5561   26.5279  -29.7934 H   0  0  0  0  0  0  0  0  0  0  0  0
   -4.7480   24.6890  -30.6110 C   0  0  0  0  0  0  0  0  0  0  0  0
   -3.4850   25.2470  -30.7780 O   0  0  0  0  0  0  0  0  0  0  0  0
   -1.8320   23.1840  -29.6610 C   0  0  0  0  0  0  0  0  0  0  0  0
   -2.4309   24.0716  -29.9132 H   0  0  0  0  0  0  0  0  0  0  0  0
  1  2  1  0
  2  3  2  0
  3  4  1  0
  4  5  1  0
  5  6  1  0
  6  7  2  0
  7  8  1  0
  8  9  1  0
  9 10  2  0
 10 11  1  0
 11 12  1  0
 12 13  1  0
 12 14  1  0
 12 15  1  0
 15 16  2  0
 15 17  1  0
 17 18  2  0
 18 19  1  0
 18 20  1  0
 20 21  1  0
 20 22  2  0
 22 23  1  0
 22 24  1  0
 24 25  1  0
 24 26  2  0
 26 27  1  0
 11 28  2  0
 28 29  1  0
  7  3  1  0
 28  8  1  0
 26 17  1  0
M  CHG  2   4  -1  27  -1
M  END
>  <UniqueID>  (18) 
16

>  <SMILES>  (18) 
[H]/N=c1/[n-]onc1-n1cc(CC(=O)c2ccccc2[O-])nn1

>  <Energy>  (18) 
107.55047265684864

>  <Genealogy>  (18) 
N=c1[n-]onc1-n1cc(CC(=O)c2ccccc2[O-])nn1 (protonated)
[H]/N=c1/[n-]onc1-n1cc(CC(=O)c2ccccc2[O-])nn1 (cis-trans isomerization)
[H]/N=c1/[n-]onc1-n1cc(CC(=O)c2ccccc2[O-])nn1 (3D coordinates assigned)
[H]/N=c1/[n-]onc1-n1cc(CC(=O)c2ccccc2[O-])nn1 (optimized conformer: 107.55047265684864 kcal/mol)

>  <smiles>  (18) 
N=c1[nH]onc1-n1cc(CC(=O)c2ccccc2O)nn1

>  <score_type>  (18) 
oracle

>  <origin>  (18) 
adgpu

>  <m_score__min__energy>  (18) 
-11.42

>  <m_primary>  (18) 
energy

$$$$
18:0
     RDKit          3D

 65 69  0  0  1  0  0  0  0  0999 V2000
   -0.1920   16.3860  -36.2630 C   0  0  0  0  0  0  0  0  0  0  0  0
   -0.9030   15.8580  -35.1830 O   0  0  0  0  0  0  0  0  0  0  0  0
   -2.1150   16.3210  -34.7840 C   0  0  0  0  0  0  0  0  0  0  0  0
   -3.2860   15.5970  -34.7340 C   0  0  0  0  0  0  0  0  0  0  0  0
   -4.4970   16.1140  -34.3210 C   0  0  0  0  0  0  0  0  0  0  0  0
   -5.6190   15.3890  -34.2790 N   0  0  0  0  0  0  0  0  0  0  0  0
   -6.8030   15.9300  -33.8620 C   0  0  0  0  0  0  0  0  0  0  0  0
   -6.8250   17.2180  -33.4920 N   0  0  0  0  0  0  0  0  0  0  0  0
   -5.7210   18.0130  -33.5120 C   0  0  0  0  0  0  0  0  0  0  0  0
   -5.7130   19.2160  -33.1780 N   0  0  0  0  0  0  0  0  0  0  0  0
   -6.8640   19.9100  -32.7340 C   0  0  0  0  0  0  0  0  0  0  0  0
   -8.1520   19.5730  -33.0990 C   0  0  0  0  0  0  0  0  0  0  0  0
   -9.1870   20.3610  -32.5930 C   0  0  0  0  0  0  0  0  0  0  0  0
   -8.9230   21.4390  -31.7550 C   0  0  0  0  0  0  0  0  0  0  0  0
   -9.9490   22.2080  -31.2570 F   0  0  0  0  0  0  0  0  0  0  0  0
   -7.6400   21.7730  -31.3950 C   0  0  0  0  0  0  0  0  0  0  0  0
   -7.3090   22.8920  -30.5060 C   0  0  0  0  0  0  0  0  0  0  0  0
   -7.6890   22.9810  -29.3210 O   0  0  0  0  0  0  0  0  0  0  0  0
   -6.4830   23.9110  -31.1320 N   0  0  0  0  0  0  0  0  0  0  0  0
   -5.3910   24.2970  -30.5880 C   0  0  0  0  0  0  0  0  0  0  0  0
   -4.9210   23.7860  -29.3810 C   0  0  0  0  0  0  0  0  0  0  0  0
   -3.7090   24.4500  -29.1940 C   0  0  0  0  0  0  0  0  0  0  0  0
   -2.7750   24.2910  -28.0510 C   0  0  0  0  0  0  0  0  0  0  0  0
   -2.4550   22.8140  -27.9130 C   0  0  0  0  0  0  0  0  0  0  0  0
   -1.4660   25.0200  -28.4410 C   0  0  0  0  0  0  0  0  0  0  0  0
   -3.2910   24.8960  -26.7840 C   0  0  0  0  0  0  0  0  0  0  0  0
   -3.5120   25.2580  -30.1990 O   0  0  0  0  0  0  0  0  0  0  0  0
   -4.4930   25.1980  -31.0540 N   0  0  0  0  0  0  0  0  0  0  0  0
   -6.6180   21.0010  -31.8910 C   0  0  0  0  0  0  0  0  0  0  0  0
   -4.5250   17.4350  -33.9400 C   0  0  0  0  0  0  0  0  0  0  0  0
   -3.4000   18.2180  -33.9630 C   0  0  0  0  0  0  0  0  0  0  0  0
   -2.1910   17.6570  -34.3880 C   0  0  0  0  0  0  0  0  0  0  0  0
   -1.1060   18.5140  -34.3830 O   0  0  0  0  0  0  0  0  0  0  0  0
   -0.8810   19.4330  -33.3750 C   0  0  0  0  0  0  0  0  0  0  0  0
   -1.5720   20.6270  -33.4190 C   0  0  0  0  0  0  0  0  0  0  0  0
   -1.3390   21.5460  -32.3990 C   0  0  0  0  0  0  0  0  0  0  0  0
   -0.4420   21.2130  -31.4150 C   0  0  0  0  0  0  0  0  0  0  0  0
    0.2480   20.0210  -31.3670 C   0  0  0  0  0  0  0  0  0  0  0  0
    0.0110   19.1030  -32.3960 C   0  0  0  0  0  0  0  0  0  0  0  0
    0.6385   17.0027  -35.8889 H   0  0  0  0  0  0  0  0  0  0  0  0
    0.2082   15.5645  -36.8753 H   0  0  0  0  0  0  0  0  0  0  0  0
   -0.8627   17.0066  -36.8753 H   0  0  0  0  0  0  0  0  0  0  0  0
   -3.2537   14.5416  -35.0423 H   0  0  0  0  0  0  0  0  0  0  0  0
   -7.7185   15.3210  -33.8307 H   0  0  0  0  0  0  0  0  0  0  0  0
   -7.7080   17.6860  -33.1600 H   0  0  0  0  0  0  0  0  0  0  0  0
   -8.3543   18.7185  -33.7615 H   0  0  0  0  0  0  0  0  0  0  0  0
  -10.2275   20.1257  -32.8612 H   0  0  0  0  0  0  0  0  0  0  0  0
   -5.3937   23.0363  -28.7294 H   0  0  0  0  0  0  0  0  0  0  0  0
   -2.3977   22.5493  -26.8469 H   0  0  0  0  0  0  0  0  0  0  0  0
   -3.2455   22.2209  -28.3961 H   0  0  0  0  0  0  0  0  0  0  0  0
   -1.4899   22.6012  -28.3961 H   0  0  0  0  0  0  0  0  0  0  0  0
   -0.9278   25.3198  -27.5297 H   0  0  0  0  0  0  0  0  0  0  0  0
   -0.8331   24.3444  -29.0352 H   0  0  0  0  0  0  0  0  0  0  0  0
   -1.7071   25.9138  -29.0352 H   0  0  0  0  0  0  0  0  0  0  0  0
   -2.8474   24.3759  -25.9221 H   0  0  0  0  0  0  0  0  0  0  0  0
   -3.0191   25.9613  -26.7491 H   0  0  0  0  0  0  0  0  0  0  0  0
   -4.3859   24.7956  -26.7491 H   0  0  0  0  0  0  0  0  0  0  0  0
   -4.6280   25.7200  -31.9570 H   0  0  0  0  0  0  0  0  0  0  0  0
   -5.5805   21.2457  -31.6194 H   0  0  0  0  0  0  0  0  0  0  0  0
   -3.4472   19.2720  -33.6518 H   0  0  0  0  0  0  0  0  0  0  0  0
   -2.2815   20.8449  -34.2309 H   0  0  0  0  0  0  0  0  0  0  0  0
   -1.8607   22.5143  -32.3823 H   0  0  0  0  0  0  0  0  0  0  0  0
   -0.2623   21.9444  -30.6133 H   0  0  0  0  0  0  0  0  0  0  0  0
    0.9553   19.8005  -30.5539 H   0  0  0  0  0  0  0  0  0  0  0  0
    0.5330   18.1349  -32.4156 H   0  0  0  0  0  0  0  0  0  0  0  0
  1  2  1  0
  2  3  1  0
  3  4  2  0
  4  5  1  0
  5  6  1  0
  6  7  2  0
  7  8  1  0
  8  9  1  0
  9 10  2  0
 10 11  1  0
 11 12  2  0
 12 13  1  0
 13 14  2  0
 14 15  1  0
 14 16  1  0
 16 17  1  0
 17 18  2  0
 17 19  1  0
 19 20  2  0
 20 21  1  0
 21 22  2  0
 22 23  1  0
 23 24  1  0
 23 25  1  0
 23 26  1  0
 22 27  1  0
 27 28  1  0
 16 29  2  0
  9 30  1  0
 30 31  1  0
 31 32  2  0
 32 33  1  0
 33 34  1  0
 34 35  2  0
 35 36  1  0
 36 37  2  0
 37 38  1  0
 38 39  2  0
 32  3  1  0
 39 34  1  0
 30  5  2  0
 29 11  1  0
 28 20  1  0
  1 40  1  0
  1 41  1  0
  1 42  1  0
  4 43  1  0
  7 44  1  0
  8 45  1  0
 12 46  1  0
 13 47  1  0
 21 48  1  0
 24 49  1  0
 24 50  1  0
 24 51  1  0
 25 52  1  0
 25 53  1  0
 25 54  1  0
 26 55  1  0
 26 56  1  0
 26 57  1  0
 28 58  1  0
 29 59  1  0
 31 60  1  0
 35 61  1  0
 36 62  1  0
 37 63  1  0
 38 64  1  0
 39 65  1  0
M  END
>  <smiles>  (19) 
COc1cc2nc[nH]c(=Nc3ccc(F)c(C(=O)N=c4cc(C(C)(C)C)o[nH]4)c3)c2cc1Oc1ccccc1

>  <score_type>  (19) 
oracle

>  <origin>  (19) 
adgpu

>  <m_score__min__energy>  (19) 
-11.08

>  <m_primary>  (19) 
energy

$$$$
19:0
     RDKit          3D

 49 52  0  0  0  0  0  0  0  0999 V2000
    0.7290   25.0200  -27.8270 F   0  0  0  0  0  0  0  0  0  0  0  0
   -0.2660   24.1520  -28.1380 C   0  0  0  0  0  0  0  0  0  0  0  0
   -0.1070   22.7890  -27.8800 C   0  0  0  0  0  0  0  0  0  0  0  0
   -1.1300   21.8930  -28.2000 C   0  0  0  0  0  0  0  0  0  0  0  0
   -2.3140   22.3580  -28.7800 C   0  0  0  0  0  0  0  0  0  0  0  0
   -2.4830   23.7290  -29.0440 C   0  0  0  0  0  0  0  0  0  0  0  0
   -3.7280   24.2290  -29.6610 C   0  0  0  0  0  0  0  0  0  0  0  0
   -4.9320   23.6370  -29.5070 N   0  0  0  0  0  0  0  0  0  0  0  0
   -5.7500   24.4020  -30.2530 C   0  0  0  0  0  0  0  0  0  0  0  0
   -7.2330   24.1990  -30.3590 C   0  0  0  0  0  0  0  0  0  0  0  0
   -7.6840   23.4620  -31.5690 N   0  0  0  0  0  0  0  0  0  0  0  0
   -8.5580   22.2910  -31.2940 C   0  0  0  0  0  0  0  0  0  0  0  0
   -7.8010   20.9720  -31.1070 C   0  0  0  0  0  0  0  0  0  0  0  0
   -6.8190   20.7970  -32.1740 N   0  0  0  0  0  0  0  0  0  0  0  0
   -6.5450   19.4780  -32.6850 C   0  0  0  0  0  0  0  0  0  0  0  0
   -7.5080   18.4610  -32.5930 C   0  0  0  0  0  0  0  0  0  0  0  0
   -7.2390   17.1890  -33.1050 C   0  0  0  0  0  0  0  0  0  0  0  0
   -6.0090   16.9200  -33.7090 C   0  0  0  0  0  0  0  0  0  0  0  0
   -5.0250   17.9200  -33.7930 C   0  0  0  0  0  0  0  0  0  0  0  0
   -3.6980   17.6630  -34.4620 C   0  0  0  0  0  0  0  0  0  0  0  0
   -3.0130   18.8570  -34.5880 F   0  0  0  0  0  0  0  0  0  0  0  0
   -2.9470   16.7910  -33.6940 F   0  0  0  0  0  0  0  0  0  0  0  0
   -3.8610   17.1070  -35.7190 F   0  0  0  0  0  0  0  0  0  0  0  0
   -5.3070   19.2010  -33.2880 C   0  0  0  0  0  0  0  0  0  0  0  0
   -5.8740   21.8880  -32.3940 C   0  0  0  0  0  0  0  0  0  0  0  0
   -6.6240   23.2140  -32.5780 C   0  0  0  0  0  0  0  0  0  0  0  0
   -5.0320   25.4430  -30.7980 C   0  0  0  0  0  0  0  0  0  0  0  0
   -3.7860   25.3010  -30.4230 O   0  0  0  0  0  0  0  0  0  0  0  0
   -1.4480   24.6230  -28.7180 C   0  0  0  0  0  0  0  0  0  0  0  0
    0.8241   22.4206  -27.4246 H   0  0  0  0  0  0  0  0  0  0  0  0
   -1.0036   20.8196  -27.9952 H   0  0  0  0  0  0  0  0  0  0  0  0
   -3.1165   21.6488  -29.0308 H   0  0  0  0  0  0  0  0  0  0  0  0
   -7.5639   23.6358  -29.4739 H   0  0  0  0  0  0  0  0  0  0  0  0
   -7.6753   25.2037  -30.4297 H   0  0  0  0  0  0  0  0  0  0  0  0
   -8.3250   24.1520  -32.0330 H   0  0  0  0  0  0  0  0  0  0  0  0
   -9.1284   22.4945  -30.3757 H   0  0  0  0  0  0  0  0  0  0  0  0
   -9.2020   22.1633  -32.1765 H   0  0  0  0  0  0  0  0  0  0  0  0
   -7.2840   20.9845  -30.1361 H   0  0  0  0  0  0  0  0  0  0  0  0
   -8.5187   20.1390  -31.1403 H   0  0  0  0  0  0  0  0  0  0  0  0
   -8.4778   18.6660  -32.1162 H   0  0  0  0  0  0  0  0  0  0  0  0
   -7.9987   16.3968  -33.0320 H   0  0  0  0  0  0  0  0  0  0  0  0
   -5.8092   15.9200  -34.1213 H   0  0  0  0  0  0  0  0  0  0  0  0
   -4.5500   19.9952  -33.3658 H   0  0  0  0  0  0  0  0  0  0  0  0
   -5.2036   21.9679  -31.5256 H   0  0  0  0  0  0  0  0  0  0  0  0
   -5.2907   21.6780  -33.3027 H   0  0  0  0  0  0  0  0  0  0  0  0
   -5.8933   24.0341  -32.5185 H   0  0  0  0  0  0  0  0  0  0  0  0
   -7.1263   23.1585  -33.5550 H   0  0  0  0  0  0  0  0  0  0  0  0
   -5.4325   26.2472  -31.4327 H   0  0  0  0  0  0  0  0  0  0  0  0
   -1.5686   25.6975  -28.9201 H   0  0  0  0  0  0  0  0  0  0  0  0
  1  2  1  0
  2  3  2  0
  3  4  1  0
  4  5  2  0
  5  6  1  0
  6  7  1  0
  7  8  2  0
  8  9  1  0
  9 10  1  0
 10 11  1  0
 11 12  1  0
 12 13  1  0
 13 14  1  0
 14 15  1  0
 15 16  2  0
 16 17  1  0
 17 18  2  0
 18 19  1  0
 19 20  1  0
 20 21  1  0
 20 22  1  0
 20 23  1  0
 19 24  2  0
 14 25  1  0
 25 26  1  0
  9 27  2  0
 27 28  1  0
  6 29  2  0
 29  2  1  0
 28  7  1  0
 26 11  1  0
 24 15  1  0
  3 30  1  0
  4 31  1  0
  5 32  1  0
 10 33  1  0
 10 34  1  0
 11 35  1  0
 12 36  1  0
 12 37  1  0
 13 38  1  0
 13 39  1  0
 16 40  1  0
 17 41  1  0
 18 42  1  0
 24 43  1  0
 25 44  1  0
 25 45  1  0
 26 46  1  0
 26 47  1  0
 27 48  1  0
 29 49  1  0
M  CHG  1  11   1
M  END
>  <UniqueID>  (20) 
17

>  <SMILES>  (20) 
Fc1cccc(-c2nc(C[NH+]3CCN(c4cccc(C(F)(F)F)c4)CC3)co2)c1

>  <Energy>  (20) 
96.05771035824706

>  <Genealogy>  (20) 
Fc1cccc(-c2nc(C[NH+]3CCN(c4cccc(C(F)(F)F)c4)CC3)co2)c1 (protonated)
Fc1cccc(-c2nc(C[NH+]3CCN(c4cccc(C(F)(F)F)c4)CC3)co2)c1 (3D coordinates assigned)
Fc1cccc(-c2nc(C[NH+]3CCN(c4cccc(C(F)(F)F)c4)CC3)co2)c1 (nonaromatic ring conformer: 96.05771035824706 kcal/mol)

>  <smiles>  (20) 
Fc1cccc(-c2nc(CN3CCN(c4cccc(C(F)(F)F)c4)CC3)co2)c1

>  <score_type>  (20) 
oracle

>  <origin>  (20) 
adgpu

>  <m_score__min__energy>  (20) 
-7.9400000000000004

>  <m_primary>  (20) 
energy

$$$$
20:0
     RDKit          3D

 24 25  0  0  0  0  0  0  0  0999 V2000
   -1.5200   25.8550  -28.9090 N   0  0  0  0  0  0  0  0  0  0  0  0
   -2.0080   24.5280  -29.0910 C   0  0  0  0  0  0  0  0  0  0  0  0
   -1.3830   23.5640  -28.5770 O   0  0  0  0  0  0  0  0  0  0  0  0
   -3.2320   24.3070  -29.8810 C   0  0  0  0  0  0  0  0  0  0  0  0
   -3.8730   25.3010  -30.5270 N   0  0  0  0  0  0  0  0  0  0  0  0
   -4.9500   24.8060  -31.1200 N   0  0  0  0  0  0  0  0  0  0  0  0
   -5.0150   23.4830  -30.8690 C   0  0  0  0  0  0  0  0  0  0  0  0
   -6.0870   22.6120  -31.3920 C   0  0  0  0  0  0  0  0  0  0  0  0
   -7.3900   22.6740  -30.8690 C   0  0  0  0  0  0  0  0  0  0  0  0
   -8.3890   21.8270  -31.3590 C   0  0  0  0  0  0  0  0  0  0  0  0
   -9.6750   21.9030  -30.8360 O   0  0  0  0  0  0  0  0  0  0  0  0
   -8.0940   20.9050  -32.3680 C   0  0  0  0  0  0  0  0  0  0  0  0
   -9.0900   20.0670  -32.8570 O   0  0  0  0  0  0  0  0  0  0  0  0
   -6.7950   20.8200  -32.8830 C   0  0  0  0  0  0  0  0  0  0  0  0
   -6.5060   19.8930  -33.8820 O   0  0  0  0  0  0  0  0  0  0  0  0
   -5.7920   21.6680  -32.3890 C   0  0  0  0  0  0  0  0  0  0  0  0
   -3.9360   23.1290  -30.0760 C   0  0  0  0  0  0  0  0  0  0  0  0
   -3.7010   21.8560  -29.4640 N   0  0  0  0  0  0  0  0  0  0  0  0
   -1.1950   26.4230  -29.7220 H   0  0  0  0  0  0  0  0  0  0  0  0
   -7.6252   23.3925  -30.0700 H   0  0  0  0  0  0  0  0  0  0  0  0
   -7.2390   19.3780  -34.3560 H   0  0  0  0  0  0  0  0  0  0  0  0
   -4.7685   21.5929  -32.7851 H   0  0  0  0  0  0  0  0  0  0  0  0
   -4.2800   21.0210  -29.6920 H   0  0  0  0  0  0  0  0  0  0  0  0
   -2.8980   21.7190  -28.8100 H   0  0  0  0  0  0  0  0  0  0  0  0
  1  2  1  0
  2  3  2  0
  2  4  1  0
  4  5  1  0
  5  6  1  0
  6  7  2  0
  7  8  1  0
  8  9  2  0
  9 10  1  0
 10 11  1  0
 10 12  2  0
 12 13  1  0
 12 14  1  0
 14 15  1  0
 14 16  2  0
  7 17  1  0
 17 18  1  0
 17  4  2  0
 16  8  1  0
  1 19  1  0
  9 20  1  0
 15 21  1  0
 16 22  1  0
 18 23  1  0
 18 24  1  0
M  CHG  4   1  -1   5  -1  11  -1  13  -1
M  END
>  <UniqueID>  (21) 
18

>  <SMILES>  (21) 
[NH-]C(=O)c1[n-]nc(-c2cc([O-])c([O-])c(O)c2)c1N

>  <Energy>  (21) 
60.19131516624873

>  <Genealogy>  (21) 
[NH-]C(=O)c1[n-]nc(-c2cc([O-])c([O-])c(O)c2)c1N (protonated)
[NH-]C(=O)c1[n-]nc(-c2cc([O-])c([O-])c(O)c2)c1N (3D coordinates assigned)
[NH-]C(=O)c1[n-]nc(-c2cc([O-])c([O-])c(O)c2)c1N (optimized conformer: 60.19131516624873 kcal/mol)

>  <smiles>  (21) 
NC(=O)c1[nH]nc(-c2cc(O)c(O)c(O)c2)c1N

>  <score_type>  (21) 
oracle

>  <origin>  (21) 
adgpu

>  <m_score__min__energy>  (21) 
-9.9000000000000004

>  <m_primary>  (21) 
energy

$$$$
21:0
     RDKit          3D

 53 56  0  0  0  0  0  0  0  0999 V2000
   -3.6211   14.7828  -32.9146 H   0  0  0  0  0  0  0  0  0  0  0  0
   -4.6370   15.0810  -33.2130 C   0  0  0  0  0  0  0  0  0  0  0  0
   -5.3790   14.2640  -34.0670 C   0  0  0  0  0  0  0  0  0  0  0  0
   -4.9458   13.3229  -34.4366 H   0  0  0  0  0  0  0  0  0  0  0  0
   -6.6710   14.6350  -34.4560 C   0  0  0  0  0  0  0  0  0  0  0  0
   -7.3750   13.7790  -35.3160 O   0  0  0  0  0  0  0  0  0  0  0  0
   -7.9400   12.5330  -34.9220 C   0  0  0  0  0  0  0  0  0  0  0  0
   -7.9670   12.4735  -33.8239 H   0  0  0  0  0  0  0  0  0  0  0  0
   -8.9628   12.4523  -35.3188 H   0  0  0  0  0  0  0  0  0  0  0  0
   -7.3268   11.7105  -35.3188 H   0  0  0  0  0  0  0  0  0  0  0  0
   -7.2160   15.8410  -33.9750 C   0  0  0  0  0  0  0  0  0  0  0  0
   -8.2308   16.1389  -34.2775 H   0  0  0  0  0  0  0  0  0  0  0  0
   -6.4760   16.6680  -33.1120 C   0  0  0  0  0  0  0  0  0  0  0  0
   -7.0650   17.9290  -32.5930 C   0  0  0  0  0  0  0  0  0  0  0  0
   -8.2120   17.8970  -31.7840 C   0  0  0  0  0  0  0  0  0  0  0  0
   -8.6784   16.9356  -31.5227 H   0  0  0  0  0  0  0  0  0  0  0  0
   -8.7560   19.0910  -31.3140 C   0  0  0  0  0  0  0  0  0  0  0  0
   -9.6510   19.0724  -30.6747 H   0  0  0  0  0  0  0  0  0  0  0  0
   -8.1690   20.3070  -31.6520 C   0  0  0  0  0  0  0  0  0  0  0  0
   -8.5988   21.2510  -31.2857 H   0  0  0  0  0  0  0  0  0  0  0  0
   -7.0200   20.3190  -32.4670 C   0  0  0  0  0  0  0  0  0  0  0  0
   -6.4380   21.4300  -32.8260 N   0  0  0  0  0  0  0  0  0  0  0  0
   -6.8600   22.7850  -32.4720 C   0  0  0  0  0  0  0  0  0  0  0  0
   -7.0481   23.3628  -33.3889 H   0  0  0  0  0  0  0  0  0  0  0  0
   -7.7825   22.7399  -31.8745 H   0  0  0  0  0  0  0  0  0  0  0  0
   -5.7750   23.4490  -31.6740 C   0  0  0  0  0  0  0  0  0  0  0  0
   -6.0350   24.6230  -30.9450 C   0  0  0  0  0  0  0  0  0  0  0  0
   -7.0390   25.0718  -30.9675 H   0  0  0  0  0  0  0  0  0  0  0  0
   -5.0210   25.2210  -30.1920 C   0  0  0  0  0  0  0  0  0  0  0  0
   -5.2252   26.1533  -29.6451 H   0  0  0  0  0  0  0  0  0  0  0  0
   -3.7470   24.6430  -30.1280 C   0  0  0  0  0  0  0  0  0  0  0  0
   -2.7300   25.2820  -29.3440 N   0  0  0  0  0  0  0  0  0  0  0  0
   -1.6110   24.6260  -28.7300 C   0  0  0  0  0  0  0  0  0  0  0  0
   -0.5390   25.2740  -28.5840 O   0  0  0  0  0  0  0  0  0  0  0  0
   -1.6940   23.2310  -28.2300 C   0  0  0  0  0  0  0  0  0  0  0  0
   -0.5360   22.4450  -28.0860 C   0  0  0  0  0  0  0  0  0  0  0  0
    0.4468   22.8672  -28.3427 H   0  0  0  0  0  0  0  0  0  0  0  0
   -0.6270   21.1290  -27.6180 C   0  0  0  0  0  0  0  0  0  0  0  0
    0.2846   20.5258  -27.4948 H   0  0  0  0  0  0  0  0  0  0  0  0
   -1.8740   20.5800  -27.3070 C   0  0  0  0  0  0  0  0  0  0  0  0
   -1.9870   18.9280  -26.7220 Cl  0  0  0  0  0  0  0  0  0  0  0  0
   -3.0340   21.3440  -27.4690 C   0  0  0  0  0  0  0  0  0  0  0  0
   -4.0163   20.9083  -27.2340 H   0  0  0  0  0  0  0  0  0  0  0  0
   -2.9460   22.6630  -27.9300 C   0  0  0  0  0  0  0  0  0  0  0  0
   -3.8615   23.2592  -28.0585 H   0  0  0  0  0  0  0  0  0  0  0  0
   -3.4860   23.4720  -30.8600 C   0  0  0  0  0  0  0  0  0  0  0  0
   -2.4827   23.0217  -30.8330 H   0  0  0  0  0  0  0  0  0  0  0  0
   -4.4950   22.8770  -31.6220 C   0  0  0  0  0  0  0  0  0  0  0  0
   -4.2845   21.9552  -32.1841 H   0  0  0  0  0  0  0  0  0  0  0  0
   -6.5010   19.1340  -32.9080 N   0  0  0  0  0  0  0  0  0  0  0  0
   -5.6610   19.1590  -33.5300 H   0  0  0  0  0  0  0  0  0  0  0  0
   -5.1800   16.2760  -32.7360 C   0  0  0  0  0  0  0  0  0  0  0  0
   -4.5897   16.9142  -32.0620 H   0  0  0  0  0  0  0  0  0  0  0  0
  1  2  1  0
  2  3  2  0
  3  4  1  0
  3  5  1  0
  5  6  1  0
  6  7  1  0
  7  8  1  0
  7  9  1  0
  7 10  1  0
  5 11  2  0
 11 12  1  0
 11 13  1  0
 13 14  1  0
 14 15  2  0
 15 16  1  0
 15 17  1  0
 17 18  1  0
 17 19  2  0
 19 20  1  0
 19 21  1  0
 21 22  2  0
 22 23  1  0
 23 24  1  0
 23 25  1  0
 23 26  1  0
 26 27  2  0
 27 28  1  0
 27 29  1  0
 29 30  1  0
 29 31  2  0
 31 32  1  0
 32 33  1  0
 33 34  2  0
 33 35  1  0
 35 36  2  0
 36 37  1  0
 36 38  1  0
 38 39  1  0
 38 40  2  0
 40 41  1  0
 40 42  1  0
 42 43  1  0
 42 44  2  0
 44 45  1  0
 31 46  1  0
 46 47  1  0
 46 48  2  0
 48 49  1  0
 21 50  1  0
 50 51  1  0
 13 52  2  0
 52 53  1  0
 52  2  1  0
 50 14  1  0
 48 26  1  0
 44 35  1  0
M  CHG  1  32  -1
M  END
>  <UniqueID>  (22) 
19

>  <SMILES>  (22) 
COc1cccc(-c2ccc/c(=N\Cc3ccc([N-]C(=O)c4ccc(Cl)cc4)cc3)[nH]2)c1

>  <Energy>  (22) 
70.22353847800554

>  <Genealogy>  (22) 
COc1cccc(-c2cccc(=NCc3ccc([N-]C(=O)c4ccc(Cl)cc4)cc3)[nH]2)c1 (protonated)
COc1cccc(-c2ccc/c(=N\Cc3ccc([N-]C(=O)c4ccc(Cl)cc4)cc3)[nH]2)c1 (cis-trans isomerization)
COc1cccc(-c2ccc/c(=N\Cc3ccc([N-]C(=O)c4ccc(Cl)cc4)cc3)[nH]2)c1 (3D coordinates assigned)
COc1cccc(-c2ccc/c(=N\Cc3ccc([N-]C(=O)c4ccc(Cl)cc4)cc3)[nH]2)c1 (optimized conformer: 70.22353847800554 kcal/mol)

>  <smiles>  (22) 
COc1cccc(-c2cccc(=NCc3ccc(NC(=O)c4ccc(Cl)cc4)cc3)[nH]2)c1

>  <score_type>  (22) 
oracle

>  <origin>  (22) 
adgpu

>  <m_score__min__energy>  (22) 
-11.630000000000001

>  <m_primary>  (22) 
energy

$$$$
22:0
     RDKit          3D

 47 48  0  0  0  0  0  0  0  0999 V2000
   -5.7150   18.4940  -34.5720 C   0  0  0  0  0  0  0  0  0  0  0  0
   -6.6250   17.8530  -33.5290 C   0  0  0  0  0  0  0  0  0  0  0  0
   -6.7660   18.7030  -32.3910 O   0  0  0  0  0  0  0  0  0  0  0  0
   -7.6140   19.8210  -32.2970 C   0  0  0  0  0  0  0  0  0  0  0  0
   -9.0190   19.6930  -32.3060 C   0  0  0  0  0  0  0  0  0  0  0  0
   -9.8350   20.8170  -32.1560 C   0  0  0  0  0  0  0  0  0  0  0  0
   -9.2650   22.0780  -31.9900 C   0  0  0  0  0  0  0  0  0  0  0  0
   -7.8770   22.2220  -31.9840 C   0  0  0  0  0  0  0  0  0  0  0  0
   -7.0420   21.1050  -32.1530 C   0  0  0  0  0  0  0  0  0  0  0  0
   -5.5760   21.3030  -32.1730 C   0  0  0  0  0  0  0  0  0  0  0  0
   -5.1110   22.4290  -32.5020 O   0  0  0  0  0  0  0  0  0  0  0  0
   -4.6840   20.2190  -31.8730 N   0  0  0  0  0  0  0  0  0  0  0  0
   -3.2290   20.3550  -31.9360 C   0  0  0  0  0  0  0  0  0  0  0  0
   -2.6180   20.4280  -30.5320 C   0  0  0  0  0  0  0  0  0  0  0  0
   -2.3260   21.8530  -30.1330 C   0  0  0  0  0  0  0  0  0  0  0  0
   -1.2090   22.1490  -29.3400 C   0  0  0  0  0  0  0  0  0  0  0  0
   -0.9610   23.4610  -28.9320 C   0  0  0  0  0  0  0  0  0  0  0  0
   -1.8360   24.5000  -29.3050 C   0  0  0  0  0  0  0  0  0  0  0  0
   -1.6200   25.8310  -28.9130 O   0  0  0  0  0  0  0  0  0  0  0  0
   -1.1240   26.2250  -27.6380 C   0  0  0  0  0  0  0  0  0  0  0  0
   -2.9630   24.2100  -30.0890 C   0  0  0  0  0  0  0  0  0  0  0  0
   -3.8200   25.2650  -30.4400 O   0  0  0  0  0  0  0  0  0  0  0  0
   -5.2410   25.1830  -30.4450 C   0  0  0  0  0  0  0  0  0  0  0  0
   -3.2050   22.8830  -30.4970 C   0  0  0  0  0  0  0  0  0  0  0  0
   -4.9165   19.0564  -34.0659 H   0  0  0  0  0  0  0  0  0  0  0  0
   -5.2689   17.7096  -35.2011 H   0  0  0  0  0  0  0  0  0  0  0  0
   -6.3033   19.1782  -35.2011 H   0  0  0  0  0  0  0  0  0  0  0  0
   -7.6158   17.6774  -33.9734 H   0  0  0  0  0  0  0  0  0  0  0  0
   -6.1772   16.9016  -33.2061 H   0  0  0  0  0  0  0  0  0  0  0  0
   -9.4756   18.7002  -32.4321 H   0  0  0  0  0  0  0  0  0  0  0  0
  -10.9294   20.7066  -32.1689 H   0  0  0  0  0  0  0  0  0  0  0  0
   -9.9097   22.9603  -31.8636 H   0  0  0  0  0  0  0  0  0  0  0  0
   -7.4329   23.2188  -31.8457 H   0  0  0  0  0  0  0  0  0  0  0  0
   -5.0740   19.2720  -31.6690 H   0  0  0  0  0  0  0  0  0  0  0  0
   -2.8100   19.4863  -32.4650 H   0  0  0  0  0  0  0  0  0  0  0  0
   -2.9889   21.2866  -32.4693 H   0  0  0  0  0  0  0  0  0  0  0  0
   -3.3249   19.9920  -29.8108 H   0  0  0  0  0  0  0  0  0  0  0  0
   -1.6709   19.8685  -30.5368 H   0  0  0  0  0  0  0  0  0  0  0  0
   -0.5240   21.3433  -29.0374 H   0  0  0  0  0  0  0  0  0  0  0  0
   -0.0775   23.6845  -28.3159 H   0  0  0  0  0  0  0  0  0  0  0  0
   -1.7235   25.7488  -26.8482 H   0  0  0  0  0  0  0  0  0  0  0  0
   -0.0740   25.9121  -27.5403 H   0  0  0  0  0  0  0  0  0  0  0  0
   -1.1913   27.3186  -27.5403 H   0  0  0  0  0  0  0  0  0  0  0  0
   -5.6107   25.1617  -29.4092 H   0  0  0  0  0  0  0  0  0  0  0  0
   -5.6570   26.0586  -30.9648 H   0  0  0  0  0  0  0  0  0  0  0  0
   -5.5535   24.2653  -30.9648 H   0  0  0  0  0  0  0  0  0  0  0  0
   -4.0914   22.6532  -31.1065 H   0  0  0  0  0  0  0  0  0  0  0  0
  1  2  1  0
  2  3  1  0
  3  4  1  0
  4  5  2  0
  5  6  1  0
  6  7  2  0
  7  8  1  0
  8  9  2  0
  9 10  1  0
 10 11  2  0
 10 12  1  0
 12 13  1  0
 13 14  1  0
 14 15  1  0
 15 16  2  0
 16 17  1  0
 17 18  2  0
 18 19  1  0
 19 20  1  0
 18 21  1  0
 21 22  1  0
 22 23  1  0
 21 24  2  0
  9  4  1  0
 24 15  1  0
  1 25  1  0
  1 26  1  0
  1 27  1  0
  2 28  1  0
  2 29  1  0
  5 30  1  0
  6 31  1  0
  7 32  1  0
  8 33  1  0
 12 34  1  0
 13 35  1  0
 13 36  1  0
 14 37  1  0
 14 38  1  0
 16 39  1  0
 17 40  1  0
 20 41  1  0
 20 42  1  0
 20 43  1  0
 23 44  1  0
 23 45  1  0
 23 46  1  0
 24 47  1  0
M  END
>  <UniqueID>  (23) 
20

>  <SMILES>  (23) 
CCOc1ccccc1C(=O)NCCc1ccc(OC)c(OC)c1

>  <Energy>  (23) 
42.73169843047326

>  <Genealogy>  (23) 
CCOc1ccccc1C(=O)NCCc1ccc(OC)c(OC)c1 (3D coordinates assigned)
CCOc1ccccc1C(=O)NCCc1ccc(OC)c(OC)c1 (optimized conformer: 42.73169843047326 kcal/mol)

>  <smiles>  (23) 
CCOc1ccccc1C(=O)NCCc1ccc(OC)c(OC)c1

>  <score_type>  (23) 
oracle

>  <origin>  (23) 
adgpu

>  <m_score__min__energy>  (23) 
-8.1799999999999997

>  <m_primary>  (23) 
energy

$$$$
23:0
     RDKit          3D

 55 58  0  0  0  0  0  0  0  0999 V2000
   -1.6376   26.0434  -27.9548 H   0  0  0  0  0  0  0  0  0  0  0  0
   -1.9140   25.2050  -28.6110 C   0  0  0  0  0  0  0  0  0  0  0  0
   -3.0410   25.2830  -29.3560 N   0  0  0  0  0  0  0  0  0  0  0  0
   -3.4690   24.2530  -30.1250 C   0  0  0  0  0  0  0  0  0  0  0  0
   -4.6780   24.3810  -30.8130 C   0  0  0  0  0  0  0  0  0  0  0  0
   -5.2100   25.3438  -30.8093 H   0  0  0  0  0  0  0  0  0  0  0  0
   -5.2140   23.2960  -31.5040 C   0  0  0  0  0  0  0  0  0  0  0  0
   -6.1463   23.4173  -32.0750 H   0  0  0  0  0  0  0  0  0  0  0  0
   -4.5710   22.0510  -31.4750 C   0  0  0  0  0  0  0  0  0  0  0  0
   -5.1780   20.8710  -32.1440 C   0  0  0  0  0  0  0  0  0  0  0  0
   -4.4270   20.1050  -33.0550 C   0  0  0  0  0  0  0  0  0  0  0  0
   -3.3868   20.3859  -33.2766 H   0  0  0  0  0  0  0  0  0  0  0  0
   -4.9920   18.9910  -33.6800 C   0  0  0  0  0  0  0  0  0  0  0  0
   -4.2530   18.2650  -34.5570 F   0  0  0  0  0  0  0  0  0  0  0  0
   -6.3140   18.6260  -33.4070 C   0  0  0  0  0  0  0  0  0  0  0  0
   -6.8690   17.5160  -34.0330 O   0  0  0  0  0  0  0  0  0  0  0  0
   -7.0730   19.3810  -32.5030 C   0  0  0  0  0  0  0  0  0  0  0  0
   -8.7340   18.9350  -32.1430 Cl  0  0  0  0  0  0  0  0  0  0  0  0
   -6.5080   20.4970  -31.8750 C   0  0  0  0  0  0  0  0  0  0  0  0
   -7.1079   21.0862  -31.1659 H   0  0  0  0  0  0  0  0  0  0  0  0
   -3.3510   21.9270  -30.7860 C   0  0  0  0  0  0  0  0  0  0  0  0
   -2.8693   20.9405  -30.7174 H   0  0  0  0  0  0  0  0  0  0  0  0
   -2.7300   23.0450  -30.1790 C   0  0  0  0  0  0  0  0  0  0  0  0
   -1.4590   22.9940  -29.5180 C   0  0  0  0  0  0  0  0  0  0  0  0
   -0.5940   22.0210  -29.6660 N   0  0  0  0  0  0  0  0  0  0  0  0
   -0.5120   21.0040  -30.6740 C   0  0  0  0  0  0  0  0  0  0  0  0
   -0.4180   21.3460  -32.0330 C   0  0  0  0  0  0  0  0  0  0  0  0
   -0.4286   22.4039  -32.3342 H   0  0  0  0  0  0  0  0  0  0  0  0
   -0.3110   20.3460  -33.0040 C   0  0  0  0  0  0  0  0  0  0  0  0
   -0.2485   20.6196  -34.0676 H   0  0  0  0  0  0  0  0  0  0  0  0
   -0.2830   18.9940  -32.6270 C   0  0  0  0  0  0  0  0  0  0  0  0
   -0.1770   17.9090  -33.6720 C   0  0  0  0  0  0  0  0  0  0  0  0
    0.3820   18.3004  -34.5347 H   0  0  0  0  0  0  0  0  0  0  0  0
    0.3401   17.0504  -33.2188 H   0  0  0  0  0  0  0  0  0  0  0  0
   -1.5080   17.4500  -34.1330 N   0  0  0  0  0  0  0  0  0  0  0  0
   -2.0940   18.2810  -34.3880 H   0  0  0  0  0  0  0  0  0  0  0  0
   -2.2070   16.6860  -33.0830 C   0  0  0  0  0  0  0  0  0  0  0  0
   -1.8823   17.0408  -32.0937 H   0  0  0  0  0  0  0  0  0  0  0  0
   -3.2927   16.8299  -33.1860 H   0  0  0  0  0  0  0  0  0  0  0  0
   -1.9674   15.6174  -33.1860 H   0  0  0  0  0  0  0  0  0  0  0  0
   -1.3620   16.6170  -35.3390 C   0  0  0  0  0  0  0  0  0  0  0  0
   -1.1791   15.5733  -35.0438 H   0  0  0  0  0  0  0  0  0  0  0  0
   -2.2836   16.6728  -35.9369 H   0  0  0  0  0  0  0  0  0  0  0  0
   -0.5143   16.9829  -35.9369 H   0  0  0  0  0  0  0  0  0  0  0  0
   -0.3280   18.6590  -31.2630 C   0  0  0  0  0  0  0  0  0  0  0  0
   -0.2851   17.6034  -30.9567 H   0  0  0  0  0  0  0  0  0  0  0  0
   -0.4270   19.6610  -30.2940 C   0  0  0  0  0  0  0  0  0  0  0  0
   -0.4381   19.3920  -29.2274 H   0  0  0  0  0  0  0  0  0  0  0  0
   -1.0950   24.0700  -28.6650 C   0  0  0  0  0  0  0  0  0  0  0  0
    0.1580   24.0850  -27.8600 C   0  0  0  0  0  0  0  0  0  0  0  0
    1.2130   24.5400  -28.3770 O   0  0  0  0  0  0  0  0  0  0  0  0
    0.2190   23.5650  -26.4550 C   0  0  0  0  0  0  0  0  0  0  0  0
    0.1207   24.4030  -25.7493 H   0  0  0  0  0  0  0  0  0  0  0  0
   -0.6015   22.8506  -26.2925 H   0  0  0  0  0  0  0  0  0  0  0  0
    1.1826   23.0599  -26.2925 H   0  0  0  0  0  0  0  0  0  0  0  0
  1  2  1  0
  2  3  1  0
  3  4  1  0
  4  5  2  0
  5  6  1  0
  5  7  1  0
  7  8  1  0
  7  9  2  0
  9 10  1  0
 10 11  2  0
 11 12  1  0
 11 13  1  0
 13 14  1  0
 13 15  2  0
 15 16  1  0
 15 17  1  0
 17 18  1  0
 17 19  2  0
 19 20  1  0
  9 21  1  0
 21 22  1  0
 21 23  2  0
 23 24  1  0
 24 25  2  0
 25 26  1  0
 26 27  2  0
 27 28  1  0
 27 29  1  0
 29 30  1  0
 29 31  2  0
 31 32  1  0
 32 33  1  0
 32 34  1  0
 32 35  1  0
 35 36  1  0
 35 37  1  0
 37 38  1  0
 37 39  1  0
 37 40  1  0
 35 41  1  0
 41 42  1  0
 41 43  1  0
 41 44  1  0
 31 45  1  0
 45 46  1  0
 45 47  2  0
 47 48  1  0
 24 49  1  0
 49 50  1  0
 50 51  2  0
 50 52  1  0
 52 53  1  0
 52 54  1  0
 52 55  1  0
 49  2  2  0
 23  4  1  0
 47 26  1  0
 19 10  1  0
M  CHG  3   3  -1  16  -1  35   1
M  END
>  <UniqueID>  (24) 
21

>  <SMILES>  (24) 
CC(=O)c1c[n-]c2ccc(-c3cc(F)c([O-])c(Cl)c3)cc2/c1=N\c1ccc(C[NH+](C)C)cc1

>  <Energy>  (24) 
92.14247853261287

>  <Genealogy>  (24) 
CC(=O)c1c[n-]c2ccc(-c3cc(F)c([O-])c(Cl)c3)cc2c1=Nc1ccc(C[NH+](C)C)cc1 (protonated)
CC(=O)c1c[n-]c2ccc(-c3cc(F)c([O-])c(Cl)c3)cc2/c1=N\c1ccc(C[NH+](C)C)cc1 (cis-trans isomerization)
CC(=O)c1c[n-]c2ccc(-c3cc(F)c([O-])c(Cl)c3)cc2/c1=N\c1ccc(C[NH+](C)C)cc1 (3D coordinates assigned)
CC(=O)c1c[n-]c2ccc(-c3cc(F)c([O-])c(Cl)c3)cc2/c1=N\c1ccc(C[NH+](C)C)cc1 (optimized conformer: 92.14247853261287 kcal/mol)

>  <smiles>  (24) 
CC(=O)c1c[nH]c2ccc(-c3cc(F)c(O)c(Cl)c3)cc2c1=Nc1ccc(CN(C)C)cc1

>  <score_type>  (24) 
oracle

>  <origin>  (24) 
adgpu

>  <m_score__min__energy>  (24) 
-10.199999999999999

>  <m_primary>  (24) 
energy

$$$$
24:0
     RDKit          3D

 45 47  0  0  0  0  0  0  0  0999 V2000
    0.6630   27.5580  -23.8090 C   0  0  0  0  0  0  0  0  0  0  0  0
   -0.6500   27.7770  -24.4420 N   0  0  0  0  0  0  0  0  0  0  0  0
   -0.5210   28.2650  -25.8300 C   0  0  0  0  0  0  0  0  0  0  0  0
   -0.0060   27.1770  -26.8010 C   0  0  0  0  0  0  0  0  0  0  0  0
   -0.1910   25.8190  -26.2520 N   0  0  0  0  0  0  0  0  0  0  0  0
    0.0990   24.7430  -27.2270 C   0  0  0  0  0  0  0  0  0  0  0  0
   -1.1290   24.2120  -27.9450 C   0  0  0  0  0  0  0  0  0  0  0  0
   -1.6460   22.9520  -27.6050 C   0  0  0  0  0  0  0  0  0  0  0  0
   -2.7770   22.4480  -28.2510 C   0  0  0  0  0  0  0  0  0  0  0  0
   -3.4170   23.1910  -29.2570 C   0  0  0  0  0  0  0  0  0  0  0  0
   -4.6170   22.6360  -29.9350 C   0  0  0  0  0  0  0  0  0  0  0  0
   -5.9000   23.1780  -29.7290 C   0  0  0  0  0  0  0  0  0  0  0  0
   -6.9970   22.6180  -30.3850 C   0  0  0  0  0  0  0  0  0  0  0  0
   -6.8210   21.5210  -31.2330 C   0  0  0  0  0  0  0  0  0  0  0  0
   -8.1940   20.8120  -32.0790 S   0  0  0  0  0  0  0  0  0  0  0  0
   -7.6550   20.0920  -33.5530 N   0  0  0  0  0  0  0  0  0  0  0  0
   -9.2090   21.8780  -32.3850 O   0  0  0  0  0  0  0  0  0  0  0  0
   -8.8390   19.7670  -31.2140 O   0  0  0  0  0  0  0  0  0  0  0  0
   -5.5340   21.0050  -31.4130 C   0  0  0  0  0  0  0  0  0  0  0  0
   -4.4780   21.5650  -30.7660 N   0  0  0  0  0  0  0  0  0  0  0  0
   -2.8820   24.4410  -29.6200 C   0  0  0  0  0  0  0  0  0  0  0  0
   -1.7480   24.9470  -28.9750 C   0  0  0  0  0  0  0  0  0  0  0  0
   -1.2400   26.1810  -29.3710 O   0  0  0  0  0  0  0  0  0  0  0  0
   -1.4890   25.6810  -25.5820 C   0  0  0  0  0  0  0  0  0  0  0  0
   -1.5330   26.5900  -24.3370 C   0  0  0  0  0  0  0  0  0  0  0  0
    0.5503   27.5768  -22.7149 H   0  0  0  0  0  0  0  0  0  0  0  0
    1.0615   26.5810  -24.1198 H   0  0  0  0  0  0  0  0  0  0  0  0
    1.3570   28.3528  -24.1198 H   0  0  0  0  0  0  0  0  0  0  0  0
   -1.5078   28.6065  -26.1759 H   0  0  0  0  0  0  0  0  0  0  0  0
    0.2151   29.0824  -25.8272 H   0  0  0  0  0  0  0  0  0  0  0  0
   -0.5582   27.2559  -27.7491 H   0  0  0  0  0  0  0  0  0  0  0  0
    1.0710   27.3392  -26.9555 H   0  0  0  0  0  0  0  0  0  0  0  0
    0.7964   25.1379  -27.9805 H   0  0  0  0  0  0  0  0  0  0  0  0
    0.5221   23.9028  -26.6569 H   0  0  0  0  0  0  0  0  0  0  0  0
   -1.1553   22.3555  -26.8218 H   0  0  0  0  0  0  0  0  0  0  0  0
   -3.1704   21.4601  -27.9695 H   0  0  0  0  0  0  0  0  0  0  0  0
   -6.0367   24.0370  -29.0556 H   0  0  0  0  0  0  0  0  0  0  0  0
   -8.0014   23.0404  -30.2345 H   0  0  0  0  0  0  0  0  0  0  0  0
   -8.4330   20.1920  -34.2430 H   0  0  0  0  0  0  0  0  0  0  0  0
   -5.3759   20.1443  -32.0794 H   0  0  0  0  0  0  0  0  0  0  0  0
   -3.3603   25.0264  -30.4191 H   0  0  0  0  0  0  0  0  0  0  0  0
   -2.2911   25.9729  -26.2759 H   0  0  0  0  0  0  0  0  0  0  0  0
   -1.6290   24.6346  -25.2731 H   0  0  0  0  0  0  0  0  0  0  0  0
   -2.5673   26.9365  -24.1948 H   0  0  0  0  0  0  0  0  0  0  0  0
   -1.1736   25.9925  -23.4862 H   0  0  0  0  0  0  0  0  0  0  0  0
  1  2  1  0
  2  3  1  0
  3  4  1  0
  4  5  1  0
  5  6  1  0
  6  7  1  0
  7  8  2  0
  8  9  1  0
  9 10  2  0
 10 11  1  0
 11 12  2  0
 12 13  1  0
 13 14  2  0
 14 15  1  0
 15 16  1  0
 15 17  2  0
 15 18  2  0
 14 19  1  0
 19 20  2  0
 10 21  1  0
 21 22  2  0
 22 23  1  0
  5 24  1  0
 24 25  1  0
 25  2  1  0
 22  7  1  0
 20 11  1  0
  1 26  1  0
  1 27  1  0
  1 28  1  0
  3 29  1  0
  3 30  1  0
  4 31  1  0
  4 32  1  0
  6 33  1  0
  6 34  1  0
  8 35  1  0
  9 36  1  0
 12 37  1  0
 13 38  1  0
 16 39  1  0
 19 40  1  0
 21 41  1  0
 24 42  1  0
 24 43  1  0
 25 44  1  0
 25 45  1  0
M  CHG  2  16  -1  23  -1
M  END
>  <UniqueID>  (25) 
22

>  <SMILES>  (25) 
CN1CCN(Cc2ccc(-c3ccc(S([NH-])(=O)=O)cn3)cc2[O-])CC1

>  <Energy>  (25) 
65.10533313348276

>  <Genealogy>  (25) 
CN1CCN(Cc2ccc(-c3ccc(S([NH-])(=O)=O)cn3)cc2[O-])CC1 (protonated)
CN1CCN(Cc2ccc(-c3ccc(S([NH-])(=O)=O)cn3)cc2[O-])CC1 (3D coordinates assigned)
CN1CCN(Cc2ccc(-c3ccc(S([NH-])(=O)=O)cn3)cc2[O-])CC1 (nonaromatic ring conformer: 65.10533313348276 kcal/mol)

>  <smiles>  (25) 
CN1CCN(Cc2ccc(-c3ccc(S(N)(=O)=O)cn3)cc2O)CC1

>  <score_type>  (25) 
oracle

>  <origin>  (25) 
adgpu

>  <m_score__min__energy>  (25) 
-10.74

>  <m_primary>  (25) 
energy

$$$$
25:0
     RDKit          3D

 43 45  0  0  0  0  0  0  0  0999 V2000
   -5.5940   25.7650  -30.3530 C   0  0  0  0  0  0  0  0  0  0  0  0
   -4.1790   25.6720  -30.4700 O   0  0  0  0  0  0  0  0  0  0  0  0
   -3.4790   24.4850  -30.2380 C   0  0  0  0  0  0  0  0  0  0  0  0
   -2.8310   24.2970  -29.0160 C   0  0  0  0  0  0  0  0  0  0  0  0
   -2.1180   23.1200  -28.7940 C   0  0  0  0  0  0  0  0  0  0  0  0
   -2.0620   22.1320  -29.7830 C   0  0  0  0  0  0  0  0  0  0  0  0
   -1.2490   20.9610  -29.5510 C   0  0  0  0  0  0  0  0  0  0  0  0
   -0.5950   20.0250  -29.3650 N   0  0  0  0  0  0  0  0  0  0  0  0
   -2.7490   22.3420  -31.0010 C   0  0  0  0  0  0  0  0  0  0  0  0
   -2.7400   21.3550  -32.1060 C   0  0  0  0  0  0  0  0  0  0  0  0
   -1.5570   21.0490  -32.8000 C   0  0  0  0  0  0  0  0  0  0  0  0
   -1.5660   20.0990  -33.8240 C   0  0  0  0  0  0  0  0  0  0  0  0
   -2.7540   19.4460  -34.1660 C   0  0  0  0  0  0  0  0  0  0  0  0
   -3.9420   19.7380  -33.4870 C   0  0  0  0  0  0  0  0  0  0  0  0
   -5.1120   19.0570  -33.8530 O   0  0  0  0  0  0  0  0  0  0  0  0
   -6.3340   19.1210  -33.1660 C   0  0  0  0  0  0  0  0  0  0  0  0
   -7.0760   17.9470  -32.9960 C   0  0  0  0  0  0  0  0  0  0  0  0
   -8.2900   17.9730  -32.3040 C   0  0  0  0  0  0  0  0  0  0  0  0
   -8.7760   19.1760  -31.7850 C   0  0  0  0  0  0  0  0  0  0  0  0
   -8.0580   20.3650  -31.9760 C   0  0  0  0  0  0  0  0  0  0  0  0
   -8.6430   21.8860  -31.3080 S   0  0  0  0  0  0  0  0  0  0  0  0
   -9.4650   22.6040  -32.3410 O   0  0  0  0  0  0  0  0  0  0  0  0
   -9.5020   21.6260  -30.1030 O   0  0  0  0  0  0  0  0  0  0  0  0
   -7.2560   22.8960  -30.8350 C   0  0  0  0  0  0  0  0  0  0  0  0
   -6.5530   23.2800  -31.9600 F   0  0  0  0  0  0  0  0  0  0  0  0
   -6.8460   20.3360  -32.6770 C   0  0  0  0  0  0  0  0  0  0  0  0
   -3.9220   20.6730  -32.4340 C   0  0  0  0  0  0  0  0  0  0  0  0
   -3.4200   23.5130  -31.1890 N   0  0  0  0  0  0  0  0  0  0  0  0
   -5.8735   25.7834  -29.2893 H   0  0  0  0  0  0  0  0  0  0  0  0
   -5.9423   26.6880  -30.8396 H   0  0  0  0  0  0  0  0  0  0  0  0
   -6.0601   24.8955  -30.8396 H   0  0  0  0  0  0  0  0  0  0  0  0
   -2.8825   25.0704  -28.2355 H   0  0  0  0  0  0  0  0  0  0  0  0
   -1.5972   22.9673  -27.8372 H   0  0  0  0  0  0  0  0  0  0  0  0
   -0.6195   21.5600  -32.5356 H   0  0  0  0  0  0  0  0  0  0  0  0
   -0.6361   19.8641  -34.3626 H   0  0  0  0  0  0  0  0  0  0  0  0
   -2.7547   18.6987  -34.9732 H   0  0  0  0  0  0  0  0  0  0  0  0
   -6.7019   16.9986  -33.4091 H   0  0  0  0  0  0  0  0  0  0  0  0
   -8.8641   17.0446  -32.1676 H   0  0  0  0  0  0  0  0  0  0  0  0
   -9.7232   19.1901  -31.2258 H   0  0  0  0  0  0  0  0  0  0  0  0
   -7.6185   23.7907  -30.3076 H   0  0  0  0  0  0  0  0  0  0  0  0
   -6.5947   22.3184  -30.1725 H   0  0  0  0  0  0  0  0  0  0  0  0
   -6.2906   21.2703  -32.8463 H   0  0  0  0  0  0  0  0  0  0  0  0
   -4.8414   20.8706  -31.8633 H   0  0  0  0  0  0  0  0  0  0  0  0
  1  2  1  0
  2  3  1  0
  3  4  2  0
  4  5  1  0
  5  6  2  0
  6  7  1  0
  7  8  3  0
  6  9  1  0
  9 10  1  0
 10 11  2  0
 11 12  1  0
 12 13  2  0
 13 14  1  0
 14 15  1  0
 15 16  1  0
 16 17  2  0
 17 18  1  0
 18 19  2  0
 19 20  1  0
 20 21  1  0
 21 22  2  0
 21 23  2  0
 21 24  1  0
 24 25  1  0
 20 26  2  0
 14 27  2  0
  9 28  2  0
 28  3  1  0
 27 10  1  0
 26 16  1  0
  1 29  1  0
  1 30  1  0
  1 31  1  0
  4 32  1  0
  5 33  1  0
 11 34  1  0
 12 35  1  0
 13 36  1  0
 17 37  1  0
 18 38  1  0
 19 39  1  0
 24 40  1  0
 24 41  1  0
 26 42  1  0
 27 43  1  0
M  END
>  <UniqueID>  (26) 
23

>  <SMILES>  (26) 
COc1ccc(C#N)c(-c2cccc(Oc3cccc(S(=O)(=O)CF)c3)c2)n1

>  <Energy>  (26) 
52.725873421342044

>  <Genealogy>  (26) 
COc1ccc(C#N)c(-c2cccc(Oc3cccc(S(=O)(=O)CF)c3)c2)n1 (3D coordinates assigned)
COc1ccc(C#N)c(-c2cccc(Oc3cccc(S(=O)(=O)CF)c3)c2)n1 (optimized conformer: 52.725873421342044 kcal/mol)

>  <smiles>  (26) 
COc1ccc(C#N)c(-c2cccc(Oc3cccc(S(=O)(=O)CF)c3)c2)n1

>  <score_type>  (26) 
oracle

>  <origin>  (26) 
adgpu

>  <m_score__min__energy>  (26) 
-9.4800000000000004

>  <m_primary>  (26) 
energy

$$$$
26:0
     RDKit          3D

 50 53  0  0  0  0  0  0  0  0999 V2000
   -1.9410   25.2630  -29.3080 O   0  0  0  0  0  0  0  0  0  0  0  0
   -2.8650   24.4990  -29.6980 C   0  0  0  0  0  0  0  0  0  0  0  0
   -2.8540   23.0550  -29.3170 C   0  0  0  0  0  0  0  0  0  0  0  0
   -1.9530   22.3260  -30.2110 N   0  0  0  0  0  0  0  0  0  0  0  0
   -0.6930   21.8930  -29.9510 C   0  0  0  0  0  0  0  0  0  0  0  0
   -0.0650   22.1640  -28.8940 O   0  0  0  0  0  0  0  0  0  0  0  0
   -0.1940   21.1390  -30.9160 O   0  0  0  0  0  0  0  0  0  0  0  0
   -1.1390   21.0560  -31.8220 C   0  0  0  0  0  0  0  0  0  0  0  0
   -1.1310   20.3520  -33.0230 C   0  0  0  0  0  0  0  0  0  0  0  0
   -2.2980   20.3890  -33.8090 C   0  0  0  0  0  0  0  0  0  0  0  0
   -3.4290   21.1210  -33.3790 C   0  0  0  0  0  0  0  0  0  0  0  0
   -3.4010   21.8300  -32.1630 C   0  0  0  0  0  0  0  0  0  0  0  0
   -2.2280   21.7740  -31.4090 C   0  0  0  0  0  0  0  0  0  0  0  0
   -3.9730   25.0210  -30.4360 N   0  0  0  0  0  0  0  0  0  0  0  0
   -5.2030   24.3250  -30.6750 C   0  0  0  0  0  0  0  0  0  0  0  0
   -5.9490   23.7600  -29.6250 C   0  0  0  0  0  0  0  0  0  0  0  0
   -7.0850   22.9930  -29.9010 C   0  0  0  0  0  0  0  0  0  0  0  0
   -7.4750   22.7620  -31.2260 C   0  0  0  0  0  0  0  0  0  0  0  0
   -8.8360   21.6940  -31.5790 S   0  0  0  0  0  0  0  0  0  0  0  0
   -9.8560   22.4450  -32.3870 O   0  0  0  0  0  0  0  0  0  0  0  0
   -9.4820   21.2750  -30.2870 O   0  0  0  0  0  0  0  0  0  0  0  0
   -8.3230   20.2760  -32.4710 N   0  0  0  0  0  0  0  0  0  0  0  0
   -6.8760   20.3500  -32.8150 C   0  0  0  0  0  0  0  0  0  0  0  0
   -5.9960   19.4970  -31.8870 C   0  0  0  0  0  0  0  0  0  0  0  0
   -6.4110   18.0170  -31.9350 C   0  0  0  0  0  0  0  0  0  0  0  0
   -7.9120   17.8280  -32.2170 C   0  0  0  0  0  0  0  0  0  0  0  0
   -8.7160   19.0450  -31.7430 C   0  0  0  0  0  0  0  0  0  0  0  0
   -6.7410   23.3390  -32.2720 C   0  0  0  0  0  0  0  0  0  0  0  0
   -5.6100   24.1100  -31.9960 C   0  0  0  0  0  0  0  0  0  0  0  0
   -2.5049   22.9514  -28.2790 H   0  0  0  0  0  0  0  0  0  0  0  0
   -3.8705   22.6435  -29.4024 H   0  0  0  0  0  0  0  0  0  0  0  0
   -0.2443   19.7870  -33.3462 H   0  0  0  0  0  0  0  0  0  0  0  0
   -2.3305   19.8448  -34.7644 H   0  0  0  0  0  0  0  0  0  0  0  0
   -4.3373   21.1365  -33.9992 H   0  0  0  0  0  0  0  0  0  0  0  0
   -4.2722   22.4072  -31.8197 H   0  0  0  0  0  0  0  0  0  0  0  0
   -5.6375   23.9222  -28.5826 H   0  0  0  0  0  0  0  0  0  0  0  0
   -7.6745   22.5695  -29.0744 H   0  0  0  0  0  0  0  0  0  0  0  0
   -8.8600   20.2940  -33.3700 H   0  0  0  0  0  0  0  0  0  0  0  0
   -6.7423   19.9965  -33.8480 H   0  0  0  0  0  0  0  0  0  0  0  0
   -6.5618   21.3975  -32.6968 H   0  0  0  0  0  0  0  0  0  0  0  0
   -4.9468   19.5862  -32.2051 H   0  0  0  0  0  0  0  0  0  0  0  0
   -6.1204   19.8610  -30.8565 H   0  0  0  0  0  0  0  0  0  0  0  0
   -5.8382   17.5169  -32.7299 H   0  0  0  0  0  0  0  0  0  0  0  0
   -6.2021   17.5820  -30.9465 H   0  0  0  0  0  0  0  0  0  0  0  0
   -8.0614   17.6970  -33.2989 H   0  0  0  0  0  0  0  0  0  0  0  0
   -8.2631   16.9405  -31.6701 H   0  0  0  0  0  0  0  0  0  0  0  0
   -9.7858   18.8550  -31.9145 H   0  0  0  0  0  0  0  0  0  0  0  0
   -8.5108   19.1976  -30.6731 H   0  0  0  0  0  0  0  0  0  0  0  0
   -7.0573   23.1837  -33.3140 H   0  0  0  0  0  0  0  0  0  0  0  0
   -5.0349   24.5515  -32.8233 H   0  0  0  0  0  0  0  0  0  0  0  0
  1  2  2  0
  2  3  1  0
  3  4  1  0
  4  5  1  0
  5  6  2  0
  5  7  1  0
  7  8  1  0
  8  9  2  0
  9 10  1  0
 10 11  2  0
 11 12  1  0
 12 13  2  0
  2 14  1  0
 14 15  1  0
 15 16  2  0
 16 17  1  0
 17 18  2  0
 18 19  1  0
 19 20  2  0
 19 21  2  0
 19 22  1  0
 22 23  1  0
 23 24  1  0
 24 25  1  0
 25 26  1  0
 26 27  1  0
 18 28  1  0
 28 29  2  0
 13  4  1  0
 29 15  1  0
 13  8  1  0
 27 22  1  0
  3 30  1  0
  3 31  1  0
  9 32  1  0
 10 33  1  0
 11 34  1  0
 12 35  1  0
 16 36  1  0
 17 37  1  0
 22 38  1  0
 23 39  1  0
 23 40  1  0
 24 41  1  0
 24 42  1  0
 25 43  1  0
 25 44  1  0
 26 45  1  0
 26 46  1  0
 27 47  1  0
 27 48  1  0
 28 49  1  0
 29 50  1  0
M  CHG  2  14  -1  22   1
M  END
>  <UniqueID>  (27) 
24

>  <SMILES>  (27) 
O=C(Cn1c(=O)oc2ccccc21)[N-]c1ccc(S(=O)(=O)[NH+]2CCCCC2)cc1

>  <Energy>  (27) 
99.89821138448788

>  <Genealogy>  (27) 
O=C(Cn1c(=O)oc2ccccc21)[N-]c1ccc(S(=O)(=O)[NH+]2CCCCC2)cc1 (protonated)
O=C(Cn1c(=O)oc2ccccc21)[N-]c1ccc(S(=O)(=O)[NH+]2CCCCC2)cc1 (3D coordinates assigned)
O=C(Cn1c(=O)oc2ccccc21)[N-]c1ccc(S(=O)(=O)[NH+]2CCCCC2)cc1 (nonaromatic ring conformer: 99.89821138448788 kcal/mol)

>  <smiles>  (27) 
O=C(Cn1c(=O)oc2ccccc21)Nc1ccc(S(=O)(=O)N2CCCCC2)cc1

>  <score_type>  (27) 
oracle

>  <origin>  (27) 
adgpu

>  <m_score__min__energy>  (27) 
-11.43

>  <m_primary>  (27) 
energy

$$$$
27:0
     RDKit          3D

 42 44  0  0  0  0  0  0  0  0999 V2000
    0.4850   21.6340  -29.7890 H   0  0  0  0  0  0  0  0  0  0  0  0
   -0.4750   21.9230  -30.0820 N   0  0  0  0  0  0  0  0  0  0  0  0
   -0.9950   23.0400  -29.6900 C   0  0  0  0  0  0  0  0  0  0  0  0
   -0.2940   23.8750  -28.8800 N   0  0  0  0  0  0  0  0  0  0  0  0
   -0.8370   25.0520  -28.4690 C   0  0  0  0  0  0  0  0  0  0  0  0
   -0.0940   25.9430  -27.6100 N   0  0  0  0  0  0  0  0  0  0  0  0
    1.2080   25.5000  -27.0880 C   0  0  0  0  0  0  0  0  0  0  0  0
    1.0717   24.5555  -26.5409 H   0  0  0  0  0  0  0  0  0  0  0  0
    1.8934   25.3634  -27.9375 H   0  0  0  0  0  0  0  0  0  0  0  0
    1.8140   26.5410  -26.1420 C   0  0  0  0  0  0  0  0  0  0  0  0
    2.5928   26.0672  -25.5264 H   0  0  0  0  0  0  0  0  0  0  0  0
    2.2573   27.3570  -26.7316 H   0  0  0  0  0  0  0  0  0  0  0  0
    0.7600   27.0850  -25.2670 N   0  0  0  0  0  0  0  0  0  0  0  0
    0.2480   26.2890  -24.8160 H   0  0  0  0  0  0  0  0  0  0  0  0
    1.3580   27.8870  -24.1840 C   0  0  0  0  0  0  0  0  0  0  0  0
    1.0513   27.4757  -23.2110 H   0  0  0  0  0  0  0  0  0  0  0  0
    2.4544   27.8549  -24.2665 H   0  0  0  0  0  0  0  0  0  0  0  0
    1.0144   28.9287  -24.2665 H   0  0  0  0  0  0  0  0  0  0  0  0
   -0.2110   27.8990  -26.0360 C   0  0  0  0  0  0  0  0  0  0  0  0
   -1.1543   27.9381  -25.4715 H   0  0  0  0  0  0  0  0  0  0  0  0
    0.2408   28.8928  -26.1713 H   0  0  0  0  0  0  0  0  0  0  0  0
   -0.5110   27.3450  -27.4490 C   0  0  0  0  0  0  0  0  0  0  0  0
   -1.5937   27.4132  -27.6311 H   0  0  0  0  0  0  0  0  0  0  0  0
    0.0617   27.9467  -28.1701 H   0  0  0  0  0  0  0  0  0  0  0  0
   -2.0920   25.3830  -28.8780 N   0  0  0  0  0  0  0  0  0  0  0  0
   -2.8030   24.5500  -29.6790 C   0  0  0  0  0  0  0  0  0  0  0  0
   -3.9900   24.9090  -30.0710 N   0  0  0  0  0  0  0  0  0  0  0  0
   -4.9030   24.1410  -30.8750 C   0  0  0  0  0  0  0  0  0  0  0  0
   -6.2550   24.5020  -30.8860 C   0  0  0  0  0  0  0  0  0  0  0  0
   -6.5910   25.3773  -30.3108 H   0  0  0  0  0  0  0  0  0  0  0  0
   -7.1810   23.7590  -31.6220 C   0  0  0  0  0  0  0  0  0  0  0  0
   -8.2395   24.0582  -31.6338 H   0  0  0  0  0  0  0  0  0  0  0  0
   -6.7660   22.6370  -32.3430 C   0  0  0  0  0  0  0  0  0  0  0  0
   -7.4983   22.0547  -32.9215 H   0  0  0  0  0  0  0  0  0  0  0  0
   -5.4170   22.2510  -32.3310 C   0  0  0  0  0  0  0  0  0  0  0  0
   -4.9820   21.0080  -33.0510 C   0  0  0  0  0  0  0  0  0  0  0  0
   -4.7114   20.2348  -32.3169 H   0  0  0  0  0  0  0  0  0  0  0  0
   -5.8056   20.6425  -33.6819 H   0  0  0  0  0  0  0  0  0  0  0  0
   -4.1102   21.2358  -33.6819 H   0  0  0  0  0  0  0  0  0  0  0  0
   -4.4930   22.9890  -31.5760 C   0  0  0  0  0  0  0  0  0  0  0  0
   -3.4423   22.6666  -31.5309 H   0  0  0  0  0  0  0  0  0  0  0  0
   -2.2440   23.3810  -30.0920 N   0  0  0  0  0  0  0  0  0  0  0  0
  1  2  1  0
  2  3  2  0
  3  4  1  0
  4  5  2  0
  5  6  1  0
  6  7  1  0
  7  8  1  0
  7  9  1  0
  7 10  1  0
 10 11  1  0
 10 12  1  0
 10 13  1  0
 13 14  1  0
 13 15  1  0
 15 16  1  0
 15 17  1  0
 15 18  1  0
 13 19  1  0
 19 20  1  0
 19 21  1  0
 19 22  1  0
 22 23  1  0
 22 24  1  0
  5 25  1  0
 25 26  1  0
 26 27  2  0
 27 28  1  0
 28 29  2  0
 29 30  1  0
 29 31  1  0
 31 32  1  0
 31 33  2  0
 33 34  1  0
 33 35  1  0
 35 36  1  0
 36 37  1  0
 36 38  1  0
 36 39  1  0
 35 40  2  0
 40 41  1  0
 26 42  1  0
 42  3  1  0
 22  6  1  0
 40 28  1  0
M  CHG  3  13   1  25  -1  42  -1
M  END
>  <UniqueID>  (28) 
25

>  <SMILES>  (28) 
[H]/N=c1\nc(N2CC[NH+](C)CC2)[n-]/c(=N/c2cccc(C)c2)[n-]1

>  <Energy>  (28) 
54.65770816946015

>  <Genealogy>  (28) 
Cc1cccc(N=c2[n-]c(N3CC[NH+](C)CC3)nc(=N)[n-]2)c1 (protonated)
[H]/N=c1\nc(N2CC[NH+](C)CC2)[n-]/c(=N/c2cccc(C)c2)[n-]1 (cis-trans isomerization)
[H]/N=c1\nc(N2CC[NH+](C)CC2)[n-]/c(=N/c2cccc(C)c2)[n-]1 (3D coordinates assigned)
[H]/N=c1\nc(N2CC[NH+](C)CC2)[n-]/c(=N/c2cccc(C)c2)[n-]1 (nonaromatic ring conformer: 54.65770816946015 kcal/mol)

>  <smiles>  (28) 
Cc1cccc(N=c2[nH]c(N3CCN(C)CC3)nc(=N)[nH]2)c1

>  <score_type>  (28) 
oracle

>  <origin>  (28) 
adgpu

>  <m_score__min__energy>  (28) 
-8.4800000000000004

>  <m_primary>  (28) 
energy

$$$$
28:0
     RDKit          3D

 47 49  0  0  0  0  0  0  0  0999 V2000
   -4.0480   25.6380  -30.7510 N   0  0  0  0  0  0  0  0  0  0  0  0
   -4.4690   23.9680  -30.6210 S   0  0  0  0  0  0  0  0  0  0  0  0
   -4.6980   23.4160  -32.0020 O   0  0  0  0  0  0  0  0  0  0  0  0
   -5.7360   23.8210  -29.8250 O   0  0  0  0  0  0  0  0  0  0  0  0
   -3.1600   23.0920  -29.8160 C   0  0  0  0  0  0  0  0  0  0  0  0
   -2.2920   22.2930  -30.5740 C   0  0  0  0  0  0  0  0  0  0  0  0
   -1.2340   21.5920  -29.9680 C   0  0  0  0  0  0  0  0  0  0  0  0
   -0.3080   20.8250  -30.8320 C   0  0  0  0  0  0  0  0  0  0  0  0
    0.7920   20.4160  -30.3700 O   0  0  0  0  0  0  0  0  0  0  0  0
   -0.6230   20.6370  -32.2180 N   0  0  0  0  0  0  0  0  0  0  0  0
   -1.7580   19.9390  -32.7470 C   0  0  0  0  0  0  0  0  0  0  0  0
   -1.6980   18.5800  -33.1060 C   0  0  0  0  0  0  0  0  0  0  0  0
   -2.8360   17.9290  -33.5940 C   0  0  0  0  0  0  0  0  0  0  0  0
   -4.0450   18.6240  -33.7230 C   0  0  0  0  0  0  0  0  0  0  0  0
   -5.4870   17.8050  -34.3160 S   0  0  0  0  0  0  0  0  0  0  0  0
   -5.1170   16.4410  -34.8280 O   0  0  0  0  0  0  0  0  0  0  0  0
   -6.0860   18.6110  -35.4350 O   0  0  0  0  0  0  0  0  0  0  0  0
   -6.6260   17.6560  -33.0150 N   0  0  0  0  0  0  0  0  0  0  0  0
   -7.4550   18.6000  -32.6740 C   0  0  0  0  0  0  0  0  0  0  0  0
   -8.4260   18.4680  -31.5650 C   0  0  0  0  0  0  0  0  0  0  0  0
   -9.1180   19.8390  -31.5260 C   0  0  0  0  0  0  0  0  0  0  0  0
   -8.5960   20.6510  -32.7260 C   0  0  0  0  0  0  0  0  0  0  0  0
   -7.5510   19.8510  -33.3320 N   0  0  0  0  0  0  0  0  0  0  0  0
   -4.1140   19.9690  -33.3390 C   0  0  0  0  0  0  0  0  0  0  0  0
   -2.9790   20.6200  -32.8480 C   0  0  0  0  0  0  0  0  0  0  0  0
   -1.0700   21.6710  -28.5630 C   0  0  0  0  0  0  0  0  0  0  0  0
   -0.0800   20.8970  -27.8710 N   0  0  0  0  0  0  0  0  0  0  0  0
   -1.9320   22.4830  -27.8130 C   0  0  0  0  0  0  0  0  0  0  0  0
   -2.9690   23.1910  -28.4260 C   0  0  0  0  0  0  0  0  0  0  0  0
   -4.0140   24.1790  -27.4100 Cl  0  0  0  0  0  0  0  0  0  0  0  0
   -3.1190   25.6840  -31.2260 H   0  0  0  0  0  0  0  0  0  0  0  0
   -2.4411   22.2132  -31.6609 H   0  0  0  0  0  0  0  0  0  0  0  0
   -0.7526   18.0272  -33.0026 H   0  0  0  0  0  0  0  0  0  0  0  0
   -2.7810   16.8676  -33.8774 H   0  0  0  0  0  0  0  0  0  0  0  0
   -6.6300   16.7580  -32.4800 H   0  0  0  0  0  0  0  0  0  0  0  0
   -9.1516   17.6675  -31.7715 H   0  0  0  0  0  0  0  0  0  0  0  0
   -7.9502   18.2019  -30.6096 H   0  0  0  0  0  0  0  0  0  0  0  0
  -10.2080   19.7126  -31.6028 H   0  0  0  0  0  0  0  0  0  0  0  0
   -8.9002   20.3579  -30.5809 H   0  0  0  0  0  0  0  0  0  0  0  0
   -9.4069   20.8289  -33.4477 H   0  0  0  0  0  0  0  0  0  0  0  0
   -8.2160   21.6337  -32.4100 H   0  0  0  0  0  0  0  0  0  0  0  0
   -7.0020   20.1560  -34.1650 H   0  0  0  0  0  0  0  0  0  0  0  0
   -5.0651   20.5151  -33.4242 H   0  0  0  0  0  0  0  0  0  0  0  0
   -3.0442   21.6736  -32.5388 H   0  0  0  0  0  0  0  0  0  0  0  0
   -0.1880   20.6900  -26.8520 H   0  0  0  0  0  0  0  0  0  0  0  0
    0.7010   20.4210  -28.3710 H   0  0  0  0  0  0  0  0  0  0  0  0
   -1.7899   22.5641  -26.7252 H   0  0  0  0  0  0  0  0  0  0  0  0
  1  2  1  0
  2  3  2  0
  2  4  2  0
  2  5  1  0
  5  6  2  0
  6  7  1  0
  7  8  1  0
  8  9  2  0
  8 10  1  0
 10 11  1  0
 11 12  2  0
 12 13  1  0
 13 14  2  0
 14 15  1  0
 15 16  2  0
 15 17  2  0
 15 18  1  0
 18 19  2  3
 19 20  1  0
 20 21  1  0
 21 22  1  0
 22 23  1  0
 14 24  1  0
 24 25  2  0
  7 26  2  0
 26 27  1  0
 26 28  1  0
 28 29  2  0
 29 30  1  0
 29  5  1  0
 25 11  1  0
 23 19  1  0
  1 31  1  0
  6 32  1  0
 12 33  1  0
 13 34  1  0
 18 35  1  0
 20 36  1  0
 20 37  1  0
 21 38  1  0
 21 39  1  0
 22 40  1  0
 22 41  1  0
 23 42  1  0
 24 43  1  0
 25 44  1  0
 27 45  1  0
 27 46  1  0
 28 47  1  0
M  CHG  3   1  -1  10  -1  18   1
M  END
>  <UniqueID>  (29) 
26

>  <SMILES>  (29) 
[NH-]S(=O)(=O)c1cc(C(=O)[N-]c2ccc(S(=O)(=O)[NH+]=C3CCCN3)cc2)c(N)cc1Cl

>  <Energy>  (29) 
67.05456563912382

>  <Genealogy>  (29) 
[NH-]S(=O)(=O)c1cc(C(=O)[N-]c2ccc(S(=O)(=O)[NH+]=C3CCCN3)cc2)c(N)cc1Cl (protonated)
[NH-]S(=O)(=O)c1cc(C(=O)[N-]c2ccc(S(=O)(=O)[NH+]=C3CCCN3)cc2)c(N)cc1Cl (3D coordinates assigned)
[NH-]S(=O)(=O)c1cc(C(=O)[N-]c2ccc(S(=O)(=O)[NH+]=C3CCCN3)cc2)c(N)cc1Cl (nonaromatic ring conformer: 67.05456563912382 kcal/mol)

>  <smiles>  (29) 
Nc1cc(Cl)c(S(N)(=O)=O)cc1C(=O)Nc1ccc(S(=O)(=O)N=C2CCCN2)cc1

>  <score_type>  (29) 
oracle

>  <origin>  (29) 
adgpu

>  <m_score__min__energy>  (29) 
-10.609999999999999

>  <m_primary>  (29) 
energy

$$$$
29:0
     RDKit          3D

 40 42  0  0  0  0  0  0  0  0999 V2000
   -6.8660   15.4850  -34.1990 C   0  0  0  0  0  0  0  0  0  0  0  0
   -6.3290   16.8100  -33.7660 C   0  0  0  0  0  0  0  0  0  0  0  0
   -5.0010   17.1590  -34.0320 C   0  0  0  0  0  0  0  0  0  0  0  0
   -4.5400   18.4250  -33.6330 C   0  0  0  0  0  0  0  0  0  0  0  0
   -3.1440   18.8650  -33.8860 C   0  0  0  0  0  0  0  0  0  0  0  0
   -2.7690   20.2190  -33.7810 C   0  0  0  0  0  0  0  0  0  0  0  0
   -1.4460   20.6080  -34.0130 C   0  0  0  0  0  0  0  0  0  0  0  0
   -0.4830   19.6550  -34.3480 C   0  0  0  0  0  0  0  0  0  0  0  0
   -0.8380   18.3080  -34.4450 C   0  0  0  0  0  0  0  0  0  0  0  0
   -2.1580   17.9130  -34.2130 C   0  0  0  0  0  0  0  0  0  0  0  0
   -5.3960   19.2650  -32.9890 N   0  0  0  0  0  0  0  0  0  0  0  0
   -6.6830   18.9100  -32.7390 C   0  0  0  0  0  0  0  0  0  0  0  0
   -7.7890   20.0600  -31.9280 S   0  0  0  0  0  0  0  0  0  0  0  0
   -7.0680   21.5460  -32.7100 C   0  0  0  0  0  0  0  0  0  0  0  0
   -6.6480   22.5510  -31.6690 C   0  0  0  0  0  0  0  0  0  0  0  0
   -7.5460   23.2980  -30.9270 C   0  0  0  0  0  0  0  0  0  0  0  0
   -6.8060   24.2100  -30.2060 C   0  0  0  0  0  0  0  0  0  0  0  0
   -5.4840   23.9900  -30.5440 C   0  0  0  0  0  0  0  0  0  0  0  0
   -4.3900   24.8010  -30.0830 N   0  0  0  0  0  0  0  0  0  0  0  0
   -3.8840   25.6490  -30.8460 O   0  0  0  0  0  0  0  0  0  0  0  0
   -3.7760   24.5420  -28.8810 O   0  0  0  0  0  0  0  0  0  0  0  0
   -5.3780   22.9580  -31.4160 N   0  0  0  0  0  0  0  0  0  0  0  0
   -4.1390   22.4220  -31.9870 C   0  0  0  0  0  0  0  0  0  0  0  0
   -7.1390   17.6920  -33.1240 N   0  0  0  0  0  0  0  0  0  0  0  0
   -7.1107   14.8812  -33.3127 H   0  0  0  0  0  0  0  0  0  0  0  0
   -7.7737   15.6364  -34.8016 H   0  0  0  0  0  0  0  0  0  0  0  0
   -6.1090   14.9617  -34.8016 H   0  0  0  0  0  0  0  0  0  0  0  0
   -4.3292   16.4548  -34.5446 H   0  0  0  0  0  0  0  0  0  0  0  0
   -3.5221   20.9753  -33.5147 H   0  0  0  0  0  0  0  0  0  0  0  0
   -1.1635   21.6680  -33.9312 H   0  0  0  0  0  0  0  0  0  0  0  0
    0.5556   19.9650  -34.5356 H   0  0  0  0  0  0  0  0  0  0  0  0
   -0.0774   17.5568  -34.7044 H   0  0  0  0  0  0  0  0  0  0  0  0
   -2.4298   16.8496  -34.2863 H   0  0  0  0  0  0  0  0  0  0  0  0
   -6.1886   21.2511  -33.3014 H   0  0  0  0  0  0  0  0  0  0  0  0
   -7.8289   22.0070  -33.3569 H   0  0  0  0  0  0  0  0  0  0  0  0
   -8.6402   23.1855  -30.9150 H   0  0  0  0  0  0  0  0  0  0  0  0
   -7.1906   24.9627  -29.5021 H   0  0  0  0  0  0  0  0  0  0  0  0
   -3.4583   22.1275  -31.1747 H   0  0  0  0  0  0  0  0  0  0  0  0
   -4.3711   21.5438  -32.6074 H   0  0  0  0  0  0  0  0  0  0  0  0
   -3.6579   23.1924  -32.6074 H   0  0  0  0  0  0  0  0  0  0  0  0
  1  2  1  0
  2  3  2  0
  3  4  1  0
  4  5  1  0
  5  6  2  0
  6  7  1  0
  7  8  2  0
  8  9  1  0
  9 10  2  0
  4 11  2  0
 11 12  1  0
 12 13  1  0
 13 14  1  0
 14 15  1  0
 15 16  2  0
 16 17  1  0
 17 18  2  0
 18 19  1  0
 19 20  2  0
 19 21  1  0
 18 22  1  0
 22 23  1  0
 12 24  2  0
 24  2  1  0
 10  5  1  0
 22 15  1  0
  1 25  1  0
  1 26  1  0
  1 27  1  0
  3 28  1  0
  6 29  1  0
  7 30  1  0
  8 31  1  0
  9 32  1  0
 10 33  1  0
 14 34  1  0
 14 35  1  0
 16 36  1  0
 17 37  1  0
 23 38  1  0
 23 39  1  0
 23 40  1  0
M  CHG  2  19   1  21  -1
M  END
>  <UniqueID>  (30) 
27

>  <SMILES>  (30) 
Cc1cc(-c2ccccc2)nc(SCc2ccc([N+](=O)[O-])n2C)n1

>  <Energy>  (30) 
68.5363889251262

>  <Genealogy>  (30) 
Cc1cc(-c2ccccc2)nc(SCc2ccc([N+](=O)[O-])n2C)n1 (3D coordinates assigned)
Cc1cc(-c2ccccc2)nc(SCc2ccc([N+](=O)[O-])n2C)n1 (optimized conformer: 68.5363889251262 kcal/mol)

>  <smiles>  (30) 
Cc1cc(-c2ccccc2)nc(SCc2ccc([N+](=O)[O-])n2C)n1

>  <score_type>  (30) 
oracle

>  <origin>  (30) 
adgpu

>  <m_score__min__energy>  (30) 
-9.3300000000000001

>  <m_primary>  (30) 
energy

$$$$
30:0
     RDKit          3D

 63 66  0  0  0  0  0  0  0  0999 V2000
    0.4390   25.2500  -27.2680 C   0  0  0  0  0  0  0  0  0  0  0  0
   -0.8180   24.9990  -28.0290 C   0  0  0  0  0  0  0  0  0  0  0  0
   -1.2990   25.8330  -28.9730 N   0  0  0  0  0  0  0  0  0  0  0  0
   -2.3940   25.2990  -29.4300 O   0  0  0  0  0  0  0  0  0  0  0  0
   -2.6410   24.1590  -28.8310 C   0  0  0  0  0  0  0  0  0  0  0  0
   -3.6780   23.4120  -29.0480 N   0  0  0  0  0  0  0  0  0  0  0  0
   -4.9030   23.8450  -30.1890 S   0  0  0  0  0  0  0  0  0  0  0  0
   -4.3640   24.8820  -31.1320 O   0  0  0  0  0  0  0  0  0  0  0  0
   -6.0820   24.4270  -29.4610 O   0  0  0  0  0  0  0  0  0  0  0  0
   -5.4260   22.4090  -31.0580 C   0  0  0  0  0  0  0  0  0  0  0  0
   -4.7510   21.1970  -30.8680 C   0  0  0  0  0  0  0  0  0  0  0  0
   -5.1220   20.0600  -31.5870 C   0  0  0  0  0  0  0  0  0  0  0  0
   -6.1860   20.1100  -32.4970 C   0  0  0  0  0  0  0  0  0  0  0  0
   -6.5390   18.8970  -33.1820 N   0  0  0  0  0  0  0  0  0  0  0  0
   -5.8410   18.1950  -34.2240 C   0  0  0  0  0  0  0  0  0  0  0  0
   -6.0280   18.4840  -35.4350 O   0  0  0  0  0  0  0  0  0  0  0  0
   -4.8440   17.1790  -33.8350 C   0  0  0  0  0  0  0  0  0  0  0  0
   -5.1630   15.9780  -33.2350 C   0  0  0  0  0  0  0  0  0  0  0  0
   -3.9420   15.3590  -33.0040 C   0  0  0  0  0  0  0  0  0  0  0  0
   -3.7230   13.9650  -32.4360 C   0  0  0  0  0  0  0  0  0  0  0  0
   -2.2470   13.7980  -32.0170 C   0  0  0  0  0  0  0  0  0  0  0  0
   -4.6190   13.7260  -31.2020 C   0  0  0  0  0  0  0  0  0  0  0  0
   -4.0640   12.9330  -33.5200 C   0  0  0  0  0  0  0  0  0  0  0  0
   -2.9500   16.1410  -33.4830 N   0  0  0  0  0  0  0  0  0  0  0  0
   -3.4940   17.2410  -33.9820 N   0  0  0  0  0  0  0  0  0  0  0  0
   -2.6820   18.3080  -34.5720 C   0  0  0  0  0  0  0  0  0  0  0  0
   -2.2860   19.2980  -33.5080 C   0  0  0  0  0  0  0  0  0  0  0  0
   -2.5430   20.6660  -33.6930 C   0  0  0  0  0  0  0  0  0  0  0  0
   -2.1590   21.6000  -32.7280 C   0  0  0  0  0  0  0  0  0  0  0  0
   -1.5100   21.1730  -31.5640 C   0  0  0  0  0  0  0  0  0  0  0  0
   -1.1500   22.0770  -30.6130 F   0  0  0  0  0  0  0  0  0  0  0  0
   -1.2350   19.8150  -31.3790 C   0  0  0  0  0  0  0  0  0  0  0  0
   -1.6200   18.8800  -32.3470 C   0  0  0  0  0  0  0  0  0  0  0  0
   -6.8750   21.3260  -32.6780 C   0  0  0  0  0  0  0  0  0  0  0  0
   -6.4830   22.4710  -31.9700 C   0  0  0  0  0  0  0  0  0  0  0  0
   -1.6430   23.8910  -27.9270 C   0  0  0  0  0  0  0  0  0  0  0  0
   -1.5500   22.7420  -26.9730 C   0  0  0  0  0  0  0  0  0  0  0  0
    0.2290   25.2081  -26.1890 H   0  0  0  0  0  0  0  0  0  0  0  0
    1.1837   24.4828  -27.5267 H   0  0  0  0  0  0  0  0  0  0  0  0
    0.8319   26.2443  -27.5267 H   0  0  0  0  0  0  0  0  0  0  0  0
   -3.9223   21.1407  -30.1468 H   0  0  0  0  0  0  0  0  0  0  0  0
   -4.5749   19.1174  -31.4381 H   0  0  0  0  0  0  0  0  0  0  0  0
   -6.1653   15.5949  -32.9928 H   0  0  0  0  0  0  0  0  0  0  0  0
   -2.1761   13.7900  -30.9193 H   0  0  0  0  0  0  0  0  0  0  0  0
   -1.8574   12.8500  -32.4165 H   0  0  0  0  0  0  0  0  0  0  0  0
   -1.6555   14.6349  -32.4165 H   0  0  0  0  0  0  0  0  0  0  0  0
   -4.0308   13.8829  -30.2858 H   0  0  0  0  0  0  0  0  0  0  0  0
   -5.4639   14.4302  -31.2204 H   0  0  0  0  0  0  0  0  0  0  0  0
   -5.0009   12.6946  -31.2204 H   0  0  0  0  0  0  0  0  0  0  0  0
   -4.3752   11.9911  -33.0446 H   0  0  0  0  0  0  0  0  0  0  0  0
   -4.8834   13.3160  -34.1461 H   0  0  0  0  0  0  0  0  0  0  0  0
   -3.1778   12.7524  -34.1461 H   0  0  0  0  0  0  0  0  0  0  0  0
   -1.7768   17.8723  -35.0200 H   0  0  0  0  0  0  0  0  0  0  0  0
   -3.2686   18.8237  -35.3466 H   0  0  0  0  0  0  0  0  0  0  0  0
   -3.0519   21.0056  -34.6072 H   0  0  0  0  0  0  0  0  0  0  0  0
   -2.3663   22.6692  -32.8827 H   0  0  0  0  0  0  0  0  0  0  0  0
   -0.7144   19.4800  -30.4698 H   0  0  0  0  0  0  0  0  0  0  0  0
   -1.3992   17.8130  -32.1963 H   0  0  0  0  0  0  0  0  0  0  0  0
   -7.7229   21.3770  -33.3769 H   0  0  0  0  0  0  0  0  0  0  0  0
   -7.0100   23.4226  -32.1332 H   0  0  0  0  0  0  0  0  0  0  0  0
   -1.5806   23.1195  -25.9403 H   0  0  0  0  0  0  0  0  0  0  0  0
   -2.3958   22.0585  -27.1387 H   0  0  0  0  0  0  0  0  0  0  0  0
   -0.6053   22.2034  -27.1387 H   0  0  0  0  0  0  0  0  0  0  0  0
  1  2  1  0
  2  3  1  0
  3  4  1  0
  4  5  1  0
  5  6  2  3
  6  7  1  0
  7  8  2  0
  7  9  2  0
  7 10  1  0
 10 11  2  0
 11 12  1  0
 12 13  2  0
 13 14  1  0
 14 15  1  0
 15 16  2  0
 15 17  1  0
 17 18  2  0
 18 19  1  0
 19 20  1  0
 20 21  1  0
 20 22  1  0
 20 23  1  0
 19 24  2  0
 24 25  1  0
 25 26  1  0
 26 27  1  0
 27 28  2  0
 28 29  1  0
 29 30  2  0
 30 31  1  0
 30 32  1  0
 32 33  2  0
 13 34  1  0
 34 35  2  0
  5 36  1  0
 36 37  1  0
 36  2  2  0
 35 10  1  0
 25 17  1  0
 33 27  1  0
  1 38  1  0
  1 39  1  0
  1 40  1  0
 11 41  1  0
 12 42  1  0
 18 43  1  0
 21 44  1  0
 21 45  1  0
 21 46  1  0
 22 47  1  0
 22 48  1  0
 22 49  1  0
 23 50  1  0
 23 51  1  0
 23 52  1  0
 26 53  1  0
 26 54  1  0
 28 55  1  0
 29 56  1  0
 32 57  1  0
 33 58  1  0
 34 59  1  0
 35 60  1  0
 37 61  1  0
 37 62  1  0
 37 63  1  0
M  CHG  2   3  -1  14  -1
M  END
>  <UniqueID>  (31) 
28

>  <SMILES>  (31) 
Cc1[n-]oc(=NS(=O)(=O)c2ccc([N-]C(=O)c3cc(C(C)(C)C)nn3Cc3ccc(F)cc3)cc2)c1C

>  <Energy>  (31) 
130.5384283051679

>  <Genealogy>  (31) 
Cc1[n-]oc(=NS(=O)(=O)c2ccc([N-]C(=O)c3cc(C(C)(C)C)nn3Cc3ccc(F)cc3)cc2)c1C (protonated)
Cc1[n-]oc(=NS(=O)(=O)c2ccc([N-]C(=O)c3cc(C(C)(C)C)nn3Cc3ccc(F)cc3)cc2)c1C (3D coordinates assigned)
Cc1[n-]oc(=NS(=O)(=O)c2ccc([N-]C(=O)c3cc(C(C)(C)C)nn3Cc3ccc(F)cc3)cc2)c1C (optimized conformer: 130.5384283051679 kcal/mol)

>  <smiles>  (31) 
Cc1[nH]oc(=NS(=O)(=O)c2ccc(NC(=O)c3cc(C(C)(C)C)nn3Cc3ccc(F)cc3)cc2)c1C

>  <score_type>  (31) 
oracle

>  <origin>  (31) 
adgpu

>  <m_score__min__energy>  (31) 
-13.050000000000001

>  <m_primary>  (31) 
energy

$$$$
31:0
     RDKit          3D

 47 49  0  0  1  0  0  0  0  0999 V2000
   -9.4140   19.8150  -32.3920 C   0  0  0  0  0  0  0  0  0  0  0  0
   -9.1540   21.2190  -31.9250 C   0  0  0  0  0  0  0  0  0  0  0  0
   -7.7050   21.5200  -32.0660 C   0  0  0  0  0  0  0  0  0  0  0  0
   -6.8900   20.6100  -32.7020 C   0  0  0  0  0  0  0  0  0  0  0  0
   -5.5430   20.8490  -32.8550 C   0  0  0  0  0  0  0  0  0  0  0  0
   -5.0230   22.0260  -32.3550 C   0  0  0  0  0  0  0  0  0  0  0  0
   -5.8410   22.9680  -31.7030 C   0  0  0  0  0  0  0  0  0  0  0  0
   -5.3130   24.1590  -31.2030 C   0  0  0  0  0  0  0  0  0  0  0  0
   -4.1400   24.6020  -30.6660 N   0  0  0  0  0  0  0  0  0  0  0  0
   -3.3710   24.1710  -29.7630 C   0  0  0  0  0  0  0  0  0  0  0  0
   -3.7070   23.0000  -29.1180 C   0  0  0  0  0  0  0  0  0  0  0  0
   -2.8870   22.5310  -28.1460 C   0  0  0  0  0  0  0  0  0  0  0  0
   -1.7540   23.1820  -27.8000 N   0  0  0  0  0  0  0  0  0  0  0  0
   -0.9490   22.5920  -26.7470 C   0  0  0  0  0  0  0  0  0  0  0  0
   -0.5550   21.2390  -27.1810 C   0  0  0  0  0  0  0  0  0  0  0  0
   -1.3240   20.1580  -26.7630 C   0  0  0  0  0  0  0  0  0  0  0  0
   -0.9940   18.8650  -27.1460 C   0  0  0  0  0  0  0  0  0  0  0  0
    0.1170   18.6180  -27.9590 C   0  0  0  0  0  0  0  0  0  0  0  0
    0.4460   17.2210  -28.3540 C   0  0  0  0  0  0  0  0  0  0  0  0
    0.8730   19.6810  -28.3710 C   0  0  0  0  0  0  0  0  0  0  0  0
    0.5240   20.9550  -27.9760 C   0  0  0  0  0  0  0  0  0  0  0  0
   -1.4240   24.3260  -28.4280 C   0  0  0  0  0  0  0  0  0  0  0  0
   -0.3700   24.9290  -28.1040 O   0  0  0  0  0  0  0  0  0  0  0  0
   -2.2480   24.7990  -29.4050 N   0  0  0  0  0  0  0  0  0  0  0  0
   -7.1700   22.6460  -31.5970 N   0  0  0  0  0  0  0  0  0  0  0  0
   -9.5362   19.1553  -31.5203 H   0  0  0  0  0  0  0  0  0  0  0  0
  -10.3312   19.7944  -32.9988 H   0  0  0  0  0  0  0  0  0  0  0  0
   -8.5650   19.4673  -32.9988 H   0  0  0  0  0  0  0  0  0  0  0  0
   -9.7374   21.9239  -32.5355 H   0  0  0  0  0  0  0  0  0  0  0  0
   -9.4516   21.3192  -30.8708 H   0  0  0  0  0  0  0  0  0  0  0  0
   -7.3223   19.6775  -33.0939 H   0  0  0  0  0  0  0  0  0  0  0  0
   -4.8961   20.1192  -33.3638 H   0  0  0  0  0  0  0  0  0  0  0  0
   -3.9484   22.2318  -32.4683 H   0  0  0  0  0  0  0  0  0  0  0  0
   -5.4451   24.8418  -32.0553 H   0  0  0  0  0  0  0  0  0  0  0  0
   -5.7932   24.0368  -30.2209 H   0  0  0  0  0  0  0  0  0  0  0  0
   -4.6243   22.4559  -29.3873 H   0  0  0  0  0  0  0  0  0  0  0  0
   -3.1499   21.5980  -27.6261 H   0  0  0  0  0  0  0  0  0  0  0  0
   -0.0521   23.2050  -26.5744 H   0  0  0  0  0  0  0  0  0  0  0  0
   -1.5222   22.5417  -25.8095 H   0  0  0  0  0  0  0  0  0  0  0  0
   -2.2020   20.3292  -26.1229 H   0  0  0  0  0  0  0  0  0  0  0  0
   -1.6148   18.0232  -26.8054 H   0  0  0  0  0  0  0  0  0  0  0  0
    0.5901   16.6090  -27.4514 H   0  0  0  0  0  0  0  0  0  0  0  0
   -0.3787   16.8049  -28.9513 H   0  0  0  0  0  0  0  0  0  0  0  0
    1.3697   17.2167  -28.9513 H   0  0  0  0  0  0  0  0  0  0  0  0
    1.7522   19.5206  -29.0123 H   0  0  0  0  0  0  0  0  0  0  0  0
    1.1487   21.7928  -28.3194 H   0  0  0  0  0  0  0  0  0  0  0  0
   -2.0070   25.6730  -29.8940 H   0  0  0  0  0  0  0  0  0  0  0  0
  1  2  1  0
  2  3  1  0
  3  4  2  0
  4  5  1  0
  5  6  2  0
  6  7  1  0
  7  8  1  0
  8  9  1  0
  9 10  2  0
 10 11  1  0
 11 12  2  0
 12 13  1  0
 13 14  1  0
 14 15  1  0
 15 16  2  0
 16 17  1  0
 17 18  2  0
 18 19  1  0
 18 20  1  0
 20 21  2  0
 13 22  1  0
 22 23  2  0
 22 24  1  0
  7 25  2  0
 25  3  1  0
 24 10  1  0
 21 15  1  0
  1 26  1  0
  1 27  1  0
  1 28  1  0
  2 29  1  0
  2 30  1  0
  4 31  1  0
  5 32  1  0
  6 33  1  0
  8 34  1  0
  8 35  1  0
 11 36  1  0
 12 37  1  0
 14 38  1  0
 14 39  1  0
 16 40  1  0
 17 41  1  0
 19 42  1  0
 19 43  1  0
 19 44  1  0
 20 45  1  0
 21 46  1  0
 24 47  1  0
M  END
>  <smiles>  (32) 
CCc1cccc(CN=c2ccn(Cc3ccc(C)cc3)c(=O)[nH]2)n1

>  <score_type>  (32) 
oracle

>  <origin>  (32) 
adgpu

>  <m_score__min__energy>  (32) 
-9.3900000000000006

>  <m_primary>  (32) 
energy

$$$$
32:0
     RDKit          3D

 57 60  0  0  0  0  0  0  0  0999 V2000
   -9.4250   19.3930  -32.7210 C   0  0  0  0  0  0  0  0  0  0  0  0
   -8.0310   19.8840  -32.4460 C   0  0  0  0  0  0  0  0  0  0  0  0
   -6.9290   19.0960  -32.8070 C   0  0  0  0  0  0  0  0  0  0  0  0
   -5.6240   19.5500  -32.5800 C   0  0  0  0  0  0  0  0  0  0  0  0
   -4.4570   18.7450  -33.0030 C   0  0  0  0  0  0  0  0  0  0  0  0
   -4.4100   17.5280  -32.6890 O   0  0  0  0  0  0  0  0  0  0  0  0
   -3.3600   19.3030  -33.7390 N   0  0  0  0  0  0  0  0  0  0  0  0
   -2.3480   18.5590  -34.4860 C   0  0  0  0  0  0  0  0  0  0  0  0
   -0.9340   19.0360  -34.1240 C   0  0  0  0  0  0  0  0  0  0  0  0
   -0.9080   19.7820  -32.8150 C   0  0  0  0  0  0  0  0  0  0  0  0
   -1.2640   21.1360  -32.7540 C   0  0  0  0  0  0  0  0  0  0  0  0
   -1.2610   21.8130  -31.5310 C   0  0  0  0  0  0  0  0  0  0  0  0
   -0.8810   21.1550  -30.3440 C   0  0  0  0  0  0  0  0  0  0  0  0
   -0.8670   21.8790  -29.0390 C   0  0  0  0  0  0  0  0  0  0  0  0
   -0.7810   21.1710  -27.8260 C   0  0  0  0  0  0  0  0  0  0  0  0
   -0.7660   21.8500  -26.6060 C   0  0  0  0  0  0  0  0  0  0  0  0
   -0.8540   23.2410  -26.5750 C   0  0  0  0  0  0  0  0  0  0  0  0
   -0.9700   23.9720  -27.7670 C   0  0  0  0  0  0  0  0  0  0  0  0
   -1.0310   25.4780  -27.7380 C   0  0  0  0  0  0  0  0  0  0  0  0
   -1.2080   25.9510  -29.0240 F   0  0  0  0  0  0  0  0  0  0  0  0
   -2.0830   25.9090  -26.9490 F   0  0  0  0  0  0  0  0  0  0  0  0
    0.1400   26.0060  -27.2210 F   0  0  0  0  0  0  0  0  0  0  0  0
   -0.9430   23.2860  -28.9960 C   0  0  0  0  0  0  0  0  0  0  0  0
   -0.5140   19.7970  -30.4180 C   0  0  0  0  0  0  0  0  0  0  0  0
   -0.5410   19.1170  -31.6370 C   0  0  0  0  0  0  0  0  0  0  0  0
   -5.4260   20.8200  -32.0230 C   0  0  0  0  0  0  0  0  0  0  0  0
   -6.5150   21.6290  -31.6540 C   0  0  0  0  0  0  0  0  0  0  0  0
   -6.2620   22.9560  -31.0280 C   0  0  0  0  0  0  0  0  0  0  0  0
   -7.2920   23.6480  -30.3660 C   0  0  0  0  0  0  0  0  0  0  0  0
   -7.0380   24.8720  -29.7400 C   0  0  0  0  0  0  0  0  0  0  0  0
   -5.7550   25.4180  -29.7650 C   0  0  0  0  0  0  0  0  0  0  0  0
   -4.7220   24.7450  -30.4230 C   0  0  0  0  0  0  0  0  0  0  0  0
   -3.4450   25.2930  -30.4510 O   0  0  0  0  0  0  0  0  0  0  0  0
   -4.9710   23.5210  -31.0510 C   0  0  0  0  0  0  0  0  0  0  0  0
   -7.8250   21.1600  -31.8910 C   0  0  0  0  0  0  0  0  0  0  0  0
   -8.9220   21.9700  -31.6100 O   0  0  0  0  0  0  0  0  0  0  0  0
   -9.9439   19.2102  -31.7685 H   0  0  0  0  0  0  0  0  0  0  0  0
   -9.9739   20.1519  -33.2979 H   0  0  0  0  0  0  0  0  0  0  0  0
   -9.3772   18.4576  -33.2979 H   0  0  0  0  0  0  0  0  0  0  0  0
   -7.0910   18.1126  -33.2726 H   0  0  0  0  0  0  0  0  0  0  0  0
   -2.4388   17.4892  -34.2468 H   0  0  0  0  0  0  0  0  0  0  0  0
   -2.5105   18.7293  -35.5605 H   0  0  0  0  0  0  0  0  0  0  0  0
   -0.2726   18.1604  -34.0470 H   0  0  0  0  0  0  0  0  0  0  0  0
   -0.5945   19.7228  -34.9134 H   0  0  0  0  0  0  0  0  0  0  0  0
   -1.5474   21.6690  -33.6736 H   0  0  0  0  0  0  0  0  0  0  0  0
   -1.5586   22.8713  -31.4946 H   0  0  0  0  0  0  0  0  0  0  0  0
   -0.7251   20.0725  -27.8390 H   0  0  0  0  0  0  0  0  0  0  0  0
   -0.6844   21.2851  -25.6656 H   0  0  0  0  0  0  0  0  0  0  0  0
   -0.8324   23.7687  -25.6101 H   0  0  0  0  0  0  0  0  0  0  0  0
   -0.9818   23.8559  -29.9361 H   0  0  0  0  0  0  0  0  0  0  0  0
   -0.2029   19.2668  -29.5058 H   0  0  0  0  0  0  0  0  0  0  0  0
   -0.2721   18.0510  -31.6733 H   0  0  0  0  0  0  0  0  0  0  0  0
   -4.4014   21.1905  -31.8718 H   0  0  0  0  0  0  0  0  0  0  0  0
   -8.3061   23.2226  -30.3406 H   0  0  0  0  0  0  0  0  0  0  0  0
   -7.8517   25.4054  -29.2268 H   0  0  0  0  0  0  0  0  0  0  0  0
   -5.5561   26.3783  -29.2668 H   0  0  0  0  0  0  0  0  0  0  0  0
   -4.1538   22.9953  -31.5666 H   0  0  0  0  0  0  0  0  0  0  0  0
  1  2  1  0
  2  3  2  0
  3  4  1  0
  4  5  1  0
  5  6  2  0
  5  7  1  0
  7  8  1  0
  8  9  1  0
  9 10  1  0
 10 11  2  0
 11 12  1  0
 12 13  2  0
 13 14  1  0
 14 15  2  0
 15 16  1  0
 16 17  2  0
 17 18  1  0
 18 19  1  0
 19 20  1  0
 19 21  1  0
 19 22  1  0
 18 23  2  0
 13 24  1  0
 24 25  2  0
  4 26  2  0
 26 27  1  0
 27 28  1  0
 28 29  2  0
 29 30  1  0
 30 31  2  0
 31 32  1  0
 32 33  1  0
 32 34  2  0
 27 35  2  0
 35 36  1  0
 35  2  1  0
 25 10  1  0
 34 28  1  0
 23 14  1  0
  1 37  1  0
  1 38  1  0
  1 39  1  0
  3 40  1  0
  8 41  1  0
  8 42  1  0
  9 43  1  0
  9 44  1  0
 11 45  1  0
 12 46  1  0
 15 47  1  0
 16 48  1  0
 17 49  1  0
 23 50  1  0
 24 51  1  0
 25 52  1  0
 26 53  1  0
 29 54  1  0
 30 55  1  0
 31 56  1  0
 34 57  1  0
M  CHG  3   7  -1  33  -1  36  -1
M  END
>  <UniqueID>  (33) 
29

>  <SMILES>  (33) 
Cc1cc(C(=O)[N-]CCc2ccc(-c3cccc(C(F)(F)F)c3)cc2)cc(-c2cccc([O-])c2)c1[O-]

>  <Energy>  (33) 
69.73850880262856

>  <Genealogy>  (33) 
Cc1cc(C(=O)[N-]CCc2ccc(-c3cccc(C(F)(F)F)c3)cc2)cc(-c2cccc([O-])c2)c1[O-] (protonated)
Cc1cc(C(=O)[N-]CCc2ccc(-c3cccc(C(F)(F)F)c3)cc2)cc(-c2cccc([O-])c2)c1[O-] (3D coordinates assigned)
Cc1cc(C(=O)[N-]CCc2ccc(-c3cccc(C(F)(F)F)c3)cc2)cc(-c2cccc([O-])c2)c1[O-] (optimized conformer: 69.73850880262856 kcal/mol)

>  <smiles>  (33) 
Cc1cc(C(=O)NCCc2ccc(-c3cccc(C(F)(F)F)c3)cc2)cc(-c2cccc(O)c2)c1O

>  <score_type>  (33) 
oracle

>  <origin>  (33) 
adgpu

>  <m_score__min__energy>  (33) 
-12.41

>  <m_primary>  (33) 
energy

$$$$
33:0
     RDKit          3D

 32 34  0  0  0  0  0  0  0  0999 V2000
   -7.1765   17.7309  -33.3722 H   0  0  0  0  0  0  0  0  0  0  0  0
   -6.7590   18.7370  -33.2190 C   0  0  0  0  0  0  0  0  0  0  0  0
   -5.1740   19.2040  -33.5350 S   0  0  0  0  0  0  0  0  0  0  0  0
   -5.3650   20.8110  -33.0790 C   0  0  0  0  0  0  0  0  0  0  0  0
   -4.2760   21.8350  -33.0480 C   0  0  0  0  0  0  0  0  0  0  0  0
   -4.7193   22.8408  -33.0905 H   0  0  0  0  0  0  0  0  0  0  0  0
   -3.6123   21.6854  -33.9124 H   0  0  0  0  0  0  0  0  0  0  0  0
   -3.4860   21.6950  -31.7910 C   0  0  0  0  0  0  0  0  0  0  0  0
   -3.9080   21.0260  -30.7000 N   0  0  0  0  0  0  0  0  0  0  0  0
   -2.9530   21.1610  -29.7920 N   0  0  0  0  0  0  0  0  0  0  0  0
   -1.9930   21.9090  -30.3670 C   0  0  0  0  0  0  0  0  0  0  0  0
   -0.4860   22.4150  -29.5460 S   0  0  0  0  0  0  0  0  0  0  0  0
   -1.3350   22.9000  -28.0050 C   0  0  0  0  0  0  0  0  0  0  0  0
   -0.6646   22.7219  -27.1513 H   0  0  0  0  0  0  0  0  0  0  0  0
   -2.2511   22.3001  -27.9005 H   0  0  0  0  0  0  0  0  0  0  0  0
   -1.7100   24.3560  -28.0440 C   0  0  0  0  0  0  0  0  0  0  0  0
   -1.4250   25.0880  -27.0590 O   0  0  0  0  0  0  0  0  0  0  0  0
   -2.2740   24.9610  -29.2150 N   0  0  0  0  0  0  0  0  0  0  0  0
   -3.4480   24.7140  -29.7160 C   0  0  0  0  0  0  0  0  0  0  0  0
   -3.8790   25.2970  -30.8540 N   0  0  0  0  0  0  0  0  0  0  0  0
   -5.1240   24.9530  -31.1820 N   0  0  0  0  0  0  0  0  0  0  0  0
   -5.6980   24.1130  -30.2930 C   0  0  0  0  0  0  0  0  0  0  0  0
   -7.0600   23.5340  -30.4670 C   0  0  0  0  0  0  0  0  0  0  0  0
   -7.5066   23.3442  -29.4798 H   0  0  0  0  0  0  0  0  0  0  0  0
   -7.6908   24.2418  -31.0248 H   0  0  0  0  0  0  0  0  0  0  0  0
   -6.9880   22.5887  -31.0248 H   0  0  0  0  0  0  0  0  0  0  0  0
   -4.6440   23.7320  -29.0350 S   0  0  0  0  0  0  0  0  0  0  0  0
   -2.3110   22.2400  -31.5940 O   0  0  0  0  0  0  0  0  0  0  0  0
   -6.6710   20.9980  -32.6450 C   0  0  0  0  0  0  0  0  0  0  0  0
   -7.0540   21.9590  -32.2712 H   0  0  0  0  0  0  0  0  0  0  0  0
   -7.4500   19.8380  -32.7320 C   0  0  0  0  0  0  0  0  0  0  0  0
   -8.5104   19.8024  -32.4416 H   0  0  0  0  0  0  0  0  0  0  0  0
  1  2  1  0
  2  3  1  0
  3  4  1  0
  4  5  1  0
  5  6  1  0
  5  7  1  0
  5  8  1  0
  8  9  2  0
  9 10  1  0
 10 11  2  0
 11 12  1  0
 12 13  1  0
 13 14  1  0
 13 15  1  0
 13 16  1  0
 16 17  2  0
 16 18  1  0
 18 19  2  0
 19 20  1  0
 20 21  1  0
 21 22  2  0
 22 23  1  0
 23 24  1  0
 23 25  1  0
 23 26  1  0
 22 27  1  0
 11 28  1  0
  4 29  2  0
 29 30  1  0
 29 31  1  0
 31 32  1  0
 31  2  2  0
 28  8  1  0
 27 19  1  0
M  CHG  1  20  -1
M  END
>  <UniqueID>  (34) 
30

>  <SMILES>  (34) 
Cc1n[n-]/c(=N/C(=O)CSc2nnc(Cc3cccs3)o2)s1

>  <Energy>  (34) 
124.69361449800589

>  <Genealogy>  (34) 
Cc1n[n-]c(=NC(=O)CSc2nnc(Cc3cccs3)o2)s1 (protonated)
Cc1n[n-]/c(=N/C(=O)CSc2nnc(Cc3cccs3)o2)s1 (cis-trans isomerization)
Cc1n[n-]/c(=N/C(=O)CSc2nnc(Cc3cccs3)o2)s1 (3D coordinates assigned)
Cc1n[n-]/c(=N/C(=O)CSc2nnc(Cc3cccs3)o2)s1 (optimized conformer: 124.69361449800589 kcal/mol)

>  <smiles>  (34) 
Cc1n[nH]c(=NC(=O)CSc2nnc(Cc3cccs3)o2)s1

>  <score_type>  (34) 
oracle

>  <origin>  (34) 
adgpu

>  <m_score__min__energy>  (34) 
-9.75

>  <m_primary>  (34) 
energy

$$$$
34:0
     RDKit          3D

 48 51  0  0  0  0  0  0  0  0999 V2000
   -6.1200   15.5860  -34.0550 C   0  0  0  0  0  0  0  0  0  0  0  0
   -6.4240   17.0140  -33.7120 C   0  0  0  0  0  0  0  0  0  0  0  0
   -5.7730   18.0530  -34.3910 C   0  0  0  0  0  0  0  0  0  0  0  0
   -6.0230   19.3830  -34.0480 C   0  0  0  0  0  0  0  0  0  0  0  0
   -6.9200   19.6950  -33.0150 C   0  0  0  0  0  0  0  0  0  0  0  0
   -7.1460   21.0720  -32.6760 N   0  0  0  0  0  0  0  0  0  0  0  0
   -6.0040   21.9830  -32.5500 C   0  0  0  0  0  0  0  0  0  0  0  0
   -6.4690   23.4150  -32.2430 C   0  0  0  0  0  0  0  0  0  0  0  0
   -7.4510   23.4740  -31.1340 N   0  0  0  0  0  0  0  0  0  0  0  0
   -6.8970   23.9020  -29.8280 C   0  0  0  0  0  0  0  0  0  0  0  0
   -5.4130   23.6340  -29.6780 C   0  0  0  0  0  0  0  0  0  0  0  0
   -4.9220   22.3020  -29.6310 C   0  0  0  0  0  0  0  0  0  0  0  0
   -3.5430   22.0490  -29.5130 C   0  0  0  0  0  0  0  0  0  0  0  0
   -2.6880   23.1410  -29.4230 C   0  0  0  0  0  0  0  0  0  0  0  0
   -3.1480   24.4160  -29.4370 C   0  0  0  0  0  0  0  0  0  0  0  0
   -4.5040   24.7110  -29.5520 C   0  0  0  0  0  0  0  0  0  0  0  0
   -2.0850   25.2900  -29.3230 O   0  0  0  0  0  0  0  0  0  0  0  0
   -0.8810   24.5150  -29.2350 C   0  0  0  0  0  0  0  0  0  0  0  0
   -1.3120   23.1490  -29.3010 O   0  0  0  0  0  0  0  0  0  0  0  0
   -8.4170   22.3530  -31.0450 C   0  0  0  0  0  0  0  0  0  0  0  0
   -8.4920   21.5400  -32.3370 C   0  0  0  0  0  0  0  0  0  0  0  0
   -7.5800   18.6550  -32.3260 C   0  0  0  0  0  0  0  0  0  0  0  0
   -8.5460   18.9510  -31.2120 C   0  0  0  0  0  0  0  0  0  0  0  0
   -7.3080   17.3190  -32.6670 C   0  0  0  0  0  0  0  0  0  0  0  0
   -5.9963   15.0049  -33.1293 H   0  0  0  0  0  0  0  0  0  0  0  0
   -6.9488   15.1659  -34.6437 H   0  0  0  0  0  0  0  0  0  0  0  0
   -5.1919   15.5399  -34.6437 H   0  0  0  0  0  0  0  0  0  0  0  0
   -5.0622   17.8196  -35.1974 H   0  0  0  0  0  0  0  0  0  0  0  0
   -5.5132   20.1922  -34.5914 H   0  0  0  0  0  0  0  0  0  0  0  0
   -5.3543   21.6337  -31.7340 H   0  0  0  0  0  0  0  0  0  0  0  0
   -5.4567   21.9907  -33.5042 H   0  0  0  0  0  0  0  0  0  0  0  0
   -5.5913   24.0183  -31.9679 H   0  0  0  0  0  0  0  0  0  0  0  0
   -6.9641   23.8034  -33.1452 H   0  0  0  0  0  0  0  0  0  0  0  0
   -7.0677   24.9829  -29.7159 H   0  0  0  0  0  0  0  0  0  0  0  0
   -7.4097   23.3133  -29.0531 H   0  0  0  0  0  0  0  0  0  0  0  0
   -5.6271   21.4596  -29.6874 H   0  0  0  0  0  0  0  0  0  0  0  0
   -3.1542   21.0202  -29.4926 H   0  0  0  0  0  0  0  0  0  0  0  0
   -4.8586   25.7522  -29.5451 H   0  0  0  0  0  0  0  0  0  0  0  0
   -0.2087   24.7490  -30.0736 H   0  0  0  0  0  0  0  0  0  0  0  0
   -0.3203   24.7268  -28.3126 H   0  0  0  0  0  0  0  0  0  0  0  0
   -8.1089   21.6862  -30.2262 H   0  0  0  0  0  0  0  0  0  0  0  0
   -9.4127   22.7839  -30.8634 H   0  0  0  0  0  0  0  0  0  0  0  0
   -9.1587   20.6770  -32.1931 H   0  0  0  0  0  0  0  0  0  0  0  0
   -8.8875   22.1653  -33.1510 H   0  0  0  0  0  0  0  0  0  0  0  0
   -8.0470   18.7981  -30.2437 H   0  0  0  0  0  0  0  0  0  0  0  0
   -8.8856   19.9944  -31.2888 H   0  0  0  0  0  0  0  0  0  0  0  0
   -9.4119   18.2770  -31.2888 H   0  0  0  0  0  0  0  0  0  0  0  0
   -7.7932   16.5047  -32.1088 H   0  0  0  0  0  0  0  0  0  0  0  0
  1  2  1  0
  2  3  2  0
  3  4  1  0
  4  5  2  0
  5  6  1  0
  6  7  1  0
  7  8  1  0
  8  9  1  0
  9 10  1  0
 10 11  1  0
 11 12  2  0
 12 13  1  0
 13 14  2  0
 14 15  1  0
 15 16  2  0
 15 17  1  0
 17 18  1  0
 18 19  1  0
  9 20  1  0
 20 21  1  0
  5 22  1  0
 22 23  1  0
 22 24  2  0
 24  2  1  0
 21  6  1  0
 16 11  1  0
 19 14  1  0
  1 25  1  0
  1 26  1  0
  1 27  1  0
  3 28  1  0
  4 29  1  0
  7 30  1  0
  7 31  1  0
  8 32  1  0
  8 33  1  0
 10 34  1  0
 10 35  1  0
 12 36  1  0
 13 37  1  0
 16 38  1  0
 18 39  1  0
 18 40  1  0
 20 41  1  0
 20 42  1  0
 21 43  1  0
 21 44  1  0
 23 45  1  0
 23 46  1  0
 23 47  1  0
 24 48  1  0
M  END
>  <UniqueID>  (35) 
31

>  <SMILES>  (35) 
Cc1ccc(N2CCN(Cc3ccc4c(c3)OCO4)CC2)c(C)c1

>  <Energy>  (35) 
91.86632950349107

>  <Genealogy>  (35) 
Cc1ccc(N2CCN(Cc3ccc4c(c3)OCO4)CC2)c(C)c1 (3D coordinates assigned)
Cc1ccc(N2CCN(Cc3ccc4c(c3)OCO4)CC2)c(C)c1 (nonaromatic ring conformer: 91.86632950349107 kcal/mol)

>  <smiles>  (35) 
Cc1ccc(N2CCN(Cc3ccc4c(c3)OCO4)CC2)c(C)c1

>  <score_type>  (35) 
oracle

>  <origin>  (35) 
adgpu

>  <m_score__min__energy>  (35) 
-8.5999999999999996

>  <m_primary>  (35) 
energy

$$$$
35:0
     RDKit          3D

 50 51  0  0  0  0  0  0  0  0999 V2000
   -9.1130   21.9330  -31.5840 C   0  0  0  0  0  0  0  0  0  0  0  0
   -7.6440   21.5690  -31.3810 C   0  0  0  0  0  0  0  0  0  0  0  0
   -6.7040   22.5630  -32.0710 C   0  0  0  0  0  0  0  0  0  0  0  0
   -5.2910   22.1700  -31.9310 N   0  0  0  0  0  0  0  0  0  0  0  0
   -4.5950   21.5660  -33.0790 C   0  0  0  0  0  0  0  0  0  0  0  0
   -4.7690   20.0420  -33.1110 C   0  0  0  0  0  0  0  0  0  0  0  0
   -6.0730   19.6510  -33.8010 C   0  0  0  0  0  0  0  0  0  0  0  0
   -4.5040   22.8310  -30.9170 C   0  0  0  0  0  0  0  0  0  0  0  0
   -3.6540   22.1210  -30.0430 C   0  0  0  0  0  0  0  0  0  0  0  0
   -3.4640   20.6320  -30.1340 C   0  0  0  0  0  0  0  0  0  0  0  0
   -2.9360   22.8050  -29.1060 N   0  0  0  0  0  0  0  0  0  0  0  0
   -3.0420   24.1570  -28.9790 C   0  0  0  0  0  0  0  0  0  0  0  0
   -2.2560   24.8870  -27.9600 C   0  0  0  0  0  0  0  0  0  0  0  0
   -0.9380   25.2560  -28.2720 C   0  0  0  0  0  0  0  0  0  0  0  0
   -0.1430   25.9190  -27.3360 C   0  0  0  0  0  0  0  0  0  0  0  0
   -0.6500   26.2190  -26.0660 C   0  0  0  0  0  0  0  0  0  0  0  0
    0.1970   26.9570  -25.0710 C   0  0  0  0  0  0  0  0  0  0  0  0
   -1.9770   25.8920  -25.7570 C   0  0  0  0  0  0  0  0  0  0  0  0
   -2.7960   25.2420  -26.6970 C   0  0  0  0  0  0  0  0  0  0  0  0
   -4.2250   24.9430  -26.3240 C   0  0  0  0  0  0  0  0  0  0  0  0
   -3.8440   24.8520  -29.8250 N   0  0  0  0  0  0  0  0  0  0  0  0
   -4.5720   24.2270  -30.7800 C   0  0  0  0  0  0  0  0  0  0  0  0
   -5.3080   24.9090  -31.5420 O   0  0  0  0  0  0  0  0  0  0  0  0
   -9.5996   22.0536  -30.6049 H   0  0  0  0  0  0  0  0  0  0  0  0
   -9.1828   22.8756  -32.1467 H   0  0  0  0  0  0  0  0  0  0  0  0
   -9.6149   21.1320  -32.1467 H   0  0  0  0  0  0  0  0  0  0  0  0
   -7.4255   21.5637  -30.3029 H   0  0  0  0  0  0  0  0  0  0  0  0
   -7.4756   20.5776  -31.8269 H   0  0  0  0  0  0  0  0  0  0  0  0
   -6.9565   22.6076  -33.1407 H   0  0  0  0  0  0  0  0  0  0  0  0
   -6.8342   23.5446  -31.5918 H   0  0  0  0  0  0  0  0  0  0  0  0
   -5.0039   21.9910  -34.0075 H   0  0  0  0  0  0  0  0  0  0  0  0
   -3.5215   21.7864  -32.9836 H   0  0  0  0  0  0  0  0  0  0  0  0
   -3.9255   19.5957  -33.6581 H   0  0  0  0  0  0  0  0  0  0  0  0
   -4.7978   19.6723  -32.0754 H   0  0  0  0  0  0  0  0  0  0  0  0
   -6.8354   19.4224  -33.0417 H   0  0  0  0  0  0  0  0  0  0  0  0
   -6.4197   20.4847  -34.4293 H   0  0  0  0  0  0  0  0  0  0  0  0
   -5.9038   18.7641  -34.4293 H   0  0  0  0  0  0  0  0  0  0  0  0
   -3.4097   20.2067  -29.1210 H   0  0  0  0  0  0  0  0  0  0  0  0
   -4.3126   20.1864  -30.6738 H   0  0  0  0  0  0  0  0  0  0  0  0
   -2.5307   20.4138  -30.6738 H   0  0  0  0  0  0  0  0  0  0  0  0
   -2.2750   22.2810  -28.4890 H   0  0  0  0  0  0  0  0  0  0  0  0
   -0.5274   25.0200  -29.2649 H   0  0  0  0  0  0  0  0  0  0  0  0
    0.8860   26.2070  -27.5971 H   0  0  0  0  0  0  0  0  0  0  0  0
   -0.1145   26.6856  -24.0515 H   0  0  0  0  0  0  0  0  0  0  0  0
    1.2532   26.6860  -25.2161 H   0  0  0  0  0  0  0  0  0  0  0  0
    0.0731   28.0403  -25.2161 H   0  0  0  0  0  0  0  0  0  0  0  0
   -2.3830   26.1469  -24.7669 H   0  0  0  0  0  0  0  0  0  0  0  0
   -4.3214   24.9228  -25.2284 H   0  0  0  0  0  0  0  0  0  0  0  0
   -4.8823   25.7231  -26.7356 H   0  0  0  0  0  0  0  0  0  0  0  0
   -4.5144   23.9648  -26.7356 H   0  0  0  0  0  0  0  0  0  0  0  0
  1  2  1  0
  2  3  1  0
  3  4  1  0
  4  5  1  0
  5  6  1  0
  6  7  1  0
  4  8  1  0
  8  9  2  0
  9 10  1  0
  9 11  1  0
 11 12  1  0
 12 13  1  0
 13 14  2  0
 14 15  1  0
 15 16  2  0
 16 17  1  0
 16 18  1  0
 18 19  2  0
 19 20  1  0
 12 21  2  0
 21 22  1  0
 22 23  2  0
 22  8  1  0
 19 13  1  0
  1 24  1  0
  1 25  1  0
  1 26  1  0
  2 27  1  0
  2 28  1  0
  3 29  1  0
  3 30  1  0
  5 31  1  0
  5 32  1  0
  6 33  1  0
  6 34  1  0
  7 35  1  0
  7 36  1  0
  7 37  1  0
 10 38  1  0
 10 39  1  0
 10 40  1  0
 11 41  1  0
 14 42  1  0
 15 43  1  0
 17 44  1  0
 17 45  1  0
 17 46  1  0
 18 47  1  0
 20 48  1  0
 20 49  1  0
 20 50  1  0
M  END
>  <UniqueID>  (36) 
32

>  <SMILES>  (36) 
CCCN(CCC)c1c(C)[nH]c(-c2ccc(C)cc2C)nc1=O

>  <Energy>  (36) 
52.290172424058426

>  <Genealogy>  (36) 
CCCN(CCC)c1c(C)[nH]c(-c2ccc(C)cc2C)nc1=O (3D coordinates assigned)
CCCN(CCC)c1c(C)[nH]c(-c2ccc(C)cc2C)nc1=O (optimized conformer: 52.290172424058426 kcal/mol)

>  <smiles>  (36) 
CCCN(CCC)c1c(C)[nH]c(-c2ccc(C)cc2C)nc1=O

>  <score_type>  (36) 
oracle

>  <origin>  (36) 
adgpu

>  <m_score__min__energy>  (36) 
-7.1799999999999997

>  <m_primary>  (36) 
energy

$$$$
36:0
     RDKit          3D

 31 33  0  0  0  0  0  0  0  0999 V2000
   -3.2140   23.0780  -28.0930 O   0  0  0  0  0  0  0  0  0  0  0  0
   -2.9780   24.2890  -28.3540 C   0  0  0  0  0  0  0  0  0  0  0  0
   -3.5410   24.8890  -29.5310 N   0  0  0  0  0  0  0  0  0  0  0  0
   -4.7020   24.3820  -30.2120 C   0  0  0  0  0  0  0  0  0  0  0  0
   -5.9460   25.0260  -30.1120 C   0  0  0  0  0  0  0  0  0  0  0  0
   -7.0540   24.5280  -30.8010 C   0  0  0  0  0  0  0  0  0  0  0  0
   -6.9290   23.3920  -31.6050 C   0  0  0  0  0  0  0  0  0  0  0  0
   -5.6900   22.7420  -31.7370 C   0  0  0  0  0  0  0  0  0  0  0  0
   -5.5760   21.5770  -32.5790 N   0  0  0  0  0  0  0  0  0  0  0  0
   -4.4670   20.9800  -33.0580 C   0  0  0  0  0  0  0  0  0  0  0  0
   -4.8100   19.9150  -33.8060 N   0  0  0  0  0  0  0  0  0  0  0  0
   -6.1350   19.8760  -33.7730 N   0  0  0  0  0  0  0  0  0  0  0  0
   -6.5970   20.8740  -33.0370 N   0  0  0  0  0  0  0  0  0  0  0  0
   -4.5780   23.2530  -31.0380 C   0  0  0  0  0  0  0  0  0  0  0  0
   -2.0600   25.0540  -27.4770 C   0  0  0  0  0  0  0  0  0  0  0  0
   -2.0430   24.7910  -26.0940 C   0  0  0  0  0  0  0  0  0  0  0  0
   -1.1810   25.4930  -25.2480 C   0  0  0  0  0  0  0  0  0  0  0  0
   -0.3320   26.4700  -25.7680 C   0  0  0  0  0  0  0  0  0  0  0  0
   -0.3490   26.7540  -27.1350 C   0  0  0  0  0  0  0  0  0  0  0  0
   -1.2130   26.0610  -27.9900 C   0  0  0  0  0  0  0  0  0  0  0  0
   -1.2360   26.4010  -29.3390 O   0  0  0  0  0  0  0  0  0  0  0  0
   -3.0120   25.6730  -29.9780 H   0  0  0  0  0  0  0  0  0  0  0  0
   -6.0481   25.9264  -29.4884 H   0  0  0  0  0  0  0  0  0  0  0  0
   -8.0278   25.0314  -30.7105 H   0  0  0  0  0  0  0  0  0  0  0  0
   -7.8083   23.0030  -32.1394 H   0  0  0  0  0  0  0  0  0  0  0  0
   -3.4363   21.3130  -32.8665 H   0  0  0  0  0  0  0  0  0  0  0  0
   -3.5996   22.7608  -31.1408 H   0  0  0  0  0  0  0  0  0  0  0  0
   -2.7142   24.0263  -25.6760 H   0  0  0  0  0  0  0  0  0  0  0  0
   -1.1717   25.2749  -24.1699 H   0  0  0  0  0  0  0  0  0  0  0  0
    0.3509   27.0167  -25.1011 H   0  0  0  0  0  0  0  0  0  0  0  0
    0.3202   27.5264  -27.5418 H   0  0  0  0  0  0  0  0  0  0  0  0
  1  2  2  0
  2  3  1  0
  3  4  1  0
  4  5  2  0
  5  6  1  0
  6  7  2  0
  7  8  1  0
  8  9  1  0
  9 10  1  0
 10 11  2  0
 11 12  1  0
 12 13  2  0
  8 14  2  0
  2 15  1  0
 15 16  2  0
 16 17  1  0
 17 18  2  0
 18 19  1  0
 19 20  2  0
 20 21  1  0
 14  4  1  0
 20 15  1  0
 13  9  1  0
  3 22  1  0
  5 23  1  0
  6 24  1  0
  7 25  1  0
 10 26  1  0
 14 27  1  0
 16 28  1  0
 17 29  1  0
 18 30  1  0
 19 31  1  0
M  CHG  1  21  -1
M  END
>  <UniqueID>  (37) 
33

>  <SMILES>  (37) 
O=C(Nc1cccc(-n2cnnn2)c1)c1ccccc1[O-]

>  <Energy>  (37) 
83.2350677081016

>  <Genealogy>  (37) 
O=C(Nc1cccc(-n2cnnn2)c1)c1ccccc1[O-] (protonated)
O=C(Nc1cccc(-n2cnnn2)c1)c1ccccc1[O-] (3D coordinates assigned)
O=C(Nc1cccc(-n2cnnn2)c1)c1ccccc1[O-] (optimized conformer: 83.2350677081016 kcal/mol)

>  <smiles>  (37) 
O=C(Nc1cccc(-n2cnnn2)c1)c1ccccc1O

>  <score_type>  (37) 
oracle

>  <origin>  (37) 
adgpu

>  <m_score__min__energy>  (37) 
-10.65

>  <m_primary>  (37) 
energy

$$$$
37:0
     RDKit          3D

 30 32  0  0  0  0  0  0  0  0999 V2000
   -2.0411   23.2550  -30.6946 H   0  0  0  0  0  0  0  0  0  0  0  0
   -2.2770   23.7500  -29.7410 C   0  0  0  0  0  0  0  0  0  0  0  0
   -3.5050   24.0820  -29.4790 N   0  0  0  0  0  0  0  0  0  0  0  0
   -4.6010   23.8420  -30.3670 C   0  0  0  0  0  0  0  0  0  0  0  0
   -5.0450   24.7290  -31.2780 N   0  0  0  0  0  0  0  0  0  0  0  0
   -6.0560   24.1470  -31.8970 N   0  0  0  0  0  0  0  0  0  0  0  0
   -6.2010   22.9250  -31.3460 C   0  0  0  0  0  0  0  0  0  0  0  0
   -7.2320   21.9500  -31.7630 C   0  0  0  0  0  0  0  0  0  0  0  0
   -6.8620   20.7280  -32.3530 C   0  0  0  0  0  0  0  0  0  0  0  0
   -5.7980   20.4937  -32.5046 H   0  0  0  0  0  0  0  0  0  0  0  0
   -7.8400   19.8090  -32.7480 C   0  0  0  0  0  0  0  0  0  0  0  0
   -7.5434   18.8560  -33.2104 H   0  0  0  0  0  0  0  0  0  0  0  0
   -9.1930   20.1000  -32.5560 C   0  0  0  0  0  0  0  0  0  0  0  0
   -9.9606   19.3752  -32.8649 H   0  0  0  0  0  0  0  0  0  0  0  0
   -9.5710   21.3110  -31.9720 C   0  0  0  0  0  0  0  0  0  0  0  0
  -10.6366   21.5396  -31.8231 H   0  0  0  0  0  0  0  0  0  0  0  0
   -8.5970   22.2340  -31.5760 C   0  0  0  0  0  0  0  0  0  0  0  0
   -8.9000   23.1863  -31.1163 H   0  0  0  0  0  0  0  0  0  0  0  0
   -5.2960   22.6910  -30.3720 N   0  0  0  0  0  0  0  0  0  0  0  0
   -1.1900   24.0280  -28.7750 C   0  0  0  0  0  0  0  0  0  0  0  0
   -0.4510   22.9760  -28.1970 C   0  0  0  0  0  0  0  0  0  0  0  0
   -0.6815   21.9344  -28.4653 H   0  0  0  0  0  0  0  0  0  0  0  0
    0.5730   23.2480  -27.2850 C   0  0  0  0  0  0  0  0  0  0  0  0
    1.2960   22.2030  -26.7200 O   0  0  0  0  0  0  0  0  0  0  0  0
    0.8720   24.5680  -26.9390 C   0  0  0  0  0  0  0  0  0  0  0  0
    1.6777   24.7797  -26.2206 H   0  0  0  0  0  0  0  0  0  0  0  0
    0.1470   25.6190  -27.5060 C   0  0  0  0  0  0  0  0  0  0  0  0
    0.3845   26.6577  -27.2327 H   0  0  0  0  0  0  0  0  0  0  0  0
   -0.8800   25.3570  -28.4200 C   0  0  0  0  0  0  0  0  0  0  0  0
   -1.5850   26.4240  -28.9670 O   0  0  0  0  0  0  0  0  0  0  0  0
  1  2  1  0
  2  3  2  0
  3  4  1  0
  4  5  2  0
  5  6  1  0
  6  7  1  0
  7  8  1  0
  8  9  2  0
  9 10  1  0
  9 11  1  0
 11 12  1  0
 11 13  2  0
 13 14  1  0
 13 15  1  0
 15 16  1  0
 15 17  2  0
 17 18  1  0
  7 19  2  0
  2 20  1  0
 20 21  2  0
 21 22  1  0
 21 23  1  0
 23 24  1  0
 23 25  2  0
 25 26  1  0
 25 27  1  0
 27 28  1  0
 27 29  2  0
 29 30  1  0
 19  4  1  0
 29 20  1  0
 17  8  1  0
M  CHG  3   6  -1  24  -1  30  -1
M  END
>  <UniqueID>  (38) 
34

>  <SMILES>  (38) 
[O-]c1ccc([O-])c(/C=N/c2n[n-]c(-c3ccccc3)n2)c1

>  <Energy>  (38) 
66.51195284998491

>  <Genealogy>  (38) 
[O-]c1ccc([O-])c(C=Nc2n[n-]c(-c3ccccc3)n2)c1 (protonated)
[O-]c1ccc([O-])c(/C=N/c2n[n-]c(-c3ccccc3)n2)c1 (cis-trans isomerization)
[O-]c1ccc([O-])c(/C=N/c2n[n-]c(-c3ccccc3)n2)c1 (3D coordinates assigned)
[O-]c1ccc([O-])c(/C=N/c2n[n-]c(-c3ccccc3)n2)c1 (optimized conformer: 66.51195284998491 kcal/mol)

>  <smiles>  (38) 
Oc1ccc(O)c(C=Nc2n[nH]c(-c3ccccc3)n2)c1

>  <score_type>  (38) 
oracle

>  <origin>  (38) 
adgpu

>  <m_score__min__energy>  (38) 
-11.220000000000001

>  <m_primary>  (38) 
energy

$$$$
38:0
     RDKit          3D

 29 30  0  0  0  0  0  0  0  0999 V2000
   -2.5790   20.4500  -27.2810 C   0  0  0  0  0  0  0  0  0  0  0  0
   -2.3090   21.8090  -27.8560 C   0  0  0  0  0  0  0  0  0  0  0  0
   -1.3150   22.6260  -27.3010 C   0  0  0  0  0  0  0  0  0  0  0  0
   -1.0880   23.9040  -27.8140 C   0  0  0  0  0  0  0  0  0  0  0  0
   -1.8650   24.3900  -28.8720 C   0  0  0  0  0  0  0  0  0  0  0  0
   -1.6280   25.6750  -29.3490 O   0  0  0  0  0  0  0  0  0  0  0  0
   -2.8860   23.5900  -29.4230 C   0  0  0  0  0  0  0  0  0  0  0  0
   -3.7280   24.0900  -30.5380 C   0  0  0  0  0  0  0  0  0  0  0  0
   -3.9910   25.3190  -30.6140 O   0  0  0  0  0  0  0  0  0  0  0  0
   -4.2030   23.2220  -31.5780 N   0  0  0  0  0  0  0  0  0  0  0  0
   -5.5350   22.7010  -31.7080 C   0  0  0  0  0  0  0  0  0  0  0  0
   -5.7590   21.3390  -31.9810 C   0  0  0  0  0  0  0  0  0  0  0  0
   -7.0630   20.8470  -32.1000 C   0  0  0  0  0  0  0  0  0  0  0  0
   -7.3520   19.0010  -32.4940 Br  0  0  0  0  0  0  0  0  0  0  0  0
   -8.1510   21.7050  -31.9280 C   0  0  0  0  0  0  0  0  0  0  0  0
   -7.9390   23.0520  -31.6280 C   0  0  0  0  0  0  0  0  0  0  0  0
   -6.6390   23.5560  -31.5120 C   0  0  0  0  0  0  0  0  0  0  0  0
   -6.4660   24.9080  -31.2120 O   0  0  0  0  0  0  0  0  0  0  0  0
   -3.0960   22.2970  -28.9100 C   0  0  0  0  0  0  0  0  0  0  0  0
   -2.5675   20.5077  -26.1826 H   0  0  0  0  0  0  0  0  0  0  0  0
   -3.5647   20.0979  -27.6194 H   0  0  0  0  0  0  0  0  0  0  0  0
   -1.8028   19.7479  -27.6194 H   0  0  0  0  0  0  0  0  0  0  0  0
   -0.7114   22.2588  -26.4579 H   0  0  0  0  0  0  0  0  0  0  0  0
   -0.2941   24.5328  -27.3845 H   0  0  0  0  0  0  0  0  0  0  0  0
   -4.9040   20.6574  -32.1015 H   0  0  0  0  0  0  0  0  0  0  0  0
   -9.1762   21.3193  -32.0290 H   0  0  0  0  0  0  0  0  0  0  0  0
   -8.7996   23.7213  -31.4819 H   0  0  0  0  0  0  0  0  0  0  0  0
   -5.5490   25.3310  -31.1240 H   0  0  0  0  0  0  0  0  0  0  0  0
   -3.8851   21.6623  -29.3395 H   0  0  0  0  0  0  0  0  0  0  0  0
  1  2  1  0
  2  3  2  0
  3  4  1  0
  4  5  2  0
  5  6  1  0
  5  7  1  0
  7  8  1  0
  8  9  2  0
  8 10  1  0
 10 11  1  0
 11 12  2  0
 12 13  1  0
 13 14  1  0
 13 15  2  0
 15 16  1  0
 16 17  2  0
 17 18  1  0
  7 19  2  0
 19  2  1  0
 17 11  1  0
  1 20  1  0
  1 21  1  0
  1 22  1  0
  3 23  1  0
  4 24  1  0
 12 25  1  0
 15 26  1  0
 16 27  1  0
 18 28  1  0
 19 29  1  0
M  CHG  2   6  -1  10  -1
M  END
>  <UniqueID>  (39) 
35

>  <SMILES>  (39) 
Cc1ccc([O-])c(C(=O)[N-]c2cc(Br)ccc2O)c1

>  <Energy>  (39) 
36.76413354711397

>  <Genealogy>  (39) 
Cc1ccc([O-])c(C(=O)[N-]c2cc(Br)ccc2O)c1 (protonated)
Cc1ccc([O-])c(C(=O)[N-]c2cc(Br)ccc2O)c1 (3D coordinates assigned)
Cc1ccc([O-])c(C(=O)[N-]c2cc(Br)ccc2O)c1 (optimized conformer: 36.76413354711397 kcal/mol)

>  <smiles>  (39) 
Cc1ccc(O)c(C(=O)Nc2cc(Br)ccc2O)c1

>  <score_type>  (39) 
oracle

>  <origin>  (39) 
adgpu

>  <m_score__min__energy>  (39) 
-11.359999999999999

>  <m_primary>  (39) 
energy

$$$$
39:0
     RDKit          3D

 45 48  0  0  0  0  0  0  0  0999 V2000
    4.9540   25.1620  -23.8120 C   0  0  0  0  0  0  0  0  0  0  0  0
    4.7380   24.5650  -25.0860 O   0  0  0  0  0  0  0  0  0  0  0  0
    3.5040   24.5490  -25.7540 C   0  0  0  0  0  0  0  0  0  0  0  0
    2.2750   24.5090  -25.0690 C   0  0  0  0  0  0  0  0  0  0  0  0
    1.0710   24.4930  -25.7810 C   0  0  0  0  0  0  0  0  0  0  0  0
    1.0770   24.5170  -27.1830 C   0  0  0  0  0  0  0  0  0  0  0  0
   -0.1650   24.5020  -27.9180 N   0  0  0  0  0  0  0  0  0  0  0  0
   -0.8070   25.6800  -28.2030 C   0  0  0  0  0  0  0  0  0  0  0  0
   -0.3180   26.7850  -27.8400 O   0  0  0  0  0  0  0  0  0  0  0  0
   -1.9750   25.6760  -28.8930 N   0  0  0  0  0  0  0  0  0  0  0  0
   -2.5400   24.5210  -29.3210 C   0  0  0  0  0  0  0  0  0  0  0  0
   -3.7460   24.5550  -30.0310 C   0  0  0  0  0  0  0  0  0  0  0  0
   -4.3410   23.3630  -30.4840 C   0  0  0  0  0  0  0  0  0  0  0  0
   -5.6210   23.3810  -31.2330 C   0  0  0  0  0  0  0  0  0  0  0  0
   -5.7500   24.1640  -32.2150 O   0  0  0  0  0  0  0  0  0  0  0  0
   -6.7190   22.5350  -30.8520 N   0  0  0  0  0  0  0  0  0  0  0  0
   -7.9520   22.4610  -31.6300 C   0  0  0  0  0  0  0  0  0  0  0  0
   -8.2400   21.0440  -32.0110 C   0  0  0  0  0  0  0  0  0  0  0  0
   -7.3350   20.0030  -31.9820 C   0  0  0  0  0  0  0  0  0  0  0  0
   -8.0410   18.8900  -32.3880 C   0  0  0  0  0  0  0  0  0  0  0  0
   -9.3280   19.3210  -32.6360 C   0  0  0  0  0  0  0  0  0  0  0  0
   -9.4170   20.6110  -32.4000 O   0  0  0  0  0  0  0  0  0  0  0  0
   -3.7150   22.1370  -30.1950 C   0  0  0  0  0  0  0  0  0  0  0  0
   -2.5120   22.1000  -29.4880 C   0  0  0  0  0  0  0  0  0  0  0  0
   -1.9130   23.2930  -29.0480 C   0  0  0  0  0  0  0  0  0  0  0  0
   -0.7050   23.3090  -28.3300 C   0  0  0  0  0  0  0  0  0  0  0  0
   -0.1230   22.2200  -28.0530 O   0  0  0  0  0  0  0  0  0  0  0  0
    2.3030   24.5580  -27.8660 C   0  0  0  0  0  0  0  0  0  0  0  0
    3.5050   24.5730  -27.1550 C   0  0  0  0  0  0  0  0  0  0  0  0
    4.6938   24.4429  -23.0213 H   0  0  0  0  0  0  0  0  0  0  0  0
    6.0121   25.4466  -23.7151 H   0  0  0  0  0  0  0  0  0  0  0  0
    4.3230   26.0578  -23.7151 H   0  0  0  0  0  0  0  0  0  0  0  0
    2.2613   24.4902  -23.9692 H   0  0  0  0  0  0  0  0  0  0  0  0
    0.1147   24.4614  -25.2383 H   0  0  0  0  0  0  0  0  0  0  0  0
   -4.2319   25.5203  -30.2362 H   0  0  0  0  0  0  0  0  0  0  0  0
   -6.6750   21.9920  -29.9600 H   0  0  0  0  0  0  0  0  0  0  0  0
   -8.7854   22.8515  -31.0275 H   0  0  0  0  0  0  0  0  0  0  0  0
   -7.8351   23.0611  -32.5445 H   0  0  0  0  0  0  0  0  0  0  0  0
   -6.2740   20.0507  -31.6955 H   0  0  0  0  0  0  0  0  0  0  0  0
   -7.6556   17.8651  -32.4930 H   0  0  0  0  0  0  0  0  0  0  0  0
  -10.1547   18.6817  -32.9793 H   0  0  0  0  0  0  0  0  0  0  0  0
   -4.1785   21.1972  -30.5297 H   0  0  0  0  0  0  0  0  0  0  0  0
   -2.0312   21.1340  -29.2745 H   0  0  0  0  0  0  0  0  0  0  0  0
    2.3169   24.5784  -28.9657 H   0  0  0  0  0  0  0  0  0  0  0  0
    4.4604   24.6039  -27.6993 H   0  0  0  0  0  0  0  0  0  0  0  0
  1  2  1  0
  2  3  1  0
  3  4  2  0
  4  5  1  0
  5  6  2  0
  6  7  1  0
  7  8  1  0
  8  9  2  0
  8 10  1  0
 10 11  1  0
 11 12  2  0
 12 13  1  0
 13 14  1  0
 14 15  2  0
 14 16  1  0
 16 17  1  0
 17 18  1  0
 18 19  2  0
 19 20  1  0
 20 21  2  0
 21 22  1  0
 13 23  2  0
 23 24  1  0
 24 25  2  0
 25 26  1  0
 26 27  2  0
  6 28  1  0
 28 29  2  0
 29  3  1  0
 26  7  1  0
 25 11  1  0
 22 18  1  0
  1 30  1  0
  1 31  1  0
  1 32  1  0
  4 33  1  0
  5 34  1  0
 12 35  1  0
 16 36  1  0
 17 37  1  0
 17 38  1  0
 19 39  1  0
 20 40  1  0
 21 41  1  0
 23 42  1  0
 24 43  1  0
 28 44  1  0
 29 45  1  0
M  CHG  1  10  -1
M  END
>  <UniqueID>  (40) 
36

>  <SMILES>  (40) 
COc1ccc(-n2c(=O)[n-]c3cc(C(=O)NCc4ccco4)ccc3c2=O)cc1

>  <Energy>  (40) 
89.09983471868615

>  <Genealogy>  (40) 
COc1ccc(-n2c(=O)[n-]c3cc(C(=O)NCc4ccco4)ccc3c2=O)cc1 (protonated)
COc1ccc(-n2c(=O)[n-]c3cc(C(=O)NCc4ccco4)ccc3c2=O)cc1 (3D coordinates assigned)
COc1ccc(-n2c(=O)[n-]c3cc(C(=O)NCc4ccco4)ccc3c2=O)cc1 (optimized conformer: 89.09983471868615 kcal/mol)

>  <smiles>  (40) 
COc1ccc(-n2c(=O)[nH]c3cc(C(=O)NCc4ccco4)ccc3c2=O)cc1

>  <score_type>  (40) 
oracle

>  <origin>  (40) 
adgpu

>  <m_score__min__energy>  (40) 
-8.3499999999999996

>  <m_primary>  (40) 
energy

$$$$
40:0
     RDKit          3D

 37 39  0  0  0  0  0  0  0  0999 V2000
   -9.0970   12.3010  -34.8880 H   0  0  0  0  0  0  0  0  0  0  0  0
   -8.6060   12.9380  -34.2740 O   0  0  0  0  0  0  0  0  0  0  0  0
   -7.2300   13.1330  -34.3740 C   0  0  0  0  0  0  0  0  0  0  0  0
   -6.3990   12.0410  -34.6360 C   0  0  0  0  0  0  0  0  0  0  0  0
   -6.8324   11.0365  -34.7504 H   0  0  0  0  0  0  0  0  0  0  0  0
   -5.0190   12.2220  -34.7530 C   0  0  0  0  0  0  0  0  0  0  0  0
   -4.3682   11.3609  -34.9651 H   0  0  0  0  0  0  0  0  0  0  0  0
   -4.4640   13.4950  -34.6010 C   0  0  0  0  0  0  0  0  0  0  0  0
   -3.3773   13.6318  -34.7030 H   0  0  0  0  0  0  0  0  0  0  0  0
   -5.2820   14.6020  -34.3190 C   0  0  0  0  0  0  0  0  0  0  0  0
   -4.6470   15.9360  -34.1760 C   0  0  0  0  0  0  0  0  0  0  0  0
   -5.2687   16.8277  -34.3444 H   0  0  0  0  0  0  0  0  0  0  0  0
   -3.3580   16.1150  -33.8530 C   0  0  0  0  0  0  0  0  0  0  0  0
   -2.7328   15.2275  -33.6756 H   0  0  0  0  0  0  0  0  0  0  0  0
   -2.7410   17.4480  -33.7250 C   0  0  0  0  0  0  0  0  0  0  0  0
   -1.7740   17.8860  -34.5540 N   0  0  0  0  0  0  0  0  0  0  0  0
   -1.4510   19.0850  -34.1640 O   0  0  0  0  0  0  0  0  0  0  0  0
   -2.1580   19.4540  -33.1210 C   0  0  0  0  0  0  0  0  0  0  0  0
   -2.0030   20.7640  -32.4640 C   0  0  0  0  0  0  0  0  0  0  0  0
   -1.5725   21.5949  -33.0421 H   0  0  0  0  0  0  0  0  0  0  0  0
   -2.3640   20.9870  -31.1920 C   0  0  0  0  0  0  0  0  0  0  0  0
   -2.7856   20.1494  -30.6170 H   0  0  0  0  0  0  0  0  0  0  0  0
   -2.2260   22.3020  -30.5170 C   0  0  0  0  0  0  0  0  0  0  0  0
   -1.2040   22.5710  -29.5830 C   0  0  0  0  0  0  0  0  0  0  0  0
   -0.4656   21.7927  -29.3402 H   0  0  0  0  0  0  0  0  0  0  0  0
   -1.1250   23.8230  -28.9640 C   0  0  0  0  0  0  0  0  0  0  0  0
   -0.3202   24.0274  -28.2425 H   0  0  0  0  0  0  0  0  0  0  0  0
   -2.0630   24.8140  -29.2580 C   0  0  0  0  0  0  0  0  0  0  0  0
   -1.9750   26.0550  -28.6390 O   0  0  0  0  0  0  0  0  0  0  0  0
   -3.0910   24.5530  -30.1700 C   0  0  0  0  0  0  0  0  0  0  0  0
   -4.0310   25.5340  -30.4630 O   0  0  0  0  0  0  0  0  0  0  0  0
   -3.1750   23.3020  -30.7910 C   0  0  0  0  0  0  0  0  0  0  0  0
   -3.9911   23.0992  -31.5001 H   0  0  0  0  0  0  0  0  0  0  0  0
   -3.0190   18.4260  -32.7860 C   0  0  0  0  0  0  0  0  0  0  0  0
   -3.7521   18.3930  -31.9666 H   0  0  0  0  0  0  0  0  0  0  0  0
   -6.6750   14.4120  -34.2190 C   0  0  0  0  0  0  0  0  0  0  0  0
   -7.3310   15.2719  -34.0182 H   0  0  0  0  0  0  0  0  0  0  0  0
  1  2  1  0
  2  3  1  0
  3  4  2  0
  4  5  1  0
  4  6  1  0
  6  7  1  0
  6  8  2  0
  8  9  1  0
  8 10  1  0
 10 11  1  0
 11 12  1  0
 11 13  2  0
 13 14  1  0
 13 15  1  0
 15 16  2  0
 16 17  1  0
 17 18  1  0
 18 19  1  0
 19 20  1  0
 19 21  2  0
 21 22  1  0
 21 23  1  0
 23 24  2  0
 24 25  1  0
 24 26  1  0
 26 27  1  0
 26 28  2  0
 28 29  1  0
 28 30  1  0
 30 31  1  0
 30 32  2  0
 32 33  1  0
 18 34  2  0
 34 35  1  0
 10 36  2  0
 36 37  1  0
 36  3  1  0
 34 15  1  0
 32 23  1  0
M  CHG  2  29  -1  31  -1
M  END
>  <UniqueID>  (41) 
37

>  <SMILES>  (41) 
[O-]c1ccc(/C=C/c2cc(/C=C/c3cccc(O)c3)no2)cc1[O-]

>  <Energy>  (41) 
74.39577979749917

>  <Genealogy>  (41) 
[O-]c1ccc(C=Cc2cc(C=Cc3cccc(O)c3)no2)cc1[O-] (protonated)
[O-]c1ccc(/C=C/c2cc(/C=C/c3cccc(O)c3)no2)cc1[O-] (cis-trans isomerization)
[O-]c1ccc(/C=C/c2cc(/C=C/c3cccc(O)c3)no2)cc1[O-] (3D coordinates assigned)
[O-]c1ccc(/C=C/c2cc(/C=C/c3cccc(O)c3)no2)cc1[O-] (optimized conformer: 74.39577979749917 kcal/mol)

>  <smiles>  (41) 
Oc1cccc(C=Cc2cc(C=Cc3ccc(O)c(O)c3)on2)c1

>  <score_type>  (41) 
oracle

>  <origin>  (41) 
adgpu

>  <m_score__min__energy>  (41) 
-11.92

>  <m_primary>  (41) 
energy

$$$$
41:0
     RDKit          3D

 62 65  0  0  0  0  0  0  0  0999 V2000
   -4.0340   17.3760  -34.9750 C   0  0  0  0  0  0  0  0  0  0  0  0
   -5.6150   17.6380  -34.1050 S   0  0  0  0  0  0  0  0  0  0  0  0
   -5.0660   19.1490  -33.3110 C   0  0  0  0  0  0  0  0  0  0  0  0
   -5.9980   20.1270  -32.9540 C   0  0  0  0  0  0  0  0  0  0  0  0
   -5.5680   21.2960  -32.3180 C   0  0  0  0  0  0  0  0  0  0  0  0
   -4.1950   21.5210  -32.0830 C   0  0  0  0  0  0  0  0  0  0  0  0
   -3.7440   22.7140  -31.4910 O   0  0  0  0  0  0  0  0  0  0  0  0
   -3.3770   22.8740  -30.1440 C   0  0  0  0  0  0  0  0  0  0  0  0
   -3.1790   21.7730  -29.2950 C   0  0  0  0  0  0  0  0  0  0  0  0
   -2.7880   21.9500  -27.9600 C   0  0  0  0  0  0  0  0  0  0  0  0
   -2.5460   20.7620  -27.0950 C   0  0  0  0  0  0  0  0  0  0  0  0
   -3.1230   19.5000  -27.4400 N   0  0  0  0  0  0  0  0  0  0  0  0
   -1.7650   20.8420  -26.0560 N   0  0  0  0  0  0  0  0  0  0  0  0
   -2.6180   23.2550  -27.4700 C   0  0  0  0  0  0  0  0  0  0  0  0
   -2.8630   24.3600  -28.2940 C   0  0  0  0  0  0  0  0  0  0  0  0
   -3.2490   24.1730  -29.6250 C   0  0  0  0  0  0  0  0  0  0  0  0
   -3.4850   25.2700  -30.4430 O   0  0  0  0  0  0  0  0  0  0  0  0
   -3.2660   20.5180  -32.4120 C   0  0  0  0  0  0  0  0  0  0  0  0
   -1.5310   20.7910  -32.2120 S   0  0  0  0  0  0  0  0  0  0  0  0
   -0.7550   20.1040  -33.3010 O   0  0  0  0  0  0  0  0  0  0  0  0
   -1.2430   22.2660  -32.3010 O   0  0  0  0  0  0  0  0  0  0  0  0
   -1.0450   20.2120  -30.6530 N   0  0  0  0  0  0  0  0  0  0  0  0
   -0.3830   21.0450  -29.7090 C   0  0  0  0  0  0  0  0  0  0  0  0
   -0.3620   22.4290  -29.9030 C   0  0  0  0  0  0  0  0  0  0  0  0
    0.2260   23.2650  -28.9550 C   0  0  0  0  0  0  0  0  0  0  0  0
    0.8210   22.7330  -27.8060 C   0  0  0  0  0  0  0  0  0  0  0  0
    1.3970   23.6400  -26.9030 O   0  0  0  0  0  0  0  0  0  0  0  0
    0.7000   24.5560  -26.1040 C   0  0  0  0  0  0  0  0  0  0  0  0
    0.1700   24.2000  -24.8490 C   0  0  0  0  0  0  0  0  0  0  0  0
   -0.5650   25.1380  -24.1090 C   0  0  0  0  0  0  0  0  0  0  0  0
   -0.7930   26.4180  -24.6270 C   0  0  0  0  0  0  0  0  0  0  0  0
   -0.2890   26.7670  -25.8840 C   0  0  0  0  0  0  0  0  0  0  0  0
    0.4510   25.8360  -26.6230 C   0  0  0  0  0  0  0  0  0  0  0  0
    0.8080   21.3390  -27.6080 C   0  0  0  0  0  0  0  0  0  0  0  0
    0.1840   20.4930  -28.5410 C   0  0  0  0  0  0  0  0  0  0  0  0
    0.1340   18.7470  -28.2500 S   0  0  0  0  0  0  0  0  0  0  0  0
   -0.8370   18.4040  -26.8510 N   0  0  0  0  0  0  0  0  0  0  0  0
   -0.4620   18.0540  -29.4450 O   0  0  0  0  0  0  0  0  0  0  0  0
    1.5220   18.2230  -28.0030 O   0  0  0  0  0  0  0  0  0  0  0  0
   -3.7060   19.3350  -33.0220 C   0  0  0  0  0  0  0  0  0  0  0  0
   -3.2279   17.2424  -34.2385 H   0  0  0  0  0  0  0  0  0  0  0  0
   -4.1070   16.4777  -35.6057 H   0  0  0  0  0  0  0  0  0  0  0  0
   -3.8133   18.2498  -35.6057 H   0  0  0  0  0  0  0  0  0  0  0  0
   -7.0658   19.9780  -33.1723 H   0  0  0  0  0  0  0  0  0  0  0  0
   -6.3062   22.0462  -31.9983 H   0  0  0  0  0  0  0  0  0  0  0  0
   -3.3331   20.7555  -29.6834 H   0  0  0  0  0  0  0  0  0  0  0  0
   -2.7370   18.6050  -27.0390 H   0  0  0  0  0  0  0  0  0  0  0  0
   -3.8870   19.4330  -28.1490 H   0  0  0  0  0  0  0  0  0  0  0  0
   -1.2830   21.7310  -25.7980 H   0  0  0  0  0  0  0  0  0  0  0  0
   -1.5770   19.9990  -25.4670 H   0  0  0  0  0  0  0  0  0  0  0  0
   -2.2901   23.4101  -26.4315 H   0  0  0  0  0  0  0  0  0  0  0  0
   -2.7515   25.3783  -27.8933 H   0  0  0  0  0  0  0  0  0  0  0  0
   -0.8121   22.8611  -30.8090 H   0  0  0  0  0  0  0  0  0  0  0  0
    0.2221   24.3537  -29.1119 H   0  0  0  0  0  0  0  0  0  0  0  0
    0.3321   23.1880  -24.4495 H   0  0  0  0  0  0  0  0  0  0  0  0
   -0.9628   24.8671  -23.1199 H   0  0  0  0  0  0  0  0  0  0  0  0
   -1.3699   27.1512  -24.0442 H   0  0  0  0  0  0  0  0  0  0  0  0
   -0.4737   27.7718  -26.2917 H   0  0  0  0  0  0  0  0  0  0  0  0
    0.8391   26.1092  -27.6153 H   0  0  0  0  0  0  0  0  0  0  0  0
    1.2894   20.9092  -26.7172 H   0  0  0  0  0  0  0  0  0  0  0  0
   -0.4920   17.5060  -26.4490 H   0  0  0  0  0  0  0  0  0  0  0  0
   -2.9805   18.5480  -33.2755 H   0  0  0  0  0  0  0  0  0  0  0  0
  1  2  1  0
  2  3  1  0
  3  4  2  0
  4  5  1  0
  5  6  2  0
  6  7  1  0
  7  8  1  0
  8  9  2  0
  9 10  1  0
 10 11  1  0
 11 12  1  0
 11 13  2  0
 10 14  2  0
 14 15  1  0
 15 16  2  0
 16 17  1  0
  6 18  1  0
 18 19  1  0
 19 20  2  0
 19 21  2  0
 19 22  1  0
 22 23  1  0
 23 24  2  0
 24 25  1  0
 25 26  2  0
 26 27  1  0
 27 28  1  0
 28 29  2  0
 29 30  1  0
 30 31  2  0
 31 32  1  0
 32 33  2  0
 26 34  1  0
 34 35  2  0
 35 36  1  0
 36 37  1  0
 36 38  2  0
 36 39  2  0
 18 40  2  0
 40  3  1  0
 16  8  1  0
 35 23  1  0
 33 28  1  0
  1 41  1  0
  1 42  1  0
  1 43  1  0
  4 44  1  0
  5 45  1  0
  9 46  1  0
 12 47  1  0
 12 48  1  0
 13 49  1  0
 13 50  1  0
 14 51  1  0
 15 52  1  0
 24 53  1  0
 25 54  1  0
 29 55  1  0
 30 56  1  0
 31 57  1  0
 32 58  1  0
 33 59  1  0
 34 60  1  0
 37 61  1  0
 40 62  1  0
M  CHG  4  13   1  17  -1  22  -1  37  -1
M  END
>  <UniqueID>  (42) 
38

>  <SMILES>  (42) 
CSc1ccc(Oc2cc(C(N)=[NH2+])ccc2[O-])c(S(=O)(=O)[N-]c2ccc(Oc3ccccc3)cc2S([NH-])(=O)=O)c1

>  <Energy>  (42) 
81.85457555574038

>  <Genealogy>  (42) 
CSc1ccc(Oc2cc(C(N)=[NH2+])ccc2[O-])c(S(=O)(=O)[N-]c2ccc(Oc3ccccc3)cc2S([NH-])(=O)=O)c1 (protonated)
CSc1ccc(Oc2cc(C(N)=[NH2+])ccc2[O-])c(S(=O)(=O)[N-]c2ccc(Oc3ccccc3)cc2S([NH-])(=O)=O)c1 (3D coordinates assigned)
CSc1ccc(Oc2cc(C(N)=[NH2+])ccc2[O-])c(S(=O)(=O)[N-]c2ccc(Oc3ccccc3)cc2S([NH-])(=O)=O)c1 (optimized conformer: 81.85457555574038 kcal/mol)

>  <smiles>  (42) 
CSc1ccc(Oc2cc(C(=N)N)ccc2O)c(S(=O)(=O)Nc2ccc(Oc3ccccc3)cc2S(N)(=O)=O)c1

>  <score_type>  (42) 
oracle

>  <origin>  (42) 
adgpu

>  <m_score__min__energy>  (42) 
-14.210000000000001

>  <m_primary>  (42) 
energy

$$$$
42:0
     RDKit          3D

 46 49  0  0  0  0  0  0  0  0999 V2000
   -0.1490   21.0240  -34.2420 C   0  0  0  0  0  0  0  0  0  0  0  0
   -0.2670   21.1750  -32.8300 O   0  0  0  0  0  0  0  0  0  0  0  0
   -1.4850   21.2520  -32.1390 C   0  0  0  0  0  0  0  0  0  0  0  0
   -1.5230   20.8030  -30.8140 C   0  0  0  0  0  0  0  0  0  0  0  0
   -2.7250   20.7950  -30.1030 C   0  0  0  0  0  0  0  0  0  0  0  0
   -3.8980   21.2500  -30.7070 C   0  0  0  0  0  0  0  0  0  0  0  0
   -3.8710   21.7560  -32.0160 C   0  0  0  0  0  0  0  0  0  0  0  0
   -5.1400   22.2320  -32.6740 C   0  0  0  0  0  0  0  0  0  0  0  0
   -6.3480   21.9400  -31.8810 N   0  0  0  0  0  0  0  0  0  0  0  0
   -7.1450   20.8520  -31.9740 C   0  0  0  0  0  0  0  0  0  0  0  0
   -6.7780   19.5460  -32.5260 C   0  0  0  0  0  0  0  0  0  0  0  0
   -7.1160   18.3170  -31.9770 C   0  0  0  0  0  0  0  0  0  0  0  0
   -6.7260   17.2350  -32.7750 C   0  0  0  0  0  0  0  0  0  0  0  0
   -6.1100   17.6130  -33.9610 C   0  0  0  0  0  0  0  0  0  0  0  0
   -6.0520   19.2930  -34.0190 S   0  0  0  0  0  0  0  0  0  0  0  0
   -8.3790   21.1480  -31.4440 C   0  0  0  0  0  0  0  0  0  0  0  0
   -8.3810   22.4210  -31.0120 N   0  0  0  0  0  0  0  0  0  0  0  0
   -7.1380   22.8680  -31.2870 C   0  0  0  0  0  0  0  0  0  0  0  0
   -6.6060   24.5290  -30.8550 S   0  0  0  0  0  0  0  0  0  0  0  0
   -5.5010   24.0090  -29.4920 C   0  0  0  0  0  0  0  0  0  0  0  0
   -4.1000   24.5230  -29.6790 C   0  0  0  0  0  0  0  0  0  0  0  0
   -3.8670   25.2940  -30.6470 O   0  0  0  0  0  0  0  0  0  0  0  0
   -2.9840   24.1260  -28.7910 C   0  0  0  0  0  0  0  0  0  0  0  0
   -3.0190   23.2140  -27.7380 C   0  0  0  0  0  0  0  0  0  0  0  0
   -1.7800   23.0370  -27.1110 C   0  0  0  0  0  0  0  0  0  0  0  0
   -0.7630   23.8100  -27.6510 C   0  0  0  0  0  0  0  0  0  0  0  0
   -1.4110   24.7110  -28.9110 S   0  0  0  0  0  0  0  0  0  0  0  0
   -2.6640   21.7450  -32.7330 C   0  0  0  0  0  0  0  0  0  0  0  0
    0.5141   20.1754  -34.4659 H   0  0  0  0  0  0  0  0  0  0  0  0
   -1.1427   20.8370  -34.6751 H   0  0  0  0  0  0  0  0  0  0  0  0
    0.2727   21.9430  -34.6751 H   0  0  0  0  0  0  0  0  0  0  0  0
   -0.5994   20.4539  -30.3291 H   0  0  0  0  0  0  0  0  0  0  0  0
   -2.7472   20.4296  -29.0657 H   0  0  0  0  0  0  0  0  0  0  0  0
   -4.8484   21.2119  -30.1545 H   0  0  0  0  0  0  0  0  0  0  0  0
   -5.0717   23.3201  -32.8199 H   0  0  0  0  0  0  0  0  0  0  0  0
   -5.2363   21.6934  -33.6283 H   0  0  0  0  0  0  0  0  0  0  0  0
   -7.6365   18.2047  -31.0144 H   0  0  0  0  0  0  0  0  0  0  0  0
   -6.8916   16.1856  -32.4899 H   0  0  0  0  0  0  0  0  0  0  0  0
   -5.7251   16.9293  -34.7320 H   0  0  0  0  0  0  0  0  0  0  0  0
   -9.2296   20.4532  -31.3832 H   0  0  0  0  0  0  0  0  0  0  0  0
   -5.8990   24.3983  -28.5433 H   0  0  0  0  0  0  0  0  0  0  0  0
   -5.4628   22.9097  -29.4845 H   0  0  0  0  0  0  0  0  0  0  0  0
   -3.9322   22.6842  -27.4292 H   0  0  0  0  0  0  0  0  0  0  0  0
   -1.6270   22.3479  -26.2673 H   0  0  0  0  0  0  0  0  0  0  0  0
    0.2837   23.8294  -27.3133 H   0  0  0  0  0  0  0  0  0  0  0  0
   -2.6384   22.1238  -33.7654 H   0  0  0  0  0  0  0  0  0  0  0  0
  1  2  1  0
  2  3  1  0
  3  4  2  0
  4  5  1  0
  5  6  2  0
  6  7  1  0
  7  8  1  0
  8  9  1  0
  9 10  1  0
 10 11  1  0
 11 12  2  0
 12 13  1  0
 13 14  2  0
 14 15  1  0
 10 16  2  0
 16 17  1  0
 17 18  2  0
 18 19  1  0
 19 20  1  0
 20 21  1  0
 21 22  2  0
 21 23  1  0
 23 24  2  0
 24 25  1  0
 25 26  2  0
 26 27  1  0
  7 28  2  0
 28  3  1  0
 18  9  1  0
 27 23  1  0
 15 11  1  0
  1 29  1  0
  1 30  1  0
  1 31  1  0
  4 32  1  0
  5 33  1  0
  6 34  1  0
  8 35  1  0
  8 36  1  0
 12 37  1  0
 13 38  1  0
 14 39  1  0
 16 40  1  0
 20 41  1  0
 20 42  1  0
 24 43  1  0
 25 44  1  0
 26 45  1  0
 28 46  1  0
M  END
>  <UniqueID>  (43) 
39

>  <SMILES>  (43) 
COc1cccc(Cn2c(-c3cccs3)cnc2SCC(=O)c2cccs2)c1

>  <Energy>  (43) 
131.556977504189

>  <Genealogy>  (43) 
COc1cccc(Cn2c(-c3cccs3)cnc2SCC(=O)c2cccs2)c1 (3D coordinates assigned)
COc1cccc(Cn2c(-c3cccs3)cnc2SCC(=O)c2cccs2)c1 (optimized conformer: 131.556977504189 kcal/mol)

>  <smiles>  (43) 
COc1cccc(Cn2c(-c3cccs3)cnc2SCC(=O)c2cccs2)c1

>  <score_type>  (43) 
oracle

>  <origin>  (43) 
adgpu

>  <m_score__min__energy>  (43) 
-9.0299999999999994

>  <m_primary>  (43) 
energy

$$$$
43:0
     RDKit          3D

 49 52  0  0  0  0  0  0  0  0999 V2000
   -2.8960   20.1240  -26.7180 N   0  0  0  0  0  0  0  0  0  0  0  0
   -2.7320   20.8350  -27.6170 C   0  0  0  0  0  0  0  0  0  0  0  0
   -2.5230   21.7430  -28.7620 C   0  0  1  0  0  0  0  0  0  0  0  0
   -3.5290   21.4960  -29.9080 C   0  0  2  0  0  0  0  0  0  0  0  0
   -2.9550   21.2080  -31.3020 C   0  0  0  0  0  0  0  0  0  0  0  0
   -1.6240   21.5930  -31.5620 C   0  0  0  0  0  0  0  0  0  0  0  0
   -1.0100   21.3050  -32.7800 C   0  0  0  0  0  0  0  0  0  0  0  0
   -1.7340   20.6930  -33.7970 C   0  0  0  0  0  0  0  0  0  0  0  0
   -3.0940   20.4440  -33.6260 C   0  0  0  0  0  0  0  0  0  0  0  0
   -3.7330   20.7540  -32.4110 C   0  0  0  0  0  0  0  0  0  0  0  0
   -5.2130   20.7480  -32.4150 C   0  0  0  0  0  0  0  0  0  0  0  0
   -5.9130   19.5320  -32.4750 C   0  0  0  0  0  0  0  0  0  0  0  0
   -7.3120   19.5240  -32.4480 C   0  0  0  0  0  0  0  0  0  0  0  0
   -8.0170   20.7260  -32.3500 C   0  0  0  0  0  0  0  0  0  0  0  0
   -7.3270   21.9380  -32.2710 C   0  0  0  0  0  0  0  0  0  0  0  0
   -5.9290   21.9510  -32.2940 C   0  0  0  0  0  0  0  0  0  0  0  0
   -4.0140   22.9400  -29.5790 C   0  0  2  0  0  0  0  0  0  0  0  0
   -3.9920   24.0520  -30.6620 C   0  0  0  0  0  0  0  0  0  0  0  0
   -3.8620   25.3090  -30.0580 O   0  0  0  0  0  0  0  0  0  0  0  0
   -3.0280   23.0990  -28.4840 N   0  0  2  0  0  0  0  0  0  0  0  0
   -1.9990   24.1170  -28.6440 C   0  0  0  0  0  0  0  0  0  0  0  0
   -1.3540   24.2100  -29.7290 O   0  0  0  0  0  0  0  0  0  0  0  0
   -1.6860   25.0690  -27.5530 C   0  0  0  0  0  0  0  0  0  0  0  0
   -2.3450   24.9540  -26.3160 C   0  0  0  0  0  0  0  0  0  0  0  0
   -2.0650   25.8490  -25.2790 C   0  0  0  0  0  0  0  0  0  0  0  0
   -1.1340   26.8720  -25.4700 C   0  0  0  0  0  0  0  0  0  0  0  0
   -0.4850   27.0060  -26.7000 C   0  0  0  0  0  0  0  0  0  0  0  0
   -0.7610   26.1130  -27.7400 C   0  0  0  0  0  0  0  0  0  0  0  0
   -1.4519   21.6059  -28.9718 H   0  0  0  0  0  0  0  0  0  0  0  0
   -4.2127   20.6353  -29.9508 H   0  0  0  0  0  0  0  0  0  0  0  0
   -1.0582   22.1318  -30.7877 H   0  0  0  0  0  0  0  0  0  0  0  0
    0.0480   21.5621  -32.9365 H   0  0  0  0  0  0  0  0  0  0  0  0
   -1.2344   20.4062  -34.7341 H   0  0  0  0  0  0  0  0  0  0  0  0
   -3.6741   20.0007  -34.4488 H   0  0  0  0  0  0  0  0  0  0  0  0
   -5.3601   18.5835  -32.5434 H   0  0  0  0  0  0  0  0  0  0  0  0
   -7.8572   18.5703  -32.5040 H   0  0  0  0  0  0  0  0  0  0  0  0
   -9.1169   20.7181  -32.3350 H   0  0  0  0  0  0  0  0  0  0  0  0
   -7.8840   22.8831  -32.1906 H   0  0  0  0  0  0  0  0  0  0  0  0
   -5.3881   22.9057  -32.2171 H   0  0  0  0  0  0  0  0  0  0  0  0
   -5.0925   23.0521  -29.3940 H   0  0  0  0  0  0  0  0  0  0  0  0
   -3.1415   23.8839  -31.3390 H   0  0  0  0  0  0  0  0  0  0  0  0
   -4.9337   24.0207  -31.2296 H   0  0  0  0  0  0  0  0  0  0  0  0
   -2.9790   25.6620  -30.3380 H   0  0  0  0  0  0  0  0  0  0  0  0
   -3.5320   23.1760  -27.5680 H   0  0  0  0  0  0  0  0  0  0  0  0
   -3.0854   24.1549  -26.1633 H   0  0  0  0  0  0  0  0  0  0  0  0
   -2.5787   25.7472  -24.3116 H   0  0  0  0  0  0  0  0  0  0  0  0
   -0.9115   27.5727  -24.6517 H   0  0  0  0  0  0  0  0  0  0  0  0
    0.2444   27.8155  -26.8505 H   0  0  0  0  0  0  0  0  0  0  0  0
   -0.2527   26.2271  -28.7088 H   0  0  0  0  0  0  0  0  0  0  0  0
  1  2  3  0
  2  3  1  0
  3  4  1  0
  4  5  1  0
  5  6  2  0
  6  7  1  0
  7  8  2  0
  8  9  1  0
  9 10  2  0
 10 11  1  0
 11 12  2  0
 12 13  1  0
 13 14  2  0
 14 15  1  0
 15 16  2  0
  4 17  1  0
 17 18  1  0
 18 19  1  0
 17 20  1  0
 20 21  1  0
 21 22  2  0
 21 23  1  0
 23 24  2  0
 24 25  1  0
 25 26  2  0
 26 27  1  0
 27 28  2  0
 20  3  1  0
 28 23  1  0
 10  5  1  0
 16 11  1  0
  3 29  1  6
  4 30  1  1
  6 31  1  0
  7 32  1  0
  8 33  1  0
  9 34  1  0
 12 35  1  0
 13 36  1  0
 14 37  1  0
 15 38  1  0
 16 39  1  0
 17 40  1  1
 18 41  1  0
 18 42  1  0
 19 43  1  0
 20 44  1  1
 24 45  1  0
 25 46  1  0
 26 47  1  0
 27 48  1  0
 28 49  1  0
M  CHG  1  20   1
M  END
>  <UniqueID>  (44) 
40

>  <SMILES>  (44) 
N#C[C@H]1[C@H](c2ccccc2-c2ccccc2)C(CO)[NH+]1C(=O)c1ccccc1

>  <Energy>  (44) 
157.46420683948054

>  <Genealogy>  (44) 
N#CC1C(c2ccccc2-c2ccccc2)C(CO)[NH+]1C(=O)c1ccccc1 (protonated)
N#C[C@H]1[C@H](c2ccccc2-c2ccccc2)C(CO)[NH+]1C(=O)c1ccccc1 (chirality)
N#C[C@H]1[C@H](c2ccccc2-c2ccccc2)C(CO)[NH+]1C(=O)c1ccccc1 (3D coordinates assigned)
N#C[C@H]1[C@H](c2ccccc2-c2ccccc2)C(CO)[NH+]1C(=O)c1ccccc1 (nonaromatic ring conformer: 157.46420683948054 kcal/mol)

>  <smiles>  (44) 
N#CC1C(c2ccccc2-c2ccccc2)C(CO)N1C(=O)c1ccccc1

>  <score_type>  (44) 
oracle

>  <origin>  (44) 
adgpu

>  <m_score__min__energy>  (44) 
-8.3599999999999994

>  <m_primary>  (44) 
energy

$$$$
44:0
     RDKit          3D

 46 48  0  0  0  0  0  0  0  0999 V2000
   -6.4200   15.5500  -33.8320 C   0  0  0  0  0  0  0  0  0  0  0  0
   -5.7320   16.8390  -33.9120 N   0  0  0  0  0  0  0  0  0  0  0  0
   -6.3420   18.0260  -33.3640 C   0  0  0  0  0  0  0  0  0  0  0  0
   -7.0240   17.9790  -32.1340 C   0  0  0  0  0  0  0  0  0  0  0  0
   -7.6090   19.1320  -31.6010 C   0  0  0  0  0  0  0  0  0  0  0  0
   -7.5230   20.3480  -32.2880 C   0  0  0  0  0  0  0  0  0  0  0  0
   -8.2580   21.7920  -31.5990 S   0  0  0  0  0  0  0  0  0  0  0  0
   -8.2690   21.7260  -30.0960 O   0  0  0  0  0  0  0  0  0  0  0  0
   -9.6750   21.8940  -32.0870 O   0  0  0  0  0  0  0  0  0  0  0  0
   -7.3810   23.2000  -32.1020 N   0  0  0  0  0  0  0  0  0  0  0  0
   -6.1750   23.6900  -31.4990 C   0  0  0  0  0  0  0  0  0  0  0  0
   -6.1320   25.0220  -31.0850 C   0  0  0  0  0  0  0  0  0  0  0  0
   -4.9810   25.5420  -30.4930 C   0  0  0  0  0  0  0  0  0  0  0  0
   -3.8580   24.7340  -30.3000 C   0  0  0  0  0  0  0  0  0  0  0  0
   -2.7320   25.2920  -29.7040 O   0  0  0  0  0  0  0  0  0  0  0  0
   -3.8780   23.3810  -30.7070 C   0  0  0  0  0  0  0  0  0  0  0  0
   -2.7040   22.4910  -30.5120 C   0  0  0  0  0  0  0  0  0  0  0  0
   -1.6720   22.6340  -31.2210 O   0  0  0  0  0  0  0  0  0  0  0  0
   -2.7180   21.4870  -29.5520 O   0  0  0  0  0  0  0  0  0  0  0  0
   -5.0460   22.8730  -31.3080 C   0  0  0  0  0  0  0  0  0  0  0  0
   -6.8540   20.4030  -33.5170 C   0  0  0  0  0  0  0  0  0  0  0  0
   -6.2710   19.2510  -34.0510 C   0  0  0  0  0  0  0  0  0  0  0  0
   -4.1740   16.9190  -34.6880 S   0  0  0  0  0  0  0  0  0  0  0  0
   -3.5790   15.5400  -34.7520 O   0  0  0  0  0  0  0  0  0  0  0  0
   -4.3260   17.4240  -36.0950 O   0  0  0  0  0  0  0  0  0  0  0  0
   -3.1110   18.0040  -33.7940 C   0  0  0  0  0  0  0  0  0  0  0  0
   -2.0650   17.4750  -33.0230 C   0  0  0  0  0  0  0  0  0  0  0  0
   -1.2140   18.3270  -32.3130 C   0  0  0  0  0  0  0  0  0  0  0  0
   -1.4010   19.7100  -32.3710 C   0  0  0  0  0  0  0  0  0  0  0  0
   -2.4410   20.2430  -33.1360 C   0  0  0  0  0  0  0  0  0  0  0  0
   -3.2970   19.3930  -33.8450 C   0  0  0  0  0  0  0  0  0  0  0  0
   -6.5657   15.2770  -32.7764 H   0  0  0  0  0  0  0  0  0  0  0  0
   -7.3981   15.6249  -34.3297 H   0  0  0  0  0  0  0  0  0  0  0  0
   -5.8134   14.7791  -34.3297 H   0  0  0  0  0  0  0  0  0  0  0  0
   -7.0976   17.0274  -31.5872 H   0  0  0  0  0  0  0  0  0  0  0  0
   -8.1387   19.0828  -30.6382 H   0  0  0  0  0  0  0  0  0  0  0  0
   -7.0121   25.6665  -31.2265 H   0  0  0  0  0  0  0  0  0  0  0  0
   -4.9575   26.5951  -30.1761 H   0  0  0  0  0  0  0  0  0  0  0  0
   -5.0758   21.8224  -31.6327 H   0  0  0  0  0  0  0  0  0  0  0  0
   -6.7873   21.3554  -34.0633 H   0  0  0  0  0  0  0  0  0  0  0  0
   -5.7510   19.3028  -35.0190 H   0  0  0  0  0  0  0  0  0  0  0  0
   -1.9141   16.3864  -32.9770 H   0  0  0  0  0  0  0  0  0  0  0  0
   -0.3964   17.9079  -31.7081 H   0  0  0  0  0  0  0  0  0  0  0  0
   -0.7291   20.3796  -31.8141 H   0  0  0  0  0  0  0  0  0  0  0  0
   -2.5873   21.3323  -33.1812 H   0  0  0  0  0  0  0  0  0  0  0  0
   -4.1176   19.8152  -34.4436 H   0  0  0  0  0  0  0  0  0  0  0  0
  1  2  1  0
  2  3  1  0
  3  4  2  0
  4  5  1  0
  5  6  2  0
  6  7  1  0
  7  8  2  0
  7  9  2  0
  7 10  1  0
 10 11  1  0
 11 12  2  0
 12 13  1  0
 13 14  2  0
 14 15  1  0
 14 16  1  0
 16 17  1  0
 17 18  2  0
 17 19  1  0
 16 20  2  0
  6 21  1  0
 21 22  2  0
  2 23  1  0
 23 24  2  0
 23 25  2  0
 23 26  1  0
 26 27  2  0
 27 28  1  0
 28 29  2  0
 29 30  1  0
 30 31  2  0
 22  3  1  0
 31 26  1  0
 20 11  1  0
  1 32  1  0
  1 33  1  0
  1 34  1  0
  4 35  1  0
  5 36  1  0
 12 37  1  0
 13 38  1  0
 20 39  1  0
 21 40  1  0
 22 41  1  0
 27 42  1  0
 28 43  1  0
 29 44  1  0
 30 45  1  0
 31 46  1  0
M  CHG  3  10  -1  15  -1  19  -1
M  END
>  <UniqueID>  (45) 
41

>  <SMILES>  (45) 
CN(c1ccc(S(=O)(=O)[N-]c2ccc([O-])c(C(=O)[O-])c2)cc1)S(=O)(=O)c1ccccc1

>  <Energy>  (45) 
58.42073901494601

>  <Genealogy>  (45) 
CN(c1ccc(S(=O)(=O)[N-]c2ccc([O-])c(C(=O)[O-])c2)cc1)S(=O)(=O)c1ccccc1 (protonated)
CN(c1ccc(S(=O)(=O)[N-]c2ccc([O-])c(C(=O)[O-])c2)cc1)S(=O)(=O)c1ccccc1 (3D coordinates assigned)
CN(c1ccc(S(=O)(=O)[N-]c2ccc([O-])c(C(=O)[O-])c2)cc1)S(=O)(=O)c1ccccc1 (optimized conformer: 58.42073901494601 kcal/mol)

>  <smiles>  (45) 
CN(c1ccc(S(=O)(=O)Nc2ccc(O)c(C(=O)O)c2)cc1)S(=O)(=O)c1ccccc1

>  <score_type>  (45) 
oracle

>  <origin>  (45) 
adgpu

>  <m_score__min__energy>  (45) 
-13.710000000000001

>  <m_primary>  (45) 
energy

$$$$
45:0
     RDKit          3D

 39 41  0  0  0  0  0  0  0  0999 V2000
   -2.7250   24.5970  -30.8720 H   0  0  0  0  0  0  0  0  0  0  0  0
   -3.5020   25.1790  -30.4860 N   0  0  0  0  0  0  0  0  0  0  0  0
   -4.7370   24.7890  -30.5000 C   0  0  0  0  0  0  0  0  0  0  0  0
   -5.6970   25.5990  -29.9810 N   0  0  0  0  0  0  0  0  0  0  0  0
   -7.0080   25.2410  -29.9730 C   0  0  0  0  0  0  0  0  0  0  0  0
   -7.7590   25.9207  -29.5441 H   0  0  0  0  0  0  0  0  0  0  0  0
   -7.4050   24.0140  -30.5070 C   0  0  0  0  0  0  0  0  0  0  0  0
   -8.4668   23.7266  -30.5019 H   0  0  0  0  0  0  0  0  0  0  0  0
   -6.4420   23.1480  -31.0510 C   0  0  0  0  0  0  0  0  0  0  0  0
   -6.8470   21.8390  -31.6220 C   0  0  0  0  0  0  0  0  0  0  0  0
   -7.9620   21.1570  -31.1130 C   0  0  0  0  0  0  0  0  0  0  0  0
   -8.5404   21.5864  -30.2817 H   0  0  0  0  0  0  0  0  0  0  0  0
   -8.3330   19.9340  -31.6650 C   0  0  0  0  0  0  0  0  0  0  0  0
   -9.2049   19.3933  -31.2682 H   0  0  0  0  0  0  0  0  0  0  0  0
   -7.6000   19.3950  -32.7200 C   0  0  0  0  0  0  0  0  0  0  0  0
   -7.8905   18.4291  -33.1590 H   0  0  0  0  0  0  0  0  0  0  0  0
   -6.4850   20.0940  -33.2210 C   0  0  0  0  0  0  0  0  0  0  0  0
   -5.7630   19.6370  -34.2080 N   0  0  0  0  0  0  0  0  0  0  0  0
   -5.9710   18.3980  -34.9610 C   0  0  0  0  0  0  0  0  0  0  0  0
   -7.0425   18.1494  -34.9560 H   0  0  0  0  0  0  0  0  0  0  0  0
   -5.6158   18.5496  -35.9910 H   0  0  0  0  0  0  0  0  0  0  0  0
   -5.1980   17.2590  -34.3490 C   0  0  0  0  0  0  0  0  0  0  0  0
   -5.6960   16.5830  -33.2240 C   0  0  0  0  0  0  0  0  0  0  0  0
   -6.6669   16.8731  -32.7961 H   0  0  0  0  0  0  0  0  0  0  0  0
   -4.9640   15.5440  -32.6460 C   0  0  0  0  0  0  0  0  0  0  0  0
   -5.3597   15.0196  -31.7637 H   0  0  0  0  0  0  0  0  0  0  0  0
   -3.7310   15.1680  -33.1840 C   0  0  0  0  0  0  0  0  0  0  0  0
   -3.1557   14.3549  -32.7172 H   0  0  0  0  0  0  0  0  0  0  0  0
   -3.2210   15.8230  -34.3190 C   0  0  0  0  0  0  0  0  0  0  0  0
   -1.8660   15.4550  -34.8690 C   0  0  0  0  0  0  0  0  0  0  0  0
   -1.2500   14.5680  -34.0060 F   0  0  0  0  0  0  0  0  0  0  0  0
   -1.0720   16.5810  -35.0010 F   0  0  0  0  0  0  0  0  0  0  0  0
   -1.9870   14.8630  -36.1150 F   0  0  0  0  0  0  0  0  0  0  0  0
   -3.9500   16.8870  -34.8780 C   0  0  0  0  0  0  0  0  0  0  0  0
   -3.5392   17.4346  -35.7390 H   0  0  0  0  0  0  0  0  0  0  0  0
   -6.1410   21.2900  -32.6570 N   0  0  0  0  0  0  0  0  0  0  0  0
   -5.2980   21.7880  -33.0240 H   0  0  0  0  0  0  0  0  0  0  0  0
   -5.0930   23.5460  -31.0460 C   0  0  0  0  0  0  0  0  0  0  0  0
   -4.3206   22.8862  -31.4680 H   0  0  0  0  0  0  0  0  0  0  0  0
  1  2  1  0
  2  3  2  0
  3  4  1  0
  4  5  1  0
  5  6  1  0
  5  7  2  0
  7  8  1  0
  7  9  1  0
  9 10  1  0
 10 11  2  0
 11 12  1  0
 11 13  1  0
 13 14  1  0
 13 15  2  0
 15 16  1  0
 15 17  1  0
 17 18  2  0
 18 19  1  0
 19 20  1  0
 19 21  1  0
 19 22  1  0
 22 23  2  0
 23 24  1  0
 23 25  1  0
 25 26  1  0
 25 27  2  0
 27 28  1  0
 27 29  1  0
 29 30  1  0
 30 31  1  0
 30 32  1  0
 30 33  1  0
 29 34  2  0
 34 35  1  0
 17 36  1  0
 36 37  1  0
  9 38  2  0
 38 39  1  0
 38  3  1  0
 36 10  1  0
 34 22  1  0
M  CHG  1   4  -1
M  END
>  <UniqueID>  (46) 
42

>  <SMILES>  (46) 
[H]/N=c1\cc(-c2ccc/c(=N\Cc3cccc(C(F)(F)F)c3)[nH]2)cc[n-]1

>  <Energy>  (46) 
50.2819320258423

>  <Genealogy>  (46) 
N=c1cc(-c2cccc(=NCc3cccc(C(F)(F)F)c3)[nH]2)cc[n-]1 (protonated)
[H]/N=c1\cc(-c2ccc/c(=N\Cc3cccc(C(F)(F)F)c3)[nH]2)cc[n-]1 (cis-trans isomerization)
[H]/N=c1\cc(-c2ccc/c(=N\Cc3cccc(C(F)(F)F)c3)[nH]2)cc[n-]1 (3D coordinates assigned)
[H]/N=c1\cc(-c2ccc/c(=N\Cc3cccc(C(F)(F)F)c3)[nH]2)cc[n-]1 (optimized conformer: 50.2819320258423 kcal/mol)

>  <smiles>  (46) 
N=c1cc(-c2cccc(=NCc3cccc(C(F)(F)F)c3)[nH]2)cc[nH]1

>  <score_type>  (46) 
oracle

>  <origin>  (46) 
adgpu

>  <m_score__min__energy>  (46) 
-8.9499999999999993

>  <m_primary>  (46) 
energy

$$$$
46:0
     RDKit          3D

 38 40  0  0  0  0  0  0  0  0999 V2000
   -7.7280   22.6420  -29.8610 C   0  0  0  0  0  0  0  0  0  0  0  0
   -6.6700   22.8490  -30.8550 N   0  0  0  0  0  0  0  0  0  0  0  0
   -6.8360   22.3220  -32.2180 C   0  0  0  0  0  0  0  0  0  0  0  0
   -7.3250   20.9000  -32.1690 C   0  0  0  0  0  0  0  0  0  0  0  0
   -8.6910   20.6020  -32.2930 C   0  0  0  0  0  0  0  0  0  0  0  0
   -9.1240   19.2770  -32.2210 C   0  0  0  0  0  0  0  0  0  0  0  0
   -8.1890   18.2600  -32.0210 C   0  0  0  0  0  0  0  0  0  0  0  0
   -6.8690   18.5640  -31.8960 N   0  0  0  0  0  0  0  0  0  0  0  0
   -6.4210   19.8470  -31.9630 C   0  0  0  0  0  0  0  0  0  0  0  0
   -5.4580   23.5510  -30.4980 C   0  0  0  0  0  0  0  0  0  0  0  0
   -4.8120   24.1710  -31.3860 O   0  0  0  0  0  0  0  0  0  0  0  0
   -4.9930   23.5780  -29.1370 N   0  0  0  0  0  0  0  0  0  0  0  0
   -3.6510   23.9290  -28.7600 C   0  0  0  0  0  0  0  0  0  0  0  0
   -2.5990   23.6910  -29.6590 C   0  0  0  0  0  0  0  0  0  0  0  0
   -1.2860   24.0400  -29.3300 C   0  0  0  0  0  0  0  0  0  0  0  0
   -1.0100   24.6460  -28.1010 C   0  0  0  0  0  0  0  0  0  0  0  0
    0.2670   24.9880  -27.7790 N   0  0  0  0  0  0  0  0  0  0  0  0
    0.5690   25.5850  -26.5960 C   0  0  0  0  0  0  0  0  0  0  0  0
   -0.4400   25.8690  -25.6730 C   0  0  0  0  0  0  0  0  0  0  0  0
   -1.7620   25.5300  -25.9750 C   0  0  0  0  0  0  0  0  0  0  0  0
   -2.0600   24.9110  -27.1960 C   0  0  0  0  0  0  0  0  0  0  0  0
   -3.3760   24.5580  -27.5310 C   0  0  0  0  0  0  0  0  0  0  0  0
   -7.3026   22.7252  -28.8500 H   0  0  0  0  0  0  0  0  0  0  0  0
   -8.5100   23.4042  -29.9937 H   0  0  0  0  0  0  0  0  0  0  0  0
   -8.1651   21.6413  -29.9937 H   0  0  0  0  0  0  0  0  0  0  0  0
   -7.5676   22.9394  -32.7597 H   0  0  0  0  0  0  0  0  0  0  0  0
   -5.8652   22.3502  -32.7346 H   0  0  0  0  0  0  0  0  0  0  0  0
   -9.4195   21.4117  -32.4467 H   0  0  0  0  0  0  0  0  0  0  0  0
  -10.1927   19.0363  -32.3210 H   0  0  0  0  0  0  0  0  0  0  0  0
   -8.5197   17.2124  -31.9645 H   0  0  0  0  0  0  0  0  0  0  0  0
   -5.3471   20.0593  -31.8554 H   0  0  0  0  0  0  0  0  0  0  0  0
   -5.6870   23.4390  -28.3690 H   0  0  0  0  0  0  0  0  0  0  0  0
   -2.8104   23.2249  -30.6327 H   0  0  0  0  0  0  0  0  0  0  0  0
   -0.4694   23.8376  -30.0387 H   0  0  0  0  0  0  0  0  0  0  0  0
    1.6123   25.8456  -26.3645 H   0  0  0  0  0  0  0  0  0  0  0  0
   -0.1965   26.3552  -24.7168 H   0  0  0  0  0  0  0  0  0  0  0  0
   -2.5657   25.7485  -25.2564 H   0  0  0  0  0  0  0  0  0  0  0  0
   -4.1962   24.7736  -26.8304 H   0  0  0  0  0  0  0  0  0  0  0  0
  1  2  1  0
  2  3  1  0
  3  4  1  0
  4  5  2  0
  5  6  1  0
  6  7  2  0
  7  8  1  0
  8  9  2  0
  2 10  1  0
 10 11  2  0
 10 12  1  0
 12 13  1  0
 13 14  2  0
 14 15  1  0
 15 16  2  0
 16 17  1  0
 17 18  2  0
 18 19  1  0
 19 20  2  0
 20 21  1  0
 21 22  2  0
  9  4  1  0
 22 13  1  0
 21 16  1  0
  1 23  1  0
  1 24  1  0
  1 25  1  0
  3 26  1  0
  3 27  1  0
  5 28  1  0
  6 29  1  0
  7 30  1  0
  9 31  1  0
 12 32  1  0
 14 33  1  0
 15 34  1  0
 18 35  1  0
 19 36  1  0
 20 37  1  0
 22 38  1  0
M  END
>  <UniqueID>  (47) 
43

>  <SMILES>  (47) 
CN(Cc1cccnc1)C(=O)Nc1ccc2ncccc2c1

>  <Energy>  (47) 
45.944670014631434

>  <Genealogy>  (47) 
CN(Cc1cccnc1)C(=O)Nc1ccc2ncccc2c1 (3D coordinates assigned)
CN(Cc1cccnc1)C(=O)Nc1ccc2ncccc2c1 (optimized conformer: 45.944670014631434 kcal/mol)

>  <smiles>  (47) 
CN(Cc1cccnc1)C(=O)Nc1ccc2ncccc2c1

>  <score_type>  (47) 
oracle

>  <origin>  (47) 
adgpu

>  <m_score__min__energy>  (47) 
-7.9800000000000004

>  <m_primary>  (47) 
energy

$$$$
47:0
     RDKit          3D

 51 53  0  0  0  0  0  0  0  0999 V2000
   -9.5500   21.5000  -31.9980 C   0  0  0  0  0  0  0  0  0  0  0  0
   -8.5210   20.4130  -32.0900 C   0  0  0  0  0  0  0  0  0  0  0  0
   -8.8840   19.1350  -32.5360 C   0  0  0  0  0  0  0  0  0  0  0  0
   -7.9190   18.1300  -32.6530 C   0  0  0  0  0  0  0  0  0  0  0  0
   -6.5790   18.3870  -32.3210 C   0  0  0  0  0  0  0  0  0  0  0  0
   -5.5570   17.2860  -32.4050 C   0  0  0  0  0  0  0  0  0  0  0  0
   -6.2140   19.6670  -31.8550 C   0  0  0  0  0  0  0  0  0  0  0  0
   -4.8580   19.9220  -31.4630 N   0  0  0  0  0  0  0  0  0  0  0  0
   -3.7110   20.7930  -32.4370 S   0  0  0  0  0  0  0  0  0  0  0  0
   -4.4350   21.8530  -33.2250 O   0  0  0  0  0  0  0  0  0  0  0  0
   -3.0640   19.8370  -33.4020 O   0  0  0  0  0  0  0  0  0  0  0  0
   -2.4420   21.5290  -31.4500 C   0  0  0  0  0  0  0  0  0  0  0  0
   -1.1770   21.0090  -31.2260 C   0  0  0  0  0  0  0  0  0  0  0  0
   -0.6100   19.7640  -31.8360 C   0  0  0  0  0  0  0  0  0  0  0  0
   -0.4840   21.8140  -30.4010 N   0  0  0  0  0  0  0  0  0  0  0  0
   -1.2860   22.8530  -30.0920 C   0  0  0  0  0  0  0  0  0  0  0  0
   -0.9160   23.8890  -29.0760 C   0  0  0  0  0  0  0  0  0  0  0  0
   -2.5170   22.7090  -30.7220 C   0  0  0  0  0  0  0  0  0  0  0  0
   -3.6940   23.5960  -30.6120 C   0  0  0  0  0  0  0  0  0  0  0  0
   -3.4920   24.8340  -30.4680 O   0  0  0  0  0  0  0  0  0  0  0  0
   -5.0520   23.0950  -30.7390 N   0  0  0  0  0  0  0  0  0  0  0  0
   -5.7750   23.0530  -29.4600 C   0  0  0  0  0  0  0  0  0  0  0  0
   -7.2540   23.0830  -29.8020 C   0  0  0  0  0  0  0  0  0  0  0  0
   -7.3300   23.7840  -31.1470 C   0  0  0  0  0  0  0  0  0  0  0  0
   -5.8860   23.9440  -31.6070 C   0  0  0  0  0  0  0  0  0  0  0  0
   -7.1790   20.6820  -31.7870 C   0  0  0  0  0  0  0  0  0  0  0  0
   -9.7579   21.7196  -30.9404 H   0  0  0  0  0  0  0  0  0  0  0  0
   -9.1712   22.4063  -32.4931 H   0  0  0  0  0  0  0  0  0  0  0  0
  -10.4757   21.1714  -32.4931 H   0  0  0  0  0  0  0  0  0  0  0  0
   -9.9316   18.9218  -32.7949 H   0  0  0  0  0  0  0  0  0  0  0  0
   -8.2116   17.1307  -33.0077 H   0  0  0  0  0  0  0  0  0  0  0  0
   -5.2685   16.9753  -31.3900 H   0  0  0  0  0  0  0  0  0  0  0  0
   -5.9859   16.4279  -32.9432 H   0  0  0  0  0  0  0  0  0  0  0  0
   -4.6694   17.6499  -32.9432 H   0  0  0  0  0  0  0  0  0  0  0  0
   -0.2962   19.0749  -31.0381 H   0  0  0  0  0  0  0  0  0  0  0  0
   -1.3761   19.2792  -32.4589 H   0  0  0  0  0  0  0  0  0  0  0  0
    0.2586   20.0237  -32.4589 H   0  0  0  0  0  0  0  0  0  0  0  0
    0.4870   21.6550  -30.0470 H   0  0  0  0  0  0  0  0  0  0  0  0
   -1.0621   23.4800  -28.0654 H   0  0  0  0  0  0  0  0  0  0  0  0
    0.1387   24.1719  -29.2082 H   0  0  0  0  0  0  0  0  0  0  0  0
   -1.5529   24.7761  -29.2082 H   0  0  0  0  0  0  0  0  0  0  0  0
   -5.0150   22.1320  -31.1500 H   0  0  0  0  0  0  0  0  0  0  0  0
   -5.5294   22.1300  -28.9144 H   0  0  0  0  0  0  0  0  0  0  0  0
   -5.4973   23.9012  -28.8171 H   0  0  0  0  0  0  0  0  0  0  0  0
   -7.6552   22.0614  -29.8749 H   0  0  0  0  0  0  0  0  0  0  0  0
   -7.8466   23.5989  -29.0321 H   0  0  0  0  0  0  0  0  0  0  0  0
   -7.8970   23.1747  -31.8662 H   0  0  0  0  0  0  0  0  0  0  0  0
   -7.8436   24.7539  -31.0724 H   0  0  0  0  0  0  0  0  0  0  0  0
   -5.7871   23.6230  -32.6545 H   0  0  0  0  0  0  0  0  0  0  0  0
   -5.5710   24.9959  -31.5409 H   0  0  0  0  0  0  0  0  0  0  0  0
   -6.8802   21.6990  -31.4931 H   0  0  0  0  0  0  0  0  0  0  0  0
  1  2  1  0
  2  3  2  0
  3  4  1  0
  4  5  2  0
  5  6  1  0
  5  7  1  0
  7  8  1  0
  8  9  1  0
  9 10  2  0
  9 11  2  0
  9 12  1  0
 12 13  2  0
 13 14  1  0
 13 15  1  0
 15 16  1  0
 16 17  1  0
 16 18  2  0
 18 19  1  0
 19 20  2  0
 19 21  1  0
 21 22  1  0
 22 23  1  0
 23 24  1  0
 24 25  1  0
  7 26  2  0
 26  2  1  0
 18 12  1  0
 25 21  1  0
  1 27  1  0
  1 28  1  0
  1 29  1  0
  3 30  1  0
  4 31  1  0
  6 32  1  0
  6 33  1  0
  6 34  1  0
 14 35  1  0
 14 36  1  0
 14 37  1  0
 15 38  1  0
 17 39  1  0
 17 40  1  0
 17 41  1  0
 21 42  1  0
 22 43  1  0
 22 44  1  0
 23 45  1  0
 23 46  1  0
 24 47  1  0
 24 48  1  0
 25 49  1  0
 25 50  1  0
 26 51  1  0
M  CHG  2   8  -1  21   1
M  END
>  <UniqueID>  (48) 
44

>  <SMILES>  (48) 
Cc1ccc(C)c([N-]S(=O)(=O)c2c(C)[nH]c(C)c2C(=O)[NH+]2CCCC2)c1

>  <Energy>  (48) 
92.33779603255186

>  <Genealogy>  (48) 
Cc1ccc(C)c([N-]S(=O)(=O)c2c(C)[nH]c(C)c2C(=O)[NH+]2CCCC2)c1 (protonated)
Cc1ccc(C)c([N-]S(=O)(=O)c2c(C)[nH]c(C)c2C(=O)[NH+]2CCCC2)c1 (3D coordinates assigned)
Cc1ccc(C)c([N-]S(=O)(=O)c2c(C)[nH]c(C)c2C(=O)[NH+]2CCCC2)c1 (nonaromatic ring conformer: 92.33779603255186 kcal/mol)

>  <smiles>  (48) 
Cc1ccc(C)c(NS(=O)(=O)c2c(C)[nH]c(C)c2C(=O)N2CCCC2)c1

>  <score_type>  (48) 
oracle

>  <origin>  (48) 
adgpu

>  <m_score__min__energy>  (48) 
-8.2100000000000009

>  <m_primary>  (48) 
energy

$$$$
48:0
     RDKit          3D

 55 58  0  0  0  0  0  0  0  0999 V2000
   -1.7220   13.1550  -33.1350 C   0  0  0  0  0  0  0  0  0  0  0  0
   -2.4870   12.1490  -33.8670 N   0  0  0  0  0  0  0  0  0  0  0  0
   -4.1530   12.2090  -33.3810 S   0  0  0  0  0  0  0  0  0  0  0  0
   -4.3070   11.5160  -32.0550 O   0  0  0  0  0  0  0  0  0  0  0  0
   -5.0070   11.4950  -34.3930 O   0  0  0  0  0  0  0  0  0  0  0  0
   -4.6790   13.8830  -33.2190 C   0  0  0  0  0  0  0  0  0  0  0  0
   -4.7090   14.4850  -31.9560 C   0  0  0  0  0  0  0  0  0  0  0  0
   -5.0820   15.8260  -31.8220 C   0  0  0  0  0  0  0  0  0  0  0  0
   -5.4280   16.5840  -32.9540 C   0  0  0  0  0  0  0  0  0  0  0  0
   -5.7650   18.0220  -32.8300 C   0  0  0  0  0  0  0  0  0  0  0  0
   -5.8420   18.6260  -31.5610 C   0  0  0  0  0  0  0  0  0  0  0  0
   -6.0240   20.0070  -31.4470 C   0  0  0  0  0  0  0  0  0  0  0  0
   -6.1010   20.8050  -32.5920 C   0  0  0  0  0  0  0  0  0  0  0  0
   -6.1070   22.1980  -32.4440 O   0  0  0  0  0  0  0  0  0  0  0  0
   -5.2030   22.9380  -31.6610 C   0  0  0  0  0  0  0  0  0  0  0  0
   -5.7140   24.0320  -30.9510 C   0  0  0  0  0  0  0  0  0  0  0  0
   -4.8780   24.8310  -30.1700 C   0  0  0  0  0  0  0  0  0  0  0  0
   -3.5170   24.5400  -30.0790 C   0  0  0  0  0  0  0  0  0  0  0  0
   -2.6850   25.3390  -29.3060 O   0  0  0  0  0  0  0  0  0  0  0  0
   -2.9900   23.4370  -30.7580 C   0  0  0  0  0  0  0  0  0  0  0  0
   -3.8210   22.6130  -31.5370 C   0  0  0  0  0  0  0  0  0  0  0  0
   -3.2220   21.4250  -32.1920 C   0  0  0  0  0  0  0  0  0  0  0  0
   -3.1500   21.3590  -33.5930 C   0  0  0  0  0  0  0  0  0  0  0  0
   -2.7240   20.1860  -34.2210 C   0  0  0  0  0  0  0  0  0  0  0  0
   -2.3610   19.0660  -33.4670 C   0  0  0  0  0  0  0  0  0  0  0  0
   -2.0170   17.8890  -34.1470 O   0  0  0  0  0  0  0  0  0  0  0  0
   -1.6950   16.6580  -33.5090 C   0  0  0  0  0  0  0  0  0  0  0  0
   -2.3670   19.1540  -32.0610 C   0  0  0  0  0  0  0  0  0  0  0  0
   -2.7830   20.3300  -31.4300 C   0  0  0  0  0  0  0  0  0  0  0  0
   -6.1320   20.1970  -33.8570 C   0  0  0  0  0  0  0  0  0  0  0  0
   -5.9490   18.8160  -33.9750 C   0  0  0  0  0  0  0  0  0  0  0  0
   -5.3990   15.9710  -34.2200 C   0  0  0  0  0  0  0  0  0  0  0  0
   -5.0240   14.6310  -34.3510 C   0  0  0  0  0  0  0  0  0  0  0  0
   -1.8446   12.9938  -32.0538 H   0  0  0  0  0  0  0  0  0  0  0  0
   -0.6577   13.0708  -33.3999 H   0  0  0  0  0  0  0  0  0  0  0  0
   -2.0875   14.1581  -33.3999 H   0  0  0  0  0  0  0  0  0  0  0  0
   -2.4560   12.4030  -34.8820 H   0  0  0  0  0  0  0  0  0  0  0  0
   -4.4379   13.9005  -31.0644 H   0  0  0  0  0  0  0  0  0  0  0  0
   -5.1048   16.2903  -30.8251 H   0  0  0  0  0  0  0  0  0  0  0  0
   -5.7585   18.0082  -30.6547 H   0  0  0  0  0  0  0  0  0  0  0  0
   -6.1070   20.4680  -30.4517 H   0  0  0  0  0  0  0  0  0  0  0  0
   -6.7876   24.2642  -31.0098 H   0  0  0  0  0  0  0  0  0  0  0  0
   -5.2931   25.6918  -29.6252 H   0  0  0  0  0  0  0  0  0  0  0  0
   -1.9159   23.2121  -30.6819 H   0  0  0  0  0  0  0  0  0  0  0  0
   -3.4300   22.2340  -34.1980 H   0  0  0  0  0  0  0  0  0  0  0  0
   -2.6737   20.1432  -35.3190 H   0  0  0  0  0  0  0  0  0  0  0  0
   -1.7297   16.7906  -32.4176 H   0  0  0  0  0  0  0  0  0  0  0  0
   -2.4221   15.8888  -33.8082 H   0  0  0  0  0  0  0  0  0  0  0  0
   -0.6843   16.3433  -33.8082 H   0  0  0  0  0  0  0  0  0  0  0  0
   -2.0429   18.2936  -31.4571 H   0  0  0  0  0  0  0  0  0  0  0  0
   -2.7664   20.3980  -30.3322 H   0  0  0  0  0  0  0  0  0  0  0  0
   -6.3004   20.8078  -34.7562 H   0  0  0  0  0  0  0  0  0  0  0  0
   -5.9490   18.3478  -34.9704 H   0  0  0  0  0  0  0  0  0  0  0  0
   -5.6736   16.5508  -35.1136 H   0  0  0  0  0  0  0  0  0  0  0  0
   -4.9999   14.1629  -35.3461 H   0  0  0  0  0  0  0  0  0  0  0  0
  1  2  1  0
  2  3  1  0
  3  4  2  0
  3  5  2  0
  3  6  1  0
  6  7  2  0
  7  8  1  0
  8  9  2  0
  9 10  1  0
 10 11  2  0
 11 12  1  0
 12 13  2  0
 13 14  1  0
 14 15  1  0
 15 16  2  0
 16 17  1  0
 17 18  2  0
 18 19  1  0
 18 20  1  0
 20 21  2  0
 21 22  1  0
 22 23  2  0
 23 24  1  0
 24 25  2  0
 25 26  1  0
 26 27  1  0
 25 28  1  0
 28 29  2  0
 13 30  1  0
 30 31  2  0
  9 32  1  0
 32 33  2  0
 33  6  1  0
 31 10  1  0
 21 15  1  0
 29 22  1  0
  1 34  1  0
  1 35  1  0
  1 36  1  0
  2 37  1  0
  7 38  1  0
  8 39  1  0
 11 40  1  0
 12 41  1  0
 16 42  1  0
 17 43  1  0
 20 44  1  0
 23 45  1  0
 24 46  1  0
 27 47  1  0
 27 48  1  0
 27 49  1  0
 28 50  1  0
 29 51  1  0
 30 52  1  0
 31 53  1  0
 32 54  1  0
 33 55  1  0
M  CHG  1  19  -1
M  END
>  <UniqueID>  (49) 
45

>  <SMILES>  (49) 
CNS(=O)(=O)c1ccc(-c2ccc(Oc3ccc([O-])cc3-c3ccc(OC)cc3)cc2)cc1

>  <Energy>  (49) 
72.95164229132038

>  <Genealogy>  (49) 
CNS(=O)(=O)c1ccc(-c2ccc(Oc3ccc([O-])cc3-c3ccc(OC)cc3)cc2)cc1 (protonated)
CNS(=O)(=O)c1ccc(-c2ccc(Oc3ccc([O-])cc3-c3ccc(OC)cc3)cc2)cc1 (3D coordinates assigned)
CNS(=O)(=O)c1ccc(-c2ccc(Oc3ccc([O-])cc3-c3ccc(OC)cc3)cc2)cc1 (optimized conformer: 72.95164229132038 kcal/mol)

>  <smiles>  (49) 
CNS(=O)(=O)c1ccc(-c2ccc(Oc3ccc(O)cc3-c3ccc(OC)cc3)cc2)cc1

>  <score_type>  (49) 
oracle

>  <origin>  (49) 
adgpu

>  <m_score__min__energy>  (49) 
-9.4000000000000004

>  <m_primary>  (49) 
energy

$$$$
