0:0
     RDKit          3D

 41 43  0  0  0  0  0  0  0  0999 V2000
   -1.6120   20.3690  -25.6430 C   0  0  0  0  0  0  0  0  0  0  0  0
   -0.6850   20.1990  -26.7760 N   0  0  0  0  0  0  0  0  0  0  0  0
   -1.2720   19.4130  -27.8780 C   0  0  0  0  0  0  0  0  0  0  0  0
   -2.4610   20.1250  -28.5390 C   0  0  0  0  0  0  0  0  0  0  0  0
   -2.1970   21.5900  -28.7710 C   0  0  0  0  0  0  0  0  0  0  0  0
   -3.0700   22.3180  -29.5940 C   0  0  0  0  0  0  0  0  0  0  0  0
   -2.8810   23.6960  -29.8070 C   0  0  0  0  0  0  0  0  0  0  0  0
   -3.7540   24.4450  -30.6720 N   0  0  0  0  0  0  0  0  0  0  0  0
   -5.4810   24.4750  -30.4970 S   0  0  0  0  0  0  0  0  0  0  0  0
   -5.8250   24.5780  -29.0370 O   0  0  0  0  0  0  0  0  0  0  0  0
   -6.0340   25.6720  -31.2160 O   0  0  0  0  0  0  0  0  0  0  0  0
   -6.1800   23.0200  -31.2040 C   0  0  0  0  0  0  0  0  0  0  0  0
   -5.4470   22.2470  -32.1150 C   0  0  0  0  0  0  0  0  0  0  0  0
   -6.0190   21.1090  -32.6900 C   0  0  0  0  0  0  0  0  0  0  0  0
   -7.3290   20.7320  -32.3590 C   0  0  0  0  0  0  0  0  0  0  0  0
   -7.9150   19.5700  -32.9500 N   0  0  0  0  0  0  0  0  0  0  0  0
   -8.0590   21.5030  -31.4440 C   0  0  0  0  0  0  0  0  0  0  0  0
   -7.4860   22.6420  -30.8670 C   0  0  0  0  0  0  0  0  0  0  0  0
   -1.8180   24.3440  -29.1530 C   0  0  0  0  0  0  0  0  0  0  0  0
   -1.6020   25.7060  -29.3390 O   0  0  0  0  0  0  0  0  0  0  0  0
   -0.9590   23.6270  -28.3160 C   0  0  0  0  0  0  0  0  0  0  0  0
   -1.1470   22.2550  -28.1070 C   0  0  0  0  0  0  0  0  0  0  0  0
   -0.1570   21.4920  -27.2570 C   0  0  0  0  0  0  0  0  0  0  0  0
   -1.0584   20.2675  -24.6979 H   0  0  0  0  0  0  0  0  0  0  0  0
   -2.0727   21.3666  -25.6927 H   0  0  0  0  0  0  0  0  0  0  0  0
   -2.3968   19.5998  -25.6927 H   0  0  0  0  0  0  0  0  0  0  0  0
   -0.4972   19.2393  -28.6392 H   0  0  0  0  0  0  0  0  0  0  0  0
   -1.6417   18.4675  -27.4545 H   0  0  0  0  0  0  0  0  0  0  0  0
   -2.6659   19.6454  -29.5075 H   0  0  0  0  0  0  0  0  0  0  0  0
   -3.3213   20.0431  -27.8584 H   0  0  0  0  0  0  0  0  0  0  0  0
   -3.9133   21.8045  -30.0790 H   0  0  0  0  0  0  0  0  0  0  0  0
   -3.3630   24.9130  -31.5190 H   0  0  0  0  0  0  0  0  0  0  0  0
   -4.4190   22.5369  -32.3780 H   0  0  0  0  0  0  0  0  0  0  0  0
   -5.4397   20.5064  -33.4050 H   0  0  0  0  0  0  0  0  0  0  0  0
   -7.8990   18.6510  -32.4520 H   0  0  0  0  0  0  0  0  0  0  0  0
   -8.3680   19.6190  -33.8900 H   0  0  0  0  0  0  0  0  0  0  0  0
   -9.0860   21.2118  -31.1785 H   0  0  0  0  0  0  0  0  0  0  0  0
   -8.0625   23.2417  -30.1473 H   0  0  0  0  0  0  0  0  0  0  0  0
   -0.1271   24.1452  -27.8165 H   0  0  0  0  0  0  0  0  0  0  0  0
    0.7454   21.3010  -27.8563 H   0  0  0  0  0  0  0  0  0  0  0  0
    0.0604   22.1082  -26.3721 H   0  0  0  0  0  0  0  0  0  0  0  0
  1  2  1  0
  2  3  1  0
  3  4  1  0
  4  5  1  0
  5  6  2  0
  6  7  1  0
  7  8  1  0
  8  9  1  0
  9 10  2  0
  9 11  2  0
  9 12  1  0
 12 13  2  0
 13 14  1  0
 14 15  2  0
 15 16  1  0
 15 17  1  0
 17 18  2  0
  7 19  2  0
 19 20  1  0
 19 21  1  0
 21 22  2  0
 22 23  1  0
 23  2  1  0
 22  5  1  0
 18 12  1  0
  1 24  1  0
  1 25  1  0
  1 26  1  0
  3 27  1  0
  3 28  1  0
  4 29  1  0
  4 30  1  0
  6 31  1  0
  8 32  1  0
 13 33  1  0
 14 34  1  0
 16 35  1  0
 16 36  1  0
 17 37  1  0
 18 38  1  0
 21 39  1  0
 23 40  1  0
 23 41  1  0
M  CHG  1  20  -1
M  END
>  <UniqueID>  (1) 
1

>  <SMILES>  (1) 
CN1CCc2cc(NS(=O)(=O)c3ccc(N)cc3)c([O-])cc2C1

>  <Energy>  (1) 
49.78714965433949

>  <Genealogy>  (1) 
CN1CCc2cc(NS(=O)(=O)c3ccc(N)cc3)c([O-])cc2C1 (protonated)
CN1CCc2cc(NS(=O)(=O)c3ccc(N)cc3)c([O-])cc2C1 (3D coordinates assigned)
CN1CCc2cc(NS(=O)(=O)c3ccc(N)cc3)c([O-])cc2C1 (nonaromatic ring conformer: 49.78714965433949 kcal/mol)

>  <smiles>  (1) 
CN1CCc2cc(NS(=O)(=O)c3ccc(N)cc3)c(O)cc2C1

>  <score_type>  (1) 
oracle

>  <origin>  (1) 
adgpu

>  <m_score__min__energy>  (1) 
-11.49

>  <m_primary>  (1) 
energy

$$$$
1:0
     RDKit          3D

 44 47  0  0  0  0  0  0  0  0999 V2000
   -0.2670   22.6660  -25.6320 C   0  0  0  0  0  0  0  0  0  0  0  0
    0.0410   21.8710  -26.8350 N   0  0  0  0  0  0  0  0  0  0  0  0
   -0.7470   20.6250  -26.9090 C   0  0  0  0  0  0  0  0  0  0  0  0
   -2.2520   20.8880  -27.0650 C   0  0  0  0  0  0  0  0  0  0  0  0
   -2.5490   22.0060  -28.0310 C   0  0  0  0  0  0  0  0  0  0  0  0
   -3.8790   22.2480  -28.3990 C   0  0  0  0  0  0  0  0  0  0  0  0
   -4.2200   23.3700  -29.1710 C   0  0  0  0  0  0  0  0  0  0  0  0
   -5.5960   23.7190  -29.3790 N   0  0  0  0  0  0  0  0  0  0  0  0
   -6.3180   23.6580  -30.9590 S   0  0  0  0  0  0  0  0  0  0  0  0
   -7.6410   24.3710  -30.9350 O   0  0  0  0  0  0  0  0  0  0  0  0
   -5.4050   24.3400  -31.9390 O   0  0  0  0  0  0  0  0  0  0  0  0
   -6.5870   21.9770  -31.4270 C   0  0  0  0  0  0  0  0  0  0  0  0
   -7.7990   21.3380  -31.1250 C   0  0  0  0  0  0  0  0  0  0  0  0
   -8.0700   20.0630  -31.6330 C   0  0  0  0  0  0  0  0  0  0  0  0
   -7.1390   19.4240  -32.4570 C   0  0  0  0  0  0  0  0  0  0  0  0
   -7.4200   18.2050  -32.9900 N   0  0  0  0  0  0  0  0  0  0  0  0
   -6.5450   17.5630  -33.8090 C   0  0  0  0  0  0  0  0  0  0  0  0
   -6.8430   16.4350  -34.2810 O   0  0  0  0  0  0  0  0  0  0  0  0
   -5.3170   18.1540  -34.1240 C   0  0  0  0  0  0  0  0  0  0  0  0
   -4.9980   19.4050  -33.5910 C   0  0  0  0  0  0  0  0  0  0  0  0
   -5.9080   20.0540  -32.7490 C   0  0  0  0  0  0  0  0  0  0  0  0
   -5.6320   21.3200  -32.2160 C   0  0  0  0  0  0  0  0  0  0  0  0
   -3.1990   24.2030  -29.6560 C   0  0  0  0  0  0  0  0  0  0  0  0
   -3.5050   25.3030  -30.4510 O   0  0  0  0  0  0  0  0  0  0  0  0
   -1.8680   23.9550  -29.3110 C   0  0  0  0  0  0  0  0  0  0  0  0
   -1.5390   22.8890  -28.4610 C   0  0  0  0  0  0  0  0  0  0  0  0
   -0.0970   22.6640  -28.0720 C   0  0  0  0  0  0  0  0  0  0  0  0
   -0.0379   22.0747  -24.7332 H   0  0  0  0  0  0  0  0  0  0  0  0
    0.3411   23.5827  -25.6327 H   0  0  0  0  0  0  0  0  0  0  0  0
   -1.3339   22.9337  -25.6327 H   0  0  0  0  0  0  0  0  0  0  0  0
   -0.4001   20.0392  -27.7730 H   0  0  0  0  0  0  0  0  0  0  0  0
   -0.5995   20.0803  -25.9648 H   0  0  0  0  0  0  0  0  0  0  0  0
   -2.7339   19.9693  -27.4308 H   0  0  0  0  0  0  0  0  0  0  0  0
   -2.6413   21.1867  -26.0805 H   0  0  0  0  0  0  0  0  0  0  0  0
   -4.6664   21.5498  -28.0789 H   0  0  0  0  0  0  0  0  0  0  0  0
   -6.2440   23.7610  -28.5610 H   0  0  0  0  0  0  0  0  0  0  0  0
   -8.5393   21.8417  -30.4861 H   0  0  0  0  0  0  0  0  0  0  0  0
   -9.0173   19.5625  -31.3836 H   0  0  0  0  0  0  0  0  0  0  0  0
   -4.6075   17.6371  -34.7869 H   0  0  0  0  0  0  0  0  0  0  0  0
   -4.0348   19.8784  -33.8322 H   0  0  0  0  0  0  0  0  0  0  0  0
   -4.6630   21.8001  -32.4171 H   0  0  0  0  0  0  0  0  0  0  0  0
   -1.0717   24.6010  -29.7092 H   0  0  0  0  0  0  0  0  0  0  0  0
    0.4094   22.1311  -28.8902 H   0  0  0  0  0  0  0  0  0  0  0  0
    0.3556   23.6495  -27.8877 H   0  0  0  0  0  0  0  0  0  0  0  0
  1  2  1  0
  2  3  1  0
  3  4  1  0
  4  5  1  0
  5  6  2  0
  6  7  1  0
  7  8  1  0
  8  9  1  0
  9 10  2  0
  9 11  2  0
  9 12  1  0
 12 13  2  0
 13 14  1  0
 14 15  2  0
 15 16  1  0
 16 17  1  0
 17 18  2  0
 17 19  1  0
 19 20  2  0
 20 21  1  0
 21 22  2  0
  7 23  2  0
 23 24  1  0
 23 25  1  0
 25 26  2  0
 26 27  1  0
 27  2  1  0
 26  5  1  0
 22 12  1  0
 21 15  1  0
  1 28  1  0
  1 29  1  0
  1 30  1  0
  3 31  1  0
  3 32  1  0
  4 33  1  0
  4 34  1  0
  6 35  1  0
  8 36  1  0
 13 37  1  0
 14 38  1  0
 19 39  1  0
 20 40  1  0
 22 41  1  0
 25 42  1  0
 27 43  1  0
 27 44  1  0
M  CHG  2  16  -1  24  -1
M  END
>  <UniqueID>  (2) 
2

>  <SMILES>  (2) 
CN1CCc2cc(NS(=O)(=O)c3ccc4[n-]c(=O)ccc4c3)c([O-])cc2C1

>  <Energy>  (2) 
58.598658653341936

>  <Genealogy>  (2) 
CN1CCc2cc(NS(=O)(=O)c3ccc4[n-]c(=O)ccc4c3)c([O-])cc2C1 (protonated)
CN1CCc2cc(NS(=O)(=O)c3ccc4[n-]c(=O)ccc4c3)c([O-])cc2C1 (3D coordinates assigned)
CN1CCc2cc(NS(=O)(=O)c3ccc4[n-]c(=O)ccc4c3)c([O-])cc2C1 (nonaromatic ring conformer: 58.598658653341936 kcal/mol)

>  <smiles>  (2) 
CN1CCc2cc(NS(=O)(=O)c3ccc4[nH]c(=O)ccc4c3)c(O)cc2C1

>  <score_type>  (2) 
oracle

>  <origin>  (2) 
adgpu

>  <m_score__min__energy>  (2) 
-12.81

>  <m_primary>  (2) 
energy

$$$$
2:0
     RDKit          3D

 60 63  0  0  0  0  0  0  0  0999 V2000
   -8.3700   20.1390  -32.2870 C   0  0  0  0  0  0  0  0  0  0  0  0
   -7.0600   19.7810  -31.5920 C   0  0  0  0  0  0  0  0  0  0  0  0
   -6.0670   19.2050  -32.5660 C   0  0  0  0  0  0  0  0  0  0  0  0
   -6.4880   18.2120  -33.4630 C   0  0  0  0  0  0  0  0  0  0  0  0
   -5.6050   17.7000  -34.4150 C   0  0  0  0  0  0  0  0  0  0  0  0
   -4.2940   18.1750  -34.4800 C   0  0  0  0  0  0  0  0  0  0  0  0
   -3.8590   19.1520  -33.5870 C   0  0  0  0  0  0  0  0  0  0  0  0
   -4.7340   19.6690  -32.6130 C   0  0  0  0  0  0  0  0  0  0  0  0
   -4.2840   20.6320  -31.6500 N   0  0  0  0  0  0  0  0  0  0  0  0
   -3.8840   22.2710  -32.0300 S   0  0  0  0  0  0  0  0  0  0  0  0
   -3.7430   22.4370  -33.5150 O   0  0  0  0  0  0  0  0  0  0  0  0
   -2.5680   22.6250  -31.4000 O   0  0  0  0  0  0  0  0  0  0  0  0
   -5.1520   23.3250  -31.3890 C   0  0  0  0  0  0  0  0  0  0  0  0
   -6.4930   22.9900  -31.6270 C   0  0  0  0  0  0  0  0  0  0  0  0
   -7.5270   23.7760  -31.1220 C   0  0  0  0  0  0  0  0  0  0  0  0
   -7.2340   24.9180  -30.3820 C   0  0  0  0  0  0  0  0  0  0  0  0
   -5.9030   25.2620  -30.1240 C   0  0  0  0  0  0  0  0  0  0  0  0
   -4.8490   24.4600  -30.5990 C   0  0  0  0  0  0  0  0  0  0  0  0
   -3.4860   24.8170  -30.3080 N   0  0  0  0  0  0  0  0  0  0  0  0
   -2.7310   24.2840  -29.2060 C   0  0  0  0  0  0  0  0  0  0  0  0
   -3.1910   23.1220  -28.5690 C   0  0  0  0  0  0  0  0  0  0  0  0
   -2.4880   22.5760  -27.4980 C   0  0  0  0  0  0  0  0  0  0  0  0
   -1.3220   23.1850  -27.0440 C   0  0  0  0  0  0  0  0  0  0  0  0
   -0.8660   24.3660  -27.6380 C   0  0  0  0  0  0  0  0  0  0  0  0
    0.3600   24.9920  -27.1190 C   0  0  0  0  0  0  0  0  0  0  0  0
    1.4390   24.7970  -27.7390 O   0  0  0  0  0  0  0  0  0  0  0  0
    0.3360   25.8380  -25.9550 N   0  0  0  0  0  0  0  0  0  0  0  0
   -0.8790   25.9030  -25.1350 C   0  0  0  0  0  0  0  0  0  0  0  0
   -0.7230   26.8620  -23.9600 C   0  0  0  0  0  0  0  0  0  0  0  0
    0.5390   26.6740  -23.3660 O   0  0  0  0  0  0  0  0  0  0  0  0
    1.5170   27.2370  -24.2050 C   0  0  0  0  0  0  0  0  0  0  0  0
    1.5720   26.5550  -25.5870 C   0  0  0  0  0  0  0  0  0  0  0  0
   -1.5780   24.9320  -28.7160 C   0  0  0  0  0  0  0  0  0  0  0  0
   -1.1760   26.1390  -29.2880 O   0  0  0  0  0  0  0  0  0  0  0  0
   -9.1406   20.3496  -31.5308 H   0  0  0  0  0  0  0  0  0  0  0  0
   -8.2202   21.0291  -32.9157 H   0  0  0  0  0  0  0  0  0  0  0  0
   -8.6937   19.2964  -32.9157 H   0  0  0  0  0  0  0  0  0  0  0  0
   -6.6340   20.6887  -31.1398 H   0  0  0  0  0  0  0  0  0  0  0  0
   -7.2700   19.0254  -30.8206 H   0  0  0  0  0  0  0  0  0  0  0  0
   -7.5202   17.8346  -33.4158 H   0  0  0  0  0  0  0  0  0  0  0  0
   -5.9426   16.9213  -35.1148 H   0  0  0  0  0  0  0  0  0  0  0  0
   -3.6030   17.7772  -35.2378 H   0  0  0  0  0  0  0  0  0  0  0  0
   -2.8246   19.5219  -33.6435 H   0  0  0  0  0  0  0  0  0  0  0  0
   -6.7317   22.0949  -32.2202 H   0  0  0  0  0  0  0  0  0  0  0  0
   -8.5739   23.4942  -31.3080 H   0  0  0  0  0  0  0  0  0  0  0  0
   -8.0493   25.5500  -30.0001 H   0  0  0  0  0  0  0  0  0  0  0  0
   -5.6779   26.1690  -29.5437 H   0  0  0  0  0  0  0  0  0  0  0  0
   -3.0780   25.6340  -30.8050 H   0  0  0  0  0  0  0  0  0  0  0  0
   -4.1149   22.6379  -28.9184 H   0  0  0  0  0  0  0  0  0  0  0  0
   -2.8552   21.6612  -27.0098 H   0  0  0  0  0  0  0  0  0  0  0  0
   -0.7566   22.7355  -26.2144 H   0  0  0  0  0  0  0  0  0  0  0  0
   -1.7143   26.2445  -25.7639 H   0  0  0  0  0  0  0  0  0  0  0  0
   -1.0710   24.8981  -24.7309 H   0  0  0  0  0  0  0  0  0  0  0  0
   -0.8089   27.8984  -24.3185 H   0  0  0  0  0  0  0  0  0  0  0  0
   -1.5108   26.6645  -23.2181 H   0  0  0  0  0  0  0  0  0  0  0  0
    1.2888   28.3037  -24.3467 H   0  0  0  0  0  0  0  0  0  0  0  0
    2.4949   27.0937  -23.7220 H   0  0  0  0  0  0  0  0  0  0  0  0
    1.7620   27.3279  -26.3463 H   0  0  0  0  0  0  0  0  0  0  0  0
    2.3724   25.8021  -25.5374 H   0  0  0  0  0  0  0  0  0  0  0  0
   -0.2090   26.4310  -29.3440 H   0  0  0  0  0  0  0  0  0  0  0  0
  1  2  1  0
  2  3  1  0
  3  4  2  0
  4  5  1  0
  5  6  2  0
  6  7  1  0
  7  8  2  0
  8  9  1  0
  9 10  1  0
 10 11  2  0
 10 12  2  0
 10 13  1  0
 13 14  2  0
 14 15  1  0
 15 16  2  0
 16 17  1  0
 17 18  2  0
 18 19  1  0
 19 20  1  0
 20 21  2  0
 21 22  1  0
 22 23  2  0
 23 24  1  0
 24 25  1  0
 25 26  2  0
 25 27  1  0
 27 28  1  0
 28 29  1  0
 29 30  1  0
 30 31  1  0
 31 32  1  0
 24 33  2  0
 33 34  1  0
  8  3  1  0
 18 13  1  0
 33 20  1  0
 32 27  1  0
  1 35  1  0
  1 36  1  0
  1 37  1  0
  2 38  1  0
  2 39  1  0
  4 40  1  0
  5 41  1  0
  6 42  1  0
  7 43  1  0
 14 44  1  0
 15 45  1  0
 16 46  1  0
 17 47  1  0
 19 48  1  0
 21 49  1  0
 22 50  1  0
 23 51  1  0
 28 52  1  0
 28 53  1  0
 29 54  1  0
 29 55  1  0
 31 56  1  0
 31 57  1  0
 32 58  1  0
 32 59  1  0
 34 60  1  0
M  CHG  1   9  -1
M  END
>  <UniqueID>  (3) 
3

>  <SMILES>  (3) 
CCc1ccccc1[N-]S(=O)(=O)c1ccccc1Nc1cccc(C(=O)N2CCOCC2)c1O

>  <Energy>  (3) 
83.97628627187302

>  <Genealogy>  (3) 
CCc1ccccc1[N-]S(=O)(=O)c1ccccc1Nc1cccc(C(=O)N2CCOCC2)c1O (protonated)
CCc1ccccc1[N-]S(=O)(=O)c1ccccc1Nc1cccc(C(=O)N2CCOCC2)c1O (3D coordinates assigned)
CCc1ccccc1[N-]S(=O)(=O)c1ccccc1Nc1cccc(C(=O)N2CCOCC2)c1O (nonaromatic ring conformer: 83.97628627187302 kcal/mol)

>  <smiles>  (3) 
CCc1ccccc1NS(=O)(=O)c1ccccc1Nc1cccc(C(=O)N2CCOCC2)c1O

>  <score_type>  (3) 
oracle

>  <origin>  (3) 
adgpu

>  <m_score__min__energy>  (3) 
-11.01

>  <m_primary>  (3) 
energy

$$$$
3:0
     RDKit          3D

 67 71  0  0  0  0  0  0  0  0999 V2000
   -4.8900   16.1410  -34.9710 O   0  0  0  0  0  0  0  0  0  0  0  0
   -4.5340   17.1410  -34.2890 C   0  0  0  0  0  0  0  0  0  0  0  0
   -3.0920   17.5920  -34.3720 C   0  0  0  0  0  0  0  0  0  0  0  0
   -2.5120   17.9270  -32.9780 C   0  0  0  0  0  0  0  0  0  0  0  0
   -1.0470   17.4780  -32.8200 C   0  0  0  0  0  0  0  0  0  0  0  0
   -0.2330   17.7390  -34.0250 N   0  0  0  0  0  0  0  0  0  0  0  0
    0.1590   19.4360  -34.2040 S   0  0  0  0  0  0  0  0  0  0  0  0
   -0.3210   19.9490  -35.5340 O   0  0  0  0  0  0  0  0  0  0  0  0
    1.6520   19.6070  -34.1450 O   0  0  0  0  0  0  0  0  0  0  0  0
   -0.5630   20.3830  -32.9060 C   0  0  0  0  0  0  0  0  0  0  0  0
   -1.6320   21.2520  -33.1690 C   0  0  0  0  0  0  0  0  0  0  0  0
   -2.2260   21.9710  -32.1290 C   0  0  0  0  0  0  0  0  0  0  0  0
   -1.7550   21.8330  -30.8160 C   0  0  0  0  0  0  0  0  0  0  0  0
   -2.5380   22.7130  -29.5060 S   0  0  0  0  0  0  0  0  0  0  0  0
   -1.9840   22.2540  -28.1850 O   0  0  0  0  0  0  0  0  0  0  0  0
   -2.2260   24.1750  -29.6650 O   0  0  0  0  0  0  0  0  0  0  0  0
   -4.2740   22.4800  -29.5670 N   0  0  0  0  0  0  0  0  0  0  0  0
   -4.9950   23.4920  -28.7750 C   0  0  0  0  0  0  0  0  0  0  0  0
   -5.0100   24.8770  -29.4660 C   0  0  0  0  0  0  0  0  0  0  0  0
   -4.7040   24.8240  -30.8500 O   0  0  0  0  0  0  0  0  0  0  0  0
   -5.3670   23.7360  -31.4530 C   0  0  0  0  0  0  0  0  0  0  0  0
   -4.7690   22.4030  -30.9600 C   0  0  0  0  0  0  0  0  0  0  0  0
   -0.6880   20.9620  -30.5520 C   0  0  0  0  0  0  0  0  0  0  0  0
   -0.0970   20.2390  -31.5930 C   0  0  0  0  0  0  0  0  0  0  0  0
   -0.7790   17.1630  -35.2810 C   0  0  0  0  0  0  0  0  0  0  0  0
   -2.2070   16.6040  -35.1470 C   0  0  0  0  0  0  0  0  0  0  0  0
   -5.5020   17.7970  -33.4440 N   0  0  0  0  0  0  0  0  0  0  0  0
   -6.1290   17.0720  -32.3370 C   0  0  0  0  0  0  0  0  0  0  0  0
   -7.5820   17.5200  -32.1780 C   0  0  0  0  0  0  0  0  0  0  0  0
   -7.7010   19.0200  -32.1520 C   0  0  0  0  0  0  0  0  0  0  0  0
   -8.8400   19.6060  -31.5750 C   0  0  0  0  0  0  0  0  0  0  0  0
   -9.0030   20.9940  -31.5860 C   0  0  0  0  0  0  0  0  0  0  0  0
   -8.0380   21.8060  -32.1850 C   0  0  0  0  0  0  0  0  0  0  0  0
   -6.9100   21.2330  -32.7780 C   0  0  0  0  0  0  0  0  0  0  0  0
   -6.7360   19.8400  -32.7770 C   0  0  0  0  0  0  0  0  0  0  0  0
   -5.4810   19.2640  -33.3920 C   0  0  0  0  0  0  0  0  0  0  0  0
   -3.0896   18.5255  -34.9539 H   0  0  0  0  0  0  0  0  0  0  0  0
   -2.5647   19.0153  -32.8272 H   0  0  0  0  0  0  0  0  0  0  0  0
   -3.1085   17.3834  -32.2306 H   0  0  0  0  0  0  0  0  0  0  0  0
   -0.6031   18.0204  -31.9722 H   0  0  0  0  0  0  0  0  0  0  0  0
   -1.0509   16.3907  -32.6532 H   0  0  0  0  0  0  0  0  0  0  0  0
   -2.0039   21.3678  -34.1977 H   0  0  0  0  0  0  0  0  0  0  0  0
   -3.0666   22.6481  -32.3412 H   0  0  0  0  0  0  0  0  0  0  0  0
   -6.0328   23.1564  -28.6327 H   0  0  0  0  0  0  0  0  0  0  0  0
   -4.4728   23.6014  -27.8130 H   0  0  0  0  0  0  0  0  0  0  0  0
   -6.0126   25.3138  -29.3479 H   0  0  0  0  0  0  0  0  0  0  0  0
   -4.2296   25.4857  -28.9860 H   0  0  0  0  0  0  0  0  0  0  0  0
   -6.4351   23.7727  -31.1924 H   0  0  0  0  0  0  0  0  0  0  0  0
   -5.2420   23.8017  -32.5439 H   0  0  0  0  0  0  0  0  0  0  0  0
   -5.5464   21.6267  -31.0149 H   0  0  0  0  0  0  0  0  0  0  0  0
   -3.9105   22.1649  -31.6052 H   0  0  0  0  0  0  0  0  0  0  0  0
   -0.3150   20.8472  -29.5235 H   0  0  0  0  0  0  0  0  0  0  0  0
    0.7372   19.5544  -31.3798 H   0  0  0  0  0  0  0  0  0  0  0  0
   -0.7872   17.9517  -36.0478 H   0  0  0  0  0  0  0  0  0  0  0  0
   -0.1306   16.3160  -35.5498 H   0  0  0  0  0  0  0  0  0  0  0  0
   -2.6309   16.4455  -36.1496 H   0  0  0  0  0  0  0  0  0  0  0  0
   -2.1696   15.6501  -34.6005 H   0  0  0  0  0  0  0  0  0  0  0  0
   -6.1010   15.9924  -32.5458 H   0  0  0  0  0  0  0  0  0  0  0  0
   -5.5806   17.2854  -31.4077 H   0  0  0  0  0  0  0  0  0  0  0  0
   -8.1699   17.1301  -33.0220 H   0  0  0  0  0  0  0  0  0  0  0  0
   -7.9593   17.1289  -31.2216 H   0  0  0  0  0  0  0  0  0  0  0  0
   -9.6078   18.9688  -31.1120 H   0  0  0  0  0  0  0  0  0  0  0  0
   -9.8919   21.4469  -31.1226 H   0  0  0  0  0  0  0  0  0  0  0  0
   -8.1659   22.8985  -32.1901 H   0  0  0  0  0  0  0  0  0  0  0  0
   -6.1532   21.8777  -33.2488 H   0  0  0  0  0  0  0  0  0  0  0  0
   -5.3803   19.6518  -34.4164 H   0  0  0  0  0  0  0  0  0  0  0  0
   -4.6317   19.5637  -32.7605 H   0  0  0  0  0  0  0  0  0  0  0  0
  1  2  2  0
  2  3  1  0
  3  4  1  0
  4  5  1  0
  5  6  1  0
  6  7  1  0
  7  8  2  0
  7  9  2  0
  7 10  1  0
 10 11  2  0
 11 12  1  0
 12 13  2  0
 13 14  1  0
 14 15  2  0
 14 16  2  0
 14 17  1  0
 17 18  1  0
 18 19  1  0
 19 20  1  0
 20 21  1  0
 21 22  1  0
 13 23  1  0
 23 24  2  0
  6 25  1  0
 25 26  1  0
  2 27  1  0
 27 28  1  0
 28 29  1  0
 29 30  1  0
 30 31  2  0
 31 32  1  0
 32 33  2  0
 33 34  1  0
 34 35  2  0
 35 36  1  0
 26  3  1  0
 36 27  1  0
 24 10  1  0
 35 30  1  0
 22 17  1  0
  3 37  1  0
  4 38  1  0
  4 39  1  0
  5 40  1  0
  5 41  1  0
 11 42  1  0
 12 43  1  0
 18 44  1  0
 18 45  1  0
 19 46  1  0
 19 47  1  0
 21 48  1  0
 21 49  1  0
 22 50  1  0
 22 51  1  0
 23 52  1  0
 24 53  1  0
 25 54  1  0
 25 55  1  0
 26 56  1  0
 26 57  1  0
 28 58  1  0
 28 59  1  0
 29 60  1  0
 29 61  1  0
 31 62  1  0
 32 63  1  0
 33 64  1  0
 34 65  1  0
 36 66  1  0
 36 67  1  0
M  END
>  <UniqueID>  (4) 
4

>  <SMILES>  (4) 
O=C(C1CCN(S(=O)(=O)c2ccc(S(=O)(=O)N3CCOCC3)cc2)CC1)N1CCc2ccccc2C1

>  <Energy>  (4) 
94.55752469328628

>  <Genealogy>  (4) 
O=C(C1CCN(S(=O)(=O)c2ccc(S(=O)(=O)N3CCOCC3)cc2)CC1)N1CCc2ccccc2C1 (3D coordinates assigned)
O=C(C1CCN(S(=O)(=O)c2ccc(S(=O)(=O)N3CCOCC3)cc2)CC1)N1CCc2ccccc2C1 (nonaromatic ring conformer: 94.55752469328628 kcal/mol)

>  <smiles>  (4) 
O=C(C1CCN(S(=O)(=O)c2ccc(S(=O)(=O)N3CCOCC3)cc2)CC1)N1CCc2ccccc2C1

>  <score_type>  (4) 
oracle

>  <origin>  (4) 
adgpu

>  <m_score__min__energy>  (4) 
-11.699999999999999

>  <m_primary>  (4) 
energy

$$$$
4:0
     RDKit          3D

 66 71  0  0  0  0  0  0  0  0999 V2000
   -1.2550   25.8260  -28.9020 O   0  0  0  0  0  0  0  0  0  0  0  0
   -2.3780   24.8270  -28.9210 S   0  0  0  0  0  0  0  0  0  0  0  0
   -3.0690   24.8610  -27.5850 O   0  0  0  0  0  0  0  0  0  0  0  0
   -3.5040   25.2600  -30.1580 N   0  0  0  0  0  0  0  0  0  0  0  0
   -4.6070   24.4080  -30.4710 C   0  0  0  0  0  0  0  0  0  0  0  0
   -4.3860   23.1840  -31.1140 C   0  0  0  0  0  0  0  0  0  0  0  0
   -5.4660   22.3520  -31.4490 C   0  0  0  0  0  0  0  0  0  0  0  0
   -6.7760   22.7360  -31.0930 C   0  0  0  0  0  0  0  0  0  0  0  0
   -6.9900   23.9710  -30.4610 C   0  0  0  0  0  0  0  0  0  0  0  0
   -5.9100   24.8060  -30.1510 C   0  0  0  0  0  0  0  0  0  0  0  0
   -6.1260   26.0300  -29.5180 O   0  0  0  0  0  0  0  0  0  0  0  0
   -7.9570   21.8860  -31.4810 C   0  0  0  0  0  0  0  0  0  0  0  0
   -7.5550   20.4870  -31.7250 N   0  0  0  0  0  0  0  0  0  0  0  0
   -8.7280   19.6930  -32.1270 C   0  0  0  0  0  0  0  0  0  0  0  0
   -8.3580   18.2140  -32.1190 C   0  0  0  0  0  0  0  0  0  0  0  0
   -7.1460   17.9670  -32.9680 C   0  0  0  0  0  0  0  0  0  0  0  0
   -6.9070   16.6720  -33.4580 C   0  0  0  0  0  0  0  0  0  0  0  0
   -5.8040   16.4190  -34.2740 C   0  0  0  0  0  0  0  0  0  0  0  0
   -4.9360   17.4550  -34.6150 C   0  0  0  0  0  0  0  0  0  0  0  0
   -5.1540   18.7440  -34.1230 C   0  0  0  0  0  0  0  0  0  0  0  0
   -6.2320   19.0110  -33.2560 C   0  0  0  0  0  0  0  0  0  0  0  0
   -6.4830   20.4320  -32.7500 C   0  0  2  0  0  0  0  0  0  0  0  0
   -5.2010   21.0300  -32.1280 C   0  0  0  0  0  0  0  0  0  0  0  0
   -1.7190   23.2250  -29.2330 C   0  0  0  0  0  0  0  0  0  0  0  0
   -0.6230   23.0610  -30.0930 C   0  0  0  0  0  0  0  0  0  0  0  0
   -0.1270   21.7810  -30.3620 C   0  0  0  0  0  0  0  0  0  0  0  0
   -0.7210   20.6550  -29.7730 C   0  0  0  0  0  0  0  0  0  0  0  0
   -0.1430   19.0360  -30.1680 S   0  0  0  0  0  0  0  0  0  0  0  0
   -0.4810   18.1090  -29.0330 O   0  0  0  0  0  0  0  0  0  0  0  0
    1.3530   19.0660  -30.3040 O   0  0  0  0  0  0  0  0  0  0  0  0
   -0.8480   18.4140  -31.6490 N   0  0  0  0  0  0  0  0  0  0  0  0
    0.1550   18.2020  -32.7100 C   0  0  0  0  0  0  0  0  0  0  0  0
    0.4760   19.4850  -33.5110 C   0  0  0  0  0  0  0  0  0  0  0  0
   -0.3400   20.5820  -33.1540 O   0  0  0  0  0  0  0  0  0  0  0  0
   -1.6940   20.2010  -33.2070 C   0  0  0  0  0  0  0  0  0  0  0  0
   -2.0240   19.1890  -32.0940 C   0  0  0  0  0  0  0  0  0  0  0  0
   -1.7970   20.8230  -28.8890 C   0  0  0  0  0  0  0  0  0  0  0  0
   -2.2930   22.1030  -28.6220 C   0  0  0  0  0  0  0  0  0  0  0  0
   -3.3597   22.8724  -31.3582 H   0  0  0  0  0  0  0  0  0  0  0  0
   -8.0134   24.2848  -30.2076 H   0  0  0  0  0  0  0  0  0  0  0  0
   -5.3940   26.4900  -28.9880 H   0  0  0  0  0  0  0  0  0  0  0  0
   -8.6975   21.9092  -30.6679 H   0  0  0  0  0  0  0  0  0  0  0  0
   -8.3853   22.2907  -32.4098 H   0  0  0  0  0  0  0  0  0  0  0  0
   -9.5521   19.8701  -31.4202 H   0  0  0  0  0  0  0  0  0  0  0  0
   -9.0464   19.9891  -33.1374 H   0  0  0  0  0  0  0  0  0  0  0  0
   -8.1457   17.9003  -31.0863 H   0  0  0  0  0  0  0  0  0  0  0  0
   -9.2002   17.6361  -32.5274 H   0  0  0  0  0  0  0  0  0  0  0  0
   -7.5934   15.8531  -33.1968 H   0  0  0  0  0  0  0  0  0  0  0  0
   -5.6192   15.4014  -34.6485 H   0  0  0  0  0  0  0  0  0  0  0  0
   -4.0772   17.2570  -35.2732 H   0  0  0  0  0  0  0  0  0  0  0  0
   -4.4765   19.5597  -34.4157 H   0  0  0  0  0  0  0  0  0  0  0  0
   -6.7960   21.0146  -33.6289 H   0  0  0  0  0  0  0  0  0  0  0  0
   -4.8032   20.3227  -31.3854 H   0  0  0  0  0  0  0  0  0  0  0  0
   -4.4785   21.2032  -32.9391 H   0  0  0  0  0  0  0  0  0  0  0  0
   -0.1527   23.9406  -30.5567 H   0  0  0  0  0  0  0  0  0  0  0  0
    0.7320   21.6570  -31.0379 H   0  0  0  0  0  0  0  0  0  0  0  0
    1.0835   17.8385  -32.2455 H   0  0  0  0  0  0  0  0  0  0  0  0
   -0.2668   17.4726  -33.4171 H   0  0  0  0  0  0  0  0  0  0  0  0
    1.5264   19.7568  -33.3298 H   0  0  0  0  0  0  0  0  0  0  0  0
    0.2835   19.2654  -34.5715 H   0  0  0  0  0  0  0  0  0  0  0  0
   -2.3245   21.0935  -33.0808 H   0  0  0  0  0  0  0  0  0  0  0  0
   -1.8882   19.7281  -34.1810 H   0  0  0  0  0  0  0  0  0  0  0  0
   -2.4290   19.7375  -31.2308 H   0  0  0  0  0  0  0  0  0  0  0  0
   -2.7516   18.4741  -32.5056 H   0  0  0  0  0  0  0  0  0  0  0  0
   -2.2516   19.9462  -28.4048 H   0  0  0  0  0  0  0  0  0  0  0  0
   -3.1378   22.2292  -27.9289 H   0  0  0  0  0  0  0  0  0  0  0  0
  1  2  2  0
  2  3  2  0
  2  4  1  0
  4  5  1  0
  5  6  2  0
  6  7  1  0
  7  8  2  0
  8  9  1  0
  9 10  2  0
 10 11  1  0
  8 12  1  0
 12 13  1  0
 13 14  1  0
 14 15  1  0
 15 16  1  0
 16 17  2  0
 17 18  1  0
 18 19  2  0
 19 20  1  0
 20 21  2  0
 21 22  1  0
 22 23  1  0
  2 24  1  0
 24 25  2  0
 25 26  1  0
 26 27  2  0
 27 28  1  0
 28 29  2  0
 28 30  2  0
 28 31  1  0
 31 32  1  0
 32 33  1  0
 33 34  1  0
 34 35  1  0
 35 36  1  0
 27 37  1  0
 37 38  2  0
 10  5  1  0
 22 13  1  0
 38 24  1  0
 23  7  1  0
 36 31  1  0
 21 16  1  0
  6 39  1  0
  9 40  1  0
 11 41  1  0
 12 42  1  0
 12 43  1  0
 14 44  1  0
 14 45  1  0
 15 46  1  0
 15 47  1  0
 17 48  1  0
 18 49  1  0
 19 50  1  0
 20 51  1  0
 22 52  1  6
 23 53  1  0
 23 54  1  0
 25 55  1  0
 26 56  1  0
 32 57  1  0
 32 58  1  0
 33 59  1  0
 33 60  1  0
 35 61  1  0
 35 62  1  0
 36 63  1  0
 36 64  1  0
 37 65  1  0
 38 66  1  0
M  CHG  1   4  -1
M  END
>  <UniqueID>  (5) 
5

>  <SMILES>  (5) 
O=S(=O)([N-]c1cc2c(cc1O)CN1CCc3ccccc3[C@@H]1C2)c1ccc(S(=O)(=O)N2CCOCC2)cc1

>  <Energy>  (5) 
99.28739903945669

>  <Genealogy>  (5) 
O=S(=O)([N-]c1cc2c(cc1O)CN1CCc3ccccc3C1C2)c1ccc(S(=O)(=O)N2CCOCC2)cc1 (protonated)
O=S(=O)([N-]c1cc2c(cc1O)CN1CCc3ccccc3[C@@H]1C2)c1ccc(S(=O)(=O)N2CCOCC2)cc1 (chirality)
O=S(=O)([N-]c1cc2c(cc1O)CN1CCc3ccccc3[C@@H]1C2)c1ccc(S(=O)(=O)N2CCOCC2)cc1 (3D coordinates assigned)
O=S(=O)([N-]c1cc2c(cc1O)CN1CCc3ccccc3[C@@H]1C2)c1ccc(S(=O)(=O)N2CCOCC2)cc1 (nonaromatic ring conformer: 99.28739903945669 kcal/mol)

>  <smiles>  (5) 
O=S(=O)(Nc1cc2c(cc1O)CN1CCc3ccccc3C1C2)c1ccc(S(=O)(=O)N2CCOCC2)cc1

>  <score_type>  (5) 
oracle

>  <origin>  (5) 
adgpu

>  <m_score__min__energy>  (5) 
-13.640000000000001

>  <m_primary>  (5) 
energy

$$$$
5:0
     RDKit          3D

 80 84  0  0  0  0  0  0  0  0999 V2000
   -1.9680   15.9870  -34.3870 C   0  0  0  0  0  0  0  0  0  0  0  0
   -3.4340   15.6270  -34.6740 C   0  0  0  0  0  0  0  0  0  0  0  0
   -4.4080   16.6680  -34.2820 N   0  0  0  0  0  0  0  0  0  0  0  0
   -5.4880   16.1770  -33.4080 C   0  0  0  0  0  0  0  0  0  0  0  0
   -6.1430   17.3710  -32.7040 C   0  0  0  0  0  0  0  0  0  0  0  0
   -6.1440   18.5520  -33.5780 N   0  0  0  0  0  0  0  0  0  0  0  0
   -5.8750   19.8480  -33.0190 C   0  0  0  0  0  0  0  0  0  0  0  0
   -6.9530   20.6940  -32.7190 C   0  0  0  0  0  0  0  0  0  0  0  0
   -6.7310   21.9770  -32.2240 C   0  0  0  0  0  0  0  0  0  0  0  0
   -5.4220   22.4370  -32.0110 C   0  0  0  0  0  0  0  0  0  0  0  0
   -5.1650   23.7750  -31.5600 N   0  0  0  0  0  0  0  0  0  0  0  0
   -4.1350   24.1600  -30.6420 C   0  0  0  0  0  0  0  0  0  0  0  0
   -3.8540   25.3760  -30.4750 O   0  0  0  0  0  0  0  0  0  0  0  0
   -3.3790   23.1440  -29.9690 N   0  0  0  0  0  0  0  0  0  0  0  0
   -2.3900   23.4370  -28.9720 C   0  0  0  0  0  0  0  0  0  0  0  0
   -1.2540   24.2000  -29.2810 C   0  0  0  0  0  0  0  0  0  0  0  0
   -0.3090   24.4900  -28.2910 C   0  0  0  0  0  0  0  0  0  0  0  0
   -0.4820   24.0050  -26.9840 C   0  0  0  0  0  0  0  0  0  0  0  0
    0.6990   24.3760  -25.7270 S   0  0  0  0  0  0  0  0  0  0  0  0
    0.4140   23.5370  -24.5100 O   0  0  0  0  0  0  0  0  0  0  0  0
    2.0810   24.0390  -26.2240 O   0  0  0  0  0  0  0  0  0  0  0  0
    0.6380   26.0790  -25.3330 N   0  0  0  0  0  0  0  0  0  0  0  0
   -0.7180   26.6110  -25.4570 C   0  0  0  0  0  0  0  0  0  0  0  0
   -0.8080   27.7760  -24.4960 C   0  0  0  0  0  0  0  0  0  0  0  0
    0.1570   27.4240  -23.3840 C   0  0  0  0  0  0  0  0  0  0  0  0
    1.0470   26.3190  -23.9460 C   0  0  0  0  0  0  0  0  0  0  0  0
   -1.6120   23.2380  -26.6800 C   0  0  0  0  0  0  0  0  0  0  0  0
   -2.5690   22.9700  -27.6620 C   0  0  0  0  0  0  0  0  0  0  0  0
   -4.3430   21.6060  -32.3260 C   0  0  0  0  0  0  0  0  0  0  0  0
   -4.5530   20.3010  -32.8060 C   0  0  0  0  0  0  0  0  0  0  0  0
   -3.1560   19.2530  -33.0940 S   0  0  0  0  0  0  0  0  0  0  0  0
   -3.0120   19.0260  -34.5740 O   0  0  0  0  0  0  0  0  0  0  0  0
   -3.3950   17.9310  -32.4160 O   0  0  0  0  0  0  0  0  0  0  0  0
   -1.7150   20.0140  -32.4310 N   0  0  0  0  0  0  0  0  0  0  0  0
   -1.3580   21.2840  -33.1100 C   0  0  0  0  0  0  0  0  0  0  0  0
   -0.1720   21.1610  -34.0940 C   0  0  0  0  0  0  0  0  0  0  0  0
   -0.0960   19.7690  -34.7210 C   0  0  0  0  0  0  0  0  0  0  0  0
    0.0250   18.6720  -33.6510 C   0  0  0  0  0  0  0  0  0  0  0  0
   -0.5810   19.0820  -32.2920 C   0  0  0  0  0  0  0  0  0  0  0  0
   -6.1040   18.3600  -35.0300 C   0  0  0  0  0  0  0  0  0  0  0  0
   -4.9160   17.4580  -35.4270 C   0  0  0  0  0  0  0  0  0  0  0  0
   -1.8063   16.0267  -33.2997 H   0  0  0  0  0  0  0  0  0  0  0  0
   -1.3099   15.2238  -34.8279 H   0  0  0  0  0  0  0  0  0  0  0  0
   -1.7383   16.9682  -34.8279 H   0  0  0  0  0  0  0  0  0  0  0  0
   -3.5388   15.4475  -35.7542 H   0  0  0  0  0  0  0  0  0  0  0  0
   -3.6632   14.7389  -34.0667 H   0  0  0  0  0  0  0  0  0  0  0  0
   -6.2394   15.6477  -34.0123 H   0  0  0  0  0  0  0  0  0  0  0  0
   -5.0743   15.4856  -32.6591 H   0  0  0  0  0  0  0  0  0  0  0  0
   -7.1803   17.1128  -32.4446 H   0  0  0  0  0  0  0  0  0  0  0  0
   -5.5692   17.6041  -31.7949 H   0  0  0  0  0  0  0  0  0  0  0  0
   -7.9829   20.3411  -32.8761 H   0  0  0  0  0  0  0  0  0  0  0  0
   -7.5852   22.6325  -31.9990 H   0  0  0  0  0  0  0  0  0  0  0  0
   -3.4490   22.1660  -30.3290 H   0  0  0  0  0  0  0  0  0  0  0  0
   -1.1057   24.5717  -30.3056 H   0  0  0  0  0  0  0  0  0  0  0  0
    0.5727   25.1000  -28.5369 H   0  0  0  0  0  0  0  0  0  0  0  0
   -0.9004   26.9520  -26.4868 H   0  0  0  0  0  0  0  0  0  0  0  0
   -1.4709   25.8432  -25.2253 H   0  0  0  0  0  0  0  0  0  0  0  0
   -0.5077   28.7118  -24.9900 H   0  0  0  0  0  0  0  0  0  0  0  0
   -1.8318   27.9362  -24.1269 H   0  0  0  0  0  0  0  0  0  0  0  0
    0.7615   28.3008  -23.1085 H   0  0  0  0  0  0  0  0  0  0  0  0
   -0.3708   27.0984  -22.4755 H   0  0  0  0  0  0  0  0  0  0  0  0
    2.1003   26.6345  -23.9153 H   0  0  0  0  0  0  0  0  0  0  0  0
    0.9436   25.4005  -23.3496 H   0  0  0  0  0  0  0  0  0  0  0  0
   -1.7477   22.8438  -25.6621 H   0  0  0  0  0  0  0  0  0  0  0  0
   -3.4677   22.3896  -27.4061 H   0  0  0  0  0  0  0  0  0  0  0  0
   -3.3159   21.9779  -32.1967 H   0  0  0  0  0  0  0  0  0  0  0  0
   -2.2370   21.6352  -33.6704 H   0  0  0  0  0  0  0  0  0  0  0  0
   -1.0468   21.9877  -32.3240 H   0  0  0  0  0  0  0  0  0  0  0  0
   -0.2947   21.9057  -34.8943 H   0  0  0  0  0  0  0  0  0  0  0  0
    0.7576   21.3338  -33.5320 H   0  0  0  0  0  0  0  0  0  0  0  0
   -1.0075   19.5931  -35.3111 H   0  0  0  0  0  0  0  0  0  0  0  0
    0.7992   19.7275  -35.3589 H   0  0  0  0  0  0  0  0  0  0  0  0
   -0.4976   17.7733  -34.0104 H   0  0  0  0  0  0  0  0  0  0  0  0
    1.0975   18.4881  -33.4897 H   0  0  0  0  0  0  0  0  0  0  0  0
   -0.9316   18.1762  -31.7757 H   0  0  0  0  0  0  0  0  0  0  0  0
    0.2046   19.5984  -31.7209 H   0  0  0  0  0  0  0  0  0  0  0  0
   -7.0417   17.8877  -35.3580 H   0  0  0  0  0  0  0  0  0  0  0  0
   -5.9817   19.3403  -35.5138 H   0  0  0  0  0  0  0  0  0  0  0  0
   -5.2444   16.7665  -36.2169 H   0  0  0  0  0  0  0  0  0  0  0  0
   -4.1006   18.1076  -35.7781 H   0  0  0  0  0  0  0  0  0  0  0  0
  1  2  1  0
  2  3  1  0
  3  4  1  0
  4  5  1  0
  5  6  1  0
  6  7  1  0
  7  8  2  0
  8  9  1  0
  9 10  2  0
 10 11  1  0
 11 12  1  0
 12 13  2  0
 12 14  1  0
 14 15  1  0
 15 16  2  0
 16 17  1  0
 17 18  2  0
 18 19  1  0
 19 20  2  0
 19 21  2  0
 19 22  1  0
 22 23  1  0
 23 24  1  0
 24 25  1  0
 25 26  1  0
 18 27  1  0
 27 28  2  0
 10 29  1  0
 29 30  2  0
 30 31  1  0
 31 32  2  0
 31 33  2  0
 31 34  1  0
 34 35  1  0
 35 36  1  0
 36 37  1  0
 37 38  1  0
 38 39  1  0
  6 40  1  0
 40 41  1  0
 41  3  1  0
 30  7  1  0
 39 34  1  0
 28 15  1  0
 26 22  1  0
  1 42  1  0
  1 43  1  0
  1 44  1  0
  2 45  1  0
  2 46  1  0
  4 47  1  0
  4 48  1  0
  5 49  1  0
  5 50  1  0
  8 51  1  0
  9 52  1  0
 14 53  1  0
 16 54  1  0
 17 55  1  0
 23 56  1  0
 23 57  1  0
 24 58  1  0
 24 59  1  0
 25 60  1  0
 25 61  1  0
 26 62  1  0
 26 63  1  0
 27 64  1  0
 28 65  1  0
 29 66  1  0
 35 67  1  0
 35 68  1  0
 36 69  1  0
 36 70  1  0
 37 71  1  0
 37 72  1  0
 38 73  1  0
 38 74  1  0
 39 75  1  0
 39 76  1  0
 40 77  1  0
 40 78  1  0
 41 79  1  0
 41 80  1  0
M  CHG  1  11  -1
M  END
>  <UniqueID>  (6) 
6

>  <SMILES>  (6) 
CCN1CCN(c2ccc([N-]C(=O)Nc3ccc(S(=O)(=O)N4CCCC4)cc3)cc2S(=O)(=O)N2CCCCC2)CC1

>  <Energy>  (6) 
113.93000469678172

>  <Genealogy>  (6) 
CCN1CCN(c2ccc([N-]C(=O)Nc3ccc(S(=O)(=O)N4CCCC4)cc3)cc2S(=O)(=O)N2CCCCC2)CC1 (protonated)
CCN1CCN(c2ccc([N-]C(=O)Nc3ccc(S(=O)(=O)N4CCCC4)cc3)cc2S(=O)(=O)N2CCCCC2)CC1 (3D coordinates assigned)
CCN1CCN(c2ccc([N-]C(=O)Nc3ccc(S(=O)(=O)N4CCCC4)cc3)cc2S(=O)(=O)N2CCCCC2)CC1 (nonaromatic ring conformer: 113.93000469678172 kcal/mol)

>  <smiles>  (6) 
CCN1CCN(c2ccc(NC(=O)Nc3ccc(S(=O)(=O)N4CCCC4)cc3)cc2S(=O)(=O)N2CCCCC2)CC1

>  <score_type>  (6) 
oracle

>  <origin>  (6) 
adgpu

>  <m_score__min__energy>  (6) 
-11.35

>  <m_primary>  (6) 
energy

$$$$
6:0
     RDKit          3D

 34 36  0  0  0  0  0  0  0  0999 V2000
   -1.5890   25.6480  -29.3300 N   0  0  0  0  0  0  0  0  0  0  0  0
   -0.9500   24.7490  -27.9960 S   0  0  0  0  0  0  0  0  0  0  0  0
    0.5510   24.7940  -28.0560 O   0  0  0  0  0  0  0  0  0  0  0  0
   -1.4220   25.3790  -26.7160 O   0  0  0  0  0  0  0  0  0  0  0  0
   -1.4860   23.0640  -28.0540 C   0  0  0  0  0  0  0  0  0  0  0  0
   -1.0570   22.1600  -27.0700 C   0  0  0  0  0  0  0  0  0  0  0  0
   -1.4730   20.8280  -27.1040 C   0  0  0  0  0  0  0  0  0  0  0  0
   -2.3250   20.3870  -28.1180 C   0  0  0  0  0  0  0  0  0  0  0  0
   -2.7650   21.2780  -29.0990 C   0  0  0  0  0  0  0  0  0  0  0  0
   -2.3530   22.6240  -29.0770 C   0  0  0  0  0  0  0  0  0  0  0  0
   -2.7970   23.5590  -30.0740 N   0  0  0  0  0  0  0  0  0  0  0  0
   -4.3020   24.4190  -30.0470 S   0  0  0  0  0  0  0  0  0  0  0  0
   -4.6320   24.7880  -28.6270 O   0  0  0  0  0  0  0  0  0  0  0  0
   -4.1680   25.6740  -30.8610 O   0  0  0  0  0  0  0  0  0  0  0  0
   -5.5750   23.4240  -30.7440 C   0  0  0  0  0  0  0  0  0  0  0  0
   -6.8520   23.9770  -31.0020 C   0  0  0  0  0  0  0  0  0  0  0  0
   -7.8770   23.1870  -31.5540 C   0  0  0  0  0  0  0  0  0  0  0  0
   -7.5910   21.8520  -31.8400 C   0  0  0  0  0  0  0  0  0  0  0  0
   -8.4310   20.9470  -32.3750 N   0  0  0  0  0  0  0  0  0  0  0  0
   -7.6790   19.8220  -32.4620 C   0  0  0  0  0  0  0  0  0  0  0  0
   -8.1620   18.6220  -32.9720 O   0  0  0  0  0  0  0  0  0  0  0  0
   -6.3870   20.0030  -31.9890 C   0  0  0  0  0  0  0  0  0  0  0  0
   -6.3530   21.3190  -31.5940 C   0  0  0  0  0  0  0  0  0  0  0  0
   -5.3170   22.0710  -31.0470 C   0  0  0  0  0  0  0  0  0  0  0  0
   -2.6290   25.5900  -29.2630 H   0  0  0  0  0  0  0  0  0  0  0  0
   -0.3886   22.5033  -26.2667 H   0  0  0  0  0  0  0  0  0  0  0  0
   -1.1291   20.1251  -26.3309 H   0  0  0  0  0  0  0  0  0  0  0  0
   -2.6501   19.3365  -28.1443 H   0  0  0  0  0  0  0  0  0  0  0  0
   -3.4382   20.9258  -29.8945 H   0  0  0  0  0  0  0  0  0  0  0  0
   -7.0449   25.0345  -30.7687 H   0  0  0  0  0  0  0  0  0  0  0  0
   -8.8730   23.6090  -31.7538 H   0  0  0  0  0  0  0  0  0  0  0  0
   -9.0430   18.5910  -33.4720 H   0  0  0  0  0  0  0  0  0  0  0  0
   -5.5752   19.2622  -31.9411 H   0  0  0  0  0  0  0  0  0  0  0  0
   -4.3297   21.6246  -30.8574 H   0  0  0  0  0  0  0  0  0  0  0  0
  1  2  1  0
  2  3  2  0
  2  4  2  0
  2  5  1  0
  5  6  2  0
  6  7  1  0
  7  8  2  0
  8  9  1  0
  9 10  2  0
 10 11  1  0
 11 12  1  0
 12 13  2  0
 12 14  2  0
 12 15  1  0
 15 16  2  0
 16 17  1  0
 17 18  2  0
 18 19  1  0
 19 20  1  0
 20 21  1  0
 20 22  2  0
 22 23  1  0
 23 24  2  0
 10  5  1  0
 24 15  1  0
 23 18  1  0
  1 25  1  0
  6 26  1  0
  7 27  1  0
  8 28  1  0
  9 29  1  0
 16 30  1  0
 17 31  1  0
 21 32  1  0
 22 33  1  0
 24 34  1  0
M  CHG  3   1  -1  11  -1  19  -1
M  END
>  <UniqueID>  (7) 
7

>  <SMILES>  (7) 
[NH-]S(=O)(=O)c1ccccc1[N-]S(=O)(=O)c1ccc2[n-]c(O)cc2c1

>  <Energy>  (7) 
71.56737291020882

>  <Genealogy>  (7) 
[NH-]S(=O)(=O)c1ccccc1[N-]S(=O)(=O)c1ccc2[n-]c(O)cc2c1 (protonated)
[NH-]S(=O)(=O)c1ccccc1[N-]S(=O)(=O)c1ccc2[n-]c(O)cc2c1 (3D coordinates assigned)
[NH-]S(=O)(=O)c1ccccc1[N-]S(=O)(=O)c1ccc2[n-]c(O)cc2c1 (optimized conformer: 71.56737291020882 kcal/mol)

>  <smiles>  (7) 
NS(=O)(=O)c1ccccc1NS(=O)(=O)c1ccc2[nH]c(O)cc2c1

>  <score_type>  (7) 
oracle

>  <origin>  (7) 
adgpu

>  <m_score__min__energy>  (7) 
-11.94

>  <m_primary>  (7) 
energy

$$$$
7:0
     RDKit          3D

 55 58  0  0  0  0  0  0  0  0999 V2000
   -2.7860   19.9530  -27.8500 C   0  0  0  0  0  0  0  0  0  0  0  0
   -2.2960   21.3750  -27.8410 C   0  0  0  0  0  0  0  0  0  0  0  0
   -1.2670   21.7430  -26.9590 C   0  0  0  0  0  0  0  0  0  0  0  0
   -0.7880   23.0540  -26.9350 C   0  0  0  0  0  0  0  0  0  0  0  0
   -1.3350   24.0220  -27.7850 C   0  0  0  0  0  0  0  0  0  0  0  0
   -0.7350   25.6850  -27.7450 S   0  0  0  0  0  0  0  0  0  0  0  0
   -1.2240   26.4120  -28.9650 O   0  0  0  0  0  0  0  0  0  0  0  0
    0.7680   25.6620  -27.7880 O   0  0  0  0  0  0  0  0  0  0  0  0
   -1.2500   26.5550  -26.3200 N   0  0  0  0  0  0  0  0  0  0  0  0
   -0.4770   27.7760  -26.1110 C   0  0  0  0  0  0  0  0  0  0  0  0
   -0.5490   28.0800  -24.6230 C   0  0  0  0  0  0  0  0  0  0  0  0
   -0.9340   26.7650  -23.9620 C   0  0  0  0  0  0  0  0  0  0  0  0
   -1.0770   25.7680  -25.1020 C   0  0  0  0  0  0  0  0  0  0  0  0
   -2.3780   23.6700  -28.6490 C   0  0  0  0  0  0  0  0  0  0  0  0
   -2.8570   22.3480  -28.7000 C   0  0  0  0  0  0  0  0  0  0  0  0
   -3.9370   22.0090  -29.5900 N   0  0  0  0  0  0  0  0  0  0  0  0
   -4.5310   22.9570  -30.4930 C   0  0  0  0  0  0  0  0  0  0  0  0
   -3.9020   24.0080  -30.7950 O   0  0  0  0  0  0  0  0  0  0  0  0
   -5.8540   22.6980  -31.1100 C   0  0  0  0  0  0  0  0  0  0  0  0
   -6.9010   23.6310  -31.0110 C   0  0  0  0  0  0  0  0  0  0  0  0
   -8.1070   23.3720  -31.5810 N   0  0  0  0  0  0  0  0  0  0  0  0
   -8.3450   22.2260  -32.2690 C   0  0  0  0  0  0  0  0  0  0  0  0
   -7.3300   21.2750  -32.4320 C   0  0  0  0  0  0  0  0  0  0  0  0
   -7.6010   20.0580  -33.1470 N   0  0  0  0  0  0  0  0  0  0  0  0
   -6.8680   18.8330  -32.9720 C   0  0  0  0  0  0  0  0  0  0  0  0
   -6.1130   18.3210  -34.0390 C   0  0  0  0  0  0  0  0  0  0  0  0
   -5.3730   17.1450  -33.8820 C   0  0  0  0  0  0  0  0  0  0  0  0
   -5.3690   16.4800  -32.6540 C   0  0  0  0  0  0  0  0  0  0  0  0
   -6.0990   16.9910  -31.5780 C   0  0  0  0  0  0  0  0  0  0  0  0
   -6.8390   18.1680  -31.7310 C   0  0  0  0  0  0  0  0  0  0  0  0
   -6.0840   21.5140  -31.8280 C   0  0  0  0  0  0  0  0  0  0  0  0
   -2.9075   19.6005  -26.8151 H   0  0  0  0  0  0  0  0  0  0  0  0
   -3.7536   19.9019  -28.3707 H   0  0  0  0  0  0  0  0  0  0  0  0
   -2.0553   19.3167  -28.3707 H   0  0  0  0  0  0  0  0  0  0  0  0
   -0.8348   20.9919  -26.2814 H   0  0  0  0  0  0  0  0  0  0  0  0
    0.0234   23.3276  -26.2446 H   0  0  0  0  0  0  0  0  0  0  0  0
    0.5681   27.6219  -26.4177 H   0  0  0  0  0  0  0  0  0  0  0  0
   -0.8774   28.6086  -26.7080 H   0  0  0  0  0  0  0  0  0  0  0  0
    0.4274   28.4258  -24.2528 H   0  0  0  0  0  0  0  0  0  0  0  0
   -1.2740   28.8773  -24.4022 H   0  0  0  0  0  0  0  0  0  0  0  0
   -0.1488   26.4409  -23.2632 H   0  0  0  0  0  0  0  0  0  0  0  0
   -1.8621   26.8561  -23.3787 H   0  0  0  0  0  0  0  0  0  0  0  0
   -0.1740   25.1443  -25.1773 H   0  0  0  0  0  0  0  0  0  0  0  0
   -1.9315   25.0950  -24.9378 H   0  0  0  0  0  0  0  0  0  0  0  0
   -2.8290   24.4364  -29.2964 H   0  0  0  0  0  0  0  0  0  0  0  0
   -4.2410   21.0120  -29.6490 H   0  0  0  0  0  0  0  0  0  0  0  0
   -6.7431   24.5753  -30.4694 H   0  0  0  0  0  0  0  0  0  0  0  0
   -9.3402   22.0436  -32.7006 H   0  0  0  0  0  0  0  0  0  0  0  0
   -8.3830   20.0640  -33.8400 H   0  0  0  0  0  0  0  0  0  0  0  0
   -6.1035   18.8481  -35.0044 H   0  0  0  0  0  0  0  0  0  0  0  0
   -4.7936   16.7434  -34.7264 H   0  0  0  0  0  0  0  0  0  0  0  0
   -4.7902   15.5524  -32.5337 H   0  0  0  0  0  0  0  0  0  0  0  0
   -6.0918   16.4677  -30.6105 H   0  0  0  0  0  0  0  0  0  0  0  0
   -7.4009   18.5761  -30.8780 H   0  0  0  0  0  0  0  0  0  0  0  0
   -5.2819   20.7668  -31.9186 H   0  0  0  0  0  0  0  0  0  0  0  0
  1  2  1  0
  2  3  2  0
  3  4  1  0
  4  5  2  0
  5  6  1  0
  6  7  2  0
  6  8  2  0
  6  9  1  0
  9 10  1  0
 10 11  1  0
 11 12  1  0
 12 13  1  0
  5 14  1  0
 14 15  2  0
 15 16  1  0
 16 17  1  0
 17 18  2  0
 17 19  1  0
 19 20  2  0
 20 21  1  0
 21 22  2  0
 22 23  1  0
 23 24  1  0
 24 25  1  0
 25 26  2  0
 26 27  1  0
 27 28  2  0
 28 29  1  0
 29 30  2  0
 23 31  2  0
 15  2  1  0
 31 19  1  0
 13  9  1  0
 30 25  1  0
  1 32  1  0
  1 33  1  0
  1 34  1  0
  3 35  1  0
  4 36  1  0
 10 37  1  0
 10 38  1  0
 11 39  1  0
 11 40  1  0
 12 41  1  0
 12 42  1  0
 13 43  1  0
 13 44  1  0
 14 45  1  0
 16 46  1  0
 20 47  1  0
 22 48  1  0
 24 49  1  0
 26 50  1  0
 27 51  1  0
 28 52  1  0
 29 53  1  0
 30 54  1  0
 31 55  1  0
M  END
>  <UniqueID>  (8) 
8

>  <SMILES>  (8) 
Cc1ccc(S(=O)(=O)N2CCCC2)cc1NC(=O)c1cncc(Nc2ccccc2)c1

>  <Energy>  (8) 
71.13053329074476

>  <Genealogy>  (8) 
Cc1ccc(S(=O)(=O)N2CCCC2)cc1NC(=O)c1cncc(Nc2ccccc2)c1 (3D coordinates assigned)
Cc1ccc(S(=O)(=O)N2CCCC2)cc1NC(=O)c1cncc(Nc2ccccc2)c1 (nonaromatic ring conformer: 71.13053329074476 kcal/mol)

>  <smiles>  (8) 
Cc1ccc(S(=O)(=O)N2CCCC2)cc1NC(=O)c1cncc(Nc2ccccc2)c1

>  <score_type>  (8) 
oracle

>  <origin>  (8) 
adgpu

>  <m_score__min__energy>  (8) 
-10.869999999999999

>  <m_primary>  (8) 
energy

$$$$
8:0
     RDKit          3D

 36 38  0  0  0  0  0  0  0  0999 V2000
   -3.2430   21.2880  -33.1260 C   0  0  0  0  0  0  0  0  0  0  0  0
   -4.0520   20.1670  -32.7820 O   0  0  0  0  0  0  0  0  0  0  0  0
   -4.0600   18.9460  -33.4770 C   0  0  0  0  0  0  0  0  0  0  0  0
   -2.9560   18.5180  -34.2420 C   0  0  0  0  0  0  0  0  0  0  0  0
   -3.0000   17.3050  -34.9310 C   0  0  0  0  0  0  0  0  0  0  0  0
   -4.1430   16.5070  -34.8710 C   0  0  0  0  0  0  0  0  0  0  0  0
   -5.2440   16.9170  -34.1180 C   0  0  0  0  0  0  0  0  0  0  0  0
   -5.2080   18.1280  -33.4060 C   0  0  0  0  0  0  0  0  0  0  0  0
   -6.4170   18.5710  -32.6290 C   0  0  0  0  0  0  0  0  0  0  0  0
   -7.0050   19.7370  -33.2850 N   0  0  0  0  0  0  0  0  0  0  0  0
   -7.8080   20.7320  -32.1100 S   0  0  0  0  0  0  0  0  0  0  0  0
   -8.0400   19.9400  -30.8530 O   0  0  0  0  0  0  0  0  0  0  0  0
   -9.1340   21.1750  -32.6600 O   0  0  0  0  0  0  0  0  0  0  0  0
   -6.8250   22.1520  -31.7700 C   0  0  0  0  0  0  0  0  0  0  0  0
   -7.2020   23.4260  -32.2590 C   0  0  0  0  0  0  0  0  0  0  0  0
   -6.4210   24.5610  -31.9750 C   0  0  0  0  0  0  0  0  0  0  0  0
   -5.2720   24.3890  -31.2060 C   0  0  0  0  0  0  0  0  0  0  0  0
   -4.4040   25.3480  -30.8330 N   0  0  0  0  0  0  0  0  0  0  0  0
   -3.4760   24.6760  -30.1110 C   0  0  0  0  0  0  0  0  0  0  0  0
   -2.3790   25.2960  -29.5270 O   0  0  0  0  0  0  0  0  0  0  0  0
   -3.7420   23.3170  -30.0230 C   0  0  0  0  0  0  0  0  0  0  0  0
   -4.9040   23.1570  -30.7350 C   0  0  0  0  0  0  0  0  0  0  0  0
   -5.6550   22.0130  -30.9960 C   0  0  0  0  0  0  0  0  0  0  0  0
   -2.8882   21.7796  -32.2081 H   0  0  0  0  0  0  0  0  0  0  0  0
   -2.3798   20.9494  -33.7177 H   0  0  0  0  0  0  0  0  0  0  0  0
   -3.8363   22.0006  -33.7177 H   0  0  0  0  0  0  0  0  0  0  0  0
   -2.0535   19.1445  -34.2963 H   0  0  0  0  0  0  0  0  0  0  0  0
   -2.1321   16.9776  -35.5223 H   0  0  0  0  0  0  0  0  0  0  0  0
   -4.1763   15.5533  -35.4181 H   0  0  0  0  0  0  0  0  0  0  0  0
   -6.1458   16.2882  -34.0815 H   0  0  0  0  0  0  0  0  0  0  0  0
   -7.1541   17.7551  -32.5975 H   0  0  0  0  0  0  0  0  0  0  0  0
   -6.1226   18.8324  -31.6019 H   0  0  0  0  0  0  0  0  0  0  0  0
   -8.1134   23.5292  -32.8662 H   0  0  0  0  0  0  0  0  0  0  0  0
   -6.7088   25.5547  -32.3489 H   0  0  0  0  0  0  0  0  0  0  0  0
   -3.1561   22.5453  -29.5022 H   0  0  0  0  0  0  0  0  0  0  0  0
   -5.3444   21.0310  -30.6098 H   0  0  0  0  0  0  0  0  0  0  0  0
  1  2  1  0
  2  3  1  0
  3  4  2  0
  4  5  1  0
  5  6  2  0
  6  7  1  0
  7  8  2  0
  8  9  1  0
  9 10  1  0
 10 11  1  0
 11 12  2  0
 11 13  2  0
 11 14  1  0
 14 15  2  0
 15 16  1  0
 16 17  2  0
 17 18  1  0
 18 19  1  0
 19 20  1  0
 19 21  2  0
 21 22  1  0
 22 23  2  0
  8  3  1  0
 23 14  1  0
 22 17  1  0
  1 24  1  0
  1 25  1  0
  1 26  1  0
  4 27  1  0
  5 28  1  0
  6 29  1  0
  7 30  1  0
  9 31  1  0
  9 32  1  0
 15 33  1  0
 16 34  1  0
 21 35  1  0
 23 36  1  0
M  CHG  3  10  -1  18  -1  20  -1
M  END
>  <UniqueID>  (9) 
9

>  <SMILES>  (9) 
COc1ccccc1C[N-]S(=O)(=O)c1ccc2[n-]c([O-])cc2c1

>  <Energy>  (9) 
66.79420200511252

>  <Genealogy>  (9) 
COc1ccccc1C[N-]S(=O)(=O)c1ccc2[n-]c([O-])cc2c1 (protonated)
COc1ccccc1C[N-]S(=O)(=O)c1ccc2[n-]c([O-])cc2c1 (3D coordinates assigned)
COc1ccccc1C[N-]S(=O)(=O)c1ccc2[n-]c([O-])cc2c1 (optimized conformer: 66.79420200511252 kcal/mol)

>  <smiles>  (9) 
COc1ccccc1CNS(=O)(=O)c1ccc2[nH]c(O)cc2c1

>  <score_type>  (9) 
oracle

>  <origin>  (9) 
adgpu

>  <m_score__min__energy>  (9) 
-12.17

>  <m_primary>  (9) 
energy

$$$$
9:0
     RDKit          3D

 26 27  0  0  0  0  0  0  0  0999 V2000
   -3.5030   25.2940  -30.4830 N   0  0  0  0  0  0  0  0  0  0  0  0
   -5.1250   24.7670  -30.2090 S   0  0  0  0  0  0  0  0  0  0  0  0
   -5.2850   24.3740  -28.7670 O   0  0  0  0  0  0  0  0  0  0  0  0
   -6.0760   25.8900  -30.5100 O   0  0  0  0  0  0  0  0  0  0  0  0
   -5.4790   23.3900  -31.2470 C   0  0  0  0  0  0  0  0  0  0  0  0
   -4.4380   22.6900  -31.8680 C   0  0  0  0  0  0  0  0  0  0  0  0
   -4.7170   21.5920  -32.6860 C   0  0  0  0  0  0  0  0  0  0  0  0
   -6.0370   21.1610  -32.8720 C   0  0  0  0  0  0  0  0  0  0  0  0
   -6.2830   20.0470  -33.7460 N   0  0  0  0  0  0  0  0  0  0  0  0
   -6.1230   18.7840  -33.4700 C   0  0  0  0  0  0  0  0  0  0  0  0
   -5.5900   18.3840  -32.2810 N   0  0  0  0  0  0  0  0  0  0  0  0
   -5.4010   17.0700  -32.0010 C   0  0  0  0  0  0  0  0  0  0  0  0
   -5.7450   16.1030  -32.9410 C   0  0  0  0  0  0  0  0  0  0  0  0
   -6.2770   16.5220  -34.1590 C   0  0  0  0  0  0  0  0  0  0  0  0
   -6.4540   17.8470  -34.4050 N   0  0  0  0  0  0  0  0  0  0  0  0
   -7.0850   21.8800  -32.2660 C   0  0  0  0  0  0  0  0  0  0  0  0
   -6.8050   22.9800  -31.4490 C   0  0  0  0  0  0  0  0  0  0  0  0
   -3.5440   26.0360  -31.2170 H   0  0  0  0  0  0  0  0  0  0  0  0
   -3.3959   23.0056  -31.7114 H   0  0  0  0  0  0  0  0  0  0  0  0
   -3.8940   21.0620  -33.1877 H   0  0  0  0  0  0  0  0  0  0  0  0
   -4.9763   16.7692  -31.0319 H   0  0  0  0  0  0  0  0  0  0  0  0
   -5.6004   15.0336  -32.7277 H   0  0  0  0  0  0  0  0  0  0  0  0
   -6.5539   15.7797  -34.9221 H   0  0  0  0  0  0  0  0  0  0  0  0
   -6.8510   18.1440  -35.3260 H   0  0  0  0  0  0  0  0  0  0  0  0
   -8.1282   21.5753  -32.4359 H   0  0  0  0  0  0  0  0  0  0  0  0
   -7.6275   23.5255  -30.9632 H   0  0  0  0  0  0  0  0  0  0  0  0
  1  2  1  0
  2  3  2  0
  2  4  2  0
  2  5  1  0
  5  6  2  0
  6  7  1  0
  7  8  2  0
  8  9  1  0
  9 10  2  3
 10 11  1  0
 11 12  2  0
 12 13  1  0
 13 14  2  0
 14 15  1  0
  8 16  1  0
 16 17  2  0
 17  5  1  0
 15 10  1  0
  1 18  1  0
  6 19  1  0
  7 20  1  0
 12 21  1  0
 13 22  1  0
 14 23  1  0
 15 24  1  0
 16 25  1  0
 17 26  1  0
M  CHG  1   1  -1
M  END
>  <UniqueID>  (10) 
10

>  <SMILES>  (10) 
[NH-]S(=O)(=O)c1ccc(N=c2nccc[nH]2)cc1

>  <Energy>  (10) 
33.47188371334075

>  <Genealogy>  (10) 
[NH-]S(=O)(=O)c1ccc(N=c2nccc[nH]2)cc1 (protonated)
[NH-]S(=O)(=O)c1ccc(N=c2nccc[nH]2)cc1 (3D coordinates assigned)
[NH-]S(=O)(=O)c1ccc(N=c2nccc[nH]2)cc1 (optimized conformer: 33.47188371334075 kcal/mol)

>  <smiles>  (10) 
NS(=O)(=O)c1ccc(N=c2nccc[nH]2)cc1

>  <score_type>  (10) 
oracle

>  <origin>  (10) 
adgpu

>  <m_score__min__energy>  (10) 
-9.1799999999999997

>  <m_primary>  (10) 
energy

$$$$
10:0
     RDKit          3D

 42 44  0  0  0  0  0  0  0  0999 V2000
   -5.8090   24.3710  -29.1830 O   0  0  0  0  0  0  0  0  0  0  0  0
   -5.1630   24.5470  -30.5300 S   0  0  0  0  0  0  0  0  0  0  0  0
   -5.8460   25.6720  -31.2540 O   0  0  0  0  0  0  0  0  0  0  0  0
   -3.4920   24.9540  -30.3020 N   0  0  0  0  0  0  0  0  0  0  0  0
   -2.5750   24.2640  -29.4400 C   0  0  0  0  0  0  0  0  0  0  0  0
   -2.7750   22.9240  -29.0560 C   0  0  0  0  0  0  0  0  0  0  0  0
   -1.8540   22.2880  -28.2150 C   0  0  0  0  0  0  0  0  0  0  0  0
   -2.1060   20.6220  -27.7290 Cl  0  0  0  0  0  0  0  0  0  0  0  0
   -0.7300   22.9820  -27.7550 C   0  0  0  0  0  0  0  0  0  0  0  0
   -0.5270   24.3110  -28.1320 C   0  0  0  0  0  0  0  0  0  0  0  0
   -1.4450   24.9510  -28.9710 C   0  0  0  0  0  0  0  0  0  0  0  0
   -1.2290   26.2750  -29.3380 O   0  0  0  0  0  0  0  0  0  0  0  0
   -5.3210   23.0750  -31.4920 C   0  0  0  0  0  0  0  0  0  0  0  0
   -4.1720   22.3470  -31.8370 C   0  0  0  0  0  0  0  0  0  0  0  0
   -4.2730   21.1870  -32.6170 C   0  0  0  0  0  0  0  0  0  0  0  0
   -2.8190   20.2950  -33.0680 S   0  0  0  0  0  0  0  0  0  0  0  0
   -2.6130   19.1790  -32.0820 O   0  0  0  0  0  0  0  0  0  0  0  0
   -3.0190   19.6770  -34.4240 O   0  0  0  0  0  0  0  0  0  0  0  0
   -1.3900   21.3080  -33.1030 N   0  0  0  0  0  0  0  0  0  0  0  0
   -0.8580   21.5800  -31.7550 C   0  0  0  0  0  0  0  0  0  0  0  0
    0.0330   20.4370  -31.2140 C   0  0  0  0  0  0  0  0  0  0  0  0
    0.3370   19.4570  -32.1870 O   0  0  0  0  0  0  0  0  0  0  0  0
    0.7880   20.0810  -33.3660 C   0  0  0  0  0  0  0  0  0  0  0  0
   -0.3670   20.8250  -34.0550 C   0  0  0  0  0  0  0  0  0  0  0  0
   -5.5340   20.7440  -33.0360 C   0  0  0  0  0  0  0  0  0  0  0  0
   -6.6830   21.4530  -32.6800 C   0  0  0  0  0  0  0  0  0  0  0  0
   -6.5820   22.6140  -31.9060 C   0  0  0  0  0  0  0  0  0  0  0  0
   -7.7420   23.2950  -31.5510 O   0  0  0  0  0  0  0  0  0  0  0  0
   -3.6572   22.3755  -29.4178 H   0  0  0  0  0  0  0  0  0  0  0  0
   -0.0058   22.4806  -27.0961 H   0  0  0  0  0  0  0  0  0  0  0  0
    0.3567   24.8558  -27.7684 H   0  0  0  0  0  0  0  0  0  0  0  0
   -3.1849   22.6893  -31.4927 H   0  0  0  0  0  0  0  0  0  0  0  0
   -0.2596   22.5022  -31.7940 H   0  0  0  0  0  0  0  0  0  0  0  0
   -1.7177   21.6762  -31.0756 H   0  0  0  0  0  0  0  0  0  0  0  0
    0.9756   20.8716  -30.8497 H   0  0  0  0  0  0  0  0  0  0  0  0
   -0.5297   19.9367  -30.4121 H   0  0  0  0  0  0  0  0  0  0  0  0
    1.5827   20.7989  -33.1148 H   0  0  0  0  0  0  0  0  0  0  0  0
    1.1753   19.3120  -34.0506 H   0  0  0  0  0  0  0  0  0  0  0  0
    0.0455   21.6897  -34.5955 H   0  0  0  0  0  0  0  0  0  0  0  0
   -0.8587   20.1136  -34.7348 H   0  0  0  0  0  0  0  0  0  0  0  0
   -5.6195   19.8339  -33.6479 H   0  0  0  0  0  0  0  0  0  0  0  0
   -7.6706   21.0976  -33.0091 H   0  0  0  0  0  0  0  0  0  0  0  0
  1  2  2  0
  2  3  2  0
  2  4  1  0
  4  5  1  0
  5  6  2  0
  6  7  1  0
  7  8  1  0
  7  9  2  0
  9 10  1  0
 10 11  2  0
 11 12  1  0
  2 13  1  0
 13 14  2  0
 14 15  1  0
 15 16  1  0
 16 17  2  0
 16 18  2  0
 16 19  1  0
 19 20  1  0
 20 21  1  0
 21 22  1  0
 22 23  1  0
 23 24  1  0
 15 25  2  0
 25 26  1  0
 26 27  2  0
 27 28  1  0
 11  5  1  0
 27 13  1  0
 24 19  1  0
  6 29  1  0
  9 30  1  0
 10 31  1  0
 14 32  1  0
 20 33  1  0
 20 34  1  0
 21 35  1  0
 21 36  1  0
 23 37  1  0
 23 38  1  0
 24 39  1  0
 24 40  1  0
 25 41  1  0
 26 42  1  0
M  CHG  3   4  -1  12  -1  28  -1
M  END
>  <UniqueID>  (11) 
11

>  <SMILES>  (11) 
O=S(=O)([N-]c1cc(Cl)ccc1[O-])c1cc(S(=O)(=O)N2CCOCC2)ccc1[O-]

>  <Energy>  (11) 
56.21179400598445

>  <Genealogy>  (11) 
O=S(=O)([N-]c1cc(Cl)ccc1[O-])c1cc(S(=O)(=O)N2CCOCC2)ccc1[O-] (protonated)
O=S(=O)([N-]c1cc(Cl)ccc1[O-])c1cc(S(=O)(=O)N2CCOCC2)ccc1[O-] (3D coordinates assigned)
O=S(=O)([N-]c1cc(Cl)ccc1[O-])c1cc(S(=O)(=O)N2CCOCC2)ccc1[O-] (nonaromatic ring conformer: 56.21179400598445 kcal/mol)

>  <smiles>  (11) 
O=S(=O)(Nc1cc(Cl)ccc1O)c1cc(S(=O)(=O)N2CCOCC2)ccc1O

>  <score_type>  (11) 
oracle

>  <origin>  (11) 
adgpu

>  <m_score__min__energy>  (11) 
-14.81

>  <m_primary>  (11) 
energy

$$$$
11:0
     RDKit          3D

 45 47  0  0  0  0  0  0  0  0999 V2000
   -8.8290   21.5960  -30.1500 O   0  0  0  0  0  0  0  0  0  0  0  0
   -8.3430   22.3100  -31.3800 S   0  0  0  0  0  0  0  0  0  0  0  0
   -9.4110   23.2780  -31.8100 O   0  0  0  0  0  0  0  0  0  0  0  0
   -8.0830   21.1980  -32.6910 N   0  0  0  0  0  0  0  0  0  0  0  0
   -7.3390   19.9710  -32.6630 C   0  0  0  0  0  0  0  0  0  0  0  0
   -7.9850   18.8200  -32.1930 C   0  0  0  0  0  0  0  0  0  0  0  0
   -7.3060   17.6020  -32.1250 C   0  0  0  0  0  0  0  0  0  0  0  0
   -5.9750   17.5220  -32.5310 C   0  0  0  0  0  0  0  0  0  0  0  0
   -5.3170   18.6580  -33.0230 C   0  0  0  0  0  0  0  0  0  0  0  0
   -3.6330   18.5500  -33.5450 S   0  0  0  0  0  0  0  0  0  0  0  0
   -3.5850   18.1180  -34.9850 O   0  0  0  0  0  0  0  0  0  0  0  0
   -2.9290   17.5020  -32.7280 O   0  0  0  0  0  0  0  0  0  0  0  0
   -2.8000   20.0780  -33.3710 N   0  0  0  0  0  0  0  0  0  0  0  0
   -2.6520   20.4240  -31.9410 C   0  0  0  0  0  0  0  0  0  0  0  0
   -1.6430   21.5630  -31.7480 C   0  0  0  0  0  0  0  0  0  0  0  0
   -0.2400   21.1600  -32.2430 C   0  0  0  0  0  0  0  0  0  0  0  0
   -0.2780   20.0190  -33.2710 C   0  0  0  0  0  0  0  0  0  0  0  0
   -1.5370   20.1090  -34.1520 C   0  0  0  0  0  0  0  0  0  0  0  0
   -6.0010   19.8810  -33.0910 C   0  0  0  0  0  0  0  0  0  0  0  0
   -6.8540   23.1930  -31.0270 C   0  0  0  0  0  0  0  0  0  0  0  0
   -5.6130   22.5500  -31.1320 C   0  0  0  0  0  0  0  0  0  0  0  0
   -4.4340   23.2530  -30.8890 C   0  0  0  0  0  0  0  0  0  0  0  0
   -4.4810   24.6070  -30.5410 C   0  0  0  0  0  0  0  0  0  0  0  0
   -3.2960   25.2960  -30.3090 O   0  0  0  0  0  0  0  0  0  0  0  0
   -5.7200   25.2580  -30.4300 C   0  0  0  0  0  0  0  0  0  0  0  0
   -5.7960   26.6090  -30.0880 O   0  0  0  0  0  0  0  0  0  0  0  0
   -6.9000   24.5470  -30.6690 C   0  0  0  0  0  0  0  0  0  0  0  0
   -9.0364   18.8765  -31.8748 H   0  0  0  0  0  0  0  0  0  0  0  0
   -7.8216   16.7052  -31.7509 H   0  0  0  0  0  0  0  0  0  0  0  0
   -5.4388   16.5638  -32.4651 H   0  0  0  0  0  0  0  0  0  0  0  0
   -3.6287   20.7388  -31.5450 H   0  0  0  0  0  0  0  0  0  0  0  0
   -2.2836   19.5374  -31.4042 H   0  0  0  0  0  0  0  0  0  0  0  0
   -1.9834   22.4427  -32.3140 H   0  0  0  0  0  0  0  0  0  0  0  0
   -1.5793   21.7913  -30.6738 H   0  0  0  0  0  0  0  0  0  0  0  0
    0.2342   22.0368  -32.7081 H   0  0  0  0  0  0  0  0  0  0  0  0
    0.3293   20.8031  -31.3721 H   0  0  0  0  0  0  0  0  0  0  0  0
    0.6140   20.0826  -33.9115 H   0  0  0  0  0  0  0  0  0  0  0  0
   -0.2978   19.0615  -32.7299 H   0  0  0  0  0  0  0  0  0  0  0  0
   -1.4999   21.0503  -34.7199 H   0  0  0  0  0  0  0  0  0  0  0  0
   -1.5384   19.2288  -34.8117 H   0  0  0  0  0  0  0  0  0  0  0  0
   -5.4895   20.7735  -33.4805 H   0  0  0  0  0  0  0  0  0  0  0  0
   -5.5692   21.4859  -31.4074 H   0  0  0  0  0  0  0  0  0  0  0  0
   -3.4637   22.7414  -30.9712 H   0  0  0  0  0  0  0  0  0  0  0  0
   -5.0020   27.1150  -29.7200 H   0  0  0  0  0  0  0  0  0  0  0  0
   -7.8716   25.0543  -30.5753 H   0  0  0  0  0  0  0  0  0  0  0  0
  1  2  2  0
  2  3  2  0
  2  4  1  0
  4  5  1  0
  5  6  2  0
  6  7  1  0
  7  8  2  0
  8  9  1  0
  9 10  1  0
 10 11  2  0
 10 12  2  0
 10 13  1  0
 13 14  1  0
 14 15  1  0
 15 16  1  0
 16 17  1  0
 17 18  1  0
  9 19  2  0
  2 20  1  0
 20 21  2  0
 21 22  1  0
 22 23  2  0
 23 24  1  0
 23 25  1  0
 25 26  1  0
 25 27  2  0
 19  5  1  0
 27 20  1  0
 18 13  1  0
  6 28  1  0
  7 29  1  0
  8 30  1  0
 14 31  1  0
 14 32  1  0
 15 33  1  0
 15 34  1  0
 16 35  1  0
 16 36  1  0
 17 37  1  0
 17 38  1  0
 18 39  1  0
 18 40  1  0
 19 41  1  0
 21 42  1  0
 22 43  1  0
 26 44  1  0
 27 45  1  0
M  CHG  2   4  -1  24  -1
M  END
>  <UniqueID>  (12) 
12

>  <SMILES>  (12) 
O=S(=O)([N-]c1cccc(S(=O)(=O)N2CCCCC2)c1)c1ccc([O-])c(O)c1

>  <Energy>  (12) 
55.03301884910599

>  <Genealogy>  (12) 
O=S(=O)([N-]c1cccc(S(=O)(=O)N2CCCCC2)c1)c1ccc([O-])c(O)c1 (protonated)
O=S(=O)([N-]c1cccc(S(=O)(=O)N2CCCCC2)c1)c1ccc([O-])c(O)c1 (3D coordinates assigned)
O=S(=O)([N-]c1cccc(S(=O)(=O)N2CCCCC2)c1)c1ccc([O-])c(O)c1 (nonaromatic ring conformer: 55.03301884910599 kcal/mol)

>  <smiles>  (12) 
O=S(=O)(Nc1cccc(S(=O)(=O)N2CCCCC2)c1)c1ccc(O)c(O)c1

>  <score_type>  (12) 
oracle

>  <origin>  (12) 
adgpu

>  <m_score__min__energy>  (12) 
-12.140000000000001

>  <m_primary>  (12) 
energy

$$$$
12:0
     RDKit          3D

 49 52  0  0  0  0  0  0  0  0999 V2000
   -1.6790   20.3360  -26.1520 C   0  0  0  0  0  0  0  0  0  0  0  0
   -0.5870   20.3340  -27.1430 N   0  0  0  0  0  0  0  0  0  0  0  0
   -0.9710   19.6750  -28.4060 C   0  0  0  0  0  0  0  0  0  0  0  0
   -2.0880   20.4240  -29.1490 C   0  0  0  0  0  0  0  0  0  0  0  0
   -1.9000   21.9190  -29.1240 C   0  0  0  0  0  0  0  0  0  0  0  0
   -2.7450   22.7220  -29.9000 C   0  0  0  0  0  0  0  0  0  0  0  0
   -2.6820   24.1220  -29.8150 C   0  0  0  0  0  0  0  0  0  0  0  0
   -3.6460   24.9520  -30.4800 N   0  0  0  0  0  0  0  0  0  0  0  0
   -5.3440   24.5990  -30.5070 S   0  0  0  0  0  0  0  0  0  0  0  0
   -5.8480   24.4620  -29.0990 O   0  0  0  0  0  0  0  0  0  0  0  0
   -6.0770   25.7210  -31.1890 O   0  0  0  0  0  0  0  0  0  0  0  0
   -5.5960   23.0750  -31.3560 C   0  0  0  0  0  0  0  0  0  0  0  0
   -6.5390   22.1640  -30.8640 C   0  0  0  0  0  0  0  0  0  0  0  0
   -6.6320   20.8820  -31.4100 C   0  0  0  0  0  0  0  0  0  0  0  0
   -5.7810   20.4900  -32.4590 C   0  0  0  0  0  0  0  0  0  0  0  0
   -5.8250   19.1030  -32.9840 C   0  0  0  0  0  0  0  0  0  0  0  0
   -6.8200   18.2100  -32.5490 C   0  0  0  0  0  0  0  0  0  0  0  0
   -6.8770   16.9110  -33.0610 C   0  0  0  0  0  0  0  0  0  0  0  0
   -5.9440   16.4890  -34.0110 C   0  0  0  0  0  0  0  0  0  0  0  0
   -4.9480   17.3650  -34.4520 C   0  0  0  0  0  0  0  0  0  0  0  0
   -4.0230   16.9300  -35.4000 O   0  0  0  0  0  0  0  0  0  0  0  0
   -4.8880   18.6680  -33.9410 C   0  0  0  0  0  0  0  0  0  0  0  0
   -4.8610   21.4220  -32.9730 C   0  0  0  0  0  0  0  0  0  0  0  0
   -4.7710   22.7050  -32.4280 C   0  0  0  0  0  0  0  0  0  0  0  0
   -1.7040   24.7170  -29.0090 C   0  0  0  0  0  0  0  0  0  0  0  0
   -1.5980   26.1010  -28.9460 O   0  0  0  0  0  0  0  0  0  0  0  0
   -0.8500   23.9240  -28.2400 C   0  0  0  0  0  0  0  0  0  0  0  0
   -0.9720   22.5270  -28.2530 C   0  0  0  0  0  0  0  0  0  0  0  0
   -0.0580   21.6900  -27.3900 C   0  0  0  0  0  0  0  0  0  0  0  0
   -1.2536   20.3352  -25.1376 H   0  0  0  0  0  0  0  0  0  0  0  0
   -2.2974   21.2353  -26.2896 H   0  0  0  0  0  0  0  0  0  0  0  0
   -2.3006   19.4390  -26.2896 H   0  0  0  0  0  0  0  0  0  0  0  0
   -0.0872   19.6231  -29.0589 H   0  0  0  0  0  0  0  0  0  0  0  0
   -1.3512   18.6734  -28.1563 H   0  0  0  0  0  0  0  0  0  0  0  0
   -2.1010   20.0881  -30.1964 H   0  0  0  0  0  0  0  0  0  0  0  0
   -3.0362   20.1991  -28.6387 H   0  0  0  0  0  0  0  0  0  0  0  0
   -3.4662   22.2506  -30.5838 H   0  0  0  0  0  0  0  0  0  0  0  0
   -7.2096   22.4596  -30.0437 H   0  0  0  0  0  0  0  0  0  0  0  0
   -7.3761   20.1737  -31.0168 H   0  0  0  0  0  0  0  0  0  0  0  0
   -7.5580   18.5358  -31.8012 H   0  0  0  0  0  0  0  0  0  0  0  0
   -7.6588   16.2189  -32.7149 H   0  0  0  0  0  0  0  0  0  0  0  0
   -5.9931   15.4661  -34.4126 H   0  0  0  0  0  0  0  0  0  0  0  0
   -3.2940   16.2660  -35.1630 H   0  0  0  0  0  0  0  0  0  0  0  0
   -4.1037   19.3560  -34.2897 H   0  0  0  0  0  0  0  0  0  0  0  0
   -4.2072   21.1381  -33.8108 H   0  0  0  0  0  0  0  0  0  0  0  0
   -4.0511   23.4270  -32.8408 H   0  0  0  0  0  0  0  0  0  0  0  0
   -0.0757   24.3986  -27.6193 H   0  0  0  0  0  0  0  0  0  0  0  0
    0.9161   21.6009  -27.8932 H   0  0  0  0  0  0  0  0  0  0  0  0
    0.0302   22.1934  -26.4159 H   0  0  0  0  0  0  0  0  0  0  0  0
  1  2  1  0
  2  3  1  0
  3  4  1  0
  4  5  1  0
  5  6  2  0
  6  7  1  0
  7  8  1  0
  8  9  1  0
  9 10  2  0
  9 11  2  0
  9 12  1  0
 12 13  2  0
 13 14  1  0
 14 15  2  0
 15 16  1  0
 16 17  2  0
 17 18  1  0
 18 19  2  0
 19 20  1  0
 20 21  1  0
 20 22  2  0
 15 23  1  0
 23 24  2  0
  7 25  2  0
 25 26  1  0
 25 27  1  0
 27 28  2  0
 28 29  1  0
 29  2  1  0
 28  5  1  0
 24 12  1  0
 22 16  1  0
  1 30  1  0
  1 31  1  0
  1 32  1  0
  3 33  1  0
  3 34  1  0
  4 35  1  0
  4 36  1  0
  6 37  1  0
 13 38  1  0
 14 39  1  0
 17 40  1  0
 18 41  1  0
 19 42  1  0
 21 43  1  0
 22 44  1  0
 23 45  1  0
 24 46  1  0
 27 47  1  0
 29 48  1  0
 29 49  1  0
M  CHG  2   8  -1  26  -1
M  END
>  <UniqueID>  (13) 
13

>  <SMILES>  (13) 
CN1CCc2cc([N-]S(=O)(=O)c3ccc(-c4cccc(O)c4)cc3)c([O-])cc2C1

>  <Energy>  (13) 
66.4439307760492

>  <Genealogy>  (13) 
CN1CCc2cc([N-]S(=O)(=O)c3ccc(-c4cccc(O)c4)cc3)c([O-])cc2C1 (protonated)
CN1CCc2cc([N-]S(=O)(=O)c3ccc(-c4cccc(O)c4)cc3)c([O-])cc2C1 (3D coordinates assigned)
CN1CCc2cc([N-]S(=O)(=O)c3ccc(-c4cccc(O)c4)cc3)c([O-])cc2C1 (nonaromatic ring conformer: 66.4439307760492 kcal/mol)

>  <smiles>  (13) 
CN1CCc2cc(NS(=O)(=O)c3ccc(-c4cccc(O)c4)cc3)c(O)cc2C1

>  <score_type>  (13) 
oracle

>  <origin>  (13) 
adgpu

>  <m_score__min__energy>  (13) 
-14.27

>  <m_primary>  (13) 
energy

$$$$
13:0
     RDKit          3D

 58 61  0  0  0  0  0  0  0  0999 V2000
   -4.5110   25.5390  -30.6800 O   0  0  0  0  0  0  0  0  0  0  0  0
   -4.3920   24.2960  -30.8550 C   0  0  0  0  0  0  0  0  0  0  0  0
   -3.0950   23.6950  -30.7870 N   0  0  0  0  0  0  0  0  0  0  0  0
   -2.4430   23.3920  -29.5450 C   0  0  0  0  0  0  0  0  0  0  0  0
   -2.5640   22.1070  -29.0010 C   0  0  0  0  0  0  0  0  0  0  0  0
   -1.9710   21.8000  -27.7660 C   0  0  0  0  0  0  0  0  0  0  0  0
   -2.0970   20.1760  -27.0830 S   0  0  0  0  0  0  0  0  0  0  0  0
   -3.5360   19.7400  -27.0840 O   0  0  0  0  0  0  0  0  0  0  0  0
   -1.6070   20.2020  -25.6610 O   0  0  0  0  0  0  0  0  0  0  0  0
   -1.1640   19.0480  -28.0380 N   0  0  0  0  0  0  0  0  0  0  0  0
   -0.0810   19.7130  -28.7670 C   0  0  0  0  0  0  0  0  0  0  0  0
    1.0370   18.6920  -28.9320 C   0  0  0  0  0  0  0  0  0  0  0  0
    0.7210   17.5820  -27.9420 C   0  0  0  0  0  0  0  0  0  0  0  0
   -0.5060   18.0600  -27.1850 C   0  0  0  0  0  0  0  0  0  0  0  0
   -1.2960   22.8030  -27.0560 C   0  0  0  0  0  0  0  0  0  0  0  0
   -1.1710   24.0860  -27.5950 C   0  0  0  0  0  0  0  0  0  0  0  0
   -1.7360   24.3830  -28.8380 C   0  0  0  0  0  0  0  0  0  0  0  0
   -1.6290   25.6740  -29.3390 O   0  0  0  0  0  0  0  0  0  0  0  0
   -5.5920   23.4590  -31.0440 C   0  0  0  0  0  0  0  0  0  0  0  0
   -5.4560   22.1930  -31.6390 C   0  0  0  0  0  0  0  0  0  0  0  0
   -6.5660   21.3500  -31.7780 C   0  0  0  0  0  0  0  0  0  0  0  0
   -6.3750   19.7170  -32.4090 S   0  0  0  0  0  0  0  0  0  0  0  0
   -6.0260   18.7700  -31.2910 O   0  0  0  0  0  0  0  0  0  0  0  0
   -7.6850   19.2850  -33.0090 O   0  0  0  0  0  0  0  0  0  0  0  0
   -5.1250   19.6810  -33.6290 N   0  0  0  0  0  0  0  0  0  0  0  0
   -3.7900   19.7050  -32.9880 C   0  0  0  0  0  0  0  0  0  0  0  0
   -2.7080   19.1610  -33.9270 C   0  0  0  0  0  0  0  0  0  0  0  0
   -2.9710   17.6840  -34.2660 C   0  0  0  0  0  0  0  0  0  0  0  0
   -4.4680   17.3290  -34.2280 C   0  0  0  0  0  0  0  0  0  0  0  0
   -5.3370   18.5450  -34.5640 C   0  0  0  0  0  0  0  0  0  0  0  0
   -7.8280   21.7940  -31.3620 C   0  0  0  0  0  0  0  0  0  0  0  0
   -7.9710   23.0580  -30.7830 C   0  0  0  0  0  0  0  0  0  0  0  0
   -6.8580   23.8870  -30.6090 C   0  0  0  0  0  0  0  0  0  0  0  0
   -7.0190   25.1400  -30.0240 O   0  0  0  0  0  0  0  0  0  0  0  0
   -3.1269   21.3339  -29.5445 H   0  0  0  0  0  0  0  0  0  0  0  0
   -0.4377   20.0453  -29.7531 H   0  0  0  0  0  0  0  0  0  0  0  0
    0.2740   20.5991  -28.2204 H   0  0  0  0  0  0  0  0  0  0  0  0
    1.0504   18.2989  -29.9593 H   0  0  0  0  0  0  0  0  0  0  0  0
    2.0263   19.1357  -28.7464 H   0  0  0  0  0  0  0  0  0  0  0  0
    0.5054   16.6425  -28.4719 H   0  0  0  0  0  0  0  0  0  0  0  0
    1.5665   17.3796  -27.2681 H   0  0  0  0  0  0  0  0  0  0  0  0
   -1.1838   17.2161  -26.9891 H   0  0  0  0  0  0  0  0  0  0  0  0
   -0.2283   18.4961  -26.2141 H   0  0  0  0  0  0  0  0  0  0  0  0
   -0.8628   22.5788  -26.0701 H   0  0  0  0  0  0  0  0  0  0  0  0
   -0.6266   24.8640  -27.0396 H   0  0  0  0  0  0  0  0  0  0  0  0
   -4.4705   21.8617  -31.9982 H   0  0  0  0  0  0  0  0  0  0  0  0
   -3.5412   20.7420  -32.7183 H   0  0  0  0  0  0  0  0  0  0  0  0
   -3.8245   19.0661  -32.0932 H   0  0  0  0  0  0  0  0  0  0  0  0
   -2.7077   19.7497  -34.8562 H   0  0  0  0  0  0  0  0  0  0  0  0
   -1.7329   19.2390  -33.4239 H   0  0  0  0  0  0  0  0  0  0  0  0
   -2.5853   17.4796  -35.2757 H   0  0  0  0  0  0  0  0  0  0  0  0
   -2.4624   17.0709  -33.5074 H   0  0  0  0  0  0  0  0  0  0  0  0
   -4.6663   16.5333  -34.9611 H   0  0  0  0  0  0  0  0  0  0  0  0
   -4.7194   16.9928  -33.2113 H   0  0  0  0  0  0  0  0  0  0  0  0
   -5.0946   18.8792  -35.5836 H   0  0  0  0  0  0  0  0  0  0  0  0
   -6.3887   18.2350  -34.4752 H   0  0  0  0  0  0  0  0  0  0  0  0
   -8.7079   21.1466  -31.4913 H   0  0  0  0  0  0  0  0  0  0  0  0
   -8.9650   23.4030  -30.4622 H   0  0  0  0  0  0  0  0  0  0  0  0
  1  2  2  0
  2  3  1  0
  3  4  1  0
  4  5  2  0
  5  6  1  0
  6  7  1  0
  7  8  2  0
  7  9  2  0
  7 10  1  0
 10 11  1  0
 11 12  1  0
 12 13  1  0
 13 14  1  0
  6 15  2  0
 15 16  1  0
 16 17  2  0
 17 18  1  0
  2 19  1  0
 19 20  2  0
 20 21  1  0
 21 22  1  0
 22 23  2  0
 22 24  2  0
 22 25  1  0
 25 26  1  0
 26 27  1  0
 27 28  1  0
 28 29  1  0
 29 30  1  0
 21 31  2  0
 31 32  1  0
 32 33  2  0
 33 34  1  0
 17  4  1  0
 33 19  1  0
 14 10  1  0
 30 25  1  0
  5 35  1  0
 11 36  1  0
 11 37  1  0
 12 38  1  0
 12 39  1  0
 13 40  1  0
 13 41  1  0
 14 42  1  0
 14 43  1  0
 15 44  1  0
 16 45  1  0
 20 46  1  0
 26 47  1  0
 26 48  1  0
 27 49  1  0
 27 50  1  0
 28 51  1  0
 28 52  1  0
 29 53  1  0
 29 54  1  0
 30 55  1  0
 30 56  1  0
 31 57  1  0
 32 58  1  0
M  CHG  3   3  -1  18  -1  34  -1
M  END
>  <UniqueID>  (14) 
14

>  <SMILES>  (14) 
O=C([N-]c1cc(S(=O)(=O)N2CCCC2)ccc1[O-])c1cc(S(=O)(=O)N2CCCCC2)ccc1[O-]

>  <Energy>  (14) 
74.93990660315401

>  <Genealogy>  (14) 
O=C([N-]c1cc(S(=O)(=O)N2CCCC2)ccc1[O-])c1cc(S(=O)(=O)N2CCCCC2)ccc1[O-] (protonated)
O=C([N-]c1cc(S(=O)(=O)N2CCCC2)ccc1[O-])c1cc(S(=O)(=O)N2CCCCC2)ccc1[O-] (3D coordinates assigned)
O=C([N-]c1cc(S(=O)(=O)N2CCCC2)ccc1[O-])c1cc(S(=O)(=O)N2CCCCC2)ccc1[O-] (nonaromatic ring conformer: 74.93990660315401 kcal/mol)

>  <smiles>  (14) 
O=C(Nc1cc(S(=O)(=O)N2CCCC2)ccc1O)c1cc(S(=O)(=O)N2CCCCC2)ccc1O

>  <score_type>  (14) 
oracle

>  <origin>  (14) 
adgpu

>  <m_score__min__energy>  (14) 
-15.130000000000001

>  <m_primary>  (14) 
energy

$$$$
14:0
     RDKit          3D

 47 50  0  0  0  0  0  0  0  0999 V2000
   -5.9050   26.3600  -30.1560 O   0  0  0  0  0  0  0  0  0  0  0  0
   -5.3030   25.3080  -30.4980 C   0  0  0  0  0  0  0  0  0  0  0  0
   -3.8690   25.2980  -30.4750 N   0  0  0  0  0  0  0  0  0  0  0  0
   -3.0390   24.2180  -30.0220 C   0  0  0  0  0  0  0  0  0  0  0  0
   -3.3590   22.8770  -30.2990 C   0  0  0  0  0  0  0  0  0  0  0  0
   -2.5350   21.8440  -29.8470 C   0  0  0  0  0  0  0  0  0  0  0  0
   -1.3690   22.1370  -29.1270 C   0  0  0  0  0  0  0  0  0  0  0  0
   -0.5390   21.1070  -28.6680 C   0  0  0  0  0  0  0  0  0  0  0  0
    0.6210   21.4230  -27.9580 C   0  0  0  0  0  0  0  0  0  0  0  0
    1.4510   20.4060  -27.4990 O   0  0  0  0  0  0  0  0  0  0  0  0
    0.9380   22.7230  -27.7160 N   0  0  0  0  0  0  0  0  0  0  0  0
    0.1580   23.7510  -28.1440 C   0  0  0  0  0  0  0  0  0  0  0  0
    0.5060   24.9350  -27.8880 O   0  0  0  0  0  0  0  0  0  0  0  0
   -1.0230   23.4840  -28.8640 C   0  0  0  0  0  0  0  0  0  0  0  0
   -1.8630   24.5150  -29.3240 C   0  0  0  0  0  0  0  0  0  0  0  0
   -6.0890   24.1080  -30.8690 C   0  0  0  0  0  0  0  0  0  0  0  0
   -6.3670   23.8200  -32.2160 C   0  0  0  0  0  0  0  0  0  0  0  0
   -7.1390   22.7060  -32.5560 C   0  0  0  0  0  0  0  0  0  0  0  0
   -7.6390   21.8620  -31.5560 C   0  0  0  0  0  0  0  0  0  0  0  0
   -8.6580   20.4850  -31.9820 S   0  0  0  0  0  0  0  0  0  0  0  0
   -9.8850   20.9810  -32.6950 O   0  0  0  0  0  0  0  0  0  0  0  0
   -9.1000   19.7900  -30.7240 O   0  0  0  0  0  0  0  0  0  0  0  0
   -7.8140   19.3490  -33.0050 N   0  0  0  0  0  0  0  0  0  0  0  0
   -7.7420   18.0270  -32.3610 C   0  0  0  0  0  0  0  0  0  0  0  0
   -6.8030   17.0880  -33.1460 C   0  0  0  0  0  0  0  0  0  0  0  0
   -6.4730   17.6360  -34.4080 O   0  0  0  0  0  0  0  0  0  0  0  0
   -5.7370   18.8340  -34.2340 C   0  0  0  0  0  0  0  0  0  0  0  0
   -6.4620   19.8380  -33.3120 C   0  0  0  0  0  0  0  0  0  0  0  0
   -7.3370   22.1270  -30.2140 C   0  0  0  0  0  0  0  0  0  0  0  0
   -6.5630   23.2400  -29.8720 C   0  0  0  0  0  0  0  0  0  0  0  0
   -4.2650   22.6399  -30.8760 H   0  0  0  0  0  0  0  0  0  0  0  0
   -2.8019   20.7977  -30.0567 H   0  0  0  0  0  0  0  0  0  0  0  0
   -0.7989   20.0565  -28.8653 H   0  0  0  0  0  0  0  0  0  0  0  0
    1.2110   19.4330  -27.6440 H   0  0  0  0  0  0  0  0  0  0  0  0
   -1.5928   25.5641  -29.1332 H   0  0  0  0  0  0  0  0  0  0  0  0
   -5.9746   24.4754  -33.0075 H   0  0  0  0  0  0  0  0  0  0  0  0
   -7.3549   22.4910  -33.6129 H   0  0  0  0  0  0  0  0  0  0  0  0
   -7.3603   18.1450  -31.3361 H   0  0  0  0  0  0  0  0  0  0  0  0
   -8.7498   17.5864  -32.3448 H   0  0  0  0  0  0  0  0  0  0  0  0
   -5.8798   16.9373  -32.5673 H   0  0  0  0  0  0  0  0  0  0  0  0
   -7.3201   16.1303  -33.3055 H   0  0  0  0  0  0  0  0  0  0  0  0
   -4.7606   18.5882  -33.7910 H   0  0  0  0  0  0  0  0  0  0  0  0
   -5.6228   19.3054  -35.2213 H   0  0  0  0  0  0  0  0  0  0  0  0
   -5.8937   19.9505  -32.3769 H   0  0  0  0  0  0  0  0  0  0  0  0
   -6.5354   20.8100  -33.8217 H   0  0  0  0  0  0  0  0  0  0  0  0
   -7.7104   21.4566  -29.4259 H   0  0  0  0  0  0  0  0  0  0  0  0
   -6.3241   23.4368  -28.8164 H   0  0  0  0  0  0  0  0  0  0  0  0
  1  2  2  0
  2  3  1  0
  3  4  1  0
  4  5  2  0
  5  6  1  0
  6  7  2  0
  7  8  1  0
  8  9  2  0
  9 10  1  0
  9 11  1  0
 11 12  1  0
 12 13  2  0
 12 14  1  0
 14 15  2  0
  2 16  1  0
 16 17  2  0
 17 18  1  0
 18 19  2  0
 19 20  1  0
 20 21  2  0
 20 22  2  0
 20 23  1  0
 23 24  1  0
 24 25  1  0
 25 26  1  0
 26 27  1  0
 27 28  1  0
 19 29  1  0
 29 30  2  0
 15  4  1  0
 30 16  1  0
 14  7  1  0
 28 23  1  0
  5 31  1  0
  6 32  1  0
  8 33  1  0
 10 34  1  0
 15 35  1  0
 17 36  1  0
 18 37  1  0
 24 38  1  0
 24 39  1  0
 25 40  1  0
 25 41  1  0
 27 42  1  0
 27 43  1  0
 28 44  1  0
 28 45  1  0
 29 46  1  0
 30 47  1  0
M  CHG  2   3  -1  11  -1
M  END
>  <UniqueID>  (15) 
15

>  <SMILES>  (15) 
O=C([N-]c1ccc2cc(O)[n-]c(=O)c2c1)c1ccc(S(=O)(=O)N2CCOCC2)cc1

>  <Energy>  (15) 
68.5716226138205

>  <Genealogy>  (15) 
O=C([N-]c1ccc2cc(O)[n-]c(=O)c2c1)c1ccc(S(=O)(=O)N2CCOCC2)cc1 (protonated)
O=C([N-]c1ccc2cc(O)[n-]c(=O)c2c1)c1ccc(S(=O)(=O)N2CCOCC2)cc1 (3D coordinates assigned)
O=C([N-]c1ccc2cc(O)[n-]c(=O)c2c1)c1ccc(S(=O)(=O)N2CCOCC2)cc1 (nonaromatic ring conformer: 68.5716226138205 kcal/mol)

>  <smiles>  (15) 
O=C(Nc1ccc2cc(O)[nH]c(=O)c2c1)c1ccc(S(=O)(=O)N2CCOCC2)cc1

>  <score_type>  (15) 
oracle

>  <origin>  (15) 
adgpu

>  <m_score__min__energy>  (15) 
-12.32

>  <m_primary>  (15) 
energy

$$$$
15:0
     RDKit          3D

 47 49  0  0  0  0  0  0  0  0999 V2000
    0.6170   21.8920  -35.4710 C   0  0  0  0  0  0  0  0  0  0  0  0
    0.9870   21.7590  -34.0690 N   0  0  0  0  0  0  0  0  0  0  0  0
    0.1730   21.1450  -33.0620 C   0  0  0  0  0  0  0  0  0  0  0  0
    0.6230   21.0600  -31.8880 O   0  0  0  0  0  0  0  0  0  0  0  0
   -1.1550   20.5760  -33.3630 C   0  0  0  0  0  0  0  0  0  0  0  0
   -2.3220   21.3360  -33.1840 C   0  0  0  0  0  0  0  0  0  0  0  0
   -3.5750   20.7820  -33.4570 C   0  0  0  0  0  0  0  0  0  0  0  0
   -3.6840   19.4620  -33.9070 C   0  0  0  0  0  0  0  0  0  0  0  0
   -4.9620   18.9450  -34.1690 O   0  0  0  0  0  0  0  0  0  0  0  0
   -6.0260   18.9760  -33.2610 C   0  0  0  0  0  0  0  0  0  0  0  0
   -6.1880   20.0770  -32.4830 N   0  0  0  0  0  0  0  0  0  0  0  0
   -7.1890   20.1610  -31.5650 C   0  0  0  0  0  0  0  0  0  0  0  0
   -7.3430   21.2240  -30.8320 N   0  0  0  0  0  0  0  0  0  0  0  0
   -6.4750   22.3680  -30.8180 C   0  0  0  0  0  0  0  0  0  0  0  0
   -5.1310   22.1890  -30.4700 C   0  0  0  0  0  0  0  0  0  0  0  0
   -4.2290   23.2720  -30.4610 C   0  0  0  0  0  0  0  0  0  0  0  0
   -2.8130   23.0400  -30.0640 C   0  0  0  0  0  0  0  0  0  0  0  0
   -2.3500   21.8660  -30.0500 O   0  0  0  0  0  0  0  0  0  0  0  0
   -1.9610   24.1310  -29.7020 N   0  0  0  0  0  0  0  0  0  0  0  0
   -1.9970   24.7600  -28.3900 C   0  0  0  0  0  0  0  0  0  0  0  0
   -4.7060   24.5510  -30.8320 C   0  0  0  0  0  0  0  0  0  0  0  0
   -3.8720   25.6640  -30.8360 O   0  0  0  0  0  0  0  0  0  0  0  0
   -6.0410   24.7210  -31.2130 C   0  0  0  0  0  0  0  0  0  0  0  0
   -6.9210   23.6380  -31.2190 C   0  0  0  0  0  0  0  0  0  0  0  0
   -8.1910   23.8240  -31.6600 F   0  0  0  0  0  0  0  0  0  0  0  0
   -8.0640   19.1310  -31.4330 N   0  0  0  0  0  0  0  0  0  0  0  0
   -7.9580   18.0140  -32.1980 C   0  0  0  0  0  0  0  0  0  0  0  0
   -6.9400   17.9100  -33.1550 C   0  0  0  0  0  0  0  0  0  0  0  0
   -6.8420   16.6830  -34.0160 C   0  0  0  0  0  0  0  0  0  0  0  0
   -2.5190   18.6860  -34.0530 C   0  0  0  0  0  0  0  0  0  0  0  0
   -1.2660   19.2400  -33.7780 C   0  0  0  0  0  0  0  0  0  0  0  0
   -0.4159   22.2633  -35.5440 H   0  0  0  0  0  0  0  0  0  0  0  0
    1.2975   22.6018  -35.9641 H   0  0  0  0  0  0  0  0  0  0  0  0
    0.6899   20.9114  -35.9641 H   0  0  0  0  0  0  0  0  0  0  0  0
   -2.2492   22.3738  -32.8267 H   0  0  0  0  0  0  0  0  0  0  0  0
   -4.4823   21.3880  -33.3171 H   0  0  0  0  0  0  0  0  0  0  0  0
   -4.7724   21.1851  -30.1987 H   0  0  0  0  0  0  0  0  0  0  0  0
   -1.9526   23.9851  -27.6105 H   0  0  0  0  0  0  0  0  0  0  0  0
   -1.1361   25.4365  -28.2839 H   0  0  0  0  0  0  0  0  0  0  0  0
   -2.9295   25.3338  -28.2839 H   0  0  0  0  0  0  0  0  0  0  0  0
   -6.4004   25.7171  -31.5105 H   0  0  0  0  0  0  0  0  0  0  0  0
   -8.6732   17.1888  -32.0660 H   0  0  0  0  0  0  0  0  0  0  0  0
   -6.7708   15.7909  -33.3763 H   0  0  0  0  0  0  0  0  0  0  0  0
   -7.7370   16.6083  -34.6511 H   0  0  0  0  0  0  0  0  0  0  0  0
   -5.9464   16.7513  -34.6511 H   0  0  0  0  0  0  0  0  0  0  0  0
   -2.5951   17.6400  -34.3847 H   0  0  0  0  0  0  0  0  0  0  0  0
   -0.3607   18.6249  -33.8875 H   0  0  0  0  0  0  0  0  0  0  0  0
  1  2  1  0
  2  3  1  0
  3  4  2  0
  3  5  1  0
  5  6  2  0
  6  7  1  0
  7  8  2  0
  8  9  1  0
  9 10  1  0
 10 11  2  0
 11 12  1  0
 12 13  2  3
 13 14  1  0
 14 15  2  0
 15 16  1  0
 16 17  1  0
 17 18  2  0
 17 19  1  0
 19 20  1  0
 16 21  2  0
 21 22  1  0
 21 23  1  0
 23 24  2  0
 24 25  1  0
 12 26  1  0
 26 27  1  0
 27 28  2  0
 28 29  1  0
  8 30  1  0
 30 31  2  0
 31  5  1  0
 28 10  1  0
 24 14  1  0
  1 32  1  0
  1 33  1  0
  1 34  1  0
  6 35  1  0
  7 36  1  0
 15 37  1  0
 20 38  1  0
 20 39  1  0
 20 40  1  0
 23 41  1  0
 27 42  1  0
 29 43  1  0
 29 44  1  0
 29 45  1  0
 30 46  1  0
 31 47  1  0
M  CHG  4   2  -1  19  -1  22  -1  26  -1
M  END
>  <UniqueID>  (16) 
16

>  <SMILES>  (16) 
C[N-]C(=O)c1ccc(Oc2nc(=Nc3cc(C(=O)[N-]C)c([O-])cc3F)[n-]cc2C)cc1

>  <Energy>  (16) 
69.75222583419644

>  <Genealogy>  (16) 
C[N-]C(=O)c1ccc(Oc2nc(=Nc3cc(C(=O)[N-]C)c([O-])cc3F)[n-]cc2C)cc1 (protonated)
C[N-]C(=O)c1ccc(Oc2nc(=Nc3cc(C(=O)[N-]C)c([O-])cc3F)[n-]cc2C)cc1 (3D coordinates assigned)
C[N-]C(=O)c1ccc(Oc2nc(=Nc3cc(C(=O)[N-]C)c([O-])cc3F)[n-]cc2C)cc1 (optimized conformer: 69.75222583419644 kcal/mol)

>  <smiles>  (16) 
CNC(=O)c1ccc(Oc2nc(=Nc3cc(C(=O)NC)c(O)cc3F)[nH]cc2C)cc1

>  <score_type>  (16) 
oracle

>  <origin>  (16) 
adgpu

>  <m_score__min__energy>  (16) 
-12.789999999999999

>  <m_primary>  (16) 
energy

$$$$
16:0
     RDKit          3D

 48 50  0  0  0  0  0  0  0  0999 V2000
   -6.8380   25.5280  -29.4280 C   0  0  0  0  0  0  0  0  0  0  0  0
   -6.2410   24.2830  -30.0080 C   0  0  0  0  0  0  0  0  0  0  0  0
   -6.9830   23.5540  -30.7960 N   0  0  0  0  0  0  0  0  0  0  0  0
   -6.5860   22.3880  -31.5360 C   0  0  0  0  0  0  0  0  0  0  0  0
   -5.4210   22.3770  -32.3230 C   0  0  0  0  0  0  0  0  0  0  0  0
   -5.0760   21.2370  -33.0560 C   0  0  0  0  0  0  0  0  0  0  0  0
   -5.9040   20.1060  -33.0290 C   0  0  0  0  0  0  0  0  0  0  0  0
   -5.4750   18.6660  -33.9470 S   0  0  0  0  0  0  0  0  0  0  0  0
   -5.9870   17.4430  -33.2360 O   0  0  0  0  0  0  0  0  0  0  0  0
   -6.1080   18.7600  -35.3060 O   0  0  0  0  0  0  0  0  0  0  0  0
   -3.7350   18.5740  -34.0950 N   0  0  0  0  0  0  0  0  0  0  0  0
   -3.0690   18.7170  -32.7910 C   0  0  0  0  0  0  0  0  0  0  0  0
   -1.5740   19.0370  -32.9850 C   0  0  0  0  0  0  0  0  0  0  0  0
   -1.0610   18.6410  -34.3800 C   0  0  0  0  0  0  0  0  0  0  0  0
   -1.6910   17.3220  -34.8360 C   0  0  0  0  0  0  0  0  0  0  0  0
   -3.2420   17.4080  -34.8780 C   0  0  1  0  0  0  0  0  0  0  0  0
   -3.8540   16.0580  -34.4460 C   0  0  0  0  0  0  0  0  0  0  0  0
   -7.0790   20.1270  -32.2680 C   0  0  0  0  0  0  0  0  0  0  0  0
   -7.4240   21.2670  -31.5360 C   0  0  0  0  0  0  0  0  0  0  0  0
   -4.8520   23.9030  -29.6400 C   0  0  0  0  0  0  0  0  0  0  0  0
   -4.6150   22.8020  -28.8050 C   0  0  0  0  0  0  0  0  0  0  0  0
   -3.3450   22.4640  -28.4600 N   0  0  0  0  0  0  0  0  0  0  0  0
   -2.2860   23.1880  -28.9080 C   0  0  0  0  0  0  0  0  0  0  0  0
   -1.1130   22.8660  -28.5810 O   0  0  0  0  0  0  0  0  0  0  0  0
   -2.4890   24.2650  -29.7120 N   0  0  0  0  0  0  0  0  0  0  0  0
   -3.7400   24.6380  -30.0850 C   0  0  0  0  0  0  0  0  0  0  0  0
   -3.8870   25.6360  -30.8400 O   0  0  0  0  0  0  0  0  0  0  0  0
   -6.8105   25.4707  -28.3298 H   0  0  0  0  0  0  0  0  0  0  0  0
   -6.2611   26.4022  -29.7641 H   0  0  0  0  0  0  0  0  0  0  0  0
   -7.8808   25.6256  -29.7641 H   0  0  0  0  0  0  0  0  0  0  0  0
   -4.7782   23.2688  -32.3624 H   0  0  0  0  0  0  0  0  0  0  0  0
   -4.1533   21.2277  -33.6548 H   0  0  0  0  0  0  0  0  0  0  0  0
   -3.5447   19.5338  -32.2284 H   0  0  0  0  0  0  0  0  0  0  0  0
   -3.1631   17.7719  -32.2361 H   0  0  0  0  0  0  0  0  0  0  0  0
   -1.4244   20.1182  -32.8484 H   0  0  0  0  0  0  0  0  0  0  0  0
   -1.0091   18.4527  -32.2438 H   0  0  0  0  0  0  0  0  0  0  0  0
   -1.3214   19.4325  -35.0982 H   0  0  0  0  0  0  0  0  0  0  0  0
    0.0304   18.5125  -34.3313 H   0  0  0  0  0  0  0  0  0  0  0  0
   -1.3203   17.0796  -35.8429 H   0  0  0  0  0  0  0  0  0  0  0  0
   -1.4111   16.5413  -34.1134 H   0  0  0  0  0  0  0  0  0  0  0  0
   -3.5771   17.5894  -35.9099 H   0  0  0  0  0  0  0  0  0  0  0  0
   -3.8795   16.0017  -33.3477 H   0  0  0  0  0  0  0  0  0  0  0  0
   -4.8773   15.9761  -34.8412 H   0  0  0  0  0  0  0  0  0  0  0  0
   -3.2412   15.2344  -34.8412 H   0  0  0  0  0  0  0  0  0  0  0  0
   -7.7333   19.2430  -32.2460 H   0  0  0  0  0  0  0  0  0  0  0  0
   -8.3591   21.2830  -30.9569 H   0  0  0  0  0  0  0  0  0  0  0  0
   -5.4611   22.2091  -28.4274 H   0  0  0  0  0  0  0  0  0  0  0  0
   -3.1870   21.6370  -27.8400 H   0  0  0  0  0  0  0  0  0  0  0  0
  1  2  1  0
  2  3  2  3
  3  4  1  0
  4  5  2  0
  5  6  1  0
  6  7  2  0
  7  8  1  0
  8  9  2  0
  8 10  2  0
  8 11  1  0
 11 12  1  0
 12 13  1  0
 13 14  1  0
 14 15  1  0
 15 16  1  0
 16 17  1  0
  7 18  1  0
 18 19  2  0
  2 20  1  0
 20 21  2  0
 21 22  1  0
 22 23  1  0
 23 24  2  0
 23 25  1  0
 25 26  1  0
 26 27  2  0
 19  4  1  0
 26 20  1  0
 16 11  1  0
  1 28  1  0
  1 29  1  0
  1 30  1  0
  5 31  1  0
  6 32  1  0
 12 33  1  0
 12 34  1  0
 13 35  1  0
 13 36  1  0
 14 37  1  0
 14 38  1  0
 15 39  1  0
 15 40  1  0
 16 41  1  6
 17 42  1  0
 17 43  1  0
 17 44  1  0
 18 45  1  0
 19 46  1  0
 21 47  1  0
 22 48  1  0
M  CHG  1  25  -1
M  END
>  <UniqueID>  (17) 
17

>  <SMILES>  (17) 
CC(=Nc1ccc(S(=O)(=O)N2CCCC[C@H]2C)cc1)c1c[nH]c(=O)[n-]c1=O

>  <Energy>  (17) 
67.97471919106789

>  <Genealogy>  (17) 
CC(=Nc1ccc(S(=O)(=O)N2CCCCC2C)cc1)c1c[nH]c(=O)[n-]c1=O (protonated)
CC(=Nc1ccc(S(=O)(=O)N2CCCC[C@H]2C)cc1)c1c[nH]c(=O)[n-]c1=O (chirality)
CC(=Nc1ccc(S(=O)(=O)N2CCCC[C@H]2C)cc1)c1c[nH]c(=O)[n-]c1=O (3D coordinates assigned)
CC(=Nc1ccc(S(=O)(=O)N2CCCC[C@H]2C)cc1)c1c[nH]c(=O)[n-]c1=O (nonaromatic ring conformer: 67.97471919106789 kcal/mol)

>  <smiles>  (17) 
CC(=Nc1ccc(S(=O)(=O)N2CCCCC2C)cc1)c1c[nH]c(=O)[nH]c1=O

>  <score_type>  (17) 
oracle

>  <origin>  (17) 
adgpu

>  <m_score__min__energy>  (17) 
-9.7599999999999998

>  <m_primary>  (17) 
energy

$$$$
17:0
     RDKit          3D

 41 43  0  0  0  0  0  0  0  0999 V2000
   -1.1400   19.7150  -29.3510 O   0  0  0  0  0  0  0  0  0  0  0  0
   -2.0100   20.5190  -30.2760 S   0  0  0  0  0  0  0  0  0  0  0  0
   -3.4350   20.0820  -30.0850 O   0  0  0  0  0  0  0  0  0  0  0  0
   -1.8940   22.2350  -29.8710 C   0  0  0  0  0  0  0  0  0  0  0  0
   -0.6790   22.7720  -29.4200 C   0  0  0  0  0  0  0  0  0  0  0  0
   -0.5800   24.1330  -29.1150 C   0  0  0  0  0  0  0  0  0  0  0  0
   -1.6920   24.9660  -29.2630 C   0  0  0  0  0  0  0  0  0  0  0  0
   -1.5920   26.3200  -28.9600 O   0  0  0  0  0  0  0  0  0  0  0  0
   -2.9040   24.4400  -29.7180 C   0  0  0  0  0  0  0  0  0  0  0  0
   -3.0080   23.0790  -30.0250 C   0  0  0  0  0  0  0  0  0  0  0  0
   -4.2200   22.5750  -30.4880 O   0  0  0  0  0  0  0  0  0  0  0  0
   -1.5400   20.2410  -31.9410 N   0  0  0  0  0  0  0  0  0  0  0  0
   -1.9000   18.8830  -32.4000 C   0  0  0  0  0  0  0  0  0  0  0  0
   -3.4160   18.7190  -32.5970 C   0  0  0  0  0  0  0  0  0  0  0  0
   -3.9980   19.9190  -33.2130 N   0  0  0  0  0  0  0  0  0  0  0  0
   -5.3510   20.3020  -32.9110 C   0  0  0  0  0  0  0  0  0  0  0  0
   -5.5960   21.5610  -32.4530 N   0  0  0  0  0  0  0  0  0  0  0  0
   -6.8430   21.9910  -32.1320 C   0  0  0  0  0  0  0  0  0  0  0  0
   -7.9450   21.1380  -32.2830 C   0  0  0  0  0  0  0  0  0  0  0  0
   -9.3280   21.5850  -31.8790 C   0  0  0  0  0  0  0  0  0  0  0  0
  -10.2870   20.7370  -32.4050 F   0  0  0  0  0  0  0  0  0  0  0  0
   -9.4230   21.5730  -30.5000 F   0  0  0  0  0  0  0  0  0  0  0  0
   -9.5820   22.8650  -32.3380 F   0  0  0  0  0  0  0  0  0  0  0  0
   -7.7200   19.8310  -32.7400 C   0  0  0  0  0  0  0  0  0  0  0  0
   -6.4280   19.4090  -33.0700 C   0  0  0  0  0  0  0  0  0  0  0  0
   -6.2190   17.7950  -33.7390 Cl  0  0  0  0  0  0  0  0  0  0  0  0
   -3.0930   20.8850  -33.8390 C   0  0  0  0  0  0  0  0  0  0  0  0
   -2.0180   21.3300  -32.8330 C   0  0  0  0  0  0  0  0  0  0  0  0
    0.1994   22.1197  -29.3058 H   0  0  0  0  0  0  0  0  0  0  0  0
    0.3741   24.5482  -28.7583 H   0  0  0  0  0  0  0  0  0  0  0  0
   -3.7781   25.0974  -29.8350 H   0  0  0  0  0  0  0  0  0  0  0  0
   -1.3952   18.6874  -33.3575 H   0  0  0  0  0  0  0  0  0  0  0  0
   -1.5811   18.1695  -31.6260 H   0  0  0  0  0  0  0  0  0  0  0  0
   -3.6027   17.8530  -33.2490 H   0  0  0  0  0  0  0  0  0  0  0  0
   -3.8837   18.5674  -31.6130 H   0  0  0  0  0  0  0  0  0  0  0  0
   -6.9892   23.0128  -31.7519 H   0  0  0  0  0  0  0  0  0  0  0  0
   -8.5649   19.1337  -32.8394 H   0  0  0  0  0  0  0  0  0  0  0  0
   -2.6069   20.4180  -34.7083 H   0  0  0  0  0  0  0  0  0  0  0  0
   -3.6709   21.7638  -34.1611 H   0  0  0  0  0  0  0  0  0  0  0  0
   -1.1570   21.7196  -33.3959 H   0  0  0  0  0  0  0  0  0  0  0  0
   -2.4803   22.0915  -32.1877 H   0  0  0  0  0  0  0  0  0  0  0  0
  1  2  2  0
  2  3  2  0
  2  4  1  0
  4  5  2  0
  5  6  1  0
  6  7  2  0
  7  8  1  0
  7  9  1  0
  9 10  2  0
 10 11  1  0
  2 12  1  0
 12 13  1  0
 13 14  1  0
 14 15  1  0
 15 16  1  0
 16 17  2  0
 17 18  1  0
 18 19  2  0
 19 20  1  0
 20 21  1  0
 20 22  1  0
 20 23  1  0
 19 24  1  0
 24 25  2  0
 25 26  1  0
 15 27  1  0
 27 28  1  0
 10  4  1  0
 28 12  1  0
 25 16  1  0
  5 29  1  0
  6 30  1  0
  9 31  1  0
 13 32  1  0
 13 33  1  0
 14 34  1  0
 14 35  1  0
 18 36  1  0
 24 37  1  0
 27 38  1  0
 27 39  1  0
 28 40  1  0
 28 41  1  0
M  CHG  2   8  -1  11  -1
M  END
>  <UniqueID>  (18) 
18

>  <SMILES>  (18) 
O=S(=O)(c1ccc([O-])cc1[O-])N1CCN(c2ncc(C(F)(F)F)cc2Cl)CC1

>  <Energy>  (18) 
57.26675381639683

>  <Genealogy>  (18) 
O=S(=O)(c1ccc([O-])cc1[O-])N1CCN(c2ncc(C(F)(F)F)cc2Cl)CC1 (protonated)
O=S(=O)(c1ccc([O-])cc1[O-])N1CCN(c2ncc(C(F)(F)F)cc2Cl)CC1 (3D coordinates assigned)
O=S(=O)(c1ccc([O-])cc1[O-])N1CCN(c2ncc(C(F)(F)F)cc2Cl)CC1 (nonaromatic ring conformer: 57.26675381639683 kcal/mol)

>  <smiles>  (18) 
O=S(=O)(c1ccc(O)cc1O)N1CCN(c2ncc(C(F)(F)F)cc2Cl)CC1

>  <score_type>  (18) 
oracle

>  <origin>  (18) 
adgpu

>  <m_score__min__energy>  (18) 
-12.130000000000001

>  <m_primary>  (18) 
energy

$$$$
18:0
     RDKit          3D

 58 61  0  0  0  0  0  0  0  0999 V2000
   -0.3470   27.5000  -24.6240 C   0  0  0  0  0  0  0  0  0  0  0  0
   -0.9890   26.6130  -25.6550 C   0  0  0  0  0  0  0  0  0  0  0  0
   -2.2020   25.9760  -25.3690 C   0  0  0  0  0  0  0  0  0  0  0  0
   -2.8240   25.1840  -26.3370 C   0  0  0  0  0  0  0  0  0  0  0  0
   -2.2460   25.0310  -27.6050 C   0  0  0  0  0  0  0  0  0  0  0  0
   -3.0780   24.1030  -28.8500 S   0  0  0  0  0  0  0  0  0  0  0  0
   -3.1760   24.9250  -30.1040 O   0  0  0  0  0  0  0  0  0  0  0  0
   -4.4680   23.7500  -28.4050 O   0  0  0  0  0  0  0  0  0  0  0  0
   -2.1490   22.6730  -29.1780 N   0  0  0  0  0  0  0  0  0  0  0  0
   -2.1110   22.0540  -30.4680 C   0  0  0  0  0  0  0  0  0  0  0  0
   -0.8820   21.6220  -30.9850 C   0  0  0  0  0  0  0  0  0  0  0  0
   -0.8350   20.9480  -32.2100 C   0  0  0  0  0  0  0  0  0  0  0  0
   -2.0080   20.7400  -32.9440 C   0  0  0  0  0  0  0  0  0  0  0  0
   -3.2280   21.2230  -32.4670 C   0  0  0  0  0  0  0  0  0  0  0  0
   -4.7120   21.0710  -33.4610 S   0  0  0  0  0  0  0  0  0  0  0  0
   -5.6640   22.1110  -32.3410 C   0  0  0  0  0  0  0  0  0  0  0  0
   -5.4100   23.4910  -32.3260 C   0  0  0  0  0  0  0  0  0  0  0  0
   -6.0490   24.3170  -31.3980 C   0  0  0  0  0  0  0  0  0  0  0  0
   -6.9410   23.7680  -30.4740 C   0  0  0  0  0  0  0  0  0  0  0  0
   -7.2100   22.3970  -30.4880 C   0  0  0  0  0  0  0  0  0  0  0  0
   -6.5960   21.5630  -31.4320 C   0  0  0  0  0  0  0  0  0  0  0  0
   -6.9010   20.1620  -31.4300 N   0  0  0  0  0  0  0  0  0  0  0  0
   -8.1670   19.6660  -31.8850 C   0  0  0  0  0  0  0  0  0  0  0  0
   -8.9860   20.4330  -32.4580 O   0  0  0  0  0  0  0  0  0  0  0  0
   -8.5360   18.2310  -31.6810 C   0  0  0  0  0  0  0  0  0  0  0  0
   -7.9730   17.4190  -32.7110 O   0  0  0  0  0  0  0  0  0  0  0  0
   -6.6280   17.4410  -33.1200 C   0  0  0  0  0  0  0  0  0  0  0  0
   -6.1900   18.1380  -34.2620 C   0  0  0  0  0  0  0  0  0  0  0  0
   -4.8390   18.1240  -34.6220 C   0  0  0  0  0  0  0  0  0  0  0  0
   -3.9150   17.4070  -33.8540 C   0  0  0  0  0  0  0  0  0  0  0  0
   -2.2190   17.3600  -34.3300 Cl  0  0  0  0  0  0  0  0  0  0  0  0
   -4.3440   16.7150  -32.7170 C   0  0  0  0  0  0  0  0  0  0  0  0
   -5.6920   16.7330  -32.3530 C   0  0  0  0  0  0  0  0  0  0  0  0
   -3.2840   21.8650  -31.2200 C   0  0  0  0  0  0  0  0  0  0  0  0
   -1.0410   25.6830  -27.8980 C   0  0  0  0  0  0  0  0  0  0  0  0
   -0.4100   26.4700  -26.9250 C   0  0  0  0  0  0  0  0  0  0  0  0
   -0.6073   27.1403  -23.6176 H   0  0  0  0  0  0  0  0  0  0  0  0
    0.7455   27.4776  -24.7502 H   0  0  0  0  0  0  0  0  0  0  0  0
   -0.7096   28.5308  -24.7502 H   0  0  0  0  0  0  0  0  0  0  0  0
   -2.6666   26.0993  -24.3796 H   0  0  0  0  0  0  0  0  0  0  0  0
   -3.7722   24.6778  -26.1032 H   0  0  0  0  0  0  0  0  0  0  0  0
    0.0465   21.8131  -30.4270 H   0  0  0  0  0  0  0  0  0  0  0  0
    0.1268   20.5805  -32.5973 H   0  0  0  0  0  0  0  0  0  0  0  0
   -1.9688   20.1949  -33.8986 H   0  0  0  0  0  0  0  0  0  0  0  0
   -4.7037   23.9249  -33.0491 H   0  0  0  0  0  0  0  0  0  0  0  0
   -5.8498   25.3988  -31.3950 H   0  0  0  0  0  0  0  0  0  0  0  0
   -7.4327   24.4163  -29.7338 H   0  0  0  0  0  0  0  0  0  0  0  0
   -7.9082   21.9696  -29.7533 H   0  0  0  0  0  0  0  0  0  0  0  0
   -6.2920   19.5290  -30.8670 H   0  0  0  0  0  0  0  0  0  0  0  0
   -8.1549   17.8943  -30.7056 H   0  0  0  0  0  0  0  0  0  0  0  0
   -9.6315   18.1373  -31.7128 H   0  0  0  0  0  0  0  0  0  0  0  0
   -6.9139   18.6962  -34.8739 H   0  0  0  0  0  0  0  0  0  0  0  0
   -4.5019   18.6777  -35.5107 H   0  0  0  0  0  0  0  0  0  0  0  0
   -3.6183   16.1556  -32.1084 H   0  0  0  0  0  0  0  0  0  0  0  0
   -6.0223   16.1871  -31.4570 H   0  0  0  0  0  0  0  0  0  0  0  0
   -4.2487   22.2214  -30.8298 H   0  0  0  0  0  0  0  0  0  0  0  0
   -0.5887   25.5769  -28.8951 H   0  0  0  0  0  0  0  0  0  0  0  0
    0.5390   26.9755  -27.1570 H   0  0  0  0  0  0  0  0  0  0  0  0
  1  2  1  0
  2  3  2  0
  3  4  1  0
  4  5  2  0
  5  6  1  0
  6  7  2  0
  6  8  2  0
  6  9  1  0
  9 10  1  0
 10 11  2  0
 11 12  1  0
 12 13  2  0
 13 14  1  0
 14 15  1  0
 15 16  1  0
 16 17  2  0
 17 18  1  0
 18 19  2  0
 19 20  1  0
 20 21  2  0
 21 22  1  0
 22 23  1  0
 23 24  2  0
 23 25  1  0
 25 26  1  0
 26 27  1  0
 27 28  2  0
 28 29  1  0
 29 30  2  0
 30 31  1  0
 30 32  1  0
 32 33  2  0
 14 34  2  0
  5 35  1  0
 35 36  2  0
 36  2  1  0
 34 10  1  0
 21 16  1  0
 33 27  1  0
  1 37  1  0
  1 38  1  0
  1 39  1  0
  3 40  1  0
  4 41  1  0
 11 42  1  0
 12 43  1  0
 13 44  1  0
 17 45  1  0
 18 46  1  0
 19 47  1  0
 20 48  1  0
 22 49  1  0
 25 50  1  0
 25 51  1  0
 28 52  1  0
 29 53  1  0
 32 54  1  0
 33 55  1  0
 34 56  1  0
 35 57  1  0
 36 58  1  0
M  CHG  1   9  -1
M  END
>  <UniqueID>  (19) 
19

>  <SMILES>  (19) 
Cc1ccc(S(=O)(=O)[N-]c2cccc(Sc3ccccc3NC(=O)COc3ccc(Cl)cc3)c2)cc1

>  <Energy>  (19) 
68.47981554834693

>  <Genealogy>  (19) 
Cc1ccc(S(=O)(=O)[N-]c2cccc(Sc3ccccc3NC(=O)COc3ccc(Cl)cc3)c2)cc1 (protonated)
Cc1ccc(S(=O)(=O)[N-]c2cccc(Sc3ccccc3NC(=O)COc3ccc(Cl)cc3)c2)cc1 (3D coordinates assigned)
Cc1ccc(S(=O)(=O)[N-]c2cccc(Sc3ccccc3NC(=O)COc3ccc(Cl)cc3)c2)cc1 (optimized conformer: 68.47981554834693 kcal/mol)

>  <smiles>  (19) 
Cc1ccc(S(=O)(=O)Nc2cccc(Sc3ccccc3NC(=O)COc3ccc(Cl)cc3)c2)cc1

>  <score_type>  (19) 
oracle

>  <origin>  (19) 
adgpu

>  <m_score__min__energy>  (19) 
-11.85

>  <m_primary>  (19) 
energy

$$$$
19:0
     RDKit          3D

 60 63  0  0  0  0  0  0  0  0999 V2000
   -6.3250   16.9560  -34.2090 C   0  0  0  0  0  0  0  0  0  0  0  0
   -5.6730   18.2440  -33.8180 C   0  0  0  0  0  0  0  0  0  0  0  0
   -4.2800   18.3760  -33.8670 C   0  0  0  0  0  0  0  0  0  0  0  0
   -3.6940   19.5890  -33.5040 C   0  0  0  0  0  0  0  0  0  0  0  0
   -4.4930   20.6610  -33.0860 C   0  0  0  0  0  0  0  0  0  0  0  0
   -3.8780   21.9110  -32.7310 N   0  0  0  0  0  0  0  0  0  0  0  0
   -4.2530   22.7010  -31.5900 C   0  0  0  0  0  0  0  0  0  0  0  0
   -3.4220   22.7140  -30.4680 C   0  0  0  0  0  0  0  0  0  0  0  0
   -3.7630   23.4660  -29.3380 C   0  0  0  0  0  0  0  0  0  0  0  0
   -2.8730   23.4950  -28.1490 C   0  0  0  0  0  0  0  0  0  0  0  0
   -2.5420   24.7170  -27.5340 C   0  0  0  0  0  0  0  0  0  0  0  0
   -1.7050   24.7440  -26.4150 C   0  0  0  0  0  0  0  0  0  0  0  0
   -1.1830   23.5530  -25.8970 C   0  0  0  0  0  0  0  0  0  0  0  0
   -0.1440   23.6030  -24.4730 S   0  0  0  0  0  0  0  0  0  0  0  0
    1.0690   22.7510  -24.7320 O   0  0  0  0  0  0  0  0  0  0  0  0
   -0.8760   23.0460  -23.2830 O   0  0  0  0  0  0  0  0  0  0  0  0
    0.3480   25.2480  -24.1560 N   0  0  0  0  0  0  0  0  0  0  0  0
   -0.8230   26.0680  -23.7620 C   0  0  0  0  0  0  0  0  0  0  0  0
   -0.6890   27.5560  -24.1580 C   0  0  0  0  0  0  0  0  0  0  0  0
    0.7110   28.0230  -24.1560 N   0  0  0  0  0  0  0  0  0  0  0  0
    1.2340   28.1880  -22.7900 C   0  0  0  0  0  0  0  0  0  0  0  0
    1.6030   27.2030  -25.0130 C   0  0  0  0  0  0  0  0  0  0  0  0
    1.0380   25.8040  -25.3310 C   0  0  0  0  0  0  0  0  0  0  0  0
   -1.5120   22.3330  -26.4980 C   0  0  0  0  0  0  0  0  0  0  0  0
   -2.3500   22.3030  -27.6170 C   0  0  0  0  0  0  0  0  0  0  0  0
   -4.9660   24.1890  -29.3530 C   0  0  0  0  0  0  0  0  0  0  0  0
   -5.7950   24.1520  -30.4400 N   0  0  0  0  0  0  0  0  0  0  0  0
   -7.0570   24.9050  -30.4110 C   0  0  0  0  0  0  0  0  0  0  0  0
   -5.4670   23.4110  -31.5450 C   0  0  0  0  0  0  0  0  0  0  0  0
   -6.2650   23.3460  -32.5220 O   0  0  0  0  0  0  0  0  0  0  0  0
   -5.8890   20.4940  -33.0790 C   0  0  0  0  0  0  0  0  0  0  0  0
   -6.4380   19.3030  -33.4370 N   0  0  0  0  0  0  0  0  0  0  0  0
   -6.6073   16.3983  -33.3038 H   0  0  0  0  0  0  0  0  0  0  0  0
   -7.2249   17.1668  -34.8054 H   0  0  0  0  0  0  0  0  0  0  0  0
   -5.6223   16.3555  -34.8054 H   0  0  0  0  0  0  0  0  0  0  0  0
   -3.6534   17.5311  -34.1887 H   0  0  0  0  0  0  0  0  0  0  0  0
   -2.6008   19.7040  -33.5462 H   0  0  0  0  0  0  0  0  0  0  0  0
   -3.1630   22.3080  -33.3820 H   0  0  0  0  0  0  0  0  0  0  0  0
   -2.4911   22.1280  -30.4723 H   0  0  0  0  0  0  0  0  0  0  0  0
   -2.9451   25.6578  -27.9371 H   0  0  0  0  0  0  0  0  0  0  0  0
   -1.4557   25.7043  -25.9399 H   0  0  0  0  0  0  0  0  0  0  0  0
    1.0260   25.2080  -23.3590 H   0  0  0  0  0  0  0  0  0  0  0  0
   -1.7181   25.6559  -24.2509 H   0  0  0  0  0  0  0  0  0  0  0  0
   -0.8941   26.0281  -22.6650 H   0  0  0  0  0  0  0  0  0  0  0  0
   -1.1030   27.6898  -25.1683 H   0  0  0  0  0  0  0  0  0  0  0  0
   -1.2376   28.1488  -23.4113 H   0  0  0  0  0  0  0  0  0  0  0  0
    0.4464   27.9395  -22.0633 H   0  0  0  0  0  0  0  0  0  0  0  0
    2.0934   27.5174  -22.6429 H   0  0  0  0  0  0  0  0  0  0  0  0
    1.5530   29.2304  -22.6429 H   0  0  0  0  0  0  0  0  0  0  0  0
    1.7622   27.7376  -25.9611 H   0  0  0  0  0  0  0  0  0  0  0  0
    2.5390   27.0538  -24.4548 H   0  0  0  0  0  0  0  0  0  0  0  0
    0.3258   25.8823  -26.1657 H   0  0  0  0  0  0  0  0  0  0  0  0
    1.8697   25.1378  -25.6037 H   0  0  0  0  0  0  0  0  0  0  0  0
   -1.1101   21.3944  -26.0888 H   0  0  0  0  0  0  0  0  0  0  0  0
   -2.6020   21.3398  -28.0846 H   0  0  0  0  0  0  0  0  0  0  0  0
   -5.2459   24.7940  -28.4780 H   0  0  0  0  0  0  0  0  0  0  0  0
   -7.3542   25.0824  -29.3669 H   0  0  0  0  0  0  0  0  0  0  0  0
   -6.9204   25.8694  -30.9222 H   0  0  0  0  0  0  0  0  0  0  0  0
   -7.8408   24.3268  -30.9222 H   0  0  0  0  0  0  0  0  0  0  0  0
   -6.5394   21.3302  -32.7827 H   0  0  0  0  0  0  0  0  0  0  0  0
  1  2  1  0
  2  3  2  0
  3  4  1  0
  4  5  2  0
  5  6  1  0
  6  7  1  0
  7  8  2  0
  8  9  1  0
  9 10  1  0
 10 11  2  0
 11 12  1  0
 12 13  2  0
 13 14  1  0
 14 15  2  0
 14 16  2  0
 14 17  1  0
 17 18  1  0
 18 19  1  0
 19 20  1  0
 20 21  1  0
 20 22  1  0
 22 23  1  0
 13 24  1  0
 24 25  2  0
  9 26  2  0
 26 27  1  0
 27 28  1  0
 27 29  1  0
 29 30  2  0
  5 31  1  0
 31 32  2  0
 32  2  1  0
 29  7  1  0
 25 10  1  0
 23 17  1  0
  1 33  1  0
  1 34  1  0
  1 35  1  0
  3 36  1  0
  4 37  1  0
  6 38  1  0
  8 39  1  0
 11 40  1  0
 12 41  1  0
 17 42  1  0
 18 43  1  0
 18 44  1  0
 19 45  1  0
 19 46  1  0
 21 47  1  0
 21 48  1  0
 21 49  1  0
 22 50  1  0
 22 51  1  0
 23 52  1  0
 23 53  1  0
 24 54  1  0
 25 55  1  0
 26 56  1  0
 28 57  1  0
 28 58  1  0
 28 59  1  0
 31 60  1  0
M  CHG  1  17   1
M  END
>  <UniqueID>  (20) 
20

>  <SMILES>  (20) 
Cc1ccc(Nc2cc(-c3ccc(S(=O)(=O)[NH+]4CCN(C)CC4)cc3)cn(C)c2=O)cn1

>  <Energy>  (20) 
86.37681168319055

>  <Genealogy>  (20) 
Cc1ccc(Nc2cc(-c3ccc(S(=O)(=O)[NH+]4CCN(C)CC4)cc3)cn(C)c2=O)cn1 (protonated)
Cc1ccc(Nc2cc(-c3ccc(S(=O)(=O)[NH+]4CCN(C)CC4)cc3)cn(C)c2=O)cn1 (3D coordinates assigned)
Cc1ccc(Nc2cc(-c3ccc(S(=O)(=O)[NH+]4CCN(C)CC4)cc3)cn(C)c2=O)cn1 (nonaromatic ring conformer: 86.37681168319055 kcal/mol)

>  <smiles>  (20) 
Cc1ccc(Nc2cc(-c3ccc(S(=O)(=O)N4CCN(C)CC4)cc3)cn(C)c2=O)cn1

>  <score_type>  (20) 
oracle

>  <origin>  (20) 
adgpu

>  <m_score__min__energy>  (20) 
-8.8699999999999992

>  <m_primary>  (20) 
energy

$$$$
20:0
     RDKit          3D

 72 76  0  0  0  0  0  0  0  0999 V2000
    2.9600   25.3970  -36.5470 C   0  0  0  0  0  0  0  0  0  0  0  0
    2.5030   24.1560  -37.0730 O   0  0  0  0  0  0  0  0  0  0  0  0
    1.9360   23.1300  -36.3020 C   0  0  0  0  0  0  0  0  0  0  0  0
    2.7070   22.1000  -35.7320 C   0  0  0  0  0  0  0  0  0  0  0  0
    2.0950   21.1000  -34.9720 C   0  0  0  0  0  0  0  0  0  0  0  0
    0.7070   21.1140  -34.7640 C   0  0  0  0  0  0  0  0  0  0  0  0
    0.0440   20.0190  -33.9680 C   0  0  0  0  0  0  0  0  0  0  0  0
   -0.8560   20.5940  -32.9420 N   0  0  0  0  0  0  0  0  0  0  0  0
   -2.1830   20.7780  -33.2220 C   0  0  0  0  0  0  0  0  0  0  0  0
   -2.6540   20.4140  -34.3360 O   0  0  0  0  0  0  0  0  0  0  0  0
   -3.0240   21.3840  -32.2810 C   0  0  0  0  0  0  0  0  0  0  0  0
   -4.3900   21.5920  -32.5530 C   0  0  0  0  0  0  0  0  0  0  0  0
   -5.2150   22.2180  -31.6140 C   0  0  0  0  0  0  0  0  0  0  0  0
   -6.9500   22.3640  -31.9060 S   0  0  0  0  0  0  0  0  0  0  0  0
   -7.6640   22.5340  -30.5940 O   0  0  0  0  0  0  0  0  0  0  0  0
   -7.2140   23.5850  -32.7430 O   0  0  0  0  0  0  0  0  0  0  0  0
   -7.5720   20.9470  -32.7220 N   0  0  0  0  0  0  0  0  0  0  0  0
   -8.9760   20.6630  -32.3310 C   0  0  0  0  0  0  0  0  0  0  0  0
   -9.0990   19.5090  -31.3220 C   0  0  0  0  0  0  0  0  0  0  0  0
   -8.4900   18.2120  -31.8820 C   0  0  0  0  0  0  0  0  0  0  0  0
   -7.3280   18.4720  -32.8580 C   0  0  0  0  0  0  0  0  0  0  0  0
   -6.6420   19.8070  -32.5520 C   0  0  0  0  0  0  0  0  0  0  0  0
   -4.6620   22.6980  -30.4260 C   0  0  0  0  0  0  0  0  0  0  0  0
   -3.3130   22.4930  -30.1440 C   0  0  0  0  0  0  0  0  0  0  0  0
   -2.4800   21.7820  -31.0390 C   0  0  0  0  0  0  0  0  0  0  0  0
   -1.1690   21.4730  -30.7360 N   0  0  0  0  0  0  0  0  0  0  0  0
   -0.6270   21.6680  -29.3650 C   0  0  0  0  0  0  0  0  0  0  0  0
   -0.8070   20.4380  -28.4830 C   0  0  0  0  0  0  0  0  0  0  0  0
   -2.0270   20.2830  -27.7980 C   0  0  0  0  0  0  0  0  0  0  0  0
   -2.2680   19.1620  -26.9910 C   0  0  0  0  0  0  0  0  0  0  0  0
   -3.5980   18.9900  -26.3220 C   0  0  0  0  0  0  0  0  0  0  0  0
   -1.2830   18.1760  -26.8730 C   0  0  0  0  0  0  0  0  0  0  0  0
   -0.0520   18.3330  -27.5080 C   0  0  0  0  0  0  0  0  0  0  0  0
    0.2150   19.4690  -28.2900 C   0  0  0  0  0  0  0  0  0  0  0  0
    1.5760   19.5960  -28.9200 C   0  0  0  0  0  0  0  0  0  0  0  0
   -0.3520   20.9530  -31.7160 C   0  0  0  0  0  0  0  0  0  0  0  0
    0.8790   20.7890  -31.4840 O   0  0  0  0  0  0  0  0  0  0  0  0
   -0.0610   22.1410  -35.3370 C   0  0  0  0  0  0  0  0  0  0  0  0
    0.5520   23.1410  -36.0960 C   0  0  0  0  0  0  0  0  0  0  0  0
    2.9453   25.3570  -35.4478 H   0  0  0  0  0  0  0  0  0  0  0  0
    3.9868   25.5862  -36.8933 H   0  0  0  0  0  0  0  0  0  0  0  0
    2.3011   26.2069  -36.8933 H   0  0  0  0  0  0  0  0  0  0  0  0
    3.7961   22.0821  -35.8854 H   0  0  0  0  0  0  0  0  0  0  0  0
    2.7050   20.2964  -34.5338 H   0  0  0  0  0  0  0  0  0  0  0  0
   -0.5418   19.3821  -34.6471 H   0  0  0  0  0  0  0  0  0  0  0  0
    0.8213   19.4245  -33.4657 H   0  0  0  0  0  0  0  0  0  0  0  0
   -4.8116   21.2589  -33.5129 H   0  0  0  0  0  0  0  0  0  0  0  0
   -9.4041   21.5701  -31.8794 H   0  0  0  0  0  0  0  0  0  0  0  0
   -9.5157   20.3622  -33.2411 H   0  0  0  0  0  0  0  0  0  0  0  0
   -8.5704   19.7833  -30.3972 H   0  0  0  0  0  0  0  0  0  0  0  0
  -10.1664   19.3341  -31.1218 H   0  0  0  0  0  0  0  0  0  0  0  0
   -8.1154   17.6083  -31.0422 H   0  0  0  0  0  0  0  0  0  0  0  0
   -9.2805   17.6885  -32.4398 H   0  0  0  0  0  0  0  0  0  0  0  0
   -6.5919   17.6598  -32.7654 H   0  0  0  0  0  0  0  0  0  0  0  0
   -7.7316   18.5118  -33.8805 H   0  0  0  0  0  0  0  0  0  0  0  0
   -6.2800   19.7930  -31.5134 H   0  0  0  0  0  0  0  0  0  0  0  0
   -5.8068   19.9351  -33.2563 H   0  0  0  0  0  0  0  0  0  0  0  0
   -5.2945   23.2411  -29.7084 H   0  0  0  0  0  0  0  0  0  0  0  0
   -2.8890   22.8906  -29.2101 H   0  0  0  0  0  0  0  0  0  0  0  0
    0.4470   21.8939  -29.4396 H   0  0  0  0  0  0  0  0  0  0  0  0
   -1.1843   22.4951  -28.9010 H   0  0  0  0  0  0  0  0  0  0  0  0
   -2.8046   21.0546  -27.8976 H   0  0  0  0  0  0  0  0  0  0  0  0
   -3.4643   19.0073  -25.2303 H   0  0  0  0  0  0  0  0  0  0  0  0
   -4.2682   19.8090  -26.6223 H   0  0  0  0  0  0  0  0  0  0  0  0
   -4.0378   18.0275  -26.6223 H   0  0  0  0  0  0  0  0  0  0  0  0
   -1.4805   17.2730  -26.2767 H   0  0  0  0  0  0  0  0  0  0  0  0
    0.7200   17.5576  -27.3953 H   0  0  0  0  0  0  0  0  0  0  0  0
    2.3398   19.6673  -28.1316 H   0  0  0  0  0  0  0  0  0  0  0  0
    1.7749   18.7125  -29.5444 H   0  0  0  0  0  0  0  0  0  0  0  0
    1.6080   20.5010  -29.5444 H   0  0  0  0  0  0  0  0  0  0  0  0
   -1.1506   22.1580  -35.1874 H   0  0  0  0  0  0  0  0  0  0  0  0
   -0.0584   23.9437  -36.5353 H   0  0  0  0  0  0  0  0  0  0  0  0
  1  2  1  0
  2  3  1  0
  3  4  2  0
  4  5  1  0
  5  6  2  0
  6  7  1  0
  7  8  1  0
  8  9  1  0
  9 10  2  0
  9 11  1  0
 11 12  2  0
 12 13  1  0
 13 14  1  0
 14 15  2  0
 14 16  2  0
 14 17  1  0
 17 18  1  0
 18 19  1  0
 19 20  1  0
 20 21  1  0
 21 22  1  0
 13 23  2  0
 23 24  1  0
 24 25  2  0
 25 26  1  0
 26 27  1  0
 27 28  1  0
 28 29  2  0
 29 30  1  0
 30 31  1  0
 30 32  2  0
 32 33  1  0
 33 34  2  0
 34 35  1  0
 26 36  1  0
 36 37  2  0
  6 38  1  0
 38 39  2  0
 39  3  1  0
 36  8  1  0
 25 11  1  0
 34 28  1  0
 22 17  1  0
  1 40  1  0
  1 41  1  0
  1 42  1  0
  4 43  1  0
  5 44  1  0
  7 45  1  0
  7 46  1  0
 12 47  1  0
 18 48  1  0
 18 49  1  0
 19 50  1  0
 19 51  1  0
 20 52  1  0
 20 53  1  0
 21 54  1  0
 21 55  1  0
 22 56  1  0
 22 57  1  0
 23 58  1  0
 24 59  1  0
 27 60  1  0
 27 61  1  0
 29 62  1  0
 31 63  1  0
 31 64  1  0
 31 65  1  0
 32 66  1  0
 33 67  1  0
 35 68  1  0
 35 69  1  0
 35 70  1  0
 38 71  1  0
 39 72  1  0
M  END
>  <UniqueID>  (21) 
21

>  <SMILES>  (21) 
COc1ccc(Cn2c(=O)c3cc(S(=O)(=O)N4CCCCC4)ccc3n(Cc3cc(C)ccc3C)c2=O)cc1

>  <Energy>  (21) 
96.73240860442498

>  <Genealogy>  (21) 
COc1ccc(Cn2c(=O)c3cc(S(=O)(=O)N4CCCCC4)ccc3n(Cc3cc(C)ccc3C)c2=O)cc1 (3D coordinates assigned)
COc1ccc(Cn2c(=O)c3cc(S(=O)(=O)N4CCCCC4)ccc3n(Cc3cc(C)ccc3C)c2=O)cc1 (nonaromatic ring conformer: 96.73240860442498 kcal/mol)

>  <smiles>  (21) 
COc1ccc(Cn2c(=O)c3cc(S(=O)(=O)N4CCCCC4)ccc3n(Cc3cc(C)ccc3C)c2=O)cc1

>  <score_type>  (21) 
oracle

>  <origin>  (21) 
adgpu

>  <m_score__min__energy>  (21) 
-11.42

>  <m_primary>  (21) 
energy

$$$$
21:0
     RDKit          3D

 36 38  0  0  0  0  0  0  0  0999 V2000
   -2.8430   24.4250  -28.7390 C   0  0  0  0  0  0  0  0  0  0  0  0
   -3.9020   24.1580  -29.7560 C   0  0  0  0  0  0  0  0  0  0  0  0
   -4.8580   23.1680  -29.6880 C   0  0  0  0  0  0  0  0  0  0  0  0
   -5.6310   23.3850  -30.8140 C   0  0  0  0  0  0  0  0  0  0  0  0
   -6.8120   22.6110  -31.2610 C   0  0  0  0  0  0  0  0  0  0  0  0
   -8.0130   23.2830  -31.5460 C   0  0  0  0  0  0  0  0  0  0  0  0
   -9.1380   22.5710  -31.9680 C   0  0  0  0  0  0  0  0  0  0  0  0
   -9.0790   21.1830  -32.1090 C   0  0  0  0  0  0  0  0  0  0  0  0
   -7.8930   20.4960  -31.8210 C   0  0  0  0  0  0  0  0  0  0  0  0
   -7.8170   18.7390  -32.0040 S   0  0  0  0  0  0  0  0  0  0  0  0
   -9.2120   18.1810  -31.9510 O   0  0  0  0  0  0  0  0  0  0  0  0
   -7.0410   18.1610  -30.8530 O   0  0  0  0  0  0  0  0  0  0  0  0
   -7.0640   18.2450  -33.5010 N   0  0  0  0  0  0  0  0  0  0  0  0
   -5.8900   19.0550  -33.8200 C   0  0  0  0  0  0  0  0  0  0  0  0
   -5.0060   18.1960  -34.7100 C   0  0  0  0  0  0  0  0  0  0  0  0
   -5.4560   16.7640  -34.4620 C   0  0  0  0  0  0  0  0  0  0  0  0
   -6.5840   16.8650  -33.4460 C   0  0  0  0  0  0  0  0  0  0  0  0
   -6.7600   21.2130  -31.4070 C   0  0  0  0  0  0  0  0  0  0  0  0
   -5.1480   24.4260  -31.4560 O   0  0  0  0  0  0  0  0  0  0  0  0
   -4.1110   24.9220  -30.8440 N   0  0  0  0  0  0  0  0  0  0  0  0
   -3.2681   24.3178  -27.7301 H   0  0  0  0  0  0  0  0  0  0  0  0
   -2.0206   23.7061  -28.8686 H   0  0  0  0  0  0  0  0  0  0  0  0
   -2.4597   25.4479  -28.8686 H   0  0  0  0  0  0  0  0  0  0  0  0
   -4.9779   22.3896  -28.9201 H   0  0  0  0  0  0  0  0  0  0  0  0
   -8.0673   24.3761  -31.4361 H   0  0  0  0  0  0  0  0  0  0  0  0
  -10.0735   23.1053  -32.1900 H   0  0  0  0  0  0  0  0  0  0  0  0
   -9.9663   20.6277  -32.4472 H   0  0  0  0  0  0  0  0  0  0  0  0
   -6.1916   19.9694  -34.3519 H   0  0  0  0  0  0  0  0  0  0  0  0
   -5.3582   19.3637  -32.9079 H   0  0  0  0  0  0  0  0  0  0  0  0
   -5.1456   18.4660  -35.7672 H   0  0  0  0  0  0  0  0  0  0  0  0
   -3.9385   18.3351  -34.4839 H   0  0  0  0  0  0  0  0  0  0  0  0
   -5.8181   16.3074  -35.3949 H   0  0  0  0  0  0  0  0  0  0  0  0
   -4.6318   16.1337  -34.0968 H   0  0  0  0  0  0  0  0  0  0  0  0
   -7.3949   16.1691  -33.7069 H   0  0  0  0  0  0  0  0  0  0  0  0
   -6.2366   16.6027  -32.4358 H   0  0  0  0  0  0  0  0  0  0  0  0
   -5.8231   20.6771  -31.1948 H   0  0  0  0  0  0  0  0  0  0  0  0
  1  2  1  0
  2  3  1  0
  3  4  2  0
  4  5  1  0
  5  6  2  0
  6  7  1  0
  7  8  2  0
  8  9  1  0
  9 10  1  0
 10 11  2  0
 10 12  2  0
 10 13  1  0
 13 14  1  0
 14 15  1  0
 15 16  1  0
 16 17  1  0
  9 18  2  0
  4 19  1  0
 19 20  1  0
 20  2  2  0
 18  5  1  0
 17 13  1  0
  1 21  1  0
  1 22  1  0
  1 23  1  0
  3 24  1  0
  6 25  1  0
  7 26  1  0
  8 27  1  0
 14 28  1  0
 14 29  1  0
 15 30  1  0
 15 31  1  0
 16 32  1  0
 16 33  1  0
 17 34  1  0
 17 35  1  0
 18 36  1  0
M  END
>  <UniqueID>  (22) 
22

>  <SMILES>  (22) 
Cc1cc(-c2cccc(S(=O)(=O)N3CCCC3)c2)on1

>  <Energy>  (22) 
67.72403619707067

>  <Genealogy>  (22) 
Cc1cc(-c2cccc(S(=O)(=O)N3CCCC3)c2)on1 (3D coordinates assigned)
Cc1cc(-c2cccc(S(=O)(=O)N3CCCC3)c2)on1 (nonaromatic ring conformer: 67.72403619707067 kcal/mol)

>  <smiles>  (22) 
Cc1cc(-c2cccc(S(=O)(=O)N3CCCC3)c2)on1

>  <score_type>  (22) 
oracle

>  <origin>  (22) 
adgpu

>  <m_score__min__energy>  (22) 
-9.1799999999999997

>  <m_primary>  (22) 
energy

$$$$
22:0
     RDKit          3D

 48 51  0  0  0  0  0  0  0  0999 V2000
   -4.5840   24.5650  -28.3450 O   0  0  0  0  0  0  0  0  0  0  0  0
   -3.5430   24.2810  -29.3910 S   0  0  0  0  0  0  0  0  0  0  0  0
   -2.4190   25.2660  -29.2490 O   0  0  0  0  0  0  0  0  0  0  0  0
   -4.2400   24.4300  -30.9690 N   0  0  0  0  0  0  0  0  0  0  0  0
   -5.0900   23.4270  -31.5380 C   0  0  0  0  0  0  0  0  0  0  0  0
   -6.4870   23.5660  -31.5370 C   0  0  0  0  0  0  0  0  0  0  0  0
   -7.2990   22.5210  -31.9890 C   0  0  0  0  0  0  0  0  0  0  0  0
   -9.0460   22.6910  -31.9560 Cl  0  0  0  0  0  0  0  0  0  0  0  0
   -6.7200   21.3330  -32.4420 C   0  0  0  0  0  0  0  0  0  0  0  0
   -5.3260   21.1960  -32.4740 C   0  0  0  0  0  0  0  0  0  0  0  0
   -4.5980   19.6650  -32.9530 S   0  0  0  0  0  0  0  0  0  0  0  0
   -5.0940   19.2690  -34.3190 O   0  0  0  0  0  0  0  0  0  0  0  0
   -4.9970   18.5940  -31.9720 O   0  0  0  0  0  0  0  0  0  0  0  0
   -2.8600   19.8320  -32.9500 N   0  0  0  0  0  0  0  0  0  0  0  0
   -2.1850   18.6220  -33.4410 C   0  0  0  0  0  0  0  0  0  0  0  0
   -0.9370   19.0690  -34.1980 C   0  0  0  0  0  0  0  0  0  0  0  0
   -0.9880   20.5870  -34.2090 C   0  0  0  0  0  0  0  0  0  0  0  0
   -2.4140   20.9210  -33.8160 C   0  0  0  0  0  0  0  0  0  0  0  0
   -4.5160   22.2530  -32.0400 C   0  0  0  0  0  0  0  0  0  0  0  0
   -2.8980   22.6490  -29.2260 C   0  0  0  0  0  0  0  0  0  0  0  0
   -3.0670   21.9710  -28.0100 C   0  0  0  0  0  0  0  0  0  0  0  0
   -2.4150   20.7550  -27.7840 C   0  0  0  0  0  0  0  0  0  0  0  0
   -1.5800   20.2210  -28.7690 C   0  0  0  0  0  0  0  0  0  0  0  0
   -1.4440   20.8680  -30.0050 C   0  0  0  0  0  0  0  0  0  0  0  0
   -2.0970   22.0840  -30.2330 C   0  0  0  0  0  0  0  0  0  0  0  0
   -0.6350   20.2930  -30.9890 O   0  0  0  0  0  0  0  0  0  0  0  0
   -0.1360   18.9610  -30.8520 C   0  0  0  0  0  0  0  0  0  0  0  0
    0.2230   18.6740  -29.3890 C   0  0  0  0  0  0  0  0  0  0  0  0
   -0.8570   19.0510  -28.5340 O   0  0  0  0  0  0  0  0  0  0  0  0
   -6.9445   24.5002  -31.1794 H   0  0  0  0  0  0  0  0  0  0  0  0
   -7.3604   20.5028  -32.7745 H   0  0  0  0  0  0  0  0  0  0  0  0
   -2.5500   20.0280  -31.9690 H   0  0  0  0  0  0  0  0  0  0  0  0
   -1.9009   17.9803  -32.5939 H   0  0  0  0  0  0  0  0  0  0  0  0
   -2.8521   18.0458  -34.0990 H   0  0  0  0  0  0  0  0  0  0  0  0
   -0.0299   18.7190  -33.6836 H   0  0  0  0  0  0  0  0  0  0  0  0
   -0.9088   18.6552  -35.2168 H   0  0  0  0  0  0  0  0  0  0  0  0
   -0.2761   21.0054  -33.4822 H   0  0  0  0  0  0  0  0  0  0  0  0
   -0.7139   21.0080  -35.1876 H   0  0  0  0  0  0  0  0  0  0  0  0
   -2.4468   21.8778  -33.2742 H   0  0  0  0  0  0  0  0  0  0  0  0
   -3.0614   21.0235  -34.6994 H   0  0  0  0  0  0  0  0  0  0  0  0
   -3.4213   22.1600  -32.0940 H   0  0  0  0  0  0  0  0  0  0  0  0
   -3.7154   22.3978  -27.2306 H   0  0  0  0  0  0  0  0  0  0  0  0
   -2.5589   20.2202  -26.8336 H   0  0  0  0  0  0  0  0  0  0  0  0
   -1.9836   22.5972  -31.1993 H   0  0  0  0  0  0  0  0  0  0  0  0
   -0.9067   18.2492  -31.1827 H   0  0  0  0  0  0  0  0  0  0  0  0
    0.7677   18.8526  -31.4697 H   0  0  0  0  0  0  0  0  0  0  0  0
    0.4242   17.5993  -29.2682 H   0  0  0  0  0  0  0  0  0  0  0  0
    1.1162   19.2557  -29.1174 H   0  0  0  0  0  0  0  0  0  0  0  0
  1  2  2  0
  2  3  2  0
  2  4  1  0
  4  5  1  0
  5  6  2  0
  6  7  1  0
  7  8  1  0
  7  9  2  0
  9 10  1  0
 10 11  1  0
 11 12  2  0
 11 13  2  0
 11 14  1  0
 14 15  1  0
 15 16  1  0
 16 17  1  0
 17 18  1  0
 10 19  2  0
  2 20  1  0
 20 21  2  0
 21 22  1  0
 22 23  2  0
 23 24  1  0
 24 25  2  0
 24 26  1  0
 26 27  1  0
 27 28  1  0
 28 29  1  0
 19  5  1  0
 25 20  1  0
 18 14  1  0
 29 23  1  0
  6 30  1  0
  9 31  1  0
 14 32  1  0
 15 33  1  0
 15 34  1  0
 16 35  1  0
 16 36  1  0
 17 37  1  0
 17 38  1  0
 18 39  1  0
 18 40  1  0
 19 41  1  0
 21 42  1  0
 22 43  1  0
 25 44  1  0
 27 45  1  0
 27 46  1  0
 28 47  1  0
 28 48  1  0
M  CHG  2   4  -1  14   1
M  END
>  <UniqueID>  (23) 
23

>  <SMILES>  (23) 
O=S(=O)([N-]c1cc(Cl)cc(S(=O)(=O)[NH+]2CCCC2)c1)c1ccc2c(c1)OCCO2

>  <Energy>  (23) 
56.67018709144017

>  <Genealogy>  (23) 
O=S(=O)([N-]c1cc(Cl)cc(S(=O)(=O)[NH+]2CCCC2)c1)c1ccc2c(c1)OCCO2 (protonated)
O=S(=O)([N-]c1cc(Cl)cc(S(=O)(=O)[NH+]2CCCC2)c1)c1ccc2c(c1)OCCO2 (3D coordinates assigned)
O=S(=O)([N-]c1cc(Cl)cc(S(=O)(=O)[NH+]2CCCC2)c1)c1ccc2c(c1)OCCO2 (nonaromatic ring conformer: 56.67018709144017 kcal/mol)

>  <smiles>  (23) 
O=S(=O)(Nc1cc(Cl)cc(S(=O)(=O)N2CCCC2)c1)c1ccc2c(c1)OCCO2

>  <score_type>  (23) 
oracle

>  <origin>  (23) 
adgpu

>  <m_score__min__energy>  (23) 
-10.35

>  <m_primary>  (23) 
energy

$$$$
23:0
     RDKit          3D

 58 61  0  0  0  0  0  0  0  0999 V2000
   -2.7250   21.4290  -28.9030 O   0  0  0  0  0  0  0  0  0  0  0  0
   -2.4180   22.5020  -29.4920 C   0  0  0  0  0  0  0  0  0  0  0  0
   -2.7160   22.6610  -30.8880 N   0  0  0  0  0  0  0  0  0  0  0  0
   -2.9300   21.5640  -31.7940 C   0  0  0  0  0  0  0  0  0  0  0  0
   -1.8720   21.0160  -32.5430 C   0  0  0  0  0  0  0  0  0  0  0  0
   -2.1100   19.9680  -33.4350 C   0  0  0  0  0  0  0  0  0  0  0  0
   -3.4030   19.4650  -33.5980 C   0  0  0  0  0  0  0  0  0  0  0  0
   -4.4690   20.0160  -32.8760 C   0  0  0  0  0  0  0  0  0  0  0  0
   -6.1070   19.3970  -33.1020 S   0  0  0  0  0  0  0  0  0  0  0  0
   -6.1750   17.9810  -32.5990 O   0  0  0  0  0  0  0  0  0  0  0  0
   -6.4300   19.3840  -34.5710 O   0  0  0  0  0  0  0  0  0  0  0  0
   -7.2920   20.3660  -32.2620 N   0  0  0  0  0  0  0  0  0  0  0  0
   -7.0400   21.7990  -32.4890 C   0  0  0  0  0  0  0  0  0  0  0  0
   -8.2120   22.6490  -31.9550 C   0  0  0  0  0  0  0  0  0  0  0  0
   -9.0760   21.8750  -31.1470 O   0  0  0  0  0  0  0  0  0  0  0  0
   -9.6860   20.8610  -31.9290 C   0  0  0  0  0  0  0  0  0  0  0  0
   -8.6510   20.0150  -32.7000 C   0  0  0  0  0  0  0  0  0  0  0  0
   -4.2290   21.0670  -31.9790 C   0  0  0  0  0  0  0  0  0  0  0  0
   -1.8180   23.6110  -28.7140 C   0  0  0  0  0  0  0  0  0  0  0  0
   -0.8600   23.3220  -27.7230 C   0  0  0  0  0  0  0  0  0  0  0  0
   -0.2840   24.3510  -26.9640 C   0  0  0  0  0  0  0  0  0  0  0  0
    0.8900   23.9890  -25.7020 S   0  0  0  0  0  0  0  0  0  0  0  0
    2.2660   24.0050  -26.3070 O   0  0  0  0  0  0  0  0  0  0  0  0
    0.6320   22.6220  -25.1290 O   0  0  0  0  0  0  0  0  0  0  0  0
    0.7800   25.1930  -24.4420 N   0  0  0  0  0  0  0  0  0  0  0  0
    1.5240   26.4200  -24.8060 C   0  0  0  0  0  0  0  0  0  0  0  0
    0.5850   27.5730  -25.2040 C   0  0  0  0  0  0  0  0  0  0  0  0
   -0.3370   27.9210  -24.1810 O   0  0  0  0  0  0  0  0  0  0  0  0
   -0.7910   26.8100  -23.4160 C   0  0  0  0  0  0  0  0  0  0  0  0
   -0.6360   25.4520  -24.1200 C   0  0  0  0  0  0  0  0  0  0  0  0
   -0.6650   25.6760  -27.1930 C   0  0  0  0  0  0  0  0  0  0  0  0
   -1.6000   25.9780  -28.1840 C   0  0  0  0  0  0  0  0  0  0  0  0
   -2.1710   24.9570  -28.9510 C   0  0  0  0  0  0  0  0  0  0  0  0
   -3.0670   25.2980  -29.9590 O   0  0  0  0  0  0  0  0  0  0  0  0
   -2.8950   23.6300  -31.2400 H   0  0  0  0  0  0  0  0  0  0  0  0
   -0.8536   21.4147  -32.4254 H   0  0  0  0  0  0  0  0  0  0  0  0
   -1.2773   19.5376  -34.0106 H   0  0  0  0  0  0  0  0  0  0  0  0
   -3.5843   18.6339  -34.2954 H   0  0  0  0  0  0  0  0  0  0  0  0
   -6.1158   22.0902  -31.9683 H   0  0  0  0  0  0  0  0  0  0  0  0
   -6.9395   21.9740  -33.5703 H   0  0  0  0  0  0  0  0  0  0  0  0
   -7.8097   23.4801  -31.3571 H   0  0  0  0  0  0  0  0  0  0  0  0
   -8.7852   23.0313  -32.8125 H   0  0  0  0  0  0  0  0  0  0  0  0
  -10.2599   20.1986  -31.2643 H   0  0  0  0  0  0  0  0  0  0  0  0
  -10.3377   21.3512  -32.6673 H   0  0  0  0  0  0  0  0  0  0  0  0
   -8.8333   18.9481  -32.5040 H   0  0  0  0  0  0  0  0  0  0  0  0
   -8.7480   20.2170  -33.7769 H   0  0  0  0  0  0  0  0  0  0  0  0
   -5.0661   21.5053  -31.4158 H   0  0  0  0  0  0  0  0  0  0  0  0
   -0.5606   22.2790  -27.5425 H   0  0  0  0  0  0  0  0  0  0  0  0
    2.1282   26.7370  -23.9432 H   0  0  0  0  0  0  0  0  0  0  0  0
    2.1576   26.1856  -25.6741 H   0  0  0  0  0  0  0  0  0  0  0  0
    1.1964   28.4567  -25.4393 H   0  0  0  0  0  0  0  0  0  0  0  0
   -0.0008   27.2337  -26.0710 H   0  0  0  0  0  0  0  0  0  0  0  0
   -0.2167   26.7796  -22.4783 H   0  0  0  0  0  0  0  0  0  0  0  0
   -1.8685   26.9591  -23.2525 H   0  0  0  0  0  0  0  0  0  0  0  0
   -1.0074   24.6566  -23.4571 H   0  0  0  0  0  0  0  0  0  0  0  0
   -1.2150   25.4691  -25.0551 H   0  0  0  0  0  0  0  0  0  0  0  0
   -0.2260   26.4842  -26.5896 H   0  0  0  0  0  0  0  0  0  0  0  0
   -1.8894   27.0241  -28.3629 H   0  0  0  0  0  0  0  0  0  0  0  0
  1  2  2  0
  2  3  1  0
  3  4  1  0
  4  5  2  0
  5  6  1  0
  6  7  2  0
  7  8  1  0
  8  9  1  0
  9 10  2  0
  9 11  2  0
  9 12  1  0
 12 13  1  0
 13 14  1  0
 14 15  1  0
 15 16  1  0
 16 17  1  0
  8 18  2  0
  2 19  1  0
 19 20  2  0
 20 21  1  0
 21 22  1  0
 22 23  2  0
 22 24  2  0
 22 25  1  0
 25 26  1  0
 26 27  1  0
 27 28  1  0
 28 29  1  0
 29 30  1  0
 21 31  2  0
 31 32  1  0
 32 33  2  0
 33 34  1  0
 18  4  1  0
 33 19  1  0
 17 12  1  0
 30 25  1  0
  3 35  1  0
  5 36  1  0
  6 37  1  0
  7 38  1  0
 13 39  1  0
 13 40  1  0
 14 41  1  0
 14 42  1  0
 16 43  1  0
 16 44  1  0
 17 45  1  0
 17 46  1  0
 18 47  1  0
 20 48  1  0
 26 49  1  0
 26 50  1  0
 27 51  1  0
 27 52  1  0
 29 53  1  0
 29 54  1  0
 30 55  1  0
 30 56  1  0
 31 57  1  0
 32 58  1  0
M  CHG  1  34  -1
M  END
>  <UniqueID>  (24) 
24

>  <SMILES>  (24) 
O=C(Nc1cccc(S(=O)(=O)N2CCOCC2)c1)c1cc(S(=O)(=O)N2CCOCC2)ccc1[O-]

>  <Energy>  (24) 
87.05716341759508

>  <Genealogy>  (24) 
O=C(Nc1cccc(S(=O)(=O)N2CCOCC2)c1)c1cc(S(=O)(=O)N2CCOCC2)ccc1[O-] (protonated)
O=C(Nc1cccc(S(=O)(=O)N2CCOCC2)c1)c1cc(S(=O)(=O)N2CCOCC2)ccc1[O-] (3D coordinates assigned)
O=C(Nc1cccc(S(=O)(=O)N2CCOCC2)c1)c1cc(S(=O)(=O)N2CCOCC2)ccc1[O-] (nonaromatic ring conformer: 87.05716341759508 kcal/mol)

>  <smiles>  (24) 
O=C(Nc1cccc(S(=O)(=O)N2CCOCC2)c1)c1cc(S(=O)(=O)N2CCOCC2)ccc1O

>  <score_type>  (24) 
oracle

>  <origin>  (24) 
adgpu

>  <m_score__min__energy>  (24) 
-13.449999999999999

>  <m_primary>  (24) 
energy

$$$$
24:0
     RDKit          3D

 45 47  0  0  0  0  0  0  0  0999 V2000
   -0.8880   22.1350  -28.1270 C   0  0  0  0  0  0  0  0  0  0  0  0
   -2.0390   22.4510  -27.2640 N   0  0  0  0  0  0  0  0  0  0  0  0
   -3.2660   21.7420  -27.6810 C   0  0  0  0  0  0  0  0  0  0  0  0
   -3.9220   22.3810  -28.9130 C   0  0  0  0  0  0  0  0  0  0  0  0
   -4.1870   23.8070  -28.6660 N   0  0  0  0  0  0  0  0  0  0  0  0
   -4.9350   24.5160  -30.0740 S   0  0  0  0  0  0  0  0  0  0  0  0
   -3.9300   25.3310  -30.8410 O   0  0  0  0  0  0  0  0  0  0  0  0
   -6.0610   25.4190  -29.6510 O   0  0  0  0  0  0  0  0  0  0  0  0
   -5.5900   23.2450  -31.1030 C   0  0  0  0  0  0  0  0  0  0  0  0
   -6.9610   22.9630  -31.0730 C   0  0  0  0  0  0  0  0  0  0  0  0
   -7.4870   21.9400  -31.8650 C   0  0  0  0  0  0  0  0  0  0  0  0
   -6.6470   21.1820  -32.6970 C   0  0  0  0  0  0  0  0  0  0  0  0
   -7.2080   20.0510  -33.5180 C   0  0  0  0  0  0  0  0  0  0  0  0
   -6.6390   18.7610  -33.0780 N   0  0  0  0  0  0  0  0  0  0  0  0
   -5.6820   18.1310  -33.8370 C   0  0  0  0  0  0  0  0  0  0  0  0
   -5.2990   18.6230  -34.9340 O   0  0  0  0  0  0  0  0  0  0  0  0
   -5.1180   16.9300  -33.4070 C   0  0  0  0  0  0  0  0  0  0  0  0
   -5.5380   16.3860  -32.1950 C   0  0  0  0  0  0  0  0  0  0  0  0
   -5.0020   15.1890  -31.7250 O   0  0  0  0  0  0  0  0  0  0  0  0
   -6.4790   17.0300  -31.4650 N   0  0  0  0  0  0  0  0  0  0  0  0
   -7.0280   18.2000  -31.8850 C   0  0  0  0  0  0  0  0  0  0  0  0
   -7.9000   18.7540  -31.1630 O   0  0  0  0  0  0  0  0  0  0  0  0
   -5.2700   21.4620  -32.7190 C   0  0  0  0  0  0  0  0  0  0  0  0
   -4.7460   22.4870  -31.9270 C   0  0  0  0  0  0  0  0  0  0  0  0
   -2.9310   24.5120  -28.3720 C   0  0  0  0  0  0  0  0  0  0  0  0
   -2.2610   23.9060  -27.1310 C   0  0  0  0  0  0  0  0  0  0  0  0
   -0.0155   21.8955  -27.5014 H   0  0  0  0  0  0  0  0  0  0  0  0
   -1.1322   21.2707  -28.7621 H   0  0  0  0  0  0  0  0  0  0  0  0
   -0.6567   23.0029  -28.7621 H   0  0  0  0  0  0  0  0  0  0  0  0
   -3.0078   20.6996  -27.9192 H   0  0  0  0  0  0  0  0  0  0  0  0
   -3.9851   21.8000  -26.8506 H   0  0  0  0  0  0  0  0  0  0  0  0
   -3.2478   22.2810  -29.7764 H   0  0  0  0  0  0  0  0  0  0  0  0
   -4.8740   21.8696  -29.1183 H   0  0  0  0  0  0  0  0  0  0  0  0
   -7.6267   23.5497  -30.4229 H   0  0  0  0  0  0  0  0  0  0  0  0
   -8.5657   21.7267  -31.8370 H   0  0  0  0  0  0  0  0  0  0  0  0
   -8.3011   20.0242  -33.3983 H   0  0  0  0  0  0  0  0  0  0  0  0
   -6.9462   20.2138  -34.5739 H   0  0  0  0  0  0  0  0  0  0  0  0
   -4.3549   16.4211  -34.0142 H   0  0  0  0  0  0  0  0  0  0  0  0
   -5.1820   14.8630  -30.7840 H   0  0  0  0  0  0  0  0  0  0  0  0
   -4.6015   20.8715  -33.3628 H   0  0  0  0  0  0  0  0  0  0  0  0
   -3.6671   22.7001  -31.9501 H   0  0  0  0  0  0  0  0  0  0  0  0
   -2.2524   24.4198  -29.2328 H   0  0  0  0  0  0  0  0  0  0  0  0
   -3.1512   25.5724  -28.1793 H   0  0  0  0  0  0  0  0  0  0  0  0
   -1.2896   24.3989  -26.9779 H   0  0  0  0  0  0  0  0  0  0  0  0
   -2.9336   24.0656  -26.2753 H   0  0  0  0  0  0  0  0  0  0  0  0
  1  2  1  0
  2  3  1  0
  3  4  1  0
  4  5  1  0
  5  6  1  0
  6  7  2  0
  6  8  2  0
  6  9  1  0
  9 10  2  0
 10 11  1  0
 11 12  2  0
 12 13  1  0
 13 14  1  0
 14 15  1  0
 15 16  2  0
 15 17  1  0
 17 18  2  0
 18 19  1  0
 18 20  1  0
 20 21  1  0
 21 22  2  0
 12 23  1  0
 23 24  2  0
  5 25  1  0
 25 26  1  0
 26  2  1  0
 24  9  1  0
 21 14  1  0
  1 27  1  0
  1 28  1  0
  1 29  1  0
  3 30  1  0
  3 31  1  0
  4 32  1  0
  4 33  1  0
 10 34  1  0
 11 35  1  0
 13 36  1  0
 13 37  1  0
 17 38  1  0
 19 39  1  0
 23 40  1  0
 24 41  1  0
 25 42  1  0
 25 43  1  0
 26 44  1  0
 26 45  1  0
M  CHG  1  20  -1
M  END
>  <UniqueID>  (25) 
25

>  <SMILES>  (25) 
CN1CCN(S(=O)(=O)c2ccc(Cn3c(=O)cc(O)[n-]c3=O)cc2)CC1

>  <Energy>  (25) 
50.83422520950629

>  <Genealogy>  (25) 
CN1CCN(S(=O)(=O)c2ccc(Cn3c(=O)cc(O)[n-]c3=O)cc2)CC1 (protonated)
CN1CCN(S(=O)(=O)c2ccc(Cn3c(=O)cc(O)[n-]c3=O)cc2)CC1 (3D coordinates assigned)
CN1CCN(S(=O)(=O)c2ccc(Cn3c(=O)cc(O)[n-]c3=O)cc2)CC1 (nonaromatic ring conformer: 50.83422520950629 kcal/mol)

>  <smiles>  (25) 
CN1CCN(S(=O)(=O)c2ccc(Cn3c(=O)cc(O)[nH]c3=O)cc2)CC1

>  <score_type>  (25) 
oracle

>  <origin>  (25) 
adgpu

>  <m_score__min__energy>  (25) 
-9.3900000000000006

>  <m_primary>  (25) 
energy

$$$$
25:0
     RDKit          3D

 76 80  0  0  0  0  0  0  0  0999 V2000
    2.2250   19.5850  -28.6460 N   0  0  0  0  0  0  0  0  0  0  0  0
    1.1160   19.8130  -28.4080 C   0  0  0  0  0  0  0  0  0  0  0  0
   -0.2670   20.1000  -28.1100 C   0  0  0  0  0  0  0  0  0  0  0  0
   -0.6590   20.2730  -26.7760 C   0  0  0  0  0  0  0  0  0  0  0  0
   -1.9990   20.5200  -26.4630 C   0  0  0  0  0  0  0  0  0  0  0  0
   -2.9530   20.5930  -27.4820 C   0  0  0  0  0  0  0  0  0  0  0  0
   -2.5700   20.4210  -28.8160 C   0  0  0  0  0  0  0  0  0  0  0  0
   -1.2270   20.1820  -29.1400 C   0  0  0  0  0  0  0  0  0  0  0  0
   -0.8480   19.9980  -30.5110 N   0  0  0  0  0  0  0  0  0  0  0  0
   -0.5120   18.6610  -31.0080 C   0  0  0  0  0  0  0  0  0  0  0  0
   -0.7670   18.5750  -32.5180 C   0  0  0  0  0  0  0  0  0  0  0  0
   -1.9200   19.4330  -32.8560 N   0  0  0  0  0  0  0  0  0  0  0  0
   -2.4410   19.1620  -34.2120 C   0  0  0  0  0  0  0  0  0  0  0  0
   -3.3170   17.8970  -34.2190 C   0  0  0  0  0  0  0  0  0  0  0  0
   -4.8160   18.2110  -34.1840 C   0  0  0  0  0  0  0  0  0  0  0  0
   -5.6890   17.4020  -32.7920 S   0  0  0  0  0  0  0  0  0  0  0  0
   -6.8510   18.7440  -32.4840 C   0  0  0  0  0  0  0  0  0  0  0  0
   -8.2100   18.4260  -32.3450 C   0  0  0  0  0  0  0  0  0  0  0  0
   -9.1620   19.4380  -32.2010 C   0  0  0  0  0  0  0  0  0  0  0  0
   -8.7640   20.7750  -32.1890 C   0  0  0  0  0  0  0  0  0  0  0  0
   -7.4110   21.1020  -32.2930 C   0  0  0  0  0  0  0  0  0  0  0  0
   -6.4410   20.0980  -32.4020 C   0  0  0  0  0  0  0  0  0  0  0  0
   -5.0630   20.4970  -32.4330 N   0  0  0  0  0  0  0  0  0  0  0  0
   -4.5430   21.8360  -32.4590 C   0  0  0  0  0  0  0  0  0  0  0  0
   -4.0670   22.2720  -33.5430 O   0  0  0  0  0  0  0  0  0  0  0  0
   -4.5570   22.7270  -31.2710 C   0  0  0  0  0  0  0  0  0  0  0  0
   -5.7640   23.3240  -30.8660 C   0  0  0  0  0  0  0  0  0  0  0  0
   -5.7860   24.2080  -29.7860 C   0  0  0  0  0  0  0  0  0  0  0  0
   -4.6060   24.5120  -29.1040 C   0  0  0  0  0  0  0  0  0  0  0  0
   -3.4000   23.9020  -29.4760 C   0  0  0  0  0  0  0  0  0  0  0  0
   -1.9050   24.3090  -28.6350 S   0  0  0  0  0  0  0  0  0  0  0  0
   -0.7960   23.4380  -29.1540 O   0  0  0  0  0  0  0  0  0  0  0  0
   -1.5510   25.7350  -28.9490 O   0  0  0  0  0  0  0  0  0  0  0  0
   -2.0330   24.1110  -26.9000 N   0  0  0  0  0  0  0  0  0  0  0  0
   -0.7640   23.6710  -26.2780 C   0  0  0  0  0  0  0  0  0  0  0  0
   -0.0360   24.8080  -25.5420 C   0  0  0  0  0  0  0  0  0  0  0  0
   -0.2830   26.0360  -26.1840 O   0  0  0  0  0  0  0  0  0  0  0  0
   -1.6280   26.4220  -25.9740 C   0  0  0  0  0  0  0  0  0  0  0  0
   -2.6410   25.2830  -26.2440 C   0  0  0  0  0  0  0  0  0  0  0  0
   -3.3830   22.9960  -30.5470 C   0  0  0  0  0  0  0  0  0  0  0  0
   -1.5560   20.8630  -32.7190 C   0  0  0  0  0  0  0  0  0  0  0  0
   -0.7770   21.1480  -31.4160 C   0  0  0  0  0  0  0  0  0  0  0  0
    0.0899   20.2143  -25.9725 H   0  0  0  0  0  0  0  0  0  0  0  0
   -2.3026   20.6569  -25.4146 H   0  0  0  0  0  0  0  0  0  0  0  0
   -4.0072   20.7861  -27.2341 H   0  0  0  0  0  0  0  0  0  0  0  0
   -3.3252   20.4734  -29.6140 H   0  0  0  0  0  0  0  0  0  0  0  0
    0.5497   18.4553  -30.8070 H   0  0  0  0  0  0  0  0  0  0  0  0
   -1.1429   17.9197  -30.4957 H   0  0  0  0  0  0  0  0  0  0  0  0
    0.1235   18.9207  -33.0635 H   0  0  0  0  0  0  0  0  0  0  0  0
   -0.9802   17.5339  -32.8021 H   0  0  0  0  0  0  0  0  0  0  0  0
   -3.0439   20.0198  -34.5446 H   0  0  0  0  0  0  0  0  0  0  0  0
   -1.5902   19.0050  -34.8913 H   0  0  0  0  0  0  0  0  0  0  0  0
   -3.0994   17.3242  -35.1326 H   0  0  0  0  0  0  0  0  0  0  0  0
   -3.0779   17.3243  -33.3108 H   0  0  0  0  0  0  0  0  0  0  0  0
   -4.9433   19.2997  -34.0913 H   0  0  0  0  0  0  0  0  0  0  0  0
   -5.2537   17.8221  -35.1152 H   0  0  0  0  0  0  0  0  0  0  0  0
   -8.5281   17.3730  -32.3494 H   0  0  0  0  0  0  0  0  0  0  0  0
  -10.2264   19.1805  -32.0970 H   0  0  0  0  0  0  0  0  0  0  0  0
   -9.5167   21.5719  -32.0975 H   0  0  0  0  0  0  0  0  0  0  0  0
   -7.1039   22.1582  -32.2893 H   0  0  0  0  0  0  0  0  0  0  0  0
   -6.6958   23.0932  -31.4031 H   0  0  0  0  0  0  0  0  0  0  0  0
   -6.7352   24.6663  -29.4714 H   0  0  0  0  0  0  0  0  0  0  0  0
   -4.6229   25.2321  -28.2726 H   0  0  0  0  0  0  0  0  0  0  0  0
   -0.9851   22.8703  -25.5569 H   0  0  0  0  0  0  0  0  0  0  0  0
   -0.1030   23.3220  -27.0850 H   0  0  0  0  0  0  0  0  0  0  0  0
   -0.3982   24.8605  -24.5047 H   0  0  0  0  0  0  0  0  0  0  0  0
    1.0457   24.6082  -25.5511 H   0  0  0  0  0  0  0  0  0  0  0  0
   -1.7388   26.7474  -24.9291 H   0  0  0  0  0  0  0  0  0  0  0  0
   -1.8498   27.2309  -26.6857 H   0  0  0  0  0  0  0  0  0  0  0  0
   -3.0714   24.9625  -25.2838 H   0  0  0  0  0  0  0  0  0  0  0  0
   -3.4066   25.6803  -26.9267 H   0  0  0  0  0  0  0  0  0  0  0  0
   -2.4443   22.4927  -30.8219 H   0  0  0  0  0  0  0  0  0  0  0  0
   -0.9298   21.1522  -33.5759 H   0  0  0  0  0  0  0  0  0  0  0  0
   -2.4884   21.4458  -32.6877 H   0  0  0  0  0  0  0  0  0  0  0  0
    0.2760   21.3506  -31.6613 H   0  0  0  0  0  0  0  0  0  0  0  0
   -1.2261   22.0198  -30.9177 H   0  0  0  0  0  0  0  0  0  0  0  0
  1  2  3  0
  2  3  1  0
  3  4  2  0
  4  5  1  0
  5  6  2  0
  6  7  1  0
  7  8  2  0
  8  9  1  0
  9 10  1  0
 10 11  1  0
 11 12  1  0
 12 13  1  0
 13 14  1  0
 14 15  1  0
 15 16  1  0
 16 17  1  0
 17 18  2  0
 18 19  1  0
 19 20  2  0
 20 21  1  0
 21 22  2  0
 22 23  1  0
 23 24  1  0
 24 25  2  0
 24 26  1  0
 26 27  2  0
 27 28  1  0
 28 29  2  0
 29 30  1  0
 30 31  1  0
 31 32  2  0
 31 33  2  0
 31 34  1  0
 34 35  1  0
 35 36  1  0
 36 37  1  0
 37 38  1  0
 38 39  1  0
 30 40  2  0
 12 41  1  0
 41 42  1  0
  8  3  1  0
 42  9  1  0
 22 17  1  0
 40 26  1  0
 39 34  1  0
  4 43  1  0
  5 44  1  0
  6 45  1  0
  7 46  1  0
 10 47  1  0
 10 48  1  0
 11 49  1  0
 11 50  1  0
 13 51  1  0
 13 52  1  0
 14 53  1  0
 14 54  1  0
 15 55  1  0
 15 56  1  0
 18 57  1  0
 19 58  1  0
 20 59  1  0
 21 60  1  0
 27 61  1  0
 28 62  1  0
 29 63  1  0
 35 64  1  0
 35 65  1  0
 36 66  1  0
 36 67  1  0
 38 68  1  0
 38 69  1  0
 39 70  1  0
 39 71  1  0
 40 72  1  0
 41 73  1  0
 41 74  1  0
 42 75  1  0
 42 76  1  0
M  CHG  1  23  -1
M  END
>  <UniqueID>  (26) 
26

>  <SMILES>  (26) 
N#Cc1ccccc1N1CCN(CCCSc2ccccc2[N-]C(=O)c2cccc(S(=O)(=O)N3CCOCC3)c2)CC1

>  <Energy>  (26) 
104.52823276328637

>  <Genealogy>  (26) 
N#Cc1ccccc1N1CCN(CCCSc2ccccc2[N-]C(=O)c2cccc(S(=O)(=O)N3CCOCC3)c2)CC1 (protonated)
N#Cc1ccccc1N1CCN(CCCSc2ccccc2[N-]C(=O)c2cccc(S(=O)(=O)N3CCOCC3)c2)CC1 (3D coordinates assigned)
N#Cc1ccccc1N1CCN(CCCSc2ccccc2[N-]C(=O)c2cccc(S(=O)(=O)N3CCOCC3)c2)CC1 (nonaromatic ring conformer: 104.52823276328637 kcal/mol)

>  <smiles>  (26) 
N#Cc1ccccc1N1CCN(CCCSc2ccccc2NC(=O)c2cccc(S(=O)(=O)N3CCOCC3)c2)CC1

>  <score_type>  (26) 
oracle

>  <origin>  (26) 
adgpu

>  <m_score__min__energy>  (26) 
-12.460000000000001

>  <m_primary>  (26) 
energy

$$$$
26:0
     RDKit          3D

 46 48  0  0  0  0  0  0  0  0999 V2000
   -2.2680   20.9910  -33.3970 O   0  0  0  0  0  0  0  0  0  0  0  0
   -2.9530   20.2880  -32.6060 C   0  0  0  0  0  0  0  0  0  0  0  0
   -2.5530   20.1770  -31.2350 N   0  0  0  0  0  0  0  0  0  0  0  0
   -3.3160   20.7220  -30.1190 C   0  0  0  0  0  0  0  0  0  0  0  0
   -2.8760   22.1300  -29.8190 C   0  0  0  0  0  0  0  0  0  0  0  0
   -1.7450   22.3570  -29.0190 C   0  0  0  0  0  0  0  0  0  0  0  0
   -1.3270   23.6620  -28.7450 C   0  0  0  0  0  0  0  0  0  0  0  0
   -2.0330   24.7490  -29.2680 C   0  0  0  0  0  0  0  0  0  0  0  0
   -1.6170   26.0450  -28.9860 O   0  0  0  0  0  0  0  0  0  0  0  0
   -3.1590   24.5310  -30.0700 C   0  0  0  0  0  0  0  0  0  0  0  0
   -3.8630   25.6080  -30.5950 O   0  0  0  0  0  0  0  0  0  0  0  0
   -3.5780   23.2260  -30.3460 C   0  0  0  0  0  0  0  0  0  0  0  0
   -4.1660   19.5750  -33.0880 C   0  0  0  0  0  0  0  0  0  0  0  0
   -5.4200   19.8730  -32.5200 C   0  0  0  0  0  0  0  0  0  0  0  0
   -6.5830   19.2260  -32.9610 C   0  0  0  0  0  0  0  0  0  0  0  0
   -8.1500   19.6460  -32.2630 S   0  0  0  0  0  0  0  0  0  0  0  0
   -9.2440   19.0650  -33.1170 O   0  0  0  0  0  0  0  0  0  0  0  0
   -8.2620   19.0400  -30.8920 O   0  0  0  0  0  0  0  0  0  0  0  0
   -8.3580   21.3780  -32.1470 N   0  0  0  0  0  0  0  0  0  0  0  0
   -7.1840   22.0760  -32.7140 C   0  0  0  0  0  0  0  0  0  0  0  0
   -7.1310   23.5380  -32.2620 C   0  0  0  0  0  0  0  0  0  0  0  0
   -6.9770   23.6370  -30.7330 C   0  0  0  0  0  0  0  0  0  0  0  0
   -7.5470   22.4110  -29.9980 C   0  0  0  0  0  0  0  0  0  0  0  0
   -8.7230   21.7950  -30.7700 C   0  0  0  0  0  0  0  0  0  0  0  0
   -6.4960   18.2590  -33.9660 C   0  0  0  0  0  0  0  0  0  0  0  0
   -5.2620   17.9500  -34.5370 C   0  0  0  0  0  0  0  0  0  0  0  0
   -4.1000   18.5980  -34.1090 C   0  0  0  0  0  0  0  0  0  0  0  0
   -2.8900   18.2590  -34.7050 O   0  0  0  0  0  0  0  0  0  0  0  0
   -4.3851   20.7239  -30.3778 H   0  0  0  0  0  0  0  0  0  0  0  0
   -3.1428   20.0975  -29.2302 H   0  0  0  0  0  0  0  0  0  0  0  0
   -1.1857   21.5044  -28.6063 H   0  0  0  0  0  0  0  0  0  0  0  0
   -0.4407   23.8341  -28.1166 H   0  0  0  0  0  0  0  0  0  0  0  0
   -4.4617   23.0571  -30.9789 H   0  0  0  0  0  0  0  0  0  0  0  0
   -5.4878   20.6240  -31.7191 H   0  0  0  0  0  0  0  0  0  0  0  0
   -6.2686   21.5650  -32.3810 H   0  0  0  0  0  0  0  0  0  0  0  0
   -7.2655   22.0555  -33.8108 H   0  0  0  0  0  0  0  0  0  0  0  0
   -6.2740   24.0324  -32.7427 H   0  0  0  0  0  0  0  0  0  0  0  0
   -8.0715   24.0292  -32.5523 H   0  0  0  0  0  0  0  0  0  0  0  0
   -5.9074   23.7259  -30.4921 H   0  0  0  0  0  0  0  0  0  0  0  0
   -7.5440   24.5182  -30.3984 H   0  0  0  0  0  0  0  0  0  0  0  0
   -6.7538   21.6564  -29.8912 H   0  0  0  0  0  0  0  0  0  0  0  0
   -7.9107   22.7353  -29.0118 H   0  0  0  0  0  0  0  0  0  0  0  0
   -9.0798   20.9121  -30.2193 H   0  0  0  0  0  0  0  0  0  0  0  0
   -9.5012   22.5677  -30.8556 H   0  0  0  0  0  0  0  0  0  0  0  0
   -7.4037   17.7400  -34.3077 H   0  0  0  0  0  0  0  0  0  0  0  0
   -5.2026   17.1904  -35.3304 H   0  0  0  0  0  0  0  0  0  0  0  0
  1  2  2  0
  2  3  1  0
  3  4  1  0
  4  5  1  0
  5  6  2  0
  6  7  1  0
  7  8  2  0
  8  9  1  0
  8 10  1  0
 10 11  1  0
 10 12  2  0
  2 13  1  0
 13 14  2  0
 14 15  1  0
 15 16  1  0
 16 17  2  0
 16 18  2  0
 16 19  1  0
 19 20  1  0
 20 21  1  0
 21 22  1  0
 22 23  1  0
 23 24  1  0
 15 25  2  0
 25 26  1  0
 26 27  2  0
 27 28  1  0
 12  5  1  0
 27 13  1  0
 24 19  1  0
  4 29  1  0
  4 30  1  0
  6 31  1  0
  7 32  1  0
 12 33  1  0
 14 34  1  0
 20 35  1  0
 20 36  1  0
 21 37  1  0
 21 38  1  0
 22 39  1  0
 22 40  1  0
 23 41  1  0
 23 42  1  0
 24 43  1  0
 24 44  1  0
 25 45  1  0
 26 46  1  0
M  CHG  4   3  -1   9  -1  11  -1  28  -1
M  END
>  <UniqueID>  (27) 
27

>  <SMILES>  (27) 
O=C([N-]Cc1ccc([O-])c([O-])c1)c1cc(S(=O)(=O)N2CCCCC2)ccc1[O-]

>  <Energy>  (27) 
52.27095122673213

>  <Genealogy>  (27) 
O=C([N-]Cc1ccc([O-])c([O-])c1)c1cc(S(=O)(=O)N2CCCCC2)ccc1[O-] (protonated)
O=C([N-]Cc1ccc([O-])c([O-])c1)c1cc(S(=O)(=O)N2CCCCC2)ccc1[O-] (3D coordinates assigned)
O=C([N-]Cc1ccc([O-])c([O-])c1)c1cc(S(=O)(=O)N2CCCCC2)ccc1[O-] (nonaromatic ring conformer: 52.27095122673213 kcal/mol)

>  <smiles>  (27) 
O=C(NCc1ccc(O)c(O)c1)c1cc(S(=O)(=O)N2CCCCC2)ccc1O

>  <score_type>  (27) 
oracle

>  <origin>  (27) 
adgpu

>  <m_score__min__energy>  (27) 
-15.24

>  <m_primary>  (27) 
energy

$$$$
27:0
     RDKit          3D

 41 43  0  0  0  0  0  0  0  0999 V2000
   -7.8380   17.8170  -31.6590 C   0  0  0  0  0  0  0  0  0  0  0  0
   -6.8150   17.7300  -32.7580 C   0  0  0  0  0  0  0  0  0  0  0  0
   -6.1080   16.5290  -32.9400 C   0  0  0  0  0  0  0  0  0  0  0  0
   -5.1760   16.4030  -33.9720 C   0  0  0  0  0  0  0  0  0  0  0  0
   -4.9360   17.4750  -34.8330 C   0  0  0  0  0  0  0  0  0  0  0  0
   -5.6160   18.6820  -34.6540 C   0  0  0  0  0  0  0  0  0  0  0  0
   -6.5350   18.8310  -33.6060 C   0  0  0  0  0  0  0  0  0  0  0  0
   -7.2010   20.0910  -33.4440 N   0  0  0  0  0  0  0  0  0  0  0  0
   -6.7810   21.0530  -32.4630 C   0  0  0  0  0  0  0  0  0  0  0  0
   -5.7510   20.8120  -31.7690 O   0  0  0  0  0  0  0  0  0  0  0  0
   -7.6020   22.3160  -32.1870 C   0  0  2  0  0  0  0  0  0  0  0  0
   -7.0800   23.6590  -32.7140 C   0  0  0  0  0  0  0  0  0  0  0  0
   -5.7910   23.9790  -31.9150 C   0  0  0  0  0  0  0  0  0  0  0  0
   -5.9480   23.8110  -30.3560 C   0  0  0  0  0  0  0  0  0  0  0  0
   -4.5570   23.5780  -29.7330 C   0  0  0  0  0  0  0  0  0  0  0  0
   -6.5190   25.1220  -29.7630 C   0  0  0  0  0  0  0  0  0  0  0  0
   -6.8760   22.5930  -29.9740 C   0  0  0  0  0  0  0  0  0  0  0  0
   -8.1420   22.5960  -30.8590 C   0  0  2  0  0  0  0  0  0  0  0  0
   -9.0270   21.8970  -31.9320 C   0  0  0  0  0  0  0  0  0  0  0  0
  -10.0810   21.4050  -32.2970 O   0  0  0  0  0  0  0  0  0  0  0  0
   -7.3323   17.7740  -30.6831 H   0  0  0  0  0  0  0  0  0  0  0  0
   -8.3889   18.7652  -31.7451 H   0  0  0  0  0  0  0  0  0  0  0  0
   -8.5411   16.9754  -31.7451 H   0  0  0  0  0  0  0  0  0  0  0  0
   -6.2905   15.6810  -32.2636 H   0  0  0  0  0  0  0  0  0  0  0  0
   -4.6301   15.4575  -34.1067 H   0  0  0  0  0  0  0  0  0  0  0  0
   -4.2107   17.3693  -35.6532 H   0  0  0  0  0  0  0  0  0  0  0  0
   -5.4291   19.5213  -35.3401 H   0  0  0  0  0  0  0  0  0  0  0  0
   -7.8910   20.3570  -34.1790 H   0  0  0  0  0  0  0  0  0  0  0  0
   -6.8518   23.5824  -33.7873 H   0  0  0  0  0  0  0  0  0  0  0  0
   -7.8312   24.4527  -32.5885 H   0  0  0  0  0  0  0  0  0  0  0  0
   -4.9941   23.3026  -32.2578 H   0  0  0  0  0  0  0  0  0  0  0  0
   -5.5551   25.0374  -32.1000 H   0  0  0  0  0  0  0  0  0  0  0  0
   -4.6395   23.5918  -28.6362 H   0  0  0  0  0  0  0  0  0  0  0  0
   -4.1679   22.6022  -30.0592 H   0  0  0  0  0  0  0  0  0  0  0  0
   -3.8712   24.3738  -30.0592 H   0  0  0  0  0  0  0  0  0  0  0  0
   -6.4956   25.0683  -28.6646 H   0  0  0  0  0  0  0  0  0  0  0  0
   -5.9101   25.9733  -30.1015 H   0  0  0  0  0  0  0  0  0  0  0  0
   -7.5570   25.2560  -30.1015 H   0  0  0  0  0  0  0  0  0  0  0  0
   -6.3257   21.6532  -30.1285 H   0  0  0  0  0  0  0  0  0  0  0  0
   -7.1728   22.6821  -28.9186 H   0  0  0  0  0  0  0  0  0  0  0  0
   -8.6440   23.1157  -30.0296 H   0  0  0  0  0  0  0  0  0  0  0  0
  1  2  1  0
  2  3  2  0
  3  4  1  0
  4  5  2  0
  5  6  1  0
  6  7  2  0
  7  8  1  0
  8  9  1  0
  9 10  2  0
 11  9  1  1
 11 12  1  0
 12 13  1  0
 13 14  1  0
 14 15  1  0
 14 16  1  0
 14 17  1  0
 17 18  1  0
 18 19  1  0
 19 20  2  0
  7  2  1  0
 18 11  1  0
 19 11  1  0
  1 21  1  0
  1 22  1  0
  1 23  1  0
  3 24  1  0
  4 25  1  0
  5 26  1  0
  6 27  1  0
  8 28  1  0
 12 29  1  0
 12 30  1  0
 13 31  1  0
 13 32  1  0
 15 33  1  0
 15 34  1  0
 15 35  1  0
 16 36  1  0
 16 37  1  0
 16 38  1  0
 17 39  1  0
 17 40  1  0
 18 41  1  6
M  END
>  <UniqueID>  (28) 
28

>  <SMILES>  (28) 
Cc1ccccc1NC(=O)[C@]12CCC(C)(C)C[C@@H]1C2=O

>  <Energy>  (28) 
275.53159266716597

>  <Genealogy>  (28) 
Cc1ccccc1NC(=O)[C@]12CCC(C)(C)C[C@@H]1C2=O (chirality)
Cc1ccccc1NC(=O)[C@]12CCC(C)(C)C[C@@H]1C2=O (3D coordinates assigned)
Cc1ccccc1NC(=O)[C@]12CCC(C)(C)C[C@@H]1C2=O (nonaromatic ring conformer: 275.53159266716597 kcal/mol)

>  <smiles>  (28) 
Cc1ccccc1NC(=O)C12CCC(C)(C)CC1C2=O

>  <score_type>  (28) 
oracle

>  <origin>  (28) 
adgpu

>  <m_score__min__energy>  (28) 
-8.5899999999999999

>  <m_primary>  (28) 
energy

$$$$
28:0
     RDKit          3D

 47 49  0  0  0  0  0  0  0  0999 V2000
    0.7020   23.3870  -24.5190 C   0  0  0  0  0  0  0  0  0  0  0  0
    0.0970   24.0840  -25.7020 C   0  0  0  0  0  0  0  0  0  0  0  0
    0.6650   25.2650  -26.2000 C   0  0  0  0  0  0  0  0  0  0  0  0
    0.0890   25.9140  -27.2930 C   0  0  0  0  0  0  0  0  0  0  0  0
   -1.0600   25.3930  -27.8970 C   0  0  0  0  0  0  0  0  0  0  0  0
   -1.6040   26.0390  -29.0010 O   0  0  0  0  0  0  0  0  0  0  0  0
   -1.6560   24.2280  -27.3950 C   0  0  0  0  0  0  0  0  0  0  0  0
   -2.8460   23.7310  -28.0270 N   0  0  0  0  0  0  0  0  0  0  0  0
   -2.9070   22.9710  -29.5840 S   0  0  0  0  0  0  0  0  0  0  0  0
   -1.7360   23.4410  -30.4010 O   0  0  0  0  0  0  0  0  0  0  0  0
   -2.8020   21.4840  -29.4070 O   0  0  0  0  0  0  0  0  0  0  0  0
   -4.4500   23.3410  -30.3610 C   0  0  0  0  0  0  0  0  0  0  0  0
   -5.3820   22.3040  -30.5180 C   0  0  0  0  0  0  0  0  0  0  0  0
   -6.6160   22.5410  -31.1350 C   0  0  0  0  0  0  0  0  0  0  0  0
   -7.7670   21.2200  -31.3590 S   0  0  0  0  0  0  0  0  0  0  0  0
   -8.4240   21.3580  -32.7050 O   0  0  0  0  0  0  0  0  0  0  0  0
   -8.8380   21.3140  -30.3080 O   0  0  0  0  0  0  0  0  0  0  0  0
   -6.9830   19.6610  -31.2630 N   0  0  0  0  0  0  0  0  0  0  0  0
   -5.8550   19.5930  -32.2190 C   0  0  0  0  0  0  0  0  0  0  0  0
   -5.4130   18.1460  -32.4580 C   0  0  0  0  0  0  0  0  0  0  0  0
   -6.5490   17.3150  -33.0790 C   0  0  0  0  0  0  0  0  0  0  0  0
   -7.9430   17.8720  -32.7530 C   0  0  0  0  0  0  0  0  0  0  0  0
   -7.9590   18.5490  -31.3750 C   0  0  0  0  0  0  0  0  0  0  0  0
   -6.9270   23.8310  -31.5820 C   0  0  0  0  0  0  0  0  0  0  0  0
   -6.0090   24.8700  -31.4220 C   0  0  0  0  0  0  0  0  0  0  0  0
   -4.7710   24.6330  -30.8180 C   0  0  0  0  0  0  0  0  0  0  0  0
   -3.8750   25.6870  -30.6810 O   0  0  0  0  0  0  0  0  0  0  0  0
   -1.0680   23.5730  -26.2970 C   0  0  0  0  0  0  0  0  0  0  0  0
    0.3138   23.8342  -23.5920 H   0  0  0  0  0  0  0  0  0  0  0  0
    0.4396   22.3192  -24.5489 H   0  0  0  0  0  0  0  0  0  0  0  0
    1.7961   23.4967  -24.5489 H   0  0  0  0  0  0  0  0  0  0  0  0
    1.5672   25.6813  -25.7279 H   0  0  0  0  0  0  0  0  0  0  0  0
    0.5404   26.8390  -27.6811 H   0  0  0  0  0  0  0  0  0  0  0  0
   -5.1406   21.2949  -30.1527 H   0  0  0  0  0  0  0  0  0  0  0  0
   -6.1698   20.0340  -33.1763 H   0  0  0  0  0  0  0  0  0  0  0  0
   -5.0064   20.1491  -31.7940 H   0  0  0  0  0  0  0  0  0  0  0  0
   -4.5504   18.1420  -33.1406 H   0  0  0  0  0  0  0  0  0  0  0  0
   -5.1423   17.6991  -31.4900 H   0  0  0  0  0  0  0  0  0  0  0  0
   -6.4210   17.3063  -34.1715 H   0  0  0  0  0  0  0  0  0  0  0  0
   -6.4894   16.3029  -32.6523 H   0  0  0  0  0  0  0  0  0  0  0  0
   -8.2233   18.6099  -33.5191 H   0  0  0  0  0  0  0  0  0  0  0  0
   -8.6589   17.0369  -32.7405 H   0  0  0  0  0  0  0  0  0  0  0  0
   -8.9676   18.9483  -31.1925 H   0  0  0  0  0  0  0  0  0  0  0  0
   -7.6773   17.7884  -30.6319 H   0  0  0  0  0  0  0  0  0  0  0  0
   -7.8979   24.0261  -32.0608 H   0  0  0  0  0  0  0  0  0  0  0  0
   -6.2613   25.8814  -31.7733 H   0  0  0  0  0  0  0  0  0  0  0  0
   -1.5244   22.6536  -25.9017 H   0  0  0  0  0  0  0  0  0  0  0  0
  1  2  1  0
  2  3  2  0
  3  4  1  0
  4  5  2  0
  5  6  1  0
  5  7  1  0
  7  8  1  0
  8  9  1  0
  9 10  2  0
  9 11  2  0
  9 12  1  0
 12 13  2  0
 13 14  1  0
 14 15  1  0
 15 16  2  0
 15 17  2  0
 15 18  1  0
 18 19  1  0
 19 20  1  0
 20 21  1  0
 21 22  1  0
 22 23  1  0
 14 24  2  0
 24 25  1  0
 25 26  2  0
 26 27  1  0
  7 28  2  0
 28  2  1  0
 26 12  1  0
 23 18  1  0
  1 29  1  0
  1 30  1  0
  1 31  1  0
  3 32  1  0
  4 33  1  0
 13 34  1  0
 19 35  1  0
 19 36  1  0
 20 37  1  0
 20 38  1  0
 21 39  1  0
 21 40  1  0
 22 41  1  0
 22 42  1  0
 23 43  1  0
 23 44  1  0
 24 45  1  0
 25 46  1  0
 28 47  1  0
M  CHG  3   6  -1   8  -1  27  -1
M  END
>  <UniqueID>  (29) 
29

>  <SMILES>  (29) 
Cc1ccc([O-])c([N-]S(=O)(=O)c2cc(S(=O)(=O)N3CCCCC3)ccc2[O-])c1

>  <Energy>  (29) 
56.52206152622456

>  <Genealogy>  (29) 
Cc1ccc([O-])c([N-]S(=O)(=O)c2cc(S(=O)(=O)N3CCCCC3)ccc2[O-])c1 (protonated)
Cc1ccc([O-])c([N-]S(=O)(=O)c2cc(S(=O)(=O)N3CCCCC3)ccc2[O-])c1 (3D coordinates assigned)
Cc1ccc([O-])c([N-]S(=O)(=O)c2cc(S(=O)(=O)N3CCCCC3)ccc2[O-])c1 (nonaromatic ring conformer: 56.52206152622456 kcal/mol)

>  <smiles>  (29) 
Cc1ccc(O)c(NS(=O)(=O)c2cc(S(=O)(=O)N3CCCCC3)ccc2O)c1

>  <score_type>  (29) 
oracle

>  <origin>  (29) 
adgpu

>  <m_score__min__energy>  (29) 
-16.190000000000001

>  <m_primary>  (29) 
energy

$$$$
29:0
     RDKit          3D

 59 62  0  0  0  0  0  0  0  0999 V2000
   -4.6470   25.9760  -30.5040 O   0  0  0  0  0  0  0  0  0  0  0  0
   -4.9240   24.7970  -30.8460 C   0  0  0  0  0  0  0  0  0  0  0  0
   -6.3400   24.4530  -31.2000 C   0  0  0  0  0  0  0  0  0  0  0  0
   -6.7440   23.2820  -30.4950 O   0  0  0  0  0  0  0  0  0  0  0  0
   -7.4180   22.1980  -31.0730 C   0  0  0  0  0  0  0  0  0  0  0  0
   -8.7640   22.3650  -31.4220 C   0  0  0  0  0  0  0  0  0  0  0  0
   -9.4880   21.3080  -31.9780 C   0  0  0  0  0  0  0  0  0  0  0  0
   -8.8720   20.0720  -32.1880 C   0  0  0  0  0  0  0  0  0  0  0  0
   -7.5260   19.8900  -31.8450 C   0  0  0  0  0  0  0  0  0  0  0  0
   -6.7300   18.3400  -32.1100 S   0  0  0  0  0  0  0  0  0  0  0  0
   -7.5970   17.4570  -32.9670 O   0  0  0  0  0  0  0  0  0  0  0  0
   -6.5330   17.6730  -30.7780 O   0  0  0  0  0  0  0  0  0  0  0  0
   -5.1790   18.5880  -32.8820 N   0  0  0  0  0  0  0  0  0  0  0  0
   -5.3360   19.2140  -34.2010 C   0  0  0  0  0  0  0  0  0  0  0  0
   -5.4010   18.0990  -35.2350 C   0  0  0  0  0  0  0  0  0  0  0  0
   -4.8440   16.8670  -34.5430 C   0  0  0  0  0  0  0  0  0  0  0  0
   -4.5020   17.3090  -33.1260 C   0  0  0  0  0  0  0  0  0  0  0  0
   -6.7970   20.9560  -31.2990 C   0  0  0  0  0  0  0  0  0  0  0  0
   -3.8680   23.8280  -30.9140 N   0  0  0  0  0  0  0  0  0  0  0  0
   -3.2600   23.1980  -29.7790 C   0  0  0  0  0  0  0  0  0  0  0  0
   -2.9940   23.9830  -28.6480 C   0  0  0  0  0  0  0  0  0  0  0  0
   -2.4340   23.4120  -27.5060 C   0  0  0  0  0  0  0  0  0  0  0  0
   -2.1070   22.0570  -27.4910 C   0  0  0  0  0  0  0  0  0  0  0  0
   -2.3390   21.2690  -28.6200 C   0  0  0  0  0  0  0  0  0  0  0  0
   -2.9330   21.8190  -29.7710 C   0  0  0  0  0  0  0  0  0  0  0  0
   -3.0950   20.9710  -30.9770 C   0  0  0  0  0  0  0  0  0  0  0  0
   -4.1170   20.2400  -31.0810 O   0  0  0  0  0  0  0  0  0  0  0  0
   -2.1430   21.0050  -32.0560 N   0  0  0  0  0  0  0  0  0  0  0  0
   -2.5160   20.7370  -33.4340 C   0  0  0  0  0  0  0  0  0  0  0  0
   -1.2060   20.5950  -34.1990 C   0  0  0  0  0  0  0  0  0  0  0  0
   -0.1250   21.1660  -33.2840 C   0  0  0  0  0  0  0  0  0  0  0  0
   -0.7020   21.1050  -31.8780 C   0  0  0  0  0  0  0  0  0  0  0  0
   -6.9986   25.2900  -30.9251 H   0  0  0  0  0  0  0  0  0  0  0  0
   -6.4085   24.2668  -32.2820 H   0  0  0  0  0  0  0  0  0  0  0  0
   -9.2545   23.3357  -31.2570 H   0  0  0  0  0  0  0  0  0  0  0  0
  -10.5443   21.4489  -32.2508 H   0  0  0  0  0  0  0  0  0  0  0  0
   -9.4449   19.2400  -32.6235 H   0  0  0  0  0  0  0  0  0  0  0  0
   -4.5930   19.1940  -32.2600 H   0  0  0  0  0  0  0  0  0  0  0  0
   -6.2635   19.8048  -34.2277 H   0  0  0  0  0  0  0  0  0  0  0  0
   -4.4922   19.8875  -34.4118 H   0  0  0  0  0  0  0  0  0  0  0  0
   -6.4412   17.9261  -35.5483 H   0  0  0  0  0  0  0  0  0  0  0  0
   -4.8297   18.3502  -36.1408 H   0  0  0  0  0  0  0  0  0  0  0  0
   -5.5966   16.0650  -34.5234 H   0  0  0  0  0  0  0  0  0  0  0  0
   -3.9627   16.4701  -35.0682 H   0  0  0  0  0  0  0  0  0  0  0  0
   -4.8517   16.5563  -32.4041 H   0  0  0  0  0  0  0  0  0  0  0  0
   -3.4139   17.4206  -33.0092 H   0  0  0  0  0  0  0  0  0  0  0  0
   -5.7350   20.8206  -31.0463 H   0  0  0  0  0  0  0  0  0  0  0  0
   -3.2289   25.0575  -28.6619 H   0  0  0  0  0  0  0  0  0  0  0  0
   -2.2500   24.0314  -26.6158 H   0  0  0  0  0  0  0  0  0  0  0  0
   -1.6658   21.6082  -26.5889 H   0  0  0  0  0  0  0  0  0  0  0  0
   -2.0543   20.2065  -28.6096 H   0  0  0  0  0  0  0  0  0  0  0  0
   -3.1000   19.8071  -33.4987 H   0  0  0  0  0  0  0  0  0  0  0  0
   -3.1411   21.5419  -33.8479 H   0  0  0  0  0  0  0  0  0  0  0  0
   -1.0029   19.5362  -34.4173 H   0  0  0  0  0  0  0  0  0  0  0  0
   -1.2410   21.1239  -35.1629 H   0  0  0  0  0  0  0  0  0  0  0  0
    0.7915   20.5612  -33.3491 H   0  0  0  0  0  0  0  0  0  0  0  0
    0.1459   22.1937  -33.5676 H   0  0  0  0  0  0  0  0  0  0  0  0
   -0.3183   20.2242  -31.3423 H   0  0  0  0  0  0  0  0  0  0  0  0
   -0.4234   21.9871  -31.2827 H   0  0  0  0  0  0  0  0  0  0  0  0
  1  2  2  0
  2  3  1  0
  3  4  1  0
  4  5  1  0
  5  6  2  0
  6  7  1  0
  7  8  2  0
  8  9  1  0
  9 10  1  0
 10 11  2  0
 10 12  2  0
 10 13  1  0
 13 14  1  0
 14 15  1  0
 15 16  1  0
 16 17  1  0
  9 18  2  0
  2 19  1  0
 19 20  1  0
 20 21  2  0
 21 22  1  0
 22 23  2  0
 23 24  1  0
 24 25  2  0
 25 26  1  0
 26 27  2  0
 26 28  1  0
 28 29  1  0
 29 30  1  0
 30 31  1  0
 31 32  1  0
 18  5  1  0
 25 20  1  0
 32 28  1  0
 17 13  1  0
  3 33  1  0
  3 34  1  0
  6 35  1  0
  7 36  1  0
  8 37  1  0
 13 38  1  0
 14 39  1  0
 14 40  1  0
 15 41  1  0
 15 42  1  0
 16 43  1  0
 16 44  1  0
 17 45  1  0
 17 46  1  0
 18 47  1  0
 21 48  1  0
 22 49  1  0
 23 50  1  0
 24 51  1  0
 29 52  1  0
 29 53  1  0
 30 54  1  0
 30 55  1  0
 31 56  1  0
 31 57  1  0
 32 58  1  0
 32 59  1  0
M  CHG  2  13   1  19  -1
M  END
>  <UniqueID>  (30) 
30

>  <SMILES>  (30) 
O=C(COc1cccc(S(=O)(=O)[NH+]2CCCC2)c1)[N-]c1ccccc1C(=O)N1CCCC1

>  <Energy>  (30) 
69.82190891344645

>  <Genealogy>  (30) 
O=C(COc1cccc(S(=O)(=O)[NH+]2CCCC2)c1)[N-]c1ccccc1C(=O)N1CCCC1 (protonated)
O=C(COc1cccc(S(=O)(=O)[NH+]2CCCC2)c1)[N-]c1ccccc1C(=O)N1CCCC1 (3D coordinates assigned)
O=C(COc1cccc(S(=O)(=O)[NH+]2CCCC2)c1)[N-]c1ccccc1C(=O)N1CCCC1 (nonaromatic ring conformer: 69.82190891344645 kcal/mol)

>  <smiles>  (30) 
O=C(COc1cccc(S(=O)(=O)N2CCCC2)c1)Nc1ccccc1C(=O)N1CCCC1

>  <score_type>  (30) 
oracle

>  <origin>  (30) 
adgpu

>  <m_score__min__energy>  (30) 
-12.130000000000001

>  <m_primary>  (30) 
energy

$$$$
30:0
     RDKit          3D

 62 65  0  0  0  0  0  0  0  0999 V2000
   -0.3190   27.5730  -25.3460 C   0  0  0  0  0  0  0  0  0  0  0  0
    0.1080   26.3420  -24.5350 C   0  0  0  0  0  0  0  0  0  0  0  0
    1.4490   25.7650  -25.0530 C   0  0  0  0  0  0  0  0  0  0  0  0
    1.2160   24.5800  -25.9960 C   0  0  0  0  0  0  0  0  0  0  0  0
    0.5380   23.4610  -25.3030 N   0  0  0  0  0  0  0  0  0  0  0  0
   -0.1600   22.3590  -26.4670 S   0  0  0  0  0  0  0  0  0  0  0  0
    0.9380   21.6490  -27.2100 O   0  0  0  0  0  0  0  0  0  0  0  0
   -0.9760   21.3250  -25.7430 O   0  0  0  0  0  0  0  0  0  0  0  0
   -1.1900   23.2080  -27.6230 C   0  0  0  0  0  0  0  0  0  0  0  0
   -1.3970   24.5880  -27.5040 C   0  0  0  0  0  0  0  0  0  0  0  0
   -2.1720   25.2670  -28.4450 C   0  0  0  0  0  0  0  0  0  0  0  0
   -2.7550   24.5750  -29.5120 C   0  0  0  0  0  0  0  0  0  0  0  0
   -3.4700   25.2900  -30.4660 O   0  0  0  0  0  0  0  0  0  0  0  0
   -2.5850   23.1800  -29.6250 C   0  0  0  0  0  0  0  0  0  0  0  0
   -3.1880   22.4100  -30.7320 C   0  0  0  0  0  0  0  0  0  0  0  0
   -3.9110   23.0140  -31.5710 O   0  0  0  0  0  0  0  0  0  0  0  0
   -2.9560   20.9940  -30.8600 N   0  0  0  0  0  0  0  0  0  0  0  0
   -3.4670   20.1950  -31.9390 C   0  0  0  0  0  0  0  0  0  0  0  0
   -2.7000   20.0400  -33.1020 C   0  0  0  0  0  0  0  0  0  0  0  0
   -3.1810   19.2750  -34.1680 C   0  0  0  0  0  0  0  0  0  0  0  0
   -4.4370   18.6700  -34.0870 C   0  0  0  0  0  0  0  0  0  0  0  0
   -5.2260   18.8360  -32.9410 C   0  0  0  0  0  0  0  0  0  0  0  0
   -6.8120   18.0700  -32.8340 S   0  0  0  0  0  0  0  0  0  0  0  0
   -6.9660   17.4360  -31.4790 O   0  0  0  0  0  0  0  0  0  0  0  0
   -6.9040   16.9800  -33.8670 O   0  0  0  0  0  0  0  0  0  0  0  0
   -8.1120   19.2180  -33.0850 N   0  0  0  0  0  0  0  0  0  0  0  0
   -9.0800   19.1690  -31.9850 C   0  0  0  0  0  0  0  0  0  0  0  0
   -8.7550   20.2920  -31.0110 C   0  0  0  0  0  0  0  0  0  0  0  0
   -7.8260   21.2270  -31.7570 C   0  0  0  0  0  0  0  0  0  0  0  0
   -7.6050   20.5940  -33.1230 C   0  0  0  0  0  0  0  0  0  0  0  0
   -4.7460   19.6120  -31.8760 C   0  0  0  0  0  0  0  0  0  0  0  0
   -1.7890   22.5100  -28.6800 C   0  0  0  0  0  0  0  0  0  0  0  0
   -0.4550   23.8760  -24.2810 C   0  0  0  0  0  0  0  0  0  0  0  0
   -1.0180   25.2830  -24.5320 C   0  0  0  0  0  0  0  0  0  0  0  0
   -0.6006   28.3849  -24.6593 H   0  0  0  0  0  0  0  0  0  0  0  0
    0.5173   27.9026  -25.9800 H   0  0  0  0  0  0  0  0  0  0  0  0
   -1.1798   27.3139  -25.9800 H   0  0  0  0  0  0  0  0  0  0  0  0
    0.2786   26.6512  -23.4932 H   0  0  0  0  0  0  0  0  0  0  0  0
    1.9930   26.5528  -25.5947 H   0  0  0  0  0  0  0  0  0  0  0  0
    2.0329   25.4131  -24.1898 H   0  0  0  0  0  0  0  0  0  0  0  0
    0.5902   24.9108  -26.8380 H   0  0  0  0  0  0  0  0  0  0  0  0
    2.1942   24.2241  -26.3516 H   0  0  0  0  0  0  0  0  0  0  0  0
   -0.9467   25.1390  -26.6652 H   0  0  0  0  0  0  0  0  0  0  0  0
   -2.3253   26.3519  -28.3473 H   0  0  0  0  0  0  0  0  0  0  0  0
   -2.4300   20.5000  -30.1050 H   0  0  0  0  0  0  0  0  0  0  0  0
   -1.7145   20.5230  -33.1759 H   0  0  0  0  0  0  0  0  0  0  0  0
   -2.5687   19.1491  -35.0731 H   0  0  0  0  0  0  0  0  0  0  0  0
   -4.8079   18.0616  -34.9250 H   0  0  0  0  0  0  0  0  0  0  0  0
  -10.0982   19.3021  -32.3795 H   0  0  0  0  0  0  0  0  0  0  0  0
   -9.0236   18.1965  -31.4741 H   0  0  0  0  0  0  0  0  0  0  0  0
   -9.6733   20.8200  -30.7145 H   0  0  0  0  0  0  0  0  0  0  0  0
   -8.2910   19.9087  -30.0903 H   0  0  0  0  0  0  0  0  0  0  0  0
   -8.2882   22.2193  -31.8655 H   0  0  0  0  0  0  0  0  0  0  0  0
   -6.8770   21.3672  -31.2188 H   0  0  0  0  0  0  0  0  0  0  0  0
   -8.1459   21.1678  -33.8899 H   0  0  0  0  0  0  0  0  0  0  0  0
   -6.5331   20.5944  -33.3700 H   0  0  0  0  0  0  0  0  0  0  0  0
   -5.3734   19.7659  -30.9857 H   0  0  0  0  0  0  0  0  0  0  0  0
   -1.6344   21.4247  -28.7713 H   0  0  0  0  0  0  0  0  0  0  0  0
   -1.2882   23.1579  -24.2891 H   0  0  0  0  0  0  0  0  0  0  0  0
    0.0596   23.8947  -23.3089 H   0  0  0  0  0  0  0  0  0  0  0  0
   -1.5270   25.2974  -25.5071 H   0  0  0  0  0  0  0  0  0  0  0  0
   -1.7232   25.5259  -23.7235 H   0  0  0  0  0  0  0  0  0  0  0  0
  1  2  1  0
  2  3  1  0
  3  4  1  0
  4  5  1  0
  5  6  1  0
  6  7  2  0
  6  8  2  0
  6  9  1  0
  9 10  2  0
 10 11  1  0
 11 12  2  0
 12 13  1  0
 12 14  1  0
 14 15  1  0
 15 16  2  0
 15 17  1  0
 17 18  1  0
 18 19  2  0
 19 20  1  0
 20 21  2  0
 21 22  1  0
 22 23  1  0
 23 24  2  0
 23 25  2  0
 23 26  1  0
 26 27  1  0
 27 28  1  0
 28 29  1  0
 29 30  1  0
 22 31  2  0
 14 32  2  0
  5 33  1  0
 33 34  1  0
 34  2  1  0
 32  9  1  0
 31 18  1  0
 30 26  1  0
  1 35  1  0
  1 36  1  0
  1 37  1  0
  2 38  1  0
  3 39  1  0
  3 40  1  0
  4 41  1  0
  4 42  1  0
 10 43  1  0
 11 44  1  0
 17 45  1  0
 19 46  1  0
 20 47  1  0
 21 48  1  0
 27 49  1  0
 27 50  1  0
 28 51  1  0
 28 52  1  0
 29 53  1  0
 29 54  1  0
 30 55  1  0
 30 56  1  0
 31 57  1  0
 32 58  1  0
 33 59  1  0
 33 60  1  0
 34 61  1  0
 34 62  1  0
M  CHG  1  13  -1
M  END
>  <UniqueID>  (31) 
31

>  <SMILES>  (31) 
CC1CCN(S(=O)(=O)c2ccc([O-])c(C(=O)Nc3cccc(S(=O)(=O)N4CCCC4)c3)c2)CC1

>  <Energy>  (31) 
75.21700548518538

>  <Genealogy>  (31) 
CC1CCN(S(=O)(=O)c2ccc([O-])c(C(=O)Nc3cccc(S(=O)(=O)N4CCCC4)c3)c2)CC1 (protonated)
CC1CCN(S(=O)(=O)c2ccc([O-])c(C(=O)Nc3cccc(S(=O)(=O)N4CCCC4)c3)c2)CC1 (3D coordinates assigned)
CC1CCN(S(=O)(=O)c2ccc([O-])c(C(=O)Nc3cccc(S(=O)(=O)N4CCCC4)c3)c2)CC1 (nonaromatic ring conformer: 75.21700548518538 kcal/mol)

>  <smiles>  (31) 
CC1CCN(S(=O)(=O)c2ccc(O)c(C(=O)Nc3cccc(S(=O)(=O)N4CCCC4)c3)c2)CC1

>  <score_type>  (31) 
oracle

>  <origin>  (31) 
adgpu

>  <m_score__min__energy>  (31) 
-13.52

>  <m_primary>  (31) 
energy

$$$$
31:0
     RDKit          3D

 47 49  0  0  0  0  0  0  0  0999 V2000
    0.6940   24.8680  -28.1030 O   0  0  0  0  0  0  0  0  0  0  0  0
   -0.4310   24.5080  -28.5060 N   0  0  0  0  0  0  0  0  0  0  0  0
   -1.1600   25.3690  -29.2930 O   0  0  0  0  0  0  0  0  0  0  0  0
   -0.8440   23.1410  -28.3570 C   0  0  0  0  0  0  0  0  0  0  0  0
    0.1370   22.1370  -28.2680 C   0  0  0  0  0  0  0  0  0  0  0  0
   -0.2260   20.7920  -28.1780 C   0  0  0  0  0  0  0  0  0  0  0  0
   -1.5730   20.4310  -28.1770 C   0  0  0  0  0  0  0  0  0  0  0  0
   -2.5600   21.4150  -28.2460 C   0  0  0  0  0  0  0  0  0  0  0  0
   -2.2130   22.7750  -28.3160 C   0  0  0  0  0  0  0  0  0  0  0  0
   -3.5120   23.9780  -28.2910 S   0  0  0  0  0  0  0  0  0  0  0  0
   -4.8270   23.3190  -27.9790 O   0  0  0  0  0  0  0  0  0  0  0  0
   -3.2070   25.0060  -27.2380 O   0  0  0  0  0  0  0  0  0  0  0  0
   -3.6270   24.7700  -29.8350 N   0  0  0  0  0  0  0  0  0  0  0  0
   -5.0280   25.0750  -30.1370 C   0  0  0  0  0  0  0  0  0  0  0  0
   -5.7260   23.8220  -30.5850 C   0  0  0  0  0  0  0  0  0  0  0  0
   -7.0930   23.6370  -30.3190 C   0  0  0  0  0  0  0  0  0  0  0  0
   -7.7480   22.4870  -30.7670 C   0  0  0  0  0  0  0  0  0  0  0  0
   -7.0490   21.5170  -31.5000 C   0  0  0  0  0  0  0  0  0  0  0  0
   -7.8750   20.0580  -32.0410 S   0  0  0  0  0  0  0  0  0  0  0  0
   -8.8490   20.4030  -33.1350 O   0  0  0  0  0  0  0  0  0  0  0  0
   -8.6390   19.4680  -30.8890 O   0  0  0  0  0  0  0  0  0  0  0  0
   -6.6950   18.9060  -32.6100 N   0  0  0  0  0  0  0  0  0  0  0  0
   -6.2140   19.2520  -33.9480 C   0  0  0  0  0  0  0  0  0  0  0  0
   -5.7800   17.9500  -34.6010 C   0  0  0  0  0  0  0  0  0  0  0  0
   -6.4770   16.8510  -33.8140 C   0  0  0  0  0  0  0  0  0  0  0  0
   -7.2760   17.5700  -32.7380 C   0  0  0  0  0  0  0  0  0  0  0  0
   -5.6880   21.7040  -31.7730 C   0  0  0  0  0  0  0  0  0  0  0  0
   -5.0310   22.8530  -31.3240 C   0  0  0  0  0  0  0  0  0  0  0  0
    1.2014   22.4145  -28.2693 H   0  0  0  0  0  0  0  0  0  0  0  0
    0.5510   20.0165  -28.1078 H   0  0  0  0  0  0  0  0  0  0  0  0
   -1.8576   19.3699  -28.1218 H   0  0  0  0  0  0  0  0  0  0  0  0
   -3.6206   21.1231  -28.2456 H   0  0  0  0  0  0  0  0  0  0  0  0
   -3.1080   25.6750  -29.7550 H   0  0  0  0  0  0  0  0  0  0  0  0
   -5.5209   25.4673  -29.2352 H   0  0  0  0  0  0  0  0  0  0  0  0
   -5.0759   25.8284  -30.9370 H   0  0  0  0  0  0  0  0  0  0  0  0
   -7.6498   24.4004  -29.7559 H   0  0  0  0  0  0  0  0  0  0  0  0
   -8.8154   22.3420  -30.5440 H   0  0  0  0  0  0  0  0  0  0  0  0
   -7.0200   19.7199  -34.5323 H   0  0  0  0  0  0  0  0  0  0  0  0
   -5.3811   19.9688  -33.8981 H   0  0  0  0  0  0  0  0  0  0  0  0
   -6.0924   17.9255  -35.6554 H   0  0  0  0  0  0  0  0  0  0  0  0
   -4.6865   17.8311  -34.5888 H   0  0  0  0  0  0  0  0  0  0  0  0
   -7.1460   16.2735  -34.4690 H   0  0  0  0  0  0  0  0  0  0  0  0
   -5.7589   16.1380  -33.3828 H   0  0  0  0  0  0  0  0  0  0  0  0
   -8.3328   17.6423  -33.0344 H   0  0  0  0  0  0  0  0  0  0  0  0
   -7.2350   17.0260  -31.7828 H   0  0  0  0  0  0  0  0  0  0  0  0
   -5.1340   20.9436  -32.3430 H   0  0  0  0  0  0  0  0  0  0  0  0
   -3.9645   22.9981  -31.5510 H   0  0  0  0  0  0  0  0  0  0  0  0
  1  2  2  0
  2  3  1  0
  2  4  1  0
  4  5  2  0
  5  6  1  0
  6  7  2  0
  7  8  1  0
  8  9  2  0
  9 10  1  0
 10 11  2  0
 10 12  2  0
 10 13  1  0
 13 14  1  0
 14 15  1  0
 15 16  2  0
 16 17  1  0
 17 18  2  0
 18 19  1  0
 19 20  2  0
 19 21  2  0
 19 22  1  0
 22 23  1  0
 23 24  1  0
 24 25  1  0
 25 26  1  0
 18 27  1  0
 27 28  2  0
  9  4  1  0
 28 15  1  0
 26 22  1  0
  5 29  1  0
  6 30  1  0
  7 31  1  0
  8 32  1  0
 13 33  1  0
 14 34  1  0
 14 35  1  0
 16 36  1  0
 17 37  1  0
 23 38  1  0
 23 39  1  0
 24 40  1  0
 24 41  1  0
 25 42  1  0
 25 43  1  0
 26 44  1  0
 26 45  1  0
 27 46  1  0
 28 47  1  0
M  CHG  2   2   1   3  -1
M  END
>  <UniqueID>  (32) 
32

>  <SMILES>  (32) 
O=[N+]([O-])c1ccccc1S(=O)(=O)NCc1ccc(S(=O)(=O)N2CCCC2)cc1

>  <Energy>  (32) 
52.14063990401083

>  <Genealogy>  (32) 
O=[N+]([O-])c1ccccc1S(=O)(=O)NCc1ccc(S(=O)(=O)N2CCCC2)cc1 (3D coordinates assigned)
O=[N+]([O-])c1ccccc1S(=O)(=O)NCc1ccc(S(=O)(=O)N2CCCC2)cc1 (nonaromatic ring conformer: 52.14063990401083 kcal/mol)

>  <smiles>  (32) 
O=[N+]([O-])c1ccccc1S(=O)(=O)NCc1ccc(S(=O)(=O)N2CCCC2)cc1

>  <score_type>  (32) 
oracle

>  <origin>  (32) 
adgpu

>  <m_score__min__energy>  (32) 
-10.17

>  <m_primary>  (32) 
energy

$$$$
32:0
     RDKit          3D

 45 48  0  0  0  0  0  0  0  0999 V2000
   -6.0020   26.0650  -30.2060 O   0  0  0  0  0  0  0  0  0  0  0  0
   -5.2730   25.1140  -30.6030 C   0  0  0  0  0  0  0  0  0  0  0  0
   -3.8490   25.2130  -30.4570 N   0  0  0  0  0  0  0  0  0  0  0  0
   -3.0550   24.2700  -29.7200 C   0  0  0  0  0  0  0  0  0  0  0  0
   -3.3490   22.8950  -29.7570 C   0  0  0  0  0  0  0  0  0  0  0  0
   -2.5850   21.9910  -29.0170 C   0  0  0  0  0  0  0  0  0  0  0  0
   -1.5290   22.4470  -28.2140 C   0  0  0  0  0  0  0  0  0  0  0  0
   -0.7780   21.5570  -27.3770 N   0  0  0  0  0  0  0  0  0  0  0  0
    0.2160   20.2480  -27.9540 S   0  0  0  0  0  0  0  0  0  0  0  0
   -0.1450   18.9940  -27.1980 O   0  0  0  0  0  0  0  0  0  0  0  0
    1.6660   20.5730  -27.6990 O   0  0  0  0  0  0  0  0  0  0  0  0
   -0.0480   19.9400  -29.6720 C   0  0  0  0  0  0  0  0  0  0  0  0
   -0.1670   18.6250  -30.1530 C   0  0  0  0  0  0  0  0  0  0  0  0
   -0.3530   18.3880  -31.5210 C   0  0  0  0  0  0  0  0  0  0  0  0
   -0.4320   19.4610  -32.4100 C   0  0  0  0  0  0  0  0  0  0  0  0
   -0.3230   20.7740  -31.9370 C   0  0  0  0  0  0  0  0  0  0  0  0
   -0.1280   21.0140  -30.5710 C   0  0  0  0  0  0  0  0  0  0  0  0
   -1.1930   23.8070  -28.2300 C   0  0  0  0  0  0  0  0  0  0  0  0
   -1.9500   24.7170  -28.9800 C   0  0  0  0  0  0  0  0  0  0  0  0
   -1.6140   26.0660  -28.9690 O   0  0  0  0  0  0  0  0  0  0  0  0
   -5.8960   23.9020  -31.1770 C   0  0  0  0  0  0  0  0  0  0  0  0
   -5.1730   23.0930  -32.0740 C   0  0  0  0  0  0  0  0  0  0  0  0
   -5.7640   21.9560  -32.6340 C   0  0  0  0  0  0  0  0  0  0  0  0
   -7.0840   21.6300  -32.3170 C   0  0  0  0  0  0  0  0  0  0  0  0
   -7.8180   22.4410  -31.4390 C   0  0  0  0  0  0  0  0  0  0  0  0
   -7.2200   23.5590  -30.8490 C   0  0  0  0  0  0  0  0  0  0  0  0
   -9.1540   22.1210  -31.1720 O   0  0  0  0  0  0  0  0  0  0  0  0
   -9.8640   21.1820  -31.9810 C   0  0  0  0  0  0  0  0  0  0  0  0
   -8.9460   20.0150  -32.3830 C   0  0  0  0  0  0  0  0  0  0  0  0
   -7.6900   20.4980  -32.8690 O   0  0  0  0  0  0  0  0  0  0  0  0
   -4.1849   22.5303  -30.3720 H   0  0  0  0  0  0  0  0  0  0  0  0
   -2.8121   20.9157  -29.0638 H   0  0  0  0  0  0  0  0  0  0  0  0
   -0.1139   17.7785  -29.4526 H   0  0  0  0  0  0  0  0  0  0  0  0
   -0.4368   17.3567  -31.8944 H   0  0  0  0  0  0  0  0  0  0  0  0
   -0.5801   19.2747  -33.4839 H   0  0  0  0  0  0  0  0  0  0  0  0
   -0.3906   21.6182  -32.6390 H   0  0  0  0  0  0  0  0  0  0  0  0
   -0.0374   22.0464  -30.2024 H   0  0  0  0  0  0  0  0  0  0  0  0
   -0.3289   24.1630  -27.6498 H   0  0  0  0  0  0  0  0  0  0  0  0
   -4.1376   23.3566  -32.3358 H   0  0  0  0  0  0  0  0  0  0  0  0
   -5.1897   21.3195  -33.3232 H   0  0  0  0  0  0  0  0  0  0  0  0
   -7.7846   24.1696  -30.1290 H   0  0  0  0  0  0  0  0  0  0  0  0
  -10.7206   20.7898  -31.4132 H   0  0  0  0  0  0  0  0  0  0  0  0
  -10.2136   21.6899  -32.8920 H   0  0  0  0  0  0  0  0  0  0  0  0
   -8.7708   19.3756  -31.5052 H   0  0  0  0  0  0  0  0  0  0  0  0
   -9.4361   19.4419  -33.1839 H   0  0  0  0  0  0  0  0  0  0  0  0
  1  2  2  0
  2  3  1  0
  3  4  1  0
  4  5  2  0
  5  6  1  0
  6  7  2  0
  7  8  1  0
  8  9  1  0
  9 10  2  0
  9 11  2  0
  9 12  1  0
 12 13  2  0
 13 14  1  0
 14 15  2  0
 15 16  1  0
 16 17  2  0
  7 18  1  0
 18 19  2  0
 19 20  1  0
  2 21  1  0
 21 22  2  0
 22 23  1  0
 23 24  2  0
 24 25  1  0
 25 26  2  0
 25 27  1  0
 27 28  1  0
 28 29  1  0
 29 30  1  0
 19  4  1  0
 26 21  1  0
 17 12  1  0
 30 24  1  0
  5 31  1  0
  6 32  1  0
 13 33  1  0
 14 34  1  0
 15 35  1  0
 16 36  1  0
 17 37  1  0
 18 38  1  0
 22 39  1  0
 23 40  1  0
 26 41  1  0
 28 42  1  0
 28 43  1  0
 29 44  1  0
 29 45  1  0
M  CHG  3   3  -1   8  -1  20  -1
M  END
>  <UniqueID>  (33) 
33

>  <SMILES>  (33) 
O=C([N-]c1ccc([N-]S(=O)(=O)c2ccccc2)cc1[O-])c1ccc2c(c1)OCCO2

>  <Energy>  (33) 
61.19512706133498

>  <Genealogy>  (33) 
O=C([N-]c1ccc([N-]S(=O)(=O)c2ccccc2)cc1[O-])c1ccc2c(c1)OCCO2 (protonated)
O=C([N-]c1ccc([N-]S(=O)(=O)c2ccccc2)cc1[O-])c1ccc2c(c1)OCCO2 (3D coordinates assigned)
O=C([N-]c1ccc([N-]S(=O)(=O)c2ccccc2)cc1[O-])c1ccc2c(c1)OCCO2 (nonaromatic ring conformer: 61.19512706133498 kcal/mol)

>  <smiles>  (33) 
O=C(Nc1ccc(NS(=O)(=O)c2ccccc2)cc1O)c1ccc2c(c1)OCCO2

>  <score_type>  (33) 
oracle

>  <origin>  (33) 
adgpu

>  <m_score__min__energy>  (33) 
-13.779999999999999

>  <m_primary>  (33) 
energy

$$$$
33:0
     RDKit          3D

 60 64  0  0  0  0  0  0  0  0999 V2000
   -6.5490   16.0050  -33.8740 C   0  0  0  0  0  0  0  0  0  0  0  0
   -5.8120   17.2210  -33.9500 O   0  0  0  0  0  0  0  0  0  0  0  0
   -6.2220   18.4410  -33.3880 C   0  0  0  0  0  0  0  0  0  0  0  0
   -7.5710   18.6890  -33.0650 C   0  0  0  0  0  0  0  0  0  0  0  0
   -7.9500   19.8940  -32.4740 C   0  0  0  0  0  0  0  0  0  0  0  0
   -6.9930   20.8740  -32.1920 C   0  0  0  0  0  0  0  0  0  0  0  0
   -7.4760   22.3960  -31.4380 S   0  0  0  0  0  0  0  0  0  0  0  0
   -8.5390   23.0450  -32.2800 O   0  0  0  0  0  0  0  0  0  0  0  0
   -8.0650   22.1100  -30.0850 O   0  0  0  0  0  0  0  0  0  0  0  0
   -6.1270   23.4930  -31.2660 N   0  0  0  0  0  0  0  0  0  0  0  0
   -5.0670   22.8870  -30.4440 C   0  0  0  0  0  0  0  0  0  0  0  0
   -3.8780   23.8630  -30.2870 C   0  0  0  0  0  0  0  0  0  0  0  0
   -4.1560   25.1450  -30.8230 O   0  0  0  0  0  0  0  0  0  0  0  0
   -5.3580   25.6440  -30.2720 C   0  0  0  0  0  0  0  0  0  0  0  0
   -6.5660   24.7740  -30.6800 C   0  0  0  0  0  0  0  0  0  0  0  0
   -5.6510   20.6400  -32.5130 C   0  0  0  0  0  0  0  0  0  0  0  0
   -5.2550   19.4360  -33.1200 C   0  0  0  0  0  0  0  0  0  0  0  0
   -3.8280   19.2320  -33.4650 C   0  0  0  0  0  0  0  0  0  0  0  0
   -3.2570   17.9490  -33.4460 C   0  0  0  0  0  0  0  0  0  0  0  0
   -1.9500   17.7710  -33.7790 N   0  0  0  0  0  0  0  0  0  0  0  0
   -1.1550   18.8120  -34.1430 C   0  0  0  0  0  0  0  0  0  0  0  0
    0.1820   18.5880  -34.4770 C   0  0  0  0  0  0  0  0  0  0  0  0
    0.9980   19.6560  -34.8590 C   0  0  0  0  0  0  0  0  0  0  0  0
    0.4900   20.9700  -34.9160 C   0  0  0  0  0  0  0  0  0  0  0  0
    1.3370   22.0720  -35.3200 N   0  0  0  0  0  0  0  0  0  0  0  0
    2.7800   22.1000  -35.1320 C   0  0  0  0  0  0  0  0  0  0  0  0
    3.2710   23.3540  -35.8410 C   0  0  0  0  0  0  0  0  0  0  0  0
    2.0380   24.2280  -36.0360 C   0  0  0  0  0  0  0  0  0  0  0  0
    0.8450   23.2870  -35.9530 C   0  0  0  0  0  0  0  0  0  0  0  0
   -0.8610   21.1880  -34.5740 C   0  0  0  0  0  0  0  0  0  0  0  0
   -1.6810   20.1170  -34.1880 C   0  0  0  0  0  0  0  0  0  0  0  0
   -3.0250   20.3190  -33.8470 C   0  0  0  0  0  0  0  0  0  0  0  0
   -6.7101   15.7392  -32.8188 H   0  0  0  0  0  0  0  0  0  0  0  0
   -7.5212   16.1337  -34.3722 H   0  0  0  0  0  0  0  0  0  0  0  0
   -5.9850   15.2027  -34.3722 H   0  0  0  0  0  0  0  0  0  0  0  0
   -8.3323   17.9250  -33.2810 H   0  0  0  0  0  0  0  0  0  0  0  0
   -9.0069   20.0745  -32.2284 H   0  0  0  0  0  0  0  0  0  0  0  0
   -5.7520   23.6690  -32.2280 H   0  0  0  0  0  0  0  0  0  0  0  0
   -5.4723   22.6475  -29.4498 H   0  0  0  0  0  0  0  0  0  0  0  0
   -4.7123   21.9714  -30.9398 H   0  0  0  0  0  0  0  0  0  0  0  0
   -3.6480   23.9701  -29.2166 H   0  0  0  0  0  0  0  0  0  0  0  0
   -3.0258   23.4450  -30.8430 H   0  0  0  0  0  0  0  0  0  0  0  0
   -5.2743   25.6491  -29.1752 H   0  0  0  0  0  0  0  0  0  0  0  0
   -5.5188   26.6626  -30.6550 H   0  0  0  0  0  0  0  0  0  0  0  0
   -7.1784   24.5700  -29.7893 H   0  0  0  0  0  0  0  0  0  0  0  0
   -7.1499   25.3207  -31.4351 H   0  0  0  0  0  0  0  0  0  0  0  0
   -4.8967   21.4082  -32.2873 H   0  0  0  0  0  0  0  0  0  0  0  0
   -3.8708   17.0821  -33.1599 H   0  0  0  0  0  0  0  0  0  0  0  0
    0.5938   17.5687  -34.4393 H   0  0  0  0  0  0  0  0  0  0  0  0
    2.0505   19.4692  -35.1186 H   0  0  0  0  0  0  0  0  0  0  0  0
    3.0251   22.1459  -34.0606 H   0  0  0  0  0  0  0  0  0  0  0  0
    3.2568   21.1952  -35.5371 H   0  0  0  0  0  0  0  0  0  0  0  0
    4.0172   23.8760  -35.2240 H   0  0  0  0  0  0  0  0  0  0  0  0
    3.7545   23.1150  -36.7997 H   0  0  0  0  0  0  0  0  0  0  0  0
    1.9801   24.9905  -35.2453 H   0  0  0  0  0  0  0  0  0  0  0  0
    2.0674   24.7604  -36.9981 H   0  0  0  0  0  0  0  0  0  0  0  0
    0.0446   23.7367  -35.3471 H   0  0  0  0  0  0  0  0  0  0  0  0
    0.4236   23.0812  -36.9480 H   0  0  0  0  0  0  0  0  0  0  0  0
   -1.2752   22.2064  -34.6102 H   0  0  0  0  0  0  0  0  0  0  0  0
   -3.4524   21.3321  -33.8786 H   0  0  0  0  0  0  0  0  0  0  0  0
  1  2  1  0
  2  3  1  0
  3  4  2  0
  4  5  1  0
  5  6  2  0
  6  7  1  0
  7  8  2  0
  7  9  2  0
  7 10  1  0
 10 11  1  0
 11 12  1  0
 12 13  1  0
 13 14  1  0
 14 15  1  0
  6 16  1  0
 16 17  2  0
 17 18  1  0
 18 19  2  0
 19 20  1  0
 20 21  2  0
 21 22  1  0
 22 23  2  0
 23 24  1  0
 24 25  1  0
 25 26  1  0
 26 27  1  0
 27 28  1  0
 28 29  1  0
 24 30  2  0
 30 31  1  0
 31 32  2  0
 17  3  1  0
 32 18  1  0
 15 10  1  0
 31 21  1  0
 29 25  1  0
  1 33  1  0
  1 34  1  0
  1 35  1  0
  4 36  1  0
  5 37  1  0
 10 38  1  0
 11 39  1  0
 11 40  1  0
 12 41  1  0
 12 42  1  0
 14 43  1  0
 14 44  1  0
 15 45  1  0
 15 46  1  0
 16 47  1  0
 19 48  1  0
 22 49  1  0
 23 50  1  0
 26 51  1  0
 26 52  1  0
 27 53  1  0
 27 54  1  0
 28 55  1  0
 28 56  1  0
 29 57  1  0
 29 58  1  0
 30 59  1  0
 32 60  1  0
M  CHG  1  10   1
M  END
>  <UniqueID>  (34) 
34

>  <SMILES>  (34) 
COc1ccc(S(=O)(=O)[NH+]2CCOCC2)cc1-c1cnc2ccc(N3CCCC3)cc2c1

>  <Energy>  (34) 
81.46127320670294

>  <Genealogy>  (34) 
COc1ccc(S(=O)(=O)[NH+]2CCOCC2)cc1-c1cnc2ccc(N3CCCC3)cc2c1 (protonated)
COc1ccc(S(=O)(=O)[NH+]2CCOCC2)cc1-c1cnc2ccc(N3CCCC3)cc2c1 (3D coordinates assigned)
COc1ccc(S(=O)(=O)[NH+]2CCOCC2)cc1-c1cnc2ccc(N3CCCC3)cc2c1 (nonaromatic ring conformer: 81.46127320670294 kcal/mol)

>  <smiles>  (34) 
COc1ccc(S(=O)(=O)N2CCOCC2)cc1-c1cnc2ccc(N3CCCC3)cc2c1

>  <score_type>  (34) 
oracle

>  <origin>  (34) 
adgpu

>  <m_score__min__energy>  (34) 
-10.140000000000001

>  <m_primary>  (34) 
energy

$$$$
34:0
     RDKit          3D

 31 33  0  0  0  0  0  0  0  0999 V2000
   -2.6660   18.3430  -25.0250 H   0  0  0  0  0  0  0  0  0  0  0  0
   -2.3910   18.2110  -25.9910 O   0  0  0  0  0  0  0  0  0  0  0  0
   -1.8640   19.2550  -26.7460 C   0  0  0  0  0  0  0  0  0  0  0  0
   -0.6830   19.0580  -27.4690 C   0  0  0  0  0  0  0  0  0  0  0  0
   -0.1764   18.0822  -27.4357 H   0  0  0  0  0  0  0  0  0  0  0  0
   -0.1440   20.0970  -28.2340 C   0  0  0  0  0  0  0  0  0  0  0  0
    0.7945   19.9396  -28.7858 H   0  0  0  0  0  0  0  0  0  0  0  0
   -0.7930   21.3390  -28.3020 C   0  0  0  0  0  0  0  0  0  0  0  0
   -0.1890   22.4220  -29.1120 C   0  0  0  0  0  0  0  0  0  0  0  0
    0.8916   22.5997  -29.0086 H   0  0  0  0  0  0  0  0  0  0  0  0
   -0.8540   23.1780  -29.9390 N   0  0  0  0  0  0  0  0  0  0  0  0
   -2.2460   23.0520  -30.2790 C   0  0  0  0  0  0  0  0  0  0  0  0
   -3.1050   24.1330  -30.0360 C   0  0  0  0  0  0  0  0  0  0  0  0
   -2.5970   25.2970  -29.4640 O   0  0  0  0  0  0  0  0  0  0  0  0
   -4.4690   24.0320  -30.3540 C   0  0  0  0  0  0  0  0  0  0  0  0
   -5.3690   25.0840  -30.1050 C   0  0  0  0  0  0  0  0  0  0  0  0
   -5.0081   26.0196  -29.6528 H   0  0  0  0  0  0  0  0  0  0  0  0
   -6.7210   24.9430  -30.4310 C   0  0  0  0  0  0  0  0  0  0  0  0
   -7.4218   25.7674  -30.2330 H   0  0  0  0  0  0  0  0  0  0  0  0
   -7.1850   23.7570  -31.0080 C   0  0  0  0  0  0  0  0  0  0  0  0
   -8.2499   23.6507  -31.2625 H   0  0  0  0  0  0  0  0  0  0  0  0
   -6.3000   22.7070  -31.2620 C   0  0  0  0  0  0  0  0  0  0  0  0
   -6.6684   21.7759  -31.7174 H   0  0  0  0  0  0  0  0  0  0  0  0
   -4.9460   22.8380  -30.9380 C   0  0  0  0  0  0  0  0  0  0  0  0
   -4.0850   21.8180  -31.1970 N   0  0  0  0  0  0  0  0  0  0  0  0
   -2.7630   21.8910  -30.8950 C   0  0  0  0  0  0  0  0  0  0  0  0
   -1.7960   20.6360  -31.3180 S   0  0  0  0  0  0  0  0  0  0  0  0
   -1.9660   21.5420  -27.5500 C   0  0  0  0  0  0  0  0  0  0  0  0
   -2.4625   22.5235  -27.5640 H   0  0  0  0  0  0  0  0  0  0  0  0
   -2.5020   20.5020  -26.7860 C   0  0  0  0  0  0  0  0  0  0  0  0
   -3.4278   20.6627  -26.2141 H   0  0  0  0  0  0  0  0  0  0  0  0
  1  2  1  0
  2  3  1  0
  3  4  2  0
  4  5  1  0
  4  6  1  0
  6  7  1  0
  6  8  2  0
  8  9  1  0
  9 10  1  0
  9 11  2  0
 11 12  1  0
 12 13  2  0
 13 14  1  0
 13 15  1  0
 15 16  2  0
 16 17  1  0
 16 18  1  0
 18 19  1  0
 18 20  2  0
 20 21  1  0
 20 22  1  0
 22 23  1  0
 22 24  2  0
 24 25  1  0
 25 26  1  0
 26 27  2  0
  8 28  1  0
 28 29  1  0
 28 30  2  0
 30 31  1  0
 30  3  1  0
 26 12  1  0
 24 15  1  0
M  CHG  2  14  -1  25  -1
M  END
>  <UniqueID>  (35) 
35

>  <SMILES>  (35) 
[O-]c1c(/N=C\c2ccc(O)cc2)c(=S)[n-]c2ccccc12

>  <Energy>  (35) 
51.87662969884796

>  <Genealogy>  (35) 
[O-]c1c(N=Cc2ccc(O)cc2)c(=S)[n-]c2ccccc12 (protonated)
[O-]c1c(/N=C\c2ccc(O)cc2)c(=S)[n-]c2ccccc12 (cis-trans isomerization)
[O-]c1c(/N=C\c2ccc(O)cc2)c(=S)[n-]c2ccccc12 (3D coordinates assigned)
[O-]c1c(/N=C\c2ccc(O)cc2)c(=S)[n-]c2ccccc12 (optimized conformer: 51.87662969884796 kcal/mol)

>  <smiles>  (35) 
Oc1ccc(C=Nc2c(O)c3ccccc3[nH]c2=S)cc1

>  <score_type>  (35) 
oracle

>  <origin>  (35) 
adgpu

>  <m_score__min__energy>  (35) 
-9.75

>  <m_primary>  (35) 
energy

$$$$
35:0
     RDKit          3D

 51 54  0  0  0  0  0  0  0  0999 V2000
   -5.9330   24.1990  -31.6230 C   0  0  0  0  0  0  0  0  0  0  0  0
   -5.5850   22.8320  -32.1190 C   0  0  0  0  0  0  0  0  0  0  0  0
   -4.4320   22.6270  -32.5640 O   0  0  0  0  0  0  0  0  0  0  0  0
   -6.5240   21.7480  -32.0740 N   0  0  0  0  0  0  0  0  0  0  0  0
   -7.8950   21.8870  -31.5810 C   0  0  0  0  0  0  0  0  0  0  0  0
   -8.6130   20.5650  -31.9300 C   0  0  0  0  0  0  0  0  0  0  0  0
   -7.5230   19.7180  -32.4870 C   0  0  0  0  0  0  0  0  0  0  0  0
   -7.5850   18.3710  -32.8430 C   0  0  0  0  0  0  0  0  0  0  0  0
   -6.4060   17.7320  -33.2560 C   0  0  0  0  0  0  0  0  0  0  0  0
   -5.1860   18.4420  -33.2920 C   0  0  0  0  0  0  0  0  0  0  0  0
   -3.6960   17.5890  -33.6950 S   0  0  0  0  0  0  0  0  0  0  0  0
   -2.9520   17.2810  -32.4200 O   0  0  0  0  0  0  0  0  0  0  0  0
   -3.9890   16.2970  -34.4110 O   0  0  0  0  0  0  0  0  0  0  0  0
   -2.7070   18.5970  -34.6980 N   0  0  0  0  0  0  0  0  0  0  0  0
   -1.7380   19.5370  -34.2110 C   0  0  0  0  0  0  0  0  0  0  0  0
   -0.6210   19.9200  -34.9710 C   0  0  0  0  0  0  0  0  0  0  0  0
    0.2590   20.8850  -34.4840 C   0  0  0  0  0  0  0  0  0  0  0  0
    0.0400   21.4690  -33.2360 C   0  0  0  0  0  0  0  0  0  0  0  0
   -1.0620   21.0850  -32.4510 C   0  0  0  0  0  0  0  0  0  0  0  0
   -1.2860   21.7100  -31.1220 C   0  0  0  0  0  0  0  0  0  0  0  0
   -0.5450   21.3880  -30.1530 O   0  0  0  0  0  0  0  0  0  0  0  0
   -2.2940   22.7210  -30.9420 N   0  0  0  0  0  0  0  0  0  0  0  0
   -2.9330   23.0140  -29.6830 C   0  0  0  0  0  0  0  0  0  0  0  0
   -3.0360   22.0380  -28.6680 C   0  0  0  0  0  0  0  0  0  0  0  0
   -3.6870   22.3300  -27.4670 C   0  0  0  0  0  0  0  0  0  0  0  0
   -4.2580   23.5880  -27.2690 C   0  0  0  0  0  0  0  0  0  0  0  0
   -4.1810   24.5590  -28.2720 C   0  0  0  0  0  0  0  0  0  0  0  0
   -3.5240   24.2770  -29.4750 C   0  0  0  0  0  0  0  0  0  0  0  0
   -3.4630   25.2600  -30.4600 O   0  0  0  0  0  0  0  0  0  0  0  0
   -1.9370   20.1000  -32.9450 C   0  0  0  0  0  0  0  0  0  0  0  0
   -5.1550   19.8030  -32.9360 C   0  0  0  0  0  0  0  0  0  0  0  0
   -6.3510   20.4240  -32.5580 C   0  0  0  0  0  0  0  0  0  0  0  0
   -5.9335   24.2008  -30.5230 H   0  0  0  0  0  0  0  0  0  0  0  0
   -5.1904   24.9225  -31.9906 H   0  0  0  0  0  0  0  0  0  0  0  0
   -6.9312   24.4793  -31.9906 H   0  0  0  0  0  0  0  0  0  0  0  0
   -7.8948   22.0453  -30.4924 H   0  0  0  0  0  0  0  0  0  0  0  0
   -8.4002   22.7508  -32.0377 H   0  0  0  0  0  0  0  0  0  0  0  0
   -9.0492   20.1046  -31.0312 H   0  0  0  0  0  0  0  0  0  0  0  0
   -9.4506   20.7026  -32.6297 H   0  0  0  0  0  0  0  0  0  0  0  0
   -8.5371   17.8217  -32.8010 H   0  0  0  0  0  0  0  0  0  0  0  0
   -6.4323   16.6732  -33.5531 H   0  0  0  0  0  0  0  0  0  0  0  0
   -0.4402   19.4576  -35.9526 H   0  0  0  0  0  0  0  0  0  0  0  0
    1.1290   21.1871  -35.0856 H   0  0  0  0  0  0  0  0  0  0  0  0
    0.7348   22.2359  -32.8630 H   0  0  0  0  0  0  0  0  0  0  0  0
   -2.5310   23.3220  -31.7640 H   0  0  0  0  0  0  0  0  0  0  0  0
   -2.6003   21.0401  -28.8241 H   0  0  0  0  0  0  0  0  0  0  0  0
   -3.7496   21.5676  -26.6765 H   0  0  0  0  0  0  0  0  0  0  0  0
   -4.7695   23.8160  -26.3222 H   0  0  0  0  0  0  0  0  0  0  0  0
   -4.6380   25.5472  -28.1151 H   0  0  0  0  0  0  0  0  0  0  0  0
   -2.7865   19.7688  -32.3297 H   0  0  0  0  0  0  0  0  0  0  0  0
   -4.2107   20.3670  -32.9544 H   0  0  0  0  0  0  0  0  0  0  0  0
  1  2  1  0
  2  3  2  0
  2  4  1  0
  4  5  1  0
  5  6  1  0
  6  7  1  0
  7  8  2  0
  8  9  1  0
  9 10  2  0
 10 11  1  0
 11 12  2  0
 11 13  2  0
 11 14  1  0
 14 15  1  0
 15 16  2  0
 16 17  1  0
 17 18  2  0
 18 19  1  0
 19 20  1  0
 20 21  2  0
 20 22  1  0
 22 23  1  0
 23 24  2  0
 24 25  1  0
 25 26  2  0
 26 27  1  0
 27 28  2  0
 28 29  1  0
 19 30  2  0
 10 31  1  0
 31 32  2  0
 32  4  1  0
 32  7  1  0
 30 15  1  0
 28 23  1  0
  1 33  1  0
  1 34  1  0
  1 35  1  0
  5 36  1  0
  5 37  1  0
  6 38  1  0
  6 39  1  0
  8 40  1  0
  9 41  1  0
 16 42  1  0
 17 43  1  0
 18 44  1  0
 22 45  1  0
 24 46  1  0
 25 47  1  0
 26 48  1  0
 27 49  1  0
 30 50  1  0
 31 51  1  0
M  CHG  2  14  -1  29  -1
M  END
>  <UniqueID>  (36) 
36

>  <SMILES>  (36) 
CC(=O)N1CCc2ccc(S(=O)(=O)[N-]c3cccc(C(=O)Nc4ccccc4[O-])c3)cc21

>  <Energy>  (36) 
81.91234867048743

>  <Genealogy>  (36) 
CC(=O)N1CCc2ccc(S(=O)(=O)[N-]c3cccc(C(=O)Nc4ccccc4[O-])c3)cc21 (protonated)
CC(=O)N1CCc2ccc(S(=O)(=O)[N-]c3cccc(C(=O)Nc4ccccc4[O-])c3)cc21 (3D coordinates assigned)
CC(=O)N1CCc2ccc(S(=O)(=O)[N-]c3cccc(C(=O)Nc4ccccc4[O-])c3)cc21 (nonaromatic ring conformer: 81.91234867048743 kcal/mol)

>  <smiles>  (36) 
CC(=O)N1CCc2ccc(S(=O)(=O)Nc3cccc(C(=O)Nc4ccccc4O)c3)cc21

>  <score_type>  (36) 
oracle

>  <origin>  (36) 
adgpu

>  <m_score__min__energy>  (36) 
-13.08

>  <m_primary>  (36) 
energy

$$$$
36:0
     RDKit          3D

 58 60  0  0  0  0  0  0  0  0999 V2000
   -1.5140   20.8690  -33.6130 C   0  0  0  0  0  0  0  0  0  0  0  0
   -2.4650   21.1000  -32.4760 C   0  0  0  0  0  0  0  0  0  0  0  0
   -3.5650   20.2480  -32.2970 C   0  0  0  0  0  0  0  0  0  0  0  0
   -4.4690   20.4770  -31.2540 C   0  0  0  0  0  0  0  0  0  0  0  0
   -4.2880   21.5620  -30.3950 C   0  0  0  0  0  0  0  0  0  0  0  0
   -3.2040   22.4330  -30.5780 C   0  0  0  0  0  0  0  0  0  0  0  0
   -2.9510   23.7950  -29.4850 S   0  0  0  0  0  0  0  0  0  0  0  0
   -3.6820   23.5170  -28.2020 O   0  0  0  0  0  0  0  0  0  0  0  0
   -1.4890   23.9390  -29.1690 O   0  0  0  0  0  0  0  0  0  0  0  0
   -3.5490   25.2870  -30.1570 N   0  0  0  0  0  0  0  0  0  0  0  0
   -4.8270   25.1130  -30.8550 C   0  0  0  0  0  0  0  0  0  0  0  0
   -5.9840   24.8070  -29.8940 C   0  0  0  0  0  0  0  0  0  0  0  0
   -7.1780   24.1550  -30.6150 C   0  0  0  0  0  0  0  0  0  0  0  0
   -7.4920   22.8220  -30.0780 N   0  0  0  0  0  0  0  0  0  0  0  0
   -8.7090   22.0160  -31.0290 S   0  0  0  0  0  0  0  0  0  0  0  0
   -9.3210   22.9660  -32.0200 O   0  0  0  0  0  0  0  0  0  0  0  0
   -9.7950   21.5170  -30.1190 O   0  0  0  0  0  0  0  0  0  0  0  0
   -7.9960   20.6450  -31.8750 C   0  0  0  0  0  0  0  0  0  0  0  0
   -8.2770   19.3400  -31.4490 C   0  0  0  0  0  0  0  0  0  0  0  0
   -7.7110   18.2480  -32.1110 C   0  0  0  0  0  0  0  0  0  0  0  0
   -6.8490   18.4500  -33.1960 C   0  0  0  0  0  0  0  0  0  0  0  0
   -6.1430   17.0640  -34.0220 S   0  0  0  0  0  0  0  0  0  0  0  0
   -5.5640   17.4940  -35.3430 O   0  0  0  0  0  0  0  0  0  0  0  0
   -7.2190   16.0450  -34.2650 O   0  0  0  0  0  0  0  0  0  0  0  0
   -4.8940   16.3700  -33.0190 N   0  0  0  0  0  0  0  0  0  0  0  0
   -4.8480   14.9150  -33.1590 C   0  0  0  0  0  0  0  0  0  0  0  0
   -3.4270   14.4970  -32.8260 C   0  0  0  0  0  0  0  0  0  0  0  0
   -2.5810   15.7420  -33.0440 C   0  0  0  0  0  0  0  0  0  0  0  0
   -3.5660   16.8440  -33.4100 C   0  0  0  0  0  0  0  0  0  0  0  0
   -6.5660   19.7550  -33.6210 C   0  0  0  0  0  0  0  0  0  0  0  0
   -7.1350   20.8480  -32.9620 C   0  0  0  0  0  0  0  0  0  0  0  0
   -2.2970   22.2010  -31.6220 C   0  0  0  0  0  0  0  0  0  0  0  0
   -0.5178   20.6270  -33.2143 H   0  0  0  0  0  0  0  0  0  0  0  0
   -1.8755   20.0325  -34.2292 H   0  0  0  0  0  0  0  0  0  0  0  0
   -1.4515   21.7781  -34.2292 H   0  0  0  0  0  0  0  0  0  0  0  0
   -3.7172   19.3979  -32.9783 H   0  0  0  0  0  0  0  0  0  0  0  0
   -5.3243   19.8004  -31.1107 H   0  0  0  0  0  0  0  0  0  0  0  0
   -4.9974   21.7345  -29.5722 H   0  0  0  0  0  0  0  0  0  0  0  0
   -5.0587   26.0383  -31.4029 H   0  0  0  0  0  0  0  0  0  0  0  0
   -4.7221   24.2556  -31.5360 H   0  0  0  0  0  0  0  0  0  0  0  0
   -5.6242   24.1217  -29.1124 H   0  0  0  0  0  0  0  0  0  0  0  0
   -6.3272   25.7589  -29.4627 H   0  0  0  0  0  0  0  0  0  0  0  0
   -8.0598   24.8016  -30.4955 H   0  0  0  0  0  0  0  0  0  0  0  0
   -6.9084   24.0367  -31.6749 H   0  0  0  0  0  0  0  0  0  0  0  0
   -7.8370   22.8930  -29.0930 H   0  0  0  0  0  0  0  0  0  0  0  0
   -8.9452   19.1751  -30.5909 H   0  0  0  0  0  0  0  0  0  0  0  0
   -7.9433   17.2254  -31.7788 H   0  0  0  0  0  0  0  0  0  0  0  0
   -5.5565   14.4432  -32.4623 H   0  0  0  0  0  0  0  0  0  0  0  0
   -5.1273   14.6033  -34.1762 H   0  0  0  0  0  0  0  0  0  0  0  0
   -3.3587   14.1630  -31.7802 H   0  0  0  0  0  0  0  0  0  0  0  0
   -3.0894   13.6571  -33.4510 H   0  0  0  0  0  0  0  0  0  0  0  0
   -2.0366   16.0028  -32.1244 H   0  0  0  0  0  0  0  0  0  0  0  0
   -1.8271   15.5906  -33.8306 H   0  0  0  0  0  0  0  0  0  0  0  0
   -3.3189   17.7685  -32.8676 H   0  0  0  0  0  0  0  0  0  0  0  0
   -3.5273   17.0669  -34.4865 H   0  0  0  0  0  0  0  0  0  0  0  0
   -5.8938   19.9195  -34.4761 H   0  0  0  0  0  0  0  0  0  0  0  0
   -6.9065   21.8704  -33.2973 H   0  0  0  0  0  0  0  0  0  0  0  0
   -1.4493   22.8856  -31.7724 H   0  0  0  0  0  0  0  0  0  0  0  0
  1  2  1  0
  2  3  2  0
  3  4  1  0
  4  5  2  0
  5  6  1  0
  6  7  1  0
  7  8  2  0
  7  9  2  0
  7 10  1  0
 10 11  1  0
 11 12  1  0
 12 13  1  0
 13 14  1  0
 14 15  1  0
 15 16  2  0
 15 17  2  0
 15 18  1  0
 18 19  2  0
 19 20  1  0
 20 21  2  0
 21 22  1  0
 22 23  2  0
 22 24  2  0
 22 25  1  0
 25 26  1  0
 26 27  1  0
 27 28  1  0
 28 29  1  0
 21 30  1  0
 30 31  2  0
  6 32  2  0
 32  2  1  0
 31 18  1  0
 29 25  1  0
  1 33  1  0
  1 34  1  0
  1 35  1  0
  3 36  1  0
  4 37  1  0
  5 38  1  0
 11 39  1  0
 11 40  1  0
 12 41  1  0
 12 42  1  0
 13 43  1  0
 13 44  1  0
 14 45  1  0
 19 46  1  0
 20 47  1  0
 26 48  1  0
 26 49  1  0
 27 50  1  0
 27 51  1  0
 28 52  1  0
 28 53  1  0
 29 54  1  0
 29 55  1  0
 30 56  1  0
 31 57  1  0
 32 58  1  0
M  CHG  1  10  -1
M  END
>  <UniqueID>  (37) 
37

>  <SMILES>  (37) 
Cc1cccc(S(=O)(=O)[N-]CCCNS(=O)(=O)c2ccc(S(=O)(=O)N3CCCC3)cc2)c1

>  <Energy>  (37) 
55.55282319783261

>  <Genealogy>  (37) 
Cc1cccc(S(=O)(=O)[N-]CCCNS(=O)(=O)c2ccc(S(=O)(=O)N3CCCC3)cc2)c1 (protonated)
Cc1cccc(S(=O)(=O)[N-]CCCNS(=O)(=O)c2ccc(S(=O)(=O)N3CCCC3)cc2)c1 (3D coordinates assigned)
Cc1cccc(S(=O)(=O)[N-]CCCNS(=O)(=O)c2ccc(S(=O)(=O)N3CCCC3)cc2)c1 (nonaromatic ring conformer: 55.55282319783261 kcal/mol)

>  <smiles>  (37) 
Cc1cccc(S(=O)(=O)NCCCNS(=O)(=O)c2ccc(S(=O)(=O)N3CCCC3)cc2)c1

>  <score_type>  (37) 
oracle

>  <origin>  (37) 
adgpu

>  <m_score__min__energy>  (37) 
-12.82

>  <m_primary>  (37) 
energy

$$$$
37:0
     RDKit          3D

 49 52  0  0  0  0  0  0  0  0999 V2000
   -2.9670   20.8800  -30.7270 O   0  0  0  0  0  0  0  0  0  0  0  0
   -3.3620   22.3070  -30.4680 S   0  0  0  0  0  0  0  0  0  0  0  0
   -2.3790   23.2240  -31.1390 O   0  0  0  0  0  0  0  0  0  0  0  0
   -3.3590   22.6470  -28.7660 N   0  0  0  0  0  0  0  0  0  0  0  0
   -2.3670   23.4460  -28.1160 C   0  0  0  0  0  0  0  0  0  0  0  0
   -1.7440   22.9420  -26.9690 C   0  0  0  0  0  0  0  0  0  0  0  0
   -0.7620   23.6870  -26.3020 C   0  0  0  0  0  0  0  0  0  0  0  0
   -0.4300   24.9760  -26.7670 C   0  0  0  0  0  0  0  0  0  0  0  0
   -1.0680   25.4860  -27.9080 C   0  0  0  0  0  0  0  0  0  0  0  0
   -2.0480   24.7380  -28.5670 C   0  0  0  0  0  0  0  0  0  0  0  0
   -2.7180   25.2990  -29.6480 O   0  0  0  0  0  0  0  0  0  0  0  0
    0.6680   25.7770  -26.1060 C   0  0  0  0  0  0  0  0  0  0  0  0
    0.9160   25.3500  -24.7210 N   0  0  0  0  0  0  0  0  0  0  0  0
    1.1280   23.8990  -24.6540 C   0  0  0  0  0  0  0  0  0  0  0  0
   -0.1480   23.1410  -25.0380 C   0  0  0  0  0  0  0  0  0  0  0  0
   -4.9930   22.5580  -31.0920 C   0  0  0  0  0  0  0  0  0  0  0  0
   -5.7990   21.4370  -31.3350 C   0  0  0  0  0  0  0  0  0  0  0  0
   -7.0860   21.5850  -31.8620 C   0  0  0  0  0  0  0  0  0  0  0  0
   -8.0570   20.1520  -32.1870 S   0  0  0  0  0  0  0  0  0  0  0  0
   -8.5850   19.6010  -30.8920 O   0  0  0  0  0  0  0  0  0  0  0  0
   -9.2210   20.4950  -33.0740 O   0  0  0  0  0  0  0  0  0  0  0  0
   -7.0520   18.9540  -32.9980 C   0  0  0  0  0  0  0  0  0  0  0  0
   -6.0930   19.3510  -33.9410 C   0  0  0  0  0  0  0  0  0  0  0  0
   -5.3260   18.3920  -34.6100 C   0  0  0  0  0  0  0  0  0  0  0  0
   -5.5150   17.0340  -34.3410 C   0  0  0  0  0  0  0  0  0  0  0  0
   -6.4740   16.6320  -33.4070 C   0  0  0  0  0  0  0  0  0  0  0  0
   -7.2440   17.5890  -32.7370 C   0  0  0  0  0  0  0  0  0  0  0  0
   -7.5780   22.8670  -32.1380 C   0  0  0  0  0  0  0  0  0  0  0  0
   -6.7790   23.9890  -31.9040 C   0  0  0  0  0  0  0  0  0  0  0  0
   -5.4820   23.8430  -31.3900 C   0  0  0  0  0  0  0  0  0  0  0  0
   -4.6840   24.9670  -31.1840 O   0  0  0  0  0  0  0  0  0  0  0  0
   -2.0280   21.9504  -26.5867 H   0  0  0  0  0  0  0  0  0  0  0  0
   -0.7949   26.4820  -28.2868 H   0  0  0  0  0  0  0  0  0  0  0  0
    1.5945   25.6521  -26.6856 H   0  0  0  0  0  0  0  0  0  0  0  0
    0.3476   26.8290  -26.0808 H   0  0  0  0  0  0  0  0  0  0  0  0
    0.0860   25.6040  -24.1350 H   0  0  0  0  0  0  0  0  0  0  0  0
    1.9348   23.6206  -25.3479 H   0  0  0  0  0  0  0  0  0  0  0  0
    1.3988   23.6308  -23.6221 H   0  0  0  0  0  0  0  0  0  0  0  0
    0.1000   22.0804  -25.1915 H   0  0  0  0  0  0  0  0  0  0  0  0
   -0.8768   23.2616  -24.2230 H   0  0  0  0  0  0  0  0  0  0  0  0
   -5.4154   20.4311  -31.1090 H   0  0  0  0  0  0  0  0  0  0  0  0
   -5.9437   20.4196  -34.1550 H   0  0  0  0  0  0  0  0  0  0  0  0
   -4.5737   18.7068  -35.3482 H   0  0  0  0  0  0  0  0  0  0  0  0
   -4.9085   16.2805  -34.8648 H   0  0  0  0  0  0  0  0  0  0  0  0
   -6.6235   15.5623  -33.1985 H   0  0  0  0  0  0  0  0  0  0  0  0
   -8.0007   17.2708  -32.0048 H   0  0  0  0  0  0  0  0  0  0  0  0
   -8.5946   22.9906  -32.5395 H   0  0  0  0  0  0  0  0  0  0  0  0
   -7.1696   24.9935  -32.1243 H   0  0  0  0  0  0  0  0  0  0  0  0
   -3.6730   24.9160  -31.2260 H   0  0  0  0  0  0  0  0  0  0  0  0
  1  2  2  0
  2  3  2  0
  2  4  1  0
  4  5  1  0
  5  6  2  0
  6  7  1  0
  7  8  2  0
  8  9  1  0
  9 10  2  0
 10 11  1  0
  8 12  1  0
 12 13  1  0
 13 14  1  0
 14 15  1  0
  2 16  1  0
 16 17  2  0
 17 18  1  0
 18 19  1  0
 19 20  2  0
 19 21  2  0
 19 22  1  0
 22 23  2  0
 23 24  1  0
 24 25  2  0
 25 26  1  0
 26 27  2  0
 18 28  2  0
 28 29  1  0
 29 30  2  0
 30 31  1  0
 10  5  1  0
 30 16  1  0
 15  7  1  0
 27 22  1  0
  6 32  1  0
  9 33  1  0
 12 34  1  0
 12 35  1  0
 13 36  1  0
 14 37  1  0
 14 38  1  0
 15 39  1  0
 15 40  1  0
 17 41  1  0
 23 42  1  0
 24 43  1  0
 25 44  1  0
 26 45  1  0
 27 46  1  0
 28 47  1  0
 29 48  1  0
 31 49  1  0
M  CHG  2   4  -1  11  -1
M  END
>  <UniqueID>  (38) 
38

>  <SMILES>  (38) 
O=S(=O)([N-]c1cc2c(cc1[O-])CNCC2)c1cc(S(=O)(=O)c2ccccc2)ccc1O

>  <Energy>  (38) 
64.23630794202118

>  <Genealogy>  (38) 
O=S(=O)([N-]c1cc2c(cc1[O-])CNCC2)c1cc(S(=O)(=O)c2ccccc2)ccc1O (protonated)
O=S(=O)([N-]c1cc2c(cc1[O-])CNCC2)c1cc(S(=O)(=O)c2ccccc2)ccc1O (3D coordinates assigned)
O=S(=O)([N-]c1cc2c(cc1[O-])CNCC2)c1cc(S(=O)(=O)c2ccccc2)ccc1O (nonaromatic ring conformer: 64.23630794202118 kcal/mol)

>  <smiles>  (38) 
O=S(=O)(Nc1cc2c(cc1O)CNCC2)c1cc(S(=O)(=O)c2ccccc2)ccc1O

>  <score_type>  (38) 
oracle

>  <origin>  (38) 
adgpu

>  <m_score__min__energy>  (38) 
-14.279999999999999

>  <m_primary>  (38) 
energy

$$$$
38:0
     RDKit          3D

 48 50  0  0  0  0  0  0  0  0999 V2000
   -1.1820   17.0750  -35.2410 C   0  0  0  0  0  0  0  0  0  0  0  0
   -2.5210   17.2300  -34.5680 C   0  0  0  0  0  0  0  0  0  0  0  0
   -3.5240   16.2810  -34.8270 C   0  0  0  0  0  0  0  0  0  0  0  0
   -4.7790   16.3920  -34.2280 C   0  0  0  0  0  0  0  0  0  0  0  0
   -5.0540   17.4490  -33.3600 C   0  0  0  0  0  0  0  0  0  0  0  0
   -6.6510   17.5890  -32.6260 S   0  0  0  0  0  0  0  0  0  0  0  0
   -7.5260   16.4880  -33.1560 O   0  0  0  0  0  0  0  0  0  0  0  0
   -6.5430   17.4360  -31.1340 O   0  0  0  0  0  0  0  0  0  0  0  0
   -7.3530   19.1400  -33.0210 N   0  0  0  0  0  0  0  0  0  0  0  0
   -8.7600   19.2230  -32.5520 C   0  0  0  0  0  0  0  0  0  0  0  0
   -8.8900   20.0650  -31.2710 C   0  0  0  0  0  0  0  0  0  0  0  0
   -8.4260   21.3990  -31.4260 O   0  0  0  0  0  0  0  0  0  0  0  0
   -7.3200   21.5220  -32.3140 C   0  0  0  0  0  0  0  0  0  0  0  0
   -6.5060   20.2280  -32.4840 C   0  0  0  0  0  0  0  0  0  0  0  0
   -4.0700   18.4120  -33.1050 C   0  0  0  0  0  0  0  0  0  0  0  0
   -2.8040   18.3200  -33.7070 C   0  0  0  0  0  0  0  0  0  0  0  0
   -1.5970   19.5660  -33.3390 S   0  0  0  0  0  0  0  0  0  0  0  0
   -0.4790   18.9500  -32.5460 O   0  0  0  0  0  0  0  0  0  0  0  0
   -1.0200   20.1290  -34.6070 O   0  0  0  0  0  0  0  0  0  0  0  0
   -2.3520   20.8760  -32.4380 C   0  0  0  0  0  0  0  0  0  0  0  0
   -3.4610   21.5400  -32.9730 C   0  0  0  0  0  0  0  0  0  0  0  0
   -4.0730   22.5770  -32.2630 C   0  0  0  0  0  0  0  0  0  0  0  0
   -3.5820   22.9670  -31.0030 C   0  0  0  0  0  0  0  0  0  0  0  0
   -4.2290   24.0650  -30.2470 C   0  0  0  0  0  0  0  0  0  0  0  0
   -3.8690   25.4240  -30.4890 N   0  0  0  0  0  0  0  0  0  0  0  0
   -5.1080   23.8090  -29.3810 O   0  0  0  0  0  0  0  0  0  0  0  0
   -2.4640   22.2970  -30.4740 C   0  0  0  0  0  0  0  0  0  0  0  0
   -1.8530   21.2610  -31.1860 C   0  0  0  0  0  0  0  0  0  0  0  0
   -0.3959   16.9840  -34.4769 H   0  0  0  0  0  0  0  0  0  0  0  0
   -1.1895   16.1717  -35.8687 H   0  0  0  0  0  0  0  0  0  0  0  0
   -0.9829   17.9561  -35.8687 H   0  0  0  0  0  0  0  0  0  0  0  0
   -3.3178   15.4425  -35.5085 H   0  0  0  0  0  0  0  0  0  0  0  0
   -5.5555   15.6425  -34.4411 H   0  0  0  0  0  0  0  0  0  0  0  0
   -7.3530   19.2120  -34.0660 H   0  0  0  0  0  0  0  0  0  0  0  0
   -9.3717   19.6820  -33.3426 H   0  0  0  0  0  0  0  0  0  0  0  0
   -9.1041   18.2031  -32.3254 H   0  0  0  0  0  0  0  0  0  0  0  0
   -9.9502   20.0957  -30.9794 H   0  0  0  0  0  0  0  0  0  0  0  0
   -8.2627   19.5889  -30.5030 H   0  0  0  0  0  0  0  0  0  0  0  0
   -7.7010   21.8230  -33.3011 H   0  0  0  0  0  0  0  0  0  0  0  0
   -6.6418   22.2688  -31.8754 H   0  0  0  0  0  0  0  0  0  0  0  0
   -5.6744   20.4141  -33.1795 H   0  0  0  0  0  0  0  0  0  0  0  0
   -6.1216   19.9219  -31.4999 H   0  0  0  0  0  0  0  0  0  0  0  0
   -4.2905   19.2491  -32.4263 H   0  0  0  0  0  0  0  0  0  0  0  0
   -3.8534   21.2446  -33.9573 H   0  0  0  0  0  0  0  0  0  0  0  0
   -4.9450   23.0921  -32.6923 H   0  0  0  0  0  0  0  0  0  0  0  0
   -3.1590   25.6710  -31.2140 H   0  0  0  0  0  0  0  0  0  0  0  0
   -2.0670   22.5910  -29.4912 H   0  0  0  0  0  0  0  0  0  0  0  0
   -0.9779   20.7463  -30.7626 H   0  0  0  0  0  0  0  0  0  0  0  0
  1  2  1  0
  2  3  2  0
  3  4  1  0
  4  5  2  0
  5  6  1  0
  6  7  2  0
  6  8  2  0
  6  9  1  0
  9 10  1  0
 10 11  1  0
 11 12  1  0
 12 13  1  0
 13 14  1  0
  5 15  1  0
 15 16  2  0
 16 17  1  0
 17 18  2  0
 17 19  2  0
 17 20  1  0
 20 21  2  0
 21 22  1  0
 22 23  2  0
 23 24  1  0
 24 25  1  0
 24 26  2  0
 23 27  1  0
 27 28  2  0
 16  2  1  0
 28 20  1  0
 14  9  1  0
  1 29  1  0
  1 30  1  0
  1 31  1  0
  3 32  1  0
  4 33  1  0
  9 34  1  0
 10 35  1  0
 10 36  1  0
 11 37  1  0
 11 38  1  0
 13 39  1  0
 13 40  1  0
 14 41  1  0
 14 42  1  0
 15 43  1  0
 21 44  1  0
 22 45  1  0
 25 46  1  0
 27 47  1  0
 28 48  1  0
M  CHG  2   9   1  25  -1
M  END
>  <UniqueID>  (39) 
39

>  <SMILES>  (39) 
Cc1ccc(S(=O)(=O)[NH+]2CCOCC2)cc1S(=O)(=O)c1ccc(C([NH-])=O)cc1

>  <Energy>  (39) 
64.34040353783946

>  <Genealogy>  (39) 
Cc1ccc(S(=O)(=O)[NH+]2CCOCC2)cc1S(=O)(=O)c1ccc(C([NH-])=O)cc1 (protonated)
Cc1ccc(S(=O)(=O)[NH+]2CCOCC2)cc1S(=O)(=O)c1ccc(C([NH-])=O)cc1 (3D coordinates assigned)
Cc1ccc(S(=O)(=O)[NH+]2CCOCC2)cc1S(=O)(=O)c1ccc(C([NH-])=O)cc1 (nonaromatic ring conformer: 64.34040353783946 kcal/mol)

>  <smiles>  (39) 
Cc1ccc(S(=O)(=O)N2CCOCC2)cc1S(=O)(=O)c1ccc(C(N)=O)cc1

>  <score_type>  (39) 
oracle

>  <origin>  (39) 
adgpu

>  <m_score__min__energy>  (39) 
-11.35

>  <m_primary>  (39) 
energy

$$$$
39:0
     RDKit          3D

 66 70  0  0  0  0  0  0  0  0999 V2000
   -0.4530   23.0700  -25.4340 C   0  0  0  0  0  0  0  0  0  0  0  0
   -1.1450   23.5860  -26.6720 C   0  0  0  0  0  0  0  0  0  0  0  0
   -2.2170   22.8380  -27.1830 C   0  0  0  0  0  0  0  0  0  0  0  0
   -2.9160   23.2620  -28.3090 C   0  0  0  0  0  0  0  0  0  0  0  0
   -2.5590   24.4530  -28.9560 C   0  0  0  0  0  0  0  0  0  0  0  0
   -3.2470   24.9170  -30.1300 N   0  0  0  0  0  0  0  0  0  0  0  0
   -4.4550   24.3840  -30.6880 C   0  0  0  0  0  0  0  0  0  0  0  0
   -5.2520   25.1210  -31.3290 O   0  0  0  0  0  0  0  0  0  0  0  0
   -4.7690   23.0060  -30.4720 N   0  0  0  0  0  0  0  0  0  0  0  0
   -5.9280   22.3400  -30.9950 C   0  0  0  0  0  0  0  0  0  0  0  0
   -7.0820   23.0960  -31.2060 C   0  0  0  0  0  0  0  0  0  0  0  0
   -8.2560   22.4890  -31.6450 C   0  0  0  0  0  0  0  0  0  0  0  0
   -8.3050   21.1090  -31.8660 C   0  0  0  0  0  0  0  0  0  0  0  0
   -9.8470   20.4550  -32.4070 Cl  0  0  0  0  0  0  0  0  0  0  0  0
   -7.1420   20.3220  -31.6750 C   0  0  0  0  0  0  0  0  0  0  0  0
   -7.1250   18.5520  -31.8690 S   0  0  0  0  0  0  0  0  0  0  0  0
   -6.1480   17.8810  -30.9420 O   0  0  0  0  0  0  0  0  0  0  0  0
   -8.5000   18.0270  -31.5530 O   0  0  0  0  0  0  0  0  0  0  0  0
   -6.7300   18.1360  -33.5800 C   0  0  2  0  0  0  0  0  0  0  0  0
   -6.6270   16.6200  -33.8530 C   0  0  0  0  0  0  0  0  0  0  0  0
   -5.2550   16.4980  -34.5450 C   0  0  2  0  0  0  0  0  0  0  0  0
   -4.1520   16.6870  -33.4900 C   0  0  0  0  0  0  0  0  0  0  0  0
   -4.2090   18.1970  -33.2110 C   0  0  0  0  0  0  0  0  0  0  0  0
   -5.3740   18.6710  -34.1010 C   0  0  1  0  0  0  0  0  0  0  0  0
   -5.1740   17.7960  -35.3190 C   0  0  0  0  0  0  0  0  0  0  0  0
   -5.9370   20.9580  -31.2990 C   0  0  0  0  0  0  0  0  0  0  0  0
   -4.7580   20.2080  -31.2740 O   0  0  0  0  0  0  0  0  0  0  0  0
   -1.5290   25.2410  -28.4280 C   0  0  0  0  0  0  0  0  0  0  0  0
   -1.2370   26.4560  -29.0460 O   0  0  0  0  0  0  0  0  0  0  0  0
   -0.7900   24.8140  -27.2990 C   0  0  0  0  0  0  0  0  0  0  0  0
    0.5760   25.8230  -26.7330 S   0  0  0  0  0  0  0  0  0  0  0  0
    0.2760   27.2660  -27.0300 O   0  0  0  0  0  0  0  0  0  0  0  0
    0.7470   25.7140  -25.2450 O   0  0  0  0  0  0  0  0  0  0  0  0
    2.0870   25.3830  -27.5000 N   0  0  0  0  0  0  0  0  0  0  0  0
    3.0280   26.5160  -27.4940 C   0  0  0  0  0  0  0  0  0  0  0  0
    4.4270   26.0690  -27.9640 C   0  0  0  0  0  0  0  0  0  0  0  0
    4.3840   24.7790  -28.5410 O   0  0  0  0  0  0  0  0  0  0  0  0
    4.0020   23.8260  -27.5620 C   0  0  0  0  0  0  0  0  0  0  0  0
    2.6950   24.2190  -26.8380 C   0  0  0  0  0  0  0  0  0  0  0  0
   -0.9669   23.4532  -24.5401 H   0  0  0  0  0  0  0  0  0  0  0  0
   -0.4808   21.9704  -25.4298 H   0  0  0  0  0  0  0  0  0  0  0  0
    0.5930   23.4104  -25.4298 H   0  0  0  0  0  0  0  0  0  0  0  0
   -2.5093   21.9015  -26.6854 H   0  0  0  0  0  0  0  0  0  0  0  0
   -3.7525   22.6598  -28.6931 H   0  0  0  0  0  0  0  0  0  0  0  0
   -7.0641   24.1807  -31.0240 H   0  0  0  0  0  0  0  0  0  0  0  0
   -9.1533   23.1009  -31.8196 H   0  0  0  0  0  0  0  0  0  0  0  0
   -7.5799   18.6126  -34.0905 H   0  0  0  0  0  0  0  0  0  0  0  0
   -6.6520   16.0447  -32.9158 H   0  0  0  0  0  0  0  0  0  0  0  0
   -7.4585   16.2255  -34.4554 H   0  0  0  0  0  0  0  0  0  0  0  0
   -5.1487   15.5544  -35.1002 H   0  0  0  0  0  0  0  0  0  0  0  0
   -4.3687   16.1069  -32.5809 H   0  0  0  0  0  0  0  0  0  0  0  0
   -3.1629   16.3413  -33.8249 H   0  0  0  0  0  0  0  0  0  0  0  0
   -4.4169   18.3951  -32.1491 H   0  0  0  0  0  0  0  0  0  0  0  0
   -3.2618   18.7133  -33.4260 H   0  0  0  0  0  0  0  0  0  0  0  0
   -5.3850   19.7666  -34.1981 H   0  0  0  0  0  0  0  0  0  0  0  0
   -5.9756   17.9045  -36.0644 H   0  0  0  0  0  0  0  0  0  0  0  0
   -4.2838   17.9719  -35.9408 H   0  0  0  0  0  0  0  0  0  0  0  0
   -4.6690   19.3370  -30.7670 H   0  0  0  0  0  0  0  0  0  0  0  0
    2.6538   27.2991  -28.1698 H   0  0  0  0  0  0  0  0  0  0  0  0
    3.1080   26.9022  -26.4671 H   0  0  0  0  0  0  0  0  0  0  0  0
    4.8000   26.7844  -28.7118 H   0  0  0  0  0  0  0  0  0  0  0  0
    5.0948   26.0380  -27.0904 H   0  0  0  0  0  0  0  0  0  0  0  0
    3.8548   22.8533  -28.0541 H   0  0  0  0  0  0  0  0  0  0  0  0
    4.8022   23.7789  -26.8087 H   0  0  0  0  0  0  0  0  0  0  0  0
    1.9923   23.3733  -26.8691 H   0  0  0  0  0  0  0  0  0  0  0  0
    2.9227   24.4747  -25.7927 H   0  0  0  0  0  0  0  0  0  0  0  0
  1  2  1  0
  2  3  2  0
  3  4  1  0
  4  5  2  0
  5  6  1  0
  6  7  1  0
  7  8  2  0
  7  9  1  0
  9 10  1  0
 10 11  2  0
 11 12  1  0
 12 13  2  0
 13 14  1  0
 13 15  1  0
 15 16  1  0
 16 17  2  0
 16 18  2  0
 16 19  1  0
 19 20  1  0
 20 21  1  0
 21 22  1  0
 22 23  1  0
 23 24  1  0
 24 25  1  0
 15 26  2  0
 26 27  1  0
  5 28  1  0
 28 29  1  0
 28 30  2  0
 30 31  1  0
 31 32  2  0
 31 33  2  0
 31 34  1  0
 34 35  1  0
 35 36  1  0
 36 37  1  0
 37 38  1  0
 38 39  1  0
 30  2  1  0
 39 34  1  0
 26 10  1  0
 24 19  1  0
 25 21  1  0
  1 40  1  0
  1 41  1  0
  1 42  1  0
  3 43  1  0
  4 44  1  0
 11 45  1  0
 12 46  1  0
 19 47  1  6
 20 48  1  0
 20 49  1  0
 21 50  1  6
 22 51  1  0
 22 52  1  0
 23 53  1  0
 23 54  1  0
 24 55  1  6
 25 56  1  0
 25 57  1  0
 27 58  1  0
 35 59  1  0
 35 60  1  0
 36 61  1  0
 36 62  1  0
 38 63  1  0
 38 64  1  0
 39 65  1  0
 39 66  1  0
M  CHG  3   6  -1   9  -1  29  -1
M  END
>  <UniqueID>  (40) 
40

>  <SMILES>  (40) 
Cc1ccc([N-]C(=O)[N-]c2ccc(Cl)c(S(=O)(=O)[C@@H]3C[C@@H]4CCC3C4)c2O)c([O-])c1S(=O)(=O)N1CCOCC1

>  <Energy>  (40) 
121.67321347520347

>  <Genealogy>  (40) 
Cc1ccc([N-]C(=O)[N-]c2ccc(Cl)c(S(=O)(=O)C3CC4CCC3C4)c2O)c([O-])c1S(=O)(=O)N1CCOCC1 (protonated)
Cc1ccc([N-]C(=O)[N-]c2ccc(Cl)c(S(=O)(=O)[C@@H]3C[C@@H]4CCC3C4)c2O)c([O-])c1S(=O)(=O)N1CCOCC1 (chirality)
Cc1ccc([N-]C(=O)[N-]c2ccc(Cl)c(S(=O)(=O)[C@@H]3C[C@@H]4CCC3C4)c2O)c([O-])c1S(=O)(=O)N1CCOCC1 (3D coordinates assigned)
Cc1ccc([N-]C(=O)[N-]c2ccc(Cl)c(S(=O)(=O)[C@@H]3C[C@@H]4CCC3C4)c2O)c([O-])c1S(=O)(=O)N1CCOCC1 (nonaromatic ring conformer: 121.67321347520347 kcal/mol)

>  <smiles>  (40) 
Cc1ccc(NC(=O)Nc2ccc(Cl)c(S(=O)(=O)C3CC4CCC3C4)c2O)c(O)c1S(=O)(=O)N1CCOCC1

>  <score_type>  (40) 
oracle

>  <origin>  (40) 
adgpu

>  <m_score__min__energy>  (40) 
-17.379999999999999

>  <m_primary>  (40) 
energy

$$$$
40:0
     RDKit          3D

 33 34  0  0  0  0  0  0  0  0999 V2000
   -5.4270   17.5390  -34.9230 C   0  0  0  0  0  0  0  0  0  0  0  0
   -5.7920   17.0390  -33.5260 C   0  0  0  0  0  0  0  0  0  0  0  0
   -7.2310   17.4010  -33.1320 C   0  0  0  0  0  0  0  0  0  0  0  0
   -7.3310   18.8000  -32.5820 C   0  0  0  0  0  0  0  0  0  0  0  0
   -6.2240   19.6640  -32.6280 C   0  0  0  0  0  0  0  0  0  0  0  0
   -6.3130   20.9550  -32.0990 C   0  0  0  0  0  0  0  0  0  0  0  0
   -7.5050   21.3970  -31.5070 C   0  0  0  0  0  0  0  0  0  0  0  0
   -7.6120   22.8030  -30.9750 C   0  0  0  0  0  0  0  0  0  0  0  0
   -6.8900   23.8090  -31.8800 C   0  0  0  0  0  0  0  0  0  0  0  0
   -5.5330   24.1590  -31.3460 C   0  0  0  0  0  0  0  0  0  0  0  0
   -5.1510   25.3780  -30.8390 C   0  0  0  0  0  0  0  0  0  0  0  0
   -3.8870   25.2850  -30.3940 N   0  0  0  0  0  0  0  0  0  0  0  0
   -3.5430   24.0040  -30.6400 C   0  0  0  0  0  0  0  0  0  0  0  0
   -4.5250   23.2780  -31.2150 N   0  0  0  0  0  0  0  0  0  0  0  0
   -8.6120   20.5350  -31.4610 C   0  0  0  0  0  0  0  0  0  0  0  0
   -8.5240   19.2440  -31.9900 C   0  0  0  0  0  0  0  0  0  0  0  0
   -4.7804   18.4248  -34.8381 H   0  0  0  0  0  0  0  0  0  0  0  0
   -4.8935   16.7465  -35.4683 H   0  0  0  0  0  0  0  0  0  0  0  0
   -6.3444   17.8056  -35.4683 H   0  0  0  0  0  0  0  0  0  0  0  0
   -5.6843   15.9445  -33.5032 H   0  0  0  0  0  0  0  0  0  0  0  0
   -5.1153   17.5258  -32.8083 H   0  0  0  0  0  0  0  0  0  0  0  0
   -7.8732   17.3225  -34.0217 H   0  0  0  0  0  0  0  0  0  0  0  0
   -7.5535   16.7030  -32.3454 H   0  0  0  0  0  0  0  0  0  0  0  0
   -5.2823   19.3228  -33.0827 H   0  0  0  0  0  0  0  0  0  0  0  0
   -5.4438   21.6274  -32.1474 H   0  0  0  0  0  0  0  0  0  0  0  0
   -8.6746   23.0799  -30.9110 H   0  0  0  0  0  0  0  0  0  0  0  0
   -7.1365   22.8313  -29.9835 H   0  0  0  0  0  0  0  0  0  0  0  0
   -6.7766   23.3700  -32.8822 H   0  0  0  0  0  0  0  0  0  0  0  0
   -7.4915   24.7291  -31.9192 H   0  0  0  0  0  0  0  0  0  0  0  0
   -5.7775   26.2815  -30.8035 H   0  0  0  0  0  0  0  0  0  0  0  0
   -2.5540   23.5895  -30.3948 H   0  0  0  0  0  0  0  0  0  0  0  0
   -9.5534   20.8771  -31.0064 H   0  0  0  0  0  0  0  0  0  0  0  0
   -9.3940   18.5726  -31.9421 H   0  0  0  0  0  0  0  0  0  0  0  0
  1  2  1  0
  2  3  1  0
  3  4  1  0
  4  5  2  0
  5  6  1  0
  6  7  2  0
  7  8  1  0
  8  9  1  0
  9 10  1  0
 10 11  2  0
 11 12  1  0
 12 13  1  0
 13 14  2  0
  7 15  1  0
 15 16  2  0
 16  4  1  0
 14 10  1  0
  1 17  1  0
  1 18  1  0
  1 19  1  0
  2 20  1  0
  2 21  1  0
  3 22  1  0
  3 23  1  0
  5 24  1  0
  6 25  1  0
  8 26  1  0
  8 27  1  0
  9 28  1  0
  9 29  1  0
 11 30  1  0
 13 31  1  0
 15 32  1  0
 16 33  1  0
M  CHG  1  12  -1
M  END
>  <UniqueID>  (41) 
41

>  <SMILES>  (41) 
CCCc1ccc(CCc2c[n-]cn2)cc1

>  <Energy>  (41) 
51.08533070931739

>  <Genealogy>  (41) 
CCCc1ccc(CCc2c[n-]cn2)cc1 (protonated)
CCCc1ccc(CCc2c[n-]cn2)cc1 (3D coordinates assigned)
CCCc1ccc(CCc2c[n-]cn2)cc1 (optimized conformer: 51.08533070931739 kcal/mol)

>  <smiles>  (41) 
CCCc1ccc(CCc2c[nH]cn2)cc1

>  <score_type>  (41) 
oracle

>  <origin>  (41) 
adgpu

>  <m_score__min__energy>  (41) 
-8.2699999999999996

>  <m_primary>  (41) 
energy

$$$$
41:0
     RDKit          3D

 46 48  0  0  0  0  0  0  0  0999 V2000
   -6.0700   17.9410  -31.8020 C   0  0  0  0  0  0  0  0  0  0  0  0
   -6.9980   18.3840  -32.8580 N   0  0  0  0  0  0  0  0  0  0  0  0
   -6.4690   19.5440  -33.6040 C   0  0  0  0  0  0  0  0  0  0  0  0
   -6.4710   20.8440  -32.7660 C   0  0  0  0  0  0  0  0  0  0  0  0
   -7.4050   20.7690  -31.6270 N   0  0  0  0  0  0  0  0  0  0  0  0
   -7.7360   22.3650  -31.0020 S   0  0  0  0  0  0  0  0  0  0  0  0
   -8.4220   23.1810  -32.0620 O   0  0  0  0  0  0  0  0  0  0  0  0
   -8.6640   22.2590  -29.8230 O   0  0  0  0  0  0  0  0  0  0  0  0
   -6.2560   23.1920  -30.5060 C   0  0  0  0  0  0  0  0  0  0  0  0
   -5.5320   22.7540  -29.3940 C   0  0  0  0  0  0  0  0  0  0  0  0
   -4.3610   23.4120  -29.0190 C   0  0  0  0  0  0  0  0  0  0  0  0
   -3.9250   24.5240  -29.7610 C   0  0  0  0  0  0  0  0  0  0  0  0
   -2.7460   25.2120  -29.4400 O   0  0  0  0  0  0  0  0  0  0  0  0
   -1.8580   24.8700  -28.4100 C   0  0  0  0  0  0  0  0  0  0  0  0
   -0.8940   23.8870  -28.6540 C   0  0  0  0  0  0  0  0  0  0  0  0
    0.0110   23.5230  -27.6570 C   0  0  0  0  0  0  0  0  0  0  0  0
   -0.0260   24.1520  -26.4100 C   0  0  0  0  0  0  0  0  0  0  0  0
   -0.9660   25.1660  -26.1510 C   0  0  0  0  0  0  0  0  0  0  0  0
   -1.0160   25.8510  -24.8370 C   0  0  0  0  0  0  0  0  0  0  0  0
   -0.3820   25.2980  -23.6800 N   0  0  0  0  0  0  0  0  0  0  0  0
   -1.6180   26.9540  -24.7310 O   0  0  0  0  0  0  0  0  0  0  0  0
   -1.8820   25.5180  -27.1610 C   0  0  0  0  0  0  0  0  0  0  0  0
   -4.6400   24.9210  -30.8470 N   0  0  0  0  0  0  0  0  0  0  0  0
   -5.7820   24.2920  -31.2310 C   0  0  0  0  0  0  0  0  0  0  0  0
   -8.6510   20.0980  -32.0140 C   0  0  0  0  0  0  0  0  0  0  0  0
   -8.3680   18.6200  -32.3420 C   0  0  0  0  0  0  0  0  0  0  0  0
   -6.5097   18.1509  -30.8158 H   0  0  0  0  0  0  0  0  0  0  0  0
   -5.8908   16.8602  -31.9011 H   0  0  0  0  0  0  0  0  0  0  0  0
   -5.1170   18.4813  -31.9011 H   0  0  0  0  0  0  0  0  0  0  0  0
   -5.4355   19.3241  -33.9099 H   0  0  0  0  0  0  0  0  0  0  0  0
   -7.1242   19.7075  -34.4723 H   0  0  0  0  0  0  0  0  0  0  0  0
   -5.4556   21.0193  -32.3810 H   0  0  0  0  0  0  0  0  0  0  0  0
   -6.7983   21.6669  -33.4185 H   0  0  0  0  0  0  0  0  0  0  0  0
   -5.8861   21.8892  -28.8137 H   0  0  0  0  0  0  0  0  0  0  0  0
   -3.7833   23.0640  -28.1500 H   0  0  0  0  0  0  0  0  0  0  0  0
   -0.8491   23.3978  -29.6382 H   0  0  0  0  0  0  0  0  0  0  0  0
    0.7563   22.7381  -27.8532 H   0  0  0  0  0  0  0  0  0  0  0  0
    0.6846   23.8524  -25.6256 H   0  0  0  0  0  0  0  0  0  0  0  0
    0.2560   24.4760  -23.7440 H   0  0  0  0  0  0  0  0  0  0  0  0
   -0.4830   25.7710  -22.7550 H   0  0  0  0  0  0  0  0  0  0  0  0
   -2.6240   26.3077  -26.9717 H   0  0  0  0  0  0  0  0  0  0  0  0
   -6.3348   24.6478  -32.1129 H   0  0  0  0  0  0  0  0  0  0  0  0
   -9.3703   20.1565  -31.1838 H   0  0  0  0  0  0  0  0  0  0  0  0
   -9.0692   20.5934  -32.9026 H   0  0  0  0  0  0  0  0  0  0  0  0
   -8.5023   18.0273  -31.4251 H   0  0  0  0  0  0  0  0  0  0  0  0
   -9.0698   18.3229  -33.1352 H   0  0  0  0  0  0  0  0  0  0  0  0
  1  2  1  0
  2  3  1  0
  3  4  1  0
  4  5  1  0
  5  6  1  0
  6  7  2  0
  6  8  2  0
  6  9  1  0
  9 10  2  0
 10 11  1  0
 11 12  2  0
 12 13  1  0
 13 14  1  0
 14 15  2  0
 15 16  1  0
 16 17  2  0
 17 18  1  0
 18 19  1  0
 19 20  1  0
 19 21  2  0
 18 22  2  0
 12 23  1  0
 23 24  2  0
  5 25  1  0
 25 26  1  0
 26  2  1  0
 24  9  1  0
 22 14  1  0
  1 27  1  0
  1 28  1  0
  1 29  1  0
  3 30  1  0
  3 31  1  0
  4 32  1  0
  4 33  1  0
 10 34  1  0
 11 35  1  0
 15 36  1  0
 16 37  1  0
 17 38  1  0
 20 39  1  0
 20 40  1  0
 22 41  1  0
 24 42  1  0
 25 43  1  0
 25 44  1  0
 26 45  1  0
 26 46  1  0
M  END
>  <UniqueID>  (42) 
42

>  <SMILES>  (42) 
CN1CCN(S(=O)(=O)c2ccc(Oc3cccc(C(N)=O)c3)nc2)CC1

>  <Energy>  (42) 
64.48020022675207

>  <Genealogy>  (42) 
CN1CCN(S(=O)(=O)c2ccc(Oc3cccc(C(N)=O)c3)nc2)CC1 (3D coordinates assigned)
CN1CCN(S(=O)(=O)c2ccc(Oc3cccc(C(N)=O)c3)nc2)CC1 (nonaromatic ring conformer: 64.48020022675207 kcal/mol)

>  <smiles>  (42) 
CN1CCN(S(=O)(=O)c2ccc(Oc3cccc(C(N)=O)c3)nc2)CC1

>  <score_type>  (42) 
oracle

>  <origin>  (42) 
adgpu

>  <m_score__min__energy>  (42) 
-10.050000000000001

>  <m_primary>  (42) 
energy

$$$$
42:0
     RDKit          3D

 48 50  0  0  0  0  0  0  0  0999 V2000
   -3.6850   24.6190  -30.8250 O   0  0  0  0  0  0  0  0  0  0  0  0
   -5.0360   24.7180  -30.1760 S   0  0  0  0  0  0  0  0  0  0  0  0
   -5.6580   26.0330  -30.5610 O   0  0  0  0  0  0  0  0  0  0  0  0
   -4.8550   24.6350  -28.4510 N   0  0  0  0  0  0  0  0  0  0  0  0
   -3.7250   23.7680  -28.1120 C   0  0  0  0  0  0  0  0  0  0  0  0
   -2.6480   24.5800  -27.4500 C   0  0  0  0  0  0  0  0  0  0  0  0
   -2.9140   25.2820  -26.2620 C   0  0  0  0  0  0  0  0  0  0  0  0
   -1.9180   26.0650  -25.6700 C   0  0  0  0  0  0  0  0  0  0  0  0
   -0.6570   26.1620  -26.2640 C   0  0  0  0  0  0  0  0  0  0  0  0
   -0.3910   25.4790  -27.4540 C   0  0  0  0  0  0  0  0  0  0  0  0
   -1.3830   24.6950  -28.0500 C   0  0  0  0  0  0  0  0  0  0  0  0
   -6.0370   23.3790  -30.7310 C   0  0  0  0  0  0  0  0  0  0  0  0
   -5.4810   22.0970  -30.8350 C   0  0  0  0  0  0  0  0  0  0  0  0
   -6.2700   21.0180  -31.2410 C   0  0  0  0  0  0  0  0  0  0  0  0
   -7.6260   21.2120  -31.5440 C   0  0  0  0  0  0  0  0  0  0  0  0
   -8.6460   19.8590  -32.0230 S   0  0  0  0  0  0  0  0  0  0  0  0
   -9.0590   19.1070  -30.7890 O   0  0  0  0  0  0  0  0  0  0  0  0
   -9.8820   20.3620  -32.7200 O   0  0  0  0  0  0  0  0  0  0  0  0
   -7.7500   18.8070  -33.0920 N   0  0  0  0  0  0  0  0  0  0  0  0
   -7.2390   17.6160  -32.3670 C   0  0  0  0  0  0  0  0  0  0  0  0
   -5.7470   17.7190  -32.0190 C   0  0  0  0  0  0  0  0  0  0  0  0
   -4.8920   17.9080  -33.2840 C   0  0  0  0  0  0  0  0  0  0  0  0
   -5.6340   18.6710  -34.3960 C   0  0  0  0  0  0  0  0  0  0  0  0
   -6.7130   19.5850  -33.8070 C   0  0  0  0  0  0  0  0  0  0  0  0
   -8.1830   22.4930  -31.4360 C   0  0  0  0  0  0  0  0  0  0  0  0
   -7.3930   23.5730  -31.0310 C   0  0  0  0  0  0  0  0  0  0  0  0
   -5.7270   24.1970  -28.0730 H   0  0  0  0  0  0  0  0  0  0  0  0
   -4.0627   22.9782  -27.4248 H   0  0  0  0  0  0  0  0  0  0  0  0
   -3.3264   23.3115  -29.0300 H   0  0  0  0  0  0  0  0  0  0  0  0
   -3.9084   25.2154  -25.7965 H   0  0  0  0  0  0  0  0  0  0  0  0
   -2.1276   26.6055  -24.7351 H   0  0  0  0  0  0  0  0  0  0  0  0
    0.1262   26.7758  -25.7951 H   0  0  0  0  0  0  0  0  0  0  0  0
    0.6010   25.5586  -27.9225 H   0  0  0  0  0  0  0  0  0  0  0  0
   -1.1725   24.1666  -28.9915 H   0  0  0  0  0  0  0  0  0  0  0  0
   -4.4189   21.9396  -30.5960 H   0  0  0  0  0  0  0  0  0  0  0  0
   -5.8272   20.0144  -31.3233 H   0  0  0  0  0  0  0  0  0  0  0  0
   -7.8095   17.5026  -31.4334 H   0  0  0  0  0  0  0  0  0  0  0  0
   -7.3623   16.7485  -33.0320 H   0  0  0  0  0  0  0  0  0  0  0  0
   -5.5931   18.5787  -31.3503 H   0  0  0  0  0  0  0  0  0  0  0  0
   -5.4390   16.7846  -31.5270 H   0  0  0  0  0  0  0  0  0  0  0  0
   -3.9862   18.4713  -33.0152 H   0  0  0  0  0  0  0  0  0  0  0  0
   -4.6498   16.9080  -33.6729 H   0  0  0  0  0  0  0  0  0  0  0  0
   -4.9116   19.2821  -34.9570 H   0  0  0  0  0  0  0  0  0  0  0  0
   -6.1177   17.9400  -35.0606 H   0  0  0  0  0  0  0  0  0  0  0  0
   -6.2422   20.2860  -33.1021 H   0  0  0  0  0  0  0  0  0  0  0  0
   -7.1959   20.1270  -34.6335 H   0  0  0  0  0  0  0  0  0  0  0  0
   -9.2462   22.6496  -31.6708 H   0  0  0  0  0  0  0  0  0  0  0  0
   -7.8358   24.5765  -30.9475 H   0  0  0  0  0  0  0  0  0  0  0  0
  1  2  2  0
  2  3  2  0
  2  4  1  0
  4  5  1  0
  5  6  1  0
  6  7  2  0
  7  8  1  0
  8  9  2  0
  9 10  1  0
 10 11  2  0
  2 12  1  0
 12 13  2  0
 13 14  1  0
 14 15  2  0
 15 16  1  0
 16 17  2  0
 16 18  2  0
 16 19  1  0
 19 20  1  0
 20 21  1  0
 21 22  1  0
 22 23  1  0
 23 24  1  0
 15 25  1  0
 25 26  2  0
 11  6  1  0
 26 12  1  0
 24 19  1  0
  4 27  1  0
  5 28  1  0
  5 29  1  0
  7 30  1  0
  8 31  1  0
  9 32  1  0
 10 33  1  0
 11 34  1  0
 13 35  1  0
 14 36  1  0
 20 37  1  0
 20 38  1  0
 21 39  1  0
 21 40  1  0
 22 41  1  0
 22 42  1  0
 23 43  1  0
 23 44  1  0
 24 45  1  0
 24 46  1  0
 25 47  1  0
 26 48  1  0
M  END
>  <UniqueID>  (43) 
43

>  <SMILES>  (43) 
O=S(=O)(NCc1ccccc1)c1ccc(S(=O)(=O)N2CCCCC2)cc1

>  <Energy>  (43) 
51.11962486075848

>  <Genealogy>  (43) 
O=S(=O)(NCc1ccccc1)c1ccc(S(=O)(=O)N2CCCCC2)cc1 (3D coordinates assigned)
O=S(=O)(NCc1ccccc1)c1ccc(S(=O)(=O)N2CCCCC2)cc1 (nonaromatic ring conformer: 51.11962486075848 kcal/mol)

>  <smiles>  (43) 
O=S(=O)(NCc1ccccc1)c1ccc(S(=O)(=O)N2CCCCC2)cc1

>  <score_type>  (43) 
oracle

>  <origin>  (43) 
adgpu

>  <m_score__min__energy>  (43) 
-10.77

>  <m_primary>  (43) 
energy

$$$$
43:0
     RDKit          3D

 76 81  0  0  0  0  0  0  0  0999 V2000
   -9.4020   19.7820  -32.1050 O   0  0  0  0  0  0  0  0  0  0  0  0
   -8.1950   20.0810  -32.3030 C   0  0  0  0  0  0  0  0  0  0  0  0
   -7.5770   21.3900  -32.1510 C   0  0  0  0  0  0  0  0  0  0  0  0
   -8.1660   22.4480  -31.8030 O   0  0  0  0  0  0  0  0  0  0  0  0
   -6.1880   21.3090  -32.4770 N   0  0  0  0  0  0  0  0  0  0  0  0
   -5.2510   22.4250  -32.5780 C   0  0  0  0  0  0  0  0  0  0  0  0
   -5.2850   23.2440  -31.3190 C   0  0  0  0  0  0  0  0  0  0  0  0
   -5.7880   24.5550  -31.3380 C   0  0  0  0  0  0  0  0  0  0  0  0
   -5.8110   25.3180  -30.1670 C   0  0  0  0  0  0  0  0  0  0  0  0
   -5.3250   24.7800  -28.9720 C   0  0  0  0  0  0  0  0  0  0  0  0
   -4.8220   23.4770  -28.9440 C   0  0  0  0  0  0  0  0  0  0  0  0
   -4.7920   22.7130  -30.1150 C   0  0  0  0  0  0  0  0  0  0  0  0
   -5.9630   19.9350  -32.8180 C   0  0  0  0  0  0  0  0  0  0  0  0
   -4.7590   19.3410  -33.1990 C   0  0  0  0  0  0  0  0  0  0  0  0
   -4.7600   17.9740  -33.5410 C   0  0  0  0  0  0  0  0  0  0  0  0
   -3.2740   17.1630  -34.0410 S   0  0  0  0  0  0  0  0  0  0  0  0
   -3.5720   16.1760  -35.1360 O   0  0  0  0  0  0  0  0  0  0  0  0
   -2.7320   16.4210  -32.8520 O   0  0  0  0  0  0  0  0  0  0  0  0
   -2.0580   18.2720  -34.6020 N   0  0  0  0  0  0  0  0  0  0  0  0
   -1.2940   19.1720  -33.7740 C   0  0  0  0  0  0  0  0  0  0  0  0
   -1.2790   18.9500  -32.3860 C   0  0  0  0  0  0  0  0  0  0  0  0
   -0.5920   19.8180  -31.5270 C   0  0  0  0  0  0  0  0  0  0  0  0
   -0.5800   19.5740  -30.0760 C   0  0  0  0  0  0  0  0  0  0  0  0
   -0.1720   18.4570  -29.6620 O   0  0  0  0  0  0  0  0  0  0  0  0
   -0.9750   20.5890  -29.1310 N   0  0  0  0  0  0  0  0  0  0  0  0
   -1.8640   21.6960  -29.5050 C   0  0  0  0  0  0  0  0  0  0  0  0
   -1.3220   23.0350  -28.9830 C   0  0  0  0  0  0  0  0  0  0  0  0
   -0.5790   22.9650  -27.6150 C   0  0  0  0  0  0  0  0  0  0  0  0
   -0.8670   24.1920  -26.8110 N   0  0  0  0  0  0  0  0  0  0  0  0
   -0.6030   23.9640  -25.3690 C   0  0  0  0  0  0  0  0  0  0  0  0
   -0.5770   25.3020  -24.6100 C   0  0  0  0  0  0  0  0  0  0  0  0
   -1.5170   26.3450  -25.2330 C   0  0  0  0  0  0  0  0  0  0  0  0
   -2.7170   25.6650  -25.8910 C   0  0  0  0  0  0  0  0  0  0  0  0
   -2.2630   24.6820  -26.9930 C   0  0  0  0  0  0  0  0  0  0  0  0
   -0.9730   21.6570  -26.8770 C   0  0  0  0  0  0  0  0  0  0  0  0
   -0.5970   20.4290  -27.7190 C   0  0  0  0  0  0  0  0  0  0  0  0
    0.1060   20.9070  -32.0570 C   0  0  0  0  0  0  0  0  0  0  0  0
    0.1250   21.1210  -33.4360 C   0  0  0  0  0  0  0  0  0  0  0  0
   -0.5550   20.2570  -34.2990 C   0  0  0  0  0  0  0  0  0  0  0  0
   -0.4650   20.4800  -35.6680 O   0  0  0  0  0  0  0  0  0  0  0  0
   -5.9590   17.2280  -33.4580 C   0  0  0  0  0  0  0  0  0  0  0  0
   -7.1570   17.8370  -33.0500 C   0  0  0  0  0  0  0  0  0  0  0  0
   -7.1270   19.1920  -32.7350 C   0  0  0  0  0  0  0  0  0  0  0  0
   -4.2343   22.0336  -32.7300 H   0  0  0  0  0  0  0  0  0  0  0  0
   -5.5388   23.0605  -33.4285 H   0  0  0  0  0  0  0  0  0  0  0  0
   -6.1655   24.9833  -32.2783 H   0  0  0  0  0  0  0  0  0  0  0  0
   -6.2117   26.3422  -30.1860 H   0  0  0  0  0  0  0  0  0  0  0  0
   -5.3386   25.3834  -28.0524 H   0  0  0  0  0  0  0  0  0  0  0  0
   -4.4494   23.0517  -28.0005 H   0  0  0  0  0  0  0  0  0  0  0  0
   -4.3811   21.6929  -30.0935 H   0  0  0  0  0  0  0  0  0  0  0  0
   -3.8290   19.9275  -33.2316 H   0  0  0  0  0  0  0  0  0  0  0  0
   -1.7590   18.1500  -35.5960 H   0  0  0  0  0  0  0  0  0  0  0  0
   -1.8134   18.0838  -31.9689 H   0  0  0  0  0  0  0  0  0  0  0  0
   -1.9408   21.7415  -30.6014 H   0  0  0  0  0  0  0  0  0  0  0  0
   -2.8531   21.5189  -29.0574 H   0  0  0  0  0  0  0  0  0  0  0  0
   -0.6201   23.4323  -29.7310 H   0  0  0  0  0  0  0  0  0  0  0  0
   -2.2010   23.6758  -28.8192 H   0  0  0  0  0  0  0  0  0  0  0  0
    0.5090   22.9376  -27.7744 H   0  0  0  0  0  0  0  0  0  0  0  0
   -1.3961   23.3261  -24.9518 H   0  0  0  0  0  0  0  0  0  0  0  0
    0.3749   23.4724  -25.2588 H   0  0  0  0  0  0  0  0  0  0  0  0
   -0.8861   25.1243  -23.5694 H   0  0  0  0  0  0  0  0  0  0  0  0
    0.4476   25.6987  -24.6630 H   0  0  0  0  0  0  0  0  0  0  0  0
   -1.8741   27.0253  -24.4458 H   0  0  0  0  0  0  0  0  0  0  0  0
   -0.9638   26.9066  -26.0002 H   0  0  0  0  0  0  0  0  0  0  0  0
   -3.2807   25.1115  -25.1256 H   0  0  0  0  0  0  0  0  0  0  0  0
   -3.3485   26.4391  -26.3514 H   0  0  0  0  0  0  0  0  0  0  0  0
   -2.9402   23.8152  -26.9876 H   0  0  0  0  0  0  0  0  0  0  0  0
   -2.2936   25.2278  -27.9476 H   0  0  0  0  0  0  0  0  0  0  0  0
   -0.4433   21.6113  -25.9140 H   0  0  0  0  0  0  0  0  0  0  0  0
   -2.0606   21.6556  -26.7126 H   0  0  0  0  0  0  0  0  0  0  0  0
    0.4907   20.2769  -27.6582 H   0  0  0  0  0  0  0  0  0  0  0  0
   -1.1444   19.5632  -27.3181 H   0  0  0  0  0  0  0  0  0  0  0  0
    0.6408   21.5959  -31.3866 H   0  0  0  0  0  0  0  0  0  0  0  0
    0.6800   21.9771  -33.8473 H   0  0  0  0  0  0  0  0  0  0  0  0
   -5.9530   16.1587  -33.7160 H   0  0  0  0  0  0  0  0  0  0  0  0
   -8.0911   17.2601  -32.9815 H   0  0  0  0  0  0  0  0  0  0  0  0
  1  2  2  0
  2  3  1  0
  3  4  2  0
  3  5  1  0
  5  6  1  0
  6  7  1  0
  7  8  2  0
  8  9  1  0
  9 10  2  0
 10 11  1  0
 11 12  2  0
  5 13  1  0
 13 14  2  0
 14 15  1  0
 15 16  1  0
 16 17  2  0
 16 18  2  0
 16 19  1  0
 19 20  1  0
 20 21  2  0
 21 22  1  0
 22 23  1  0
 23 24  2  0
 23 25  1  0
 25 26  1  0
 26 27  1  0
 27 28  1  0
 28 29  1  0
 29 30  1  0
 30 31  1  0
 31 32  1  0
 32 33  1  0
 33 34  1  0
 28 35  1  0
 35 36  1  0
 22 37  2  0
 37 38  1  0
 38 39  2  0
 39 40  1  0
 15 41  2  0
 41 42  1  0
 42 43  2  0
 43  2  1  0
 12  7  1  0
 43 13  1  0
 39 20  1  0
 36 25  1  0
 34 29  1  0
  6 44  1  0
  6 45  1  0
  8 46  1  0
  9 47  1  0
 10 48  1  0
 11 49  1  0
 12 50  1  0
 14 51  1  0
 19 52  1  0
 21 53  1  0
 26 54  1  0
 26 55  1  0
 27 56  1  0
 27 57  1  0
 28 58  1  0
 30 59  1  0
 30 60  1  0
 31 61  1  0
 31 62  1  0
 32 63  1  0
 32 64  1  0
 33 65  1  0
 33 66  1  0
 34 67  1  0
 34 68  1  0
 35 69  1  0
 35 70  1  0
 36 71  1  0
 36 72  1  0
 37 73  1  0
 38 74  1  0
 41 75  1  0
 42 76  1  0
M  CHG  1  40  -1
M  END
>  <UniqueID>  (44) 
44

>  <SMILES>  (44) 
O=C1C(=O)N(Cc2ccccc2)c2cc(S(=O)(=O)Nc3cc(C(=O)N4CCC(N5CCCCC5)CC4)ccc3[O-])ccc21

>  <Energy>  (44) 
133.87391750499913

>  <Genealogy>  (44) 
O=C1C(=O)N(Cc2ccccc2)c2cc(S(=O)(=O)Nc3cc(C(=O)N4CCC(N5CCCCC5)CC4)ccc3[O-])ccc21 (protonated)
O=C1C(=O)N(Cc2ccccc2)c2cc(S(=O)(=O)Nc3cc(C(=O)N4CCC(N5CCCCC5)CC4)ccc3[O-])ccc21 (3D coordinates assigned)
O=C1C(=O)N(Cc2ccccc2)c2cc(S(=O)(=O)Nc3cc(C(=O)N4CCC(N5CCCCC5)CC4)ccc3[O-])ccc21 (nonaromatic ring conformer: 133.87391750499913 kcal/mol)

>  <smiles>  (44) 
O=C1C(=O)N(Cc2ccccc2)c2cc(S(=O)(=O)Nc3cc(C(=O)N4CCC(N5CCCCC5)CC4)ccc3O)ccc21

>  <score_type>  (44) 
oracle

>  <origin>  (44) 
adgpu

>  <m_score__min__energy>  (44) 
-14.949999999999999

>  <m_primary>  (44) 
energy

$$$$
44:0
     RDKit          3D

 37 38  0  0  0  0  0  0  0  0999 V2000
   -1.0930   26.2320  -24.5790 C   0  0  0  0  0  0  0  0  0  0  0  0
   -1.7000   26.4740  -25.9550 C   0  0  0  0  0  0  0  0  0  0  0  0
   -1.5010   25.3050  -26.8110 N   0  0  0  0  0  0  0  0  0  0  0  0
   -1.2680   24.0420  -26.3910 C   0  0  0  0  0  0  0  0  0  0  0  0
   -1.0680   23.2150  -27.4840 C   0  0  0  0  0  0  0  0  0  0  0  0
   -0.7560   21.7790  -27.4350 C   0  0  0  0  0  0  0  0  0  0  0  0
   -0.6280   21.2190  -26.3160 O   0  0  0  0  0  0  0  0  0  0  0  0
   -0.6230   20.9940  -28.6260 N   0  0  0  0  0  0  0  0  0  0  0  0
   -1.6780   20.1490  -29.1700 C   0  0  0  0  0  0  0  0  0  0  0  0
   -2.3700   20.8760  -30.2850 C   0  0  0  0  0  0  0  0  0  0  0  0
   -2.1470   20.5030  -31.6210 C   0  0  0  0  0  0  0  0  0  0  0  0
   -2.7600   21.2070  -32.6600 C   0  0  0  0  0  0  0  0  0  0  0  0
   -3.5930   22.2930  -32.3760 C   0  0  0  0  0  0  0  0  0  0  0  0
   -3.8170   22.6800  -31.0470 C   0  0  0  0  0  0  0  0  0  0  0  0
   -4.8450   24.0640  -30.6860 S   0  0  0  0  0  0  0  0  0  0  0  0
   -3.9100   25.5150  -30.7790 N   0  0  0  0  0  0  0  0  0  0  0  0
   -5.4200   23.9230  -29.3050 O   0  0  0  0  0  0  0  0  0  0  0  0
   -5.9740   24.1340  -31.6750 O   0  0  0  0  0  0  0  0  0  0  0  0
   -3.1950   21.9770  -30.0060 C   0  0  0  0  0  0  0  0  0  0  0  0
   -1.1380   24.0260  -28.6050 C   0  0  0  0  0  0  0  0  0  0  0  0
   -0.9140   23.6610  -29.9300 O   0  0  0  0  0  0  0  0  0  0  0  0
   -1.4100   25.2960  -28.1560 C   0  0  0  0  0  0  0  0  0  0  0  0
   -1.5460   26.4230  -28.9590 O   0  0  0  0  0  0  0  0  0  0  0  0
   -1.8171   26.5207  -23.8029 H   0  0  0  0  0  0  0  0  0  0  0  0
   -0.8444   25.1660  -24.4702 H   0  0  0  0  0  0  0  0  0  0  0  0
   -0.1792   26.8346  -24.4702 H   0  0  0  0  0  0  0  0  0  0  0  0
   -2.7778   26.6656  -25.8474 H   0  0  0  0  0  0  0  0  0  0  0  0
   -1.2067   27.3426  -26.4157 H   0  0  0  0  0  0  0  0  0  0  0  0
   -1.2412   23.7193  -25.3397 H   0  0  0  0  0  0  0  0  0  0  0  0
   -1.2399   19.2165  -29.5555 H   0  0  0  0  0  0  0  0  0  0  0  0
   -2.4041   19.9108  -28.3788 H   0  0  0  0  0  0  0  0  0  0  0  0
   -1.4871   19.6532  -31.8497 H   0  0  0  0  0  0  0  0  0  0  0  0
   -2.5869   20.9062  -33.7038 H   0  0  0  0  0  0  0  0  0  0  0  0
   -4.0738   22.8452  -33.1969 H   0  0  0  0  0  0  0  0  0  0  0  0
   -3.5130   25.6830  -29.8280 H   0  0  0  0  0  0  0  0  0  0  0  0
   -3.3544   22.2901  -28.9636 H   0  0  0  0  0  0  0  0  0  0  0  0
   -0.7030   22.7040  -30.1840 H   0  0  0  0  0  0  0  0  0  0  0  0
  1  2  1  0
  2  3  1  0
  3  4  1  0
  4  5  2  0
  5  6  1  0
  6  7  2  0
  6  8  1  0
  8  9  1  0
  9 10  1  0
 10 11  2  0
 11 12  1  0
 12 13  2  0
 13 14  1  0
 14 15  1  0
 15 16  1  0
 15 17  2  0
 15 18  2  0
 14 19  2  0
  5 20  1  0
 20 21  1  0
 20 22  2  0
 22 23  1  0
 22  3  1  0
 19 10  1  0
  1 24  1  0
  1 25  1  0
  1 26  1  0
  2 27  1  0
  2 28  1  0
  4 29  1  0
  9 30  1  0
  9 31  1  0
 11 32  1  0
 12 33  1  0
 13 34  1  0
 16 35  1  0
 19 36  1  0
 21 37  1  0
M  CHG  3   8  -1  16  -1  23  -1
M  END
>  <UniqueID>  (45) 
45

>  <SMILES>  (45) 
CCn1cc(C(=O)[N-]Cc2cccc(S([NH-])(=O)=O)c2)c(O)c1[O-]

>  <Energy>  (45) 
64.93711024030058

>  <Genealogy>  (45) 
CCn1cc(C(=O)[N-]Cc2cccc(S([NH-])(=O)=O)c2)c(O)c1[O-] (protonated)
CCn1cc(C(=O)[N-]Cc2cccc(S([NH-])(=O)=O)c2)c(O)c1[O-] (3D coordinates assigned)
CCn1cc(C(=O)[N-]Cc2cccc(S([NH-])(=O)=O)c2)c(O)c1[O-] (optimized conformer: 64.93711024030058 kcal/mol)

>  <smiles>  (45) 
CCn1cc(C(=O)NCc2cccc(S(N)(=O)=O)c2)c(O)c1O

>  <score_type>  (45) 
oracle

>  <origin>  (45) 
adgpu

>  <m_score__min__energy>  (45) 
-11.369999999999999

>  <m_primary>  (45) 
energy

$$$$
45:0
     RDKit          3D

 37 39  0  0  0  0  0  0  0  0999 V2000
   -1.5570   25.8230  -28.9640 O   0  0  0  0  0  0  0  0  0  0  0  0
   -2.3750   24.8970  -29.2050 C   0  0  0  0  0  0  0  0  0  0  0  0
   -3.4840   25.1630  -30.0730 N   0  0  0  0  0  0  0  0  0  0  0  0
   -4.4900   24.2210  -30.4720 C   0  0  0  0  0  0  0  0  0  0  0  0
   -4.1060   23.0790  -31.1820 C   0  0  0  0  0  0  0  0  0  0  0  0
   -5.0630   22.1530  -31.6060 C   0  0  0  0  0  0  0  0  0  0  0  0
   -6.4280   22.3650  -31.3430 C   0  0  0  0  0  0  0  0  0  0  0  0
   -7.4180   21.4080  -31.7790 N   0  0  0  0  0  0  0  0  0  0  0  0
   -8.7990   21.4870  -31.2720 C   0  0  0  0  0  0  0  0  0  0  0  0
   -9.7830   20.8960  -32.2850 C   0  0  0  0  0  0  0  0  0  0  0  0
   -9.4370   19.4430  -32.6580 C   0  0  0  0  0  0  0  0  0  0  0  0
   -7.9370   19.1140  -32.5380 C   0  0  0  0  0  0  0  0  0  0  0  0
   -7.0530   20.3490  -32.7360 C   0  0  0  0  0  0  0  0  0  0  0  0
   -6.8130   23.5290  -30.6530 C   0  0  0  0  0  0  0  0  0  0  0  0
   -5.8530   24.4530  -30.2290 C   0  0  0  0  0  0  0  0  0  0  0  0
   -2.1300   23.5530  -28.6520 C   0  0  0  0  0  0  0  0  0  0  0  0
   -2.9800   22.8580  -27.8130 C   0  0  0  0  0  0  0  0  0  0  0  0
   -2.3440   21.6650  -27.5440 C   0  0  0  0  0  0  0  0  0  0  0  0
   -1.1470   21.7060  -28.2290 C   0  0  0  0  0  0  0  0  0  0  0  0
   -1.0480   22.8440  -28.8770 O   0  0  0  0  0  0  0  0  0  0  0  0
   -3.0431   22.9084  -31.4083 H   0  0  0  0  0  0  0  0  0  0  0  0
   -4.7459   21.2510  -32.1499 H   0  0  0  0  0  0  0  0  0  0  0  0
   -8.8701   20.9246  -30.3293 H   0  0  0  0  0  0  0  0  0  0  0  0
   -9.0546   22.5440  -31.1065 H   0  0  0  0  0  0  0  0  0  0  0  0
  -10.7935   20.9185  -31.8509 H   0  0  0  0  0  0  0  0  0  0  0  0
   -9.7254   21.5011  -33.2018 H   0  0  0  0  0  0  0  0  0  0  0  0
   -9.9947   18.7705  -31.9896 H   0  0  0  0  0  0  0  0  0  0  0  0
   -9.7126   19.3076  -33.7143 H   0  0  0  0  0  0  0  0  0  0  0  0
   -7.7450   18.6983  -31.5378 H   0  0  0  0  0  0  0  0  0  0  0  0
   -7.6869   18.3911  -33.3285 H   0  0  0  0  0  0  0  0  0  0  0  0
   -6.0007   20.0688  -32.5808 H   0  0  0  0  0  0  0  0  0  0  0  0
   -7.1993   20.7292  -33.7578 H   0  0  0  0  0  0  0  0  0  0  0  0
   -7.8774   23.7136  -30.4455 H   0  0  0  0  0  0  0  0  0  0  0  0
   -6.1674   25.3662  -29.7024 H   0  0  0  0  0  0  0  0  0  0  0  0
   -3.9600   23.1880  -27.4379 H   0  0  0  0  0  0  0  0  0  0  0  0
   -2.7157   20.8457  -26.9110 H   0  0  0  0  0  0  0  0  0  0  0  0
   -0.3908   20.9072  -28.2319 H   0  0  0  0  0  0  0  0  0  0  0  0
  1  2  2  0
  2  3  1  0
  3  4  1  0
  4  5  2  0
  5  6  1  0
  6  7  2  0
  7  8  1  0
  8  9  1  0
  9 10  1  0
 10 11  1  0
 11 12  1  0
 12 13  1  0
  7 14  1  0
 14 15  2  0
  2 16  1  0
 16 17  2  0
 17 18  1  0
 18 19  2  0
 19 20  1  0
 15  4  1  0
 20 16  1  0
 13  8  1  0
  5 21  1  0
  6 22  1  0
  9 23  1  0
  9 24  1  0
 10 25  1  0
 10 26  1  0
 11 27  1  0
 11 28  1  0
 12 29  1  0
 12 30  1  0
 13 31  1  0
 13 32  1  0
 14 33  1  0
 15 34  1  0
 17 35  1  0
 18 36  1  0
 19 37  1  0
M  CHG  1   3  -1
M  END
>  <UniqueID>  (46) 
46

>  <SMILES>  (46) 
O=C([N-]c1ccc(N2CCCCC2)cc1)c1ccco1

>  <Energy>  (46) 
72.37556005998178

>  <Genealogy>  (46) 
O=C([N-]c1ccc(N2CCCCC2)cc1)c1ccco1 (protonated)
O=C([N-]c1ccc(N2CCCCC2)cc1)c1ccco1 (3D coordinates assigned)
O=C([N-]c1ccc(N2CCCCC2)cc1)c1ccco1 (nonaromatic ring conformer: 72.37556005998178 kcal/mol)

>  <smiles>  (46) 
O=C(Nc1ccc(N2CCCCC2)cc1)c1ccco1

>  <score_type>  (46) 
oracle

>  <origin>  (46) 
adgpu

>  <m_score__min__energy>  (46) 
-9.1699999999999999

>  <m_primary>  (46) 
energy

$$$$
