0:0
     RDKit          3D

 71 75  0  0  1  0  0  0  0  0999 V2000
   -4.9020   25.1910  -30.3830 C   0  0  0  0  0  0  0  0  0  0  0  0
   -3.5040   25.0860  -30.1730 O   0  0  0  0  0  0  0  0  0  0  0  0
   -2.9830   24.5370  -28.9930 C   0  0  0  0  0  0  0  0  0  0  0  0
   -2.1680   25.3090  -28.1970 C   0  0  0  0  0  0  0  0  0  0  0  0
   -1.6180   24.8330  -27.0170 C   0  0  0  0  0  0  0  0  0  0  0  0
   -0.7760   25.6420  -26.2020 N   0  0  0  0  0  0  0  0  0  0  0  0
    0.1330   26.5340  -26.8520 C   0  0  0  0  0  0  0  0  0  0  0  0
    1.0420   27.3060  -25.9860 C   0  0  0  0  0  0  0  0  0  0  0  0
    1.0650   26.9760  -24.6160 N   0  0  0  0  0  0  0  0  0  0  0  0
    1.9930   27.6410  -23.7970 C   0  0  0  0  0  0  0  0  0  0  0  0
    1.3750   28.2360  -22.5040 C   0  0  0  0  0  0  0  0  0  0  0  0
    1.8880   29.1340  -23.5880 C   0  0  0  0  0  0  0  0  0  0  0  0
   -0.1510   26.5630  -24.0190 C   0  0  0  0  0  0  0  0  0  0  0  0
   -0.8960   25.5080  -24.7620 C   0  0  0  0  0  0  0  0  0  0  0  0
   -1.9370   23.5310  -26.6810 C   0  0  0  0  0  0  0  0  0  0  0  0
   -2.7510   22.7310  -27.4560 C   0  0  0  0  0  0  0  0  0  0  0  0
   -3.2850   23.2240  -28.6240 C   0  0  0  0  0  0  0  0  0  0  0  0
   -4.1250   22.5020  -29.4920 N   0  0  0  0  0  0  0  0  0  0  0  0
   -3.6120   21.9350  -30.5310 C   0  0  0  0  0  0  0  0  0  0  0  0
   -2.2950   22.0000  -30.8290 N   0  0  0  0  0  0  0  0  0  0  0  0
   -1.8150   21.3770  -31.9460 C   0  0  0  0  0  0  0  0  0  0  0  0
   -2.6790   20.6700  -32.7840 C   0  0  0  0  0  0  0  0  0  0  0  0
   -2.1130   19.8600  -34.2280 Cl  0  0  0  0  0  0  0  0  0  0  0  0
   -4.0100   20.6350  -32.4350 C   0  0  0  0  0  0  0  0  0  0  0  0
   -4.9060   20.0020  -33.1430 N   0  0  0  0  0  0  0  0  0  0  0  0
   -6.2700   19.9800  -32.7660 C   0  0  0  0  0  0  0  0  0  0  0  0
   -6.9060   21.2220  -32.6920 C   0  0  0  0  0  0  0  0  0  0  0  0
   -8.2240   21.3130  -32.3030 C   0  0  0  0  0  0  0  0  0  0  0  0
   -8.8750   20.1380  -31.9940 C   0  0  0  0  0  0  0  0  0  0  0  0
   -8.2410   18.9240  -32.0700 C   0  0  0  0  0  0  0  0  0  0  0  0
   -6.8990   18.8030  -32.4640 C   0  0  0  0  0  0  0  0  0  0  0  0
   -6.2330   17.2240  -32.5570 S   0  0  0  0  0  0  0  0  0  0  0  0
   -6.0880   16.6930  -31.1340 O   0  0  0  0  0  0  0  0  0  0  0  0
   -7.2260   16.2960  -33.2440 O   0  0  0  0  0  0  0  0  0  0  0  0
   -4.7100   17.0670  -33.4170 C   0  0  0  0  0  0  0  0  0  0  0  0
   -4.8830   17.3640  -34.8780 C   0  0  0  0  0  0  0  0  0  0  0  0
   -4.1080   15.7260  -33.1550 C   0  0  0  0  0  0  0  0  0  0  0  0
   -4.4830   21.2540  -31.3280 N   0  0  0  0  0  0  0  0  0  0  0  0
   -5.4168   25.2297  -29.4117 H   0  0  0  0  0  0  0  0  0  0  0  0
   -5.1197   26.1080  -30.9501 H   0  0  0  0  0  0  0  0  0  0  0  0
   -5.2543   24.3168  -30.9501 H   0  0  0  0  0  0  0  0  0  0  0  0
   -1.9451   26.3403  -28.5081 H   0  0  0  0  0  0  0  0  0  0  0  0
    0.7533   25.9364  -27.5362 H   0  0  0  0  0  0  0  0  0  0  0  0
   -0.5033   27.2853  -27.3427 H   0  0  0  0  0  0  0  0  0  0  0  0
    2.0621   27.1723  -26.3752 H   0  0  0  0  0  0  0  0  0  0  0  0
    0.6589   28.3365  -26.0219 H   0  0  0  0  0  0  0  0  0  0  0  0
    2.8240   26.9795  -24.0833 H   0  0  0  0  0  0  0  0  0  0  0  0
    0.2934   28.1541  -22.3212 H   0  0  0  0  0  0  0  0  0  0  0  0
    1.5631   28.1263  -21.4258 H   0  0  0  0  0  0  0  0  0  0  0  0
    1.1783   29.7193  -24.1911 H   0  0  0  0  0  0  0  0  0  0  0  0
    2.6098   29.9636  -23.6171 H   0  0  0  0  0  0  0  0  0  0  0  0
    0.0771   26.1756  -23.0151 H   0  0  0  0  0  0  0  0  0  0  0  0
   -0.8032   27.4487  -24.0103 H   0  0  0  0  0  0  0  0  0  0  0  0
   -0.5009   24.5248  -24.4666 H   0  0  0  0  0  0  0  0  0  0  0  0
   -1.9609   25.6136  -24.5075 H   0  0  0  0  0  0  0  0  0  0  0  0
   -1.5224   23.1129  -25.7519 H   0  0  0  0  0  0  0  0  0  0  0  0
   -2.9726   21.7008  -27.1406 H   0  0  0  0  0  0  0  0  0  0  0  0
   -1.6640   22.5330  -30.1880 H   0  0  0  0  0  0  0  0  0  0  0  0
   -0.7430   21.4327  -32.1861 H   0  0  0  0  0  0  0  0  0  0  0  0
   -6.3488   22.1355  -32.9468 H   0  0  0  0  0  0  0  0  0  0  0  0
   -8.7366   22.2843  -32.2414 H   0  0  0  0  0  0  0  0  0  0  0  0
   -9.9283   20.1747  -31.6789 H   0  0  0  0  0  0  0  0  0  0  0  0
   -8.8034   18.0141  -31.8134 H   0  0  0  0  0  0  0  0  0  0  0  0
   -3.9992   17.8165  -33.0388 H   0  0  0  0  0  0  0  0  0  0  0  0
   -5.4334   18.3089  -34.9974 H   0  0  0  0  0  0  0  0  0  0  0  0
   -3.8951   17.4525  -35.3537 H   0  0  0  0  0  0  0  0  0  0  0  0
   -5.4473   16.5483  -35.3537 H   0  0  0  0  0  0  0  0  0  0  0  0
   -4.0347   15.5627  -32.0697 H   0  0  0  0  0  0  0  0  0  0  0  0
   -4.7423   14.9458  -33.6012 H   0  0  0  0  0  0  0  0  0  0  0  0
   -3.1035   15.6815  -33.6012 H   0  0  0  0  0  0  0  0  0  0  0  0
   -5.5120   21.2180  -31.0720 H   0  0  0  0  0  0  0  0  0  0  0  0
  1  2  1  0
  2  3  1  0
  3  4  2  0
  4  5  1  0
  5  6  1  0
  6  7  1  0
  7  8  1  0
  8  9  1  0
  9 10  1  0
 10 11  1  0
 11 12  1  0
  9 13  1  0
 13 14  1  0
  5 15  2  0
 15 16  1  0
 16 17  2  0
 17 18  1  0
 18 19  2  0
 19 20  1  0
 20 21  1  0
 21 22  2  0
 22 23  1  0
 22 24  1  0
 24 25  2  0
 25 26  1  0
 26 27  2  0
 27 28  1  0
 28 29  2  0
 29 30  1  0
 30 31  2  0
 31 32  1  0
 32 33  2  0
 32 34  2  0
 32 35  1  0
 35 36  1  0
 35 37  1  0
 24 38  1  0
 17  3  1  0
 38 19  1  0
 14  6  1  0
 31 26  1  0
 12 10  1  0
  1 39  1  0
  1 40  1  0
  1 41  1  0
  4 42  1  0
  7 43  1  0
  7 44  1  0
  8 45  1  0
  8 46  1  0
 10 47  1  0
 11 48  1  0
 11 49  1  0
 12 50  1  0
 12 51  1  0
 13 52  1  0
 13 53  1  0
 14 54  1  0
 14 55  1  0
 15 56  1  0
 16 57  1  0
 20 58  1  0
 21 59  1  0
 27 60  1  0
 28 61  1  0
 29 62  1  0
 30 63  1  0
 35 64  1  0
 36 65  1  0
 36 66  1  0
 36 67  1  0
 37 68  1  0
 37 69  1  0
 37 70  1  0
 38 71  1  0
M  END
>  <smiles>  (1) 
COc1cc(N2CCN(C3CC3)CC2)ccc1N=c1[nH]cc(Cl)c(=Nc2ccccc2S(=O)(=O)C(C)C)[nH]1

>  <score_type>  (1) 
oracle

>  <origin>  (1) 
adgpu

>  <m_score__min__energy>  (1) 
-10.210000000000001

>  <m_primary>  (1) 
energy

$$$$
1:0
     RDKit          3D

 50 53  0  0  0  0  0  0  0  0999 V2000
   -3.8730   25.4060  -30.5140 N   0  0  0  0  0  0  0  0  0  0  0  0
   -3.7660   23.7030  -30.2310 S   0  0  0  0  0  0  0  0  0  0  0  0
   -3.7170   23.4610  -28.7490 O   0  0  0  0  0  0  0  0  0  0  0  0
   -2.5090   23.1630  -30.8540 O   0  0  0  0  0  0  0  0  0  0  0  0
   -5.1710   22.8980  -30.9420 C   0  0  0  0  0  0  0  0  0  0  0  0
   -4.9930   21.7060  -31.6640 C   0  0  0  0  0  0  0  0  0  0  0  0
   -6.0920   21.0520  -32.2400 C   0  0  0  0  0  0  0  0  0  0  0  0
   -5.8720   19.5550  -33.1430 S   0  0  0  0  0  0  0  0  0  0  0  0
   -6.4490   19.6840  -34.5260 O   0  0  0  0  0  0  0  0  0  0  0  0
   -6.5950   18.4510  -32.4220 O   0  0  0  0  0  0  0  0  0  0  0  0
   -4.1540   19.1860  -33.2660 C   0  0  0  0  0  0  0  0  0  0  0  0
   -3.6920   17.8760  -33.0870 C   0  0  0  0  0  0  0  0  0  0  0  0
   -2.3290   17.5920  -33.1820 C   0  0  0  0  0  0  0  0  0  0  0  0
   -1.4040   18.6170  -33.4530 C   0  0  0  0  0  0  0  0  0  0  0  0
    0.0080   18.3590  -33.5270 N   0  0  0  0  0  0  0  0  0  0  0  0
    1.0620   18.4410  -32.1520 S   0  0  0  0  0  0  0  0  0  0  0  0
    2.2930   19.2250  -32.5110 O   0  0  0  0  0  0  0  0  0  0  0  0
    1.4640   17.0480  -31.7550 O   0  0  0  0  0  0  0  0  0  0  0  0
    0.2370   19.2570  -30.8280 C   0  0  0  0  0  0  0  0  0  0  0  0
   -0.0380   20.6320  -30.8920 C   0  0  0  0  0  0  0  0  0  0  0  0
   -0.6470   21.2790  -29.8110 C   0  0  0  0  0  0  0  0  0  0  0  0
   -0.9810   20.5550  -28.6640 C   0  0  0  0  0  0  0  0  0  0  0  0
   -0.7420   19.1750  -28.6100 C   0  0  0  0  0  0  0  0  0  0  0  0
   -0.1230   18.5290  -29.6830 C   0  0  0  0  0  0  0  0  0  0  0  0
   -1.1260   18.4620  -27.4690 O   0  0  0  0  0  0  0  0  0  0  0  0
   -1.9830   19.0470  -26.4840 C   0  0  0  0  0  0  0  0  0  0  0  0
   -1.6320   20.5290  -26.2910 C   0  0  0  0  0  0  0  0  0  0  0  0
   -1.5540   21.1890  -27.5570 O   0  0  0  0  0  0  0  0  0  0  0  0
   -1.8750   19.9220  -33.6530 C   0  0  0  0  0  0  0  0  0  0  0  0
   -3.2400   20.2050  -33.5600 C   0  0  0  0  0  0  0  0  0  0  0  0
   -7.3750   21.5850  -32.0820 C   0  0  0  0  0  0  0  0  0  0  0  0
   -7.5610   22.7690  -31.3650 C   0  0  0  0  0  0  0  0  0  0  0  0
   -6.4670   23.4320  -30.7960 C   0  0  0  0  0  0  0  0  0  0  0  0
   -6.7670   24.9250  -29.9100 Cl  0  0  0  0  0  0  0  0  0  0  0  0
   -3.1150   25.6510  -31.1890 H   0  0  0  0  0  0  0  0  0  0  0  0
   -3.9843   21.2825  -31.7784 H   0  0  0  0  0  0  0  0  0  0  0  0
   -4.4063   17.0679  -32.8707 H   0  0  0  0  0  0  0  0  0  0  0  0
   -1.9753   16.5596  -33.0440 H   0  0  0  0  0  0  0  0  0  0  0  0
    0.4590   18.2710  -34.4660 H   0  0  0  0  0  0  0  0  0  0  0  0
    0.2260   21.2026  -31.7946 H   0  0  0  0  0  0  0  0  0  0  0  0
   -0.8625   22.3564  -29.8644 H   0  0  0  0  0  0  0  0  0  0  0  0
    0.0823   17.4496  -29.6306 H   0  0  0  0  0  0  0  0  0  0  0  0
   -3.0286   18.9610  -26.8145 H   0  0  0  0  0  0  0  0  0  0  0  0
   -1.8470   18.5180  -25.5292 H   0  0  0  0  0  0  0  0  0  0  0  0
   -2.4093   21.0093  -25.6786 H   0  0  0  0  0  0  0  0  0  0  0  0
   -0.6567   20.6033  -25.7878 H   0  0  0  0  0  0  0  0  0  0  0  0
   -1.1647   20.7292  -33.8849 H   0  0  0  0  0  0  0  0  0  0  0  0
   -3.5982   21.2329  -33.7185 H   0  0  0  0  0  0  0  0  0  0  0  0
   -8.2407   21.0700  -32.5239 H   0  0  0  0  0  0  0  0  0  0  0  0
   -8.5732   23.1831  -31.2466 H   0  0  0  0  0  0  0  0  0  0  0  0
  1  2  1  0
  2  3  2  0
  2  4  2  0
  2  5  1  0
  5  6  2  0
  6  7  1  0
  7  8  1  0
  8  9  2  0
  8 10  2  0
  8 11  1  0
 11 12  2  0
 12 13  1  0
 13 14  2  0
 14 15  1  0
 15 16  1  0
 16 17  2  0
 16 18  2  0
 16 19  1  0
 19 20  2  0
 20 21  1  0
 21 22  2  0
 22 23  1  0
 23 24  2  0
 23 25  1  0
 25 26  1  0
 26 27  1  0
 27 28  1  0
 14 29  1  0
 29 30  2  0
  7 31  2  0
 31 32  1  0
 32 33  2  0
 33 34  1  0
 33  5  1  0
 30 11  1  0
 24 19  1  0
 28 22  1  0
  1 35  1  0
  6 36  1  0
 12 37  1  0
 13 38  1  0
 15 39  1  0
 20 40  1  0
 21 41  1  0
 24 42  1  0
 26 43  1  0
 26 44  1  0
 27 45  1  0
 27 46  1  0
 29 47  1  0
 30 48  1  0
 31 49  1  0
 32 50  1  0
M  CHG  1   1  -1
M  END
>  <UniqueID>  (2) 
1

>  <SMILES>  (2) 
[NH-]S(=O)(=O)c1cc(S(=O)(=O)c2ccc(NS(=O)(=O)c3ccc4c(c3)OCCO4)cc2)ccc1Cl

>  <Energy>  (2) 
60.765308023847375

>  <Genealogy>  (2) 
[NH-]S(=O)(=O)c1cc(S(=O)(=O)c2ccc(NS(=O)(=O)c3ccc4c(c3)OCCO4)cc2)ccc1Cl (protonated)
[NH-]S(=O)(=O)c1cc(S(=O)(=O)c2ccc(NS(=O)(=O)c3ccc4c(c3)OCCO4)cc2)ccc1Cl (3D coordinates assigned)
[NH-]S(=O)(=O)c1cc(S(=O)(=O)c2ccc(NS(=O)(=O)c3ccc4c(c3)OCCO4)cc2)ccc1Cl (nonaromatic ring conformer: 60.765308023847375 kcal/mol)

>  <smiles>  (2) 
NS(=O)(=O)c1cc(S(=O)(=O)c2ccc(NS(=O)(=O)c3ccc4c(c3)OCCO4)cc2)ccc1Cl

>  <score_type>  (2) 
oracle

>  <origin>  (2) 
adgpu

>  <m_score__min__energy>  (2) 
-12.119999999999999

>  <m_primary>  (2) 
energy

$$$$
2:0
     RDKit          3D

 49 51  0  0  0  0  0  0  0  0999 V2000
  -10.2220   20.8340  -32.3380 C   0  0  0  0  0  0  0  0  0  0  0  0
   -8.9080   21.5510  -32.2390 C   0  0  0  0  0  0  0  0  0  0  0  0
   -8.8710   22.9300  -31.9860 C   0  0  0  0  0  0  0  0  0  0  0  0
   -7.6470   23.5910  -31.8560 C   0  0  0  0  0  0  0  0  0  0  0  0
   -6.4380   22.8820  -31.9780 C   0  0  0  0  0  0  0  0  0  0  0  0
   -5.1660   23.5340  -31.8220 N   0  0  0  0  0  0  0  0  0  0  0  0
   -4.8800   24.5030  -30.8010 C   0  0  0  0  0  0  0  0  0  0  0  0
   -5.8180   25.1310  -30.2420 O   0  0  0  0  0  0  0  0  0  0  0  0
   -3.5280   24.8460  -30.4750 N   0  0  0  0  0  0  0  0  0  0  0  0
   -2.6210   24.0500  -29.6970 C   0  0  0  0  0  0  0  0  0  0  0  0
   -2.7330   22.6580  -29.6480 C   0  0  0  0  0  0  0  0  0  0  0  0
   -1.8540   21.9070  -28.8740 C   0  0  0  0  0  0  0  0  0  0  0  0
   -0.8590   22.5310  -28.1020 C   0  0  0  0  0  0  0  0  0  0  0  0
    0.0900   21.6470  -27.3330 C   0  0  0  0  0  0  0  0  0  0  0  0
   -0.7530   23.9500  -28.1140 C   0  0  0  0  0  0  0  0  0  0  0  0
    0.4640   24.8340  -27.1460 S   0  0  0  0  0  0  0  0  0  0  0  0
    1.7030   25.0240  -27.9780 O   0  0  0  0  0  0  0  0  0  0  0  0
    0.8710   24.0380  -25.9380 O   0  0  0  0  0  0  0  0  0  0  0  0
   -0.1120   26.4010  -26.6250 N   0  0  0  0  0  0  0  0  0  0  0  0
    0.9570   27.4080  -26.7100 C   0  0  0  0  0  0  0  0  0  0  0  0
    0.4990   28.7420  -26.0820 C   0  0  0  0  0  0  0  0  0  0  0  0
   -0.8870   28.7250  -25.8020 O   0  0  0  0  0  0  0  0  0  0  0  0
   -1.1700   27.7280  -24.8350 C   0  0  0  0  0  0  0  0  0  0  0  0
   -0.6360   26.3410  -25.2540 C   0  0  0  0  0  0  0  0  0  0  0  0
   -1.6460   24.6930  -28.9210 C   0  0  0  0  0  0  0  0  0  0  0  0
   -1.5680   26.0820  -28.9690 O   0  0  0  0  0  0  0  0  0  0  0  0
   -6.4800   21.4960  -32.1920 C   0  0  0  0  0  0  0  0  0  0  0  0
   -7.7040   20.8350  -32.3220 C   0  0  0  0  0  0  0  0  0  0  0  0
  -10.6032   20.6260  -31.3274 H   0  0  0  0  0  0  0  0  0  0  0  0
  -10.9433   21.4636  -32.8796 H   0  0  0  0  0  0  0  0  0  0  0  0
  -10.0829   19.8867  -32.8796 H   0  0  0  0  0  0  0  0  0  0  0  0
   -9.8104   23.4940  -31.8894 H   0  0  0  0  0  0  0  0  0  0  0  0
   -7.6285   24.6727  -31.6570 H   0  0  0  0  0  0  0  0  0  0  0  0
   -4.4310   23.3590  -32.5440 H   0  0  0  0  0  0  0  0  0  0  0  0
   -3.5213   22.1526  -30.2252 H   0  0  0  0  0  0  0  0  0  0  0  0
   -1.9389   20.8103  -28.8662 H   0  0  0  0  0  0  0  0  0  0  0  0
   -0.0663   21.7926  -26.2539 H   0  0  0  0  0  0  0  0  0  0  0  0
   -0.0979   20.5946  -27.5920 H   0  0  0  0  0  0  0  0  0  0  0  0
    1.1265   21.9090  -27.5920 H   0  0  0  0  0  0  0  0  0  0  0  0
    1.8432   27.0406  -26.1718 H   0  0  0  0  0  0  0  0  0  0  0  0
    1.1988   27.5796  -27.7693 H   0  0  0  0  0  0  0  0  0  0  0  0
    1.0524   28.9067  -25.1457 H   0  0  0  0  0  0  0  0  0  0  0  0
    0.7002   29.5520  -26.7985 H   0  0  0  0  0  0  0  0  0  0  0  0
   -0.7010   28.0152  -23.8823 H   0  0  0  0  0  0  0  0  0  0  0  0
   -2.2631   27.6535  -24.7366 H   0  0  0  0  0  0  0  0  0  0  0  0
    0.1692   26.0377  -24.5686 H   0  0  0  0  0  0  0  0  0  0  0  0
   -1.4559   25.6089  -25.2111 H   0  0  0  0  0  0  0  0  0  0  0  0
   -5.5419   20.9253  -32.2579 H   0  0  0  0  0  0  0  0  0  0  0  0
   -7.7240   19.7481  -32.4902 H   0  0  0  0  0  0  0  0  0  0  0  0
  1  2  1  0
  2  3  2  0
  3  4  1  0
  4  5  2  0
  5  6  1  0
  6  7  1  0
  7  8  2  0
  7  9  1  0
  9 10  1  0
 10 11  2  0
 11 12  1  0
 12 13  2  0
 13 14  1  0
 13 15  1  0
 15 16  1  0
 16 17  2  0
 16 18  2  0
 16 19  1  0
 19 20  1  0
 20 21  1  0
 21 22  1  0
 22 23  1  0
 23 24  1  0
 15 25  2  0
 25 26  1  0
  5 27  1  0
 27 28  2  0
 28  2  1  0
 25 10  1  0
 24 19  1  0
  1 29  1  0
  1 30  1  0
  1 31  1  0
  3 32  1  0
  4 33  1  0
  6 34  1  0
 11 35  1  0
 12 36  1  0
 14 37  1  0
 14 38  1  0
 14 39  1  0
 20 40  1  0
 20 41  1  0
 21 42  1  0
 21 43  1  0
 23 44  1  0
 23 45  1  0
 24 46  1  0
 24 47  1  0
 27 48  1  0
 28 49  1  0
M  CHG  2   9  -1  26  -1
M  END
>  <UniqueID>  (3) 
2

>  <SMILES>  (3) 
Cc1ccc(NC(=O)[N-]c2ccc(C)c(S(=O)(=O)N3CCOCC3)c2[O-])cc1

>  <Energy>  (3) 
68.63642767342081

>  <Genealogy>  (3) 
Cc1ccc(NC(=O)[N-]c2ccc(C)c(S(=O)(=O)N3CCOCC3)c2[O-])cc1 (protonated)
Cc1ccc(NC(=O)[N-]c2ccc(C)c(S(=O)(=O)N3CCOCC3)c2[O-])cc1 (3D coordinates assigned)
Cc1ccc(NC(=O)[N-]c2ccc(C)c(S(=O)(=O)N3CCOCC3)c2[O-])cc1 (nonaromatic ring conformer: 68.63642767342081 kcal/mol)

>  <smiles>  (3) 
Cc1ccc(NC(=O)Nc2ccc(C)c(S(=O)(=O)N3CCOCC3)c2O)cc1

>  <score_type>  (3) 
oracle

>  <origin>  (3) 
adgpu

>  <m_score__min__energy>  (3) 
-13.140000000000001

>  <m_primary>  (3) 
energy

$$$$
3:0
     RDKit          3D

 56 59  0  0  0  0  0  0  0  0999 V2000
    2.8930   24.5480  -38.0900 H   0  0  0  0  0  0  0  0  0  0  0  0
    1.9360   24.9270  -37.8910 N   0  0  0  0  0  0  0  0  0  0  0  0
    1.6660   24.7490  -36.1910 S   0  0  0  0  0  0  0  0  0  0  0  0
    2.8260   25.3440  -35.4390 O   0  0  0  0  0  0  0  0  0  0  0  0
    0.4070   25.4660  -35.7910 O   0  0  0  0  0  0  0  0  0  0  0  0
    1.4990   23.0370  -35.8060 C   0  0  0  0  0  0  0  0  0  0  0  0
    2.5900   22.3000  -35.3160 C   0  0  0  0  0  0  0  0  0  0  0  0
    3.5669   22.7876  -35.1825 H   0  0  0  0  0  0  0  0  0  0  0  0
    2.4350   20.9440  -34.9970 C   0  0  0  0  0  0  0  0  0  0  0  0
    3.2905   20.3731  -34.6068 H   0  0  0  0  0  0  0  0  0  0  0  0
    1.1970   20.3110  -35.1720 C   0  0  0  0  0  0  0  0  0  0  0  0
    1.0110   18.6040  -34.7630 S   0  0  0  0  0  0  0  0  0  0  0  0
    2.3670   17.9590  -34.7010 O   0  0  0  0  0  0  0  0  0  0  0  0
    0.2000   17.9120  -35.8250 O   0  0  0  0  0  0  0  0  0  0  0  0
    0.2070   18.3940  -33.2380 N   0  0  0  0  0  0  0  0  0  0  0  0
   -1.1890   18.5400  -33.0970 N   0  0  0  0  0  0  0  0  0  0  0  0
   -1.7010   19.7910  -32.8500 C   0  0  0  0  0  0  0  0  0  0  0  0
   -0.8360   20.9390  -32.7470 N   0  0  0  0  0  0  0  0  0  0  0  0
   -0.4330   21.5480  -31.6720 C   0  0  0  0  0  0  0  0  0  0  0  0
    0.2811   22.3736  -31.8079 H   0  0  0  0  0  0  0  0  0  0  0  0
   -0.8430   21.2380  -30.2740 C   0  0  0  0  0  0  0  0  0  0  0  0
   -0.5700   19.9420  -29.8040 C   0  0  0  0  0  0  0  0  0  0  0  0
   -0.1472   19.1947  -30.4916 H   0  0  0  0  0  0  0  0  0  0  0  0
   -0.8270   19.5880  -28.4780 C   0  0  0  0  0  0  0  0  0  0  0  0
   -0.6028   18.5697  -28.1277 H   0  0  0  0  0  0  0  0  0  0  0  0
   -1.3680   20.5250  -27.5970 C   0  0  0  0  0  0  0  0  0  0  0  0
   -1.6070   20.1730  -26.2720 O   0  0  0  0  0  0  0  0  0  0  0  0
   -1.6370   21.8250  -28.0400 C   0  0  0  0  0  0  0  0  0  0  0  0
   -2.0803   22.5578  -27.3497 H   0  0  0  0  0  0  0  0  0  0  0  0
   -1.3440   22.1980  -29.3600 C   0  0  0  0  0  0  0  0  0  0  0  0
   -1.5130   23.5290  -29.7180 O   0  0  0  0  0  0  0  0  0  0  0  0
   -3.0950   19.9870  -32.7860 C   0  0  0  0  0  0  0  0  0  0  0  0
   -3.6110   21.3180  -32.5200 C   0  0  0  0  0  0  0  0  0  0  0  0
   -4.0220   22.3800  -32.3210 N   0  0  0  0  0  0  0  0  0  0  0  0
   -3.9640   18.8850  -32.9070 C   0  0  0  0  0  0  0  0  0  0  0  0
   -5.4310   19.0570  -32.7370 C   0  0  0  0  0  0  0  0  0  0  0  0
   -6.1450   19.9050  -33.6030 C   0  0  0  0  0  0  0  0  0  0  0  0
   -5.6121   20.4566  -34.3916 H   0  0  0  0  0  0  0  0  0  0  0  0
   -7.5290   20.0500  -33.4660 C   0  0  0  0  0  0  0  0  0  0  0  0
   -8.0790   20.7196  -34.1436 H   0  0  0  0  0  0  0  0  0  0  0  0
   -8.2170   19.3480  -32.4720 C   0  0  0  0  0  0  0  0  0  0  0  0
   -9.5990   19.4930  -32.3580 O   0  0  0  0  0  0  0  0  0  0  0  0
  -10.1880   19.6200  -33.1740 H   0  0  0  0  0  0  0  0  0  0  0  0
   -7.5110   18.5020  -31.6020 C   0  0  0  0  0  0  0  0  0  0  0  0
   -8.0483   17.9499  -30.8168 H   0  0  0  0  0  0  0  0  0  0  0  0
   -6.1250   18.3600  -31.7320 C   0  0  0  0  0  0  0  0  0  0  0  0
   -5.5756   17.6999  -31.0447 H   0  0  0  0  0  0  0  0  0  0  0  0
   -3.4160   17.6130  -33.1730 C   0  0  0  0  0  0  0  0  0  0  0  0
   -4.2760   16.4630  -33.3920 C   0  0  0  0  0  0  0  0  0  0  0  0
   -4.9590   15.5440  -33.5690 N   0  0  0  0  0  0  0  0  0  0  0  0
   -2.0210   17.4660  -33.2790 C   0  0  0  0  0  0  0  0  0  0  0  0
   -1.5400   16.3350  -33.5570 O   0  0  0  0  0  0  0  0  0  0  0  0
    0.1070   21.0470  -35.6630 C   0  0  0  0  0  0  0  0  0  0  0  0
   -0.8691   20.5582  -35.7983 H   0  0  0  0  0  0  0  0  0  0  0  0
    0.2600   22.4030  -35.9810 C   0  0  0  0  0  0  0  0  0  0  0  0
   -0.5962   22.9735  -36.3700 H   0  0  0  0  0  0  0  0  0  0  0  0
  1  2  1  0
  2  3  1  0
  3  4  2  0
  3  5  2  0
  3  6  1  0
  6  7  2  0
  7  8  1  0
  7  9  1  0
  9 10  1  0
  9 11  2  0
 11 12  1  0
 12 13  2  0
 12 14  2  0
 12 15  1  0
 15 16  1  0
 16 17  1  0
 17 18  1  0
 18 19  2  0
 19 20  1  0
 19 21  1  0
 21 22  2  0
 22 23  1  0
 22 24  1  0
 24 25  1  0
 24 26  2  0
 26 27  1  0
 26 28  1  0
 28 29  1  0
 28 30  2  0
 30 31  1  0
 17 32  2  0
 32 33  1  0
 33 34  3  0
 32 35  1  0
 35 36  1  0
 36 37  2  0
 37 38  1  0
 37 39  1  0
 39 40  1  0
 39 41  2  0
 41 42  1  0
 42 43  1  0
 41 44  1  0
 44 45  1  0
 44 46  2  0
 46 47  1  0
 35 48  2  0
 48 49  1  0
 49 50  3  0
 48 51  1  0
 51 52  2  0
 11 53  1  0
 53 54  1  0
 53 55  2  0
 55 56  1  0
 55  6  1  0
 51 16  1  0
 30 21  1  0
 46 36  1  0
M  CHG  4   2  -1  15  -1  27  -1  31  -1
M  END
>  <UniqueID>  (4) 
3

>  <SMILES>  (4) 
N#Cc1c(-c2ccc(O)cc2)c(C#N)c(=O)n([N-]S(=O)(=O)c2ccc(S([NH-])(=O)=O)cc2)c1/N=C\c1ccc([O-])cc1[O-]

>  <Energy>  (4) 
96.73565591088582

>  <Genealogy>  (4) 
N#Cc1c(-c2ccc(O)cc2)c(C#N)c(=O)n([N-]S(=O)(=O)c2ccc(S([NH-])(=O)=O)cc2)c1N=Cc1ccc([O-])cc1[O-] (protonated)
N#Cc1c(-c2ccc(O)cc2)c(C#N)c(=O)n([N-]S(=O)(=O)c2ccc(S([NH-])(=O)=O)cc2)c1/N=C\c1ccc([O-])cc1[O-] (cis-trans isomerization)
N#Cc1c(-c2ccc(O)cc2)c(C#N)c(=O)n([N-]S(=O)(=O)c2ccc(S([NH-])(=O)=O)cc2)c1/N=C\c1ccc([O-])cc1[O-] (3D coordinates assigned)
N#Cc1c(-c2ccc(O)cc2)c(C#N)c(=O)n([N-]S(=O)(=O)c2ccc(S([NH-])(=O)=O)cc2)c1/N=C\c1ccc([O-])cc1[O-] (optimized conformer: 96.73565591088582 kcal/mol)

>  <smiles>  (4) 
N#Cc1c(-c2ccc(O)cc2)c(C#N)c(=O)n(NS(=O)(=O)c2ccc(S(N)(=O)=O)cc2)c1N=Cc1ccc(O)cc1O

>  <score_type>  (4) 
oracle

>  <origin>  (4) 
adgpu

>  <m_score__min__energy>  (4) 
-13.16

>  <m_primary>  (4) 
energy

$$$$
4:0
     RDKit          3D

 42 44  0  0  0  0  0  0  0  0999 V2000
   -4.2380   25.5170  -30.5720 N   0  0  0  0  0  0  0  0  0  0  0  0
   -3.5900   24.3770  -29.9930 C   0  0  0  0  0  0  0  0  0  0  0  0
   -2.4190   24.5550  -29.2420 C   0  0  0  0  0  0  0  0  0  0  0  0
   -1.7800   23.4590  -28.6480 C   0  0  0  0  0  0  0  0  0  0  0  0
   -0.3290   23.6980  -27.6830 S   0  0  0  0  0  0  0  0  0  0  0  0
    0.0910   22.3980  -27.0560 O   0  0  0  0  0  0  0  0  0  0  0  0
    0.7950   24.1780  -28.5590 O   0  0  0  0  0  0  0  0  0  0  0  0
   -0.6640   24.8870  -26.4310 C   0  0  0  0  0  0  0  0  0  0  0  0
   -0.5560   24.5370  -25.0780 C   0  0  0  0  0  0  0  0  0  0  0  0
   -0.8020   25.4890  -24.0840 C   0  0  0  0  0  0  0  0  0  0  0  0
   -1.1500   26.7960  -24.4370 C   0  0  0  0  0  0  0  0  0  0  0  0
   -1.2490   27.1520  -25.7850 C   0  0  0  0  0  0  0  0  0  0  0  0
   -1.0040   26.2020  -26.7810 C   0  0  0  0  0  0  0  0  0  0  0  0
   -2.3260   22.1780  -28.7900 C   0  0  0  0  0  0  0  0  0  0  0  0
   -3.4900   21.9900  -29.5380 C   0  0  0  0  0  0  0  0  0  0  0  0
   -4.1250   23.0800  -30.1470 C   0  0  0  0  0  0  0  0  0  0  0  0
   -5.3070   22.8570  -30.9260 N   0  0  0  0  0  0  0  0  0  0  0  0
   -5.2140   22.1600  -32.2130 C   0  0  0  0  0  0  0  0  0  0  0  0
   -6.3090   21.0900  -32.3020 C   0  0  0  0  0  0  0  0  0  0  0  0
   -7.7150   21.6210  -31.9370 C   0  0  0  0  0  0  0  0  0  0  0  0
   -7.7210   23.0730  -31.4280 C   0  0  0  0  0  0  0  0  0  0  0  0
   -6.6020   23.3090  -30.4070 C   0  0  0  0  0  0  0  0  0  0  0  0
   -4.7300   26.2230  -29.9830 H   0  0  0  0  0  0  0  0  0  0  0  0
   -4.1950   25.6860  -31.6020 H   0  0  0  0  0  0  0  0  0  0  0  0
   -1.9987   25.5640  -29.1183 H   0  0  0  0  0  0  0  0  0  0  0  0
   -0.2770   23.5106  -24.7975 H   0  0  0  0  0  0  0  0  0  0  0  0
   -0.7216   25.2092  -23.0232 H   0  0  0  0  0  0  0  0  0  0  0  0
   -1.3458   27.5438  -23.6544 H   0  0  0  0  0  0  0  0  0  0  0  0
   -1.5201   28.1813  -26.0626 H   0  0  0  0  0  0  0  0  0  0  0  0
   -1.0780   26.4863  -27.8410 H   0  0  0  0  0  0  0  0  0  0  0  0
   -1.8368   21.3170  -28.3110 H   0  0  0  0  0  0  0  0  0  0  0  0
   -3.9109   20.9799  -29.6497 H   0  0  0  0  0  0  0  0  0  0  0  0
   -5.3430   22.8840  -33.0310 H   0  0  0  0  0  0  0  0  0  0  0  0
   -4.2279   21.6797  -32.2966 H   0  0  0  0  0  0  0  0  0  0  0  0
   -6.3379   20.7049  -33.3320 H   0  0  0  0  0  0  0  0  0  0  0  0
   -6.0578   20.3056  -31.5729 H   0  0  0  0  0  0  0  0  0  0  0  0
   -8.3495   21.5659  -32.8339 H   0  0  0  0  0  0  0  0  0  0  0  0
   -8.0896   20.9933  -31.1150 H   0  0  0  0  0  0  0  0  0  0  0  0
   -7.5772   23.7525  -32.2810 H   0  0  0  0  0  0  0  0  0  0  0  0
   -8.6862   23.2650  -30.9365 H   0  0  0  0  0  0  0  0  0  0  0  0
   -6.5428   24.3840  -30.1815 H   0  0  0  0  0  0  0  0  0  0  0  0
   -6.8329   22.7343  -29.4979 H   0  0  0  0  0  0  0  0  0  0  0  0
  1  2  1  0
  2  3  2  0
  3  4  1  0
  4  5  1  0
  5  6  2  0
  5  7  2  0
  5  8  1  0
  8  9  2  0
  9 10  1  0
 10 11  2  0
 11 12  1  0
 12 13  2  0
  4 14  2  0
 14 15  1  0
 15 16  2  0
 16 17  1  0
 17 18  1  0
 18 19  1  0
 19 20  1  0
 20 21  1  0
 21 22  1  0
 16  2  1  0
 22 17  1  0
 13  8  1  0
  1 23  1  0
  1 24  1  0
  3 25  1  0
  9 26  1  0
 10 27  1  0
 11 28  1  0
 12 29  1  0
 13 30  1  0
 14 31  1  0
 15 32  1  0
 18 33  1  0
 18 34  1  0
 19 35  1  0
 19 36  1  0
 20 37  1  0
 20 38  1  0
 21 39  1  0
 21 40  1  0
 22 41  1  0
 22 42  1  0
M  END
>  <UniqueID>  (5) 
4

>  <SMILES>  (5) 
Nc1cc(S(=O)(=O)c2ccccc2)ccc1N1CCCCC1

>  <Energy>  (5) 
51.0838846011636

>  <Genealogy>  (5) 
Nc1cc(S(=O)(=O)c2ccccc2)ccc1N1CCCCC1 (3D coordinates assigned)
Nc1cc(S(=O)(=O)c2ccccc2)ccc1N1CCCCC1 (nonaromatic ring conformer: 51.0838846011636 kcal/mol)

>  <smiles>  (5) 
Nc1cc(S(=O)(=O)c2ccccc2)ccc1N1CCCCC1

>  <score_type>  (5) 
oracle

>  <origin>  (5) 
adgpu

>  <m_score__min__energy>  (5) 
-8.5299999999999994

>  <m_primary>  (5) 
energy

$$$$
5:0
     RDKit          3D

 78 82  0  0  0  0  0  0  0  0999 V2000
   -7.9150   18.8340  -31.4880 C   0  0  0  0  0  0  0  0  0  0  0  0
   -8.1400   19.8590  -32.5220 N   0  0  0  0  0  0  0  0  0  0  0  0
   -8.5250   21.1600  -31.9380 C   0  0  0  0  0  0  0  0  0  0  0  0
   -7.3540   21.8560  -31.2050 C   0  0  0  0  0  0  0  0  0  0  0  0
   -6.0440   21.3310  -31.6310 N   0  0  0  0  0  0  0  0  0  0  0  0
   -4.7650   22.4190  -31.1520 S   0  0  0  0  0  0  0  0  0  0  0  0
   -4.8040   22.6020  -29.6600 O   0  0  0  0  0  0  0  0  0  0  0  0
   -4.9850   23.7620  -31.7920 O   0  0  0  0  0  0  0  0  0  0  0  0
   -3.1760   21.8030  -31.6170 C   0  0  0  0  0  0  0  0  0  0  0  0
   -3.0160   21.1150  -32.8250 C   0  0  0  0  0  0  0  0  0  0  0  0
   -1.7630   20.6180  -33.1950 C   0  0  0  0  0  0  0  0  0  0  0  0
   -0.6490   20.8080  -32.3600 C   0  0  0  0  0  0  0  0  0  0  0  0
    0.6740   20.2580  -32.7390 C   0  0  0  0  0  0  0  0  0  0  0  0
    1.3620   19.4290  -31.8360 C   0  0  0  0  0  0  0  0  0  0  0  0
    2.6250   18.9160  -32.1580 C   0  0  0  0  0  0  0  0  0  0  0  0
    3.4690   17.8680  -31.0230 S   0  0  0  0  0  0  0  0  0  0  0  0
    4.2720   16.6070  -31.8900 N   0  0  0  0  0  0  0  0  0  0  0  0
    2.4880   17.2680  -30.0540 O   0  0  0  0  0  0  0  0  0  0  0  0
    4.4830   18.6650  -30.2510 O   0  0  0  0  0  0  0  0  0  0  0  0
    3.1990   19.2180  -33.3970 C   0  0  0  0  0  0  0  0  0  0  0  0
    2.5220   20.0330  -34.3050 C   0  0  0  0  0  0  0  0  0  0  0  0
    1.2600   20.5640  -33.9850 C   0  0  0  0  0  0  0  0  0  0  0  0
    0.5460   21.3350  -34.9170 O   0  0  0  0  0  0  0  0  0  0  0  0
    0.9390   22.5910  -35.3950 C   0  0  0  0  0  0  0  0  0  0  0  0
    0.0230   23.4820  -35.9800 C   0  0  0  0  0  0  0  0  0  0  0  0
    0.4570   24.7170  -36.4720 C   0  0  0  0  0  0  0  0  0  0  0  0
    1.8100   25.0730  -36.3900 C   0  0  0  0  0  0  0  0  0  0  0  0
    2.3560   26.6300  -37.0200 S   0  0  0  0  0  0  0  0  0  0  0  0
    3.5270   27.1110  -36.2060 O   0  0  0  0  0  0  0  0  0  0  0  0
    2.8170   26.4510  -38.4420 O   0  0  0  0  0  0  0  0  0  0  0  0
    1.0910   27.8310  -36.9640 N   0  0  0  0  0  0  0  0  0  0  0  0
    0.4360   27.8320  -35.6440 C   0  0  0  0  0  0  0  0  0  0  0  0
   -0.9170   28.5830  -35.6670 C   0  0  0  0  0  0  0  0  0  0  0  0
   -1.0390   29.5080  -36.8160 N   0  0  0  0  0  0  0  0  0  0  0  0
   -0.1430   30.6730  -36.6720 C   0  0  0  0  0  0  0  0  0  0  0  0
   -0.8450   28.8160  -38.1190 C   0  0  0  0  0  0  0  0  0  0  0  0
    0.1110   27.6090  -38.0320 C   0  0  0  0  0  0  0  0  0  0  0  0
    2.7250   24.1810  -35.8150 C   0  0  0  0  0  0  0  0  0  0  0  0
    2.2920   22.9430  -35.3300 C   0  0  0  0  0  0  0  0  0  0  0  0
   -0.8140   21.4980  -31.1470 C   0  0  0  0  0  0  0  0  0  0  0  0
   -2.0680   21.9930  -30.7790 C   0  0  0  0  0  0  0  0  0  0  0  0
   -6.0150   21.1070  -33.0800 C   0  0  0  0  0  0  0  0  0  0  0  0
   -6.9940   19.9770  -33.4550 C   0  0  0  0  0  0  0  0  0  0  0  0
   -8.0151   19.2899  -30.4919 H   0  0  0  0  0  0  0  0  0  0  0  0
   -8.6582   18.0308  -31.6000 H   0  0  0  0  0  0  0  0  0  0  0  0
   -6.9037   18.4160  -31.6000 H   0  0  0  0  0  0  0  0  0  0  0  0
   -8.8752   21.8187  -32.7464 H   0  0  0  0  0  0  0  0  0  0  0  0
   -9.3150   20.9703  -31.1964 H   0  0  0  0  0  0  0  0  0  0  0  0
   -7.3913   22.9341  -31.4202 H   0  0  0  0  0  0  0  0  0  0  0  0
   -7.4638   21.6605  -30.1281 H   0  0  0  0  0  0  0  0  0  0  0  0
   -3.8813   20.9644  -33.4873 H   0  0  0  0  0  0  0  0  0  0  0  0
   -1.6485   20.0753  -34.1449 H   0  0  0  0  0  0  0  0  0  0  0  0
    0.9041   19.1807  -30.8671 H   0  0  0  0  0  0  0  0  0  0  0  0
    4.6980   15.9720  -31.1770 H   0  0  0  0  0  0  0  0  0  0  0  0
    4.1877   18.8116  -33.6567 H   0  0  0  0  0  0  0  0  0  0  0  0
    2.9793   20.2619  -35.2789 H   0  0  0  0  0  0  0  0  0  0  0  0
   -1.0396   23.2068  -36.0512 H   0  0  0  0  0  0  0  0  0  0  0  0
   -0.2660   25.4114  -36.9249 H   0  0  0  0  0  0  0  0  0  0  0  0
    0.2590   26.7913  -35.3349 H   0  0  0  0  0  0  0  0  0  0  0  0
    1.0997   28.3506  -34.9365 H   0  0  0  0  0  0  0  0  0  0  0  0
   -1.7290   27.8431  -35.7235 H   0  0  0  0  0  0  0  0  0  0  0  0
   -0.9776   29.1853  -34.7485 H   0  0  0  0  0  0  0  0  0  0  0  0
   -2.0170   29.8860  -36.8050 H   0  0  0  0  0  0  0  0  0  0  0  0
    0.0178   30.8821  -35.6041 H   0  0  0  0  0  0  0  0  0  0  0  0
    0.8222   30.4548  -37.1523 H   0  0  0  0  0  0  0  0  0  0  0  0
   -0.6016   31.5499  -37.1523 H   0  0  0  0  0  0  0  0  0  0  0  0
   -1.8235   28.4615  -38.4752 H   0  0  0  0  0  0  0  0  0  0  0  0
   -0.3910   29.5422  -38.8093 H   0  0  0  0  0  0  0  0  0  0  0  0
   -0.4676   26.6992  -37.8141 H   0  0  0  0  0  0  0  0  0  0  0  0
    0.6373   27.4911  -38.9907 H   0  0  0  0  0  0  0  0  0  0  0  0
    3.7878   24.4557  -35.7449 H   0  0  0  0  0  0  0  0  0  0  0  0
    3.0191   22.2416  -34.8948 H   0  0  0  0  0  0  0  0  0  0  0  0
    0.0496   21.6495  -30.4828 H   0  0  0  0  0  0  0  0  0  0  0  0
   -2.1863   22.5337  -29.8284 H   0  0  0  0  0  0  0  0  0  0  0  0
   -6.3093   22.0316  -33.5981 H   0  0  0  0  0  0  0  0  0  0  0  0
   -4.9970   20.8198  -33.3821 H   0  0  0  0  0  0  0  0  0  0  0  0
   -7.3846   20.1743  -34.4642 H   0  0  0  0  0  0  0  0  0  0  0  0
   -6.4343   19.0314  -33.4041 H   0  0  0  0  0  0  0  0  0  0  0  0
  1  2  1  0
  2  3  1  0
  3  4  1  0
  4  5  1  0
  5  6  1  0
  6  7  2  0
  6  8  2  0
  6  9  1  0
  9 10  2  0
 10 11  1  0
 11 12  2  0
 12 13  1  0
 13 14  2  0
 14 15  1  0
 15 16  1  0
 16 17  1  0
 16 18  2  0
 16 19  2  0
 15 20  2  0
 20 21  1  0
 21 22  2  0
 22 23  1  0
 23 24  1  0
 24 25  2  0
 25 26  1  0
 26 27  2  0
 27 28  1  0
 28 29  2  0
 28 30  2  0
 28 31  1  0
 31 32  1  0
 32 33  1  0
 33 34  1  0
 34 35  1  0
 34 36  1  0
 36 37  1  0
 27 38  1  0
 38 39  2  0
 12 40  1  0
 40 41  2  0
  5 42  1  0
 42 43  1  0
 43  2  1  0
 41  9  1  0
 22 13  1  0
 39 24  1  0
 37 31  1  0
  1 44  1  0
  1 45  1  0
  1 46  1  0
  3 47  1  0
  3 48  1  0
  4 49  1  0
  4 50  1  0
 10 51  1  0
 11 52  1  0
 14 53  1  0
 17 54  1  0
 20 55  1  0
 21 56  1  0
 25 57  1  0
 26 58  1  0
 32 59  1  0
 32 60  1  0
 33 61  1  0
 33 62  1  0
 34 63  1  0
 35 64  1  0
 35 65  1  0
 35 66  1  0
 36 67  1  0
 36 68  1  0
 37 69  1  0
 37 70  1  0
 38 71  1  0
 39 72  1  0
 40 73  1  0
 41 74  1  0
 42 75  1  0
 42 76  1  0
 43 77  1  0
 43 78  1  0
M  CHG  2  17  -1  34   1
M  END
>  <UniqueID>  (6) 
5

>  <SMILES>  (6) 
CN1CCN(S(=O)(=O)c2ccc(-c3cc(S([NH-])(=O)=O)ccc3Oc3ccc(S(=O)(=O)N4CC[NH+](C)CC4)cc3)cc2)CC1

>  <Energy>  (6) 
110.85527039325969

>  <Genealogy>  (6) 
CN1CCN(S(=O)(=O)c2ccc(-c3cc(S([NH-])(=O)=O)ccc3Oc3ccc(S(=O)(=O)N4CC[NH+](C)CC4)cc3)cc2)CC1 (protonated)
CN1CCN(S(=O)(=O)c2ccc(-c3cc(S([NH-])(=O)=O)ccc3Oc3ccc(S(=O)(=O)N4CC[NH+](C)CC4)cc3)cc2)CC1 (3D coordinates assigned)
CN1CCN(S(=O)(=O)c2ccc(-c3cc(S([NH-])(=O)=O)ccc3Oc3ccc(S(=O)(=O)N4CC[NH+](C)CC4)cc3)cc2)CC1 (nonaromatic ring conformer: 110.85527039325969 kcal/mol)

>  <smiles>  (6) 
CN1CCN(S(=O)(=O)c2ccc(Oc3ccc(S(N)(=O)=O)cc3-c3ccc(S(=O)(=O)N4CCN(C)CC4)cc3)cc2)CC1

>  <score_type>  (6) 
oracle

>  <origin>  (6) 
adgpu

>  <m_score__min__energy>  (6) 
-11.140000000000001

>  <m_primary>  (6) 
energy

$$$$
6:0
     RDKit          3D

 63 67  0  0  0  0  0  0  0  0999 V2000
    2.5070   19.2390  -27.9100 C   0  0  0  0  0  0  0  0  0  0  0  0
    1.7050   18.1840  -28.5540 N   0  0  0  0  0  0  0  0  0  0  0  0
    1.9210   18.1310  -30.0120 C   0  0  0  0  0  0  0  0  0  0  0  0
    1.4050   19.3960  -30.7100 C   0  0  0  0  0  0  0  0  0  0  0  0
    0.1490   19.8630  -30.1090 N   0  0  0  0  0  0  0  0  0  0  0  0
   -0.4850   21.0300  -30.6680 C   0  0  0  0  0  0  0  0  0  0  0  0
   -0.3790   21.2540  -31.9040 O   0  0  0  0  0  0  0  0  0  0  0  0
   -1.2380   21.9900  -29.8250 C   0  0  0  0  0  0  0  0  0  0  0  0
   -1.2870   21.8100  -28.4310 C   0  0  0  0  0  0  0  0  0  0  0  0
   -2.0370   22.6710  -27.6300 C   0  0  0  0  0  0  0  0  0  0  0  0
   -2.7590   23.7220  -28.2100 C   0  0  0  0  0  0  0  0  0  0  0  0
   -3.5190   24.5760  -27.4130 O   0  0  0  0  0  0  0  0  0  0  0  0
   -2.7110   23.9220  -29.5960 C   0  0  0  0  0  0  0  0  0  0  0  0
   -3.4940   24.9710  -30.1750 N   0  0  0  0  0  0  0  0  0  0  0  0
   -5.2190   24.9100  -30.3230 S   0  0  0  0  0  0  0  0  0  0  0  0
   -5.6770   26.0280  -31.2180 O   0  0  0  0  0  0  0  0  0  0  0  0
   -5.8780   25.0800  -28.9840 O   0  0  0  0  0  0  0  0  0  0  0  0
   -5.6690   23.3660  -31.0350 C   0  0  0  0  0  0  0  0  0  0  0  0
   -6.9860   22.8760  -30.8630 C   0  0  0  0  0  0  0  0  0  0  0  0
   -7.3820   21.6670  -31.4570 C   0  0  0  0  0  0  0  0  0  0  0  0
   -6.4440   20.9710  -32.2150 C   0  0  0  0  0  0  0  0  0  0  0  0
   -5.1530   21.4400  -32.3940 C   0  0  0  0  0  0  0  0  0  0  0  0
   -4.7410   22.6420  -31.8120 C   0  0  0  0  0  0  0  0  0  0  0  0
   -4.3740   20.5610  -33.2190 N   0  0  0  0  0  0  0  0  0  0  0  0
   -3.0860   20.8520  -33.8480 C   0  0  0  0  0  0  0  0  0  0  0  0
   -2.1260   19.7120  -33.6310 C   0  0  0  0  0  0  0  0  0  0  0  0
   -2.4170   18.7110  -32.6870 C   0  0  0  0  0  0  0  0  0  0  0  0
   -1.5350   17.6410  -32.5020 C   0  0  0  0  0  0  0  0  0  0  0  0
   -0.3530   17.5700  -33.2510 C   0  0  0  0  0  0  0  0  0  0  0  0
   -0.0540   18.5660  -34.1870 C   0  0  0  0  0  0  0  0  0  0  0  0
   -0.9400   19.6290  -34.3830 C   0  0  0  0  0  0  0  0  0  0  0  0
   -5.2730   19.5090  -33.5800 C   0  0  0  0  0  0  0  0  0  0  0  0
   -4.9760   18.5470  -34.3380 O   0  0  0  0  0  0  0  0  0  0  0  0
   -6.5720   19.7280  -32.9570 C   0  0  0  0  0  0  0  0  0  0  0  0
   -7.5970   19.0030  -33.0570 O   0  0  0  0  0  0  0  0  0  0  0  0
   -1.9620   23.0490  -30.4010 C   0  0  0  0  0  0  0  0  0  0  0  0
   -0.6190   18.9490  -29.2550 C   0  0  0  0  0  0  0  0  0  0  0  0
    0.2710   18.2740  -28.1870 C   0  0  0  0  0  0  0  0  0  0  0  0
    2.4323   19.1407  -26.8170 H   0  0  0  0  0  0  0  0  0  0  0  0
    3.5587   19.1384  -28.2161 H   0  0  0  0  0  0  0  0  0  0  0  0
    2.1287   20.2255  -28.2161 H   0  0  0  0  0  0  0  0  0  0  0  0
    2.9985   18.0298  -30.2090 H   0  0  0  0  0  0  0  0  0  0  0  0
    1.3642   17.2696  -30.4094 H   0  0  0  0  0  0  0  0  0  0  0  0
    2.1619   20.1890  -30.6197 H   0  0  0  0  0  0  0  0  0  0  0  0
    1.2160   19.1566  -31.7669 H   0  0  0  0  0  0  0  0  0  0  0  0
   -0.7288   20.9828  -27.9683 H   0  0  0  0  0  0  0  0  0  0  0  0
   -2.0616   22.5244  -26.5401 H   0  0  0  0  0  0  0  0  0  0  0  0
   -4.0950   25.3070  -27.8170 H   0  0  0  0  0  0  0  0  0  0  0  0
   -7.7056   23.4476  -30.2585 H   0  0  0  0  0  0  0  0  0  0  0  0
   -8.4038   21.2808  -31.3273 H   0  0  0  0  0  0  0  0  0  0  0  0
   -3.7163   23.0149  -31.9567 H   0  0  0  0  0  0  0  0  0  0  0  0
   -3.2351   20.9996  -34.9278 H   0  0  0  0  0  0  0  0  0  0  0  0
   -2.6661   21.7628  -33.3963 H   0  0  0  0  0  0  0  0  0  0  0  0
   -3.3406   18.7696  -32.0925 H   0  0  0  0  0  0  0  0  0  0  0  0
   -1.7694   16.8554  -31.7686 H   0  0  0  0  0  0  0  0  0  0  0  0
    0.3412   16.7296  -33.1029 H   0  0  0  0  0  0  0  0  0  0  0  0
    0.8782   18.5125  -34.7685 H   0  0  0  0  0  0  0  0  0  0  0  0
   -0.7089   20.4041  -35.1285 H   0  0  0  0  0  0  0  0  0  0  0  0
   -1.9413   23.1946  -31.4911 H   0  0  0  0  0  0  0  0  0  0  0  0
   -1.4127   19.5179  -28.7487 H   0  0  0  0  0  0  0  0  0  0  0  0
   -1.0426   18.1602  -29.8940 H   0  0  0  0  0  0  0  0  0  0  0  0
    0.1898   18.8530  -27.2553 H   0  0  0  0  0  0  0  0  0  0  0  0
   -0.0922   17.2410  -28.0823 H   0  0  0  0  0  0  0  0  0  0  0  0
  1  2  1  0
  2  3  1  0
  3  4  1  0
  4  5  1  0
  5  6  1  0
  6  7  2  0
  6  8  1  0
  8  9  2  0
  9 10  1  0
 10 11  2  0
 11 12  1  0
 11 13  1  0
 13 14  1  0
 14 15  1  0
 15 16  2  0
 15 17  2  0
 15 18  1  0
 18 19  2  0
 19 20  1  0
 20 21  2  0
 21 22  1  0
 22 23  2  0
 22 24  1  0
 24 25  1  0
 25 26  1  0
 26 27  2  0
 27 28  1  0
 28 29  2  0
 29 30  1  0
 30 31  2  0
 24 32  1  0
 32 33  2  0
 32 34  1  0
 34 35  2  0
 13 36  2  0
  5 37  1  0
 37 38  1  0
 38  2  1  0
 36  8  1  0
 23 18  1  0
 31 26  1  0
 34 21  1  0
  1 39  1  0
  1 40  1  0
  1 41  1  0
  3 42  1  0
  3 43  1  0
  4 44  1  0
  4 45  1  0
  9 46  1  0
 10 47  1  0
 12 48  1  0
 19 49  1  0
 20 50  1  0
 23 51  1  0
 25 52  1  0
 25 53  1  0
 27 54  1  0
 28 55  1  0
 29 56  1  0
 30 57  1  0
 31 58  1  0
 36 59  1  0
 37 60  1  0
 37 61  1  0
 38 62  1  0
 38 63  1  0
M  CHG  1  14  -1
M  END
>  <UniqueID>  (7) 
6

>  <SMILES>  (7) 
CN1CCN(C(=O)c2ccc(O)c([N-]S(=O)(=O)c3ccc4c(c3)N(Cc3ccccc3)C(=O)C4=O)c2)CC1

>  <Energy>  (7) 
113.69247801956847

>  <Genealogy>  (7) 
CN1CCN(C(=O)c2ccc(O)c([N-]S(=O)(=O)c3ccc4c(c3)N(Cc3ccccc3)C(=O)C4=O)c2)CC1 (protonated)
CN1CCN(C(=O)c2ccc(O)c([N-]S(=O)(=O)c3ccc4c(c3)N(Cc3ccccc3)C(=O)C4=O)c2)CC1 (3D coordinates assigned)
CN1CCN(C(=O)c2ccc(O)c([N-]S(=O)(=O)c3ccc4c(c3)N(Cc3ccccc3)C(=O)C4=O)c2)CC1 (nonaromatic ring conformer: 113.69247801956847 kcal/mol)

>  <smiles>  (7) 
CN1CCN(C(=O)c2ccc(O)c(NS(=O)(=O)c3ccc4c(c3)N(Cc3ccccc3)C(=O)C4=O)c2)CC1

>  <score_type>  (7) 
oracle

>  <origin>  (7) 
adgpu

>  <m_score__min__energy>  (7) 
-12.41

>  <m_primary>  (7) 
energy

$$$$
7:0
     RDKit          3D

 65 68  0  0  0  0  0  0  0  0999 V2000
   -6.4170   25.6500  -29.7570 C   0  0  0  0  0  0  0  0  0  0  0  0
   -7.1970   24.4570  -29.7740 O   0  0  0  0  0  0  0  0  0  0  0  0
   -6.8740   23.3070  -30.5140 C   0  0  0  0  0  0  0  0  0  0  0  0
   -7.7700   22.7350  -31.4370 C   0  0  0  0  0  0  0  0  0  0  0  0
   -7.3900   21.6260  -32.1960 C   0  0  0  0  0  0  0  0  0  0  0  0
   -6.1190   21.0620  -32.0340 C   0  0  0  0  0  0  0  0  0  0  0  0
   -5.5960   19.7230  -33.0580 S   0  0  0  0  0  0  0  0  0  0  0  0
   -5.6600   18.4440  -32.2710 O   0  0  0  0  0  0  0  0  0  0  0  0
   -6.5310   19.6000  -34.2300 O   0  0  0  0  0  0  0  0  0  0  0  0
   -3.9690   19.9730  -33.6500 N   0  0  0  0  0  0  0  0  0  0  0  0
   -3.5360   21.3830  -33.4800 C   0  0  0  0  0  0  0  0  0  0  0  0
   -2.4740   21.5630  -32.3860 C   0  0  0  0  0  0  0  0  0  0  0  0
   -1.2370   20.6990  -32.6800 C   0  0  0  0  0  0  0  0  0  0  0  0
   -1.5880   19.3470  -33.3230 C   0  0  0  0  0  0  0  0  0  0  0  0
   -3.0490   18.9680  -33.0720 C   0  0  0  0  0  0  0  0  0  0  0  0
   -5.2430   21.5980  -31.0850 C   0  0  0  0  0  0  0  0  0  0  0  0
   -5.6080   22.7280  -30.3310 C   0  0  0  0  0  0  0  0  0  0  0  0
   -4.6670   23.3820  -29.4680 N   0  0  0  0  0  0  0  0  0  0  0  0
   -3.5430   24.1550  -29.9080 C   0  0  0  0  0  0  0  0  0  0  0  0
   -3.7310   25.1350  -30.6780 O   0  0  0  0  0  0  0  0  0  0  0  0
   -2.1800   23.8050  -29.4340 C   0  0  0  0  0  0  0  0  0  0  0  0
   -1.7910   22.4520  -29.4020 C   0  0  0  0  0  0  0  0  0  0  0  0
   -0.5510   22.0710  -28.8790 C   0  0  0  0  0  0  0  0  0  0  0  0
   -0.1270   20.3630  -28.7690 S   0  0  0  0  0  0  0  0  0  0  0  0
   -0.9240   19.5830  -29.7760 O   0  0  0  0  0  0  0  0  0  0  0  0
    1.3310   20.2080  -29.1010 O   0  0  0  0  0  0  0  0  0  0  0  0
   -0.4210   19.7490  -27.1530 N   0  0  0  0  0  0  0  0  0  0  0  0
   -0.9150   18.3480  -27.1750 C   0  0  0  0  0  0  0  0  0  0  0  0
   -2.3400   18.1770  -26.6170 C   0  0  0  0  0  0  0  0  0  0  0  0
   -3.2540   19.2920  -27.1210 C   0  0  0  0  0  0  0  0  0  0  0  0
   -2.7220   20.6830  -26.7410 C   0  0  0  0  0  0  0  0  0  0  0  0
   -1.2350   20.6720  -26.3360 C   0  0  0  0  0  0  0  0  0  0  0  0
    0.3250   23.0480  -28.3940 C   0  0  0  0  0  0  0  0  0  0  0  0
   -0.0350   24.3970  -28.4390 C   0  0  0  0  0  0  0  0  0  0  0  0
   -1.2800   24.7820  -28.9480 C   0  0  0  0  0  0  0  0  0  0  0  0
   -1.6090   26.1340  -28.9530 O   0  0  0  0  0  0  0  0  0  0  0  0
   -6.2231   25.9465  -28.7156 H   0  0  0  0  0  0  0  0  0  0  0  0
   -5.4612   25.4706  -30.2711 H   0  0  0  0  0  0  0  0  0  0  0  0
   -6.9647   26.4535  -30.2711 H   0  0  0  0  0  0  0  0  0  0  0  0
   -8.7752   23.1641  -31.5611 H   0  0  0  0  0  0  0  0  0  0  0  0
   -8.0923   21.1939  -32.9241 H   0  0  0  0  0  0  0  0  0  0  0  0
   -3.1186   21.7377  -34.4339 H   0  0  0  0  0  0  0  0  0  0  0  0
   -4.4204   21.9615  -33.1747 H   0  0  0  0  0  0  0  0  0  0  0  0
   -2.1740   22.6205  -32.3449 H   0  0  0  0  0  0  0  0  0  0  0  0
   -2.9028   21.2494  -31.4228 H   0  0  0  0  0  0  0  0  0  0  0  0
   -0.5776   21.2523  -33.3649 H   0  0  0  0  0  0  0  0  0  0  0  0
   -0.7462   20.4886  -31.7183 H   0  0  0  0  0  0  0  0  0  0  0  0
   -1.4171   19.4122  -34.4077 H   0  0  0  0  0  0  0  0  0  0  0  0
   -0.9489   18.5741  -32.8711 H   0  0  0  0  0  0  0  0  0  0  0  0
   -3.2504   17.9899  -33.5332 H   0  0  0  0  0  0  0  0  0  0  0  0
   -3.2165   18.9261  -31.9856 H   0  0  0  0  0  0  0  0  0  0  0  0
   -4.2594   21.1317  -30.9266 H   0  0  0  0  0  0  0  0  0  0  0  0
   -2.4727   21.6830  -29.7943 H   0  0  0  0  0  0  0  0  0  0  0  0
   -0.9068   17.9948  -28.2167 H   0  0  0  0  0  0  0  0  0  0  0  0
   -0.2466   17.7648  -26.5245 H   0  0  0  0  0  0  0  0  0  0  0  0
   -2.7413   17.2060  -26.9428 H   0  0  0  0  0  0  0  0  0  0  0  0
   -2.2979   18.2232  -25.5188 H   0  0  0  0  0  0  0  0  0  0  0  0
   -3.3257   19.2255  -28.2166 H   0  0  0  0  0  0  0  0  0  0  0  0
   -4.2403   19.1636  -26.6513 H   0  0  0  0  0  0  0  0  0  0  0  0
   -2.8445   21.3527  -27.6050 H   0  0  0  0  0  0  0  0  0  0  0  0
   -3.2969   21.0268  -25.8685 H   0  0  0  0  0  0  0  0  0  0  0  0
   -0.8329   21.6894  -26.4510 H   0  0  0  0  0  0  0  0  0  0  0  0
   -1.1804   20.3242  -25.2939 H   0  0  0  0  0  0  0  0  0  0  0  0
    1.2991   22.7534  -27.9764 H   0  0  0  0  0  0  0  0  0  0  0  0
    0.6652   25.1618  -28.0717 H   0  0  0  0  0  0  0  0  0  0  0  0
  1  2  1  0
  2  3  1  0
  3  4  2  0
  4  5  1  0
  5  6  2  0
  6  7  1  0
  7  8  2  0
  7  9  2  0
  7 10  1  0
 10 11  1  0
 11 12  1  0
 12 13  1  0
 13 14  1  0
 14 15  1  0
  6 16  1  0
 16 17  2  0
 17 18  1  0
 18 19  1  0
 19 20  2  0
 19 21  1  0
 21 22  2  0
 22 23  1  0
 23 24  1  0
 24 25  2  0
 24 26  2  0
 24 27  1  0
 27 28  1  0
 28 29  1  0
 29 30  1  0
 30 31  1  0
 31 32  1  0
 23 33  2  0
 33 34  1  0
 34 35  2  0
 35 36  1  0
 17  3  1  0
 35 21  1  0
 15 10  1  0
 32 27  1  0
  1 37  1  0
  1 38  1  0
  1 39  1  0
  4 40  1  0
  5 41  1  0
 11 42  1  0
 11 43  1  0
 12 44  1  0
 12 45  1  0
 13 46  1  0
 13 47  1  0
 14 48  1  0
 14 49  1  0
 15 50  1  0
 15 51  1  0
 16 52  1  0
 22 53  1  0
 28 54  1  0
 28 55  1  0
 29 56  1  0
 29 57  1  0
 30 58  1  0
 30 59  1  0
 31 60  1  0
 31 61  1  0
 32 62  1  0
 32 63  1  0
 33 64  1  0
 34 65  1  0
M  CHG  2  18  -1  36  -1
M  END
>  <UniqueID>  (8) 
7

>  <SMILES>  (8) 
COc1ccc(S(=O)(=O)N2CCCCC2)cc1[N-]C(=O)c1cc(S(=O)(=O)N2CCCCC2)ccc1[O-]

>  <Energy>  (8) 
84.41643706856566

>  <Genealogy>  (8) 
COc1ccc(S(=O)(=O)N2CCCCC2)cc1[N-]C(=O)c1cc(S(=O)(=O)N2CCCCC2)ccc1[O-] (protonated)
COc1ccc(S(=O)(=O)N2CCCCC2)cc1[N-]C(=O)c1cc(S(=O)(=O)N2CCCCC2)ccc1[O-] (3D coordinates assigned)
COc1ccc(S(=O)(=O)N2CCCCC2)cc1[N-]C(=O)c1cc(S(=O)(=O)N2CCCCC2)ccc1[O-] (nonaromatic ring conformer: 84.41643706856566 kcal/mol)

>  <smiles>  (8) 
COc1ccc(S(=O)(=O)N2CCCCC2)cc1NC(=O)c1cc(S(=O)(=O)N2CCCCC2)ccc1O

>  <score_type>  (8) 
oracle

>  <origin>  (8) 
adgpu

>  <m_score__min__energy>  (8) 
-15.35

>  <m_primary>  (8) 
energy

$$$$
8:0
     RDKit          3D

 67 70  0  0  0  0  0  0  0  0999 V2000
    0.3330   18.4110  -35.3360 C   0  0  0  0  0  0  0  0  0  0  0  0
   -0.8580   19.0680  -34.6960 C   0  0  0  0  0  0  0  0  0  0  0  0
   -2.0130   18.3080  -34.4560 C   0  0  0  0  0  0  0  0  0  0  0  0
   -3.1550   18.8970  -33.8910 C   0  0  0  0  0  0  0  0  0  0  0  0
   -4.3750   18.0940  -33.6160 C   0  0  0  0  0  0  0  0  0  0  0  0
   -4.4970   16.7760  -34.0890 C   0  0  0  0  0  0  0  0  0  0  0  0
   -5.6430   16.0270  -33.8080 C   0  0  0  0  0  0  0  0  0  0  0  0
   -6.6840   16.5880  -33.0630 C   0  0  0  0  0  0  0  0  0  0  0  0
   -6.5920   17.9100  -32.6050 C   0  0  0  0  0  0  0  0  0  0  0  0
   -7.6740   18.4760  -31.8500 N   0  0  0  0  0  0  0  0  0  0  0  0
   -8.4070   19.9900  -32.2860 S   0  0  0  0  0  0  0  0  0  0  0  0
   -9.8000   20.0450  -31.7270 O   0  0  0  0  0  0  0  0  0  0  0  0
   -8.4890   20.0770  -33.7850 O   0  0  0  0  0  0  0  0  0  0  0  0
   -7.4850   21.3430  -31.6380 C   0  0  0  0  0  0  0  0  0  0  0  0
   -7.9220   22.0150  -30.4870 C   0  0  0  0  0  0  0  0  0  0  0  0
   -7.2370   23.1440  -30.0300 C   0  0  0  0  0  0  0  0  0  0  0  0
   -6.0950   23.5990  -30.7040 C   0  0  0  0  0  0  0  0  0  0  0  0
   -5.2280   25.0320  -30.1490 S   0  0  0  0  0  0  0  0  0  0  0  0
   -5.7420   26.2080  -30.9310 O   0  0  0  0  0  0  0  0  0  0  0  0
   -5.5240   25.2880  -28.6970 O   0  0  0  0  0  0  0  0  0  0  0  0
   -3.4990   24.9290  -30.3930 N   0  0  0  0  0  0  0  0  0  0  0  0
   -2.8220   23.7520  -29.8180 C   0  0  0  0  0  0  0  0  0  0  0  0
   -2.5730   22.6520  -30.8820 C   0  0  0  0  0  0  0  0  0  0  0  0
   -2.6900   21.2260  -30.3140 C   0  0  0  0  0  0  0  0  0  0  0  0
   -2.0130   21.1240  -28.9410 C   0  0  0  0  0  0  0  0  0  0  0  0
   -2.6200   22.0930  -27.9010 C   0  0  0  0  0  0  0  0  0  0  0  0
   -3.4690   23.2160  -28.5240 C   0  0  0  0  0  0  0  0  0  0  0  0
   -5.6630   22.9290  -31.8580 C   0  0  0  0  0  0  0  0  0  0  0  0
   -6.3530   21.8040  -32.3210 C   0  0  0  0  0  0  0  0  0  0  0  0
   -5.4270   18.6470  -32.8660 C   0  0  0  0  0  0  0  0  0  0  0  0
   -3.1100   20.2630  -33.5760 C   0  0  0  0  0  0  0  0  0  0  0  0
   -1.9780   20.9790  -33.7870 N   0  0  0  0  0  0  0  0  0  0  0  0
   -0.8490   20.4280  -34.3140 C   0  0  0  0  0  0  0  0  0  0  0  0
    0.3190   21.2550  -34.4650 N   0  0  0  0  0  0  0  0  0  0  0  0
    1.5720   20.8240  -33.8400 C   0  0  0  0  0  0  0  0  0  0  0  0
    0.3850   22.2130  -35.5730 C   0  0  0  0  0  0  0  0  0  0  0  0
    1.0101   18.0375  -34.5537 H   0  0  0  0  0  0  0  0  0  0  0  0
   -0.0036   17.5710  -35.9613 H   0  0  0  0  0  0  0  0  0  0  0  0
    0.8640   19.1438  -35.9613 H   0  0  0  0  0  0  0  0  0  0  0  0
   -2.0236   17.2386  -34.7135 H   0  0  0  0  0  0  0  0  0  0  0  0
   -3.6856   16.3314  -34.6839 H   0  0  0  0  0  0  0  0  0  0  0  0
   -5.7259   14.9931  -34.1742 H   0  0  0  0  0  0  0  0  0  0  0  0
   -7.5788   15.9902  -32.8351 H   0  0  0  0  0  0  0  0  0  0  0  0
   -8.2220   17.8540  -31.2150 H   0  0  0  0  0  0  0  0  0  0  0  0
   -8.8063   21.6523  -29.9426 H   0  0  0  0  0  0  0  0  0  0  0  0
   -7.5954   23.6780  -29.1376 H   0  0  0  0  0  0  0  0  0  0  0  0
   -1.8339   24.1080  -29.4912 H   0  0  0  0  0  0  0  0  0  0  0  0
   -3.3128   22.7700  -31.6875 H   0  0  0  0  0  0  0  0  0  0  0  0
   -1.5431   22.7762  -31.2479 H   0  0  0  0  0  0  0  0  0  0  0  0
   -3.7538   20.9660  -30.2107 H   0  0  0  0  0  0  0  0  0  0  0  0
   -2.1889   20.5315  -31.0044 H   0  0  0  0  0  0  0  0  0  0  0  0
   -2.1247   20.0946  -28.5696 H   0  0  0  0  0  0  0  0  0  0  0  0
   -0.9557   21.3979  -29.0717 H   0  0  0  0  0  0  0  0  0  0  0  0
   -3.2580   21.5137  -27.2173 H   0  0  0  0  0  0  0  0  0  0  0  0
   -1.7790   22.5758  -27.3818 H   0  0  0  0  0  0  0  0  0  0  0  0
   -4.4686   22.8217  -28.7593 H   0  0  0  0  0  0  0  0  0  0  0  0
   -3.5383   24.0422  -27.8011 H   0  0  0  0  0  0  0  0  0  0  0  0
   -4.7774   23.2900  -32.4014 H   0  0  0  0  0  0  0  0  0  0  0  0
   -6.0056   21.2802  -33.2237 H   0  0  0  0  0  0  0  0  0  0  0  0
   -5.3357   19.6723  -32.4781 H   0  0  0  0  0  0  0  0  0  0  0  0
   -3.9985   20.7565  -33.1552 H   0  0  0  0  0  0  0  0  0  0  0  0
    1.4672   20.8600  -32.7456 H   0  0  0  0  0  0  0  0  0  0  0  0
    1.8026   19.7949  -34.1526 H   0  0  0  0  0  0  0  0  0  0  0  0
    2.3869   21.4935  -34.1526 H   0  0  0  0  0  0  0  0  0  0  0  0
    0.4554   23.2344  -35.1709 H   0  0  0  0  0  0  0  0  0  0  0  0
    1.2706   21.9999  -36.1897 H   0  0  0  0  0  0  0  0  0  0  0  0
   -0.5214   22.1234  -36.1897 H   0  0  0  0  0  0  0  0  0  0  0  0
  1  2  1  0
  2  3  2  0
  3  4  1  0
  4  5  1  0
  5  6  2  0
  6  7  1  0
  7  8  2  0
  8  9  1  0
  9 10  1  0
 10 11  1  0
 11 12  2  0
 11 13  2  0
 11 14  1  0
 14 15  2  0
 15 16  1  0
 16 17  2  0
 17 18  1  0
 18 19  2  0
 18 20  2  0
 18 21  1  0
 21 22  1  0
 22 23  1  0
 23 24  1  0
 24 25  1  0
 25 26  1  0
 26 27  1  0
 17 28  1  0
 28 29  2  0
  9 30  2  0
  4 31  2  0
 31 32  1  0
 32 33  2  0
 33 34  1  0
 34 35  1  0
 34 36  1  0
 33  2  1  0
 30  5  1  0
 29 14  1  0
 27 22  1  0
  1 37  1  0
  1 38  1  0
  1 39  1  0
  3 40  1  0
  6 41  1  0
  7 42  1  0
  8 43  1  0
 10 44  1  0
 15 45  1  0
 16 46  1  0
 22 47  1  0
 23 48  1  0
 23 49  1  0
 24 50  1  0
 24 51  1  0
 25 52  1  0
 25 53  1  0
 26 54  1  0
 26 55  1  0
 27 56  1  0
 27 57  1  0
 28 58  1  0
 29 59  1  0
 30 60  1  0
 31 61  1  0
 35 62  1  0
 35 63  1  0
 35 64  1  0
 36 65  1  0
 36 66  1  0
 36 67  1  0
M  CHG  1  21  -1
M  END
>  <UniqueID>  (9) 
8

>  <SMILES>  (9) 
Cc1cc(-c2cccc(NS(=O)(=O)c3ccc(S(=O)(=O)[N-]C4CCCCC4)cc3)c2)cnc1N(C)C

>  <Energy>  (9) 
89.64868813840528

>  <Genealogy>  (9) 
Cc1cc(-c2cccc(NS(=O)(=O)c3ccc(S(=O)(=O)[N-]C4CCCCC4)cc3)c2)cnc1N(C)C (protonated)
Cc1cc(-c2cccc(NS(=O)(=O)c3ccc(S(=O)(=O)[N-]C4CCCCC4)cc3)c2)cnc1N(C)C (3D coordinates assigned)
Cc1cc(-c2cccc(NS(=O)(=O)c3ccc(S(=O)(=O)[N-]C4CCCCC4)cc3)c2)cnc1N(C)C (nonaromatic ring conformer: 89.64868813840528 kcal/mol)

>  <smiles>  (9) 
Cc1cc(-c2cccc(NS(=O)(=O)c3ccc(S(=O)(=O)NC4CCCCC4)cc3)c2)cnc1N(C)C

>  <score_type>  (9) 
oracle

>  <origin>  (9) 
adgpu

>  <m_score__min__energy>  (9) 
-12.279999999999999

>  <m_primary>  (9) 
energy

$$$$
9:0
     RDKit          3D

 62 64  0  0  0  0  0  0  0  0999 V2000
   -1.9180   20.6360  -26.5820 C   0  0  0  0  0  0  0  0  0  0  0  0
   -1.9400   21.9330  -27.3380 C   0  0  0  0  0  0  0  0  0  0  0  0
   -0.7410   22.4980  -27.7860 C   0  0  0  0  0  0  0  0  0  0  0  0
   -0.7460   23.7300  -28.4490 C   0  0  0  0  0  0  0  0  0  0  0  0
   -1.9460   24.4140  -28.6530 C   0  0  0  0  0  0  0  0  0  0  0  0
   -1.9190   25.6550  -29.2770 O   0  0  0  0  0  0  0  0  0  0  0  0
   -3.1630   23.8520  -28.2190 C   0  0  0  0  0  0  0  0  0  0  0  0
   -4.4810   24.5420  -28.4830 C   0  0  0  0  0  0  0  0  0  0  0  0
   -4.8840   24.5560  -30.2330 S   0  0  0  0  0  0  0  0  0  0  0  0
   -6.3430   24.8850  -30.4050 O   0  0  0  0  0  0  0  0  0  0  0  0
   -4.0700   25.6510  -30.8600 O   0  0  0  0  0  0  0  0  0  0  0  0
   -4.5750   22.9530  -30.9450 C   0  0  0  0  0  0  0  0  0  0  0  0
   -3.2290   22.5980  -31.0890 C   0  0  0  0  0  0  0  0  0  0  0  0
   -2.8300   21.4330  -31.7510 C   0  0  0  0  0  0  0  0  0  0  0  0
   -1.0740   21.1310  -31.7840 S   0  0  0  0  0  0  0  0  0  0  0  0
   -0.4080   22.1930  -30.9540 O   0  0  0  0  0  0  0  0  0  0  0  0
   -0.4860   21.1920  -33.1620 O   0  0  0  0  0  0  0  0  0  0  0  0
   -0.7370   19.5700  -31.0760 N   0  0  0  0  0  0  0  0  0  0  0  0
   -0.6250   19.7000  -29.6140 C   0  0  0  0  0  0  0  0  0  0  0  0
    0.5050   19.0120  -31.6380 C   0  0  0  0  0  0  0  0  0  0  0  0
   -3.8250   20.5800  -32.2930 C   0  0  0  0  0  0  0  0  0  0  0  0
   -3.4680   19.1120  -33.2270 S   0  0  0  0  0  0  0  0  0  0  0  0
   -2.9810   19.5140  -34.5920 O   0  0  0  0  0  0  0  0  0  0  0  0
   -2.3780   18.3190  -32.5590 O   0  0  0  0  0  0  0  0  0  0  0  0
   -4.8950   18.0740  -33.3280 C   0  0  0  0  0  0  0  0  0  0  0  0
   -5.7160   17.9030  -32.2020 C   0  0  0  0  0  0  0  0  0  0  0  0
   -6.8580   17.1020  -32.2780 C   0  0  0  0  0  0  0  0  0  0  0  0
   -7.1920   16.4700  -33.4800 C   0  0  0  0  0  0  0  0  0  0  0  0
   -6.3740   16.6280  -34.6030 C   0  0  0  0  0  0  0  0  0  0  0  0
   -5.2220   17.4150  -34.5270 C   0  0  0  0  0  0  0  0  0  0  0  0
   -4.4380   17.5480  -35.6290 F   0  0  0  0  0  0  0  0  0  0  0  0
   -5.1770   20.9070  -32.1000 C   0  0  0  0  0  0  0  0  0  0  0  0
   -5.5730   22.0560  -31.4020 C   0  0  0  0  0  0  0  0  0  0  0  0
   -7.3090   22.2900  -31.0930 S   0  0  0  0  0  0  0  0  0  0  0  0
   -8.2630   20.8110  -31.4010 C   0  0  0  0  0  0  0  0  0  0  0  0
   -7.8410   23.3870  -31.9760 O   0  0  0  0  0  0  0  0  0  0  0  0
   -7.5170   22.6480  -29.6460 O   0  0  0  0  0  0  0  0  0  0  0  0
   -3.1480   22.6090  -27.5640 C   0  0  0  0  0  0  0  0  0  0  0  0
   -1.9215   20.8414  -25.5014 H   0  0  0  0  0  0  0  0  0  0  0  0
   -2.8062   20.0430  -26.8454 H   0  0  0  0  0  0  0  0  0  0  0  0
   -1.0102   20.0734  -26.8454 H   0  0  0  0  0  0  0  0  0  0  0  0
    0.2097   21.9713  -27.6162 H   0  0  0  0  0  0  0  0  0  0  0  0
    0.1990   24.1614  -28.8109 H   0  0  0  0  0  0  0  0  0  0  0  0
   -5.2763   24.0122  -27.9382 H   0  0  0  0  0  0  0  0  0  0  0  0
   -4.3969   25.5844  -28.1419 H   0  0  0  0  0  0  0  0  0  0  0  0
   -2.4578   23.2588  -30.6665 H   0  0  0  0  0  0  0  0  0  0  0  0
   -1.5350   18.9260  -31.2950 H   0  0  0  0  0  0  0  0  0  0  0  0
   -1.2694   18.9520  -29.1289 H   0  0  0  0  0  0  0  0  0  0  0  0
    0.4195   19.5363  -29.3103 H   0  0  0  0  0  0  0  0  0  0  0  0
   -0.9414   20.7088  -29.3103 H   0  0  0  0  0  0  0  0  0  0  0  0
    1.1751   18.7109  -30.8193 H   0  0  0  0  0  0  0  0  0  0  0  0
    0.2656   18.1349  -32.2572 H   0  0  0  0  0  0  0  0  0  0  0  0
    1.0018   19.7734  -32.2572 H   0  0  0  0  0  0  0  0  0  0  0  0
   -5.4589   18.4019  -31.2559 H   0  0  0  0  0  0  0  0  0  0  0  0
   -7.4952   16.9682  -31.3914 H   0  0  0  0  0  0  0  0  0  0  0  0
   -8.0978   15.8489  -33.5420 H   0  0  0  0  0  0  0  0  0  0  0  0
   -6.6380   16.1316  -35.5484 H   0  0  0  0  0  0  0  0  0  0  0  0
   -5.9499   20.2401  -32.5097 H   0  0  0  0  0  0  0  0  0  0  0  0
   -8.5557   20.3573  -30.4426 H   0  0  0  0  0  0  0  0  0  0  0  0
   -9.1651   21.0694  -31.9750 H   0  0  0  0  0  0  0  0  0  0  0  0
   -7.6556   20.0958  -31.9750 H   0  0  0  0  0  0  0  0  0  0  0  0
   -4.0938   22.1613  -27.2248 H   0  0  0  0  0  0  0  0  0  0  0  0
  1  2  1  0
  2  3  2  0
  3  4  1  0
  4  5  2  0
  5  6  1  0
  5  7  1  0
  7  8  1  0
  8  9  1  0
  9 10  2  0
  9 11  2  0
  9 12  1  0
 12 13  2  0
 13 14  1  0
 14 15  1  0
 15 16  2  0
 15 17  2  0
 15 18  1  0
 18 19  1  0
 18 20  1  0
 14 21  2  0
 21 22  1  0
 22 23  2  0
 22 24  2  0
 22 25  1  0
 25 26  2  0
 26 27  1  0
 27 28  2  0
 28 29  1  0
 29 30  2  0
 30 31  1  0
 21 32  1  0
 32 33  2  0
 33 34  1  0
 34 35  1  0
 34 36  2  0
 34 37  2  0
  7 38  2  0
 38  2  1  0
 33 12  1  0
 30 25  1  0
  1 39  1  0
  1 40  1  0
  1 41  1  0
  3 42  1  0
  4 43  1  0
  8 44  1  0
  8 45  1  0
 13 46  1  0
 18 47  1  0
 19 48  1  0
 19 49  1  0
 19 50  1  0
 20 51  1  0
 20 52  1  0
 20 53  1  0
 26 54  1  0
 27 55  1  0
 28 56  1  0
 29 57  1  0
 32 58  1  0
 35 59  1  0
 35 60  1  0
 35 61  1  0
 38 62  1  0
M  CHG  2   6  -1  18   1
M  END
>  <UniqueID>  (10) 
9

>  <SMILES>  (10) 
Cc1ccc([O-])c(CS(=O)(=O)c2cc(S(=O)(=O)[NH+](C)C)c(S(=O)(=O)c3ccccc3F)cc2S(C)(=O)=O)c1

>  <Energy>  (10) 
67.85542237427131

>  <Genealogy>  (10) 
Cc1ccc([O-])c(CS(=O)(=O)c2cc(S(=O)(=O)[NH+](C)C)c(S(=O)(=O)c3ccccc3F)cc2S(C)(=O)=O)c1 (protonated)
Cc1ccc([O-])c(CS(=O)(=O)c2cc(S(=O)(=O)[NH+](C)C)c(S(=O)(=O)c3ccccc3F)cc2S(C)(=O)=O)c1 (3D coordinates assigned)
Cc1ccc([O-])c(CS(=O)(=O)c2cc(S(=O)(=O)[NH+](C)C)c(S(=O)(=O)c3ccccc3F)cc2S(C)(=O)=O)c1 (optimized conformer: 67.85542237427131 kcal/mol)

>  <smiles>  (10) 
Cc1ccc(O)c(CS(=O)(=O)c2cc(S(=O)(=O)N(C)C)c(S(=O)(=O)c3ccccc3F)cc2S(C)(=O)=O)c1

>  <score_type>  (10) 
oracle

>  <origin>  (10) 
adgpu

>  <m_score__min__energy>  (10) 
-13.699999999999999

>  <m_primary>  (10) 
energy

$$$$
10:0
     RDKit          3D

 30 31  0  0  0  0  0  0  0  0999 V2000
   -8.5076   24.3196  -31.7806 H   0  0  0  0  0  0  0  0  0  0  0  0
   -8.0330   23.3300  -31.7070 C   0  0  0  0  0  0  0  0  0  0  0  0
   -8.7960   22.2570  -31.9700 C   0  0  0  0  0  0  0  0  0  0  0  0
   -9.8746   22.4231  -32.1077 H   0  0  0  0  0  0  0  0  0  0  0  0
   -8.2990   20.8690  -32.0890 C   0  0  0  0  0  0  0  0  0  0  0  0
   -8.8290   19.8770  -31.2500 C   0  0  0  0  0  0  0  0  0  0  0  0
   -9.6037   20.1382  -30.5141 H   0  0  0  0  0  0  0  0  0  0  0  0
   -8.3760   18.5580  -31.3460 C   0  0  0  0  0  0  0  0  0  0  0  0
   -8.7855   17.7876  -30.6760 H   0  0  0  0  0  0  0  0  0  0  0  0
   -7.4050   18.2150  -32.2900 C   0  0  0  0  0  0  0  0  0  0  0  0
   -7.0440   17.1780  -32.3563 H   0  0  0  0  0  0  0  0  0  0  0  0
   -6.8920   19.1910  -33.1510 C   0  0  0  0  0  0  0  0  0  0  0  0
   -5.6580   18.7500  -34.3770 S   0  0  0  0  0  0  0  0  0  0  0  0
   -4.3020   19.5700  -33.4810 C   0  0  0  0  0  0  0  0  0  0  0  0
   -4.4657   19.4710  -32.3978 H   0  0  0  0  0  0  0  0  0  0  0  0
   -3.3457   19.0987  -33.7519 H   0  0  0  0  0  0  0  0  0  0  0  0
   -4.2752   20.6358  -33.7519 H   0  0  0  0  0  0  0  0  0  0  0  0
   -7.3500   20.5110  -33.0640 C   0  0  0  0  0  0  0  0  0  0  0  0
   -6.9665   21.2711  -33.7605 H   0  0  0  0  0  0  0  0  0  0  0  0
   -6.6040   23.2860  -31.3260 C   0  0  0  0  0  0  0  0  0  0  0  0
   -5.9530   22.0700  -31.0490 C   0  0  0  0  0  0  0  0  0  0  0  0
   -6.5066   21.1227  -31.1281 H   0  0  0  0  0  0  0  0  0  0  0  0
   -4.6070   22.0590  -30.6740 C   0  0  0  0  0  0  0  0  0  0  0  0
   -3.9670   20.8530  -30.4180 O   0  0  0  0  0  0  0  0  0  0  0  0
   -3.9040   23.2620  -30.5540 C   0  0  0  0  0  0  0  0  0  0  0  0
   -2.8418   23.2519  -30.2684 H   0  0  0  0  0  0  0  0  0  0  0  0
   -4.5510   24.4780  -30.7970 C   0  0  0  0  0  0  0  0  0  0  0  0
   -3.8560   25.6720  -30.6650 O   0  0  0  0  0  0  0  0  0  0  0  0
   -5.9000   24.4910  -31.1720 C   0  0  0  0  0  0  0  0  0  0  0  0
   -6.4105   25.4496  -31.3467 H   0  0  0  0  0  0  0  0  0  0  0  0
  1  2  1  0
  2  3  2  0
  3  4  1  0
  3  5  1  0
  5  6  2  0
  6  7  1  0
  6  8  1  0
  8  9  1  0
  8 10  2  0
 10 11  1  0
 10 12  1  0
 12 13  1  0
 13 14  1  0
 14 15  1  0
 14 16  1  0
 14 17  1  0
 12 18  2  0
 18 19  1  0
  2 20  1  0
 20 21  2  0
 21 22  1  0
 21 23  1  0
 23 24  1  0
 23 25  2  0
 25 26  1  0
 25 27  1  0
 27 28  1  0
 27 29  2  0
 29 30  1  0
 18  5  1  0
 29 20  1  0
M  CHG  2  24  -1  28  -1
M  END
>  <UniqueID>  (11) 
10

>  <SMILES>  (11) 
CSc1cccc(/C=C\c2cc([O-])cc([O-])c2)c1

>  <Energy>  (11) 
34.75051979919721

>  <Genealogy>  (11) 
CSc1cccc(C=Cc2cc([O-])cc([O-])c2)c1 (protonated)
CSc1cccc(/C=C\c2cc([O-])cc([O-])c2)c1 (cis-trans isomerization)
CSc1cccc(/C=C\c2cc([O-])cc([O-])c2)c1 (3D coordinates assigned)
CSc1cccc(/C=C\c2cc([O-])cc([O-])c2)c1 (optimized conformer: 34.75051979919721 kcal/mol)

>  <smiles>  (11) 
CSc1cccc(C=Cc2cc(O)cc(O)c2)c1

>  <score_type>  (11) 
oracle

>  <origin>  (11) 
adgpu

>  <m_score__min__energy>  (11) 
-10.859999999999999

>  <m_primary>  (11) 
energy

$$$$
11:0
     RDKit          3D

 62 65  0  0  0  0  0  0  0  0999 V2000
   -0.9320   19.6130  -34.9020 O   0  0  0  0  0  0  0  0  0  0  0  0
   -1.6100   19.1090  -33.9710 C   0  0  0  0  0  0  0  0  0  0  0  0
   -1.6340   17.6880  -33.8150 N   0  0  0  0  0  0  0  0  0  0  0  0
   -3.0030   16.7120  -34.2370 S   0  0  0  0  0  0  0  0  0  0  0  0
   -2.8300   15.3330  -33.6660 O   0  0  0  0  0  0  0  0  0  0  0  0
   -3.1040   16.6140  -35.7330 O   0  0  0  0  0  0  0  0  0  0  0  0
   -4.4660   17.4740  -33.6190 C   0  0  0  0  0  0  0  0  0  0  0  0
   -5.0990   18.4710  -34.3720 C   0  0  0  0  0  0  0  0  0  0  0  0
   -6.2430   19.1040  -33.8810 C   0  0  0  0  0  0  0  0  0  0  0  0
   -6.7650   18.7480  -32.6290 C   0  0  0  0  0  0  0  0  0  0  0  0
   -8.2360   19.5210  -32.0280 S   0  0  0  0  0  0  0  0  0  0  0  0
   -9.2990   19.4410  -33.0870 O   0  0  0  0  0  0  0  0  0  0  0  0
   -8.7240   18.7660  -30.8230 O   0  0  0  0  0  0  0  0  0  0  0  0
   -7.9940   21.1950  -31.5920 N   0  0  0  0  0  0  0  0  0  0  0  0
   -9.2260   21.9860  -31.6690 C   0  0  0  0  0  0  0  0  0  0  0  0
   -8.8080   23.4240  -31.9620 C   0  0  0  0  0  0  0  0  0  0  0  0
   -7.3390   23.3500  -32.3600 C   0  0  0  0  0  0  0  0  0  0  0  0
   -7.0400   21.8660  -32.4720 C   0  0  0  0  0  0  0  0  0  0  0  0
   -6.1350   17.7450  -31.8790 C   0  0  0  0  0  0  0  0  0  0  0  0
   -4.9910   17.1110  -32.3710 C   0  0  0  0  0  0  0  0  0  0  0  0
   -2.3600   19.9960  -33.0670 C   0  0  0  0  0  0  0  0  0  0  0  0
   -3.1460   21.0330  -33.5890 C   0  0  0  0  0  0  0  0  0  0  0  0
   -3.8270   21.8980  -32.7260 C   0  0  0  0  0  0  0  0  0  0  0  0
   -3.7130   21.7510  -31.3370 C   0  0  0  0  0  0  0  0  0  0  0  0
   -4.4940   22.9080  -30.2490 S   0  0  0  0  0  0  0  0  0  0  0  0
   -4.5970   24.2330  -30.9540 O   0  0  0  0  0  0  0  0  0  0  0  0
   -5.8890   22.4390  -29.9440 O   0  0  0  0  0  0  0  0  0  0  0  0
   -3.6360   23.0960  -28.7340 N   0  0  0  0  0  0  0  0  0  0  0  0
   -2.1680   23.1930  -28.9280 C   0  0  0  0  0  0  0  0  0  0  0  0
   -1.6180   24.6030  -28.6670 C   0  0  0  0  0  0  0  0  0  0  0  0
   -1.9710   25.0930  -27.2520 C   0  0  0  0  0  0  0  0  0  0  0  0
   -3.3220   24.5500  -26.7500 C   0  0  0  0  0  0  0  0  0  0  0  0
   -4.2340   24.1730  -27.9190 C   0  0  0  0  0  0  0  0  0  0  0  0
   -2.9250   20.7130  -30.8170 C   0  0  0  0  0  0  0  0  0  0  0  0
   -2.2610   19.8340  -31.6780 C   0  0  0  0  0  0  0  0  0  0  0  0
   -4.6935   18.7565  -35.3539 H   0  0  0  0  0  0  0  0  0  0  0  0
   -6.7364   19.8847  -34.4785 H   0  0  0  0  0  0  0  0  0  0  0  0
   -7.6290   21.2270  -30.6090 H   0  0  0  0  0  0  0  0  0  0  0  0
   -9.8699   21.6067  -32.4762 H   0  0  0  0  0  0  0  0  0  0  0  0
   -9.7949   21.9236  -30.7296 H   0  0  0  0  0  0  0  0  0  0  0  0
   -9.4086   23.8384  -32.7852 H   0  0  0  0  0  0  0  0  0  0  0  0
   -8.9616   24.0783  -31.0912 H   0  0  0  0  0  0  0  0  0  0  0  0
   -7.1734   23.8522  -33.3246 H   0  0  0  0  0  0  0  0  0  0  0  0
   -6.6860   23.8504  -31.6298 H   0  0  0  0  0  0  0  0  0  0  0  0
   -7.1733   21.5266  -33.5098 H   0  0  0  0  0  0  0  0  0  0  0  0
   -6.0017   21.6417  -32.1861 H   0  0  0  0  0  0  0  0  0  0  0  0
   -6.5429   17.4559  -30.8992 H   0  0  0  0  0  0  0  0  0  0  0  0
   -4.5012   16.3250  -31.7774 H   0  0  0  0  0  0  0  0  0  0  0  0
   -3.2272   21.1665  -34.6778 H   0  0  0  0  0  0  0  0  0  0  0  0
   -4.4564   22.6992  -33.1406 H   0  0  0  0  0  0  0  0  0  0  0  0
   -1.6765   22.4920  -28.2373 H   0  0  0  0  0  0  0  0  0  0  0  0
   -1.9592   22.9489  -29.9800 H   0  0  0  0  0  0  0  0  0  0  0  0
   -0.5236   24.5857  -28.7766 H   0  0  0  0  0  0  0  0  0  0  0  0
   -2.0736   25.2912  -29.3942 H   0  0  0  0  0  0  0  0  0  0  0  0
   -1.1816   24.7649  -26.5597 H   0  0  0  0  0  0  0  0  0  0  0  0
   -2.0500   26.1894  -27.2922 H   0  0  0  0  0  0  0  0  0  0  0  0
   -3.1431   23.6578  -26.1320 H   0  0  0  0  0  0  0  0  0  0  0  0
   -3.8168   25.3362  -26.1609 H   0  0  0  0  0  0  0  0  0  0  0  0
   -5.2013   23.8295  -27.5237 H   0  0  0  0  0  0  0  0  0  0  0  0
   -4.3695   25.0592  -28.5563 H   0  0  0  0  0  0  0  0  0  0  0  0
   -2.8293   20.5904  -29.7281 H   0  0  0  0  0  0  0  0  0  0  0  0
   -1.6585   19.0121  -31.2639 H   0  0  0  0  0  0  0  0  0  0  0  0
  1  2  2  0
  2  3  1  0
  3  4  1  0
  4  5  2  0
  4  6  2  0
  4  7  1  0
  7  8  2  0
  8  9  1  0
  9 10  2  0
 10 11  1  0
 11 12  2  0
 11 13  2  0
 11 14  1  0
 14 15  1  0
 15 16  1  0
 16 17  1  0
 17 18  1  0
 10 19  1  0
 19 20  2  0
  2 21  1  0
 21 22  2  0
 22 23  1  0
 23 24  2  0
 24 25  1  0
 25 26  2  0
 25 27  2  0
 25 28  1  0
 28 29  1  0
 29 30  1  0
 30 31  1  0
 31 32  1  0
 32 33  1  0
 24 34  1  0
 34 35  2  0
 20  7  1  0
 35 21  1  0
 18 14  1  0
 33 28  1  0
  8 36  1  0
  9 37  1  0
 14 38  1  0
 15 39  1  0
 15 40  1  0
 16 41  1  0
 16 42  1  0
 17 43  1  0
 17 44  1  0
 18 45  1  0
 18 46  1  0
 19 47  1  0
 20 48  1  0
 22 49  1  0
 23 50  1  0
 29 51  1  0
 29 52  1  0
 30 53  1  0
 30 54  1  0
 31 55  1  0
 31 56  1  0
 32 57  1  0
 32 58  1  0
 33 59  1  0
 33 60  1  0
 34 61  1  0
 35 62  1  0
M  CHG  2   3  -1  14   1
M  END
>  <UniqueID>  (12) 
11

>  <SMILES>  (12) 
O=C([N-]S(=O)(=O)c1ccc(S(=O)(=O)[NH+]2CCCC2)cc1)c1ccc(S(=O)(=O)N2CCCCC2)cc1

>  <Energy>  (12) 
72.01591949013593

>  <Genealogy>  (12) 
O=C([N-]S(=O)(=O)c1ccc(S(=O)(=O)[NH+]2CCCC2)cc1)c1ccc(S(=O)(=O)N2CCCCC2)cc1 (protonated)
O=C([N-]S(=O)(=O)c1ccc(S(=O)(=O)[NH+]2CCCC2)cc1)c1ccc(S(=O)(=O)N2CCCCC2)cc1 (3D coordinates assigned)
O=C([N-]S(=O)(=O)c1ccc(S(=O)(=O)[NH+]2CCCC2)cc1)c1ccc(S(=O)(=O)N2CCCCC2)cc1 (nonaromatic ring conformer: 72.01591949013593 kcal/mol)

>  <smiles>  (12) 
O=C(NS(=O)(=O)c1ccc(S(=O)(=O)N2CCCC2)cc1)c1ccc(S(=O)(=O)N2CCCCC2)cc1

>  <score_type>  (12) 
oracle

>  <origin>  (12) 
adgpu

>  <m_score__min__energy>  (12) 
-12.6

>  <m_primary>  (12) 
energy

$$$$
12:0
     RDKit          3D

 50 52  0  0  0  0  0  0  0  0999 V2000
   -8.4350   22.6890  -31.4700 C   0  0  0  0  0  0  0  0  0  0  0  0
   -7.1330   23.3800  -31.1990 C   0  0  0  0  0  0  0  0  0  0  0  0
   -7.1010   24.5730  -30.4630 C   0  0  0  0  0  0  0  0  0  0  0  0
   -5.8810   25.1990  -30.1950 C   0  0  0  0  0  0  0  0  0  0  0  0
   -4.6810   24.6280  -30.6320 C   0  0  0  0  0  0  0  0  0  0  0  0
   -3.4920   25.3130  -30.4150 O   0  0  0  0  0  0  0  0  0  0  0  0
   -4.6980   23.3950  -31.3120 C   0  0  0  0  0  0  0  0  0  0  0  0
   -3.5010   22.7240  -31.7220 N   0  0  0  0  0  0  0  0  0  0  0  0
   -3.4230   21.1030  -32.3380 S   0  0  0  0  0  0  0  0  0  0  0  0
   -3.4430   21.1040  -33.8390 O   0  0  0  0  0  0  0  0  0  0  0  0
   -4.6140   20.3380  -31.8350 O   0  0  0  0  0  0  0  0  0  0  0  0
   -1.9190   20.3530  -31.7860 C   0  0  0  0  0  0  0  0  0  0  0  0
   -0.9650   21.1430  -31.1240 C   0  0  0  0  0  0  0  0  0  0  0  0
    0.2630   20.6020  -30.7400 C   0  0  0  0  0  0  0  0  0  0  0  0
    0.5620   19.2730  -31.0300 C   0  0  0  0  0  0  0  0  0  0  0  0
   -0.3760   18.4730  -31.6860 C   0  0  0  0  0  0  0  0  0  0  0  0
   -1.6290   18.9930  -32.0420 C   0  0  0  0  0  0  0  0  0  0  0  0
   -2.8070   17.8940  -32.8610 S   0  0  0  0  0  0  0  0  0  0  0  0
   -2.4010   18.4270  -34.5620 C   0  0  0  0  0  0  0  0  0  0  0  0
   -1.1510   17.7560  -35.0520 C   0  0  0  0  0  0  0  0  0  0  0  0
   -1.0480   16.5060  -34.9370 O   0  0  0  0  0  0  0  0  0  0  0  0
   -0.0350   18.4960  -35.5710 N   0  0  0  0  0  0  0  0  0  0  0  0
    1.1850   18.8010  -34.8740 C   0  0  0  0  0  0  0  0  0  0  0  0
    1.9680   17.7730  -34.3180 C   0  0  0  0  0  0  0  0  0  0  0  0
    3.1510   18.0690  -33.6380 C   0  0  0  0  0  0  0  0  0  0  0  0
    3.5440   19.3940  -33.4670 C   0  0  0  0  0  0  0  0  0  0  0  0
    2.7490   20.4300  -33.9660 C   0  0  0  0  0  0  0  0  0  0  0  0
    1.5670   20.1450  -34.6670 C   0  0  0  0  0  0  0  0  0  0  0  0
    0.5700   21.4890  -35.2380 S   0  0  0  0  0  0  0  0  0  0  0  0
   -0.7380   21.7410  -34.1390 N   0  0  0  0  0  0  0  0  0  0  0  0
    0.0200   21.1940  -36.6050 O   0  0  0  0  0  0  0  0  0  0  0  0
    1.4010   22.7410  -35.3180 O   0  0  0  0  0  0  0  0  0  0  0  0
   -5.9260   22.7940  -31.6130 C   0  0  0  0  0  0  0  0  0  0  0  0
   -8.9192   22.4320  -30.5163 H   0  0  0  0  0  0  0  0  0  0  0  0
   -9.0918   23.3572  -32.0463 H   0  0  0  0  0  0  0  0  0  0  0  0
   -8.2497   21.7706  -32.0463 H   0  0  0  0  0  0  0  0  0  0  0  0
   -8.0381   25.0169  -30.0959 H   0  0  0  0  0  0  0  0  0  0  0  0
   -5.8640   26.1468  -29.6369 H   0  0  0  0  0  0  0  0  0  0  0  0
   -1.1877   22.1980  -30.9061 H   0  0  0  0  0  0  0  0  0  0  0  0
    0.9957   21.2262  -30.2075 H   0  0  0  0  0  0  0  0  0  0  0  0
    1.5373   18.8534  -30.7422 H   0  0  0  0  0  0  0  0  0  0  0  0
   -0.1304   17.4278  -31.9252 H   0  0  0  0  0  0  0  0  0  0  0  0
   -3.2351   18.1654  -35.2297 H   0  0  0  0  0  0  0  0  0  0  0  0
   -2.2366   19.5146  -34.5586 H   0  0  0  0  0  0  0  0  0  0  0  0
    1.6453   16.7264  -34.4199 H   0  0  0  0  0  0  0  0  0  0  0  0
    3.7730   17.2551  -33.2371 H   0  0  0  0  0  0  0  0  0  0  0  0
    4.4807   19.6256  -32.9389 H   0  0  0  0  0  0  0  0  0  0  0  0
    3.0519   21.4756  -33.8082 H   0  0  0  0  0  0  0  0  0  0  0  0
   -1.6200   21.6640  -34.6960 H   0  0  0  0  0  0  0  0  0  0  0  0
   -5.9456   21.8518  -32.1804 H   0  0  0  0  0  0  0  0  0  0  0  0
  1  2  1  0
  2  3  2  0
  3  4  1  0
  4  5  2  0
  5  6  1  0
  5  7  1  0
  7  8  1  0
  8  9  1  0
  9 10  2  0
  9 11  2  0
  9 12  1  0
 12 13  2  0
 13 14  1  0
 14 15  2  0
 15 16  1  0
 16 17  2  0
 17 18  1  0
 18 19  1  0
 19 20  1  0
 20 21  2  0
 20 22  1  0
 22 23  1  0
 23 24  2  0
 24 25  1  0
 25 26  2  0
 26 27  1  0
 27 28  2  0
 28 29  1  0
 29 30  1  0
 29 31  2  0
 29 32  2  0
  7 33  2  0
 33  2  1  0
 17 12  1  0
 28 23  1  0
  1 34  1  0
  1 35  1  0
  1 36  1  0
  3 37  1  0
  4 38  1  0
 13 39  1  0
 14 40  1  0
 15 41  1  0
 16 42  1  0
 19 43  1  0
 19 44  1  0
 24 45  1  0
 25 46  1  0
 26 47  1  0
 27 48  1  0
 30 49  1  0
 33 50  1  0
M  CHG  4   6  -1   8  -1  22  -1  30  -1
M  END
>  <UniqueID>  (13) 
12

>  <SMILES>  (13) 
Cc1ccc([O-])c([N-]S(=O)(=O)c2ccccc2SCC(=O)[N-]c2ccccc2S([NH-])(=O)=O)c1

>  <Energy>  (13) 
61.41377826721579

>  <Genealogy>  (13) 
Cc1ccc([O-])c([N-]S(=O)(=O)c2ccccc2SCC(=O)[N-]c2ccccc2S([NH-])(=O)=O)c1 (protonated)
Cc1ccc([O-])c([N-]S(=O)(=O)c2ccccc2SCC(=O)[N-]c2ccccc2S([NH-])(=O)=O)c1 (3D coordinates assigned)
Cc1ccc([O-])c([N-]S(=O)(=O)c2ccccc2SCC(=O)[N-]c2ccccc2S([NH-])(=O)=O)c1 (optimized conformer: 61.41377826721579 kcal/mol)

>  <smiles>  (13) 
Cc1ccc(O)c(NS(=O)(=O)c2ccccc2SCC(=O)Nc2ccccc2S(N)(=O)=O)c1

>  <score_type>  (13) 
oracle

>  <origin>  (13) 
adgpu

>  <m_score__min__energy>  (13) 
-14.300000000000001

>  <m_primary>  (13) 
energy

$$$$
13:0
     RDKit          3D

 42 44  0  0  0  0  0  0  0  0999 V2000
   -4.8480   25.7160  -29.6220 H   0  0  0  0  0  0  0  0  0  0  0  0
   -4.2410   25.2190  -30.2630 O   0  0  0  0  0  0  0  0  0  0  0  0
   -3.0730   24.6170  -29.8100 C   0  0  0  0  0  0  0  0  0  0  0  0
   -2.0120   25.2960  -29.3420 N   0  0  0  0  0  0  0  0  0  0  0  0
   -1.1400   24.3100  -29.0420 C   0  0  0  0  0  0  0  0  0  0  0  0
    0.0040   24.5370  -28.5690 O   0  0  0  0  0  0  0  0  0  0  0  0
   -1.5880   23.0620  -29.2950 N   0  0  0  0  0  0  0  0  0  0  0  0
   -2.8290   23.2640  -29.7730 C   0  0  0  0  0  0  0  0  0  0  0  0
   -3.7490   22.2140  -30.2650 C   0  0  0  0  0  0  0  0  0  0  0  0
   -4.5518   21.8884  -29.5871 H   0  0  0  0  0  0  0  0  0  0  0  0
   -3.6840   21.6220  -31.4790 C   0  0  0  0  0  0  0  0  0  0  0  0
   -2.6900   21.7940  -32.4230 C   0  0  0  0  0  0  0  0  0  0  0  0
   -1.8461   22.4944  -32.3382 H   0  0  0  0  0  0  0  0  0  0  0  0
   -2.9160   20.9720  -33.4600 N   0  0  0  0  0  0  0  0  0  0  0  0
   -4.0480   20.3040  -33.1520 C   0  0  0  0  0  0  0  0  0  0  0  0
   -4.5120   19.3610  -34.0010 C   0  0  0  0  0  0  0  0  0  0  0  0
   -3.9514   19.2350  -34.9390 H   0  0  0  0  0  0  0  0  0  0  0  0
   -5.7070   18.4610  -33.8150 C   0  0  0  0  0  0  0  0  0  0  0  0
   -6.2204   18.3492  -34.7814 H   0  0  0  0  0  0  0  0  0  0  0  0
   -6.3648   18.9230  -33.0640 H   0  0  0  0  0  0  0  0  0  0  0  0
   -5.3090   17.0690  -33.3020 C   0  0  0  0  0  0  0  0  0  0  0  0
   -5.3547   17.0714  -32.2030 H   0  0  0  0  0  0  0  0  0  0  0  0
   -4.2918   16.8572  -33.6633 H   0  0  0  0  0  0  0  0  0  0  0  0
   -6.2290   15.9670  -33.8290 C   0  0  0  0  0  0  0  0  0  0  0  0
   -6.6786   15.4284  -32.9818 H   0  0  0  0  0  0  0  0  0  0  0  0
   -7.0245   16.4155  -34.4421 H   0  0  0  0  0  0  0  0  0  0  0  0
   -5.6456   15.2644  -34.4421 H   0  0  0  0  0  0  0  0  0  0  0  0
   -4.5620   20.6900  -31.9420 N   0  0  0  0  0  0  0  0  0  0  0  0
   -5.8050   20.2630  -31.2710 C   0  0  0  0  0  0  0  0  0  0  0  0
   -6.0772   19.2632  -31.6403 H   0  0  0  0  0  0  0  0  0  0  0  0
   -5.6110   20.2617  -30.1882 H   0  0  0  0  0  0  0  0  0  0  0  0
   -6.9680   21.2050  -31.5230 C   0  0  0  0  0  0  0  0  0  0  0  0
   -6.7630   22.5950  -31.6420 C   0  0  0  0  0  0  0  0  0  0  0  0
   -5.7491   23.0072  -31.5322 H   0  0  0  0  0  0  0  0  0  0  0  0
   -7.8350   23.4540  -31.8980 C   0  0  0  0  0  0  0  0  0  0  0  0
   -7.6638   24.5379  -31.9742 H   0  0  0  0  0  0  0  0  0  0  0  0
   -9.1210   22.9400  -32.0570 C   0  0  0  0  0  0  0  0  0  0  0  0
   -9.9642   23.6190  -32.2520 H   0  0  0  0  0  0  0  0  0  0  0  0
   -9.3390   21.5660  -31.9690 C   0  0  0  0  0  0  0  0  0  0  0  0
  -10.3543   21.1640  -32.1014 H   0  0  0  0  0  0  0  0  0  0  0  0
   -8.2730   20.6940  -31.7130 C   0  0  0  0  0  0  0  0  0  0  0  0
   -8.6190   18.9680  -31.6440 Cl  0  0  0  0  0  0  0  0  0  0  0  0
  1  2  1  0
  2  3  1  0
  3  4  1  0
  4  5  1  0
  5  6  2  0
  5  7  1  0
  7  8  1  0
  8  9  1  0
  9 10  1  0
  9 11  2  0
 11 12  1  0
 12 13  1  0
 12 14  2  0
 14 15  1  0
 15 16  2  0
 16 17  1  0
 16 18  1  0
 18 19  1  0
 18 20  1  0
 18 21  1  0
 21 22  1  0
 21 23  1  0
 21 24  1  0
 24 25  1  0
 24 26  1  0
 24 27  1  0
 15 28  1  0
 28 29  1  0
 29 30  1  0
 29 31  1  0
 29 32  1  0
 32 33  2  0
 33 34  1  0
 33 35  1  0
 35 36  1  0
 35 37  2  0
 37 38  1  0
 37 39  1  0
 39 40  1  0
 39 41  2  0
 41 42  1  0
  8  3  2  0
 28 11  1  0
 41 32  1  0
M  CHG  2   4  -1   7  -1
M  END
>  <UniqueID>  (14) 
13

>  <SMILES>  (14) 
CCC/C=c1/nc/c(=C\c2[n-]c(=O)[n-]c2O)n1Cc1ccccc1Cl

>  <Energy>  (14) 
112.05708947948241

>  <Genealogy>  (14) 
CCCC=c1ncc(=Cc2[n-]c(=O)[n-]c2O)n1Cc1ccccc1Cl (protonated)
CCC/C=c1/nc/c(=C\c2[n-]c(=O)[n-]c2O)n1Cc1ccccc1Cl (cis-trans isomerization)
CCC/C=c1/nc/c(=C\c2[n-]c(=O)[n-]c2O)n1Cc1ccccc1Cl (3D coordinates assigned)
CCC/C=c1/nc/c(=C\c2[n-]c(=O)[n-]c2O)n1Cc1ccccc1Cl (optimized conformer: 112.05708947948241 kcal/mol)

>  <smiles>  (14) 
CCCC=c1ncc(=Cc2[nH]c(=O)[nH]c2O)n1Cc1ccccc1Cl

>  <score_type>  (14) 
oracle

>  <origin>  (14) 
adgpu

>  <m_score__min__energy>  (14) 
-11.9

>  <m_primary>  (14) 
energy

$$$$
14:0
     RDKit          3D

 31 32  0  0  0  0  0  0  0  0999 V2000
   -1.3730   23.0500  -30.0620 C   0  0  0  0  0  0  0  0  0  0  0  0
   -2.8080   23.0040  -30.5080 C   0  0  0  0  0  0  0  0  0  0  0  0
   -3.3300   21.8370  -31.0890 C   0  0  0  0  0  0  0  0  0  0  0  0
   -4.6660   21.7850  -31.5210 C   0  0  0  0  0  0  0  0  0  0  0  0
   -5.2130   20.5450  -32.1290 C   0  0  0  0  0  0  0  0  0  0  0  0
   -6.4120   19.9890  -31.6560 C   0  0  0  0  0  0  0  0  0  0  0  0
   -6.9280   18.8240  -32.2270 C   0  0  0  0  0  0  0  0  0  0  0  0
   -6.2580   18.1870  -33.2830 C   0  0  0  0  0  0  0  0  0  0  0  0
   -6.8490   16.9560  -33.8530 C   0  0  0  0  0  0  0  0  0  0  0  0
   -6.1310   16.0030  -34.2580 O   0  0  0  0  0  0  0  0  0  0  0  0
   -5.0510   18.7390  -33.7640 C   0  0  0  0  0  0  0  0  0  0  0  0
   -4.3570   18.1300  -34.8100 O   0  0  0  0  0  0  0  0  0  0  0  0
   -4.5400   19.9100  -33.1860 C   0  0  0  0  0  0  0  0  0  0  0  0
   -5.4770   22.9220  -31.3680 C   0  0  0  0  0  0  0  0  0  0  0  0
   -4.9650   24.0990  -30.8010 C   0  0  0  0  0  0  0  0  0  0  0  0
   -5.8480   25.3040  -30.6330 C   0  0  0  0  0  0  0  0  0  0  0  0
   -3.6290   24.1360  -30.3680 C   0  0  0  0  0  0  0  0  0  0  0  0
   -3.1150   25.2980  -29.7970 O   0  0  0  0  0  0  0  0  0  0  0  0
   -1.3305   23.0514  -28.9628 H   0  0  0  0  0  0  0  0  0  0  0  0
   -0.8405   22.1685  -30.4484 H   0  0  0  0  0  0  0  0  0  0  0  0
   -0.8980   23.9638  -30.4484 H   0  0  0  0  0  0  0  0  0  0  0  0
   -2.6856   20.9534  -31.2073 H   0  0  0  0  0  0  0  0  0  0  0  0
   -6.9496   20.4752  -30.8286 H   0  0  0  0  0  0  0  0  0  0  0  0
   -7.8691   18.4012  -31.8454 H   0  0  0  0  0  0  0  0  0  0  0  0
   -7.9433   16.8706  -33.9250 H   0  0  0  0  0  0  0  0  0  0  0  0
   -4.4720   17.1460  -35.0230 H   0  0  0  0  0  0  0  0  0  0  0  0
   -3.5998   20.3369  -33.5653 H   0  0  0  0  0  0  0  0  0  0  0  0
   -6.5262   22.8891  -31.6967 H   0  0  0  0  0  0  0  0  0  0  0  0
   -5.9949   25.5044  -29.5614 H   0  0  0  0  0  0  0  0  0  0  0  0
   -5.3732   26.1755  -31.1073 H   0  0  0  0  0  0  0  0  0  0  0  0
   -6.8221   25.1138  -31.1073 H   0  0  0  0  0  0  0  0  0  0  0  0
  1  2  1  0
  2  3  2  0
  3  4  1  0
  4  5  1  0
  5  6  2  0
  6  7  1  0
  7  8  2  0
  8  9  1  0
  9 10  2  0
  8 11  1  0
 11 12  1  0
 11 13  2  0
  4 14  2  0
 14 15  1  0
 15 16  1  0
 15 17  2  0
 17 18  1  0
 17  2  1  0
 13  5  1  0
  1 19  1  0
  1 20  1  0
  1 21  1  0
  3 22  1  0
  6 23  1  0
  7 24  1  0
  9 25  1  0
 12 26  1  0
 13 27  1  0
 14 28  1  0
 16 29  1  0
 16 30  1  0
 16 31  1  0
M  CHG  1  18  -1
M  END
>  <UniqueID>  (15) 
14

>  <SMILES>  (15) 
Cc1cc(-c2ccc(C=O)c(O)c2)cc(C)c1[O-]

>  <Energy>  (15) 
37.68542898832074

>  <Genealogy>  (15) 
Cc1cc(-c2ccc(C=O)c(O)c2)cc(C)c1[O-] (protonated)
Cc1cc(-c2ccc(C=O)c(O)c2)cc(C)c1[O-] (3D coordinates assigned)
Cc1cc(-c2ccc(C=O)c(O)c2)cc(C)c1[O-] (optimized conformer: 37.68542898832074 kcal/mol)

>  <smiles>  (15) 
Cc1cc(-c2ccc(C=O)c(O)c2)cc(C)c1O

>  <score_type>  (15) 
oracle

>  <origin>  (15) 
adgpu

>  <m_score__min__energy>  (15) 
-9.1999999999999993

>  <m_primary>  (15) 
energy

$$$$
15:0
     RDKit          3D

 40 42  0  0  0  0  0  0  0  0999 V2000
   -0.4110   19.8910  -28.4480 C   0  0  0  0  0  0  0  0  0  0  0  0
   -1.4780   20.5510  -27.6960 N   0  0  0  0  0  0  0  0  0  0  0  0
   -1.6260   20.2500  -26.2710 C   0  0  0  0  0  0  0  0  0  0  0  0
   -2.0850   21.7270  -28.2600 C   0  0  0  0  0  0  0  0  0  0  0  0
   -3.2610   21.7280  -28.8350 O   0  0  0  0  0  0  0  0  0  0  0  0
   -3.5010   22.9610  -29.2230 C   0  0  0  0  0  0  0  0  0  0  0  0
   -4.7200   23.3830  -29.9490 C   0  0  0  0  0  0  0  0  0  0  0  0
   -5.7680   22.4540  -30.0980 C   0  0  0  0  0  0  0  0  0  0  0  0
   -6.9680   22.8250  -30.7070 C   0  0  0  0  0  0  0  0  0  0  0  0
   -7.1420   24.1270  -31.1750 C   0  0  0  0  0  0  0  0  0  0  0  0
   -6.1070   25.0560  -31.0530 C   0  0  0  0  0  0  0  0  0  0  0  0
   -4.8880   24.6950  -30.4630 C   0  0  0  0  0  0  0  0  0  0  0  0
   -3.8720   25.6510  -30.4400 O   0  0  0  0  0  0  0  0  0  0  0  0
   -2.4920   23.8070  -28.9150 N   0  0  0  0  0  0  0  0  0  0  0  0
   -1.5900   23.0180  -28.2990 C   0  0  0  0  0  0  0  0  0  0  0  0
   -0.1150   23.6490  -27.5790 S   0  0  0  0  0  0  0  0  0  0  0  0
    0.7370   24.2460  -28.6630 O   0  0  0  0  0  0  0  0  0  0  0  0
    0.6440   22.5160  -26.9450 O   0  0  0  0  0  0  0  0  0  0  0  0
   -0.4860   24.8440  -26.3420 C   0  0  0  0  0  0  0  0  0  0  0  0
   -1.0060   26.0950  -26.7070 C   0  0  0  0  0  0  0  0  0  0  0  0
   -1.2970   27.0490  -25.7270 C   0  0  0  0  0  0  0  0  0  0  0  0
   -1.0760   26.7560  -24.3780 C   0  0  0  0  0  0  0  0  0  0  0  0
   -0.5670   25.5090  -24.0080 C   0  0  0  0  0  0  0  0  0  0  0  0
   -0.2760   24.5520  -24.9870 C   0  0  0  0  0  0  0  0  0  0  0  0
    0.3099   19.4451  -27.7470 H   0  0  0  0  0  0  0  0  0  0  0  0
   -0.8427   19.1020  -29.0813 H   0  0  0  0  0  0  0  0  0  0  0  0
    0.1022   20.6296  -29.0813 H   0  0  0  0  0  0  0  0  0  0  0  0
   -1.2176   21.0805  -25.6765 H   0  0  0  0  0  0  0  0  0  0  0  0
   -2.6918   20.1179  -26.0329 H   0  0  0  0  0  0  0  0  0  0  0  0
   -1.0798   19.3254  -26.0329 H   0  0  0  0  0  0  0  0  0  0  0  0
   -5.6395   21.4252  -29.7306 H   0  0  0  0  0  0  0  0  0  0  0  0
   -7.7779   22.0889  -30.8179 H   0  0  0  0  0  0  0  0  0  0  0  0
   -8.0942   24.4220  -31.6400 H   0  0  0  0  0  0  0  0  0  0  0  0
   -6.2497   26.0818  -31.4237 H   0  0  0  0  0  0  0  0  0  0  0  0
   -3.1400   25.6740  -29.7450 H   0  0  0  0  0  0  0  0  0  0  0  0
   -1.1853   26.3260  -27.7674 H   0  0  0  0  0  0  0  0  0  0  0  0
   -1.7000   28.0304  -26.0176 H   0  0  0  0  0  0  0  0  0  0  0  0
   -1.3030   27.5077  -23.6077 H   0  0  0  0  0  0  0  0  0  0  0  0
   -0.3947   25.2789  -22.9462 H   0  0  0  0  0  0  0  0  0  0  0  0
    0.1185   23.5683  -24.6925 H   0  0  0  0  0  0  0  0  0  0  0  0
  1  2  1  0
  2  3  1  0
  2  4  1  0
  4  5  1  0
  5  6  1  0
  6  7  1  0
  7  8  2  0
  8  9  1  0
  9 10  2  0
 10 11  1  0
 11 12  2  0
 12 13  1  0
  6 14  2  0
 14 15  1  0
 15 16  1  0
 16 17  2  0
 16 18  2  0
 16 19  1  0
 19 20  2  0
 20 21  1  0
 21 22  2  0
 22 23  1  0
 23 24  2  0
 15  4  2  0
 24 19  1  0
 12  7  1  0
  1 25  1  0
  1 26  1  0
  1 27  1  0
  3 28  1  0
  3 29  1  0
  3 30  1  0
  8 31  1  0
  9 32  1  0
 10 33  1  0
 11 34  1  0
 13 35  1  0
 20 36  1  0
 21 37  1  0
 22 38  1  0
 23 39  1  0
 24 40  1  0
M  END
>  <UniqueID>  (16) 
15

>  <SMILES>  (16) 
CN(C)c1oc(-c2ccccc2O)nc1S(=O)(=O)c1ccccc1

>  <Energy>  (16) 
80.30047633227639

>  <Genealogy>  (16) 
CN(C)c1oc(-c2ccccc2O)nc1S(=O)(=O)c1ccccc1 (3D coordinates assigned)
CN(C)c1oc(-c2ccccc2O)nc1S(=O)(=O)c1ccccc1 (optimized conformer: 80.30047633227639 kcal/mol)

>  <smiles>  (16) 
CN(C)c1oc(-c2ccccc2O)nc1S(=O)(=O)c1ccccc1

>  <score_type>  (16) 
oracle

>  <origin>  (16) 
adgpu

>  <m_score__min__energy>  (16) 
-8.2899999999999991

>  <m_primary>  (16) 
energy

$$$$
16:0
     RDKit          3D

 52 54  0  0  0  0  0  0  0  0999 V2000
   -6.9570   15.0030  -34.2600 C   0  0  0  0  0  0  0  0  0  0  0  0
   -5.6770   15.1880  -33.4510 C   0  0  0  0  0  0  0  0  0  0  0  0
   -5.6300   16.7800  -32.6230 S   0  0  0  0  0  0  0  0  0  0  0  0
   -6.1160   16.6400  -31.2060 O   0  0  0  0  0  0  0  0  0  0  0  0
   -4.2020   17.2480  -32.5840 O   0  0  0  0  0  0  0  0  0  0  0  0
   -6.5920   17.9880  -33.4460 N   0  0  0  0  0  0  0  0  0  0  0  0
   -5.8000   19.1760  -33.8440 C   0  0  0  0  0  0  0  0  0  0  0  0
   -5.8860   20.3440  -32.8440 C   0  0  0  0  0  0  0  0  0  0  0  0
   -7.2620   20.5790  -32.3850 N   0  0  0  0  0  0  0  0  0  0  0  0
   -7.5030   21.4380  -31.2510 C   0  0  0  0  0  0  0  0  0  0  0  0
   -8.4310   21.1600  -30.4410 O   0  0  0  0  0  0  0  0  0  0  0  0
   -6.6700   22.6310  -30.9900 C   0  0  0  0  0  0  0  0  0  0  0  0
   -6.7860   23.7610  -31.8170 C   0  0  0  0  0  0  0  0  0  0  0  0
   -5.9870   24.8850  -31.5910 C   0  0  0  0  0  0  0  0  0  0  0  0
   -5.0590   24.8950  -30.5450 C   0  0  0  0  0  0  0  0  0  0  0  0
   -4.2590   26.0240  -30.3670 O   0  0  0  0  0  0  0  0  0  0  0  0
   -4.9390   23.7680  -29.7100 C   0  0  0  0  0  0  0  0  0  0  0  0
   -4.0270   23.7590  -28.6130 N   0  0  0  0  0  0  0  0  0  0  0  0
   -2.3170   23.7890  -28.8800 S   0  0  0  0  0  0  0  0  0  0  0  0
   -1.9210   25.1620  -29.3470 O   0  0  0  0  0  0  0  0  0  0  0  0
   -1.5910   23.4900  -27.5970 O   0  0  0  0  0  0  0  0  0  0  0  0
   -1.8750   22.6030  -30.1050 C   0  0  0  0  0  0  0  0  0  0  0  0
   -2.6670   22.4310  -31.2500 C   0  0  0  0  0  0  0  0  0  0  0  0
   -2.3010   21.4970  -32.2240 C   0  0  0  0  0  0  0  0  0  0  0  0
   -1.1440   20.7280  -32.0570 C   0  0  0  0  0  0  0  0  0  0  0  0
   -0.3640   20.8810  -30.9070 C   0  0  0  0  0  0  0  0  0  0  0  0
   -0.7270   21.8150  -29.9330 C   0  0  0  0  0  0  0  0  0  0  0  0
   -5.7290   22.6360  -29.9480 C   0  0  0  0  0  0  0  0  0  0  0  0
   -8.3210   19.7010  -32.8880 C   0  0  0  0  0  0  0  0  0  0  0  0
   -7.8610   18.2540  -32.7300 C   0  0  0  0  0  0  0  0  0  0  0  0
   -7.8090   14.8799  -33.5752 H   0  0  0  0  0  0  0  0  0  0  0  0
   -7.1210   15.8868  -34.8941 H   0  0  0  0  0  0  0  0  0  0  0  0
   -6.8640   14.1090  -34.8941 H   0  0  0  0  0  0  0  0  0  0  0  0
   -5.6169   14.3920  -32.6942 H   0  0  0  0  0  0  0  0  0  0  0  0
   -4.8256   15.1409  -34.1460 H   0  0  0  0  0  0  0  0  0  0  0  0
   -4.7459   18.8751  -33.9360 H   0  0  0  0  0  0  0  0  0  0  0  0
   -6.2195   19.5368  -34.7947 H   0  0  0  0  0  0  0  0  0  0  0  0
   -5.2562   20.1118  -31.9725 H   0  0  0  0  0  0  0  0  0  0  0  0
   -5.5397   21.2541  -33.3558 H   0  0  0  0  0  0  0  0  0  0  0  0
   -7.5090   23.7609  -32.6460 H   0  0  0  0  0  0  0  0  0  0  0  0
   -6.0887   25.7673  -32.2399 H   0  0  0  0  0  0  0  0  0  0  0  0
   -3.4790   26.0380  -29.7200 H   0  0  0  0  0  0  0  0  0  0  0  0
   -3.5784   23.0326  -31.3819 H   0  0  0  0  0  0  0  0  0  0  0  0
   -2.9229   21.3667  -33.1219 H   0  0  0  0  0  0  0  0  0  0  0  0
   -0.8484   20.0035  -32.8301 H   0  0  0  0  0  0  0  0  0  0  0  0
    0.5369   20.2652  -30.7686 H   0  0  0  0  0  0  0  0  0  0  0  0
   -0.1111   21.9327  -29.0292 H   0  0  0  0  0  0  0  0  0  0  0  0
   -5.6113   21.7448  -29.3141 H   0  0  0  0  0  0  0  0  0  0  0  0
   -9.2434   19.8629  -32.3110 H   0  0  0  0  0  0  0  0  0  0  0  0
   -8.5235   19.9203  -33.9467 H   0  0  0  0  0  0  0  0  0  0  0  0
   -7.7147   18.0438  -31.6602 H   0  0  0  0  0  0  0  0  0  0  0  0
   -8.6356   17.6046  -33.1639 H   0  0  0  0  0  0  0  0  0  0  0  0
  1  2  1  0
  2  3  1  0
  3  4  2  0
  3  5  2  0
  3  6  1  0
  6  7  1  0
  7  8  1  0
  8  9  1  0
  9 10  1  0
 10 11  2  0
 10 12  1  0
 12 13  2  0
 13 14  1  0
 14 15  2  0
 15 16  1  0
 15 17  1  0
 17 18  1  0
 18 19  1  0
 19 20  2  0
 19 21  2  0
 19 22  1  0
 22 23  2  0
 23 24  1  0
 24 25  2  0
 25 26  1  0
 26 27  2  0
 17 28  2  0
  9 29  1  0
 29 30  1  0
 30  6  1  0
 28 12  1  0
 27 22  1  0
  1 31  1  0
  1 32  1  0
  1 33  1  0
  2 34  1  0
  2 35  1  0
  7 36  1  0
  7 37  1  0
  8 38  1  0
  8 39  1  0
 13 40  1  0
 14 41  1  0
 16 42  1  0
 23 43  1  0
 24 44  1  0
 25 45  1  0
 26 46  1  0
 27 47  1  0
 28 48  1  0
 29 49  1  0
 29 50  1  0
 30 51  1  0
 30 52  1  0
M  CHG  1  18  -1
M  END
>  <UniqueID>  (17) 
16

>  <SMILES>  (17) 
CCS(=O)(=O)N1CCN(C(=O)c2ccc(O)c([N-]S(=O)(=O)c3ccccc3)c2)CC1

>  <Energy>  (17) 
65.48408483427602

>  <Genealogy>  (17) 
CCS(=O)(=O)N1CCN(C(=O)c2ccc(O)c([N-]S(=O)(=O)c3ccccc3)c2)CC1 (protonated)
CCS(=O)(=O)N1CCN(C(=O)c2ccc(O)c([N-]S(=O)(=O)c3ccccc3)c2)CC1 (3D coordinates assigned)
CCS(=O)(=O)N1CCN(C(=O)c2ccc(O)c([N-]S(=O)(=O)c3ccccc3)c2)CC1 (nonaromatic ring conformer: 65.48408483427602 kcal/mol)

>  <smiles>  (17) 
CCS(=O)(=O)N1CCN(C(=O)c2ccc(O)c(NS(=O)(=O)c3ccccc3)c2)CC1

>  <score_type>  (17) 
oracle

>  <origin>  (17) 
adgpu

>  <m_score__min__energy>  (17) 
-11.369999999999999

>  <m_primary>  (17) 
energy

$$$$
17:0
     RDKit          3D

 61 65  0  0  0  0  0  0  0  0999 V2000
   -1.2020   18.8650  -32.3790 O   0  0  0  0  0  0  0  0  0  0  0  0
   -1.8890   19.3320  -33.6310 S   0  0  0  0  0  0  0  0  0  0  0  0
   -0.9640   19.1240  -34.7970 O   0  0  0  0  0  0  0  0  0  0  0  0
   -2.2570   21.0220  -33.4880 N   0  0  0  0  0  0  0  0  0  0  0  0
   -2.6690   21.6610  -32.2660 C   0  0  0  0  0  0  0  0  0  0  0  0
   -2.1000   21.3150  -31.0060 C   0  0  0  0  0  0  0  0  0  0  0  0
   -2.5230   21.9550  -29.8250 C   0  0  0  0  0  0  0  0  0  0  0  0
   -3.5220   22.9210  -29.9330 C   0  0  0  0  0  0  0  0  0  0  0  0
   -4.0720   23.2600  -31.1330 C   0  0  0  0  0  0  0  0  0  0  0  0
   -3.6700   22.6560  -32.3220 C   0  0  0  0  0  0  0  0  0  0  0  0
   -5.0100   24.2100  -30.9740 N   0  0  0  0  0  0  0  0  0  0  0  0
   -5.0070   24.4240  -29.6330 C   0  0  0  0  0  0  0  0  0  0  0  0
   -4.1130   23.6480  -28.9700 N   0  0  0  0  0  0  0  0  0  0  0  0
   -3.8570   23.6510  -27.5290 C   0  0  0  0  0  0  0  0  0  0  0  0
   -2.7810   24.6490  -27.1960 C   0  0  0  0  0  0  0  0  0  0  0  0
   -2.7790   25.2920  -25.9440 C   0  0  0  0  0  0  0  0  0  0  0  0
   -1.7970   26.2400  -25.6400 C   0  0  0  0  0  0  0  0  0  0  0  0
   -0.8170   26.5590  -26.5830 C   0  0  0  0  0  0  0  0  0  0  0  0
   -0.8140   25.9270  -27.8320 C   0  0  0  0  0  0  0  0  0  0  0  0
   -1.7940   24.9770  -28.1410 C   0  0  0  0  0  0  0  0  0  0  0  0
   -3.3790   18.4180  -33.8370 C   0  0  0  0  0  0  0  0  0  0  0  0
   -3.4610   17.3860  -34.7820 C   0  0  0  0  0  0  0  0  0  0  0  0
   -4.6620   16.6950  -34.9640 C   0  0  0  0  0  0  0  0  0  0  0  0
   -5.7880   17.0390  -34.2110 C   0  0  0  0  0  0  0  0  0  0  0  0
   -5.7190   18.0750  -33.2660 C   0  0  0  0  0  0  0  0  0  0  0  0
   -7.1600   18.5660  -32.3700 S   0  0  0  0  0  0  0  0  0  0  0  0
   -6.8630   18.5190  -30.8970 O   0  0  0  0  0  0  0  0  0  0  0  0
   -8.2740   17.5940  -32.6520 O   0  0  0  0  0  0  0  0  0  0  0  0
   -7.6720   20.1790  -32.8140 N   0  0  0  0  0  0  0  0  0  0  0  0
   -6.6500   21.1720  -32.4130 C   0  0  0  0  0  0  0  0  0  0  0  0
   -7.2350   22.5860  -32.3420 C   0  0  0  0  0  0  0  0  0  0  0  0
   -8.3310   22.6670  -31.2680 C   0  0  0  0  0  0  0  0  0  0  0  0
   -9.0680   21.3340  -31.0650 C   0  0  0  0  0  0  0  0  0  0  0  0
   -9.0460   20.4700  -32.3330 C   0  0  0  0  0  0  0  0  0  0  0  0
   -4.5050   18.7470  -33.0690 C   0  0  0  0  0  0  0  0  0  0  0  0
   -2.1660   21.5990  -34.3540 H   0  0  0  0  0  0  0  0  0  0  0  0
   -1.3217   20.5393  -30.9554 H   0  0  0  0  0  0  0  0  0  0  0  0
   -2.0801   21.7012  -28.8506 H   0  0  0  0  0  0  0  0  0  0  0  0
   -4.1214   22.9470  -33.2820 H   0  0  0  0  0  0  0  0  0  0  0  0
   -5.6631   25.1528  -29.1346 H   0  0  0  0  0  0  0  0  0  0  0  0
   -4.7807   23.9208  -26.9961 H   0  0  0  0  0  0  0  0  0  0  0  0
   -3.5256   22.6485  -27.2206 H   0  0  0  0  0  0  0  0  0  0  0  0
   -3.5531   25.0478  -25.2016 H   0  0  0  0  0  0  0  0  0  0  0  0
   -1.7962   26.7349  -24.6576 H   0  0  0  0  0  0  0  0  0  0  0  0
   -0.0471   27.3074  -26.3439 H   0  0  0  0  0  0  0  0  0  0  0  0
   -0.0398   26.1776  -28.5721 H   0  0  0  0  0  0  0  0  0  0  0  0
   -1.7917   24.4861  -29.1254 H   0  0  0  0  0  0  0  0  0  0  0  0
   -2.5781   17.1195  -35.3816 H   0  0  0  0  0  0  0  0  0  0  0  0
   -4.7211   15.8799  -35.7003 H   0  0  0  0  0  0  0  0  0  0  0  0
   -6.7328   16.4955  -34.3594 H   0  0  0  0  0  0  0  0  0  0  0  0
   -6.2557   20.8987  -31.4231 H   0  0  0  0  0  0  0  0  0  0  0  0
   -5.8509   21.1678  -33.1690 H   0  0  0  0  0  0  0  0  0  0  0  0
   -6.4329   23.2966  -32.0937 H   0  0  0  0  0  0  0  0  0  0  0  0
   -7.6771   22.8353  -33.3179 H   0  0  0  0  0  0  0  0  0  0  0  0
   -7.8674   22.9606  -30.3147 H   0  0  0  0  0  0  0  0  0  0  0  0
   -9.0720   23.4059  -31.6071 H   0  0  0  0  0  0  0  0  0  0  0  0
   -8.5823   20.7797  -30.2484 H   0  0  0  0  0  0  0  0  0  0  0  0
  -10.1174   21.5577  -30.8227 H   0  0  0  0  0  0  0  0  0  0  0  0
   -9.5505   19.5169  -32.1163 H   0  0  0  0  0  0  0  0  0  0  0  0
   -9.5585   21.0357  -33.1250 H   0  0  0  0  0  0  0  0  0  0  0  0
   -4.4351   19.5374  -32.3072 H   0  0  0  0  0  0  0  0  0  0  0  0
  1  2  2  0
  2  3  2  0
  2  4  1  0
  4  5  1  0
  5  6  2  0
  6  7  1  0
  7  8  2  0
  8  9  1  0
  9 10  2  0
  9 11  1  0
 11 12  2  0
 12 13  1  0
 13 14  1  0
 14 15  1  0
 15 16  2  0
 16 17  1  0
 17 18  2  0
 18 19  1  0
 19 20  2  0
  2 21  1  0
 21 22  2  0
 22 23  1  0
 23 24  2  0
 24 25  1  0
 25 26  1  0
 26 27  2  0
 26 28  2  0
 26 29  1  0
 29 30  1  0
 30 31  1  0
 31 32  1  0
 32 33  1  0
 33 34  1  0
 25 35  2  0
 10  5  1  0
 20 15  1  0
 35 21  1  0
 13  8  1  0
 34 29  1  0
  4 36  1  0
  6 37  1  0
  7 38  1  0
 10 39  1  0
 12 40  1  0
 14 41  1  0
 14 42  1  0
 16 43  1  0
 17 44  1  0
 18 45  1  0
 19 46  1  0
 20 47  1  0
 22 48  1  0
 23 49  1  0
 24 50  1  0
 30 51  1  0
 30 52  1  0
 31 53  1  0
 31 54  1  0
 32 55  1  0
 32 56  1  0
 33 57  1  0
 33 58  1  0
 34 59  1  0
 34 60  1  0
 35 61  1  0
M  END
>  <UniqueID>  (18) 
17

>  <SMILES>  (18) 
O=S(=O)(Nc1ccc2c(c1)ncn2Cc1ccccc1)c1cccc(S(=O)(=O)N2CCCCC2)c1

>  <Energy>  (18) 
103.21396139830755

>  <Genealogy>  (18) 
O=S(=O)(Nc1ccc2c(c1)ncn2Cc1ccccc1)c1cccc(S(=O)(=O)N2CCCCC2)c1 (3D coordinates assigned)
O=S(=O)(Nc1ccc2c(c1)ncn2Cc1ccccc1)c1cccc(S(=O)(=O)N2CCCCC2)c1 (nonaromatic ring conformer: 103.21396139830755 kcal/mol)

>  <smiles>  (18) 
O=S(=O)(Nc1ccc2c(c1)ncn2Cc1ccccc1)c1cccc(S(=O)(=O)N2CCCCC2)c1

>  <score_type>  (18) 
oracle

>  <origin>  (18) 
adgpu

>  <m_score__min__energy>  (18) 
-11.42

>  <m_primary>  (18) 
energy

$$$$
18:0
     RDKit          3D

 51 53  0  0  0  0  0  0  0  0999 V2000
   -6.9320   15.7590  -34.1020 C   0  0  0  0  0  0  0  0  0  0  0  0
   -7.1190   17.1100  -33.6910 O   0  0  0  0  0  0  0  0  0  0  0  0
   -6.0920   18.0610  -33.5840 C   0  0  0  0  0  0  0  0  0  0  0  0
   -4.7970   17.8030  -34.0790 C   0  0  0  0  0  0  0  0  0  0  0  0
   -3.7810   18.7510  -33.9340 C   0  0  0  0  0  0  0  0  0  0  0  0
   -4.0430   19.9670  -33.3010 C   0  0  0  0  0  0  0  0  0  0  0  0
   -2.6470   21.2510  -33.0950 Br  0  0  0  0  0  0  0  0  0  0  0  0
   -5.3200   20.2370  -32.8060 C   0  0  0  0  0  0  0  0  0  0  0  0
   -6.3510   19.2950  -32.9460 C   0  0  0  0  0  0  0  0  0  0  0  0
   -7.9360   19.6670  -32.2500 S   0  0  0  0  0  0  0  0  0  0  0  0
   -8.0400   19.1530  -30.8410 O   0  0  0  0  0  0  0  0  0  0  0  0
   -8.9920   18.9810  -33.0730 O   0  0  0  0  0  0  0  0  0  0  0  0
   -8.2440   21.3810  -32.2670 N   0  0  0  0  0  0  0  0  0  0  0  0
   -8.1120   21.9650  -30.9290 C   0  0  0  0  0  0  0  0  0  0  0  0
   -6.8740   22.8190  -30.8270 C   0  0  0  0  0  0  0  0  0  0  0  0
   -6.8920   24.1440  -31.2920 C   0  0  0  0  0  0  0  0  0  0  0  0
   -5.7620   24.9530  -31.1540 C   0  0  0  0  0  0  0  0  0  0  0  0
   -4.5920   24.4400  -30.5870 C   0  0  0  0  0  0  0  0  0  0  0  0
   -3.4890   25.2750  -30.4340 O   0  0  0  0  0  0  0  0  0  0  0  0
   -4.5400   23.0960  -30.1800 C   0  0  0  0  0  0  0  0  0  0  0  0
   -3.0560   22.4050  -29.5100 S   0  0  0  0  0  0  0  0  0  0  0  0
   -3.1580   20.9050  -29.4840 O   0  0  0  0  0  0  0  0  0  0  0  0
   -1.8990   22.8090  -30.3830 O   0  0  0  0  0  0  0  0  0  0  0  0
   -2.7970   22.9870  -27.8810 N   0  0  0  0  0  0  0  0  0  0  0  0
   -1.3740   23.3550  -27.6660 C   0  0  0  0  0  0  0  0  0  0  0  0
   -1.1320   24.8710  -27.7090 C   0  0  0  0  0  0  0  0  0  0  0  0
   -1.9710   25.5950  -26.6410 C   0  0  0  0  0  0  0  0  0  0  0  0
   -3.3170   24.8980  -26.3680 C   0  0  0  0  0  0  0  0  0  0  0  0
   -3.7660   24.0650  -27.5750 C   0  0  0  0  0  0  0  0  0  0  0  0
   -5.6850   22.2940  -30.2950 C   0  0  0  0  0  0  0  0  0  0  0  0
   -6.8428   15.1148  -33.2148 H   0  0  0  0  0  0  0  0  0  0  0  0
   -7.7940   15.4363  -34.7043 H   0  0  0  0  0  0  0  0  0  0  0  0
   -6.0147   15.6826  -34.7043 H   0  0  0  0  0  0  0  0  0  0  0  0
   -4.5852   16.8484  -34.5829 H   0  0  0  0  0  0  0  0  0  0  0  0
   -2.7728   18.5386  -34.3194 H   0  0  0  0  0  0  0  0  0  0  0  0
   -5.5196   21.1946  -32.3028 H   0  0  0  0  0  0  0  0  0  0  0  0
   -8.9951   22.5867  -30.7201 H   0  0  0  0  0  0  0  0  0  0  0  0
   -8.0322   21.1469  -30.1980 H   0  0  0  0  0  0  0  0  0  0  0  0
   -7.7993   24.5460  -31.7666 H   0  0  0  0  0  0  0  0  0  0  0  0
   -5.7929   25.9989  -31.4932 H   0  0  0  0  0  0  0  0  0  0  0  0
   -1.0595   22.9778  -26.6817 H   0  0  0  0  0  0  0  0  0  0  0  0
   -0.7913   22.9059  -28.4838 H   0  0  0  0  0  0  0  0  0  0  0  0
   -0.0660   25.0703  -27.5248 H   0  0  0  0  0  0  0  0  0  0  0  0
   -1.4288   25.2449  -28.7000 H   0  0  0  0  0  0  0  0  0  0  0  0
   -1.3955   25.6277  -25.7042 H   0  0  0  0  0  0  0  0  0  0  0  0
   -2.1907   26.6042  -27.0195 H   0  0  0  0  0  0  0  0  0  0  0  0
   -3.2079   24.2362  -25.4961 H   0  0  0  0  0  0  0  0  0  0  0  0
   -4.0763   25.6705  -26.1765 H   0  0  0  0  0  0  0  0  0  0  0  0
   -4.7446   23.6139  -27.3539 H   0  0  0  0  0  0  0  0  0  0  0  0
   -3.8300   24.7300  -28.4489 H   0  0  0  0  0  0  0  0  0  0  0  0
   -5.6514   21.2450  -29.9657 H   0  0  0  0  0  0  0  0  0  0  0  0
  1  2  1  0
  2  3  1  0
  3  4  2  0
  4  5  1  0
  5  6  2  0
  6  7  1  0
  6  8  1  0
  8  9  2  0
  9 10  1  0
 10 11  2  0
 10 12  2  0
 10 13  1  0
 13 14  1  0
 14 15  1  0
 15 16  2  0
 16 17  1  0
 17 18  2  0
 18 19  1  0
 18 20  1  0
 20 21  1  0
 21 22  2  0
 21 23  2  0
 21 24  1  0
 24 25  1  0
 25 26  1  0
 26 27  1  0
 27 28  1  0
 28 29  1  0
 20 30  2  0
  9  3  1  0
 30 15  1  0
 29 24  1  0
  1 31  1  0
  1 32  1  0
  1 33  1  0
  4 34  1  0
  5 35  1  0
  8 36  1  0
 14 37  1  0
 14 38  1  0
 16 39  1  0
 17 40  1  0
 25 41  1  0
 25 42  1  0
 26 43  1  0
 26 44  1  0
 27 45  1  0
 27 46  1  0
 28 47  1  0
 28 48  1  0
 29 49  1  0
 29 50  1  0
 30 51  1  0
M  CHG  2  13  -1  19  -1
M  END
>  <UniqueID>  (19) 
18

>  <SMILES>  (19) 
COc1ccc(Br)cc1S(=O)(=O)[N-]Cc1ccc([O-])c(S(=O)(=O)N2CCCCC2)c1

>  <Energy>  (19) 
53.130665757768064

>  <Genealogy>  (19) 
COc1ccc(Br)cc1S(=O)(=O)[N-]Cc1ccc([O-])c(S(=O)(=O)N2CCCCC2)c1 (protonated)
COc1ccc(Br)cc1S(=O)(=O)[N-]Cc1ccc([O-])c(S(=O)(=O)N2CCCCC2)c1 (3D coordinates assigned)
COc1ccc(Br)cc1S(=O)(=O)[N-]Cc1ccc([O-])c(S(=O)(=O)N2CCCCC2)c1 (nonaromatic ring conformer: 53.130665757768064 kcal/mol)

>  <smiles>  (19) 
COc1ccc(Br)cc1S(=O)(=O)NCc1ccc(O)c(S(=O)(=O)N2CCCCC2)c1

>  <score_type>  (19) 
oracle

>  <origin>  (19) 
adgpu

>  <m_score__min__energy>  (19) 
-12.880000000000001

>  <m_primary>  (19) 
energy

$$$$
19:0
     RDKit          3D

 55 57  0  0  0  0  0  0  0  0999 V2000
   -6.0650   24.9990  -29.7860 C   0  0  0  0  0  0  0  0  0  0  0  0
   -4.9340   24.8070  -30.7390 C   0  0  0  0  0  0  0  0  0  0  0  0
   -3.8070   25.3080  -30.4780 O   0  0  0  0  0  0  0  0  0  0  0  0
   -5.1410   24.0570  -31.9410 N   0  0  0  0  0  0  0  0  0  0  0  0
   -5.6770   22.7280  -32.0070 C   0  0  0  0  0  0  0  0  0  0  0  0
   -7.0610   22.5740  -32.1450 C   0  0  0  0  0  0  0  0  0  0  0  0
   -7.6310   21.3010  -32.2190 C   0  0  0  0  0  0  0  0  0  0  0  0
   -6.8180   20.1640  -32.1650 C   0  0  0  0  0  0  0  0  0  0  0  0
   -7.5180   18.5470  -32.2170 S   0  0  0  0  0  0  0  0  0  0  0  0
   -7.2240   17.8140  -30.9370 O   0  0  0  0  0  0  0  0  0  0  0  0
   -9.0080   18.6760  -32.3690 O   0  0  0  0  0  0  0  0  0  0  0  0
   -6.8610   17.6630  -33.5710 N   0  0  0  0  0  0  0  0  0  0  0  0
   -6.0990   18.5750  -34.4500 C   0  0  0  0  0  0  0  0  0  0  0  0
   -5.1020   17.7980  -35.3160 C   0  0  0  0  0  0  0  0  0  0  0  0
   -4.0760   17.1310  -34.4810 N   0  0  0  0  0  0  0  0  0  0  0  0
   -3.4910   15.9890  -35.2020 C   0  0  0  0  0  0  0  0  0  0  0  0
   -4.5640   16.7320  -33.1390 C   0  0  0  0  0  0  0  0  0  0  0  0
   -6.0840   16.4860  -33.1150 C   0  0  0  0  0  0  0  0  0  0  0  0
   -5.4310   20.3090  -32.0560 C   0  0  0  0  0  0  0  0  0  0  0  0
   -4.8450   21.5880  -32.0140 C   0  0  0  0  0  0  0  0  0  0  0  0
   -3.4510   21.7450  -31.9610 O   0  0  0  0  0  0  0  0  0  0  0  0
   -2.5160   20.9730  -32.6660 C   0  0  0  0  0  0  0  0  0  0  0  0
   -2.4060   19.6130  -32.3620 C   0  0  0  0  0  0  0  0  0  0  0  0
   -1.4790   18.8030  -33.0350 C   0  0  0  0  0  0  0  0  0  0  0  0
   -1.3410   17.3530  -32.6760 C   0  0  0  0  0  0  0  0  0  0  0  0
   -0.6310   19.3750  -33.9950 C   0  0  0  0  0  0  0  0  0  0  0  0
   -0.7300   20.7390  -34.3090 C   0  0  0  0  0  0  0  0  0  0  0  0
    0.2080   21.3550  -35.3040 C   0  0  0  0  0  0  0  0  0  0  0  0
   -1.6590   21.5380  -33.6270 C   0  0  0  0  0  0  0  0  0  0  0  0
   -5.6897   24.9353  -28.7540 H   0  0  0  0  0  0  0  0  0  0  0  0
   -6.5194   25.9871  -29.9506 H   0  0  0  0  0  0  0  0  0  0  0  0
   -6.8201   24.2162  -29.9506 H   0  0  0  0  0  0  0  0  0  0  0  0
   -7.7059   23.4637  -32.1957 H   0  0  0  0  0  0  0  0  0  0  0  0
   -8.7210   21.1924  -32.3199 H   0  0  0  0  0  0  0  0  0  0  0  0
   -6.8005   19.1134  -35.1043 H   0  0  0  0  0  0  0  0  0  0  0  0
   -5.5392   19.2820  -33.8202 H   0  0  0  0  0  0  0  0  0  0  0  0
   -5.6457   17.0361  -35.8938 H   0  0  0  0  0  0  0  0  0  0  0  0
   -4.5975   18.5069  -35.9890 H   0  0  0  0  0  0  0  0  0  0  0  0
   -3.1136   15.2523  -34.4775 H   0  0  0  0  0  0  0  0  0  0  0  0
   -4.2604   15.5211  -35.8337 H   0  0  0  0  0  0  0  0  0  0  0  0
   -2.6617   16.3401  -35.8337 H   0  0  0  0  0  0  0  0  0  0  0  0
   -4.0517   15.8063  -32.8379 H   0  0  0  0  0  0  0  0  0  0  0  0
   -4.3473   17.5573  -32.4448 H   0  0  0  0  0  0  0  0  0  0  0  0
   -6.3134   15.6359  -33.7743 H   0  0  0  0  0  0  0  0  0  0  0  0
   -6.3712   16.2816  -32.0730 H   0  0  0  0  0  0  0  0  0  0  0  0
   -4.7923   19.4150  -32.0026 H   0  0  0  0  0  0  0  0  0  0  0  0
   -3.0523   19.1738  -31.5878 H   0  0  0  0  0  0  0  0  0  0  0  0
   -1.3308   17.2457  -31.5813 H   0  0  0  0  0  0  0  0  0  0  0  0
   -2.1896   16.7900  -33.0917 H   0  0  0  0  0  0  0  0  0  0  0  0
   -0.4014   16.9601  -33.0917 H   0  0  0  0  0  0  0  0  0  0  0  0
    0.1167   18.7499  -34.5051 H   0  0  0  0  0  0  0  0  0  0  0  0
    1.0124   21.8833  -34.7713 H   0  0  0  0  0  0  0  0  0  0  0  0
    0.6428   20.5660  -35.9353 H   0  0  0  0  0  0  0  0  0  0  0  0
   -0.3432   22.0675  -35.9353 H   0  0  0  0  0  0  0  0  0  0  0  0
   -1.7177   22.6145  -33.8454 H   0  0  0  0  0  0  0  0  0  0  0  0
  1  2  1  0
  2  3  2  0
  2  4  1  0
  4  5  1  0
  5  6  2  0
  6  7  1  0
  7  8  2  0
  8  9  1  0
  9 10  2  0
  9 11  2  0
  9 12  1  0
 12 13  1  0
 13 14  1  0
 14 15  1  0
 15 16  1  0
 15 17  1  0
 17 18  1  0
  8 19  1  0
 19 20  2  0
 20 21  1  0
 21 22  1  0
 22 23  2  0
 23 24  1  0
 24 25  1  0
 24 26  2  0
 26 27  1  0
 27 28  1  0
 27 29  2  0
 20  5  1  0
 29 22  1  0
 18 12  1  0
  1 30  1  0
  1 31  1  0
  1 32  1  0
  6 33  1  0
  7 34  1  0
 13 35  1  0
 13 36  1  0
 14 37  1  0
 14 38  1  0
 16 39  1  0
 16 40  1  0
 16 41  1  0
 17 42  1  0
 17 43  1  0
 18 44  1  0
 18 45  1  0
 19 46  1  0
 23 47  1  0
 25 48  1  0
 25 49  1  0
 25 50  1  0
 26 51  1  0
 28 52  1  0
 28 53  1  0
 28 54  1  0
 29 55  1  0
M  CHG  1   4  -1
M  END
>  <UniqueID>  (20) 
19

>  <SMILES>  (20) 
CC(=O)[N-]c1ccc(S(=O)(=O)N2CCN(C)CC2)cc1Oc1cc(C)cc(C)c1

>  <Energy>  (20) 
73.73521893722909

>  <Genealogy>  (20) 
CC(=O)[N-]c1ccc(S(=O)(=O)N2CCN(C)CC2)cc1Oc1cc(C)cc(C)c1 (protonated)
CC(=O)[N-]c1ccc(S(=O)(=O)N2CCN(C)CC2)cc1Oc1cc(C)cc(C)c1 (3D coordinates assigned)
CC(=O)[N-]c1ccc(S(=O)(=O)N2CCN(C)CC2)cc1Oc1cc(C)cc(C)c1 (nonaromatic ring conformer: 73.73521893722909 kcal/mol)

>  <smiles>  (20) 
CC(=O)Nc1ccc(S(=O)(=O)N2CCN(C)CC2)cc1Oc1cc(C)cc(C)c1

>  <score_type>  (20) 
oracle

>  <origin>  (20) 
adgpu

>  <m_score__min__energy>  (20) 
-11.74

>  <m_primary>  (20) 
energy

$$$$
20:0
     RDKit          3D

 56 59  0  0  0  0  0  0  0  0999 V2000
   -1.6250   24.2980  -28.8390 O   0  0  0  0  0  0  0  0  0  0  0  0
   -2.3830   23.3850  -29.2690 C   0  0  0  0  0  0  0  0  0  0  0  0
   -3.7770   23.4070  -28.9360 N   0  0  0  0  0  0  0  0  0  0  0  0
   -4.8710   23.5910  -29.8470 C   0  0  0  0  0  0  0  0  0  0  0  0
   -5.9360   22.6740  -29.9180 C   0  0  0  0  0  0  0  0  0  0  0  0
   -6.9900   22.8780  -30.8190 C   0  0  0  0  0  0  0  0  0  0  0  0
   -8.2980   21.6990  -30.9350 S   0  0  0  0  0  0  0  0  0  0  0  0
   -9.2720   21.9270  -29.8130 O   0  0  0  0  0  0  0  0  0  0  0  0
   -9.0320   21.9010  -32.2320 O   0  0  0  0  0  0  0  0  0  0  0  0
   -7.7030   20.0530  -30.8640 N   0  0  0  0  0  0  0  0  0  0  0  0
   -6.6240   19.8340  -31.8340 C   0  0  0  0  0  0  0  0  0  0  0  0
   -7.2090   19.1480  -33.0620 C   0  0  0  0  0  0  0  0  0  0  0  0
   -8.6070   18.7160  -32.6690 C   0  0  0  0  0  0  0  0  0  0  0  0
   -8.7590   19.0940  -31.2040 C   0  0  0  0  0  0  0  0  0  0  0  0
   -6.9970   24.0220  -31.6270 C   0  0  0  0  0  0  0  0  0  0  0  0
   -5.9610   24.9530  -31.5360 C   0  0  0  0  0  0  0  0  0  0  0  0
   -4.9030   24.7420  -30.6470 C   0  0  0  0  0  0  0  0  0  0  0  0
   -3.8770   25.6790  -30.5670 O   0  0  0  0  0  0  0  0  0  0  0  0
   -1.8120   22.2760  -30.0800 C   0  0  0  0  0  0  0  0  0  0  0  0
   -2.5300   21.7950  -31.1950 C   0  0  0  0  0  0  0  0  0  0  0  0
   -2.0290   20.7450  -31.9750 C   0  0  0  0  0  0  0  0  0  0  0  0
   -2.9370   20.1470  -33.3620 S   0  0  0  0  0  0  0  0  0  0  0  0
   -2.0290   20.1530  -34.5600 O   0  0  0  0  0  0  0  0  0  0  0  0
   -4.1090   21.0510  -33.6270 O   0  0  0  0  0  0  0  0  0  0  0  0
   -3.4930   18.5200  -33.0320 N   0  0  0  0  0  0  0  0  0  0  0  0
   -4.3860   18.0140  -34.0970 C   0  0  0  0  0  0  0  0  0  0  0  0
   -3.6670   17.0790  -35.0860 C   0  0  0  0  0  0  0  0  0  0  0  0
   -2.3220   17.4730  -35.2380 O   0  0  0  0  0  0  0  0  0  0  0  0
   -1.5980   17.2220  -34.0460 C   0  0  0  0  0  0  0  0  0  0  0  0
   -2.3700   17.6050  -32.7600 C   0  0  0  0  0  0  0  0  0  0  0  0
   -0.7950   20.1710  -31.6540 C   0  0  0  0  0  0  0  0  0  0  0  0
   -0.0710   20.6350  -30.5560 C   0  0  0  0  0  0  0  0  0  0  0  0
   -0.5680   21.6780  -29.7690 C   0  0  0  0  0  0  0  0  0  0  0  0
    0.1940   22.1090  -28.6880 O   0  0  0  0  0  0  0  0  0  0  0  0
   -5.9413   21.7911  -29.2619 H   0  0  0  0  0  0  0  0  0  0  0  0
   -6.1835   20.7996  -32.1231 H   0  0  0  0  0  0  0  0  0  0  0  0
   -5.8394   19.2045  -31.3889 H   0  0  0  0  0  0  0  0  0  0  0  0
   -7.2488   19.8485  -33.9092 H   0  0  0  0  0  0  0  0  0  0  0  0
   -6.5950   18.2915  -33.3774 H   0  0  0  0  0  0  0  0  0  0  0  0
   -9.3563   19.2406  -33.2800 H   0  0  0  0  0  0  0  0  0  0  0  0
   -8.7580   17.6380  -32.8275 H   0  0  0  0  0  0  0  0  0  0  0  0
   -9.7451   19.5524  -31.0385 H   0  0  0  0  0  0  0  0  0  0  0  0
   -8.6758   18.1983  -30.5709 H   0  0  0  0  0  0  0  0  0  0  0  0
   -7.8218   24.1874  -32.3358 H   0  0  0  0  0  0  0  0  0  0  0  0
   -5.9771   25.8550  -32.1654 H   0  0  0  0  0  0  0  0  0  0  0  0
   -3.4966   22.2508  -31.4554 H   0  0  0  0  0  0  0  0  0  0  0  0
   -5.2130   17.4605  -33.6283 H   0  0  0  0  0  0  0  0  0  0  0  0
   -4.7468   18.8832  -34.6665 H   0  0  0  0  0  0  0  0  0  0  0  0
   -3.7027   16.0484  -34.7032 H   0  0  0  0  0  0  0  0  0  0  0  0
   -4.1699   17.1343  -36.0627 H   0  0  0  0  0  0  0  0  0  0  0  0
   -1.3608   16.1488  -34.0026 H   0  0  0  0  0  0  0  0  0  0  0  0
   -0.6948   17.8490  -34.0790 H   0  0  0  0  0  0  0  0  0  0  0  0
   -2.7650   16.6880  -32.2984 H   0  0  0  0  0  0  0  0  0  0  0  0
   -1.6691   18.1234  -32.0891 H   0  0  0  0  0  0  0  0  0  0  0  0
   -0.3944   19.3516  -32.2689 H   0  0  0  0  0  0  0  0  0  0  0  0
    0.8978   20.1771  -30.3075 H   0  0  0  0  0  0  0  0  0  0  0  0
  1  2  2  0
  2  3  1  0
  3  4  1  0
  4  5  2  0
  5  6  1  0
  6  7  1  0
  7  8  2  0
  7  9  2  0
  7 10  1  0
 10 11  1  0
 11 12  1  0
 12 13  1  0
 13 14  1  0
  6 15  2  0
 15 16  1  0
 16 17  2  0
 17 18  1  0
  2 19  1  0
 19 20  2  0
 20 21  1  0
 21 22  1  0
 22 23  2  0
 22 24  2  0
 22 25  1  0
 25 26  1  0
 26 27  1  0
 27 28  1  0
 28 29  1  0
 29 30  1  0
 21 31  2  0
 31 32  1  0
 32 33  2  0
 33 34  1  0
 17  4  1  0
 33 19  1  0
 14 10  1  0
 30 25  1  0
  5 35  1  0
 11 36  1  0
 11 37  1  0
 12 38  1  0
 12 39  1  0
 13 40  1  0
 13 41  1  0
 14 42  1  0
 14 43  1  0
 15 44  1  0
 16 45  1  0
 20 46  1  0
 26 47  1  0
 26 48  1  0
 27 49  1  0
 27 50  1  0
 29 51  1  0
 29 52  1  0
 30 53  1  0
 30 54  1  0
 31 55  1  0
 32 56  1  0
M  CHG  3   3  -1  18  -1  34  -1
M  END
>  <UniqueID>  (21) 
20

>  <SMILES>  (21) 
O=C([N-]c1cc(S(=O)(=O)N2CCCC2)ccc1[O-])c1cc(S(=O)(=O)N2CCOCC2)ccc1[O-]

>  <Energy>  (21) 
75.51015627137795

>  <Genealogy>  (21) 
O=C([N-]c1cc(S(=O)(=O)N2CCCC2)ccc1[O-])c1cc(S(=O)(=O)N2CCOCC2)ccc1[O-] (protonated)
O=C([N-]c1cc(S(=O)(=O)N2CCCC2)ccc1[O-])c1cc(S(=O)(=O)N2CCOCC2)ccc1[O-] (3D coordinates assigned)
O=C([N-]c1cc(S(=O)(=O)N2CCCC2)ccc1[O-])c1cc(S(=O)(=O)N2CCOCC2)ccc1[O-] (nonaromatic ring conformer: 75.51015627137795 kcal/mol)

>  <smiles>  (21) 
O=C(Nc1cc(S(=O)(=O)N2CCCC2)ccc1O)c1cc(S(=O)(=O)N2CCOCC2)ccc1O

>  <score_type>  (21) 
oracle

>  <origin>  (21) 
adgpu

>  <m_score__min__energy>  (21) 
-16.219999999999999

>  <m_primary>  (21) 
energy

$$$$
21:0
     RDKit          3D

 40 42  0  0  0  0  0  0  0  0999 V2000
    0.0020   23.0710  -35.7860 N   0  0  0  0  0  0  0  0  0  0  0  0
    0.5490   21.6300  -35.0010 S   0  0  0  0  0  0  0  0  0  0  0  0
    0.7450   20.5400  -36.0170 O   0  0  0  0  0  0  0  0  0  0  0  0
    1.8560   21.9150  -34.3180 O   0  0  0  0  0  0  0  0  0  0  0  0
   -0.6340   21.1200  -33.8110 C   0  0  0  0  0  0  0  0  0  0  0  0
   -1.9620   20.8130  -34.0760 C   0  0  0  0  0  0  0  0  0  0  0  0
   -2.6630   20.4000  -32.9360 C   0  0  0  0  0  0  0  0  0  0  0  0
   -4.3450   19.8930  -32.9690 S   0  0  0  0  0  0  0  0  0  0  0  0
   -4.5530   18.7280  -32.0410 O   0  0  0  0  0  0  0  0  0  0  0  0
   -4.7080   19.4630  -34.3620 O   0  0  0  0  0  0  0  0  0  0  0  0
   -5.3630   21.2320  -32.4500 C   0  0  0  0  0  0  0  0  0  0  0  0
   -6.5980   20.9720  -31.8380 C   0  0  0  0  0  0  0  0  0  0  0  0
   -7.4050   22.0310  -31.4070 C   0  0  0  0  0  0  0  0  0  0  0  0
   -6.9780   23.3510  -31.5800 C   0  0  0  0  0  0  0  0  0  0  0  0
   -5.7450   23.6150  -32.1830 C   0  0  0  0  0  0  0  0  0  0  0  0
   -4.9380   22.5590  -32.6170 C   0  0  0  0  0  0  0  0  0  0  0  0
   -1.8880   20.4100  -31.7800 C   0  0  0  0  0  0  0  0  0  0  0  0
   -2.3170   19.8910  -30.5140 N   0  0  0  0  0  0  0  0  0  0  0  0
   -2.3830   20.5300  -29.3810 C   0  0  0  0  0  0  0  0  0  0  0  0
   -2.2020   21.9890  -29.2390 C   0  0  0  0  0  0  0  0  0  0  0  0
   -1.1240   22.5200  -28.5080 C   0  0  0  0  0  0  0  0  0  0  0  0
   -0.9510   23.9030  -28.4160 C   0  0  0  0  0  0  0  0  0  0  0  0
   -1.8330   24.7680  -29.0690 C   0  0  0  0  0  0  0  0  0  0  0  0
   -1.6540   26.1420  -28.9710 O   0  0  0  0  0  0  0  0  0  0  0  0
   -2.8920   24.2480  -29.8260 C   0  0  0  0  0  0  0  0  0  0  0  0
   -3.7610   25.1150  -30.4860 O   0  0  0  0  0  0  0  0  0  0  0  0
   -3.0680   22.8600  -29.9180 C   0  0  0  0  0  0  0  0  0  0  0  0
   -0.3140   20.8680  -32.1800 S   0  0  0  0  0  0  0  0  0  0  0  0
   -0.8210   22.8080  -36.3740 H   0  0  0  0  0  0  0  0  0  0  0  0
   -2.4155   20.8864  -35.0755 H   0  0  0  0  0  0  0  0  0  0  0  0
   -6.9328   19.9338  -31.6966 H   0  0  0  0  0  0  0  0  0  0  0  0
   -8.3755   21.8248  -30.9320 H   0  0  0  0  0  0  0  0  0  0  0  0
   -7.6131   24.1827  -31.2412 H   0  0  0  0  0  0  0  0  0  0  0  0
   -5.4094   24.6541  -32.3162 H   0  0  0  0  0  0  0  0  0  0  0  0
   -3.9676   22.7688  -33.0905 H   0  0  0  0  0  0  0  0  0  0  0  0
   -2.5866   19.9456  -28.4716 H   0  0  0  0  0  0  0  0  0  0  0  0
   -0.4151   21.8442  -28.0073 H   0  0  0  0  0  0  0  0  0  0  0  0
   -0.1171   24.3128  -27.8272 H   0  0  0  0  0  0  0  0  0  0  0  0
   -3.4740   26.0490  -30.7580 H   0  0  0  0  0  0  0  0  0  0  0  0
   -3.8891   22.4517  -30.5255 H   0  0  0  0  0  0  0  0  0  0  0  0
  1  2  1  0
  2  3  2  0
  2  4  2  0
  2  5  1  0
  5  6  2  0
  6  7  1  0
  7  8  1  0
  8  9  2  0
  8 10  2  0
  8 11  1  0
 11 12  2  0
 12 13  1  0
 13 14  2  0
 14 15  1  0
 15 16  2  0
  7 17  2  0
 17 18  1  0
 18 19  2  3
 19 20  1  0
 20 21  2  0
 21 22  1  0
 22 23  2  0
 23 24  1  0
 23 25  1  0
 25 26  1  0
 25 27  2  0
 17 28  1  0
 28  5  1  0
 16 11  1  0
 27 20  1  0
  1 29  1  0
  6 30  1  0
 12 31  1  0
 13 32  1  0
 14 33  1  0
 15 34  1  0
 16 35  1  0
 19 36  1  0
 21 37  1  0
 22 38  1  0
 26 39  1  0
 27 40  1  0
M  CHG  2   1  -1  24  -1
M  END
>  <UniqueID>  (22) 
21

>  <SMILES>  (22) 
[NH-]S(=O)(=O)c1cc(S(=O)(=O)c2ccccc2)c(N=Cc2ccc([O-])c(O)c2)s1

>  <Energy>  (22) 
80.31196330102954

>  <Genealogy>  (22) 
[NH-]S(=O)(=O)c1cc(S(=O)(=O)c2ccccc2)c(N=Cc2ccc([O-])c(O)c2)s1 (protonated)
[NH-]S(=O)(=O)c1cc(S(=O)(=O)c2ccccc2)c(N=Cc2ccc([O-])c(O)c2)s1 (3D coordinates assigned)
[NH-]S(=O)(=O)c1cc(S(=O)(=O)c2ccccc2)c(N=Cc2ccc([O-])c(O)c2)s1 (optimized conformer: 80.31196330102954 kcal/mol)

>  <smiles>  (22) 
NS(=O)(=O)c1cc(S(=O)(=O)c2ccccc2)c(N=Cc2ccc(O)c(O)c2)s1

>  <score_type>  (22) 
oracle

>  <origin>  (22) 
adgpu

>  <m_score__min__energy>  (22) 
-13.16

>  <m_primary>  (22) 
energy

$$$$
22:0
     RDKit          3D

 59 62  0  0  0  0  0  0  0  0999 V2000
   -7.5560   22.3600  -29.8970 C   0  0  0  0  0  0  0  0  0  0  0  0
   -8.4010   22.0490  -31.4310 S   0  0  0  0  0  0  0  0  0  0  0  0
   -8.2750   23.2490  -32.3280 O   0  0  0  0  0  0  0  0  0  0  0  0
   -9.8580   21.7990  -31.1610 O   0  0  0  0  0  0  0  0  0  0  0  0
   -7.6880   20.6430  -32.2140 C   0  0  0  0  0  0  0  0  0  0  0  0
   -8.1950   19.3630  -31.9590 C   0  0  0  0  0  0  0  0  0  0  0  0
   -7.6390   18.2460  -32.5890 C   0  0  0  0  0  0  0  0  0  0  0  0
   -6.5770   18.3990  -33.4930 C   0  0  0  0  0  0  0  0  0  0  0  0
   -5.9520   17.1950  -34.1410 C   0  0  0  0  0  0  0  0  0  0  0  0
   -4.5910   16.9580  -33.5730 C   0  0  0  0  0  0  0  0  0  0  0  0
   -4.0510   15.7380  -33.3790 N   0  0  0  0  0  0  0  0  0  0  0  0
   -2.8360   15.9780  -32.9140 N   0  0  0  0  0  0  0  0  0  0  0  0
   -2.6520   17.2850  -32.8480 N   0  0  0  0  0  0  0  0  0  0  0  0
   -1.4530   17.9230  -32.3190 C   0  0  0  0  0  0  0  0  0  0  0  0
   -0.5480   18.2680  -33.4150 N   0  0  0  0  0  0  0  0  0  0  0  0
    0.0190   17.2340  -34.2280 C   0  0  0  0  0  0  0  0  0  0  0  0
    1.3440   16.8290  -34.0070 C   0  0  0  0  0  0  0  0  0  0  0  0
    1.9180   15.8370  -34.8040 C   0  0  0  0  0  0  0  0  0  0  0  0
    1.1730   15.2390  -35.8240 C   0  0  0  0  0  0  0  0  0  0  0  0
   -0.1500   15.6320  -36.0480 C   0  0  0  0  0  0  0  0  0  0  0  0
   -0.8840   15.0300  -37.0630 O   0  0  0  0  0  0  0  0  0  0  0  0
   -0.7370   16.6260  -35.2510 C   0  0  0  0  0  0  0  0  0  0  0  0
   -2.0650   16.9870  -35.4840 O   0  0  0  0  0  0  0  0  0  0  0  0
   -0.3170   19.9310  -33.8570 S   0  0  0  0  0  0  0  0  0  0  0  0
   -0.5600   20.1110  -35.3300 O   0  0  0  0  0  0  0  0  0  0  0  0
    1.1000   20.3350  -33.5580 O   0  0  0  0  0  0  0  0  0  0  0  0
   -1.4450   20.9380  -32.9570 C   0  0  0  0  0  0  0  0  0  0  0  0
   -2.7000   21.2510  -33.4970 C   0  0  0  0  0  0  0  0  0  0  0  0
   -3.5720   22.0970  -32.8060 C   0  0  0  0  0  0  0  0  0  0  0  0
   -3.1930   22.6420  -31.5710 C   0  0  0  0  0  0  0  0  0  0  0  0
   -4.2960   23.7070  -30.7040 S   0  0  0  0  0  0  0  0  0  0  0  0
   -3.4880   25.1850  -30.3180 N   0  0  0  0  0  0  0  0  0  0  0  0
   -5.4980   24.0040  -31.5570 O   0  0  0  0  0  0  0  0  0  0  0  0
   -4.7560   23.0380  -29.4400 O   0  0  0  0  0  0  0  0  0  0  0  0
   -1.9420   22.3210  -31.0260 C   0  0  0  0  0  0  0  0  0  0  0  0
   -1.0720   21.4750  -31.7180 C   0  0  0  0  0  0  0  0  0  0  0  0
   -3.7260   17.9400  -33.2510 N   0  0  0  0  0  0  0  0  0  0  0  0
   -6.0660   19.6820  -33.7430 C   0  0  0  0  0  0  0  0  0  0  0  0
   -6.6240   20.7980  -33.1130 C   0  0  0  0  0  0  0  0  0  0  0  0
   -8.2212   22.1152  -29.0558 H   0  0  0  0  0  0  0  0  0  0  0  0
   -6.6519   21.7357  -29.8433 H   0  0  0  0  0  0  0  0  0  0  0  0
   -7.2724   23.4214  -29.8433 H   0  0  0  0  0  0  0  0  0  0  0  0
   -9.0346   19.2359  -31.2598 H   0  0  0  0  0  0  0  0  0  0  0  0
   -8.0358   17.2426  -32.3751 H   0  0  0  0  0  0  0  0  0  0  0  0
   -6.5827   16.3130  -33.9557 H   0  0  0  0  0  0  0  0  0  0  0  0
   -5.8659   17.3713  -35.2234 H   0  0  0  0  0  0  0  0  0  0  0  0
   -1.7353   18.8378  -31.7774 H   0  0  0  0  0  0  0  0  0  0  0  0
   -0.9447   17.2278  -31.6347 H   0  0  0  0  0  0  0  0  0  0  0  0
    1.9326   17.2948  -33.2029 H   0  0  0  0  0  0  0  0  0  0  0  0
    2.9583   15.5255  -34.6289 H   0  0  0  0  0  0  0  0  0  0  0  0
    1.6279   14.4583  -36.4513 H   0  0  0  0  0  0  0  0  0  0  0  0
   -2.8100   16.7600  -34.8360 H   0  0  0  0  0  0  0  0  0  0  0  0
   -2.9996   20.8294  -34.4678 H   0  0  0  0  0  0  0  0  0  0  0  0
   -4.5577   22.3357  -33.2320 H   0  0  0  0  0  0  0  0  0  0  0  0
   -3.4880   25.7670  -31.1850 H   0  0  0  0  0  0  0  0  0  0  0  0
   -1.6448   22.7360  -30.0516 H   0  0  0  0  0  0  0  0  0  0  0  0
   -0.0897   21.2294  -31.2881 H   0  0  0  0  0  0  0  0  0  0  0  0
   -5.2228   19.8099  -34.4377 H   0  0  0  0  0  0  0  0  0  0  0  0
   -6.2265   21.8018  -33.3236 H   0  0  0  0  0  0  0  0  0  0  0  0
  1  2  1  0
  2  3  2  0
  2  4  2  0
  2  5  1  0
  5  6  2  0
  6  7  1  0
  7  8  2  0
  8  9  1  0
  9 10  1  0
 10 11  1  0
 11 12  2  0
 12 13  1  0
 13 14  1  0
 14 15  1  0
 15 16  1  0
 16 17  2  0
 17 18  1  0
 18 19  2  0
 19 20  1  0
 20 21  1  0
 20 22  2  0
 22 23  1  0
 15 24  1  0
 24 25  2  0
 24 26  2  0
 24 27  1  0
 27 28  2  0
 28 29  1  0
 29 30  2  0
 30 31  1  0
 31 32  1  0
 31 33  2  0
 31 34  2  0
 30 35  1  0
 35 36  2  0
 13 37  1  0
  8 38  1  0
 38 39  2  0
 39  5  1  0
 37 10  2  0
 22 16  1  0
 36 27  1  0
  1 40  1  0
  1 41  1  0
  1 42  1  0
  6 43  1  0
  7 44  1  0
  9 45  1  0
  9 46  1  0
 14 47  1  0
 14 48  1  0
 17 49  1  0
 18 50  1  0
 19 51  1  0
 23 52  1  0
 28 53  1  0
 29 54  1  0
 32 55  1  0
 35 56  1  0
 36 57  1  0
 38 58  1  0
 39 59  1  0
M  CHG  2  21  -1  32  -1
M  END
>  <UniqueID>  (23) 
22

>  <SMILES>  (23) 
CS(=O)(=O)c1ccc(Cc2nnn(CN(c3cccc([O-])c3O)S(=O)(=O)c3ccc(S([NH-])(=O)=O)cc3)n2)cc1

>  <Energy>  (23) 
100.14438767029347

>  <Genealogy>  (23) 
CS(=O)(=O)c1ccc(Cc2nnn(CN(c3cccc([O-])c3O)S(=O)(=O)c3ccc(S([NH-])(=O)=O)cc3)n2)cc1 (protonated)
CS(=O)(=O)c1ccc(Cc2nnn(CN(c3cccc([O-])c3O)S(=O)(=O)c3ccc(S([NH-])(=O)=O)cc3)n2)cc1 (3D coordinates assigned)
CS(=O)(=O)c1ccc(Cc2nnn(CN(c3cccc([O-])c3O)S(=O)(=O)c3ccc(S([NH-])(=O)=O)cc3)n2)cc1 (optimized conformer: 100.14438767029347 kcal/mol)

>  <smiles>  (23) 
CS(=O)(=O)c1ccc(Cc2nnn(CN(c3cccc(O)c3O)S(=O)(=O)c3ccc(S(N)(=O)=O)cc3)n2)cc1

>  <score_type>  (23) 
oracle

>  <origin>  (23) 
adgpu

>  <m_score__min__energy>  (23) 
-13.9

>  <m_primary>  (23) 
energy

$$$$
23:0
     RDKit          3D

 59 62  0  0  0  0  0  0  0  0999 V2000
   -2.6950   21.9470  -28.1690 O   0  0  0  0  0  0  0  0  0  0  0  0
   -1.9300   22.8630  -28.5810 C   0  0  0  0  0  0  0  0  0  0  0  0
   -2.1490   23.4420  -29.8780 N   0  0  0  0  0  0  0  0  0  0  0  0
   -3.3830   23.3030  -30.6020 C   0  0  0  0  0  0  0  0  0  0  0  0
   -3.7250   22.0520  -31.1380 C   0  0  0  0  0  0  0  0  0  0  0  0
   -4.9170   21.8860  -31.8550 C   0  0  0  0  0  0  0  0  0  0  0  0
   -5.3230   20.3050  -32.5200 S   0  0  0  0  0  0  0  0  0  0  0  0
   -4.0730   19.4890  -32.6970 O   0  0  0  0  0  0  0  0  0  0  0  0
   -5.9500   20.5070  -33.8710 O   0  0  0  0  0  0  0  0  0  0  0  0
   -6.4560   19.4700  -31.4770 N   0  0  0  0  0  0  0  0  0  0  0  0
   -6.0160   18.0960  -31.1630 C   0  0  0  0  0  0  0  0  0  0  0  0
   -6.1880   17.1250  -32.3470 C   0  0  0  0  0  0  0  0  0  0  0  0
   -7.4870   17.3610  -33.1380 C   0  0  0  0  0  0  0  0  0  0  0  0
   -8.4810   18.2200  -32.3600 C   0  0  0  0  0  0  0  0  0  0  0  0
   -7.8500   19.5720  -31.9810 C   0  0  0  0  0  0  0  0  0  0  0  0
   -5.7620   22.9840  -32.0600 C   0  0  0  0  0  0  0  0  0  0  0  0
   -5.4160   24.2390  -31.5530 C   0  0  0  0  0  0  0  0  0  0  0  0
   -4.2280   24.4070  -30.8350 C   0  0  0  0  0  0  0  0  0  0  0  0
   -3.8810   25.6760  -30.3870 O   0  0  0  0  0  0  0  0  0  0  0  0
   -0.7890   23.2960  -27.7400 C   0  0  0  0  0  0  0  0  0  0  0  0
   -0.8640   23.1960  -26.3390 C   0  0  0  0  0  0  0  0  0  0  0  0
    0.2070   23.6070  -25.5400 C   0  0  0  0  0  0  0  0  0  0  0  0
    1.3630   24.1340  -26.1250 C   0  0  0  0  0  0  0  0  0  0  0  0
    2.7100   24.6370  -25.1070 S   0  0  0  0  0  0  0  0  0  0  0  0
    3.9920   24.2310  -25.7790 O   0  0  0  0  0  0  0  0  0  0  0  0
    2.6300   23.9470  -23.7720 O   0  0  0  0  0  0  0  0  0  0  0  0
    2.6800   26.3750  -24.8950 N   0  0  0  0  0  0  0  0  0  0  0  0
    1.7880   27.0020  -25.8730 C   0  0  0  0  0  0  0  0  0  0  0  0
    0.4100   27.1330  -25.2400 C   0  0  0  0  0  0  0  0  0  0  0  0
    0.6330   26.9730  -23.7490 C   0  0  0  0  0  0  0  0  0  0  0  0
    2.1240   26.7210  -23.5810 C   0  0  0  0  0  0  0  0  0  0  0  0
    1.4430   24.2440  -27.5200 C   0  0  0  0  0  0  0  0  0  0  0  0
    0.3750   23.8310  -28.3220 C   0  0  0  0  0  0  0  0  0  0  0  0
   -1.3240   23.8230  -30.3930 H   0  0  0  0  0  0  0  0  0  0  0  0
   -3.0514   21.1944  -30.9939 H   0  0  0  0  0  0  0  0  0  0  0  0
   -4.9525   18.1235  -30.8835 H   0  0  0  0  0  0  0  0  0  0  0  0
   -6.6466   17.7278  -30.3403 H   0  0  0  0  0  0  0  0  0  0  0  0
   -5.3347   17.2509  -33.0297 H   0  0  0  0  0  0  0  0  0  0  0  0
   -6.2371   16.1075  -31.9320 H   0  0  0  0  0  0  0  0  0  0  0  0
   -7.2409   17.8692  -34.0820 H   0  0  0  0  0  0  0  0  0  0  0  0
   -7.9548   16.3829  -33.3236 H   0  0  0  0  0  0  0  0  0  0  0  0
   -9.3698   18.3981  -32.9832 H   0  0  0  0  0  0  0  0  0  0  0  0
   -8.7620   17.6895  -31.4382 H   0  0  0  0  0  0  0  0  0  0  0  0
   -7.8486   20.2150  -32.8735 H   0  0  0  0  0  0  0  0  0  0  0  0
   -8.4548   19.9858  -31.1606 H   0  0  0  0  0  0  0  0  0  0  0  0
   -6.6997   22.8580  -32.6212 H   0  0  0  0  0  0  0  0  0  0  0  0
   -6.0813   25.0990  -31.7194 H   0  0  0  0  0  0  0  0  0  0  0  0
   -1.7722   22.7913  -25.8685 H   0  0  0  0  0  0  0  0  0  0  0  0
    0.1402   23.5155  -24.4458 H   0  0  0  0  0  0  0  0  0  0  0  0
    2.1708   27.9975  -26.1424 H   0  0  0  0  0  0  0  0  0  0  0  0
    1.7318   26.3898  -26.7852 H   0  0  0  0  0  0  0  0  0  0  0  0
   -0.0222   28.1202  -25.4604 H   0  0  0  0  0  0  0  0  0  0  0  0
   -0.2920   26.3817  -25.6308 H   0  0  0  0  0  0  0  0  0  0  0  0
    0.3362   27.8885  -23.2163 H   0  0  0  0  0  0  0  0  0  0  0  0
    0.0326   26.1497  -23.3345 H   0  0  0  0  0  0  0  0  0  0  0  0
    2.6141   27.6274  -23.1959 H   0  0  0  0  0  0  0  0  0  0  0  0
    2.2935   25.9007  -22.8680 H   0  0  0  0  0  0  0  0  0  0  0  0
    2.3499   24.6570  -27.9857 H   0  0  0  0  0  0  0  0  0  0  0  0
    0.4451   23.9249  -29.4157 H   0  0  0  0  0  0  0  0  0  0  0  0
  1  2  2  0
  2  3  1  0
  3  4  1  0
  4  5  2  0
  5  6  1  0
  6  7  1  0
  7  8  2  0
  7  9  2  0
  7 10  1  0
 10 11  1  0
 11 12  1  0
 12 13  1  0
 13 14  1  0
 14 15  1  0
  6 16  2  0
 16 17  1  0
 17 18  2  0
 18 19  1  0
  2 20  1  0
 20 21  2  0
 21 22  1  0
 22 23  2  0
 23 24  1  0
 24 25  2  0
 24 26  2  0
 24 27  1  0
 27 28  1  0
 28 29  1  0
 29 30  1  0
 30 31  1  0
 23 32  1  0
 32 33  2  0
 18  4  1  0
 33 20  1  0
 15 10  1  0
 31 27  1  0
  3 34  1  0
  5 35  1  0
 11 36  1  0
 11 37  1  0
 12 38  1  0
 12 39  1  0
 13 40  1  0
 13 41  1  0
 14 42  1  0
 14 43  1  0
 15 44  1  0
 15 45  1  0
 16 46  1  0
 17 47  1  0
 21 48  1  0
 22 49  1  0
 28 50  1  0
 28 51  1  0
 29 52  1  0
 29 53  1  0
 30 54  1  0
 30 55  1  0
 31 56  1  0
 31 57  1  0
 32 58  1  0
 33 59  1  0
M  CHG  1  19  -1
M  END
>  <UniqueID>  (24) 
23

>  <SMILES>  (24) 
O=C(Nc1cc(S(=O)(=O)N2CCCCC2)ccc1[O-])c1ccc(S(=O)(=O)N2CCCC2)cc1

>  <Energy>  (24) 
76.18865559242064

>  <Genealogy>  (24) 
O=C(Nc1cc(S(=O)(=O)N2CCCCC2)ccc1[O-])c1ccc(S(=O)(=O)N2CCCC2)cc1 (protonated)
O=C(Nc1cc(S(=O)(=O)N2CCCCC2)ccc1[O-])c1ccc(S(=O)(=O)N2CCCC2)cc1 (3D coordinates assigned)
O=C(Nc1cc(S(=O)(=O)N2CCCCC2)ccc1[O-])c1ccc(S(=O)(=O)N2CCCC2)cc1 (nonaromatic ring conformer: 76.18865559242064 kcal/mol)

>  <smiles>  (24) 
O=C(Nc1cc(S(=O)(=O)N2CCCCC2)ccc1O)c1ccc(S(=O)(=O)N2CCCC2)cc1

>  <score_type>  (24) 
oracle

>  <origin>  (24) 
adgpu

>  <m_score__min__energy>  (24) 
-12.529999999999999

>  <m_primary>  (24) 
energy

$$$$
24:0
     RDKit          3D

 50 52  0  0  0  0  0  0  0  0999 V2000
   -1.6410   20.3900  -26.5410 C   0  0  0  0  0  0  0  0  0  0  0  0
   -2.1400   20.9360  -27.8450 C   0  0  0  0  0  0  0  0  0  0  0  0
   -2.7520   20.1560  -28.6250 O   0  0  0  0  0  0  0  0  0  0  0  0
   -1.9340   22.3580  -28.2350 C   0  0  0  0  0  0  0  0  0  0  0  0
   -0.8660   23.0890  -27.6880 C   0  0  0  0  0  0  0  0  0  0  0  0
   -0.6560   24.4200  -28.0530 C   0  0  0  0  0  0  0  0  0  0  0  0
   -1.5100   25.0490  -28.9620 C   0  0  0  0  0  0  0  0  0  0  0  0
   -1.2320   26.3580  -29.3360 O   0  0  0  0  0  0  0  0  0  0  0  0
   -2.6060   24.3430  -29.5000 C   0  0  0  0  0  0  0  0  0  0  0  0
   -3.5320   24.9240  -30.4300 N   0  0  0  0  0  0  0  0  0  0  0  0
   -5.2090   24.5190  -30.6060 S   0  0  0  0  0  0  0  0  0  0  0  0
   -5.8360   24.2860  -29.2600 O   0  0  0  0  0  0  0  0  0  0  0  0
   -5.9180   25.6520  -31.2960 O   0  0  0  0  0  0  0  0  0  0  0  0
   -5.3450   23.0350  -31.5630 C   0  0  0  0  0  0  0  0  0  0  0  0
   -4.1740   22.3400  -31.9080 C   0  0  0  0  0  0  0  0  0  0  0  0
   -4.2350   21.1580  -32.6530 C   0  0  0  0  0  0  0  0  0  0  0  0
   -2.7510   20.2880  -33.0380 S   0  0  0  0  0  0  0  0  0  0  0  0
   -2.8780   19.7310  -34.4280 O   0  0  0  0  0  0  0  0  0  0  0  0
   -2.5730   19.1390  -32.0850 O   0  0  0  0  0  0  0  0  0  0  0  0
   -1.3700   21.3650  -32.9720 N   0  0  0  0  0  0  0  0  0  0  0  0
   -0.8960   21.5700  -31.5910 C   0  0  0  0  0  0  0  0  0  0  0  0
   -0.1560   20.3310  -31.0360 C   0  0  0  0  0  0  0  0  0  0  0  0
    0.2900   19.4380  -32.0430 O   0  0  0  0  0  0  0  0  0  0  0  0
    0.8290   20.1550  -33.1300 C   0  0  0  0  0  0  0  0  0  0  0  0
   -0.2840   20.9170  -33.8720 C   0  0  0  0  0  0  0  0  0  0  0  0
   -5.4770   20.6550  -33.0520 C   0  0  0  0  0  0  0  0  0  0  0  0
   -6.6490   21.3340  -32.7190 C   0  0  0  0  0  0  0  0  0  0  0  0
   -6.6010   22.5300  -31.9830 C   0  0  0  0  0  0  0  0  0  0  0  0
   -7.8930   23.2180  -31.6290 C   0  0  0  0  0  0  0  0  0  0  0  0
   -2.7940   23.0000  -29.1470 C   0  0  0  0  0  0  0  0  0  0  0  0
   -2.1275   20.9223  -25.7104 H   0  0  0  0  0  0  0  0  0  0  0  0
   -1.8777   19.3176  -26.4779 H   0  0  0  0  0  0  0  0  0  0  0  0
   -0.5517   20.5294  -26.4779 H   0  0  0  0  0  0  0  0  0  0  0  0
   -0.1895   22.6084  -26.9659 H   0  0  0  0  0  0  0  0  0  0  0  0
    0.1883   24.9776  -27.6215 H   0  0  0  0  0  0  0  0  0  0  0  0
   -3.1966   22.7304  -31.5881 H   0  0  0  0  0  0  0  0  0  0  0  0
   -0.2087   22.4288  -31.5764 H   0  0  0  0  0  0  0  0  0  0  0  0
   -1.7759   21.7497  -30.9558 H   0  0  0  0  0  0  0  0  0  0  0  0
    0.7185   20.6753  -30.4644 H   0  0  0  0  0  0  0  0  0  0  0  0
   -0.8738   19.7797  -30.4108 H   0  0  0  0  0  0  0  0  0  0  0  0
    1.5741   20.8732  -32.7572 H   0  0  0  0  0  0  0  0  0  0  0  0
    1.3031   19.4471  -33.8258 H   0  0  0  0  0  0  0  0  0  0  0  0
    0.1576   21.8002  -34.3568 H   0  0  0  0  0  0  0  0  0  0  0  0
   -0.7255   20.2268  -34.6060 H   0  0  0  0  0  0  0  0  0  0  0  0
   -5.5300   19.7208  -33.6304 H   0  0  0  0  0  0  0  0  0  0  0  0
   -7.6213   20.9288  -33.0360 H   0  0  0  0  0  0  0  0  0  0  0  0
   -7.9924   23.2709  -30.5348 H   0  0  0  0  0  0  0  0  0  0  0  0
   -7.8930   24.2356  -32.0468 H   0  0  0  0  0  0  0  0  0  0  0  0
   -8.7373   22.6501  -32.0468 H   0  0  0  0  0  0  0  0  0  0  0  0
   -3.6285   22.4369  -29.5903 H   0  0  0  0  0  0  0  0  0  0  0  0
  1  2  1  0
  2  3  2  0
  2  4  1  0
  4  5  2  0
  5  6  1  0
  6  7  2  0
  7  8  1  0
  7  9  1  0
  9 10  1  0
 10 11  1  0
 11 12  2  0
 11 13  2  0
 11 14  1  0
 14 15  2  0
 15 16  1  0
 16 17  1  0
 17 18  2  0
 17 19  2  0
 17 20  1  0
 20 21  1  0
 21 22  1  0
 22 23  1  0
 23 24  1  0
 24 25  1  0
 16 26  2  0
 26 27  1  0
 27 28  2  0
 28 29  1  0
  9 30  2  0
 30  4  1  0
 28 14  1  0
 25 20  1  0
  1 31  1  0
  1 32  1  0
  1 33  1  0
  5 34  1  0
  6 35  1  0
 15 36  1  0
 21 37  1  0
 21 38  1  0
 22 39  1  0
 22 40  1  0
 24 41  1  0
 24 42  1  0
 25 43  1  0
 25 44  1  0
 26 45  1  0
 27 46  1  0
 29 47  1  0
 29 48  1  0
 29 49  1  0
 30 50  1  0
M  CHG  2   8  -1  10  -1
M  END
>  <UniqueID>  (25) 
24

>  <SMILES>  (25) 
CC(=O)c1ccc([O-])c([N-]S(=O)(=O)c2cc(S(=O)(=O)N3CCOCC3)ccc2C)c1

>  <Energy>  (25) 
71.11314241336949

>  <Genealogy>  (25) 
CC(=O)c1ccc([O-])c([N-]S(=O)(=O)c2cc(S(=O)(=O)N3CCOCC3)ccc2C)c1 (protonated)
CC(=O)c1ccc([O-])c([N-]S(=O)(=O)c2cc(S(=O)(=O)N3CCOCC3)ccc2C)c1 (3D coordinates assigned)
CC(=O)c1ccc([O-])c([N-]S(=O)(=O)c2cc(S(=O)(=O)N3CCOCC3)ccc2C)c1 (nonaromatic ring conformer: 71.11314241336949 kcal/mol)

>  <smiles>  (25) 
CC(=O)c1ccc(O)c(NS(=O)(=O)c2cc(S(=O)(=O)N3CCOCC3)ccc2C)c1

>  <score_type>  (25) 
oracle

>  <origin>  (25) 
adgpu

>  <m_score__min__energy>  (25) 
-13.710000000000001

>  <m_primary>  (25) 
energy

$$$$
25:0
     RDKit          3D

 39 42  0  0  0  0  0  0  0  0999 V2000
   -9.0220   21.6170  -30.2630 O   0  0  0  0  0  0  0  0  0  0  0  0
   -8.5440   22.3360  -31.4950 S   0  0  0  0  0  0  0  0  0  0  0  0
   -9.5910   23.3260  -31.9180 O   0  0  0  0  0  0  0  0  0  0  0  0
   -8.3030   21.1820  -32.7690 N   0  0  0  0  0  0  0  0  0  0  0  0
   -7.5570   19.9600  -32.6560 C   0  0  0  0  0  0  0  0  0  0  0  0
   -6.4330   19.7050  -33.4620 C   0  0  0  0  0  0  0  0  0  0  0  0
   -5.7190   18.5110  -33.3310 C   0  0  0  0  0  0  0  0  0  0  0  0
   -6.1180   17.5520  -32.3850 C   0  0  0  0  0  0  0  0  0  0  0  0
   -7.2380   17.8040  -31.5790 C   0  0  0  0  0  0  0  0  0  0  0  0
   -7.9580   18.9960  -31.7120 C   0  0  0  0  0  0  0  0  0  0  0  0
   -9.0680   19.2020  -30.8940 O   0  0  0  0  0  0  0  0  0  0  0  0
   -5.3420   16.2710  -32.1950 C   0  0  0  0  0  0  0  0  0  0  0  0
   -4.1800   16.1100  -33.1440 C   0  0  0  0  0  0  0  0  0  0  0  0
   -3.3920   14.9480  -33.0780 C   0  0  0  0  0  0  0  0  0  0  0  0
   -2.2920   14.7960  -33.9260 C   0  0  0  0  0  0  0  0  0  0  0  0
   -1.9730   15.7970  -34.8490 C   0  0  0  0  0  0  0  0  0  0  0  0
   -2.7560   16.9520  -34.9230 C   0  0  0  0  0  0  0  0  0  0  0  0
   -3.8530   17.1150  -34.0720 C   0  0  0  0  0  0  0  0  0  0  0  0
   -4.6110   18.2850  -34.1480 O   0  0  0  0  0  0  0  0  0  0  0  0
   -7.0410   23.1990  -31.1820 C   0  0  0  0  0  0  0  0  0  0  0  0
   -7.0790   24.4380  -30.5250 C   0  0  0  0  0  0  0  0  0  0  0  0
   -5.8950   25.1370  -30.2730 C   0  0  0  0  0  0  0  0  0  0  0  0
   -4.6660   24.6010  -30.6740 C   0  0  0  0  0  0  0  0  0  0  0  0
   -3.4890   25.2990  -30.4230 O   0  0  0  0  0  0  0  0  0  0  0  0
   -4.6230   23.3640  -31.3280 C   0  0  0  0  0  0  0  0  0  0  0  0
   -5.8070   22.6630  -31.5810 C   0  0  0  0  0  0  0  0  0  0  0  0
   -6.1129   20.4527  -34.2026 H   0  0  0  0  0  0  0  0  0  0  0  0
   -7.5531   17.0573  -30.8353 H   0  0  0  0  0  0  0  0  0  0  0  0
   -9.4950   20.1130  -30.7740 H   0  0  0  0  0  0  0  0  0  0  0  0
   -4.9534   16.2515  -31.1661 H   0  0  0  0  0  0  0  0  0  0  0  0
   -6.0377   15.4443  -32.4011 H   0  0  0  0  0  0  0  0  0  0  0  0
   -3.6420   14.1560  -32.3567 H   0  0  0  0  0  0  0  0  0  0  0  0
   -1.6755   13.8869  -33.8675 H   0  0  0  0  0  0  0  0  0  0  0  0
   -1.1068   15.6753  -35.5159 H   0  0  0  0  0  0  0  0  0  0  0  0
   -2.5082   17.7360  -35.6537 H   0  0  0  0  0  0  0  0  0  0  0  0
   -8.0435   24.8607  -30.2072 H   0  0  0  0  0  0  0  0  0  0  0  0
   -5.9293   26.1090  -29.7592 H   0  0  0  0  0  0  0  0  0  0  0  0
   -3.6571   22.9427  -31.6434 H   0  0  0  0  0  0  0  0  0  0  0  0
   -5.7706   21.6903  -32.0934 H   0  0  0  0  0  0  0  0  0  0  0  0
  1  2  2  0
  2  3  2  0
  2  4  1  0
  4  5  1  0
  5  6  2  0
  6  7  1  0
  7  8  2  0
  8  9  1  0
  9 10  2  0
 10 11  1  0
  8 12  1  0
 12 13  1  0
 13 14  2  0
 14 15  1  0
 15 16  2  0
 16 17  1  0
 17 18  2  0
 18 19  1  0
  2 20  1  0
 20 21  2  0
 21 22  1  0
 22 23  2  0
 23 24  1  0
 23 25  1  0
 25 26  2  0
 10  5  1  0
 18 13  1  0
 26 20  1  0
 19  7  1  0
  6 27  1  0
  9 28  1  0
 11 29  1  0
 12 30  1  0
 12 31  1  0
 14 32  1  0
 15 33  1  0
 16 34  1  0
 17 35  1  0
 21 36  1  0
 22 37  1  0
 25 38  1  0
 26 39  1  0
M  CHG  2   4  -1  24  -1
M  END
>  <UniqueID>  (26) 
25

>  <SMILES>  (26) 
O=S(=O)([N-]c1cc2c(cc1O)Cc1ccccc1O2)c1ccc([O-])cc1

>  <Energy>  (26) 
49.91982824031758

>  <Genealogy>  (26) 
O=S(=O)([N-]c1cc2c(cc1O)Cc1ccccc1O2)c1ccc([O-])cc1 (protonated)
O=S(=O)([N-]c1cc2c(cc1O)Cc1ccccc1O2)c1ccc([O-])cc1 (3D coordinates assigned)
O=S(=O)([N-]c1cc2c(cc1O)Cc1ccccc1O2)c1ccc([O-])cc1 (nonaromatic ring conformer: 49.91982824031758 kcal/mol)

>  <smiles>  (26) 
O=S(=O)(Nc1cc2c(cc1O)Cc1ccccc1O2)c1ccc(O)cc1

>  <score_type>  (26) 
oracle

>  <origin>  (26) 
adgpu

>  <m_score__min__energy>  (26) 
-11.23

>  <m_primary>  (26) 
energy

$$$$
26:0
     RDKit          3D

 49 52  0  0  0  0  0  0  0  0999 V2000
   -6.4700   17.8830  -31.3480 C   0  0  0  0  0  0  0  0  0  0  0  0
   -7.3110   18.3410  -32.4680 N   0  0  0  0  0  0  0  0  0  0  0  0
   -8.7080   18.6240  -32.0170 C   0  0  0  0  0  0  0  0  0  0  0  0
   -9.2170   20.0520  -32.3130 C   0  0  0  0  0  0  0  0  0  0  0  0
   -8.1340   21.0590  -32.0650 C   0  0  0  0  0  0  0  0  0  0  0  0
   -8.3910   22.2970  -31.4630 C   0  0  0  0  0  0  0  0  0  0  0  0
   -7.3540   23.2190  -31.2920 C   0  0  0  0  0  0  0  0  0  0  0  0
   -6.0510   22.9130  -31.7280 C   0  0  0  0  0  0  0  0  0  0  0  0
   -4.9640   23.8410  -31.5970 N   0  0  0  0  0  0  0  0  0  0  0  0
   -4.8140   24.8410  -30.5820 C   0  0  0  0  0  0  0  0  0  0  0  0
   -5.8210   25.3160  -29.9910 O   0  0  0  0  0  0  0  0  0  0  0  0
   -3.4980   25.2740  -30.2260 N   0  0  0  0  0  0  0  0  0  0  0  0
   -2.6340   24.5610  -29.3330 C   0  0  0  0  0  0  0  0  0  0  0  0
   -1.9080   25.2920  -28.3910 C   0  0  0  0  0  0  0  0  0  0  0  0
   -1.1070   24.6430  -27.4570 C   0  0  0  0  0  0  0  0  0  0  0  0
   -1.0050   23.2500  -27.4590 C   0  0  0  0  0  0  0  0  0  0  0  0
   -0.0280   22.5060  -26.1960 Cl  0  0  0  0  0  0  0  0  0  0  0  0
   -1.6800   22.4910  -28.4420 C   0  0  0  0  0  0  0  0  0  0  0  0
   -1.5320   20.7180  -28.4620 S   0  0  0  0  0  0  0  0  0  0  0  0
   -0.1020   20.3290  -28.7060 O   0  0  0  0  0  0  0  0  0  0  0  0
   -2.3640   20.1200  -29.5640 O   0  0  0  0  0  0  0  0  0  0  0  0
   -2.0530   20.0950  -26.8630 C   0  0  0  0  0  0  0  0  0  0  0  0
   -1.9810   18.5870  -26.6910 C   0  0  0  0  0  0  0  0  0  0  0  0
   -3.3250   19.2670  -26.9040 C   0  0  0  0  0  0  0  0  0  0  0  0
   -2.4940   23.1560  -29.3880 C   0  0  0  0  0  0  0  0  0  0  0  0
   -3.1350   22.4160  -30.3850 O   0  0  0  0  0  0  0  0  0  0  0  0
   -5.8120   21.6890  -32.3680 C   0  0  0  0  0  0  0  0  0  0  0  0
   -6.8500   20.7600  -32.5240 C   0  0  0  0  0  0  0  0  0  0  0  0
   -6.6480   19.4380  -33.2110 C   0  0  0  0  0  0  0  0  0  0  0  0
   -6.9530   18.1460  -30.3954 H   0  0  0  0  0  0  0  0  0  0  0  0
   -6.3442   16.7918  -31.4063 H   0  0  0  0  0  0  0  0  0  0  0  0
   -5.4851   18.3693  -31.4063 H   0  0  0  0  0  0  0  0  0  0  0  0
   -9.3790   17.9122  -32.5201 H   0  0  0  0  0  0  0  0  0  0  0  0
   -8.7021   18.5225  -30.9217 H   0  0  0  0  0  0  0  0  0  0  0  0
   -9.5333   20.1125  -33.3648 H   0  0  0  0  0  0  0  0  0  0  0  0
  -10.0652   20.2717  -31.6480 H   0  0  0  0  0  0  0  0  0  0  0  0
   -9.4082   22.5439  -31.1249 H   0  0  0  0  0  0  0  0  0  0  0  0
   -7.5574   24.1887  -30.8142 H   0  0  0  0  0  0  0  0  0  0  0  0
   -1.9698   26.3903  -28.3873 H   0  0  0  0  0  0  0  0  0  0  0  0
   -0.5504   25.2306  -26.7121 H   0  0  0  0  0  0  0  0  0  0  0  0
   -1.6916   20.9555  -26.2808 H   0  0  0  0  0  0  0  0  0  0  0  0
   -1.5481   17.9625  -27.4864 H   0  0  0  0  0  0  0  0  0  0  0  0
   -1.5632   17.9093  -25.9320 H   0  0  0  0  0  0  0  0  0  0  0  0
   -3.8644   19.1340  -27.8534 H   0  0  0  0  0  0  0  0  0  0  0  0
   -4.2824   19.2845  -26.3626 H   0  0  0  0  0  0  0  0  0  0  0  0
   -3.8280   22.8090  -31.0070 H   0  0  0  0  0  0  0  0  0  0  0  0
   -4.8066   21.4568  -32.7491 H   0  0  0  0  0  0  0  0  0  0  0  0
   -7.0717   19.4920  -34.2247 H   0  0  0  0  0  0  0  0  0  0  0  0
   -5.5690   19.2283  -33.2522 H   0  0  0  0  0  0  0  0  0  0  0  0
  1  2  1  0
  2  3  1  0
  3  4  1  0
  4  5  1  0
  5  6  2  0
  6  7  1  0
  7  8  2  0
  8  9  1  0
  9 10  1  0
 10 11  2  0
 10 12  1  0
 12 13  1  0
 13 14  2  0
 14 15  1  0
 15 16  2  0
 16 17  1  0
 16 18  1  0
 18 19  1  0
 19 20  2  0
 19 21  2  0
 19 22  1  0
 22 23  1  0
 23 24  1  0
 18 25  2  0
 25 26  1  0
  8 27  1  0
 27 28  2  0
 28 29  1  0
 29  2  1  0
 28  5  1  0
 25 13  1  0
 24 22  1  0
  1 30  1  0
  1 31  1  0
  1 32  1  0
  3 33  1  0
  3 34  1  0
  4 35  1  0
  4 36  1  0
  6 37  1  0
  7 38  1  0
 14 39  1  0
 15 40  1  0
 22 41  1  0
 23 42  1  0
 23 43  1  0
 24 44  1  0
 24 45  1  0
 26 46  1  0
 27 47  1  0
 29 48  1  0
 29 49  1  0
M  CHG  2   9  -1  12  -1
M  END
>  <UniqueID>  (27) 
26

>  <SMILES>  (27) 
CN1CCc2ccc([N-]C(=O)[N-]c3ccc(Cl)c(S(=O)(=O)C4CC4)c3O)cc2C1

>  <Energy>  (27) 
339.02053558251424

>  <Genealogy>  (27) 
CN1CCc2ccc([N-]C(=O)[N-]c3ccc(Cl)c(S(=O)(=O)C4CC4)c3O)cc2C1 (protonated)
CN1CCc2ccc([N-]C(=O)[N-]c3ccc(Cl)c(S(=O)(=O)C4CC4)c3O)cc2C1 (3D coordinates assigned)
CN1CCc2ccc([N-]C(=O)[N-]c3ccc(Cl)c(S(=O)(=O)C4CC4)c3O)cc2C1 (nonaromatic ring conformer: 339.02053558251424 kcal/mol)

>  <smiles>  (27) 
CN1CCc2ccc(NC(=O)Nc3ccc(Cl)c(S(=O)(=O)C4CC4)c3O)cc2C1

>  <score_type>  (27) 
oracle

>  <origin>  (27) 
adgpu

>  <m_score__min__energy>  (27) 
-14

>  <m_primary>  (27) 
energy

$$$$
27:0
     RDKit          3D

 45 48  0  0  0  0  0  0  0  0999 V2000
   -4.4860   15.0870  -34.3500 C   0  0  0  0  0  0  0  0  0  0  0  0
   -5.0330   16.4660  -34.2060 C   0  0  0  0  0  0  0  0  0  0  0  0
   -4.7320   17.5390  -35.0210 C   0  0  0  0  0  0  0  0  0  0  0  0
   -5.4600   18.6010  -34.5250 C   0  0  0  0  0  0  0  0  0  0  0  0
   -6.1560   18.1020  -33.4410 C   0  0  0  0  0  0  0  0  0  0  0  0
   -7.0720   18.8620  -32.5840 C   0  0  0  0  0  0  0  0  0  0  0  0
   -8.0800   18.3170  -31.8740 N   0  0  0  0  0  0  0  0  0  0  0  0
   -8.6500   19.3390  -31.2550 N   0  0  0  0  0  0  0  0  0  0  0  0
   -8.0040   20.4450  -31.5810 N   0  0  0  0  0  0  0  0  0  0  0  0
   -8.4350   22.0230  -31.0280 S   0  0  0  0  0  0  0  0  0  0  0  0
   -9.1310   21.9120  -29.7000 O   0  0  0  0  0  0  0  0  0  0  0  0
   -9.3780   22.6630  -32.0070 O   0  0  0  0  0  0  0  0  0  0  0  0
   -6.9800   23.0020  -30.8860 C   0  0  0  0  0  0  0  0  0  0  0  0
   -7.0640   24.3700  -30.5910 C   0  0  0  0  0  0  0  0  0  0  0  0
   -5.9000   25.1300  -30.4560 C   0  0  0  0  0  0  0  0  0  0  0  0
   -4.6450   24.5310  -30.6080 C   0  0  0  0  0  0  0  0  0  0  0  0
   -3.4970   25.2980  -30.4380 O   0  0  0  0  0  0  0  0  0  0  0  0
   -4.5500   23.1610  -30.9090 C   0  0  0  0  0  0  0  0  0  0  0  0
   -3.2680   22.5330  -31.0720 N   0  0  0  0  0  0  0  0  0  0  0  0
   -2.2140   22.8050  -30.0870 C   0  0  0  0  0  0  0  0  0  0  0  0
   -0.9180   22.0800  -30.4620 C   0  0  0  0  0  0  0  0  0  0  0  0
   -1.2200   20.7160  -30.9130 N   0  0  0  0  0  0  0  0  0  0  0  0
   -2.0000   20.6910  -32.1680 C   0  0  0  0  0  0  0  0  0  0  0  0
   -2.9230   21.9150  -32.3570 C   0  0  0  0  0  0  0  0  0  0  0  0
   -5.7240   22.4010  -31.0380 C   0  0  0  0  0  0  0  0  0  0  0  0
   -7.0090   20.1970  -32.4140 N   0  0  0  0  0  0  0  0  0  0  0  0
   -5.8840   16.8300  -33.2740 O   0  0  0  0  0  0  0  0  0  0  0  0
   -4.3145   14.6546  -33.3532 H   0  0  0  0  0  0  0  0  0  0  0  0
   -5.2048   14.4632  -34.9015 H   0  0  0  0  0  0  0  0  0  0  0  0
   -3.5350   15.1255  -34.9015 H   0  0  0  0  0  0  0  0  0  0  0  0
   -4.0528   17.5458  -35.8862 H   0  0  0  0  0  0  0  0  0  0  0  0
   -5.4817   19.6304  -34.9121 H   0  0  0  0  0  0  0  0  0  0  0  0
   -8.0480   24.8454  -30.4657 H   0  0  0  0  0  0  0  0  0  0  0  0
   -5.9704   26.2041  -30.2292 H   0  0  0  0  0  0  0  0  0  0  0  0
   -2.0241   23.8879  -30.0519 H   0  0  0  0  0  0  0  0  0  0  0  0
   -2.5486   22.4426  -29.1038 H   0  0  0  0  0  0  0  0  0  0  0  0
   -0.4145   22.6286  -31.2717 H   0  0  0  0  0  0  0  0  0  0  0  0
   -0.2619   22.0326  -29.5804 H   0  0  0  0  0  0  0  0  0  0  0  0
   -1.7520   20.2140  -30.1610 H   0  0  0  0  0  0  0  0  0  0  0  0
   -0.3210   20.2020  -31.0610 H   0  0  0  0  0  0  0  0  0  0  0  0
   -1.2960   20.6547  -33.0124 H   0  0  0  0  0  0  0  0  0  0  0  0
   -2.6506   19.8053  -32.1214 H   0  0  0  0  0  0  0  0  0  0  0  0
   -2.4076   22.6577  -32.9837 H   0  0  0  0  0  0  0  0  0  0  0  0
   -3.8527   21.5748  -32.8365 H   0  0  0  0  0  0  0  0  0  0  0  0
   -5.6566   21.3258  -31.2601 H   0  0  0  0  0  0  0  0  0  0  0  0
  1  2  1  0
  2  3  2  0
  3  4  1  0
  4  5  2  0
  5  6  1  0
  6  7  1  0
  7  8  2  0
  8  9  1  0
  9 10  1  0
 10 11  2  0
 10 12  2  0
 10 13  1  0
 13 14  2  0
 14 15  1  0
 15 16  2  0
 16 17  1  0
 16 18  1  0
 18 19  1  0
 19 20  1  0
 20 21  1  0
 21 22  1  0
 22 23  1  0
 23 24  1  0
 18 25  2  0
  9 26  1  0
  5 27  1  0
 27  2  1  0
 26  6  2  0
 25 13  1  0
 24 19  1  0
  1 28  1  0
  1 29  1  0
  1 30  1  0
  3 31  1  0
  4 32  1  0
 14 33  1  0
 15 34  1  0
 20 35  1  0
 20 36  1  0
 21 37  1  0
 21 38  1  0
 22 39  1  0
 22 40  1  0
 23 41  1  0
 23 42  1  0
 24 43  1  0
 24 44  1  0
 25 45  1  0
M  CHG  2  17  -1  22   1
M  END
>  <UniqueID>  (28) 
27

>  <SMILES>  (28) 
Cc1ccc(-c2nnn(S(=O)(=O)c3ccc([O-])c(N4CC[NH2+]CC4)c3)n2)o1

>  <Energy>  (28) 
121.51269944148929

>  <Genealogy>  (28) 
Cc1ccc(-c2nnn(S(=O)(=O)c3ccc([O-])c(N4CC[NH2+]CC4)c3)n2)o1 (protonated)
Cc1ccc(-c2nnn(S(=O)(=O)c3ccc([O-])c(N4CC[NH2+]CC4)c3)n2)o1 (3D coordinates assigned)
Cc1ccc(-c2nnn(S(=O)(=O)c3ccc([O-])c(N4CC[NH2+]CC4)c3)n2)o1 (nonaromatic ring conformer: 121.51269944148929 kcal/mol)

>  <smiles>  (28) 
Cc1ccc(-c2nnn(S(=O)(=O)c3ccc(O)c(N4CCNCC4)c3)n2)o1

>  <score_type>  (28) 
oracle

>  <origin>  (28) 
adgpu

>  <m_score__min__energy>  (28) 
-11.75

>  <m_primary>  (28) 
energy

$$$$
28:0
     RDKit          3D

 44 46  0  0  0  0  0  0  0  0999 V2000
   -3.8600   25.2000  -30.4830 O   0  0  0  0  0  0  0  0  0  0  0  0
   -3.0910   24.5480  -29.7290 C   0  0  0  0  0  0  0  0  0  0  0  0
   -3.3830   23.0940  -29.4600 C   0  0  0  0  0  0  0  0  0  0  0  0
   -3.4330   22.2780  -30.7270 C   0  0  0  0  0  0  0  0  0  0  0  0
   -2.3220   22.2290  -31.5850 C   0  0  0  0  0  0  0  0  0  0  0  0
   -2.3740   21.4830  -32.7650 C   0  0  0  0  0  0  0  0  0  0  0  0
   -3.5400   20.7960  -33.1100 C   0  0  0  0  0  0  0  0  0  0  0  0
   -4.6680   20.8620  -32.2820 C   0  0  0  0  0  0  0  0  0  0  0  0
   -6.1510   20.0070  -32.7270 S   0  0  0  0  0  0  0  0  0  0  0  0
   -6.0060   19.4710  -34.1240 O   0  0  0  0  0  0  0  0  0  0  0  0
   -6.3390   18.8390  -31.7980 O   0  0  0  0  0  0  0  0  0  0  0  0
   -7.5690   21.0250  -32.6540 N   0  0  0  0  0  0  0  0  0  0  0  0
   -7.2380   22.4070  -32.3090 C   0  0  0  0  0  0  0  0  0  0  0  0
   -8.4790   22.9990  -31.6570 C   0  0  0  0  0  0  0  0  0  0  0  0
   -9.3250   21.8050  -31.2390 C   0  0  0  0  0  0  0  0  0  0  0  0
   -8.5130   20.5810  -31.6310 C   0  0  0  0  0  0  0  0  0  0  0  0
   -4.6090   21.5990  -31.0900 C   0  0  0  0  0  0  0  0  0  0  0  0
   -1.9090   25.1870  -29.2320 N   0  0  0  0  0  0  0  0  0  0  0  0
   -1.4710   25.1680  -27.8690 C   0  0  0  0  0  0  0  0  0  0  0  0
   -2.3480   25.5430  -26.8380 C   0  0  0  0  0  0  0  0  0  0  0  0
   -1.9160   25.5420  -25.5090 C   0  0  0  0  0  0  0  0  0  0  0  0
   -0.6010   25.1890  -25.2020 C   0  0  0  0  0  0  0  0  0  0  0  0
    0.2890   24.8490  -26.2240 C   0  0  0  0  0  0  0  0  0  0  0  0
   -0.1360   24.8440  -27.5590 C   0  0  0  0  0  0  0  0  0  0  0  0
    0.7780   24.5040  -28.5560 O   0  0  0  0  0  0  0  0  0  0  0  0
   -2.5942   22.6890  -28.8090 H   0  0  0  0  0  0  0  0  0  0  0  0
   -4.3706   23.0317  -28.9796 H   0  0  0  0  0  0  0  0  0  0  0  0
   -1.4063   22.7809  -31.3265 H   0  0  0  0  0  0  0  0  0  0  0  0
   -1.4945   21.4366  -33.4240 H   0  0  0  0  0  0  0  0  0  0  0  0
   -3.5727   20.2012  -34.0348 H   0  0  0  0  0  0  0  0  0  0  0  0
   -6.3917   22.4310  -31.6067 H   0  0  0  0  0  0  0  0  0  0  0  0
   -6.9455   22.9804  -33.2010 H   0  0  0  0  0  0  0  0  0  0  0  0
   -8.2023   23.6009  -30.7788 H   0  0  0  0  0  0  0  0  0  0  0  0
   -9.0228   23.6654  -32.3427 H   0  0  0  0  0  0  0  0  0  0  0  0
   -9.5013   21.8189  -30.1533 H   0  0  0  0  0  0  0  0  0  0  0  0
  -10.3132   21.8134  -31.7221 H   0  0  0  0  0  0  0  0  0  0  0  0
   -7.9714   20.1877  -30.7581 H   0  0  0  0  0  0  0  0  0  0  0  0
   -9.1607   19.7756  -32.0075 H   0  0  0  0  0  0  0  0  0  0  0  0
   -5.4905   21.6460  -30.4337 H   0  0  0  0  0  0  0  0  0  0  0  0
   -3.3799   25.8389  -27.0778 H   0  0  0  0  0  0  0  0  0  0  0  0
   -2.6128   25.8196  -24.7043 H   0  0  0  0  0  0  0  0  0  0  0  0
   -0.2650   25.1785  -24.1546 H   0  0  0  0  0  0  0  0  0  0  0  0
    1.3282   24.5840  -25.9793 H   0  0  0  0  0  0  0  0  0  0  0  0
    0.5480   24.5520  -29.5410 H   0  0  0  0  0  0  0  0  0  0  0  0
  1  2  2  0
  2  3  1  0
  3  4  1  0
  4  5  2  0
  5  6  1  0
  6  7  2  0
  7  8  1  0
  8  9  1  0
  9 10  2  0
  9 11  2  0
  9 12  1  0
 12 13  1  0
 13 14  1  0
 14 15  1  0
 15 16  1  0
  8 17  2  0
  2 18  1  0
 18 19  1  0
 19 20  2  0
 20 21  1  0
 21 22  2  0
 22 23  1  0
 23 24  2  0
 24 25  1  0
 17  4  1  0
 24 19  1  0
 16 12  1  0
  3 26  1  0
  3 27  1  0
  5 28  1  0
  6 29  1  0
  7 30  1  0
 13 31  1  0
 13 32  1  0
 14 33  1  0
 14 34  1  0
 15 35  1  0
 15 36  1  0
 16 37  1  0
 16 38  1  0
 17 39  1  0
 20 40  1  0
 21 41  1  0
 22 42  1  0
 23 43  1  0
 25 44  1  0
M  CHG  1  18  -1
M  END
>  <UniqueID>  (29) 
28

>  <SMILES>  (29) 
O=C(Cc1cccc(S(=O)(=O)N2CCCC2)c1)[N-]c1ccccc1O

>  <Energy>  (29) 
50.926005022142654

>  <Genealogy>  (29) 
O=C(Cc1cccc(S(=O)(=O)N2CCCC2)c1)[N-]c1ccccc1O (protonated)
O=C(Cc1cccc(S(=O)(=O)N2CCCC2)c1)[N-]c1ccccc1O (3D coordinates assigned)
O=C(Cc1cccc(S(=O)(=O)N2CCCC2)c1)[N-]c1ccccc1O (nonaromatic ring conformer: 50.926005022142654 kcal/mol)

>  <smiles>  (29) 
O=C(Cc1cccc(S(=O)(=O)N2CCCC2)c1)Nc1ccccc1O

>  <score_type>  (29) 
oracle

>  <origin>  (29) 
adgpu

>  <m_score__min__energy>  (29) 
-11.609999999999999

>  <m_primary>  (29) 
energy

$$$$
29:0
     RDKit          3D

 61 64  0  0  0  0  0  0  0  0999 V2000
   -2.9320   19.3480  -26.5580 C   0  0  0  0  0  0  0  0  0  0  0  0
   -1.5810   19.6420  -27.1490 C   0  0  0  0  0  0  0  0  0  0  0  0
   -0.7270   18.5920  -27.5280 C   0  0  0  0  0  0  0  0  0  0  0  0
    0.5150   18.8650  -28.1080 C   0  0  0  0  0  0  0  0  0  0  0  0
    0.9190   20.1870  -28.3050 C   0  0  0  0  0  0  0  0  0  0  0  0
    0.0830   21.2400  -27.9260 C   0  0  0  0  0  0  0  0  0  0  0  0
   -1.1770   20.9790  -27.3550 C   0  0  0  0  0  0  0  0  0  0  0  0
   -2.0720   22.0140  -27.0530 O   0  0  0  0  0  0  0  0  0  0  0  0
   -1.7310   23.2620  -26.5180 C   0  0  0  0  0  0  0  0  0  0  0  0
   -0.7420   23.3130  -25.5810 N   0  0  0  0  0  0  0  0  0  0  0  0
   -0.3240   24.4790  -25.0260 C   0  0  0  0  0  0  0  0  0  0  0  0
   -0.8920   25.6940  -25.4250 C   0  0  0  0  0  0  0  0  0  0  0  0
   -0.2980   27.2090  -24.7530 S   0  0  0  0  0  0  0  0  0  0  0  0
   -0.1250   27.0460  -22.9890 C   0  0  0  0  0  0  0  0  0  0  0  0
   -1.2690   28.3120  -25.0700 O   0  0  0  0  0  0  0  0  0  0  0  0
    1.0400   27.5560  -25.3440 O   0  0  0  0  0  0  0  0  0  0  0  0
   -1.9040   25.6790  -26.3880 C   0  0  0  0  0  0  0  0  0  0  0  0
   -2.3220   24.4710  -26.9600 C   0  0  0  0  0  0  0  0  0  0  0  0
   -3.3060   24.4980  -28.0040 N   0  0  0  0  0  0  0  0  0  0  0  0
   -2.9220   24.5410  -29.3900 C   0  0  0  0  0  0  0  0  0  0  0  0
   -1.7260   24.3220  -29.7260 O   0  0  0  0  0  0  0  0  0  0  0  0
   -3.8640   24.9350  -30.4000 N   0  0  0  0  0  0  0  0  0  0  0  0
   -5.0610   24.2160  -30.7170 C   0  0  0  0  0  0  0  0  0  0  0  0
   -6.0160   23.9870  -29.7220 C   0  0  0  0  0  0  0  0  0  0  0  0
   -7.1870   23.2780  -30.0190 C   0  0  0  0  0  0  0  0  0  0  0  0
   -7.4160   22.8080  -31.3220 C   0  0  0  0  0  0  0  0  0  0  0  0
   -8.8650   21.8760  -31.6960 S   0  0  0  0  0  0  0  0  0  0  0  0
   -9.4570   21.3260  -30.4280 O   0  0  0  0  0  0  0  0  0  0  0  0
   -9.8620   22.7910  -32.3490 O   0  0  0  0  0  0  0  0  0  0  0  0
   -8.4610   20.5650  -32.7830 N   0  0  0  0  0  0  0  0  0  0  0  0
   -7.1830   19.9490  -32.4030 C   0  0  0  0  0  0  0  0  0  0  0  0
   -7.4710   18.6740  -31.6140 C   0  0  0  0  0  0  0  0  0  0  0  0
   -8.9750   18.4880  -31.6710 C   0  0  0  0  0  0  0  0  0  0  0  0
   -9.4600   19.4940  -32.6990 C   0  0  0  0  0  0  0  0  0  0  0  0
   -6.4830   23.0860  -32.3300 C   0  0  0  0  0  0  0  0  0  0  0  0
   -5.3140   23.7860  -32.0280 C   0  0  0  0  0  0  0  0  0  0  0  0
   -2.8631   19.3630  -25.4603 H   0  0  0  0  0  0  0  0  0  0  0  0
   -3.6516   20.1106  -26.8907 H   0  0  0  0  0  0  0  0  0  0  0  0
   -3.2696   18.3554  -26.8907 H   0  0  0  0  0  0  0  0  0  0  0  0
   -1.0380   17.5492  -27.3672 H   0  0  0  0  0  0  0  0  0  0  0  0
    1.1746   18.0379  -28.4095 H   0  0  0  0  0  0  0  0  0  0  0  0
    1.8978   20.3997  -28.7597 H   0  0  0  0  0  0  0  0  0  0  0  0
    0.4112   22.2793  -28.0746 H   0  0  0  0  0  0  0  0  0  0  0  0
    0.4647   24.4688  -24.2593 H   0  0  0  0  0  0  0  0  0  0  0  0
   -0.8374   27.7172  -22.4871 H   0  0  0  0  0  0  0  0  0  0  0  0
   -0.3312   26.0063  -22.6949 H   0  0  0  0  0  0  0  0  0  0  0  0
    0.9006   27.3137  -22.6949 H   0  0  0  0  0  0  0  0  0  0  0  0
   -2.3758   26.6227  -26.6991 H   0  0  0  0  0  0  0  0  0  0  0  0
   -4.2450   24.8740  -27.7480 H   0  0  0  0  0  0  0  0  0  0  0  0
   -5.8473   24.3647  -28.7028 H   0  0  0  0  0  0  0  0  0  0  0  0
   -7.9291   23.0890  -29.2293 H   0  0  0  0  0  0  0  0  0  0  0  0
   -6.6071   19.7028  -33.3073 H   0  0  0  0  0  0  0  0  0  0  0  0
   -6.5982   20.6477  -31.7867 H   0  0  0  0  0  0  0  0  0  0  0  0
   -6.9605   17.8148  -32.0736 H   0  0  0  0  0  0  0  0  0  0  0  0
   -7.1096   18.7471  -30.5776 H   0  0  0  0  0  0  0  0  0  0  0  0
   -9.2257   17.4640  -31.9848 H   0  0  0  0  0  0  0  0  0  0  0  0
   -9.4466   18.6425  -30.6893 H   0  0  0  0  0  0  0  0  0  0  0  0
   -9.5685   19.0055  -33.6786 H   0  0  0  0  0  0  0  0  0  0  0  0
  -10.4382   19.9026  -32.4055 H   0  0  0  0  0  0  0  0  0  0  0  0
   -6.6723   22.7520  -33.3608 H   0  0  0  0  0  0  0  0  0  0  0  0
   -4.5859   24.0021  -32.8237 H   0  0  0  0  0  0  0  0  0  0  0  0
  1  2  1  0
  2  3  2  0
  3  4  1  0
  4  5  2  0
  5  6  1  0
  6  7  2  0
  7  8  1  0
  8  9  1  0
  9 10  2  0
 10 11  1  0
 11 12  2  0
 12 13  1  0
 13 14  1  0
 13 15  2  0
 13 16  2  0
 12 17  1  0
 17 18  2  0
 18 19  1  0
 19 20  1  0
 20 21  2  0
 20 22  1  0
 22 23  1  0
 23 24  2  0
 24 25  1  0
 25 26  2  0
 26 27  1  0
 27 28  2  0
 27 29  2  0
 27 30  1  0
 30 31  1  0
 31 32  1  0
 32 33  1  0
 33 34  1  0
 26 35  1  0
 35 36  2  0
  7  2  1  0
 18  9  1  0
 36 23  1  0
 34 30  1  0
  1 37  1  0
  1 38  1  0
  1 39  1  0
  3 40  1  0
  4 41  1  0
  5 42  1  0
  6 43  1  0
 11 44  1  0
 14 45  1  0
 14 46  1  0
 14 47  1  0
 17 48  1  0
 19 49  1  0
 24 50  1  0
 25 51  1  0
 31 52  1  0
 31 53  1  0
 32 54  1  0
 32 55  1  0
 33 56  1  0
 33 57  1  0
 34 58  1  0
 34 59  1  0
 35 60  1  0
 36 61  1  0
M  CHG  1  22  -1
M  END
>  <UniqueID>  (30) 
29

>  <SMILES>  (30) 
Cc1ccccc1Oc1ncc(S(C)(=O)=O)cc1NC(=O)[N-]c1ccc(S(=O)(=O)N2CCCC2)cc1

>  <Energy>  (30) 
78.69352580590137

>  <Genealogy>  (30) 
Cc1ccccc1Oc1ncc(S(C)(=O)=O)cc1NC(=O)[N-]c1ccc(S(=O)(=O)N2CCCC2)cc1 (protonated)
Cc1ccccc1Oc1ncc(S(C)(=O)=O)cc1NC(=O)[N-]c1ccc(S(=O)(=O)N2CCCC2)cc1 (3D coordinates assigned)
Cc1ccccc1Oc1ncc(S(C)(=O)=O)cc1NC(=O)[N-]c1ccc(S(=O)(=O)N2CCCC2)cc1 (nonaromatic ring conformer: 78.69352580590137 kcal/mol)

>  <smiles>  (30) 
Cc1ccccc1Oc1ncc(S(C)(=O)=O)cc1NC(=O)Nc1ccc(S(=O)(=O)N2CCCC2)cc1

>  <score_type>  (30) 
oracle

>  <origin>  (30) 
adgpu

>  <m_score__min__energy>  (30) 
-12.949999999999999

>  <m_primary>  (30) 
energy

$$$$
30:0
     RDKit          3D

 43 45  0  0  0  0  0  0  0  0999 V2000
   -3.5450   25.9260  -31.2600 H   0  0  0  0  0  0  0  0  0  0  0  0
   -3.5320   25.2390  -30.4710 N   0  0  0  0  0  0  0  0  0  0  0  0
   -4.7150   24.0330  -30.8320 S   0  0  0  0  0  0  0  0  0  0  0  0
   -5.4900   23.7060  -29.5860 O   0  0  0  0  0  0  0  0  0  0  0  0
   -5.6690   24.5620  -31.8680 O   0  0  0  0  0  0  0  0  0  0  0  0
   -3.9230   22.5820  -31.4390 C   0  0  0  0  0  0  0  0  0  0  0  0
   -3.0460   21.8590  -30.6180 C   0  0  0  0  0  0  0  0  0  0  0  0
   -2.8423   22.2063  -29.5943 H   0  0  0  0  0  0  0  0  0  0  0  0
   -2.4280   20.6960  -31.0960 C   0  0  0  0  0  0  0  0  0  0  0  0
   -1.7452   20.1300  -30.4453 H   0  0  0  0  0  0  0  0  0  0  0  0
   -2.6790   20.2510  -32.4060 C   0  0  0  0  0  0  0  0  0  0  0  0
   -2.0770   19.0610  -32.9360 N   0  0  0  0  0  0  0  0  0  0  0  0
   -2.8050   18.0090  -34.1100 S   0  0  0  0  0  0  0  0  0  0  0  0
   -3.9730   18.7040  -34.7530 O   0  0  0  0  0  0  0  0  0  0  0  0
   -1.7740   17.6570  -35.1450 O   0  0  0  0  0  0  0  0  0  0  0  0
   -3.3680   16.5340  -33.3100 C   0  0  0  0  0  0  0  0  0  0  0  0
   -2.6290   15.3510  -33.4750 C   0  0  0  0  0  0  0  0  0  0  0  0
   -1.6868   15.3714  -34.0423 H   0  0  0  0  0  0  0  0  0  0  0  0
   -3.0800   14.1490  -32.9250 C   0  0  0  0  0  0  0  0  0  0  0  0
   -2.4915   13.2292  -33.0580 H   0  0  0  0  0  0  0  0  0  0  0  0
   -4.2760   14.1130  -32.2070 C   0  0  0  0  0  0  0  0  0  0  0  0
   -4.6368   13.1632  -31.7855 H   0  0  0  0  0  0  0  0  0  0  0  0
   -5.0150   15.2850  -32.0240 C   0  0  0  0  0  0  0  0  0  0  0  0
   -5.9613   15.2513  -31.4642 H   0  0  0  0  0  0  0  0  0  0  0  0
   -4.5610   16.5010  -32.5470 C   0  0  0  0  0  0  0  0  0  0  0  0
   -5.3530   17.6740  -32.3220 N   0  0  0  0  0  0  0  0  0  0  0  0
   -6.5190   17.8530  -32.8660 C   0  0  0  0  0  0  0  0  0  0  0  0
   -6.9206   17.0908  -33.5499 H   0  0  0  0  0  0  0  0  0  0  0  0
   -7.3130   19.0640  -32.5800 C   0  0  0  0  0  0  0  0  0  0  0  0
   -6.7040   20.3270  -32.4410 C   0  0  0  0  0  0  0  0  0  0  0  0
   -5.6147   20.4256  -32.5581 H   0  0  0  0  0  0  0  0  0  0  0  0
   -7.4780   21.4550  -32.1550 C   0  0  0  0  0  0  0  0  0  0  0  0
   -6.9965   22.4376  -32.0424 H   0  0  0  0  0  0  0  0  0  0  0  0
   -8.8620   21.3360  -32.0120 C   0  0  0  0  0  0  0  0  0  0  0  0
   -9.4701   22.2255  -31.7905 H   0  0  0  0  0  0  0  0  0  0  0  0
   -9.4750   20.0880  -32.1500 C   0  0  0  0  0  0  0  0  0  0  0  0
  -10.5658   19.9973  -32.0405 H   0  0  0  0  0  0  0  0  0  0  0  0
   -8.7050   18.9540  -32.4270 C   0  0  0  0  0  0  0  0  0  0  0  0
   -9.1912   17.9722  -32.5254 H   0  0  0  0  0  0  0  0  0  0  0  0
   -3.5430   20.9870  -33.2260 C   0  0  0  0  0  0  0  0  0  0  0  0
   -3.7358   20.6510  -34.2555 H   0  0  0  0  0  0  0  0  0  0  0  0
   -4.1620   22.1440  -32.7480 C   0  0  0  0  0  0  0  0  0  0  0  0
   -4.8394   22.7133  -33.4015 H   0  0  0  0  0  0  0  0  0  0  0  0
  1  2  1  0
  2  3  1  0
  3  4  2  0
  3  5  2  0
  3  6  1  0
  6  7  2  0
  7  8  1  0
  7  9  1  0
  9 10  1  0
  9 11  2  0
 11 12  1  0
 12 13  1  0
 13 14  2  0
 13 15  2  0
 13 16  1  0
 16 17  2  0
 17 18  1  0
 17 19  1  0
 19 20  1  0
 19 21  2  0
 21 22  1  0
 21 23  1  0
 23 24  1  0
 23 25  2  0
 25 26  1  0
 26 27  2  0
 27 28  1  0
 27 29  1  0
 29 30  2  0
 30 31  1  0
 30 32  1  0
 32 33  1  0
 32 34  2  0
 34 35  1  0
 34 36  1  0
 36 37  1  0
 36 38  2  0
 38 39  1  0
 11 40  1  0
 40 41  1  0
 40 42  2  0
 42 43  1  0
 42  6  1  0
 25 16  1  0
 38 29  1  0
M  CHG  2   2  -1  12  -1
M  END
>  <UniqueID>  (31) 
30

>  <SMILES>  (31) 
[NH-]S(=O)(=O)c1ccc([N-]S(=O)(=O)c2ccccc2/N=C/c2ccccc2)cc1

>  <Energy>  (31) 
57.5268160758427

>  <Genealogy>  (31) 
[NH-]S(=O)(=O)c1ccc([N-]S(=O)(=O)c2ccccc2N=Cc2ccccc2)cc1 (protonated)
[NH-]S(=O)(=O)c1ccc([N-]S(=O)(=O)c2ccccc2/N=C/c2ccccc2)cc1 (cis-trans isomerization)
[NH-]S(=O)(=O)c1ccc([N-]S(=O)(=O)c2ccccc2/N=C/c2ccccc2)cc1 (3D coordinates assigned)
[NH-]S(=O)(=O)c1ccc([N-]S(=O)(=O)c2ccccc2/N=C/c2ccccc2)cc1 (optimized conformer: 57.5268160758427 kcal/mol)

>  <smiles>  (31) 
NS(=O)(=O)c1ccc(NS(=O)(=O)c2ccccc2N=Cc2ccccc2)cc1

>  <score_type>  (31) 
oracle

>  <origin>  (31) 
adgpu

>  <m_score__min__energy>  (31) 
-11.59

>  <m_primary>  (31) 
energy

$$$$
31:0
     RDKit          3D

 50 53  0  0  0  0  0  0  0  0999 V2000
   -3.0890   21.1870  -29.4350 O   0  0  0  0  0  0  0  0  0  0  0  0
   -3.0100   22.2550  -30.4940 S   0  0  0  0  0  0  0  0  0  0  0  0
   -2.6110   21.6080  -31.7910 O   0  0  0  0  0  0  0  0  0  0  0  0
   -1.8010   23.4170  -30.0460 N   0  0  0  0  0  0  0  0  0  0  0  0
   -1.4060   23.7250  -28.7020 C   0  0  0  0  0  0  0  0  0  0  0  0
   -1.2980   22.7260  -27.7090 C   0  0  0  0  0  0  0  0  0  0  0  0
   -0.8620   23.0940  -26.4390 C   0  0  0  0  0  0  0  0  0  0  0  0
   -0.5490   24.3850  -26.1330 C   0  0  0  0  0  0  0  0  0  0  0  0
   -0.6660   25.4030  -27.0790 C   0  0  0  0  0  0  0  0  0  0  0  0
   -1.1050   25.0670  -28.3720 C   0  0  0  0  0  0  0  0  0  0  0  0
   -1.2400   26.0690  -29.3280 O   0  0  0  0  0  0  0  0  0  0  0  0
   -0.1020   24.4780  -24.7210 C   0  0  0  0  0  0  0  0  0  0  0  0
   -0.1730   23.0050  -24.2490 C   0  0  0  0  0  0  0  0  0  0  0  0
   -0.6710   22.2630  -25.3610 O   0  0  0  0  0  0  0  0  0  0  0  0
   -4.5530   23.0810  -30.7260 C   0  0  0  0  0  0  0  0  0  0  0  0
   -5.6910   22.2970  -30.9570 C   0  0  0  0  0  0  0  0  0  0  0  0
   -6.9430   22.8900  -31.1510 C   0  0  0  0  0  0  0  0  0  0  0  0
   -8.3630   21.8940  -31.4600 S   0  0  0  0  0  0  0  0  0  0  0  0
   -8.8330   21.2780  -30.1710 O   0  0  0  0  0  0  0  0  0  0  0  0
   -9.4600   22.7680  -32.0020 O   0  0  0  0  0  0  0  0  0  0  0  0
   -7.9860   20.6430  -32.6200 N   0  0  0  0  0  0  0  0  0  0  0  0
   -6.6680   20.0440  -32.3140 C   0  0  0  0  0  0  0  0  0  0  0  0
   -6.5180   18.6530  -32.9400 C   0  0  0  0  0  0  0  0  0  0  0  0
   -7.5620   17.6780  -32.3680 C   0  0  0  0  0  0  0  0  0  0  0  0
   -8.8500   18.3890  -31.9130 C   0  0  0  0  0  0  0  0  0  0  0  0
   -9.0980   19.6690  -32.7280 C   0  0  0  0  0  0  0  0  0  0  0  0
   -7.0550   24.2810  -31.1220 C   0  0  0  0  0  0  0  0  0  0  0  0
   -5.9280   25.0760  -30.8860 C   0  0  0  0  0  0  0  0  0  0  0  0
   -4.6740   24.4850  -30.6860 C   0  0  0  0  0  0  0  0  0  0  0  0
   -3.5600   25.2930  -30.4530 O   0  0  0  0  0  0  0  0  0  0  0  0
   -1.5529   21.6799  -27.9343 H   0  0  0  0  0  0  0  0  0  0  0  0
   -0.4208   26.4436  -26.8200 H   0  0  0  0  0  0  0  0  0  0  0  0
    0.9244   24.8679  -24.6539 H   0  0  0  0  0  0  0  0  0  0  0  0
   -0.7107   25.1631  -24.1127 H   0  0  0  0  0  0  0  0  0  0  0  0
    0.8271   22.6452  -23.9656 H   0  0  0  0  0  0  0  0  0  0  0  0
   -0.8200   22.8939  -23.3663 H   0  0  0  0  0  0  0  0  0  0  0  0
   -5.5988   21.2013  -30.9862 H   0  0  0  0  0  0  0  0  0  0  0  0
   -5.8781   20.6997  -32.7091 H   0  0  0  0  0  0  0  0  0  0  0  0
   -6.5842   19.9394  -31.2222 H   0  0  0  0  0  0  0  0  0  0  0  0
   -6.6564   18.7311  -34.0285 H   0  0  0  0  0  0  0  0  0  0  0  0
   -5.5138   18.2691  -32.7070 H   0  0  0  0  0  0  0  0  0  0  0  0
   -7.8208   16.9434  -33.1448 H   0  0  0  0  0  0  0  0  0  0  0  0
   -7.1182   17.1954  -31.4847 H   0  0  0  0  0  0  0  0  0  0  0  0
   -9.7026   17.7072  -32.0479 H   0  0  0  0  0  0  0  0  0  0  0  0
   -8.7383   18.6670  -30.8546 H   0  0  0  0  0  0  0  0  0  0  0  0
   -9.2226   19.3936  -33.7857 H   0  0  0  0  0  0  0  0  0  0  0  0
  -10.0003   20.1502  -32.3227 H   0  0  0  0  0  0  0  0  0  0  0  0
   -8.0342   24.7546  -31.2855 H   0  0  0  0  0  0  0  0  0  0  0  0
   -6.0274   26.1711  -30.8574 H   0  0  0  0  0  0  0  0  0  0  0  0
   -2.6520   24.9020  -30.2520 H   0  0  0  0  0  0  0  0  0  0  0  0
  1  2  2  0
  2  3  2  0
  2  4  1  0
  4  5  1  0
  5  6  2  0
  6  7  1  0
  7  8  2  0
  8  9  1  0
  9 10  2  0
 10 11  1  0
  8 12  1  0
 12 13  1  0
 13 14  1  0
  2 15  1  0
 15 16  2  0
 16 17  1  0
 17 18  1  0
 18 19  2  0
 18 20  2  0
 18 21  1  0
 21 22  1  0
 22 23  1  0
 23 24  1  0
 24 25  1  0
 25 26  1  0
 17 27  2  0
 27 28  1  0
 28 29  2  0
 29 30  1  0
 10  5  1  0
 29 15  1  0
 14  7  1  0
 26 21  1  0
  6 31  1  0
  9 32  1  0
 12 33  1  0
 12 34  1  0
 13 35  1  0
 13 36  1  0
 16 37  1  0
 22 38  1  0
 22 39  1  0
 23 40  1  0
 23 41  1  0
 24 42  1  0
 24 43  1  0
 25 44  1  0
 25 45  1  0
 26 46  1  0
 26 47  1  0
 27 48  1  0
 28 49  1  0
 30 50  1  0
M  CHG  2   4  -1  11  -1
M  END
>  <UniqueID>  (32) 
31

>  <SMILES>  (32) 
O=S(=O)([N-]c1cc2c(cc1[O-])CCO2)c1cc(S(=O)(=O)N2CCCCC2)ccc1O

>  <Energy>  (32) 
77.5014621831375

>  <Genealogy>  (32) 
O=S(=O)([N-]c1cc2c(cc1[O-])CCO2)c1cc(S(=O)(=O)N2CCCCC2)ccc1O (protonated)
O=S(=O)([N-]c1cc2c(cc1[O-])CCO2)c1cc(S(=O)(=O)N2CCCCC2)ccc1O (3D coordinates assigned)
O=S(=O)([N-]c1cc2c(cc1[O-])CCO2)c1cc(S(=O)(=O)N2CCCCC2)ccc1O (nonaromatic ring conformer: 77.5014621831375 kcal/mol)

>  <smiles>  (32) 
O=S(=O)(Nc1cc2c(cc1O)CCO2)c1cc(S(=O)(=O)N2CCCCC2)ccc1O

>  <score_type>  (32) 
oracle

>  <origin>  (32) 
adgpu

>  <m_score__min__energy>  (32) 
-14.199999999999999

>  <m_primary>  (32) 
energy

$$$$
32:0
     RDKit          3D

 53 55  0  0  0  0  0  0  0  0999 V2000
   -0.5880   19.5810  -34.0130 C   0  0  0  0  0  0  0  0  0  0  0  0
   -1.4020   18.6710  -32.7110 S   0  0  0  0  0  0  0  0  0  0  0  0
   -1.6220   19.5920  -31.5440 O   0  0  0  0  0  0  0  0  0  0  0  0
   -0.5090   17.5440  -32.2730 O   0  0  0  0  0  0  0  0  0  0  0  0
   -2.9420   18.0290  -33.2270 N   0  0  0  0  0  0  0  0  0  0  0  0
   -3.2540   18.4620  -34.5930 C   0  0  0  0  0  0  0  0  0  0  0  0
   -4.7120   18.0990  -34.9280 C   0  0  0  0  0  0  0  0  0  0  0  0
   -5.1680   16.8470  -34.2800 N   0  0  0  0  0  0  0  0  0  0  0  0
   -6.1680   17.1580  -32.8760 S   0  0  0  0  0  0  0  0  0  0  0  0
   -5.7290   16.3000  -31.7210 O   0  0  0  0  0  0  0  0  0  0  0  0
   -7.6080   16.8590  -33.1840 O   0  0  0  0  0  0  0  0  0  0  0  0
   -6.0310   18.8600  -32.4440 C   0  0  0  0  0  0  0  0  0  0  0  0
   -6.9570   19.7770  -32.9520 C   0  0  0  0  0  0  0  0  0  0  0  0
   -6.8560   21.1330  -32.6280 C   0  0  0  0  0  0  0  0  0  0  0  0
   -5.8360   21.5880  -31.7790 C   0  0  0  0  0  0  0  0  0  0  0  0
   -5.7410   22.9920  -31.4810 N   0  0  0  0  0  0  0  0  0  0  0  0
   -6.8450   23.8050  -31.0600 C   0  0  0  0  0  0  0  0  0  0  0  0
   -8.0270   23.3690  -31.1250 O   0  0  0  0  0  0  0  0  0  0  0  0
   -6.5980   25.1360  -30.6020 N   0  0  0  0  0  0  0  0  0  0  0  0
   -6.1200   25.4330  -29.2580 C   0  0  0  0  0  0  0  0  0  0  0  0
   -4.7890   24.7600  -29.0320 C   0  0  0  0  0  0  0  0  0  0  0  0
   -4.5520   24.1100  -27.8100 C   0  0  0  0  0  0  0  0  0  0  0  0
   -3.3290   23.4840  -27.5690 C   0  0  0  0  0  0  0  0  0  0  0  0
   -2.3420   23.5140  -28.5500 C   0  0  0  0  0  0  0  0  0  0  0  0
   -2.5710   24.1540  -29.7260 N   0  0  0  0  0  0  0  0  0  0  0  0
   -3.7490   24.7770  -29.9990 C   0  0  0  0  0  0  0  0  0  0  0  0
   -3.8780   25.3770  -31.1430 N   0  0  0  0  0  0  0  0  0  0  0  0
   -4.8930   20.6660  -31.2890 C   0  0  0  0  0  0  0  0  0  0  0  0
   -4.9940   19.3110  -31.6140 C   0  0  0  0  0  0  0  0  0  0  0  0
   -4.0670   15.9140  -33.9780 C   0  0  0  0  0  0  0  0  0  0  0  0
   -2.9590   16.5570  -33.1130 C   0  0  0  0  0  0  0  0  0  0  0  0
    0.0836   20.3318  -33.5711 H   0  0  0  0  0  0  0  0  0  0  0  0
   -0.0036   18.8872  -34.6352 H   0  0  0  0  0  0  0  0  0  0  0  0
   -1.3424   20.0848  -34.6352 H   0  0  0  0  0  0  0  0  0  0  0  0
   -3.1203   19.5510  -34.6716 H   0  0  0  0  0  0  0  0  0  0  0  0
   -2.5795   17.9568  -35.3000 H   0  0  0  0  0  0  0  0  0  0  0  0
   -5.3620   18.9214  -34.5947 H   0  0  0  0  0  0  0  0  0  0  0  0
   -4.7670   17.9418  -36.0153 H   0  0  0  0  0  0  0  0  0  0  0  0
   -7.7679   19.4297  -33.6091 H   0  0  0  0  0  0  0  0  0  0  0  0
   -7.5817   21.8487  -33.0418 H   0  0  0  0  0  0  0  0  0  0  0  0
   -4.8310   23.4740  -31.6610 H   0  0  0  0  0  0  0  0  0  0  0  0
   -6.0040   26.5208  -29.1431 H   0  0  0  0  0  0  0  0  0  0  0  0
   -6.8470   25.0595  -28.5218 H   0  0  0  0  0  0  0  0  0  0  0  0
   -5.3356   24.0944  -27.0381 H   0  0  0  0  0  0  0  0  0  0  0  0
   -3.1463   22.9716  -26.6129 H   0  0  0  0  0  0  0  0  0  0  0  0
   -1.3758   23.0190  -28.3728 H   0  0  0  0  0  0  0  0  0  0  0  0
   -4.7340   25.8880  -31.4490 H   0  0  0  0  0  0  0  0  0  0  0  0
   -4.0712   21.0141  -30.6461 H   0  0  0  0  0  0  0  0  0  0  0  0
   -4.2582   18.5957  -31.2179 H   0  0  0  0  0  0  0  0  0  0  0  0
   -4.4777   15.0486  -33.4372 H   0  0  0  0  0  0  0  0  0  0  0  0
   -3.6113   15.6179  -34.9344 H   0  0  0  0  0  0  0  0  0  0  0  0
   -3.1297   16.2857  -32.0607 H   0  0  0  0  0  0  0  0  0  0  0  0
   -1.9902   16.1805  -33.4731 H   0  0  0  0  0  0  0  0  0  0  0  0
  1  2  1  0
  2  3  2  0
  2  4  2  0
  2  5  1  0
  5  6  1  0
  6  7  1  0
  7  8  1  0
  8  9  1  0
  9 10  2  0
  9 11  2  0
  9 12  1  0
 12 13  2  0
 13 14  1  0
 14 15  2  0
 15 16  1  0
 16 17  1  0
 17 18  2  0
 17 19  1  0
 19 20  1  0
 20 21  1  0
 21 22  2  0
 22 23  1  0
 23 24  2  0
 24 25  1  0
 25 26  1  0
 26 27  2  3
 15 28  1  0
 28 29  2  0
  8 30  1  0
 30 31  1  0
 31  5  1  0
 29 12  1  0
 26 21  1  0
  1 32  1  0
  1 33  1  0
  1 34  1  0
  6 35  1  0
  6 36  1  0
  7 37  1  0
  7 38  1  0
 13 39  1  0
 14 40  1  0
 16 41  1  0
 20 42  1  0
 20 43  1  0
 22 44  1  0
 23 45  1  0
 24 46  1  0
 27 47  1  0
 28 48  1  0
 29 49  1  0
 30 50  1  0
 30 51  1  0
 31 52  1  0
 31 53  1  0
M  CHG  2  19  -1  25  -1
M  END
>  <UniqueID>  (33) 
32

>  <SMILES>  (33) 
CS(=O)(=O)N1CCN(S(=O)(=O)c2ccc(NC(=O)[N-]Cc3ccc[n-]c3=N)cc2)CC1

>  <Energy>  (33) 
62.25027830199893

>  <Genealogy>  (33) 
CS(=O)(=O)N1CCN(S(=O)(=O)c2ccc(NC(=O)[N-]Cc3ccc[n-]c3=N)cc2)CC1 (protonated)
CS(=O)(=O)N1CCN(S(=O)(=O)c2ccc(NC(=O)[N-]Cc3ccc[n-]c3=N)cc2)CC1 (3D coordinates assigned)
CS(=O)(=O)N1CCN(S(=O)(=O)c2ccc(NC(=O)[N-]Cc3ccc[n-]c3=N)cc2)CC1 (nonaromatic ring conformer: 62.25027830199893 kcal/mol)

>  <smiles>  (33) 
CS(=O)(=O)N1CCN(S(=O)(=O)c2ccc(NC(=O)NCc3ccc[nH]c3=N)cc2)CC1

>  <score_type>  (33) 
oracle

>  <origin>  (33) 
adgpu

>  <m_score__min__energy>  (33) 
-11.300000000000001

>  <m_primary>  (33) 
energy

$$$$
33:0
     RDKit          3D

 56 59  0  0  0  0  0  0  0  0999 V2000
   -2.4480   20.4630  -31.6740 O   0  0  0  0  0  0  0  0  0  0  0  0
   -2.5360   21.5250  -31.0030 C   0  0  0  0  0  0  0  0  0  0  0  0
   -3.1770   22.6620  -31.5980 N   0  0  0  0  0  0  0  0  0  0  0  0
   -4.4520   23.2040  -31.2240 C   0  0  0  0  0  0  0  0  0  0  0  0
   -5.5890   22.3990  -31.3650 C   0  0  0  0  0  0  0  0  0  0  0  0
   -6.8560   22.8860  -31.0160 C   0  0  0  0  0  0  0  0  0  0  0  0
   -8.2840   21.8660  -31.2080 S   0  0  0  0  0  0  0  0  0  0  0  0
   -9.1390   22.4150  -32.3160 O   0  0  0  0  0  0  0  0  0  0  0  0
   -9.0890   21.9030  -29.9390 O   0  0  0  0  0  0  0  0  0  0  0  0
   -7.8570   20.2130  -31.5730 N   0  0  0  0  0  0  0  0  0  0  0  0
   -9.0490   19.3500  -31.5230 C   0  0  0  0  0  0  0  0  0  0  0  0
   -8.7030   17.9220  -31.9910 C   0  0  0  0  0  0  0  0  0  0  0  0
   -7.3130   17.7700  -32.2060 O   0  0  0  0  0  0  0  0  0  0  0  0
   -6.8860   18.6550  -33.2260 C   0  0  0  0  0  0  0  0  0  0  0  0
   -7.2250   20.1240  -32.8970 C   0  0  0  0  0  0  0  0  0  0  0  0
   -6.9820   24.1870  -30.5120 C   0  0  0  0  0  0  0  0  0  0  0  0
   -5.8490   24.9850  -30.3400 C   0  0  0  0  0  0  0  0  0  0  0  0
   -4.5840   24.4970  -30.6780 C   0  0  0  0  0  0  0  0  0  0  0  0
   -3.4680   25.2920  -30.4410 O   0  0  0  0  0  0  0  0  0  0  0  0
   -1.9420   21.5790  -29.6460 C   0  0  0  0  0  0  0  0  0  0  0  0
   -2.1200   20.5210  -28.7380 C   0  0  0  0  0  0  0  0  0  0  0  0
   -1.5550   20.5810  -27.4630 C   0  0  0  0  0  0  0  0  0  0  0  0
   -0.8170   21.7000  -27.0750 C   0  0  0  0  0  0  0  0  0  0  0  0
   -0.6500   22.7750  -27.9590 C   0  0  0  0  0  0  0  0  0  0  0  0
    0.2630   24.2010  -27.4620 S   0  0  0  0  0  0  0  0  0  0  0  0
    1.3980   24.4210  -28.4230 O   0  0  0  0  0  0  0  0  0  0  0  0
    0.8520   23.9580  -26.1010 O   0  0  0  0  0  0  0  0  0  0  0  0
   -0.7390   25.6380  -27.4100 N   0  0  0  0  0  0  0  0  0  0  0  0
   -2.1640   25.2910  -27.4140 C   0  0  0  0  0  0  0  0  0  0  0  0
   -2.6700   25.3280  -25.9780 C   0  0  0  0  0  0  0  0  0  0  0  0
   -1.6030   26.0540  -25.1820 C   0  0  0  0  0  0  0  0  0  0  0  0
   -0.5050   26.4000  -26.1780 C   0  0  0  0  0  0  0  0  0  0  0  0
   -1.2120   22.7100  -29.2420 C   0  0  0  0  0  0  0  0  0  0  0  0
   -5.4868   21.3749  -31.7533 H   0  0  0  0  0  0  0  0  0  0  0  0
   -9.4245   19.3111  -30.4898 H   0  0  0  0  0  0  0  0  0  0  0  0
   -9.8175   19.7664  -32.1908 H   0  0  0  0  0  0  0  0  0  0  0  0
   -9.0263   17.2054  -31.2216 H   0  0  0  0  0  0  0  0  0  0  0  0
   -9.2222   17.7351  -32.9426 H   0  0  0  0  0  0  0  0  0  0  0  0
   -5.7966   18.5602  -33.3452 H   0  0  0  0  0  0  0  0  0  0  0  0
   -7.4131   18.3844  -34.1528 H   0  0  0  0  0  0  0  0  0  0  0  0
   -6.3004   20.7199  -32.8994 H   0  0  0  0  0  0  0  0  0  0  0  0
   -7.9220   20.5107  -33.6550 H   0  0  0  0  0  0  0  0  0  0  0  0
   -7.9754   24.5808  -30.2512 H   0  0  0  0  0  0  0  0  0  0  0  0
   -5.9529   26.0030  -29.9364 H   0  0  0  0  0  0  0  0  0  0  0  0
   -2.7084   19.6400  -29.0341 H   0  0  0  0  0  0  0  0  0  0  0  0
   -1.6918   19.7441  -26.7623 H   0  0  0  0  0  0  0  0  0  0  0  0
   -0.3651   21.7386  -26.0728 H   0  0  0  0  0  0  0  0  0  0  0  0
   -2.7218   26.0171  -28.0236 H   0  0  0  0  0  0  0  0  0  0  0  0
   -2.3081   24.2874  -27.8405 H   0  0  0  0  0  0  0  0  0  0  0  0
   -3.6251   25.8709  -25.9224 H   0  0  0  0  0  0  0  0  0  0  0  0
   -2.8490   24.3160  -25.5858 H   0  0  0  0  0  0  0  0  0  0  0  0
   -2.0161   26.9698  -24.7340 H   0  0  0  0  0  0  0  0  0  0  0  0
   -1.2209   25.4337  -24.3578 H   0  0  0  0  0  0  0  0  0  0  0  0
   -0.5290   27.4776  -26.3977 H   0  0  0  0  0  0  0  0  0  0  0  0
    0.4794   26.1458  -25.7581 H   0  0  0  0  0  0  0  0  0  0  0  0
   -1.0804   23.5514  -29.9382 H   0  0  0  0  0  0  0  0  0  0  0  0
  1  2  2  0
  2  3  1  0
  3  4  1  0
  4  5  2  0
  5  6  1  0
  6  7  1  0
  7  8  2  0
  7  9  2  0
  7 10  1  0
 10 11  1  0
 11 12  1  0
 12 13  1  0
 13 14  1  0
 14 15  1  0
  6 16  2  0
 16 17  1  0
 17 18  2  0
 18 19  1  0
  2 20  1  0
 20 21  2  0
 21 22  1  0
 22 23  2  0
 23 24  1  0
 24 25  1  0
 25 26  2  0
 25 27  2  0
 25 28  1  0
 28 29  1  0
 29 30  1  0
 30 31  1  0
 31 32  1  0
 24 33  2  0
 18  4  1  0
 33 20  1  0
 15 10  1  0
 32 28  1  0
  5 34  1  0
 11 35  1  0
 11 36  1  0
 12 37  1  0
 12 38  1  0
 14 39  1  0
 14 40  1  0
 15 41  1  0
 15 42  1  0
 16 43  1  0
 17 44  1  0
 21 45  1  0
 22 46  1  0
 23 47  1  0
 29 48  1  0
 29 49  1  0
 30 50  1  0
 30 51  1  0
 31 52  1  0
 31 53  1  0
 32 54  1  0
 32 55  1  0
 33 56  1  0
M  CHG  2   3  -1  19  -1
M  END
>  <UniqueID>  (34) 
33

>  <SMILES>  (34) 
O=C([N-]c1cc(S(=O)(=O)N2CCOCC2)ccc1[O-])c1cccc(S(=O)(=O)N2CCCC2)c1

>  <Energy>  (34) 
73.69837535207841

>  <Genealogy>  (34) 
O=C([N-]c1cc(S(=O)(=O)N2CCOCC2)ccc1[O-])c1cccc(S(=O)(=O)N2CCCC2)c1 (protonated)
O=C([N-]c1cc(S(=O)(=O)N2CCOCC2)ccc1[O-])c1cccc(S(=O)(=O)N2CCCC2)c1 (3D coordinates assigned)
O=C([N-]c1cc(S(=O)(=O)N2CCOCC2)ccc1[O-])c1cccc(S(=O)(=O)N2CCCC2)c1 (nonaromatic ring conformer: 73.69837535207841 kcal/mol)

>  <smiles>  (34) 
O=C(Nc1cc(S(=O)(=O)N2CCOCC2)ccc1O)c1cccc(S(=O)(=O)N2CCCC2)c1

>  <score_type>  (34) 
oracle

>  <origin>  (34) 
adgpu

>  <m_score__min__energy>  (34) 
-15.23

>  <m_primary>  (34) 
energy

$$$$
34:0
     RDKit          3D

 56 60  0  0  0  0  0  0  0  0999 V2000
   -1.5670   24.2760  -28.0710 C   0  0  0  0  0  0  0  0  0  0  0  0
   -1.3750   23.8530  -29.4170 O   0  0  0  0  0  0  0  0  0  0  0  0
   -2.3430   23.1880  -30.1850 C   0  0  0  0  0  0  0  0  0  0  0  0
   -2.2740   21.8060  -30.4480 C   0  0  0  0  0  0  0  0  0  0  0  0
   -3.2590   21.1740  -31.2270 C   0  0  0  0  0  0  0  0  0  0  0  0
   -3.1700   19.6920  -31.5250 C   0  0  1  0  0  0  0  0  0  0  0  0
   -4.2480   19.2790  -32.5260 C   0  0  0  0  0  0  0  0  0  0  0  0
   -5.6530   19.2110  -32.0520 C   0  0  0  0  0  0  0  0  0  0  0  0
   -5.9480   18.4840  -31.0630 O   0  0  0  0  0  0  0  0  0  0  0  0
   -6.6780   19.9680  -32.7110 N   0  0  0  0  0  0  0  0  0  0  0  0
   -7.7910   20.5780  -32.0320 C   0  0  0  0  0  0  0  0  0  0  0  0
   -9.0750   20.4720  -32.5910 C   0  0  0  0  0  0  0  0  0  0  0  0
  -10.1700   21.0800  -31.9680 C   0  0  0  0  0  0  0  0  0  0  0  0
   -9.9910   21.8100  -30.7900 C   0  0  0  0  0  0  0  0  0  0  0  0
   -8.7150   21.9380  -30.2370 C   0  0  0  0  0  0  0  0  0  0  0  0
   -7.6160   21.3310  -30.8550 C   0  0  0  0  0  0  0  0  0  0  0  0
   -3.9040   18.9580  -33.8010 C   0  0  0  0  0  0  0  0  0  0  0  0
   -4.9270   18.6350  -34.8530 C   0  0  0  0  0  0  0  0  0  0  0  0
   -2.5190   18.8560  -34.1720 N   0  0  0  0  0  0  0  0  0  0  0  0
   -1.5760   19.0430  -33.3060 C   0  0  0  0  0  0  0  0  0  0  0  0
    0.0620   18.8590  -33.6170 S   0  0  0  0  0  0  0  0  0  0  0  0
    0.5060   19.2210  -32.0200 C   0  0  0  0  0  0  0  0  0  0  0  0
    1.7460   19.2250  -31.5040 C   0  0  0  0  0  0  0  0  0  0  0  0
    2.9860   18.9750  -32.2680 C   0  0  0  0  0  0  0  0  0  0  0  0
    3.3420   19.5140  -33.4940 C   0  0  0  0  0  0  0  0  0  0  0  0
    4.6190   19.0640  -33.7600 C   0  0  0  0  0  0  0  0  0  0  0  0
    4.9940   18.2810  -32.6870 C   0  0  0  0  0  0  0  0  0  0  0  0
    4.0030   18.2400  -31.7790 N   0  0  0  0  0  0  0  0  0  0  0  0
   -0.6680   19.4690  -31.2980 C   0  0  0  0  0  0  0  0  0  0  0  0
   -0.6710   19.7680  -30.0720 O   0  0  0  0  0  0  0  0  0  0  0  0
   -1.8210   19.3760  -32.0230 N   0  0  0  0  0  0  0  0  0  0  0  0
   -4.3250   21.9350  -31.7340 C   0  0  0  0  0  0  0  0  0  0  0  0
   -4.3970   23.3060  -31.4770 C   0  0  0  0  0  0  0  0  0  0  0  0
   -3.4110   23.9300  -30.7070 C   0  0  0  0  0  0  0  0  0  0  0  0
   -3.4950   25.2960  -30.4640 O   0  0  0  0  0  0  0  0  0  0  0  0
   -1.2112   23.4922  -27.3861 H   0  0  0  0  0  0  0  0  0  0  0  0
   -1.0012   25.2025  -27.8936 H   0  0  0  0  0  0  0  0  0  0  0  0
   -2.6369   24.4601  -27.8936 H   0  0  0  0  0  0  0  0  0  0  0  0
   -1.4409   21.2151  -30.0397 H   0  0  0  0  0  0  0  0  0  0  0  0
   -3.3461   19.1199  -30.6021 H   0  0  0  0  0  0  0  0  0  0  0  0
   -6.6330   20.0370  -33.7510 H   0  0  0  0  0  0  0  0  0  0  0  0
   -9.2204   19.9077  -33.5240 H   0  0  0  0  0  0  0  0  0  0  0  0
  -11.1742   20.9832  -32.4064 H   0  0  0  0  0  0  0  0  0  0  0  0
  -10.8540   22.2832  -30.2989 H   0  0  0  0  0  0  0  0  0  0  0  0
   -8.5734   22.5177  -29.3129 H   0  0  0  0  0  0  0  0  0  0  0  0
   -6.6119   21.4424  -30.4199 H   0  0  0  0  0  0  0  0  0  0  0  0
   -5.8691   18.3376  -34.3693 H   0  0  0  0  0  0  0  0  0  0  0  0
   -5.1009   19.5220  -35.4800 H   0  0  0  0  0  0  0  0  0  0  0  0
   -4.5600   17.8090  -35.4800 H   0  0  0  0  0  0  0  0  0  0  0  0
    1.8465   19.4305  -30.4281 H   0  0  0  0  0  0  0  0  0  0  0  0
    2.7285   20.1702  -34.1289 H   0  0  0  0  0  0  0  0  0  0  0  0
    5.2210   19.2861  -34.6534 H   0  0  0  0  0  0  0  0  0  0  0  0
    5.9612   17.7663  -32.5890 H   0  0  0  0  0  0  0  0  0  0  0  0
    4.0260   17.7360  -30.8640 H   0  0  0  0  0  0  0  0  0  0  0  0
   -5.1068   21.4491  -32.3362 H   0  0  0  0  0  0  0  0  0  0  0  0
   -5.2321   23.8966  -31.8817 H   0  0  0  0  0  0  0  0  0  0  0  0
  1  2  1  0
  2  3  1  0
  3  4  2  0
  4  5  1  0
  5  6  1  0
  6  7  1  0
  7  8  1  0
  8  9  2  0
  8 10  1  0
 10 11  1  0
 11 12  2  0
 12 13  1  0
 13 14  2  0
 14 15  1  0
 15 16  2  0
  7 17  2  0
 17 18  1  0
 17 19  1  0
 19 20  2  0
 20 21  1  0
 21 22  1  0
 22 23  2  3
 23 24  1  0
 24 25  2  0
 25 26  1  0
 26 27  2  0
 27 28  1  0
 22 29  1  0
 29 30  2  0
 29 31  1  0
  5 32  2  0
 32 33  1  0
 33 34  2  0
 34 35  1  0
 34  3  1  0
 31  6  1  0
 16 11  1  0
 31 20  1  0
 28 24  1  0
  1 36  1  0
  1 37  1  0
  1 38  1  0
  4 39  1  0
  6 40  1  1
 10 41  1  0
 12 42  1  0
 13 43  1  0
 14 44  1  0
 15 45  1  0
 16 46  1  0
 18 47  1  0
 18 48  1  0
 18 49  1  0
 23 50  1  0
 25 51  1  0
 26 52  1  0
 27 53  1  0
 28 54  1  0
 32 55  1  0
 33 56  1  0
M  CHG  1  35  -1
M  END
>  <UniqueID>  (35) 
34

>  <SMILES>  (35) 
COc1cc([C@H]2C(C(=O)Nc3ccccc3)=C(C)N=c3sc(=Cc4ccc[nH]4)c(=O)n32)ccc1[O-]

>  <Energy>  (35) 
133.97550033753467

>  <Genealogy>  (35) 
COc1cc(C2C(C(=O)Nc3ccccc3)=C(C)N=c3sc(=Cc4ccc[nH]4)c(=O)n32)ccc1[O-] (protonated)
COc1cc([C@H]2C(C(=O)Nc3ccccc3)=C(C)N=c3sc(=Cc4ccc[nH]4)c(=O)n32)ccc1[O-] (chirality)
COc1cc([C@H]2C(C(=O)Nc3ccccc3)=C(C)N=c3sc(=Cc4ccc[nH]4)c(=O)n32)ccc1[O-] (3D coordinates assigned)
COc1cc([C@H]2C(C(=O)Nc3ccccc3)=C(C)N=c3sc(=Cc4ccc[nH]4)c(=O)n32)ccc1[O-] (nonaromatic ring conformer: 133.97550033753467 kcal/mol)

>  <smiles>  (35) 
COc1cc(C2C(C(=O)Nc3ccccc3)=C(C)N=c3sc(=Cc4ccc[nH]4)c(=O)n32)ccc1O

>  <score_type>  (35) 
oracle

>  <origin>  (35) 
adgpu

>  <m_score__min__energy>  (35) 
-12.82

>  <m_primary>  (35) 
energy

$$$$
35:0
     RDKit          3D

 50 53  0  0  0  0  0  0  0  0999 V2000
   -0.3130   21.7530  -33.9480 O   0  0  0  0  0  0  0  0  0  0  0  0
   -0.9010   20.9520  -33.1760 C   0  0  0  0  0  0  0  0  0  0  0  0
   -0.6870   19.5440  -33.3550 N   0  0  0  0  0  0  0  0  0  0  0  0
   -1.6970   18.5240  -33.3380 C   0  0  0  0  0  0  0  0  0  0  0  0
   -1.3250   17.2360  -32.9380 C   0  0  0  0  0  0  0  0  0  0  0  0
   -2.2840   16.2340  -32.8050 C   0  0  0  0  0  0  0  0  0  0  0  0
   -3.6230   16.5060  -33.0760 C   0  0  0  0  0  0  0  0  0  0  0  0
   -4.0150   17.7770  -33.5240 C   0  0  0  0  0  0  0  0  0  0  0  0
   -5.7260   18.0750  -33.8690 S   0  0  0  0  0  0  0  0  0  0  0  0
   -5.8430   18.7490  -35.2080 O   0  0  0  0  0  0  0  0  0  0  0  0
   -6.4650   16.7680  -33.9520 O   0  0  0  0  0  0  0  0  0  0  0  0
   -6.4700   19.0870  -32.6510 N   0  0  0  0  0  0  0  0  0  0  0  0
   -7.0540   20.2960  -33.2700 C   0  0  0  0  0  0  0  0  0  0  0  0
   -8.0050   21.0080  -32.3030 C   0  0  0  0  0  0  0  0  0  0  0  0
   -9.1940   20.1050  -31.9270 C   0  0  0  0  0  0  0  0  0  0  0  0
   -8.8790   18.6070  -32.0910 C   0  0  0  0  0  0  0  0  0  0  0  0
   -7.4030   18.3180  -31.7890 C   0  0  0  0  0  0  0  0  0  0  0  0
   -3.0440   18.7870  -33.6890 C   0  0  0  0  0  0  0  0  0  0  0  0
   -3.4260   20.0220  -34.2150 O   0  0  0  0  0  0  0  0  0  0  0  0
   -1.7730   21.4970  -32.1160 C   0  0  0  0  0  0  0  0  0  0  0  0
   -2.9970   22.1170  -32.2760 C   0  0  0  0  0  0  0  0  0  0  0  0
   -3.3840   22.4440  -30.9890 C   0  0  0  0  0  0  0  0  0  0  0  0
   -4.6220   23.1630  -30.5950 C   0  0  0  0  0  0  0  0  0  0  0  0
   -5.8370   22.4590  -30.4630 C   0  0  0  0  0  0  0  0  0  0  0  0
   -7.0100   23.1270  -30.1000 C   0  0  0  0  0  0  0  0  0  0  0  0
   -6.9890   24.5000  -29.8610 C   0  0  0  0  0  0  0  0  0  0  0  0
   -5.7960   25.2110  -29.9870 C   0  0  0  0  0  0  0  0  0  0  0  0
   -4.6140   24.5540  -30.3520 C   0  0  0  0  0  0  0  0  0  0  0  0
   -3.4420   25.2970  -30.4620 O   0  0  0  0  0  0  0  0  0  0  0  0
   -2.4440   22.0160  -30.1220 N   0  0  0  0  0  0  0  0  0  0  0  0
   -1.4680   21.4380  -30.8060 N   0  0  0  0  0  0  0  0  0  0  0  0
   -0.2687   17.0129  -32.7272 H   0  0  0  0  0  0  0  0  0  0  0  0
   -1.9829   15.2255  -32.4852 H   0  0  0  0  0  0  0  0  0  0  0  0
   -4.3788   15.7188  -32.9379 H   0  0  0  0  0  0  0  0  0  0  0  0
   -6.2425   20.9848  -33.5477 H   0  0  0  0  0  0  0  0  0  0  0  0
   -7.6249   19.9913  -34.1595 H   0  0  0  0  0  0  0  0  0  0  0  0
   -7.4540   21.2751  -31.3892 H   0  0  0  0  0  0  0  0  0  0  0  0
   -8.3948   21.9098  -32.7979 H   0  0  0  0  0  0  0  0  0  0  0  0
   -9.4619   20.2952  -30.8772 H   0  0  0  0  0  0  0  0  0  0  0  0
  -10.0226   20.3464  -32.6090 H   0  0  0  0  0  0  0  0  0  0  0  0
   -9.5076   18.0294  -31.3973 H   0  0  0  0  0  0  0  0  0  0  0  0
   -9.0863   18.3178  -33.1318 H   0  0  0  0  0  0  0  0  0  0  0  0
   -7.2034   18.5773  -30.7388 H   0  0  0  0  0  0  0  0  0  0  0  0
   -7.2303   17.2504  -31.9900 H   0  0  0  0  0  0  0  0  0  0  0  0
   -4.3770   20.2360  -34.4830 H   0  0  0  0  0  0  0  0  0  0  0  0
   -3.5402   22.3073  -33.2134 H   0  0  0  0  0  0  0  0  0  0  0  0
   -5.8617   21.3748  -30.6473 H   0  0  0  0  0  0  0  0  0  0  0  0
   -7.9521   22.5676  -30.0027 H   0  0  0  0  0  0  0  0  0  0  0  0
   -7.9131   25.0226  -29.5731 H   0  0  0  0  0  0  0  0  0  0  0  0
   -5.7831   26.2947  -29.7986 H   0  0  0  0  0  0  0  0  0  0  0  0
  1  2  2  0
  2  3  1  0
  3  4  1  0
  4  5  2  0
  5  6  1  0
  6  7  2  0
  7  8  1  0
  8  9  1  0
  9 10  2  0
  9 11  2  0
  9 12  1  0
 12 13  1  0
 13 14  1  0
 14 15  1  0
 15 16  1  0
 16 17  1  0
  8 18  2  0
 18 19  1  0
  2 20  1  0
 20 21  1  0
 21 22  2  0
 22 23  1  0
 23 24  2  0
 24 25  1  0
 25 26  2  0
 26 27  1  0
 27 28  2  0
 28 29  1  0
 22 30  1  0
 30 31  1  0
 18  4  1  0
 31 20  2  0
 17 12  1  0
 28 23  1  0
  5 32  1  0
  6 33  1  0
  7 34  1  0
 13 35  1  0
 13 36  1  0
 14 37  1  0
 14 38  1  0
 15 39  1  0
 15 40  1  0
 16 41  1  0
 16 42  1  0
 17 43  1  0
 17 44  1  0
 19 45  1  0
 21 46  1  0
 24 47  1  0
 25 48  1  0
 26 49  1  0
 27 50  1  0
M  CHG  3   3  -1  29  -1  30  -1
M  END
>  <UniqueID>  (36) 
35

>  <SMILES>  (36) 
O=C([N-]c1cccc(S(=O)(=O)N2CCCCC2)c1O)c1cc(-c2ccccc2[O-])[n-]n1

>  <Energy>  (36) 
99.03604672156173

>  <Genealogy>  (36) 
O=C([N-]c1cccc(S(=O)(=O)N2CCCCC2)c1O)c1cc(-c2ccccc2[O-])[n-]n1 (protonated)
O=C([N-]c1cccc(S(=O)(=O)N2CCCCC2)c1O)c1cc(-c2ccccc2[O-])[n-]n1 (3D coordinates assigned)
O=C([N-]c1cccc(S(=O)(=O)N2CCCCC2)c1O)c1cc(-c2ccccc2[O-])[n-]n1 (nonaromatic ring conformer: 99.03604672156173 kcal/mol)

>  <smiles>  (36) 
O=C(Nc1cccc(S(=O)(=O)N2CCCCC2)c1O)c1cc(-c2ccccc2O)[nH]n1

>  <score_type>  (36) 
oracle

>  <origin>  (36) 
adgpu

>  <m_score__min__energy>  (36) 
-15.449999999999999

>  <m_primary>  (36) 
energy

$$$$
36:0
     RDKit          3D

 57 60  0  0  0  0  0  0  0  0999 V2000
   -1.0770   25.8000  -27.1230 H   0  0  0  0  0  0  0  0  0  0  0  0
   -2.0130   25.5900  -27.5360 N   0  0  0  0  0  0  0  0  0  0  0  0
   -2.2110   24.7110  -28.4700 C   0  0  0  0  0  0  0  0  0  0  0  0
   -3.4750   24.5280  -28.9340 N   0  0  0  0  0  0  0  0  0  0  0  0
   -3.7790   23.6290  -29.9080 C   0  0  0  0  0  0  0  0  0  0  0  0
   -5.1300   23.5470  -30.3860 N   0  0  0  0  0  0  0  0  0  0  0  0
   -5.5660   24.4060  -31.4930 C   0  0  0  0  0  0  0  0  0  0  0  0
   -6.0798   25.2898  -31.0870 H   0  0  0  0  0  0  0  0  0  0  0  0
   -4.6859   24.7186  -32.0742 H   0  0  0  0  0  0  0  0  0  0  0  0
   -6.5270   23.6370  -32.4110 C   0  0  0  0  0  0  0  0  0  0  0  0
   -7.0235   24.3626  -33.0721 H   0  0  0  0  0  0  0  0  0  0  0  0
   -5.9152   22.9028  -32.9557 H   0  0  0  0  0  0  0  0  0  0  0  0
   -7.6350   22.8210  -31.6630 C   0  0  0  0  0  0  0  0  0  0  0  0
   -8.6339   23.1777  -31.9543 H   0  0  0  0  0  0  0  0  0  0  0  0
   -7.5650   21.3830  -32.0690 N   0  0  0  0  0  0  0  0  0  0  0  0
   -6.3530   20.6770  -31.5710 C   0  0  0  0  0  0  0  0  0  0  0  0
   -5.4832   21.0274  -32.1460 H   0  0  0  0  0  0  0  0  0  0  0  0
   -6.2589   20.9054  -30.4991 H   0  0  0  0  0  0  0  0  0  0  0  0
   -6.4450   19.1380  -31.7070 C   0  0  0  0  0  0  0  0  0  0  0  0
   -5.4697   18.7485  -32.0344 H   0  0  0  0  0  0  0  0  0  0  0  0
   -6.7233   18.7195  -30.7285 H   0  0  0  0  0  0  0  0  0  0  0  0
   -7.5100   18.7320  -32.7250 C   0  0  0  0  0  0  0  0  0  0  0  0
   -7.2292   19.1211  -33.7148 H   0  0  0  0  0  0  0  0  0  0  0  0
   -7.5740   17.6341  -32.7482 H   0  0  0  0  0  0  0  0  0  0  0  0
   -8.8840   19.2960  -32.3340 C   0  0  0  0  0  0  0  0  0  0  0  0
   -9.4855   19.4270  -33.2456 H   0  0  0  0  0  0  0  0  0  0  0  0
   -9.3564   18.5840  -31.6413 H   0  0  0  0  0  0  0  0  0  0  0  0
   -8.7730   20.6510  -31.6150 C   0  0  0  0  0  0  0  0  0  0  0  0
   -9.6662   21.2532  -31.8378 H   0  0  0  0  0  0  0  0  0  0  0  0
   -8.6954   20.4737  -30.5322 H   0  0  0  0  0  0  0  0  0  0  0  0
   -7.5390   23.0530  -30.1260 C   0  0  0  0  0  0  0  0  0  0  0  0
   -7.8249   24.0919  -29.9045 H   0  0  0  0  0  0  0  0  0  0  0  0
   -8.2161   22.3415  -29.6306 H   0  0  0  0  0  0  0  0  0  0  0  0
   -6.1220   22.8060  -29.5990 C   0  0  0  0  0  0  0  0  0  0  0  0
   -6.0663   23.1336  -28.5504 H   0  0  0  0  0  0  0  0  0  0  0  0
   -5.9010   21.7315  -29.6802 H   0  0  0  0  0  0  0  0  0  0  0  0
   -2.7570   22.8320  -30.4650 C   0  0  0  0  0  0  0  0  0  0  0  0
   -3.0460   21.7870  -31.4700 C   0  0  0  0  0  0  0  0  0  0  0  0
   -2.6990   20.4510  -31.2220 C   0  0  0  0  0  0  0  0  0  0  0  0
   -2.2139   20.1794  -30.2729 H   0  0  0  0  0  0  0  0  0  0  0  0
   -2.9660   19.4620  -32.1740 C   0  0  0  0  0  0  0  0  0  0  0  0
   -2.6798   18.4186  -31.9754 H   0  0  0  0  0  0  0  0  0  0  0  0
   -3.6000   19.7970  -33.3860 C   0  0  0  0  0  0  0  0  0  0  0  0
   -3.8830   18.8450  -34.3760 O   0  0  0  0  0  0  0  0  0  0  0  0
   -4.5660   17.6170  -34.1370 C   0  0  0  0  0  0  0  0  0  0  0  0
   -4.6572   17.4531  -33.0531 H   0  0  0  0  0  0  0  0  0  0  0  0
   -5.5689   17.6617  -34.5867 H   0  0  0  0  0  0  0  0  0  0  0  0
   -3.9991   16.7886  -34.5867 H   0  0  0  0  0  0  0  0  0  0  0  0
   -3.9650   21.1270  -33.6180 C   0  0  0  0  0  0  0  0  0  0  0  0
   -4.4749   21.3959  -34.5549 H   0  0  0  0  0  0  0  0  0  0  0  0
   -3.6890   22.1170  -32.6730 C   0  0  0  0  0  0  0  0  0  0  0  0
   -3.9767   23.1599  -32.8722 H   0  0  0  0  0  0  0  0  0  0  0  0
   -1.4420   23.0150  -30.0170 C   0  0  0  0  0  0  0  0  0  0  0  0
   -0.6288   22.4164  -30.4534 H   0  0  0  0  0  0  0  0  0  0  0  0
   -1.1550   23.9520  -29.0200 C   0  0  0  0  0  0  0  0  0  0  0  0
    0.2120   24.1020  -28.5760 C   0  0  0  0  0  0  0  0  0  0  0  0
    1.3070   24.2210  -28.2220 N   0  0  0  0  0  0  0  0  0  0  0  0
  1  2  1  0
  2  3  2  0
  3  4  1  0
  4  5  1  0
  5  6  1  0
  6  7  1  0
  7  8  1  0
  7  9  1  0
  7 10  1  0
 10 11  1  0
 10 12  1  0
 10 13  1  0
 13 14  1  0
 13 15  1  0
 15 16  1  0
 16 17  1  0
 16 18  1  0
 16 19  1  0
 19 20  1  0
 19 21  1  0
 19 22  1  0
 22 23  1  0
 22 24  1  0
 22 25  1  0
 25 26  1  0
 25 27  1  0
 25 28  1  0
 28 29  1  0
 28 30  1  0
 13 31  1  0
 31 32  1  0
 31 33  1  0
 31 34  1  0
 34 35  1  0
 34 36  1  0
  5 37  2  0
 37 38  1  0
 38 39  2  0
 39 40  1  0
 39 41  1  0
 41 42  1  0
 41 43  2  0
 43 44  1  0
 44 45  1  0
 45 46  1  0
 45 47  1  0
 45 48  1  0
 43 49  1  0
 49 50  1  0
 49 51  2  0
 51 52  1  0
 37 53  1  0
 53 54  1  0
 53 55  2  0
 55 56  1  0
 56 57  3  0
 55  3  1  0
 34  6  1  0
 51 38  1  0
 28 15  1  0
M  CHG  1   4  -1
M  END
>  <UniqueID>  (37) 
36

>  <SMILES>  (37) 
[H]/N=c1/[n-]c(N2CCC(N3CCCCC3)CC2)c(-c2ccc(OC)cc2)cc1C#N

>  <Energy>  (37) 
81.83906682134415

>  <Genealogy>  (37) 
COc1ccc(-c2cc(C#N)c(=N)[n-]c2N2CCC(N3CCCCC3)CC2)cc1 (protonated)
[H]/N=c1/[n-]c(N2CCC(N3CCCCC3)CC2)c(-c2ccc(OC)cc2)cc1C#N (cis-trans isomerization)
[H]/N=c1/[n-]c(N2CCC(N3CCCCC3)CC2)c(-c2ccc(OC)cc2)cc1C#N (3D coordinates assigned)
[H]/N=c1/[n-]c(N2CCC(N3CCCCC3)CC2)c(-c2ccc(OC)cc2)cc1C#N (nonaromatic ring conformer: 81.83906682134415 kcal/mol)

>  <smiles>  (37) 
COc1ccc(-c2cc(C#N)c(=N)[nH]c2N2CCC(N3CCCCC3)CC2)cc1

>  <score_type>  (37) 
oracle

>  <origin>  (37) 
adgpu

>  <m_score__min__energy>  (37) 
-9.8800000000000008

>  <m_primary>  (37) 
energy

$$$$
37:0
     RDKit          3D

 66 69  0  0  0  0  0  0  0  0999 V2000
    0.1220   18.3520  -34.7320 C   0  0  0  0  0  0  0  0  0  0  0  0
   -0.6100   18.6260  -33.4970 N   0  0  0  0  0  0  0  0  0  0  0  0
   -2.0350   18.4390  -33.4420 C   0  0  0  0  0  0  0  0  0  0  0  0
   -2.9020   19.5280  -33.6110 C   0  0  0  0  0  0  0  0  0  0  0  0
   -4.2850   19.3540  -33.5330 C   0  0  0  0  0  0  0  0  0  0  0  0
   -4.8300   18.0820  -33.2970 C   0  0  0  0  0  0  0  0  0  0  0  0
   -6.2960   17.9100  -33.1950 C   0  0  0  0  0  0  0  0  0  0  0  0
   -6.8540   17.0530  -33.9340 O   0  0  0  0  0  0  0  0  0  0  0  0
   -7.0950   18.7230  -32.3030 N   0  0  0  0  0  0  0  0  0  0  0  0
   -6.6470   20.0800  -31.9470 C   0  0  0  0  0  0  0  0  0  0  0  0
   -7.8080   20.9470  -31.4380 C   0  0  0  0  0  0  0  0  0  0  0  0
   -9.0440   20.7800  -32.3330 C   0  0  0  0  0  0  0  0  0  0  0  0
   -9.4790   19.3040  -32.5050 C   0  0  0  0  0  0  0  0  0  0  0  0
   -8.4580   18.3070  -31.9400 C   0  0  0  0  0  0  0  0  0  0  0  0
   -3.9660   16.9820  -33.1300 C   0  0  0  0  0  0  0  0  0  0  0  0
   -4.4880   15.7070  -32.9060 O   0  0  0  0  0  0  0  0  0  0  0  0
   -2.5790   17.1660  -33.2040 C   0  0  0  0  0  0  0  0  0  0  0  0
    0.2740   19.1010  -32.0750 S   0  0  0  0  0  0  0  0  0  0  0  0
    1.6280   19.6160  -32.4770 O   0  0  0  0  0  0  0  0  0  0  0  0
    0.4810   17.9120  -31.1770 O   0  0  0  0  0  0  0  0  0  0  0  0
   -0.6010   20.3580  -31.2050 C   0  0  0  0  0  0  0  0  0  0  0  0
   -0.7970   20.2460  -29.8220 C   0  0  0  0  0  0  0  0  0  0  0  0
   -1.5020   21.2320  -29.1280 C   0  0  0  0  0  0  0  0  0  0  0  0
   -2.0370   22.3320  -29.8150 C   0  0  0  0  0  0  0  0  0  0  0  0
   -2.9380   23.5680  -28.9360 S   0  0  0  0  0  0  0  0  0  0  0  0
   -2.6230   23.4380  -27.4720 O   0  0  0  0  0  0  0  0  0  0  0  0
   -2.4630   24.9240  -29.3830 O   0  0  0  0  0  0  0  0  0  0  0  0
   -4.6740   23.4570  -29.1450 N   0  0  0  0  0  0  0  0  0  0  0  0
   -5.1020   22.4650  -30.1530 C   0  0  0  0  0  0  0  0  0  0  0  0
   -5.1960   23.0360  -31.5770 C   0  0  0  0  0  0  0  0  0  0  0  0
   -6.0190   24.3190  -31.6020 C   0  0  0  0  0  0  0  0  0  0  0  0
   -5.4300   25.3370  -30.6320 C   0  0  0  0  0  0  0  0  0  0  0  0
   -5.3700   24.7590  -29.2130 C   0  0  0  0  0  0  0  0  0  0  0  0
   -1.8190   22.4590  -31.1940 C   0  0  0  0  0  0  0  0  0  0  0  0
   -1.1100   21.4730  -31.8870 C   0  0  0  0  0  0  0  0  0  0  0  0
    1.1264   17.9760  -34.4872 H   0  0  0  0  0  0  0  0  0  0  0  0
   -0.4196   17.5957  -35.3191 H   0  0  0  0  0  0  0  0  0  0  0  0
    0.2101   19.2780  -35.3191 H   0  0  0  0  0  0  0  0  0  0  0  0
   -2.4887   20.5284  -33.8068 H   0  0  0  0  0  0  0  0  0  0  0  0
   -4.9523   20.2196  -33.6573 H   0  0  0  0  0  0  0  0  0  0  0  0
   -5.8837   20.0078  -31.1582 H   0  0  0  0  0  0  0  0  0  0  0  0
   -6.2366   20.5535  -32.8511 H   0  0  0  0  0  0  0  0  0  0  0  0
   -8.0620   20.6437  -30.4116 H   0  0  0  0  0  0  0  0  0  0  0  0
   -7.4967   22.0018  -31.4587 H   0  0  0  0  0  0  0  0  0  0  0  0
   -9.8780   21.3401  -31.8850 H   0  0  0  0  0  0  0  0  0  0  0  0
   -8.7785   21.1604  -33.3304 H   0  0  0  0  0  0  0  0  0  0  0  0
  -10.4366   19.1580  -31.9838 H   0  0  0  0  0  0  0  0  0  0  0  0
   -9.5646   19.1104  -33.5844 H   0  0  0  0  0  0  0  0  0  0  0  0
   -8.5491   18.2738  -30.8443 H   0  0  0  0  0  0  0  0  0  0  0  0
   -8.6555   17.3102  -32.3611 H   0  0  0  0  0  0  0  0  0  0  0  0
   -5.4470   15.4780  -33.1390 H   0  0  0  0  0  0  0  0  0  0  0  0
   -1.9084   16.3037  -33.0742 H   0  0  0  0  0  0  0  0  0  0  0  0
   -0.3938   19.3776  -29.2805 H   0  0  0  0  0  0  0  0  0  0  0  0
   -1.6381   21.1458  -28.0399 H   0  0  0  0  0  0  0  0  0  0  0  0
   -4.3765   21.6381  -30.1571 H   0  0  0  0  0  0  0  0  0  0  0  0
   -6.1123   22.1338  -29.8709 H   0  0  0  0  0  0  0  0  0  0  0  0
   -4.1821   23.2526  -31.9446 H   0  0  0  0  0  0  0  0  0  0  0  0
   -5.6901   22.2921  -32.2192 H   0  0  0  0  0  0  0  0  0  0  0  0
   -6.0097   24.7377  -32.6192 H   0  0  0  0  0  0  0  0  0  0  0  0
   -7.0521   24.0904  -31.3013 H   0  0  0  0  0  0  0  0  0  0  0  0
   -4.4131   25.6007  -30.9582 H   0  0  0  0  0  0  0  0  0  0  0  0
   -6.0710   26.2309  -30.6238 H   0  0  0  0  0  0  0  0  0  0  0  0
   -4.8395   25.4735  -28.5664 H   0  0  0  0  0  0  0  0  0  0  0  0
   -6.4061   24.5941  -28.8825 H   0  0  0  0  0  0  0  0  0  0  0  0
   -2.2067   23.3365  -31.7322 H   0  0  0  0  0  0  0  0  0  0  0  0
   -0.9508   21.5721  -32.9709 H   0  0  0  0  0  0  0  0  0  0  0  0
  1  2  1  0
  2  3  1  0
  3  4  2  0
  4  5  1  0
  5  6  2  0
  6  7  1  0
  7  8  2  0
  7  9  1  0
  9 10  1  0
 10 11  1  0
 11 12  1  0
 12 13  1  0
 13 14  1  0
  6 15  1  0
 15 16  1  0
 15 17  2  0
  2 18  1  0
 18 19  2  0
 18 20  2  0
 18 21  1  0
 21 22  2  0
 22 23  1  0
 23 24  2  0
 24 25  1  0
 25 26  2  0
 25 27  2  0
 25 28  1  0
 28 29  1  0
 29 30  1  0
 30 31  1  0
 31 32  1  0
 32 33  1  0
 24 34  1  0
 34 35  2  0
 17  3  1  0
 35 21  1  0
 14  9  1  0
 33 28  1  0
  1 36  1  0
  1 37  1  0
  1 38  1  0
  4 39  1  0
  5 40  1  0
 10 41  1  0
 10 42  1  0
 11 43  1  0
 11 44  1  0
 12 45  1  0
 12 46  1  0
 13 47  1  0
 13 48  1  0
 14 49  1  0
 14 50  1  0
 16 51  1  0
 17 52  1  0
 22 53  1  0
 23 54  1  0
 29 55  1  0
 29 56  1  0
 30 57  1  0
 30 58  1  0
 31 59  1  0
 31 60  1  0
 32 61  1  0
 32 62  1  0
 33 63  1  0
 33 64  1  0
 34 65  1  0
 35 66  1  0
M  END
>  <UniqueID>  (38) 
37

>  <SMILES>  (38) 
CN(c1ccc(C(=O)N2CCCCC2)c(O)c1)S(=O)(=O)c1ccc(S(=O)(=O)N2CCCCC2)cc1

>  <Energy>  (38) 
80.83480516670582

>  <Genealogy>  (38) 
CN(c1ccc(C(=O)N2CCCCC2)c(O)c1)S(=O)(=O)c1ccc(S(=O)(=O)N2CCCCC2)cc1 (3D coordinates assigned)
CN(c1ccc(C(=O)N2CCCCC2)c(O)c1)S(=O)(=O)c1ccc(S(=O)(=O)N2CCCCC2)cc1 (nonaromatic ring conformer: 80.83480516670582 kcal/mol)

>  <smiles>  (38) 
CN(c1ccc(C(=O)N2CCCCC2)c(O)c1)S(=O)(=O)c1ccc(S(=O)(=O)N2CCCCC2)cc1

>  <score_type>  (38) 
oracle

>  <origin>  (38) 
adgpu

>  <m_score__min__energy>  (38) 
-10.76

>  <m_primary>  (38) 
energy

$$$$
38:0
     RDKit          3D

 33 35  0  0  0  0  0  0  0  0999 V2000
   -6.1190   25.6190  -29.7310 C   0  0  0  0  0  0  0  0  0  0  0  0
   -5.2280   24.4370  -29.9350 C   0  0  0  0  0  0  0  0  0  0  0  0
   -4.8750   23.6020  -28.8400 C   0  0  0  0  0  0  0  0  0  0  0  0
   -4.0910   22.5000  -29.0440 N   0  0  0  0  0  0  0  0  0  0  0  0
   -3.6670   22.2430  -30.3040 C   0  0  0  0  0  0  0  0  0  0  0  0
   -2.9420   21.1960  -30.7140 N   0  0  0  0  0  0  0  0  0  0  0  0
   -2.8730   21.4220  -32.0570 C   0  0  0  0  0  0  0  0  0  0  0  0
   -2.0860   20.2780  -33.1890 S   0  0  0  0  0  0  0  0  0  0  0  0
   -3.6130   19.3450  -33.5620 C   0  0  0  0  0  0  0  0  0  0  0  0
   -4.7460   19.7810  -32.6800 C   0  0  0  0  0  0  0  0  0  0  0  0
   -5.0000   19.1300  -31.6310 O   0  0  0  0  0  0  0  0  0  0  0  0
   -5.5320   20.9290  -33.0390 N   0  0  0  0  0  0  0  0  0  0  0  0
   -6.8800   21.1680  -32.5940 C   0  0  0  0  0  0  0  0  0  0  0  0
   -7.2740   22.4190  -32.0790 C   0  0  0  0  0  0  0  0  0  0  0  0
   -8.5730   22.6090  -31.6010 C   0  0  0  0  0  0  0  0  0  0  0  0
   -9.4900   21.5550  -31.6220 C   0  0  0  0  0  0  0  0  0  0  0  0
   -9.1050   20.3060  -32.1140 C   0  0  0  0  0  0  0  0  0  0  0  0
   -7.8060   20.1090  -32.5930 C   0  0  0  0  0  0  0  0  0  0  0  0
   -7.4520   18.8850  -33.0600 F   0  0  0  0  0  0  0  0  0  0  0  0
   -3.5140   22.5430  -32.4890 N   0  0  0  0  0  0  0  0  0  0  0  0
   -4.0030   23.0320  -31.3440 C   0  0  0  0  0  0  0  0  0  0  0  0
   -4.7870   24.1250  -31.1940 N   0  0  0  0  0  0  0  0  0  0  0  0
   -6.2524   25.7960  -28.6536 H   0  0  0  0  0  0  0  0  0  0  0  0
   -5.6631   26.5062  -30.1946 H   0  0  0  0  0  0  0  0  0  0  0  0
   -7.0975   25.4250  -30.1946 H   0  0  0  0  0  0  0  0  0  0  0  0
   -5.2326   23.8423  -27.8279 H   0  0  0  0  0  0  0  0  0  0  0  0
   -3.8902   19.5162  -34.6127 H   0  0  0  0  0  0  0  0  0  0  0  0
   -3.4214   18.2773  -33.3797 H   0  0  0  0  0  0  0  0  0  0  0  0
   -5.1010   21.6230  -33.6900 H   0  0  0  0  0  0  0  0  0  0  0  0
   -6.5547   23.2508  -32.0531 H   0  0  0  0  0  0  0  0  0  0  0  0
   -8.8746   23.5908  -31.2072 H   0  0  0  0  0  0  0  0  0  0  0  0
  -10.5142   21.7089  -31.2514 H   0  0  0  0  0  0  0  0  0  0  0  0
   -9.8255   19.4749  -32.1248 H   0  0  0  0  0  0  0  0  0  0  0  0
  1  2  1  0
  2  3  2  0
  3  4  1  0
  4  5  2  0
  5  6  1  0
  6  7  2  0
  7  8  1  0
  8  9  1  0
  9 10  1  0
 10 11  2  0
 10 12  1  0
 12 13  1  0
 13 14  2  0
 14 15  1  0
 15 16  2  0
 16 17  1  0
 17 18  2  0
 18 19  1  0
  7 20  1  0
 20 21  1  0
 21 22  2  0
 22  2  1  0
 21  5  1  0
 18 13  1  0
  1 23  1  0
  1 24  1  0
  1 25  1  0
  3 26  1  0
  9 27  1  0
  9 28  1  0
 12 29  1  0
 14 30  1  0
 15 31  1  0
 16 32  1  0
 17 33  1  0
M  CHG  1  20  -1
M  END
>  <UniqueID>  (39) 
38

>  <SMILES>  (39) 
Cc1cnc2nc(SCC(=O)Nc3ccccc3F)[n-]c2n1

>  <Energy>  (39) 
71.05148616468415

>  <Genealogy>  (39) 
Cc1cnc2nc(SCC(=O)Nc3ccccc3F)[n-]c2n1 (protonated)
Cc1cnc2nc(SCC(=O)Nc3ccccc3F)[n-]c2n1 (3D coordinates assigned)
Cc1cnc2nc(SCC(=O)Nc3ccccc3F)[n-]c2n1 (optimized conformer: 71.05148616468415 kcal/mol)

>  <smiles>  (39) 
Cc1cnc2nc(SCC(=O)Nc3ccccc3F)[nH]c2n1

>  <score_type>  (39) 
oracle

>  <origin>  (39) 
adgpu

>  <m_score__min__energy>  (39) 
-9.0299999999999994

>  <m_primary>  (39) 
energy

$$$$
39:0
     RDKit          3D

 56 60  0  0  0  0  0  0  0  0999 V2000
   -7.8990   20.4570  -30.8660 O   0  0  0  0  0  0  0  0  0  0  0  0
   -6.8570   20.7150  -31.9190 S   0  0  0  0  0  0  0  0  0  0  0  0
   -7.5590   20.9030  -33.2370 O   0  0  0  0  0  0  0  0  0  0  0  0
   -5.9690   22.1870  -31.5150 C   0  0  0  0  0  0  0  0  0  0  0  0
   -6.6110   23.4290  -31.5180 C   0  0  0  0  0  0  0  0  0  0  0  0
   -5.9110   24.5820  -31.1580 C   0  0  0  0  0  0  0  0  0  0  0  0
   -4.5610   24.5060  -30.7860 C   0  0  0  0  0  0  0  0  0  0  0  0
   -3.8710   25.6710  -30.4450 O   0  0  0  0  0  0  0  0  0  0  0  0
   -3.9020   23.2580  -30.7660 C   0  0  0  0  0  0  0  0  0  0  0  0
   -2.4220   23.1750  -30.4120 C   0  0  2  0  0  0  0  0  0  0  0  0
   -1.8240   21.4360  -30.2340 S   0  0  0  0  0  0  0  0  0  0  0  0
   -1.3550   21.1500  -31.9470 C   0  0  0  0  0  0  0  0  0  0  0  0
   -2.2950   20.6500  -32.8560 C   0  0  0  0  0  0  0  0  0  0  0  0
   -1.8980   20.3790  -34.1670 C   0  0  0  0  0  0  0  0  0  0  0  0
   -0.5830   20.6310  -34.5600 C   0  0  0  0  0  0  0  0  0  0  0  0
    0.3180   21.1580  -33.6320 C   0  0  0  0  0  0  0  0  0  0  0  0
   -0.0830   21.4050  -32.3570 N   0  0  0  0  0  0  0  0  0  0  0  0
   -2.0670   24.0150  -29.2110 C   0  0  0  0  0  0  0  0  0  0  0  0
   -1.1200   24.9930  -29.2700 N   0  0  0  0  0  0  0  0  0  0  0  0
   -1.2140   25.5610  -28.0600 C   0  0  0  0  0  0  0  0  0  0  0  0
   -0.4890   26.6430  -27.5660 C   0  0  0  0  0  0  0  0  0  0  0  0
   -0.7870   27.0900  -26.2650 C   0  0  0  0  0  0  0  0  0  0  0  0
   -1.7960   26.4550  -25.5020 C   0  0  0  0  0  0  0  0  0  0  0  0
   -2.5100   25.3670  -26.0380 C   0  0  0  0  0  0  0  0  0  0  0  0
   -2.1840   24.9490  -27.3270 C   0  0  0  0  0  0  0  0  0  0  0  0
   -2.7500   23.9660  -28.0360 N   0  0  0  0  0  0  0  0  0  0  0  0
   -4.6190   22.1070  -31.1590 C   0  0  0  0  0  0  0  0  0  0  0  0
   -5.7830   19.3370  -32.0170 N   0  0  0  0  0  0  0  0  0  0  0  0
   -6.4660   18.1120  -31.5440 C   0  0  0  0  0  0  0  0  0  0  0  0
   -5.7490   16.8450  -32.0230 C   0  0  0  0  0  0  0  0  0  0  0  0
   -5.7400   16.7610  -33.5600 C   0  0  0  0  0  0  0  0  0  0  0  0
   -5.8270   18.1430  -34.2330 C   0  0  0  0  0  0  0  0  0  0  0  0
   -5.1690   19.2250  -33.3640 C   0  0  0  0  0  0  0  0  0  0  0  0
   -7.6707   23.4979  -31.8048 H   0  0  0  0  0  0  0  0  0  0  0  0
   -6.4216   25.5563  -31.1662 H   0  0  0  0  0  0  0  0  0  0  0  0
   -3.1070   25.6630  -29.7770 H   0  0  0  0  0  0  0  0  0  0  0  0
   -1.8859   23.6040  -31.2714 H   0  0  0  0  0  0  0  0  0  0  0  0
   -3.3340   20.4727  -32.5412 H   0  0  0  0  0  0  0  0  0  0  0  0
   -2.6199   19.9680  -34.8880 H   0  0  0  0  0  0  0  0  0  0  0  0
   -0.2596   20.4170  -35.5894 H   0  0  0  0  0  0  0  0  0  0  0  0
    1.3537   21.3735  -33.9334 H   0  0  0  0  0  0  0  0  0  0  0  0
    0.2891   27.1310  -28.1714 H   0  0  0  0  0  0  0  0  0  0  0  0
   -0.2320   27.9385  -25.8384 H   0  0  0  0  0  0  0  0  0  0  0  0
   -2.0228   26.8130  -24.4869 H   0  0  0  0  0  0  0  0  0  0  0  0
   -3.2985   24.8637  -25.4593 H   0  0  0  0  0  0  0  0  0  0  0  0
   -4.1083   21.1331  -31.1856 H   0  0  0  0  0  0  0  0  0  0  0  0
   -6.4860   18.1166  -30.4442 H   0  0  0  0  0  0  0  0  0  0  0  0
   -7.4860   18.1063  -31.9557 H   0  0  0  0  0  0  0  0  0  0  0  0
   -4.7115   16.8595  -31.6579 H   0  0  0  0  0  0  0  0  0  0  0  0
   -6.2855   15.9695  -31.6283 H   0  0  0  0  0  0  0  0  0  0  0  0
   -4.8079   16.2722  -33.8799 H   0  0  0  0  0  0  0  0  0  0  0  0
   -6.6272   16.1870  -33.8658 H   0  0  0  0  0  0  0  0  0  0  0  0
   -5.3137   18.1019  -35.2050 H   0  0  0  0  0  0  0  0  0  0  0  0
   -6.8882   18.4000  -34.3660 H   0  0  0  0  0  0  0  0  0  0  0  0
   -4.1035   18.9793  -33.2446 H   0  0  0  0  0  0  0  0  0  0  0  0
   -5.3123   20.1895  -33.8732 H   0  0  0  0  0  0  0  0  0  0  0  0
  1  2  2  0
  2  3  2  0
  2  4  1  0
  4  5  2  0
  5  6  1  0
  6  7  2  0
  7  8  1  0
  7  9  1  0
  9 10  1  0
 10 11  1  0
 11 12  1  0
 12 13  2  0
 13 14  1  0
 14 15  2  0
 15 16  1  0
 16 17  2  0
 10 18  1  0
 18 19  2  0
 19 20  1  0
 20 21  2  0
 21 22  1  0
 22 23  2  0
 23 24  1  0
 24 25  2  0
 25 26  1  0
  9 27  2  0
  2 28  1  0
 28 29  1  0
 29 30  1  0
 30 31  1  0
 31 32  1  0
 32 33  1  0
 27  4  1  0
 33 28  1  0
 17 12  1  0
 26 18  1  0
 25 20  1  0
  5 34  1  0
  6 35  1  0
  8 36  1  0
 10 37  1  6
 13 38  1  0
 14 39  1  0
 15 40  1  0
 16 41  1  0
 21 42  1  0
 22 43  1  0
 23 44  1  0
 24 45  1  0
 27 46  1  0
 29 47  1  0
 29 48  1  0
 30 49  1  0
 30 50  1  0
 31 51  1  0
 31 52  1  0
 32 53  1  0
 32 54  1  0
 33 55  1  0
 33 56  1  0
M  CHG  1  26  -1
M  END
>  <UniqueID>  (40) 
39

>  <SMILES>  (40) 
O=S(=O)(c1ccc(O)c([C@H](Sc2ccccn2)c2nc3ccccc3[n-]2)c1)N1CCCCC1

>  <Energy>  (40) 
97.7213431817219

>  <Genealogy>  (40) 
O=S(=O)(c1ccc(O)c(C(Sc2ccccn2)c2nc3ccccc3[n-]2)c1)N1CCCCC1 (protonated)
O=S(=O)(c1ccc(O)c([C@H](Sc2ccccn2)c2nc3ccccc3[n-]2)c1)N1CCCCC1 (chirality)
O=S(=O)(c1ccc(O)c([C@H](Sc2ccccn2)c2nc3ccccc3[n-]2)c1)N1CCCCC1 (3D coordinates assigned)
O=S(=O)(c1ccc(O)c([C@H](Sc2ccccn2)c2nc3ccccc3[n-]2)c1)N1CCCCC1 (nonaromatic ring conformer: 97.7213431817219 kcal/mol)

>  <smiles>  (40) 
O=S(=O)(c1ccc(O)c(C(Sc2ccccn2)c2nc3ccccc3[nH]2)c1)N1CCCCC1

>  <score_type>  (40) 
oracle

>  <origin>  (40) 
adgpu

>  <m_score__min__energy>  (40) 
-12.640000000000001

>  <m_primary>  (40) 
energy

$$$$
40:0
     RDKit          3D

 61 64  0  0  0  0  0  0  0  0999 V2000
   -6.1270   17.0030  -32.1440 C   0  0  0  0  0  0  0  0  0  0  0  0
   -6.5440   18.4120  -32.1000 N   0  0  0  0  0  0  0  0  0  0  0  0
   -6.3950   19.0370  -33.4270 C   0  0  0  0  0  0  0  0  0  0  0  0
   -6.5390   20.5550  -33.2850 C   0  0  0  0  0  0  0  0  0  0  0  0
   -7.4870   20.8960  -32.2130 N   0  0  0  0  0  0  0  0  0  0  0  0
   -7.6130   22.2650  -31.7870 C   0  0  0  0  0  0  0  0  0  0  0  0
   -8.7540   22.8060  -31.7750 O   0  0  0  0  0  0  0  0  0  0  0  0
   -6.4340   23.0450  -31.3420 C   0  0  0  0  0  0  0  0  0  0  0  0
   -6.5010   24.4460  -31.2650 C   0  0  0  0  0  0  0  0  0  0  0  0
   -5.3970   25.1830  -30.8300 C   0  0  0  0  0  0  0  0  0  0  0  0
   -4.2110   24.5340  -30.4750 C   0  0  0  0  0  0  0  0  0  0  0  0
   -3.1220   25.2930  -30.0590 O   0  0  0  0  0  0  0  0  0  0  0  0
   -4.1210   23.1320  -30.5460 C   0  0  0  0  0  0  0  0  0  0  0  0
   -2.8920   22.4740  -30.1920 N   0  0  0  0  0  0  0  0  0  0  0  0
   -2.5060   20.8570  -30.6870 S   0  0  0  0  0  0  0  0  0  0  0  0
   -3.7710   20.1060  -31.0020 O   0  0  0  0  0  0  0  0  0  0  0  0
   -1.7690   20.1430  -29.5880 O   0  0  0  0  0  0  0  0  0  0  0  0
   -1.4930   20.9240  -32.1260 C   0  0  0  0  0  0  0  0  0  0  0  0
   -0.1090   21.1150  -32.0140 C   0  0  0  0  0  0  0  0  0  0  0  0
    0.6890   21.1610  -33.1620 C   0  0  0  0  0  0  0  0  0  0  0  0
    0.1120   21.0160  -34.4310 C   0  0  0  0  0  0  0  0  0  0  0  0
    1.1190   21.0840  -35.8830 S   0  0  0  0  0  0  0  0  0  0  0  0
    2.4560   20.4680  -35.5790 O   0  0  0  0  0  0  0  0  0  0  0  0
    0.4690   20.2710  -36.9690 O   0  0  0  0  0  0  0  0  0  0  0  0
    1.3630   22.7140  -36.4630 N   0  0  0  0  0  0  0  0  0  0  0  0
    0.2580   23.5950  -36.0990 C   0  0  0  0  0  0  0  0  0  0  0  0
    0.8230   25.0040  -36.0940 C   0  0  0  0  0  0  0  0  0  0  0  0
    2.3150   24.8300  -35.8610 C   0  0  0  0  0  0  0  0  0  0  0  0
    2.5620   23.3270  -35.8930 C   0  0  0  0  0  0  0  0  0  0  0  0
   -1.2690   20.7990  -34.5390 C   0  0  0  0  0  0  0  0  0  0  0  0
   -2.0670   20.7560  -33.3930 C   0  0  0  0  0  0  0  0  0  0  0  0
   -5.2490   22.3960  -30.9560 C   0  0  0  0  0  0  0  0  0  0  0  0
   -8.5320   19.9310  -31.8470 C   0  0  0  0  0  0  0  0  0  0  0  0
   -7.9420   18.5200  -31.6270 C   0  0  0  0  0  0  0  0  0  0  0  0
   -6.0142   16.6218  -31.1183 H   0  0  0  0  0  0  0  0  0  0  0  0
   -6.8886   16.4116  -32.6733 H   0  0  0  0  0  0  0  0  0  0  0  0
   -5.1662   16.9213  -32.6733 H   0  0  0  0  0  0  0  0  0  0  0  0
   -5.4028   18.7979  -33.8374 H   0  0  0  0  0  0  0  0  0  0  0  0
   -7.1702   18.6532  -34.1065 H   0  0  0  0  0  0  0  0  0  0  0  0
   -5.5564   20.9891  -33.0480 H   0  0  0  0  0  0  0  0  0  0  0  0
   -6.9208   20.9613  -34.2332 H   0  0  0  0  0  0  0  0  0  0  0  0
   -7.4280   24.9656  -31.5488 H   0  0  0  0  0  0  0  0  0  0  0  0
   -5.4613   26.2793  -30.7665 H   0  0  0  0  0  0  0  0  0  0  0  0
   -2.1270   23.0200  -29.7320 H   0  0  0  0  0  0  0  0  0  0  0  0
    0.3507   21.2290  -31.0212 H   0  0  0  0  0  0  0  0  0  0  0  0
    1.7746   21.3117  -33.0683 H   0  0  0  0  0  0  0  0  0  0  0  0
   -0.5541   23.5125  -36.8363 H   0  0  0  0  0  0  0  0  0  0  0  0
   -0.1608   23.3278  -35.1176 H   0  0  0  0  0  0  0  0  0  0  0  0
    0.6377   25.4981  -37.0592 H   0  0  0  0  0  0  0  0  0  0  0  0
    0.3554   25.6334  -35.3225 H   0  0  0  0  0  0  0  0  0  0  0  0
    2.8886   25.3304  -36.6551 H   0  0  0  0  0  0  0  0  0  0  0  0
    2.6324   25.2745  -34.9062 H   0  0  0  0  0  0  0  0  0  0  0  0
    3.4375   23.1003  -36.5192 H   0  0  0  0  0  0  0  0  0  0  0  0
    2.7623   22.9383  -34.8837 H   0  0  0  0  0  0  0  0  0  0  0  0
   -1.7261   20.6620  -35.5301 H   0  0  0  0  0  0  0  0  0  0  0  0
   -3.1504   20.5896  -33.4858 H   0  0  0  0  0  0  0  0  0  0  0  0
   -5.2020   21.2972  -30.9744 H   0  0  0  0  0  0  0  0  0  0  0  0
   -9.0183   20.2647  -30.9185 H   0  0  0  0  0  0  0  0  0  0  0  0
   -9.2594   19.8783  -32.6705 H   0  0  0  0  0  0  0  0  0  0  0  0
   -7.9698   18.2894  -30.5518 H   0  0  0  0  0  0  0  0  0  0  0  0
   -8.5480   17.8092  -32.2080 H   0  0  0  0  0  0  0  0  0  0  0  0
  1  2  1  0
  2  3  1  0
  3  4  1  0
  4  5  1  0
  5  6  1  0
  6  7  2  0
  6  8  1  0
  8  9  2  0
  9 10  1  0
 10 11  2  0
 11 12  1  0
 11 13  1  0
 13 14  1  0
 14 15  1  0
 15 16  2  0
 15 17  2  0
 15 18  1  0
 18 19  2  0
 19 20  1  0
 20 21  2  0
 21 22  1  0
 22 23  2  0
 22 24  2  0
 22 25  1  0
 25 26  1  0
 26 27  1  0
 27 28  1  0
 28 29  1  0
 21 30  1  0
 30 31  2  0
 13 32  2  0
  5 33  1  0
 33 34  1  0
 34  2  1  0
 32  8  1  0
 31 18  1  0
 29 25  1  0
  1 35  1  0
  1 36  1  0
  1 37  1  0
  3 38  1  0
  3 39  1  0
  4 40  1  0
  4 41  1  0
  9 42  1  0
 10 43  1  0
 14 44  1  0
 19 45  1  0
 20 46  1  0
 26 47  1  0
 26 48  1  0
 27 49  1  0
 27 50  1  0
 28 51  1  0
 28 52  1  0
 29 53  1  0
 29 54  1  0
 30 55  1  0
 31 56  1  0
 32 57  1  0
 33 58  1  0
 33 59  1  0
 34 60  1  0
 34 61  1  0
M  CHG  1  12  -1
M  END
>  <UniqueID>  (41) 
40

>  <SMILES>  (41) 
CN1CCN(C(=O)c2ccc([O-])c(NS(=O)(=O)c3ccc(S(=O)(=O)N4CCCC4)cc3)c2)CC1

>  <Energy>  (41) 
77.62260442584083

>  <Genealogy>  (41) 
CN1CCN(C(=O)c2ccc([O-])c(NS(=O)(=O)c3ccc(S(=O)(=O)N4CCCC4)cc3)c2)CC1 (protonated)
CN1CCN(C(=O)c2ccc([O-])c(NS(=O)(=O)c3ccc(S(=O)(=O)N4CCCC4)cc3)c2)CC1 (3D coordinates assigned)
CN1CCN(C(=O)c2ccc([O-])c(NS(=O)(=O)c3ccc(S(=O)(=O)N4CCCC4)cc3)c2)CC1 (nonaromatic ring conformer: 77.62260442584083 kcal/mol)

>  <smiles>  (41) 
CN1CCN(C(=O)c2ccc(O)c(NS(=O)(=O)c3ccc(S(=O)(=O)N4CCCC4)cc3)c2)CC1

>  <score_type>  (41) 
oracle

>  <origin>  (41) 
adgpu

>  <m_score__min__energy>  (41) 
-14.949999999999999

>  <m_primary>  (41) 
energy

$$$$
41:0
     RDKit          3D

 37 39  0  0  0  0  0  0  0  0999 V2000
   -8.1170   18.1980  -32.1550 C   0  0  0  0  0  0  0  0  0  0  0  0
   -6.7740   18.5090  -32.3850 C   0  0  0  0  0  0  0  0  0  0  0  0
   -6.3650   19.8440  -32.4570 C   0  0  0  0  0  0  0  0  0  0  0  0
   -7.3010   20.8790  -32.2950 C   0  0  0  0  0  0  0  0  0  0  0  0
   -6.8650   22.3150  -32.4020 C   0  0  0  0  0  0  0  0  0  0  0  0
   -7.4290   23.2790  -30.9570 S   0  0  0  0  0  0  0  0  0  0  0  0
   -5.7880   23.8220  -30.4880 C   0  0  0  0  0  0  0  0  0  0  0  0
   -5.0460   24.6760  -31.2230 N   0  0  0  0  0  0  0  0  0  0  0  0
   -3.8640   24.9470  -30.6730 N   0  0  0  0  0  0  0  0  0  0  0  0
   -3.6640   24.3020  -29.5040 C   0  0  0  0  0  0  0  0  0  0  0  0
   -2.1840   24.4780  -28.5130 S   0  0  0  0  0  0  0  0  0  0  0  0
   -1.1940   23.2840  -29.4850 C   0  0  0  0  0  0  0  0  0  0  0  0
   -1.9150   21.9440  -29.6790 C   0  0  0  0  0  0  0  0  0  0  0  0
   -2.1070   21.6160  -31.1380 C   0  0  0  0  0  0  0  0  0  0  0  0
   -3.3630   21.7700  -31.7430 C   0  0  0  0  0  0  0  0  0  0  0  0
   -3.5110   21.4830  -33.1030 C   0  0  0  0  0  0  0  0  0  0  0  0
   -2.4430   21.0600  -33.8300 N   0  0  0  0  0  0  0  0  0  0  0  0
   -1.2140   20.9060  -33.2700 C   0  0  0  0  0  0  0  0  0  0  0  0
   -1.0220   21.1830  -31.9140 C   0  0  0  0  0  0  0  0  0  0  0  0
   -4.9880   23.3490  -29.0850 S   0  0  0  0  0  0  0  0  0  0  0  0
   -8.6500   20.5590  -32.0670 C   0  0  0  0  0  0  0  0  0  0  0  0
   -9.0540   19.2230  -31.9980 C   0  0  0  0  0  0  0  0  0  0  0  0
   -8.4364   17.1470  -32.0976 H   0  0  0  0  0  0  0  0  0  0  0  0
   -6.0372   17.7018  -32.5096 H   0  0  0  0  0  0  0  0  0  0  0  0
   -5.3075   20.0846  -32.6410 H   0  0  0  0  0  0  0  0  0  0  0  0
   -5.7670   22.3547  -32.4547 H   0  0  0  0  0  0  0  0  0  0  0  0
   -7.3100   22.7499  -33.3091 H   0  0  0  0  0  0  0  0  0  0  0  0
   -0.9869   23.7196  -30.4736 H   0  0  0  0  0  0  0  0  0  0  0  0
   -0.2663   23.0869  -28.9277 H   0  0  0  0  0  0  0  0  0  0  0  0
   -1.3178   21.1476  -29.2109 H   0  0  0  0  0  0  0  0  0  0  0  0
   -2.9084   22.0203  -29.2127 H   0  0  0  0  0  0  0  0  0  0  0  0
   -4.2246   22.1139  -31.1520 H   0  0  0  0  0  0  0  0  0  0  0  0
   -4.4926   21.5995  -33.5855 H   0  0  0  0  0  0  0  0  0  0  0  0
   -0.3693   20.5628  -33.8853 H   0  0  0  0  0  0  0  0  0  0  0  0
   -0.0279   21.0624  -31.4588 H   0  0  0  0  0  0  0  0  0  0  0  0
   -9.3906   21.3628  -31.9424 H   0  0  0  0  0  0  0  0  0  0  0  0
  -10.1114   18.9777  -31.8198 H   0  0  0  0  0  0  0  0  0  0  0  0
  1  2  2  0
  2  3  1  0
  3  4  2  0
  4  5  1  0
  5  6  1  0
  6  7  1  0
  7  8  2  0
  8  9  1  0
  9 10  2  0
 10 11  1  0
 11 12  1  0
 12 13  1  0
 13 14  1  0
 14 15  2  0
 15 16  1  0
 16 17  2  0
 17 18  1  0
 18 19  2  0
 10 20  1  0
  4 21  1  0
 21 22  2  0
 22  1  1  0
 20  7  1  0
 19 14  1  0
  1 23  1  0
  2 24  1  0
  3 25  1  0
  5 26  1  0
  5 27  1  0
 12 28  1  0
 12 29  1  0
 13 30  1  0
 13 31  1  0
 15 32  1  0
 16 33  1  0
 18 34  1  0
 19 35  1  0
 21 36  1  0
 22 37  1  0
M  END
>  <UniqueID>  (42) 
41

>  <SMILES>  (42) 
c1ccc(CSc2nnc(SCCc3ccncc3)s2)cc1

>  <Energy>  (42) 
64.02947728815624

>  <Genealogy>  (42) 
c1ccc(CSc2nnc(SCCc3ccncc3)s2)cc1 (3D coordinates assigned)
c1ccc(CSc2nnc(SCCc3ccncc3)s2)cc1 (optimized conformer: 64.02947728815624 kcal/mol)

>  <smiles>  (42) 
c1ccc(CSc2nnc(SCCc3ccncc3)s2)cc1

>  <score_type>  (42) 
oracle

>  <origin>  (42) 
adgpu

>  <m_score__min__energy>  (42) 
-8.6500000000000004

>  <m_primary>  (42) 
energy

$$$$
42:0
     RDKit          3D

 62 66  0  0  0  0  0  0  0  0999 V2000
    0.5940   17.2480  -27.8270 C   0  0  0  0  0  0  0  0  0  0  0  0
   -0.5700   17.9870  -27.4770 O   0  0  0  0  0  0  0  0  0  0  0  0
   -0.6810   19.3820  -27.5740 C   0  0  0  0  0  0  0  0  0  0  0  0
   -1.6940   20.1070  -26.9160 C   0  0  0  0  0  0  0  0  0  0  0  0
   -1.7570   21.4970  -27.0440 C   0  0  0  0  0  0  0  0  0  0  0  0
   -0.8200   22.1820  -27.8300 C   0  0  0  0  0  0  0  0  0  0  0  0
   -0.9250   23.9300  -28.0230 S   0  0  0  0  0  0  0  0  0  0  0  0
    0.4480   24.5260  -27.8730 O   0  0  0  0  0  0  0  0  0  0  0  0
   -1.8040   24.5250  -26.9590 O   0  0  0  0  0  0  0  0  0  0  0  0
   -1.5200   24.3050  -29.6090 N   0  0  0  0  0  0  0  0  0  0  0  0
   -2.5940   23.6370  -30.2860 C   0  0  0  0  0  0  0  0  0  0  0  0
   -2.4990   22.2940  -30.6880 C   0  0  0  0  0  0  0  0  0  0  0  0
   -3.5620   21.6760  -31.3550 C   0  0  0  0  0  0  0  0  0  0  0  0
   -4.7290   22.4030  -31.6490 C   0  0  0  0  0  0  0  0  0  0  0  0
   -4.8300   23.7380  -31.2340 C   0  0  0  0  0  0  0  0  0  0  0  0
   -3.7770   24.3450  -30.5410 C   0  0  0  0  0  0  0  0  0  0  0  0
   -3.9100   25.6610  -30.1140 O   0  0  0  0  0  0  0  0  0  0  0  0
   -5.8440   21.7820  -32.4560 C   0  0  0  0  0  0  0  0  0  0  0  0
   -5.7120   20.2880  -32.6200 C   0  0  0  0  0  0  0  0  0  0  0  0
   -6.7720   19.5560  -33.1780 C   0  0  0  0  0  0  0  0  0  0  0  0
   -6.6560   18.1780  -33.3580 C   0  0  0  0  0  0  0  0  0  0  0  0
   -5.4800   17.5150  -32.9930 C   0  0  0  0  0  0  0  0  0  0  0  0
   -5.4030   15.7600  -33.1200 S   0  0  0  0  0  0  0  0  0  0  0  0
   -6.6150   15.2270  -33.8390 O   0  0  0  0  0  0  0  0  0  0  0  0
   -5.3610   15.1750  -31.7340 O   0  0  0  0  0  0  0  0  0  0  0  0
   -3.9590   15.3310  -34.0070 N   0  0  0  0  0  0  0  0  0  0  0  0
   -2.8190   15.1000  -33.0840 C   0  0  0  0  0  0  0  0  0  0  0  0
   -1.6390   16.0500  -33.3290 C   0  0  0  0  0  0  0  0  0  0  0  0
   -1.2110   15.9800  -34.7380 N   0  0  0  0  0  0  0  0  0  0  0  0
   -0.1670   16.9830  -35.0030 C   0  0  0  0  0  0  0  0  0  0  0  0
   -2.3310   16.0880  -35.7120 C   0  0  0  0  0  0  0  0  0  0  0  0
   -3.6920   16.3430  -35.0450 C   0  0  0  0  0  0  0  0  0  0  0  0
   -4.4090   18.2450  -32.4600 C   0  0  0  0  0  0  0  0  0  0  0  0
   -4.5240   19.6250  -32.2710 C   0  0  0  0  0  0  0  0  0  0  0  0
   -3.4600   20.3320  -31.7070 O   0  0  0  0  0  0  0  0  0  0  0  0
    0.1850   21.4610  -28.4850 C   0  0  0  0  0  0  0  0  0  0  0  0
    0.2540   20.0710  -28.3560 C   0  0  0  0  0  0  0  0  0  0  0  0
    1.1095   16.9207  -26.9120 H   0  0  0  0  0  0  0  0  0  0  0  0
    0.3049   16.3677  -28.4198 H   0  0  0  0  0  0  0  0  0  0  0  0
    1.2677   17.8841  -28.4198 H   0  0  0  0  0  0  0  0  0  0  0  0
   -2.4365   19.5780  -26.3005 H   0  0  0  0  0  0  0  0  0  0  0  0
   -2.5477   22.0579  -26.5242 H   0  0  0  0  0  0  0  0  0  0  0  0
   -1.5820   21.7244  -30.4767 H   0  0  0  0  0  0  0  0  0  0  0  0
   -5.7423   24.3117  -31.4544 H   0  0  0  0  0  0  0  0  0  0  0  0
   -6.7981   21.9933  -31.9509 H   0  0  0  0  0  0  0  0  0  0  0  0
   -5.7969   22.2222  -33.4630 H   0  0  0  0  0  0  0  0  0  0  0  0
   -7.6975   20.0713  -33.4744 H   0  0  0  0  0  0  0  0  0  0  0  0
   -7.4935   17.6098  -33.7891 H   0  0  0  0  0  0  0  0  0  0  0  0
   -3.1716   15.2399  -32.0515 H   0  0  0  0  0  0  0  0  0  0  0  0
   -2.4567   14.0768  -33.2626 H   0  0  0  0  0  0  0  0  0  0  0  0
   -1.9469   17.0795  -33.0938 H   0  0  0  0  0  0  0  0  0  0  0  0
   -0.7991   15.7517  -32.6843 H   0  0  0  0  0  0  0  0  0  0  0  0
    0.2277   17.3622  -34.0489 H   0  0  0  0  0  0  0  0  0  0  0  0
    0.6480   16.5205  -35.5791 H   0  0  0  0  0  0  0  0  0  0  0  0
   -0.5965   17.8159  -35.5791 H   0  0  0  0  0  0  0  0  0  0  0  0
   -2.1174   16.9198  -36.3994 H   0  0  0  0  0  0  0  0  0  0  0  0
   -2.4005   15.1243  -36.2379 H   0  0  0  0  0  0  0  0  0  0  0  0
   -3.6870   17.3415  -34.5835 H   0  0  0  0  0  0  0  0  0  0  0  0
   -4.4792   16.2816  -35.8108 H   0  0  0  0  0  0  0  0  0  0  0  0
   -3.4752   17.7304  -32.1896 H   0  0  0  0  0  0  0  0  0  0  0  0
    0.9239   21.9907  -29.1042 H   0  0  0  0  0  0  0  0  0  0  0  0
    1.0492   19.5139  -28.8730 H   0  0  0  0  0  0  0  0  0  0  0  0
  1  2  1  0
  2  3  1  0
  3  4  2  0
  4  5  1  0
  5  6  2  0
  6  7  1  0
  7  8  2  0
  7  9  2  0
  7 10  1  0
 10 11  1  0
 11 12  2  0
 12 13  1  0
 13 14  2  0
 14 15  1  0
 15 16  2  0
 16 17  1  0
 14 18  1  0
 18 19  1  0
 19 20  2  0
 20 21  1  0
 21 22  2  0
 22 23  1  0
 23 24  2  0
 23 25  2  0
 23 26  1  0
 26 27  1  0
 27 28  1  0
 28 29  1  0
 29 30  1  0
 29 31  1  0
 31 32  1  0
 22 33  1  0
 33 34  2  0
 34 35  1  0
  6 36  1  0
 36 37  2  0
 37  3  1  0
 16 11  1  0
 34 19  1  0
 35 13  1  0
 32 26  1  0
  1 38  1  0
  1 39  1  0
  1 40  1  0
  4 41  1  0
  5 42  1  0
 12 43  1  0
 15 44  1  0
 18 45  1  0
 18 46  1  0
 20 47  1  0
 21 48  1  0
 27 49  1  0
 27 50  1  0
 28 51  1  0
 28 52  1  0
 30 53  1  0
 30 54  1  0
 30 55  1  0
 31 56  1  0
 31 57  1  0
 32 58  1  0
 32 59  1  0
 33 60  1  0
 36 61  1  0
 37 62  1  0
M  CHG  2  10  -1  17  -1
M  END
>  <UniqueID>  (43) 
42

>  <SMILES>  (43) 
COc1ccc(S(=O)(=O)[N-]c2cc3c(cc2[O-])Cc2ccc(S(=O)(=O)N4CCN(C)CC4)cc2O3)cc1

>  <Energy>  (43) 
85.52711331646137

>  <Genealogy>  (43) 
COc1ccc(S(=O)(=O)[N-]c2cc3c(cc2[O-])Cc2ccc(S(=O)(=O)N4CCN(C)CC4)cc2O3)cc1 (protonated)
COc1ccc(S(=O)(=O)[N-]c2cc3c(cc2[O-])Cc2ccc(S(=O)(=O)N4CCN(C)CC4)cc2O3)cc1 (3D coordinates assigned)
COc1ccc(S(=O)(=O)[N-]c2cc3c(cc2[O-])Cc2ccc(S(=O)(=O)N4CCN(C)CC4)cc2O3)cc1 (nonaromatic ring conformer: 85.52711331646137 kcal/mol)

>  <smiles>  (43) 
COc1ccc(S(=O)(=O)Nc2cc3c(cc2O)Cc2ccc(S(=O)(=O)N4CCN(C)CC4)cc2O3)cc1

>  <score_type>  (43) 
oracle

>  <origin>  (43) 
adgpu

>  <m_score__min__energy>  (43) 
-13.07

>  <m_primary>  (43) 
energy

$$$$
43:0
     RDKit          3D

 39 41  0  0  0  0  0  0  0  0999 V2000
   -4.4090   21.2290  -32.8230 C   0  0  0  0  0  0  0  0  0  0  0  0
   -5.4020   20.5550  -33.5900 O   0  0  0  0  0  0  0  0  0  0  0  0
   -6.4030   19.7300  -33.0490 C   0  0  0  0  0  0  0  0  0  0  0  0
   -6.3360   18.3240  -33.1390 C   0  0  0  0  0  0  0  0  0  0  0  0
   -7.3510   17.5330  -32.5970 C   0  0  0  0  0  0  0  0  0  0  0  0
   -8.4410   18.1280  -31.9630 C   0  0  0  0  0  0  0  0  0  0  0  0
   -8.5200   19.5180  -31.8650 C   0  0  0  0  0  0  0  0  0  0  0  0
   -7.5040   20.3280  -32.4020 C   0  0  0  0  0  0  0  0  0  0  0  0
   -7.6110   21.8290  -32.3040 C   0  0  0  0  0  0  0  0  0  0  0  0
   -6.9760   22.3020  -31.0790 N   0  0  0  0  0  0  0  0  0  0  0  0
   -6.6710   23.6780  -30.8260 C   0  0  0  0  0  0  0  0  0  0  0  0
   -7.5760   24.5530  -30.8830 O   0  0  0  0  0  0  0  0  0  0  0  0
   -5.2960   24.0740  -30.5020 C   0  0  0  0  0  0  0  0  0  0  0  0
   -4.3860   23.3330  -29.7780 C   0  0  0  0  0  0  0  0  0  0  0  0
   -3.2550   24.1290  -29.7490 C   0  0  0  0  0  0  0  0  0  0  0  0
   -1.9690   23.8370  -29.0680 C   0  0  0  0  0  0  0  0  0  0  0  0
   -1.6270   22.4970  -28.8080 C   0  0  0  0  0  0  0  0  0  0  0  0
   -0.4200   22.1800  -28.1790 C   0  0  0  0  0  0  0  0  0  0  0  0
    0.4580   23.1950  -27.7960 C   0  0  0  0  0  0  0  0  0  0  0  0
    0.1260   24.5290  -28.0320 C   0  0  0  0  0  0  0  0  0  0  0  0
   -1.0850   24.8620  -28.6570 C   0  0  0  0  0  0  0  0  0  0  0  0
   -1.4150   26.2040  -28.8420 O   0  0  0  0  0  0  0  0  0  0  0  0
   -3.5020   25.2780  -30.4100 N   0  0  0  0  0  0  0  0  0  0  0  0
   -4.7410   25.2430  -30.8730 N   0  0  0  0  0  0  0  0  0  0  0  0
   -4.6155   21.0889  -31.7517 H   0  0  0  0  0  0  0  0  0  0  0  0
   -3.4179   20.8162  -33.0625 H   0  0  0  0  0  0  0  0  0  0  0  0
   -4.4267   22.3025  -33.0625 H   0  0  0  0  0  0  0  0  0  0  0  0
   -5.4795   17.8481  -33.6389 H   0  0  0  0  0  0  0  0  0  0  0  0
   -7.2905   16.4371  -32.6704 H   0  0  0  0  0  0  0  0  0  0  0  0
   -9.2396   17.5012  -31.5396 H   0  0  0  0  0  0  0  0  0  0  0  0
   -9.3824   19.9826  -31.3646 H   0  0  0  0  0  0  0  0  0  0  0  0
   -7.1121   22.2859  -33.1713 H   0  0  0  0  0  0  0  0  0  0  0  0
   -8.6738   22.1121  -32.2889 H   0  0  0  0  0  0  0  0  0  0  0  0
   -4.5268   22.3393  -29.3278 H   0  0  0  0  0  0  0  0  0  0  0  0
   -2.3160   21.6917  -29.1025 H   0  0  0  0  0  0  0  0  0  0  0  0
   -0.1615   21.1285  -27.9854 H   0  0  0  0  0  0  0  0  0  0  0  0
    1.4113   22.9431  -27.3083 H   0  0  0  0  0  0  0  0  0  0  0  0
    0.8192   25.3262  -27.7256 H   0  0  0  0  0  0  0  0  0  0  0  0
   -2.3750   26.5050  -28.9650 H   0  0  0  0  0  0  0  0  0  0  0  0
  1  2  1  0
  2  3  1  0
  3  4  2  0
  4  5  1  0
  5  6  2  0
  6  7  1  0
  7  8  2  0
  8  9  1  0
  9 10  1  0
 10 11  1  0
 11 12  2  0
 11 13  1  0
 13 14  1  0
 14 15  2  0
 15 16  1  0
 16 17  2  0
 17 18  1  0
 18 19  2  0
 19 20  1  0
 20 21  2  0
 21 22  1  0
 15 23  1  0
 23 24  1  0
  8  3  1  0
 24 13  2  0
 21 16  1  0
  1 25  1  0
  1 26  1  0
  1 27  1  0
  4 28  1  0
  5 29  1  0
  6 30  1  0
  7 31  1  0
  9 32  1  0
  9 33  1  0
 14 34  1  0
 17 35  1  0
 18 36  1  0
 19 37  1  0
 20 38  1  0
 22 39  1  0
M  CHG  2  10  -1  23  -1
M  END
>  <UniqueID>  (44) 
43

>  <SMILES>  (44) 
COc1ccccc1C[N-]C(=O)c1cc(-c2ccccc2O)[n-]n1

>  <Energy>  (44) 
70.90733594463819

>  <Genealogy>  (44) 
COc1ccccc1C[N-]C(=O)c1cc(-c2ccccc2O)[n-]n1 (protonated)
COc1ccccc1C[N-]C(=O)c1cc(-c2ccccc2O)[n-]n1 (3D coordinates assigned)
COc1ccccc1C[N-]C(=O)c1cc(-c2ccccc2O)[n-]n1 (optimized conformer: 70.90733594463819 kcal/mol)

>  <smiles>  (44) 
COc1ccccc1CNC(=O)c1cc(-c2ccccc2O)[nH]n1

>  <score_type>  (44) 
oracle

>  <origin>  (44) 
adgpu

>  <m_score__min__energy>  (44) 
-11.199999999999999

>  <m_primary>  (44) 
energy

$$$$
44:0
     RDKit          3D

 50 53  0  0  0  0  0  0  0  0999 V2000
    0.0580   17.2600  -28.1790 O   0  0  0  0  0  0  0  0  0  0  0  0
   -0.4820   18.3970  -28.1330 C   0  0  0  0  0  0  0  0  0  0  0  0
   -1.3070   18.7380  -27.0570 C   0  0  0  0  0  0  0  0  0  0  0  0
   -1.8990   20.0020  -27.0180 C   0  0  0  0  0  0  0  0  0  0  0  0
   -1.6590   20.9160  -28.0530 C   0  0  0  0  0  0  0  0  0  0  0  0
   -2.2100   22.2030  -28.0290 C   0  0  0  0  0  0  0  0  0  0  0  0
   -1.9230   23.1110  -29.0560 C   0  0  0  0  0  0  0  0  0  0  0  0
   -2.5760   24.7440  -28.9770 S   0  0  0  0  0  0  0  0  0  0  0  0
   -1.4390   25.7280  -28.9100 O   0  0  0  0  0  0  0  0  0  0  0  0
   -3.4470   24.9140  -27.7610 O   0  0  0  0  0  0  0  0  0  0  0  0
   -3.5030   25.0350  -30.4090 N   0  0  0  0  0  0  0  0  0  0  0  0
   -4.5280   24.1370  -30.8400 C   0  0  0  0  0  0  0  0  0  0  0  0
   -5.8810   24.4250  -30.6140 C   0  0  0  0  0  0  0  0  0  0  0  0
   -6.8680   23.5390  -31.0540 C   0  0  0  0  0  0  0  0  0  0  0  0
   -6.5090   22.3560  -31.7070 C   0  0  0  0  0  0  0  0  0  0  0  0
   -5.1580   22.0520  -31.9210 C   0  0  0  0  0  0  0  0  0  0  0  0
   -4.6970   20.5350  -32.7010 S   0  0  0  0  0  0  0  0  0  0  0  0
   -3.9620   19.6760  -31.7090 O   0  0  0  0  0  0  0  0  0  0  0  0
   -3.7600   20.8340  -33.8390 O   0  0  0  0  0  0  0  0  0  0  0  0
   -6.0920   19.6550  -33.2920 N   0  0  0  0  0  0  0  0  0  0  0  0
   -5.7430   18.8110  -34.4680 C   0  0  0  0  0  0  0  0  0  0  0  0
   -5.5720   17.3260  -34.1110 C   0  0  0  0  0  0  0  0  0  0  0  0
   -6.8520   16.7500  -33.4800 C   0  0  0  0  0  0  0  0  0  0  0  0
   -7.6550   17.8040  -32.7000 C   0  0  0  0  0  0  0  0  0  0  0  0
   -6.7390   18.9170  -32.1790 C   0  0  0  0  0  0  0  0  0  0  0  0
   -4.1720   22.9570  -31.5020 C   0  0  0  0  0  0  0  0  0  0  0  0
   -1.0990   22.7210  -30.1220 C   0  0  0  0  0  0  0  0  0  0  0  0
   -0.5500   21.4340  -30.1560 C   0  0  0  0  0  0  0  0  0  0  0  0
   -0.8170   20.5320  -29.1220 C   0  0  0  0  0  0  0  0  0  0  0  0
   -0.2570   19.2920  -29.1330 N   0  0  0  0  0  0  0  0  0  0  0  0
   -1.4884   18.0159  -26.2472 H   0  0  0  0  0  0  0  0  0  0  0  0
   -2.5519   20.2796  -26.1773 H   0  0  0  0  0  0  0  0  0  0  0  0
   -2.8701   22.5017  -27.2013 H   0  0  0  0  0  0  0  0  0  0  0  0
   -6.1661   25.3491  -30.0899 H   0  0  0  0  0  0  0  0  0  0  0  0
   -7.9297   23.7728  -30.8862 H   0  0  0  0  0  0  0  0  0  0  0  0
   -7.2891   21.6622  -32.0536 H   0  0  0  0  0  0  0  0  0  0  0  0
   -6.7720   20.3820  -33.6180 H   0  0  0  0  0  0  0  0  0  0  0  0
   -6.5451   18.9019  -35.2152 H   0  0  0  0  0  0  0  0  0  0  0  0
   -4.7782   19.1696  -34.8560 H   0  0  0  0  0  0  0  0  0  0  0  0
   -5.3391   16.7622  -35.0264 H   0  0  0  0  0  0  0  0  0  0  0  0
   -4.7550   17.2372  -33.3798 H   0  0  0  0  0  0  0  0  0  0  0  0
   -7.4878   16.3450  -34.2811 H   0  0  0  0  0  0  0  0  0  0  0  0
   -6.5487   15.9689  -32.7674 H   0  0  0  0  0  0  0  0  0  0  0  0
   -8.4129   18.2436  -33.3651 H   0  0  0  0  0  0  0  0  0  0  0  0
   -8.1349   17.3136  -31.8402 H   0  0  0  0  0  0  0  0  0  0  0  0
   -7.3368   19.6220  -31.5826 H   0  0  0  0  0  0  0  0  0  0  0  0
   -5.9503   18.4561  -31.5662 H   0  0  0  0  0  0  0  0  0  0  0  0
   -3.1115   22.7376  -31.6952 H   0  0  0  0  0  0  0  0  0  0  0  0
   -0.8833   23.4299  -30.9350 H   0  0  0  0  0  0  0  0  0  0  0  0
    0.0919   21.1322  -30.9968 H   0  0  0  0  0  0  0  0  0  0  0  0
  1  2  2  0
  2  3  1  0
  3  4  2  0
  4  5  1  0
  5  6  2  0
  6  7  1  0
  7  8  1  0
  8  9  2  0
  8 10  2  0
  8 11  1  0
 11 12  1  0
 12 13  2  0
 13 14  1  0
 14 15  2  0
 15 16  1  0
 16 17  1  0
 17 18  2  0
 17 19  2  0
 17 20  1  0
 20 21  1  0
 21 22  1  0
 22 23  1  0
 23 24  1  0
 24 25  1  0
 16 26  2  0
  7 27  2  0
 27 28  1  0
 28 29  2  0
 29 30  1  0
 30  2  1  0
 29  5  1  0
 26 12  1  0
 25 20  1  0
  3 31  1  0
  4 32  1  0
  6 33  1  0
 13 34  1  0
 14 35  1  0
 15 36  1  0
 20 37  1  0
 21 38  1  0
 21 39  1  0
 22 40  1  0
 22 41  1  0
 23 42  1  0
 23 43  1  0
 24 44  1  0
 24 45  1  0
 25 46  1  0
 25 47  1  0
 26 48  1  0
 27 49  1  0
 28 50  1  0
M  CHG  3  11  -1  20   1  30  -1
M  END
>  <UniqueID>  (45) 
44

>  <SMILES>  (45) 
O=c1ccc2cc(S(=O)(=O)[N-]c3cccc(S(=O)(=O)[NH+]4CCCCC4)c3)ccc2[n-]1

>  <Energy>  (45) 
65.31898815487403

>  <Genealogy>  (45) 
O=c1ccc2cc(S(=O)(=O)[N-]c3cccc(S(=O)(=O)[NH+]4CCCCC4)c3)ccc2[n-]1 (protonated)
O=c1ccc2cc(S(=O)(=O)[N-]c3cccc(S(=O)(=O)[NH+]4CCCCC4)c3)ccc2[n-]1 (3D coordinates assigned)
O=c1ccc2cc(S(=O)(=O)[N-]c3cccc(S(=O)(=O)[NH+]4CCCCC4)c3)ccc2[n-]1 (nonaromatic ring conformer: 65.31898815487403 kcal/mol)

>  <smiles>  (45) 
O=c1ccc2cc(S(=O)(=O)Nc3cccc(S(=O)(=O)N4CCCCC4)c3)ccc2[nH]1

>  <score_type>  (45) 
oracle

>  <origin>  (45) 
adgpu

>  <m_score__min__energy>  (45) 
-11.15

>  <m_primary>  (45) 
energy

$$$$
45:0
     RDKit          3D

 47 49  0  0  0  0  0  0  0  0999 V2000
   -1.3720   25.1600  -29.1500 O   0  0  0  0  0  0  0  0  0  0  0  0
   -2.6000   24.9210  -29.0080 C   0  0  0  0  0  0  0  0  0  0  0  0
   -3.0670   24.2490  -27.7400 C   0  0  0  0  0  0  0  0  0  0  0  0
   -2.5440   22.8400  -27.6110 C   0  0  0  0  0  0  0  0  0  0  0  0
   -1.3660   22.5830  -26.8880 C   0  0  0  0  0  0  0  0  0  0  0  0
   -0.8710   21.2780  -26.7860 C   0  0  0  0  0  0  0  0  0  0  0  0
   -1.5510   20.2230  -27.3990 C   0  0  0  0  0  0  0  0  0  0  0  0
   -2.7300   20.4670  -28.1050 C   0  0  0  0  0  0  0  0  0  0  0  0
   -3.2340   21.7670  -28.2030 C   0  0  0  0  0  0  0  0  0  0  0  0
   -3.4950   25.2670  -30.0770 N   0  0  0  0  0  0  0  0  0  0  0  0
   -4.5660   24.4590  -30.5780 C   0  0  0  0  0  0  0  0  0  0  0  0
   -5.8780   24.9370  -30.4910 C   0  0  0  0  0  0  0  0  0  0  0  0
   -6.9390   24.1740  -30.9870 C   0  0  0  0  0  0  0  0  0  0  0  0
   -6.6950   22.9230  -31.5600 C   0  0  0  0  0  0  0  0  0  0  0  0
   -5.3890   22.4240  -31.6290 C   0  0  0  0  0  0  0  0  0  0  0  0
   -5.0920   20.8380  -32.3370 S   0  0  0  0  0  0  0  0  0  0  0  0
   -4.7960   19.8470  -31.2450 O   0  0  0  0  0  0  0  0  0  0  0  0
   -3.8890   20.9320  -33.2340 O   0  0  0  0  0  0  0  0  0  0  0  0
   -6.4990   20.3420  -33.2570 N   0  0  0  0  0  0  0  0  0  0  0  0
   -6.1660   19.2550  -34.2050 C   0  0  0  0  0  0  0  0  0  0  0  0
   -5.9340   17.9000  -33.5100 C   0  0  0  0  0  0  0  0  0  0  0  0
   -6.9200   17.6340  -32.3570 C   0  0  0  0  0  0  0  0  0  0  0  0
   -8.1200   18.5760  -32.4050 C   0  0  0  0  0  0  0  0  0  0  0  0
   -7.6590   20.0440  -32.3680 C   0  0  0  0  0  0  0  0  0  0  0  0
   -4.3280   23.1850  -31.1180 C   0  0  0  0  0  0  0  0  0  0  0  0
   -2.7161   24.8365  -26.8787 H   0  0  0  0  0  0  0  0  0  0  0  0
   -4.1654   24.1980  -27.7718 H   0  0  0  0  0  0  0  0  0  0  0  0
   -0.8311   23.4113  -26.4004 H   0  0  0  0  0  0  0  0  0  0  0  0
    0.0537   21.0830  -26.2230 H   0  0  0  0  0  0  0  0  0  0  0  0
   -1.1568   19.1987  -27.3252 H   0  0  0  0  0  0  0  0  0  0  0  0
   -3.2640   19.6340  -28.5856 H   0  0  0  0  0  0  0  0  0  0  0  0
   -4.1733   21.9514  -28.7449 H   0  0  0  0  0  0  0  0  0  0  0  0
   -6.0752   25.9164  -30.0308 H   0  0  0  0  0  0  0  0  0  0  0  0
   -7.9677   24.5589  -30.9262 H   0  0  0  0  0  0  0  0  0  0  0  0
   -7.5311   22.3291  -31.9577 H   0  0  0  0  0  0  0  0  0  0  0  0
   -6.7550   21.1730  -33.8400 H   0  0  0  0  0  0  0  0  0  0  0  0
   -6.9962   19.1454  -34.9183 H   0  0  0  0  0  0  0  0  0  0  0  0
   -5.2272   19.5323  -34.7068 H   0  0  0  0  0  0  0  0  0  0  0  0
   -6.0452   17.1002  -34.2569 H   0  0  0  0  0  0  0  0  0  0  0  0
   -4.9229   17.9229  -33.0774 H   0  0  0  0  0  0  0  0  0  0  0  0
   -7.2792   16.5967  -32.4285 H   0  0  0  0  0  0  0  0  0  0  0  0
   -6.3897   17.8058  -31.4087 H   0  0  0  0  0  0  0  0  0  0  0  0
   -8.6829   18.3973  -33.3330 H   0  0  0  0  0  0  0  0  0  0  0  0
   -8.7575   18.3826  -31.5297 H   0  0  0  0  0  0  0  0  0  0  0  0
   -8.5027   20.6786  -32.6770 H   0  0  0  0  0  0  0  0  0  0  0  0
   -7.3290   20.2463  -31.3384 H   0  0  0  0  0  0  0  0  0  0  0  0
   -3.3047   22.7821  -31.1403 H   0  0  0  0  0  0  0  0  0  0  0  0
  1  2  2  0
  2  3  1  0
  3  4  1  0
  4  5  2  0
  5  6  1  0
  6  7  2  0
  7  8  1  0
  8  9  2  0
  2 10  1  0
 10 11  1  0
 11 12  2  0
 12 13  1  0
 13 14  2  0
 14 15  1  0
 15 16  1  0
 16 17  2  0
 16 18  2  0
 16 19  1  0
 19 20  1  0
 20 21  1  0
 21 22  1  0
 22 23  1  0
 23 24  1  0
 15 25  2  0
  9  4  1  0
 25 11  1  0
 24 19  1  0
  3 26  1  0
  3 27  1  0
  5 28  1  0
  6 29  1  0
  7 30  1  0
  8 31  1  0
  9 32  1  0
 12 33  1  0
 13 34  1  0
 14 35  1  0
 19 36  1  0
 20 37  1  0
 20 38  1  0
 21 39  1  0
 21 40  1  0
 22 41  1  0
 22 42  1  0
 23 43  1  0
 23 44  1  0
 24 45  1  0
 24 46  1  0
 25 47  1  0
M  CHG  2  10  -1  19   1
M  END
>  <UniqueID>  (46) 
45

>  <SMILES>  (46) 
O=C(Cc1ccccc1)[N-]c1cccc(S(=O)(=O)[NH+]2CCCCC2)c1

>  <Energy>  (46) 
57.41056365188388

>  <Genealogy>  (46) 
O=C(Cc1ccccc1)[N-]c1cccc(S(=O)(=O)[NH+]2CCCCC2)c1 (protonated)
O=C(Cc1ccccc1)[N-]c1cccc(S(=O)(=O)[NH+]2CCCCC2)c1 (3D coordinates assigned)
O=C(Cc1ccccc1)[N-]c1cccc(S(=O)(=O)[NH+]2CCCCC2)c1 (nonaromatic ring conformer: 57.41056365188388 kcal/mol)

>  <smiles>  (46) 
O=C(Cc1ccccc1)Nc1cccc(S(=O)(=O)N2CCCCC2)c1

>  <score_type>  (46) 
oracle

>  <origin>  (46) 
adgpu

>  <m_score__min__energy>  (46) 
-10.529999999999999

>  <m_primary>  (46) 
energy

$$$$
46:0
     RDKit          3D

 47 49  0  0  0  0  0  0  0  0999 V2000
   -4.8410   15.3920  -34.5430 C   0  0  0  0  0  0  0  0  0  0  0  0
   -6.1070   16.0490  -34.0750 C   0  0  0  0  0  0  0  0  0  0  0  0
   -7.2150   15.5240  -34.3890 O   0  0  0  0  0  0  0  0  0  0  0  0
   -6.0850   17.2630  -33.2980 N   0  0  0  0  0  0  0  0  0  0  0  0
   -7.2520   17.5880  -32.4630 C   0  0  0  0  0  0  0  0  0  0  0  0
   -6.9540   18.7390  -31.4980 C   0  0  0  0  0  0  0  0  0  0  0  0
   -6.3560   19.8590  -32.2300 N   0  0  0  0  0  0  0  0  0  0  0  0
   -6.9300   21.1720  -32.1020 C   0  0  0  0  0  0  0  0  0  0  0  0
   -8.1610   21.3240  -32.3340 O   0  0  0  0  0  0  0  0  0  0  0  0
   -6.1190   22.3380  -31.6760 C   0  0  0  0  0  0  0  0  0  0  0  0
   -6.7120   23.6100  -31.5730 C   0  0  0  0  0  0  0  0  0  0  0  0
   -5.9620   24.7100  -31.1500 C   0  0  0  0  0  0  0  0  0  0  0  0
   -4.6090   24.5560  -30.8340 C   0  0  0  0  0  0  0  0  0  0  0  0
   -3.8730   25.6680  -30.4300 O   0  0  0  0  0  0  0  0  0  0  0  0
   -3.9950   23.2960  -30.9280 C   0  0  0  0  0  0  0  0  0  0  0  0
   -2.5930   23.1950  -30.6290 N   0  0  0  0  0  0  0  0  0  0  0  0
   -1.8270   23.3250  -29.0740 S   0  0  0  0  0  0  0  0  0  0  0  0
   -2.5680   24.2880  -28.1860 O   0  0  0  0  0  0  0  0  0  0  0  0
   -0.4440   23.8670  -29.3000 O   0  0  0  0  0  0  0  0  0  0  0  0
   -1.7000   21.7420  -28.3020 C   0  0  0  0  0  0  0  0  0  0  0  0
   -0.4570   21.1020  -28.1830 C   0  0  0  0  0  0  0  0  0  0  0  0
   -0.3620   19.8580  -27.5480 C   0  0  0  0  0  0  0  0  0  0  0  0
   -1.5040   19.2540  -27.0150 C   0  0  0  0  0  0  0  0  0  0  0  0
   -2.7550   19.8830  -27.1270 C   0  0  0  0  0  0  0  0  0  0  0  0
   -2.8490   21.1220  -27.7740 C   0  0  0  0  0  0  0  0  0  0  0  0
   -4.7600   22.1830  -31.3330 C   0  0  0  0  0  0  0  0  0  0  0  0
   -5.3030   19.6110  -33.2300 C   0  0  0  0  0  0  0  0  0  0  0  0
   -4.8900   18.1290  -33.2610 C   0  0  0  0  0  0  0  0  0  0  0  0
   -4.2448   15.0826  -33.6719 H   0  0  0  0  0  0  0  0  0  0  0  0
   -5.0890   14.5088  -35.1500 H   0  0  0  0  0  0  0  0  0  0  0  0
   -4.2616   16.1032  -35.1500 H   0  0  0  0  0  0  0  0  0  0  0  0
   -8.0883   17.8777  -33.1162 H   0  0  0  0  0  0  0  0  0  0  0  0
   -7.5068   16.6985  -31.8681 H   0  0  0  0  0  0  0  0  0  0  0  0
   -7.8901   19.0704  -31.0248 H   0  0  0  0  0  0  0  0  0  0  0  0
   -6.2506   18.3928  -30.7263 H   0  0  0  0  0  0  0  0  0  0  0  0
   -7.7743   23.7391  -31.8275 H   0  0  0  0  0  0  0  0  0  0  0  0
   -6.4367   25.6987  -31.0655 H   0  0  0  0  0  0  0  0  0  0  0  0
    0.4463   21.5796  -28.5903 H   0  0  0  0  0  0  0  0  0  0  0  0
    0.6131   19.3551  -27.4684 H   0  0  0  0  0  0  0  0  0  0  0  0
   -1.4229   18.2823  -26.5058 H   0  0  0  0  0  0  0  0  0  0  0  0
   -3.6542   19.4062  -26.7098 H   0  0  0  0  0  0  0  0  0  0  0  0
   -3.8279   21.6144  -27.8704 H   0  0  0  0  0  0  0  0  0  0  0  0
   -4.2939   21.1878  -31.3817 H   0  0  0  0  0  0  0  0  0  0  0  0
   -5.6790   19.8978  -34.2232 H   0  0  0  0  0  0  0  0  0  0  0  0
   -4.4209   20.2087  -32.9567 H   0  0  0  0  0  0  0  0  0  0  0  0
   -4.2786   17.9417  -34.1561 H   0  0  0  0  0  0  0  0  0  0  0  0
   -4.3114   17.9005  -32.3538 H   0  0  0  0  0  0  0  0  0  0  0  0
  1  2  1  0
  2  3  2  0
  2  4  1  0
  4  5  1  0
  5  6  1  0
  6  7  1  0
  7  8  1  0
  8  9  2  0
  8 10  1  0
 10 11  2  0
 11 12  1  0
 12 13  2  0
 13 14  1  0
 13 15  1  0
 15 16  1  0
 16 17  1  0
 17 18  2  0
 17 19  2  0
 17 20  1  0
 20 21  2  0
 21 22  1  0
 22 23  2  0
 23 24  1  0
 24 25  2  0
 15 26  2  0
  7 27  1  0
 27 28  1  0
 28  4  1  0
 26 10  1  0
 25 20  1  0
  1 29  1  0
  1 30  1  0
  1 31  1  0
  5 32  1  0
  5 33  1  0
  6 34  1  0
  6 35  1  0
 11 36  1  0
 12 37  1  0
 21 38  1  0
 22 39  1  0
 23 40  1  0
 24 41  1  0
 25 42  1  0
 26 43  1  0
 27 44  1  0
 27 45  1  0
 28 46  1  0
 28 47  1  0
M  CHG  2  14  -1  16  -1
M  END
>  <UniqueID>  (47) 
46

>  <SMILES>  (47) 
CC(=O)N1CCN(C(=O)c2ccc([O-])c([N-]S(=O)(=O)c3ccccc3)c2)CC1

>  <Energy>  (47) 
58.93709284228039

>  <Genealogy>  (47) 
CC(=O)N1CCN(C(=O)c2ccc([O-])c([N-]S(=O)(=O)c3ccccc3)c2)CC1 (protonated)
CC(=O)N1CCN(C(=O)c2ccc([O-])c([N-]S(=O)(=O)c3ccccc3)c2)CC1 (3D coordinates assigned)
CC(=O)N1CCN(C(=O)c2ccc([O-])c([N-]S(=O)(=O)c3ccccc3)c2)CC1 (nonaromatic ring conformer: 58.93709284228039 kcal/mol)

>  <smiles>  (47) 
CC(=O)N1CCN(C(=O)c2ccc(O)c(NS(=O)(=O)c3ccccc3)c2)CC1

>  <score_type>  (47) 
oracle

>  <origin>  (47) 
adgpu

>  <m_score__min__energy>  (47) 
-13.01

>  <m_primary>  (47) 
energy

$$$$
47:0
     RDKit          3D

 45 48  0  0  0  0  0  0  0  0999 V2000
   -6.4860   25.2240  -29.3760 C   0  0  0  0  0  0  0  0  0  0  0  0
   -5.9450   24.2180  -30.3470 C   0  0  0  0  0  0  0  0  0  0  0  0
   -4.6820   24.2300  -30.9230 C   0  0  0  0  0  0  0  0  0  0  0  0
   -3.5560   24.9800  -30.4670 N   0  0  0  0  0  0  0  0  0  0  0  0
   -2.7320   24.5350  -29.0080 S   0  0  0  0  0  0  0  0  0  0  0  0
   -1.6260   25.5140  -28.7360 O   0  0  0  0  0  0  0  0  0  0  0  0
   -3.7010   24.5540  -27.8590 O   0  0  0  0  0  0  0  0  0  0  0  0
   -2.0390   22.9240  -29.2010 C   0  0  0  0  0  0  0  0  0  0  0  0
   -1.2280   22.6230  -30.3030 C   0  0  0  0  0  0  0  0  0  0  0  0
   -0.5640   21.3960  -30.3770 C   0  0  0  0  0  0  0  0  0  0  0  0
   -0.6960   20.4570  -29.3430 C   0  0  0  0  0  0  0  0  0  0  0  0
   -0.0220   19.2740  -29.3900 N   0  0  0  0  0  0  0  0  0  0  0  0
   -0.1320   18.3680  -28.3810 C   0  0  0  0  0  0  0  0  0  0  0  0
    0.5000   17.2800  -28.4350 O   0  0  0  0  0  0  0  0  0  0  0  0
   -0.9220   18.6320  -27.3090 N   0  0  0  0  0  0  0  0  0  0  0  0
   -1.6170   19.7940  -27.2110 C   0  0  0  0  0  0  0  0  0  0  0  0
   -2.3340   20.0010  -26.1950 O   0  0  0  0  0  0  0  0  0  0  0  0
   -1.5240   20.7490  -28.2370 C   0  0  0  0  0  0  0  0  0  0  0  0
   -2.2020   21.9790  -28.1790 C   0  0  0  0  0  0  0  0  0  0  0  0
   -4.6090   23.0460  -31.6210 C   0  0  0  0  0  0  0  0  0  0  0  0
   -3.5820   22.6000  -32.1990 O   0  0  0  0  0  0  0  0  0  0  0  0
   -5.7700   22.3720  -31.4990 N   0  0  0  0  0  0  0  0  0  0  0  0
   -5.9950   21.0230  -31.9460 C   0  0  0  0  0  0  0  0  0  0  0  0
   -5.0850   20.0090  -31.6100 C   0  0  0  0  0  0  0  0  0  0  0  0
   -5.3240   18.6900  -32.0060 C   0  0  0  0  0  0  0  0  0  0  0  0
   -6.4780   18.3730  -32.7290 C   0  0  0  0  0  0  0  0  0  0  0  0
   -7.3960   19.3760  -33.0550 C   0  0  0  0  0  0  0  0  0  0  0  0
   -7.1570   20.6970  -32.6640 C   0  0  0  0  0  0  0  0  0  0  0  0
   -6.5900   23.0910  -30.7360 N   0  0  0  0  0  0  0  0  0  0  0  0
   -7.9230   22.6750  -30.2950 C   0  0  0  0  0  0  0  0  0  0  0  0
   -6.3002   24.8785  -28.3483 H   0  0  0  0  0  0  0  0  0  0  0  0
   -5.9864   26.1912  -29.5336 H   0  0  0  0  0  0  0  0  0  0  0  0
   -7.5684   25.3405  -29.5336 H   0  0  0  0  0  0  0  0  0  0  0  0
   -1.1134   23.3568  -31.1145 H   0  0  0  0  0  0  0  0  0  0  0  0
    0.0648   21.1652  -31.2495 H   0  0  0  0  0  0  0  0  0  0  0  0
    0.5950   19.0540  -30.2060 H   0  0  0  0  0  0  0  0  0  0  0  0
   -2.8630   22.2006  -27.3282 H   0  0  0  0  0  0  0  0  0  0  0  0
   -4.1807   20.2529  -31.0331 H   0  0  0  0  0  0  0  0  0  0  0  0
   -4.6031   17.9001  -31.7484 H   0  0  0  0  0  0  0  0  0  0  0  0
   -6.6636   17.3347  -33.0413 H   0  0  0  0  0  0  0  0  0  0  0  0
   -8.3065   19.1258  -33.6192 H   0  0  0  0  0  0  0  0  0  0  0  0
   -7.8819   21.4838  -32.9198 H   0  0  0  0  0  0  0  0  0  0  0  0
   -7.9586   22.6639  -29.1956 H   0  0  0  0  0  0  0  0  0  0  0  0
   -8.6734   23.3817  -30.6791 H   0  0  0  0  0  0  0  0  0  0  0  0
   -8.1383   21.6670  -30.6791 H   0  0  0  0  0  0  0  0  0  0  0  0
  1  2  1  0
  2  3  2  0
  3  4  1  0
  4  5  1  0
  5  6  2  0
  5  7  2  0
  5  8  1  0
  8  9  2  0
  9 10  1  0
 10 11  2  0
 11 12  1  0
 12 13  1  0
 13 14  2  0
 13 15  1  0
 15 16  1  0
 16 17  2  0
 16 18  1  0
 18 19  2  0
  3 20  1  0
 20 21  2  0
 20 22  1  0
 22 23  1  0
 23 24  2  0
 24 25  1  0
 25 26  2  0
 26 27  1  0
 27 28  2  0
 22 29  1  0
 29 30  1  0
 29  2  1  0
 19  8  1  0
 28 23  1  0
 18 11  1  0
  1 31  1  0
  1 32  1  0
  1 33  1  0
  9 34  1  0
 10 35  1  0
 12 36  1  0
 19 37  1  0
 24 38  1  0
 25 39  1  0
 26 40  1  0
 27 41  1  0
 28 42  1  0
 30 43  1  0
 30 44  1  0
 30 45  1  0
M  CHG  2   4  -1  15  -1
M  END
>  <UniqueID>  (48) 
47

>  <SMILES>  (48) 
Cc1c([N-]S(=O)(=O)c2ccc3[nH]c(=O)[n-]c(=O)c3c2)c(=O)n(-c2ccccc2)n1C

>  <Energy>  (48) 
100.85802250815522

>  <Genealogy>  (48) 
Cc1c([N-]S(=O)(=O)c2ccc3[nH]c(=O)[n-]c(=O)c3c2)c(=O)n(-c2ccccc2)n1C (protonated)
Cc1c([N-]S(=O)(=O)c2ccc3[nH]c(=O)[n-]c(=O)c3c2)c(=O)n(-c2ccccc2)n1C (3D coordinates assigned)
Cc1c([N-]S(=O)(=O)c2ccc3[nH]c(=O)[n-]c(=O)c3c2)c(=O)n(-c2ccccc2)n1C (optimized conformer: 100.85802250815522 kcal/mol)

>  <smiles>  (48) 
Cc1c(NS(=O)(=O)c2ccc3[nH]c(=O)[nH]c(=O)c3c2)c(=O)n(-c2ccccc2)n1C

>  <score_type>  (48) 
oracle

>  <origin>  (48) 
adgpu

>  <m_score__min__energy>  (48) 
-11.06

>  <m_primary>  (48) 
energy

$$$$
48:0
     RDKit          3D

 67 70  0  0  0  0  0  0  0  0999 V2000
    0.4040   19.8180  -31.9360 C   0  0  0  0  0  0  0  0  0  0  0  0
   -0.9490   20.3760  -31.6060 C   0  0  0  0  0  0  0  0  0  0  0  0
   -1.3710   20.4680  -30.2720 C   0  0  0  0  0  0  0  0  0  0  0  0
   -2.6160   21.0300  -29.9560 C   0  0  0  0  0  0  0  0  0  0  0  0
   -3.0660   21.1080  -28.5240 C   0  0  0  0  0  0  0  0  0  0  0  0
   -3.4460   21.5090  -30.9870 C   0  0  0  0  0  0  0  0  0  0  0  0
   -4.6930   22.0620  -30.6710 O   0  0  0  0  0  0  0  0  0  0  0  0
   -5.9060   21.6680  -31.2560 C   0  0  0  0  0  0  0  0  0  0  0  0
   -6.1240   20.3400  -31.6750 C   0  0  0  0  0  0  0  0  0  0  0  0
   -7.3580   19.9610  -32.2050 C   0  0  0  0  0  0  0  0  0  0  0  0
   -8.3890   20.8940  -32.3180 C   0  0  0  0  0  0  0  0  0  0  0  0
   -8.1820   22.2140  -31.9170 C   0  0  0  0  0  0  0  0  0  0  0  0
   -6.9390   22.6190  -31.4180 C   0  0  0  0  0  0  0  0  0  0  0  0
   -6.7730   23.9880  -31.0210 N   0  0  0  0  0  0  0  0  0  0  0  0
   -5.5710   24.5400  -30.4750 C   0  0  0  0  0  0  0  0  0  0  0  0
   -4.8010   25.2230  -31.2020 O   0  0  0  0  0  0  0  0  0  0  0  0
   -5.2830   24.3650  -29.0820 N   0  0  0  0  0  0  0  0  0  0  0  0
   -3.9540   24.4150  -28.5340 C   0  0  0  0  0  0  0  0  0  0  0  0
   -3.7710   24.2680  -27.1510 C   0  0  0  0  0  0  0  0  0  0  0  0
   -2.4860   24.2750  -26.6000 C   0  0  0  0  0  0  0  0  0  0  0  0
   -1.3650   24.4140  -27.4290 C   0  0  0  0  0  0  0  0  0  0  0  0
    0.2630   24.4080  -26.7570 S   0  0  0  0  0  0  0  0  0  0  0  0
    0.5290   23.1090  -26.0460 O   0  0  0  0  0  0  0  0  0  0  0  0
    1.2470   24.5480  -27.8850 O   0  0  0  0  0  0  0  0  0  0  0  0
    0.4350   25.7430  -25.6430 N   0  0  0  0  0  0  0  0  0  0  0  0
    1.4930   26.6800  -26.0920 C   0  0  0  0  0  0  0  0  0  0  0  0
    0.9180   27.9620  -26.7110 C   0  0  0  0  0  0  0  0  0  0  0  0
    0.0640   28.6880  -25.7450 N   0  0  0  0  0  0  0  0  0  0  0  0
   -0.8140   29.6350  -26.4490 C   0  0  0  0  0  0  0  0  0  0  0  0
   -0.7120   27.7950  -24.8460 C   0  0  0  0  0  0  0  0  0  0  0  0
   -0.8770   26.3850  -25.4250 C   0  0  0  0  0  0  0  0  0  0  0  0
   -1.5400   24.5570  -28.8100 C   0  0  0  0  0  0  0  0  0  0  0  0
   -2.8230   24.5490  -29.3630 C   0  0  0  0  0  0  0  0  0  0  0  0
   -3.0310   21.4160  -32.3300 C   0  0  0  0  0  0  0  0  0  0  0  0
   -3.9010   21.9390  -33.4390 C   0  0  0  0  0  0  0  0  0  0  0  0
   -1.7740   20.8690  -32.6270 C   0  0  0  0  0  0  0  0  0  0  0  0
    0.9456   19.5947  -31.0050 H   0  0  0  0  0  0  0  0  0  0  0  0
    0.2868   18.8948  -32.5225 H   0  0  0  0  0  0  0  0  0  0  0  0
    0.9717   20.5554  -32.5225 H   0  0  0  0  0  0  0  0  0  0  0  0
   -0.7201   20.0963  -29.4670 H   0  0  0  0  0  0  0  0  0  0  0  0
   -2.2022   20.9583  -27.8596 H   0  0  0  0  0  0  0  0  0  0  0  0
   -3.5092   22.0963  -28.3322 H   0  0  0  0  0  0  0  0  0  0  0  0
   -3.8159   20.3265  -28.3322 H   0  0  0  0  0  0  0  0  0  0  0  0
   -5.3169   19.5982  -31.5837 H   0  0  0  0  0  0  0  0  0  0  0  0
   -7.5182   18.9238  -32.5346 H   0  0  0  0  0  0  0  0  0  0  0  0
   -9.3650   20.5888  -32.7232 H   0  0  0  0  0  0  0  0  0  0  0  0
   -9.0026   22.9425  -31.9937 H   0  0  0  0  0  0  0  0  0  0  0  0
   -6.0880   24.2110  -28.4350 H   0  0  0  0  0  0  0  0  0  0  0  0
   -4.6454   24.1463  -26.4948 H   0  0  0  0  0  0  0  0  0  0  0  0
   -2.3548   24.1711  -25.5128 H   0  0  0  0  0  0  0  0  0  0  0  0
    2.1129   26.9538  -25.2255 H   0  0  0  0  0  0  0  0  0  0  0  0
    2.0843   26.1704  -26.8670 H   0  0  0  0  0  0  0  0  0  0  0  0
    1.7480   28.6156  -27.0176 H   0  0  0  0  0  0  0  0  0  0  0  0
    0.3020   27.6832  -27.5786 H   0  0  0  0  0  0  0  0  0  0  0  0
   -1.3704   30.2351  -25.7139 H   0  0  0  0  0  0  0  0  0  0  0  0
   -0.2055   30.2997  -27.0798 H   0  0  0  0  0  0  0  0  0  0  0  0
   -1.5228   29.0784  -27.0798 H   0  0  0  0  0  0  0  0  0  0  0  0
   -0.1877   27.7220  -23.8817 H   0  0  0  0  0  0  0  0  0  0  0  0
   -1.7158   28.2287  -24.7265 H   0  0  0  0  0  0  0  0  0  0  0  0
   -1.4634   25.7745  -24.7226 H   0  0  0  0  0  0  0  0  0  0  0  0
   -1.3930   26.4631  -26.3933 H   0  0  0  0  0  0  0  0  0  0  0  0
   -0.6631   24.6763  -29.4634 H   0  0  0  0  0  0  0  0  0  0  0  0
   -2.9506   24.6478  -30.4511 H   0  0  0  0  0  0  0  0  0  0  0  0
   -4.7688   22.4607  -33.0092 H   0  0  0  0  0  0  0  0  0  0  0  0
   -3.3226   22.6392  -34.0596 H   0  0  0  0  0  0  0  0  0  0  0  0
   -4.2481   21.0997  -34.0596 H   0  0  0  0  0  0  0  0  0  0  0  0
   -1.4319   20.8263  -33.6716 H   0  0  0  0  0  0  0  0  0  0  0  0
  1  2  1  0
  2  3  2  0
  3  4  1  0
  4  5  1  0
  4  6  2  0
  6  7  1  0
  7  8  1  0
  8  9  2  0
  9 10  1  0
 10 11  2  0
 11 12  1  0
 12 13  2  0
 13 14  1  0
 14 15  1  0
 15 16  2  0
 15 17  1  0
 17 18  1  0
 18 19  2  0
 19 20  1  0
 20 21  2  0
 21 22  1  0
 22 23  2  0
 22 24  2  0
 22 25  1  0
 25 26  1  0
 26 27  1  0
 27 28  1  0
 28 29  1  0
 28 30  1  0
 30 31  1  0
 21 32  1  0
 32 33  2  0
  6 34  1  0
 34 35  1  0
 34 36  2  0
 36  2  1  0
 13  8  1  0
 33 18  1  0
 31 25  1  0
  1 37  1  0
  1 38  1  0
  1 39  1  0
  3 40  1  0
  5 41  1  0
  5 42  1  0
  5 43  1  0
  9 44  1  0
 10 45  1  0
 11 46  1  0
 12 47  1  0
 17 48  1  0
 19 49  1  0
 20 50  1  0
 26 51  1  0
 26 52  1  0
 27 53  1  0
 27 54  1  0
 29 55  1  0
 29 56  1  0
 29 57  1  0
 30 58  1  0
 30 59  1  0
 31 60  1  0
 31 61  1  0
 32 62  1  0
 33 63  1  0
 35 64  1  0
 35 65  1  0
 35 66  1  0
 36 67  1  0
M  CHG  1  14  -1
M  END
>  <UniqueID>  (49) 
48

>  <SMILES>  (49) 
Cc1cc(C)c(Oc2ccccc2[N-]C(=O)Nc2ccc(S(=O)(=O)N3CCN(C)CC3)cc2)c(C)c1

>  <Energy>  (49) 
94.07146349926724

>  <Genealogy>  (49) 
Cc1cc(C)c(Oc2ccccc2[N-]C(=O)Nc2ccc(S(=O)(=O)N3CCN(C)CC3)cc2)c(C)c1 (protonated)
Cc1cc(C)c(Oc2ccccc2[N-]C(=O)Nc2ccc(S(=O)(=O)N3CCN(C)CC3)cc2)c(C)c1 (3D coordinates assigned)
Cc1cc(C)c(Oc2ccccc2[N-]C(=O)Nc2ccc(S(=O)(=O)N3CCN(C)CC3)cc2)c(C)c1 (nonaromatic ring conformer: 94.07146349926724 kcal/mol)

>  <smiles>  (49) 
Cc1cc(C)c(Oc2ccccc2NC(=O)Nc2ccc(S(=O)(=O)N3CCN(C)CC3)cc2)c(C)c1

>  <score_type>  (49) 
oracle

>  <origin>  (49) 
adgpu

>  <m_score__min__energy>  (49) 
-12.66

>  <m_primary>  (49) 
energy

$$$$
49:0
     RDKit          3D

 24 25  0  0  0  0  0  0  0  0999 V2000
   -3.9040   25.6740  -30.8460 O   0  0  0  0  0  0  0  0  0  0  0  0
   -3.2840   24.9230  -29.8560 C   0  0  0  0  0  0  0  0  0  0  0  0
   -2.0800   25.2820  -29.3380 N   0  0  0  0  0  0  0  0  0  0  0  0
   -1.6840   24.4170  -28.3800 C   0  0  0  0  0  0  0  0  0  0  0  0
   -0.2850   24.5740  -27.5540 S   0  0  0  0  0  0  0  0  0  0  0  0
   -2.8000   23.1850  -28.1290 S   0  0  0  0  0  0  0  0  0  0  0  0
   -3.8420   23.7670  -29.3170 C   0  0  0  0  0  0  0  0  0  0  0  0
   -5.1880   23.1880  -29.6430 C   0  0  0  0  0  0  0  0  0  0  0  0
   -5.4840   23.2530  -31.1480 C   0  0  0  0  0  0  0  0  0  0  0  0
   -6.6190   22.3380  -31.5350 C   0  0  0  0  0  0  0  0  0  0  0  0
   -7.9460   22.6810  -31.2250 C   0  0  0  0  0  0  0  0  0  0  0  0
   -8.9980   21.8530  -31.6240 C   0  0  0  0  0  0  0  0  0  0  0  0
   -8.7350   20.6800  -32.3380 C   0  0  0  0  0  0  0  0  0  0  0  0
   -7.4180   20.3360  -32.6580 C   0  0  0  0  0  0  0  0  0  0  0  0
   -6.3630   21.1630  -32.2610 C   0  0  0  0  0  0  0  0  0  0  0  0
   -5.2117   22.1368  -29.3200 H   0  0  0  0  0  0  0  0  0  0  0  0
   -5.9523   23.7790  -29.1171 H   0  0  0  0  0  0  0  0  0  0  0  0
   -5.7528   24.2860  -31.4139 H   0  0  0  0  0  0  0  0  0  0  0  0
   -4.5828   22.9278  -31.6884 H   0  0  0  0  0  0  0  0  0  0  0  0
   -8.1571   23.6047  -30.6662 H   0  0  0  0  0  0  0  0  0  0  0  0
  -10.0348   22.1243  -31.3761 H   0  0  0  0  0  0  0  0  0  0  0  0
   -9.5645   20.0275  -32.6481 H   0  0  0  0  0  0  0  0  0  0  0  0
   -7.2120   19.4145  -33.2222 H   0  0  0  0  0  0  0  0  0  0  0  0
   -5.3283   20.8925  -32.5182 H   0  0  0  0  0  0  0  0  0  0  0  0
  1  2  1  0
  2  3  1  0
  3  4  1  0
  4  5  2  0
  4  6  1  0
  6  7  1  0
  7  8  1  0
  8  9  1  0
  9 10  1  0
 10 11  2  0
 11 12  1  0
 12 13  2  0
 13 14  1  0
 14 15  2  0
  7  2  2  0
 15 10  1  0
  8 16  1  0
  8 17  1  0
  9 18  1  0
  9 19  1  0
 11 20  1  0
 12 21  1  0
 13 22  1  0
 14 23  1  0
 15 24  1  0
M  CHG  2   1  -1   3  -1
M  END
>  <UniqueID>  (50) 
49

>  <SMILES>  (50) 
[O-]c1[n-]c(=S)sc1CCc1ccccc1

>  <Energy>  (50) 
50.57006653304751

>  <Genealogy>  (50) 
[O-]c1[n-]c(=S)sc1CCc1ccccc1 (protonated)
[O-]c1[n-]c(=S)sc1CCc1ccccc1 (3D coordinates assigned)
[O-]c1[n-]c(=S)sc1CCc1ccccc1 (optimized conformer: 50.57006653304751 kcal/mol)

>  <smiles>  (50) 
Oc1[nH]c(=S)sc1CCc1ccccc1

>  <score_type>  (50) 
oracle

>  <origin>  (50) 
adgpu

>  <m_score__min__energy>  (50) 
-11.529999999999999

>  <m_primary>  (50) 
energy

$$$$
