0:0
     RDKit          3D

 46 48  0  0  0  0  0  0  0  0999 V2000
   -0.8190   26.8530  -26.6550 C   0  0  0  0  0  0  0  0  0  0  0  0
   -0.1620   26.3020  -27.8360 N   0  0  0  0  0  0  0  0  0  0  0  0
    0.1370   24.6060  -27.6050 S   0  0  0  0  0  0  0  0  0  0  0  0
    0.6220   24.3830  -26.2010 O   0  0  0  0  0  0  0  0  0  0  0  0
    1.1990   24.1510  -28.5680 O   0  0  0  0  0  0  0  0  0  0  0  0
   -1.3400   23.6770  -27.8500 C   0  0  0  0  0  0  0  0  0  0  0  0
   -1.3270   22.2840  -27.7030 C   0  0  0  0  0  0  0  0  0  0  0  0
   -2.5080   21.5540  -27.8530 C   0  0  0  0  0  0  0  0  0  0  0  0
   -3.7060   22.2090  -28.1470 C   0  0  0  0  0  0  0  0  0  0  0  0
   -3.7350   23.6030  -28.3050 C   0  0  0  0  0  0  0  0  0  0  0  0
   -4.9870   24.2500  -28.5910 N   0  0  0  0  0  0  0  0  0  0  0  0
   -5.4700   24.7510  -30.1800 S   0  0  0  0  0  0  0  0  0  0  0  0
   -4.3470   25.5040  -30.8370 O   0  0  0  0  0  0  0  0  0  0  0  0
   -6.6510   25.6740  -30.0660 O   0  0  0  0  0  0  0  0  0  0  0  0
   -5.9550   23.3370  -31.1170 C   0  0  0  0  0  0  0  0  0  0  0  0
   -7.3180   23.0240  -31.2060 C   0  0  0  0  0  0  0  0  0  0  0  0
   -7.7450   21.9140  -31.9400 C   0  0  0  0  0  0  0  0  0  0  0  0
   -6.8130   21.0880  -32.5780 C   0  0  0  0  0  0  0  0  0  0  0  0
   -7.2720   19.9650  -33.3500 N   0  0  0  0  0  0  0  0  0  0  0  0
   -6.5460   18.7320  -33.4830 C   0  0  0  0  0  0  0  0  0  0  0  0
   -6.5580   17.8030  -32.4320 C   0  0  0  0  0  0  0  0  0  0  0  0
   -5.8430   16.6060  -32.5390 C   0  0  0  0  0  0  0  0  0  0  0  0
   -5.0980   16.3360  -33.6900 C   0  0  0  0  0  0  0  0  0  0  0  0
   -5.0600   17.2660  -34.7320 C   0  0  0  0  0  0  0  0  0  0  0  0
   -5.7740   18.4650  -34.6270 C   0  0  0  0  0  0  0  0  0  0  0  0
   -5.4460   21.4080  -32.5020 C   0  0  0  0  0  0  0  0  0  0  0  0
   -5.0170   22.5230  -31.7730 C   0  0  0  0  0  0  0  0  0  0  0  0
   -3.6900   22.7990  -31.7190 F   0  0  0  0  0  0  0  0  0  0  0  0
   -2.5420   24.3340  -28.1490 C   0  0  0  0  0  0  0  0  0  0  0  0
   -0.3410   26.4522  -25.7490 H   0  0  0  0  0  0  0  0  0  0  0  0
   -0.7284   27.9492  -26.6629 H   0  0  0  0  0  0  0  0  0  0  0  0
   -1.8827   26.5729  -26.6629 H   0  0  0  0  0  0  0  0  0  0  0  0
   -0.3859   21.7648  -27.4692 H   0  0  0  0  0  0  0  0  0  0  0  0
   -2.4947   20.4600  -27.7393 H   0  0  0  0  0  0  0  0  0  0  0  0
   -4.6336   21.6278  -28.2555 H   0  0  0  0  0  0  0  0  0  0  0  0
   -5.7160   24.2930  -27.8430 H   0  0  0  0  0  0  0  0  0  0  0  0
   -8.0577   23.6570  -30.6941 H   0  0  0  0  0  0  0  0  0  0  0  0
   -8.8189   21.6886  -32.0165 H   0  0  0  0  0  0  0  0  0  0  0  0
   -8.1920   20.0490  -33.8390 H   0  0  0  0  0  0  0  0  0  0  0  0
   -7.1328   18.0172  -31.5189 H   0  0  0  0  0  0  0  0  0  0  0  0
   -5.8670   15.8762  -31.7163 H   0  0  0  0  0  0  0  0  0  0  0  0
   -4.5414   15.3911  -33.7757 H   0  0  0  0  0  0  0  0  0  0  0  0
   -4.4686   17.0556  -35.6353 H   0  0  0  0  0  0  0  0  0  0  0  0
   -5.7309   19.2015  -35.4429 H   0  0  0  0  0  0  0  0  0  0  0  0
   -4.7081   20.7772  -33.0194 H   0  0  0  0  0  0  0  0  0  0  0  0
   -2.5529   25.4281  -28.2625 H   0  0  0  0  0  0  0  0  0  0  0  0
  1  2  1  0
  2  3  1  0
  3  4  2  0
  3  5  2  0
  3  6  1  0
  6  7  2  0
  7  8  1  0
  8  9  2  0
  9 10  1  0
 10 11  1  0
 11 12  1  0
 12 13  2  0
 12 14  2  0
 12 15  1  0
 15 16  2  0
 16 17  1  0
 17 18  2  0
 18 19  1  0
 19 20  1  0
 20 21  2  0
 21 22  1  0
 22 23  2  0
 23 24  1  0
 24 25  2  0
 18 26  1  0
 26 27  2  0
 27 28  1  0
 10 29  2  0
 29  6  1  0
 27 15  1  0
 25 20  1  0
  1 30  1  0
  1 31  1  0
  1 32  1  0
  7 33  1  0
  8 34  1  0
  9 35  1  0
 11 36  1  0
 16 37  1  0
 17 38  1  0
 19 39  1  0
 21 40  1  0
 22 41  1  0
 23 42  1  0
 24 43  1  0
 25 44  1  0
 26 45  1  0
 29 46  1  0
M  CHG  1   2  -1
M  END
>  <UniqueID>  (1) 
1

>  <SMILES>  (1) 
C[N-]S(=O)(=O)c1cccc(NS(=O)(=O)c2ccc(Nc3ccccc3)cc2F)c1

>  <Energy>  (1) 
53.08844876068099

>  <Genealogy>  (1) 
C[N-]S(=O)(=O)c1cccc(NS(=O)(=O)c2ccc(Nc3ccccc3)cc2F)c1 (protonated)
C[N-]S(=O)(=O)c1cccc(NS(=O)(=O)c2ccc(Nc3ccccc3)cc2F)c1 (3D coordinates assigned)
C[N-]S(=O)(=O)c1cccc(NS(=O)(=O)c2ccc(Nc3ccccc3)cc2F)c1 (optimized conformer: 53.08844876068099 kcal/mol)

>  <smiles>  (1) 
CNS(=O)(=O)c1cccc(NS(=O)(=O)c2ccc(Nc3ccccc3)cc2F)c1

>  <score_type>  (1) 
oracle

>  <origin>  (1) 
adgpu

>  <m_score__min__energy>  (1) 
-11.130000000000001

>  <m_primary>  (1) 
energy

$$$$
1:0
     RDKit          3D

 43 45  0  0  0  0  0  0  0  0999 V2000
   -6.1320   25.7600  -29.3400 C   0  0  0  0  0  0  0  0  0  0  0  0
   -5.9890   24.5670  -30.2440 C   0  0  0  0  0  0  0  0  0  0  0  0
   -7.1260   23.8240  -30.6040 C   0  0  0  0  0  0  0  0  0  0  0  0
   -7.0100   22.7150  -31.4460 C   0  0  0  0  0  0  0  0  0  0  0  0
   -5.7570   22.3380  -31.9400 C   0  0  0  0  0  0  0  0  0  0  0  0
   -5.6140   20.9440  -32.9950 Cl  0  0  0  0  0  0  0  0  0  0  0  0
   -4.6210   23.0780  -31.6000 C   0  0  0  0  0  0  0  0  0  0  0  0
   -4.7320   24.2020  -30.7720 C   0  0  0  0  0  0  0  0  0  0  0  0
   -3.5550   24.9530  -30.4560 N   0  0  0  0  0  0  0  0  0  0  0  0
   -2.6980   24.6580  -29.3480 C   0  0  0  0  0  0  0  0  0  0  0  0
   -1.9380   25.5610  -28.9090 O   0  0  0  0  0  0  0  0  0  0  0  0
   -2.7130   23.3170  -28.6670 C   0  0  0  0  0  0  0  0  0  0  0  0
   -1.0180   22.6630  -28.4770 S   0  0  0  0  0  0  0  0  0  0  0  0
   -1.0650   21.6870  -29.9770 C   0  0  0  0  0  0  0  0  0  0  0  0
   -0.7410   20.3700  -29.9410 N   0  0  0  0  0  0  0  0  0  0  0  0
   -0.7700   19.6090  -31.0650 C   0  0  0  0  0  0  0  0  0  0  0  0
   -0.4600   18.3900  -30.9970 O   0  0  0  0  0  0  0  0  0  0  0  0
   -1.1420   20.1860  -32.2890 C   0  0  0  0  0  0  0  0  0  0  0  0
   -1.1790   19.2410  -33.7780 S   0  0  0  0  0  0  0  0  0  0  0  0
   -1.0780   20.1640  -34.9600 O   0  0  0  0  0  0  0  0  0  0  0  0
   -0.0150   18.2910  -33.8250 O   0  0  0  0  0  0  0  0  0  0  0  0
   -2.6790   18.3220  -33.8410 C   0  0  0  0  0  0  0  0  0  0  0  0
   -3.6400   18.4540  -32.8280 C   0  0  0  0  0  0  0  0  0  0  0  0
   -4.8200   17.7060  -32.8790 C   0  0  0  0  0  0  0  0  0  0  0  0
   -5.0450   16.8200  -33.9380 C   0  0  0  0  0  0  0  0  0  0  0  0
   -6.5250   15.8820  -34.0000 Cl  0  0  0  0  0  0  0  0  0  0  0  0
   -4.0850   16.6820  -34.9460 C   0  0  0  0  0  0  0  0  0  0  0  0
   -2.9040   17.4290  -34.8980 C   0  0  0  0  0  0  0  0  0  0  0  0
   -1.4590   21.5490  -32.3030 C   0  0  0  0  0  0  0  0  0  0  0  0
   -1.4150   22.2700  -31.1540 N   0  0  0  0  0  0  0  0  0  0  0  0
   -6.0927   25.4318  -28.2908 H   0  0  0  0  0  0  0  0  0  0  0  0
   -5.3122   26.4674  -29.5339 H   0  0  0  0  0  0  0  0  0  0  0  0
   -7.0957   26.2536  -29.5339 H   0  0  0  0  0  0  0  0  0  0  0  0
   -8.1143   24.1175  -30.2203 H   0  0  0  0  0  0  0  0  0  0  0  0
   -7.9052   22.1378  -31.7207 H   0  0  0  0  0  0  0  0  0  0  0  0
   -3.6355   22.7762  -31.9844 H   0  0  0  0  0  0  0  0  0  0  0  0
   -3.1716   23.4231  -27.6728 H   0  0  0  0  0  0  0  0  0  0  0  0
   -3.2930   22.6157  -29.2849 H   0  0  0  0  0  0  0  0  0  0  0  0
   -3.4650   19.1472  -31.9920 H   0  0  0  0  0  0  0  0  0  0  0  0
   -5.5732   17.8144  -32.0847 H   0  0  0  0  0  0  0  0  0  0  0  0
   -4.2596   15.9843  -35.7783 H   0  0  0  0  0  0  0  0  0  0  0  0
   -2.1501   17.3158  -35.6910 H   0  0  0  0  0  0  0  0  0  0  0  0
   -1.7443   22.0368  -33.2468 H   0  0  0  0  0  0  0  0  0  0  0  0
  1  2  1  0
  2  3  2  0
  3  4  1  0
  4  5  2  0
  5  6  1  0
  5  7  1  0
  7  8  2  0
  8  9  1  0
  9 10  1  0
 10 11  2  0
 10 12  1  0
 12 13  1  0
 13 14  1  0
 14 15  2  0
 15 16  1  0
 16 17  2  0
 16 18  1  0
 18 19  1  0
 19 20  2  0
 19 21  2  0
 19 22  1  0
 22 23  2  0
 23 24  1  0
 24 25  2  0
 25 26  1  0
 25 27  1  0
 27 28  2  0
 18 29  2  0
 29 30  1  0
  8  2  1  0
 30 14  1  0
 28 22  1  0
  1 31  1  0
  1 32  1  0
  1 33  1  0
  3 34  1  0
  4 35  1  0
  7 36  1  0
 12 37  1  0
 12 38  1  0
 23 39  1  0
 24 40  1  0
 27 41  1  0
 28 42  1  0
 29 43  1  0
M  CHG  2   9  -1  30  -1
M  END
>  <UniqueID>  (2) 
2

>  <SMILES>  (2) 
Cc1ccc(Cl)cc1[N-]C(=O)CSc1nc(=O)c(S(=O)(=O)c2ccc(Cl)cc2)c[n-]1

>  <Energy>  (2) 
51.9068620669261

>  <Genealogy>  (2) 
Cc1ccc(Cl)cc1[N-]C(=O)CSc1nc(=O)c(S(=O)(=O)c2ccc(Cl)cc2)c[n-]1 (protonated)
Cc1ccc(Cl)cc1[N-]C(=O)CSc1nc(=O)c(S(=O)(=O)c2ccc(Cl)cc2)c[n-]1 (3D coordinates assigned)
Cc1ccc(Cl)cc1[N-]C(=O)CSc1nc(=O)c(S(=O)(=O)c2ccc(Cl)cc2)c[n-]1 (optimized conformer: 51.9068620669261 kcal/mol)

>  <smiles>  (2) 
Cc1ccc(Cl)cc1NC(=O)CSc1nc(=O)c(S(=O)(=O)c2ccc(Cl)cc2)c[nH]1

>  <score_type>  (2) 
oracle

>  <origin>  (2) 
adgpu

>  <m_score__min__energy>  (2) 
-12.35

>  <m_primary>  (2) 
energy

$$$$
2:0
     RDKit          3D

 41 43  0  0  0  0  0  0  0  0999 V2000
   -3.6800   24.0730  -28.7660 N   0  0  0  0  0  0  0  0  0  0  0  0
   -2.6970   23.6610  -28.0180 C   0  0  0  0  0  0  0  0  0  0  0  0
   -2.0640   22.3970  -28.2860 N   0  0  0  0  0  0  0  0  0  0  0  0
   -1.8090   21.8830  -29.6050 C   0  0  0  0  0  0  0  0  0  0  0  0
   -0.4930   21.8500  -30.0890 C   0  0  0  0  0  0  0  0  0  0  0  0
   -0.2260   21.3910  -31.3810 C   0  0  0  0  0  0  0  0  0  0  0  0
   -1.2710   20.9720  -32.2060 C   0  0  0  0  0  0  0  0  0  0  0  0
   -2.5920   21.0110  -31.7430 C   0  0  0  0  0  0  0  0  0  0  0  0
   -3.9050   20.5410  -32.8190 S   0  0  0  0  0  0  0  0  0  0  0  0
   -3.3300   20.2220  -34.1700 O   0  0  0  0  0  0  0  0  0  0  0  0
   -4.6170   19.3250  -32.2960 O   0  0  0  0  0  0  0  0  0  0  0  0
   -5.0270   21.8540  -32.9650 N   0  0  0  0  0  0  0  0  0  0  0  0
   -6.3160   21.8300  -32.3320 C   0  0  0  0  0  0  0  0  0  0  0  0
   -7.2480   20.8380  -32.6870 C   0  0  0  0  0  0  0  0  0  0  0  0
   -8.5290   20.8380  -32.1350 C   0  0  0  0  0  0  0  0  0  0  0  0
   -8.9020   21.8340  -31.2330 C   0  0  0  0  0  0  0  0  0  0  0  0
   -7.9890   22.8260  -30.8710 C   0  0  0  0  0  0  0  0  0  0  0  0
   -6.6870   22.8310  -31.4000 C   0  0  0  0  0  0  0  0  0  0  0  0
   -5.7520   23.8280  -30.9520 N   0  0  0  0  0  0  0  0  0  0  0  0
   -4.6670   23.9940  -31.5480 O   0  0  0  0  0  0  0  0  0  0  0  0
   -5.9530   24.4720  -29.7540 O   0  0  0  0  0  0  0  0  0  0  0  0
   -2.8600   21.4750  -30.4480 C   0  0  0  0  0  0  0  0  0  0  0  0
   -2.2560   24.4450  -26.8460 C   0  0  0  0  0  0  0  0  0  0  0  0
   -2.9460   25.5030  -26.3630 N   0  0  0  0  0  0  0  0  0  0  0  0
   -2.3470   26.0540  -25.2750 C   0  0  0  0  0  0  0  0  0  0  0  0
   -1.1680   25.4390  -24.8730 C   0  0  0  0  0  0  0  0  0  0  0  0
   -0.8740   24.1610  -25.9230 S   0  0  0  0  0  0  0  0  0  0  0  0
   -4.0340   23.4930  -29.5580 H   0  0  0  0  0  0  0  0  0  0  0  0
   -4.1660   24.9800  -28.5880 H   0  0  0  0  0  0  0  0  0  0  0  0
   -1.7510   21.8250  -27.4680 H   0  0  0  0  0  0  0  0  0  0  0  0
    0.3340   22.1877  -29.4471 H   0  0  0  0  0  0  0  0  0  0  0  0
    0.8101   21.3597  -31.7491 H   0  0  0  0  0  0  0  0  0  0  0  0
   -1.0563   20.6103  -33.2224 H   0  0  0  0  0  0  0  0  0  0  0  0
   -4.6970   22.7230  -33.4420 H   0  0  0  0  0  0  0  0  0  0  0  0
   -6.9642   20.0555  -33.4061 H   0  0  0  0  0  0  0  0  0  0  0  0
   -9.2461   20.0511  -32.4116 H   0  0  0  0  0  0  0  0  0  0  0  0
   -9.9160   21.8379  -30.8066 H   0  0  0  0  0  0  0  0  0  0  0  0
   -8.2920   23.6124  -30.1640 H   0  0  0  0  0  0  0  0  0  0  0  0
   -3.8984   21.5207  -30.0879 H   0  0  0  0  0  0  0  0  0  0  0  0
   -2.7658   26.9251  -24.7498 H   0  0  0  0  0  0  0  0  0  0  0  0
   -0.5397   25.7356  -24.0202 H   0  0  0  0  0  0  0  0  0  0  0  0
  1  2  2  0
  2  3  1  0
  3  4  1  0
  4  5  2  0
  5  6  1  0
  6  7  2  0
  7  8  1  0
  8  9  1  0
  9 10  2  0
  9 11  2  0
  9 12  1  0
 12 13  1  0
 13 14  2  0
 14 15  1  0
 15 16  2  0
 16 17  1  0
 17 18  2  0
 18 19  1  0
 19 20  2  0
 19 21  1  0
  8 22  2  0
  2 23  1  0
 23 24  2  0
 24 25  1  0
 25 26  2  0
 26 27  1  0
 22  4  1  0
 27 23  1  0
 18 13  1  0
  1 28  1  0
  1 29  1  0
  3 30  1  0
  5 31  1  0
  6 32  1  0
  7 33  1  0
 12 34  1  0
 14 35  1  0
 15 36  1  0
 16 37  1  0
 17 38  1  0
 22 39  1  0
 25 40  1  0
 26 41  1  0
M  CHG  3   1   1  19   1  21  -1
M  END
>  <UniqueID>  (3) 
3

>  <SMILES>  (3) 
[NH2+]=C(Nc1cccc(S(=O)(=O)Nc2ccccc2[N+](=O)[O-])c1)c1nccs1

>  <Energy>  (3) 
85.38818088539908

>  <Genealogy>  (3) 
[NH2+]=C(Nc1cccc(S(=O)(=O)Nc2ccccc2[N+](=O)[O-])c1)c1nccs1 (protonated)
[NH2+]=C(Nc1cccc(S(=O)(=O)Nc2ccccc2[N+](=O)[O-])c1)c1nccs1 (3D coordinates assigned)
[NH2+]=C(Nc1cccc(S(=O)(=O)Nc2ccccc2[N+](=O)[O-])c1)c1nccs1 (optimized conformer: 85.38818088539908 kcal/mol)

>  <smiles>  (3) 
N=C(Nc1cccc(S(=O)(=O)Nc2ccccc2[N+](=O)[O-])c1)c1nccs1

>  <score_type>  (3) 
oracle

>  <origin>  (3) 
adgpu

>  <m_score__min__energy>  (3) 
-9.0500000000000007

>  <m_primary>  (3) 
energy

$$$$
3:0
     RDKit          3D

 38 40  0  0  0  0  0  0  0  0999 V2000
    2.1180   24.6020  -28.7760 H   0  0  0  0  0  0  0  0  0  0  0  0
    1.6060   24.5460  -27.8680 N   0  0  0  0  0  0  0  0  0  0  0  0
    0.5240   23.6340  -27.6910 C   0  0  0  0  0  0  0  0  0  0  0  0
    0.6140   22.7400  -26.8080 O   0  0  0  0  0  0  0  0  0  0  0  0
   -0.6930   23.7360  -28.5310 C   0  0  0  0  0  0  0  0  0  0  0  0
   -1.6700   24.7120  -28.2630 C   0  0  0  0  0  0  0  0  0  0  0  0
   -1.5311   25.4070  -27.4218 H   0  0  0  0  0  0  0  0  0  0  0  0
   -2.8160   24.8050  -29.0580 C   0  0  0  0  0  0  0  0  0  0  0  0
   -3.5675   25.5793  -28.8442 H   0  0  0  0  0  0  0  0  0  0  0  0
   -3.0140   23.9210  -30.1230 C   0  0  0  0  0  0  0  0  0  0  0  0
   -4.1710   24.0590  -30.9060 O   0  0  0  0  0  0  0  0  0  0  0  0
   -5.0910   23.0350  -31.1850 C   0  0  0  0  0  0  0  0  0  0  0  0
   -4.6910   21.8390  -31.8070 C   0  0  0  0  0  0  0  0  0  0  0  0
   -3.6390   21.6997  -32.0966 H   0  0  0  0  0  0  0  0  0  0  0  0
   -5.6200   20.8260  -32.0600 C   0  0  0  0  0  0  0  0  0  0  0  0
   -5.2977   19.8965  -32.5521 H   0  0  0  0  0  0  0  0  0  0  0  0
   -6.9590   20.9910  -31.6890 C   0  0  0  0  0  0  0  0  0  0  0  0
   -8.1260   19.7090  -31.9920 S   0  0  0  0  0  0  0  0  0  0  0  0
   -9.1020   19.6390  -30.8500 O   0  0  0  0  0  0  0  0  0  0  0  0
   -8.8730   20.0010  -33.2630 O   0  0  0  0  0  0  0  0  0  0  0  0
   -7.2790   18.2030  -32.1380 N   0  0  0  0  0  0  0  0  0  0  0  0
   -6.5050   17.8940  -33.1350 C   0  0  0  0  0  0  0  0  0  0  0  0
   -6.2120   18.6740  -34.2390 C   0  0  0  0  0  0  0  0  0  0  0  0
   -6.5732   19.6859  -34.4747 H   0  0  0  0  0  0  0  0  0  0  0  0
   -5.3550   17.8750  -34.9760 C   0  0  0  0  0  0  0  0  0  0  0  0
   -4.8960   18.1464  -35.9381 H   0  0  0  0  0  0  0  0  0  0  0  0
   -5.1790   16.7380  -34.3380 O   0  0  0  0  0  0  0  0  0  0  0  0
   -5.8580   16.7220  -33.2290 N   0  0  0  0  0  0  0  0  0  0  0  0
   -5.8810   15.9290  -32.5490 H   0  0  0  0  0  0  0  0  0  0  0  0
   -7.3600   22.1680  -31.0410 C   0  0  0  0  0  0  0  0  0  0  0  0
   -8.4082   22.2933  -30.7317 H   0  0  0  0  0  0  0  0  0  0  0  0
   -6.4310   23.1850  -30.7860 C   0  0  0  0  0  0  0  0  0  0  0  0
   -6.8640   24.3890  -30.1210 C   0  0  0  0  0  0  0  0  0  0  0  0
   -7.2110   25.3550  -29.5880 N   0  0  0  0  0  0  0  0  0  0  0  0
   -2.0330   22.9580  -30.4100 C   0  0  0  0  0  0  0  0  0  0  0  0
   -2.1677   22.2758  -31.2623 H   0  0  0  0  0  0  0  0  0  0  0  0
   -0.8850   22.8630  -29.6160 C   0  0  0  0  0  0  0  0  0  0  0  0
   -0.1266   22.0991  -29.8425 H   0  0  0  0  0  0  0  0  0  0  0  0
  1  2  1  0
  2  3  1  0
  3  4  2  0
  3  5  1  0
  5  6  2  0
  6  7  1  0
  6  8  1  0
  8  9  1  0
  8 10  2  0
 10 11  1  0
 11 12  1  0
 12 13  2  0
 13 14  1  0
 13 15  1  0
 15 16  1  0
 15 17  2  0
 17 18  1  0
 18 19  2  0
 18 20  2  0
 18 21  1  0
 21 22  2  0
 22 23  1  0
 23 24  1  0
 23 25  2  0
 25 26  1  0
 25 27  1  0
 27 28  1  0
 28 29  1  0
 17 30  1  0
 30 31  1  0
 30 32  2  0
 32 33  1  0
 33 34  3  0
 10 35  1  0
 35 36  1  0
 35 37  2  0
 37 38  1  0
 37  5  1  0
 32 12  1  0
 28 22  1  0
M  CHG  1   2  -1
M  END
>  <UniqueID>  (4) 
4

>  <SMILES>  (4) 
N#Cc1cc(S(=O)(=O)/N=c2\cco[nH]2)ccc1Oc1ccc(C([NH-])=O)cc1

>  <Energy>  (4) 
83.15658402921106

>  <Genealogy>  (4) 
N#Cc1cc(S(=O)(=O)N=c2cco[nH]2)ccc1Oc1ccc(C([NH-])=O)cc1 (protonated)
N#Cc1cc(S(=O)(=O)/N=c2\cco[nH]2)ccc1Oc1ccc(C([NH-])=O)cc1 (cis-trans isomerization)
N#Cc1cc(S(=O)(=O)/N=c2\cco[nH]2)ccc1Oc1ccc(C([NH-])=O)cc1 (3D coordinates assigned)
N#Cc1cc(S(=O)(=O)/N=c2\cco[nH]2)ccc1Oc1ccc(C([NH-])=O)cc1 (optimized conformer: 83.15658402921106 kcal/mol)

>  <smiles>  (4) 
N#Cc1cc(S(=O)(=O)N=c2cco[nH]2)ccc1Oc1ccc(C(N)=O)cc1

>  <score_type>  (4) 
oracle

>  <origin>  (4) 
adgpu

>  <m_score__min__energy>  (4) 
-11.16

>  <m_primary>  (4) 
energy

$$$$
4:0
     RDKit          3D

 37 39  0  0  0  0  0  0  0  0999 V2000
   -6.8050   25.3150  -29.7870 C   0  0  0  0  0  0  0  0  0  0  0  0
   -6.0580   24.3450  -30.5790 N   0  0  0  0  0  0  0  0  0  0  0  0
   -4.6380   24.3230  -30.7440 C   0  0  0  0  0  0  0  0  0  0  0  0
   -3.8790   25.2950  -30.4870 O   0  0  0  0  0  0  0  0  0  0  0  0
   -4.2090   23.0150  -31.2140 C   0  0  0  0  0  0  0  0  0  0  0  0
   -3.0320   22.6470  -31.4700 O   0  0  0  0  0  0  0  0  0  0  0  0
   -5.4180   22.2160  -31.2980 C   0  0  0  0  0  0  0  0  0  0  0  0
   -5.5930   20.8780  -31.6450 C   0  0  0  0  0  0  0  0  0  0  0  0
   -6.8940   20.3420  -31.5960 C   0  0  0  0  0  0  0  0  0  0  0  0
   -7.1480   18.6460  -32.0020 S   0  0  0  0  0  0  0  0  0  0  0  0
   -6.2510   17.7830  -31.1590 O   0  0  0  0  0  0  0  0  0  0  0  0
   -8.5750   18.2930  -31.6820 O   0  0  0  0  0  0  0  0  0  0  0  0
   -6.8500   18.3680  -33.7060 N   0  0  0  0  0  0  0  0  0  0  0  0
   -5.7400   19.2030  -34.2090 C   0  0  0  0  0  0  0  0  0  0  0  0
   -4.3560   18.6990  -33.7430 C   0  0  0  0  0  0  0  0  0  0  0  0
   -4.2420   17.2290  -33.6920 N   0  0  0  0  0  0  0  0  0  0  0  0
   -5.2660   16.5550  -34.4930 C   0  0  0  0  0  0  0  0  0  0  0  0
   -6.6800   16.9190  -34.0010 C   0  0  0  0  0  0  0  0  0  0  0  0
   -7.9780   21.1520  -31.1870 C   0  0  0  0  0  0  0  0  0  0  0  0
   -7.7750   22.4980  -30.8360 C   0  0  0  0  0  0  0  0  0  0  0  0
   -6.4790   23.0130  -30.9040 C   0  0  0  0  0  0  0  0  0  0  0  0
   -6.6491   25.1126  -28.7171 H   0  0  0  0  0  0  0  0  0  0  0  0
   -6.4531   26.3301  -30.0232 H   0  0  0  0  0  0  0  0  0  0  0  0
   -7.8763   25.2341  -30.0232 H   0  0  0  0  0  0  0  0  0  0  0  0
   -4.7375   20.2570  -31.9491 H   0  0  0  0  0  0  0  0  0  0  0  0
   -7.7160   18.6940  -34.1970 H   0  0  0  0  0  0  0  0  0  0  0  0
   -5.7650   19.1963  -35.3087 H   0  0  0  0  0  0  0  0  0  0  0  0
   -5.8776   20.2169  -33.8051 H   0  0  0  0  0  0  0  0  0  0  0  0
   -3.5954   19.0815  -34.4395 H   0  0  0  0  0  0  0  0  0  0  0  0
   -4.2110   19.0666  -32.7164 H   0  0  0  0  0  0  0  0  0  0  0  0
   -4.3320   16.9070  -32.7000 H   0  0  0  0  0  0  0  0  0  0  0  0
   -5.1606   16.8623  -35.5439 H   0  0  0  0  0  0  0  0  0  0  0  0
   -5.1294   15.4680  -34.3938 H   0  0  0  0  0  0  0  0  0  0  0  0
   -7.4036   16.6346  -34.7792 H   0  0  0  0  0  0  0  0  0  0  0  0
   -6.8456   16.3750  -33.0594 H   0  0  0  0  0  0  0  0  0  0  0  0
   -8.9906   20.7247  -31.1430 H   0  0  0  0  0  0  0  0  0  0  0  0
   -8.6164   23.1299  -30.5157 H   0  0  0  0  0  0  0  0  0  0  0  0
  1  2  1  0
  2  3  1  0
  3  4  2  0
  3  5  1  0
  5  6  2  0
  5  7  1  0
  7  8  2  0
  8  9  1  0
  9 10  1  0
 10 11  2  0
 10 12  2  0
 10 13  1  0
 13 14  1  0
 14 15  1  0
 15 16  1  0
 16 17  1  0
 17 18  1  0
  9 19  2  0
 19 20  1  0
 20 21  2  0
 21  2  1  0
 21  7  1  0
 18 13  1  0
  1 22  1  0
  1 23  1  0
  1 24  1  0
  8 25  1  0
 13 26  1  0
 14 27  1  0
 14 28  1  0
 15 29  1  0
 15 30  1  0
 16 31  1  0
 17 32  1  0
 17 33  1  0
 18 34  1  0
 18 35  1  0
 19 36  1  0
 20 37  1  0
M  CHG  1  13   1
M  END
>  <UniqueID>  (5) 
5

>  <SMILES>  (5) 
CN1C(=O)C(=O)c2cc(S(=O)(=O)[NH+]3CCNCC3)ccc21

>  <Energy>  (5) 
78.85519113663092

>  <Genealogy>  (5) 
CN1C(=O)C(=O)c2cc(S(=O)(=O)[NH+]3CCNCC3)ccc21 (protonated)
CN1C(=O)C(=O)c2cc(S(=O)(=O)[NH+]3CCNCC3)ccc21 (3D coordinates assigned)
CN1C(=O)C(=O)c2cc(S(=O)(=O)[NH+]3CCNCC3)ccc21 (nonaromatic ring conformer: 78.85519113663092 kcal/mol)

>  <smiles>  (5) 
CN1C(=O)C(=O)c2cc(S(=O)(=O)N3CCNCC3)ccc21

>  <score_type>  (5) 
oracle

>  <origin>  (5) 
adgpu

>  <m_score__min__energy>  (5) 
-8.3000000000000007

>  <m_primary>  (5) 
energy

$$$$
5:0
     RDKit          3D

 44 47  0  0  0  0  0  0  0  0999 V2000
   -0.4910   21.5110  -31.8510 C   0  0  0  0  0  0  0  0  0  0  0  0
   -0.8290   22.3390  -30.6970 N   0  0  0  0  0  0  0  0  0  0  0  0
   -1.5890   21.8570  -29.5690 C   0  0  0  0  0  0  0  0  0  0  0  0
   -1.7060   20.4720  -29.3310 C   0  0  0  0  0  0  0  0  0  0  0  0
   -2.4240   19.9930  -28.2340 C   0  0  0  0  0  0  0  0  0  0  0  0
   -3.0340   20.8840  -27.3520 C   0  0  0  0  0  0  0  0  0  0  0  0
   -2.9340   22.2580  -27.5690 C   0  0  0  0  0  0  0  0  0  0  0  0
   -2.2280   22.7600  -28.6760 C   0  0  0  0  0  0  0  0  0  0  0  0
   -2.2220   24.5120  -28.9520 S   0  0  0  0  0  0  0  0  0  0  0  0
   -0.8270   24.9400  -29.3030 O   0  0  0  0  0  0  0  0  0  0  0  0
   -2.6570   25.2480  -27.7150 O   0  0  0  0  0  0  0  0  0  0  0  0
   -3.2920   24.9230  -30.2540 N   0  0  0  0  0  0  0  0  0  0  0  0
   -4.5300   24.2540  -30.5290 C   0  0  0  0  0  0  0  0  0  0  0  0
   -4.4760   22.9770  -31.1050 C   0  0  0  0  0  0  0  0  0  0  0  0
   -5.6440   22.2370  -31.3070 C   0  0  0  0  0  0  0  0  0  0  0  0
   -6.8940   22.7930  -30.9820 C   0  0  0  0  0  0  0  0  0  0  0  0
   -6.9540   24.0890  -30.4460 C   0  0  0  0  0  0  0  0  0  0  0  0
   -5.7820   24.8260  -30.2240 C   0  0  0  0  0  0  0  0  0  0  0  0
   -5.8680   26.1260  -29.7290 O   0  0  0  0  0  0  0  0  0  0  0  0
   -8.1740   22.0360  -31.2330 C   0  0  0  0  0  0  0  0  0  0  0  0
   -7.9650   20.6140  -31.6890 C   0  0  0  0  0  0  0  0  0  0  0  0
   -9.0770   19.7760  -31.8710 C   0  0  0  0  0  0  0  0  0  0  0  0
   -8.9040   18.4600  -32.3140 C   0  0  0  0  0  0  0  0  0  0  0  0
   -7.6220   17.9730  -32.5740 C   0  0  0  0  0  0  0  0  0  0  0  0
   -6.5120   18.8030  -32.4030 C   0  0  0  0  0  0  0  0  0  0  0  0
   -6.6760   20.1220  -31.9660 C   0  0  0  0  0  0  0  0  0  0  0  0
   -5.5530   20.9360  -31.8070 O   0  0  0  0  0  0  0  0  0  0  0  0
   -0.0963   20.5441  -31.5055 H   0  0  0  0  0  0  0  0  0  0  0  0
   -1.3925   21.3431  -32.4585 H   0  0  0  0  0  0  0  0  0  0  0  0
    0.2705   22.0220  -32.4585 H   0  0  0  0  0  0  0  0  0  0  0  0
   -0.5160   23.3340  -30.7320 H   0  0  0  0  0  0  0  0  0  0  0  0
   -1.2255   19.7603  -30.0184 H   0  0  0  0  0  0  0  0  0  0  0  0
   -2.5088   18.9094  -28.0649 H   0  0  0  0  0  0  0  0  0  0  0  0
   -3.5940   20.5033  -26.4851 H   0  0  0  0  0  0  0  0  0  0  0  0
   -3.4126   22.9562  -26.8665 H   0  0  0  0  0  0  0  0  0  0  0  0
   -3.5048   22.5535  -31.4008 H   0  0  0  0  0  0  0  0  0  0  0  0
   -7.9303   24.5308  -30.1976 H   0  0  0  0  0  0  0  0  0  0  0  0
   -5.4090   26.4010  -28.8710 H   0  0  0  0  0  0  0  0  0  0  0  0
   -8.7544   22.0181  -30.2987 H   0  0  0  0  0  0  0  0  0  0  0  0
   -8.6985   22.5579  -32.0469 H   0  0  0  0  0  0  0  0  0  0  0  0
  -10.0885   20.1557  -31.6644 H   0  0  0  0  0  0  0  0  0  0  0  0
   -9.7789   17.8088  -32.4574 H   0  0  0  0  0  0  0  0  0  0  0  0
   -7.4860   16.9356  -32.9135 H   0  0  0  0  0  0  0  0  0  0  0  0
   -5.5033   18.4177  -32.6130 H   0  0  0  0  0  0  0  0  0  0  0  0
  1  2  1  0
  2  3  1  0
  3  4  2  0
  4  5  1  0
  5  6  2  0
  6  7  1  0
  7  8  2  0
  8  9  1  0
  9 10  2  0
  9 11  2  0
  9 12  1  0
 12 13  1  0
 13 14  2  0
 14 15  1  0
 15 16  2  0
 16 17  1  0
 17 18  2  0
 18 19  1  0
 16 20  1  0
 20 21  1  0
 21 22  2  0
 22 23  1  0
 23 24  2  0
 24 25  1  0
 25 26  2  0
 26 27  1  0
  8  3  1  0
 18 13  1  0
 26 21  1  0
 27 15  1  0
  1 28  1  0
  1 29  1  0
  1 30  1  0
  2 31  1  0
  4 32  1  0
  5 33  1  0
  6 34  1  0
  7 35  1  0
 14 36  1  0
 17 37  1  0
 19 38  1  0
 20 39  1  0
 20 40  1  0
 22 41  1  0
 23 42  1  0
 24 43  1  0
 25 44  1  0
M  CHG  1  12  -1
M  END
>  <UniqueID>  (6) 
6

>  <SMILES>  (6) 
CNc1ccccc1S(=O)(=O)[N-]c1cc2c(cc1O)Cc1ccccc1O2

>  <Energy>  (6) 
57.696918364207725

>  <Genealogy>  (6) 
CNc1ccccc1S(=O)(=O)[N-]c1cc2c(cc1O)Cc1ccccc1O2 (protonated)
CNc1ccccc1S(=O)(=O)[N-]c1cc2c(cc1O)Cc1ccccc1O2 (3D coordinates assigned)
CNc1ccccc1S(=O)(=O)[N-]c1cc2c(cc1O)Cc1ccccc1O2 (nonaromatic ring conformer: 57.696918364207725 kcal/mol)

>  <smiles>  (6) 
CNc1ccccc1S(=O)(=O)Nc1cc2c(cc1O)Cc1ccccc1O2

>  <score_type>  (6) 
oracle

>  <origin>  (6) 
adgpu

>  <m_score__min__energy>  (6) 
-10.970000000000001

>  <m_primary>  (6) 
energy

$$$$
6:0
     RDKit          3D

 62 65  0  0  0  0  0  0  0  0999 V2000
   -2.8190   22.5740  -31.9890 O   0  0  0  0  0  0  0  0  0  0  0  0
   -3.6610   22.1800  -31.1400 C   0  0  0  0  0  0  0  0  0  0  0  0
   -3.2040   21.3830  -30.0380 N   0  0  0  0  0  0  0  0  0  0  0  0
   -2.5040   21.8610  -28.8810 C   0  0  0  0  0  0  0  0  0  0  0  0
   -2.2230   21.0210  -27.7900 C   0  0  0  0  0  0  0  0  0  0  0  0
   -1.5380   21.5190  -26.6790 C   0  0  0  0  0  0  0  0  0  0  0  0
   -1.1120   22.8490  -26.6560 C   0  0  0  0  0  0  0  0  0  0  0  0
   -1.3600   23.6880  -27.7510 C   0  0  0  0  0  0  0  0  0  0  0  0
   -0.7970   25.3620  -27.7350 S   0  0  0  0  0  0  0  0  0  0  0  0
    0.7070   25.3780  -27.6850 O   0  0  0  0  0  0  0  0  0  0  0  0
   -1.2270   26.0410  -29.0060 O   0  0  0  0  0  0  0  0  0  0  0  0
   -1.4390   26.2420  -26.3670 N   0  0  0  0  0  0  0  0  0  0  0  0
   -1.6230   25.3600  -25.1880 C   0  0  0  0  0  0  0  0  0  0  0  0
   -0.5270   25.5430  -24.1270 C   0  0  0  0  0  0  0  0  0  0  0  0
   -0.4730   26.9970  -23.6290 C   0  0  0  0  0  0  0  0  0  0  0  0
   -0.8880   28.0120  -24.7100 C   0  0  0  0  0  0  0  0  0  0  0  0
   -0.6340   27.4570  -26.1140 C   0  0  0  0  0  0  0  0  0  0  0  0
   -2.0530   23.1860  -28.8630 C   0  0  0  0  0  0  0  0  0  0  0  0
   -5.0650   22.6440  -31.2360 C   0  0  0  0  0  0  0  0  0  0  0  0
   -6.0780   21.6930  -31.4550 C   0  0  0  0  0  0  0  0  0  0  0  0
   -7.4230   22.0770  -31.5120 C   0  0  0  0  0  0  0  0  0  0  0  0
   -8.6790   20.8650  -31.7810 S   0  0  0  0  0  0  0  0  0  0  0  0
   -9.1060   20.2930  -30.4570 O   0  0  0  0  0  0  0  0  0  0  0  0
   -9.8750   21.5230  -32.4110 O   0  0  0  0  0  0  0  0  0  0  0  0
   -8.1110   19.5700  -32.8100 N   0  0  0  0  0  0  0  0  0  0  0  0
   -7.8620   18.3270  -32.0370 C   0  0  0  0  0  0  0  0  0  0  0  0
   -6.3690   18.0640  -31.7900 C   0  0  0  0  0  0  0  0  0  0  0  0
   -5.5960   17.9630  -33.1150 C   0  0  0  0  0  0  0  0  0  0  0  0
   -6.1980   18.8430  -34.2250 C   0  0  0  0  0  0  0  0  0  0  0  0
   -6.9680   20.0270  -33.6300 C   0  0  0  0  0  0  0  0  0  0  0  0
   -7.7630   23.4240  -31.3460 C   0  0  0  0  0  0  0  0  0  0  0  0
   -6.7680   24.3770  -31.1310 C   0  0  0  0  0  0  0  0  0  0  0  0
   -5.4190   24.0050  -31.0880 C   0  0  0  0  0  0  0  0  0  0  0  0
   -4.4660   25.0130  -30.9300 O   0  0  0  0  0  0  0  0  0  0  0  0
   -2.5432   19.9688  -27.8109 H   0  0  0  0  0  0  0  0  0  0  0  0
   -1.3337   20.8623  -25.8205 H   0  0  0  0  0  0  0  0  0  0  0  0
   -0.5802   23.2392  -25.7757 H   0  0  0  0  0  0  0  0  0  0  0  0
   -2.5968   25.5862  -24.7292 H   0  0  0  0  0  0  0  0  0  0  0  0
   -1.5688   24.3200  -25.5423 H   0  0  0  0  0  0  0  0  0  0  0  0
   -0.7376   24.8795  -23.2753 H   0  0  0  0  0  0  0  0  0  0  0  0
    0.4432   25.2940  -24.5816 H   0  0  0  0  0  0  0  0  0  0  0  0
   -1.1526   27.1001  -22.7702 H   0  0  0  0  0  0  0  0  0  0  0  0
    0.5691   27.2145  -23.3521 H   0  0  0  0  0  0  0  0  0  0  0  0
   -1.9595   28.2355  -24.6005 H   0  0  0  0  0  0  0  0  0  0  0  0
   -0.2875   28.9246  -24.5812 H   0  0  0  0  0  0  0  0  0  0  0  0
   -0.9007   28.2241  -26.8559 H   0  0  0  0  0  0  0  0  0  0  0  0
    0.4302   27.1905  -26.1940 H   0  0  0  0  0  0  0  0  0  0  0  0
   -2.2434   23.8389  -29.7275 H   0  0  0  0  0  0  0  0  0  0  0  0
   -5.8099   20.6339  -31.5831 H   0  0  0  0  0  0  0  0  0  0  0  0
   -8.3689   18.4114  -31.0644 H   0  0  0  0  0  0  0  0  0  0  0  0
   -8.2508   17.4864  -32.6305 H   0  0  0  0  0  0  0  0  0  0  0  0
   -5.9530   18.8896  -31.1939 H   0  0  0  0  0  0  0  0  0  0  0  0
   -6.2675   17.1090  -31.2537 H   0  0  0  0  0  0  0  0  0  0  0  0
   -4.5569   18.2790  -32.9407 H   0  0  0  0  0  0  0  0  0  0  0  0
   -5.6533   16.9178  -33.4531 H   0  0  0  0  0  0  0  0  0  0  0  0
   -5.3861   19.2251  -34.8613 H   0  0  0  0  0  0  0  0  0  0  0  0
   -6.8962   18.2325  -34.8165 H   0  0  0  0  0  0  0  0  0  0  0  0
   -6.2868   20.6157  -32.9980 H   0  0  0  0  0  0  0  0  0  0  0  0
   -7.3579   20.6376  -34.4578 H   0  0  0  0  0  0  0  0  0  0  0  0
   -8.8182   23.7321  -31.3852 H   0  0  0  0  0  0  0  0  0  0  0  0
   -7.0460   25.4324  -30.9937 H   0  0  0  0  0  0  0  0  0  0  0  0
   -3.5070   24.9220  -31.2390 H   0  0  0  0  0  0  0  0  0  0  0  0
  1  2  2  0
  2  3  1  0
  3  4  1  0
  4  5  2  0
  5  6  1  0
  6  7  2  0
  7  8  1  0
  8  9  1  0
  9 10  2  0
  9 11  2  0
  9 12  1  0
 12 13  1  0
 13 14  1  0
 14 15  1  0
 15 16  1  0
 16 17  1  0
  8 18  2  0
  2 19  1  0
 19 20  2  0
 20 21  1  0
 21 22  1  0
 22 23  2  0
 22 24  2  0
 22 25  1  0
 25 26  1  0
 26 27  1  0
 27 28  1  0
 28 29  1  0
 29 30  1  0
 21 31  2  0
 31 32  1  0
 32 33  2  0
 33 34  1  0
 18  4  1  0
 33 19  1  0
 17 12  1  0
 30 25  1  0
  5 35  1  0
  6 36  1  0
  7 37  1  0
 13 38  1  0
 13 39  1  0
 14 40  1  0
 14 41  1  0
 15 42  1  0
 15 43  1  0
 16 44  1  0
 16 45  1  0
 17 46  1  0
 17 47  1  0
 18 48  1  0
 20 49  1  0
 26 50  1  0
 26 51  1  0
 27 52  1  0
 27 53  1  0
 28 54  1  0
 28 55  1  0
 29 56  1  0
 29 57  1  0
 30 58  1  0
 30 59  1  0
 31 60  1  0
 32 61  1  0
 34 62  1  0
M  CHG  1   3  -1
M  END
>  <UniqueID>  (7) 
7

>  <SMILES>  (7) 
O=C([N-]c1cccc(S(=O)(=O)N2CCCCC2)c1)c1cc(S(=O)(=O)N2CCCCC2)ccc1O

>  <Energy>  (7) 
81.51814881383456

>  <Genealogy>  (7) 
O=C([N-]c1cccc(S(=O)(=O)N2CCCCC2)c1)c1cc(S(=O)(=O)N2CCCCC2)ccc1O (protonated)
O=C([N-]c1cccc(S(=O)(=O)N2CCCCC2)c1)c1cc(S(=O)(=O)N2CCCCC2)ccc1O (3D coordinates assigned)
O=C([N-]c1cccc(S(=O)(=O)N2CCCCC2)c1)c1cc(S(=O)(=O)N2CCCCC2)ccc1O (nonaromatic ring conformer: 81.51814881383456 kcal/mol)

>  <smiles>  (7) 
O=C(Nc1cccc(S(=O)(=O)N2CCCCC2)c1)c1cc(S(=O)(=O)N2CCCCC2)ccc1O

>  <score_type>  (7) 
oracle

>  <origin>  (7) 
adgpu

>  <m_score__min__energy>  (7) 
-12.880000000000001

>  <m_primary>  (7) 
energy

$$$$
7:0
     RDKit          3D

 61 65  0  0  0  0  0  0  0  0999 V2000
   -4.2783   12.1385  -32.9643 H   0  0  0  0  0  0  0  0  0  0  0  0
   -4.6630   13.1690  -32.9670 C   0  0  0  0  0  0  0  0  0  0  0  0
   -4.3820   14.0220  -31.8980 C   0  0  0  0  0  0  0  0  0  0  0  0
   -3.7741   13.6628  -31.0546 H   0  0  0  0  0  0  0  0  0  0  0  0
   -4.8720   15.3330  -31.8970 C   0  0  0  0  0  0  0  0  0  0  0  0
   -4.6445   16.0006  -31.0529 H   0  0  0  0  0  0  0  0  0  0  0  0
   -5.6540   15.8030  -32.9690 C   0  0  0  0  0  0  0  0  0  0  0  0
   -6.2040   17.1800  -32.9790 C   0  0  0  0  0  0  0  0  0  0  0  0
   -5.4800   18.2670  -33.3080 N   0  0  0  0  0  0  0  0  0  0  0  0
   -6.2650   19.3310  -33.2390 N   0  0  0  0  0  0  0  0  0  0  0  0
   -5.7450   20.6760  -33.4940 C   0  0  0  0  0  0  0  0  0  0  0  0
   -6.5360   21.4149  -33.2983 H   0  0  0  0  0  0  0  0  0  0  0  0
   -5.4206   20.7433  -34.5429 H   0  0  0  0  0  0  0  0  0  0  0  0
   -4.5690   20.9560  -32.5960 C   0  0  0  0  0  0  0  0  0  0  0  0
   -3.4400   21.6150  -33.1070 C   0  0  0  0  0  0  0  0  0  0  0  0
   -3.4247   21.9356  -34.1591 H   0  0  0  0  0  0  0  0  0  0  0  0
   -2.3350   21.8670  -32.2890 C   0  0  0  0  0  0  0  0  0  0  0  0
   -1.4588   22.3915  -32.6980 H   0  0  0  0  0  0  0  0  0  0  0  0
   -2.3390   21.4520  -30.9430 C   0  0  0  0  0  0  0  0  0  0  0  0
   -1.2570   21.6820  -30.0810 O   0  0  0  0  0  0  0  0  0  0  0  0
   -1.2070   21.2570  -28.7230 C   0  0  0  0  0  0  0  0  0  0  0  0
   -1.3097   22.1299  -28.0616 H   0  0  0  0  0  0  0  0  0  0  0  0
   -2.0283   20.5514  -28.5291 H   0  0  0  0  0  0  0  0  0  0  0  0
   -0.2443   20.7613  -28.5291 H   0  0  0  0  0  0  0  0  0  0  0  0
   -3.4600   20.7850  -30.4400 C   0  0  0  0  0  0  0  0  0  0  0  0
   -3.4704   20.4511  -29.3919 H   0  0  0  0  0  0  0  0  0  0  0  0
   -4.5690   20.5380  -31.2570 C   0  0  0  0  0  0  0  0  0  0  0  0
   -5.4448   20.0136  -30.8472 H   0  0  0  0  0  0  0  0  0  0  0  0
   -7.5070   18.9400  -32.8480 C   0  0  0  0  0  0  0  0  0  0  0  0
   -8.7150   19.7800  -32.6720 C   0  0  0  0  0  0  0  0  0  0  0  0
   -9.6540   19.6790  -33.5080 O   0  0  0  0  0  0  0  0  0  0  0  0
   -8.8570   20.6630  -31.5560 N   0  0  0  0  0  0  0  0  0  0  0  0
   -7.9810   21.7490  -31.2220 C   0  0  0  0  0  0  0  0  0  0  0  0
   -7.5870   21.9130  -29.8880 C   0  0  0  0  0  0  0  0  0  0  0  0
   -7.9797   21.2366  -29.1145 H   0  0  0  0  0  0  0  0  0  0  0  0
   -6.6970   22.9320  -29.5340 C   0  0  0  0  0  0  0  0  0  0  0  0
   -6.4042   23.0610  -28.4816 H   0  0  0  0  0  0  0  0  0  0  0  0
   -6.1770   23.7880  -30.5100 C   0  0  0  0  0  0  0  0  0  0  0  0
   -5.0320   25.0430  -30.0480 S   0  0  0  0  0  0  0  0  0  0  0  0
   -4.0170   25.2370  -31.1410 O   0  0  0  0  0  0  0  0  0  0  0  0
   -5.7720   26.3300  -29.8170 O   0  0  0  0  0  0  0  0  0  0  0  0
   -4.2280   24.5550  -28.5930 N   0  0  0  0  0  0  0  0  0  0  0  0
   -2.9450   24.6480  -28.4250 C   0  0  0  0  0  0  0  0  0  0  0  0
   -2.0890   25.1220  -29.3610 N   0  0  0  0  0  0  0  0  0  0  0  0
   -0.8210   25.1100  -28.9530 N   0  0  0  0  0  0  0  0  0  0  0  0
   -0.6700   24.6380  -27.6950 C   0  0  0  0  0  0  0  0  0  0  0  0
    0.6540   24.4740  -27.0290 C   0  0  0  0  0  0  0  0  0  0  0  0
    0.5199   24.4906  -25.9373 H   0  0  0  0  0  0  0  0  0  0  0  0
    1.0990   23.5139  -27.3292 H   0  0  0  0  0  0  0  0  0  0  0  0
    1.3198   25.2965  -27.3292 H   0  0  0  0  0  0  0  0  0  0  0  0
   -2.1490   24.1810  -27.0200 S   0  0  0  0  0  0  0  0  0  0  0  0
   -6.5560   23.6180  -31.8510 C   0  0  0  0  0  0  0  0  0  0  0  0
   -6.1513   24.2869  -32.6248 H   0  0  0  0  0  0  0  0  0  0  0  0
   -7.4470   22.6000  -32.2050 C   0  0  0  0  0  0  0  0  0  0  0  0
   -7.7316   22.4644  -33.2589 H   0  0  0  0  0  0  0  0  0  0  0  0
   -7.4990   17.5670  -32.6820 C   0  0  0  0  0  0  0  0  0  0  0  0
   -8.3384   16.9234  -32.3800 H   0  0  0  0  0  0  0  0  0  0  0  0
   -5.9250   14.9330  -34.0420 C   0  0  0  0  0  0  0  0  0  0  0  0
   -6.5299   15.2857  -34.8904 H   0  0  0  0  0  0  0  0  0  0  0  0
   -5.4320   13.6240  -34.0390 C   0  0  0  0  0  0  0  0  0  0  0  0
   -5.6507   12.9526  -34.8824 H   0  0  0  0  0  0  0  0  0  0  0  0
  1  2  1  0
  2  3  2  0
  3  4  1  0
  3  5  1  0
  5  6  1  0
  5  7  2  0
  7  8  1  0
  8  9  2  0
  9 10  1  0
 10 11  1  0
 11 12  1  0
 11 13  1  0
 11 14  1  0
 14 15  2  0
 15 16  1  0
 15 17  1  0
 17 18  1  0
 17 19  2  0
 19 20  1  0
 20 21  1  0
 21 22  1  0
 21 23  1  0
 21 24  1  0
 19 25  1  0
 25 26  1  0
 25 27  2  0
 27 28  1  0
 10 29  1  0
 29 30  1  0
 30 31  2  0
 30 32  1  0
 32 33  1  0
 33 34  2  0
 34 35  1  0
 34 36  1  0
 36 37  1  0
 36 38  2  0
 38 39  1  0
 39 40  2  0
 39 41  2  0
 39 42  1  0
 42 43  2  0
 43 44  1  0
 44 45  1  0
 45 46  2  0
 46 47  1  0
 47 48  1  0
 47 49  1  0
 47 50  1  0
 46 51  1  0
 38 52  1  0
 52 53  1  0
 52 54  2  0
 54 55  1  0
 29 56  2  0
 56 57  1  0
  7 58  1  0
 58 59  1  0
 58 60  2  0
 60 61  1  0
 60  2  1  0
 56  8  1  0
 27 14  1  0
 54 33  1  0
 51 43  1  0
M  CHG  2  32  -1  44  -1
M  END
>  <UniqueID>  (8) 
8

>  <SMILES>  (8) 
COc1ccc(Cn2nc(-c3ccccc3)cc2C(=O)[N-]c2ccc(S(=O)(=O)/N=c3\[n-]nc(C)s3)cc2)cc1

>  <Energy>  (8) 
139.379667074451

>  <Genealogy>  (8) 
COc1ccc(Cn2nc(-c3ccccc3)cc2C(=O)[N-]c2ccc(S(=O)(=O)N=c3[n-]nc(C)s3)cc2)cc1 (protonated)
COc1ccc(Cn2nc(-c3ccccc3)cc2C(=O)[N-]c2ccc(S(=O)(=O)/N=c3\[n-]nc(C)s3)cc2)cc1 (cis-trans isomerization)
COc1ccc(Cn2nc(-c3ccccc3)cc2C(=O)[N-]c2ccc(S(=O)(=O)/N=c3\[n-]nc(C)s3)cc2)cc1 (3D coordinates assigned)
COc1ccc(Cn2nc(-c3ccccc3)cc2C(=O)[N-]c2ccc(S(=O)(=O)/N=c3\[n-]nc(C)s3)cc2)cc1 (optimized conformer: 139.379667074451 kcal/mol)

>  <smiles>  (8) 
COc1ccc(Cn2nc(-c3ccccc3)cc2C(=O)Nc2ccc(S(=O)(=O)N=c3[nH]nc(C)s3)cc2)cc1

>  <score_type>  (8) 
oracle

>  <origin>  (8) 
adgpu

>  <m_score__min__energy>  (8) 
-11.82

>  <m_primary>  (8) 
energy

$$$$
8:0
     RDKit          3D

 51 53  0  0  0  0  0  0  0  0999 V2000
    1.1780   28.1760  -24.9710 C   0  0  0  0  0  0  0  0  0  0  0  0
    0.0110   27.3490  -25.4180 C   0  0  0  0  0  0  0  0  0  0  0  0
   -0.1490   27.0120  -26.7720 C   0  0  0  0  0  0  0  0  0  0  0  0
   -1.2200   26.2030  -27.1770 C   0  0  0  0  0  0  0  0  0  0  0  0
   -2.1300   25.7210  -26.2310 C   0  0  0  0  0  0  0  0  0  0  0  0
   -3.4640   24.6310  -26.7280 S   0  0  0  0  0  0  0  0  0  0  0  0
   -2.3510   23.5710  -27.6630 C   0  0  0  0  0  0  0  0  0  0  0  0
   -1.7680   22.4640  -27.0330 C   0  0  0  0  0  0  0  0  0  0  0  0
   -0.8810   21.6470  -27.7320 C   0  0  0  0  0  0  0  0  0  0  0  0
   -0.5720   21.9310  -29.0650 C   0  0  0  0  0  0  0  0  0  0  0  0
   -1.1600   23.0250  -29.7040 C   0  0  0  0  0  0  0  0  0  0  0  0
   -2.0500   23.8570  -29.0050 C   0  0  0  0  0  0  0  0  0  0  0  0
   -2.7420   24.9280  -29.6620 N   0  0  0  0  0  0  0  0  0  0  0  0
   -3.8720   24.8180  -30.5330 C   0  0  0  0  0  0  0  0  0  0  0  0
   -4.6290   25.8040  -30.7260 O   0  0  0  0  0  0  0  0  0  0  0  0
   -4.1510   23.5800  -31.1980 N   0  0  0  0  0  0  0  0  0  0  0  0
   -5.4650   23.0510  -31.4180 C   0  0  0  0  0  0  0  0  0  0  0  0
   -6.5820   23.9070  -31.4210 C   0  0  0  0  0  0  0  0  0  0  0  0
   -7.8620   23.3980  -31.6460 C   0  0  0  0  0  0  0  0  0  0  0  0
   -8.0440   22.0370  -31.8720 C   0  0  0  0  0  0  0  0  0  0  0  0
   -6.9430   21.1790  -31.8910 C   0  0  0  0  0  0  0  0  0  0  0  0
   -5.6470   21.6750  -31.6730 C   0  0  0  0  0  0  0  0  0  0  0  0
   -4.2800   20.5430  -31.7260 S   0  0  0  0  0  0  0  0  0  0  0  0
   -4.8180   19.1400  -31.8250 O   0  0  0  0  0  0  0  0  0  0  0  0
   -3.4830   20.6320  -30.4550 O   0  0  0  0  0  0  0  0  0  0  0  0
   -3.2240   20.8670  -33.0840 N   0  0  0  0  0  0  0  0  0  0  0  0
   -2.0030   21.5450  -32.6260 C   0  0  0  0  0  0  0  0  0  0  0  0
   -2.8870   19.6170  -33.7750 C   0  0  0  0  0  0  0  0  0  0  0  0
   -1.9740   26.0560  -24.8820 C   0  0  0  0  0  0  0  0  0  0  0  0
   -0.9000   26.8580  -24.4750 C   0  0  0  0  0  0  0  0  0  0  0  0
    1.2111   28.1995  -23.8718 H   0  0  0  0  0  0  0  0  0  0  0  0
    2.1090   27.7350  -25.3566 H   0  0  0  0  0  0  0  0  0  0  0  0
    1.0704   29.2006  -25.3566 H   0  0  0  0  0  0  0  0  0  0  0  0
    0.5689   27.3843  -27.5177 H   0  0  0  0  0  0  0  0  0  0  0  0
   -1.3445   25.9473  -28.2396 H   0  0  0  0  0  0  0  0  0  0  0  0
   -2.0108   22.2389  -25.9840 H   0  0  0  0  0  0  0  0  0  0  0  0
   -0.4243   20.7788  -27.2344 H   0  0  0  0  0  0  0  0  0  0  0  0
    0.1360   21.2914  -29.6123 H   0  0  0  0  0  0  0  0  0  0  0  0
   -0.9254   23.2356  -30.7578 H   0  0  0  0  0  0  0  0  0  0  0  0
   -6.4454   24.9842  -31.2449 H   0  0  0  0  0  0  0  0  0  0  0  0
   -8.7293   24.0746  -31.6447 H   0  0  0  0  0  0  0  0  0  0  0  0
   -9.0556   21.6372  -32.0357 H   0  0  0  0  0  0  0  0  0  0  0  0
   -7.0916   20.1053  -32.0783 H   0  0  0  0  0  0  0  0  0  0  0  0
   -1.9809   21.5573  -31.5263 H   0  0  0  0  0  0  0  0  0  0  0  0
   -1.1211   21.0074  -33.0045 H   0  0  0  0  0  0  0  0  0  0  0  0
   -1.9931   22.5778  -33.0045 H   0  0  0  0  0  0  0  0  0  0  0  0
   -2.6757   18.8332  -33.0327 H   0  0  0  0  0  0  0  0  0  0  0  0
   -3.7335   19.3066  -34.4051 H   0  0  0  0  0  0  0  0  0  0  0  0
   -1.9992   19.7742  -34.4051 H   0  0  0  0  0  0  0  0  0  0  0  0
   -2.6967   25.6886  -24.1386 H   0  0  0  0  0  0  0  0  0  0  0  0
   -0.7719   27.1030  -23.4103 H   0  0  0  0  0  0  0  0  0  0  0  0
  1  2  1  0
  2  3  2  0
  3  4  1  0
  4  5  2  0
  5  6  1  0
  6  7  1  0
  7  8  2  0
  8  9  1  0
  9 10  2  0
 10 11  1  0
 11 12  2  0
 12 13  1  0
 13 14  1  0
 14 15  2  0
 14 16  1  0
 16 17  1  0
 17 18  2  0
 18 19  1  0
 19 20  2  0
 20 21  1  0
 21 22  2  0
 22 23  1  0
 23 24  2  0
 23 25  2  0
 23 26  1  0
 26 27  1  0
 26 28  1  0
  5 29  1  0
 29 30  2  0
 30  2  1  0
 12  7  1  0
 22 17  1  0
  1 31  1  0
  1 32  1  0
  1 33  1  0
  3 34  1  0
  4 35  1  0
  8 36  1  0
  9 37  1  0
 10 38  1  0
 11 39  1  0
 18 40  1  0
 19 41  1  0
 20 42  1  0
 21 43  1  0
 27 44  1  0
 27 45  1  0
 27 46  1  0
 28 47  1  0
 28 48  1  0
 28 49  1  0
 29 50  1  0
 30 51  1  0
M  CHG  2  13  -1  16  -1
M  END
>  <UniqueID>  (9) 
9

>  <SMILES>  (9) 
Cc1ccc(Sc2ccccc2[N-]C(=O)[N-]c2ccccc2S(=O)(=O)N(C)C)cc1

>  <Energy>  (9) 
54.80882515408401

>  <Genealogy>  (9) 
Cc1ccc(Sc2ccccc2[N-]C(=O)[N-]c2ccccc2S(=O)(=O)N(C)C)cc1 (protonated)
Cc1ccc(Sc2ccccc2[N-]C(=O)[N-]c2ccccc2S(=O)(=O)N(C)C)cc1 (3D coordinates assigned)
Cc1ccc(Sc2ccccc2[N-]C(=O)[N-]c2ccccc2S(=O)(=O)N(C)C)cc1 (optimized conformer: 54.80882515408401 kcal/mol)

>  <smiles>  (9) 
Cc1ccc(Sc2ccccc2NC(=O)Nc2ccccc2S(=O)(=O)N(C)C)cc1

>  <score_type>  (9) 
oracle

>  <origin>  (9) 
adgpu

>  <m_score__min__energy>  (9) 
-13.07

>  <m_primary>  (9) 
energy

$$$$
9:0
     RDKit          3D

 45 48  0  0  0  0  0  0  0  0999 V2000
   -0.3020   26.8950  -27.5630 C   0  0  0  0  0  0  0  0  0  0  0  0
   -0.8830   25.6740  -28.1930 C   0  0  0  0  0  0  0  0  0  0  0  0
   -0.3280   24.4060  -28.1570 C   0  0  0  0  0  0  0  0  0  0  0  0
   -1.1870   23.6620  -28.9300 C   0  0  0  0  0  0  0  0  0  0  0  0
   -1.0650   22.4310  -29.1730 O   0  0  0  0  0  0  0  0  0  0  0  0
   -2.1810   24.4440  -29.4000 N   0  0  0  0  0  0  0  0  0  0  0  0
   -3.2730   24.0620  -30.2480 C   0  0  0  0  0  0  0  0  0  0  0  0
   -3.2110   22.8940  -30.9440 N   0  0  0  0  0  0  0  0  0  0  0  0
   -4.2220   22.4940  -31.7640 C   0  0  0  0  0  0  0  0  0  0  0  0
   -4.1000   21.2050  -32.4920 C   0  0  0  0  0  0  0  0  0  0  0  0
   -2.9180   20.9090  -33.1960 C   0  0  0  0  0  0  0  0  0  0  0  0
   -2.7860   19.7000  -33.8830 C   0  0  0  0  0  0  0  0  0  0  0  0
   -3.8320   18.7760  -33.8880 C   0  0  0  0  0  0  0  0  0  0  0  0
   -5.0250   19.0630  -33.2120 C   0  0  0  0  0  0  0  0  0  0  0  0
   -6.3480   17.9010  -33.2000 S   0  0  0  0  0  0  0  0  0  0  0  0
   -6.5130   17.3310  -34.5810 O   0  0  0  0  0  0  0  0  0  0  0  0
   -6.0320   16.7750  -32.2520 O   0  0  0  0  0  0  0  0  0  0  0  0
   -7.8180   18.7090  -32.7220 N   0  0  0  0  0  0  0  0  0  0  0  0
   -7.8990   20.0500  -33.3020 C   0  0  0  0  0  0  0  0  0  0  0  0
   -8.7580   20.8780  -32.3600 C   0  0  0  0  0  0  0  0  0  0  0  0
   -8.7430   20.1290  -31.0360 C   0  0  0  0  0  0  0  0  0  0  0  0
   -7.8710   18.9060  -31.2740 C   0  0  0  0  0  0  0  0  0  0  0  0
   -5.1560   20.2720  -32.5140 C   0  0  0  0  0  0  0  0  0  0  0  0
   -5.3620   23.3050  -31.8810 C   0  0  0  0  0  0  0  0  0  0  0  0
   -5.4110   24.5000  -31.1620 C   0  0  0  0  0  0  0  0  0  0  0  0
   -6.4190   25.2490  -31.2460 O   0  0  0  0  0  0  0  0  0  0  0  0
   -4.3710   24.8550  -30.3660 N   0  0  0  0  0  0  0  0  0  0  0  0
   -1.9950   25.6780  -28.9590 N   0  0  0  0  0  0  0  0  0  0  0  0
   -0.3474   26.7996  -26.4681 H   0  0  0  0  0  0  0  0  0  0  0  0
    0.7459   27.0070  -27.8782 H   0  0  0  0  0  0  0  0  0  0  0  0
   -0.8761   27.7788  -27.8782 H   0  0  0  0  0  0  0  0  0  0  0  0
    0.5817   24.0740  -27.6352 H   0  0  0  0  0  0  0  0  0  0  0  0
   -2.0918   21.6352  -33.2053 H   0  0  0  0  0  0  0  0  0  0  0  0
   -1.8539   19.4753  -34.4222 H   0  0  0  0  0  0  0  0  0  0  0  0
   -3.7196   17.8216  -34.4232 H   0  0  0  0  0  0  0  0  0  0  0  0
   -6.8940   20.4894  -33.3846 H   0  0  0  0  0  0  0  0  0  0  0  0
   -8.3328   20.0202  -34.3124 H   0  0  0  0  0  0  0  0  0  0  0  0
   -8.3334   21.8853  -32.2372 H   0  0  0  0  0  0  0  0  0  0  0  0
   -9.7802   21.0071  -32.7454 H   0  0  0  0  0  0  0  0  0  0  0  0
   -8.3145   20.7587  -30.2424 H   0  0  0  0  0  0  0  0  0  0  0  0
   -9.7567   19.8518  -30.7112 H   0  0  0  0  0  0  0  0  0  0  0  0
   -6.8597   19.0772  -30.8766 H   0  0  0  0  0  0  0  0  0  0  0  0
   -8.2813   18.0203  -30.7669 H   0  0  0  0  0  0  0  0  0  0  0  0
   -6.0911   20.4941  -31.9790 H   0  0  0  0  0  0  0  0  0  0  0  0
   -6.2002   23.0043  -32.5268 H   0  0  0  0  0  0  0  0  0  0  0  0
  1  2  1  0
  2  3  2  0
  3  4  1  0
  4  5  2  0
  4  6  1  0
  6  7  1  0
  7  8  2  0
  8  9  1  0
  9 10  1  0
 10 11  2  0
 11 12  1  0
 12 13  2  0
 13 14  1  0
 14 15  1  0
 15 16  2  0
 15 17  2  0
 15 18  1  0
 18 19  1  0
 19 20  1  0
 20 21  1  0
 21 22  1  0
 14 23  2  0
  9 24  2  0
 24 25  1  0
 25 26  2  0
 25 27  1  0
  6 28  1  0
 28  2  1  0
 27  7  1  0
 23 10  1  0
 22 18  1  0
  1 29  1  0
  1 30  1  0
  1 31  1  0
  3 32  1  0
 11 33  1  0
 12 34  1  0
 13 35  1  0
 19 36  1  0
 19 37  1  0
 20 38  1  0
 20 39  1  0
 21 40  1  0
 21 41  1  0
 22 42  1  0
 22 43  1  0
 23 44  1  0
 24 45  1  0
M  CHG  2  27  -1  28  -1
M  END
>  <UniqueID>  (10) 
10

>  <SMILES>  (10) 
Cc1cc(=O)n(-c2nc(-c3cccc(S(=O)(=O)N4CCCC4)c3)cc(=O)[n-]2)[n-]1

>  <Energy>  (10) 
84.64036833991746

>  <Genealogy>  (10) 
Cc1cc(=O)n(-c2nc(-c3cccc(S(=O)(=O)N4CCCC4)c3)cc(=O)[n-]2)[n-]1 (protonated)
Cc1cc(=O)n(-c2nc(-c3cccc(S(=O)(=O)N4CCCC4)c3)cc(=O)[n-]2)[n-]1 (3D coordinates assigned)
Cc1cc(=O)n(-c2nc(-c3cccc(S(=O)(=O)N4CCCC4)c3)cc(=O)[n-]2)[n-]1 (nonaromatic ring conformer: 84.64036833991746 kcal/mol)

>  <smiles>  (10) 
Cc1cc(=O)n(-c2nc(-c3cccc(S(=O)(=O)N4CCCC4)c3)cc(=O)[nH]2)[nH]1

>  <score_type>  (10) 
oracle

>  <origin>  (10) 
adgpu

>  <m_score__min__energy>  (10) 
-12.42

>  <m_primary>  (10) 
energy

$$$$
10:0
     RDKit          3D

 51 54  0  0  0  0  0  0  0  0999 V2000
   -3.8860   24.5500  -27.4220 C   0  0  0  0  0  0  0  0  0  0  0  0
   -3.5100   23.2270  -28.0040 C   0  0  0  0  0  0  0  0  0  0  0  0
   -3.2060   22.1460  -27.2560 N   0  0  0  0  0  0  0  0  0  0  0  0
   -2.9570   21.1400  -28.0800 N   0  0  0  0  0  0  0  0  0  0  0  0
   -2.6780   19.7860  -27.6150 C   0  0  0  0  0  0  0  0  0  0  0  0
   -3.0920   21.5650  -29.3580 C   0  0  0  0  0  0  0  0  0  0  0  0
   -2.9720   20.7660  -30.5020 O   0  0  0  0  0  0  0  0  0  0  0  0
   -1.7830   20.5770  -31.2170 C   0  0  0  0  0  0  0  0  0  0  0  0
   -0.5710   20.2910  -30.5630 C   0  0  0  0  0  0  0  0  0  0  0  0
    0.6050   20.1150  -31.2990 C   0  0  0  0  0  0  0  0  0  0  0  0
    0.5770   20.2120  -32.6910 C   0  0  0  0  0  0  0  0  0  0  0  0
   -0.6220   20.4980  -33.3480 C   0  0  0  0  0  0  0  0  0  0  0  0
   -1.7960   20.7040  -32.6150 C   0  0  0  0  0  0  0  0  0  0  0  0
   -3.2850   21.0910  -33.4600 Cl  0  0  0  0  0  0  0  0  0  0  0  0
   -3.4610   22.8950  -29.3510 C   0  0  0  0  0  0  0  0  0  0  0  0
   -3.7930   23.7530  -30.5070 C   0  0  0  0  0  0  0  0  0  0  0  0
   -3.5330   24.9840  -30.4550 O   0  0  0  0  0  0  0  0  0  0  0  0
   -4.4570   23.2410  -31.6700 N   0  0  0  0  0  0  0  0  0  0  0  0
   -5.8380   22.8630  -31.7720 C   0  0  0  0  0  0  0  0  0  0  0  0
   -6.8600   23.8150  -31.9370 C   0  0  0  0  0  0  0  0  0  0  0  0
   -8.1960   23.4090  -31.9960 C   0  0  0  0  0  0  0  0  0  0  0  0
   -8.5310   22.0560  -31.8530 C   0  0  0  0  0  0  0  0  0  0  0  0
   -9.8650   21.6540  -31.8970 O   0  0  0  0  0  0  0  0  0  0  0  0
   -7.5170   21.1070  -31.6510 C   0  0  0  0  0  0  0  0  0  0  0  0
   -7.9260   19.3900  -31.3270 S   0  0  0  0  0  0  0  0  0  0  0  0
   -6.6920   18.7420  -32.4540 C   0  0  0  0  0  0  0  0  0  0  0  0
   -5.7580   17.8000  -32.0050 C   0  0  0  0  0  0  0  0  0  0  0  0
   -4.7410   17.3610  -32.8600 C   0  0  0  0  0  0  0  0  0  0  0  0
   -4.6540   17.8660  -34.1600 C   0  0  0  0  0  0  0  0  0  0  0  0
   -5.5980   18.7920  -34.6170 C   0  0  0  0  0  0  0  0  0  0  0  0
   -6.6150   19.2310  -33.7640 C   0  0  0  0  0  0  0  0  0  0  0  0
   -6.1770   21.5140  -31.6150 C   0  0  0  0  0  0  0  0  0  0  0  0
   -3.8678   24.4861  -26.3240 H   0  0  0  0  0  0  0  0  0  0  0  0
   -3.1696   25.3147  -27.7567 H   0  0  0  0  0  0  0  0  0  0  0  0
   -4.8975   24.8237  -27.7567 H   0  0  0  0  0  0  0  0  0  0  0  0
   -2.6746   19.7695  -26.5151 H   0  0  0  0  0  0  0  0  0  0  0  0
   -3.4542   19.1024  -27.9896 H   0  0  0  0  0  0  0  0  0  0  0  0
   -1.6948   19.4650  -27.9896 H   0  0  0  0  0  0  0  0  0  0  0  0
   -0.5481   20.2053  -29.4666 H   0  0  0  0  0  0  0  0  0  0  0  0
    1.5514   19.9003  -30.7812 H   0  0  0  0  0  0  0  0  0  0  0  0
    1.4997   20.0631  -33.2711 H   0  0  0  0  0  0  0  0  0  0  0  0
   -0.6434   20.5615  -34.4460 H   0  0  0  0  0  0  0  0  0  0  0  0
   -6.6070   24.8823  -32.0199 H   0  0  0  0  0  0  0  0  0  0  0  0
   -8.9883   24.1552  -32.1555 H   0  0  0  0  0  0  0  0  0  0  0  0
  -10.1240   20.6750  -31.9000 H   0  0  0  0  0  0  0  0  0  0  0  0
   -5.8239   17.4053  -30.9804 H   0  0  0  0  0  0  0  0  0  0  0  0
   -4.0098   16.6181  -32.5086 H   0  0  0  0  0  0  0  0  0  0  0  0
   -3.8425   17.5351  -34.8248 H   0  0  0  0  0  0  0  0  0  0  0  0
   -5.5401   19.1744  -35.6468 H   0  0  0  0  0  0  0  0  0  0  0  0
   -7.3555   19.9613  -34.1222 H   0  0  0  0  0  0  0  0  0  0  0  0
   -5.3843   20.7669  -31.4620 H   0  0  0  0  0  0  0  0  0  0  0  0
  1  2  1  0
  2  3  2  0
  3  4  1  0
  4  5  1  0
  4  6  1  0
  6  7  1  0
  7  8  1  0
  8  9  2  0
  9 10  1  0
 10 11  2  0
 11 12  1  0
 12 13  2  0
 13 14  1  0
  6 15  2  0
 15 16  1  0
 16 17  2  0
 16 18  1  0
 18 19  1  0
 19 20  2  0
 20 21  1  0
 21 22  2  0
 22 23  1  0
 22 24  1  0
 24 25  1  0
 25 26  1  0
 26 27  2  0
 27 28  1  0
 28 29  2  0
 29 30  1  0
 30 31  2  0
 24 32  2  0
 15  2  1  0
 32 19  1  0
 13  8  1  0
 31 26  1  0
  1 33  1  0
  1 34  1  0
  1 35  1  0
  5 36  1  0
  5 37  1  0
  5 38  1  0
  9 39  1  0
 10 40  1  0
 11 41  1  0
 12 42  1  0
 20 43  1  0
 21 44  1  0
 23 45  1  0
 27 46  1  0
 28 47  1  0
 29 48  1  0
 30 49  1  0
 31 50  1  0
 32 51  1  0
M  CHG  1  18  -1
M  END
>  <UniqueID>  (11) 
11

>  <SMILES>  (11) 
Cc1nn(C)c(Oc2ccccc2Cl)c1C(=O)[N-]c1ccc(O)c(Sc2ccccc2)c1

>  <Energy>  (11) 
87.10853156346258

>  <Genealogy>  (11) 
Cc1nn(C)c(Oc2ccccc2Cl)c1C(=O)[N-]c1ccc(O)c(Sc2ccccc2)c1 (protonated)
Cc1nn(C)c(Oc2ccccc2Cl)c1C(=O)[N-]c1ccc(O)c(Sc2ccccc2)c1 (3D coordinates assigned)
Cc1nn(C)c(Oc2ccccc2Cl)c1C(=O)[N-]c1ccc(O)c(Sc2ccccc2)c1 (optimized conformer: 87.10853156346258 kcal/mol)

>  <smiles>  (11) 
Cc1nn(C)c(Oc2ccccc2Cl)c1C(=O)Nc1ccc(O)c(Sc2ccccc2)c1

>  <score_type>  (11) 
oracle

>  <origin>  (11) 
adgpu

>  <m_score__min__energy>  (11) 
-10.720000000000001

>  <m_primary>  (11) 
energy

$$$$
11:0
     RDKit          3D

 59 62  0  0  0  0  0  0  0  0999 V2000
   -0.9360   17.2240  -32.2800 O   0  0  0  0  0  0  0  0  0  0  0  0
   -1.3180   17.5940  -33.4240 C   0  0  0  0  0  0  0  0  0  0  0  0
   -2.3340   16.8390  -34.1090 N   0  0  0  0  0  0  0  0  0  0  0  0
   -3.1210   15.8420  -33.4440 C   0  0  0  0  0  0  0  0  0  0  0  0
   -2.4890   14.7800  -32.7770 C   0  0  0  0  0  0  0  0  0  0  0  0
   -3.2470   13.7910  -32.1460 C   0  0  0  0  0  0  0  0  0  0  0  0
   -4.6410   13.8500  -32.1800 C   0  0  0  0  0  0  0  0  0  0  0  0
   -5.2820   14.8990  -32.8430 C   0  0  0  0  0  0  0  0  0  0  0  0
   -4.5320   15.9030  -33.4780 C   0  0  0  0  0  0  0  0  0  0  0  0
   -5.3660   17.2390  -34.2820 S   0  0  0  0  0  0  0  0  0  0  0  0
   -4.6540   17.5420  -35.5710 O   0  0  0  0  0  0  0  0  0  0  0  0
   -6.7860   16.8480  -34.5910 O   0  0  0  0  0  0  0  0  0  0  0  0
   -5.3570   18.6520  -33.2570 N   0  0  0  0  0  0  0  0  0  0  0  0
   -6.6110   19.4060  -33.4130 C   0  0  0  0  0  0  0  0  0  0  0  0
   -6.5500   20.7280  -32.6210 C   0  0  0  0  0  0  0  0  0  0  0  0
   -5.3580   20.8250  -31.8650 O   0  0  0  0  0  0  0  0  0  0  0  0
   -4.2380   20.7930  -32.7300 C   0  0  0  0  0  0  0  0  0  0  0  0
   -4.2070   19.5070  -33.5830 C   0  0  0  0  0  0  0  0  0  0  0  0
   -0.7200   18.8140  -34.0250 C   0  0  0  0  0  0  0  0  0  0  0  0
   -0.8540   20.0790  -33.4200 C   0  0  0  0  0  0  0  0  0  0  0  0
   -0.2520   21.2060  -33.9870 C   0  0  0  0  0  0  0  0  0  0  0  0
    0.4850   21.0950  -35.1730 C   0  0  0  0  0  0  0  0  0  0  0  0
    1.1700   22.2940  -35.7590 C   0  0  0  0  0  0  0  0  0  0  0  0
    0.2580   23.4330  -35.7140 N   0  0  0  0  0  0  0  0  0  0  0  0
    1.0940   24.8770  -36.1890 S   0  0  0  0  0  0  0  0  0  0  0  0
    1.6760   24.6820  -37.5600 O   0  0  0  0  0  0  0  0  0  0  0  0
    2.2120   25.1570  -35.2240 O   0  0  0  0  0  0  0  0  0  0  0  0
   -0.0360   26.2260  -36.2330 C   0  0  0  0  0  0  0  0  0  0  0  0
   -0.1030   27.1080  -35.1450 C   0  0  0  0  0  0  0  0  0  0  0  0
   -0.9850   28.1950  -35.1730 C   0  0  0  0  0  0  0  0  0  0  0  0
   -1.8000   28.4080  -36.2890 C   0  0  0  0  0  0  0  0  0  0  0  0
   -1.7320   27.5340  -37.3780 C   0  0  0  0  0  0  0  0  0  0  0  0
   -0.8520   26.4450  -37.3530 C   0  0  0  0  0  0  0  0  0  0  0  0
    0.6400   19.8360  -35.7700 C   0  0  0  0  0  0  0  0  0  0  0  0
    0.0410   18.7070  -35.2040 C   0  0  0  0  0  0  0  0  0  0  0  0
   -2.5990   17.0840  -35.0880 H   0  0  0  0  0  0  0  0  0  0  0  0
   -1.3906   14.7267  -32.7513 H   0  0  0  0  0  0  0  0  0  0  0  0
   -2.7447   12.9647  -31.6217 H   0  0  0  0  0  0  0  0  0  0  0  0
   -5.2359   13.0690  -31.6838 H   0  0  0  0  0  0  0  0  0  0  0  0
   -6.3810   14.9393  -32.8681 H   0  0  0  0  0  0  0  0  0  0  0  0
   -6.7686   19.6295  -34.4785 H   0  0  0  0  0  0  0  0  0  0  0  0
   -7.4417   18.7978  -33.0256 H   0  0  0  0  0  0  0  0  0  0  0  0
   -6.5949   21.5702  -33.3272 H   0  0  0  0  0  0  0  0  0  0  0  0
   -7.4024   20.7537  -31.9262 H   0  0  0  0  0  0  0  0  0  0  0  0
   -4.2815   21.6638  -33.4007 H   0  0  0  0  0  0  0  0  0  0  0  0
   -3.3285   20.8142  -32.1116 H   0  0  0  0  0  0  0  0  0  0  0  0
   -4.2460   19.7771  -34.6486 H   0  0  0  0  0  0  0  0  0  0  0  0
   -3.2791   18.9567  -33.3679 H   0  0  0  0  0  0  0  0  0  0  0  0
   -1.4375   20.1809  -32.4931 H   0  0  0  0  0  0  0  0  0  0  0  0
   -0.3577   22.1861  -33.4988 H   0  0  0  0  0  0  0  0  0  0  0  0
    2.0747   22.5229  -35.1766 H   0  0  0  0  0  0  0  0  0  0  0  0
    1.4539   22.0868  -36.8013 H   0  0  0  0  0  0  0  0  0  0  0  0
    0.5393   26.9454  -34.2669 H   0  0  0  0  0  0  0  0  0  0  0  0
   -1.0369   28.8824  -34.3158 H   0  0  0  0  0  0  0  0  0  0  0  0
   -2.4934   29.2617  -36.3101 H   0  0  0  0  0  0  0  0  0  0  0  0
   -2.3716   27.7022  -38.2570 H   0  0  0  0  0  0  0  0  0  0  0  0
   -0.8005   25.7605  -38.2125 H   0  0  0  0  0  0  0  0  0  0  0  0
    1.2363   19.7361  -36.6889 H   0  0  0  0  0  0  0  0  0  0  0  0
    0.1656   17.7255  -35.6847 H   0  0  0  0  0  0  0  0  0  0  0  0
  1  2  2  0
  2  3  1  0
  3  4  1  0
  4  5  2  0
  5  6  1  0
  6  7  2  0
  7  8  1  0
  8  9  2  0
  9 10  1  0
 10 11  2  0
 10 12  2  0
 10 13  1  0
 13 14  1  0
 14 15  1  0
 15 16  1  0
 16 17  1  0
 17 18  1  0
  2 19  1  0
 19 20  2  0
 20 21  1  0
 21 22  2  0
 22 23  1  0
 23 24  1  0
 24 25  1  0
 25 26  2  0
 25 27  2  0
 25 28  1  0
 28 29  2  0
 29 30  1  0
 30 31  2  0
 31 32  1  0
 32 33  2  0
 22 34  1  0
 34 35  2  0
  9  4  1  0
 18 13  1  0
 35 19  1  0
 33 28  1  0
  3 36  1  0
  5 37  1  0
  6 38  1  0
  7 39  1  0
  8 40  1  0
 14 41  1  0
 14 42  1  0
 15 43  1  0
 15 44  1  0
 17 45  1  0
 17 46  1  0
 18 47  1  0
 18 48  1  0
 20 49  1  0
 21 50  1  0
 23 51  1  0
 23 52  1  0
 29 53  1  0
 30 54  1  0
 31 55  1  0
 32 56  1  0
 33 57  1  0
 34 58  1  0
 35 59  1  0
M  CHG  1  24  -1
M  END
>  <UniqueID>  (12) 
12

>  <SMILES>  (12) 
O=C(Nc1ccccc1S(=O)(=O)N1CCOCC1)c1ccc(C[N-]S(=O)(=O)c2ccccc2)cc1

>  <Energy>  (12) 
72.14089187718527

>  <Genealogy>  (12) 
O=C(Nc1ccccc1S(=O)(=O)N1CCOCC1)c1ccc(C[N-]S(=O)(=O)c2ccccc2)cc1 (protonated)
O=C(Nc1ccccc1S(=O)(=O)N1CCOCC1)c1ccc(C[N-]S(=O)(=O)c2ccccc2)cc1 (3D coordinates assigned)
O=C(Nc1ccccc1S(=O)(=O)N1CCOCC1)c1ccc(C[N-]S(=O)(=O)c2ccccc2)cc1 (nonaromatic ring conformer: 72.14089187718527 kcal/mol)

>  <smiles>  (12) 
O=C(Nc1ccccc1S(=O)(=O)N1CCOCC1)c1ccc(CNS(=O)(=O)c2ccccc2)cc1

>  <score_type>  (12) 
oracle

>  <origin>  (12) 
adgpu

>  <m_score__min__energy>  (12) 
-11.19

>  <m_primary>  (12) 
energy

$$$$
12:0
     RDKit          3D

 31 32  0  0  0  0  0  0  0  0999 V2000
   -5.2110   17.1490  -34.3580 C   0  0  0  0  0  0  0  0  0  0  0  0
   -6.0000   18.2640  -33.7370 C   0  0  0  0  0  0  0  0  0  0  0  0
   -5.5490   19.5870  -33.8380 C   0  0  0  0  0  0  0  0  0  0  0  0
   -6.2610   20.6230  -33.2310 C   0  0  0  0  0  0  0  0  0  0  0  0
   -7.4330   20.3520  -32.4990 C   0  0  0  0  0  0  0  0  0  0  0  0
   -8.1780   21.3710  -31.8770 O   0  0  0  0  0  0  0  0  0  0  0  0
   -7.9620   21.8610  -30.5530 C   0  0  0  0  0  0  0  0  0  0  0  0
   -6.7950   22.8050  -30.5240 C   0  0  0  0  0  0  0  0  0  0  0  0
   -6.9790   24.1590  -30.2070 C   0  0  0  0  0  0  0  0  0  0  0  0
   -5.8680   25.0050  -30.1970 C   0  0  0  0  0  0  0  0  0  0  0  0
   -6.0030   26.2240  -29.9100 O   0  0  0  0  0  0  0  0  0  0  0  0
   -4.6100   24.4850  -30.5100 C   0  0  0  0  0  0  0  0  0  0  0  0
   -3.4820   25.2980  -30.5100 O   0  0  0  0  0  0  0  0  0  0  0  0
   -4.5020   23.1290  -30.8260 C   0  0  0  0  0  0  0  0  0  0  0  0
   -5.5810   22.3500  -30.8250 O   0  0  0  0  0  0  0  0  0  0  0  0
   -7.8770   19.0200  -32.3780 C   0  0  0  0  0  0  0  0  0  0  0  0
   -9.1210   18.7080  -31.5940 C   0  0  0  0  0  0  0  0  0  0  0  0
   -7.1540   17.9850  -32.9920 C   0  0  0  0  0  0  0  0  0  0  0  0
   -4.7703   16.5262  -33.5657 H   0  0  0  0  0  0  0  0  0  0  0  0
   -5.8753   16.5329  -34.9818 H   0  0  0  0  0  0  0  0  0  0  0  0
   -4.4090   17.5705  -34.9818 H   0  0  0  0  0  0  0  0  0  0  0  0
   -4.6292   19.8103  -34.3985 H   0  0  0  0  0  0  0  0  0  0  0  0
   -5.9037   21.6591  -33.3252 H   0  0  0  0  0  0  0  0  0  0  0  0
   -8.8639   22.3902  -30.2115 H   0  0  0  0  0  0  0  0  0  0  0  0
   -7.7469   21.0100  -29.8901 H   0  0  0  0  0  0  0  0  0  0  0  0
   -7.9806   24.5475  -29.9705 H   0  0  0  0  0  0  0  0  0  0  0  0
   -3.5197   22.7024  -31.0771 H   0  0  0  0  0  0  0  0  0  0  0  0
   -8.8998   18.7635  -30.5179 H   0  0  0  0  0  0  0  0  0  0  0  0
   -9.9053   19.4373  -31.8452 H   0  0  0  0  0  0  0  0  0  0  0  0
   -9.4683   17.6949  -31.8452 H   0  0  0  0  0  0  0  0  0  0  0  0
   -7.4965   16.9449  -32.8874 H   0  0  0  0  0  0  0  0  0  0  0  0
  1  2  1  0
  2  3  2  0
  3  4  1  0
  4  5  2  0
  5  6  1  0
  6  7  1  0
  7  8  1  0
  8  9  2  0
  9 10  1  0
 10 11  2  0
 10 12  1  0
 12 13  1  0
 12 14  2  0
 14 15  1  0
  5 16  1  0
 16 17  1  0
 16 18  2  0
 18  2  1  0
 15  8  1  0
  1 19  1  0
  1 20  1  0
  1 21  1  0
  3 22  1  0
  4 23  1  0
  7 24  1  0
  7 25  1  0
  9 26  1  0
 14 27  1  0
 17 28  1  0
 17 29  1  0
 17 30  1  0
 18 31  1  0
M  CHG  1  13  -1
M  END
>  <UniqueID>  (13) 
13

>  <SMILES>  (13) 
Cc1ccc(OCc2cc(=O)c([O-])co2)c(C)c1

>  <Energy>  (13) 
31.869719061811885

>  <Genealogy>  (13) 
Cc1ccc(OCc2cc(=O)c([O-])co2)c(C)c1 (protonated)
Cc1ccc(OCc2cc(=O)c([O-])co2)c(C)c1 (3D coordinates assigned)
Cc1ccc(OCc2cc(=O)c([O-])co2)c(C)c1 (optimized conformer: 31.869719061811885 kcal/mol)

>  <smiles>  (13) 
Cc1ccc(OCc2cc(=O)c(O)co2)c(C)c1

>  <score_type>  (13) 
oracle

>  <origin>  (13) 
adgpu

>  <m_score__min__energy>  (13) 
-10.199999999999999

>  <m_primary>  (13) 
energy

$$$$
13:0
     RDKit          3D

 42 45  0  0  0  0  0  0  0  0999 V2000
   -0.5850   24.8780  -28.0300 O   0  0  0  0  0  0  0  0  0  0  0  0
   -1.3690   24.2950  -28.8210 C   0  0  0  0  0  0  0  0  0  0  0  0
   -2.4810   25.0220  -29.3590 N   0  0  0  0  0  0  0  0  0  0  0  0
   -3.6620   24.4360  -29.9260 C   0  0  0  0  0  0  0  0  0  0  0  0
   -4.9450   24.9180  -29.6110 C   0  0  0  0  0  0  0  0  0  0  0  0
   -6.0760   24.3320  -30.1870 C   0  0  0  0  0  0  0  0  0  0  0  0
   -5.9370   23.2690  -31.0810 C   0  0  0  0  0  0  0  0  0  0  0  0
   -4.6610   22.7860  -31.4080 C   0  0  0  0  0  0  0  0  0  0  0  0
   -4.4690   21.4190  -32.5010 S   0  0  0  0  0  0  0  0  0  0  0  0
   -3.4680   21.7260  -33.5780 O   0  0  0  0  0  0  0  0  0  0  0  0
   -3.9850   20.2340  -31.7140 O   0  0  0  0  0  0  0  0  0  0  0  0
   -5.9960   21.0360  -33.2290 N   0  0  0  0  0  0  0  0  0  0  0  0
   -6.9410   20.0790  -32.7270 C   0  0  0  0  0  0  0  0  0  0  0  0
   -8.2230   20.4660  -32.2920 C   0  0  0  0  0  0  0  0  0  0  0  0
   -9.1200   19.5160  -31.7960 C   0  0  0  0  0  0  0  0  0  0  0  0
   -8.7520   18.1680  -31.7400 C   0  0  0  0  0  0  0  0  0  0  0  0
   -7.4880   17.7710  -32.1820 C   0  0  0  0  0  0  0  0  0  0  0  0
   -6.5800   18.7170  -32.6740 C   0  0  0  0  0  0  0  0  0  0  0  0
   -5.3250   18.2800  -33.1020 O   0  0  0  0  0  0  0  0  0  0  0  0
   -3.5270   23.3830  -30.8390 C   0  0  0  0  0  0  0  0  0  0  0  0
   -1.1140   22.8860  -29.1750 C   0  0  0  0  0  0  0  0  0  0  0  0
   -0.7610   22.5490  -30.4480 N   0  0  0  0  0  0  0  0  0  0  0  0
   -0.5070   20.9020  -30.4360 S   0  0  0  0  0  0  0  0  0  0  0  0
   -0.8470   20.5880  -28.8420 C   0  0  0  0  0  0  0  0  0  0  0  0
   -0.8550   19.3840  -28.1460 C   0  0  0  0  0  0  0  0  0  0  0  0
   -1.2370   19.4120  -26.7950 C   0  0  0  0  0  0  0  0  0  0  0  0
   -1.6200   20.6260  -26.1920 C   0  0  0  0  0  0  0  0  0  0  0  0
   -1.6040   21.8250  -26.9230 C   0  0  0  0  0  0  0  0  0  0  0  0
   -1.1890   21.7990  -28.2630 C   0  0  0  0  0  0  0  0  0  0  0  0
   -5.0589   25.7579  -28.9099 H   0  0  0  0  0  0  0  0  0  0  0  0
   -7.0780   24.7095  -29.9351 H   0  0  0  0  0  0  0  0  0  0  0  0
   -6.8297   22.8091  -31.5300 H   0  0  0  0  0  0  0  0  0  0  0  0
   -8.5207   21.5237  -32.3429 H   0  0  0  0  0  0  0  0  0  0  0  0
  -10.1160   19.8287  -31.4495 H   0  0  0  0  0  0  0  0  0  0  0  0
   -9.4577   17.4207  -31.3480 H   0  0  0  0  0  0  0  0  0  0  0  0
   -7.2040   16.7090  -32.1435 H   0  0  0  0  0  0  0  0  0  0  0  0
   -4.5760   18.9220  -33.3270 H   0  0  0  0  0  0  0  0  0  0  0  0
   -2.5245   23.0216  -31.1117 H   0  0  0  0  0  0  0  0  0  0  0  0
   -0.5716   18.4415  -28.6373 H   0  0  0  0  0  0  0  0  0  0  0  0
   -1.2371   18.4831  -26.2058 H   0  0  0  0  0  0  0  0  0  0  0  0
   -1.9348   20.6350  -25.1380 H   0  0  0  0  0  0  0  0  0  0  0  0
   -1.9122   22.7702  -26.4522 H   0  0  0  0  0  0  0  0  0  0  0  0
  1  2  2  0
  2  3  1  0
  3  4  1  0
  4  5  2  0
  5  6  1  0
  6  7  2  0
  7  8  1  0
  8  9  1  0
  9 10  2  0
  9 11  2  0
  9 12  1  0
 12 13  1  0
 13 14  2  0
 14 15  1  0
 15 16  2  0
 16 17  1  0
 17 18  2  0
 18 19  1  0
  8 20  2  0
  2 21  1  0
 21 22  2  0
 22 23  1  0
 23 24  1  0
 24 25  2  0
 25 26  1  0
 26 27  2  0
 27 28  1  0
 28 29  2  0
 20  4  1  0
 29 21  1  0
 18 13  1  0
 29 24  1  0
  5 30  1  0
  6 31  1  0
  7 32  1  0
 14 33  1  0
 15 34  1  0
 16 35  1  0
 17 36  1  0
 19 37  1  0
 20 38  1  0
 25 39  1  0
 26 40  1  0
 27 41  1  0
 28 42  1  0
M  CHG  2   3  -1  12  -1
M  END
>  <UniqueID>  (14) 
14

>  <SMILES>  (14) 
O=C([N-]c1cccc(S(=O)(=O)[N-]c2ccccc2O)c1)c1nsc2ccccc12

>  <Energy>  (14) 
92.91092910232851

>  <Genealogy>  (14) 
O=C([N-]c1cccc(S(=O)(=O)[N-]c2ccccc2O)c1)c1nsc2ccccc12 (protonated)
O=C([N-]c1cccc(S(=O)(=O)[N-]c2ccccc2O)c1)c1nsc2ccccc12 (3D coordinates assigned)
O=C([N-]c1cccc(S(=O)(=O)[N-]c2ccccc2O)c1)c1nsc2ccccc12 (optimized conformer: 92.91092910232851 kcal/mol)

>  <smiles>  (14) 
O=C(Nc1cccc(S(=O)(=O)Nc2ccccc2O)c1)c1nsc2ccccc12

>  <score_type>  (14) 
oracle

>  <origin>  (14) 
adgpu

>  <m_score__min__energy>  (14) 
-11.67

>  <m_primary>  (14) 
energy

$$$$
14:0
     RDKit          3D

 36 38  0  0  0  0  0  0  0  0999 V2000
   -7.1560   22.1780  -32.2480 C   0  0  0  0  0  0  0  0  0  0  0  0
   -7.9840   20.9820  -32.3490 N   0  0  0  0  0  0  0  0  0  0  0  0
   -9.2740   20.9470  -32.0670 N   0  0  0  0  0  0  0  0  0  0  0  0
   -9.7330   19.7310  -32.3190 N   0  0  0  0  0  0  0  0  0  0  0  0
   -8.7520   18.9590  -32.7680 N   0  0  0  0  0  0  0  0  0  0  0  0
   -7.6570   19.7440  -32.7730 C   0  0  0  0  0  0  0  0  0  0  0  0
   -6.3260   19.2910  -33.2310 C   0  0  0  0  0  0  0  0  0  0  0  0
   -6.2300   18.3400  -34.2570 C   0  0  0  0  0  0  0  0  0  0  0  0
   -4.9790   17.9040  -34.7000 C   0  0  0  0  0  0  0  0  0  0  0  0
   -3.8100   18.4090  -34.1210 C   0  0  0  0  0  0  0  0  0  0  0  0
   -2.5760   17.9590  -34.5770 O   0  0  0  0  0  0  0  0  0  0  0  0
   -3.8920   19.3540  -33.0840 C   0  0  0  0  0  0  0  0  0  0  0  0
   -2.4320   20.0150  -32.3430 S   0  0  0  0  0  0  0  0  0  0  0  0
   -1.3620   18.9600  -32.3530 O   0  0  0  0  0  0  0  0  0  0  0  0
   -1.9460   21.2170  -33.1060 O   0  0  0  0  0  0  0  0  0  0  0  0
   -2.7430   20.4830  -30.7020 N   0  0  0  0  0  0  0  0  0  0  0  0
   -2.4510   21.7710  -30.1420 C   0  0  0  0  0  0  0  0  0  0  0  0
   -1.4900   21.8600  -29.1310 C   0  0  0  0  0  0  0  0  0  0  0  0
   -1.1970   23.0890  -28.5360 C   0  0  0  0  0  0  0  0  0  0  0  0
   -1.8590   24.2610  -28.9430 C   0  0  0  0  0  0  0  0  0  0  0  0
   -1.5380   25.5530  -28.2840 C   0  0  0  0  0  0  0  0  0  0  0  0
   -1.2060   26.5550  -28.9740 O   0  0  0  0  0  0  0  0  0  0  0  0
   -1.5940   25.6870  -26.9020 O   0  0  0  0  0  0  0  0  0  0  0  0
   -2.8220   24.1720  -29.9730 C   0  0  0  0  0  0  0  0  0  0  0  0
   -3.5060   25.2980  -30.4180 O   0  0  0  0  0  0  0  0  0  0  0  0
   -3.1100   22.9370  -30.5650 C   0  0  0  0  0  0  0  0  0  0  0  0
   -5.1520   19.7720  -32.6290 C   0  0  0  0  0  0  0  0  0  0  0  0
   -6.9887   22.4197  -31.1880 H   0  0  0  0  0  0  0  0  0  0  0  0
   -6.1889   21.9970  -32.7399 H   0  0  0  0  0  0  0  0  0  0  0  0
   -7.6658   23.0195  -32.7399 H   0  0  0  0  0  0  0  0  0  0  0  0
   -7.1444   17.9353  -34.7153 H   0  0  0  0  0  0  0  0  0  0  0  0
   -4.9128   17.1602  -35.5077 H   0  0  0  0  0  0  0  0  0  0  0  0
   -0.9600   20.9543  -28.8012 H   0  0  0  0  0  0  0  0  0  0  0  0
   -0.4397   23.1409  -27.7399 H   0  0  0  0  0  0  0  0  0  0  0  0
   -3.8590   22.8790  -31.3685 H   0  0  0  0  0  0  0  0  0  0  0  0
   -5.2207   20.4833  -31.7927 H   0  0  0  0  0  0  0  0  0  0  0  0
  1  2  1  0
  2  3  1  0
  3  4  2  0
  4  5  1  0
  5  6  2  0
  6  7  1  0
  7  8  2  0
  8  9  1  0
  9 10  2  0
 10 11  1  0
 10 12  1  0
 12 13  1  0
 13 14  2  0
 13 15  2  0
 13 16  1  0
 16 17  1  0
 17 18  2  0
 18 19  1  0
 19 20  2  0
 20 21  1  0
 21 22  2  0
 21 23  1  0
 20 24  1  0
 24 25  1  0
 24 26  2  0
 12 27  2  0
  6  2  1  0
 27  7  1  0
 26 17  1  0
  1 28  1  0
  1 29  1  0
  1 30  1  0
  8 31  1  0
  9 32  1  0
 18 33  1  0
 19 34  1  0
 26 35  1  0
 27 36  1  0
M  CHG  4  11  -1  16  -1  23  -1  25  -1
M  END
>  <UniqueID>  (15) 
15

>  <SMILES>  (15) 
Cn1nnnc1-c1ccc([O-])c(S(=O)(=O)[N-]c2ccc(C(=O)[O-])c([O-])c2)c1

>  <Energy>  (15) 
86.89441753448129

>  <Genealogy>  (15) 
Cn1nnnc1-c1ccc([O-])c(S(=O)(=O)[N-]c2ccc(C(=O)[O-])c([O-])c2)c1 (protonated)
Cn1nnnc1-c1ccc([O-])c(S(=O)(=O)[N-]c2ccc(C(=O)[O-])c([O-])c2)c1 (3D coordinates assigned)
Cn1nnnc1-c1ccc([O-])c(S(=O)(=O)[N-]c2ccc(C(=O)[O-])c([O-])c2)c1 (optimized conformer: 86.89441753448129 kcal/mol)

>  <smiles>  (15) 
Cn1nnnc1-c1ccc(O)c(S(=O)(=O)Nc2ccc(C(=O)O)c(O)c2)c1

>  <score_type>  (15) 
oracle

>  <origin>  (15) 
adgpu

>  <m_score__min__energy>  (15) 
-13.119999999999999

>  <m_primary>  (15) 
energy

$$$$
15:0
     RDKit          3D

 49 51  0  0  0  0  0  0  0  0999 V2000
   -0.2010   22.6930  -25.4960 C   0  0  0  0  0  0  0  0  0  0  0  0
    0.4900   22.3990  -26.7040 O   0  0  0  0  0  0  0  0  0  0  0  0
    0.3070   23.1330  -27.8800 C   0  0  0  0  0  0  0  0  0  0  0  0
    1.1350   24.0370  -28.1860 O   0  0  0  0  0  0  0  0  0  0  0  0
   -0.8740   22.8860  -28.7490 C   0  0  0  0  0  0  0  0  0  0  0  0
   -1.5560   23.9870  -29.3020 C   0  0  0  0  0  0  0  0  0  0  0  0
   -2.7660   23.8160  -29.9930 C   0  0  0  0  0  0  0  0  0  0  0  0
   -3.5310   24.9370  -30.4510 N   0  0  0  0  0  0  0  0  0  0  0  0
   -5.2650   25.0520  -30.3220 S   0  0  0  0  0  0  0  0  0  0  0  0
   -5.6340   25.2910  -28.8830 O   0  0  0  0  0  0  0  0  0  0  0  0
   -5.7390   26.2170  -31.1450 O   0  0  0  0  0  0  0  0  0  0  0  0
   -6.0650   23.5890  -30.8990 C   0  0  0  0  0  0  0  0  0  0  0  0
   -7.1310   23.0440  -30.1710 C   0  0  0  0  0  0  0  0  0  0  0  0
   -7.8620   21.9700  -30.6870 C   0  0  0  0  0  0  0  0  0  0  0  0
   -7.5350   21.4270  -31.9440 C   0  0  0  0  0  0  0  0  0  0  0  0
   -8.2660   20.3810  -32.5230 O   0  0  0  0  0  0  0  0  0  0  0  0
   -8.7100   19.2260  -31.8160 C   0  0  0  0  0  0  0  0  0  0  0  0
   -6.4500   21.9530  -32.6550 C   0  0  0  0  0  0  0  0  0  0  0  0
   -5.7180   23.0260  -32.1370 C   0  0  0  0  0  0  0  0  0  0  0  0
   -3.2360   22.5260  -30.2430 C   0  0  0  0  0  0  0  0  0  0  0  0
   -2.5450   21.4180  -29.7520 C   0  0  0  0  0  0  0  0  0  0  0  0
   -1.3740   21.5820  -28.9940 C   0  0  0  0  0  0  0  0  0  0  0  0
   -0.6810   20.4150  -28.5220 N   0  0  0  0  0  0  0  0  0  0  0  0
   -1.1100   19.8060  -27.2600 C   0  0  0  0  0  0  0  0  0  0  0  0
   -0.5960   18.3640  -27.1700 C   0  0  0  0  0  0  0  0  0  0  0  0
    0.7920   18.2980  -27.4460 O   0  0  0  0  0  0  0  0  0  0  0  0
    1.0280   18.6770  -28.7880 C   0  0  0  0  0  0  0  0  0  0  0  0
    0.6790   20.1530  -28.9980 C   0  0  0  0  0  0  0  0  0  0  0  0
    0.4313   22.4240  -24.6371 H   0  0  0  0  0  0  0  0  0  0  0  0
   -0.4327   23.7677  -25.4584 H   0  0  0  0  0  0  0  0  0  0  0  0
   -1.1360   22.1148  -25.4584 H   0  0  0  0  0  0  0  0  0  0  0  0
   -1.1340   24.9967  -29.1908 H   0  0  0  0  0  0  0  0  0  0  0  0
   -7.3939   23.4633  -29.1886 H   0  0  0  0  0  0  0  0  0  0  0  0
   -8.6965   21.5473  -30.1083 H   0  0  0  0  0  0  0  0  0  0  0  0
   -8.6396   19.4091  -30.7336 H   0  0  0  0  0  0  0  0  0  0  0  0
   -9.7549   19.0110  -32.0843 H   0  0  0  0  0  0  0  0  0  0  0  0
   -8.0782   18.3664  -32.0843 H   0  0  0  0  0  0  0  0  0  0  0  0
   -6.1715   21.5197  -33.6270 H   0  0  0  0  0  0  0  0  0  0  0  0
   -4.8659   23.4309  -32.7027 H   0  0  0  0  0  0  0  0  0  0  0  0
   -4.1553   22.3822  -30.8297 H   0  0  0  0  0  0  0  0  0  0  0  0
   -2.9211   20.4056  -29.9606 H   0  0  0  0  0  0  0  0  0  0  0  0
   -0.7069   20.3892  -26.4189 H   0  0  0  0  0  0  0  0  0  0  0  0
   -2.2092   19.8000  -27.2181 H   0  0  0  0  0  0  0  0  0  0  0  0
   -0.7790   17.9803  -26.1555 H   0  0  0  0  0  0  0  0  0  0  0  0
   -1.1293   17.7563  -27.9159 H   0  0  0  0  0  0  0  0  0  0  0  0
    2.0899   18.5185  -29.0275 H   0  0  0  0  0  0  0  0  0  0  0  0
    0.3950   18.0646  -29.4470 H   0  0  0  0  0  0  0  0  0  0  0  0
    1.3888   20.7792  -28.4375 H   0  0  0  0  0  0  0  0  0  0  0  0
    0.7402   20.3911  -30.0702 H   0  0  0  0  0  0  0  0  0  0  0  0
  1  2  1  0
  2  3  1  0
  3  4  2  0
  3  5  1  0
  5  6  2  0
  6  7  1  0
  7  8  1  0
  8  9  1  0
  9 10  2  0
  9 11  2  0
  9 12  1  0
 12 13  2  0
 13 14  1  0
 14 15  2  0
 15 16  1  0
 16 17  1  0
 15 18  1  0
 18 19  2  0
  7 20  2  0
 20 21  1  0
 21 22  2  0
 22 23  1  0
 23 24  1  0
 24 25  1  0
 25 26  1  0
 26 27  1  0
 27 28  1  0
 22  5  1  0
 28 23  1  0
 19 12  1  0
  1 29  1  0
  1 30  1  0
  1 31  1  0
  6 32  1  0
 13 33  1  0
 14 34  1  0
 17 35  1  0
 17 36  1  0
 17 37  1  0
 18 38  1  0
 19 39  1  0
 20 40  1  0
 21 41  1  0
 24 42  1  0
 24 43  1  0
 25 44  1  0
 25 45  1  0
 27 46  1  0
 27 47  1  0
 28 48  1  0
 28 49  1  0
M  CHG  1   8  -1
M  END
>  <UniqueID>  (16) 
16

>  <SMILES>  (16) 
COC(=O)c1cc([N-]S(=O)(=O)c2ccc(OC)cc2)ccc1N1CCOCC1

>  <Energy>  (16) 
62.20187906368243

>  <Genealogy>  (16) 
COC(=O)c1cc([N-]S(=O)(=O)c2ccc(OC)cc2)ccc1N1CCOCC1 (protonated)
COC(=O)c1cc([N-]S(=O)(=O)c2ccc(OC)cc2)ccc1N1CCOCC1 (3D coordinates assigned)
COC(=O)c1cc([N-]S(=O)(=O)c2ccc(OC)cc2)ccc1N1CCOCC1 (nonaromatic ring conformer: 62.20187906368243 kcal/mol)

>  <smiles>  (16) 
COC(=O)c1cc(NS(=O)(=O)c2ccc(OC)cc2)ccc1N1CCOCC1

>  <score_type>  (16) 
oracle

>  <origin>  (16) 
adgpu

>  <m_score__min__energy>  (16) 
-9.2400000000000002

>  <m_primary>  (16) 
energy

$$$$
16:0
     RDKit          3D

 39 41  0  0  0  0  0  0  0  0999 V2000
   -5.4930   22.5690  -29.7250 O   0  0  0  0  0  0  0  0  0  0  0  0
   -4.5200   22.8610  -30.4700 C   0  0  0  0  0  0  0  0  0  0  0  0
   -4.6280   22.6020  -31.8760 N   0  0  0  0  0  0  0  0  0  0  0  0
   -4.0390   21.4980  -32.5790 C   0  0  0  0  0  0  0  0  0  0  0  0
   -4.7660   20.3280  -32.8550 C   0  0  0  0  0  0  0  0  0  0  0  0
   -4.1600   19.2690  -33.5340 C   0  0  0  0  0  0  0  0  0  0  0  0
   -2.8240   19.3600  -33.9340 C   0  0  0  0  0  0  0  0  0  0  0  0
   -2.2650   18.3220  -34.6050 F   0  0  0  0  0  0  0  0  0  0  0  0
   -2.0820   20.5200  -33.6490 C   0  0  0  0  0  0  0  0  0  0  0  0
   -0.3970   20.6730  -34.1580 S   0  0  0  0  0  0  0  0  0  0  0  0
   -0.1500   22.0620  -34.6800 O   0  0  0  0  0  0  0  0  0  0  0  0
   -0.1460   19.7150  -35.2900 O   0  0  0  0  0  0  0  0  0  0  0  0
    0.7290   20.3340  -32.8590 N   0  0  0  0  0  0  0  0  0  0  0  0
    0.2140   20.7430  -31.5400 C   0  0  0  0  0  0  0  0  0  0  0  0
   -0.7190   19.6880  -30.8980 C   0  0  0  0  0  0  0  0  0  0  0  0
   -0.7470   18.4630  -31.6030 O   0  0  0  0  0  0  0  0  0  0  0  0
    0.5700   18.0340  -31.8560 C   0  0  0  0  0  0  0  0  0  0  0  0
    1.2430   18.9470  -32.8930 C   0  0  0  0  0  0  0  0  0  0  0  0
   -2.6930   21.5760  -32.9560 C   0  0  0  0  0  0  0  0  0  0  0  0
   -3.2830   23.4150  -29.8660 C   0  0  0  0  0  0  0  0  0  0  0  0
   -3.0070   24.7940  -29.9040 C   0  0  0  0  0  0  0  0  0  0  0  0
   -3.8700   25.6770  -30.5410 O   0  0  0  0  0  0  0  0  0  0  0  0
   -1.8730   25.2740  -29.3330 N   0  0  0  0  0  0  0  0  0  0  0  0
   -0.9830   24.4450  -28.7320 C   0  0  0  0  0  0  0  0  0  0  0  0
    0.0590   24.9150  -28.2090 O   0  0  0  0  0  0  0  0  0  0  0  0
   -1.2160   23.1090  -28.6970 N   0  0  0  0  0  0  0  0  0  0  0  0
   -2.3360   22.5760  -29.2500 C   0  0  0  0  0  0  0  0  0  0  0  0
   -2.5210   21.3320  -29.1880 O   0  0  0  0  0  0  0  0  0  0  0  0
   -5.8153   20.2459  -32.5354 H   0  0  0  0  0  0  0  0  0  0  0  0
   -4.7369   18.3589  -33.7551 H   0  0  0  0  0  0  0  0  0  0  0  0
    1.0681   20.9104  -30.8674 H   0  0  0  0  0  0  0  0  0  0  0  0
   -0.3789   21.6575  -31.6889 H   0  0  0  0  0  0  0  0  0  0  0  0
   -0.3718   19.4928  -29.8726 H   0  0  0  0  0  0  0  0  0  0  0  0
   -1.7390   20.0993  -30.9192 H   0  0  0  0  0  0  0  0  0  0  0  0
    1.1465   18.0631  -30.9196 H   0  0  0  0  0  0  0  0  0  0  0  0
    0.5405   17.0078  -32.2511 H   0  0  0  0  0  0  0  0  0  0  0  0
    2.3243   18.9684  -32.6924 H   0  0  0  0  0  0  0  0  0  0  0  0
    1.0193   18.5365  -33.8887 H   0  0  0  0  0  0  0  0  0  0  0  0
   -2.1087   22.4740  -32.7065 H   0  0  0  0  0  0  0  0  0  0  0  0
  1  2  2  0
  2  3  1  0
  3  4  1  0
  4  5  2  0
  5  6  1  0
  6  7  2  0
  7  8  1  0
  7  9  1  0
  9 10  1  0
 10 11  2  0
 10 12  2  0
 10 13  1  0
 13 14  1  0
 14 15  1  0
 15 16  1  0
 16 17  1  0
 17 18  1  0
  9 19  2  0
  2 20  1  0
 20 21  2  0
 21 22  1  0
 21 23  1  0
 23 24  1  0
 24 25  2  0
 24 26  1  0
 26 27  1  0
 27 28  2  0
 19  4  1  0
 27 20  1  0
 18 13  1  0
  5 29  1  0
  6 30  1  0
 14 31  1  0
 14 32  1  0
 15 33  1  0
 15 34  1  0
 17 35  1  0
 17 36  1  0
 18 37  1  0
 18 38  1  0
 19 39  1  0
M  CHG  4   3  -1  22  -1  23  -1  26  -1
M  END
>  <UniqueID>  (17) 
17

>  <SMILES>  (17) 
O=C([N-]c1ccc(F)c(S(=O)(=O)N2CCOCC2)c1)c1c([O-])[n-]c(=O)[n-]c1=O

>  <Energy>  (17) 
62.448795500788854

>  <Genealogy>  (17) 
O=C([N-]c1ccc(F)c(S(=O)(=O)N2CCOCC2)c1)c1c([O-])[n-]c(=O)[n-]c1=O (protonated)
O=C([N-]c1ccc(F)c(S(=O)(=O)N2CCOCC2)c1)c1c([O-])[n-]c(=O)[n-]c1=O (3D coordinates assigned)
O=C([N-]c1ccc(F)c(S(=O)(=O)N2CCOCC2)c1)c1c([O-])[n-]c(=O)[n-]c1=O (nonaromatic ring conformer: 62.448795500788854 kcal/mol)

>  <smiles>  (17) 
O=C(Nc1ccc(F)c(S(=O)(=O)N2CCOCC2)c1)c1c(O)[nH]c(=O)[nH]c1=O

>  <score_type>  (17) 
oracle

>  <origin>  (17) 
adgpu

>  <m_score__min__energy>  (17) 
-14.15

>  <m_primary>  (17) 
energy

$$$$
17:0
     RDKit          3D

 77 81  0  0  0  0  0  0  0  0999 V2000
    3.1570   14.2220  -28.7590 C   0  0  0  0  0  0  0  0  0  0  0  0
    2.6410   15.5960  -29.0370 C   0  0  0  0  0  0  0  0  0  0  0  0
    1.9870   16.4110  -28.1330 C   0  0  0  0  0  0  0  0  0  0  0  0
    1.6680   17.5330  -28.8670 C   0  0  0  0  0  0  0  0  0  0  0  0
    1.0410   18.7450  -28.3300 C   0  0  0  0  0  0  0  0  0  0  0  0
    1.7690   19.6690  -27.8740 O   0  0  0  0  0  0  0  0  0  0  0  0
   -0.3860   18.8740  -28.3620 N   0  0  0  0  0  0  0  0  0  0  0  0
   -1.1400   20.0520  -28.6930 C   0  0  0  0  0  0  0  0  0  0  0  0
   -2.3580   20.3810  -28.0670 C   0  0  0  0  0  0  0  0  0  0  0  0
   -2.9710   21.6070  -28.3280 C   0  0  0  0  0  0  0  0  0  0  0  0
   -2.3600   22.5070  -29.2040 C   0  0  0  0  0  0  0  0  0  0  0  0
   -3.0600   24.0960  -29.4580 S   0  0  0  0  0  0  0  0  0  0  0  0
   -4.3220   24.3900  -28.2370 C   0  0  0  0  0  0  0  0  0  0  0  0
   -3.6540   24.1650  -30.8380 O   0  0  0  0  0  0  0  0  0  0  0  0
   -1.9900   25.1450  -29.3320 O   0  0  0  0  0  0  0  0  0  0  0  0
   -1.1940   22.1680  -29.8180 N   0  0  0  0  0  0  0  0  0  0  0  0
   -0.5860   20.9730  -29.5920 C   0  0  0  0  0  0  0  0  0  0  0  0
    2.0860   17.3620  -30.1430 N   0  0  0  0  0  0  0  0  0  0  0  0
    1.8470   18.2250  -31.2730 C   0  0  0  0  0  0  0  0  0  0  0  0
    2.9250   18.7680  -31.9850 C   0  0  0  0  0  0  0  0  0  0  0  0
    2.6960   19.5940  -33.0900 C   0  0  0  0  0  0  0  0  0  0  0  0
    1.3900   19.8850  -33.4950 C   0  0  0  0  0  0  0  0  0  0  0  0
    0.2960   19.3370  -32.8040 C   0  0  0  0  0  0  0  0  0  0  0  0
   -1.0960   19.6790  -33.1730 C   0  0  0  0  0  0  0  0  0  0  0  0
   -1.5710   19.2510  -34.2600 O   0  0  0  0  0  0  0  0  0  0  0  0
   -1.9200   20.4900  -32.3270 N   0  0  0  0  0  0  0  0  0  0  0  0
   -3.3440   20.4500  -32.4660 C   0  0  0  0  0  0  0  0  0  0  0  0
   -4.0580   21.6320  -32.6660 C   0  0  0  0  0  0  0  0  0  0  0  0
   -5.4460   21.6030  -32.7630 C   0  0  0  0  0  0  0  0  0  0  0  0
   -6.1550   20.3970  -32.6210 C   0  0  0  0  0  0  0  0  0  0  0  0
   -7.6660   20.4430  -32.7240 C   0  0  0  0  0  0  0  0  0  0  0  0
   -8.2440   21.2920  -31.6570 N   0  0  0  0  0  0  0  0  0  0  0  0
   -8.8310   22.5430  -32.2040 C   0  0  0  0  0  0  0  0  0  0  0  0
   -7.8870   23.7440  -32.0430 C   0  0  0  0  0  0  0  0  0  0  0  0
   -7.6100   24.0200  -30.6150 N   0  0  0  0  0  0  0  0  0  0  0  0
   -6.3570   24.7770  -30.4730 C   0  0  0  0  0  0  0  0  0  0  0  0
   -7.6070   22.8030  -29.7660 C   0  0  0  0  0  0  0  0  0  0  0  0
   -7.2620   21.5370  -30.5680 C   0  0  0  0  0  0  0  0  0  0  0  0
   -5.4370   19.1930  -32.3680 C   0  0  0  0  0  0  0  0  0  0  0  0
   -6.1410   17.8610  -32.1850 C   0  0  0  0  0  0  0  0  0  0  0  0
   -6.8910   17.5780  -33.3110 F   0  0  0  0  0  0  0  0  0  0  0  0
   -5.2390   16.8260  -31.9910 F   0  0  0  0  0  0  0  0  0  0  0  0
   -6.9700   17.9020  -31.0790 F   0  0  0  0  0  0  0  0  0  0  0  0
   -4.0270   19.2380  -32.3370 C   0  0  0  0  0  0  0  0  0  0  0  0
    0.5370   18.4910  -31.7080 C   0  0  0  0  0  0  0  0  0  0  0  0
    2.6780   16.1800  -30.2500 N   0  0  0  0  0  0  0  0  0  0  0  0
    3.2158   14.0654  -27.6718 H   0  0  0  0  0  0  0  0  0  0  0  0
    2.4768   13.4786  -29.2002 H   0  0  0  0  0  0  0  0  0  0  0  0
    4.1584   14.1102  -29.2002 H   0  0  0  0  0  0  0  0  0  0  0  0
    1.7710   16.2107  -27.0732 H   0  0  0  0  0  0  0  0  0  0  0  0
   -2.8270   19.6700  -27.3709 H   0  0  0  0  0  0  0  0  0  0  0  0
   -3.9272   21.8625  -27.8480 H   0  0  0  0  0  0  0  0  0  0  0  0
   -3.8892   24.2892  -27.2308 H   0  0  0  0  0  0  0  0  0  0  0  0
   -4.7245   25.4060  -28.3629 H   0  0  0  0  0  0  0  0  0  0  0  0
   -5.1320   23.6565  -28.3629 H   0  0  0  0  0  0  0  0  0  0  0  0
    0.3478   20.7274  -30.1189 H   0  0  0  0  0  0  0  0  0  0  0  0
    3.9558   18.5435  -31.6734 H   0  0  0  0  0  0  0  0  0  0  0  0
    3.5476   20.0168  -33.6432 H   0  0  0  0  0  0  0  0  0  0  0  0
    1.2181   20.5454  -34.3578 H   0  0  0  0  0  0  0  0  0  0  0  0
   -1.4850   21.2380  -31.7410 H   0  0  0  0  0  0  0  0  0  0  0  0
   -3.5224   22.5893  -32.7472 H   0  0  0  0  0  0  0  0  0  0  0  0
   -5.9960   22.5364  -32.9534 H   0  0  0  0  0  0  0  0  0  0  0  0
   -7.9476   20.8553  -33.7042 H   0  0  0  0  0  0  0  0  0  0  0  0
   -8.0568   19.4211  -32.6097 H   0  0  0  0  0  0  0  0  0  0  0  0
   -9.0407   22.3979  -33.2740 H   0  0  0  0  0  0  0  0  0  0  0  0
   -9.7517   22.7586  -31.6420 H   0  0  0  0  0  0  0  0  0  0  0  0
   -6.9390   23.5266  -32.5568 H   0  0  0  0  0  0  0  0  0  0  0  0
   -8.3717   24.6290  -32.4810 H   0  0  0  0  0  0  0  0  0  0  0  0
   -6.1303   24.9139  -29.4054 H   0  0  0  0  0  0  0  0  0  0  0  0
   -5.5373   24.2229  -30.9537 H   0  0  0  0  0  0  0  0  0  0  0  0
   -6.4662   25.7604  -30.9537 H   0  0  0  0  0  0  0  0  0  0  0  0
   -6.8619   22.9303  -28.9668 H   0  0  0  0  0  0  0  0  0  0  0  0
   -8.6187   22.6764  -29.3531 H   0  0  0  0  0  0  0  0  0  0  0  0
   -6.2618   21.6564  -31.0100 H   0  0  0  0  0  0  0  0  0  0  0  0
   -7.2893   20.6779  -29.8816 H   0  0  0  0  0  0  0  0  0  0  0  0
   -3.4575   18.3056  -32.2095 H   0  0  0  0  0  0  0  0  0  0  0  0
   -0.3123   18.0300  -31.1826 H   0  0  0  0  0  0  0  0  0  0  0  0
  1  2  1  0
  2  3  1  0
  3  4  2  0
  4  5  1  0
  5  6  2  0
  5  7  1  0
  7  8  1  0
  8  9  2  0
  9 10  1  0
 10 11  2  0
 11 12  1  0
 12 13  1  0
 12 14  2  0
 12 15  2  0
 11 16  1  0
 16 17  2  0
  4 18  1  0
 18 19  1  0
 19 20  2  0
 20 21  1  0
 21 22  2  0
 22 23  1  0
 23 24  1  0
 24 25  2  0
 24 26  1  0
 26 27  1  0
 27 28  2  0
 28 29  1  0
 29 30  2  0
 30 31  1  0
 31 32  1  0
 32 33  1  0
 33 34  1  0
 34 35  1  0
 35 36  1  0
 35 37  1  0
 37 38  1  0
 30 39  1  0
 39 40  1  0
 40 41  1  0
 40 42  1  0
 40 43  1  0
 39 44  2  0
 23 45  2  0
 18 46  1  0
 46  2  2  0
 17  8  1  0
 45 19  1  0
 44 27  1  0
 38 32  1  0
  1 47  1  0
  1 48  1  0
  1 49  1  0
  3 50  1  0
  9 51  1  0
 10 52  1  0
 13 53  1  0
 13 54  1  0
 13 55  1  0
 17 56  1  0
 20 57  1  0
 21 58  1  0
 22 59  1  0
 26 60  1  0
 28 61  1  0
 29 62  1  0
 31 63  1  0
 31 64  1  0
 33 65  1  0
 33 66  1  0
 34 67  1  0
 34 68  1  0
 36 69  1  0
 36 70  1  0
 36 71  1  0
 37 72  1  0
 37 73  1  0
 38 74  1  0
 38 75  1  0
 44 76  1  0
 45 77  1  0
M  CHG  1   7  -1
M  END
>  <UniqueID>  (18) 
18

>  <SMILES>  (18) 
Cc1cc(C(=O)[N-]c2ccc(S(C)(=O)=O)nc2)n(-c2cccc(C(=O)Nc3ccc(CN4CCN(C)CC4)c(C(F)(F)F)c3)c2)n1

>  <Energy>  (18) 
143.2499542046689

>  <Genealogy>  (18) 
Cc1cc(C(=O)[N-]c2ccc(S(C)(=O)=O)nc2)n(-c2cccc(C(=O)Nc3ccc(CN4CCN(C)CC4)c(C(F)(F)F)c3)c2)n1 (protonated)
Cc1cc(C(=O)[N-]c2ccc(S(C)(=O)=O)nc2)n(-c2cccc(C(=O)Nc3ccc(CN4CCN(C)CC4)c(C(F)(F)F)c3)c2)n1 (3D coordinates assigned)
Cc1cc(C(=O)[N-]c2ccc(S(C)(=O)=O)nc2)n(-c2cccc(C(=O)Nc3ccc(CN4CCN(C)CC4)c(C(F)(F)F)c3)c2)n1 (nonaromatic ring conformer: 143.2499542046689 kcal/mol)

>  <smiles>  (18) 
Cc1cc(C(=O)Nc2ccc(S(C)(=O)=O)nc2)n(-c2cccc(C(=O)Nc3ccc(CN4CCN(C)CC4)c(C(F)(F)F)c3)c2)n1

>  <score_type>  (18) 
oracle

>  <origin>  (18) 
adgpu

>  <m_score__min__energy>  (18) 
-11.93

>  <m_primary>  (18) 
energy

$$$$
18:0
     RDKit          3D

 44 46  0  0  0  0  0  0  0  0999 V2000
   -5.6660   14.3510  -34.5210 C   0  0  0  0  0  0  0  0  0  0  0  0
   -5.6070   15.8090  -34.1900 C   0  0  0  0  0  0  0  0  0  0  0  0
   -6.8570   16.6550  -33.4450 S   0  0  0  0  0  0  0  0  0  0  0  0
   -6.0000   18.0990  -33.4010 C   0  0  0  0  0  0  0  0  0  0  0  0
   -6.5220   19.3520  -32.8340 C   0  0  0  0  0  0  0  0  0  0  0  0
   -5.7350   20.4150  -32.6220 C   0  0  0  0  0  0  0  0  0  0  0  0
   -6.2170   21.6930  -32.0410 C   0  0  0  0  0  0  0  0  0  0  0  0
   -7.5790   22.0070  -32.1530 C   0  0  0  0  0  0  0  0  0  0  0  0
   -8.0800   23.1940  -31.6150 C   0  0  0  0  0  0  0  0  0  0  0  0
   -7.2290   24.0760  -30.9470 C   0  0  0  0  0  0  0  0  0  0  0  0
   -5.8640   23.7770  -30.8030 C   0  0  0  0  0  0  0  0  0  0  0  0
   -4.9660   24.7100  -30.0800 C   0  0  0  0  0  0  0  0  0  0  0  0
   -3.8490   25.3020  -30.7420 N   0  0  0  0  0  0  0  0  0  0  0  0
   -5.1810   24.9890  -28.8690 O   0  0  0  0  0  0  0  0  0  0  0  0
   -5.3650   22.5790  -31.3490 C   0  0  0  0  0  0  0  0  0  0  0  0
   -4.7720   17.9610  -33.9500 N   0  0  0  0  0  0  0  0  0  0  0  0
   -4.5440   16.6990  -34.4050 C   0  0  0  0  0  0  0  0  0  0  0  0
   -3.2560   16.3460  -35.0400 C   0  0  0  0  0  0  0  0  0  0  0  0
   -2.0820   17.0060  -34.6390 C   0  0  0  0  0  0  0  0  0  0  0  0
   -0.8570   16.7000  -35.2390 C   0  0  0  0  0  0  0  0  0  0  0  0
   -0.7910   15.7370  -36.2540 C   0  0  0  0  0  0  0  0  0  0  0  0
    0.7490   15.3660  -37.0230 S   0  0  0  0  0  0  0  0  0  0  0  0
    1.6600   14.2320  -36.0020 C   0  0  0  0  0  0  0  0  0  0  0  0
    1.5440   16.6270  -37.2070 O   0  0  0  0  0  0  0  0  0  0  0  0
    0.5080   14.7460  -38.3720 O   0  0  0  0  0  0  0  0  0  0  0  0
   -1.9620   15.0980  -36.6790 C   0  0  0  0  0  0  0  0  0  0  0  0
   -3.1870   15.4020  -36.0780 C   0  0  0  0  0  0  0  0  0  0  0  0
   -5.6897   13.7645  -33.5907 H   0  0  0  0  0  0  0  0  0  0  0  0
   -6.5732   14.1446  -35.1078 H   0  0  0  0  0  0  0  0  0  0  0  0
   -4.7784   14.0720  -35.1078 H   0  0  0  0  0  0  0  0  0  0  0  0
   -7.5894   19.4179  -32.5767 H   0  0  0  0  0  0  0  0  0  0  0  0
   -4.6720   20.3364  -32.8937 H   0  0  0  0  0  0  0  0  0  0  0  0
   -8.2583   21.3125  -32.6689 H   0  0  0  0  0  0  0  0  0  0  0  0
   -9.1484   23.4348  -31.7179 H   0  0  0  0  0  0  0  0  0  0  0  0
   -7.6300   25.0118  -30.5304 H   0  0  0  0  0  0  0  0  0  0  0  0
   -3.9350   26.2300  -31.2130 H   0  0  0  0  0  0  0  0  0  0  0  0
   -4.2994   22.3313  -31.2347 H   0  0  0  0  0  0  0  0  0  0  0  0
   -2.1272   17.7686  -33.8476 H   0  0  0  0  0  0  0  0  0  0  0  0
    0.0576   17.2169  -34.9131 H   0  0  0  0  0  0  0  0  0  0  0  0
    1.4748   14.4625  -34.9425 H   0  0  0  0  0  0  0  0  0  0  0  0
    1.3343   13.2033  -36.2158 H   0  0  0  0  0  0  0  0  0  0  0  0
    2.7347   14.3283  -36.2158 H   0  0  0  0  0  0  0  0  0  0  0  0
   -1.9180   14.3544  -37.4884 H   0  0  0  0  0  0  0  0  0  0  0  0
   -4.1032   14.8985  -36.4203 H   0  0  0  0  0  0  0  0  0  0  0  0
  1  2  1  0
  2  3  1  0
  3  4  1  0
  4  5  1  0
  5  6  2  3
  6  7  1  0
  7  8  2  0
  8  9  1  0
  9 10  2  0
 10 11  1  0
 11 12  1  0
 12 13  1  0
 12 14  2  0
 11 15  2  0
  4 16  2  0
 16 17  1  0
 17 18  1  0
 18 19  2  0
 19 20  1  0
 20 21  2  0
 21 22  1  0
 22 23  1  0
 22 24  2  0
 22 25  2  0
 21 26  1  0
 26 27  2  0
 17  2  2  0
 27 18  1  0
 15  7  1  0
  1 28  1  0
  1 29  1  0
  1 30  1  0
  5 31  1  0
  6 32  1  0
  8 33  1  0
  9 34  1  0
 10 35  1  0
 13 36  1  0
 15 37  1  0
 19 38  1  0
 20 39  1  0
 23 40  1  0
 23 41  1  0
 23 42  1  0
 26 43  1  0
 27 44  1  0
M  CHG  1  13  -1
M  END
>  <UniqueID>  (19) 
19

>  <SMILES>  (19) 
Cc1sc(C=Cc2cccc(C([NH-])=O)c2)nc1-c1ccc(S(C)(=O)=O)cc1

>  <Energy>  (19) 
78.68225628669053

>  <Genealogy>  (19) 
Cc1sc(C=Cc2cccc(C([NH-])=O)c2)nc1-c1ccc(S(C)(=O)=O)cc1 (protonated)
Cc1sc(C=Cc2cccc(C([NH-])=O)c2)nc1-c1ccc(S(C)(=O)=O)cc1 (3D coordinates assigned)
Cc1sc(C=Cc2cccc(C([NH-])=O)c2)nc1-c1ccc(S(C)(=O)=O)cc1 (optimized conformer: 78.68225628669053 kcal/mol)

>  <smiles>  (19) 
Cc1sc(C=Cc2cccc(C(N)=O)c2)nc1-c1ccc(S(C)(=O)=O)cc1

>  <score_type>  (19) 
oracle

>  <origin>  (19) 
adgpu

>  <m_score__min__energy>  (19) 
-9.7899999999999991

>  <m_primary>  (19) 
energy

$$$$
19:0
     RDKit          3D

 50 53  0  0  0  0  0  0  0  0999 V2000
   -1.2370   26.4580  -28.9470 O   0  0  0  0  0  0  0  0  0  0  0  0
   -1.1980   25.2450  -28.6100 C   0  0  0  0  0  0  0  0  0  0  0  0
   -1.4350   24.2460  -29.6130 N   0  0  0  0  0  0  0  0  0  0  0  0
   -2.7110   23.7050  -29.9830 C   0  0  0  0  0  0  0  0  0  0  0  0
   -3.9110   24.3380  -29.6330 C   0  0  0  0  0  0  0  0  0  0  0  0
   -5.1390   23.7800  -29.9970 C   0  0  0  0  0  0  0  0  0  0  0  0
   -5.2050   22.5610  -30.7120 C   0  0  0  0  0  0  0  0  0  0  0  0
   -6.4870   21.9780  -31.1010 N   0  0  0  0  0  0  0  0  0  0  0  0
   -7.7380   22.6970  -30.7810 C   0  0  0  0  0  0  0  0  0  0  0  0
   -9.0050   21.9300  -31.1690 C   0  0  0  0  0  0  0  0  0  0  0  0
   -8.8300   21.2520  -32.3900 O   0  0  0  0  0  0  0  0  0  0  0  0
   -7.9100   20.2060  -32.1880 C   0  0  0  0  0  0  0  0  0  0  0  0
   -6.5040   20.7540  -31.9310 C   0  0  0  0  0  0  0  0  0  0  0  0
   -3.9820   21.9210  -31.0250 C   0  0  0  0  0  0  0  0  0  0  0  0
   -2.7570   22.4850  -30.6580 C   0  0  0  0  0  0  0  0  0  0  0  0
   -0.9930   24.8890  -27.1860 C   0  0  0  0  0  0  0  0  0  0  0  0
   -1.1340   25.8840  -26.2030 C   0  0  0  0  0  0  0  0  0  0  0  0
   -0.9180   25.5870  -24.8550 C   0  0  0  0  0  0  0  0  0  0  0  0
   -0.5570   24.2950  -24.4730 C   0  0  0  0  0  0  0  0  0  0  0  0
   -0.4090   23.2970  -25.4360 C   0  0  0  0  0  0  0  0  0  0  0  0
   -0.6120   23.5810  -26.7990 C   0  0  0  0  0  0  0  0  0  0  0  0
   -0.5320   22.5230  -27.7700 N   0  0  0  0  0  0  0  0  0  0  0  0
   -0.9950   21.1800  -27.5380 C   0  0  0  0  0  0  0  0  0  0  0  0
   -0.1040   20.1070  -27.6880 C   0  0  0  0  0  0  0  0  0  0  0  0
   -0.5270   18.7960  -27.4460 C   0  0  0  0  0  0  0  0  0  0  0  0
   -1.8410   18.5480  -27.0420 C   0  0  0  0  0  0  0  0  0  0  0  0
   -2.7320   19.6110  -26.8730 C   0  0  0  0  0  0  0  0  0  0  0  0
   -2.3130   20.9230  -27.1120 C   0  0  0  0  0  0  0  0  0  0  0  0
   -3.8860   25.2812  -29.0675 H   0  0  0  0  0  0  0  0  0  0  0  0
   -6.0704   24.2972  -29.7230 H   0  0  0  0  0  0  0  0  0  0  0  0
   -7.7635   22.8842  -29.6974 H   0  0  0  0  0  0  0  0  0  0  0  0
   -7.7331   23.6275  -31.3676 H   0  0  0  0  0  0  0  0  0  0  0  0
   -9.2380   21.1983  -30.3814 H   0  0  0  0  0  0  0  0  0  0  0  0
   -9.8293   22.6494  -31.2826 H   0  0  0  0  0  0  0  0  0  0  0  0
   -8.2280   19.6099  -31.3199 H   0  0  0  0  0  0  0  0  0  0  0  0
   -7.8831   19.5831  -33.0942 H   0  0  0  0  0  0  0  0  0  0  0  0
   -5.9169   19.9780  -31.4180 H   0  0  0  0  0  0  0  0  0  0  0  0
   -6.0791   21.0224  -32.9095 H   0  0  0  0  0  0  0  0  0  0  0  0
   -3.9959   20.9635  -31.5663 H   0  0  0  0  0  0  0  0  0  0  0  0
   -1.8208   21.9623  -30.9036 H   0  0  0  0  0  0  0  0  0  0  0  0
   -1.4169   26.9053  -26.4977 H   0  0  0  0  0  0  0  0  0  0  0  0
   -1.0328   26.3730  -24.0941 H   0  0  0  0  0  0  0  0  0  0  0  0
   -0.3888   24.0629  -23.4110 H   0  0  0  0  0  0  0  0  0  0  0  0
   -0.1310   22.2785  -25.1271 H   0  0  0  0  0  0  0  0  0  0  0  0
   -0.1440   22.7530  -28.7120 H   0  0  0  0  0  0  0  0  0  0  0  0
    0.9340   20.2979  -27.9979 H   0  0  0  0  0  0  0  0  0  0  0  0
    0.1757   17.9594  -27.5739 H   0  0  0  0  0  0  0  0  0  0  0  0
   -2.1742   17.5161  -26.8570 H   0  0  0  0  0  0  0  0  0  0  0  0
   -3.7654   19.4150  -26.5512 H   0  0  0  0  0  0  0  0  0  0  0  0
   -3.0148   21.7576  -26.9670 H   0  0  0  0  0  0  0  0  0  0  0  0
  1  2  2  0
  2  3  1  0
  3  4  1  0
  4  5  2  0
  5  6  1  0
  6  7  2  0
  7  8  1  0
  8  9  1  0
  9 10  1  0
 10 11  1  0
 11 12  1  0
 12 13  1  0
  7 14  1  0
 14 15  2  0
  2 16  1  0
 16 17  2  0
 17 18  1  0
 18 19  2  0
 19 20  1  0
 20 21  2  0
 21 22  1  0
 22 23  1  0
 23 24  2  0
 24 25  1  0
 25 26  2  0
 26 27  1  0
 27 28  2  0
 15  4  1  0
 21 16  1  0
 28 23  1  0
 13  8  1  0
  5 29  1  0
  6 30  1  0
  9 31  1  0
  9 32  1  0
 10 33  1  0
 10 34  1  0
 12 35  1  0
 12 36  1  0
 13 37  1  0
 13 38  1  0
 14 39  1  0
 15 40  1  0
 17 41  1  0
 18 42  1  0
 19 43  1  0
 20 44  1  0
 22 45  1  0
 24 46  1  0
 25 47  1  0
 26 48  1  0
 27 49  1  0
 28 50  1  0
M  CHG  1   3  -1
M  END
>  <UniqueID>  (20) 
20

>  <SMILES>  (20) 
O=C([N-]c1ccc(N2CCOCC2)cc1)c1ccccc1Nc1ccccc1

>  <Energy>  (20) 
75.49763752060485

>  <Genealogy>  (20) 
O=C([N-]c1ccc(N2CCOCC2)cc1)c1ccccc1Nc1ccccc1 (protonated)
O=C([N-]c1ccc(N2CCOCC2)cc1)c1ccccc1Nc1ccccc1 (3D coordinates assigned)
O=C([N-]c1ccc(N2CCOCC2)cc1)c1ccccc1Nc1ccccc1 (nonaromatic ring conformer: 75.49763752060485 kcal/mol)

>  <smiles>  (20) 
O=C(Nc1ccc(N2CCOCC2)cc1)c1ccccc1Nc1ccccc1

>  <score_type>  (20) 
oracle

>  <origin>  (20) 
adgpu

>  <m_score__min__energy>  (20) 
-10.57

>  <m_primary>  (20) 
energy

$$$$
20:0
     RDKit          3D

 55 58  0  0  0  0  0  0  0  0999 V2000
   -0.8380   22.4080  -26.0050 C   0  0  0  0  0  0  0  0  0  0  0  0
   -1.5310   23.1300  -27.1310 C   0  0  0  0  0  0  0  0  0  0  0  0
   -2.7100   22.5760  -27.6520 C   0  0  0  0  0  0  0  0  0  0  0  0
   -3.3870   23.1940  -28.7000 C   0  0  0  0  0  0  0  0  0  0  0  0
   -2.9080   24.3920  -29.2440 C   0  0  0  0  0  0  0  0  0  0  0  0
   -3.5660   25.0290  -30.3500 N   0  0  0  0  0  0  0  0  0  0  0  0
   -4.9400   24.8710  -30.7160 C   0  0  0  0  0  0  0  0  0  0  0  0
   -5.4470   25.6780  -31.5380 O   0  0  0  0  0  0  0  0  0  0  0  0
   -5.7550   23.8800  -30.0750 N   0  0  0  0  0  0  0  0  0  0  0  0
   -6.1250   22.6000  -30.6070 C   0  0  0  0  0  0  0  0  0  0  0  0
   -5.1150   21.6690  -30.8800 C   0  0  0  0  0  0  0  0  0  0  0  0
   -5.4300   20.4180  -31.4190 C   0  0  0  0  0  0  0  0  0  0  0  0
   -6.7610   20.0880  -31.7010 C   0  0  0  0  0  0  0  0  0  0  0  0
   -7.1720   18.5160  -32.3790 S   0  0  0  0  0  0  0  0  0  0  0  0
   -8.6640   18.3340  -32.3730 O   0  0  0  0  0  0  0  0  0  0  0  0
   -6.5440   17.4510  -31.5250 O   0  0  0  0  0  0  0  0  0  0  0  0
   -6.5580   18.4160  -34.0170 N   0  0  0  0  0  0  0  0  0  0  0  0
   -6.4280   17.0130  -34.4730 C   0  0  0  0  0  0  0  0  0  0  0  0
   -4.9820   16.4910  -34.3870 C   0  0  0  0  0  0  0  0  0  0  0  0
   -4.3150   17.0790  -33.2950 O   0  0  0  0  0  0  0  0  0  0  0  0
   -4.0930   18.4570  -33.5410 C   0  0  0  0  0  0  0  0  0  0  0  0
   -5.3060   19.1780  -34.1760 C   0  0  0  0  0  0  0  0  0  0  0  0
   -7.7720   21.0270  -31.4590 C   0  0  0  0  0  0  0  0  0  0  0  0
   -7.4580   22.2780  -30.9200 C   0  0  0  0  0  0  0  0  0  0  0  0
   -1.7250   24.9540  -28.7430 C   0  0  0  0  0  0  0  0  0  0  0  0
   -1.2380   26.1170  -29.3310 O   0  0  0  0  0  0  0  0  0  0  0  0
   -1.0400   24.3520  -27.6640 C   0  0  0  0  0  0  0  0  0  0  0  0
    0.4410   25.1110  -27.0200 S   0  0  0  0  0  0  0  0  0  0  0  0
    1.5630   24.9270  -28.0030 O   0  0  0  0  0  0  0  0  0  0  0  0
    0.8570   24.4400  -25.7410 O   0  0  0  0  0  0  0  0  0  0  0  0
    0.2490   26.8670  -26.6970 C   0  0  0  0  0  0  0  0  0  0  0  0
   -1.0590   27.3180  -26.0640 C   0  0  0  0  0  0  0  0  0  0  0  0
    0.1970   27.2110  -25.2170 C   0  0  0  0  0  0  0  0  0  0  0  0
   -1.2061   22.7915  -25.0420 H   0  0  0  0  0  0  0  0  0  0  0  0
   -1.0489   21.3307  -26.0754 H   0  0  0  0  0  0  0  0  0  0  0  0
    0.2470   22.5746  -26.0754 H   0  0  0  0  0  0  0  0  0  0  0  0
   -3.1046   21.6413  -27.2270 H   0  0  0  0  0  0  0  0  0  0  0  0
   -4.3036   22.7384  -29.1030 H   0  0  0  0  0  0  0  0  0  0  0  0
   -4.0660   21.9239  -30.6688 H   0  0  0  0  0  0  0  0  0  0  0  0
   -4.6298   19.6910  -31.6221 H   0  0  0  0  0  0  0  0  0  0  0  0
   -7.0692   16.3779  -33.8442 H   0  0  0  0  0  0  0  0  0  0  0  0
   -6.7312   16.9780  -35.5298 H   0  0  0  0  0  0  0  0  0  0  0  0
   -4.9975   15.3988  -34.2576 H   0  0  0  0  0  0  0  0  0  0  0  0
   -4.4510   16.7528  -35.3141 H   0  0  0  0  0  0  0  0  0  0  0  0
   -3.8590   18.9474  -32.5846 H   0  0  0  0  0  0  0  0  0  0  0  0
   -3.2645   18.5259  -34.2613 H   0  0  0  0  0  0  0  0  0  0  0  0
   -5.4259   20.1594  -33.6939 H   0  0  0  0  0  0  0  0  0  0  0  0
   -5.1096   19.2801  -35.2535 H   0  0  0  0  0  0  0  0  0  0  0  0
   -8.8175   20.7788  -31.6941 H   0  0  0  0  0  0  0  0  0  0  0  0
   -8.2562   23.0132  -30.7400 H   0  0  0  0  0  0  0  0  0  0  0  0
    0.8211   27.1979  -27.5763 H   0  0  0  0  0  0  0  0  0  0  0  0
   -1.4757   28.3065  -26.3074 H   0  0  0  0  0  0  0  0  0  0  0  0
   -2.0764   26.9044  -26.0021 H   0  0  0  0  0  0  0  0  0  0  0  0
    0.6897   28.1221  -24.8467 H   0  0  0  0  0  0  0  0  0  0  0  0
    0.4654   26.6877  -24.2874 H   0  0  0  0  0  0  0  0  0  0  0  0
  1  2  1  0
  2  3  2  0
  3  4  1  0
  4  5  2  0
  5  6  1  0
  6  7  1  0
  7  8  2  0
  7  9  1  0
  9 10  1  0
 10 11  2  0
 11 12  1  0
 12 13  2  0
 13 14  1  0
 14 15  2  0
 14 16  2  0
 14 17  1  0
 17 18  1  0
 18 19  1  0
 19 20  1  0
 20 21  1  0
 21 22  1  0
 13 23  1  0
 23 24  2  0
  5 25  1  0
 25 26  1  0
 25 27  2  0
 27 28  1  0
 28 29  2  0
 28 30  2  0
 28 31  1  0
 31 32  1  0
 32 33  1  0
 27  2  1  0
 33 31  1  0
 24 10  1  0
 22 17  1  0
  1 34  1  0
  1 35  1  0
  1 36  1  0
  3 37  1  0
  4 38  1  0
 11 39  1  0
 12 40  1  0
 18 41  1  0
 18 42  1  0
 19 43  1  0
 19 44  1  0
 21 45  1  0
 21 46  1  0
 22 47  1  0
 22 48  1  0
 23 49  1  0
 24 50  1  0
 31 51  1  0
 32 52  1  0
 32 53  1  0
 33 54  1  0
 33 55  1  0
M  CHG  3   6  -1   9  -1  26  -1
M  END
>  <UniqueID>  (21) 
21

>  <SMILES>  (21) 
Cc1ccc([N-]C(=O)[N-]c2ccc(S(=O)(=O)N3CCOCC3)cc2)c([O-])c1S(=O)(=O)C1CC1

>  <Energy>  (21) 
341.6236606185056

>  <Genealogy>  (21) 
Cc1ccc([N-]C(=O)[N-]c2ccc(S(=O)(=O)N3CCOCC3)cc2)c([O-])c1S(=O)(=O)C1CC1 (protonated)
Cc1ccc([N-]C(=O)[N-]c2ccc(S(=O)(=O)N3CCOCC3)cc2)c([O-])c1S(=O)(=O)C1CC1 (3D coordinates assigned)
Cc1ccc([N-]C(=O)[N-]c2ccc(S(=O)(=O)N3CCOCC3)cc2)c([O-])c1S(=O)(=O)C1CC1 (nonaromatic ring conformer: 341.6236606185056 kcal/mol)

>  <smiles>  (21) 
Cc1ccc(NC(=O)Nc2ccc(S(=O)(=O)N3CCOCC3)cc2)c(O)c1S(=O)(=O)C1CC1

>  <score_type>  (21) 
oracle

>  <origin>  (21) 
adgpu

>  <m_score__min__energy>  (21) 
-16.620000000000001

>  <m_primary>  (21) 
energy

$$$$
21:0
     RDKit          3D

 42 44  0  0  0  0  0  0  0  0999 V2000
   -1.6130   25.4250  -27.5470 C   0  0  0  0  0  0  0  0  0  0  0  0
   -1.8000   25.3390  -28.9550 O   0  0  0  0  0  0  0  0  0  0  0  0
   -2.1050   24.1550  -29.6460 C   0  0  0  0  0  0  0  0  0  0  0  0
   -1.3010   23.0040  -29.5450 C   0  0  0  0  0  0  0  0  0  0  0  0
   -1.6330   21.8450  -30.2510 C   0  0  0  0  0  0  0  0  0  0  0  0
   -2.7530   21.8220  -31.0920 C   0  0  0  0  0  0  0  0  0  0  0  0
   -3.0830   20.6110  -31.7940 N   0  0  0  0  0  0  0  0  0  0  0  0
   -4.0930   20.5210  -32.8130 C   0  0  0  0  0  0  0  0  0  0  0  0
   -4.5110   21.5640  -33.3840 O   0  0  0  0  0  0  0  0  0  0  0  0
   -4.6500   19.2020  -33.1870 C   0  0  0  0  0  0  0  0  0  0  0  0
   -3.8180   18.0720  -33.0910 C   0  0  0  0  0  0  0  0  0  0  0  0
   -4.3150   16.7960  -33.3660 C   0  0  0  0  0  0  0  0  0  0  0  0
   -5.6480   16.6310  -33.7400 C   0  0  0  0  0  0  0  0  0  0  0  0
   -6.4850   17.7420  -33.8540 C   0  0  0  0  0  0  0  0  0  0  0  0
   -5.9990   19.0330  -33.5940 C   0  0  0  0  0  0  0  0  0  0  0  0
   -6.8720   20.1530  -33.8010 N   0  0  0  0  0  0  0  0  0  0  0  0
   -3.5630   22.9650  -31.1850 C   0  0  0  0  0  0  0  0  0  0  0  0
   -3.2560   24.1240  -30.4490 C   0  0  0  0  0  0  0  0  0  0  0  0
   -4.0690   25.3020  -30.5480 N   0  0  0  0  0  0  0  0  0  0  0  0
   -5.4960   25.3600  -30.4250 C   0  0  0  0  0  0  0  0  0  0  0  0
   -6.0250   26.4070  -29.9660 O   0  0  0  0  0  0  0  0  0  0  0  0
   -6.3500   24.2030  -30.7510 C   0  0  0  0  0  0  0  0  0  0  0  0
   -6.7020   23.7930  -32.0230 C   0  0  0  0  0  0  0  0  0  0  0  0
   -7.5030   22.6850  -31.8480 C   0  0  0  0  0  0  0  0  0  0  0  0
   -7.5960   22.4900  -30.4840 C   0  0  0  0  0  0  0  0  0  0  0  0
   -6.9000   23.4120  -29.8590 O   0  0  0  0  0  0  0  0  0  0  0  0
   -2.4971   25.0184  -27.0342 H   0  0  0  0  0  0  0  0  0  0  0  0
   -0.7234   24.8455  -27.2592 H   0  0  0  0  0  0  0  0  0  0  0  0
   -1.4739   26.4775  -27.2592 H   0  0  0  0  0  0  0  0  0  0  0  0
   -0.4056   23.0171  -28.9062 H   0  0  0  0  0  0  0  0  0  0  0  0
   -1.0105   20.9442  -30.1457 H   0  0  0  0  0  0  0  0  0  0  0  0
   -2.5070   19.7590  -31.6030 H   0  0  0  0  0  0  0  0  0  0  0  0
   -2.7653   18.1944  -32.7964 H   0  0  0  0  0  0  0  0  0  0  0  0
   -3.6540   15.9203  -33.2874 H   0  0  0  0  0  0  0  0  0  0  0  0
   -6.0404   15.6241  -33.9454 H   0  0  0  0  0  0  0  0  0  0  0  0
   -7.5354   17.6047  -34.1504 H   0  0  0  0  0  0  0  0  0  0  0  0
   -7.7900   20.0230  -34.2830 H   0  0  0  0  0  0  0  0  0  0  0  0
   -6.5800   21.1300  -33.5880 H   0  0  0  0  0  0  0  0  0  0  0  0
   -4.4467   22.9542  -31.8400 H   0  0  0  0  0  0  0  0  0  0  0  0
   -6.4049   24.2546  -32.9762 H   0  0  0  0  0  0  0  0  0  0  0  0
   -7.9733   22.0784  -32.6359 H   0  0  0  0  0  0  0  0  0  0  0  0
   -8.1657   21.6856  -29.9957 H   0  0  0  0  0  0  0  0  0  0  0  0
  1  2  1  0
  2  3  1  0
  3  4  2  0
  4  5  1  0
  5  6  2  0
  6  7  1  0
  7  8  1  0
  8  9  2  0
  8 10  1  0
 10 11  2  0
 11 12  1  0
 12 13  2  0
 13 14  1  0
 14 15  2  0
 15 16  1  0
  6 17  1  0
 17 18  2  0
 18 19  1  0
 19 20  1  0
 20 21  2  0
 20 22  1  0
 22 23  2  0
 23 24  1  0
 24 25  2  0
 25 26  1  0
 18  3  1  0
 26 22  1  0
 15 10  1  0
  1 27  1  0
  1 28  1  0
  1 29  1  0
  4 30  1  0
  5 31  1  0
  7 32  1  0
 11 33  1  0
 12 34  1  0
 13 35  1  0
 14 36  1  0
 16 37  1  0
 16 38  1  0
 17 39  1  0
 23 40  1  0
 24 41  1  0
 25 42  1  0
M  CHG  1  19  -1
M  END
>  <UniqueID>  (22) 
22

>  <SMILES>  (22) 
COc1ccc(NC(=O)c2ccccc2N)cc1[N-]C(=O)c1ccco1

>  <Energy>  (22) 
82.85272351826244

>  <Genealogy>  (22) 
COc1ccc(NC(=O)c2ccccc2N)cc1[N-]C(=O)c1ccco1 (protonated)
COc1ccc(NC(=O)c2ccccc2N)cc1[N-]C(=O)c1ccco1 (3D coordinates assigned)
COc1ccc(NC(=O)c2ccccc2N)cc1[N-]C(=O)c1ccco1 (optimized conformer: 82.85272351826244 kcal/mol)

>  <smiles>  (22) 
COc1ccc(NC(=O)c2ccccc2N)cc1NC(=O)c1ccco1

>  <score_type>  (22) 
oracle

>  <origin>  (22) 
adgpu

>  <m_score__min__energy>  (22) 
-9.6999999999999993

>  <m_primary>  (22) 
energy

$$$$
22:0
     RDKit          3D

 47 50  0  0  0  0  0  0  0  0999 V2000
   -5.7880   26.3030  -30.5950 O   0  0  0  0  0  0  0  0  0  0  0  0
   -5.1140   25.2400  -30.6500 C   0  0  0  0  0  0  0  0  0  0  0  0
   -3.7170   25.3010  -30.3280 N   0  0  0  0  0  0  0  0  0  0  0  0
   -3.0170   24.4460  -29.4140 C   0  0  0  0  0  0  0  0  0  0  0  0
   -3.5410   23.1980  -29.0290 C   0  0  0  0  0  0  0  0  0  0  0  0
   -2.8310   22.3780  -28.1460 C   0  0  0  0  0  0  0  0  0  0  0  0
   -1.5900   22.7870  -27.6540 C   0  0  0  0  0  0  0  0  0  0  0  0
   -1.0520   24.0150  -28.0500 C   0  0  0  0  0  0  0  0  0  0  0  0
   -1.7590   24.8400  -28.9320 C   0  0  0  0  0  0  0  0  0  0  0  0
   -1.2110   26.0580  -29.3210 O   0  0  0  0  0  0  0  0  0  0  0  0
   -5.7960   23.9630  -30.9770 C   0  0  0  0  0  0  0  0  0  0  0  0
   -5.5390   23.3190  -32.1990 C   0  0  0  0  0  0  0  0  0  0  0  0
   -6.2060   22.1370  -32.5340 C   0  0  0  0  0  0  0  0  0  0  0  0
   -7.1380   21.5760  -31.6510 C   0  0  0  0  0  0  0  0  0  0  0  0
   -7.9740   20.0770  -32.0720 S   0  0  0  0  0  0  0  0  0  0  0  0
   -8.7730   19.6040  -30.8890 O   0  0  0  0  0  0  0  0  0  0  0  0
   -8.9320   20.3460  -33.2010 O   0  0  0  0  0  0  0  0  0  0  0  0
   -6.8420   18.8180  -32.5160 N   0  0  0  0  0  0  0  0  0  0  0  0
   -6.4830   18.8940  -33.9590 C   0  0  0  0  0  0  0  0  0  0  0  0
   -5.0210   18.5300  -34.2560 C   0  0  0  0  0  0  0  0  0  0  0  0
   -4.1330   19.3510  -33.3720 C   0  0  0  0  0  0  0  0  0  0  0  0
   -2.9680   19.9660  -33.8520 C   0  0  0  0  0  0  0  0  0  0  0  0
   -2.1720   20.7180  -32.9840 C   0  0  0  0  0  0  0  0  0  0  0  0
   -2.5320   20.8500  -31.6390 C   0  0  0  0  0  0  0  0  0  0  0  0
   -3.6920   20.2340  -31.1570 C   0  0  0  0  0  0  0  0  0  0  0  0
   -4.4990   19.4880  -32.0290 C   0  0  0  0  0  0  0  0  0  0  0  0
   -5.7180   18.7470  -31.5490 C   0  0  0  0  0  0  0  0  0  0  0  0
   -7.3990   22.2140  -30.4310 C   0  0  0  0  0  0  0  0  0  0  0  0
   -6.7440   23.4030  -30.1020 C   0  0  0  0  0  0  0  0  0  0  0  0
   -4.5125   22.8662  -29.4240 H   0  0  0  0  0  0  0  0  0  0  0  0
   -3.2511   21.4090  -27.8386 H   0  0  0  0  0  0  0  0  0  0  0  0
   -1.0359   22.1432  -26.9551 H   0  0  0  0  0  0  0  0  0  0  0  0
   -0.0710   24.3334  -27.6676 H   0  0  0  0  0  0  0  0  0  0  0  0
   -4.8065   23.7486  -32.8982 H   0  0  0  0  0  0  0  0  0  0  0  0
   -5.9981   21.6449  -33.4956 H   0  0  0  0  0  0  0  0  0  0  0  0
   -7.1322   18.2012  -34.5145 H   0  0  0  0  0  0  0  0  0  0  0  0
   -6.6207   19.9407  -34.2678 H   0  0  0  0  0  0  0  0  0  0  0  0
   -4.8574   17.4610  -34.0549 H   0  0  0  0  0  0  0  0  0  0  0  0
   -4.7909   18.7341  -35.3121 H   0  0  0  0  0  0  0  0  0  0  0  0
   -2.6816   19.8569  -34.9084 H   0  0  0  0  0  0  0  0  0  0  0  0
   -1.2608   21.2069  -33.3591 H   0  0  0  0  0  0  0  0  0  0  0  0
   -1.9011   21.4400  -30.9579 H   0  0  0  0  0  0  0  0  0  0  0  0
   -3.9704   20.3343  -30.0976 H   0  0  0  0  0  0  0  0  0  0  0  0
   -5.4512   17.6911  -31.3946 H   0  0  0  0  0  0  0  0  0  0  0  0
   -6.0507   19.2202  -30.6134 H   0  0  0  0  0  0  0  0  0  0  0  0
   -8.1236   21.7761  -29.7287 H   0  0  0  0  0  0  0  0  0  0  0  0
   -6.9716   23.9057  -29.1504 H   0  0  0  0  0  0  0  0  0  0  0  0
  1  2  2  0
  2  3  1  0
  3  4  1  0
  4  5  2  0
  5  6  1  0
  6  7  2  0
  7  8  1  0
  8  9  2  0
  9 10  1  0
  2 11  1  0
 11 12  2  0
 12 13  1  0
 13 14  2  0
 14 15  1  0
 15 16  2  0
 15 17  2  0
 15 18  1  0
 18 19  1  0
 19 20  1  0
 20 21  1  0
 21 22  2  0
 22 23  1  0
 23 24  2  0
 24 25  1  0
 25 26  2  0
 26 27  1  0
 14 28  1  0
 28 29  2  0
  9  4  1  0
 29 11  1  0
 27 18  1  0
 26 21  1  0
  5 30  1  0
  6 31  1  0
  7 32  1  0
  8 33  1  0
 12 34  1  0
 13 35  1  0
 19 36  1  0
 19 37  1  0
 20 38  1  0
 20 39  1  0
 22 40  1  0
 23 41  1  0
 24 42  1  0
 25 43  1  0
 27 44  1  0
 27 45  1  0
 28 46  1  0
 29 47  1  0
M  CHG  2   3  -1  10  -1
M  END
>  <UniqueID>  (23) 
23

>  <SMILES>  (23) 
O=C([N-]c1ccccc1[O-])c1ccc(S(=O)(=O)N2CCc3ccccc3C2)cc1

>  <Energy>  (23) 
64.74571306530576

>  <Genealogy>  (23) 
O=C([N-]c1ccccc1[O-])c1ccc(S(=O)(=O)N2CCc3ccccc3C2)cc1 (protonated)
O=C([N-]c1ccccc1[O-])c1ccc(S(=O)(=O)N2CCc3ccccc3C2)cc1 (3D coordinates assigned)
O=C([N-]c1ccccc1[O-])c1ccc(S(=O)(=O)N2CCc3ccccc3C2)cc1 (nonaromatic ring conformer: 64.74571306530576 kcal/mol)

>  <smiles>  (23) 
O=C(Nc1ccccc1O)c1ccc(S(=O)(=O)N2CCc3ccccc3C2)cc1

>  <score_type>  (23) 
oracle

>  <origin>  (23) 
adgpu

>  <m_score__min__energy>  (23) 
-15.390000000000001

>  <m_primary>  (23) 
energy

$$$$
23:0
     RDKit          3D

 48 50  0  0  0  0  0  0  0  0999 V2000
   -3.2060   22.2990  -28.9460 C   0  0  0  0  0  0  0  0  0  0  0  0
   -2.4450   23.0560  -30.4150 S   0  0  0  0  0  0  0  0  0  0  0  0
   -2.6980   21.6050  -31.4450 C   0  0  0  0  0  0  0  0  0  0  0  0
   -1.9110   20.4690  -31.2180 C   0  0  0  0  0  0  0  0  0  0  0  0
   -2.0990   19.3140  -31.9800 C   0  0  0  0  0  0  0  0  0  0  0  0
   -3.0780   19.2820  -32.9810 C   0  0  0  0  0  0  0  0  0  0  0  0
   -3.2690   18.1000  -33.7620 N   0  0  0  0  0  0  0  0  0  0  0  0
   -3.8730   20.4140  -33.2080 C   0  0  0  0  0  0  0  0  0  0  0  0
   -3.7010   21.5760  -32.4340 C   0  0  0  0  0  0  0  0  0  0  0  0
   -4.5220   22.7280  -32.6730 N   0  0  0  0  0  0  0  0  0  0  0  0
   -5.3380   23.3220  -31.6600 C   0  0  0  0  0  0  0  0  0  0  0  0
   -6.5110   23.0000  -30.9870 C   0  0  0  0  0  0  0  0  0  0  0  0
   -7.4350   21.9040  -30.9410 N   0  0  0  0  0  0  0  0  0  0  0  0
   -8.4630   21.6570  -31.9480 C   0  0  0  0  0  0  0  0  0  0  0  0
   -8.8660   20.1650  -32.0460 C   0  0  0  0  0  0  0  0  0  0  0  0
   -7.9740   19.2850  -32.8500 N   0  0  0  0  0  0  0  0  0  0  0  0
   -7.1560   18.3550  -32.0460 C   0  0  0  0  0  0  0  0  0  0  0  0
   -6.4000   17.3690  -32.9680 C   0  0  0  0  0  0  0  0  0  0  0  0
   -6.4650   17.7400  -34.3360 O   0  0  0  0  0  0  0  0  0  0  0  0
   -6.0990   19.0970  -34.4870 C   0  0  0  0  0  0  0  0  0  0  0  0
   -7.1240   20.0300  -33.8040 C   0  0  0  0  0  0  0  0  0  0  0  0
   -6.4210   24.1830  -30.2820 C   0  0  0  0  0  0  0  0  0  0  0  0
   -7.1230   24.7470  -29.4020 O   0  0  0  0  0  0  0  0  0  0  0  0
   -5.2300   24.4760  -30.9100 C   0  0  0  0  0  0  0  0  0  0  0  0
   -4.3960   25.4150  -30.8420 O   0  0  0  0  0  0  0  0  0  0  0  0
   -2.7657   22.7370  -28.0381 H   0  0  0  0  0  0  0  0  0  0  0  0
   -4.2896   22.4879  -28.9559 H   0  0  0  0  0  0  0  0  0  0  0  0
   -3.0228   21.2144  -28.9559 H   0  0  0  0  0  0  0  0  0  0  0  0
   -1.1395   20.4867  -30.4341 H   0  0  0  0  0  0  0  0  0  0  0  0
   -1.4763   18.4266  -31.7935 H   0  0  0  0  0  0  0  0  0  0  0  0
   -2.4530   17.5360  -34.0870 H   0  0  0  0  0  0  0  0  0  0  0  0
   -4.2290   17.7780  -34.0190 H   0  0  0  0  0  0  0  0  0  0  0  0
   -4.6380   20.3935  -33.9982 H   0  0  0  0  0  0  0  0  0  0  0  0
   -4.6170   23.0890  -33.6470 H   0  0  0  0  0  0  0  0  0  0  0  0
   -7.3220   21.2060  -30.1710 H   0  0  0  0  0  0  0  0  0  0  0  0
   -9.3558   22.2453  -31.6895 H   0  0  0  0  0  0  0  0  0  0  0  0
   -8.0467   21.9507  -32.9229 H   0  0  0  0  0  0  0  0  0  0  0  0
   -8.9003   19.7607  -31.0236 H   0  0  0  0  0  0  0  0  0  0  0  0
   -9.8312   20.1593  -32.5736 H   0  0  0  0  0  0  0  0  0  0  0  0
   -8.6220   18.6950  -33.4280 H   0  0  0  0  0  0  0  0  0  0  0  0
   -6.4278   18.9302  -31.4553 H   0  0  0  0  0  0  0  0  0  0  0  0
   -7.8170   17.7840  -31.3775 H   0  0  0  0  0  0  0  0  0  0  0  0
   -5.3441   17.3393  -32.6611 H   0  0  0  0  0  0  0  0  0  0  0  0
   -6.8805   16.3846  -32.8672 H   0  0  0  0  0  0  0  0  0  0  0  0
   -5.1103   19.2551  -34.0315 H   0  0  0  0  0  0  0  0  0  0  0  0
   -6.0728   19.3339  -35.5609 H   0  0  0  0  0  0  0  0  0  0  0  0
   -6.5841   20.8203  -33.2618 H   0  0  0  0  0  0  0  0  0  0  0  0
   -7.7708   20.4642  -34.5806 H   0  0  0  0  0  0  0  0  0  0  0  0
  1  2  1  0
  2  3  1  0
  3  4  2  0
  4  5  1  0
  5  6  2  0
  6  7  1  0
  6  8  1  0
  8  9  2  0
  9 10  1  0
 10 11  1  0
 11 12  2  0
 12 13  1  0
 13 14  1  0
 14 15  1  0
 15 16  1  0
 16 17  1  0
 17 18  1  0
 18 19  1  0
 19 20  1  0
 20 21  1  0
 12 22  1  0
 22 23  2  0
 22 24  1  0
 24 25  2  0
  9  3  1  0
 24 11  1  0
 21 16  1  0
  1 26  1  0
  1 27  1  0
  1 28  1  0
  4 29  1  0
  5 30  1  0
  7 31  1  0
  7 32  1  0
  8 33  1  0
 10 34  1  0
 13 35  1  0
 14 36  1  0
 14 37  1  0
 15 38  1  0
 15 39  1  0
 16 40  1  0
 17 41  1  0
 17 42  1  0
 18 43  1  0
 18 44  1  0
 20 45  1  0
 20 46  1  0
 21 47  1  0
 21 48  1  0
M  CHG  1  16   1
M  END
>  <UniqueID>  (24) 
24

>  <SMILES>  (24) 
CSc1ccc(N)cc1Nc1c(NCC[NH+]2CCOCC2)c(=O)c1=O

>  <Energy>  (24) 
51.31636158127486

>  <Genealogy>  (24) 
CSc1ccc(N)cc1Nc1c(NCC[NH+]2CCOCC2)c(=O)c1=O (protonated)
CSc1ccc(N)cc1Nc1c(NCC[NH+]2CCOCC2)c(=O)c1=O (3D coordinates assigned)
CSc1ccc(N)cc1Nc1c(NCC[NH+]2CCOCC2)c(=O)c1=O (nonaromatic ring conformer: 51.31636158127486 kcal/mol)

>  <smiles>  (24) 
CSc1ccc(N)cc1Nc1c(NCCN2CCOCC2)c(=O)c1=O

>  <score_type>  (24) 
oracle

>  <origin>  (24) 
adgpu

>  <m_score__min__energy>  (24) 
-7.21

>  <m_primary>  (24) 
energy

$$$$
24:0
     RDKit          3D

 30 31  0  0  0  0  0  0  0  0999 V2000
   -9.0910   21.6120  -31.8970 C   0  0  0  0  0  0  0  0  0  0  0  0
   -7.6290   21.9600  -31.9530 C   0  0  0  0  0  0  0  0  0  0  0  0
   -7.1610   23.1020  -31.2770 C   0  0  0  0  0  0  0  0  0  0  0  0
   -5.8070   23.4520  -31.3220 C   0  0  0  0  0  0  0  0  0  0  0  0
   -5.2400   24.8950  -30.4850 S   0  0  0  0  0  0  0  0  0  0  0  0
   -5.7250   26.1080  -31.2280 O   0  0  0  0  0  0  0  0  0  0  0  0
   -5.7690   24.9350  -29.0790 O   0  0  0  0  0  0  0  0  0  0  0  0
   -3.5060   24.9160  -30.4370 N   0  0  0  0  0  0  0  0  0  0  0  0
   -2.6950   24.1910  -29.5010 C   0  0  0  0  0  0  0  0  0  0  0  0
   -3.0050   22.8750  -29.1090 C   0  0  0  0  0  0  0  0  0  0  0  0
   -2.1850   22.1990  -28.2010 C   0  0  0  0  0  0  0  0  0  0  0  0
   -1.0540   22.8280  -27.6750 C   0  0  0  0  0  0  0  0  0  0  0  0
   -0.7420   24.1350  -28.0550 C   0  0  0  0  0  0  0  0  0  0  0  0
   -1.5580   24.8150  -28.9650 C   0  0  0  0  0  0  0  0  0  0  0  0
   -1.2330   26.1160  -29.3360 O   0  0  0  0  0  0  0  0  0  0  0  0
   -4.9070   22.6510  -32.0330 C   0  0  0  0  0  0  0  0  0  0  0  0
   -5.3590   21.5140  -32.7040 C   0  0  0  0  0  0  0  0  0  0  0  0
   -6.7130   21.1600  -32.6740 C   0  0  0  0  0  0  0  0  0  0  0  0
   -7.1150   20.0150  -33.3630 O   0  0  0  0  0  0  0  0  0  0  0  0
   -9.4099   21.5361  -30.8470 H   0  0  0  0  0  0  0  0  0  0  0  0
   -9.6742   22.3964  -32.4015 H   0  0  0  0  0  0  0  0  0  0  0  0
   -9.2583   20.6489  -32.4015 H   0  0  0  0  0  0  0  0  0  0  0  0
   -7.8663   23.7254  -30.7078 H   0  0  0  0  0  0  0  0  0  0  0  0
   -3.8959   22.3767  -29.5188 H   0  0  0  0  0  0  0  0  0  0  0  0
   -2.4307   21.1699  -27.9001 H   0  0  0  0  0  0  0  0  0  0  0  0
   -0.4093   22.2938  -26.9616 H   0  0  0  0  0  0  0  0  0  0  0  0
    0.1471   24.6306  -27.6379 H   0  0  0  0  0  0  0  0  0  0  0  0
   -3.8404   22.9181  -32.0632 H   0  0  0  0  0  0  0  0  0  0  0  0
   -4.6448   20.8902  -33.2616 H   0  0  0  0  0  0  0  0  0  0  0  0
   -7.6650   20.0470  -34.2120 H   0  0  0  0  0  0  0  0  0  0  0  0
  1  2  1  0
  2  3  2  0
  3  4  1  0
  4  5  1  0
  5  6  2  0
  5  7  2  0
  5  8  1  0
  8  9  1  0
  9 10  2  0
 10 11  1  0
 11 12  2  0
 12 13  1  0
 13 14  2  0
 14 15  1  0
  4 16  2  0
 16 17  1  0
 17 18  2  0
 18 19  1  0
 18  2  1  0
 14  9  1  0
  1 20  1  0
  1 21  1  0
  1 22  1  0
  3 23  1  0
 10 24  1  0
 11 25  1  0
 12 26  1  0
 13 27  1  0
 16 28  1  0
 17 29  1  0
 19 30  1  0
M  CHG  2   8  -1  15  -1
M  END
>  <UniqueID>  (25) 
25

>  <SMILES>  (25) 
Cc1cc(S(=O)(=O)[N-]c2ccccc2[O-])ccc1O

>  <Energy>  (25) 
34.27116405394273

>  <Genealogy>  (25) 
Cc1cc(S(=O)(=O)[N-]c2ccccc2[O-])ccc1O (protonated)
Cc1cc(S(=O)(=O)[N-]c2ccccc2[O-])ccc1O (3D coordinates assigned)
Cc1cc(S(=O)(=O)[N-]c2ccccc2[O-])ccc1O (optimized conformer: 34.27116405394273 kcal/mol)

>  <smiles>  (25) 
Cc1cc(S(=O)(=O)Nc2ccccc2O)ccc1O

>  <score_type>  (25) 
oracle

>  <origin>  (25) 
adgpu

>  <m_score__min__energy>  (25) 
-12.220000000000001

>  <m_primary>  (25) 
energy

$$$$
25:0
     RDKit          3D

 62 66  0  0  0  0  0  0  0  0999 V2000
    1.3823   19.3195  -30.5204 H   0  0  0  0  0  0  0  0  0  0  0  0
    0.7730   19.0170  -29.6560 C   0  0  0  0  0  0  0  0  0  0  0  0
    1.1100   17.8700  -28.9330 C   0  0  0  0  0  0  0  0  0  0  0  0
    1.9838   17.2712  -29.2294 H   0  0  0  0  0  0  0  0  0  0  0  0
    0.3370   17.4810  -27.8310 C   0  0  0  0  0  0  0  0  0  0  0  0
    0.6730   16.3020  -27.0960 N   0  0  0  0  0  0  0  0  0  0  0  0
   -0.0240   15.8380  -26.4660 H   0  0  0  0  0  0  0  0  0  0  0  0
    1.6200   15.8700  -27.1810 H   0  0  0  0  0  0  0  0  0  0  0  0
   -0.7740   18.2500  -27.4560 C   0  0  0  0  0  0  0  0  0  0  0  0
   -1.3785   17.9498  -26.5874 H   0  0  0  0  0  0  0  0  0  0  0  0
   -1.1200   19.4020  -28.1830 C   0  0  0  0  0  0  0  0  0  0  0  0
   -2.3210   20.2220  -27.7830 C   0  0  0  0  0  0  0  0  0  0  0  0
   -2.8348   19.7234  -26.9479 H   0  0  0  0  0  0  0  0  0  0  0  0
   -2.9907   20.3088  -28.6514 H   0  0  0  0  0  0  0  0  0  0  0  0
   -1.9190   21.5810  -27.3610 N   0  0  0  0  0  0  0  0  0  0  0  0
   -1.2310   21.7690  -26.1840 C   0  0  0  0  0  0  0  0  0  0  0  0
   -0.9170   20.7830  -25.4620 O   0  0  0  0  0  0  0  0  0  0  0  0
   -0.8770   23.0680  -25.7710 C   0  0  0  0  0  0  0  0  0  0  0  0
   -0.1180   23.3060  -24.5020 C   0  0  0  0  0  0  0  0  0  0  0  0
   -0.7707   23.1013  -23.6405 H   0  0  0  0  0  0  0  0  0  0  0  0
    0.7558   22.6387  -24.4667 H   0  0  0  0  0  0  0  0  0  0  0  0
    0.2183   24.3527  -24.4667 H   0  0  0  0  0  0  0  0  0  0  0  0
   -1.1950   24.1270  -26.5600 N   0  0  0  0  0  0  0  0  0  0  0  0
   -1.8570   23.9560  -27.7290 C   0  0  0  0  0  0  0  0  0  0  0  0
   -2.1810   25.0440  -28.5360 C   0  0  0  0  0  0  0  0  0  0  0  0
   -1.9090   26.0628  -28.2230 H   0  0  0  0  0  0  0  0  0  0  0  0
   -2.8340   24.8440  -29.7110 N   0  0  0  0  0  0  0  0  0  0  0  0
   -3.0580   25.6690  -30.3140 H   0  0  0  0  0  0  0  0  0  0  0  0
   -3.1800   23.5900  -30.1170 C   0  0  0  0  0  0  0  0  0  0  0  0
   -3.7480   23.4230  -31.2770 N   0  0  0  0  0  0  0  0  0  0  0  0
   -4.1730   22.1660  -31.8280 C   0  0  0  0  0  0  0  0  0  0  0  0
   -3.2050   21.2630  -32.2770 C   0  0  0  0  0  0  0  0  0  0  0  0
   -2.1405   21.5365  -32.2327 H   0  0  0  0  0  0  0  0  0  0  0  0
   -3.5800   20.0170  -32.7810 C   0  0  0  0  0  0  0  0  0  0  0  0
   -2.8075   19.3066  -33.1105 H   0  0  0  0  0  0  0  0  0  0  0  0
   -4.9400   19.6620  -32.8710 C   0  0  0  0  0  0  0  0  0  0  0  0
   -5.3270   18.3710  -33.3850 N   0  0  0  0  0  0  0  0  0  0  0  0
   -4.8540   17.9150  -34.6980 C   0  0  0  0  0  0  0  0  0  0  0  0
   -5.5988   18.1724  -35.4654 H   0  0  0  0  0  0  0  0  0  0  0  0
   -3.8986   18.4065  -34.9338 H   0  0  0  0  0  0  0  0  0  0  0  0
   -4.6530   16.3960  -34.6710 C   0  0  0  0  0  0  0  0  0  0  0  0
   -4.3398   16.0664  -35.6726 H   0  0  0  0  0  0  0  0  0  0  0  0
   -3.8898   16.1794  -33.9090 H   0  0  0  0  0  0  0  0  0  0  0  0
   -5.8830   15.6520  -34.2910 N   0  0  0  0  0  0  0  0  0  0  0  0
   -5.5280   14.4080  -33.5870 C   0  0  0  0  0  0  0  0  0  0  0  0
   -5.5757   14.5750  -32.5008 H   0  0  0  0  0  0  0  0  0  0  0  0
   -6.2353   13.6135  -33.8672 H   0  0  0  0  0  0  0  0  0  0  0  0
   -4.5079   14.1064  -33.8672 H   0  0  0  0  0  0  0  0  0  0  0  0
   -6.8650   16.4460  -33.5080 C   0  0  0  0  0  0  0  0  0  0  0  0
   -7.5328   16.9685  -34.2087 H   0  0  0  0  0  0  0  0  0  0  0  0
   -7.4167   15.7466  -32.8627 H   0  0  0  0  0  0  0  0  0  0  0  0
   -6.1990   17.4860  -32.5980 C   0  0  0  0  0  0  0  0  0  0  0  0
   -6.9768   18.0879  -32.1053 H   0  0  0  0  0  0  0  0  0  0  0  0
   -5.5914   16.9641  -31.8440 H   0  0  0  0  0  0  0  0  0  0  0  0
   -5.9130   20.5900  -32.4580 C   0  0  0  0  0  0  0  0  0  0  0  0
   -6.9798   20.3333  -32.5357 H   0  0  0  0  0  0  0  0  0  0  0  0
   -5.5350   21.8350  -31.9500 C   0  0  0  0  0  0  0  0  0  0  0  0
   -6.3047   22.5590  -31.6443 H   0  0  0  0  0  0  0  0  0  0  0  0
   -2.8700   22.5210  -29.3310 N   0  0  0  0  0  0  0  0  0  0  0  0
   -2.2230   22.6660  -28.1450 C   0  0  0  0  0  0  0  0  0  0  0  0
   -0.3350   19.7800  -29.2840 C   0  0  0  0  0  0  0  0  0  0  0  0
   -0.5947   20.6826  -29.8567 H   0  0  0  0  0  0  0  0  0  0  0  0
  1  2  1  0
  2  3  2  0
  3  4  1  0
  3  5  1  0
  5  6  1  0
  6  7  1  0
  6  8  1  0
  5  9  2  0
  9 10  1  0
  9 11  1  0
 11 12  1  0
 12 13  1  0
 12 14  1  0
 12 15  1  0
 15 16  1  0
 16 17  2  0
 16 18  1  0
 18 19  1  0
 19 20  1  0
 19 21  1  0
 19 22  1  0
 18 23  2  0
 23 24  1  0
 24 25  2  0
 25 26  1  0
 25 27  1  0
 27 28  1  0
 27 29  1  0
 29 30  2  0
 30 31  1  0
 31 32  2  0
 32 33  1  0
 32 34  1  0
 34 35  1  0
 34 36  2  0
 36 37  1  0
 37 38  1  0
 38 39  1  0
 38 40  1  0
 38 41  1  0
 41 42  1  0
 41 43  1  0
 41 44  1  0
 44 45  1  0
 45 46  1  0
 45 47  1  0
 45 48  1  0
 44 49  1  0
 49 50  1  0
 49 51  1  0
 49 52  1  0
 52 53  1  0
 52 54  1  0
 36 55  1  0
 55 56  1  0
 55 57  2  0
 57 58  1  0
 29 59  1  0
 59 60  2  0
 11 61  2  0
 61 62  1  0
 61  2  1  0
 60 15  1  0
 60 24  1  0
 57 31  1  0
 52 37  1  0
M  END
>  <UniqueID>  (26) 
26

>  <SMILES>  (26) 
Cc1nc2c[nH]/c(=N/c3ccc(N4CCN(C)CC4)cc3)nc2n(Cc2cccc(N)c2)c1=O

>  <Energy>  (26) 
86.70009996594048

>  <Genealogy>  (26) 
Cc1nc2c[nH]/c(=N/c3ccc(N4CCN(C)CC4)cc3)nc2n(Cc2cccc(N)c2)c1=O (cis-trans isomerization)
Cc1nc2c[nH]/c(=N/c3ccc(N4CCN(C)CC4)cc3)nc2n(Cc2cccc(N)c2)c1=O (3D coordinates assigned)
Cc1nc2c[nH]/c(=N/c3ccc(N4CCN(C)CC4)cc3)nc2n(Cc2cccc(N)c2)c1=O (nonaromatic ring conformer: 86.70009996594048 kcal/mol)

>  <smiles>  (26) 
Cc1nc2c[nH]c(=Nc3ccc(N4CCN(C)CC4)cc3)nc2n(Cc2cccc(N)c2)c1=O

>  <score_type>  (26) 
oracle

>  <origin>  (26) 
adgpu

>  <m_score__min__energy>  (26) 
-9.2599999999999998

>  <m_primary>  (26) 
energy

$$$$
26:0
     RDKit          3D

 42 44  0  0  0  0  0  0  0  0999 V2000
   -4.1900   22.4110  -27.8770 C   0  0  0  0  0  0  0  0  0  0  0  0
   -4.3200   23.7460  -28.4990 N   0  0  1  0  0  0  0  0  0  0  0  0
   -3.1990   24.5520  -28.0500 C   0  0  0  0  0  0  0  0  0  0  0  0
   -3.0530   24.8970  -26.6970 C   0  0  0  0  0  0  0  0  0  0  0  0
   -1.9620   25.6690  -26.3030 C   0  0  0  0  0  0  0  0  0  0  0  0
   -1.0370   26.0760  -27.2610 C   0  0  0  0  0  0  0  0  0  0  0  0
   -1.2110   25.7130  -28.5570 N   0  0  0  0  0  0  0  0  0  0  0  0
   -2.2550   24.9750  -28.9390 N   0  0  0  0  0  0  0  0  0  0  0  0
   -4.3720   23.6700  -29.9950 C   0  0  2  0  0  0  0  0  0  0  0  0
   -5.1320   24.8560  -30.6460 C   0  0  0  0  0  0  0  0  0  0  0  0
   -6.6180   24.8950  -30.2560 C   0  0  0  0  0  0  0  0  0  0  0  0
   -7.2440   23.4980  -30.1070 C   0  0  0  0  0  0  0  0  0  0  0  0
   -6.4480   22.4750  -30.8010 N   0  0  0  0  0  0  0  0  0  0  0  0
   -7.0900   21.4570  -31.5920 C   0  0  0  0  0  0  0  0  0  0  0  0
   -6.3370   20.5150  -32.3070 C   0  0  0  0  0  0  0  0  0  0  0  0
   -7.0080   19.5340  -33.0470 C   0  0  0  0  0  0  0  0  0  0  0  0
   -6.2380   18.5040  -33.8200 C   0  0  0  0  0  0  0  0  0  0  0  0
   -6.9000   17.2880  -33.8040 F   0  0  0  0  0  0  0  0  0  0  0  0
   -6.0930   18.9160  -35.1320 F   0  0  0  0  0  0  0  0  0  0  0  0
   -4.9870   18.3400  -33.2530 F   0  0  0  0  0  0  0  0  0  0  0  0
   -8.3690   19.5050  -33.0400 N   0  0  0  0  0  0  0  0  0  0  0  0
   -9.0860   20.4130  -32.3300 C   0  0  0  0  0  0  0  0  0  0  0  0
   -8.4480   21.3730  -31.6120 N   0  0  0  0  0  0  0  0  0  0  0  0
   -5.0090   22.3460  -30.5170 C   0  0  0  0  0  0  0  0  0  0  0  0
   -4.2000   22.5142  -26.7819 H   0  0  0  0  0  0  0  0  0  0  0  0
   -5.0305   21.7758  -28.1932 H   0  0  0  0  0  0  0  0  0  0  0  0
   -3.2427   21.9498  -28.1932 H   0  0  0  0  0  0  0  0  0  0  0  0
   -5.2110   24.1630  -28.1450 H   0  0  0  0  0  0  0  0  0  0  0  0
   -3.7926   24.5612  -25.9552 H   0  0  0  0  0  0  0  0  0  0  0  0
   -1.8330   25.9534  -25.2483 H   0  0  0  0  0  0  0  0  0  0  0  0
   -0.1707   26.6879  -26.9691 H   0  0  0  0  0  0  0  0  0  0  0  0
   -3.3141   23.7118  -30.2937 H   0  0  0  0  0  0  0  0  0  0  0  0
   -4.6592   25.7957  -30.3245 H   0  0  0  0  0  0  0  0  0  0  0  0
   -5.0785   24.7257  -31.7369 H   0  0  0  0  0  0  0  0  0  0  0  0
   -6.7135   25.4247  -29.2967 H   0  0  0  0  0  0  0  0  0  0  0  0
   -7.1548   25.4080  -31.0676 H   0  0  0  0  0  0  0  0  0  0  0  0
   -7.3000   23.2434  -29.0383 H   0  0  0  0  0  0  0  0  0  0  0  0
   -8.2474   23.5192  -30.5572 H   0  0  0  0  0  0  0  0  0  0  0  0
   -5.2376   20.5461  -32.2869 H   0  0  0  0  0  0  0  0  0  0  0  0
  -10.1852   20.3711  -32.3363 H   0  0  0  0  0  0  0  0  0  0  0  0
   -4.8704   21.5654  -29.7544 H   0  0  0  0  0  0  0  0  0  0  0  0
   -4.5080   22.0890  -31.4620 H   0  0  0  0  0  0  0  0  0  0  0  0
  1  2  1  0
  2  3  1  0
  3  4  2  0
  4  5  1  0
  5  6  2  0
  6  7  1  0
  7  8  2  0
  2  9  1  0
  9 10  1  0
 10 11  1  0
 11 12  1  0
 12 13  1  0
 13 14  1  0
 14 15  2  0
 15 16  1  0
 16 17  1  0
 17 18  1  0
 17 19  1  0
 17 20  1  0
 16 21  2  0
 21 22  1  0
 22 23  2  0
 13 24  1  0
  8  3  1  0
 24  9  1  0
 23 14  1  0
  1 25  1  0
  1 26  1  0
  1 27  1  0
  2 28  1  1
  4 29  1  0
  5 30  1  0
  6 31  1  0
  9 32  1  6
 10 33  1  0
 10 34  1  0
 11 35  1  0
 11 36  1  0
 12 37  1  0
 12 38  1  0
 15 39  1  0
 22 40  1  0
 24 41  1  0
 24 42  1  0
M  CHG  1   2   1
M  END
>  <UniqueID>  (27) 
27

>  <SMILES>  (27) 
C[N@@H+](c1cccnn1)[C@@H]1CCCN(c2cc(C(F)(F)F)ncn2)C1

>  <Energy>  (27) 
60.272967403395434

>  <Genealogy>  (27) 
C[NH+](c1cccnn1)C1CCCN(c2cc(C(F)(F)F)ncn2)C1 (protonated)
C[N@@H+](c1cccnn1)[C@@H]1CCCN(c2cc(C(F)(F)F)ncn2)C1 (chirality)
C[N@@H+](c1cccnn1)[C@@H]1CCCN(c2cc(C(F)(F)F)ncn2)C1 (3D coordinates assigned)
C[N@@H+](c1cccnn1)[C@@H]1CCCN(c2cc(C(F)(F)F)ncn2)C1 (nonaromatic ring conformer: 60.272967403395434 kcal/mol)

>  <smiles>  (27) 
CN(c1cccnn1)C1CCCN(c2cc(C(F)(F)F)ncn2)C1

>  <score_type>  (27) 
oracle

>  <origin>  (27) 
adgpu

>  <m_score__min__energy>  (27) 
-6.8099999999999996

>  <m_primary>  (27) 
energy

$$$$
27:0
     RDKit          3D

 39 41  0  0  0  0  0  0  0  0999 V2000
    1.7210   24.9130  -28.7020 H   0  0  0  0  0  0  0  0  0  0  0  0
    1.2770   24.6120  -27.8410 O   0  0  0  0  0  0  0  0  0  0  0  0
   -0.1070   24.6650  -27.6760 C   0  0  0  0  0  0  0  0  0  0  0  0
   -0.9440   24.7660  -28.7970 C   0  0  0  0  0  0  0  0  0  0  0  0
   -0.5045   24.8125  -29.8043 H   0  0  0  0  0  0  0  0  0  0  0  0
   -2.3340   24.8080  -28.6430 C   0  0  0  0  0  0  0  0  0  0  0  0
   -3.1610   24.9680  -29.8070 N   0  0  0  0  0  0  0  0  0  0  0  0
   -4.2580   24.3250  -30.0970 C   0  0  0  0  0  0  0  0  0  0  0  0
   -4.9480   24.6930  -31.2110 N   0  0  0  0  0  0  0  0  0  0  0  0
   -6.0940   24.0740  -31.5970 C   0  0  0  0  0  0  0  0  0  0  0  0
   -6.6203   24.4084  -32.5032 H   0  0  0  0  0  0  0  0  0  0  0  0
   -6.6060   23.0120  -30.8440 C   0  0  0  0  0  0  0  0  0  0  0  0
   -8.0730   22.1830  -31.3470 S   0  0  0  0  0  0  0  0  0  0  0  0
   -8.9670   21.9600  -30.1580 O   0  0  0  0  0  0  0  0  0  0  0  0
   -8.8230   23.0260  -32.3420 O   0  0  0  0  0  0  0  0  0  0  0  0
   -7.6420   20.6400  -32.0730 C   0  0  0  0  0  0  0  0  0  0  0  0
   -8.3690   19.4840  -31.7550 C   0  0  0  0  0  0  0  0  0  0  0  0
   -9.2023   19.5386  -31.0390 H   0  0  0  0  0  0  0  0  0  0  0  0
   -8.0360   18.2620  -32.3470 C   0  0  0  0  0  0  0  0  0  0  0  0
   -8.6034   17.3552  -32.0904 H   0  0  0  0  0  0  0  0  0  0  0  0
   -6.9840   18.1900  -33.2640 C   0  0  0  0  0  0  0  0  0  0  0  0
   -6.6640   17.0050  -33.8390 F   0  0  0  0  0  0  0  0  0  0  0  0
   -6.2630   19.3430  -33.5910 C   0  0  0  0  0  0  0  0  0  0  0  0
   -5.4364   19.2875  -34.3146 H   0  0  0  0  0  0  0  0  0  0  0  0
   -6.5920   20.5660  -32.9990 C   0  0  0  0  0  0  0  0  0  0  0  0
   -6.0258   21.4722  -33.2603 H   0  0  0  0  0  0  0  0  0  0  0  0
   -5.9080   22.5900  -29.7100 C   0  0  0  0  0  0  0  0  0  0  0  0
   -6.2859   21.7456  -29.1149 H   0  0  0  0  0  0  0  0  0  0  0  0
   -4.7310   23.2390  -29.3310 C   0  0  0  0  0  0  0  0  0  0  0  0
   -4.1766   22.9057  -28.4413 H   0  0  0  0  0  0  0  0  0  0  0  0
   -2.8860   24.8130  -27.3530 C   0  0  0  0  0  0  0  0  0  0  0  0
   -3.9752   24.8968  -27.2237 H   0  0  0  0  0  0  0  0  0  0  0  0
   -2.0580   24.7120  -26.2320 C   0  0  0  0  0  0  0  0  0  0  0  0
   -2.4996   24.7029  -25.2246 H   0  0  0  0  0  0  0  0  0  0  0  0
   -0.6650   24.6220  -26.3850 C   0  0  0  0  0  0  0  0  0  0  0  0
    0.2230   24.5340  -25.1770 C   0  0  0  0  0  0  0  0  0  0  0  0
   -0.3903   24.5948  -24.2659 H   0  0  0  0  0  0  0  0  0  0  0  0
    0.7663   23.5776  -25.1902 H   0  0  0  0  0  0  0  0  0  0  0  0
    0.9434   25.3652  -25.1902 H   0  0  0  0  0  0  0  0  0  0  0  0
  1  2  1  0
  2  3  1  0
  3  4  2  0
  4  5  1  0
  4  6  1  0
  6  7  1  0
  7  8  2  0
  8  9  1  0
  9 10  1  0
 10 11  1  0
 10 12  2  0
 12 13  1  0
 13 14  2  0
 13 15  2  0
 13 16  1  0
 16 17  2  0
 17 18  1  0
 17 19  1  0
 19 20  1  0
 19 21  2  0
 21 22  1  0
 21 23  1  0
 23 24  1  0
 23 25  2  0
 25 26  1  0
 12 27  1  0
 27 28  1  0
 27 29  2  0
 29 30  1  0
  6 31  2  0
 31 32  1  0
 31 33  1  0
 33 34  1  0
 33 35  2  0
 35 36  1  0
 36 37  1  0
 36 38  1  0
 36 39  1  0
 35  3  1  0
 29  8  1  0
 25 16  1  0
M  CHG  1   9  -1
M  END
>  <UniqueID>  (28) 
28

>  <SMILES>  (28) 
Cc1ccc(/N=c2\ccc(S(=O)(=O)c3ccc(F)cc3)c[n-]2)cc1O

>  <Energy>  (28) 
53.5064590253071

>  <Genealogy>  (28) 
Cc1ccc(N=c2ccc(S(=O)(=O)c3ccc(F)cc3)c[n-]2)cc1O (protonated)
Cc1ccc(/N=c2\ccc(S(=O)(=O)c3ccc(F)cc3)c[n-]2)cc1O (cis-trans isomerization)
Cc1ccc(/N=c2\ccc(S(=O)(=O)c3ccc(F)cc3)c[n-]2)cc1O (3D coordinates assigned)
Cc1ccc(/N=c2\ccc(S(=O)(=O)c3ccc(F)cc3)c[n-]2)cc1O (optimized conformer: 53.5064590253071 kcal/mol)

>  <smiles>  (28) 
Cc1ccc(N=c2ccc(S(=O)(=O)c3ccc(F)cc3)c[nH]2)cc1O

>  <score_type>  (28) 
oracle

>  <origin>  (28) 
adgpu

>  <m_score__min__energy>  (28) 
-10.890000000000001

>  <m_primary>  (28) 
energy

$$$$
28:0
     RDKit          3D

 48 50  0  0  0  0  0  0  0  0999 V2000
   -9.6090   20.7420  -32.3420 C   0  0  0  0  0  0  0  0  0  0  0  0
   -8.2660   20.9310  -31.7830 N   0  0  0  0  0  0  0  0  0  0  0  0
   -8.0720   21.8880  -30.7150 C   0  0  0  0  0  0  0  0  0  0  0  0
   -8.9060   21.9420  -29.7730 O   0  0  0  0  0  0  0  0  0  0  0  0
   -6.8850   22.7830  -30.6770 C   0  0  0  0  0  0  0  0  0  0  0  0
   -5.6010   22.2890  -30.9760 C   0  0  0  0  0  0  0  0  0  0  0  0
   -4.4840   23.1270  -30.9090 C   0  0  0  0  0  0  0  0  0  0  0  0
   -4.6360   24.4720  -30.5580 C   0  0  0  0  0  0  0  0  0  0  0  0
   -3.5180   25.2970  -30.4790 O   0  0  0  0  0  0  0  0  0  0  0  0
   -5.9120   24.9830  -30.2900 C   0  0  0  0  0  0  0  0  0  0  0  0
   -6.0540   26.3250  -29.9260 O   0  0  0  0  0  0  0  0  0  0  0  0
   -7.0320   24.1400  -30.3510 C   0  0  0  0  0  0  0  0  0  0  0  0
   -7.1650   20.1350  -32.2780 C   0  0  0  0  0  0  0  0  0  0  0  0
   -6.6100   19.1060  -31.4950 C   0  0  0  0  0  0  0  0  0  0  0  0
   -5.5570   18.3270  -31.9890 C   0  0  0  0  0  0  0  0  0  0  0  0
   -5.0370   18.5740  -33.2650 C   0  0  0  0  0  0  0  0  0  0  0  0
   -3.6460   17.6550  -33.8520 S   0  0  0  0  0  0  0  0  0  0  0  0
   -3.5270   16.4010  -33.0330 O   0  0  0  0  0  0  0  0  0  0  0  0
   -3.8990   17.2510  -35.2820 O   0  0  0  0  0  0  0  0  0  0  0  0
   -2.1490   18.5640  -33.7200 N   0  0  0  0  0  0  0  0  0  0  0  0
   -2.3340   19.9860  -34.1060 C   0  0  0  0  0  0  0  0  0  0  0  0
   -2.5510   20.8970  -32.8770 C   0  0  0  0  0  0  0  0  0  0  0  0
   -1.3380   20.8460  -31.9240 C   0  0  0  0  0  0  0  0  0  0  0  0
   -0.5580   19.5160  -32.0390 C   0  0  0  0  0  0  0  0  0  0  0  0
   -1.5120   18.3640  -32.3940 C   0  0  0  0  0  0  0  0  0  0  0  0
   -5.5840   19.6000  -34.0500 C   0  0  0  0  0  0  0  0  0  0  0  0
   -6.6410   20.3710  -33.5610 C   0  0  0  0  0  0  0  0  0  0  0  0
  -10.3360   20.6397  -31.5229 H   0  0  0  0  0  0  0  0  0  0  0  0
   -9.8742   21.6117  -32.9611 H   0  0  0  0  0  0  0  0  0  0  0  0
   -9.6239   19.8329  -32.9611 H   0  0  0  0  0  0  0  0  0  0  0  0
   -5.4756   21.2350  -31.2647 H   0  0  0  0  0  0  0  0  0  0  0  0
   -3.4838   22.7276  -31.1328 H   0  0  0  0  0  0  0  0  0  0  0  0
   -5.3600   26.8090  -29.3730 H   0  0  0  0  0  0  0  0  0  0  0  0
   -8.0327   24.5458  -30.1417 H   0  0  0  0  0  0  0  0  0  0  0  0
   -7.0064   18.9123  -30.4874 H   0  0  0  0  0  0  0  0  0  0  0  0
   -5.1370   17.5184  -31.3727 H   0  0  0  0  0  0  0  0  0  0  0  0
   -1.4385   20.3265  -34.6465 H   0  0  0  0  0  0  0  0  0  0  0  0
   -3.2308   20.0517  -34.7396 H   0  0  0  0  0  0  0  0  0  0  0  0
   -2.6956   21.9325  -33.2189 H   0  0  0  0  0  0  0  0  0  0  0  0
   -3.4378   20.5415  -32.3318 H   0  0  0  0  0  0  0  0  0  0  0  0
   -0.6597   21.6764  -32.1697 H   0  0  0  0  0  0  0  0  0  0  0  0
   -1.7152   20.9273  -30.8939 H   0  0  0  0  0  0  0  0  0  0  0  0
    0.2050   19.6102  -32.8257 H   0  0  0  0  0  0  0  0  0  0  0  0
   -0.0798   19.2982  -31.0726 H   0  0  0  0  0  0  0  0  0  0  0  0
   -0.9429   17.4228  -32.4108 H   0  0  0  0  0  0  0  0  0  0  0  0
   -2.3069   18.3321  -31.6343 H   0  0  0  0  0  0  0  0  0  0  0  0
   -5.1793   19.7978  -35.0535 H   0  0  0  0  0  0  0  0  0  0  0  0
   -7.0673   21.1700  -34.1854 H   0  0  0  0  0  0  0  0  0  0  0  0
  1  2  1  0
  2  3  1  0
  3  4  2  0
  3  5  1  0
  5  6  2  0
  6  7  1  0
  7  8  2  0
  8  9  1  0
  8 10  1  0
 10 11  1  0
 10 12  2  0
  2 13  1  0
 13 14  2  0
 14 15  1  0
 15 16  2  0
 16 17  1  0
 17 18  2  0
 17 19  2  0
 17 20  1  0
 20 21  1  0
 21 22  1  0
 22 23  1  0
 23 24  1  0
 24 25  1  0
 16 26  1  0
 26 27  2  0
 12  5  1  0
 27 13  1  0
 25 20  1  0
  1 28  1  0
  1 29  1  0
  1 30  1  0
  6 31  1  0
  7 32  1  0
 11 33  1  0
 12 34  1  0
 14 35  1  0
 15 36  1  0
 21 37  1  0
 21 38  1  0
 22 39  1  0
 22 40  1  0
 23 41  1  0
 23 42  1  0
 24 43  1  0
 24 44  1  0
 25 45  1  0
 25 46  1  0
 26 47  1  0
 27 48  1  0
M  CHG  1   9  -1
M  END
>  <UniqueID>  (29) 
29

>  <SMILES>  (29) 
CN(C(=O)c1ccc([O-])c(O)c1)c1ccc(S(=O)(=O)N2CCCCC2)cc1

>  <Energy>  (29) 
66.19748536351368

>  <Genealogy>  (29) 
CN(C(=O)c1ccc([O-])c(O)c1)c1ccc(S(=O)(=O)N2CCCCC2)cc1 (protonated)
CN(C(=O)c1ccc([O-])c(O)c1)c1ccc(S(=O)(=O)N2CCCCC2)cc1 (3D coordinates assigned)
CN(C(=O)c1ccc([O-])c(O)c1)c1ccc(S(=O)(=O)N2CCCCC2)cc1 (nonaromatic ring conformer: 66.19748536351368 kcal/mol)

>  <smiles>  (29) 
CN(C(=O)c1ccc(O)c(O)c1)c1ccc(S(=O)(=O)N2CCCCC2)cc1

>  <score_type>  (29) 
oracle

>  <origin>  (29) 
adgpu

>  <m_score__min__energy>  (29) 
-11.789999999999999

>  <m_primary>  (29) 
energy

$$$$
29:0
     RDKit          3D

 29 30  0  0  0  0  0  0  0  0999 V2000
   -7.2260   17.1890  -32.7000 C   0  0  0  0  0  0  0  0  0  0  0  0
   -6.7010   18.6010  -32.7110 C   0  0  0  0  0  0  0  0  0  0  0  0
   -5.3580   18.8340  -33.0490 C   0  0  0  0  0  0  0  0  0  0  0  0
   -4.8410   20.1300  -33.0620 C   0  0  0  0  0  0  0  0  0  0  0  0
   -5.6610   21.2240  -32.7480 C   0  0  0  0  0  0  0  0  0  0  0  0
   -5.1450   22.5660  -32.7350 N   0  0  0  0  0  0  0  0  0  0  0  0
   -5.1030   23.4000  -31.5660 C   0  0  0  0  0  0  0  0  0  0  0  0
   -6.2910   23.8680  -30.9970 C   0  0  0  0  0  0  0  0  0  0  0  0
   -6.2180   24.7000  -29.8790 C   0  0  0  0  0  0  0  0  0  0  0  0
   -7.2740   25.1290  -29.3430 O   0  0  0  0  0  0  0  0  0  0  0  0
   -5.0040   25.0470  -29.3680 N   0  0  0  0  0  0  0  0  0  0  0  0
   -3.8560   24.5950  -29.9410 C   0  0  0  0  0  0  0  0  0  0  0  0
   -2.7380   24.9250  -29.4670 O   0  0  0  0  0  0  0  0  0  0  0  0
   -3.9120   23.7840  -31.0300 N   0  0  0  0  0  0  0  0  0  0  0  0
   -6.9940   20.9960  -32.3770 C   0  0  0  0  0  0  0  0  0  0  0  0
   -7.5250   19.6950  -32.3530 C   0  0  0  0  0  0  0  0  0  0  0  0
   -8.9680   19.4940  -31.9690 C   0  0  0  0  0  0  0  0  0  0  0  0
   -7.3511   16.8524  -31.6603 H   0  0  0  0  0  0  0  0  0  0  0  0
   -8.1969   17.1548  -33.2159 H   0  0  0  0  0  0  0  0  0  0  0  0
   -6.5133   16.5288  -33.2159 H   0  0  0  0  0  0  0  0  0  0  0  0
   -4.7066   17.9857  -33.3063 H   0  0  0  0  0  0  0  0  0  0  0  0
   -3.7844   20.2947  -33.3199 H   0  0  0  0  0  0  0  0  0  0  0  0
   -4.7000   22.9250  -33.6110 H   0  0  0  0  0  0  0  0  0  0  0  0
   -7.2653   23.5857  -31.4226 H   0  0  0  0  0  0  0  0  0  0  0  0
   -4.9540   25.6710  -28.5300 H   0  0  0  0  0  0  0  0  0  0  0  0
   -7.6331   21.8476  -32.1008 H   0  0  0  0  0  0  0  0  0  0  0  0
   -9.0574   19.4816  -30.8727 H   0  0  0  0  0  0  0  0  0  0  0  0
   -9.5740   20.3164  -32.3770 H   0  0  0  0  0  0  0  0  0  0  0  0
   -9.3262   18.5373  -32.3770 H   0  0  0  0  0  0  0  0  0  0  0  0
  1  2  1  0
  2  3  2  0
  3  4  1  0
  4  5  2  0
  5  6  1  0
  6  7  1  0
  7  8  2  0
  8  9  1  0
  9 10  2  0
  9 11  1  0
 11 12  1  0
 12 13  2  0
 12 14  1  0
  5 15  1  0
 15 16  2  0
 16 17  1  0
 16  2  1  0
 14  7  1  0
  1 18  1  0
  1 19  1  0
  1 20  1  0
  3 21  1  0
  4 22  1  0
  6 23  1  0
  8 24  1  0
 11 25  1  0
 15 26  1  0
 17 27  1  0
 17 28  1  0
 17 29  1  0
M  CHG  1  14  -1
M  END
>  <UniqueID>  (30) 
30

>  <SMILES>  (30) 
Cc1ccc(Nc2cc(=O)[nH]c(=O)[n-]2)cc1C

>  <Energy>  (30) 
34.33492534326985

>  <Genealogy>  (30) 
Cc1ccc(Nc2cc(=O)[nH]c(=O)[n-]2)cc1C (protonated)
Cc1ccc(Nc2cc(=O)[nH]c(=O)[n-]2)cc1C (3D coordinates assigned)
Cc1ccc(Nc2cc(=O)[nH]c(=O)[n-]2)cc1C (optimized conformer: 34.33492534326985 kcal/mol)

>  <smiles>  (30) 
Cc1ccc(Nc2cc(=O)[nH]c(=O)[nH]2)cc1C

>  <score_type>  (30) 
oracle

>  <origin>  (30) 
adgpu

>  <m_score__min__energy>  (30) 
-8.4299999999999997

>  <m_primary>  (30) 
energy

$$$$
30:0
     RDKit          3D

 53 56  0  0  0  0  0  0  0  0999 V2000
   -4.8460   18.4880  -32.8920 C   0  0  0  0  0  0  0  0  0  0  0  0
   -4.2300   19.5940  -33.7470 C   0  0  0  0  0  0  0  0  0  0  0  0
   -3.6110   20.6240  -32.8980 N   0  0  0  0  0  0  0  0  0  0  0  0
   -2.2170   20.5260  -32.5440 C   0  0  0  0  0  0  0  0  0  0  0  0
   -1.8270   20.3450  -31.2050 C   0  0  0  0  0  0  0  0  0  0  0  0
   -0.4720   20.1850  -30.8690 C   0  0  0  0  0  0  0  0  0  0  0  0
   -0.0840   19.8920  -29.5100 N   0  0  0  0  0  0  0  0  0  0  0  0
   -0.2650   18.5350  -28.9770 C   0  0  0  0  0  0  0  0  0  0  0  0
   -0.4850   18.5750  -27.4540 C   0  0  0  0  0  0  0  0  0  0  0  0
   -1.2750   19.7610  -27.0420 N   0  0  0  0  0  0  0  0  0  0  0  0
   -2.6530   19.7050  -27.5740 C   0  0  0  0  0  0  0  0  0  0  0  0
   -0.6060   21.0480  -27.3920 C   0  0  0  0  0  0  0  0  0  0  0  0
    0.3590   20.9440  -28.5900 C   0  0  0  0  0  0  0  0  0  0  0  0
    0.4970   20.2320  -31.8840 C   0  0  0  0  0  0  0  0  0  0  0  0
    0.1250   20.4120  -33.2280 C   0  0  0  0  0  0  0  0  0  0  0  0
    1.1770   20.5110  -34.3060 C   0  0  0  0  0  0  0  0  0  0  0  0
    2.3500   19.9370  -33.8470 F   0  0  0  0  0  0  0  0  0  0  0  0
    1.4200   21.8340  -34.6350 F   0  0  0  0  0  0  0  0  0  0  0  0
    0.7700   19.8490  -35.4530 F   0  0  0  0  0  0  0  0  0  0  0  0
   -1.2330   20.5730  -33.5470 C   0  0  0  0  0  0  0  0  0  0  0  0
   -4.4390   21.6150  -32.2620 C   0  0  0  0  0  0  0  0  0  0  0  0
   -3.9420   22.7500  -31.7060 N   0  0  0  0  0  0  0  0  0  0  0  0
   -4.9380   23.5130  -31.1880 C   0  0  0  0  0  0  0  0  0  0  0  0
   -4.7440   24.7480  -30.5650 C   0  0  0  0  0  0  0  0  0  0  0  0
   -3.4670   25.2970  -30.4510 O   0  0  0  0  0  0  0  0  0  0  0  0
   -5.8640   25.4300  -30.0540 C   0  0  0  0  0  0  0  0  0  0  0  0
   -7.1570   24.8730  -30.1710 C   0  0  0  0  0  0  0  0  0  0  0  0
   -7.3420   23.6360  -30.8130 C   0  0  0  0  0  0  0  0  0  0  0  0
   -6.2180   22.9840  -31.3170 C   0  0  0  0  0  0  0  0  0  0  0  0
   -6.1330   21.5140  -32.1280 S   0  0  0  0  0  0  0  0  0  0  0  0
   -4.7114   18.7296  -31.8273 H   0  0  0  0  0  0  0  0  0  0  0  0
   -5.9197   18.4060  -33.1165 H   0  0  0  0  0  0  0  0  0  0  0  0
   -4.3504   17.5320  -33.1165 H   0  0  0  0  0  0  0  0  0  0  0  0
   -3.4625   19.1579  -34.4033 H   0  0  0  0  0  0  0  0  0  0  0  0
   -5.0247   20.0611  -34.3471 H   0  0  0  0  0  0  0  0  0  0  0  0
   -2.5901   20.3285  -30.4129 H   0  0  0  0  0  0  0  0  0  0  0  0
   -1.1402   18.0722  -29.4565 H   0  0  0  0  0  0  0  0  0  0  0  0
    0.6405   17.9475  -29.1888 H   0  0  0  0  0  0  0  0  0  0  0  0
   -1.0226   17.6654  -27.1480 H   0  0  0  0  0  0  0  0  0  0  0  0
    0.5000   18.6349  -26.9679 H   0  0  0  0  0  0  0  0  0  0  0  0
   -1.3600   19.7200  -25.9980 H   0  0  0  0  0  0  0  0  0  0  0  0
   -3.3678   19.6760  -26.7384 H   0  0  0  0  0  0  0  0  0  0  0  0
   -2.8448   20.5961  -28.1898 H   0  0  0  0  0  0  0  0  0  0  0  0
   -2.7719   18.8013  -28.1898 H   0  0  0  0  0  0  0  0  0  0  0  0
   -1.3831   21.7872  -27.6362 H   0  0  0  0  0  0  0  0  0  0  0  0
   -0.0029   21.3421  -26.5204 H   0  0  0  0  0  0  0  0  0  0  0  0
    0.3813   21.9062  -29.1226 H   0  0  0  0  0  0  0  0  0  0  0  0
    1.3643   20.6953  -28.2193 H   0  0  0  0  0  0  0  0  0  0  0  0
    1.5607   20.1267  -31.6245 H   0  0  0  0  0  0  0  0  0  0  0  0
   -1.5302   20.7377  -34.5932 H   0  0  0  0  0  0  0  0  0  0  0  0
   -5.7317   26.4038  -29.5599 H   0  0  0  0  0  0  0  0  0  0  0  0
   -8.0235   25.4099  -29.7576 H   0  0  0  0  0  0  0  0  0  0  0  0
   -8.3448   23.1955  -30.9146 H   0  0  0  0  0  0  0  0  0  0  0  0
  1  2  1  0
  2  3  1  0
  3  4  1  0
  4  5  2  0
  5  6  1  0
  6  7  1  0
  7  8  1  0
  8  9  1  0
  9 10  1  0
 10 11  1  0
 10 12  1  0
 12 13  1  0
  6 14  2  0
 14 15  1  0
 15 16  1  0
 16 17  1  0
 16 18  1  0
 16 19  1  0
 15 20  2  0
  3 21  1  0
 21 22  2  0
 22 23  1  0
 23 24  2  0
 24 25  1  0
 24 26  1  0
 26 27  2  0
 27 28  1  0
 28 29  2  0
 29 30  1  0
 20  4  1  0
 30 21  1  0
 13  7  1  0
 29 23  1  0
  1 31  1  0
  1 32  1  0
  1 33  1  0
  2 34  1  0
  2 35  1  0
  5 36  1  0
  8 37  1  0
  8 38  1  0
  9 39  1  0
  9 40  1  0
 10 41  1  0
 11 42  1  0
 11 43  1  0
 11 44  1  0
 12 45  1  0
 12 46  1  0
 13 47  1  0
 13 48  1  0
 14 49  1  0
 20 50  1  0
 26 51  1  0
 27 52  1  0
 28 53  1  0
M  CHG  2  10   1  25  -1
M  END
>  <UniqueID>  (31) 
31

>  <SMILES>  (31) 
CCN(c1cc(N2CC[NH+](C)CC2)cc(C(F)(F)F)c1)c1nc2c([O-])cccc2s1

>  <Energy>  (31) 
108.64729384893312

>  <Genealogy>  (31) 
CCN(c1cc(N2CC[NH+](C)CC2)cc(C(F)(F)F)c1)c1nc2c([O-])cccc2s1 (protonated)
CCN(c1cc(N2CC[NH+](C)CC2)cc(C(F)(F)F)c1)c1nc2c([O-])cccc2s1 (3D coordinates assigned)
CCN(c1cc(N2CC[NH+](C)CC2)cc(C(F)(F)F)c1)c1nc2c([O-])cccc2s1 (nonaromatic ring conformer: 108.64729384893312 kcal/mol)

>  <smiles>  (31) 
CCN(c1cc(N2CCN(C)CC2)cc(C(F)(F)F)c1)c1nc2c(O)cccc2s1

>  <score_type>  (31) 
oracle

>  <origin>  (31) 
adgpu

>  <m_score__min__energy>  (31) 
-11.550000000000001

>  <m_primary>  (31) 
energy

$$$$
31:0
     RDKit          3D

 48 51  0  0  0  0  0  0  0  0999 V2000
   -1.5990   25.6580  -28.9520 O   0  0  0  0  0  0  0  0  0  0  0  0
   -2.4550   24.8240  -29.3500 C   0  0  0  0  0  0  0  0  0  0  0  0
   -3.5680   25.2960  -30.1210 N   0  0  0  0  0  0  0  0  0  0  0  0
   -4.7040   24.5200  -30.5310 C   0  0  0  0  0  0  0  0  0  0  0  0
   -5.9860   24.9620  -30.1900 C   0  0  0  0  0  0  0  0  0  0  0  0
   -7.1110   24.2320  -30.5830 C   0  0  0  0  0  0  0  0  0  0  0  0
   -6.9630   23.0520  -31.3150 C   0  0  0  0  0  0  0  0  0  0  0  0
   -5.6810   22.5790  -31.6490 C   0  0  0  0  0  0  0  0  0  0  0  0
   -5.5170   21.3320  -32.4390 C   0  0  0  0  0  0  0  0  0  0  0  0
   -6.6200   20.5110  -32.7230 C   0  0  0  0  0  0  0  0  0  0  0  0
   -6.4620   19.3780  -33.4560 N   0  0  0  0  0  0  0  0  0  0  0  0
   -5.2500   18.9910  -33.9330 C   0  0  0  0  0  0  0  0  0  0  0  0
   -5.1620   17.9320  -34.6080 O   0  0  0  0  0  0  0  0  0  0  0  0
   -4.1070   19.7630  -33.6660 C   0  0  0  0  0  0  0  0  0  0  0  0
   -2.8250   19.3720  -34.1930 N   0  0  0  0  0  0  0  0  0  0  0  0
   -1.6520   20.2010  -34.1260 C   0  0  0  0  0  0  0  0  0  0  0  0
   -1.6130   21.1800  -33.3320 O   0  0  0  0  0  0  0  0  0  0  0  0
   -0.4670   19.9050  -34.9460 C   0  0  0  0  0  0  0  0  0  0  0  0
    0.5440   20.7860  -35.2880 C   0  0  0  0  0  0  0  0  0  0  0  0
    1.4300   20.0560  -36.0500 C   0  0  0  0  0  0  0  0  0  0  0  0
    0.9120   18.7800  -36.1250 C   0  0  0  0  0  0  0  0  0  0  0  0
   -0.2170   18.7220  -35.4570 O   0  0  0  0  0  0  0  0  0  0  0  0
   -4.2560   20.9470  -32.9260 C   0  0  0  0  0  0  0  0  0  0  0  0
   -4.5550   23.3110  -31.2330 C   0  0  0  0  0  0  0  0  0  0  0  0
   -2.2630   23.3860  -29.0450 C   0  0  0  0  0  0  0  0  0  0  0  0
   -2.8830   22.8020  -27.9280 C   0  0  0  0  0  0  0  0  0  0  0  0
   -2.6900   21.4500  -27.6410 C   0  0  0  0  0  0  0  0  0  0  0  0
   -1.8790   20.6660  -28.4640 C   0  0  0  0  0  0  0  0  0  0  0  0
   -1.2420   21.2310  -29.5810 C   0  0  0  0  0  0  0  0  0  0  0  0
   -0.4060   20.3760  -30.4990 C   0  0  0  0  0  0  0  0  0  0  0  0
   -1.1980   19.4620  -31.1740 F   0  0  0  0  0  0  0  0  0  0  0  0
    0.5460   19.6740  -29.7800 F   0  0  0  0  0  0  0  0  0  0  0  0
    0.2320   21.1850  -31.4210 F   0  0  0  0  0  0  0  0  0  0  0  0
   -1.4650   22.5880  -29.8810 C   0  0  0  0  0  0  0  0  0  0  0  0
   -6.1096   25.8884  -29.6099 H   0  0  0  0  0  0  0  0  0  0  0  0
   -8.1166   24.5881  -30.3148 H   0  0  0  0  0  0  0  0  0  0  0  0
   -7.8535   22.4895  -31.6321 H   0  0  0  0  0  0  0  0  0  0  0  0
   -7.6175   20.7866  -32.3500 H   0  0  0  0  0  0  0  0  0  0  0  0
   -2.7220   18.4010  -34.5610 H   0  0  0  0  0  0  0  0  0  0  0  0
    0.6236   21.8472  -35.0097 H   0  0  0  0  0  0  0  0  0  0  0  0
    2.3629   20.4181  -36.5067 H   0  0  0  0  0  0  0  0  0  0  0  0
    1.3742   17.9390  -36.6626 H   0  0  0  0  0  0  0  0  0  0  0  0
   -3.3781   21.5788  -32.7257 H   0  0  0  0  0  0  0  0  0  0  0  0
   -3.5468   22.9338  -31.4592 H   0  0  0  0  0  0  0  0  0  0  0  0
   -3.5240   23.4136  -27.2761 H   0  0  0  0  0  0  0  0  0  0  0  0
   -3.1783   21.0006  -26.7637 H   0  0  0  0  0  0  0  0  0  0  0  0
   -1.7381   19.5991  -28.2361 H   0  0  0  0  0  0  0  0  0  0  0  0
   -1.0093   23.0283  -30.7801 H   0  0  0  0  0  0  0  0  0  0  0  0
  1  2  2  0
  2  3  1  0
  3  4  1  0
  4  5  2  0
  5  6  1  0
  6  7  2  0
  7  8  1  0
  8  9  1  0
  9 10  2  0
 10 11  1  0
 11 12  1  0
 12 13  2  0
 12 14  1  0
 14 15  1  0
 15 16  1  0
 16 17  2  0
 16 18  1  0
 18 19  2  0
 19 20  1  0
 20 21  2  0
 21 22  1  0
 14 23  2  0
  8 24  2  0
  2 25  1  0
 25 26  2  0
 26 27  1  0
 27 28  2  0
 28 29  1  0
 29 30  1  0
 30 31  1  0
 30 32  1  0
 30 33  1  0
 29 34  2  0
 24  4  1  0
 34 25  1  0
 23  9  1  0
 22 18  1  0
  5 35  1  0
  6 36  1  0
  7 37  1  0
 10 38  1  0
 15 39  1  0
 19 40  1  0
 20 41  1  0
 21 42  1  0
 23 43  1  0
 24 44  1  0
 26 45  1  0
 27 46  1  0
 28 47  1  0
 34 48  1  0
M  CHG  2   3  -1  11  -1
M  END
>  <UniqueID>  (32) 
32

>  <SMILES>  (32) 
O=C([N-]c1cccc(-c2c[n-]c(=O)c(NC(=O)c3ccco3)c2)c1)c1cccc(C(F)(F)F)c1

>  <Energy>  (32) 
94.80046361756891

>  <Genealogy>  (32) 
O=C([N-]c1cccc(-c2c[n-]c(=O)c(NC(=O)c3ccco3)c2)c1)c1cccc(C(F)(F)F)c1 (protonated)
O=C([N-]c1cccc(-c2c[n-]c(=O)c(NC(=O)c3ccco3)c2)c1)c1cccc(C(F)(F)F)c1 (3D coordinates assigned)
O=C([N-]c1cccc(-c2c[n-]c(=O)c(NC(=O)c3ccco3)c2)c1)c1cccc(C(F)(F)F)c1 (optimized conformer: 94.80046361756891 kcal/mol)

>  <smiles>  (32) 
O=C(Nc1cccc(-c2c[nH]c(=O)c(NC(=O)c3ccco3)c2)c1)c1cccc(C(F)(F)F)c1

>  <score_type>  (32) 
oracle

>  <origin>  (32) 
adgpu

>  <m_score__min__energy>  (32) 
-10.81

>  <m_primary>  (32) 
energy

$$$$
32:0
     RDKit          3D

 29 31  0  0  0  0  0  0  0  0999 V2000
   -3.8610   25.6740  -30.4580 O   0  0  0  0  0  0  0  0  0  0  0  0
   -4.5070   24.4920  -30.8000 C   0  0  0  0  0  0  0  0  0  0  0  0
   -5.8650   24.5060  -31.1260 C   0  0  0  0  0  0  0  0  0  0  0  0
   -6.5190   23.3180  -31.4700 C   0  0  0  0  0  0  0  0  0  0  0  0
   -5.8140   22.0990  -31.4910 C   0  0  0  0  0  0  0  0  0  0  0  0
   -6.4800   20.8260  -31.8530 C   0  0  0  0  0  0  0  0  0  0  0  0
   -7.8420   20.5910  -31.9460 C   0  0  0  0  0  0  0  0  0  0  0  0
   -7.9760   19.2680  -32.3090 C   0  0  0  0  0  0  0  0  0  0  0  0
   -6.6870   18.7700  -32.4170 C   0  0  0  0  0  0  0  0  0  0  0  0
   -6.2890   17.3910  -32.7840 C   0  0  0  0  0  0  0  0  0  0  0  0
   -6.8670   16.7230  -33.8820 C   0  0  0  0  0  0  0  0  0  0  0  0
   -6.4720   15.4220  -34.2070 C   0  0  0  0  0  0  0  0  0  0  0  0
   -5.5000   14.7730  -33.4420 C   0  0  0  0  0  0  0  0  0  0  0  0
   -5.1190   13.5100  -33.7600 F   0  0  0  0  0  0  0  0  0  0  0  0
   -4.9190   15.4240  -32.3530 C   0  0  0  0  0  0  0  0  0  0  0  0
   -5.3110   16.7260  -32.0230 C   0  0  0  0  0  0  0  0  0  0  0  0
   -5.8250   19.7220  -32.1390 O   0  0  0  0  0  0  0  0  0  0  0  0
   -4.4470   22.0970  -31.1610 C   0  0  0  0  0  0  0  0  0  0  0  0
   -3.7990   23.2880  -30.8170 C   0  0  0  0  0  0  0  0  0  0  0  0
   -6.4223   25.4543  -31.1122 H   0  0  0  0  0  0  0  0  0  0  0  0
   -7.5888   23.3361  -31.7252 H   0  0  0  0  0  0  0  0  0  0  0  0
   -8.6520   21.3133  -31.7666 H   0  0  0  0  0  0  0  0  0  0  0  0
   -8.9143   18.7195  -32.4784 H   0  0  0  0  0  0  0  0  0  0  0  0
   -7.6339   17.2285  -34.4872 H   0  0  0  0  0  0  0  0  0  0  0  0
   -6.9274   14.9085  -35.0666 H   0  0  0  0  0  0  0  0  0  0  0  0
   -4.1517   14.9128  -31.7531 H   0  0  0  0  0  0  0  0  0  0  0  0
   -4.8509   17.2331  -31.1621 H   0  0  0  0  0  0  0  0  0  0  0  0
   -3.8834   21.1524  -31.1735 H   0  0  0  0  0  0  0  0  0  0  0  0
   -2.7297   23.2764  -30.5593 H   0  0  0  0  0  0  0  0  0  0  0  0
  1  2  1  0
  2  3  2  0
  3  4  1  0
  4  5  2  0
  5  6  1  0
  6  7  2  0
  7  8  1  0
  8  9  2  0
  9 10  1  0
 10 11  2  0
 11 12  1  0
 12 13  2  0
 13 14  1  0
 13 15  1  0
 15 16  2  0
  9 17  1  0
  5 18  1  0
 18 19  2  0
 19  2  1  0
 17  6  1  0
 16 10  1  0
  3 20  1  0
  4 21  1  0
  7 22  1  0
  8 23  1  0
 11 24  1  0
 12 25  1  0
 15 26  1  0
 16 27  1  0
 18 28  1  0
 19 29  1  0
M  CHG  1   1  -1
M  END
>  <UniqueID>  (33) 
33

>  <SMILES>  (33) 
[O-]c1ccc(-c2ccc(-c3ccc(F)cc3)o2)cc1

>  <Energy>  (33) 
60.24729237003658

>  <Genealogy>  (33) 
[O-]c1ccc(-c2ccc(-c3ccc(F)cc3)o2)cc1 (protonated)
[O-]c1ccc(-c2ccc(-c3ccc(F)cc3)o2)cc1 (3D coordinates assigned)
[O-]c1ccc(-c2ccc(-c3ccc(F)cc3)o2)cc1 (optimized conformer: 60.24729237003658 kcal/mol)

>  <smiles>  (33) 
Oc1ccc(-c2ccc(-c3ccc(F)cc3)o2)cc1

>  <score_type>  (33) 
oracle

>  <origin>  (33) 
adgpu

>  <m_score__min__energy>  (33) 
-9.9499999999999993

>  <m_primary>  (33) 
energy

$$$$
33:0
     RDKit          3D

 57 60  0  0  0  0  0  0  0  0999 V2000
   -4.8820   23.5660  -28.9530 O   0  0  0  0  0  0  0  0  0  0  0  0
   -3.6220   23.5390  -29.0060 C   0  0  0  0  0  0  0  0  0  0  0  0
   -2.9610   22.6640  -29.9400 N   0  0  0  0  0  0  0  0  0  0  0  0
   -3.6500   21.7190  -30.7750 C   0  0  0  0  0  0  0  0  0  0  0  0
   -2.9560   20.7260  -31.4890 C   0  0  0  0  0  0  0  0  0  0  0  0
   -3.6480   19.8340  -32.3130 C   0  0  0  0  0  0  0  0  0  0  0  0
   -5.0410   19.9250  -32.4430 C   0  0  0  0  0  0  0  0  0  0  0  0
   -5.9140   18.8000  -33.4890 S   0  0  0  0  0  0  0  0  0  0  0  0
   -5.2410   17.4570  -33.4330 O   0  0  0  0  0  0  0  0  0  0  0  0
   -5.8430   19.2960  -34.9070 O   0  0  0  0  0  0  0  0  0  0  0  0
   -7.5910   18.6140  -33.0360 N   0  0  0  0  0  0  0  0  0  0  0  0
   -7.7390   18.1550  -31.6560 C   0  0  0  0  0  0  0  0  0  0  0  0
   -9.1090   18.6250  -31.1920 C   0  0  0  0  0  0  0  0  0  0  0  0
   -9.4900   19.7520  -32.1420 C   0  0  0  0  0  0  0  0  0  0  0  0
   -8.3230   19.8770  -33.1080 C   0  0  0  0  0  0  0  0  0  0  0  0
   -5.7310   20.9380  -31.7620 C   0  0  0  0  0  0  0  0  0  0  0  0
   -5.0380   21.8300  -30.9380 C   0  0  0  0  0  0  0  0  0  0  0  0
   -2.8500   24.4250  -28.1020 C   0  0  0  0  0  0  0  0  0  0  0  0
   -3.2710   24.6740  -26.7820 C   0  0  0  0  0  0  0  0  0  0  0  0
   -2.5230   25.5070  -25.9440 C   0  0  0  0  0  0  0  0  0  0  0  0
   -1.3400   26.0950  -26.4050 C   0  0  0  0  0  0  0  0  0  0  0  0
   -0.3950   27.1400  -25.3410 S   0  0  0  0  0  0  0  0  0  0  0  0
   -0.1630   28.4600  -26.0220 O   0  0  0  0  0  0  0  0  0  0  0  0
   -1.1760   27.3960  -24.0820 O   0  0  0  0  0  0  0  0  0  0  0  0
    1.1450   26.4250  -24.9270 N   0  0  0  0  0  0  0  0  0  0  0  0
    1.6440   26.9750  -23.6560 C   0  0  0  0  0  0  0  0  0  0  0  0
    3.0990   26.5310  -23.4040 C   0  0  0  0  0  0  0  0  0  0  0  0
    3.4800   25.5020  -24.2970 O   0  0  0  0  0  0  0  0  0  0  0  0
    3.4710   25.9930  -25.6270 C   0  0  0  0  0  0  0  0  0  0  0  0
    2.1250   26.6540  -25.9980 C   0  0  0  0  0  0  0  0  0  0  0  0
   -0.9080   25.8440  -27.7140 C   0  0  0  0  0  0  0  0  0  0  0  0
   -1.6540   25.0110  -28.5530 C   0  0  0  0  0  0  0  0  0  0  0  0
   -1.9290   22.7400  -30.0680 H   0  0  0  0  0  0  0  0  0  0  0  0
   -1.8623   20.6508  -31.3985 H   0  0  0  0  0  0  0  0  0  0  0  0
   -3.0968   19.0566  -32.8624 H   0  0  0  0  0  0  0  0  0  0  0  0
   -7.6780   17.0576  -31.6114 H   0  0  0  0  0  0  0  0  0  0  0  0
   -6.9410   18.5568  -31.0143 H   0  0  0  0  0  0  0  0  0  0  0  0
   -9.8393   17.8048  -31.2546 H   0  0  0  0  0  0  0  0  0  0  0  0
   -9.0948   18.9591  -30.1441 H   0  0  0  0  0  0  0  0  0  0  0  0
  -10.4138   19.5024  -32.6845 H   0  0  0  0  0  0  0  0  0  0  0  0
   -9.6795   20.6932  -31.6052 H   0  0  0  0  0  0  0  0  0  0  0  0
   -8.6919   20.0452  -34.1306 H   0  0  0  0  0  0  0  0  0  0  0  0
   -7.6772   20.7279  -32.8454 H   0  0  0  0  0  0  0  0  0  0  0  0
   -6.8211   21.0312  -31.8764 H   0  0  0  0  0  0  0  0  0  0  0  0
   -5.5867   22.6258  -30.4130 H   0  0  0  0  0  0  0  0  0  0  0  0
   -4.1951   24.2099  -26.4070 H   0  0  0  0  0  0  0  0  0  0  0  0
   -2.8664   25.7010  -24.9171 H   0  0  0  0  0  0  0  0  0  0  0  0
    1.6037   28.0735  -23.6973 H   0  0  0  0  0  0  0  0  0  0  0  0
    1.0129   26.6005  -22.8365 H   0  0  0  0  0  0  0  0  0  0  0  0
    3.7671   27.3936  -23.5440 H   0  0  0  0  0  0  0  0  0  0  0  0
    3.1736   26.1466  -22.3761 H   0  0  0  0  0  0  0  0  0  0  0  0
    4.2728   26.7384  -25.7345 H   0  0  0  0  0  0  0  0  0  0  0  0
    3.6242   25.1385  -26.3026 H   0  0  0  0  0  0  0  0  0  0  0  0
    2.2740   27.7357  -26.1312 H   0  0  0  0  0  0  0  0  0  0  0  0
    1.7499   26.2131  -26.9334 H   0  0  0  0  0  0  0  0  0  0  0  0
    0.0209   26.3037  -28.0826 H   0  0  0  0  0  0  0  0  0  0  0  0
   -1.3019   24.8120  -29.5760 H   0  0  0  0  0  0  0  0  0  0  0  0
  1  2  2  0
  2  3  1  0
  3  4  1  0
  4  5  2  0
  5  6  1  0
  6  7  2  0
  7  8  1  0
  8  9  2  0
  8 10  2  0
  8 11  1  0
 11 12  1  0
 12 13  1  0
 13 14  1  0
 14 15  1  0
  7 16  1  0
 16 17  2  0
  2 18  1  0
 18 19  2  0
 19 20  1  0
 20 21  2  0
 21 22  1  0
 22 23  2  0
 22 24  2  0
 22 25  1  0
 25 26  1  0
 26 27  1  0
 27 28  1  0
 28 29  1  0
 29 30  1  0
 21 31  1  0
 31 32  2  0
 17  4  1  0
 32 18  1  0
 15 11  1  0
 30 25  1  0
  3 33  1  0
  5 34  1  0
  6 35  1  0
 12 36  1  0
 12 37  1  0
 13 38  1  0
 13 39  1  0
 14 40  1  0
 14 41  1  0
 15 42  1  0
 15 43  1  0
 16 44  1  0
 17 45  1  0
 19 46  1  0
 20 47  1  0
 26 48  1  0
 26 49  1  0
 27 50  1  0
 27 51  1  0
 29 52  1  0
 29 53  1  0
 30 54  1  0
 30 55  1  0
 31 56  1  0
 32 57  1  0
M  END
>  <UniqueID>  (34) 
34

>  <SMILES>  (34) 
O=C(Nc1ccc(S(=O)(=O)N2CCCC2)cc1)c1ccc(S(=O)(=O)N2CCOCC2)cc1

>  <Energy>  (34) 
74.21117210322642

>  <Genealogy>  (34) 
O=C(Nc1ccc(S(=O)(=O)N2CCCC2)cc1)c1ccc(S(=O)(=O)N2CCOCC2)cc1 (3D coordinates assigned)
O=C(Nc1ccc(S(=O)(=O)N2CCCC2)cc1)c1ccc(S(=O)(=O)N2CCOCC2)cc1 (nonaromatic ring conformer: 74.21117210322642 kcal/mol)

>  <smiles>  (34) 
O=C(Nc1ccc(S(=O)(=O)N2CCCC2)cc1)c1ccc(S(=O)(=O)N2CCOCC2)cc1

>  <score_type>  (34) 
oracle

>  <origin>  (34) 
adgpu

>  <m_score__min__energy>  (34) 
-9.9100000000000001

>  <m_primary>  (34) 
energy

$$$$
34:0
     RDKit          3D

 46 48  0  0  0  0  0  0  0  0999 V2000
   -9.5320   20.8570  -32.1490 C   0  0  0  0  0  0  0  0  0  0  0  0
   -8.2690   21.6600  -31.9760 C   0  0  0  0  0  0  0  0  0  0  0  0
   -8.3900   22.9510  -31.4420 C   0  0  0  0  0  0  0  0  0  0  0  0
   -7.2780   23.7740  -31.2980 C   0  0  0  0  0  0  0  0  0  0  0  0
   -6.0110   23.3290  -31.6900 C   0  0  0  0  0  0  0  0  0  0  0  0
   -4.8620   24.1810  -31.5710 N   0  0  0  0  0  0  0  0  0  0  0  0
   -3.6800   23.8990  -30.8140 C   0  0  0  0  0  0  0  0  0  0  0  0
   -2.9150   22.9770  -31.2000 O   0  0  0  0  0  0  0  0  0  0  0  0
   -3.3770   24.6550  -29.6340 N   0  0  0  0  0  0  0  0  0  0  0  0
   -2.3480   24.3750  -28.6720 C   0  0  0  0  0  0  0  0  0  0  0  0
   -2.4060   23.2520  -27.8260 C   0  0  0  0  0  0  0  0  0  0  0  0
   -1.3960   23.0270  -26.8840 C   0  0  0  0  0  0  0  0  0  0  0  0
   -0.3320   23.9240  -26.7700 C   0  0  0  0  0  0  0  0  0  0  0  0
   -0.2790   25.0530  -27.5900 C   0  0  0  0  0  0  0  0  0  0  0  0
   -1.2860   25.2840  -28.5330 C   0  0  0  0  0  0  0  0  0  0  0  0
   -1.2260   26.4170  -29.3380 O   0  0  0  0  0  0  0  0  0  0  0  0
   -5.8730   22.0520  -32.2680 C   0  0  0  0  0  0  0  0  0  0  0  0
   -4.6180   21.6250  -32.7090 O   0  0  0  0  0  0  0  0  0  0  0  0
   -6.9900   21.1910  -32.3910 C   0  0  0  0  0  0  0  0  0  0  0  0
   -6.7480   19.5660  -33.1070 S   0  0  0  0  0  0  0  0  0  0  0  0
   -8.0020   18.7470  -32.9880 O   0  0  0  0  0  0  0  0  0  0  0  0
   -6.4880   19.7300  -34.5790 O   0  0  0  0  0  0  0  0  0  0  0  0
   -5.4120   18.6630  -32.4140 N   0  0  0  0  0  0  0  0  0  0  0  0
   -5.7690   17.2980  -31.9800 C   0  0  0  0  0  0  0  0  0  0  0  0
   -5.5700   16.2540  -33.0910 C   0  0  0  0  0  0  0  0  0  0  0  0
   -4.2720   16.3380  -33.6400 O   0  0  0  0  0  0  0  0  0  0  0  0
   -4.1090   17.5980  -34.2530 C   0  0  0  0  0  0  0  0  0  0  0  0
   -4.1710   18.7150  -33.2040 C   0  0  0  0  0  0  0  0  0  0  0  0
   -9.9399   20.5977  -31.1609 H   0  0  0  0  0  0  0  0  0  0  0  0
  -10.2710   21.4514  -32.7062 H   0  0  0  0  0  0  0  0  0  0  0  0
   -9.3072   19.9356  -32.7062 H   0  0  0  0  0  0  0  0  0  0  0  0
   -9.3795   23.3184  -31.1323 H   0  0  0  0  0  0  0  0  0  0  0  0
   -7.3956   24.7817  -30.8730 H   0  0  0  0  0  0  0  0  0  0  0  0
   -3.2481   22.5487  -27.9055 H   0  0  0  0  0  0  0  0  0  0  0  0
   -1.4403   22.1420  -26.2322 H   0  0  0  0  0  0  0  0  0  0  0  0
    0.4648   23.7412  -26.0340 H   0  0  0  0  0  0  0  0  0  0  0  0
    0.5564   25.7622  -27.4942 H   0  0  0  0  0  0  0  0  0  0  0  0
   -3.7640   22.1360  -32.5220 H   0  0  0  0  0  0  0  0  0  0  0  0
   -5.1372   17.0244  -31.1221 H   0  0  0  0  0  0  0  0  0  0  0  0
   -6.8361   17.3014  -31.7129 H   0  0  0  0  0  0  0  0  0  0  0  0
   -5.7178   15.2486  -32.6700 H   0  0  0  0  0  0  0  0  0  0  0  0
   -6.3007   16.4496  -33.8896 H   0  0  0  0  0  0  0  0  0  0  0  0
   -3.1334   17.6308  -34.7602 H   0  0  0  0  0  0  0  0  0  0  0  0
   -4.9192   17.7477  -34.9818 H   0  0  0  0  0  0  0  0  0  0  0  0
   -3.3127   18.6112  -32.5239 H   0  0  0  0  0  0  0  0  0  0  0  0
   -4.1459   19.6790  -33.7331 H   0  0  0  0  0  0  0  0  0  0  0  0
  1  2  1  0
  2  3  2  0
  3  4  1  0
  4  5  2  0
  5  6  1  0
  6  7  1  0
  7  8  2  0
  7  9  1  0
  9 10  1  0
 10 11  2  0
 11 12  1  0
 12 13  2  0
 13 14  1  0
 14 15  2  0
 15 16  1  0
  5 17  1  0
 17 18  1  0
 17 19  2  0
 19 20  1  0
 20 21  2  0
 20 22  2  0
 20 23  1  0
 23 24  1  0
 24 25  1  0
 25 26  1  0
 26 27  1  0
 27 28  1  0
 19  2  1  0
 28 23  1  0
 15 10  1  0
  1 29  1  0
  1 30  1  0
  1 31  1  0
  3 32  1  0
  4 33  1  0
 11 34  1  0
 12 35  1  0
 13 36  1  0
 14 37  1  0
 18 38  1  0
 24 39  1  0
 24 40  1  0
 25 41  1  0
 25 42  1  0
 27 43  1  0
 27 44  1  0
 28 45  1  0
 28 46  1  0
M  CHG  3   6  -1   9  -1  16  -1
M  END
>  <UniqueID>  (35) 
35

>  <SMILES>  (35) 
Cc1ccc([N-]C(=O)[N-]c2ccccc2[O-])c(O)c1S(=O)(=O)N1CCOCC1

>  <Energy>  (35) 
65.91515209020187

>  <Genealogy>  (35) 
Cc1ccc([N-]C(=O)[N-]c2ccccc2[O-])c(O)c1S(=O)(=O)N1CCOCC1 (protonated)
Cc1ccc([N-]C(=O)[N-]c2ccccc2[O-])c(O)c1S(=O)(=O)N1CCOCC1 (3D coordinates assigned)
Cc1ccc([N-]C(=O)[N-]c2ccccc2[O-])c(O)c1S(=O)(=O)N1CCOCC1 (nonaromatic ring conformer: 65.91515209020187 kcal/mol)

>  <smiles>  (35) 
Cc1ccc(NC(=O)Nc2ccccc2O)c(O)c1S(=O)(=O)N1CCOCC1

>  <score_type>  (35) 
oracle

>  <origin>  (35) 
adgpu

>  <m_score__min__energy>  (35) 
-14.92

>  <m_primary>  (35) 
energy

$$$$
35:0
     RDKit          3D

 36 38  0  0  0  0  0  0  0  0999 V2000
   -4.2400   25.6670  -31.5840 H   0  0  0  0  0  0  0  0  0  0  0  0
   -3.8340   25.0680  -30.8330 N   0  0  0  0  0  0  0  0  0  0  0  0
   -3.9510   23.7800  -30.8600 C   0  0  0  0  0  0  0  0  0  0  0  0
   -4.6090   23.1600  -31.8810 N   0  0  0  0  0  0  0  0  0  0  0  0
   -4.7380   21.7980  -31.9190 C   0  0  0  0  0  0  0  0  0  0  0  0
   -5.4280   21.1480  -33.0800 C   0  0  0  0  0  0  0  0  0  0  0  0
   -5.6861   21.9142  -33.8259 H   0  0  0  0  0  0  0  0  0  0  0  0
   -4.7552   20.4024  -33.5288 H   0  0  0  0  0  0  0  0  0  0  0  0
   -6.6840   20.4630  -32.6140 C   0  0  0  0  0  0  0  0  0  0  0  0
   -6.7900   19.0640  -32.6700 C   0  0  0  0  0  0  0  0  0  0  0  0
   -5.9627   18.4681  -33.0829 H   0  0  0  0  0  0  0  0  0  0  0  0
   -7.9430   18.4250  -32.2030 C   0  0  0  0  0  0  0  0  0  0  0  0
   -8.0241   17.3293  -32.2561 H   0  0  0  0  0  0  0  0  0  0  0  0
   -8.9920   19.1780  -31.6690 C   0  0  0  0  0  0  0  0  0  0  0  0
   -9.8993   18.6744  -31.3040 H   0  0  0  0  0  0  0  0  0  0  0  0
   -8.8900   20.5710  -31.5980 C   0  0  0  0  0  0  0  0  0  0  0  0
   -9.7164   21.1619  -31.1762 H   0  0  0  0  0  0  0  0  0  0  0  0
   -7.7380   21.2130  -32.0630 C   0  0  0  0  0  0  0  0  0  0  0  0
   -7.6561   22.3080  -31.9975 H   0  0  0  0  0  0  0  0  0  0  0  0
   -4.1800   21.0390  -30.9280 N   0  0  0  0  0  0  0  0  0  0  0  0
   -4.2480   19.9960  -30.9490 H   0  0  0  0  0  0  0  0  0  0  0  0
   -3.5430   21.6530  -29.9320 N   0  0  0  0  0  0  0  0  0  0  0  0
   -2.9220   21.0960  -28.8800 C   0  0  0  0  0  0  0  0  0  0  0  0
   -2.8523   20.0189  -28.6678 H   0  0  0  0  0  0  0  0  0  0  0  0
   -2.3800   22.1210  -28.1020 C   0  0  0  0  0  0  0  0  0  0  0  0
   -1.5520   22.0220  -26.8800 C   0  0  0  0  0  0  0  0  0  0  0  0
   -1.0417   22.9394  -26.5514 H   0  0  0  0  0  0  0  0  0  0  0  0
   -1.3620   20.9240  -26.1330 C   0  0  0  0  0  0  0  0  0  0  0  0
   -0.6953   21.0124  -25.2625 H   0  0  0  0  0  0  0  0  0  0  0  0
   -1.9860   19.5880  -26.3910 C   0  0  0  0  0  0  0  0  0  0  0  0
   -2.2145   19.0988  -25.4326 H   0  0  0  0  0  0  0  0  0  0  0  0
   -2.9148   19.7218  -26.9650 H   0  0  0  0  0  0  0  0  0  0  0  0
   -1.2873   18.9616  -26.9650 H   0  0  0  0  0  0  0  0  0  0  0  0
   -2.6790   23.3250  -28.7370 C   0  0  0  0  0  0  0  0  0  0  0  0
   -2.3953   24.3370  -28.4123 H   0  0  0  0  0  0  0  0  0  0  0  0
   -3.4060   22.9810  -29.8590 C   0  0  0  0  0  0  0  0  0  0  0  0
  1  2  1  0
  2  3  2  0
  3  4  1  0
  4  5  2  0
  5  6  1  0
  6  7  1  0
  6  8  1  0
  6  9  1  0
  9 10  2  0
 10 11  1  0
 10 12  1  0
 12 13  1  0
 12 14  2  0
 14 15  1  0
 14 16  1  0
 16 17  1  0
 16 18  2  0
 18 19  1  0
  5 20  1  0
 20 21  1  0
 20 22  1  0
 22 23  1  0
 23 24  1  0
 23 25  2  0
 25 26  1  0
 26 27  1  0
 26 28  2  0
 28 29  1  0
 28 30  1  0
 30 31  1  0
 30 32  1  0
 30 33  1  0
 25 34  1  0
 34 35  1  0
 34 36  2  0
 36  3  1  0
 18  9  1  0
 36 22  1  0
M  END
>  <UniqueID>  (36) 
36

>  <SMILES>  (36) 
[H]/N=c1\nc(Cc2ccccc2)[nH]n2cc(/C=C\C)cc12

>  <Energy>  (36) 
71.61410372538124

>  <Genealogy>  (36) 
[H]/N=c1\nc(Cc2ccccc2)[nH]n2cc(/C=C\C)cc12 (cis-trans isomerization)
[H]/N=c1\nc(Cc2ccccc2)[nH]n2cc(/C=C\C)cc12 (3D coordinates assigned)
[H]/N=c1\nc(Cc2ccccc2)[nH]n2cc(/C=C\C)cc12 (optimized conformer: 71.61410372538124 kcal/mol)

>  <smiles>  (36) 
CC=Cc1cc2c(=N)nc(Cc3ccccc3)[nH]n2c1

>  <score_type>  (36) 
oracle

>  <origin>  (36) 
adgpu

>  <m_score__min__energy>  (36) 
-8.0600000000000005

>  <m_primary>  (36) 
energy

$$$$
36:0
     RDKit          3D

 58 61  0  0  0  0  0  0  0  0999 V2000
   -2.5600   19.7850  -27.1250 C   0  0  0  0  0  0  0  0  0  0  0  0
   -1.7620   20.9430  -27.3380 O   0  0  0  0  0  0  0  0  0  0  0  0
   -2.1840   22.0610  -28.0700 C   0  0  0  0  0  0  0  0  0  0  0  0
   -3.0770   21.8440  -29.1280 C   0  0  0  0  0  0  0  0  0  0  0  0
   -3.5050   22.9000  -29.9530 C   0  0  0  0  0  0  0  0  0  0  0  0
   -4.4220   22.6180  -31.0890 C   0  0  0  0  0  0  0  0  0  0  0  0
   -4.6160   23.5040  -31.9660 O   0  0  0  0  0  0  0  0  0  0  0  0
   -5.1440   21.3810  -31.1540 N   0  0  0  0  0  0  0  0  0  0  0  0
   -5.0130   20.3740  -32.1680 C   0  0  0  0  0  0  0  0  0  0  0  0
   -3.7340   19.9340  -32.5550 C   0  0  0  0  0  0  0  0  0  0  0  0
   -3.5790   18.9890  -33.5720 C   0  0  0  0  0  0  0  0  0  0  0  0
   -1.9620   18.4730  -34.0420 S   0  0  0  0  0  0  0  0  0  0  0  0
   -2.0730   17.5910  -35.2570 O   0  0  0  0  0  0  0  0  0  0  0  0
   -1.3370   17.6730  -32.9320 O   0  0  0  0  0  0  0  0  0  0  0  0
   -0.9890   19.8750  -34.4110 N   0  0  0  0  0  0  0  0  0  0  0  0
   -0.0040   19.5390  -35.4510 C   0  0  0  0  0  0  0  0  0  0  0  0
    0.9870   20.7020  -35.6660 C   0  0  0  0  0  0  0  0  0  0  0  0
    0.6110   21.8430  -34.9150 O   0  0  0  0  0  0  0  0  0  0  0  0
    0.6260   21.5330  -33.5340 C   0  0  0  0  0  0  0  0  0  0  0  0
   -0.2980   20.3420  -33.2010 C   0  0  0  0  0  0  0  0  0  0  0  0
   -4.7070   18.4540  -34.1940 C   0  0  0  0  0  0  0  0  0  0  0  0
   -5.9840   18.8500  -33.7950 C   0  0  0  0  0  0  0  0  0  0  0  0
   -6.1650   19.8030  -32.7710 C   0  0  0  0  0  0  0  0  0  0  0  0
   -7.5090   20.1860  -32.3800 N   0  0  0  0  0  0  0  0  0  0  0  0
   -7.8780   21.5390  -31.9820 C   0  0  0  0  0  0  0  0  0  0  0  0
   -9.3560   21.4790  -31.6230 C   0  0  0  0  0  0  0  0  0  0  0  0
   -9.8830   20.2530  -32.3450 C   0  0  0  0  0  0  0  0  0  0  0  0
   -8.6800   19.3320  -32.4860 C   0  0  0  0  0  0  0  0  0  0  0  0
   -3.0530   24.2060  -29.6680 C   0  0  0  0  0  0  0  0  0  0  0  0
   -3.4780   25.2970  -30.4190 O   0  0  0  0  0  0  0  0  0  0  0  0
   -2.1800   24.4310  -28.6000 C   0  0  0  0  0  0  0  0  0  0  0  0
   -1.7530   23.3740  -27.7880 C   0  0  0  0  0  0  0  0  0  0  0  0
   -0.9420   23.6750  -26.7010 O   0  0  0  0  0  0  0  0  0  0  0  0
   -2.6776   19.6144  -26.0447 H   0  0  0  0  0  0  0  0  0  0  0  0
   -3.5493   19.9322  -27.5828 H   0  0  0  0  0  0  0  0  0  0  0  0
   -2.0702   18.9129  -27.5828 H   0  0  0  0  0  0  0  0  0  0  0  0
   -3.4510   20.8270  -29.3173 H   0  0  0  0  0  0  0  0  0  0  0  0
   -2.8446   20.3393  -32.0503 H   0  0  0  0  0  0  0  0  0  0  0  0
    0.5540   18.6426  -35.1426 H   0  0  0  0  0  0  0  0  0  0  0  0
   -0.5381   19.3530  -36.3945 H   0  0  0  0  0  0  0  0  0  0  0  0
    1.9908   20.3805  -35.3513 H   0  0  0  0  0  0  0  0  0  0  0  0
    0.9815   20.9707  -36.7327 H   0  0  0  0  0  0  0  0  0  0  0  0
    1.6544   21.2788  -33.2378 H   0  0  0  0  0  0  0  0  0  0  0  0
    0.2604   22.4123  -32.9834 H   0  0  0  0  0  0  0  0  0  0  0  0
    0.3051   19.5199  -32.7881 H   0  0  0  0  0  0  0  0  0  0  0  0
   -1.0481   20.6675  -32.4652 H   0  0  0  0  0  0  0  0  0  0  0  0
   -4.5894   17.7171  -35.0022 H   0  0  0  0  0  0  0  0  0  0  0  0
   -6.8645   18.4116  -34.2874 H   0  0  0  0  0  0  0  0  0  0  0  0
   -7.2853   21.8570  -31.1116 H   0  0  0  0  0  0  0  0  0  0  0  0
   -7.6868   22.2635  -32.7873 H   0  0  0  0  0  0  0  0  0  0  0  0
   -9.4863   21.3739  -30.5358 H   0  0  0  0  0  0  0  0  0  0  0  0
   -9.8911   22.3943  -31.9160 H   0  0  0  0  0  0  0  0  0  0  0  0
  -10.6747   19.7675  -31.7554 H   0  0  0  0  0  0  0  0  0  0  0  0
  -10.3264   20.5059  -33.3194 H   0  0  0  0  0  0  0  0  0  0  0  0
   -8.6784   18.5794  -31.6838 H   0  0  0  0  0  0  0  0  0  0  0  0
   -8.6978   18.7884  -33.4421 H   0  0  0  0  0  0  0  0  0  0  0  0
   -1.8241   25.4515  -28.3951 H   0  0  0  0  0  0  0  0  0  0  0  0
   -0.6500   22.9920  -26.0200 H   0  0  0  0  0  0  0  0  0  0  0  0
  1  2  1  0
  2  3  1  0
  3  4  2  0
  4  5  1  0
  5  6  1  0
  6  7  2  0
  6  8  1  0
  8  9  1  0
  9 10  2  0
 10 11  1  0
 11 12  1  0
 12 13  2  0
 12 14  2  0
 12 15  1  0
 15 16  1  0
 16 17  1  0
 17 18  1  0
 18 19  1  0
 19 20  1  0
 11 21  2  0
 21 22  1  0
 22 23  2  0
 23 24  1  0
 24 25  1  0
 25 26  1  0
 26 27  1  0
 27 28  1  0
  5 29  2  0
 29 30  1  0
 29 31  1  0
 31 32  2  0
 32 33  1  0
 32  3  1  0
 23  9  1  0
 28 24  1  0
 20 15  1  0
  1 34  1  0
  1 35  1  0
  1 36  1  0
  4 37  1  0
 10 38  1  0
 16 39  1  0
 16 40  1  0
 17 41  1  0
 17 42  1  0
 19 43  1  0
 19 44  1  0
 20 45  1  0
 20 46  1  0
 21 47  1  0
 22 48  1  0
 25 49  1  0
 25 50  1  0
 26 51  1  0
 26 52  1  0
 27 53  1  0
 27 54  1  0
 28 55  1  0
 28 56  1  0
 31 57  1  0
 33 58  1  0
M  CHG  2   8  -1  30  -1
M  END
>  <UniqueID>  (37) 
37

>  <SMILES>  (37) 
COc1cc(C(=O)[N-]c2cc(S(=O)(=O)N3CCOCC3)ccc2N2CCCC2)c([O-])cc1O

>  <Energy>  (37) 
86.88931272468244

>  <Genealogy>  (37) 
COc1cc(C(=O)[N-]c2cc(S(=O)(=O)N3CCOCC3)ccc2N2CCCC2)c([O-])cc1O (protonated)
COc1cc(C(=O)[N-]c2cc(S(=O)(=O)N3CCOCC3)ccc2N2CCCC2)c([O-])cc1O (3D coordinates assigned)
COc1cc(C(=O)[N-]c2cc(S(=O)(=O)N3CCOCC3)ccc2N2CCCC2)c([O-])cc1O (nonaromatic ring conformer: 86.88931272468244 kcal/mol)

>  <smiles>  (37) 
COc1cc(C(=O)Nc2cc(S(=O)(=O)N3CCOCC3)ccc2N2CCCC2)c(O)cc1O

>  <score_type>  (37) 
oracle

>  <origin>  (37) 
adgpu

>  <m_score__min__energy>  (37) 
-12.83

>  <m_primary>  (37) 
energy

$$$$
37:0
     RDKit          3D

 42 44  0  0  0  0  0  0  0  0999 V2000
   -2.1600   17.9940  -33.0960 O   0  0  0  0  0  0  0  0  0  0  0  0
   -1.1710   19.1250  -33.0540 S   0  0  0  0  0  0  0  0  0  0  0  0
   -0.0970   18.8540  -34.0710 O   0  0  0  0  0  0  0  0  0  0  0  0
   -1.9710   20.6050  -33.4520 N   0  0  0  0  0  0  0  0  0  0  0  0
   -3.3240   20.8380  -33.0640 C   0  0  0  0  0  0  0  0  0  0  0  0
   -3.6180   21.8880  -32.1850 C   0  0  0  0  0  0  0  0  0  0  0  0
   -4.9370   22.1140  -31.7770 C   0  0  0  0  0  0  0  0  0  0  0  0
   -5.9620   21.2880  -32.2400 C   0  0  0  0  0  0  0  0  0  0  0  0
   -5.6760   20.2370  -33.1160 C   0  0  0  0  0  0  0  0  0  0  0  0
   -4.3560   20.0040  -33.5280 C   0  0  0  0  0  0  0  0  0  0  0  0
   -4.0650   18.9460  -34.3870 O   0  0  0  0  0  0  0  0  0  0  0  0
   -0.4420   19.2500  -31.4570 C   0  0  0  0  0  0  0  0  0  0  0  0
    0.9160   18.9640  -31.2890 C   0  0  0  0  0  0  0  0  0  0  0  0
    1.5090   19.0930  -30.0330 C   0  0  0  0  0  0  0  0  0  0  0  0
    0.7520   19.5120  -28.9350 C   0  0  0  0  0  0  0  0  0  0  0  0
    1.3700   19.6330  -27.6950 O   0  0  0  0  0  0  0  0  0  0  0  0
   -0.6170   19.8080  -29.0860 C   0  0  0  0  0  0  0  0  0  0  0  0
   -1.3880   20.2320  -27.9420 N   0  0  0  0  0  0  0  0  0  0  0  0
   -2.5990   21.0510  -28.0130 C   0  0  0  0  0  0  0  0  0  0  0  0
   -2.2590   22.4870  -28.3150 C   0  0  0  0  0  0  0  0  0  0  0  0
   -1.1110   23.0810  -27.7670 C   0  0  0  0  0  0  0  0  0  0  0  0
   -0.7720   24.3970  -28.0960 C   0  0  0  0  0  0  0  0  0  0  0  0
   -1.5730   25.1280  -28.9780 C   0  0  0  0  0  0  0  0  0  0  0  0
   -1.2240   26.4320  -29.3090 O   0  0  0  0  0  0  0  0  0  0  0  0
   -2.7220   24.5460  -29.5260 C   0  0  0  0  0  0  0  0  0  0  0  0
   -3.5240   25.2710  -30.3990 O   0  0  0  0  0  0  0  0  0  0  0  0
   -3.0610   23.2280  -29.2000 C   0  0  0  0  0  0  0  0  0  0  0  0
   -1.2040   19.6760  -30.3610 C   0  0  0  0  0  0  0  0  0  0  0  0
   -2.8102   22.5363  -31.8147 H   0  0  0  0  0  0  0  0  0  0  0  0
   -5.1661   22.9429  -31.0911 H   0  0  0  0  0  0  0  0  0  0  0  0
   -6.9979   21.4645  -31.9147 H   0  0  0  0  0  0  0  0  0  0  0  0
   -6.4877   19.5916  -33.4828 H   0  0  0  0  0  0  0  0  0  0  0  0
   -3.1110   18.6560  -34.5680 H   0  0  0  0  0  0  0  0  0  0  0  0
    1.5183   18.6365  -32.1492 H   0  0  0  0  0  0  0  0  0  0  0  0
    2.5774   18.8639  -29.9059 H   0  0  0  0  0  0  0  0  0  0  0  0
   -1.0780   19.9400  -26.9870 H   0  0  0  0  0  0  0  0  0  0  0  0
   -3.2519   20.6606  -28.8076 H   0  0  0  0  0  0  0  0  0  0  0  0
   -3.1104   21.0078  -27.0401 H   0  0  0  0  0  0  0  0  0  0  0  0
   -0.4753   22.5084  -27.0756 H   0  0  0  0  0  0  0  0  0  0  0  0
    0.1266   24.8579  -27.6600 H   0  0  0  0  0  0  0  0  0  0  0  0
   -3.9596   22.7696  -29.6386 H   0  0  0  0  0  0  0  0  0  0  0  0
   -2.2703   19.9097  -30.4967 H   0  0  0  0  0  0  0  0  0  0  0  0
  1  2  2  0
  2  3  2  0
  2  4  1  0
  4  5  1  0
  5  6  2  0
  6  7  1  0
  7  8  2  0
  8  9  1  0
  9 10  2  0
 10 11  1  0
  2 12  1  0
 12 13  2  0
 13 14  1  0
 14 15  2  0
 15 16  1  0
 15 17  1  0
 17 18  1  0
 18 19  1  0
 19 20  1  0
 20 21  2  0
 21 22  1  0
 22 23  2  0
 23 24  1  0
 23 25  1  0
 25 26  1  0
 25 27  2  0
 17 28  2  0
 10  5  1  0
 28 12  1  0
 27 20  1  0
  6 29  1  0
  7 30  1  0
  8 31  1  0
  9 32  1  0
 11 33  1  0
 13 34  1  0
 14 35  1  0
 18 36  1  0
 19 37  1  0
 19 38  1  0
 21 39  1  0
 22 40  1  0
 27 41  1  0
 28 42  1  0
M  CHG  4   4  -1  16  -1  24  -1  26  -1
M  END
>  <UniqueID>  (38) 
38

>  <SMILES>  (38) 
O=S(=O)([N-]c1ccccc1O)c1ccc([O-])c(NCc2ccc([O-])c([O-])c2)c1

>  <Energy>  (38) 
50.87508776937616

>  <Genealogy>  (38) 
O=S(=O)([N-]c1ccccc1O)c1ccc([O-])c(NCc2ccc([O-])c([O-])c2)c1 (protonated)
O=S(=O)([N-]c1ccccc1O)c1ccc([O-])c(NCc2ccc([O-])c([O-])c2)c1 (3D coordinates assigned)
O=S(=O)([N-]c1ccccc1O)c1ccc([O-])c(NCc2ccc([O-])c([O-])c2)c1 (optimized conformer: 50.87508776937616 kcal/mol)

>  <smiles>  (38) 
O=S(=O)(Nc1ccccc1O)c1ccc(O)c(NCc2ccc(O)c(O)c2)c1

>  <score_type>  (38) 
oracle

>  <origin>  (38) 
adgpu

>  <m_score__min__energy>  (38) 
-13.390000000000001

>  <m_primary>  (38) 
energy

$$$$
38:0
     RDKit          3D

 51 53  0  0  0  0  0  0  0  0999 V2000
   -9.4760   18.9230  -32.3470 C   0  0  0  0  0  0  0  0  0  0  0  0
   -8.5380   20.1010  -32.3250 C   0  0  0  0  0  0  0  0  0  0  0  0
   -9.0260   21.3660  -31.9660 C   0  0  0  0  0  0  0  0  0  0  0  0
   -8.1810   22.4780  -31.9590 C   0  0  0  0  0  0  0  0  0  0  0  0
   -6.8290   22.3490  -32.3240 C   0  0  0  0  0  0  0  0  0  0  0  0
   -5.9370   23.4780  -32.3580 N   0  0  0  0  0  0  0  0  0  0  0  0
   -5.2320   24.2040  -30.9470 S   0  0  0  0  0  0  0  0  0  0  0  0
   -5.6360   25.6480  -30.8700 O   0  0  0  0  0  0  0  0  0  0  0  0
   -5.7510   23.5020  -29.7240 O   0  0  0  0  0  0  0  0  0  0  0  0
   -3.4990   24.0810  -30.9940 N   0  0  0  0  0  0  0  0  0  0  0  0
   -2.8640   24.1400  -29.3740 S   0  0  0  0  0  0  0  0  0  0  0  0
   -3.9420   24.5650  -28.4160 O   0  0  0  0  0  0  0  0  0  0  0  0
   -1.7620   25.1620  -29.3210 O   0  0  0  0  0  0  0  0  0  0  0  0
   -2.2650   22.5570  -28.9260 N   0  0  0  0  0  0  0  0  0  0  0  0
   -3.3300   21.5440  -28.8210 C   0  0  0  0  0  0  0  0  0  0  0  0
   -3.9190   21.1280  -30.1790 C   0  0  0  0  0  0  0  0  0  0  0  0
   -2.8910   21.0470  -31.2770 C   0  0  0  0  0  0  0  0  0  0  0  0
   -3.2560   20.4950  -32.5140 C   0  0  0  0  0  0  0  0  0  0  0  0
   -2.3390   20.4460  -33.5650 C   0  0  0  0  0  0  0  0  0  0  0  0
   -1.0530   20.9600  -33.3960 C   0  0  0  0  0  0  0  0  0  0  0  0
   -0.6810   21.5230  -32.1730 C   0  0  0  0  0  0  0  0  0  0  0  0
   -1.5990   21.5840  -31.1130 C   0  0  0  0  0  0  0  0  0  0  0  0
   -1.1480   22.1120  -29.7750 C   0  0  0  0  0  0  0  0  0  0  0  0
   -6.3430   21.0850  -32.6910 C   0  0  0  0  0  0  0  0  0  0  0  0
   -7.1880   19.9660  -32.7060 C   0  0  0  0  0  0  0  0  0  0  0  0
   -6.6690   18.6920  -33.1160 N   0  0  0  0  0  0  0  0  0  0  0  0
   -5.9940   18.5890  -34.4090 C   0  0  0  0  0  0  0  0  0  0  0  0
   -6.4110   17.6700  -32.1050 C   0  0  0  0  0  0  0  0  0  0  0  0
   -9.7138   18.6243  -31.3154 H   0  0  0  0  0  0  0  0  0  0  0  0
  -10.4023   19.2016  -32.8708 H   0  0  0  0  0  0  0  0  0  0  0  0
   -8.9970   18.0826  -32.8708 H   0  0  0  0  0  0  0  0  0  0  0  0
  -10.0837   21.4833  -31.6875 H   0  0  0  0  0  0  0  0  0  0  0  0
   -8.5759   23.4619  -31.6658 H   0  0  0  0  0  0  0  0  0  0  0  0
   -5.7480   23.9470  -33.2730 H   0  0  0  0  0  0  0  0  0  0  0  0
   -2.9131   20.6501  -28.3341 H   0  0  0  0  0  0  0  0  0  0  0  0
   -4.1475   21.9942  -28.2388 H   0  0  0  0  0  0  0  0  0  0  0  0
   -4.3887   20.1396  -30.0674 H   0  0  0  0  0  0  0  0  0  0  0  0
   -4.6443   21.9023  -30.4695 H   0  0  0  0  0  0  0  0  0  0  0  0
   -4.2719   20.0981  -32.6566 H   0  0  0  0  0  0  0  0  0  0  0  0
   -2.6306   20.0015  -34.5280 H   0  0  0  0  0  0  0  0  0  0  0  0
   -0.3320   20.9219  -34.2259 H   0  0  0  0  0  0  0  0  0  0  0  0
    0.3361   21.9204  -32.0400 H   0  0  0  0  0  0  0  0  0  0  0  0
   -0.6039   21.3140  -29.2486 H   0  0  0  0  0  0  0  0  0  0  0  0
   -0.5100   22.9877  -29.9650 H   0  0  0  0  0  0  0  0  0  0  0  0
   -5.2853   20.9703  -32.9706 H   0  0  0  0  0  0  0  0  0  0  0  0
   -4.9182   18.4248  -34.2489 H   0  0  0  0  0  0  0  0  0  0  0  0
   -6.4135   17.7445  -34.9754 H   0  0  0  0  0  0  0  0  0  0  0  0
   -6.1425   19.5202  -34.9754 H   0  0  0  0  0  0  0  0  0  0  0  0
   -6.5219   18.1095  -31.1027 H   0  0  0  0  0  0  0  0  0  0  0  0
   -7.1292   16.8456  -32.2254 H   0  0  0  0  0  0  0  0  0  0  0  0
   -5.3875   17.2852  -32.2254 H   0  0  0  0  0  0  0  0  0  0  0  0
  1  2  1  0
  2  3  2  0
  3  4  1  0
  4  5  2  0
  5  6  1  0
  6  7  1  0
  7  8  2  0
  7  9  2  0
  7 10  1  0
 10 11  1  0
 11 12  2  0
 11 13  2  0
 11 14  1  0
 14 15  1  0
 15 16  1  0
 16 17  1  0
 17 18  2  0
 18 19  1  0
 19 20  2  0
 20 21  1  0
 21 22  2  0
 22 23  1  0
  5 24  1  0
 24 25  2  0
 25 26  1  0
 26 27  1  0
 26 28  1  0
 25  2  1  0
 23 14  1  0
 22 17  1  0
  1 29  1  0
  1 30  1  0
  1 31  1  0
  3 32  1  0
  4 33  1  0
  6 34  1  0
 15 35  1  0
 15 36  1  0
 16 37  1  0
 16 38  1  0
 18 39  1  0
 19 40  1  0
 20 41  1  0
 21 42  1  0
 23 43  1  0
 23 44  1  0
 24 45  1  0
 27 46  1  0
 27 47  1  0
 27 48  1  0
 28 49  1  0
 28 50  1  0
 28 51  1  0
M  CHG  1  10  -1
M  END
>  <UniqueID>  (39) 
39

>  <SMILES>  (39) 
Cc1ccc(NS(=O)(=O)[N-]S(=O)(=O)N2CCc3ccccc3C2)cc1N(C)C

>  <Energy>  (39) 
56.568092762524905

>  <Genealogy>  (39) 
Cc1ccc(NS(=O)(=O)[N-]S(=O)(=O)N2CCc3ccccc3C2)cc1N(C)C (protonated)
Cc1ccc(NS(=O)(=O)[N-]S(=O)(=O)N2CCc3ccccc3C2)cc1N(C)C (3D coordinates assigned)
Cc1ccc(NS(=O)(=O)[N-]S(=O)(=O)N2CCc3ccccc3C2)cc1N(C)C (nonaromatic ring conformer: 56.568092762524905 kcal/mol)

>  <smiles>  (39) 
Cc1ccc(NS(=O)(=O)NS(=O)(=O)N2CCc3ccccc3C2)cc1N(C)C

>  <score_type>  (39) 
oracle

>  <origin>  (39) 
adgpu

>  <m_score__min__energy>  (39) 
-10.970000000000001

>  <m_primary>  (39) 
energy

$$$$
39:0
     RDKit          3D

 59 61  0  0  0  0  0  0  0  0999 V2000
   -6.0210   24.9760  -29.7590 C   0  0  0  0  0  0  0  0  0  0  0  0
   -4.5440   24.7810  -29.9000 C   0  0  0  0  0  0  0  0  0  0  0  0
   -3.9430   25.3390  -30.8560 O   0  0  0  0  0  0  0  0  0  0  0  0
   -3.7960   23.9490  -29.0030 N   0  0  0  0  0  0  0  0  0  0  0  0
   -2.8670   22.9160  -29.3690 C   0  0  0  0  0  0  0  0  0  0  0  0
   -3.3110   21.7370  -29.9910 C   0  0  0  0  0  0  0  0  0  0  0  0
   -2.4070   20.7240  -30.3160 C   0  0  0  0  0  0  0  0  0  0  0  0
   -1.0460   20.8690  -30.0200 C   0  0  0  0  0  0  0  0  0  0  0  0
   -0.0790   19.7590  -30.3320 C   0  0  0  0  0  0  0  0  0  0  0  0
   -0.6070   18.8930  -31.4770 C   0  0  0  0  0  0  0  0  0  0  0  0
    0.2130   19.0910  -32.6740 N   0  0  0  0  0  0  0  0  0  0  0  0
   -0.6340   20.1040  -33.8030 S   0  0  0  0  0  0  0  0  0  0  0  0
   -0.3190   19.6580  -35.2030 O   0  0  0  0  0  0  0  0  0  0  0  0
   -0.1840   21.5300  -33.6450 O   0  0  0  0  0  0  0  0  0  0  0  0
   -2.3710   19.9800  -33.5370 C   0  0  0  0  0  0  0  0  0  0  0  0
   -2.9580   18.7220  -33.3530 C   0  0  0  0  0  0  0  0  0  0  0  0
   -4.3300   18.6140  -33.1130 C   0  0  0  0  0  0  0  0  0  0  0  0
   -5.1260   19.7650  -33.0440 C   0  0  0  0  0  0  0  0  0  0  0  0
   -6.8620   19.6410  -32.7600 S   0  0  0  0  0  0  0  0  0  0  0  0
   -7.6070   20.3300  -33.8680 O   0  0  0  0  0  0  0  0  0  0  0  0
   -7.2380   18.1850  -32.7730 O   0  0  0  0  0  0  0  0  0  0  0  0
   -7.2840   20.3330  -31.2070 N   0  0  0  0  0  0  0  0  0  0  0  0
   -6.6330   21.6370  -30.9880 C   0  0  0  0  0  0  0  0  0  0  0  0
   -7.2750   22.7620  -31.8350 C   0  0  0  0  0  0  0  0  0  0  0  0
   -8.5700   22.4420  -32.3150 O   0  0  0  0  0  0  0  0  0  0  0  0
   -9.3210   21.8040  -31.3070 C   0  0  0  0  0  0  0  0  0  0  0  0
   -8.7500   20.4020  -31.0190 C   0  0  0  0  0  0  0  0  0  0  0  0
   -4.5400   21.0240  -33.2290 C   0  0  0  0  0  0  0  0  0  0  0  0
   -3.1680   21.1320  -33.4710 C   0  0  0  0  0  0  0  0  0  0  0  0
   -0.6040   22.0270  -29.3630 C   0  0  0  0  0  0  0  0  0  0  0  0
   -1.5060   23.0480  -29.0290 C   0  0  0  0  0  0  0  0  0  0  0  0
   -0.9270   24.4950  -28.1970 S   0  0  0  0  0  0  0  0  0  0  0  0
   -1.5710   25.9230  -28.9320 N   0  0  0  0  0  0  0  0  0  0  0  0
    0.5730   24.5460  -28.2700 O   0  0  0  0  0  0  0  0  0  0  0  0
   -1.3620   24.4510  -26.7590 O   0  0  0  0  0  0  0  0  0  0  0  0
   -6.2860   25.0110  -28.6920 H   0  0  0  0  0  0  0  0  0  0  0  0
   -6.3138   25.9206  -30.2407 H   0  0  0  0  0  0  0  0  0  0  0  0
   -6.5489   24.1398  -30.2407 H   0  0  0  0  0  0  0  0  0  0  0  0
   -4.3787   21.6112  -30.2236 H   0  0  0  0  0  0  0  0  0  0  0  0
   -2.7656   19.8073  -30.8071 H   0  0  0  0  0  0  0  0  0  0  0  0
    0.8886   20.1934  -30.6235 H   0  0  0  0  0  0  0  0  0  0  0  0
    0.0410   19.1304  -29.4373 H   0  0  0  0  0  0  0  0  0  0  0  0
   -0.5691   17.8344  -31.1805 H   0  0  0  0  0  0  0  0  0  0  0  0
   -1.6451   19.1814  -31.6987 H   0  0  0  0  0  0  0  0  0  0  0  0
    1.0780   19.6080  -32.3950 H   0  0  0  0  0  0  0  0  0  0  0  0
   -2.3365   17.8155  -33.3976 H   0  0  0  0  0  0  0  0  0  0  0  0
   -4.7867   17.6225  -32.9778 H   0  0  0  0  0  0  0  0  0  0  0  0
   -6.7197   21.9017  -29.9239 H   0  0  0  0  0  0  0  0  0  0  0  0
   -5.5804   21.5439  -31.2936 H   0  0  0  0  0  0  0  0  0  0  0  0
   -7.3481   23.6666  -31.2135 H   0  0  0  0  0  0  0  0  0  0  0  0
   -6.6321   22.9101  -32.7152 H   0  0  0  0  0  0  0  0  0  0  0  0
   -9.2811   22.4075  -30.3882 H   0  0  0  0  0  0  0  0  0  0  0  0
  -10.3621   21.7027  -31.6473 H   0  0  0  0  0  0  0  0  0  0  0  0
   -8.9844   20.1335  -29.9783 H   0  0  0  0  0  0  0  0  0  0  0  0
   -9.2099   19.7028  -31.7329 H   0  0  0  0  0  0  0  0  0  0  0  0
   -5.1618   21.9303  -33.1836 H   0  0  0  0  0  0  0  0  0  0  0  0
   -2.7119   22.1233  -33.6101 H   0  0  0  0  0  0  0  0  0  0  0  0
    0.4603   22.1354  -29.1073 H   0  0  0  0  0  0  0  0  0  0  0  0
   -2.5140   25.6760  -29.3070 H   0  0  0  0  0  0  0  0  0  0  0  0
  1  2  1  0
  2  3  2  0
  2  4  1  0
  4  5  1  0
  5  6  2  0
  6  7  1  0
  7  8  2  0
  8  9  1  0
  9 10  1  0
 10 11  1  0
 11 12  1  0
 12 13  2  0
 12 14  2  0
 12 15  1  0
 15 16  2  0
 16 17  1  0
 17 18  2  0
 18 19  1  0
 19 20  2  0
 19 21  2  0
 19 22  1  0
 22 23  1  0
 23 24  1  0
 24 25  1  0
 25 26  1  0
 26 27  1  0
 18 28  1  0
 28 29  2  0
  8 30  1  0
 30 31  2  0
 31 32  1  0
 32 33  1  0
 32 34  2  0
 32 35  2  0
 31  5  1  0
 29 15  1  0
 27 22  1  0
  1 36  1  0
  1 37  1  0
  1 38  1  0
  6 39  1  0
  7 40  1  0
  9 41  1  0
  9 42  1  0
 10 43  1  0
 10 44  1  0
 11 45  1  0
 16 46  1  0
 17 47  1  0
 23 48  1  0
 23 49  1  0
 24 50  1  0
 24 51  1  0
 26 52  1  0
 26 53  1  0
 27 54  1  0
 27 55  1  0
 28 56  1  0
 29 57  1  0
 30 58  1  0
 33 59  1  0
M  CHG  2   4  -1  33  -1
M  END
>  <UniqueID>  (40) 
40

>  <SMILES>  (40) 
CC(=O)[N-]c1ccc(CCNS(=O)(=O)c2ccc(S(=O)(=O)N3CCOCC3)cc2)cc1S([NH-])(=O)=O

>  <Energy>  (40) 
69.11065312718434

>  <Genealogy>  (40) 
CC(=O)[N-]c1ccc(CCNS(=O)(=O)c2ccc(S(=O)(=O)N3CCOCC3)cc2)cc1S([NH-])(=O)=O (protonated)
CC(=O)[N-]c1ccc(CCNS(=O)(=O)c2ccc(S(=O)(=O)N3CCOCC3)cc2)cc1S([NH-])(=O)=O (3D coordinates assigned)
CC(=O)[N-]c1ccc(CCNS(=O)(=O)c2ccc(S(=O)(=O)N3CCOCC3)cc2)cc1S([NH-])(=O)=O (nonaromatic ring conformer: 69.11065312718434 kcal/mol)

>  <smiles>  (40) 
CC(=O)Nc1ccc(CCNS(=O)(=O)c2ccc(S(=O)(=O)N3CCOCC3)cc2)cc1S(N)(=O)=O

>  <score_type>  (40) 
oracle

>  <origin>  (40) 
adgpu

>  <m_score__min__energy>  (40) 
-13.800000000000001

>  <m_primary>  (40) 
energy

$$$$
40:0
     RDKit          3D

 57 60  0  0  0  0  0  0  0  0999 V2000
    0.4750   21.4080  -33.9810 O   0  0  0  0  0  0  0  0  0  0  0  0
   -0.2830   21.2310  -32.9870 C   0  0  0  0  0  0  0  0  0  0  0  0
    0.1830   21.5470  -31.6680 N   0  0  0  0  0  0  0  0  0  0  0  0
   -0.5910   21.4640  -30.4650 C   0  0  0  0  0  0  0  0  0  0  0  0
   -1.3250   22.5880  -30.0650 C   0  0  0  0  0  0  0  0  0  0  0  0
   -2.1020   22.5590  -28.9000 C   0  0  0  0  0  0  0  0  0  0  0  0
   -3.0350   23.9810  -28.4430 S   0  0  0  0  0  0  0  0  0  0  0  0
   -2.6060   25.1240  -29.3200 O   0  0  0  0  0  0  0  0  0  0  0  0
   -2.7540   24.3450  -27.0110 O   0  0  0  0  0  0  0  0  0  0  0  0
   -4.7470   23.6870  -28.6700 N   0  0  0  0  0  0  0  0  0  0  0  0
   -5.4670   24.9100  -29.0720 C   0  0  0  0  0  0  0  0  0  0  0  0
   -5.1990   25.2930  -30.5470 C   0  0  0  0  0  0  0  0  0  0  0  0
   -4.6730   24.2290  -31.3230 O   0  0  0  0  0  0  0  0  0  0  0  0
   -5.3450   23.0280  -31.0220 C   0  0  0  0  0  0  0  0  0  0  0  0
   -4.9930   22.5610  -29.5970 C   0  0  0  0  0  0  0  0  0  0  0  0
   -2.1310   21.3980  -28.1180 C   0  0  0  0  0  0  0  0  0  0  0  0
   -1.3710   20.2850  -28.4860 C   0  0  0  0  0  0  0  0  0  0  0  0
   -0.5840   20.3150  -29.6460 C   0  0  0  0  0  0  0  0  0  0  0  0
    0.2220   19.2230  -29.9630 O   0  0  0  0  0  0  0  0  0  0  0  0
   -1.6310   20.6490  -33.1790 C   0  0  0  0  0  0  0  0  0  0  0  0
   -2.7840   21.4310  -32.9850 C   0  0  0  0  0  0  0  0  0  0  0  0
   -4.0560   20.8790  -33.1620 C   0  0  0  0  0  0  0  0  0  0  0  0
   -4.1960   19.5370  -33.5390 C   0  0  0  0  0  0  0  0  0  0  0  0
   -5.7970   18.8300  -33.7310 S   0  0  0  0  0  0  0  0  0  0  0  0
   -5.6810   17.3310  -33.7080 O   0  0  0  0  0  0  0  0  0  0  0  0
   -6.3790   19.2440  -35.0550 O   0  0  0  0  0  0  0  0  0  0  0  0
   -6.8200   19.3520  -32.4170 N   0  0  0  0  0  0  0  0  0  0  0  0
   -7.3840   20.6760  -32.6770 C   0  0  0  0  0  0  0  0  0  0  0  0
   -8.6820   20.7530  -31.8910 C   0  0  0  0  0  0  0  0  0  0  0  0
   -9.0850   19.3070  -31.6440 C   0  0  0  0  0  0  0  0  0  0  0  0
   -7.9720   18.4660  -32.2510 C   0  0  0  0  0  0  0  0  0  0  0  0
   -3.0540   18.7500  -33.7290 C   0  0  0  0  0  0  0  0  0  0  0  0
   -1.7800   19.3010  -33.5550 C   0  0  0  0  0  0  0  0  0  0  0  0
   -1.2908   23.5041  -30.6729 H   0  0  0  0  0  0  0  0  0  0  0  0
   -6.5464   24.7441  -28.9404 H   0  0  0  0  0  0  0  0  0  0  0  0
   -5.1066   25.7350  -28.4400 H   0  0  0  0  0  0  0  0  0  0  0  0
   -6.1474   25.6179  -30.9998 H   0  0  0  0  0  0  0  0  0  0  0  0
   -4.4431   26.0921  -30.5407 H   0  0  0  0  0  0  0  0  0  0  0  0
   -6.4304   23.1921  -31.0923 H   0  0  0  0  0  0  0  0  0  0  0  0
   -5.0335   22.2543  -31.7392 H   0  0  0  0  0  0  0  0  0  0  0  0
   -5.8284   21.9608  -29.2073 H   0  0  0  0  0  0  0  0  0  0  0  0
   -4.0644   21.9747  -29.6602 H   0  0  0  0  0  0  0  0  0  0  0  0
   -2.7536   21.3621  -27.2118 H   0  0  0  0  0  0  0  0  0  0  0  0
   -1.3902   19.3795  -27.8618 H   0  0  0  0  0  0  0  0  0  0  0  0
    0.7950   19.2090  -30.7990 H   0  0  0  0  0  0  0  0  0  0  0  0
   -2.6838   22.4863  -32.6914 H   0  0  0  0  0  0  0  0  0  0  0  0
   -4.9500   21.5004  -33.0048 H   0  0  0  0  0  0  0  0  0  0  0  0
   -6.6883   21.4585  -32.3397 H   0  0  0  0  0  0  0  0  0  0  0  0
   -7.5598   20.8298  -33.7519 H   0  0  0  0  0  0  0  0  0  0  0  0
   -8.5248   21.2780  -30.9372 H   0  0  0  0  0  0  0  0  0  0  0  0
   -9.4596   21.3094  -32.4348 H   0  0  0  0  0  0  0  0  0  0  0  0
   -9.1706   19.1106  -30.5651 H   0  0  0  0  0  0  0  0  0  0  0  0
  -10.0629   19.0737  -32.0905 H   0  0  0  0  0  0  0  0  0  0  0  0
   -7.7164   17.6333  -31.5792 H   0  0  0  0  0  0  0  0  0  0  0  0
   -8.2819   18.0345  -33.2142 H   0  0  0  0  0  0  0  0  0  0  0  0
   -3.1589   17.6934  -34.0165 H   0  0  0  0  0  0  0  0  0  0  0  0
   -0.8885   18.6763  -33.7132 H   0  0  0  0  0  0  0  0  0  0  0  0
  1  2  2  0
  2  3  1  0
  3  4  1  0
  4  5  2  0
  5  6  1  0
  6  7  1  0
  7  8  2  0
  7  9  2  0
  7 10  1  0
 10 11  1  0
 11 12  1  0
 12 13  1  0
 13 14  1  0
 14 15  1  0
  6 16  2  0
 16 17  1  0
 17 18  2  0
 18 19  1  0
  2 20  1  0
 20 21  2  0
 21 22  1  0
 22 23  2  0
 23 24  1  0
 24 25  2  0
 24 26  2  0
 24 27  1  0
 27 28  1  0
 28 29  1  0
 29 30  1  0
 30 31  1  0
 23 32  1  0
 32 33  2  0
 18  4  1  0
 33 20  1  0
 15 10  1  0
 31 27  1  0
  5 34  1  0
 11 35  1  0
 11 36  1  0
 12 37  1  0
 12 38  1  0
 14 39  1  0
 14 40  1  0
 15 41  1  0
 15 42  1  0
 16 43  1  0
 17 44  1  0
 19 45  1  0
 21 46  1  0
 22 47  1  0
 28 48  1  0
 28 49  1  0
 29 50  1  0
 29 51  1  0
 30 52  1  0
 30 53  1  0
 31 54  1  0
 31 55  1  0
 32 56  1  0
 33 57  1  0
M  CHG  1   3  -1
M  END
>  <UniqueID>  (41) 
41

>  <SMILES>  (41) 
O=C([N-]c1cc(S(=O)(=O)N2CCOCC2)ccc1O)c1ccc(S(=O)(=O)N2CCCC2)cc1

>  <Energy>  (41) 
76.58269944200755

>  <Genealogy>  (41) 
O=C([N-]c1cc(S(=O)(=O)N2CCOCC2)ccc1O)c1ccc(S(=O)(=O)N2CCCC2)cc1 (protonated)
O=C([N-]c1cc(S(=O)(=O)N2CCOCC2)ccc1O)c1ccc(S(=O)(=O)N2CCCC2)cc1 (3D coordinates assigned)
O=C([N-]c1cc(S(=O)(=O)N2CCOCC2)ccc1O)c1ccc(S(=O)(=O)N2CCCC2)cc1 (nonaromatic ring conformer: 76.58269944200755 kcal/mol)

>  <smiles>  (41) 
O=C(Nc1cc(S(=O)(=O)N2CCOCC2)ccc1O)c1ccc(S(=O)(=O)N2CCCC2)cc1

>  <score_type>  (41) 
oracle

>  <origin>  (41) 
adgpu

>  <m_score__min__energy>  (41) 
-12.720000000000001

>  <m_primary>  (41) 
energy

$$$$
41:0
     RDKit          3D

 36 37  0  0  0  0  0  0  0  0999 V2000
   -7.1640   23.6370  -30.1010 C   0  0  0  0  0  0  0  0  0  0  0  0
   -6.2970   24.8350  -29.7350 C   0  0  0  0  0  0  0  0  0  0  0  0
   -4.5740   24.5080  -30.0690 S   0  0  0  0  0  0  0  0  0  0  0  0
   -3.9890   25.6580  -30.8400 O   0  0  0  0  0  0  0  0  0  0  0  0
   -3.8260   24.3720  -28.7710 O   0  0  0  0  0  0  0  0  0  0  0  0
   -4.4130   23.0320  -31.0150 C   0  0  0  0  0  0  0  0  0  0  0  0
   -4.9160   22.9820  -32.3210 C   0  0  0  0  0  0  0  0  0  0  0  0
   -4.8120   21.8080  -33.0720 C   0  0  0  0  0  0  0  0  0  0  0  0
   -4.2100   20.6620  -32.5190 C   0  0  0  0  0  0  0  0  0  0  0  0
   -4.0880   19.4530  -33.2220 O   0  0  0  0  0  0  0  0  0  0  0  0
   -5.1470   18.7860  -33.9100 C   0  0  0  0  0  0  0  0  0  0  0  0
   -6.4540   18.9380  -33.1670 C   0  0  0  0  0  0  0  0  0  0  0  0
   -7.3010   20.0200  -33.4710 C   0  0  0  0  0  0  0  0  0  0  0  0
   -8.5140   20.1830  -32.7970 C   0  0  0  0  0  0  0  0  0  0  0  0
   -8.9000   19.2660  -31.8190 C   0  0  0  0  0  0  0  0  0  0  0  0
   -8.0790   18.1790  -31.5150 C   0  0  0  0  0  0  0  0  0  0  0  0
   -6.8590   18.0030  -32.1850 C   0  0  0  0  0  0  0  0  0  0  0  0
   -6.0440   16.8600  -31.8520 C   0  0  0  0  0  0  0  0  0  0  0  0
   -5.3910   15.9420  -31.5840 N   0  0  0  0  0  0  0  0  0  0  0  0
   -3.7070   20.7200  -31.2130 C   0  0  0  0  0  0  0  0  0  0  0  0
   -3.8110   21.8940  -30.4630 C   0  0  0  0  0  0  0  0  0  0  0  0
   -7.5187   23.1468  -29.1824 H   0  0  0  0  0  0  0  0  0  0  0  0
   -8.0272   23.9761  -30.6924 H   0  0  0  0  0  0  0  0  0  0  0  0
   -6.5720   22.9230  -30.6924 H   0  0  0  0  0  0  0  0  0  0  0  0
   -6.6186   25.7051  -30.3261 H   0  0  0  0  0  0  0  0  0  0  0  0
   -6.4125   25.0341  -28.6593 H   0  0  0  0  0  0  0  0  0  0  0  0
   -5.3951   23.8707  -32.7577 H   0  0  0  0  0  0  0  0  0  0  0  0
   -5.2024   21.7793  -34.1000 H   0  0  0  0  0  0  0  0  0  0  0  0
   -5.2521   19.2193  -34.9156 H   0  0  0  0  0  0  0  0  0  0  0  0
   -4.9032   17.7154  -33.9760 H   0  0  0  0  0  0  0  0  0  0  0  0
   -7.0057   20.7432  -34.2455 H   0  0  0  0  0  0  0  0  0  0  0  0
   -9.1657   21.0358  -33.0379 H   0  0  0  0  0  0  0  0  0  0  0  0
   -9.8532   19.3999  -31.2865 H   0  0  0  0  0  0  0  0  0  0  0  0
   -8.3901   17.4565  -30.7461 H   0  0  0  0  0  0  0  0  0  0  0  0
   -3.2259   19.8335  -30.7741 H   0  0  0  0  0  0  0  0  0  0  0  0
   -3.4189   21.9249  -29.4357 H   0  0  0  0  0  0  0  0  0  0  0  0
  1  2  1  0
  2  3  1  0
  3  4  2  0
  3  5  2  0
  3  6  1  0
  6  7  2  0
  7  8  1  0
  8  9  2  0
  9 10  1  0
 10 11  1  0
 11 12  1  0
 12 13  2  0
 13 14  1  0
 14 15  2  0
 15 16  1  0
 16 17  2  0
 17 18  1  0
 18 19  3  0
  9 20  1  0
 20 21  2  0
 21  6  1  0
 17 12  1  0
  1 22  1  0
  1 23  1  0
  1 24  1  0
  2 25  1  0
  2 26  1  0
  7 27  1  0
  8 28  1  0
 11 29  1  0
 11 30  1  0
 13 31  1  0
 14 32  1  0
 15 33  1  0
 16 34  1  0
 20 35  1  0
 21 36  1  0
M  END
>  <UniqueID>  (42) 
42

>  <SMILES>  (42) 
CCS(=O)(=O)c1ccc(OCc2ccccc2C#N)cc1

>  <Energy>  (42) 
30.99999812254154

>  <Genealogy>  (42) 
CCS(=O)(=O)c1ccc(OCc2ccccc2C#N)cc1 (3D coordinates assigned)
CCS(=O)(=O)c1ccc(OCc2ccccc2C#N)cc1 (optimized conformer: 30.99999812254154 kcal/mol)

>  <smiles>  (42) 
CCS(=O)(=O)c1ccc(OCc2ccccc2C#N)cc1

>  <score_type>  (42) 
oracle

>  <origin>  (42) 
adgpu

>  <m_score__min__energy>  (42) 
-8.2400000000000002

>  <m_primary>  (42) 
energy

$$$$
42:0
     RDKit          3D

 51 54  0  0  0  0  0  0  0  0999 V2000
   -2.9030   25.3030  -27.0350 O   0  0  0  0  0  0  0  0  0  0  0  0
   -2.0150   25.0900  -27.9010 C   0  0  0  0  0  0  0  0  0  0  0  0
   -2.3540   25.2270  -29.2870 N   0  0  0  0  0  0  0  0  0  0  0  0
   -3.4580   24.5970  -29.9570 C   0  0  0  0  0  0  0  0  0  0  0  0
   -4.6870   25.2660  -30.1000 C   0  0  0  0  0  0  0  0  0  0  0  0
   -5.7660   24.6410  -30.7260 C   0  0  0  0  0  0  0  0  0  0  0  0
   -5.6250   23.3510  -31.2390 C   0  0  0  0  0  0  0  0  0  0  0  0
   -4.4020   22.6870  -31.1330 C   0  0  0  0  0  0  0  0  0  0  0  0
   -3.3070   23.2990  -30.4960 C   0  0  0  0  0  0  0  0  0  0  0  0
   -2.0210   22.5630  -30.3880 C   0  0  0  0  0  0  0  0  0  0  0  0
   -1.3990   22.5550  -29.2930 O   0  0  0  0  0  0  0  0  0  0  0  0
   -1.4360   21.9090  -31.5210 N   0  0  0  0  0  0  0  0  0  0  0  0
   -2.0410   20.8220  -32.2330 C   0  0  0  0  0  0  0  0  0  0  0  0
   -3.0200   21.0920  -33.1960 C   0  0  0  0  0  0  0  0  0  0  0  0
   -3.6880   20.0420  -33.8330 C   0  0  0  0  0  0  0  0  0  0  0  0
   -3.3680   18.7120  -33.5250 C   0  0  0  0  0  0  0  0  0  0  0  0
   -4.2940   17.3890  -34.2300 S   0  0  0  0  0  0  0  0  0  0  0  0
   -3.7880   16.0840  -33.6820 O   0  0  0  0  0  0  0  0  0  0  0  0
   -4.0750   17.3780  -35.7180 O   0  0  0  0  0  0  0  0  0  0  0  0
   -6.0090   17.5360  -33.9000 N   0  0  0  0  0  0  0  0  0  0  0  0
   -6.4320   16.7420  -32.7300 C   0  0  0  0  0  0  0  0  0  0  0  0
   -6.2010   17.4670  -31.3820 C   0  0  0  0  0  0  0  0  0  0  0  0
   -5.7910   18.8110  -31.5350 O   0  0  0  0  0  0  0  0  0  0  0  0
   -6.6600   19.4700  -32.4270 C   0  0  0  0  0  0  0  0  0  0  0  0
   -6.4640   18.9420  -33.8580 C   0  0  0  0  0  0  0  0  0  0  0  0
   -2.3380   18.4420  -32.6140 C   0  0  0  0  0  0  0  0  0  0  0  0
   -1.6780   19.4900  -31.9720 C   0  0  0  0  0  0  0  0  0  0  0  0
   -0.6470   24.7720  -27.4520 C   0  0  0  0  0  0  0  0  0  0  0  0
   -0.2720   24.2870  -26.2120 C   0  0  0  0  0  0  0  0  0  0  0  0
    1.0950   24.1270  -26.2700 C   0  0  0  0  0  0  0  0  0  0  0  0
    1.4710   24.5160  -27.5410 C   0  0  0  0  0  0  0  0  0  0  0  0
    0.4120   24.8910  -28.2200 O   0  0  0  0  0  0  0  0  0  0  0  0
   -4.7984   26.2904  -29.7151 H   0  0  0  0  0  0  0  0  0  0  0  0
   -6.7287   25.1656  -30.8152 H   0  0  0  0  0  0  0  0  0  0  0  0
   -6.4781   22.8572  -31.7272 H   0  0  0  0  0  0  0  0  0  0  0  0
   -4.2932   21.6755  -31.5515 H   0  0  0  0  0  0  0  0  0  0  0  0
   -3.2646   22.1334  -33.4524 H   0  0  0  0  0  0  0  0  0  0  0  0
   -4.4672   20.2599  -34.5783 H   0  0  0  0  0  0  0  0  0  0  0  0
   -7.5050   16.5205  -32.8279 H   0  0  0  0  0  0  0  0  0  0  0  0
   -5.8195   15.8284  -32.7177 H   0  0  0  0  0  0  0  0  0  0  0  0
   -7.1411   17.4512  -30.8111 H   0  0  0  0  0  0  0  0  0  0  0  0
   -5.3913   16.9359  -30.8601 H   0  0  0  0  0  0  0  0  0  0  0  0
   -7.7002   19.2941  -32.1155 H   0  0  0  0  0  0  0  0  0  0  0  0
   -6.4366   20.5470  -32.4112 H   0  0  0  0  0  0  0  0  0  0  0  0
   -7.4224   19.0160  -34.3928 H   0  0  0  0  0  0  0  0  0  0  0  0
   -5.6811   19.5544  -34.3293 H   0  0  0  0  0  0  0  0  0  0  0  0
   -2.0493   17.4014  -32.4047 H   0  0  0  0  0  0  0  0  0  0  0  0
   -0.8698   19.2726  -31.2582 H   0  0  0  0  0  0  0  0  0  0  0  0
   -0.9295   24.0733  -25.3564 H   0  0  0  0  0  0  0  0  0  0  0  0
    1.7534   23.7634  -25.4673 H   0  0  0  0  0  0  0  0  0  0  0  0
    2.5015   24.5121  -27.9258 H   0  0  0  0  0  0  0  0  0  0  0  0
  1  2  2  0
  2  3  1  0
  3  4  1  0
  4  5  2  0
  5  6  1  0
  6  7  2  0
  7  8  1  0
  8  9  2  0
  9 10  1  0
 10 11  2  0
 10 12  1  0
 12 13  1  0
 13 14  2  0
 14 15  1  0
 15 16  2  0
 16 17  1  0
 17 18  2  0
 17 19  2  0
 17 20  1  0
 20 21  1  0
 21 22  1  0
 22 23  1  0
 23 24  1  0
 24 25  1  0
 16 26  1  0
 26 27  2  0
  2 28  1  0
 28 29  2  0
 29 30  1  0
 30 31  2  0
 31 32  1  0
  9  4  1  0
 27 13  1  0
 32 28  1  0
 25 20  1  0
  5 33  1  0
  6 34  1  0
  7 35  1  0
  8 36  1  0
 14 37  1  0
 15 38  1  0
 21 39  1  0
 21 40  1  0
 22 41  1  0
 22 42  1  0
 24 43  1  0
 24 44  1  0
 25 45  1  0
 25 46  1  0
 26 47  1  0
 27 48  1  0
 29 49  1  0
 30 50  1  0
 31 51  1  0
M  CHG  2   3  -1  12  -1
M  END
>  <UniqueID>  (43) 
43

>  <SMILES>  (43) 
O=C([N-]c1ccccc1C(=O)[N-]c1ccc(S(=O)(=O)N2CCOCC2)cc1)c1ccco1

>  <Energy>  (43) 
102.46343559725375

>  <Genealogy>  (43) 
O=C([N-]c1ccccc1C(=O)[N-]c1ccc(S(=O)(=O)N2CCOCC2)cc1)c1ccco1 (protonated)
O=C([N-]c1ccccc1C(=O)[N-]c1ccc(S(=O)(=O)N2CCOCC2)cc1)c1ccco1 (3D coordinates assigned)
O=C([N-]c1ccccc1C(=O)[N-]c1ccc(S(=O)(=O)N2CCOCC2)cc1)c1ccco1 (nonaromatic ring conformer: 102.46343559725375 kcal/mol)

>  <smiles>  (43) 
O=C(Nc1ccccc1C(=O)Nc1ccc(S(=O)(=O)N2CCOCC2)cc1)c1ccco1

>  <score_type>  (43) 
oracle

>  <origin>  (43) 
adgpu

>  <m_score__min__energy>  (43) 
-12.140000000000001

>  <m_primary>  (43) 
energy

$$$$
43:0
     RDKit          3D

 40 43  0  0  0  0  0  0  0  0999 V2000
   -8.2610   18.2340  -31.9680 C   0  0  0  0  0  0  0  0  0  0  0  0
   -7.9620   19.6990  -31.9330 C   0  0  0  0  0  0  0  0  0  0  0  0
   -8.7610   20.5910  -31.2210 C   0  0  0  0  0  0  0  0  0  0  0  0
   -8.4490   21.9540  -31.2120 C   0  0  0  0  0  0  0  0  0  0  0  0
   -7.3400   22.3710  -31.9210 C   0  0  0  0  0  0  0  0  0  0  0  0
   -6.9060   23.7920  -31.9890 C   0  0  0  0  0  0  0  0  0  0  0  0
   -5.7010   24.0250  -31.2250 N   0  0  0  0  0  0  0  0  0  0  0  0
   -5.0630   23.1770  -30.4050 C   0  0  0  0  0  0  0  0  0  0  0  0
   -3.9770   23.8800  -29.9250 C   0  0  0  0  0  0  0  0  0  0  0  0
   -2.9220   23.4200  -28.9730 C   0  0  0  0  0  0  0  0  0  0  0  0
   -2.9150   24.2460  -27.7840 N   0  0  0  0  0  0  0  0  0  0  0  0
   -3.8740   24.4380  -26.8710 C   0  0  0  0  0  0  0  0  0  0  0  0
   -3.4100   25.3030  -25.9280 N   0  0  0  0  0  0  0  0  0  0  0  0
   -2.1660   25.6630  -26.2330 C   0  0  0  0  0  0  0  0  0  0  0  0
   -1.1860   26.4780  -25.7050 C   0  0  0  0  0  0  0  0  0  0  0  0
   -1.4270   27.1160  -24.6230 N   0  0  0  0  0  0  0  0  0  0  0  0
    0.0210   26.6380  -26.2740 N   0  0  0  0  0  0  0  0  0  0  0  0
    0.2760   25.9720  -27.4060 C   0  0  0  0  0  0  0  0  0  0  0  0
   -0.6480   25.1660  -27.9590 N   0  0  0  0  0  0  0  0  0  0  0  0
   -1.8610   24.9890  -27.4100 C   0  0  0  0  0  0  0  0  0  0  0  0
   -3.9710   25.1190  -30.4500 N   0  0  0  0  0  0  0  0  0  0  0  0
   -5.0330   25.1630  -31.2300 N   0  0  0  0  0  0  0  0  0  0  0  0
   -6.5520   21.4600  -32.6300 C   0  0  0  0  0  0  0  0  0  0  0  0
   -6.8520   20.1120  -32.6440 C   0  0  0  0  0  0  0  0  0  0  0  0
   -8.3392   17.8511  -30.9398 H   0  0  0  0  0  0  0  0  0  0  0  0
   -9.2119   18.0663  -32.4950 H   0  0  0  0  0  0  0  0  0  0  0  0
   -7.4519   17.7071  -32.4950 H   0  0  0  0  0  0  0  0  0  0  0  0
   -9.6368   20.2232  -30.6662 H   0  0  0  0  0  0  0  0  0  0  0  0
   -9.0689   22.6730  -30.6563 H   0  0  0  0  0  0  0  0  0  0  0  0
   -6.7174   24.0563  -33.0400 H   0  0  0  0  0  0  0  0  0  0  0  0
   -7.7063   24.4136  -31.5612 H   0  0  0  0  0  0  0  0  0  0  0  0
   -5.3454   22.1411  -30.1659 H   0  0  0  0  0  0  0  0  0  0  0  0
   -3.1223   22.3768  -28.6875 H   0  0  0  0  0  0  0  0  0  0  0  0
   -1.9413   23.4976  -29.4651 H   0  0  0  0  0  0  0  0  0  0  0  0
   -4.8713   23.9741  -26.8808 H   0  0  0  0  0  0  0  0  0  0  0  0
   -2.3220   27.0740  -24.0890 H   0  0  0  0  0  0  0  0  0  0  0  0
    0.7710   27.2600  -25.8730 H   0  0  0  0  0  0  0  0  0  0  0  0
    1.2563   26.0853  -27.8919 H   0  0  0  0  0  0  0  0  0  0  0  0
   -5.6762   21.8236  -33.1875 H   0  0  0  0  0  0  0  0  0  0  0  0
   -6.2307   19.3945  -33.2001 H   0  0  0  0  0  0  0  0  0  0  0  0
  1  2  1  0
  2  3  2  0
  3  4  1  0
  4  5  2  0
  5  6  1  0
  6  7  1  0
  7  8  1  0
  8  9  2  0
  9 10  1  0
 10 11  1  0
 11 12  1  0
 12 13  2  0
 13 14  1  0
 14 15  1  0
 15 16  2  3
 15 17  1  0
 17 18  1  0
 18 19  2  0
 19 20  1  0
  9 21  1  0
 21 22  2  0
  5 23  1  0
 23 24  2  0
 24  2  1  0
 22  7  1  0
 20 11  1  0
 20 14  2  0
  1 25  1  0
  1 26  1  0
  1 27  1  0
  3 28  1  0
  4 29  1  0
  6 30  1  0
  6 31  1  0
  8 32  1  0
 10 33  1  0
 10 34  1  0
 12 35  1  0
 16 36  1  0
 17 37  1  0
 18 38  1  0
 23 39  1  0
 24 40  1  0
M  END
>  <smiles>  (44) 
Cc1ccc(Cn2cc(Cn3cnc4c(=N)[nH]cnc43)nn2)cc1

>  <score_type>  (44) 
oracle

>  <origin>  (44) 
adgpu

>  <m_score__min__energy>  (44) 
-9.3399999999999999

>  <m_primary>  (44) 
energy

$$$$
44:0
     RDKit          3D

 46 48  0  0  0  0  0  0  0  0999 V2000
   -2.2680   20.7000  -27.8090 C   0  0  0  0  0  0  0  0  0  0  0  0
   -1.9860   22.1100  -28.2350 C   0  0  0  0  0  0  0  0  0  0  0  0
   -0.8770   22.7970  -27.7220 C   0  0  0  0  0  0  0  0  0  0  0  0
   -0.6380   24.1220  -28.0940 C   0  0  0  0  0  0  0  0  0  0  0  0
   -1.5030   24.7730  -28.9790 C   0  0  0  0  0  0  0  0  0  0  0  0
   -1.2350   26.0880  -29.3430 O   0  0  0  0  0  0  0  0  0  0  0  0
   -2.6240   24.1010  -29.5000 C   0  0  0  0  0  0  0  0  0  0  0  0
   -3.5040   24.7760  -30.4160 N   0  0  0  0  0  0  0  0  0  0  0  0
   -5.2110   24.9360  -30.1460 S   0  0  0  0  0  0  0  0  0  0  0  0
   -5.4820   24.9580  -28.6670 O   0  0  0  0  0  0  0  0  0  0  0  0
   -5.6920   26.2280  -30.7430 O   0  0  0  0  0  0  0  0  0  0  0  0
   -6.0590   23.6030  -30.9240 C   0  0  0  0  0  0  0  0  0  0  0  0
   -7.4530   23.6480  -31.0460 C   0  0  0  0  0  0  0  0  0  0  0  0
   -8.1360   22.6150  -31.6920 C   0  0  0  0  0  0  0  0  0  0  0  0
   -7.4280   21.5350  -32.2300 C   0  0  0  0  0  0  0  0  0  0  0  0
   -6.0320   21.4880  -32.1250 C   0  0  0  0  0  0  0  0  0  0  0  0
   -5.1440   20.1250  -32.8040 S   0  0  0  0  0  0  0  0  0  0  0  0
   -4.3840   19.4200  -31.7140 O   0  0  0  0  0  0  0  0  0  0  0  0
   -4.1600   20.6430  -33.8150 O   0  0  0  0  0  0  0  0  0  0  0  0
   -6.2510   19.0170  -33.5770 N   0  0  0  0  0  0  0  0  0  0  0  0
   -6.6510   17.9610  -32.6280 C   0  0  0  0  0  0  0  0  0  0  0  0
   -7.1820   16.7290  -33.3800 C   0  0  0  0  0  0  0  0  0  0  0  0
   -6.2420   16.1400  -34.2700 O   0  0  0  0  0  0  0  0  0  0  0  0
   -5.2060   17.0220  -34.6760 C   0  0  0  0  0  0  0  0  0  0  0  0
   -5.6770   18.4790  -34.8310 C   0  0  0  0  0  0  0  0  0  0  0  0
   -5.3510   22.5180  -31.4620 C   0  0  0  0  0  0  0  0  0  0  0  0
   -2.8680   22.7740  -29.1000 C   0  0  0  0  0  0  0  0  0  0  0  0
   -2.2792   20.6441  -26.7105 H   0  0  0  0  0  0  0  0  0  0  0  0
   -3.2465   20.3870  -28.2020 H   0  0  0  0  0  0  0  0  0  0  0  0
   -1.4851   20.0347  -28.2020 H   0  0  0  0  0  0  0  0  0  0  0  0
   -0.1931   22.2912  -27.0245 H   0  0  0  0  0  0  0  0  0  0  0  0
    0.2345   24.6556  -27.6890 H   0  0  0  0  0  0  0  0  0  0  0  0
   -3.1490   25.0580  -31.3570 H   0  0  0  0  0  0  0  0  0  0  0  0
   -8.0123   24.4998  -30.6317 H   0  0  0  0  0  0  0  0  0  0  0  0
   -9.2321   22.6507  -31.7778 H   0  0  0  0  0  0  0  0  0  0  0  0
   -7.9684   20.7215  -32.7362 H   0  0  0  0  0  0  0  0  0  0  0  0
   -5.7790   17.6681  -32.0248 H   0  0  0  0  0  0  0  0  0  0  0  0
   -7.4491   18.3513  -31.9794 H   0  0  0  0  0  0  0  0  0  0  0  0
   -7.4759   15.9720  -32.6380 H   0  0  0  0  0  0  0  0  0  0  0  0
   -8.0268   17.0734  -33.9946 H   0  0  0  0  0  0  0  0  0  0  0  0
   -4.4054   16.9916  -33.9222 H   0  0  0  0  0  0  0  0  0  0  0  0
   -4.8569   16.6843  -35.6630 H   0  0  0  0  0  0  0  0  0  0  0  0
   -4.8172   19.1002  -35.1223 H   0  0  0  0  0  0  0  0  0  0  0  0
   -6.4641   18.4998  -35.5991 H   0  0  0  0  0  0  0  0  0  0  0  0
   -4.2563   22.4754  -31.3630 H   0  0  0  0  0  0  0  0  0  0  0  0
   -3.7619   22.2509  -29.4705 H   0  0  0  0  0  0  0  0  0  0  0  0
  1  2  1  0
  2  3  2  0
  3  4  1  0
  4  5  2  0
  5  6  1  0
  5  7  1  0
  7  8  1  0
  8  9  1  0
  9 10  2  0
  9 11  2  0
  9 12  1  0
 12 13  2  0
 13 14  1  0
 14 15  2  0
 15 16  1  0
 16 17  1  0
 17 18  2  0
 17 19  2  0
 17 20  1  0
 20 21  1  0
 21 22  1  0
 22 23  1  0
 23 24  1  0
 24 25  1  0
 16 26  2  0
  7 27  2  0
 27  2  1  0
 26 12  1  0
 25 20  1  0
  1 28  1  0
  1 29  1  0
  1 30  1  0
  3 31  1  0
  4 32  1  0
  8 33  1  0
 13 34  1  0
 14 35  1  0
 15 36  1  0
 21 37  1  0
 21 38  1  0
 22 39  1  0
 22 40  1  0
 24 41  1  0
 24 42  1  0
 25 43  1  0
 25 44  1  0
 26 45  1  0
 27 46  1  0
M  CHG  1   6  -1
M  END
>  <UniqueID>  (45) 
44

>  <SMILES>  (45) 
Cc1ccc([O-])c(NS(=O)(=O)c2cccc(S(=O)(=O)N3CCOCC3)c2)c1

>  <Energy>  (45) 
61.45126072236484

>  <Genealogy>  (45) 
Cc1ccc([O-])c(NS(=O)(=O)c2cccc(S(=O)(=O)N3CCOCC3)c2)c1 (protonated)
Cc1ccc([O-])c(NS(=O)(=O)c2cccc(S(=O)(=O)N3CCOCC3)c2)c1 (3D coordinates assigned)
Cc1ccc([O-])c(NS(=O)(=O)c2cccc(S(=O)(=O)N3CCOCC3)c2)c1 (nonaromatic ring conformer: 61.45126072236484 kcal/mol)

>  <smiles>  (45) 
Cc1ccc(O)c(NS(=O)(=O)c2cccc(S(=O)(=O)N3CCOCC3)c2)c1

>  <score_type>  (45) 
oracle

>  <origin>  (45) 
adgpu

>  <m_score__min__energy>  (45) 
-13.17

>  <m_primary>  (45) 
energy

$$$$
45:0
     RDKit          3D

 50 53  0  0  0  0  0  0  0  0999 V2000
   -3.1720   21.5290  -31.8150 O   0  0  0  0  0  0  0  0  0  0  0  0
   -2.0450   21.1580  -31.3880 C   0  0  0  0  0  0  0  0  0  0  0  0
   -1.3690   20.0430  -31.9930 N   0  0  0  0  0  0  0  0  0  0  0  0
   -2.0030   19.1030  -32.8790 C   0  0  0  0  0  0  0  0  0  0  0  0
   -1.2190   18.1510  -33.5460 C   0  0  0  0  0  0  0  0  0  0  0  0
   -1.8130   17.2140  -34.3940 C   0  0  0  0  0  0  0  0  0  0  0  0
   -3.1980   17.2060  -34.5690 C   0  0  0  0  0  0  0  0  0  0  0  0
   -4.0000   18.1300  -33.8850 C   0  0  0  0  0  0  0  0  0  0  0  0
   -5.7560   18.0910  -34.0700 S   0  0  0  0  0  0  0  0  0  0  0  0
   -6.1860   16.6930  -34.4190 O   0  0  0  0  0  0  0  0  0  0  0  0
   -6.1550   18.9960  -35.2020 O   0  0  0  0  0  0  0  0  0  0  0  0
   -6.5670   18.5950  -32.6040 N   0  0  0  0  0  0  0  0  0  0  0  0
   -7.9790   18.1510  -32.6190 C   0  0  0  0  0  0  0  0  0  0  0  0
   -8.8130   18.9080  -31.5820 C   0  0  0  0  0  0  0  0  0  0  0  0
   -8.8410   20.4160  -31.8900 C   0  0  0  0  0  0  0  0  0  0  0  0
   -7.6110   20.8850  -32.6870 C   0  0  0  0  0  0  0  0  0  0  0  0
   -6.3740   20.0430  -32.3430 C   0  0  0  0  0  0  0  0  0  0  0  0
   -3.3990   19.0760  -33.0420 C   0  0  0  0  0  0  0  0  0  0  0  0
   -1.4070   21.9040  -30.2920 C   0  0  0  0  0  0  0  0  0  0  0  0
   -2.0210   22.8340  -29.4790 C   0  0  0  0  0  0  0  0  0  0  0  0
   -1.0210   23.2300  -28.6070 C   0  0  0  0  0  0  0  0  0  0  0  0
   -1.1350   24.1950  -27.4870 C   0  0  0  0  0  0  0  0  0  0  0  0
   -0.9160   23.7420  -26.1730 C   0  0  0  0  0  0  0  0  0  0  0  0
   -1.0260   24.6190  -25.0900 C   0  0  0  0  0  0  0  0  0  0  0  0
   -1.3470   25.9600  -25.3040 C   0  0  0  0  0  0  0  0  0  0  0  0
   -1.5510   26.4290  -26.6030 C   0  0  0  0  0  0  0  0  0  0  0  0
   -1.4390   25.5610  -27.6950 C   0  0  0  0  0  0  0  0  0  0  0  0
   -1.6070   26.0750  -28.9750 O   0  0  0  0  0  0  0  0  0  0  0  0
    0.1110   22.5530  -28.8930 N   0  0  0  0  0  0  0  0  0  0  0  0
   -0.1230   21.7500  -29.9190 N   0  0  0  0  0  0  0  0  0  0  0  0
   -0.3380   19.9570  -31.8480 H   0  0  0  0  0  0  0  0  0  0  0  0
   -0.1287   18.1422  -33.4003 H   0  0  0  0  0  0  0  0  0  0  0  0
   -1.1884   16.4807  -34.9252 H   0  0  0  0  0  0  0  0  0  0  0  0
   -3.6612   16.4726  -35.2455 H   0  0  0  0  0  0  0  0  0  0  0  0
   -8.4006   18.3320  -33.6187 H   0  0  0  0  0  0  0  0  0  0  0  0
   -8.0079   17.0796  -32.3716 H   0  0  0  0  0  0  0  0  0  0  0  0
   -9.8419   18.5192  -31.5948 H   0  0  0  0  0  0  0  0  0  0  0  0
   -8.3575   18.7613  -30.5915 H   0  0  0  0  0  0  0  0  0  0  0  0
   -9.7451   20.6383  -32.4759 H   0  0  0  0  0  0  0  0  0  0  0  0
   -8.8360   20.9504  -30.9286 H   0  0  0  0  0  0  0  0  0  0  0  0
   -7.8223   20.7899  -33.7623 H   0  0  0  0  0  0  0  0  0  0  0  0
   -7.4038   21.9329  -32.4243 H   0  0  0  0  0  0  0  0  0  0  0  0
   -5.5281   20.3988  -32.9496 H   0  0  0  0  0  0  0  0  0  0  0  0
   -6.1852   20.1607  -31.2657 H   0  0  0  0  0  0  0  0  0  0  0  0
   -4.0252   19.8029  -32.5039 H   0  0  0  0  0  0  0  0  0  0  0  0
   -3.0642   23.1809  -29.5151 H   0  0  0  0  0  0  0  0  0  0  0  0
   -0.6558   22.6879  -25.9963 H   0  0  0  0  0  0  0  0  0  0  0  0
   -0.8591   24.2512  -24.0668 H   0  0  0  0  0  0  0  0  0  0  0  0
   -1.4392   26.6470  -24.4499 H   0  0  0  0  0  0  0  0  0  0  0  0
   -1.8013   27.4872  -26.7692 H   0  0  0  0  0  0  0  0  0  0  0  0
  1  2  2  0
  2  3  1  0
  3  4  1  0
  4  5  2  0
  5  6  1  0
  6  7  2  0
  7  8  1  0
  8  9  1  0
  9 10  2  0
  9 11  2  0
  9 12  1  0
 12 13  1  0
 13 14  1  0
 14 15  1  0
 15 16  1  0
 16 17  1  0
  8 18  2  0
  2 19  1  0
 19 20  1  0
 20 21  2  0
 21 22  1  0
 22 23  2  0
 23 24  1  0
 24 25  2  0
 25 26  1  0
 26 27  2  0
 27 28  1  0
 21 29  1  0
 29 30  1  0
 18  4  1  0
 30 19  2  0
 17 12  1  0
 27 22  1  0
  3 31  1  0
  5 32  1  0
  6 33  1  0
  7 34  1  0
 13 35  1  0
 13 36  1  0
 14 37  1  0
 14 38  1  0
 15 39  1  0
 15 40  1  0
 16 41  1  0
 16 42  1  0
 17 43  1  0
 17 44  1  0
 18 45  1  0
 20 46  1  0
 23 47  1  0
 24 48  1  0
 25 49  1  0
 26 50  1  0
M  CHG  2  28  -1  29  -1
M  END
>  <UniqueID>  (46) 
45

>  <SMILES>  (46) 
O=C(Nc1cccc(S(=O)(=O)N2CCCCC2)c1)c1cc(-c2ccccc2[O-])[n-]n1

>  <Energy>  (46) 
93.98066120438816

>  <Genealogy>  (46) 
O=C(Nc1cccc(S(=O)(=O)N2CCCCC2)c1)c1cc(-c2ccccc2[O-])[n-]n1 (protonated)
O=C(Nc1cccc(S(=O)(=O)N2CCCCC2)c1)c1cc(-c2ccccc2[O-])[n-]n1 (3D coordinates assigned)
O=C(Nc1cccc(S(=O)(=O)N2CCCCC2)c1)c1cc(-c2ccccc2[O-])[n-]n1 (nonaromatic ring conformer: 93.98066120438816 kcal/mol)

>  <smiles>  (46) 
O=C(Nc1cccc(S(=O)(=O)N2CCCCC2)c1)c1cc(-c2ccccc2O)[nH]n1

>  <score_type>  (46) 
oracle

>  <origin>  (46) 
adgpu

>  <m_score__min__energy>  (46) 
-14.6

>  <m_primary>  (46) 
energy

$$$$
46:0
     RDKit          3D

 34 35  0  0  0  0  0  0  0  0999 V2000
   -7.4016   15.4827  -33.4840 H   0  0  0  0  0  0  0  0  0  0  0  0
   -6.8710   16.4460  -33.4640 C   0  0  0  0  0  0  0  0  0  0  0  0
   -7.2530   17.4350  -32.5550 C   0  0  0  0  0  0  0  0  0  0  0  0
   -8.0862   17.2507  -31.8608 H   0  0  0  0  0  0  0  0  0  0  0  0
   -6.5780   18.6590  -32.5260 C   0  0  0  0  0  0  0  0  0  0  0  0
   -6.8867   19.4361  -31.8113 H   0  0  0  0  0  0  0  0  0  0  0  0
   -5.5060   18.9040  -33.4050 C   0  0  0  0  0  0  0  0  0  0  0  0
   -4.7850   20.2000  -33.3610 C   0  0  0  0  0  0  0  0  0  0  0  0
   -3.6360   20.2950  -33.8700 O   0  0  0  0  0  0  0  0  0  0  0  0
   -5.3220   21.3330  -32.6640 N   0  0  0  0  0  0  0  0  0  0  0  0
   -4.7370   22.1710  -31.8430 C   0  0  0  0  0  0  0  0  0  0  0  0
   -3.4450   21.9630  -31.2670 C   0  0  0  0  0  0  0  0  0  0  0  0
   -2.7870   20.5980  -31.2140 C   0  0  0  0  0  0  0  0  0  0  0  0
   -2.6436   20.3006  -30.1647 H   0  0  0  0  0  0  0  0  0  0  0  0
   -3.4291   19.8616  -31.7194 H   0  0  0  0  0  0  0  0  0  0  0  0
   -1.8110   20.6416  -31.7194 H   0  0  0  0  0  0  0  0  0  0  0  0
   -2.8140   23.0570  -30.6190 C   0  0  0  0  0  0  0  0  0  0  0  0
   -1.3930   22.9600  -30.1130 C   0  0  0  0  0  0  0  0  0  0  0  0
   -1.3947   22.9601  -29.0130 H   0  0  0  0  0  0  0  0  0  0  0  0
   -0.9363   22.0286  -30.4789 H   0  0  0  0  0  0  0  0  0  0  0  0
   -0.8139   23.8207  -30.4789 H   0  0  0  0  0  0  0  0  0  0  0  0
   -3.5450   24.2320  -30.3800 C   0  0  0  0  0  0  0  0  0  0  0  0
   -2.9640   25.2960  -29.6940 O   0  0  0  0  0  0  0  0  0  0  0  0
   -4.8680   24.3290  -30.8200 C   0  0  0  0  0  0  0  0  0  0  0  0
   -5.6590   25.5830  -30.5690 C   0  0  0  0  0  0  0  0  0  0  0  0
   -5.7595   25.7424  -29.4853 H   0  0  0  0  0  0  0  0  0  0  0  0
   -5.1384   26.4412  -31.0191 H   0  0  0  0  0  0  0  0  0  0  0  0
   -6.6577   25.4828  -31.0191 H   0  0  0  0  0  0  0  0  0  0  0  0
   -5.4150   23.3160  -31.5450 N   0  0  0  0  0  0  0  0  0  0  0  0
   -6.3810   23.4380  -31.9280 H   0  0  0  0  0  0  0  0  0  0  0  0
   -5.1370   17.9020  -34.3220 C   0  0  0  0  0  0  0  0  0  0  0  0
   -4.3090   18.0815  -35.0236 H   0  0  0  0  0  0  0  0  0  0  0  0
   -5.8160   16.6800  -34.3470 C   0  0  0  0  0  0  0  0  0  0  0  0
   -5.5179   15.9012  -35.0644 H   0  0  0  0  0  0  0  0  0  0  0  0
  1  2  1  0
  2  3  2  0
  3  4  1  0
  3  5  1  0
  5  6  1  0
  5  7  2  0
  7  8  1  0
  8  9  2  0
  8 10  1  0
 10 11  2  0
 11 12  1  0
 12 13  1  0
 13 14  1  0
 13 15  1  0
 13 16  1  0
 12 17  2  0
 17 18  1  0
 18 19  1  0
 18 20  1  0
 18 21  1  0
 17 22  1  0
 22 23  1  0
 22 24  2  0
 24 25  1  0
 25 26  1  0
 25 27  1  0
 25 28  1  0
 24 29  1  0
 29 30  1  0
  7 31  1  0
 31 32  1  0
 31 33  2  0
 33 34  1  0
 33  2  1  0
 29 11  1  0
M  CHG  1  23  -1
M  END
>  <UniqueID>  (47) 
46

>  <SMILES>  (47) 
Cc1[nH]/c(=N/C(=O)c2ccccc2)c(C)c(C)c1[O-]

>  <Energy>  (47) 
56.42257389474432

>  <Genealogy>  (47) 
Cc1[nH]c(=NC(=O)c2ccccc2)c(C)c(C)c1[O-] (protonated)
Cc1[nH]/c(=N/C(=O)c2ccccc2)c(C)c(C)c1[O-] (cis-trans isomerization)
Cc1[nH]/c(=N/C(=O)c2ccccc2)c(C)c(C)c1[O-] (3D coordinates assigned)
Cc1[nH]/c(=N/C(=O)c2ccccc2)c(C)c(C)c1[O-] (optimized conformer: 56.42257389474432 kcal/mol)

>  <smiles>  (47) 
Cc1[nH]c(=NC(=O)c2ccccc2)c(C)c(C)c1O

>  <score_type>  (47) 
oracle

>  <origin>  (47) 
adgpu

>  <m_score__min__energy>  (47) 
-9.75

>  <m_primary>  (47) 
energy

$$$$
47:0
     RDKit          3D

 60 64  0  0  1  0  0  0  0  0999 V2000
   -2.6650   13.4970  -33.6930 C   0  0  0  0  0  0  0  0  0  0  0  0
   -3.0090   14.3280  -34.7860 O   0  0  0  0  0  0  0  0  0  0  0  0
   -2.1640   15.3950  -35.0660 C   0  0  0  0  0  0  0  0  0  0  0  0
   -1.1790   15.3310  -36.0440 C   0  0  0  0  0  0  0  0  0  0  0  0
   -0.3410   16.4080  -36.3090 C   0  0  0  0  0  0  0  0  0  0  0  0
    0.6170   16.3630  -37.2520 N   0  0  0  0  0  0  0  0  0  0  0  0
    1.4150   17.4460  -37.4760 C   0  0  0  0  0  0  0  0  0  0  0  0
    1.2410   18.5770  -36.7450 N   0  0  0  0  0  0  0  0  0  0  0  0
    0.2940   18.6650  -35.7910 C   0  0  0  0  0  0  0  0  0  0  0  0
    0.1310   19.7530  -35.0920 N   0  0  0  0  0  0  0  0  0  0  0  0
    0.9690   20.8950  -35.3260 C   0  0  0  0  0  0  0  0  0  0  0  0
    2.2520   20.8080  -34.8030 C   0  0  0  0  0  0  0  0  0  0  0  0
    3.1500   21.8490  -34.9650 C   0  0  0  0  0  0  0  0  0  0  0  0
    2.7260   22.9590  -35.6570 C   0  0  0  0  0  0  0  0  0  0  0  0
    3.8890   24.2680  -35.8490 Cl  0  0  0  0  0  0  0  0  0  0  0  0
    1.4500   23.0370  -36.1730 C   0  0  0  0  0  0  0  0  0  0  0  0
    1.0790   24.1840  -36.8620 O   0  0  0  0  0  0  0  0  0  0  0  0
    0.5300   22.0020  -36.0220 C   0  0  0  0  0  0  0  0  0  0  0  0
   -0.5120   17.5600  -35.5690 C   0  0  0  0  0  0  0  0  0  0  0  0
   -1.4770   17.6720  -34.5870 C   0  0  0  0  0  0  0  0  0  0  0  0
   -2.2900   16.5750  -34.3540 C   0  0  0  0  0  0  0  0  0  0  0  0
   -3.2870   16.7250  -33.3220 N   0  0  0  0  0  0  0  0  0  0  0  0
   -4.1440   17.8770  -33.3450 C   0  0  0  0  0  0  0  0  0  0  0  0
   -3.9770   18.6810  -34.2540 O   0  0  0  0  0  0  0  0  0  0  0  0
   -5.1180   18.0400  -32.3520 N   0  0  0  0  0  0  0  0  0  0  0  0
   -6.0620   19.0600  -32.1910 C   0  0  0  0  0  0  0  0  0  0  0  0
   -7.4010   18.6580  -32.0680 C   0  0  0  0  0  0  0  0  0  0  0  0
   -8.4230   19.5640  -31.9190 C   0  0  0  0  0  0  0  0  0  0  0  0
   -8.2030   20.9200  -31.8830 C   0  0  0  0  0  0  0  0  0  0  0  0
   -9.4920   22.0860  -31.6950 Cl  0  0  0  0  0  0  0  0  0  0  0  0
   -6.8930   21.3370  -32.0020 C   0  0  0  0  0  0  0  0  0  0  0  0
   -6.5910   23.0530  -31.9500 S   0  0  0  0  0  0  0  0  0  0  0  0
   -5.2030   23.2840  -32.5170 O   0  0  0  0  0  0  0  0  0  0  0  0
   -7.5380   23.7880  -32.8910 O   0  0  0  0  0  0  0  0  0  0  0  0
   -6.7360   23.6650  -30.3140 C   0  0  0  0  0  0  0  0  0  0  0  0
   -5.4960   24.0540  -29.5490 C   0  0  0  0  0  0  0  0  0  0  0  0
   -6.4990   25.1100  -30.0570 C   0  0  0  0  0  0  0  0  0  0  0  0
   -5.8490   20.4050  -32.1540 C   0  0  0  0  0  0  0  0  0  0  0  0
   -4.6000   20.9460  -32.2650 O   0  0  0  0  0  0  0  0  0  0  0  0
   -2.8822   14.0217  -32.7509 H   0  0  0  0  0  0  0  0  0  0  0  0
   -3.2526   12.5682  -33.7393 H   0  0  0  0  0  0  0  0  0  0  0  0
   -1.5929   13.2553  -33.7393 H   0  0  0  0  0  0  0  0  0  0  0  0
   -1.0592   14.4038  -36.6237 H   0  0  0  0  0  0  0  0  0  0  0  0
    0.7500   15.4880  -37.8170 H   0  0  0  0  0  0  0  0  0  0  0  0
    2.1981   17.4034  -38.2473 H   0  0  0  0  0  0  0  0  0  0  0  0
    2.5576   19.9043  -34.2553 H   0  0  0  0  0  0  0  0  0  0  0  0
    4.1686   21.7902  -34.5539 H   0  0  0  0  0  0  0  0  0  0  0  0
    1.2600   25.1210  -36.5360 H   0  0  0  0  0  0  0  0  0  0  0  0
   -0.4880   22.0639  -36.4341 H   0  0  0  0  0  0  0  0  0  0  0  0
   -1.5958   18.6008  -34.0097 H   0  0  0  0  0  0  0  0  0  0  0  0
   -3.3600   15.9880  -32.5830 H   0  0  0  0  0  0  0  0  0  0  0  0
   -5.1340   17.2550  -31.6190 H   0  0  0  0  0  0  0  0  0  0  0  0
   -7.6396   17.5844  -32.0916 H   0  0  0  0  0  0  0  0  0  0  0  0
   -9.4535   19.1909  -31.8252 H   0  0  0  0  0  0  0  0  0  0  0  0
   -7.5696   22.9752  -30.1157 H   0  0  0  0  0  0  0  0  0  0  0  0
   -5.4167   23.8365  -28.4736 H   0  0  0  0  0  0  0  0  0  0  0  0
   -4.4157   23.8774  -29.6577 H   0  0  0  0  0  0  0  0  0  0  0  0
   -7.1349   25.6541  -29.3431 H   0  0  0  0  0  0  0  0  0  0  0  0
   -6.4313   26.0123  -30.6825 H   0  0  0  0  0  0  0  0  0  0  0  0
   -4.4970   21.8190  -32.8060 H   0  0  0  0  0  0  0  0  0  0  0  0
  1  2  1  0
  2  3  1  0
  3  4  2  0
  4  5  1  0
  5  6  1  0
  6  7  1  0
  7  8  2  0
  8  9  1  0
  9 10  2  0
 10 11  1  0
 11 12  2  0
 12 13  1  0
 13 14  2  0
 14 15  1  0
 14 16  1  0
 16 17  1  0
 16 18  2  0
  9 19  1  0
 19 20  1  0
 20 21  2  0
 21 22  1  0
 22 23  1  0
 23 24  2  0
 23 25  1  0
 25 26  1  0
 26 27  2  0
 27 28  1  0
 28 29  2  0
 29 30  1  0
 29 31  1  0
 31 32  1  0
 32 33  2  0
 32 34  2  0
 32 35  1  0
 35 36  1  0
 36 37  1  0
 31 38  2  0
 38 39  1  0
 21  3  1  0
 38 26  1  0
 19  5  2  0
 37 35  1  0
 18 11  1  0
  1 40  1  0
  1 41  1  0
  1 42  1  0
  4 43  1  0
  6 44  1  0
  7 45  1  0
 12 46  1  0
 13 47  1  0
 17 48  1  0
 18 49  1  0
 20 50  1  0
 22 51  1  0
 25 52  1  0
 27 53  1  0
 28 54  1  0
 35 55  1  0
 36 56  1  0
 36 57  1  0
 37 58  1  0
 37 59  1  0
 39 60  1  0
M  END
>  <smiles>  (48) 
COc1cc2[nH]cnc(=Nc3ccc(Cl)c(O)c3)c2cc1NC(=O)Nc1ccc(Cl)c(S(=O)(=O)C2CC2)c1O

>  <score_type>  (48) 
oracle

>  <origin>  (48) 
adgpu

>  <m_score__min__energy>  (48) 
-10.93

>  <m_primary>  (48) 
energy

$$$$
48:0
     RDKit          3D

 67 70  0  0  0  0  0  0  0  0999 V2000
   -8.9330   22.2950  -31.5680 C   0  0  0  0  0  0  0  0  0  0  0  0
   -7.6250   22.7950  -31.3110 O   0  0  0  0  0  0  0  0  0  0  0  0
   -6.4470   22.2840  -31.8780 C   0  0  0  0  0  0  0  0  0  0  0  0
   -6.4560   21.1300  -32.6840 C   0  0  0  0  0  0  0  0  0  0  0  0
   -5.2750   20.6540  -33.2570 C   0  0  0  0  0  0  0  0  0  0  0  0
   -4.0630   21.3310  -33.0510 C   0  0  0  0  0  0  0  0  0  0  0  0
   -2.8310   20.8520  -33.6160 N   0  0  0  0  0  0  0  0  0  0  0  0
   -2.2950   19.5410  -33.3770 C   0  0  0  0  0  0  0  0  0  0  0  0
   -3.0510   18.6060  -33.0040 O   0  0  0  0  0  0  0  0  0  0  0  0
   -0.9210   19.2490  -33.6550 N   0  0  0  0  0  0  0  0  0  0  0  0
    0.1260   19.1270  -32.6820 C   0  0  0  0  0  0  0  0  0  0  0  0
    1.4450   18.8060  -33.0510 C   0  0  0  0  0  0  0  0  0  0  0  0
    2.4450   18.7240  -32.0780 C   0  0  0  0  0  0  0  0  0  0  0  0
    2.1450   18.9800  -30.7380 C   0  0  0  0  0  0  0  0  0  0  0  0
    0.8420   19.3350  -30.3640 C   0  0  0  0  0  0  0  0  0  0  0  0
    0.4720   19.6940  -28.6770 S   0  0  0  0  0  0  0  0  0  0  0  0
   -0.0460   18.4500  -28.0100 O   0  0  0  0  0  0  0  0  0  0  0  0
    1.7410   20.0930  -27.9780 O   0  0  0  0  0  0  0  0  0  0  0  0
   -0.7070   20.9790  -28.5030 N   0  0  0  0  0  0  0  0  0  0  0  0
   -2.0910   20.5260  -28.7560 C   0  0  0  0  0  0  0  0  0  0  0  0
   -2.8930   20.3050  -27.4630 C   0  0  0  0  0  0  0  0  0  0  0  0
   -2.0370   19.9250  -26.4110 O   0  0  0  0  0  0  0  0  0  0  0  0
   -1.2260   21.0210  -26.0370 C   0  0  0  0  0  0  0  0  0  0  0  0
   -0.5520   21.7230  -27.2390 C   0  0  0  0  0  0  0  0  0  0  0  0
   -0.1630   19.4070  -31.3400 C   0  0  0  0  0  0  0  0  0  0  0  0
   -4.0470   22.4660  -32.2290 C   0  0  0  0  0  0  0  0  0  0  0  0
   -5.2250   22.9460  -31.6410 C   0  0  0  0  0  0  0  0  0  0  0  0
   -5.1440   24.3990  -30.6330 S   0  0  0  0  0  0  0  0  0  0  0  0
   -5.6960   24.0700  -29.2750 O   0  0  0  0  0  0  0  0  0  0  0  0
   -5.9900   25.4960  -31.2160 O   0  0  0  0  0  0  0  0  0  0  0  0
   -3.5010   24.9460  -30.4410 N   0  0  0  0  0  0  0  0  0  0  0  0
   -2.6820   23.9870  -29.6920 C   0  0  0  0  0  0  0  0  0  0  0  0
   -3.0680   23.9410  -28.2090 C   0  0  0  0  0  0  0  0  0  0  0  0
   -2.2680   24.9280  -27.3980 C   0  0  0  0  0  0  0  0  0  0  0  0
   -2.6660   25.2640  -26.0930 C   0  0  0  0  0  0  0  0  0  0  0  0
   -1.9040   26.1560  -25.3330 C   0  0  0  0  0  0  0  0  0  0  0  0
   -0.7370   26.7130  -25.8660 C   0  0  0  0  0  0  0  0  0  0  0  0
   -0.3300   26.3760  -27.1600 C   0  0  0  0  0  0  0  0  0  0  0  0
   -1.0890   25.4840  -27.9230 C   0  0  0  0  0  0  0  0  0  0  0  0
   -9.4447   22.0994  -30.6141 H   0  0  0  0  0  0  0  0  0  0  0  0
   -9.5031   23.0386  -32.1442 H   0  0  0  0  0  0  0  0  0  0  0  0
   -8.8617   21.3607  -32.1442 H   0  0  0  0  0  0  0  0  0  0  0  0
   -7.4020   20.5984  -32.8641 H   0  0  0  0  0  0  0  0  0  0  0  0
   -5.2947   19.7432  -33.8734 H   0  0  0  0  0  0  0  0  0  0  0  0
   -2.3360   21.4590  -34.3090 H   0  0  0  0  0  0  0  0  0  0  0  0
    1.6897   18.6192  -34.1070 H   0  0  0  0  0  0  0  0  0  0  0  0
    3.4718   18.4570  -32.3685 H   0  0  0  0  0  0  0  0  0  0  0  0
    2.9333   18.9028  -29.9747 H   0  0  0  0  0  0  0  0  0  0  0  0
   -2.6044   21.2871  -29.3619 H   0  0  0  0  0  0  0  0  0  0  0  0
   -2.0322   19.5594  -29.2777 H   0  0  0  0  0  0  0  0  0  0  0  0
   -3.4074   21.2388  -27.1919 H   0  0  0  0  0  0  0  0  0  0  0  0
   -3.6270   19.5033  -27.6320 H   0  0  0  0  0  0  0  0  0  0  0  0
   -1.8532   21.7556  -25.5107 H   0  0  0  0  0  0  0  0  0  0  0  0
   -0.4221   20.6276  -25.3975 H   0  0  0  0  0  0  0  0  0  0  0  0
   -1.0030   22.7189  -27.3611 H   0  0  0  0  0  0  0  0  0  0  0  0
    0.5249   21.7831  -27.0229 H   0  0  0  0  0  0  0  0  0  0  0  0
   -1.1866   19.6856  -31.0492 H   0  0  0  0  0  0  0  0  0  0  0  0
   -3.0965   22.9874  -32.0428 H   0  0  0  0  0  0  0  0  0  0  0  0
   -2.8199   22.9859  -30.1266 H   0  0  0  0  0  0  0  0  0  0  0  0
   -1.6322   24.3082  -29.7611 H   0  0  0  0  0  0  0  0  0  0  0  0
   -4.1370   24.1810  -28.1105 H   0  0  0  0  0  0  0  0  0  0  0  0
   -2.8562   22.9307  -27.8289 H   0  0  0  0  0  0  0  0  0  0  0  0
   -3.5801   24.8237  -25.6681 H   0  0  0  0  0  0  0  0  0  0  0  0
   -2.2227   26.4204  -24.3139 H   0  0  0  0  0  0  0  0  0  0  0  0
   -0.1396   27.4161  -25.2670 H   0  0  0  0  0  0  0  0  0  0  0  0
    0.5886   26.8132  -27.5784 H   0  0  0  0  0  0  0  0  0  0  0  0
   -0.7621   25.2162  -28.9386 H   0  0  0  0  0  0  0  0  0  0  0  0
  1  2  1  0
  2  3  1  0
  3  4  2  0
  4  5  1  0
  5  6  2  0
  6  7  1  0
  7  8  1  0
  8  9  2  0
  8 10  1  0
 10 11  1  0
 11 12  2  0
 12 13  1  0
 13 14  2  0
 14 15  1  0
 15 16  1  0
 16 17  2  0
 16 18  2  0
 16 19  1  0
 19 20  1  0
 20 21  1  0
 21 22  1  0
 22 23  1  0
 23 24  1  0
 15 25  2  0
  6 26  1  0
 26 27  2  0
 27 28  1  0
 28 29  2  0
 28 30  2  0
 28 31  1  0
 31 32  1  0
 32 33  1  0
 33 34  1  0
 34 35  2  0
 35 36  1  0
 36 37  2  0
 37 38  1  0
 38 39  2  0
 27  3  1  0
 39 34  1  0
 25 11  1  0
 24 19  1  0
  1 40  1  0
  1 41  1  0
  1 42  1  0
  4 43  1  0
  5 44  1  0
  7 45  1  0
 12 46  1  0
 13 47  1  0
 14 48  1  0
 20 49  1  0
 20 50  1  0
 21 51  1  0
 21 52  1  0
 23 53  1  0
 23 54  1  0
 24 55  1  0
 24 56  1  0
 25 57  1  0
 26 58  1  0
 32 59  1  0
 32 60  1  0
 33 61  1  0
 33 62  1  0
 35 63  1  0
 36 64  1  0
 37 65  1  0
 38 66  1  0
 39 67  1  0
M  CHG  2  10  -1  31  -1
M  END
>  <UniqueID>  (49) 
47

>  <SMILES>  (49) 
COc1ccc(NC(=O)[N-]c2cccc(S(=O)(=O)N3CCOCC3)c2)cc1S(=O)(=O)[N-]CCc1ccccc1

>  <Energy>  (49) 
85.24221085364165

>  <Genealogy>  (49) 
COc1ccc(NC(=O)[N-]c2cccc(S(=O)(=O)N3CCOCC3)c2)cc1S(=O)(=O)[N-]CCc1ccccc1 (protonated)
COc1ccc(NC(=O)[N-]c2cccc(S(=O)(=O)N3CCOCC3)c2)cc1S(=O)(=O)[N-]CCc1ccccc1 (3D coordinates assigned)
COc1ccc(NC(=O)[N-]c2cccc(S(=O)(=O)N3CCOCC3)c2)cc1S(=O)(=O)[N-]CCc1ccccc1 (nonaromatic ring conformer: 85.24221085364165 kcal/mol)

>  <smiles>  (49) 
COc1ccc(NC(=O)Nc2cccc(S(=O)(=O)N3CCOCC3)c2)cc1S(=O)(=O)NCCc1ccccc1

>  <score_type>  (49) 
oracle

>  <origin>  (49) 
adgpu

>  <m_score__min__energy>  (49) 
-12.73

>  <m_primary>  (49) 
energy

$$$$
49:0
     RDKit          3D

 44 45  0  0  0  0  0  0  0  0999 V2000
   -6.1210   17.1220  -31.7810 C   0  0  0  0  0  0  0  0  0  0  0  0
   -6.4700   17.1550  -33.2060 N   0  0  0  0  0  0  0  0  0  0  0  0
   -6.1180   15.8790  -33.8400 C   0  0  0  0  0  0  0  0  0  0  0  0
   -5.5990   18.4490  -33.9890 S   0  0  0  0  0  0  0  0  0  0  0  0
   -6.0900   18.6120  -35.4010 O   0  0  0  0  0  0  0  0  0  0  0  0
   -4.1280   18.1360  -34.0280 O   0  0  0  0  0  0  0  0  0  0  0  0
   -5.8660   19.9600  -33.1230 C   0  0  0  0  0  0  0  0  0  0  0  0
   -4.8140   20.8620  -32.9170 C   0  0  0  0  0  0  0  0  0  0  0  0
   -5.0310   22.0490  -32.2120 C   0  0  0  0  0  0  0  0  0  0  0  0
   -6.3020   22.3400  -31.6870 C   0  0  0  0  0  0  0  0  0  0  0  0
   -6.5550   23.5670  -30.9830 N   0  0  0  0  0  0  0  0  0  0  0  0
   -5.5940   24.2180  -30.1380 C   0  0  0  0  0  0  0  0  0  0  0  0
   -5.5850   25.8590  -30.0910 S   0  0  0  0  0  0  0  0  0  0  0  0
   -4.6610   23.4390  -29.3620 N   0  0  0  0  0  0  0  0  0  0  0  0
   -3.7700   23.9780  -28.3730 C   0  0  0  0  0  0  0  0  0  0  0  0
   -2.3850   23.8610  -28.5570 C   0  0  0  0  0  0  0  0  0  0  0  0
   -1.5000   24.3470  -27.5900 C   0  0  0  0  0  0  0  0  0  0  0  0
   -1.9920   24.9330  -26.4160 C   0  0  0  0  0  0  0  0  0  0  0  0
   -0.8780   25.5600  -25.2050 S   0  0  0  0  0  0  0  0  0  0  0  0
   -0.4540   24.3010  -24.1000 N   0  0  0  0  0  0  0  0  0  0  0  0
    0.3640   26.0770  -25.8760 O   0  0  0  0  0  0  0  0  0  0  0  0
   -1.5240   26.6900  -24.4540 O   0  0  0  0  0  0  0  0  0  0  0  0
   -3.3760   25.0320  -26.2190 C   0  0  0  0  0  0  0  0  0  0  0  0
   -4.2600   24.5460  -27.1870 C   0  0  0  0  0  0  0  0  0  0  0  0
   -7.3570   21.4440  -31.9130 C   0  0  0  0  0  0  0  0  0  0  0  0
   -7.1390   20.2570  -32.6180 C   0  0  0  0  0  0  0  0  0  0  0  0
   -7.0364   17.2086  -31.1772 H   0  0  0  0  0  0  0  0  0  0  0  0
   -5.6171   16.1722  -31.5488 H   0  0  0  0  0  0  0  0  0  0  0  0
   -5.4480   17.9605  -31.5488 H   0  0  0  0  0  0  0  0  0  0  0  0
   -5.9109   15.1284  -33.0631 H   0  0  0  0  0  0  0  0  0  0  0  0
   -6.9554   15.5373  -34.4661 H   0  0  0  0  0  0  0  0  0  0  0  0
   -5.2238   16.0150  -34.4661 H   0  0  0  0  0  0  0  0  0  0  0  0
   -3.8128   20.6349  -33.3119 H   0  0  0  0  0  0  0  0  0  0  0  0
   -4.2033   22.7589  -32.0673 H   0  0  0  0  0  0  0  0  0  0  0  0
   -7.4890   24.0190  -31.1030 H   0  0  0  0  0  0  0  0  0  0  0  0
   -4.5910   22.4140  -29.5460 H   0  0  0  0  0  0  0  0  0  0  0  0
   -1.9925   23.3842  -29.4673 H   0  0  0  0  0  0  0  0  0  0  0  0
   -0.4146   24.2692  -27.7511 H   0  0  0  0  0  0  0  0  0  0  0  0
   -1.1480   24.3340  -23.3200 H   0  0  0  0  0  0  0  0  0  0  0  0
    0.4730   24.5540  -23.6900 H   0  0  0  0  0  0  0  0  0  0  0  0
   -3.7678   25.4933  -25.3004 H   0  0  0  0  0  0  0  0  0  0  0  0
   -5.3451   24.6092  -27.0181 H   0  0  0  0  0  0  0  0  0  0  0  0
   -8.3626   21.6770  -31.5329 H   0  0  0  0  0  0  0  0  0  0  0  0
   -7.9696   19.5535  -32.7770 H   0  0  0  0  0  0  0  0  0  0  0  0
  1  2  1  0
  2  3  1  0
  2  4  1  0
  4  5  2  0
  4  6  2  0
  4  7  1  0
  7  8  2  0
  8  9  1  0
  9 10  2  0
 10 11  1  0
 11 12  1  0
 12 13  2  0
 12 14  1  0
 14 15  1  0
 15 16  2  0
 16 17  1  0
 17 18  2  0
 18 19  1  0
 19 20  1  0
 19 21  2  0
 19 22  2  0
 18 23  1  0
 23 24  2  0
 10 25  1  0
 25 26  2  0
 26  7  1  0
 24 15  1  0
  1 27  1  0
  1 28  1  0
  1 29  1  0
  3 30  1  0
  3 31  1  0
  3 32  1  0
  8 33  1  0
  9 34  1  0
 11 35  1  0
 14 36  1  0
 16 37  1  0
 17 38  1  0
 20 39  1  0
 20 40  1  0
 23 41  1  0
 24 42  1  0
 25 43  1  0
 26 44  1  0
M  END
>  <UniqueID>  (50) 
48

>  <SMILES>  (50) 
CN(C)S(=O)(=O)c1ccc(NC(=S)Nc2ccc(S(N)(=O)=O)cc2)cc1

>  <Energy>  (50) 
50.64304733021587

>  <Genealogy>  (50) 
CN(C)S(=O)(=O)c1ccc(NC(=S)Nc2ccc(S(N)(=O)=O)cc2)cc1 (3D coordinates assigned)
CN(C)S(=O)(=O)c1ccc(NC(=S)Nc2ccc(S(N)(=O)=O)cc2)cc1 (optimized conformer: 50.64304733021587 kcal/mol)

>  <smiles>  (50) 
CN(C)S(=O)(=O)c1ccc(NC(=S)Nc2ccc(S(N)(=O)=O)cc2)cc1

>  <score_type>  (50) 
oracle

>  <origin>  (50) 
adgpu

>  <m_score__min__energy>  (50) 
-8.6500000000000004

>  <m_primary>  (50) 
energy

$$$$
