0:0
     RDKit          3D

 64 67  0  0  0  0  0  0  0  0999 V2000
   -0.6420   25.9750  -29.4560 H   0  0  0  0  0  0  0  0  0  0  0  0
   -0.9330   26.7810  -28.8750 N   0  0  0  0  0  0  0  0  0  0  0  0
   -0.7590   26.5490  -27.2050 S   0  0  0  0  0  0  0  0  0  0  0  0
   -1.2080   27.8980  -26.5860 O   0  0  0  0  0  0  0  0  0  0  0  0
   -1.7780   25.5930  -26.7050 O   0  0  0  0  0  0  0  0  0  0  0  0
    0.7950   26.2100  -26.6170 C   0  0  0  0  0  0  0  0  0  0  0  0
    1.7230   27.2530  -26.4350 C   0  0  0  0  0  0  0  0  0  0  0  0
    1.4066   28.2824  -26.6590 H   0  0  0  0  0  0  0  0  0  0  0  0
    2.9950   27.0450  -25.9940 C   0  0  0  0  0  0  0  0  0  0  0  0
    3.6825   27.8944  -25.8681 H   0  0  0  0  0  0  0  0  0  0  0  0
    3.4180   25.7580  -25.7050 C   0  0  0  0  0  0  0  0  0  0  0  0
    4.4392   25.5584  -25.3483 H   0  0  0  0  0  0  0  0  0  0  0  0
    2.5190   24.7490  -25.8800 C   0  0  0  0  0  0  0  0  0  0  0  0
    2.8486   23.7244  -25.6530 H   0  0  0  0  0  0  0  0  0  0  0  0
    1.2160   24.9250  -26.3250 C   0  0  0  0  0  0  0  0  0  0  0  0
    0.3640   23.7430  -26.4040 C   0  0  0  0  0  0  0  0  0  0  0  0
    0.8495   22.9462  -25.8214 H   0  0  0  0  0  0  0  0  0  0  0  0
   -0.6131   24.0731  -26.0215 H   0  0  0  0  0  0  0  0  0  0  0  0
    0.0290   23.1000  -27.9970 S   0  0  0  0  0  0  0  0  0  0  0  0
    0.2250   23.9950  -29.1460 O   0  0  0  0  0  0  0  0  0  0  0  0
    0.7300   21.7860  -28.1520 O   0  0  0  0  0  0  0  0  0  0  0  0
   -1.7430   22.7020  -28.0610 C   0  0  0  0  0  0  0  0  0  0  0  0
   -2.0510   21.5580  -27.3950 C   0  0  0  0  0  0  0  0  0  0  0  0
   -1.2320   20.7300  -26.7060 O   0  0  0  0  0  0  0  0  0  0  0  0
   -3.4290   21.2690  -27.4920 C   0  0  0  0  0  0  0  0  0  0  0  0
   -3.9147   20.3945  -27.0345 H   0  0  0  0  0  0  0  0  0  0  0  0
   -4.0690   22.2000  -28.2150 C   0  0  0  0  0  0  0  0  0  0  0  0
   -5.1065   21.8350  -28.1937 H   0  0  0  0  0  0  0  0  0  0  0  0
   -4.1730   23.2520  -28.9060 C   0  0  0  0  0  0  0  0  0  0  0  0
   -4.2880   24.4230  -29.6750 C   0  0  0  0  0  0  0  0  0  0  0  0
   -4.1020   25.4244  -29.2596 H   0  0  0  0  0  0  0  0  0  0  0  0
   -4.6390   24.2280  -30.9440 N   0  0  0  0  0  0  0  0  0  0  0  0
   -4.9010   23.0490  -31.5980 C   0  0  0  0  0  0  0  0  0  0  0  0
   -3.8220   22.3120  -32.0960 C   0  0  0  0  0  0  0  0  0  0  0  0
   -2.7907   22.6682  -31.9559 H   0  0  0  0  0  0  0  0  0  0  0  0
   -4.0700   21.1310  -32.7660 C   0  0  0  0  0  0  0  0  0  0  0  0
   -3.2090   20.5621  -33.1468 H   0  0  0  0  0  0  0  0  0  0  0  0
   -5.3280   20.6230  -32.9860 C   0  0  0  0  0  0  0  0  0  0  0  0
   -5.5450   19.1030  -33.8170 S   0  0  0  0  0  0  0  0  0  0  0  0
   -4.1650   18.6610  -34.2960 O   0  0  0  0  0  0  0  0  0  0  0  0
   -6.4510   19.2280  -34.9860 O   0  0  0  0  0  0  0  0  0  0  0  0
   -6.0930   17.9210  -32.7220 N   0  0  0  0  0  0  0  0  0  0  0  0
   -7.1920   17.1230  -33.2360 C   0  0  0  0  0  0  0  0  0  0  0  0
   -7.5401   16.4453  -32.4425 H   0  0  0  0  0  0  0  0  0  0  0  0
   -7.9911   17.8096  -33.5523 H   0  0  0  0  0  0  0  0  0  0  0  0
   -6.7850   16.3050  -34.4280 C   0  0  0  0  0  0  0  0  0  0  0  0
   -7.6097   15.6269  -34.6926 H   0  0  0  0  0  0  0  0  0  0  0  0
   -6.5589   16.9949  -35.2544 H   0  0  0  0  0  0  0  0  0  0  0  0
   -5.5410   15.4800  -34.1490 C   0  0  0  0  0  0  0  0  0  0  0  0
   -5.7380   14.4212  -34.3728 H   0  0  0  0  0  0  0  0  0  0  0  0
   -4.7075   15.8225  -34.7798 H   0  0  0  0  0  0  0  0  0  0  0  0
   -5.1900   15.6380  -32.6860 C   0  0  0  0  0  0  0  0  0  0  0  0
   -6.0044   15.2148  -32.0797 H   0  0  0  0  0  0  0  0  0  0  0  0
   -4.2406   15.1110  -32.5101 H   0  0  0  0  0  0  0  0  0  0  0  0
   -4.9940   17.0820  -32.2940 C   0  0  0  0  0  0  0  0  0  0  0  0
   -4.9080   17.1428  -31.1991 H   0  0  0  0  0  0  0  0  0  0  0  0
   -4.0811   17.4444  -32.7892 H   0  0  0  0  0  0  0  0  0  0  0  0
   -6.3840   21.3700  -32.4870 C   0  0  0  0  0  0  0  0  0  0  0  0
   -7.4104   21.0047  -32.6386 H   0  0  0  0  0  0  0  0  0  0  0  0
   -6.1930   22.5570  -31.8060 C   0  0  0  0  0  0  0  0  0  0  0  0
   -7.0604   23.1168  -31.4262 H   0  0  0  0  0  0  0  0  0  0  0  0
   -2.5070   23.5240  -28.7390 C   0  0  0  0  0  0  0  0  0  0  0  0
   -2.0350   24.6240  -29.3440 O   0  0  0  0  0  0  0  0  0  0  0  0
   -1.3930   25.2190  -28.8180 H   0  0  0  0  0  0  0  0  0  0  0  0
  1  2  1  0
  2  3  1  0
  3  4  2  0
  3  5  2  0
  3  6  1  0
  6  7  2  0
  7  8  1  0
  7  9  1  0
  9 10  1  0
  9 11  2  0
 11 12  1  0
 11 13  1  0
 13 14  1  0
 13 15  2  0
 15 16  1  0
 16 17  1  0
 16 18  1  0
 16 19  1  0
 19 20  2  0
 19 21  2  0
 19 22  1  0
 22 23  2  0
 23 24  1  0
 23 25  1  0
 25 26  1  0
 25 27  2  0
 27 28  1  0
 27 29  1  0
 29 30  1  0
 30 31  1  0
 30 32  2  0
 32 33  1  0
 33 34  2  0
 34 35  1  0
 34 36  1  0
 36 37  1  0
 36 38  2  0
 38 39  1  0
 39 40  2  0
 39 41  2  0
 39 42  1  0
 42 43  1  0
 43 44  1  0
 43 45  1  0
 43 46  1  0
 46 47  1  0
 46 48  1  0
 46 49  1  0
 49 50  1  0
 49 51  1  0
 49 52  1  0
 52 53  1  0
 52 54  1  0
 52 55  1  0
 55 56  1  0
 55 57  1  0
 38 58  1  0
 58 59  1  0
 58 60  2  0
 60 61  1  0
 29 62  2  0
 62 63  1  0
 63 64  1  0
 15  6  1  0
 62 22  1  0
 60 33  1  0
 55 42  1  0
M  CHG  2   2  -1  24  -1
M  END
>  <UniqueID>  (1) 
1

>  <SMILES>  (1) 
[NH-]S(=O)(=O)c1ccccc1CS(=O)(=O)c1c([O-])ccc(/C=N\c2ccc(S(=O)(=O)N3CCCCC3)cc2)c1O

>  <Energy>  (1) 
453.36446506992814

>  <Genealogy>  (1) 
[NH-]S(=O)(=O)c1ccccc1CS(=O)(=O)c1c([O-])ccc(C=Nc2ccc(S(=O)(=O)N3CCCCC3)cc2)c1O (protonated)
[NH-]S(=O)(=O)c1ccccc1CS(=O)(=O)c1c([O-])ccc(/C=N\c2ccc(S(=O)(=O)N3CCCCC3)cc2)c1O (cis-trans isomerization)
[NH-]S(=O)(=O)c1ccccc1CS(=O)(=O)c1c([O-])ccc(/C=N\c2ccc(S(=O)(=O)N3CCCCC3)cc2)c1O (3D coordinates assigned)
[NH-]S(=O)(=O)c1ccccc1CS(=O)(=O)c1c([O-])ccc(/C=N\c2ccc(S(=O)(=O)N3CCCCC3)cc2)c1O (nonaromatic ring conformer: 453.36446506992814 kcal/mol)

>  <smiles>  (1) 
NS(=O)(=O)c1ccccc1CS(=O)(=O)c1c(O)ccc(C=Nc2ccc(S(=O)(=O)N3CCCCC3)cc2)c1O

>  <score_type>  (1) 
oracle

>  <origin>  (1) 
adgpu

>  <m_score__min__energy>  (1) 
-13.029999999999999

>  <m_primary>  (1) 
energy

$$$$
1:0
     RDKit          3D

 60 63  0  0  0  0  0  0  0  0999 V2000
   -5.6910   24.4180  -29.2690 O   0  0  0  0  0  0  0  0  0  0  0  0
   -5.3570   23.8260  -30.6110 S   0  0  0  0  0  0  0  0  0  0  0  0
   -5.1150   24.9360  -31.5950 O   0  0  0  0  0  0  0  0  0  0  0  0
   -3.9160   22.8650  -30.4650 N   0  0  0  0  0  0  0  0  0  0  0  0
   -3.0440   22.9050  -29.3170 C   0  0  0  0  0  0  0  0  0  0  0  0
   -2.7890   21.7530  -28.5500 C   0  0  0  0  0  0  0  0  0  0  0  0
   -1.9370   21.8030  -27.4380 C   0  0  0  0  0  0  0  0  0  0  0  0
   -1.6020   20.3460  -26.5080 S   0  0  0  0  0  0  0  0  0  0  0  0
   -1.2420   20.7480  -25.1050 O   0  0  0  0  0  0  0  0  0  0  0  0
   -2.8280   19.4770  -26.4730 O   0  0  0  0  0  0  0  0  0  0  0  0
   -0.2740   19.4700  -27.2300 N   0  0  0  0  0  0  0  0  0  0  0  0
   -0.0800   19.9060  -28.6270 C   0  0  0  0  0  0  0  0  0  0  0  0
    1.1040   19.1720  -29.2920 C   0  0  0  0  0  0  0  0  0  0  0  0
    1.7270   18.1170  -28.3710 C   0  0  0  0  0  0  0  0  0  0  0  0
    0.6430   17.2140  -27.7690 C   0  0  0  0  0  0  0  0  0  0  0  0
   -0.5380   18.0210  -27.1830 C   0  0  0  0  0  0  0  0  0  0  0  0
   -1.3180   23.0100  -27.0930 C   0  0  0  0  0  0  0  0  0  0  0  0
   -1.5720   24.1600  -27.8400 C   0  0  0  0  0  0  0  0  0  0  0  0
   -2.4300   24.1160  -28.9420 C   0  0  0  0  0  0  0  0  0  0  0  0
   -2.6650   25.2780  -29.6690 O   0  0  0  0  0  0  0  0  0  0  0  0
   -6.6870   22.8290  -31.1950 C   0  0  0  0  0  0  0  0  0  0  0  0
   -7.9910   23.3390  -31.2520 C   0  0  0  0  0  0  0  0  0  0  0  0
   -9.0490   22.5150  -31.6460 C   0  0  0  0  0  0  0  0  0  0  0  0
   -8.8120   21.1740  -31.9710 C   0  0  0  0  0  0  0  0  0  0  0  0
   -7.5100   20.6610  -31.9250 C   0  0  0  0  0  0  0  0  0  0  0  0
   -7.2240   18.9540  -32.2510 S   0  0  0  0  0  0  0  0  0  0  0  0
   -6.2970   18.4140  -31.1990 O   0  0  0  0  0  0  0  0  0  0  0  0
   -8.5220   18.2000  -32.1730 O   0  0  0  0  0  0  0  0  0  0  0  0
   -6.4940   18.7500  -33.8310 N   0  0  0  0  0  0  0  0  0  0  0  0
   -6.3810   17.3280  -34.1750 C   0  0  0  0  0  0  0  0  0  0  0  0
   -5.0310   16.8360  -33.6910 C   0  0  0  0  0  0  0  0  0  0  0  0
   -4.1780   18.0840  -33.5620 C   0  0  0  0  0  0  0  0  0  0  0  0
   -5.1180   19.2570  -33.8230 C   0  0  0  0  0  0  0  0  0  0  0  0
   -6.4480   21.4950  -31.5500 C   0  0  0  0  0  0  0  0  0  0  0  0
   -3.7390   22.1690  -31.2210 H   0  0  0  0  0  0  0  0  0  0  0  0
   -3.2646   20.8005  -28.8268 H   0  0  0  0  0  0  0  0  0  0  0  0
   -0.9966   19.6950  -29.1974 H   0  0  0  0  0  0  0  0  0  0  0  0
    0.1413   20.9835  -28.6236 H   0  0  0  0  0  0  0  0  0  0  0  0
    0.7443   18.6758  -30.2055 H   0  0  0  0  0  0  0  0  0  0  0  0
    1.8784   19.9197  -29.5187 H   0  0  0  0  0  0  0  0  0  0  0  0
    2.4291   17.5004  -28.9514 H   0  0  0  0  0  0  0  0  0  0  0  0
    2.2547   18.6292  -27.5530 H   0  0  0  0  0  0  0  0  0  0  0  0
    0.2598   16.5488  -28.5568 H   0  0  0  0  0  0  0  0  0  0  0  0
    1.1001   16.6438  -26.9469 H   0  0  0  0  0  0  0  0  0  0  0  0
   -1.4448   17.8032  -27.7663 H   0  0  0  0  0  0  0  0  0  0  0  0
   -0.6707   17.7269  -26.1314 H   0  0  0  0  0  0  0  0  0  0  0  0
   -0.6322   23.0515  -26.2340 H   0  0  0  0  0  0  0  0  0  0  0  0
   -1.0929   25.1096  -27.5593 H   0  0  0  0  0  0  0  0  0  0  0  0
   -8.1822   24.3892  -30.9863 H   0  0  0  0  0  0  0  0  0  0  0  0
  -10.0699   22.9209  -31.7008 H   0  0  0  0  0  0  0  0  0  0  0  0
   -9.6493   20.5229  -32.2627 H   0  0  0  0  0  0  0  0  0  0  0  0
   -7.1840   16.7597  -33.6829 H   0  0  0  0  0  0  0  0  0  0  0  0
   -6.4715   17.1890  -35.2624 H   0  0  0  0  0  0  0  0  0  0  0  0
   -5.1296   16.3334  -32.7175 H   0  0  0  0  0  0  0  0  0  0  0  0
   -4.5877   16.1036  -34.3816 H   0  0  0  0  0  0  0  0  0  0  0  0
   -3.7503   18.1531  -32.5509 H   0  0  0  0  0  0  0  0  0  0  0  0
   -3.3357   18.0743  -34.2694 H   0  0  0  0  0  0  0  0  0  0  0  0
   -5.0033   20.0096  -33.0290 H   0  0  0  0  0  0  0  0  0  0  0  0
   -4.8807   19.7257  -34.7894 H   0  0  0  0  0  0  0  0  0  0  0  0
   -5.4214   21.1001  -31.5343 H   0  0  0  0  0  0  0  0  0  0  0  0
  1  2  2  0
  2  3  2  0
  2  4  1  0
  4  5  1  0
  5  6  2  0
  6  7  1  0
  7  8  1  0
  8  9  2  0
  8 10  2  0
  8 11  1  0
 11 12  1  0
 12 13  1  0
 13 14  1  0
 14 15  1  0
 15 16  1  0
  7 17  2  0
 17 18  1  0
 18 19  2  0
 19 20  1  0
  2 21  1  0
 21 22  2  0
 22 23  1  0
 23 24  2  0
 24 25  1  0
 25 26  1  0
 26 27  2  0
 26 28  2  0
 26 29  1  0
 29 30  1  0
 30 31  1  0
 31 32  1  0
 32 33  1  0
 25 34  2  0
 19  5  1  0
 34 21  1  0
 16 11  1  0
 33 29  1  0
  4 35  1  0
  6 36  1  0
 12 37  1  0
 12 38  1  0
 13 39  1  0
 13 40  1  0
 14 41  1  0
 14 42  1  0
 15 43  1  0
 15 44  1  0
 16 45  1  0
 16 46  1  0
 17 47  1  0
 18 48  1  0
 22 49  1  0
 23 50  1  0
 24 51  1  0
 30 52  1  0
 30 53  1  0
 31 54  1  0
 31 55  1  0
 32 56  1  0
 32 57  1  0
 33 58  1  0
 33 59  1  0
 34 60  1  0
M  CHG  1  20  -1
M  END
>  <UniqueID>  (2) 
2

>  <SMILES>  (2) 
O=S(=O)(Nc1cc(S(=O)(=O)N2CCCCC2)ccc1[O-])c1cccc(S(=O)(=O)N2CCCC2)c1

>  <Energy>  (2) 
63.834862292139526

>  <Genealogy>  (2) 
O=S(=O)(Nc1cc(S(=O)(=O)N2CCCCC2)ccc1[O-])c1cccc(S(=O)(=O)N2CCCC2)c1 (protonated)
O=S(=O)(Nc1cc(S(=O)(=O)N2CCCCC2)ccc1[O-])c1cccc(S(=O)(=O)N2CCCC2)c1 (3D coordinates assigned)
O=S(=O)(Nc1cc(S(=O)(=O)N2CCCCC2)ccc1[O-])c1cccc(S(=O)(=O)N2CCCC2)c1 (nonaromatic ring conformer: 63.834862292139526 kcal/mol)

>  <smiles>  (2) 
O=S(=O)(Nc1cc(S(=O)(=O)N2CCCCC2)ccc1O)c1cccc(S(=O)(=O)N2CCCC2)c1

>  <score_type>  (2) 
oracle

>  <origin>  (2) 
adgpu

>  <m_score__min__energy>  (2) 
-14.57

>  <m_primary>  (2) 
energy

$$$$
2:0
     RDKit          3D

 56 59  0  0  0  0  0  0  0  0999 V2000
   -6.2390   23.7380  -32.2700 C   0  0  0  0  0  0  0  0  0  0  0  0
   -7.2570   22.6380  -32.1880 C   0  0  0  0  0  0  0  0  0  0  0  0
   -8.5510   22.9150  -31.7280 C   0  0  0  0  0  0  0  0  0  0  0  0
   -9.4900   21.8880  -31.6140 C   0  0  0  0  0  0  0  0  0  0  0  0
   -9.1410   20.5760  -31.9420 C   0  0  0  0  0  0  0  0  0  0  0  0
   -7.8400   20.2730  -32.3850 C   0  0  0  0  0  0  0  0  0  0  0  0
   -7.4610   18.8770  -32.7130 C   0  0  0  0  0  0  0  0  0  0  0  0
   -7.9290   17.9230  -32.0330 O   0  0  0  0  0  0  0  0  0  0  0  0
   -6.6120   18.6100  -33.8400 N   0  0  0  0  0  0  0  0  0  0  0  0
   -5.3950   17.8500  -33.8300 C   0  0  0  0  0  0  0  0  0  0  0  0
   -5.4560   16.4920  -33.5040 C   0  0  0  0  0  0  0  0  0  0  0  0
   -4.2960   15.7170  -33.4710 C   0  0  0  0  0  0  0  0  0  0  0  0
   -3.0500   16.2840  -33.7840 C   0  0  0  0  0  0  0  0  0  0  0  0
   -1.8150   15.4310  -33.6690 C   0  0  0  0  0  0  0  0  0  0  0  0
   -2.9940   17.6360  -34.1990 C   0  0  0  0  0  0  0  0  0  0  0  0
   -1.7620   18.2610  -34.5830 N   0  0  0  0  0  0  0  0  0  0  0  0
   -1.3010   19.5170  -34.0690 C   0  0  0  0  0  0  0  0  0  0  0  0
   -0.9680   20.4370  -34.8650 O   0  0  0  0  0  0  0  0  0  0  0  0
   -1.2080   19.7220  -32.6450 N   0  0  0  0  0  0  0  0  0  0  0  0
   -0.4260   18.7860  -31.8230 C   0  0  0  0  0  0  0  0  0  0  0  0
    0.5410   19.5560  -30.9170 C   0  0  0  0  0  0  0  0  0  0  0  0
   -0.1650   20.6010  -30.1790 N   0  0  0  0  0  0  0  0  0  0  0  0
   -1.2610   21.3090  -30.7700 C   0  0  0  0  0  0  0  0  0  0  0  0
   -1.7910   22.3930  -30.1430 N   0  0  0  0  0  0  0  0  0  0  0  0
   -2.8420   23.0650  -30.6800 C   0  0  0  0  0  0  0  0  0  0  0  0
   -3.4930   24.4670  -29.8540 S   0  0  0  0  0  0  0  0  0  0  0  0
   -4.6230   23.9450  -28.5860 C   0  0  0  0  0  0  0  0  0  0  0  0
   -4.2160   25.3430  -30.8380 O   0  0  0  0  0  0  0  0  0  0  0  0
   -2.3660   25.2510  -29.2430 O   0  0  0  0  0  0  0  0  0  0  0  0
   -3.3950   22.6420  -31.8460 N   0  0  0  0  0  0  0  0  0  0  0  0
   -2.9000   21.5630  -32.5080 C   0  0  0  0  0  0  0  0  0  0  0  0
   -1.7900   20.8740  -31.9930 C   0  0  0  0  0  0  0  0  0  0  0  0
   -4.1600   18.4130  -34.1920 C   0  0  0  0  0  0  0  0  0  0  0  0
   -6.9020   21.3150  -32.5040 C   0  0  0  0  0  0  0  0  0  0  0  0
   -5.9518   24.0483  -31.2545 H   0  0  0  0  0  0  0  0  0  0  0  0
   -5.3504   23.3759  -32.8078 H   0  0  0  0  0  0  0  0  0  0  0  0
   -6.6687   24.5960  -32.8078 H   0  0  0  0  0  0  0  0  0  0  0  0
   -8.8279   23.9442  -31.4559 H   0  0  0  0  0  0  0  0  0  0  0  0
  -10.5085   22.1130  -31.2646 H   0  0  0  0  0  0  0  0  0  0  0  0
   -9.8884   19.7738  -31.8534 H   0  0  0  0  0  0  0  0  0  0  0  0
   -6.4269   16.0303  -33.2714 H   0  0  0  0  0  0  0  0  0  0  0  0
   -4.3581   14.6533  -33.1976 H   0  0  0  0  0  0  0  0  0  0  0  0
   -1.5794   15.2683  -32.6069 H   0  0  0  0  0  0  0  0  0  0  0  0
   -1.9920   14.4617  -34.1580 H   0  0  0  0  0  0  0  0  0  0  0  0
   -0.9712   15.9397  -34.1580 H   0  0  0  0  0  0  0  0  0  0  0  0
   -1.1101   18.1902  -31.2008 H   0  0  0  0  0  0  0  0  0  0  0  0
    0.1526   18.1248  -32.4849 H   0  0  0  0  0  0  0  0  0  0  0  0
    1.0008   18.8571  -30.2027 H   0  0  0  0  0  0  0  0  0  0  0  0
    1.3144   20.0255  -31.5427 H   0  0  0  0  0  0  0  0  0  0  0  0
    0.2350   20.9410  -29.2730 H   0  0  0  0  0  0  0  0  0  0  0  0
   -4.1843   24.1476  -27.5978 H   0  0  0  0  0  0  0  0  0  0  0  0
   -5.5688   24.4974  -28.6876 H   0  0  0  0  0  0  0  0  0  0  0  0
   -4.8155   22.8667  -28.6876 H   0  0  0  0  0  0  0  0  0  0  0  0
   -3.3683   21.2299  -33.4460 H   0  0  0  0  0  0  0  0  0  0  0  0
   -4.1077   19.4752  -34.4730 H   0  0  0  0  0  0  0  0  0  0  0  0
   -5.8811   21.0922  -32.8476 H   0  0  0  0  0  0  0  0  0  0  0  0
  1  2  1  0
  2  3  2  0
  3  4  1  0
  4  5  2  0
  5  6  1  0
  6  7  1  0
  7  8  2  0
  7  9  1  0
  9 10  1  0
 10 11  2  0
 11 12  1  0
 12 13  2  0
 13 14  1  0
 13 15  1  0
 15 16  1  0
 16 17  1  0
 17 18  2  0
 17 19  1  0
 19 20  1  0
 20 21  1  0
 21 22  1  0
 22 23  1  0
 23 24  2  0
 24 25  1  0
 25 26  1  0
 26 27  1  0
 26 28  2  0
 26 29  2  0
 25 30  2  0
 30 31  1  0
 31 32  2  0
 15 33  2  0
  6 34  2  0
 34  2  1  0
 33 10  1  0
 32 19  1  0
 32 23  1  0
  1 35  1  0
  1 36  1  0
  1 37  1  0
  3 38  1  0
  4 39  1  0
  5 40  1  0
 11 41  1  0
 12 42  1  0
 14 43  1  0
 14 44  1  0
 14 45  1  0
 20 46  1  0
 20 47  1  0
 21 48  1  0
 21 49  1  0
 22 50  1  0
 27 51  1  0
 27 52  1  0
 27 53  1  0
 31 54  1  0
 33 55  1  0
 34 56  1  0
M  CHG  2   9  -1  16  -1
M  END
>  <UniqueID>  (3) 
3

>  <SMILES>  (3) 
Cc1cccc(C(=O)[N-]c2ccc(C)c([N-]C(=O)N3CCNc4nc(S(C)(=O)=O)ncc43)c2)c1

>  <Energy>  (3) 
72.6885412409771

>  <Genealogy>  (3) 
Cc1cccc(C(=O)[N-]c2ccc(C)c([N-]C(=O)N3CCNc4nc(S(C)(=O)=O)ncc43)c2)c1 (protonated)
Cc1cccc(C(=O)[N-]c2ccc(C)c([N-]C(=O)N3CCNc4nc(S(C)(=O)=O)ncc43)c2)c1 (3D coordinates assigned)
Cc1cccc(C(=O)[N-]c2ccc(C)c([N-]C(=O)N3CCNc4nc(S(C)(=O)=O)ncc43)c2)c1 (nonaromatic ring conformer: 72.6885412409771 kcal/mol)

>  <smiles>  (3) 
Cc1cccc(C(=O)Nc2ccc(C)c(NC(=O)N3CCNc4nc(S(C)(=O)=O)ncc43)c2)c1

>  <score_type>  (3) 
oracle

>  <origin>  (3) 
adgpu

>  <m_score__min__energy>  (3) 
-11.92

>  <m_primary>  (3) 
energy

$$$$
3:0
     RDKit          3D

 52 55  0  0  0  0  0  0  0  0999 V2000
   -6.4120   17.8220  -30.7320 O   0  0  0  0  0  0  0  0  0  0  0  0
   -6.4280   18.5260  -31.7780 C   0  0  0  0  0  0  0  0  0  0  0  0
   -7.2850   19.7290  -31.8180 C   0  0  0  0  0  0  0  0  0  0  0  0
   -8.6770   19.5560  -31.8560 C   0  0  0  0  0  0  0  0  0  0  0  0
   -9.5290   20.6610  -31.8970 C   0  0  0  0  0  0  0  0  0  0  0  0
   -8.9990   21.9500  -31.8960 C   0  0  0  0  0  0  0  0  0  0  0  0
   -7.6170   22.1390  -31.8490 C   0  0  0  0  0  0  0  0  0  0  0  0
   -6.7440   21.0390  -31.8130 C   0  0  0  0  0  0  0  0  0  0  0  0
   -4.9990   21.3210  -31.6880 S   0  0  0  0  0  0  0  0  0  0  0  0
   -4.3660   21.2530  -33.0490 O   0  0  0  0  0  0  0  0  0  0  0  0
   -4.3910   20.2540  -30.8210 O   0  0  0  0  0  0  0  0  0  0  0  0
   -4.6710   22.8680  -30.9700 N   0  0  0  0  0  0  0  0  0  0  0  0
   -5.5610   23.8640  -30.8350 C   0  0  0  0  0  0  0  0  0  0  0  0
   -4.9220   24.9320  -30.2500 C   0  0  0  0  0  0  0  0  0  0  0  0
   -3.6310   24.6170  -30.0180 N   0  0  0  0  0  0  0  0  0  0  0  0
   -3.5120   23.3520  -30.4730 C   0  0  0  0  0  0  0  0  0  0  0  0
   -1.9890   22.4690  -30.3940 S   0  0  0  0  0  0  0  0  0  0  0  0
   -1.7240   21.8280  -31.7270 O   0  0  0  0  0  0  0  0  0  0  0  0
   -0.8750   23.4320  -30.0930 O   0  0  0  0  0  0  0  0  0  0  0  0
   -2.0490   21.2500  -29.1250 C   0  0  0  0  0  0  0  0  0  0  0  0
   -1.0770   20.2410  -29.0690 C   0  0  0  0  0  0  0  0  0  0  0  0
   -1.1300   19.2690  -28.0650 C   0  0  0  0  0  0  0  0  0  0  0  0
   -2.1510   19.3050  -27.1100 C   0  0  0  0  0  0  0  0  0  0  0  0
   -2.2020   18.3620  -26.1360 F   0  0  0  0  0  0  0  0  0  0  0  0
   -3.1170   20.3140  -27.1570 C   0  0  0  0  0  0  0  0  0  0  0  0
   -3.0660   21.2870  -28.1600 C   0  0  0  0  0  0  0  0  0  0  0  0
   -5.5950   18.1660  -32.8990 N   0  0  0  0  0  0  0  0  0  0  0  0
   -5.9120   18.6630  -34.2490 C   0  0  0  0  0  0  0  0  0  0  0  0
   -5.3880   17.7060  -35.3240 C   0  0  0  0  0  0  0  0  0  0  0  0
   -3.8780   17.4430  -35.1810 C   0  0  0  0  0  0  0  0  0  0  0  0
   -3.3770   17.4790  -33.7240 C   0  0  0  0  0  0  0  0  0  0  0  0
   -4.4940   17.2100  -32.7110 C   0  0  0  0  0  0  0  0  0  0  0  0
   -9.1005   18.5408  -31.8535 H   0  0  0  0  0  0  0  0  0  0  0  0
  -10.6187   20.5144  -31.9301 H   0  0  0  0  0  0  0  0  0  0  0  0
   -9.6712   22.8200  -31.9323 H   0  0  0  0  0  0  0  0  0  0  0  0
   -7.2072   23.1598  -31.8401 H   0  0  0  0  0  0  0  0  0  0  0  0
   -6.6176   23.8315  -31.1394 H   0  0  0  0  0  0  0  0  0  0  0  0
   -5.3922   25.8966  -30.0080 H   0  0  0  0  0  0  0  0  0  0  0  0
   -0.2707   20.2139  -29.8167 H   0  0  0  0  0  0  0  0  0  0  0  0
   -0.3686   18.4761  -28.0264 H   0  0  0  0  0  0  0  0  0  0  0  0
   -3.9184   20.3427  -26.4040 H   0  0  0  0  0  0  0  0  0  0  0  0
   -3.8248   22.0827  -28.1922 H   0  0  0  0  0  0  0  0  0  0  0  0
   -7.0033   18.7556  -34.3510 H   0  0  0  0  0  0  0  0  0  0  0  0
   -5.4276   19.6412  -34.3847 H   0  0  0  0  0  0  0  0  0  0  0  0
   -5.9240   16.7493  -35.2386 H   0  0  0  0  0  0  0  0  0  0  0  0
   -5.5583   18.1736  -36.3050 H   0  0  0  0  0  0  0  0  0  0  0  0
   -3.6575   16.4498  -35.5994 H   0  0  0  0  0  0  0  0  0  0  0  0
   -3.3592   18.2502  -35.7188 H   0  0  0  0  0  0  0  0  0  0  0  0
   -2.5972   16.7131  -33.6004 H   0  0  0  0  0  0  0  0  0  0  0  0
   -2.9873   18.4892  -33.5302 H   0  0  0  0  0  0  0  0  0  0  0  0
   -4.8735   16.1873  -32.8524 H   0  0  0  0  0  0  0  0  0  0  0  0
   -4.0901   17.3251  -31.6943 H   0  0  0  0  0  0  0  0  0  0  0  0
  1  2  2  0
  2  3  1  0
  3  4  2  0
  4  5  1  0
  5  6  2  0
  6  7  1  0
  7  8  2  0
  8  9  1  0
  9 10  2  0
  9 11  2  0
  9 12  1  0
 12 13  1  0
 13 14  2  0
 14 15  1  0
 15 16  2  0
 16 17  1  0
 17 18  2  0
 17 19  2  0
 17 20  1  0
 20 21  2  0
 21 22  1  0
 22 23  2  0
 23 24  1  0
 23 25  1  0
 25 26  2  0
  2 27  1  0
 27 28  1  0
 28 29  1  0
 29 30  1  0
 30 31  1  0
 31 32  1  0
  8  3  1  0
 16 12  1  0
 26 20  1  0
 32 27  1  0
  4 33  1  0
  5 34  1  0
  6 35  1  0
  7 36  1  0
 13 37  1  0
 14 38  1  0
 21 39  1  0
 22 40  1  0
 25 41  1  0
 26 42  1  0
 28 43  1  0
 28 44  1  0
 29 45  1  0
 29 46  1  0
 30 47  1  0
 30 48  1  0
 31 49  1  0
 31 50  1  0
 32 51  1  0
 32 52  1  0
M  END
>  <UniqueID>  (4) 
4

>  <SMILES>  (4) 
O=C(c1ccccc1S(=O)(=O)n1ccnc1S(=O)(=O)c1ccc(F)cc1)N1CCCCC1

>  <Energy>  (4) 
96.8261724628522

>  <Genealogy>  (4) 
O=C(c1ccccc1S(=O)(=O)n1ccnc1S(=O)(=O)c1ccc(F)cc1)N1CCCCC1 (3D coordinates assigned)
O=C(c1ccccc1S(=O)(=O)n1ccnc1S(=O)(=O)c1ccc(F)cc1)N1CCCCC1 (nonaromatic ring conformer: 96.8261724628522 kcal/mol)

>  <smiles>  (4) 
O=C(c1ccccc1S(=O)(=O)n1ccnc1S(=O)(=O)c1ccc(F)cc1)N1CCCCC1

>  <score_type>  (4) 
oracle

>  <origin>  (4) 
adgpu

>  <m_score__min__energy>  (4) 
-9.8300000000000001

>  <m_primary>  (4) 
energy

$$$$
4:0
     RDKit          3D

 53 56  0  0  0  0  0  0  0  0999 V2000
   -3.2930   16.4290  -32.8770 O   0  0  0  0  0  0  0  0  0  0  0  0
   -2.7620   17.5690  -32.9800 C   0  0  0  0  0  0  0  0  0  0  0  0
   -1.3170   17.7250  -32.7000 C   0  0  0  0  0  0  0  0  0  0  0  0
   -0.3890   16.8310  -33.2540 C   0  0  0  0  0  0  0  0  0  0  0  0
    0.9750   16.9840  -33.0030 C   0  0  0  0  0  0  0  0  0  0  0  0
    1.4360   18.0280  -32.1880 C   0  0  0  0  0  0  0  0  0  0  0  0
    2.8070   18.1840  -31.9870 O   0  0  0  0  0  0  0  0  0  0  0  0
    0.5080   18.9210  -31.6070 C   0  0  0  0  0  0  0  0  0  0  0  0
    0.8990   19.9860  -30.7300 N   0  0  0  0  0  0  0  0  0  0  0  0
    0.1370   20.3990  -29.2280 S   0  0  0  0  0  0  0  0  0  0  0  0
   -0.7790   19.2860  -28.7980 O   0  0  0  0  0  0  0  0  0  0  0  0
    1.1970   20.6260  -28.1850 O   0  0  0  0  0  0  0  0  0  0  0  0
   -0.8310   21.8600  -29.4310 C   0  0  0  0  0  0  0  0  0  0  0  0
   -2.0350   21.8070  -30.1520 C   0  0  0  0  0  0  0  0  0  0  0  0
   -2.8240   22.9530  -30.2920 C   0  0  0  0  0  0  0  0  0  0  0  0
   -2.4210   24.1590  -29.7100 C   0  0  0  0  0  0  0  0  0  0  0  0
   -3.2090   25.2960  -29.8490 O   0  0  0  0  0  0  0  0  0  0  0  0
   -1.2250   24.2200  -28.9870 C   0  0  0  0  0  0  0  0  0  0  0  0
   -0.4330   23.0760  -28.8410 C   0  0  0  0  0  0  0  0  0  0  0  0
    0.7440   23.1540  -28.1060 O   0  0  0  0  0  0  0  0  0  0  0  0
   -0.8540   18.7840  -31.9020 C   0  0  0  0  0  0  0  0  0  0  0  0
   -3.5750   18.6920  -33.3680 N   0  0  0  0  0  0  0  0  0  0  0  0
   -4.5150   18.5600  -34.4890 C   0  0  0  0  0  0  0  0  0  0  0  0
   -5.9220   18.9870  -34.0520 C   0  0  0  0  0  0  0  0  0  0  0  0
   -5.8920   20.2300  -33.2650 N   0  0  0  0  0  0  0  0  0  0  0  0
   -7.1140   20.7520  -32.7070 C   0  0  0  0  0  0  0  0  0  0  0  0
   -8.2710   19.9550  -32.6500 C   0  0  0  0  0  0  0  0  0  0  0  0
   -9.4530   20.4650  -32.1050 C   0  0  0  0  0  0  0  0  0  0  0  0
   -9.4890   21.7730  -31.6120 C   0  0  0  0  0  0  0  0  0  0  0  0
   -8.3440   22.5700  -31.6610 C   0  0  0  0  0  0  0  0  0  0  0  0
   -7.1600   22.0630  -32.2030 C   0  0  0  0  0  0  0  0  0  0  0  0
   -4.6160   20.9200  -33.0350 C   0  0  0  0  0  0  0  0  0  0  0  0
   -3.5650   19.9180  -32.5500 C   0  0  0  0  0  0  0  0  0  0  0  0
   -0.7386   16.0044  -33.8901 H   0  0  0  0  0  0  0  0  0  0  0  0
    1.6941   16.2804  -33.4477 H   0  0  0  0  0  0  0  0  0  0  0  0
    3.1780   18.9200  -31.3970 H   0  0  0  0  0  0  0  0  0  0  0  0
   -2.3588   20.8600  -30.6085 H   0  0  0  0  0  0  0  0  0  0  0  0
   -3.7640   22.9057  -30.8614 H   0  0  0  0  0  0  0  0  0  0  0  0
   -0.9065   25.1696  -28.5322 H   0  0  0  0  0  0  0  0  0  0  0  0
   -1.5715   19.5162  -31.5031 H   0  0  0  0  0  0  0  0  0  0  0  0
   -4.1824   19.1999  -35.3196 H   0  0  0  0  0  0  0  0  0  0  0  0
   -4.5427   17.5092  -34.8130 H   0  0  0  0  0  0  0  0  0  0  0  0
   -6.5407   19.1465  -34.9474 H   0  0  0  0  0  0  0  0  0  0  0  0
   -6.3421   18.1905  -33.4203 H   0  0  0  0  0  0  0  0  0  0  0  0
   -8.2459   18.9253  -33.0361 H   0  0  0  0  0  0  0  0  0  0  0  0
  -10.3552   19.8370  -32.0640 H   0  0  0  0  0  0  0  0  0  0  0  0
  -10.4201   22.1742  -31.1853 H   0  0  0  0  0  0  0  0  0  0  0  0
   -8.3738   23.5986  -31.2724 H   0  0  0  0  0  0  0  0  0  0  0  0
   -6.2592   22.6934  -32.2353 H   0  0  0  0  0  0  0  0  0  0  0  0
   -4.2755   21.3807  -33.9740 H   0  0  0  0  0  0  0  0  0  0  0  0
   -4.7564   21.6980  -32.2702 H   0  0  0  0  0  0  0  0  0  0  0  0
   -2.5703   20.3832  -32.6140 H   0  0  0  0  0  0  0  0  0  0  0  0
   -3.8007   19.6437  -31.5112 H   0  0  0  0  0  0  0  0  0  0  0  0
  1  2  2  0
  2  3  1  0
  3  4  2  0
  4  5  1  0
  5  6  2  0
  6  7  1  0
  6  8  1  0
  8  9  1  0
  9 10  1  0
 10 11  2  0
 10 12  2  0
 10 13  1  0
 13 14  2  0
 14 15  1  0
 15 16  2  0
 16 17  1  0
 16 18  1  0
 18 19  2  0
 19 20  1  0
  8 21  2  0
  2 22  1  0
 22 23  1  0
 23 24  1  0
 24 25  1  0
 25 26  1  0
 26 27  2  0
 27 28  1  0
 28 29  2  0
 29 30  1  0
 30 31  2  0
 25 32  1  0
 32 33  1  0
 21  3  1  0
 33 22  1  0
 19 13  1  0
 31 26  1  0
  4 34  1  0
  5 35  1  0
  7 36  1  0
 14 37  1  0
 15 38  1  0
 18 39  1  0
 21 40  1  0
 23 41  1  0
 23 42  1  0
 24 43  1  0
 24 44  1  0
 27 45  1  0
 28 46  1  0
 29 47  1  0
 30 48  1  0
 31 49  1  0
 32 50  1  0
 32 51  1  0
 33 52  1  0
 33 53  1  0
M  CHG  3   9  -1  17  -1  20  -1
M  END
>  <UniqueID>  (5) 
5

>  <SMILES>  (5) 
O=C(c1ccc(O)c([N-]S(=O)(=O)c2ccc([O-])cc2[O-])c1)N1CCN(c2ccccc2)CC1

>  <Energy>  (5) 
75.78566061901527

>  <Genealogy>  (5) 
O=C(c1ccc(O)c([N-]S(=O)(=O)c2ccc([O-])cc2[O-])c1)N1CCN(c2ccccc2)CC1 (protonated)
O=C(c1ccc(O)c([N-]S(=O)(=O)c2ccc([O-])cc2[O-])c1)N1CCN(c2ccccc2)CC1 (3D coordinates assigned)
O=C(c1ccc(O)c([N-]S(=O)(=O)c2ccc([O-])cc2[O-])c1)N1CCN(c2ccccc2)CC1 (nonaromatic ring conformer: 75.78566061901527 kcal/mol)

>  <smiles>  (5) 
O=C(c1ccc(O)c(NS(=O)(=O)c2ccc(O)cc2O)c1)N1CCN(c2ccccc2)CC1

>  <score_type>  (5) 
oracle

>  <origin>  (5) 
adgpu

>  <m_score__min__energy>  (5) 
-12.279999999999999

>  <m_primary>  (5) 
energy

$$$$
5:0
     RDKit          3D

 36 38  0  0  0  0  0  0  0  0999 V2000
   -1.6953   27.0815  -26.6258 H   0  0  0  0  0  0  0  0  0  0  0  0
   -0.6210   26.8500  -26.6740 C   0  0  0  0  0  0  0  0  0  0  0  0
    0.1016   27.4767  -26.1308 H   0  0  0  0  0  0  0  0  0  0  0  0
   -0.1940   25.8080  -27.3920 C   0  0  0  0  0  0  0  0  0  0  0  0
    1.1120   25.4770  -27.4870 N   0  0  0  0  0  0  0  0  0  0  0  0
    1.1870   24.4260  -28.2510 O   0  0  0  0  0  0  0  0  0  0  0  0
   -0.0020   24.0590  -28.6600 C   0  0  0  0  0  0  0  0  0  0  0  0
   -0.2070   23.0360  -29.3640 O   0  0  0  0  0  0  0  0  0  0  0  0
   -0.9590   24.9230  -28.1490 C   0  0  0  0  0  0  0  0  0  0  0  0
   -2.3000   24.9000  -28.2870 C   0  0  0  0  0  0  0  0  0  0  0  0
   -2.8871   25.6090  -27.6848 H   0  0  0  0  0  0  0  0  0  0  0  0
   -3.0360   23.9940  -29.1860 C   0  0  0  0  0  0  0  0  0  0  0  0
   -3.0720   22.6100  -29.1450 C   0  0  0  0  0  0  0  0  0  0  0  0
   -2.6250   21.9614  -28.3771 H   0  0  0  0  0  0  0  0  0  0  0  0
   -3.7820   22.2050  -30.2620 C   0  0  0  0  0  0  0  0  0  0  0  0
   -4.1140   20.7820  -30.5910 C   0  0  0  0  0  0  0  0  0  0  0  0
   -4.2470   20.2118  -29.6598 H   0  0  0  0  0  0  0  0  0  0  0  0
   -5.0441   20.7486  -31.1774 H   0  0  0  0  0  0  0  0  0  0  0  0
   -3.2947   20.3405  -31.1774 H   0  0  0  0  0  0  0  0  0  0  0  0
   -4.1660   23.2800  -30.9910 N   0  0  0  0  0  0  0  0  0  0  0  0
   -4.9740   23.2880  -32.2140 C   0  0  0  0  0  0  0  0  0  0  0  0
   -5.2109   24.3273  -32.4854 H   0  0  0  0  0  0  0  0  0  0  0  0
   -4.4034   22.8077  -33.0226 H   0  0  0  0  0  0  0  0  0  0  0  0
   -6.2540   22.5270  -32.0000 C   0  0  0  0  0  0  0  0  0  0  0  0
   -6.5070   21.3400  -32.7060 C   0  0  0  0  0  0  0  0  0  0  0  0
   -5.7715   20.9681  -33.4345 H   0  0  0  0  0  0  0  0  0  0  0  0
   -7.6910   20.6290  -32.4860 C   0  0  0  0  0  0  0  0  0  0  0  0
   -7.8856   19.7006  -33.0429 H   0  0  0  0  0  0  0  0  0  0  0  0
   -8.6270   21.0960  -31.5600 C   0  0  0  0  0  0  0  0  0  0  0  0
   -9.5568   20.5342  -31.3874 H   0  0  0  0  0  0  0  0  0  0  0  0
   -8.3830   22.2760  -30.8530 C   0  0  0  0  0  0  0  0  0  0  0  0
   -9.1215   22.6437  -30.1254 H   0  0  0  0  0  0  0  0  0  0  0  0
   -7.2000   22.9900  -31.0700 C   0  0  0  0  0  0  0  0  0  0  0  0
   -7.0095   23.9176  -30.5104 H   0  0  0  0  0  0  0  0  0  0  0  0
   -3.6970   24.3640  -30.3390 C   0  0  0  0  0  0  0  0  0  0  0  0
   -3.8650   25.6720  -30.7800 O   0  0  0  0  0  0  0  0  0  0  0  0
  1  2  1  0
  2  3  1  0
  2  4  2  0
  4  5  1  0
  5  6  1  0
  6  7  1  0
  7  8  2  0
  7  9  1  0
  9 10  2  0
 10 11  1  0
 10 12  1  0
 12 13  1  0
 13 14  1  0
 13 15  2  0
 15 16  1  0
 16 17  1  0
 16 18  1  0
 16 19  1  0
 15 20  1  0
 20 21  1  0
 21 22  1  0
 21 23  1  0
 21 24  1  0
 24 25  2  0
 25 26  1  0
 25 27  1  0
 27 28  1  0
 27 29  2  0
 29 30  1  0
 29 31  1  0
 31 32  1  0
 31 33  2  0
 33 34  1  0
 20 35  1  0
 35 36  1  0
  9  4  1  0
 35 12  2  0
 33 24  1  0
M  CHG  2   5  -1  36  -1
M  END
>  <UniqueID>  (6) 
6

>  <SMILES>  (6) 
C=c1[n-]oc(=O)/c1=C\c1cc(C)n(Cc2ccccc2)c1[O-]

>  <Energy>  (6) 
104.78770281141142

>  <Genealogy>  (6) 
C=c1[n-]oc(=O)c1=Cc1cc(C)n(Cc2ccccc2)c1[O-] (protonated)
C=c1[n-]oc(=O)/c1=C\c1cc(C)n(Cc2ccccc2)c1[O-] (cis-trans isomerization)
C=c1[n-]oc(=O)/c1=C\c1cc(C)n(Cc2ccccc2)c1[O-] (3D coordinates assigned)
C=c1[n-]oc(=O)/c1=C\c1cc(C)n(Cc2ccccc2)c1[O-] (optimized conformer: 104.78770281141142 kcal/mol)

>  <smiles>  (6) 
C=c1[nH]oc(=O)c1=Cc1cc(C)n(Cc2ccccc2)c1O

>  <score_type>  (6) 
oracle

>  <origin>  (6) 
adgpu

>  <m_score__min__energy>  (6) 
-11.33

>  <m_primary>  (6) 
energy

$$$$
6:0
     RDKit          3D

 42 44  0  0  0  0  0  0  0  0999 V2000
   -2.5890   21.0180  -32.9520 C   0  0  0  0  0  0  0  0  0  0  0  0
   -3.9330   20.6110  -32.3500 C   0  0  0  0  0  0  0  0  0  0  0  0
   -3.9140   20.6080  -30.8150 C   0  0  0  0  0  0  0  0  0  0  0  0
   -3.4060   21.9200  -30.2460 C   0  0  0  0  0  0  0  0  0  0  0  0
   -3.9580   23.1090  -30.7450 C   0  0  0  0  0  0  0  0  0  0  0  0
   -3.4910   24.3540  -30.3190 C   0  0  0  0  0  0  0  0  0  0  0  0
   -4.0460   25.5270  -30.8270 O   0  0  0  0  0  0  0  0  0  0  0  0
   -2.4620   24.4290  -29.3790 C   0  0  0  0  0  0  0  0  0  0  0  0
   -2.0150   25.6780  -28.9580 O   0  0  0  0  0  0  0  0  0  0  0  0
   -1.8920   23.2560  -28.8530 C   0  0  0  0  0  0  0  0  0  0  0  0
   -0.8120   23.3700  -27.8440 C   0  0  0  0  0  0  0  0  0  0  0  0
    0.4850   23.7460  -28.2310 C   0  0  0  0  0  0  0  0  0  0  0  0
    1.4960   23.8750  -27.2740 C   0  0  0  0  0  0  0  0  0  0  0  0
    1.2200   23.6220  -25.9270 C   0  0  0  0  0  0  0  0  0  0  0  0
   -0.0670   23.2410  -25.5350 C   0  0  0  0  0  0  0  0  0  0  0  0
   -1.0810   23.1140  -26.4890 C   0  0  0  0  0  0  0  0  0  0  0  0
   -2.3630   21.9880  -29.2830 C   0  0  0  0  0  0  0  0  0  0  0  0
   -1.7440   20.7550  -28.7430 C   0  0  0  0  0  0  0  0  0  0  0  0
   -2.3410   20.0760  -27.6690 C   0  0  0  0  0  0  0  0  0  0  0  0
   -1.7350   18.9340  -27.1340 C   0  0  0  0  0  0  0  0  0  0  0  0
   -0.5250   18.4720  -27.6600 C   0  0  0  0  0  0  0  0  0  0  0  0
    0.0770   17.3390  -27.1270 O   0  0  0  0  0  0  0  0  0  0  0  0
    0.0820   19.1530  -28.7210 C   0  0  0  0  0  0  0  0  0  0  0  0
   -0.5220   20.2930  -29.2580 C   0  0  0  0  0  0  0  0  0  0  0  0
   -1.8754   21.2341  -32.1433 H   0  0  0  0  0  0  0  0  0  0  0  0
   -2.2017   20.1969  -33.5731 H   0  0  0  0  0  0  0  0  0  0  0  0
   -2.7223   21.9161  -33.5731 H   0  0  0  0  0  0  0  0  0  0  0  0
   -4.7015   21.3199  -32.6917 H   0  0  0  0  0  0  0  0  0  0  0  0
   -4.1511   19.5856  -32.6831 H   0  0  0  0  0  0  0  0  0  0  0  0
   -4.9365   20.4350  -30.4483 H   0  0  0  0  0  0  0  0  0  0  0  0
   -3.2311   19.8104  -30.4870 H   0  0  0  0  0  0  0  0  0  0  0  0
   -4.7717   23.0598  -31.4836 H   0  0  0  0  0  0  0  0  0  0  0  0
   -3.8550   26.4300  -30.4080 H   0  0  0  0  0  0  0  0  0  0  0  0
    0.7060   23.9397  -29.2910 H   0  0  0  0  0  0  0  0  0  0  0  0
    2.5087   24.1756  -27.5809 H   0  0  0  0  0  0  0  0  0  0  0  0
    2.0162   23.7228  -25.1747 H   0  0  0  0  0  0  0  0  0  0  0  0
   -0.2818   23.0410  -24.4749 H   0  0  0  0  0  0  0  0  0  0  0  0
   -2.0922   22.8128  -26.1779 H   0  0  0  0  0  0  0  0  0  0  0  0
   -3.2881   20.4430  -27.2468 H   0  0  0  0  0  0  0  0  0  0  0  0
   -2.2111   18.3993  -26.2989 H   0  0  0  0  0  0  0  0  0  0  0  0
    1.0355   18.7907  -29.1328 H   0  0  0  0  0  0  0  0  0  0  0  0
   -0.0385   20.8304  -30.0871 H   0  0  0  0  0  0  0  0  0  0  0  0
  1  2  1  0
  2  3  1  0
  3  4  1  0
  4  5  2  0
  5  6  1  0
  6  7  1  0
  6  8  2  0
  8  9  1  0
  8 10  1  0
 10 11  1  0
 11 12  2  0
 12 13  1  0
 13 14  2  0
 14 15  1  0
 15 16  2  0
 10 17  2  0
 17 18  1  0
 18 19  2  0
 19 20  1  0
 20 21  2  0
 21 22  1  0
 21 23  1  0
 23 24  2  0
 17  4  1  0
 24 18  1  0
 16 11  1  0
  1 25  1  0
  1 26  1  0
  1 27  1  0
  2 28  1  0
  2 29  1  0
  3 30  1  0
  3 31  1  0
  5 32  1  0
  7 33  1  0
 12 34  1  0
 13 35  1  0
 14 36  1  0
 15 37  1  0
 16 38  1  0
 19 39  1  0
 20 40  1  0
 23 41  1  0
 24 42  1  0
M  CHG  2   9  -1  22  -1
M  END
>  <UniqueID>  (7) 
7

>  <SMILES>  (7) 
CCCc1cc(O)c([O-])c(-c2ccccc2)c1-c1ccc([O-])cc1

>  <Energy>  (7) 
55.36020553486287

>  <Genealogy>  (7) 
CCCc1cc(O)c([O-])c(-c2ccccc2)c1-c1ccc([O-])cc1 (protonated)
CCCc1cc(O)c([O-])c(-c2ccccc2)c1-c1ccc([O-])cc1 (3D coordinates assigned)
CCCc1cc(O)c([O-])c(-c2ccccc2)c1-c1ccc([O-])cc1 (optimized conformer: 55.36020553486287 kcal/mol)

>  <smiles>  (7) 
CCCc1cc(O)c(O)c(-c2ccccc2)c1-c1ccc(O)cc1

>  <score_type>  (7) 
oracle

>  <origin>  (7) 
adgpu

>  <m_score__min__energy>  (7) 
-10.76

>  <m_primary>  (7) 
energy

$$$$
7:0
     RDKit          3D

 45 48  0  0  0  0  0  0  0  0999 V2000
    1.0050   19.5170  -28.7650 C   0  0  0  0  0  0  0  0  0  0  0  0
   -0.3720   19.8050  -28.3360 N   0  0  0  0  0  0  0  0  0  0  0  0
   -1.0460   18.6040  -27.8390 C   0  0  0  0  0  0  0  0  0  0  0  0
   -2.1250   19.0860  -26.8930 C   0  0  0  0  0  0  0  0  0  0  0  0
   -1.5810   20.3790  -26.3150 C   0  0  0  0  0  0  0  0  0  0  0  0
   -0.4240   20.7870  -27.2400 C   0  0  2  0  0  0  0  0  0  0  0  0
   -0.6290   22.1830  -27.7990 C   0  0  0  0  0  0  0  0  0  0  0  0
   -1.7680   22.4640  -28.5760 C   0  0  0  0  0  0  0  0  0  0  0  0
   -2.0010   23.7560  -29.0710 C   0  0  0  0  0  0  0  0  0  0  0  0
   -3.2170   24.0050  -29.8710 C   0  0  0  0  0  0  0  0  0  0  0  0
   -3.9370   25.1020  -29.7520 O   0  0  0  0  0  0  0  0  0  0  0  0
   -4.9460   25.0270  -30.5860 C   0  0  0  0  0  0  0  0  0  0  0  0
   -5.9100   26.0160  -30.7330 O   0  0  0  0  0  0  0  0  0  0  0  0
   -4.8930   23.8530  -31.2940 C   0  0  0  0  0  0  0  0  0  0  0  0
   -5.7740   23.4720  -32.3050 O   0  0  0  0  0  0  0  0  0  0  0  0
   -3.7770   23.1720  -30.8410 C   0  0  0  0  0  0  0  0  0  0  0  0
   -3.2380   21.8980  -31.3620 C   0  0  0  0  0  0  0  0  0  0  0  0
   -4.0990   20.8230  -31.6400 C   0  0  0  0  0  0  0  0  0  0  0  0
   -3.5900   19.6250  -32.1510 C   0  0  0  0  0  0  0  0  0  0  0  0
   -2.2190   19.4920  -32.3880 C   0  0  0  0  0  0  0  0  0  0  0  0
   -1.3560   20.5560  -32.1160 C   0  0  0  0  0  0  0  0  0  0  0  0
   -1.8610   21.7560  -31.6060 C   0  0  0  0  0  0  0  0  0  0  0  0
   -1.0630   24.7720  -28.8150 C   0  0  0  0  0  0  0  0  0  0  0  0
   -1.2240   26.0440  -29.3530 O   0  0  0  0  0  0  0  0  0  0  0  0
    0.0610   24.5040  -28.0290 C   0  0  0  0  0  0  0  0  0  0  0  0
    0.2790   23.2220  -27.5150 C   0  0  0  0  0  0  0  0  0  0  0  0
    1.4020   22.9950  -26.7260 O   0  0  0  0  0  0  0  0  0  0  0  0
    1.6444   19.3833  -27.8800 H   0  0  0  0  0  0  0  0  0  0  0  0
    1.0164   18.5970  -29.3679 H   0  0  0  0  0  0  0  0  0  0  0  0
    1.3841   20.3553  -29.3679 H   0  0  0  0  0  0  0  0  0  0  0  0
   -1.4930   18.0445  -28.6740 H   0  0  0  0  0  0  0  0  0  0  0  0
   -0.3405   17.9293  -27.3319 H   0  0  0  0  0  0  0  0  0  0  0  0
   -3.0639   19.2687  -27.4362 H   0  0  0  0  0  0  0  0  0  0  0  0
   -2.3554   18.3458  -26.1126 H   0  0  0  0  0  0  0  0  0  0  0  0
   -2.3603   21.1553  -26.3088 H   0  0  0  0  0  0  0  0  0  0  0  0
   -1.2467   20.2523  -25.2747 H   0  0  0  0  0  0  0  0  0  0  0  0
    0.5197   20.8010  -26.6750 H   0  0  0  0  0  0  0  0  0  0  0  0
   -2.4852   21.6601  -28.7983 H   0  0  0  0  0  0  0  0  0  0  0  0
   -5.4910   23.4490  -33.2760 H   0  0  0  0  0  0  0  0  0  0  0  0
   -5.1786   20.9243  -31.4548 H   0  0  0  0  0  0  0  0  0  0  0  0
   -4.2690   18.7868  -32.3666 H   0  0  0  0  0  0  0  0  0  0  0  0
   -1.8194   18.5488  -32.7890 H   0  0  0  0  0  0  0  0  0  0  0  0
   -0.2773   20.4498  -32.3033 H   0  0  0  0  0  0  0  0  0  0  0  0
   -1.1781   22.5921  -31.3949 H   0  0  0  0  0  0  0  0  0  0  0  0
    0.7800   25.3080  -27.8129 H   0  0  0  0  0  0  0  0  0  0  0  0
  1  2  1  0
  2  3  1  0
  3  4  1  0
  4  5  1  0
  5  6  1  0
  6  7  1  0
  7  8  2  0
  8  9  1  0
  9 10  1  0
 10 11  1  0
 11 12  1  0
 12 13  1  0
 12 14  2  0
 14 15  1  0
 14 16  1  0
 16 17  1  0
 17 18  2  0
 18 19  1  0
 19 20  2  0
 20 21  1  0
 21 22  2  0
  9 23  2  0
 23 24  1  0
 23 25  1  0
 25 26  2  0
 26 27  1  0
  6  2  1  0
 26  7  1  0
 16 10  2  0
 22 17  1  0
  1 28  1  0
  1 29  1  0
  1 30  1  0
  3 31  1  0
  3 32  1  0
  4 33  1  0
  4 34  1  0
  5 35  1  0
  5 36  1  0
  6 37  1  1
  8 38  1  0
 15 39  1  0
 18 40  1  0
 19 41  1  0
 20 42  1  0
 21 43  1  0
 22 44  1  0
 25 45  1  0
M  CHG  3  13  -1  24  -1  27  -1
M  END
>  <UniqueID>  (8) 
8

>  <SMILES>  (8) 
CN1CCC[C@@H]1c1cc(-c2oc([O-])c(O)c2-c2ccccc2)c([O-])cc1[O-]

>  <Energy>  (8) 
90.87131880088717

>  <Genealogy>  (8) 
CN1CCCC1c1cc(-c2oc([O-])c(O)c2-c2ccccc2)c([O-])cc1[O-] (protonated)
CN1CCC[C@@H]1c1cc(-c2oc([O-])c(O)c2-c2ccccc2)c([O-])cc1[O-] (chirality)
CN1CCC[C@@H]1c1cc(-c2oc([O-])c(O)c2-c2ccccc2)c([O-])cc1[O-] (3D coordinates assigned)
CN1CCC[C@@H]1c1cc(-c2oc([O-])c(O)c2-c2ccccc2)c([O-])cc1[O-] (nonaromatic ring conformer: 90.87131880088717 kcal/mol)

>  <smiles>  (8) 
CN1CCCC1c1cc(-c2oc(O)c(O)c2-c2ccccc2)c(O)cc1O

>  <score_type>  (8) 
oracle

>  <origin>  (8) 
adgpu

>  <m_score__min__energy>  (8) 
-12.01

>  <m_primary>  (8) 
energy

$$$$
8:0
     RDKit          3D

 51 54  0  0  0  0  0  0  0  0999 V2000
   -8.3530   18.1820  -32.7200 C   0  0  0  0  0  0  0  0  0  0  0  0
   -7.9310   19.5050  -32.1640 C   0  0  0  0  0  0  0  0  0  0  0  0
   -8.7860   20.2210  -31.3190 C   0  0  0  0  0  0  0  0  0  0  0  0
   -8.3740   21.4510  -30.8100 C   0  0  0  0  0  0  0  0  0  0  0  0
   -7.1090   21.9660  -31.1470 C   0  0  0  0  0  0  0  0  0  0  0  0
   -6.6590   23.2040  -30.6600 C   0  0  0  0  0  0  0  0  0  0  0  0
   -7.3710   23.8660  -29.8540 O   0  0  0  0  0  0  0  0  0  0  0  0
   -5.4020   23.6920  -31.0580 C   0  0  0  0  0  0  0  0  0  0  0  0
   -4.9090   25.0200  -30.6210 C   0  0  0  0  0  0  0  0  0  0  0  0
   -5.7340   25.9480  -30.4100 O   0  0  0  0  0  0  0  0  0  0  0  0
   -3.5110   25.2840  -30.4490 N   0  0  0  0  0  0  0  0  0  0  0  0
   -2.6340   24.5100  -29.6180 C   0  0  0  0  0  0  0  0  0  0  0  0
   -2.8830   23.1410  -29.4630 C   0  0  0  0  0  0  0  0  0  0  0  0
   -2.0880   22.3670  -28.6070 C   0  0  0  0  0  0  0  0  0  0  0  0
   -2.4930   20.6820  -28.3030 S   0  0  0  0  0  0  0  0  0  0  0  0
   -3.1350   20.0970  -29.5290 O   0  0  0  0  0  0  0  0  0  0  0  0
   -3.4660   20.5900  -27.1590 O   0  0  0  0  0  0  0  0  0  0  0  0
   -1.0290   19.8050  -27.9370 N   0  0  0  0  0  0  0  0  0  0  0  0
   -1.3130   18.5940  -27.1680 C   0  0  0  0  0  0  0  0  0  0  0  0
   -0.1960   17.6100  -27.4790 C   0  0  0  0  0  0  0  0  0  0  0  0
    0.4320   18.1070  -28.7720 C   0  0  0  0  0  0  0  0  0  0  0  0
   -0.3580   19.3490  -29.1530 C   0  0  0  0  0  0  0  0  0  0  0  0
   -1.0180   22.9630  -27.9280 C   0  0  0  0  0  0  0  0  0  0  0  0
   -0.7370   24.3180  -28.1120 C   0  0  0  0  0  0  0  0  0  0  0  0
   -1.5370   25.0950  -28.9560 C   0  0  0  0  0  0  0  0  0  0  0  0
   -1.2250   26.4370  -29.1430 O   0  0  0  0  0  0  0  0  0  0  0  0
   -4.5960   22.8970  -31.8850 C   0  0  0  0  0  0  0  0  0  0  0  0
   -5.0290   21.6830  -32.3410 N   0  0  0  0  0  0  0  0  0  0  0  0
   -4.1600   20.8920  -33.2230 C   0  0  0  0  0  0  0  0  0  0  0  0
   -6.2710   21.2130  -32.0000 C   0  0  0  0  0  0  0  0  0  0  0  0
   -6.7090   20.0120  -32.4770 N   0  0  0  0  0  0  0  0  0  0  0  0
   -8.5736   17.4905  -31.8935 H   0  0  0  0  0  0  0  0  0  0  0  0
   -9.2535   18.3143  -33.3377 H   0  0  0  0  0  0  0  0  0  0  0  0
   -7.5422   17.7684  -33.3377 H   0  0  0  0  0  0  0  0  0  0  0  0
   -9.7752   19.8163  -31.0587 H   0  0  0  0  0  0  0  0  0  0  0  0
   -9.0389   22.0201  -30.1437 H   0  0  0  0  0  0  0  0  0  0  0  0
   -3.7083   22.6697  -30.0169 H   0  0  0  0  0  0  0  0  0  0  0  0
   -1.3288   18.8226  -26.0921 H   0  0  0  0  0  0  0  0  0  0  0  0
   -2.2952   18.1763  -27.4341 H   0  0  0  0  0  0  0  0  0  0  0  0
    0.5473   17.6027  -26.6681 H   0  0  0  0  0  0  0  0  0  0  0  0
   -0.5727   16.5811  -27.5764 H   0  0  0  0  0  0  0  0  0  0  0  0
    1.4912   18.3581  -28.6138 H   0  0  0  0  0  0  0  0  0  0  0  0
    0.3996   17.3430  -29.5627 H   0  0  0  0  0  0  0  0  0  0  0  0
    0.3198   20.1299  -29.5284 H   0  0  0  0  0  0  0  0  0  0  0  0
   -1.0847   19.1289  -29.9489 H   0  0  0  0  0  0  0  0  0  0  0  0
   -0.3971   22.3617  -27.2476 H   0  0  0  0  0  0  0  0  0  0  0  0
    0.1167   24.7762  -27.5913 H   0  0  0  0  0  0  0  0  0  0  0  0
   -3.5969   23.2566  -32.1722 H   0  0  0  0  0  0  0  0  0  0  0  0
   -3.4827   20.2755  -32.6137 H   0  0  0  0  0  0  0  0  0  0  0  0
   -4.7779   20.2399  -33.8578 H   0  0  0  0  0  0  0  0  0  0  0  0
   -3.5688   21.5683  -33.8578 H   0  0  0  0  0  0  0  0  0  0  0  0
  1  2  1  0
  2  3  2  0
  3  4  1  0
  4  5  2  0
  5  6  1  0
  6  7  2  0
  6  8  1  0
  8  9  1  0
  9 10  2  0
  9 11  1  0
 11 12  1  0
 12 13  2  0
 13 14  1  0
 14 15  1  0
 15 16  2  0
 15 17  2  0
 15 18  1  0
 18 19  1  0
 19 20  1  0
 20 21  1  0
 21 22  1  0
 14 23  2  0
 23 24  1  0
 24 25  2  0
 25 26  1  0
  8 27  2  0
 27 28  1  0
 28 29  1  0
 28 30  1  0
 30 31  2  0
 31  2  1  0
 30  5  1  0
 25 12  1  0
 22 18  1  0
  1 32  1  0
  1 33  1  0
  1 34  1  0
  3 35  1  0
  4 36  1  0
 13 37  1  0
 19 38  1  0
 19 39  1  0
 20 40  1  0
 20 41  1  0
 21 42  1  0
 21 43  1  0
 22 44  1  0
 22 45  1  0
 23 46  1  0
 24 47  1  0
 27 48  1  0
 29 49  1  0
 29 50  1  0
 29 51  1  0
M  CHG  2  11  -1  26  -1
M  END
>  <UniqueID>  (9) 
9

>  <SMILES>  (9) 
Cc1ccc2c(=O)c(C(=O)[N-]c3cc(S(=O)(=O)N4CCCC4)ccc3[O-])cn(C)c2n1

>  <Energy>  (9) 
69.33678430855645

>  <Genealogy>  (9) 
Cc1ccc2c(=O)c(C(=O)[N-]c3cc(S(=O)(=O)N4CCCC4)ccc3[O-])cn(C)c2n1 (protonated)
Cc1ccc2c(=O)c(C(=O)[N-]c3cc(S(=O)(=O)N4CCCC4)ccc3[O-])cn(C)c2n1 (3D coordinates assigned)
Cc1ccc2c(=O)c(C(=O)[N-]c3cc(S(=O)(=O)N4CCCC4)ccc3[O-])cn(C)c2n1 (nonaromatic ring conformer: 69.33678430855645 kcal/mol)

>  <smiles>  (9) 
Cc1ccc2c(=O)c(C(=O)Nc3cc(S(=O)(=O)N4CCCC4)ccc3O)cn(C)c2n1

>  <score_type>  (9) 
oracle

>  <origin>  (9) 
adgpu

>  <m_score__min__energy>  (9) 
-14.390000000000001

>  <m_primary>  (9) 
energy

$$$$
9:0
     RDKit          3D

 46 48  0  0  0  0  0  0  0  0999 V2000
    2.0120   19.1550  -27.8360 C   0  0  0  0  0  0  0  0  0  0  0  0
    1.1660   18.4240  -28.7950 N   0  0  0  0  0  0  0  0  0  0  0  0
    0.0830   17.6800  -28.1180 C   0  0  0  0  0  0  0  0  0  0  0  0
   -0.9590   18.6270  -27.4990 C   0  0  0  0  0  0  0  0  0  0  0  0
   -1.2220   19.7660  -28.3820 N   0  0  0  0  0  0  0  0  0  0  0  0
   -2.0970   20.8160  -27.9300 C   0  0  0  0  0  0  0  0  0  0  0  0
   -3.0700   20.5300  -27.1810 O   0  0  0  0  0  0  0  0  0  0  0  0
   -1.8690   22.2300  -28.3080 C   0  0  0  0  0  0  0  0  0  0  0  0
   -0.7900   22.9440  -27.7620 C   0  0  0  0  0  0  0  0  0  0  0  0
   -0.5780   24.2810  -28.1080 C   0  0  0  0  0  0  0  0  0  0  0  0
   -1.4380   24.9190  -29.0060 C   0  0  0  0  0  0  0  0  0  0  0  0
   -1.2140   26.2490  -29.3420 O   0  0  0  0  0  0  0  0  0  0  0  0
   -2.5130   24.2130  -29.5670 C   0  0  0  0  0  0  0  0  0  0  0  0
   -3.4270   24.8580  -30.4530 N   0  0  0  0  0  0  0  0  0  0  0  0
   -5.1150   24.4860  -30.3950 S   0  0  0  0  0  0  0  0  0  0  0  0
   -5.8980   25.6620  -30.9080 O   0  0  0  0  0  0  0  0  0  0  0  0
   -5.5350   24.2160  -28.9780 O   0  0  0  0  0  0  0  0  0  0  0  0
   -5.4260   23.0660  -31.3980 C   0  0  0  0  0  0  0  0  0  0  0  0
   -4.3500   22.4190  -32.0220 C   0  0  0  0  0  0  0  0  0  0  0  0
   -4.5710   21.3220  -32.8580 C   0  0  0  0  0  0  0  0  0  0  0  0
   -3.5170   20.7170  -33.4600 F   0  0  0  0  0  0  0  0  0  0  0  0
   -5.8780   20.8610  -33.0810 C   0  0  0  0  0  0  0  0  0  0  0  0
   -6.1230   19.7740  -33.9170 O   0  0  0  0  0  0  0  0  0  0  0  0
   -6.9530   21.5040  -32.4600 C   0  0  0  0  0  0  0  0  0  0  0  0
   -6.7340   22.6080  -31.6290 C   0  0  0  0  0  0  0  0  0  0  0  0
   -7.8010   23.2350  -31.0720 F   0  0  0  0  0  0  0  0  0  0  0  0
   -2.7140   22.8690  -29.2330 C   0  0  0  0  0  0  0  0  0  0  0  0
   -0.8070   19.6840  -29.7860 C   0  0  0  0  0  0  0  0  0  0  0  0
    0.6830   19.3030  -29.8910 C   0  0  0  0  0  0  0  0  0  0  0  0
    1.7117   18.8955  -26.8101 H   0  0  0  0  0  0  0  0  0  0  0  0
    3.0653   18.8781  -27.9909 H   0  0  0  0  0  0  0  0  0  0  0  0
    1.8908   20.2373  -27.9909 H   0  0  0  0  0  0  0  0  0  0  0  0
   -0.4169   17.0316  -28.8526 H   0  0  0  0  0  0  0  0  0  0  0  0
    0.5305   17.0864  -27.3072 H   0  0  0  0  0  0  0  0  0  0  0  0
   -1.8959   18.0741  -27.3360 H   0  0  0  0  0  0  0  0  0  0  0  0
   -0.5650   19.0065  -26.5447 H   0  0  0  0  0  0  0  0  0  0  0  0
   -0.1071   22.4473  -27.0571 H   0  0  0  0  0  0  0  0  0  0  0  0
    0.2680   24.8328  -27.6724 H   0  0  0  0  0  0  0  0  0  0  0  0
   -3.3242   22.7779  -31.8520 H   0  0  0  0  0  0  0  0  0  0  0  0
   -6.9940   19.6780  -34.4270 H   0  0  0  0  0  0  0  0  0  0  0  0
   -7.9775   21.1395  -32.6258 H   0  0  0  0  0  0  0  0  0  0  0  0
   -3.5387   22.3084  -29.6972 H   0  0  0  0  0  0  0  0  0  0  0  0
   -1.4120   18.9210  -30.2976 H   0  0  0  0  0  0  0  0  0  0  0  0
   -0.9554   20.6668  -30.2572 H   0  0  0  0  0  0  0  0  0  0  0  0
    0.8388   18.7804  -30.8463 H   0  0  0  0  0  0  0  0  0  0  0  0
    1.2545   20.2402  -29.8194 H   0  0  0  0  0  0  0  0  0  0  0  0
  1  2  1  0
  2  3  1  0
  3  4  1  0
  4  5  1  0
  5  6  1  0
  6  7  2  0
  6  8  1  0
  8  9  2  0
  9 10  1  0
 10 11  2  0
 11 12  1  0
 11 13  1  0
 13 14  1  0
 14 15  1  0
 15 16  2  0
 15 17  2  0
 15 18  1  0
 18 19  2  0
 19 20  1  0
 20 21  1  0
 20 22  2  0
 22 23  1  0
 22 24  1  0
 24 25  2  0
 25 26  1  0
 13 27  2  0
  5 28  1  0
 28 29  1  0
 29  2  1  0
 27  8  1  0
 25 18  1  0
  1 30  1  0
  1 31  1  0
  1 32  1  0
  3 33  1  0
  3 34  1  0
  4 35  1  0
  4 36  1  0
  9 37  1  0
 10 38  1  0
 19 39  1  0
 23 40  1  0
 24 41  1  0
 27 42  1  0
 28 43  1  0
 28 44  1  0
 29 45  1  0
 29 46  1  0
M  CHG  2  12  -1  14  -1
M  END
>  <UniqueID>  (10) 
10

>  <SMILES>  (10) 
CN1CCN(C(=O)c2ccc([O-])c([N-]S(=O)(=O)c3cc(F)c(O)cc3F)c2)CC1

>  <Energy>  (10) 
65.68644724625449

>  <Genealogy>  (10) 
CN1CCN(C(=O)c2ccc([O-])c([N-]S(=O)(=O)c3cc(F)c(O)cc3F)c2)CC1 (protonated)
CN1CCN(C(=O)c2ccc([O-])c([N-]S(=O)(=O)c3cc(F)c(O)cc3F)c2)CC1 (3D coordinates assigned)
CN1CCN(C(=O)c2ccc([O-])c([N-]S(=O)(=O)c3cc(F)c(O)cc3F)c2)CC1 (nonaromatic ring conformer: 65.68644724625449 kcal/mol)

>  <smiles>  (10) 
CN1CCN(C(=O)c2ccc(O)c(NS(=O)(=O)c3cc(F)c(O)cc3F)c2)CC1

>  <score_type>  (10) 
oracle

>  <origin>  (10) 
adgpu

>  <m_score__min__energy>  (10) 
-12.92

>  <m_primary>  (10) 
energy

$$$$
10:0
     RDKit          3D

 31 32  0  0  0  0  0  0  0  0999 V2000
   -6.8520   16.9960  -33.5130 C   0  0  0  0  0  0  0  0  0  0  0  0
   -6.3550   18.3980  -33.3700 C   0  0  0  0  0  0  0  0  0  0  0  0
   -4.8300   18.9330  -33.8330 S   0  0  0  0  0  0  0  0  0  0  0  0
   -5.0530   20.5430  -33.4060 C   0  0  0  0  0  0  0  0  0  0  0  0
   -6.3420   20.6910  -32.8960 C   0  0  0  0  0  0  0  0  0  0  0  0
   -6.8820   22.0150  -32.4330 C   0  0  0  0  0  0  0  0  0  0  0  0
   -5.5230   23.1680  -32.0260 S   0  0  0  0  0  0  0  0  0  0  0  0
   -5.8070   23.2380  -30.2190 C   0  0  0  0  0  0  0  0  0  0  0  0
   -4.5130   23.4550  -29.4740 C   0  0  0  0  0  0  0  0  0  0  0  0
   -4.1620   22.5670  -28.4410 C   0  0  0  0  0  0  0  0  0  0  0  0
   -2.9800   22.7450  -27.7200 C   0  0  0  0  0  0  0  0  0  0  0  0
   -2.1310   23.8110  -28.0200 C   0  0  0  0  0  0  0  0  0  0  0  0
   -2.4600   24.7000  -29.0460 C   0  0  0  0  0  0  0  0  0  0  0  0
   -1.6030   25.7560  -29.3380 O   0  0  0  0  0  0  0  0  0  0  0  0
   -3.6440   24.5330  -29.7800 C   0  0  0  0  0  0  0  0  0  0  0  0
   -3.9240   25.4460  -30.7990 O   0  0  0  0  0  0  0  0  0  0  0  0
   -7.0730   19.4860  -32.8780 C   0  0  0  0  0  0  0  0  0  0  0  0
   -8.4300   19.3800  -32.4000 C   0  0  0  0  0  0  0  0  0  0  0  0
   -9.5190   19.2970  -32.0170 N   0  0  0  0  0  0  0  0  0  0  0  0
   -7.0071   16.5585  -32.5158 H   0  0  0  0  0  0  0  0  0  0  0  0
   -7.8039   16.9988  -34.0643 H   0  0  0  0  0  0  0  0  0  0  0  0
   -6.1108   16.3987  -34.0643 H   0  0  0  0  0  0  0  0  0  0  0  0
   -4.3075   21.3450  -33.5112 H   0  0  0  0  0  0  0  0  0  0  0  0
   -7.4978   22.4522  -33.2327 H   0  0  0  0  0  0  0  0  0  0  0  0
   -7.4863   21.8510  -31.5286 H   0  0  0  0  0  0  0  0  0  0  0  0
   -6.4939   24.0675  -29.9951 H   0  0  0  0  0  0  0  0  0  0  0  0
   -6.2398   22.2797  -29.8959 H   0  0  0  0  0  0  0  0  0  0  0  0
   -4.8257   21.7238  -28.1989 H   0  0  0  0  0  0  0  0  0  0  0  0
   -2.7174   22.0439  -26.9141 H   0  0  0  0  0  0  0  0  0  0  0  0
   -1.2019   23.9514  -27.4481 H   0  0  0  0  0  0  0  0  0  0  0  0
   -3.3170   25.5980  -31.5940 H   0  0  0  0  0  0  0  0  0  0  0  0
  1  2  1  0
  2  3  1  0
  3  4  1  0
  4  5  2  0
  5  6  1  0
  6  7  1  0
  7  8  1  0
  8  9  1  0
  9 10  2  0
 10 11  1  0
 11 12  2  0
 12 13  1  0
 13 14  1  0
 13 15  2  0
 15 16  1  0
  5 17  1  0
 17 18  1  0
 18 19  3  0
 17  2  2  0
 15  9  1  0
  1 20  1  0
  1 21  1  0
  1 22  1  0
  4 23  1  0
  6 24  1  0
  6 25  1  0
  8 26  1  0
  8 27  1  0
 10 28  1  0
 11 29  1  0
 12 30  1  0
 16 31  1  0
M  CHG  1  14  -1
M  END
>  <UniqueID>  (11) 
11

>  <SMILES>  (11) 
Cc1scc(CSCc2cccc([O-])c2O)c1C#N

>  <Energy>  (11) 
53.08603602936572

>  <Genealogy>  (11) 
Cc1scc(CSCc2cccc([O-])c2O)c1C#N (protonated)
Cc1scc(CSCc2cccc([O-])c2O)c1C#N (3D coordinates assigned)
Cc1scc(CSCc2cccc([O-])c2O)c1C#N (optimized conformer: 53.08603602936572 kcal/mol)

>  <smiles>  (11) 
Cc1scc(CSCc2cccc(O)c2O)c1C#N

>  <score_type>  (11) 
oracle

>  <origin>  (11) 
adgpu

>  <m_score__min__energy>  (11) 
-12.199999999999999

>  <m_primary>  (11) 
energy

$$$$
11:0
     RDKit          3D

 48 51  0  0  0  0  0  0  0  0999 V2000
   -2.7450   19.4880  -26.7130 C   0  0  0  0  0  0  0  0  0  0  0  0
   -1.5730   19.8190  -27.5430 N   0  0  0  0  0  0  0  0  0  0  0  0
   -0.5800   20.6030  -26.7550 C   0  0  0  0  0  0  0  0  0  0  0  0
    0.2240   21.6000  -27.5990 C   0  0  0  0  0  0  0  0  0  0  0  0
   -0.7360   22.4870  -28.3290 C   0  0  0  0  0  0  0  0  0  0  0  0
   -0.5350   23.8690  -28.4370 C   0  0  0  0  0  0  0  0  0  0  0  0
   -1.4570   24.6600  -29.1380 C   0  0  0  0  0  0  0  0  0  0  0  0
   -1.2590   26.0350  -29.2500 O   0  0  0  0  0  0  0  0  0  0  0  0
   -2.5810   24.0700  -29.7380 C   0  0  0  0  0  0  0  0  0  0  0  0
   -3.4970   24.9050  -30.4600 N   0  0  0  0  0  0  0  0  0  0  0  0
   -5.2200   24.9370  -30.2390 S   0  0  0  0  0  0  0  0  0  0  0  0
   -5.5410   24.9420  -28.7700 O   0  0  0  0  0  0  0  0  0  0  0  0
   -5.7700   26.1960  -30.8510 O   0  0  0  0  0  0  0  0  0  0  0  0
   -5.9480   23.5490  -31.0430 C   0  0  0  0  0  0  0  0  0  0  0  0
   -5.1430   22.6820  -31.7890 C   0  0  0  0  0  0  0  0  0  0  0  0
   -5.6990   21.5590  -32.4060 C   0  0  0  0  0  0  0  0  0  0  0  0
   -7.0670   21.2790  -32.2680 C   0  0  0  0  0  0  0  0  0  0  0  0
   -7.8880   22.1630  -31.5370 C   0  0  0  0  0  0  0  0  0  0  0  0
   -7.3210   23.2880  -30.9200 C   0  0  0  0  0  0  0  0  0  0  0  0
   -9.3480   21.8480  -31.3140 C   0  0  0  0  0  0  0  0  0  0  0  0
   -9.8690   20.9360  -32.3410 N   0  0  0  0  0  0  0  0  0  0  0  0
   -9.0380   19.7300  -32.4220 C   0  0  0  0  0  0  0  0  0  0  0  0
   -7.6560   20.0880  -32.9780 C   0  0  0  0  0  0  0  0  0  0  0  0
   -2.7730   22.6810  -29.6210 C   0  0  0  0  0  0  0  0  0  0  0  0
   -1.8570   21.8940  -28.9120 C   0  0  0  0  0  0  0  0  0  0  0  0
   -1.9860   20.3930  -28.8530 C   0  0  0  0  0  0  0  0  0  0  0  0
   -2.4745   19.5644  -25.6495 H   0  0  0  0  0  0  0  0  0  0  0  0
   -3.5617   20.1906  -26.9350 H   0  0  0  0  0  0  0  0  0  0  0  0
   -3.0735   18.4619  -26.9350 H   0  0  0  0  0  0  0  0  0  0  0  0
   -1.1181   21.1619  -25.9752 H   0  0  0  0  0  0  0  0  0  0  0  0
    0.1381   19.8839  -26.3340 H   0  0  0  0  0  0  0  0  0  0  0  0
    0.8660   22.2075  -26.9442 H   0  0  0  0  0  0  0  0  0  0  0  0
    0.8589   21.0601  -28.3170 H   0  0  0  0  0  0  0  0  0  0  0  0
    0.3465   24.3342  -27.9717 H   0  0  0  0  0  0  0  0  0  0  0  0
   -1.2400   26.4960  -30.1500 H   0  0  0  0  0  0  0  0  0  0  0  0
   -4.0667   22.8855  -31.8903 H   0  0  0  0  0  0  0  0  0  0  0  0
   -5.0612   20.8907  -33.0031 H   0  0  0  0  0  0  0  0  0  0  0  0
   -7.9568   23.9698  -30.3361 H   0  0  0  0  0  0  0  0  0  0  0  0
   -9.4646   21.3773  -30.3267 H   0  0  0  0  0  0  0  0  0  0  0  0
   -9.9149   22.7890  -31.3709 H   0  0  0  0  0  0  0  0  0  0  0  0
  -10.8290   20.6420  -32.0470 H   0  0  0  0  0  0  0  0  0  0  0  0
   -8.9262   19.2955  -31.4176 H   0  0  0  0  0  0  0  0  0  0  0  0
   -9.5203   19.0010  -33.0898 H   0  0  0  0  0  0  0  0  0  0  0  0
   -6.9844   19.2265  -32.8484 H   0  0  0  0  0  0  0  0  0  0  0  0
   -7.7672   20.3411  -34.0427 H   0  0  0  0  0  0  0  0  0  0  0  0
   -3.6493   22.2097  -30.0900 H   0  0  0  0  0  0  0  0  0  0  0  0
   -3.0371   20.1252  -29.0361 H   0  0  0  0  0  0  0  0  0  0  0  0
   -1.3138   19.9772  -29.6181 H   0  0  0  0  0  0  0  0  0  0  0  0
  1  2  1  0
  2  3  1  0
  3  4  1  0
  4  5  1  0
  5  6  2  0
  6  7  1  0
  7  8  1  0
  7  9  2  0
  9 10  1  0
 10 11  1  0
 11 12  2  0
 11 13  2  0
 11 14  1  0
 14 15  2  0
 15 16  1  0
 16 17  2  0
 17 18  1  0
 18 19  2  0
 18 20  1  0
 20 21  1  0
 21 22  1  0
 22 23  1  0
  9 24  1  0
 24 25  2  0
 25 26  1  0
 26  2  1  0
 25  5  1  0
 19 14  1  0
 23 17  1  0
  1 27  1  0
  1 28  1  0
  1 29  1  0
  3 30  1  0
  3 31  1  0
  4 32  1  0
  4 33  1  0
  6 34  1  0
  8 35  1  0
 15 36  1  0
 16 37  1  0
 19 38  1  0
 20 39  1  0
 20 40  1  0
 21 41  1  0
 22 42  1  0
 22 43  1  0
 23 44  1  0
 23 45  1  0
 24 46  1  0
 26 47  1  0
 26 48  1  0
M  CHG  1  10  -1
M  END
>  <UniqueID>  (12) 
12

>  <SMILES>  (12) 
CN1CCc2cc(O)c([N-]S(=O)(=O)c3ccc4c(c3)CNCC4)cc2C1

>  <Energy>  (12) 
65.1175602874703

>  <Genealogy>  (12) 
CN1CCc2cc(O)c([N-]S(=O)(=O)c3ccc4c(c3)CNCC4)cc2C1 (protonated)
CN1CCc2cc(O)c([N-]S(=O)(=O)c3ccc4c(c3)CNCC4)cc2C1 (3D coordinates assigned)
CN1CCc2cc(O)c([N-]S(=O)(=O)c3ccc4c(c3)CNCC4)cc2C1 (nonaromatic ring conformer: 65.1175602874703 kcal/mol)

>  <smiles>  (12) 
CN1CCc2cc(O)c(NS(=O)(=O)c3ccc4c(c3)CNCC4)cc2C1

>  <score_type>  (12) 
oracle

>  <origin>  (12) 
adgpu

>  <m_score__min__energy>  (12) 
-12.68

>  <m_primary>  (12) 
energy

$$$$
12:0
     RDKit          3D

 62 65  0  0  0  0  0  0  0  0999 V2000
   -9.1850   18.4340  -31.6470 C   0  0  0  0  0  0  0  0  0  0  0  0
   -8.3600   19.6760  -31.8190 C   0  0  0  0  0  0  0  0  0  0  0  0
   -8.4130   20.7110  -30.8700 C   0  0  0  0  0  0  0  0  0  0  0  0
   -7.6290   21.8560  -31.0360 C   0  0  0  0  0  0  0  0  0  0  0  0
   -6.7840   21.9790  -32.1460 C   0  0  0  0  0  0  0  0  0  0  0  0
   -5.7800   23.4540  -32.3380 S   0  0  0  0  0  0  0  0  0  0  0  0
   -4.2310   22.5630  -32.0990 C   0  0  0  0  0  0  0  0  0  0  0  0
   -3.9980   21.4530  -32.9230 C   0  0  0  0  0  0  0  0  0  0  0  0
   -2.8140   20.7250  -32.8220 C   0  0  0  0  0  0  0  0  0  0  0  0
   -1.8460   21.0910  -31.8850 C   0  0  0  0  0  0  0  0  0  0  0  0
   -0.3440   20.1840  -31.7320 S   0  0  0  0  0  0  0  0  0  0  0  0
    0.3760   20.5700  -30.4690 O   0  0  0  0  0  0  0  0  0  0  0  0
   -0.6750   18.7190  -31.6750 O   0  0  0  0  0  0  0  0  0  0  0  0
    0.6720   20.5130  -33.1150 N   0  0  0  0  0  0  0  0  0  0  0  0
    1.0260   19.2580  -33.8260 C   0  0  0  0  0  0  0  0  0  0  0  0
    0.2030   19.0390  -35.1030 C   0  0  0  0  0  0  0  0  0  0  0  0
    0.3830   20.2080  -36.0880 C   0  0  0  0  0  0  0  0  0  0  0  0
    0.6350   21.5500  -35.3770 C   0  0  0  0  0  0  0  0  0  0  0  0
    0.0430   21.5470  -33.9660 C   0  0  0  0  0  0  0  0  0  0  0  0
   -2.0780   22.1780  -31.0370 C   0  0  0  0  0  0  0  0  0  0  0  0
   -3.2680   22.9270  -31.1170 C   0  0  0  0  0  0  0  0  0  0  0  0
   -3.4700   24.0350  -30.1390 C   0  0  0  0  0  0  0  0  0  0  0  0
   -3.7060   25.2110  -30.5250 O   0  0  0  0  0  0  0  0  0  0  0  0
   -3.4470   23.7460  -28.7340 N   0  0  0  0  0  0  0  0  0  0  0  0
   -2.6460   22.7540  -28.0770 C   0  0  0  0  0  0  0  0  0  0  0  0
   -3.0930   21.4260  -27.9490 C   0  0  0  0  0  0  0  0  0  0  0  0
   -2.3070   20.4770  -27.2920 C   0  0  0  0  0  0  0  0  0  0  0  0
   -1.0720   20.8420  -26.7540 C   0  0  0  0  0  0  0  0  0  0  0  0
   -0.6270   22.1620  -26.8540 C   0  0  0  0  0  0  0  0  0  0  0  0
   -1.4140   23.1300  -27.5000 C   0  0  0  0  0  0  0  0  0  0  0  0
   -0.8320   24.7970  -27.6180 S   0  0  0  0  0  0  0  0  0  0  0  0
   -1.6390   25.6040  -28.9170 N   0  0  0  0  0  0  0  0  0  0  0  0
   -1.1030   25.5190  -26.3270 O   0  0  0  0  0  0  0  0  0  0  0  0
    0.6500   24.8160  -27.8760 O   0  0  0  0  0  0  0  0  0  0  0  0
   -6.7370   20.9530  -33.0990 C   0  0  0  0  0  0  0  0  0  0  0  0
   -7.5150   19.8030  -32.9310 C   0  0  0  0  0  0  0  0  0  0  0  0
   -9.3208   18.2296  -30.5747 H   0  0  0  0  0  0  0  0  0  0  0  0
  -10.1676   18.5780  -32.1201 H   0  0  0  0  0  0  0  0  0  0  0  0
   -8.6713   17.5841  -32.1201 H   0  0  0  0  0  0  0  0  0  0  0  0
   -9.0729   20.6198  -29.9947 H   0  0  0  0  0  0  0  0  0  0  0  0
   -7.6759   22.6643  -30.2914 H   0  0  0  0  0  0  0  0  0  0  0  0
   -4.7591   21.1530  -33.6583 H   0  0  0  0  0  0  0  0  0  0  0  0
   -2.6420   19.8613  -33.4811 H   0  0  0  0  0  0  0  0  0  0  0  0
    2.0911   19.2978  -34.0980 H   0  0  0  0  0  0  0  0  0  0  0  0
    0.8066   18.4217  -33.1459 H   0  0  0  0  0  0  0  0  0  0  0  0
    0.5326   18.1078  -35.5871 H   0  0  0  0  0  0  0  0  0  0  0  0
   -0.8598   18.9769  -34.8263 H   0  0  0  0  0  0  0  0  0  0  0  0
    1.2407   19.9891  -36.7410 H   0  0  0  0  0  0  0  0  0  0  0  0
   -0.5504   20.3059  -36.6618 H   0  0  0  0  0  0  0  0  0  0  0  0
    1.7193   21.7233  -35.3111 H   0  0  0  0  0  0  0  0  0  0  0  0
    0.1497   22.3487  -35.9572 H   0  0  0  0  0  0  0  0  0  0  0  0
    0.2058   22.5339  -33.5082 H   0  0  0  0  0  0  0  0  0  0  0  0
   -1.0311   21.3229  -34.0434 H   0  0  0  0  0  0  0  0  0  0  0  0
   -1.3163   22.4536  -30.2928 H   0  0  0  0  0  0  0  0  0  0  0  0
   -4.0669   21.1338  -28.3687 H   0  0  0  0  0  0  0  0  0  0  0  0
   -2.6618   19.4400  -27.1983 H   0  0  0  0  0  0  0  0  0  0  0  0
   -0.4482   20.0888  -26.2504 H   0  0  0  0  0  0  0  0  0  0  0  0
    0.3452   22.4454  -26.4245 H   0  0  0  0  0  0  0  0  0  0  0  0
   -1.6400   24.9460  -29.7280 H   0  0  0  0  0  0  0  0  0  0  0  0
   -2.6360   25.7280  -28.6320 H   0  0  0  0  0  0  0  0  0  0  0  0
   -6.0870   21.0522  -33.9809 H   0  0  0  0  0  0  0  0  0  0  0  0
   -7.4639   18.9942  -33.6747 H   0  0  0  0  0  0  0  0  0  0  0  0
  1  2  1  0
  2  3  2  0
  3  4  1  0
  4  5  2  0
  5  6  1  0
  6  7  1  0
  7  8  2  0
  8  9  1  0
  9 10  2  0
 10 11  1  0
 11 12  2  0
 11 13  2  0
 11 14  1  0
 14 15  1  0
 15 16  1  0
 16 17  1  0
 17 18  1  0
 18 19  1  0
 10 20  1  0
 20 21  2  0
 21 22  1  0
 22 23  2  0
 22 24  1  0
 24 25  1  0
 25 26  2  0
 26 27  1  0
 27 28  2  0
 28 29  1  0
 29 30  2  0
 30 31  1  0
 31 32  1  0
 31 33  2  0
 31 34  2  0
  5 35  1  0
 35 36  2  0
 36  2  1  0
 21  7  1  0
 30 25  1  0
 19 14  1  0
  1 37  1  0
  1 38  1  0
  1 39  1  0
  3 40  1  0
  4 41  1  0
  8 42  1  0
  9 43  1  0
 15 44  1  0
 15 45  1  0
 16 46  1  0
 16 47  1  0
 17 48  1  0
 17 49  1  0
 18 50  1  0
 18 51  1  0
 19 52  1  0
 19 53  1  0
 20 54  1  0
 26 55  1  0
 27 56  1  0
 28 57  1  0
 29 58  1  0
 32 59  1  0
 32 60  1  0
 35 61  1  0
 36 62  1  0
M  CHG  1  24  -1
M  END
>  <UniqueID>  (13) 
13

>  <SMILES>  (13) 
Cc1ccc(Sc2ccc(S(=O)(=O)N3CCCCC3)cc2C(=O)[N-]c2ccccc2S(N)(=O)=O)cc1

>  <Energy>  (13) 
72.51412379542982

>  <Genealogy>  (13) 
Cc1ccc(Sc2ccc(S(=O)(=O)N3CCCCC3)cc2C(=O)[N-]c2ccccc2S(N)(=O)=O)cc1 (protonated)
Cc1ccc(Sc2ccc(S(=O)(=O)N3CCCCC3)cc2C(=O)[N-]c2ccccc2S(N)(=O)=O)cc1 (3D coordinates assigned)
Cc1ccc(Sc2ccc(S(=O)(=O)N3CCCCC3)cc2C(=O)[N-]c2ccccc2S(N)(=O)=O)cc1 (nonaromatic ring conformer: 72.51412379542982 kcal/mol)

>  <smiles>  (13) 
Cc1ccc(Sc2ccc(S(=O)(=O)N3CCCCC3)cc2C(=O)Nc2ccccc2S(N)(=O)=O)cc1

>  <score_type>  (13) 
oracle

>  <origin>  (13) 
adgpu

>  <m_score__min__energy>  (13) 
-11.73

>  <m_primary>  (13) 
energy

$$$$
13:0
     RDKit          3D

 64 68  0  0  1  0  0  0  0  0999 V2000
   -5.7350   26.0500  -30.1010 C   0  0  0  0  0  0  0  0  0  0  0  0
   -5.1790   25.1690  -31.0340 O   0  0  0  0  0  0  0  0  0  0  0  0
   -5.7200   23.9350  -31.3700 C   0  0  0  0  0  0  0  0  0  0  0  0
   -7.0910   23.7690  -31.5710 C   0  0  0  0  0  0  0  0  0  0  0  0
   -7.5930   22.5180  -31.9050 C   0  0  0  0  0  0  0  0  0  0  0  0
   -6.7790   21.4090  -32.0480 C   0  0  0  0  0  0  0  0  0  0  0  0
   -7.4750   19.8590  -32.4700 S   0  0  0  0  0  0  0  0  0  0  0  0
   -8.6420   20.0240  -33.4020 O   0  0  0  0  0  0  0  0  0  0  0  0
   -8.0480   19.2210  -31.2130 O   0  0  0  0  0  0  0  0  0  0  0  0
   -6.3690   18.7570  -33.1310 N   0  0  0  0  0  0  0  0  0  0  0  0
   -6.6740   17.4170  -32.7410 C   0  0  0  0  0  0  0  0  0  0  0  0
   -5.3810   16.6220  -32.7150 C   0  0  0  0  0  0  0  0  0  0  0  0
   -4.3980   17.2870  -33.6220 C   0  0  0  0  0  0  0  0  0  0  0  0
   -5.0000   17.8980  -34.8580 C   0  0  0  0  0  0  0  0  0  0  0  0
   -6.0610   18.9230  -34.5130 C   0  0  0  0  0  0  0  0  0  0  0  0
   -5.4360   21.5750  -31.8490 C   0  0  0  0  0  0  0  0  0  0  0  0
   -4.9200   22.8160  -31.5160 C   0  0  0  0  0  0  0  0  0  0  0  0
   -3.5100   22.9380  -31.3180 N   0  0  0  0  0  0  0  0  0  0  0  0
   -2.9580   23.2080  -30.1960 C   0  0  0  0  0  0  0  0  0  0  0  0
   -3.7530   23.3920  -29.1230 N   0  0  0  0  0  0  0  0  0  0  0  0
   -3.1550   23.6750  -27.9530 C   0  0  0  0  0  0  0  0  0  0  0  0
   -1.7760   23.7780  -27.8360 C   0  0  0  0  0  0  0  0  0  0  0  0
   -1.2330   24.0930  -26.5360 C   0  0  0  0  0  0  0  0  0  0  0  0
   -0.8970   23.2510  -25.6690 O   0  0  0  0  0  0  0  0  0  0  0  0
   -1.0510   25.5070  -26.1740 C   0  0  0  0  0  0  0  0  0  0  0  0
   -1.2510   25.9350  -24.8760 C   0  0  0  0  0  0  0  0  0  0  0  0
   -1.0930   27.2510  -24.4860 C   0  0  0  0  0  0  0  0  0  0  0  0
   -0.7190   28.1680  -25.4430 C   0  0  0  0  0  0  0  0  0  0  0  0
   -0.5190   27.7480  -26.7420 C   0  0  0  0  0  0  0  0  0  0  0  0
   -0.6720   26.4400  -27.1460 C   0  0  0  0  0  0  0  0  0  0  0  0
   -0.1430   28.7110  -27.6740 O   0  0  0  0  0  0  0  0  0  0  0  0
   -0.3320   30.0900  -27.5340 C   0  0  0  0  0  0  0  0  0  0  0  0
   -0.7160   30.5270  -26.1440 C   0  0  0  0  0  0  0  0  0  0  0  0
   -0.5290   29.5140  -25.1830 O   0  0  0  0  0  0  0  0  0  0  0  0
   -1.0120   23.5810  -28.9650 C   0  0  0  0  0  0  0  0  0  0  0  0
    0.2710   23.6540  -28.9420 N   0  0  0  0  0  0  0  0  0  0  0  0
   -1.6360   23.2990  -30.1220 N   0  0  0  0  0  0  0  0  0  0  0  0
   -5.5115   25.6959  -29.0838 H   0  0  0  0  0  0  0  0  0  0  0  0
   -5.3059   27.0529  -30.2427 H   0  0  0  0  0  0  0  0  0  0  0  0
   -6.8249   26.0942  -30.2427 H   0  0  0  0  0  0  0  0  0  0  0  0
   -7.7719   24.6264  -31.4652 H   0  0  0  0  0  0  0  0  0  0  0  0
   -8.6760   22.4052  -32.0613 H   0  0  0  0  0  0  0  0  0  0  0  0
   -7.1315   17.4158  -31.7407 H   0  0  0  0  0  0  0  0  0  0  0  0
   -7.3814   16.9668  -33.4530 H   0  0  0  0  0  0  0  0  0  0  0  0
   -4.9819   16.5960  -31.6903 H   0  0  0  0  0  0  0  0  0  0  0  0
   -5.5656   15.5907  -33.0502 H   0  0  0  0  0  0  0  0  0  0  0  0
   -3.8937   18.0841  -33.0560 H   0  0  0  0  0  0  0  0  0  0  0  0
   -3.7101   16.5007  -33.9663 H   0  0  0  0  0  0  0  0  0  0  0  0
   -4.2043   18.3890  -35.4374 H   0  0  0  0  0  0  0  0  0  0  0  0
   -5.4737   17.0958  -35.4428 H   0  0  0  0  0  0  0  0  0  0  0  0
   -5.6786   19.9382  -34.6953 H   0  0  0  0  0  0  0  0  0  0  0  0
   -6.9580   18.7829  -35.1341 H   0  0  0  0  0  0  0  0  0  0  0  0
   -4.7593   20.7142  -31.9545 H   0  0  0  0  0  0  0  0  0  0  0  0
   -4.7930   23.3190  -29.1880 H   0  0  0  0  0  0  0  0  0  0  0  0
   -3.7783   23.8299  -27.0600 H   0  0  0  0  0  0  0  0  0  0  0  0
   -1.5494   25.1949  -24.1189 H   0  0  0  0  0  0  0  0  0  0  0  0
   -1.2608   27.5570  -23.4428 H   0  0  0  0  0  0  0  0  0  0  0  0
   -0.5030   26.1407  -28.1909 H   0  0  0  0  0  0  0  0  0  0  0  0
    0.6061   30.5954  -27.8068 H   0  0  0  0  0  0  0  0  0  0  0  0
   -1.1713   30.3605  -28.1916 H   0  0  0  0  0  0  0  0  0  0  0  0
   -0.0995   31.3943  -25.8652 H   0  0  0  0  0  0  0  0  0  0  0  0
   -1.7873   30.7763  -26.1589 H   0  0  0  0  0  0  0  0  0  0  0  0
    0.7400   23.8680  -28.0410 H   0  0  0  0  0  0  0  0  0  0  0  0
   -1.0700   23.1500  -30.9700 H   0  0  0  0  0  0  0  0  0  0  0  0
  1  2  1  0
  2  3  1  0
  3  4  2  0
  4  5  1  0
  5  6  2  0
  6  7  1  0
  7  8  2  0
  7  9  2  0
  7 10  1  0
 10 11  1  0
 11 12  1  0
 12 13  1  0
 13 14  1  0
 14 15  1  0
  6 16  1  0
 16 17  2  0
 17 18  1  0
 18 19  2  0
 19 20  1  0
 20 21  1  0
 21 22  2  0
 22 23  1  0
 23 24  2  0
 23 25  1  0
 25 26  2  0
 26 27  1  0
 27 28  2  0
 28 29  1  0
 29 30  2  0
 29 31  1  0
 31 32  1  0
 32 33  1  0
 33 34  1  0
 22 35  1  0
 35 36  2  3
 35 37  1  0
 17  3  1  0
 37 19  1  0
 15 10  1  0
 30 25  1  0
 34 28  1  0
  1 38  1  0
  1 39  1  0
  1 40  1  0
  4 41  1  0
  5 42  1  0
 11 43  1  0
 11 44  1  0
 12 45  1  0
 12 46  1  0
 13 47  1  0
 13 48  1  0
 14 49  1  0
 14 50  1  0
 15 51  1  0
 15 52  1  0
 16 53  1  0
 20 54  1  0
 21 55  1  0
 26 56  1  0
 27 57  1  0
 30 58  1  0
 32 59  1  0
 32 60  1  0
 33 61  1  0
 33 62  1  0
 36 63  1  0
 37 64  1  0
M  END
>  <smiles>  (14) 
COc1ccc(S(=O)(=O)N2CCCCC2)cc1N=c1[nH]cc(C(=O)c2ccc3c(c2)OCCO3)c(=N)[nH]1

>  <score_type>  (14) 
oracle

>  <origin>  (14) 
adgpu

>  <m_score__min__energy>  (14) 
-11.43

>  <m_primary>  (14) 
energy

$$$$
14:0
     RDKit          3D

 54 57  0  0  0  0  0  0  0  0999 V2000
    2.5550   18.3420  -31.9450 C   0  0  0  0  0  0  0  0  0  0  0  0
    1.7830   17.6550  -33.3970 S   0  0  0  0  0  0  0  0  0  0  0  0
    2.7610   17.7740  -34.5310 O   0  0  0  0  0  0  0  0  0  0  0  0
    1.5280   16.1940  -33.1480 O   0  0  0  0  0  0  0  0  0  0  0  0
    0.2960   18.4560  -33.8710 N   0  0  0  0  0  0  0  0  0  0  0  0
   -0.0940   18.2480  -35.2780 C   0  0  0  0  0  0  0  0  0  0  0  0
   -0.8470   16.9370  -35.4890 C   0  0  0  0  0  0  0  0  0  0  0  0
   -1.9620   16.8630  -34.5470 N   0  0  0  0  0  0  0  0  0  0  0  0
   -3.1950   16.2350  -34.9450 C   0  0  0  0  0  0  0  0  0  0  0  0
   -3.1640   15.2590  -35.7440 O   0  0  0  0  0  0  0  0  0  0  0  0
   -4.5010   16.7320  -34.4520 C   0  0  0  0  0  0  0  0  0  0  0  0
   -5.5320   15.8310  -34.1440 C   0  0  0  0  0  0  0  0  0  0  0  0
   -6.7520   16.2980  -33.6550 C   0  0  0  0  0  0  0  0  0  0  0  0
   -6.9710   17.6690  -33.4850 C   0  0  0  0  0  0  0  0  0  0  0  0
   -8.2030   18.0940  -32.9850 O   0  0  0  0  0  0  0  0  0  0  0  0
   -5.9620   18.5900  -33.8270 C   0  0  0  0  0  0  0  0  0  0  0  0
   -6.2070   19.9930  -33.6490 N   0  0  0  0  0  0  0  0  0  0  0  0
   -6.9370   20.7490  -32.2660 S   0  0  0  0  0  0  0  0  0  0  0  0
   -7.2240   19.7470  -31.1850 O   0  0  0  0  0  0  0  0  0  0  0  0
   -8.2500   21.3420  -32.6940 O   0  0  0  0  0  0  0  0  0  0  0  0
   -5.8880   22.0490  -31.6810 C   0  0  0  0  0  0  0  0  0  0  0  0
   -6.4310   23.3320  -31.5190 C   0  0  0  0  0  0  0  0  0  0  0  0
   -5.6310   24.3960  -31.0960 C   0  0  0  0  0  0  0  0  0  0  0  0
   -4.2750   24.2010  -30.8330 C   0  0  0  0  0  0  0  0  0  0  0  0
   -3.5020   25.2820  -30.4170 O   0  0  0  0  0  0  0  0  0  0  0  0
   -3.7060   22.9250  -30.9960 C   0  0  0  0  0  0  0  0  0  0  0  0
   -2.3420   22.6950  -30.7540 C   0  0  0  0  0  0  0  0  0  0  0  0
   -1.8080   21.4190  -30.9360 C   0  0  0  0  0  0  0  0  0  0  0  0
   -2.6390   20.3810  -31.3510 C   0  0  0  0  0  0  0  0  0  0  0  0
   -3.9580   20.6120  -31.5780 N   0  0  0  0  0  0  0  0  0  0  0  0
   -4.5170   21.8420  -31.4190 C   0  0  0  0  0  0  0  0  0  0  0  0
   -4.7290   18.1090  -34.3000 C   0  0  0  0  0  0  0  0  0  0  0  0
   -1.6530   17.0370  -33.1270 C   0  0  0  0  0  0  0  0  0  0  0  0
   -0.8090   18.3030  -32.9040 C   0  0  0  0  0  0  0  0  0  0  0  0
    2.0826   17.9216  -31.0449 H   0  0  0  0  0  0  0  0  0  0  0  0
    3.6265   18.0932  -31.9469 H   0  0  0  0  0  0  0  0  0  0  0  0
    2.4324   19.4351  -31.9469 H   0  0  0  0  0  0  0  0  0  0  0  0
   -0.7410   19.0806  -35.5914 H   0  0  0  0  0  0  0  0  0  0  0  0
    0.8276   18.2038  -35.8769 H   0  0  0  0  0  0  0  0  0  0  0  0
   -1.2325   16.8963  -36.5184 H   0  0  0  0  0  0  0  0  0  0  0  0
   -0.1659   16.0898  -35.3208 H   0  0  0  0  0  0  0  0  0  0  0  0
   -5.3773   14.7516  -34.2889 H   0  0  0  0  0  0  0  0  0  0  0  0
   -7.5480   15.5826  -33.4011 H   0  0  0  0  0  0  0  0  0  0  0  0
   -8.4270   19.0720  -32.8520 H   0  0  0  0  0  0  0  0  0  0  0  0
   -7.4977   23.5020  -31.7272 H   0  0  0  0  0  0  0  0  0  0  0  0
   -6.0735   25.3951  -30.9693 H   0  0  0  0  0  0  0  0  0  0  0  0
   -1.6952   23.5201  -30.4212 H   0  0  0  0  0  0  0  0  0  0  0  0
   -0.7392   21.2341  -30.7532 H   0  0  0  0  0  0  0  0  0  0  0  0
   -2.2260   19.3717  -31.4952 H   0  0  0  0  0  0  0  0  0  0  0  0
   -3.9309   18.8218  -34.5548 H   0  0  0  0  0  0  0  0  0  0  0  0
   -2.5924   17.1254  -32.5615 H   0  0  0  0  0  0  0  0  0  0  0  0
   -1.0791   16.1647  -32.7811 H   0  0  0  0  0  0  0  0  0  0  0  0
   -1.4683   19.1795  -32.9881 H   0  0  0  0  0  0  0  0  0  0  0  0
   -0.3540   18.2151  -31.9064 H   0  0  0  0  0  0  0  0  0  0  0  0
  1  2  1  0
  2  3  2  0
  2  4  2  0
  2  5  1  0
  5  6  1  0
  6  7  1  0
  7  8  1  0
  8  9  1  0
  9 10  2  0
  9 11  1  0
 11 12  2  0
 12 13  1  0
 13 14  2  0
 14 15  1  0
 14 16  1  0
 16 17  1  0
 17 18  1  0
 18 19  2  0
 18 20  2  0
 18 21  1  0
 21 22  2  0
 22 23  1  0
 23 24  2  0
 24 25  1  0
 24 26  1  0
 26 27  2  0
 27 28  1  0
 28 29  2  0
 29 30  1  0
 30 31  2  0
 16 32  2  0
  8 33  1  0
 33 34  1  0
 34  5  1  0
 32 11  1  0
 31 21  1  0
 31 26  1  0
  1 35  1  0
  1 36  1  0
  1 37  1  0
  6 38  1  0
  6 39  1  0
  7 40  1  0
  7 41  1  0
 12 42  1  0
 13 43  1  0
 15 44  1  0
 22 45  1  0
 23 46  1  0
 27 47  1  0
 28 48  1  0
 29 49  1  0
 32 50  1  0
 33 51  1  0
 33 52  1  0
 34 53  1  0
 34 54  1  0
M  CHG  2  17  -1  25  -1
M  END
>  <UniqueID>  (15) 
14

>  <SMILES>  (15) 
CS(=O)(=O)N1CCN(C(=O)c2ccc(O)c([N-]S(=O)(=O)c3ccc([O-])c4cccnc34)c2)CC1

>  <Energy>  (15) 
72.48213436134857

>  <Genealogy>  (15) 
CS(=O)(=O)N1CCN(C(=O)c2ccc(O)c([N-]S(=O)(=O)c3ccc([O-])c4cccnc34)c2)CC1 (protonated)
CS(=O)(=O)N1CCN(C(=O)c2ccc(O)c([N-]S(=O)(=O)c3ccc([O-])c4cccnc34)c2)CC1 (3D coordinates assigned)
CS(=O)(=O)N1CCN(C(=O)c2ccc(O)c([N-]S(=O)(=O)c3ccc([O-])c4cccnc34)c2)CC1 (nonaromatic ring conformer: 72.48213436134857 kcal/mol)

>  <smiles>  (15) 
CS(=O)(=O)N1CCN(C(=O)c2ccc(O)c(NS(=O)(=O)c3ccc(O)c4cccnc34)c2)CC1

>  <score_type>  (15) 
oracle

>  <origin>  (15) 
adgpu

>  <m_score__min__energy>  (15) 
-11.5

>  <m_primary>  (15) 
energy

$$$$
15:0
     RDKit          3D

 62 65  0  0  0  0  0  0  0  0999 V2000
    0.3540   16.6530  -30.4670 C   0  0  0  0  0  0  0  0  0  0  0  0
    1.6050   17.2430  -29.9580 N   0  0  0  0  0  0  0  0  0  0  0  0
    1.8860   18.5530  -30.5830 C   0  0  0  0  0  0  0  0  0  0  0  0
    0.8820   19.6290  -30.1340 C   0  0  0  0  0  0  0  0  0  0  0  0
    0.5830   19.4930  -28.7010 N   0  0  0  0  0  0  0  0  0  0  0  0
   -0.6730   19.9580  -28.1710 C   0  0  0  0  0  0  0  0  0  0  0  0
   -1.3020   19.2390  -27.3480 O   0  0  0  0  0  0  0  0  0  0  0  0
   -1.2510   21.2560  -28.5840 C   0  0  0  0  0  0  0  0  0  0  0  0
   -0.4530   22.4090  -28.6400 C   0  0  0  0  0  0  0  0  0  0  0  0
   -1.0000   23.6280  -29.0450 C   0  0  0  0  0  0  0  0  0  0  0  0
   -2.3570   23.7130  -29.3960 C   0  0  0  0  0  0  0  0  0  0  0  0
   -2.9290   24.9430  -29.8630 N   0  0  0  0  0  0  0  0  0  0  0  0
   -4.1900   25.0500  -30.5360 C   0  0  0  0  0  0  0  0  0  0  0  0
   -4.9110   26.0600  -30.3340 O   0  0  0  0  0  0  0  0  0  0  0  0
   -4.6500   24.0290  -31.4330 N   0  0  0  0  0  0  0  0  0  0  0  0
   -5.7920   23.1890  -31.2040 C   0  0  0  0  0  0  0  0  0  0  0  0
   -6.6780   23.4590  -30.1500 C   0  0  0  0  0  0  0  0  0  0  0  0
   -7.7790   22.6360  -29.9310 C   0  0  0  0  0  0  0  0  0  0  0  0
   -8.0100   21.5420  -30.7610 C   0  0  0  0  0  0  0  0  0  0  0  0
   -7.1500   21.2560  -31.8340 C   0  0  0  0  0  0  0  0  0  0  0  0
   -7.5240   19.8270  -32.8220 S   0  0  0  0  0  0  0  0  0  0  0  0
   -7.2710   20.1830  -34.2610 O   0  0  0  0  0  0  0  0  0  0  0  0
   -8.9790   19.4650  -32.7160 O   0  0  0  0  0  0  0  0  0  0  0  0
   -6.5280   18.4400  -32.4250 N   0  0  0  0  0  0  0  0  0  0  0  0
   -5.3300   18.7810  -31.6370 C   0  0  0  0  0  0  0  0  0  0  0  0
   -4.1370   19.2320  -32.5110 C   0  0  0  0  0  0  0  0  0  0  0  0
   -4.4230   19.1840  -33.8930 O   0  0  0  0  0  0  0  0  0  0  0  0
   -4.8690   17.8930  -34.2360 C   0  0  0  0  0  0  0  0  0  0  0  0
   -6.2380   17.5910  -33.5980 C   0  0  0  0  0  0  0  0  0  0  0  0
   -6.0320   22.1030  -32.0630 C   0  0  0  0  0  0  0  0  0  0  0  0
   -5.1360   21.9050  -33.1170 O   0  0  0  0  0  0  0  0  0  0  0  0
   -3.1700   22.5810  -29.2830 C   0  0  0  0  0  0  0  0  0  0  0  0
   -2.6210   21.3570  -28.8840 C   0  0  0  0  0  0  0  0  0  0  0  0
    1.4810   18.6850  -27.8720 C   0  0  0  0  0  0  0  0  0  0  0  0
    1.6360   17.2750  -28.4720 C   0  0  0  0  0  0  0  0  0  0  0  0
   -0.2812   16.3534  -29.6203 H   0  0  0  0  0  0  0  0  0  0  0  0
   -0.1784   17.3949  -31.0803 H   0  0  0  0  0  0  0  0  0  0  0  0
    0.5879   15.7703  -31.0803 H   0  0  0  0  0  0  0  0  0  0  0  0
    2.8999   18.8721  -30.2999 H   0  0  0  0  0  0  0  0  0  0  0  0
    1.7972   18.4371  -31.6733 H   0  0  0  0  0  0  0  0  0  0  0  0
    1.3115   20.6244  -30.3207 H   0  0  0  0  0  0  0  0  0  0  0  0
   -0.0504   19.5035  -30.7040 H   0  0  0  0  0  0  0  0  0  0  0  0
    0.6100   22.3520  -28.3631 H   0  0  0  0  0  0  0  0  0  0  0  0
   -0.3654   24.5254  -29.0893 H   0  0  0  0  0  0  0  0  0  0  0  0
   -6.5018   24.3244  -29.4942 H   0  0  0  0  0  0  0  0  0  0  0  0
   -8.4679   22.8502  -29.1007 H   0  0  0  0  0  0  0  0  0  0  0  0
   -8.8780   20.8928  -30.5737 H   0  0  0  0  0  0  0  0  0  0  0  0
   -5.5862   19.5977  -30.9461 H   0  0  0  0  0  0  0  0  0  0  0  0
   -5.0193   17.8713  -31.1023 H   0  0  0  0  0  0  0  0  0  0  0  0
   -3.8750   20.2659  -32.2419 H   0  0  0  0  0  0  0  0  0  0  0  0
   -3.3053   18.5379  -32.3203 H   0  0  0  0  0  0  0  0  0  0  0  0
   -4.9593   17.8231  -35.3301 H   0  0  0  0  0  0  0  0  0  0  0  0
   -4.1395   17.1603  -33.8604 H   0  0  0  0  0  0  0  0  0  0  0  0
   -7.0207   17.7569  -34.3529 H   0  0  0  0  0  0  0  0  0  0  0  0
   -6.2163   16.5473  -33.2514 H   0  0  0  0  0  0  0  0  0  0  0  0
   -5.2610   21.2220  -33.8460 H   0  0  0  0  0  0  0  0  0  0  0  0
   -4.2443   22.6527  -29.5084 H   0  0  0  0  0  0  0  0  0  0  0  0
   -3.2650   20.4688  -28.8046 H   0  0  0  0  0  0  0  0  0  0  0  0
    2.4671   19.1702  -27.8255 H   0  0  0  0  0  0  0  0  0  0  0  0
    1.0557   18.5996  -26.8611 H   0  0  0  0  0  0  0  0  0  0  0  0
    2.5984   16.8606  -28.1372 H   0  0  0  0  0  0  0  0  0  0  0  0
    0.7760   16.6846  -28.1231 H   0  0  0  0  0  0  0  0  0  0  0  0
  1  2  1  0
  2  3  1  0
  3  4  1  0
  4  5  1  0
  5  6  1  0
  6  7  2  0
  6  8  1  0
  8  9  2  0
  9 10  1  0
 10 11  2  0
 11 12  1  0
 12 13  1  0
 13 14  2  0
 13 15  1  0
 15 16  1  0
 16 17  2  0
 17 18  1  0
 18 19  2  0
 19 20  1  0
 20 21  1  0
 21 22  2  0
 21 23  2  0
 21 24  1  0
 24 25  1  0
 25 26  1  0
 26 27  1  0
 27 28  1  0
 28 29  1  0
 20 30  2  0
 30 31  1  0
 11 32  1  0
 32 33  2  0
  5 34  1  0
 34 35  1  0
 35  2  1  0
 33  8  1  0
 30 16  1  0
 29 24  1  0
  1 36  1  0
  1 37  1  0
  1 38  1  0
  3 39  1  0
  3 40  1  0
  4 41  1  0
  4 42  1  0
  9 43  1  0
 10 44  1  0
 17 45  1  0
 18 46  1  0
 19 47  1  0
 25 48  1  0
 25 49  1  0
 26 50  1  0
 26 51  1  0
 28 52  1  0
 28 53  1  0
 29 54  1  0
 29 55  1  0
 31 56  1  0
 32 57  1  0
 33 58  1  0
 34 59  1  0
 34 60  1  0
 35 61  1  0
 35 62  1  0
M  CHG  2  12  -1  15  -1
M  END
>  <UniqueID>  (16) 
15

>  <SMILES>  (16) 
CN1CCN(C(=O)c2ccc([N-]C(=O)[N-]c3cccc(S(=O)(=O)N4CCOCC4)c3O)cc2)CC1

>  <Energy>  (16) 
96.57360517089279

>  <Genealogy>  (16) 
CN1CCN(C(=O)c2ccc([N-]C(=O)[N-]c3cccc(S(=O)(=O)N4CCOCC4)c3O)cc2)CC1 (protonated)
CN1CCN(C(=O)c2ccc([N-]C(=O)[N-]c3cccc(S(=O)(=O)N4CCOCC4)c3O)cc2)CC1 (3D coordinates assigned)
CN1CCN(C(=O)c2ccc([N-]C(=O)[N-]c3cccc(S(=O)(=O)N4CCOCC4)c3O)cc2)CC1 (nonaromatic ring conformer: 96.57360517089279 kcal/mol)

>  <smiles>  (16) 
CN1CCN(C(=O)c2ccc(NC(=O)Nc3cccc(S(=O)(=O)N4CCOCC4)c3O)cc2)CC1

>  <score_type>  (16) 
oracle

>  <origin>  (16) 
adgpu

>  <m_score__min__energy>  (16) 
-12.630000000000001

>  <m_primary>  (16) 
energy

$$$$
16:0
     RDKit          3D

 71 76  0  0  0  0  0  0  0  0999 V2000
   -2.7700   17.5680  -35.2210 O   0  0  0  0  0  0  0  0  0  0  0  0
   -2.0960   17.5550  -34.1520 C   0  0  0  0  0  0  0  0  0  0  0  0
   -2.0720   16.2780  -33.3700 C   0  0  0  0  0  0  0  0  0  0  0  0
   -0.8540   15.9030  -32.7700 C   0  0  0  0  0  0  0  0  0  0  0  0
   -0.7450   14.7290  -32.0160 C   0  0  0  0  0  0  0  0  0  0  0  0
    0.8000   14.2780  -31.2830 S   0  0  0  0  0  0  0  0  0  0  0  0
    1.7180   13.7510  -32.3490 O   0  0  0  0  0  0  0  0  0  0  0  0
    0.5730   13.1810  -30.2820 O   0  0  0  0  0  0  0  0  0  0  0  0
    1.5620   15.6390  -30.4850 N   0  0  0  0  0  0  0  0  0  0  0  0
    1.8670   16.7180  -31.4400 C   0  0  0  0  0  0  0  0  0  0  0  0
    1.1910   17.9930  -30.9510 C   0  0  0  0  0  0  0  0  0  0  0  0
    0.1300   17.5140  -29.9910 C   0  0  0  0  0  0  0  0  0  0  0  0
    0.6860   16.2110  -29.4530 C   0  0  0  0  0  0  0  0  0  0  0  0
   -1.8710   13.9240  -31.8300 C   0  0  0  0  0  0  0  0  0  0  0  0
   -3.0940   14.2780  -32.3980 C   0  0  0  0  0  0  0  0  0  0  0  0
   -4.6230   13.1960  -31.9800 Br  0  0  0  0  0  0  0  0  0  0  0  0
   -3.2050   15.4460  -33.1840 C   0  0  0  0  0  0  0  0  0  0  0  0
   -4.4500   15.8120  -33.7060 O   0  0  0  0  0  0  0  0  0  0  0  0
   -5.1990   16.9230  -33.2830 C   0  0  0  0  0  0  0  0  0  0  0  0
   -5.7040   17.0360  -31.9800 C   0  0  0  0  0  0  0  0  0  0  0  0
   -6.4470   18.1590  -31.6030 C   0  0  0  0  0  0  0  0  0  0  0  0
   -6.7130   19.2030  -32.5220 C   0  0  0  0  0  0  0  0  0  0  0  0
   -7.4790   20.3870  -32.1280 N   0  0  0  0  0  0  0  0  0  0  0  0
   -6.9970   21.7240  -32.5460 C   0  0  0  0  0  0  0  0  0  0  0  0
   -7.8230   22.8900  -32.0000 C   0  0  0  0  0  0  0  0  0  0  0  0
   -9.2440   22.5610  -32.0110 N   0  0  0  0  0  0  0  0  0  0  0  0
   -9.4760   21.5010  -31.0350 C   0  0  0  0  0  0  0  0  0  0  0  0
   -8.7940   20.2030  -31.4730 C   0  0  0  0  0  0  0  0  0  0  0  0
   -6.1990   19.0630  -33.8330 C   0  0  0  0  0  0  0  0  0  0  0  0
   -5.4640   17.9340  -34.2050 C   0  0  0  0  0  0  0  0  0  0  0  0
   -1.4710   18.7800  -33.6630 N   0  0  0  0  0  0  0  0  0  0  0  0
   -1.6320   18.8960  -32.1860 C   0  0  0  0  0  0  0  0  0  0  0  0
   -2.5180   20.0590  -31.9710 C   0  0  0  0  0  0  0  0  0  0  0  0
   -3.0510   20.5290  -30.7690 C   0  0  0  0  0  0  0  0  0  0  0  0
   -3.8450   21.6870  -30.7960 C   0  0  0  0  0  0  0  0  0  0  0  0
   -4.0850   22.3520  -32.0150 C   0  0  0  0  0  0  0  0  0  0  0  0
   -3.5310   21.8570  -33.2060 C   0  0  0  0  0  0  0  0  0  0  0  0
   -2.7500   20.7030  -33.1490 C   0  0  0  0  0  0  0  0  0  0  0  0
   -2.0360   20.0320  -34.2520 C   0  0  0  0  0  0  0  0  0  0  0  0
    0.0295   16.5460  -32.8967 H   0  0  0  0  0  0  0  0  0  0  0  0
    2.9550   16.8707  -31.4940 H   0  0  0  0  0  0  0  0  0  0  0  0
    1.4985   16.4534  -32.4421 H   0  0  0  0  0  0  0  0  0  0  0  0
    1.9140   18.6442  -30.4380 H   0  0  0  0  0  0  0  0  0  0  0  0
    0.7710   18.5866  -31.7763 H   0  0  0  0  0  0  0  0  0  0  0  0
   -0.0196   18.2406  -29.1788 H   0  0  0  0  0  0  0  0  0  0  0  0
   -0.8517   17.3898  -30.4715 H   0  0  0  0  0  0  0  0  0  0  0  0
    1.2622   16.4001  -28.5353 H   0  0  0  0  0  0  0  0  0  0  0  0
   -0.1303   15.5144  -29.2113 H   0  0  0  0  0  0  0  0  0  0  0  0
   -1.7924   13.0045  -31.2314 H   0  0  0  0  0  0  0  0  0  0  0  0
   -5.5145   16.2359  -31.2493 H   0  0  0  0  0  0  0  0  0  0  0  0
   -6.8314   18.2327  -30.5750 H   0  0  0  0  0  0  0  0  0  0  0  0
   -5.9610   21.8418  -32.1955 H   0  0  0  0  0  0  0  0  0  0  0  0
   -7.0845   21.7619  -33.6419 H   0  0  0  0  0  0  0  0  0  0  0  0
   -7.5091   23.1033  -30.9675 H   0  0  0  0  0  0  0  0  0  0  0  0
   -7.6577   23.7712  -32.6373 H   0  0  0  0  0  0  0  0  0  0  0  0
   -9.7670   23.4090  -31.6860 H   0  0  0  0  0  0  0  0  0  0  0  0
   -9.0695   21.8116  -30.0612 H   0  0  0  0  0  0  0  0  0  0  0  0
  -10.5587   21.3227  -30.9575 H   0  0  0  0  0  0  0  0  0  0  0  0
   -8.6483   19.5746  -30.5820 H   0  0  0  0  0  0  0  0  0  0  0  0
   -9.4537   19.7426  -32.2232 H   0  0  0  0  0  0  0  0  0  0  0  0
   -6.3812   19.8568  -34.5724 H   0  0  0  0  0  0  0  0  0  0  0  0
   -5.0909   17.8424  -35.2358 H   0  0  0  0  0  0  0  0  0  0  0  0
   -0.4570   18.7730  -33.9080 H   0  0  0  0  0  0  0  0  0  0  0  0
   -2.0907   17.9836  -31.7773 H   0  0  0  0  0  0  0  0  0  0  0  0
   -0.6634   19.0243  -31.6806 H   0  0  0  0  0  0  0  0  0  0  0  0
   -2.8535   20.0042  -29.8226 H   0  0  0  0  0  0  0  0  0  0  0  0
   -4.2805   22.0758  -29.8637 H   0  0  0  0  0  0  0  0  0  0  0  0
   -4.7067   23.2593  -32.0332 H   0  0  0  0  0  0  0  0  0  0  0  0
   -3.7090   22.3683  -34.1636 H   0  0  0  0  0  0  0  0  0  0  0  0
   -2.7316   19.7917  -35.0696 H   0  0  0  0  0  0  0  0  0  0  0  0
   -1.2492   20.6728  -34.6767 H   0  0  0  0  0  0  0  0  0  0  0  0
  1  2  2  0
  2  3  1  0
  3  4  2  0
  4  5  1  0
  5  6  1  0
  6  7  2  0
  6  8  2  0
  6  9  1  0
  9 10  1  0
 10 11  1  0
 11 12  1  0
 12 13  1  0
  5 14  2  0
 14 15  1  0
 15 16  1  0
 15 17  2  0
 17 18  1  0
 18 19  1  0
 19 20  2  0
 20 21  1  0
 21 22  2  0
 22 23  1  0
 23 24  1  0
 24 25  1  0
 25 26  1  0
 26 27  1  0
 27 28  1  0
 22 29  1  0
 29 30  2  0
  2 31  1  0
 31 32  1  0
 32 33  1  0
 33 34  2  0
 34 35  1  0
 35 36  2  0
 36 37  1  0
 37 38  2  0
 38 39  1  0
 17  3  1  0
 30 19  1  0
 39 31  1  0
 13  9  1  0
 28 23  1  0
 38 33  1  0
  4 40  1  0
 10 41  1  0
 10 42  1  0
 11 43  1  0
 11 44  1  0
 12 45  1  0
 12 46  1  0
 13 47  1  0
 13 48  1  0
 14 49  1  0
 20 50  1  0
 21 51  1  0
 24 52  1  0
 24 53  1  0
 25 54  1  0
 25 55  1  0
 26 56  1  0
 27 57  1  0
 27 58  1  0
 28 59  1  0
 28 60  1  0
 29 61  1  0
 30 62  1  0
 31 63  1  0
 32 64  1  0
 32 65  1  0
 34 66  1  0
 35 67  1  0
 36 68  1  0
 37 69  1  0
 39 70  1  0
 39 71  1  0
M  CHG  1  31   1
M  END
>  <UniqueID>  (17) 
16

>  <SMILES>  (17) 
O=C(c1cc(S(=O)(=O)N2CCCC2)cc(Br)c1Oc1ccc(N2CCNCC2)cc1)[NH+]1Cc2ccccc2C1

>  <Energy>  (17) 
114.53776719786538

>  <Genealogy>  (17) 
O=C(c1cc(S(=O)(=O)N2CCCC2)cc(Br)c1Oc1ccc(N2CCNCC2)cc1)[NH+]1Cc2ccccc2C1 (protonated)
O=C(c1cc(S(=O)(=O)N2CCCC2)cc(Br)c1Oc1ccc(N2CCNCC2)cc1)[NH+]1Cc2ccccc2C1 (3D coordinates assigned)
O=C(c1cc(S(=O)(=O)N2CCCC2)cc(Br)c1Oc1ccc(N2CCNCC2)cc1)[NH+]1Cc2ccccc2C1 (nonaromatic ring conformer: 114.53776719786538 kcal/mol)

>  <smiles>  (17) 
O=C(c1cc(S(=O)(=O)N2CCCC2)cc(Br)c1Oc1ccc(N2CCNCC2)cc1)N1Cc2ccccc2C1

>  <score_type>  (17) 
oracle

>  <origin>  (17) 
adgpu

>  <m_score__min__energy>  (17) 
-11.380000000000001

>  <m_primary>  (17) 
energy

$$$$
17:0
     RDKit          3D

 51 54  0  0  0  0  0  0  0  0999 V2000
    0.2960   24.5680  -28.5390 O   0  0  0  0  0  0  0  0  0  0  0  0
   -0.6050   25.3740  -28.1790 C   0  0  0  0  0  0  0  0  0  0  0  0
   -1.8660   25.3880  -28.8620 N   0  0  0  0  0  0  0  0  0  0  0  0
   -2.4640   24.2570  -29.5100 C   0  0  0  0  0  0  0  0  0  0  0  0
   -1.9700   22.9850  -29.2190 C   0  0  0  0  0  0  0  0  0  0  0  0
   -2.5330   21.8570  -29.8120 C   0  0  0  0  0  0  0  0  0  0  0  0
   -3.5850   21.9780  -30.7210 C   0  0  0  0  0  0  0  0  0  0  0  0
   -4.1220   20.8030  -31.2540 O   0  0  0  0  0  0  0  0  0  0  0  0
   -4.0640   23.2650  -31.0750 C   0  0  0  0  0  0  0  0  0  0  0  0
   -5.1930   23.4400  -32.0740 C   0  0  0  0  0  0  0  0  0  0  0  0
   -6.5170   23.8180  -31.3920 C   0  0  0  0  0  0  0  0  0  0  0  0
   -7.0430   22.7030  -30.4790 C   0  0  0  0  0  0  0  0  0  0  0  0
   -7.5350   21.5390  -31.2960 C   0  0  0  0  0  0  0  0  0  0  0  0
   -8.7290   20.8840  -30.9530 C   0  0  0  0  0  0  0  0  0  0  0  0
   -9.1720   19.7880  -31.7020 C   0  0  0  0  0  0  0  0  0  0  0  0
   -8.4190   19.3320  -32.7880 C   0  0  0  0  0  0  0  0  0  0  0  0
   -7.2210   19.9670  -33.1260 C   0  0  0  0  0  0  0  0  0  0  0  0
   -6.7750   21.0640  -32.3800 C   0  0  0  0  0  0  0  0  0  0  0  0
   -3.4880   24.4040  -30.4660 C   0  0  0  0  0  0  0  0  0  0  0  0
   -3.9110   25.6800  -30.8310 O   0  0  0  0  0  0  0  0  0  0  0  0
   -0.3400   26.3420  -27.0900 C   0  0  0  0  0  0  0  0  0  0  0  0
    0.0710   25.8930  -25.8190 C   0  0  0  0  0  0  0  0  0  0  0  0
    0.3440   26.8080  -24.7950 C   0  0  0  0  0  0  0  0  0  0  0  0
    0.2100   28.1770  -25.0330 C   0  0  0  0  0  0  0  0  0  0  0  0
   -0.2370   28.6330  -26.2790 C   0  0  0  0  0  0  0  0  0  0  0  0
   -0.4920   27.7250  -27.3100 C   0  0  0  0  0  0  0  0  0  0  0  0
   -0.4190   30.0060  -26.4750 O   0  0  0  0  0  0  0  0  0  0  0  0
   -0.4060   30.9180  -25.3730 C   0  0  0  0  0  0  0  0  0  0  0  0
    0.6600   30.4990  -24.3520 C   0  0  0  0  0  0  0  0  0  0  0  0
    0.5230   29.1110  -24.0390 O   0  0  0  0  0  0  0  0  0  0  0  0
   -1.1307   22.8721  -28.5170 H   0  0  0  0  0  0  0  0  0  0  0  0
   -2.1438   20.8593  -29.5608 H   0  0  0  0  0  0  0  0  0  0  0  0
   -4.5110   20.0560  -30.6920 H   0  0  0  0  0  0  0  0  0  0  0  0
   -4.9193   24.2359  -32.7823 H   0  0  0  0  0  0  0  0  0  0  0  0
   -5.3404   22.4794  -32.5893 H   0  0  0  0  0  0  0  0  0  0  0  0
   -6.3575   24.7235  -30.7881 H   0  0  0  0  0  0  0  0  0  0  0  0
   -7.2648   23.9866  -32.1809 H   0  0  0  0  0  0  0  0  0  0  0  0
   -6.2318   22.3638  -29.8180 H   0  0  0  0  0  0  0  0  0  0  0  0
   -7.8792   23.0971  -29.8828 H   0  0  0  0  0  0  0  0  0  0  0  0
   -9.3182   21.2337  -30.0924 H   0  0  0  0  0  0  0  0  0  0  0  0
  -10.1134   19.2850  -31.4360 H   0  0  0  0  0  0  0  0  0  0  0  0
   -8.7701   18.4721  -33.3773 H   0  0  0  0  0  0  0  0  0  0  0  0
   -6.6282   19.6045  -33.9788 H   0  0  0  0  0  0  0  0  0  0  0  0
   -5.8270   21.5563  -32.6423 H   0  0  0  0  0  0  0  0  0  0  0  0
    0.1782   24.8147  -25.6298 H   0  0  0  0  0  0  0  0  0  0  0  0
    0.6633   26.4490  -23.8054 H   0  0  0  0  0  0  0  0  0  0  0  0
   -0.8124   28.0913  -28.2965 H   0  0  0  0  0  0  0  0  0  0  0  0
   -0.1792   31.9295  -25.7409 H   0  0  0  0  0  0  0  0  0  0  0  0
   -1.3927   30.9081  -24.8868 H   0  0  0  0  0  0  0  0  0  0  0  0
    1.6593   30.6795  -24.7748 H   0  0  0  0  0  0  0  0  0  0  0  0
    0.5296   31.0894  -23.4331 H   0  0  0  0  0  0  0  0  0  0  0  0
  1  2  2  0
  2  3  1  0
  3  4  1  0
  4  5  2  0
  5  6  1  0
  6  7  2  0
  7  8  1  0
  7  9  1  0
  9 10  1  0
 10 11  1  0
 11 12  1  0
 12 13  1  0
 13 14  2  0
 14 15  1  0
 15 16  2  0
 16 17  1  0
 17 18  2  0
  9 19  2  0
 19 20  1  0
  2 21  1  0
 21 22  2  0
 22 23  1  0
 23 24  2  0
 24 25  1  0
 25 26  2  0
 25 27  1  0
 27 28  1  0
 28 29  1  0
 29 30  1  0
 19  4  1  0
 26 21  1  0
 18 13  1  0
 30 24  1  0
  5 31  1  0
  6 32  1  0
  8 33  1  0
 10 34  1  0
 10 35  1  0
 11 36  1  0
 11 37  1  0
 12 38  1  0
 12 39  1  0
 14 40  1  0
 15 41  1  0
 16 42  1  0
 17 43  1  0
 18 44  1  0
 22 45  1  0
 23 46  1  0
 26 47  1  0
 28 48  1  0
 28 49  1  0
 29 50  1  0
 29 51  1  0
M  CHG  2   3  -1  20  -1
M  END
>  <UniqueID>  (18) 
17

>  <SMILES>  (18) 
O=C([N-]c1ccc(O)c(CCCc2ccccc2)c1[O-])c1ccc2c(c1)OCCO2

>  <Energy>  (18) 
60.169688435133146

>  <Genealogy>  (18) 
O=C([N-]c1ccc(O)c(CCCc2ccccc2)c1[O-])c1ccc2c(c1)OCCO2 (protonated)
O=C([N-]c1ccc(O)c(CCCc2ccccc2)c1[O-])c1ccc2c(c1)OCCO2 (3D coordinates assigned)
O=C([N-]c1ccc(O)c(CCCc2ccccc2)c1[O-])c1ccc2c(c1)OCCO2 (nonaromatic ring conformer: 60.169688435133146 kcal/mol)

>  <smiles>  (18) 
O=C(Nc1ccc(O)c(CCCc2ccccc2)c1O)c1ccc2c(c1)OCCO2

>  <score_type>  (18) 
oracle

>  <origin>  (18) 
adgpu

>  <m_score__min__energy>  (18) 
-13.300000000000001

>  <m_primary>  (18) 
energy

$$$$
18:0
     RDKit          3D

 51 54  0  0  0  0  0  0  0  0999 V2000
   -0.5330   24.9100  -28.2580 O   0  0  0  0  0  0  0  0  0  0  0  0
   -1.9220   24.3380  -28.2730 S   0  0  0  0  0  0  0  0  0  0  0  0
   -2.6330   24.7870  -27.0290 O   0  0  0  0  0  0  0  0  0  0  0  0
   -2.7170   24.9250  -29.7030 N   0  0  0  0  0  0  0  0  0  0  0  0
   -3.9430   24.4270  -30.2580 C   0  0  0  0  0  0  0  0  0  0  0  0
   -5.1300   25.1160  -29.9820 C   0  0  0  0  0  0  0  0  0  0  0  0
   -6.3410   24.6910  -30.5350 C   0  0  0  0  0  0  0  0  0  0  0  0
   -6.3840   23.5570  -31.3540 C   0  0  0  0  0  0  0  0  0  0  0  0
   -7.9710   23.0020  -31.9960 S   0  0  0  0  0  0  0  0  0  0  0  0
   -8.1470   21.5990  -30.8370 C   0  0  0  0  0  0  0  0  0  0  0  0
   -8.2650   20.2850  -31.5460 C   0  0  0  0  0  0  0  0  0  0  0  0
   -9.3030   19.8730  -32.3500 C   0  0  0  0  0  0  0  0  0  0  0  0
   -9.1140   18.5850  -32.6790 N   0  0  0  0  0  0  0  0  0  0  0  0
   -7.9710   18.2450  -32.0470 C   0  0  0  0  0  0  0  0  0  0  0  0
   -7.4300   19.2540  -31.3330 N   0  0  0  0  0  0  0  0  0  0  0  0
   -5.2010   22.8440  -31.6150 C   0  0  0  0  0  0  0  0  0  0  0  0
   -5.2030   21.3930  -32.6130 Cl  0  0  0  0  0  0  0  0  0  0  0  0
   -3.9870   23.2850  -31.0760 C   0  0  0  0  0  0  0  0  0  0  0  0
   -1.8150   22.5790  -28.3220 C   0  0  0  0  0  0  0  0  0  0  0  0
   -1.9860   21.8220  -27.1530 C   0  0  0  0  0  0  0  0  0  0  0  0
   -1.8110   20.4350  -27.1810 C   0  0  0  0  0  0  0  0  0  0  0  0
   -1.4430   19.7970  -28.3690 C   0  0  0  0  0  0  0  0  0  0  0  0
   -1.2750   20.5450  -29.5440 C   0  0  0  0  0  0  0  0  0  0  0  0
   -0.7060   19.7780  -31.0280 S   0  0  0  0  0  0  0  0  0  0  0  0
   -0.5070   18.3080  -30.7780 O   0  0  0  0  0  0  0  0  0  0  0  0
    0.6240   20.3670  -31.4130 O   0  0  0  0  0  0  0  0  0  0  0  0
   -1.8380   20.0010  -32.3480 N   0  0  0  0  0  0  0  0  0  0  0  0
   -1.6920   21.3260  -32.9640 C   0  0  0  0  0  0  0  0  0  0  0  0
   -0.8640   21.1830  -34.2340 C   0  0  0  0  0  0  0  0  0  0  0  0
   -0.7440   19.6920  -34.4840 C   0  0  0  0  0  0  0  0  0  0  0  0
   -1.5980   19.0260  -33.4170 C   0  0  0  0  0  0  0  0  0  0  0  0
   -1.4990   21.9260  -29.5220 C   0  0  0  0  0  0  0  0  0  0  0  0
   -5.1093   25.9981  -29.3252 H   0  0  0  0  0  0  0  0  0  0  0  0
   -7.2647   25.2504  -30.3256 H   0  0  0  0  0  0  0  0  0  0  0  0
   -7.2639   21.5690  -30.1818 H   0  0  0  0  0  0  0  0  0  0  0  0
   -9.0710   21.7536  -30.2606 H   0  0  0  0  0  0  0  0  0  0  0  0
  -10.1499   20.4973  -32.6710 H   0  0  0  0  0  0  0  0  0  0  0  0
   -7.5236   17.2420  -32.1081 H   0  0  0  0  0  0  0  0  0  0  0  0
   -3.0605   22.7337  -31.2942 H   0  0  0  0  0  0  0  0  0  0  0  0
   -2.2586   22.3213  -26.2115 H   0  0  0  0  0  0  0  0  0  0  0  0
   -1.9633   19.8443  -26.2656 H   0  0  0  0  0  0  0  0  0  0  0  0
   -1.2851   18.7085  -28.3827 H   0  0  0  0  0  0  0  0  0  0  0  0
   -2.6843   21.7306  -33.2122 H   0  0  0  0  0  0  0  0  0  0  0  0
   -1.1920   22.0124  -32.2648 H   0  0  0  0  0  0  0  0  0  0  0  0
   -1.3703   21.6734  -35.0785 H   0  0  0  0  0  0  0  0  0  0  0  0
    0.1233   21.6564  -34.1288 H   0  0  0  0  0  0  0  0  0  0  0  0
   -1.1181   19.4400  -35.4873 H   0  0  0  0  0  0  0  0  0  0  0  0
    0.3020   19.3551  -34.4356 H   0  0  0  0  0  0  0  0  0  0  0  0
   -2.5565   18.7073  -33.8525 H   0  0  0  0  0  0  0  0  0  0  0  0
   -1.0828   18.1409  -33.0155 H   0  0  0  0  0  0  0  0  0  0  0  0
   -1.4265   22.5047  -30.4546 H   0  0  0  0  0  0  0  0  0  0  0  0
  1  2  2  0
  2  3  2  0
  2  4  1  0
  4  5  1  0
  5  6  2  0
  6  7  1  0
  7  8  2  0
  8  9  1  0
  9 10  1  0
 10 11  1  0
 11 12  2  0
 12 13  1  0
 13 14  1  0
 14 15  2  0
  8 16  1  0
 16 17  1  0
 16 18  2  0
  2 19  1  0
 19 20  2  0
 20 21  1  0
 21 22  2  0
 22 23  1  0
 23 24  1  0
 24 25  2  0
 24 26  2  0
 24 27  1  0
 27 28  1  0
 28 29  1  0
 29 30  1  0
 30 31  1  0
 23 32  2  0
 18  5  1  0
 32 19  1  0
 15 11  1  0
 31 27  1  0
  6 33  1  0
  7 34  1  0
 10 35  1  0
 10 36  1  0
 12 37  1  0
 14 38  1  0
 18 39  1  0
 20 40  1  0
 21 41  1  0
 22 42  1  0
 28 43  1  0
 28 44  1  0
 29 45  1  0
 29 46  1  0
 30 47  1  0
 30 48  1  0
 31 49  1  0
 31 50  1  0
 32 51  1  0
M  CHG  2   4  -1  13  -1
M  END
>  <UniqueID>  (19) 
18

>  <SMILES>  (19) 
O=S(=O)([N-]c1ccc(SCc2c[n-]cn2)c(Cl)c1)c1cccc(S(=O)(=O)N2CCCC2)c1

>  <Energy>  (19) 
80.15521038714543

>  <Genealogy>  (19) 
O=S(=O)([N-]c1ccc(SCc2c[n-]cn2)c(Cl)c1)c1cccc(S(=O)(=O)N2CCCC2)c1 (protonated)
O=S(=O)([N-]c1ccc(SCc2c[n-]cn2)c(Cl)c1)c1cccc(S(=O)(=O)N2CCCC2)c1 (3D coordinates assigned)
O=S(=O)([N-]c1ccc(SCc2c[n-]cn2)c(Cl)c1)c1cccc(S(=O)(=O)N2CCCC2)c1 (nonaromatic ring conformer: 80.15521038714543 kcal/mol)

>  <smiles>  (19) 
O=S(=O)(Nc1ccc(SCc2c[nH]cn2)c(Cl)c1)c1cccc(S(=O)(=O)N2CCCC2)c1

>  <score_type>  (19) 
oracle

>  <origin>  (19) 
adgpu

>  <m_score__min__energy>  (19) 
-11.869999999999999

>  <m_primary>  (19) 
energy

$$$$
19:0
     RDKit          3D

 60 65  0  0  0  0  0  0  0  0999 V2000
   -5.0600   24.5810  -30.8370 O   0  0  0  0  0  0  0  0  0  0  0  0
   -4.1710   23.7750  -30.4550 C   0  0  0  0  0  0  0  0  0  0  0  0
   -3.3480   23.9070  -29.2620 C   0  0  0  0  0  0  0  0  0  0  0  0
   -2.4440   24.8510  -29.2900 N   0  0  0  0  0  0  0  0  0  0  0  0
   -1.1020   24.3180  -29.0020 C   0  0  0  0  0  0  0  0  0  0  0  0
   -1.4660   23.0370  -28.3030 C   0  0  2  0  0  0  0  0  0  0  0  0
   -0.6650   21.9070  -28.1710 O   0  0  0  0  0  0  0  0  0  0  0  0
   -1.6350   20.9390  -27.7410 C   0  0  0  0  0  0  0  0  0  0  0  0
   -3.0630   21.4580  -28.1120 C   0  0  0  0  0  0  0  0  0  0  0  0
   -2.6810   22.5850  -29.0380 C   0  0  1  0  0  0  0  0  0  0  0  0
   -2.6160   22.0770  -30.4760 C   0  0  0  0  0  0  0  0  0  0  0  0
   -1.8090   21.0810  -31.0440 C   0  0  0  0  0  0  0  0  0  0  0  0
   -2.0150   20.7250  -32.3910 C   0  0  0  0  0  0  0  0  0  0  0  0
   -1.0120   19.5020  -33.1620 S   0  0  0  0  0  0  0  0  0  0  0  0
    0.2900   19.4050  -32.4160 O   0  0  0  0  0  0  0  0  0  0  0  0
   -0.7130   19.8650  -34.5910 O   0  0  0  0  0  0  0  0  0  0  0  0
   -1.8220   17.9690  -33.0990 N   0  0  0  0  0  0  0  0  0  0  0  0
   -3.1680   17.7680  -33.5630 C   0  0  0  0  0  0  0  0  0  0  0  0
   -3.3830   17.2370  -34.8430 C   0  0  0  0  0  0  0  0  0  0  0  0
   -4.6820   17.0360  -35.3190 C   0  0  0  0  0  0  0  0  0  0  0  0
   -5.7790   17.3830  -34.5300 C   0  0  0  0  0  0  0  0  0  0  0  0
   -5.5820   17.9420  -33.2590 C   0  0  0  0  0  0  0  0  0  0  0  0
   -6.9630   18.4620  -32.2920 S   0  0  0  0  0  0  0  0  0  0  0  0
   -6.5340   18.6030  -30.8590 O   0  0  0  0  0  0  0  0  0  0  0  0
   -8.0360   17.4100  -32.3520 O   0  0  0  0  0  0  0  0  0  0  0  0
   -7.6200   19.9830  -32.8560 N   0  0  0  0  0  0  0  0  0  0  0  0
   -6.7090   21.1230  -32.6100 C   0  0  0  0  0  0  0  0  0  0  0  0
   -6.9090   21.8070  -31.2410 C   0  0  0  0  0  0  0  0  0  0  0  0
   -8.3810   21.9330  -30.8100 C   0  0  0  0  0  0  0  0  0  0  0  0
   -9.3420   21.5850  -31.9440 C   0  0  0  0  0  0  0  0  0  0  0  0
   -9.0370   20.1720  -32.4570 C   0  0  0  0  0  0  0  0  0  0  0  0
   -4.2790   18.1190  -32.7750 C   0  0  0  0  0  0  0  0  0  0  0  0
   -3.0170   21.3710  -33.1470 C   0  0  0  0  0  0  0  0  0  0  0  0
   -3.8160   22.3680  -32.5690 C   0  0  0  0  0  0  0  0  0  0  0  0
   -3.6030   22.6910  -31.2310 C   0  0  0  0  0  0  0  0  0  0  0  0
   -0.5320   24.1308  -29.9240 H   0  0  0  0  0  0  0  0  0  0  0  0
   -0.4540   24.9912  -28.4216 H   0  0  0  0  0  0  0  0  0  0  0  0
   -1.4689   23.3585  -27.2510 H   0  0  0  0  0  0  0  0  0  0  0  0
   -1.4480   19.9792  -28.2447 H   0  0  0  0  0  0  0  0  0  0  0  0
   -1.5610   20.7933  -26.6532 H   0  0  0  0  0  0  0  0  0  0  0  0
   -3.6594   20.6890  -28.6247 H   0  0  0  0  0  0  0  0  0  0  0  0
   -3.6949   21.7450  -27.2585 H   0  0  0  0  0  0  0  0  0  0  0  0
   -1.0283   20.5861  -30.4477 H   0  0  0  0  0  0  0  0  0  0  0  0
   -1.3590   17.2130  -32.5470 H   0  0  0  0  0  0  0  0  0  0  0  0
   -2.5229   16.9766  -35.4774 H   0  0  0  0  0  0  0  0  0  0  0  0
   -4.8395   16.6032  -36.3180 H   0  0  0  0  0  0  0  0  0  0  0  0
   -6.7997   17.2179  -34.9053 H   0  0  0  0  0  0  0  0  0  0  0  0
   -5.6736   20.7555  -32.6643 H   0  0  0  0  0  0  0  0  0  0  0  0
   -6.9331   21.8787  -33.3773 H   0  0  0  0  0  0  0  0  0  0  0  0
   -6.3754   21.2188  -30.4798 H   0  0  0  0  0  0  0  0  0  0  0  0
   -6.5184   22.8307  -31.3381 H   0  0  0  0  0  0  0  0  0  0  0  0
   -8.5639   21.2497  -29.9676 H   0  0  0  0  0  0  0  0  0  0  0  0
   -8.5616   22.9789  -30.5212 H   0  0  0  0  0  0  0  0  0  0  0  0
  -10.3768   21.6250  -31.5730 H   0  0  0  0  0  0  0  0  0  0  0  0
   -9.2184   22.3075  -32.7642 H   0  0  0  0  0  0  0  0  0  0  0  0
   -9.2735   19.4527  -31.6591 H   0  0  0  0  0  0  0  0  0  0  0  0
   -9.6514   20.0130  -33.3555 H   0  0  0  0  0  0  0  0  0  0  0  0
   -4.1235   18.5364  -31.7692 H   0  0  0  0  0  0  0  0  0  0  0  0
   -3.1724   21.0898  -34.1990 H   0  0  0  0  0  0  0  0  0  0  0  0
   -4.5908   22.8816  -33.1570 H   0  0  0  0  0  0  0  0  0  0  0  0
  1  2  2  0
  2  3  1  0
  3  4  2  0
  4  5  1  0
  5  6  1  0
  6  7  1  0
  7  8  1  0
  8  9  1  0
 10  9  1  1
 10 11  1  0
 11 12  2  0
 12 13  1  0
 13 14  1  0
 14 15  2  0
 14 16  2  0
 14 17  1  0
 17 18  1  0
 18 19  2  0
 19 20  1  0
 20 21  2  0
 21 22  1  0
 22 23  1  0
 23 24  2  0
 23 25  2  0
 23 26  1  0
 26 27  1  0
 27 28  1  0
 28 29  1  0
 29 30  1  0
 30 31  1  0
 22 32  2  0
 13 33  2  0
 33 34  1  0
 34 35  2  0
 35  2  1  0
 10  3  1  0
 35 11  1  0
 10  6  1  0
 32 18  1  0
 31 26  1  0
  5 36  1  0
  5 37  1  0
  6 38  1  1
  8 39  1  0
  8 40  1  0
  9 41  1  0
  9 42  1  0
 12 43  1  0
 17 44  1  0
 19 45  1  0
 20 46  1  0
 21 47  1  0
 27 48  1  0
 27 49  1  0
 28 50  1  0
 28 51  1  0
 29 52  1  0
 29 53  1  0
 30 54  1  0
 30 55  1  0
 31 56  1  0
 31 57  1  0
 32 58  1  0
 33 59  1  0
 34 60  1  0
M  END
>  <UniqueID>  (20) 
19

>  <SMILES>  (20) 
O=C1C2=NC[C@@H]3OCC[C@@]23c2cc(S(=O)(=O)Nc3cccc(S(=O)(=O)N4CCCCC4)c3)ccc21

>  <Energy>  (20) 
176.1835496603528

>  <Genealogy>  (20) 
O=C1C2=NC[C@@H]3OCC[C@@]23c2cc(S(=O)(=O)Nc3cccc(S(=O)(=O)N4CCCCC4)c3)ccc21 (chirality)
O=C1C2=NC[C@@H]3OCC[C@@]23c2cc(S(=O)(=O)Nc3cccc(S(=O)(=O)N4CCCCC4)c3)ccc21 (3D coordinates assigned)
O=C1C2=NC[C@@H]3OCC[C@@]23c2cc(S(=O)(=O)Nc3cccc(S(=O)(=O)N4CCCCC4)c3)ccc21 (nonaromatic ring conformer: 176.1835496603528 kcal/mol)

>  <smiles>  (20) 
O=C1C2=NCC3OCCC23c2cc(S(=O)(=O)Nc3cccc(S(=O)(=O)N4CCCCC4)c3)ccc21

>  <score_type>  (20) 
oracle

>  <origin>  (20) 
adgpu

>  <m_score__min__energy>  (20) 
-12.77

>  <m_primary>  (20) 
energy

$$$$
20:0
     RDKit          3D

 58 62  0  0  0  0  0  0  0  0999 V2000
   -3.8620   25.4980  -30.8000 O   0  0  0  0  0  0  0  0  0  0  0  0
   -4.3940   24.5480  -30.1610 C   0  0  0  0  0  0  0  0  0  0  0  0
   -3.6950   23.9720  -28.9360 C   0  0  0  0  0  0  0  0  0  0  0  0
   -4.0730   22.4950  -28.7020 C   0  0  0  0  0  0  0  0  0  0  0  0
   -3.5510   21.5720  -29.8270 C   0  0  0  0  0  0  0  0  0  0  0  0
   -2.6070   22.2710  -30.7210 N   0  0  0  0  0  0  0  0  0  0  0  0
   -1.9040   21.1360  -31.8430 S   0  0  0  0  0  0  0  0  0  0  0  0
   -1.0300   20.1550  -31.1090 O   0  0  0  0  0  0  0  0  0  0  0  0
   -1.0650   21.8670  -32.8540 O   0  0  0  0  0  0  0  0  0  0  0  0
   -3.1960   20.2900  -32.6880 C   0  0  0  0  0  0  0  0  0  0  0  0
   -4.3770   20.9750  -33.0770 C   0  0  0  0  0  0  0  0  0  0  0  0
   -5.3840   20.3090  -33.8010 C   0  0  0  0  0  0  0  0  0  0  0  0
   -5.1740   18.9710  -34.1200 C   0  0  0  0  0  0  0  0  0  0  0  0
   -5.9750   18.1510  -34.8220 N   0  0  0  0  0  0  0  0  0  0  0  0
   -5.3570   16.9760  -34.9060 N   0  0  0  0  0  0  0  0  0  0  0  0
   -4.1670   17.0470  -34.2630 C   0  0  0  0  0  0  0  0  0  0  0  0
   -4.0370   18.3140  -33.7520 C   0  0  0  0  0  0  0  0  0  0  0  0
   -3.0220   18.9330  -33.0320 C   0  0  0  0  0  0  0  0  0  0  0  0
   -1.5540   22.9520  -29.9490 C   0  0  0  0  0  0  0  0  0  0  0  0
   -2.1520   24.0560  -29.0440 C   0  0  0  0  0  0  0  0  0  0  0  0
   -5.6520   24.0240  -30.6200 N   0  0  0  0  0  0  0  0  0  0  0  0
   -5.7960   23.7250  -32.0520 C   0  0  0  0  0  0  0  0  0  0  0  0
   -7.1980   23.2090  -32.3760 C   0  0  0  0  0  0  0  0  0  0  0  0
   -7.6190   22.2610  -31.3400 N   0  0  0  0  0  0  0  0  0  0  0  0
   -7.8990   20.8880  -31.6680 C   0  0  0  0  0  0  0  0  0  0  0  0
   -9.0840   20.5480  -32.3410 C   0  0  0  0  0  0  0  0  0  0  0  0
   -9.3640   19.2110  -32.6440 C   0  0  0  0  0  0  0  0  0  0  0  0
   -8.4690   18.2050  -32.2710 C   0  0  0  0  0  0  0  0  0  0  0  0
   -7.2950   18.5330  -31.5880 C   0  0  0  0  0  0  0  0  0  0  0  0
   -7.0100   19.8690  -31.2870 C   0  0  0  0  0  0  0  0  0  0  0  0
   -7.6140   22.6810  -29.9320 C   0  0  0  0  0  0  0  0  0  0  0  0
   -6.8210   23.9840  -29.7280 C   0  0  0  0  0  0  0  0  0  0  0  0
   -4.0371   24.5870  -28.0906 H   0  0  0  0  0  0  0  0  0  0  0  0
   -3.6409   22.1663  -27.7453 H   0  0  0  0  0  0  0  0  0  0  0  0
   -5.1708   22.4256  -28.6911 H   0  0  0  0  0  0  0  0  0  0  0  0
   -3.0385   20.7118  -29.3717 H   0  0  0  0  0  0  0  0  0  0  0  0
   -4.4130   21.2481  -30.4287 H   0  0  0  0  0  0  0  0  0  0  0  0
   -4.5063   22.0344  -32.8106 H   0  0  0  0  0  0  0  0  0  0  0  0
   -6.3051   20.8284  -34.1041 H   0  0  0  0  0  0  0  0  0  0  0  0
   -3.4339   16.2325  -34.1673 H   0  0  0  0  0  0  0  0  0  0  0  0
   -2.1145   18.3838  -32.7405 H   0  0  0  0  0  0  0  0  0  0  0  0
   -1.0353   22.2136  -29.3199 H   0  0  0  0  0  0  0  0  0  0  0  0
   -0.8517   23.4207  -30.6541 H   0  0  0  0  0  0  0  0  0  0  0  0
   -1.7230   23.9551  -28.0361 H   0  0  0  0  0  0  0  0  0  0  0  0
   -1.9037   25.0270  -29.4974 H   0  0  0  0  0  0  0  0  0  0  0  0
   -5.6100   24.6425  -32.6296 H   0  0  0  0  0  0  0  0  0  0  0  0
   -5.0695   22.9428  -32.3170 H   0  0  0  0  0  0  0  0  0  0  0  0
   -7.9017   24.0538  -32.4083 H   0  0  0  0  0  0  0  0  0  0  0  0
   -7.1873   22.7045  -33.3534 H   0  0  0  0  0  0  0  0  0  0  0  0
   -9.7947   21.3359  -32.6310 H   0  0  0  0  0  0  0  0  0  0  0  0
  -10.2906   18.9514  -33.1769 H   0  0  0  0  0  0  0  0  0  0  0  0
   -8.6885   17.1551  -32.5150 H   0  0  0  0  0  0  0  0  0  0  0  0
   -6.5945   17.7402  -31.2868 H   0  0  0  0  0  0  0  0  0  0  0  0
   -6.0848   20.1232  -30.7491 H   0  0  0  0  0  0  0  0  0  0  0  0
   -8.6518   22.8406  -29.6042 H   0  0  0  0  0  0  0  0  0  0  0  0
   -7.1302   21.8897  -29.3405 H   0  0  0  0  0  0  0  0  0  0  0  0
   -7.4730   24.8422  -29.9480 H   0  0  0  0  0  0  0  0  0  0  0  0
   -6.4730   24.0277  -28.6854 H   0  0  0  0  0  0  0  0  0  0  0  0
  1  2  2  0
  2  3  1  0
  3  4  1  0
  4  5  1  0
  5  6  1  0
  6  7  1  0
  7  8  2  0
  7  9  2  0
  7 10  1  0
 10 11  2  0
 11 12  1  0
 12 13  2  0
 13 14  1  0
 14 15  1  0
 15 16  2  0
 16 17  1  0
 17 18  2  0
  6 19  1  0
 19 20  1  0
  2 21  1  0
 21 22  1  0
 22 23  1  0
 23 24  1  0
 24 25  1  0
 25 26  2  0
 26 27  1  0
 27 28  2  0
 28 29  1  0
 29 30  2  0
 24 31  1  0
 31 32  1  0
 20  3  1  0
 32 21  1  0
 18 10  1  0
 30 25  1  0
 17 13  1  0
  3 33  1  0
  4 34  1  0
  4 35  1  0
  5 36  1  0
  5 37  1  0
 11 38  1  0
 12 39  1  0
 16 40  1  0
 18 41  1  0
 19 42  1  0
 19 43  1  0
 20 44  1  0
 20 45  1  0
 22 46  1  0
 22 47  1  0
 23 48  1  0
 23 49  1  0
 26 50  1  0
 27 51  1  0
 28 52  1  0
 29 53  1  0
 30 54  1  0
 31 55  1  0
 31 56  1  0
 32 57  1  0
 32 58  1  0
M  CHG  1  14  -1
M  END
>  <UniqueID>  (21) 
20

>  <SMILES>  (21) 
O=C(C1CCN(S(=O)(=O)c2ccc3[n-]ncc3c2)CC1)N1CCN(c2ccccc2)CC1

>  <Energy>  (21) 
108.7706184558754

>  <Genealogy>  (21) 
O=C(C1CCN(S(=O)(=O)c2ccc3[n-]ncc3c2)CC1)N1CCN(c2ccccc2)CC1 (protonated)
O=C(C1CCN(S(=O)(=O)c2ccc3[n-]ncc3c2)CC1)N1CCN(c2ccccc2)CC1 (3D coordinates assigned)
O=C(C1CCN(S(=O)(=O)c2ccc3[n-]ncc3c2)CC1)N1CCN(c2ccccc2)CC1 (nonaromatic ring conformer: 108.7706184558754 kcal/mol)

>  <smiles>  (21) 
O=C(C1CCN(S(=O)(=O)c2ccc3[nH]ncc3c2)CC1)N1CCN(c2ccccc2)CC1

>  <score_type>  (21) 
oracle

>  <origin>  (21) 
adgpu

>  <m_score__min__energy>  (21) 
-10.970000000000001

>  <m_primary>  (21) 
energy

$$$$
21:0
     RDKit          3D

 59 62  0  0  0  0  0  0  0  0999 V2000
   -2.5730   21.7500  -31.8970 C   0  0  0  0  0  0  0  0  0  0  0  0
   -3.8160   21.7470  -32.7260 C   0  0  0  0  0  0  0  0  0  0  0  0
   -3.8210   22.3280  -33.8450 O   0  0  0  0  0  0  0  0  0  0  0  0
   -4.9890   20.9570  -32.3140 C   0  0  0  0  0  0  0  0  0  0  0  0
   -4.8350   19.5680  -32.2600 C   0  0  0  0  0  0  0  0  0  0  0  0
   -5.8920   18.7390  -31.8750 C   0  0  0  0  0  0  0  0  0  0  0  0
   -5.6970   17.2750  -31.7720 C   0  0  0  0  0  0  0  0  0  0  0  0
   -6.1150   16.6650  -30.7520 O   0  0  0  0  0  0  0  0  0  0  0  0
   -5.0370   16.5400  -32.8190 N   0  0  0  0  0  0  0  0  0  0  0  0
   -3.7250   16.9820  -33.3030 C   0  0  0  0  0  0  0  0  0  0  0  0
   -3.5160   16.4780  -34.7320 C   0  0  0  0  0  0  0  0  0  0  0  0
   -3.7000   15.0760  -34.7920 O   0  0  0  0  0  0  0  0  0  0  0  0
   -5.0490   14.7570  -34.5080 C   0  0  0  0  0  0  0  0  0  0  0  0
   -5.4170   15.1470  -33.0700 C   0  0  0  0  0  0  0  0  0  0  0  0
   -7.1350   19.3100  -31.5900 C   0  0  0  0  0  0  0  0  0  0  0  0
   -7.3200   20.7020  -31.6150 C   0  0  0  0  0  0  0  0  0  0  0  0
   -8.6820   21.2350  -31.2490 C   0  0  0  0  0  0  0  0  0  0  0  0
   -6.2320   21.5530  -31.9690 C   0  0  0  0  0  0  0  0  0  0  0  0
   -6.3400   23.3280  -31.7680 S   0  0  0  0  0  0  0  0  0  0  0  0
   -5.3940   24.0310  -32.7000 O   0  0  0  0  0  0  0  0  0  0  0  0
   -7.7170   23.8590  -32.0510 O   0  0  0  0  0  0  0  0  0  0  0  0
   -5.8990   23.7010  -30.1370 N   0  0  0  0  0  0  0  0  0  0  0  0
   -4.5690   23.4570  -29.6780 C   0  0  0  0  0  0  0  0  0  0  0  0
   -4.2580   22.2490  -29.0380 C   0  0  0  0  0  0  0  0  0  0  0  0
   -2.9370   21.9760  -28.6570 C   0  0  0  0  0  0  0  0  0  0  0  0
   -1.9270   22.9190  -28.9020 C   0  0  0  0  0  0  0  0  0  0  0  0
   -2.2460   24.1400  -29.5130 C   0  0  0  0  0  0  0  0  0  0  0  0
   -3.5620   24.4060  -29.9060 C   0  0  0  0  0  0  0  0  0  0  0  0
   -3.8590   25.6100  -30.5350 O   0  0  0  0  0  0  0  0  0  0  0  0
   -0.5250   22.6120  -28.4460 C   0  0  0  0  0  0  0  0  0  0  0  0
   -0.1350   21.1510  -28.7540 C   0  0  0  0  0  0  0  0  0  0  0  0
   -1.2860   20.1180  -28.6190 C   0  0  0  0  0  0  0  0  0  0  0  0
   -2.5630   20.6850  -27.9820 C   0  0  0  0  0  0  0  0  0  0  0  0
   -2.8434   21.7493  -30.8307 H   0  0  0  0  0  0  0  0  0  0  0  0
   -1.9781   20.8533  -32.1250 H   0  0  0  0  0  0  0  0  0  0  0  0
   -1.9824   22.6496  -32.1250 H   0  0  0  0  0  0  0  0  0  0  0  0
   -3.8657   19.1206  -32.5250 H   0  0  0  0  0  0  0  0  0  0  0  0
   -3.6803   18.0810  -33.2910 H   0  0  0  0  0  0  0  0  0  0  0  0
   -2.9368   16.5774  -32.6511 H   0  0  0  0  0  0  0  0  0  0  0  0
   -4.2410   16.9677  -35.3988 H   0  0  0  0  0  0  0  0  0  0  0  0
   -2.4901   16.7173  -35.0486 H   0  0  0  0  0  0  0  0  0  0  0  0
   -5.7018   15.3013  -35.2063 H   0  0  0  0  0  0  0  0  0  0  0  0
   -5.1829   13.6711  -34.6211 H   0  0  0  0  0  0  0  0  0  0  0  0
   -6.5018   15.0333  -32.9274 H   0  0  0  0  0  0  0  0  0  0  0  0
   -4.8795   14.4925  -32.3681 H   0  0  0  0  0  0  0  0  0  0  0  0
   -7.9846   18.6570  -31.3414 H   0  0  0  0  0  0  0  0  0  0  0  0
   -8.7788   21.2729  -30.1539 H   0  0  0  0  0  0  0  0  0  0  0  0
   -8.8032   22.2469  -31.6630 H   0  0  0  0  0  0  0  0  0  0  0  0
   -9.4578   20.5741  -31.6630 H   0  0  0  0  0  0  0  0  0  0  0  0
   -5.0514   21.5147  -28.8347 H   0  0  0  0  0  0  0  0  0  0  0  0
   -1.4599   24.8903  -29.6837 H   0  0  0  0  0  0  0  0  0  0  0  0
    0.1743   23.2850  -28.9638 H   0  0  0  0  0  0  0  0  0  0  0  0
   -0.4774   22.7587  -27.3569 H   0  0  0  0  0  0  0  0  0  0  0  0
    0.2404   21.1094  -29.7871 H   0  0  0  0  0  0  0  0  0  0  0  0
    0.6172   20.8704  -28.0020 H   0  0  0  0  0  0  0  0  0  0  0  0
   -1.5364   19.7460  -29.6234 H   0  0  0  0  0  0  0  0  0  0  0  0
   -0.9232   19.3230  -27.9509 H   0  0  0  0  0  0  0  0  0  0  0  0
   -3.3825   19.9606  -28.0990 H   0  0  0  0  0  0  0  0  0  0  0  0
   -2.3844   20.8718  -26.9128 H   0  0  0  0  0  0  0  0  0  0  0  0
  1  2  1  0
  2  3  2  0
  2  4  1  0
  4  5  2  0
  5  6  1  0
  6  7  1  0
  7  8  2  0
  7  9  1  0
  9 10  1  0
 10 11  1  0
 11 12  1  0
 12 13  1  0
 13 14  1  0
  6 15  2  0
 15 16  1  0
 16 17  1  0
 16 18  2  0
 18 19  1  0
 19 20  2  0
 19 21  2  0
 19 22  1  0
 22 23  1  0
 23 24  2  0
 24 25  1  0
 25 26  2  0
 26 27  1  0
 27 28  2  0
 28 29  1  0
 26 30  1  0
 30 31  1  0
 31 32  1  0
 32 33  1  0
 18  4  1  0
 28 23  1  0
 14  9  1  0
 33 25  1  0
  1 34  1  0
  1 35  1  0
  1 36  1  0
  5 37  1  0
 10 38  1  0
 10 39  1  0
 11 40  1  0
 11 41  1  0
 13 42  1  0
 13 43  1  0
 14 44  1  0
 14 45  1  0
 15 46  1  0
 17 47  1  0
 17 48  1  0
 17 49  1  0
 24 50  1  0
 27 51  1  0
 30 52  1  0
 30 53  1  0
 31 54  1  0
 31 55  1  0
 32 56  1  0
 32 57  1  0
 33 58  1  0
 33 59  1  0
M  CHG  2  22  -1  29  -1
M  END
>  <UniqueID>  (22) 
21

>  <SMILES>  (22) 
CC(=O)c1cc(C(=O)N2CCOCC2)cc(C)c1S(=O)(=O)[N-]c1cc2c(cc1[O-])CCCC2

>  <Energy>  (22) 
90.77656579403869

>  <Genealogy>  (22) 
CC(=O)c1cc(C(=O)N2CCOCC2)cc(C)c1S(=O)(=O)[N-]c1cc2c(cc1[O-])CCCC2 (protonated)
CC(=O)c1cc(C(=O)N2CCOCC2)cc(C)c1S(=O)(=O)[N-]c1cc2c(cc1[O-])CCCC2 (3D coordinates assigned)
CC(=O)c1cc(C(=O)N2CCOCC2)cc(C)c1S(=O)(=O)[N-]c1cc2c(cc1[O-])CCCC2 (nonaromatic ring conformer: 90.77656579403869 kcal/mol)

>  <smiles>  (22) 
CC(=O)c1cc(C(=O)N2CCOCC2)cc(C)c1S(=O)(=O)Nc1cc2c(cc1O)CCCC2

>  <score_type>  (22) 
oracle

>  <origin>  (22) 
adgpu

>  <m_score__min__energy>  (22) 
-14.5

>  <m_primary>  (22) 
energy

$$$$
22:0
     RDKit          3D

 51 53  0  0  0  0  0  0  0  0999 V2000
   -7.8670   18.2590  -32.6690 C   0  0  0  0  0  0  0  0  0  0  0  0
   -8.7200   18.5530  -31.4460 C   0  0  0  0  0  0  0  0  0  0  0  0
   -9.1120   19.9230  -31.4560 O   0  0  0  0  0  0  0  0  0  0  0  0
   -8.2230   21.0010  -31.5600 C   0  0  0  0  0  0  0  0  0  0  0  0
   -8.7440   22.2670  -31.8560 C   0  0  0  0  0  0  0  0  0  0  0  0
   -7.8990   23.3760  -31.9640 C   0  0  0  0  0  0  0  0  0  0  0  0
   -6.5160   23.2340  -31.7610 C   0  0  0  0  0  0  0  0  0  0  0  0
   -5.6150   24.3450  -31.8810 N   0  0  0  0  0  0  0  0  0  0  0  0
   -5.2290   25.2310  -30.8260 C   0  0  0  0  0  0  0  0  0  0  0  0
   -6.1060   25.9530  -30.2840 O   0  0  0  0  0  0  0  0  0  0  0  0
   -3.8620   25.3020  -30.4000 N   0  0  0  0  0  0  0  0  0  0  0  0
   -3.1090   24.2780  -29.7310 C   0  0  0  0  0  0  0  0  0  0  0  0
   -3.5210   22.9330  -29.7350 C   0  0  0  0  0  0  0  0  0  0  0  0
   -2.7880   21.9710  -29.0380 C   0  0  0  0  0  0  0  0  0  0  0  0
   -1.6510   22.3390  -28.3170 C   0  0  0  0  0  0  0  0  0  0  0  0
   -1.2410   23.6800  -28.2830 C   0  0  0  0  0  0  0  0  0  0  0  0
    0.1780   24.1450  -27.3410 S   0  0  0  0  0  0  0  0  0  0  0  0
    1.2750   24.5380  -28.2890 O   0  0  0  0  0  0  0  0  0  0  0  0
    0.6450   22.9840  -26.5040 O   0  0  0  0  0  0  0  0  0  0  0  0
   -0.2190   25.4900  -26.3020 N   0  0  0  0  0  0  0  0  0  0  0  0
   -1.4770   25.2220  -25.5850 C   0  0  0  0  0  0  0  0  0  0  0  0
   -1.9550   26.4890  -24.8500 C   0  0  0  0  0  0  0  0  0  0  0  0
   -0.8020   27.4590  -24.5420 C   0  0  0  0  0  0  0  0  0  0  0  0
    0.4860   26.6980  -24.2120 C   0  0  0  0  0  0  0  0  0  0  0  0
    0.8870   25.7330  -25.3520 C   0  0  0  0  0  0  0  0  0  0  0  0
   -1.9740   24.6470  -28.9940 C   0  0  0  0  0  0  0  0  0  0  0  0
   -1.5770   25.9820  -28.9710 O   0  0  0  0  0  0  0  0  0  0  0  0
   -5.9910   21.9650  -31.4930 C   0  0  0  0  0  0  0  0  0  0  0  0
   -6.8340   20.8560  -31.3820 C   0  0  0  0  0  0  0  0  0  0  0  0
   -6.8722   17.9161  -32.3484 H   0  0  0  0  0  0  0  0  0  0  0  0
   -8.3484   17.4749  -33.2719 H   0  0  0  0  0  0  0  0  0  0  0  0
   -7.7630   19.1732  -33.2719 H   0  0  0  0  0  0  0  0  0  0  0  0
   -9.6162   17.9154  -31.4627 H   0  0  0  0  0  0  0  0  0  0  0  0
   -8.1381   18.3457  -30.5358 H   0  0  0  0  0  0  0  0  0  0  0  0
   -9.8269   22.3899  -32.0048 H   0  0  0  0  0  0  0  0  0  0  0  0
   -8.3185   24.3630  -32.2087 H   0  0  0  0  0  0  0  0  0  0  0  0
   -4.4242   22.6382  -30.2894 H   0  0  0  0  0  0  0  0  0  0  0  0
   -3.1078   20.9187  -29.0571 H   0  0  0  0  0  0  0  0  0  0  0  0
   -1.0749   21.5753  -27.7740 H   0  0  0  0  0  0  0  0  0  0  0  0
   -2.2462   24.9093  -26.3065 H   0  0  0  0  0  0  0  0  0  0  0  0
   -1.3051   24.4243  -24.8474 H   0  0  0  0  0  0  0  0  0  0  0  0
   -2.6926   27.0063  -25.4811 H   0  0  0  0  0  0  0  0  0  0  0  0
   -2.3938   26.1749  -23.8915 H   0  0  0  0  0  0  0  0  0  0  0  0
   -0.6265   28.0986  -25.4196 H   0  0  0  0  0  0  0  0  0  0  0  0
   -1.0813   28.0678  -23.6694 H   0  0  0  0  0  0  0  0  0  0  0  0
    1.2985   27.4229  -24.0559 H   0  0  0  0  0  0  0  0  0  0  0  0
    0.3099   26.1025  -23.3041 H   0  0  0  0  0  0  0  0  0  0  0  0
    1.7347   26.1685  -25.9012 H   0  0  0  0  0  0  0  0  0  0  0  0
    1.1541   24.7685  -24.8955 H   0  0  0  0  0  0  0  0  0  0  0  0
   -4.9053   21.8392  -31.3686 H   0  0  0  0  0  0  0  0  0  0  0  0
   -6.4109   19.8664  -31.1548 H   0  0  0  0  0  0  0  0  0  0  0  0
  1  2  1  0
  2  3  1  0
  3  4  1  0
  4  5  2  0
  5  6  1  0
  6  7  2  0
  7  8  1  0
  8  9  1  0
  9 10  2  0
  9 11  1  0
 11 12  1  0
 12 13  2  0
 13 14  1  0
 14 15  2  0
 15 16  1  0
 16 17  1  0
 17 18  2  0
 17 19  2  0
 17 20  1  0
 20 21  1  0
 21 22  1  0
 22 23  1  0
 23 24  1  0
 24 25  1  0
 16 26  2  0
 26 27  1  0
  7 28  1  0
 28 29  2  0
 29  4  1  0
 26 12  1  0
 25 20  1  0
  1 30  1  0
  1 31  1  0
  1 32  1  0
  2 33  1  0
  2 34  1  0
  5 35  1  0
  6 36  1  0
 13 37  1  0
 14 38  1  0
 15 39  1  0
 21 40  1  0
 21 41  1  0
 22 42  1  0
 22 43  1  0
 23 44  1  0
 23 45  1  0
 24 46  1  0
 24 47  1  0
 25 48  1  0
 25 49  1  0
 28 50  1  0
 29 51  1  0
M  CHG  3   8  -1  11  -1  27  -1
M  END
>  <UniqueID>  (23) 
22

>  <SMILES>  (23) 
CCOc1ccc([N-]C(=O)[N-]c2cccc(S(=O)(=O)N3CCCCC3)c2[O-])cc1

>  <Energy>  (23) 
58.93319740886912

>  <Genealogy>  (23) 
CCOc1ccc([N-]C(=O)[N-]c2cccc(S(=O)(=O)N3CCCCC3)c2[O-])cc1 (protonated)
CCOc1ccc([N-]C(=O)[N-]c2cccc(S(=O)(=O)N3CCCCC3)c2[O-])cc1 (3D coordinates assigned)
CCOc1ccc([N-]C(=O)[N-]c2cccc(S(=O)(=O)N3CCCCC3)c2[O-])cc1 (nonaromatic ring conformer: 58.93319740886912 kcal/mol)

>  <smiles>  (23) 
CCOc1ccc(NC(=O)Nc2cccc(S(=O)(=O)N3CCCCC3)c2O)cc1

>  <score_type>  (23) 
oracle

>  <origin>  (23) 
adgpu

>  <m_score__min__energy>  (23) 
-15.06

>  <m_primary>  (23) 
energy

$$$$
23:0
     RDKit          3D

 53 56  0  0  0  0  0  0  0  0999 V2000
   -4.4700   17.1000  -34.0920 C   0  0  0  0  0  0  0  0  0  0  0  0
   -5.8850   17.0190  -33.6020 C   0  0  0  0  0  0  0  0  0  0  0  0
   -6.4160   15.8810  -33.4820 O   0  0  0  0  0  0  0  0  0  0  0  0
   -6.6400   18.2090  -33.2850 N   0  0  0  0  0  0  0  0  0  0  0  0
   -6.1490   19.5270  -33.7210 C   0  0  0  0  0  0  0  0  0  0  0  0
   -7.1480   20.6440  -33.3970 C   0  0  0  0  0  0  0  0  0  0  0  0
   -7.6350   20.4930  -32.0200 N   0  0  0  0  0  0  0  0  0  0  0  0
   -7.8330   21.6450  -31.1790 C   0  0  0  0  0  0  0  0  0  0  0  0
   -8.9100   21.7580  -30.5330 O   0  0  0  0  0  0  0  0  0  0  0  0
   -6.7900   22.6870  -31.0310 C   0  0  0  0  0  0  0  0  0  0  0  0
   -7.1460   23.9990  -30.6800 C   0  0  0  0  0  0  0  0  0  0  0  0
   -6.1640   24.9780  -30.5150 C   0  0  0  0  0  0  0  0  0  0  0  0
   -4.8140   24.6630  -30.6980 C   0  0  0  0  0  0  0  0  0  0  0  0
   -3.8570   25.6590  -30.5370 O   0  0  0  0  0  0  0  0  0  0  0  0
   -4.4350   23.3540  -31.0470 C   0  0  0  0  0  0  0  0  0  0  0  0
   -3.0440   23.0360  -31.2310 N   0  0  0  0  0  0  0  0  0  0  0  0
   -2.0310   22.4500  -29.9500 S   0  0  0  0  0  0  0  0  0  0  0  0
   -2.5930   21.1580  -29.4230 O   0  0  0  0  0  0  0  0  0  0  0  0
   -0.6360   22.2250  -30.4600 O   0  0  0  0  0  0  0  0  0  0  0  0
   -1.9680   23.6530  -28.6660 C   0  0  0  0  0  0  0  0  0  0  0  0
   -2.9920   23.7240  -27.6940 C   0  0  0  0  0  0  0  0  0  0  0  0
   -2.9340   24.6820  -26.6680 C   0  0  0  0  0  0  0  0  0  0  0  0
   -1.8440   25.5460  -26.6370 C   0  0  0  0  0  0  0  0  0  0  0  0
   -1.5130   26.7790  -25.5480 S   0  0  0  0  0  0  0  0  0  0  0  0
   -0.0640   27.1740  -26.3310 C   0  0  0  0  0  0  0  0  0  0  0  0
    0.8230   28.3050  -25.9360 C   0  0  0  0  0  0  0  0  0  0  0  0
    0.1620   26.3980  -27.4200 N   0  0  0  0  0  0  0  0  0  0  0  0
   -0.8310   25.4860  -27.5800 C   0  0  0  0  0  0  0  0  0  0  0  0
   -0.8760   24.5420  -28.6060 C   0  0  0  0  0  0  0  0  0  0  0  0
   -5.4300   22.3690  -31.1910 C   0  0  0  0  0  0  0  0  0  0  0  0
   -8.1080   19.1820  -31.5510 C   0  0  0  0  0  0  0  0  0  0  0  0
   -7.9530   18.1010  -32.6280 C   0  0  0  0  0  0  0  0  0  0  0  0
   -3.7857   17.1392  -33.2316 H   0  0  0  0  0  0  0  0  0  0  0  0
   -4.2418   16.2134  -34.7019 H   0  0  0  0  0  0  0  0  0  0  0  0
   -4.3445   18.0068  -34.7019 H   0  0  0  0  0  0  0  0  0  0  0  0
   -5.1989   19.7399  -33.2092 H   0  0  0  0  0  0  0  0  0  0  0  0
   -6.0129   19.4967  -34.8121 H   0  0  0  0  0  0  0  0  0  0  0  0
   -6.6517   21.6198  -33.5037 H   0  0  0  0  0  0  0  0  0  0  0  0
   -7.9988   20.5825  -34.0915 H   0  0  0  0  0  0  0  0  0  0  0  0
   -8.2052   24.2574  -30.5340 H   0  0  0  0  0  0  0  0  0  0  0  0
   -6.4541   26.0027  -30.2395 H   0  0  0  0  0  0  0  0  0  0  0  0
   -2.6390   23.0360  -32.1940 H   0  0  0  0  0  0  0  0  0  0  0  0
   -3.8397   23.0246  -27.7413 H   0  0  0  0  0  0  0  0  0  0  0  0
   -3.7285   24.7472  -25.9101 H   0  0  0  0  0  0  0  0  0  0  0  0
    0.8716   28.3670  -24.8388 H   0  0  0  0  0  0  0  0  0  0  0  0
    1.8327   28.1371  -26.3388 H   0  0  0  0  0  0  0  0  0  0  0  0
    0.4193   29.2456  -26.3388 H   0  0  0  0  0  0  0  0  0  0  0  0
   -0.0726   24.4923  -29.3557 H   0  0  0  0  0  0  0  0  0  0  0  0
   -5.1394   21.3358  -31.4321 H   0  0  0  0  0  0  0  0  0  0  0  0
   -7.5243   18.8888  -30.6659 H   0  0  0  0  0  0  0  0  0  0  0  0
   -9.1771   19.2715  -31.3082 H   0  0  0  0  0  0  0  0  0  0  0  0
   -8.0429   17.1094  -32.1605 H   0  0  0  0  0  0  0  0  0  0  0  0
   -8.7403   18.2379  -33.3839 H   0  0  0  0  0  0  0  0  0  0  0  0
  1  2  1  0
  2  3  2  0
  2  4  1  0
  4  5  1  0
  5  6  1  0
  6  7  1  0
  7  8  1  0
  8  9  2  0
  8 10  1  0
 10 11  2  0
 11 12  1  0
 12 13  2  0
 13 14  1  0
 13 15  1  0
 15 16  1  0
 16 17  1  0
 17 18  2  0
 17 19  2  0
 17 20  1  0
 20 21  2  0
 21 22  1  0
 22 23  2  0
 23 24  1  0
 24 25  1  0
 25 26  1  0
 25 27  2  0
 27 28  1  0
 28 29  2  0
 15 30  2  0
  7 31  1  0
 31 32  1  0
 32  4  1  0
 30 10  1  0
 29 20  1  0
 28 23  1  0
  1 33  1  0
  1 34  1  0
  1 35  1  0
  5 36  1  0
  5 37  1  0
  6 38  1  0
  6 39  1  0
 11 40  1  0
 12 41  1  0
 16 42  1  0
 21 43  1  0
 22 44  1  0
 26 45  1  0
 26 46  1  0
 26 47  1  0
 29 48  1  0
 30 49  1  0
 31 50  1  0
 31 51  1  0
 32 52  1  0
 32 53  1  0
M  CHG  1  14  -1
M  END
>  <UniqueID>  (24) 
23

>  <SMILES>  (24) 
CC(=O)N1CCN(C(=O)c2ccc([O-])c(NS(=O)(=O)c3ccc4sc(C)nc4c3)c2)CC1

>  <Energy>  (24) 
96.16436077634332

>  <Genealogy>  (24) 
CC(=O)N1CCN(C(=O)c2ccc([O-])c(NS(=O)(=O)c3ccc4sc(C)nc4c3)c2)CC1 (protonated)
CC(=O)N1CCN(C(=O)c2ccc([O-])c(NS(=O)(=O)c3ccc4sc(C)nc4c3)c2)CC1 (3D coordinates assigned)
CC(=O)N1CCN(C(=O)c2ccc([O-])c(NS(=O)(=O)c3ccc4sc(C)nc4c3)c2)CC1 (nonaromatic ring conformer: 96.16436077634332 kcal/mol)

>  <smiles>  (24) 
CC(=O)N1CCN(C(=O)c2ccc(O)c(NS(=O)(=O)c3ccc4sc(C)nc4c3)c2)CC1

>  <score_type>  (24) 
oracle

>  <origin>  (24) 
adgpu

>  <m_score__min__energy>  (24) 
-13.93

>  <m_primary>  (24) 
energy

$$$$
24:0
     RDKit          3D

 35 37  0  0  0  0  0  0  0  0999 V2000
   -0.8280   22.5280  -29.6650 H   0  0  0  0  0  0  0  0  0  0  0  0
   -0.6680   22.3130  -30.6400 O   0  0  0  0  0  0  0  0  0  0  0  0
   -0.4460   21.0200  -31.1180 C   0  0  0  0  0  0  0  0  0  0  0  0
   -0.1760   20.8710  -32.4840 C   0  0  0  0  0  0  0  0  0  0  0  0
   -0.2087   21.7501  -33.1444 H   0  0  0  0  0  0  0  0  0  0  0  0
    0.1340   19.6190  -33.0160 C   0  0  0  0  0  0  0  0  0  0  0  0
    0.3353   19.5162  -34.0925 H   0  0  0  0  0  0  0  0  0  0  0  0
    0.1900   18.4930  -32.1860 C   0  0  0  0  0  0  0  0  0  0  0  0
    0.4940   17.1420  -32.7620 C   0  0  0  0  0  0  0  0  0  0  0  0
    0.6558   16.4231  -31.9453 H   0  0  0  0  0  0  0  0  0  0  0  0
   -0.3516   16.8088  -33.3816 H   0  0  0  0  0  0  0  0  0  0  0  0
    1.4008   17.2032  -33.3816 H   0  0  0  0  0  0  0  0  0  0  0  0
   -0.1180   18.6270  -30.8250 C   0  0  0  0  0  0  0  0  0  0  0  0
   -0.0974   17.7398  -30.1750 H   0  0  0  0  0  0  0  0  0  0  0  0
   -0.4530   19.8790  -30.2780 C   0  0  0  0  0  0  0  0  0  0  0  0
   -0.8380   19.9280  -28.8510 C   0  0  0  0  0  0  0  0  0  0  0  0
   -1.2000   18.8630  -28.1050 N   0  0  0  0  0  0  0  0  0  0  0  0
   -1.4080   19.3130  -26.8760 N   0  0  0  0  0  0  0  0  0  0  0  0
   -1.1580   20.6320  -26.9260 C   0  0  0  0  0  0  0  0  0  0  0  0
   -1.2420   21.4160  -25.8950 N   0  0  0  0  0  0  0  0  0  0  0  0
   -0.9590   22.8500  -25.9470 C   0  0  0  0  0  0  0  0  0  0  0  0
   -1.3427   23.3272  -25.0332 H   0  0  0  0  0  0  0  0  0  0  0  0
    0.1289   22.9934  -26.0243 H   0  0  0  0  0  0  0  0  0  0  0  0
   -1.6170   23.4790  -27.1470 C   0  0  0  0  0  0  0  0  0  0  0  0
   -2.7900   22.9210  -27.6800 C   0  0  0  0  0  0  0  0  0  0  0  0
   -3.2089   22.0038  -27.2404 H   0  0  0  0  0  0  0  0  0  0  0  0
   -3.4280   23.5260  -28.7670 C   0  0  0  0  0  0  0  0  0  0  0  0
   -4.3428   23.0797  -29.1842 H   0  0  0  0  0  0  0  0  0  0  0  0
   -2.9060   24.6970  -29.3250 C   0  0  0  0  0  0  0  0  0  0  0  0
   -3.5470   25.2960  -30.4020 O   0  0  0  0  0  0  0  0  0  0  0  0
   -1.7400   25.2640  -28.7940 C   0  0  0  0  0  0  0  0  0  0  0  0
   -1.2200   26.4330  -29.3400 O   0  0  0  0  0  0  0  0  0  0  0  0
   -1.0980   24.6570  -27.7110 C   0  0  0  0  0  0  0  0  0  0  0  0
   -0.1816   25.1037  -27.2979 H   0  0  0  0  0  0  0  0  0  0  0  0
   -0.8100   21.0210  -28.1270 O   0  0  0  0  0  0  0  0  0  0  0  0
  1  2  1  0
  2  3  1  0
  3  4  2  0
  4  5  1  0
  4  6  1  0
  6  7  1  0
  6  8  2  0
  8  9  1  0
  9 10  1  0
  9 11  1  0
  9 12  1  0
  8 13  1  0
 13 14  1  0
 13 15  2  0
 15 16  1  0
 16 17  2  0
 17 18  1  0
 18 19  1  0
 19 20  2  0
 20 21  1  0
 21 22  1  0
 21 23  1  0
 21 24  1  0
 24 25  2  0
 25 26  1  0
 25 27  1  0
 27 28  1  0
 27 29  2  0
 29 30  1  0
 29 31  1  0
 31 32  1  0
 31 33  2  0
 33 34  1  0
 19 35  1  0
 15  3  1  0
 35 16  1  0
 33 24  1  0
M  CHG  3  18  -1  30  -1  32  -1
M  END
>  <UniqueID>  (25) 
24

>  <SMILES>  (25) 
Cc1ccc(O)c(-c2n[n-]/c(=N/Cc3ccc([O-])c([O-])c3)o2)c1

>  <Energy>  (25) 
74.8647889564218

>  <Genealogy>  (25) 
Cc1ccc(O)c(-c2n[n-]c(=NCc3ccc([O-])c([O-])c3)o2)c1 (protonated)
Cc1ccc(O)c(-c2n[n-]/c(=N/Cc3ccc([O-])c([O-])c3)o2)c1 (cis-trans isomerization)
Cc1ccc(O)c(-c2n[n-]/c(=N/Cc3ccc([O-])c([O-])c3)o2)c1 (3D coordinates assigned)
Cc1ccc(O)c(-c2n[n-]/c(=N/Cc3ccc([O-])c([O-])c3)o2)c1 (optimized conformer: 74.8647889564218 kcal/mol)

>  <smiles>  (25) 
Cc1ccc(O)c(-c2n[nH]c(=NCc3ccc(O)c(O)c3)o2)c1

>  <score_type>  (25) 
oracle

>  <origin>  (25) 
adgpu

>  <m_score__min__energy>  (25) 
-12.949999999999999

>  <m_primary>  (25) 
energy

$$$$
25:0
     RDKit          3D

 52 55  0  0  1  0  0  0  0  0999 V2000
   -4.1000   13.7020  -31.7030 C   0  0  0  0  0  0  0  0  0  0  0  0
   -3.3610   14.3300  -32.7430 O   0  0  0  0  0  0  0  0  0  0  0  0
   -3.4870   13.8620  -34.0560 C   0  0  0  0  0  0  0  0  0  0  0  0
   -4.0690   12.6400  -34.3350 C   0  0  0  0  0  0  0  0  0  0  0  0
   -4.2040   12.1590  -35.6170 C   0  0  0  0  0  0  0  0  0  0  0  0
   -3.7280   12.9490  -36.6690 C   0  0  0  0  0  0  0  0  0  0  0  0
   -3.1430   14.1790  -36.3670 C   0  0  0  0  0  0  0  0  0  0  0  0
   -3.0100   14.6530  -35.1030 C   0  0  0  0  0  0  0  0  0  0  0  0
   -2.3890   15.9690  -34.7550 C   0  0  0  0  0  0  0  0  0  0  0  0
   -3.3150   17.0440  -34.9640 N   0  0  0  0  0  0  0  0  0  0  0  0
   -4.2440   17.4180  -34.1590 C   0  0  0  0  0  0  0  0  0  0  0  0
   -5.0460   18.4470  -34.4810 N   0  0  0  0  0  0  0  0  0  0  0  0
   -6.0340   18.8690  -33.6600 C   0  0  0  0  0  0  0  0  0  0  0  0
   -6.7370   19.8470  -34.0520 N   0  0  0  0  0  0  0  0  0  0  0  0
   -7.8100   20.3700  -33.2540 C   0  0  0  0  0  0  0  0  0  0  0  0
   -7.1730   21.4880  -32.4330 C   0  0  0  0  0  0  0  0  0  0  0  0
   -5.8530   21.8390  -32.6280 C   0  0  0  0  0  0  0  0  0  0  0  0
   -5.2800   22.8500  -31.8820 C   0  0  0  0  0  0  0  0  0  0  0  0
   -6.0650   23.4880  -30.9460 C   0  0  0  0  0  0  0  0  0  0  0  0
   -5.3660   24.7760  -29.9840 S   0  0  0  0  0  0  0  0  0  0  0  0
   -4.0350   25.5340  -30.7880 N   0  0  0  0  0  0  0  0  0  0  0  0
   -6.3770   25.8480  -29.6760 O   0  0  0  0  0  0  0  0  0  0  0  0
   -4.8300   24.1960  -28.7140 O   0  0  0  0  0  0  0  0  0  0  0  0
   -7.3870   23.1750  -30.7140 C   0  0  0  0  0  0  0  0  0  0  0  0
   -7.9260   22.1590  -31.4780 C   0  0  0  0  0  0  0  0  0  0  0  0
   -6.2090   18.2310  -32.4860 C   0  0  0  0  0  0  0  0  0  0  0  0
   -7.0840   18.3970  -31.4580 C   0  0  0  0  0  0  0  0  0  0  0  0
   -6.7410   17.4270  -30.5540 N   0  0  0  0  0  0  0  0  0  0  0  0
   -5.7330   16.7070  -30.9770 N   0  0  0  0  0  0  0  0  0  0  0  0
   -5.3670   17.1740  -32.1810 C   0  0  0  0  0  0  0  0  0  0  0  0
   -4.3860   16.7560  -32.9990 N   0  0  0  0  0  0  0  0  0  0  0  0
   -3.7126   14.0312  -30.7275 H   0  0  0  0  0  0  0  0  0  0  0  0
   -5.1611   13.9789  -31.7885 H   0  0  0  0  0  0  0  0  0  0  0  0
   -3.9979   12.6101  -31.7885 H   0  0  0  0  0  0  0  0  0  0  0  0
   -4.4389   12.0278  -33.4993 H   0  0  0  0  0  0  0  0  0  0  0  0
   -4.6723   11.1824  -35.8091 H   0  0  0  0  0  0  0  0  0  0  0  0
   -3.8131   12.6078  -37.7113 H   0  0  0  0  0  0  0  0  0  0  0  0
   -2.7701   14.7967  -37.1973 H   0  0  0  0  0  0  0  0  0  0  0  0
   -2.0857   15.9556  -33.6977 H   0  0  0  0  0  0  0  0  0  0  0  0
   -1.5150   16.1273  -35.4039 H   0  0  0  0  0  0  0  0  0  0  0  0
   -4.8900   18.9150  -35.3810 H   0  0  0  0  0  0  0  0  0  0  0  0
   -8.6116   20.7672  -33.8941 H   0  0  0  0  0  0  0  0  0  0  0  0
   -8.2711   19.5987  -32.6196 H   0  0  0  0  0  0  0  0  0  0  0  0
   -5.2529   21.3099  -33.3829 H   0  0  0  0  0  0  0  0  0  0  0  0
   -4.2286   23.1375  -32.0304 H   0  0  0  0  0  0  0  0  0  0  0  0
   -4.2840   25.7670  -31.7760 H   0  0  0  0  0  0  0  0  0  0  0  0
   -3.8730   26.4490  -30.3060 H   0  0  0  0  0  0  0  0  0  0  0  0
   -7.9828   23.7078  -29.9582 H   0  0  0  0  0  0  0  0  0  0  0  0
   -8.9776   21.8740  -31.3266 H   0  0  0  0  0  0  0  0  0  0  0  0
   -7.8874   19.1434  -31.3719 H   0  0  0  0  0  0  0  0  0  0  0  0
   -5.3080   15.9130  -30.4460 H   0  0  0  0  0  0  0  0  0  0  0  0
   -3.7650   15.9590  -32.7480 H   0  0  0  0  0  0  0  0  0  0  0  0
  1  2  1  0
  2  3  1  0
  3  4  2  0
  4  5  1  0
  5  6  2  0
  6  7  1  0
  7  8  2  0
  8  9  1  0
  9 10  1  0
 10 11  2  0
 11 12  1  0
 12 13  1  0
 13 14  2  0
 14 15  1  0
 15 16  1  0
 16 17  2  0
 17 18  1  0
 18 19  2  0
 19 20  1  0
 20 21  1  0
 20 22  2  0
 20 23  2  0
 19 24  1  0
 24 25  2  0
 13 26  1  0
 26 27  1  0
 27 28  2  0
 28 29  1  0
 29 30  1  0
 30 31  1  0
  8  3  1  0
 31 11  1  0
 25 16  1  0
 30 26  2  0
  1 32  1  0
  1 33  1  0
  1 34  1  0
  4 35  1  0
  5 36  1  0
  6 37  1  0
  7 38  1  0
  9 39  1  0
  9 40  1  0
 12 41  1  0
 15 42  1  0
 15 43  1  0
 17 44  1  0
 18 45  1  0
 21 46  1  0
 21 47  1  0
 24 48  1  0
 25 49  1  0
 27 50  1  0
 29 51  1  0
 31 52  1  0
M  END
>  <smiles>  (26) 
COc1ccccc1CN=c1[nH]c(=NCc2ccc(S(N)(=O)=O)cc2)c2cn[nH]c2[nH]1

>  <score_type>  (26) 
oracle

>  <origin>  (26) 
adgpu

>  <m_score__min__energy>  (26) 
-9.25

>  <m_primary>  (26) 
energy

$$$$
26:0
     RDKit          3D

 50 53  0  0  0  0  0  0  0  0999 V2000
   -6.1760   17.3390  -33.0470 C   0  0  0  0  0  0  0  0  0  0  0  0
   -6.3710   18.6720  -33.6980 C   0  0  0  0  0  0  0  0  0  0  0  0
   -5.8990   18.8610  -34.8500 O   0  0  0  0  0  0  0  0  0  0  0  0
   -7.0450   19.7360  -32.9990 N   0  0  0  0  0  0  0  0  0  0  0  0
   -8.4590   19.6930  -32.6120 C   0  0  0  0  0  0  0  0  0  0  0  0
   -8.7080   20.9440  -31.7380 C   0  0  0  0  0  0  0  0  0  0  0  0
   -7.3900   21.6300  -31.7370 C   0  0  0  0  0  0  0  0  0  0  0  0
   -7.0600   22.8330  -31.1120 C   0  0  0  0  0  0  0  0  0  0  0  0
   -5.7480   23.3210  -31.2370 C   0  0  0  0  0  0  0  0  0  0  0  0
   -5.2850   24.7980  -30.3960 S   0  0  0  0  0  0  0  0  0  0  0  0
   -5.8210   26.0070  -31.1110 O   0  0  0  0  0  0  0  0  0  0  0  0
   -5.8500   24.7590  -29.0050 O   0  0  0  0  0  0  0  0  0  0  0  0
   -3.5550   24.9090  -30.3150 N   0  0  0  0  0  0  0  0  0  0  0  0
   -2.7590   24.1170  -29.4140 C   0  0  0  0  0  0  0  0  0  0  0  0
   -3.1120   22.7900  -29.1090 C   0  0  0  0  0  0  0  0  0  0  0  0
   -2.3620   22.0390  -28.1930 C   0  0  0  0  0  0  0  0  0  0  0  0
   -1.2070   22.6000  -27.6120 C   0  0  0  0  0  0  0  0  0  0  0  0
   -0.8480   23.9180  -27.9250 C   0  0  0  0  0  0  0  0  0  0  0  0
   -1.6130   24.6720  -28.8200 C   0  0  0  0  0  0  0  0  0  0  0  0
   -1.2330   25.9790  -29.1010 O   0  0  0  0  0  0  0  0  0  0  0  0
   -0.4080   21.8390  -26.5790 C   0  0  0  0  0  0  0  0  0  0  0  0
   -0.6120   20.3790  -26.6500 N   0  0  0  0  0  0  0  0  0  0  0  0
    0.1450   19.7710  -27.7580 C   0  0  0  0  0  0  0  0  0  0  0  0
   -2.0470   20.0360  -26.6840 C   0  0  0  0  0  0  0  0  0  0  0  0
   -2.7580   20.6120  -27.9180 C   0  0  0  0  0  0  0  0  0  0  0  0
   -4.8040   22.6060  -32.0040 C   0  0  0  0  0  0  0  0  0  0  0  0
   -5.1620   21.4000  -32.6270 C   0  0  0  0  0  0  0  0  0  0  0  0
   -6.4690   20.9210  -32.4590 C   0  0  0  0  0  0  0  0  0  0  0  0
   -6.1935   17.4588  -31.9537 H   0  0  0  0  0  0  0  0  0  0  0  0
   -6.9842   16.6591  -33.3544 H   0  0  0  0  0  0  0  0  0  0  0  0
   -5.2069   16.9191  -33.3544 H   0  0  0  0  0  0  0  0  0  0  0  0
   -9.0995   19.7193  -33.5059 H   0  0  0  0  0  0  0  0  0  0  0  0
   -8.6956   18.7690  -32.0641 H   0  0  0  0  0  0  0  0  0  0  0  0
   -9.4851   21.5848  -32.1800 H   0  0  0  0  0  0  0  0  0  0  0  0
   -9.0653   20.6980  -30.7272 H   0  0  0  0  0  0  0  0  0  0  0  0
   -7.8121   23.3887  -30.5327 H   0  0  0  0  0  0  0  0  0  0  0  0
   -3.1080   25.6900  -30.8450 H   0  0  0  0  0  0  0  0  0  0  0  0
   -3.9878   22.3357  -29.5954 H   0  0  0  0  0  0  0  0  0  0  0  0
    0.0446   24.3638  -27.4619 H   0  0  0  0  0  0  0  0  0  0  0  0
    0.6598   22.0514  -26.7361 H   0  0  0  0  0  0  0  0  0  0  0  0
   -0.7523   22.1706  -25.5883 H   0  0  0  0  0  0  0  0  0  0  0  0
    0.9415   19.1312  -27.3503 H   0  0  0  0  0  0  0  0  0  0  0  0
   -0.5331   19.1636  -28.3755 H   0  0  0  0  0  0  0  0  0  0  0  0
    0.5918   20.5641  -28.3755 H   0  0  0  0  0  0  0  0  0  0  0  0
   -2.1481   18.9407  -26.6972 H   0  0  0  0  0  0  0  0  0  0  0  0
   -2.5176   20.4736  -25.7912 H   0  0  0  0  0  0  0  0  0  0  0  0
   -2.4995   19.9983  -28.7935 H   0  0  0  0  0  0  0  0  0  0  0  0
   -3.8400   20.5956  -27.7206 H   0  0  0  0  0  0  0  0  0  0  0  0
   -3.7814   22.9959  -32.1145 H   0  0  0  0  0  0  0  0  0  0  0  0
   -4.4330   20.8429  -33.2338 H   0  0  0  0  0  0  0  0  0  0  0  0
  1  2  1  0
  2  3  2  0
  2  4  1  0
  4  5  1  0
  5  6  1  0
  6  7  1  0
  7  8  2  0
  8  9  1  0
  9 10  1  0
 10 11  2  0
 10 12  2  0
 10 13  1  0
 13 14  1  0
 14 15  2  0
 15 16  1  0
 16 17  2  0
 17 18  1  0
 18 19  2  0
 19 20  1  0
 17 21  1  0
 21 22  1  0
 22 23  1  0
 22 24  1  0
 24 25  1  0
  9 26  2  0
 26 27  1  0
 27 28  2  0
 28  4  1  0
 28  7  1  0
 19 14  1  0
 25 16  1  0
  1 29  1  0
  1 30  1  0
  1 31  1  0
  5 32  1  0
  5 33  1  0
  6 34  1  0
  6 35  1  0
  8 36  1  0
 13 37  1  0
 15 38  1  0
 18 39  1  0
 21 40  1  0
 21 41  1  0
 23 42  1  0
 23 43  1  0
 23 44  1  0
 24 45  1  0
 24 46  1  0
 25 47  1  0
 25 48  1  0
 26 49  1  0
 27 50  1  0
M  CHG  1  20  -1
M  END
>  <UniqueID>  (27) 
25

>  <SMILES>  (27) 
CC(=O)N1CCc2cc(S(=O)(=O)Nc3cc4c(cc3[O-])CN(C)CC4)ccc21

>  <Energy>  (27) 
75.42864673251177

>  <Genealogy>  (27) 
CC(=O)N1CCc2cc(S(=O)(=O)Nc3cc4c(cc3[O-])CN(C)CC4)ccc21 (protonated)
CC(=O)N1CCc2cc(S(=O)(=O)Nc3cc4c(cc3[O-])CN(C)CC4)ccc21 (3D coordinates assigned)
CC(=O)N1CCc2cc(S(=O)(=O)Nc3cc4c(cc3[O-])CN(C)CC4)ccc21 (nonaromatic ring conformer: 75.42864673251177 kcal/mol)

>  <smiles>  (27) 
CC(=O)N1CCc2cc(S(=O)(=O)Nc3cc4c(cc3O)CN(C)CC4)ccc21

>  <score_type>  (27) 
oracle

>  <origin>  (27) 
adgpu

>  <m_score__min__energy>  (27) 
-14.44

>  <m_primary>  (27) 
energy

$$$$
27:0
     RDKit          3D

 48 52  0  0  0  0  0  0  0  0999 V2000
   -1.6500   18.3300  -26.7090 O   0  0  0  0  0  0  0  0  0  0  0  0
   -1.1910   18.9440  -27.7090 C   0  0  0  0  0  0  0  0  0  0  0  0
   -0.0240   18.3970  -28.4440 C   0  0  0  0  0  0  0  0  0  0  0  0
    0.5910   17.2010  -28.0280 C   0  0  0  0  0  0  0  0  0  0  0  0
    1.6880   16.6870  -28.7260 C   0  0  0  0  0  0  0  0  0  0  0  0
    2.1800   17.3560  -29.8430 C   0  0  0  0  0  0  0  0  0  0  0  0
    1.5820   18.5460  -30.2670 C   0  0  0  0  0  0  0  0  0  0  0  0
    0.4780   19.0780  -29.5720 C   0  0  0  0  0  0  0  0  0  0  0  0
   -0.1580   20.3420  -30.0160 C   0  0  0  0  0  0  0  0  0  0  0  0
    0.2750   20.9440  -31.0400 O   0  0  0  0  0  0  0  0  0  0  0  0
   -1.3090   20.8990  -29.2630 C   0  0  0  0  0  0  0  0  0  0  0  0
   -1.8900   22.1180  -29.6460 C   0  0  0  0  0  0  0  0  0  0  0  0
   -2.9670   22.6540  -28.9310 C   0  0  0  0  0  0  0  0  0  0  0  0
   -3.5630   24.2610  -29.3350 S   0  0  0  0  0  0  0  0  0  0  0  0
   -4.5760   24.6780  -28.3070 O   0  0  0  0  0  0  0  0  0  0  0  0
   -2.4490   25.2690  -29.3490 O   0  0  0  0  0  0  0  0  0  0  0  0
   -4.3230   24.1740  -30.8920 N   0  0  0  0  0  0  0  0  0  0  0  0
   -5.3440   23.2150  -31.1900 C   0  0  0  0  0  0  0  0  0  0  0  0
   -5.0880   22.1390  -32.0590 C   0  0  0  0  0  0  0  0  0  0  0  0
   -6.0720   21.1710  -32.3030 C   0  0  0  0  0  0  0  0  0  0  0  0
   -7.3390   21.2950  -31.6910 C   0  0  0  0  0  0  0  0  0  0  0  0
   -7.5950   22.3780  -30.8320 C   0  0  0  0  0  0  0  0  0  0  0  0
   -6.6020   23.3370  -30.5870 C   0  0  0  0  0  0  0  0  0  0  0  0
   -6.8490   24.3930  -29.7240 O   0  0  0  0  0  0  0  0  0  0  0  0
   -8.3800   20.2120  -31.8610 C   0  0  0  0  0  0  0  0  0  0  0  0
   -8.1770   19.4290  -33.0880 N   0  0  0  0  0  0  0  0  0  0  0  0
   -6.8000   18.9230  -33.1660 C   0  0  0  0  0  0  0  0  0  0  0  0
   -5.7980   20.0740  -33.2980 C   0  0  0  0  0  0  0  0  0  0  0  0
   -3.4770   21.9660  -27.8270 C   0  0  0  0  0  0  0  0  0  0  0  0
   -2.9090   20.7540  -27.4360 C   0  0  0  0  0  0  0  0  0  0  0  0
   -1.8180   20.2130  -28.1420 C   0  0  0  0  0  0  0  0  0  0  0  0
    0.2056   16.6668  -27.1471 H   0  0  0  0  0  0  0  0  0  0  0  0
    2.1629   15.7527  -28.3920 H   0  0  0  0  0  0  0  0  0  0  0  0
    3.0407   16.9476  -30.3929 H   0  0  0  0  0  0  0  0  0  0  0  0
    1.9762   19.0709  -31.1497 H   0  0  0  0  0  0  0  0  0  0  0  0
   -1.4941   22.6584  -30.5185 H   0  0  0  0  0  0  0  0  0  0  0  0
   -4.1077   22.0565  -32.5511 H   0  0  0  0  0  0  0  0  0  0  0  0
   -8.5791   22.4735  -30.3498 H   0  0  0  0  0  0  0  0  0  0  0  0
   -6.2900   24.5320  -28.9020 H   0  0  0  0  0  0  0  0  0  0  0  0
   -8.3290   19.5338  -30.9964 H   0  0  0  0  0  0  0  0  0  0  0  0
   -9.3634   20.6996  -31.9326 H   0  0  0  0  0  0  0  0  0  0  0  0
   -8.3690   20.0380  -33.9200 H   0  0  0  0  0  0  0  0  0  0  0  0
   -6.5742   18.3527  -32.2529 H   0  0  0  0  0  0  0  0  0  0  0  0
   -6.7132   18.2797  -34.0540 H   0  0  0  0  0  0  0  0  0  0  0  0
   -4.7835   19.6842  -33.1279 H   0  0  0  0  0  0  0  0  0  0  0  0
   -5.8946   20.4972  -34.3087 H   0  0  0  0  0  0  0  0  0  0  0  0
   -4.3273   22.3808  -27.2658 H   0  0  0  0  0  0  0  0  0  0  0  0
   -3.3172   20.2157  -26.5679 H   0  0  0  0  0  0  0  0  0  0  0  0
  1  2  2  0
  2  3  1  0
  3  4  2  0
  4  5  1  0
  5  6  2  0
  6  7  1  0
  7  8  2  0
  8  9  1  0
  9 10  2  0
  9 11  1  0
 11 12  2  0
 12 13  1  0
 13 14  1  0
 14 15  2  0
 14 16  2  0
 14 17  1  0
 17 18  1  0
 18 19  2  0
 19 20  1  0
 20 21  2  0
 21 22  1  0
 22 23  2  0
 23 24  1  0
 21 25  1  0
 25 26  1  0
 26 27  1  0
 27 28  1  0
 13 29  2  0
 29 30  1  0
 30 31  2  0
 31  2  1  0
  8  3  1  0
 31 11  1  0
 23 18  1  0
 28 20  1  0
  4 32  1  0
  5 33  1  0
  6 34  1  0
  7 35  1  0
 12 36  1  0
 19 37  1  0
 22 38  1  0
 24 39  1  0
 25 40  1  0
 25 41  1  0
 26 42  1  0
 27 43  1  0
 27 44  1  0
 28 45  1  0
 28 46  1  0
 29 47  1  0
 30 48  1  0
M  CHG  1  17  -1
M  END
>  <UniqueID>  (28) 
26

>  <SMILES>  (28) 
O=C1c2ccccc2C(=O)c2cc(S(=O)(=O)[N-]c3cc4c(cc3O)CNCC4)ccc21

>  <Energy>  (28) 
66.16888986140745

>  <Genealogy>  (28) 
O=C1c2ccccc2C(=O)c2cc(S(=O)(=O)[N-]c3cc4c(cc3O)CNCC4)ccc21 (protonated)
O=C1c2ccccc2C(=O)c2cc(S(=O)(=O)[N-]c3cc4c(cc3O)CNCC4)ccc21 (3D coordinates assigned)
O=C1c2ccccc2C(=O)c2cc(S(=O)(=O)[N-]c3cc4c(cc3O)CNCC4)ccc21 (nonaromatic ring conformer: 66.16888986140745 kcal/mol)

>  <smiles>  (28) 
O=C1c2ccccc2C(=O)c2cc(S(=O)(=O)Nc3cc4c(cc3O)CNCC4)ccc21

>  <score_type>  (28) 
oracle

>  <origin>  (28) 
adgpu

>  <m_score__min__energy>  (28) 
-14.41

>  <m_primary>  (28) 
energy

$$$$
28:0
     RDKit          3D

 49 52  0  0  0  0  0  0  0  0999 V2000
   -9.4620   18.1760  -31.6350 C   0  0  0  0  0  0  0  0  0  0  0  0
   -8.6380   19.4020  -31.8920 C   0  0  0  0  0  0  0  0  0  0  0  0
   -9.1450   20.6700  -31.5780 C   0  0  0  0  0  0  0  0  0  0  0  0
   -8.3890   21.8140  -31.8370 C   0  0  0  0  0  0  0  0  0  0  0  0
   -7.1170   21.7090  -32.4150 C   0  0  0  0  0  0  0  0  0  0  0  0
   -6.3570   22.9060  -32.6350 N   0  0  0  0  0  0  0  0  0  0  0  0
   -5.3550   23.3870  -31.7220 C   0  0  0  0  0  0  0  0  0  0  0  0
   -5.5580   24.5650  -30.9560 C   0  0  0  0  0  0  0  0  0  0  0  0
   -4.5640   25.0350  -30.0820 C   0  0  0  0  0  0  0  0  0  0  0  0
   -3.3700   24.3230  -29.9810 C   0  0  0  0  0  0  0  0  0  0  0  0
   -2.3330   24.6810  -29.1840 N   0  0  0  0  0  0  0  0  0  0  0  0
   -1.3050   23.8070  -29.3140 C   0  0  0  0  0  0  0  0  0  0  0  0
    0.2490   23.9950  -28.4440 S   0  0  0  0  0  0  0  0  0  0  0  0
   -0.4070   23.4690  -26.8200 C   0  0  0  0  0  0  0  0  0  0  0  0
   -0.5870   24.6420  -25.8820 C   0  0  0  0  0  0  0  0  0  0  0  0
   -1.7530   25.4240  -25.9910 C   0  0  0  0  0  0  0  0  0  0  0  0
   -1.9790   26.4920  -25.1230 C   0  0  0  0  0  0  0  0  0  0  0  0
   -1.0460   26.7970  -24.1340 C   0  0  0  0  0  0  0  0  0  0  0  0
    0.1200   26.0390  -24.0130 C   0  0  0  0  0  0  0  0  0  0  0  0
    0.3650   24.9570  -24.8770 C   0  0  0  0  0  0  0  0  0  0  0  0
    1.6480   24.1800  -24.7320 C   0  0  0  0  0  0  0  0  0  0  0  0
   -1.6400   22.5670  -30.4140 S   0  0  0  0  0  0  0  0  0  0  0  0
   -3.1680   23.1820  -30.7370 C   0  0  0  0  0  0  0  0  0  0  0  0
   -4.1330   22.6940  -31.6120 C   0  0  0  0  0  0  0  0  0  0  0  0
   -6.6240   20.4400  -32.7960 C   0  0  0  0  0  0  0  0  0  0  0  0
   -5.2880   20.2840  -33.4690 C   0  0  0  0  0  0  0  0  0  0  0  0
   -7.3850   19.2940  -32.5130 C   0  0  0  0  0  0  0  0  0  0  0  0
   -9.5643   18.0237  -30.5504 H   0  0  0  0  0  0  0  0  0  0  0  0
  -10.4585   18.3034  -32.0830 H   0  0  0  0  0  0  0  0  0  0  0  0
   -8.9677   17.3014  -32.0830 H   0  0  0  0  0  0  0  0  0  0  0  0
  -10.1432   20.7640  -31.1254 H   0  0  0  0  0  0  0  0  0  0  0  0
   -8.7945   22.8051  -31.5856 H   0  0  0  0  0  0  0  0  0  0  0  0
   -6.6220   23.5060  -33.4490 H   0  0  0  0  0  0  0  0  0  0  0  0
   -6.5054   25.1164  -31.0481 H   0  0  0  0  0  0  0  0  0  0  0  0
   -4.7247   25.9473  -29.4888 H   0  0  0  0  0  0  0  0  0  0  0  0
   -1.3809   22.9803  -26.9704 H   0  0  0  0  0  0  0  0  0  0  0  0
    0.3165   22.7756  -26.3665 H   0  0  0  0  0  0  0  0  0  0  0  0
   -2.4940   25.1899  -26.7696 H   0  0  0  0  0  0  0  0  0  0  0  0
   -2.8946   27.0941  -25.2192 H   0  0  0  0  0  0  0  0  0  0  0  0
   -1.2286   27.6367  -23.4473 H   0  0  0  0  0  0  0  0  0  0  0  0
    0.8546   26.2907  -23.2339 H   0  0  0  0  0  0  0  0  0  0  0  0
    1.8748   24.0426  -23.6644 H   0  0  0  0  0  0  0  0  0  0  0  0
    1.5376   23.1968  -25.2129 H   0  0  0  0  0  0  0  0  0  0  0  0
    2.4681   24.7333  -25.2129 H   0  0  0  0  0  0  0  0  0  0  0  0
   -3.9462   21.7867  -32.2053 H   0  0  0  0  0  0  0  0  0  0  0  0
   -4.5014   20.1921  -32.7056 H   0  0  0  0  0  0  0  0  0  0  0  0
   -5.2969   19.3808  -34.0968 H   0  0  0  0  0  0  0  0  0  0  0  0
   -5.0886   21.1650  -34.0968 H   0  0  0  0  0  0  0  0  0  0  0  0
   -6.9943   18.3013  -32.7812 H   0  0  0  0  0  0  0  0  0  0  0  0
  1  2  1  0
  2  3  2  0
  3  4  1  0
  4  5  2  0
  5  6  1  0
  6  7  1  0
  7  8  2  0
  8  9  1  0
  9 10  2  0
 10 11  1  0
 11 12  2  0
 12 13  1  0
 13 14  1  0
 14 15  1  0
 15 16  2  0
 16 17  1  0
 17 18  2  0
 18 19  1  0
 19 20  2  0
 20 21  1  0
 12 22  1  0
 22 23  1  0
 23 24  2  0
  5 25  1  0
 25 26  1  0
 25 27  2  0
 27  2  1  0
 24  7  1  0
 23 10  1  0
 20 15  1  0
  1 28  1  0
  1 29  1  0
  1 30  1  0
  3 31  1  0
  4 32  1  0
  6 33  1  0
  8 34  1  0
  9 35  1  0
 14 36  1  0
 14 37  1  0
 16 38  1  0
 17 39  1  0
 18 40  1  0
 19 41  1  0
 21 42  1  0
 21 43  1  0
 21 44  1  0
 24 45  1  0
 26 46  1  0
 26 47  1  0
 26 48  1  0
 27 49  1  0
M  END
>  <UniqueID>  (29) 
27

>  <SMILES>  (29) 
Cc1ccc(Nc2ccc3nc(SCc4ccccc4C)sc3c2)c(C)c1

>  <Energy>  (29) 
89.65861635664908

>  <Genealogy>  (29) 
Cc1ccc(Nc2ccc3nc(SCc4ccccc4C)sc3c2)c(C)c1 (3D coordinates assigned)
Cc1ccc(Nc2ccc3nc(SCc4ccccc4C)sc3c2)c(C)c1 (optimized conformer: 89.65861635664908 kcal/mol)

>  <smiles>  (29) 
Cc1ccc(Nc2ccc3nc(SCc4ccccc4C)sc3c2)c(C)c1

>  <score_type>  (29) 
oracle

>  <origin>  (29) 
adgpu

>  <m_score__min__energy>  (29) 
-10

>  <m_primary>  (29) 
energy

$$$$
29:0
     RDKit          3D

 46 48  0  0  0  0  0  0  0  0999 V2000
   -2.0430   20.5570  -26.8360 C   0  0  0  0  0  0  0  0  0  0  0  0
   -1.9850   21.8930  -27.5150 C   0  0  0  0  0  0  0  0  0  0  0  0
   -1.4050   22.9910  -26.8650 C   0  0  0  0  0  0  0  0  0  0  0  0
   -1.3830   24.2430  -27.4830 C   0  0  0  0  0  0  0  0  0  0  0  0
   -1.9460   24.4150  -28.7510 C   0  0  0  0  0  0  0  0  0  0  0  0
   -1.9180   25.6740  -29.3380 O   0  0  0  0  0  0  0  0  0  0  0  0
   -2.5360   23.3210  -29.4150 C   0  0  0  0  0  0  0  0  0  0  0  0
   -3.1050   23.4630  -30.8060 C   0  0  0  0  0  0  0  0  0  0  0  0
   -4.7620   24.2420  -30.7780 S   0  0  0  0  0  0  0  0  0  0  0  0
   -5.6560   22.7590  -31.2460 C   0  0  0  0  0  0  0  0  0  0  0  0
   -5.0150   21.5160  -31.2160 C   0  0  0  0  0  0  0  0  0  0  0  0
   -5.7240   20.3740  -31.5870 C   0  0  0  0  0  0  0  0  0  0  0  0
   -7.0660   20.4770  -31.9740 C   0  0  0  0  0  0  0  0  0  0  0  0
   -7.9720   19.0390  -32.4510 S   0  0  0  0  0  0  0  0  0  0  0  0
   -9.2580   19.4600  -33.1080 O   0  0  0  0  0  0  0  0  0  0  0  0
   -8.3190   18.2430  -31.2230 O   0  0  0  0  0  0  0  0  0  0  0  0
   -7.0550   18.0340  -33.5500 N   0  0  0  0  0  0  0  0  0  0  0  0
   -6.1350   18.8380  -34.3910 C   0  0  0  0  0  0  0  0  0  0  0  0
   -4.6730   18.7460  -33.9350 C   0  0  0  0  0  0  0  0  0  0  0  0
   -4.1760   17.2900  -33.9440 C   0  0  0  0  0  0  0  0  0  0  0  0
   -5.2950   16.2780  -33.6360 C   0  0  0  0  0  0  0  0  0  0  0  0
   -6.4120   16.9240  -32.8120 C   0  0  0  0  0  0  0  0  0  0  0  0
   -7.6740   21.7400  -31.9750 C   0  0  0  0  0  0  0  0  0  0  0  0
   -6.9610   22.8410  -31.6160 N   0  0  0  0  0  0  0  0  0  0  0  0
   -2.5650   22.0670  -28.7810 C   0  0  0  0  0  0  0  0  0  0  0  0
   -2.0368   20.6995  -25.7453 H   0  0  0  0  0  0  0  0  0  0  0  0
   -2.9647   20.0348  -27.1324 H   0  0  0  0  0  0  0  0  0  0  0  0
   -1.1701   19.9569  -27.1324 H   0  0  0  0  0  0  0  0  0  0  0  0
   -0.9655   22.8660  -25.8644 H   0  0  0  0  0  0  0  0  0  0  0  0
   -0.9202   25.0985  -26.9693 H   0  0  0  0  0  0  0  0  0  0  0  0
   -2.4271   24.0866  -31.4074 H   0  0  0  0  0  0  0  0  0  0  0  0
   -3.2038   22.4581  -31.2424 H   0  0  0  0  0  0  0  0  0  0  0  0
   -3.9631   21.4403  -30.9032 H   0  0  0  0  0  0  0  0  0  0  0  0
   -5.2290   19.3917  -31.5757 H   0  0  0  0  0  0  0  0  0  0  0  0
   -6.2023   18.4773  -35.4280 H   0  0  0  0  0  0  0  0  0  0  0  0
   -6.4423   19.8905  -34.3021 H   0  0  0  0  0  0  0  0  0  0  0  0
   -4.0472   19.3426  -34.6150 H   0  0  0  0  0  0  0  0  0  0  0  0
   -4.6049   19.1301  -32.9065 H   0  0  0  0  0  0  0  0  0  0  0  0
   -3.7624   17.0655  -34.9383 H   0  0  0  0  0  0  0  0  0  0  0  0
   -3.4150   17.1939  -33.1556 H   0  0  0  0  0  0  0  0  0  0  0  0
   -5.7152   15.9081  -34.5829 H   0  0  0  0  0  0  0  0  0  0  0  0
   -4.8658   15.4497  -33.0533 H   0  0  0  0  0  0  0  0  0  0  0  0
   -7.1707   16.1625  -32.5787 H   0  0  0  0  0  0  0  0  0  0  0  0
   -5.9709   17.3310  -31.8902 H   0  0  0  0  0  0  0  0  0  0  0  0
   -8.7298   21.8408  -32.2667 H   0  0  0  0  0  0  0  0  0  0  0  0
   -3.0467   21.2142  -29.2817 H   0  0  0  0  0  0  0  0  0  0  0  0
  1  2  1  0
  2  3  2  0
  3  4  1  0
  4  5  2  0
  5  6  1  0
  5  7  1  0
  7  8  1  0
  8  9  1  0
  9 10  1  0
 10 11  2  0
 11 12  1  0
 12 13  2  0
 13 14  1  0
 14 15  2  0
 14 16  2  0
 14 17  1  0
 17 18  1  0
 18 19  1  0
 19 20  1  0
 20 21  1  0
 21 22  1  0
 13 23  1  0
 23 24  2  0
  7 25  2  0
 25  2  1  0
 24 10  1  0
 22 17  1  0
  1 26  1  0
  1 27  1  0
  1 28  1  0
  3 29  1  0
  4 30  1  0
  8 31  1  0
  8 32  1  0
 11 33  1  0
 12 34  1  0
 18 35  1  0
 18 36  1  0
 19 37  1  0
 19 38  1  0
 20 39  1  0
 20 40  1  0
 21 41  1  0
 21 42  1  0
 22 43  1  0
 22 44  1  0
 23 45  1  0
 25 46  1  0
M  CHG  1   6  -1
M  END
>  <UniqueID>  (30) 
28

>  <SMILES>  (30) 
Cc1ccc([O-])c(CSc2ccc(S(=O)(=O)N3CCCCC3)cn2)c1

>  <Energy>  (30) 
45.84658282388893

>  <Genealogy>  (30) 
Cc1ccc([O-])c(CSc2ccc(S(=O)(=O)N3CCCCC3)cn2)c1 (protonated)
Cc1ccc([O-])c(CSc2ccc(S(=O)(=O)N3CCCCC3)cn2)c1 (3D coordinates assigned)
Cc1ccc([O-])c(CSc2ccc(S(=O)(=O)N3CCCCC3)cn2)c1 (nonaromatic ring conformer: 45.84658282388893 kcal/mol)

>  <smiles>  (30) 
Cc1ccc(O)c(CSc2ccc(S(=O)(=O)N3CCCCC3)cn2)c1

>  <score_type>  (30) 
oracle

>  <origin>  (30) 
adgpu

>  <m_score__min__energy>  (30) 
-12.41

>  <m_primary>  (30) 
energy

$$$$
30:0
     RDKit          3D

 60 64  0  0  0  0  0  0  0  0999 V2000
   -6.3910   19.3860  -34.2220 C   0  0  0  0  0  0  0  0  0  0  0  0
   -7.0610   19.5560  -32.8360 C   0  0  0  0  0  0  0  0  0  0  0  0
   -6.8390   18.2640  -32.0160 C   0  0  0  0  0  0  0  0  0  0  0  0
   -8.5730   19.7660  -33.0930 C   0  0  0  0  0  0  0  0  0  0  0  0
   -9.3040   20.2790  -31.8590 C   0  0  0  0  0  0  0  0  0  0  0  0
   -8.7830   21.6640  -31.4020 C   0  0  0  0  0  0  0  0  0  0  0  0
   -9.3390   21.9020  -29.9760 C   0  0  0  0  0  0  0  0  0  0  0  0
   -9.3270   22.7690  -32.3370 C   0  0  0  0  0  0  0  0  0  0  0  0
   -7.2460   21.7180  -31.4040 C   0  0  0  0  0  0  0  0  0  0  0  0
   -6.6030   22.8130  -30.7830 C   0  0  0  0  0  0  0  0  0  0  0  0
   -5.2100   22.9060  -30.7290 C   0  0  0  0  0  0  0  0  0  0  0  0
   -4.5890   23.9890  -30.0840 C   0  0  0  0  0  0  0  0  0  0  0  0
   -3.1940   24.0570  -30.0000 C   0  0  0  0  0  0  0  0  0  0  0  0
   -2.5880   25.1690  -29.3370 N   0  0  0  0  0  0  0  0  0  0  0  0
   -1.5600   25.0020  -27.9500 S   0  0  0  0  0  0  0  0  0  0  0  0
   -2.3250   25.3960  -26.7180 O   0  0  0  0  0  0  0  0  0  0  0  0
   -0.3880   25.9290  -28.0980 O   0  0  0  0  0  0  0  0  0  0  0  0
   -0.9670   23.3520  -27.7750 C   0  0  0  0  0  0  0  0  0  0  0  0
    0.3910   23.0680  -27.9640 C   0  0  0  0  0  0  0  0  0  0  0  0
    0.8560   21.7550  -27.8660 C   0  0  0  0  0  0  0  0  0  0  0  0
   -0.0350   20.7070  -27.5850 C   0  0  0  0  0  0  0  0  0  0  0  0
   -1.4040   20.9880  -27.3980 C   0  0  0  0  0  0  0  0  0  0  0  0
   -1.8620   22.3120  -27.4910 C   0  0  0  0  0  0  0  0  0  0  0  0
   -2.3380   19.8710  -27.1140 C   0  0  0  0  0  0  0  0  0  0  0  0
   -3.5680   20.0860  -26.9470 O   0  0  0  0  0  0  0  0  0  0  0  0
   -1.8260   18.4920  -27.0270 C   0  0  0  0  0  0  0  0  0  0  0  0
   -0.5280   18.2270  -27.2010 C   0  0  0  0  0  0  0  0  0  0  0  0
    0.4350   19.3040  -27.4880 C   0  0  0  0  0  0  0  0  0  0  0  0
    1.6530   19.0200  -27.6480 O   0  0  0  0  0  0  0  0  0  0  0  0
   -2.4130   23.0660  -30.6090 C   0  0  0  0  0  0  0  0  0  0  0  0
   -3.0220   21.9860  -31.2540 C   0  0  0  0  0  0  0  0  0  0  0  0
   -4.4220   21.8990  -31.3160 C   0  0  0  0  0  0  0  0  0  0  0  0
   -5.0400   20.8320  -31.9730 C   0  0  0  0  0  0  0  0  0  0  0  0
   -6.4470   20.7430  -32.0750 C   0  0  0  0  0  0  0  0  0  0  0  0
   -5.3328   19.1175  -34.0873 H   0  0  0  0  0  0  0  0  0  0  0  0
   -6.9031   18.5893  -34.7816 H   0  0  0  0  0  0  0  0  0  0  0  0
   -6.4613   20.3304  -34.7816 H   0  0  0  0  0  0  0  0  0  0  0  0
   -6.8795   18.4997  -30.9423 H   0  0  0  0  0  0  0  0  0  0  0  0
   -7.6250   17.5345  -32.2612 H   0  0  0  0  0  0  0  0  0  0  0  0
   -5.8546   17.8387  -32.2612 H   0  0  0  0  0  0  0  0  0  0  0  0
   -8.6954   20.4969  -33.9059 H   0  0  0  0  0  0  0  0  0  0  0  0
   -9.0072   18.7913  -33.3601 H   0  0  0  0  0  0  0  0  0  0  0  0
  -10.3757   20.3633  -32.0920 H   0  0  0  0  0  0  0  0  0  0  0  0
   -9.1262   19.5654  -31.0410 H   0  0  0  0  0  0  0  0  0  0  0  0
   -8.5929   21.5826  -29.2335 H   0  0  0  0  0  0  0  0  0  0  0  0
   -9.5560   22.9719  -29.8409 H   0  0  0  0  0  0  0  0  0  0  0  0
  -10.2629   21.3205  -29.8409 H   0  0  0  0  0  0  0  0  0  0  0  0
   -9.7330   23.5936  -31.7327 H   0  0  0  0  0  0  0  0  0  0  0  0
   -8.5117   23.1464  -32.9717 H   0  0  0  0  0  0  0  0  0  0  0  0
  -10.1233   22.3530  -32.9717 H   0  0  0  0  0  0  0  0  0  0  0  0
   -7.2130   23.6097  -30.3322 H   0  0  0  0  0  0  0  0  0  0  0  0
   -5.2031   24.7878  -29.6426 H   0  0  0  0  0  0  0  0  0  0  0  0
    1.0945   23.8827  -28.1906 H   0  0  0  0  0  0  0  0  0  0  0  0
    1.9253   21.5408  -28.0096 H   0  0  0  0  0  0  0  0  0  0  0  0
   -2.9288   22.5339  -27.3401 H   0  0  0  0  0  0  0  0  0  0  0  0
   -2.5232   17.6679  -26.8155 H   0  0  0  0  0  0  0  0  0  0  0  0
   -0.1730   17.1884  -27.1288 H   0  0  0  0  0  0  0  0  0  0  0  0
   -1.3158   23.1383  -30.5794 H   0  0  0  0  0  0  0  0  0  0  0  0
   -2.4028   21.2020  -31.7143 H   0  0  0  0  0  0  0  0  0  0  0  0
   -4.4176   20.0434  -32.4210 H   0  0  0  0  0  0  0  0  0  0  0  0
  1  2  1  0
  2  3  1  0
  2  4  1  0
  4  5  1  0
  5  6  1  0
  6  7  1  0
  6  8  1  0
  6  9  1  0
  9 10  2  0
 10 11  1  0
 11 12  2  0
 12 13  1  0
 13 14  1  0
 14 15  1  0
 15 16  2  0
 15 17  2  0
 15 18  1  0
 18 19  2  0
 19 20  1  0
 20 21  2  0
 21 22  1  0
 22 23  2  0
 22 24  1  0
 24 25  2  0
 24 26  1  0
 26 27  2  0
 27 28  1  0
 28 29  2  0
 13 30  2  0
 30 31  1  0
 31 32  2  0
 32 33  1  0
 33 34  2  0
 34  2  1  0
 34  9  1  0
 32 11  1  0
 23 18  1  0
 28 21  1  0
  1 35  1  0
  1 36  1  0
  1 37  1  0
  3 38  1  0
  3 39  1  0
  3 40  1  0
  4 41  1  0
  4 42  1  0
  5 43  1  0
  5 44  1  0
  7 45  1  0
  7 46  1  0
  7 47  1  0
  8 48  1  0
  8 49  1  0
  8 50  1  0
 10 51  1  0
 12 52  1  0
 19 53  1  0
 20 54  1  0
 23 55  1  0
 26 56  1  0
 27 57  1  0
 30 58  1  0
 31 59  1  0
 33 60  1  0
M  CHG  1  14  -1
M  END
>  <UniqueID>  (31) 
29

>  <SMILES>  (31) 
CC1(C)CCC(C)(C)c2cc3cc([N-]S(=O)(=O)c4ccc5c(c4)C(=O)C=CC5=O)ccc3cc21

>  <Energy>  (31) 
80.72420751153871

>  <Genealogy>  (31) 
CC1(C)CCC(C)(C)c2cc3cc([N-]S(=O)(=O)c4ccc5c(c4)C(=O)C=CC5=O)ccc3cc21 (protonated)
CC1(C)CCC(C)(C)c2cc3cc([N-]S(=O)(=O)c4ccc5c(c4)C(=O)C=CC5=O)ccc3cc21 (3D coordinates assigned)
CC1(C)CCC(C)(C)c2cc3cc([N-]S(=O)(=O)c4ccc5c(c4)C(=O)C=CC5=O)ccc3cc21 (nonaromatic ring conformer: 80.72420751153871 kcal/mol)

>  <smiles>  (31) 
CC1(C)CCC(C)(C)c2cc3cc(NS(=O)(=O)c4ccc5c(c4)C(=O)C=CC5=O)ccc3cc21

>  <score_type>  (31) 
oracle

>  <origin>  (31) 
adgpu

>  <m_score__min__energy>  (31) 
-13

>  <m_primary>  (31) 
energy

$$$$
31:0
     RDKit          3D

 53 55  0  0  0  0  0  0  0  0999 V2000
    0.2380   16.8230  -31.8420 C   0  0  0  0  0  0  0  0  0  0  0  0
    0.8620   17.7680  -30.9570 O   0  0  0  0  0  0  0  0  0  0  0  0
    0.2260   18.8950  -30.4060 C   0  0  0  0  0  0  0  0  0  0  0  0
   -0.1040   18.9710  -29.0410 C   0  0  0  0  0  0  0  0  0  0  0  0
   -0.7260   20.1140  -28.5280 C   0  0  0  0  0  0  0  0  0  0  0  0
   -1.0340   21.2010  -29.3670 C   0  0  0  0  0  0  0  0  0  0  0  0
   -1.5890   22.4690  -28.8230 C   0  0  0  0  0  0  0  0  0  0  0  0
   -1.0240   23.1090  -27.7010 C   0  0  0  0  0  0  0  0  0  0  0  0
   -1.5550   24.3210  -27.2370 C   0  0  0  0  0  0  0  0  0  0  0  0
   -0.9980   24.8620  -26.1810 N   0  0  0  0  0  0  0  0  0  0  0  0
   -1.3100   26.0880  -25.4350 C   0  0  0  0  0  0  0  0  0  0  0  0
   -0.8610   27.3550  -26.1740 C   0  0  0  0  0  0  0  0  0  0  0  0
   -0.8240   26.0240  -23.9840 C   0  0  0  0  0  0  0  0  0  0  0  0
   -2.6560   24.8820  -27.9210 C   0  0  0  0  0  0  0  0  0  0  0  0
   -3.2060   24.2150  -29.0340 C   0  0  0  0  0  0  0  0  0  0  0  0
   -4.3580   24.7770  -29.7790 C   0  0  0  0  0  0  0  0  0  0  0  0
   -5.6890   24.6560  -29.2720 N   0  0  0  0  0  0  0  0  0  0  0  0
   -4.1760   25.3600  -30.8780 O   0  0  0  0  0  0  0  0  0  0  0  0
   -2.6610   23.0380  -29.4440 N   0  0  0  0  0  0  0  0  0  0  0  0
   -0.7320   21.1030  -30.7360 C   0  0  0  0  0  0  0  0  0  0  0  0
   -0.0990   19.9630  -31.2550 C   0  0  0  0  0  0  0  0  0  0  0  0
    0.2580   19.8740  -32.6400 N   0  0  0  0  0  0  0  0  0  0  0  0
   -0.6820   20.5410  -33.9320 S   0  0  0  0  0  0  0  0  0  0  0  0
   -0.1920   21.9160  -34.2660 O   0  0  0  0  0  0  0  0  0  0  0  0
   -0.5430   19.6660  -35.1490 O   0  0  0  0  0  0  0  0  0  0  0  0
   -2.3840   20.5820  -33.4590 C   0  0  0  0  0  0  0  0  0  0  0  0
   -2.9640   21.8030  -33.0780 C   0  0  0  0  0  0  0  0  0  0  0  0
   -4.3170   21.8650  -32.7190 C   0  0  0  0  0  0  0  0  0  0  0  0
   -5.1000   20.7020  -32.7300 C   0  0  0  0  0  0  0  0  0  0  0  0
   -6.8020   20.7780  -32.2940 Cl  0  0  0  0  0  0  0  0  0  0  0  0
   -4.5290   19.4790  -33.1010 C   0  0  0  0  0  0  0  0  0  0  0  0
   -3.1760   19.4090  -33.4630 C   0  0  0  0  0  0  0  0  0  0  0  0
   -2.5120   17.8420  -33.9220 Cl  0  0  0  0  0  0  0  0  0  0  0  0
   -0.2731   16.0490  -31.2506 H   0  0  0  0  0  0  0  0  0  0  0  0
   -0.4947   17.3433  -32.4764 H   0  0  0  0  0  0  0  0  0  0  0  0
    1.0042   16.3535  -32.4764 H   0  0  0  0  0  0  0  0  0  0  0  0
    0.1281   18.1278  -28.3738 H   0  0  0  0  0  0  0  0  0  0  0  0
   -0.9769   20.1637  -27.4581 H   0  0  0  0  0  0  0  0  0  0  0  0
   -0.1632   22.6558  -27.1876 H   0  0  0  0  0  0  0  0  0  0  0  0
   -2.4065   26.1555  -25.3786 H   0  0  0  0  0  0  0  0  0  0  0  0
   -0.5868   28.1288  -25.4418 H   0  0  0  0  0  0  0  0  0  0  0  0
    0.0094   27.1224  -26.8050 H   0  0  0  0  0  0  0  0  0  0  0  0
   -1.6837   27.7224  -26.8050 H   0  0  0  0  0  0  0  0  0  0  0  0
   -1.6818   26.1370  -23.3047 H   0  0  0  0  0  0  0  0  0  0  0  0
   -0.3378   25.0541  -23.8026 H   0  0  0  0  0  0  0  0  0  0  0  0
   -0.1033   26.8350  -23.8026 H   0  0  0  0  0  0  0  0  0  0  0  0
   -3.0837   25.8383  -27.5854 H   0  0  0  0  0  0  0  0  0  0  0  0
   -6.4990   25.0690  -29.7950 H   0  0  0  0  0  0  0  0  0  0  0  0
   -5.8860   24.1740  -28.3710 H   0  0  0  0  0  0  0  0  0  0  0  0
   -0.9954   21.9313  -31.4102 H   0  0  0  0  0  0  0  0  0  0  0  0
   -2.3520   22.7169  -33.0613 H   0  0  0  0  0  0  0  0  0  0  0  0
   -4.7651   22.8266  -32.4284 H   0  0  0  0  0  0  0  0  0  0  0  0
   -5.1450   18.5677  -33.1086 H   0  0  0  0  0  0  0  0  0  0  0  0
  1  2  1  0
  2  3  1  0
  3  4  2  0
  4  5  1  0
  5  6  2  0
  6  7  1  0
  7  8  2  0
  8  9  1  0
  9 10  2  3
 10 11  1  0
 11 12  1  0
 11 13  1  0
  9 14  1  0
 14 15  2  0
 15 16  1  0
 16 17  1  0
 16 18  2  0
 15 19  1  0
  6 20  1  0
 20 21  2  0
 21 22  1  0
 22 23  1  0
 23 24  2  0
 23 25  2  0
 23 26  1  0
 26 27  2  0
 27 28  1  0
 28 29  2  0
 29 30  1  0
 29 31  1  0
 31 32  2  0
 32 33  1  0
 21  3  1  0
 32 26  1  0
 19  7  1  0
  1 34  1  0
  1 35  1  0
  1 36  1  0
  4 37  1  0
  5 38  1  0
  8 39  1  0
 11 40  1  0
 12 41  1  0
 12 42  1  0
 12 43  1  0
 13 44  1  0
 13 45  1  0
 13 46  1  0
 14 47  1  0
 17 48  1  0
 17 49  1  0
 20 50  1  0
 27 51  1  0
 28 52  1  0
 31 53  1  0
M  CHG  2  19  -1  22  -1
M  END
>  <UniqueID>  (32) 
30

>  <SMILES>  (32) 
COc1ccc(-c2cc(=NC(C)C)cc(C(N)=O)[n-]2)cc1[N-]S(=O)(=O)c1ccc(Cl)cc1Cl

>  <Energy>  (32) 
67.57377194859757

>  <Genealogy>  (32) 
COc1ccc(-c2cc(=NC(C)C)cc(C(N)=O)[n-]2)cc1[N-]S(=O)(=O)c1ccc(Cl)cc1Cl (protonated)
COc1ccc(-c2cc(=NC(C)C)cc(C(N)=O)[n-]2)cc1[N-]S(=O)(=O)c1ccc(Cl)cc1Cl (3D coordinates assigned)
COc1ccc(-c2cc(=NC(C)C)cc(C(N)=O)[n-]2)cc1[N-]S(=O)(=O)c1ccc(Cl)cc1Cl (optimized conformer: 67.57377194859757 kcal/mol)

>  <smiles>  (32) 
COc1ccc(-c2cc(=NC(C)C)cc(C(N)=O)[nH]2)cc1NS(=O)(=O)c1ccc(Cl)cc1Cl

>  <score_type>  (32) 
oracle

>  <origin>  (32) 
adgpu

>  <m_score__min__energy>  (32) 
-10.720000000000001

>  <m_primary>  (32) 
energy

$$$$
32:0
     RDKit          3D

 46 48  0  0  0  0  0  0  0  0999 V2000
   -0.3090   18.8280  -28.3350 C   0  0  0  0  0  0  0  0  0  0  0  0
   -1.0910   18.9130  -27.1110 N   0  0  0  0  0  0  0  0  0  0  0  0
   -2.3140   19.6530  -27.0220 C   0  0  0  0  0  0  0  0  0  0  0  0
   -3.3250   19.1240  -26.4860 O   0  0  0  0  0  0  0  0  0  0  0  0
   -2.3770   20.9940  -27.5390 N   0  0  0  0  0  0  0  0  0  0  0  0
   -3.4190   21.5040  -28.2260 C   0  0  0  0  0  0  0  0  0  0  0  0
   -3.1670   22.8150  -28.5670 C   0  0  0  0  0  0  0  0  0  0  0  0
   -4.3030   23.8590  -29.4220 S   0  0  0  0  0  0  0  0  0  0  0  0
   -4.9230   24.8170  -28.4460 O   0  0  0  0  0  0  0  0  0  0  0  0
   -3.5650   24.6480  -30.4660 O   0  0  0  0  0  0  0  0  0  0  0  0
   -5.5380   22.9000  -30.2290 C   0  0  0  0  0  0  0  0  0  0  0  0
   -5.1880   21.9780  -31.2250 C   0  0  0  0  0  0  0  0  0  0  0  0
   -6.1780   21.2320  -31.8710 C   0  0  0  0  0  0  0  0  0  0  0  0
   -7.5220   21.3940  -31.5160 C   0  0  0  0  0  0  0  0  0  0  0  0
   -8.7630   20.4600  -32.3290 Cl  0  0  0  0  0  0  0  0  0  0  0  0
   -7.8730   22.3020  -30.5110 C   0  0  0  0  0  0  0  0  0  0  0  0
   -6.8840   23.0510  -29.8670 C   0  0  0  0  0  0  0  0  0  0  0  0
   -1.9080   23.1300  -28.0730 C   0  0  0  0  0  0  0  0  0  0  0  0
   -1.0720   24.6860  -28.1880 S   0  0  0  0  0  0  0  0  0  0  0  0
   -1.8960   25.6810  -28.9560 O   0  0  0  0  0  0  0  0  0  0  0  0
    0.2290   24.4870  -28.9120 O   0  0  0  0  0  0  0  0  0  0  0  0
   -0.7950   25.3560  -26.5860 C   0  0  0  0  0  0  0  0  0  0  0  0
   -1.8470   25.9310  -25.8590 C   0  0  0  0  0  0  0  0  0  0  0  0
   -1.6130   26.4660  -24.5890 C   0  0  0  0  0  0  0  0  0  0  0  0
   -0.3300   26.4200  -24.0350 C   0  0  0  0  0  0  0  0  0  0  0  0
    0.7190   25.8330  -24.7490 C   0  0  0  0  0  0  0  0  0  0  0  0
    0.4870   25.2990  -26.0200 C   0  0  0  0  0  0  0  0  0  0  0  0
   -1.4520   21.9810  -27.4350 C   0  0  0  0  0  0  0  0  0  0  0  0
    0.1130   21.8260  -26.5590 S   0  0  0  0  0  0  0  0  0  0  0  0
   -0.5970   22.3550  -24.9700 C   0  0  0  0  0  0  0  0  0  0  0  0
    0.7554   18.7123  -28.0828 H   0  0  0  0  0  0  0  0  0  0  0  0
   -0.6427   17.9608  -28.9238 H   0  0  0  0  0  0  0  0  0  0  0  0
   -0.4485   19.7466  -28.9238 H   0  0  0  0  0  0  0  0  0  0  0  0
   -4.3373   20.9532  -28.4778 H   0  0  0  0  0  0  0  0  0  0  0  0
   -4.1315   21.8411  -31.4990 H   0  0  0  0  0  0  0  0  0  0  0  0
   -5.9004   20.5168  -32.6593 H   0  0  0  0  0  0  0  0  0  0  0  0
   -8.9285   22.4266  -30.2274 H   0  0  0  0  0  0  0  0  0  0  0  0
   -7.1625   23.7608  -29.0741 H   0  0  0  0  0  0  0  0  0  0  0  0
   -2.8590   25.9612  -26.2891 H   0  0  0  0  0  0  0  0  0  0  0  0
   -2.4390   26.9237  -24.0249 H   0  0  0  0  0  0  0  0  0  0  0  0
   -0.1460   26.8456  -23.0375 H   0  0  0  0  0  0  0  0  0  0  0  0
    1.7270   25.7913  -24.3106 H   0  0  0  0  0  0  0  0  0  0  0  0
    1.3124   24.8327  -26.5779 H   0  0  0  0  0  0  0  0  0  0  0  0
   -0.0136   21.9204  -24.1449 H   0  0  0  0  0  0  0  0  0  0  0  0
   -0.5667   23.4525  -24.9021 H   0  0  0  0  0  0  0  0  0  0  0  0
   -1.6400   22.0121  -24.9021 H   0  0  0  0  0  0  0  0  0  0  0  0
  1  2  1  0
  2  3  1  0
  3  4  2  0
  3  5  1  0
  5  6  1  0
  6  7  2  0
  7  8  1  0
  8  9  2  0
  8 10  2  0
  8 11  1  0
 11 12  2  0
 12 13  1  0
 13 14  2  0
 14 15  1  0
 14 16  1  0
 16 17  2  0
  7 18  1  0
 18 19  1  0
 19 20  2  0
 19 21  2  0
 19 22  1  0
 22 23  2  0
 23 24  1  0
 24 25  2  0
 25 26  1  0
 26 27  2  0
 18 28  2  0
 28 29  1  0
 29 30  1  0
 28  5  1  0
 17 11  1  0
 27 22  1  0
  1 31  1  0
  1 32  1  0
  1 33  1  0
  6 34  1  0
 12 35  1  0
 13 36  1  0
 16 37  1  0
 17 38  1  0
 23 39  1  0
 24 40  1  0
 25 41  1  0
 26 42  1  0
 27 43  1  0
 30 44  1  0
 30 45  1  0
 30 46  1  0
M  CHG  1   2  -1
M  END
>  <UniqueID>  (33) 
31

>  <SMILES>  (33) 
C[N-]C(=O)n1cc(S(=O)(=O)c2ccc(Cl)cc2)c(S(=O)(=O)c2ccccc2)c1SC

>  <Energy>  (33) 
71.76576924659508

>  <Genealogy>  (33) 
C[N-]C(=O)n1cc(S(=O)(=O)c2ccc(Cl)cc2)c(S(=O)(=O)c2ccccc2)c1SC (protonated)
C[N-]C(=O)n1cc(S(=O)(=O)c2ccc(Cl)cc2)c(S(=O)(=O)c2ccccc2)c1SC (3D coordinates assigned)
C[N-]C(=O)n1cc(S(=O)(=O)c2ccc(Cl)cc2)c(S(=O)(=O)c2ccccc2)c1SC (optimized conformer: 71.76576924659508 kcal/mol)

>  <smiles>  (33) 
CNC(=O)n1cc(S(=O)(=O)c2ccc(Cl)cc2)c(S(=O)(=O)c2ccccc2)c1SC

>  <score_type>  (33) 
oracle

>  <origin>  (33) 
adgpu

>  <m_score__min__energy>  (33) 
-10.24

>  <m_primary>  (33) 
energy

$$$$
33:0
     RDKit          3D

 59 63  0  0  0  0  0  0  0  0999 V2000
   -1.2280   17.8100  -35.2440 O   0  0  0  0  0  0  0  0  0  0  0  0
   -2.1340   18.0890  -34.4160 C   0  0  0  0  0  0  0  0  0  0  0  0
   -3.3740   17.3720  -34.4880 N   0  0  0  0  0  0  0  0  0  0  0  0
   -4.6260   17.7770  -33.9160 C   0  0  0  0  0  0  0  0  0  0  0  0
   -5.2950   18.8770  -34.4650 C   0  0  0  0  0  0  0  0  0  0  0  0
   -6.4930   19.3300  -33.9050 C   0  0  0  0  0  0  0  0  0  0  0  0
   -7.0270   18.6940  -32.7740 C   0  0  0  0  0  0  0  0  0  0  0  0
   -8.5040   19.3050  -32.0270 S   0  0  0  0  0  0  0  0  0  0  0  0
   -9.4790   19.6980  -33.1010 O   0  0  0  0  0  0  0  0  0  0  0  0
   -9.1320   18.2140  -31.2030 O   0  0  0  0  0  0  0  0  0  0  0  0
   -8.1790   20.6940  -31.0140 N   0  0  0  0  0  0  0  0  0  0  0  0
   -6.8020   21.1850  -31.2310 C   0  0  0  0  0  0  0  0  0  0  0  0
   -6.6270   22.6120  -30.7000 C   0  0  0  0  0  0  0  0  0  0  0  0
   -7.5420   23.5950  -31.4520 C   0  0  0  0  0  0  0  0  0  0  0  0
   -8.8060   22.9190  -32.0150 C   0  0  0  0  0  0  0  0  0  0  0  0
   -9.2370   21.7280  -31.1470 C   0  0  0  0  0  0  0  0  0  0  0  0
   -6.3620   17.5890  -32.2240 C   0  0  0  0  0  0  0  0  0  0  0  0
   -5.1620   17.1400  -32.7810 C   0  0  0  0  0  0  0  0  0  0  0  0
   -1.8690   19.0970  -33.3620 C   0  0  0  0  0  0  0  0  0  0  0  0
   -0.7550   18.9550  -32.5200 C   0  0  0  0  0  0  0  0  0  0  0  0
   -0.5050   19.8840  -31.5070 C   0  0  0  0  0  0  0  0  0  0  0  0
   -1.3720   20.9740  -31.3140 C   0  0  0  0  0  0  0  0  0  0  0  0
   -1.1640   21.9200  -30.2930 C   0  0  0  0  0  0  0  0  0  0  0  0
   -0.1820   21.7980  -29.5090 O   0  0  0  0  0  0  0  0  0  0  0  0
   -2.0610   22.9960  -30.1400 C   0  0  0  0  0  0  0  0  0  0  0  0
   -1.8690   24.1670  -28.8250 S   0  0  0  0  0  0  0  0  0  0  0  0
   -3.1780   24.8460  -28.5340 O   0  0  0  0  0  0  0  0  0  0  0  0
   -0.8680   25.2280  -29.1880 O   0  0  0  0  0  0  0  0  0  0  0  0
   -1.3150   23.3120  -27.4000 C   0  0  0  0  0  0  0  0  0  0  0  0
   -1.6560   22.0150  -27.0560 C   0  0  0  0  0  0  0  0  0  0  0  0
   -1.1410   21.6280  -25.8130 C   0  0  0  0  0  0  0  0  0  0  0  0
   -0.4040   22.6220  -25.1810 C   0  0  0  0  0  0  0  0  0  0  0  0
   -0.3970   23.9870  -26.1650 S   0  0  0  0  0  0  0  0  0  0  0  0
   -3.1680   23.0840  -31.0010 C   0  0  0  0  0  0  0  0  0  0  0  0
   -4.0960   24.1120  -30.8580 O   0  0  0  0  0  0  0  0  0  0  0  0
   -3.3510   22.1540  -31.9760 N   0  0  0  0  0  0  0  0  0  0  0  0
   -2.4960   21.1160  -32.1570 C   0  0  0  0  0  0  0  0  0  0  0  0
   -2.7400   20.1810  -33.1680 C   0  0  0  0  0  0  0  0  0  0  0  0
   -4.8750   19.3887  -35.3435 H   0  0  0  0  0  0  0  0  0  0  0  0
   -7.0182   20.1869  -34.3520 H   0  0  0  0  0  0  0  0  0  0  0  0
   -6.0984   20.5200  -30.7087 H   0  0  0  0  0  0  0  0  0  0  0  0
   -6.6032   21.1914  -32.3129 H   0  0  0  0  0  0  0  0  0  0  0  0
   -6.8803   22.6314  -29.6297 H   0  0  0  0  0  0  0  0  0  0  0  0
   -5.5816   22.9179  -30.8536 H   0  0  0  0  0  0  0  0  0  0  0  0
   -7.8484   24.3915  -30.7580 H   0  0  0  0  0  0  0  0  0  0  0  0
   -6.9717   23.9943  -32.3036 H   0  0  0  0  0  0  0  0  0  0  0  0
   -9.6229   23.6550  -32.0441 H   0  0  0  0  0  0  0  0  0  0  0  0
   -8.5797   22.5476  -33.0254 H   0  0  0  0  0  0  0  0  0  0  0  0
   -9.4921   22.0996  -30.1436 H   0  0  0  0  0  0  0  0  0  0  0  0
  -10.0987   21.2555  -31.6411 H   0  0  0  0  0  0  0  0  0  0  0  0
   -6.7869   17.0734  -31.3502 H   0  0  0  0  0  0  0  0  0  0  0  0
   -4.6344   16.2860  -32.3312 H   0  0  0  0  0  0  0  0  0  0  0  0
   -0.0721   18.1039  -32.6591 H   0  0  0  0  0  0  0  0  0  0  0  0
    0.3742   19.7622  -30.8573 H   0  0  0  0  0  0  0  0  0  0  0  0
   -2.2671   21.3579  -27.6922 H   0  0  0  0  0  0  0  0  0  0  0  0
   -1.3044   20.6311  -25.3778 H   0  0  0  0  0  0  0  0  0  0  0  0
    0.0911   22.5319  -24.2029 H   0  0  0  0  0  0  0  0  0  0  0  0
   -4.5630   24.2750  -29.9730 H   0  0  0  0  0  0  0  0  0  0  0  0
   -3.6212   20.2957  -33.8163 H   0  0  0  0  0  0  0  0  0  0  0  0
  1  2  2  0
  2  3  1  0
  3  4  1  0
  4  5  2  0
  5  6  1  0
  6  7  2  0
  7  8  1  0
  8  9  2  0
  8 10  2  0
  8 11  1  0
 11 12  1  0
 12 13  1  0
 13 14  1  0
 14 15  1  0
 15 16  1  0
  7 17  1  0
 17 18  2  0
  2 19  1  0
 19 20  2  0
 20 21  1  0
 21 22  2  0
 22 23  1  0
 23 24  2  0
 23 25  1  0
 25 26  1  0
 26 27  2  0
 26 28  2  0
 26 29  1  0
 29 30  2  0
 30 31  1  0
 31 32  2  0
 32 33  1  0
 25 34  2  0
 34 35  1  0
 34 36  1  0
 36 37  1  0
 37 38  2  0
 18  4  1  0
 38 19  1  0
 16 11  1  0
 37 22  1  0
 33 29  1  0
  5 39  1  0
  6 40  1  0
 12 41  1  0
 12 42  1  0
 13 43  1  0
 13 44  1  0
 14 45  1  0
 14 46  1  0
 15 47  1  0
 15 48  1  0
 16 49  1  0
 16 50  1  0
 17 51  1  0
 18 52  1  0
 20 53  1  0
 21 54  1  0
 30 55  1  0
 31 56  1  0
 32 57  1  0
 35 58  1  0
 38 59  1  0
M  CHG  2   3  -1  36  -1
M  END
>  <UniqueID>  (34) 
32

>  <SMILES>  (34) 
O=C([N-]c1ccc(S(=O)(=O)N2CCCCC2)cc1)c1ccc2c(=O)c(S(=O)(=O)c3cccs3)c(O)[n-]c2c1

>  <Energy>  (34) 
109.9194033121645

>  <Genealogy>  (34) 
O=C([N-]c1ccc(S(=O)(=O)N2CCCCC2)cc1)c1ccc2c(=O)c(S(=O)(=O)c3cccs3)c(O)[n-]c2c1 (protonated)
O=C([N-]c1ccc(S(=O)(=O)N2CCCCC2)cc1)c1ccc2c(=O)c(S(=O)(=O)c3cccs3)c(O)[n-]c2c1 (3D coordinates assigned)
O=C([N-]c1ccc(S(=O)(=O)N2CCCCC2)cc1)c1ccc2c(=O)c(S(=O)(=O)c3cccs3)c(O)[n-]c2c1 (nonaromatic ring conformer: 109.9194033121645 kcal/mol)

>  <smiles>  (34) 
O=C(Nc1ccc(S(=O)(=O)N2CCCCC2)cc1)c1ccc2c(=O)c(S(=O)(=O)c3cccs3)c(O)[nH]c2c1

>  <score_type>  (34) 
oracle

>  <origin>  (34) 
adgpu

>  <m_score__min__energy>  (34) 
-13.029999999999999

>  <m_primary>  (34) 
energy

$$$$
34:0
     RDKit          3D

 51 54  0  0  0  0  0  0  0  0999 V2000
   -4.2930   15.8670  -33.0100 C   0  0  0  0  0  0  0  0  0  0  0  0
   -3.0210   16.5520  -33.2130 N   0  0  0  0  0  0  0  0  0  0  0  0
   -3.2420   17.8910  -34.2980 S   0  0  0  0  0  0  0  0  0  0  0  0
   -1.9010   18.4890  -34.6190 O   0  0  0  0  0  0  0  0  0  0  0  0
   -3.8660   17.4100  -35.5790 O   0  0  0  0  0  0  0  0  0  0  0  0
   -4.2570   19.1220  -33.5500 C   0  0  0  0  0  0  0  0  0  0  0  0
   -5.6460   18.9930  -33.5900 C   0  0  0  0  0  0  0  0  0  0  0  0
   -6.4630   19.9690  -33.0190 C   0  0  0  0  0  0  0  0  0  0  0  0
   -5.9070   21.1130  -32.4030 C   0  0  0  0  0  0  0  0  0  0  0  0
   -4.4930   21.2300  -32.3420 C   0  0  0  0  0  0  0  0  0  0  0  0
   -3.6840   20.2360  -32.9300 C   0  0  0  0  0  0  0  0  0  0  0  0
   -3.9180   22.3320  -31.6840 C   0  0  0  0  0  0  0  0  0  0  0  0
   -2.6620   22.4490  -31.6360 O   0  0  0  0  0  0  0  0  0  0  0  0
   -4.7430   23.2920  -31.0680 C   0  0  0  0  0  0  0  0  0  0  0  0
   -4.1850   24.4630  -30.3330 C   0  0  0  0  0  0  0  0  0  0  0  0
   -4.2230   25.6150  -30.8450 O   0  0  0  0  0  0  0  0  0  0  0  0
   -3.6570   24.2870  -29.0110 N   0  0  0  0  0  0  0  0  0  0  0  0
   -2.9190   23.1600  -28.5120 C   0  0  0  0  0  0  0  0  0  0  0  0
   -3.5010   21.8800  -28.4340 C   0  0  0  0  0  0  0  0  0  0  0  0
   -2.7720   20.8030  -27.9260 C   0  0  0  0  0  0  0  0  0  0  0  0
   -1.4660   20.9920  -27.4770 C   0  0  0  0  0  0  0  0  0  0  0  0
   -0.8850   22.2600  -27.5260 C   0  0  0  0  0  0  0  0  0  0  0  0
   -1.6060   23.3540  -28.0330 C   0  0  0  0  0  0  0  0  0  0  0  0
   -0.8710   24.9650  -28.0860 S   0  0  0  0  0  0  0  0  0  0  0  0
   -1.3230   25.9700  -26.6850 C   0  0  0  0  0  0  0  0  0  0  0  0
   -1.3190   25.6690  -29.3350 O   0  0  0  0  0  0  0  0  0  0  0  0
    0.6250   24.8220  -28.1020 O   0  0  0  0  0  0  0  0  0  0  0  0
   -6.1350   23.1300  -31.1560 C   0  0  0  0  0  0  0  0  0  0  0  0
   -6.6990   22.1010  -31.8560 N   0  0  0  0  0  0  0  0  0  0  0  0
   -8.1720   22.0330  -31.9160 C   0  0  0  0  0  0  0  0  0  0  0  0
   -8.7840   20.7100  -31.4540 C   0  0  0  0  0  0  0  0  0  0  0  0
   -8.8450   21.9230  -30.5500 C   0  0  0  0  0  0  0  0  0  0  0  0
   -4.4856   15.7633  -31.9320 H   0  0  0  0  0  0  0  0  0  0  0  0
   -5.1021   16.4514  -33.4725 H   0  0  0  0  0  0  0  0  0  0  0  0
   -4.2504   14.8699  -33.4725 H   0  0  0  0  0  0  0  0  0  0  0  0
   -6.0996   18.1160  -34.0749 H   0  0  0  0  0  0  0  0  0  0  0  0
   -7.5557   19.8464  -33.0486 H   0  0  0  0  0  0  0  0  0  0  0  0
   -2.5892   20.3385  -32.9004 H   0  0  0  0  0  0  0  0  0  0  0  0
   -4.5356   21.7279  -28.7752 H   0  0  0  0  0  0  0  0  0  0  0  0
   -3.2291   19.8035  -27.8800 H   0  0  0  0  0  0  0  0  0  0  0  0
   -0.8922   20.1401  -27.0833 H   0  0  0  0  0  0  0  0  0  0  0  0
    0.1442   22.4038  -27.1653 H   0  0  0  0  0  0  0  0  0  0  0  0
   -1.0816   25.4333  -25.7556 H   0  0  0  0  0  0  0  0  0  0  0  0
   -0.7640   26.9168  -26.7174 H   0  0  0  0  0  0  0  0  0  0  0  0
   -2.4023   26.1801  -26.7174 H   0  0  0  0  0  0  0  0  0  0  0  0
   -6.7902   23.8522  -30.6468 H   0  0  0  0  0  0  0  0  0  0  0  0
   -8.2847   22.6724  -32.8039 H   0  0  0  0  0  0  0  0  0  0  0  0
   -9.7011   20.3330  -31.9301 H   0  0  0  0  0  0  0  0  0  0  0  0
   -8.4150   19.6793  -31.3466 H   0  0  0  0  0  0  0  0  0  0  0  0
   -9.8068   22.4255  -30.3698 H   0  0  0  0  0  0  0  0  0  0  0  0
   -8.5385   22.1352  -29.5151 H   0  0  0  0  0  0  0  0  0  0  0  0
  1  2  1  0
  2  3  1  0
  3  4  2  0
  3  5  2  0
  3  6  1  0
  6  7  2  0
  7  8  1  0
  8  9  2  0
  9 10  1  0
 10 11  2  0
 10 12  1  0
 12 13  2  0
 12 14  1  0
 14 15  1  0
 15 16  2  0
 15 17  1  0
 17 18  1  0
 18 19  2  0
 19 20  1  0
 20 21  2  0
 21 22  1  0
 22 23  2  0
 23 24  1  0
 24 25  1  0
 24 26  2  0
 24 27  2  0
 14 28  2  0
 28 29  1  0
 29 30  1  0
 30 31  1  0
 31 32  1  0
 11  6  1  0
 23 18  1  0
 32 30  1  0
 29  9  1  0
  1 33  1  0
  1 34  1  0
  1 35  1  0
  7 36  1  0
  8 37  1  0
 11 38  1  0
 19 39  1  0
 20 40  1  0
 21 41  1  0
 22 42  1  0
 25 43  1  0
 25 44  1  0
 25 45  1  0
 28 46  1  0
 30 47  1  0
 31 48  1  0
 31 49  1  0
 32 50  1  0
 32 51  1  0
M  CHG  2   2  -1  17  -1
M  END
>  <UniqueID>  (35) 
33

>  <SMILES>  (35) 
C[N-]S(=O)(=O)c1ccc2c(c1)c(=O)c(C(=O)[N-]c1ccccc1S(C)(=O)=O)cn2C1CC1

>  <Energy>  (35) 
331.36987685551225

>  <Genealogy>  (35) 
C[N-]S(=O)(=O)c1ccc2c(c1)c(=O)c(C(=O)[N-]c1ccccc1S(C)(=O)=O)cn2C1CC1 (protonated)
C[N-]S(=O)(=O)c1ccc2c(c1)c(=O)c(C(=O)[N-]c1ccccc1S(C)(=O)=O)cn2C1CC1 (3D coordinates assigned)
C[N-]S(=O)(=O)c1ccc2c(c1)c(=O)c(C(=O)[N-]c1ccccc1S(C)(=O)=O)cn2C1CC1 (nonaromatic ring conformer: 331.36987685551225 kcal/mol)

>  <smiles>  (35) 
CNS(=O)(=O)c1ccc2c(c1)c(=O)c(C(=O)Nc1ccccc1S(C)(=O)=O)cn2C1CC1

>  <score_type>  (35) 
oracle

>  <origin>  (35) 
adgpu

>  <m_score__min__energy>  (35) 
-12.109999999999999

>  <m_primary>  (35) 
energy

$$$$
35:0
     RDKit          3D

 54 57  0  0  0  0  0  0  0  0999 V2000
   -9.0250   18.7590  -30.9330 N   0  0  0  0  0  0  0  0  0  0  0  0
   -8.1970   19.3110  -31.9620 C   0  0  0  0  0  0  0  0  0  0  0  0
   -7.8300   18.5680  -32.9120 O   0  0  0  0  0  0  0  0  0  0  0  0
   -7.7820   20.7340  -31.9390 C   0  0  0  0  0  0  0  0  0  0  0  0
   -8.7340   21.7690  -31.9830 C   0  0  0  0  0  0  0  0  0  0  0  0
   -8.3280   23.1070  -31.9560 C   0  0  0  0  0  0  0  0  0  0  0  0
   -6.9730   23.4290  -31.8870 C   0  0  0  0  0  0  0  0  0  0  0  0
   -6.0060   22.4120  -31.8490 C   0  0  0  0  0  0  0  0  0  0  0  0
   -4.5380   22.7570  -31.8160 C   0  0  0  0  0  0  0  0  0  0  0  0
   -4.3020   23.9990  -31.0810 N   0  0  0  0  0  0  0  0  0  0  0  0
   -4.0050   24.1050  -29.6810 C   0  0  0  0  0  0  0  0  0  0  0  0
   -4.8430   24.6570  -28.9200 O   0  0  0  0  0  0  0  0  0  0  0  0
   -2.7700   23.5450  -29.1000 C   0  0  0  0  0  0  0  0  0  0  0  0
   -2.7330   22.2050  -28.6840 C   0  0  0  0  0  0  0  0  0  0  0  0
   -1.5820   21.6830  -28.0760 C   0  0  0  0  0  0  0  0  0  0  0  0
   -1.5410   20.0120  -27.5200 S   0  0  0  0  0  0  0  0  0  0  0  0
   -2.8710   19.3520  -27.7620 O   0  0  0  0  0  0  0  0  0  0  0  0
   -1.2740   20.0370  -26.0410 O   0  0  0  0  0  0  0  0  0  0  0  0
   -0.2920   19.1100  -28.3410 N   0  0  0  0  0  0  0  0  0  0  0  0
    0.6670   18.3180  -27.5670 C   0  0  0  0  0  0  0  0  0  0  0  0
    0.6200   16.8690  -28.0500 C   0  0  0  0  0  0  0  0  0  0  0  0
    0.9950   16.7890  -29.5380 C   0  0  0  0  0  0  0  0  0  0  0  0
    0.3140   17.8480  -30.3770 C   0  0  0  0  0  0  0  0  0  0  0  0
    0.3410   17.7300  -31.7760 C   0  0  0  0  0  0  0  0  0  0  0  0
   -0.2060   18.7330  -32.5800 C   0  0  0  0  0  0  0  0  0  0  0  0
   -0.7640   19.8710  -31.9950 C   0  0  0  0  0  0  0  0  0  0  0  0
   -0.7880   20.0070  -30.6050 C   0  0  0  0  0  0  0  0  0  0  0  0
   -0.2640   18.9940  -29.7800 C   0  0  0  0  0  0  0  0  0  0  0  0
   -0.4530   22.4950  -27.9180 C   0  0  0  0  0  0  0  0  0  0  0  0
   -0.4760   23.8220  -28.3510 C   0  0  0  0  0  0  0  0  0  0  0  0
   -1.6300   24.3510  -28.9380 C   0  0  0  0  0  0  0  0  0  0  0  0
   -1.6420   25.6840  -29.3400 O   0  0  0  0  0  0  0  0  0  0  0  0
   -6.4170   21.0680  -31.8580 C   0  0  0  0  0  0  0  0  0  0  0  0
   -9.2470   17.7380  -30.9350 H   0  0  0  0  0  0  0  0  0  0  0  0
   -9.4950   19.3620  -30.2220 H   0  0  0  0  0  0  0  0  0  0  0  0
   -9.8049   21.5241  -32.0390 H   0  0  0  0  0  0  0  0  0  0  0  0
   -9.0805   23.9086  -31.9893 H   0  0  0  0  0  0  0  0  0  0  0  0
   -6.6608   24.4835  -31.8623 H   0  0  0  0  0  0  0  0  0  0  0  0
   -3.9886   21.9400  -31.3254 H   0  0  0  0  0  0  0  0  0  0  0  0
   -4.1894   22.8933  -32.8503 H   0  0  0  0  0  0  0  0  0  0  0  0
   -3.6116   21.5607  -28.8357 H   0  0  0  0  0  0  0  0  0  0  0  0
    1.6800   18.7220  -27.7107 H   0  0  0  0  0  0  0  0  0  0  0  0
    0.4090   18.3622  -26.4986 H   0  0  0  0  0  0  0  0  0  0  0  0
    1.3311   16.2682  -27.4640 H   0  0  0  0  0  0  0  0  0  0  0  0
   -0.4008   16.4812  -27.9175 H   0  0  0  0  0  0  0  0  0  0  0  0
    2.0838   16.9137  -29.6323 H   0  0  0  0  0  0  0  0  0  0  0  0
    0.6602   15.8093  -29.9095 H   0  0  0  0  0  0  0  0  0  0  0  0
    0.7954   16.8429  -32.2414 H   0  0  0  0  0  0  0  0  0  0  0  0
   -0.1970   18.6259  -33.6747 H   0  0  0  0  0  0  0  0  0  0  0  0
   -1.1862   20.6632  -32.6307 H   0  0  0  0  0  0  0  0  0  0  0  0
   -1.2193   20.9119  -30.1520 H   0  0  0  0  0  0  0  0  0  0  0  0
    0.4553   22.0863  -27.4512 H   0  0  0  0  0  0  0  0  0  0  0  0
    0.4164   24.4536  -28.2301 H   0  0  0  0  0  0  0  0  0  0  0  0
   -5.6637   20.2684  -31.8011 H   0  0  0  0  0  0  0  0  0  0  0  0
  1  2  1  0
  2  3  2  0
  2  4  1  0
  4  5  2  0
  5  6  1  0
  6  7  2  0
  7  8  1  0
  8  9  1  0
  9 10  1  0
 10 11  1  0
 11 12  2  0
 11 13  1  0
 13 14  2  0
 14 15  1  0
 15 16  1  0
 16 17  2  0
 16 18  2  0
 16 19  1  0
 19 20  1  0
 20 21  1  0
 21 22  1  0
 22 23  1  0
 23 24  2  0
 24 25  1  0
 25 26  2  0
 26 27  1  0
 27 28  2  0
 15 29  2  0
 29 30  1  0
 30 31  2  0
 31 32  1  0
  8 33  2  0
 33  4  1  0
 31 13  1  0
 28 19  1  0
 28 23  1  0
  1 34  1  0
  1 35  1  0
  5 36  1  0
  6 37  1  0
  7 38  1  0
  9 39  1  0
  9 40  1  0
 14 41  1  0
 20 42  1  0
 20 43  1  0
 21 44  1  0
 21 45  1  0
 22 46  1  0
 22 47  1  0
 24 48  1  0
 25 49  1  0
 26 50  1  0
 27 51  1  0
 29 52  1  0
 30 53  1  0
 33 54  1  0
M  CHG  2  10  -1  32  -1
M  END
>  <UniqueID>  (36) 
34

>  <SMILES>  (36) 
NC(=O)c1cccc(C[N-]C(=O)c2cc(S(=O)(=O)N3CCCc4ccccc43)ccc2[O-])c1

>  <Energy>  (36) 
65.25654153029467

>  <Genealogy>  (36) 
NC(=O)c1cccc(C[N-]C(=O)c2cc(S(=O)(=O)N3CCCc4ccccc43)ccc2[O-])c1 (protonated)
NC(=O)c1cccc(C[N-]C(=O)c2cc(S(=O)(=O)N3CCCc4ccccc43)ccc2[O-])c1 (3D coordinates assigned)
NC(=O)c1cccc(C[N-]C(=O)c2cc(S(=O)(=O)N3CCCc4ccccc43)ccc2[O-])c1 (nonaromatic ring conformer: 65.25654153029467 kcal/mol)

>  <smiles>  (36) 
NC(=O)c1cccc(CNC(=O)c2cc(S(=O)(=O)N3CCCc4ccccc43)ccc2O)c1

>  <score_type>  (36) 
oracle

>  <origin>  (36) 
adgpu

>  <m_score__min__energy>  (36) 
-13.68

>  <m_primary>  (36) 
energy

$$$$
36:0
     RDKit          3D

 45 47  0  0  0  0  0  0  0  0999 V2000
   -1.9850   20.3160  -27.3290 C   0  0  0  0  0  0  0  0  0  0  0  0
   -1.9860   21.7080  -27.8910 C   0  0  0  0  0  0  0  0  0  0  0  0
   -0.7870   22.3130  -28.2920 C   0  0  0  0  0  0  0  0  0  0  0  0
   -0.7900   23.6210  -28.7800 C   0  0  0  0  0  0  0  0  0  0  0  0
   -1.9830   24.3480  -28.8460 C   0  0  0  0  0  0  0  0  0  0  0  0
   -1.9570   25.6540  -29.3210 O   0  0  0  0  0  0  0  0  0  0  0  0
   -3.1920   23.7650  -28.4210 C   0  0  0  0  0  0  0  0  0  0  0  0
   -4.4090   24.5330  -28.4550 N   0  0  0  0  0  0  0  0  0  0  0  0
   -5.2270   24.9380  -29.9320 S   0  0  0  0  0  0  0  0  0  0  0  0
   -4.2720   25.6600  -30.8410 O   0  0  0  0  0  0  0  0  0  0  0  0
   -6.3920   25.8360  -29.6290 O   0  0  0  0  0  0  0  0  0  0  0  0
   -5.8290   23.4690  -30.6960 C   0  0  0  0  0  0  0  0  0  0  0  0
   -5.0120   22.7700  -31.5920 C   0  0  0  0  0  0  0  0  0  0  0  0
   -5.5070   21.6580  -32.2780 C   0  0  0  0  0  0  0  0  0  0  0  0
   -6.8270   21.2340  -32.0690 C   0  0  0  0  0  0  0  0  0  0  0  0
   -7.4960   19.8850  -32.9830 S   0  0  0  0  0  0  0  0  0  0  0  0
   -8.9810   20.0590  -33.1500 O   0  0  0  0  0  0  0  0  0  0  0  0
   -6.8550   19.8670  -34.3430 O   0  0  0  0  0  0  0  0  0  0  0  0
   -7.1530   18.3860  -32.1470 N   0  0  0  0  0  0  0  0  0  0  0  0
   -7.2440   17.2480  -33.0680 C   0  0  0  0  0  0  0  0  0  0  0  0
   -5.8540   16.9750  -33.6240 C   0  0  0  0  0  0  0  0  0  0  0  0
   -4.8970   17.7010  -32.6980 C   0  0  0  0  0  0  0  0  0  0  0  0
   -5.7720   18.3800  -31.6540 C   0  0  0  0  0  0  0  0  0  0  0  0
   -7.6400   21.9210  -31.1590 C   0  0  0  0  0  0  0  0  0  0  0  0
   -7.1440   23.0330  -30.4730 C   0  0  0  0  0  0  0  0  0  0  0  0
   -3.1830   22.4360  -27.9580 C   0  0  0  0  0  0  0  0  0  0  0  0
   -1.9850   20.3643  -26.2301 H   0  0  0  0  0  0  0  0  0  0  0  0
   -2.8828   19.7812  -27.6726 H   0  0  0  0  0  0  0  0  0  0  0  0
   -1.0865   19.7825  -27.6726 H   0  0  0  0  0  0  0  0  0  0  0  0
    0.1588   21.7558  -28.2220 H   0  0  0  0  0  0  0  0  0  0  0  0
    0.1510   24.0823  -29.1144 H   0  0  0  0  0  0  0  0  0  0  0  0
   -4.9190   24.7300  -27.5650 H   0  0  0  0  0  0  0  0  0  0  0  0
   -3.9750   23.0977  -31.7569 H   0  0  0  0  0  0  0  0  0  0  0  0
   -4.8604   21.1146  -32.9828 H   0  0  0  0  0  0  0  0  0  0  0  0
   -7.6106   16.3615  -32.5297 H   0  0  0  0  0  0  0  0  0  0  0  0
   -7.9429   17.4760  -33.8863 H   0  0  0  0  0  0  0  0  0  0  0  0
   -5.6449   15.8951  -33.6230 H   0  0  0  0  0  0  0  0  0  0  0  0
   -5.7557   17.3196  -34.6640 H   0  0  0  0  0  0  0  0  0  0  0  0
   -4.2112   16.9871  -32.2184 H   0  0  0  0  0  0  0  0  0  0  0  0
   -4.2763   18.4274  -33.2430 H   0  0  0  0  0  0  0  0  0  0  0  0
   -5.7177   17.8259  -30.7053 H   0  0  0  0  0  0  0  0  0  0  0  0
   -5.4263   19.4097  -31.4801 H   0  0  0  0  0  0  0  0  0  0  0  0
   -8.6724   21.5843  -30.9836 H   0  0  0  0  0  0  0  0  0  0  0  0
   -7.7856   23.5674  -29.7569 H   0  0  0  0  0  0  0  0  0  0  0  0
   -4.1254   21.9628  -27.6451 H   0  0  0  0  0  0  0  0  0  0  0  0
  1  2  1  0
  2  3  2  0
  3  4  1  0
  4  5  2  0
  5  6  1  0
  5  7  1  0
  7  8  1  0
  8  9  1  0
  9 10  2  0
  9 11  2  0
  9 12  1  0
 12 13  2  0
 13 14  1  0
 14 15  2  0
 15 16  1  0
 16 17  2  0
 16 18  2  0
 16 19  1  0
 19 20  1  0
 20 21  1  0
 21 22  1  0
 22 23  1  0
 15 24  1  0
 24 25  2  0
  7 26  2  0
 26  2  1  0
 25 12  1  0
 23 19  1  0
  1 27  1  0
  1 28  1  0
  1 29  1  0
  3 30  1  0
  4 31  1  0
  8 32  1  0
 13 33  1  0
 14 34  1  0
 20 35  1  0
 20 36  1  0
 21 37  1  0
 21 38  1  0
 22 39  1  0
 22 40  1  0
 23 41  1  0
 23 42  1  0
 24 43  1  0
 25 44  1  0
 26 45  1  0
M  CHG  1   6  -1
M  END
>  <UniqueID>  (37) 
35

>  <SMILES>  (37) 
Cc1ccc([O-])c(NS(=O)(=O)c2ccc(S(=O)(=O)N3CCCC3)cc2)c1

>  <Energy>  (37) 
48.732686383907456

>  <Genealogy>  (37) 
Cc1ccc([O-])c(NS(=O)(=O)c2ccc(S(=O)(=O)N3CCCC3)cc2)c1 (protonated)
Cc1ccc([O-])c(NS(=O)(=O)c2ccc(S(=O)(=O)N3CCCC3)cc2)c1 (3D coordinates assigned)
Cc1ccc([O-])c(NS(=O)(=O)c2ccc(S(=O)(=O)N3CCCC3)cc2)c1 (nonaromatic ring conformer: 48.732686383907456 kcal/mol)

>  <smiles>  (37) 
Cc1ccc(O)c(NS(=O)(=O)c2ccc(S(=O)(=O)N3CCCC3)cc2)c1

>  <score_type>  (37) 
oracle

>  <origin>  (37) 
adgpu

>  <m_score__min__energy>  (37) 
-13.640000000000001

>  <m_primary>  (37) 
energy

$$$$
37:0
     RDKit          3D

 68 72  0  0  0  0  0  0  0  0999 V2000
   -5.1290   23.3530  -31.5490 O   0  0  0  0  0  0  0  0  0  0  0  0
   -4.2700   22.5040  -31.1740 C   0  0  0  0  0  0  0  0  0  0  0  0
   -3.9610   21.3540  -32.0590 C   0  0  0  0  0  0  0  0  0  0  0  0
   -4.7320   20.1820  -32.0180 C   0  0  0  0  0  0  0  0  0  0  0  0
   -4.4240   19.1030  -32.8490 C   0  0  0  0  0  0  0  0  0  0  0  0
   -3.3630   19.1880  -33.7530 C   0  0  0  0  0  0  0  0  0  0  0  0
   -3.0740   18.1060  -34.5780 O   0  0  0  0  0  0  0  0  0  0  0  0
   -2.6060   20.3660  -33.8370 C   0  0  0  0  0  0  0  0  0  0  0  0
   -1.5100   20.4490  -34.7570 N   0  0  0  0  0  0  0  0  0  0  0  0
    0.1290   20.5100  -34.1960 S   0  0  0  0  0  0  0  0  0  0  0  0
    1.0070   19.6580  -35.0730 O   0  0  0  0  0  0  0  0  0  0  0  0
    0.6240   21.9290  -34.2580 O   0  0  0  0  0  0  0  0  0  0  0  0
    0.1830   19.9560  -32.5250 C   0  0  0  0  0  0  0  0  0  0  0  0
    0.1180   18.5840  -32.2500 C   0  0  0  0  0  0  0  0  0  0  0  0
    0.1550   18.1240  -30.9310 C   0  0  0  0  0  0  0  0  0  0  0  0
    0.2690   19.0340  -29.8720 C   0  0  0  0  0  0  0  0  0  0  0  0
    0.3130   18.4700  -28.2040 S   0  0  0  0  0  0  0  0  0  0  0  0
    1.6600   18.7850  -27.6180 O   0  0  0  0  0  0  0  0  0  0  0  0
    0.1090   16.9790  -28.1630 O   0  0  0  0  0  0  0  0  0  0  0  0
   -0.9250   19.2860  -27.2840 N   0  0  0  0  0  0  0  0  0  0  0  0
   -1.7660   18.3320  -26.5610 C   0  0  0  0  0  0  0  0  0  0  0  0
   -3.1270   18.9940  -26.3900 C   0  0  0  0  0  0  0  0  0  0  0  0
   -3.1480   20.1400  -27.3940 C   0  0  0  0  0  0  0  0  0  0  0  0
   -1.8410   20.0200  -28.1580 C   0  0  0  0  0  0  0  0  0  0  0  0
    0.3320   20.4070  -30.1440 C   0  0  0  0  0  0  0  0  0  0  0  0
    0.2910   20.8670  -31.4650 C   0  0  0  0  0  0  0  0  0  0  0  0
   -2.9030   21.4390  -32.9830 C   0  0  0  0  0  0  0  0  0  0  0  0
   -3.6250   22.6750  -29.8970 N   0  0  0  0  0  0  0  0  0  0  0  0
   -2.1780   22.4790  -29.7350 C   0  0  0  0  0  0  0  0  0  0  0  0
   -1.5280   23.7800  -29.2570 C   0  0  0  0  0  0  0  0  0  0  0  0
   -2.2890   24.3290  -28.1270 N   0  0  0  0  0  0  0  0  0  0  0  0
   -1.6680   24.5650  -26.8500 C   0  0  0  0  0  0  0  0  0  0  0  0
   -1.8610   25.7860  -26.1790 C   0  0  0  0  0  0  0  0  0  0  0  0
   -1.2290   26.0250  -24.9560 C   0  0  0  0  0  0  0  0  0  0  0  0
   -0.4000   25.0490  -24.3940 C   0  0  0  0  0  0  0  0  0  0  0  0
   -0.2060   23.8310  -25.0550 C   0  0  0  0  0  0  0  0  0  0  0  0
   -0.8320   23.5910  -26.2810 C   0  0  0  0  0  0  0  0  0  0  0  0
   -3.7280   24.5410  -28.3110 C   0  0  0  0  0  0  0  0  0  0  0  0
   -4.3710   23.2300  -28.7600 C   0  0  0  0  0  0  0  0  0  0  0  0
   -5.5847   20.1130  -31.3265 H   0  0  0  0  0  0  0  0  0  0  0  0
   -5.0206   18.1806  -32.7912 H   0  0  0  0  0  0  0  0  0  0  0  0
   -1.6880   20.8240  -35.7120 H   0  0  0  0  0  0  0  0  0  0  0  0
    0.0373   17.8640  -33.0777 H   0  0  0  0  0  0  0  0  0  0  0  0
    0.0945   17.0454  -30.7239 H   0  0  0  0  0  0  0  0  0  0  0  0
   -1.8666   17.4011  -27.1384 H   0  0  0  0  0  0  0  0  0  0  0  0
   -1.3254   18.0736  -25.5868 H   0  0  0  0  0  0  0  0  0  0  0  0
   -3.9333   18.2778  -26.6064 H   0  0  0  0  0  0  0  0  0  0  0  0
   -3.2831   19.3488  -25.3606 H   0  0  0  0  0  0  0  0  0  0  0  0
   -4.0049   20.0400  -28.0764 H   0  0  0  0  0  0  0  0  0  0  0  0
   -3.2492   21.1182  -26.9011 H   0  0  0  0  0  0  0  0  0  0  0  0
   -1.9970   19.4683  -29.0968 H   0  0  0  0  0  0  0  0  0  0  0  0
   -1.4381   21.0089  -28.4222 H   0  0  0  0  0  0  0  0  0  0  0  0
    0.4140   21.1263  -29.3158 H   0  0  0  0  0  0  0  0  0  0  0  0
    0.3436   21.9460  -31.6721 H   0  0  0  0  0  0  0  0  0  0  0  0
   -2.3012   22.3582  -33.0364 H   0  0  0  0  0  0  0  0  0  0  0  0
   -1.9977   21.6869  -28.9934 H   0  0  0  0  0  0  0  0  0  0  0  0
   -1.7407   22.1887  -30.7017 H   0  0  0  0  0  0  0  0  0  0  0  0
   -0.4952   23.5767  -28.9376 H   0  0  0  0  0  0  0  0  0  0  0  0
   -1.5238   24.5087  -30.0810 H   0  0  0  0  0  0  0  0  0  0  0  0
   -2.5121   26.5558  -26.6188 H   0  0  0  0  0  0  0  0  0  0  0  0
   -1.3836   26.9814  -24.4350 H   0  0  0  0  0  0  0  0  0  0  0  0
    0.0995   25.2387  -23.4325 H   0  0  0  0  0  0  0  0  0  0  0  0
    0.4405   23.0610  -24.6087 H   0  0  0  0  0  0  0  0  0  0  0  0
   -0.6693   22.6360  -26.8020 H   0  0  0  0  0  0  0  0  0  0  0  0
   -4.1773   24.8656  -27.3609 H   0  0  0  0  0  0  0  0  0  0  0  0
   -3.8947   25.3166  -29.0730 H   0  0  0  0  0  0  0  0  0  0  0  0
   -4.3557   22.5115  -27.9272 H   0  0  0  0  0  0  0  0  0  0  0  0
   -5.4105   23.4206  -29.0653 H   0  0  0  0  0  0  0  0  0  0  0  0
  1  2  2  0
  2  3  1  0
  3  4  2  0
  4  5  1  0
  5  6  2  0
  6  7  1  0
  6  8  1  0
  8  9  1  0
  9 10  1  0
 10 11  2  0
 10 12  2  0
 10 13  1  0
 13 14  2  0
 14 15  1  0
 15 16  2  0
 16 17  1  0
 17 18  2  0
 17 19  2  0
 17 20  1  0
 20 21  1  0
 21 22  1  0
 22 23  1  0
 23 24  1  0
 16 25  1  0
 25 26  2  0
  8 27  2  0
  2 28  1  0
 28 29  1  0
 29 30  1  0
 30 31  1  0
 31 32  1  0
 32 33  2  0
 33 34  1  0
 34 35  2  0
 35 36  1  0
 36 37  2  0
 31 38  1  0
 38 39  1  0
 27  3  1  0
 39 28  1  0
 26 13  1  0
 37 32  1  0
 24 20  1  0
  4 40  1  0
  5 41  1  0
  9 42  1  0
 14 43  1  0
 15 44  1  0
 21 45  1  0
 21 46  1  0
 22 47  1  0
 22 48  1  0
 23 49  1  0
 23 50  1  0
 24 51  1  0
 24 52  1  0
 25 53  1  0
 26 54  1  0
 27 55  1  0
 29 56  1  0
 29 57  1  0
 30 58  1  0
 30 59  1  0
 33 60  1  0
 34 61  1  0
 35 62  1  0
 36 63  1  0
 37 64  1  0
 38 65  1  0
 38 66  1  0
 39 67  1  0
 39 68  1  0
M  CHG  1   7  -1
M  END
>  <UniqueID>  (38) 
36

>  <SMILES>  (38) 
O=C(c1ccc([O-])c(NS(=O)(=O)c2ccc(S(=O)(=O)N3CCCC3)cc2)c1)N1CCN(c2ccccc2)CC1

>  <Energy>  (38) 
87.99043793286393

>  <Genealogy>  (38) 
O=C(c1ccc([O-])c(NS(=O)(=O)c2ccc(S(=O)(=O)N3CCCC3)cc2)c1)N1CCN(c2ccccc2)CC1 (protonated)
O=C(c1ccc([O-])c(NS(=O)(=O)c2ccc(S(=O)(=O)N3CCCC3)cc2)c1)N1CCN(c2ccccc2)CC1 (3D coordinates assigned)
O=C(c1ccc([O-])c(NS(=O)(=O)c2ccc(S(=O)(=O)N3CCCC3)cc2)c1)N1CCN(c2ccccc2)CC1 (nonaromatic ring conformer: 87.99043793286393 kcal/mol)

>  <smiles>  (38) 
O=C(c1ccc(O)c(NS(=O)(=O)c2ccc(S(=O)(=O)N3CCCC3)cc2)c1)N1CCN(c2ccccc2)CC1

>  <score_type>  (38) 
oracle

>  <origin>  (38) 
adgpu

>  <m_score__min__energy>  (38) 
-14.93

>  <m_primary>  (38) 
energy

$$$$
38:0
     RDKit          3D

 73 77  0  0  0  0  0  0  0  0999 V2000
   -5.3570   18.9810  -31.2680 O   0  0  0  0  0  0  0  0  0  0  0  0
   -5.0130   19.4010  -32.4050 C   0  0  0  0  0  0  0  0  0  0  0  0
   -5.8000   20.4220  -33.0420 N   0  0  0  0  0  0  0  0  0  0  0  0
   -7.1450   20.7120  -32.6370 C   0  0  0  0  0  0  0  0  0  0  0  0
   -8.1610   19.7950  -32.9470 C   0  0  0  0  0  0  0  0  0  0  0  0
   -9.4880   20.0620  -32.6040 C   0  0  0  0  0  0  0  0  0  0  0  0
   -9.8130   21.2400  -31.9350 C   0  0  0  0  0  0  0  0  0  0  0  0
   -8.8100   22.1470  -31.5900 C   0  0  0  0  0  0  0  0  0  0  0  0
   -7.4700   21.8940  -31.9280 C   0  0  0  0  0  0  0  0  0  0  0  0
   -6.4390   22.7770  -31.4470 N   0  0  0  0  0  0  0  0  0  0  0  0
   -6.4330   24.1730  -31.9100 C   0  0  0  0  0  0  0  0  0  0  0  0
   -5.8100   25.0960  -30.8530 C   0  0  0  0  0  0  0  0  0  0  0  0
   -4.4670   24.5780  -30.2900 C   0  0  0  0  0  0  0  0  0  0  0  0
   -4.0750   23.1880  -30.8090 C   0  0  0  0  0  0  0  0  0  0  0  0
   -5.2640   22.2220  -30.7560 C   0  0  0  0  0  0  0  0  0  0  0  0
   -3.8040   18.8370  -33.0650 C   0  0  0  0  0  0  0  0  0  0  0  0
   -3.6480   17.4430  -33.1770 C   0  0  0  0  0  0  0  0  0  0  0  0
   -2.5590   16.9030  -33.8680 C   0  0  0  0  0  0  0  0  0  0  0  0
   -1.6110   17.7460  -34.4550 C   0  0  0  0  0  0  0  0  0  0  0  0
   -0.5390   17.1980  -35.1490 O   0  0  0  0  0  0  0  0  0  0  0  0
   -1.7390   19.1340  -34.3360 C   0  0  0  0  0  0  0  0  0  0  0  0
   -0.7800   19.9890  -34.9630 N   0  0  0  0  0  0  0  0  0  0  0  0
    0.4590   20.8090  -34.0760 S   0  0  0  0  0  0  0  0  0  0  0  0
    1.7580   20.0690  -34.2340 O   0  0  0  0  0  0  0  0  0  0  0  0
    0.6460   22.2120  -34.5870 O   0  0  0  0  0  0  0  0  0  0  0  0
   -0.0070   20.8170  -32.3810 C   0  0  0  0  0  0  0  0  0  0  0  0
   -1.0710   21.6170  -31.9350 C   0  0  0  0  0  0  0  0  0  0  0  0
   -1.5020   21.5330  -30.6040 C   0  0  0  0  0  0  0  0  0  0  0  0
   -0.8840   20.6370  -29.7170 C   0  0  0  0  0  0  0  0  0  0  0  0
   -1.4910   20.4530  -28.0690 S   0  0  0  0  0  0  0  0  0  0  0  0
   -0.5770   19.5380  -27.2980 O   0  0  0  0  0  0  0  0  0  0  0  0
   -2.8580   19.8200  -28.1100 O   0  0  0  0  0  0  0  0  0  0  0  0
   -1.5960   22.0000  -27.2580 N   0  0  0  0  0  0  0  0  0  0  0  0
   -2.8750   22.6680  -27.5890 C   0  0  0  0  0  0  0  0  0  0  0  0
   -2.8280   24.1670  -27.2660 C   0  0  0  0  0  0  0  0  0  0  0  0
   -1.7420   24.8840  -28.0900 C   0  0  0  0  0  0  0  0  0  0  0  0
   -0.5970   23.9450  -28.5120 C   0  0  0  0  0  0  0  0  0  0  0  0
   -0.3820   22.8260  -27.4810 C   0  0  0  0  0  0  0  0  0  0  0  0
    0.1940   19.8550  -30.1600 C   0  0  0  0  0  0  0  0  0  0  0  0
    0.6240   19.9420  -31.4870 C   0  0  0  0  0  0  0  0  0  0  0  0
   -2.8400   19.6760  -33.6540 C   0  0  0  0  0  0  0  0  0  0  0  0
   -5.3200   21.1120  -33.6640 H   0  0  0  0  0  0  0  0  0  0  0  0
   -7.9098   18.8576  -33.4648 H   0  0  0  0  0  0  0  0  0  0  0  0
  -10.2778   19.3413  -32.8624 H   0  0  0  0  0  0  0  0  0  0  0  0
  -10.8608   21.4554  -31.6785 H   0  0  0  0  0  0  0  0  0  0  0  0
   -9.0709   23.0683  -31.0486 H   0  0  0  0  0  0  0  0  0  0  0  0
   -5.8479   24.2422  -32.8389 H   0  0  0  0  0  0  0  0  0  0  0  0
   -7.4714   24.4901  -32.0866 H   0  0  0  0  0  0  0  0  0  0  0  0
   -5.6378   26.0814  -31.3105 H   0  0  0  0  0  0  0  0  0  0  0  0
   -6.5155   25.1421  -30.0103 H   0  0  0  0  0  0  0  0  0  0  0  0
   -3.6758   25.2890  -30.5701 H   0  0  0  0  0  0  0  0  0  0  0  0
   -4.5875   24.4917  -29.2000 H   0  0  0  0  0  0  0  0  0  0  0  0
   -3.7312   23.2773  -31.8501 H   0  0  0  0  0  0  0  0  0  0  0  0
   -3.2736   22.7901  -30.1692 H   0  0  0  0  0  0  0  0  0  0  0  0
   -4.9783   21.2762  -31.2395 H   0  0  0  0  0  0  0  0  0  0  0  0
   -5.5290   22.0572  -29.7012 H   0  0  0  0  0  0  0  0  0  0  0  0
   -4.3889   16.7726  -32.7171 H   0  0  0  0  0  0  0  0  0  0  0  0
   -2.4480   15.8117  -33.9499 H   0  0  0  0  0  0  0  0  0  0  0  0
   -1.5667   22.3102  -32.6306 H   0  0  0  0  0  0  0  0  0  0  0  0
   -2.3267   22.1708  -30.2533 H   0  0  0  0  0  0  0  0  0  0  0  0
   -3.0774   22.5401  -28.6626 H   0  0  0  0  0  0  0  0  0  0  0  0
   -3.6701   22.2096  -26.9826 H   0  0  0  0  0  0  0  0  0  0  0  0
   -3.8062   24.6140  -27.4968 H   0  0  0  0  0  0  0  0  0  0  0  0
   -2.5880   24.2846  -26.1990 H   0  0  0  0  0  0  0  0  0  0  0  0
   -2.2062   25.3015  -28.9957 H   0  0  0  0  0  0  0  0  0  0  0  0
   -1.3087   25.6703  -27.4544 H   0  0  0  0  0  0  0  0  0  0  0  0
   -0.8440   23.4935  -29.4842 H   0  0  0  0  0  0  0  0  0  0  0  0
    0.3284   24.5358  -28.5804 H   0  0  0  0  0  0  0  0  0  0  0  0
    0.4265   22.1712  -27.8381 H   0  0  0  0  0  0  0  0  0  0  0  0
   -0.1302   23.3053  -26.5235 H   0  0  0  0  0  0  0  0  0  0  0  0
    0.7011   19.1727  -29.4619 H   0  0  0  0  0  0  0  0  0  0  0  0
    1.4630   19.3197  -31.8316 H   0  0  0  0  0  0  0  0  0  0  0  0
   -2.9502   20.7679  -33.5793 H   0  0  0  0  0  0  0  0  0  0  0  0
  1  2  2  0
  2  3  1  0
  3  4  1  0
  4  5  2  0
  5  6  1  0
  6  7  2  0
  7  8  1  0
  8  9  2  0
  9 10  1  0
 10 11  1  0
 11 12  1  0
 12 13  1  0
 13 14  1  0
 14 15  1  0
  2 16  1  0
 16 17  2  0
 17 18  1  0
 18 19  2  0
 19 20  1  0
 19 21  1  0
 21 22  1  0
 22 23  1  0
 23 24  2  0
 23 25  2  0
 23 26  1  0
 26 27  2  0
 27 28  1  0
 28 29  2  0
 29 30  1  0
 30 31  2  0
 30 32  2  0
 30 33  1  0
 33 34  1  0
 34 35  1  0
 35 36  1  0
 36 37  1  0
 37 38  1  0
 29 39  1  0
 39 40  2  0
 21 41  2  0
  9  4  1  0
 15 10  1  0
 41 16  1  0
 40 26  1  0
 38 33  1  0
  3 42  1  0
  5 43  1  0
  6 44  1  0
  7 45  1  0
  8 46  1  0
 11 47  1  0
 11 48  1  0
 12 49  1  0
 12 50  1  0
 13 51  1  0
 13 52  1  0
 14 53  1  0
 14 54  1  0
 15 55  1  0
 15 56  1  0
 17 57  1  0
 18 58  1  0
 27 59  1  0
 28 60  1  0
 34 61  1  0
 34 62  1  0
 35 63  1  0
 35 64  1  0
 36 65  1  0
 36 66  1  0
 37 67  1  0
 37 68  1  0
 38 69  1  0
 38 70  1  0
 39 71  1  0
 40 72  1  0
 41 73  1  0
M  CHG  2  20  -1  22  -1
M  END
>  <UniqueID>  (39) 
37

>  <SMILES>  (39) 
O=C(Nc1ccccc1N1CCCCC1)c1ccc([O-])c([N-]S(=O)(=O)c2ccc(S(=O)(=O)N3CCCCC3)cc2)c1

>  <Energy>  (39) 
100.62497879077964

>  <Genealogy>  (39) 
O=C(Nc1ccccc1N1CCCCC1)c1ccc([O-])c([N-]S(=O)(=O)c2ccc(S(=O)(=O)N3CCCCC3)cc2)c1 (protonated)
O=C(Nc1ccccc1N1CCCCC1)c1ccc([O-])c([N-]S(=O)(=O)c2ccc(S(=O)(=O)N3CCCCC3)cc2)c1 (3D coordinates assigned)
O=C(Nc1ccccc1N1CCCCC1)c1ccc([O-])c([N-]S(=O)(=O)c2ccc(S(=O)(=O)N3CCCCC3)cc2)c1 (nonaromatic ring conformer: 100.62497879077964 kcal/mol)

>  <smiles>  (39) 
O=C(Nc1ccccc1N1CCCCC1)c1ccc(O)c(NS(=O)(=O)c2ccc(S(=O)(=O)N3CCCCC3)cc2)c1

>  <score_type>  (39) 
oracle

>  <origin>  (39) 
adgpu

>  <m_score__min__energy>  (39) 
-15.9

>  <m_primary>  (39) 
energy

$$$$
39:0
     RDKit          3D

 51 54  0  0  0  0  0  0  0  0999 V2000
   -7.0620   20.4610  -33.4440 C   0  0  0  0  0  0  0  0  0  0  0  0
   -7.2120   20.3380  -31.9830 N   0  0  0  0  0  0  0  0  0  0  0  0
   -8.1690   21.3110  -31.4230 C   0  0  0  0  0  0  0  0  0  0  0  0
   -7.6880   22.7600  -31.5780 C   0  0  0  0  0  0  0  0  0  0  0  0
   -6.2350   22.9200  -31.2190 C   0  0  0  0  0  0  0  0  0  0  0  0
   -5.7150   24.2080  -31.0290 C   0  0  0  0  0  0  0  0  0  0  0  0
   -4.3570   24.3940  -30.7550 C   0  0  0  0  0  0  0  0  0  0  0  0
   -3.8760   25.6790  -30.5350 O   0  0  0  0  0  0  0  0  0  0  0  0
   -3.4970   23.2880  -30.6910 C   0  0  0  0  0  0  0  0  0  0  0  0
   -2.0970   23.4570  -30.4590 N   0  0  0  0  0  0  0  0  0  0  0  0
   -1.4470   23.5710  -28.8570 S   0  0  0  0  0  0  0  0  0  0  0  0
   -2.3920   24.3780  -28.0120 O   0  0  0  0  0  0  0  0  0  0  0  0
   -0.1130   24.2620  -28.8760 O   0  0  0  0  0  0  0  0  0  0  0  0
   -1.2740   21.9530  -28.1840 C   0  0  0  0  0  0  0  0  0  0  0  0
   -2.1020   21.5180  -27.1380 C   0  0  0  0  0  0  0  0  0  0  0  0
   -1.9900   20.2120  -26.6530 C   0  0  0  0  0  0  0  0  0  0  0  0
   -1.0730   19.3270  -27.2240 C   0  0  0  0  0  0  0  0  0  0  0  0
   -0.2590   19.7470  -28.2890 C   0  0  0  0  0  0  0  0  0  0  0  0
    0.6510   18.8490  -28.9400 N   0  0  0  0  0  0  0  0  0  0  0  0
    0.4750   18.2740  -30.2420 C   0  0  0  0  0  0  0  0  0  0  0  0
    0.5910   17.0250  -30.3660 O   0  0  0  0  0  0  0  0  0  0  0  0
    0.2260   19.1080  -31.4460 C   0  0  0  0  0  0  0  0  0  0  0  0
   -1.0920   19.4100  -31.8370 C   0  0  0  0  0  0  0  0  0  0  0  0
   -1.3370   20.1890  -32.9710 C   0  0  0  0  0  0  0  0  0  0  0  0
   -2.9860   20.5360  -33.4580 Cl  0  0  0  0  0  0  0  0  0  0  0  0
   -0.2690   20.6920  -33.7170 C   0  0  0  0  0  0  0  0  0  0  0  0
    1.0450   20.4140  -33.3320 C   0  0  0  0  0  0  0  0  0  0  0  0
    1.2980   19.6250  -32.2040 C   0  0  0  0  0  0  0  0  0  0  0  0
    2.6160   19.3490  -31.8570 O   0  0  0  0  0  0  0  0  0  0  0  0
   -0.3360   21.0700  -28.7360 C   0  0  0  0  0  0  0  0  0  0  0  0
   -4.0110   21.9990  -30.8700 C   0  0  0  0  0  0  0  0  0  0  0  0
   -5.3710   21.8050  -31.1560 C   0  0  0  0  0  0  0  0  0  0  0  0
   -5.9110   20.3980  -31.2860 C   0  0  0  0  0  0  0  0  0  0  0  0
   -6.2297   21.1435  -33.6710 H   0  0  0  0  0  0  0  0  0  0  0  0
   -6.8527   19.4712  -33.8757 H   0  0  0  0  0  0  0  0  0  0  0  0
   -7.9917   20.8602  -33.8757 H   0  0  0  0  0  0  0  0  0  0  0  0
   -9.1312   21.2005  -31.9445 H   0  0  0  0  0  0  0  0  0  0  0  0
   -8.2676   21.1035  -30.3473 H   0  0  0  0  0  0  0  0  0  0  0  0
   -7.8305   23.0703  -32.6237 H   0  0  0  0  0  0  0  0  0  0  0  0
   -8.2759   23.3856  -30.8902 H   0  0  0  0  0  0  0  0  0  0  0  0
   -6.3818   25.0803  -31.0962 H   0  0  0  0  0  0  0  0  0  0  0  0
   -2.8400   22.2056  -26.6993 H   0  0  0  0  0  0  0  0  0  0  0  0
   -2.6260   19.8803  -25.8191 H   0  0  0  0  0  0  0  0  0  0  0  0
   -0.9880   18.2999  -26.8394 H   0  0  0  0  0  0  0  0  0  0  0  0
   -1.9370   19.0293  -31.2445 H   0  0  0  0  0  0  0  0  0  0  0  0
   -0.4623   21.3073  -34.6081 H   0  0  0  0  0  0  0  0  0  0  0  0
    1.8842   20.8169  -33.9179 H   0  0  0  0  0  0  0  0  0  0  0  0
    0.3444   21.4199  -29.5263 H   0  0  0  0  0  0  0  0  0  0  0  0
   -3.3426   21.1294  -30.7857 H   0  0  0  0  0  0  0  0  0  0  0  0
   -5.1839   19.7948  -31.8495 H   0  0  0  0  0  0  0  0  0  0  0  0
   -6.0665   20.0113  -30.2680 H   0  0  0  0  0  0  0  0  0  0  0  0
  1  2  1  0
  2  3  1  0
  3  4  1  0
  4  5  1  0
  5  6  2  0
  6  7  1  0
  7  8  1  0
  7  9  2  0
  9 10  1  0
 10 11  1  0
 11 12  2  0
 11 13  2  0
 11 14  1  0
 14 15  2  0
 15 16  1  0
 16 17  2  0
 17 18  1  0
 18 19  1  0
 19 20  1  0
 20 21  2  0
 20 22  1  0
 22 23  2  0
 23 24  1  0
 24 25  1  0
 24 26  2  0
 26 27  1  0
 27 28  2  0
 28 29  1  0
 18 30  2  0
  9 31  1  0
 31 32  2  0
 32 33  1  0
 33  2  1  0
 32  5  1  0
 30 14  1  0
 28 22  1  0
  1 34  1  0
  1 35  1  0
  1 36  1  0
  3 37  1  0
  3 38  1  0
  4 39  1  0
  4 40  1  0
  6 41  1  0
 15 42  1  0
 16 43  1  0
 17 44  1  0
 23 45  1  0
 26 46  1  0
 27 47  1  0
 30 48  1  0
 31 49  1  0
 33 50  1  0
 33 51  1  0
M  CHG  4   8  -1  10  -1  19  -1  29  -1
M  END
>  <UniqueID>  (40) 
38

>  <SMILES>  (40) 
CN1CCc2cc([O-])c([N-]S(=O)(=O)c3cccc([N-]C(=O)c4cc(Cl)ccc4[O-])c3)cc2C1

>  <Energy>  (40) 
73.28317222206248

>  <Genealogy>  (40) 
CN1CCc2cc([O-])c([N-]S(=O)(=O)c3cccc([N-]C(=O)c4cc(Cl)ccc4[O-])c3)cc2C1 (protonated)
CN1CCc2cc([O-])c([N-]S(=O)(=O)c3cccc([N-]C(=O)c4cc(Cl)ccc4[O-])c3)cc2C1 (3D coordinates assigned)
CN1CCc2cc([O-])c([N-]S(=O)(=O)c3cccc([N-]C(=O)c4cc(Cl)ccc4[O-])c3)cc2C1 (nonaromatic ring conformer: 73.28317222206248 kcal/mol)

>  <smiles>  (40) 
CN1CCc2cc(O)c(NS(=O)(=O)c3cccc(NC(=O)c4cc(Cl)ccc4O)c3)cc2C1

>  <score_type>  (40) 
oracle

>  <origin>  (40) 
adgpu

>  <m_score__min__energy>  (40) 
-14.56

>  <m_primary>  (40) 
energy

$$$$
40:0
     RDKit          3D

 59 62  0  0  0  0  0  0  0  0999 V2000
   -9.0820   19.1080  -31.2970 C   0  0  0  0  0  0  0  0  0  0  0  0
   -7.8450   19.8120  -31.3420 O   0  0  0  0  0  0  0  0  0  0  0  0
   -6.7740   19.4880  -32.1920 C   0  0  0  0  0  0  0  0  0  0  0  0
   -6.5660   18.1730  -32.6550 C   0  0  0  0  0  0  0  0  0  0  0  0
   -5.5150   17.8900  -33.5310 C   0  0  0  0  0  0  0  0  0  0  0  0
   -4.6650   18.9110  -33.9590 C   0  0  0  0  0  0  0  0  0  0  0  0
   -4.8570   20.2170  -33.5040 C   0  0  0  0  0  0  0  0  0  0  0  0
   -5.8990   20.5140  -32.6100 C   0  0  0  0  0  0  0  0  0  0  0  0
   -6.0710   21.8630  -32.1480 N   0  0  0  0  0  0  0  0  0  0  0  0
   -5.0940   22.6780  -31.7010 C   0  0  0  0  0  0  0  0  0  0  0  0
   -5.6400   23.8910  -31.3170 C   0  0  0  0  0  0  0  0  0  0  0  0
   -4.9060   25.0480  -30.7870 C   0  0  0  0  0  0  0  0  0  0  0  0
   -5.5150   26.1330  -30.5840 O   0  0  0  0  0  0  0  0  0  0  0  0
   -3.5160   24.9170  -30.4590 N   0  0  0  0  0  0  0  0  0  0  0  0
   -2.9590   24.1220  -29.4010 C   0  0  0  0  0  0  0  0  0  0  0  0
   -3.6350   23.0080  -28.8720 C   0  0  0  0  0  0  0  0  0  0  0  0
   -3.0700   22.2780  -27.8230 C   0  0  0  0  0  0  0  0  0  0  0  0
   -1.8370   22.6560  -27.2890 C   0  0  0  0  0  0  0  0  0  0  0  0
   -1.1640   23.7740  -27.7960 C   0  0  0  0  0  0  0  0  0  0  0  0
    0.3840   24.2480  -27.1000 S   0  0  0  0  0  0  0  0  0  0  0  0
    1.3140   24.6280  -28.2190 O   0  0  0  0  0  0  0  0  0  0  0  0
    0.9820   23.0990  -26.3350 O   0  0  0  0  0  0  0  0  0  0  0  0
    0.1540   25.6100  -26.0310 N   0  0  0  0  0  0  0  0  0  0  0  0
   -1.1390   25.4850  -25.3260 C   0  0  0  0  0  0  0  0  0  0  0  0
   -1.2480   26.4340  -24.1090 C   0  0  0  0  0  0  0  0  0  0  0  0
   -0.2230   27.5830  -24.1580 C   0  0  0  0  0  0  0  0  0  0  0  0
   -0.5710   28.5960  -25.2620 C   0  0  0  0  0  0  0  0  0  0  0  0
    1.2160   27.0330  -24.3130 C   0  0  0  0  0  0  0  0  0  0  0  0
    1.2720   25.6970  -25.0790 C   0  0  0  0  0  0  0  0  0  0  0  0
   -1.7340   24.5110  -28.8440 C   0  0  0  0  0  0  0  0  0  0  0  0
   -7.0060   23.8110  -31.5250 C   0  0  0  0  0  0  0  0  0  0  0  0
   -7.2300   22.5460  -32.0300 C   0  0  0  0  0  0  0  0  0  0  0  0
   -8.4800   22.0210  -32.3460 O   0  0  0  0  0  0  0  0  0  0  0  0
   -9.3720   18.9429  -30.2488 H   0  0  0  0  0  0  0  0  0  0  0  0
   -9.8590   19.6992  -31.8037 H   0  0  0  0  0  0  0  0  0  0  0  0
   -8.9705   18.1380  -31.8037 H   0  0  0  0  0  0  0  0  0  0  0  0
   -7.2351   17.3648  -32.3247 H   0  0  0  0  0  0  0  0  0  0  0  0
   -5.3571   16.8603  -33.8841 H   0  0  0  0  0  0  0  0  0  0  0  0
   -3.8434   18.6866  -34.6552 H   0  0  0  0  0  0  0  0  0  0  0  0
   -4.1875   21.0191  -33.8481 H   0  0  0  0  0  0  0  0  0  0  0  0
   -4.0263   22.4187  -31.6494 H   0  0  0  0  0  0  0  0  0  0  0  0
   -4.6103   22.7108  -29.2848 H   0  0  0  0  0  0  0  0  0  0  0  0
   -3.5984   21.4029  -27.4169 H   0  0  0  0  0  0  0  0  0  0  0  0
   -1.3931   22.0741  -26.4679 H   0  0  0  0  0  0  0  0  0  0  0  0
   -1.9491   25.7223  -26.0313 H   0  0  0  0  0  0  0  0  0  0  0  0
   -1.2157   24.4535  -24.9517 H   0  0  0  0  0  0  0  0  0  0  0  0
   -2.2597   26.8654  -24.0885 H   0  0  0  0  0  0  0  0  0  0  0  0
   -1.0403   25.8415  -23.2058 H   0  0  0  0  0  0  0  0  0  0  0  0
   -0.2691   28.1222  -23.2003 H   0  0  0  0  0  0  0  0  0  0  0  0
   -0.8958   29.5414  -24.8030 H   0  0  0  0  0  0  0  0  0  0  0  0
    0.3164   28.7773  -25.8862 H   0  0  0  0  0  0  0  0  0  0  0  0
   -1.3825   28.1937  -25.8862 H   0  0  0  0  0  0  0  0  0  0  0  0
    1.8178   27.7750  -24.8583 H   0  0  0  0  0  0  0  0  0  0  0  0
    1.6079   26.8486  -23.3019 H   0  0  0  0  0  0  0  0  0  0  0  0
    2.2228   25.6327  -25.6283 H   0  0  0  0  0  0  0  0  0  0  0  0
    1.1967   24.8677  -24.3602 H   0  0  0  0  0  0  0  0  0  0  0  0
   -1.2157   25.4006  -29.2313 H   0  0  0  0  0  0  0  0  0  0  0  0
   -7.7558   24.5916  -31.3290 H   0  0  0  0  0  0  0  0  0  0  0  0
   -8.9390   21.3630  -31.7290 H   0  0  0  0  0  0  0  0  0  0  0  0
  1  2  1  0
  2  3  1  0
  3  4  2  0
  4  5  1  0
  5  6  2  0
  6  7  1  0
  7  8  2  0
  8  9  1  0
  9 10  1  0
 10 11  2  0
 11 12  1  0
 12 13  2  0
 12 14  1  0
 14 15  1  0
 15 16  2  0
 16 17  1  0
 17 18  2  0
 18 19  1  0
 19 20  1  0
 20 21  2  0
 20 22  2  0
 20 23  1  0
 23 24  1  0
 24 25  1  0
 25 26  1  0
 26 27  1  0
 26 28  1  0
 28 29  1  0
 19 30  2  0
 11 31  1  0
 31 32  2  0
 32 33  1  0
  8  3  1  0
 32  9  1  0
 30 15  1  0
 29 23  1  0
  1 34  1  0
  1 35  1  0
  1 36  1  0
  4 37  1  0
  5 38  1  0
  6 39  1  0
  7 40  1  0
 10 41  1  0
 16 42  1  0
 17 43  1  0
 18 44  1  0
 24 45  1  0
 24 46  1  0
 25 47  1  0
 25 48  1  0
 26 49  1  0
 27 50  1  0
 27 51  1  0
 27 52  1  0
 28 53  1  0
 28 54  1  0
 29 55  1  0
 29 56  1  0
 30 57  1  0
 31 58  1  0
 33 59  1  0
M  CHG  1  14  -1
M  END
>  <UniqueID>  (41) 
39

>  <SMILES>  (41) 
COc1ccccc1-n1cc(C(=O)[N-]c2cccc(S(=O)(=O)N3CCC(C)CC3)c2)cc1O

>  <Energy>  (41) 
98.91817654014531

>  <Genealogy>  (41) 
COc1ccccc1-n1cc(C(=O)[N-]c2cccc(S(=O)(=O)N3CCC(C)CC3)c2)cc1O (protonated)
COc1ccccc1-n1cc(C(=O)[N-]c2cccc(S(=O)(=O)N3CCC(C)CC3)c2)cc1O (3D coordinates assigned)
COc1ccccc1-n1cc(C(=O)[N-]c2cccc(S(=O)(=O)N3CCC(C)CC3)c2)cc1O (nonaromatic ring conformer: 98.91817654014531 kcal/mol)

>  <smiles>  (41) 
COc1ccccc1-n1cc(C(=O)Nc2cccc(S(=O)(=O)N3CCC(C)CC3)c2)cc1O

>  <score_type>  (41) 
oracle

>  <origin>  (41) 
adgpu

>  <m_score__min__energy>  (41) 
-11.710000000000001

>  <m_primary>  (41) 
energy

$$$$
41:0
     RDKit          3D

 35 37  0  0  0  0  0  0  0  0999 V2000
   -3.2360   18.9960  -26.7190 C   0  0  0  0  0  0  0  0  0  0  0  0
   -2.1270   19.9230  -27.0980 C   0  0  0  0  0  0  0  0  0  0  0  0
   -0.8570   19.7990  -26.6640 N   0  0  0  0  0  0  0  0  0  0  0  0
   -0.1680   20.7510  -27.2250 O   0  0  0  0  0  0  0  0  0  0  0  0
   -0.9240   21.4900  -28.0060 C   0  0  0  0  0  0  0  0  0  0  0  0
   -0.4320   22.6470  -28.8110 C   0  0  0  0  0  0  0  0  0  0  0  0
   -2.2150   21.0060  -27.9510 C   0  0  0  0  0  0  0  0  0  0  0  0
   -3.4020   21.4630  -28.7380 C   0  0  0  0  0  0  0  0  0  0  0  0
   -2.9240   21.6740  -30.4830 S   0  0  0  0  0  0  0  0  0  0  0  0
   -4.5830   22.2090  -30.9940 C   0  0  0  0  0  0  0  0  0  0  0  0
   -4.9320   23.5550  -30.7450 C   0  0  0  0  0  0  0  0  0  0  0  0
   -4.0000   24.5820  -30.2220 C   0  0  0  0  0  0  0  0  0  0  0  0
   -3.8580   25.6710  -30.8390 O   0  0  0  0  0  0  0  0  0  0  0  0
   -3.2250   24.3460  -29.0940 O   0  0  0  0  0  0  0  0  0  0  0  0
   -6.5150   24.0240  -31.0510 S   0  0  0  0  0  0  0  0  0  0  0  0
   -7.4700   22.7970  -31.6690 C   0  0  0  0  0  0  0  0  0  0  0  0
   -9.0390   23.1600  -31.9980 S   0  0  0  0  0  0  0  0  0  0  0  0
   -6.8830   21.5270  -31.8870 C   0  0  0  0  0  0  0  0  0  0  0  0
   -7.6780   20.4880  -32.4300 C   0  0  0  0  0  0  0  0  0  0  0  0
   -7.1600   19.2210  -32.6650 C   0  0  0  0  0  0  0  0  0  0  0  0
   -5.8370   18.9470  -32.3700 C   0  0  0  0  0  0  0  0  0  0  0  0
   -5.0180   19.9360  -31.8350 C   0  0  0  0  0  0  0  0  0  0  0  0
   -5.4970   21.2480  -31.5670 C   0  0  0  0  0  0  0  0  0  0  0  0
   -3.3063   18.9372  -25.6228 H   0  0  0  0  0  0  0  0  0  0  0  0
   -4.1851   19.3733  -27.1276 H   0  0  0  0  0  0  0  0  0  0  0  0
   -3.0330   17.9951  -27.1276 H   0  0  0  0  0  0  0  0  0  0  0  0
   -0.0923   23.4458  -28.1353 H   0  0  0  0  0  0  0  0  0  0  0  0
    0.4059   22.3224  -29.4454 H   0  0  0  0  0  0  0  0  0  0  0  0
   -1.2471   23.0253  -29.4454 H   0  0  0  0  0  0  0  0  0  0  0  0
   -4.2025   20.7121  -28.6647 H   0  0  0  0  0  0  0  0  0  0  0  0
   -3.7628   22.4216  -28.3367 H   0  0  0  0  0  0  0  0  0  0  0  0
   -8.7320   20.6897  -32.6716 H   0  0  0  0  0  0  0  0  0  0  0  0
   -7.8030   18.4343  -33.0864 H   0  0  0  0  0  0  0  0  0  0  0  0
   -5.4305   17.9425  -32.5592 H   0  0  0  0  0  0  0  0  0  0  0  0
   -3.9678   19.6960  -31.6124 H   0  0  0  0  0  0  0  0  0  0  0  0
  1  2  1  0
  2  3  2  0
  3  4  1  0
  4  5  1  0
  5  6  1  0
  5  7  2  0
  7  8  1  0
  8  9  1  0
  9 10  1  0
 10 11  2  0
 11 12  1  0
 12 13  2  0
 12 14  1  0
 11 15  1  0
 15 16  1  0
 16 17  2  0
 16 18  1  0
 18 19  2  0
 19 20  1  0
 20 21  2  0
 21 22  1  0
 22 23  2  0
  7  2  1  0
 23 10  1  0
 23 18  1  0
  1 24  1  0
  1 25  1  0
  1 26  1  0
  6 27  1  0
  6 28  1  0
  6 29  1  0
  8 30  1  0
  8 31  1  0
 19 32  1  0
 20 33  1  0
 21 34  1  0
 22 35  1  0
M  CHG  1  14  -1
M  END
>  <UniqueID>  (42) 
40

>  <SMILES>  (42) 
Cc1noc(C)c1CSc1c(C(=O)[O-])sc(=S)c2ccccc12

>  <Energy>  (42) 
79.28413455633358

>  <Genealogy>  (42) 
Cc1noc(C)c1CSc1c(C(=O)[O-])sc(=S)c2ccccc12 (protonated)
Cc1noc(C)c1CSc1c(C(=O)[O-])sc(=S)c2ccccc12 (3D coordinates assigned)
Cc1noc(C)c1CSc1c(C(=O)[O-])sc(=S)c2ccccc12 (optimized conformer: 79.28413455633358 kcal/mol)

>  <smiles>  (42) 
Cc1noc(C)c1CSc1c(C(=O)O)sc(=S)c2ccccc12

>  <score_type>  (42) 
oracle

>  <origin>  (42) 
adgpu

>  <m_score__min__energy>  (42) 
-10.539999999999999

>  <m_primary>  (42) 
energy

$$$$
42:0
     RDKit          3D

 51 54  0  0  0  0  0  0  0  0999 V2000
    1.0500   21.2250  -27.3520 C   0  0  0  0  0  0  0  0  0  0  0  0
    0.2080   20.1890  -27.9720 N   0  0  0  0  0  0  0  0  0  0  0  0
   -0.8700   19.7220  -27.0810 C   0  0  0  0  0  0  0  0  0  0  0  0
   -1.8910   20.8270  -26.7640 C   0  0  0  0  0  0  0  0  0  0  0  0
   -2.2610   21.6370  -27.9800 C   0  0  0  0  0  0  0  0  0  0  0  0
   -3.3410   22.5290  -27.8990 C   0  0  0  0  0  0  0  0  0  0  0  0
   -3.6420   23.3920  -28.9640 C   0  0  0  0  0  0  0  0  0  0  0  0
   -4.6930   24.3690  -28.8880 N   0  0  0  0  0  0  0  0  0  0  0  0
   -5.9160   24.6830  -30.0840 S   0  0  0  0  0  0  0  0  0  0  0  0
   -5.4150   25.6360  -31.1340 O   0  0  0  0  0  0  0  0  0  0  0  0
   -7.0730   25.3360  -29.3790 O   0  0  0  0  0  0  0  0  0  0  0  0
   -6.4680   23.1730  -30.8260 C   0  0  0  0  0  0  0  0  0  0  0  0
   -7.7670   22.7180  -30.6110 C   0  0  0  0  0  0  0  0  0  0  0  0
   -8.1940   21.5170  -31.1700 C   0  0  0  0  0  0  0  0  0  0  0  0
   -7.3260   20.7290  -31.9650 C   0  0  0  0  0  0  0  0  0  0  0  0
   -6.0040   21.1960  -32.2020 C   0  0  0  0  0  0  0  0  0  0  0  0
   -5.6030   22.4230  -31.6260 C   0  0  0  0  0  0  0  0  0  0  0  0
   -5.1410   20.4520  -32.9810 N   0  0  0  0  0  0  0  0  0  0  0  0
   -3.7670   20.9290  -33.2570 C   0  0  0  0  0  0  0  0  0  0  0  0
   -5.5650   19.2580  -33.5050 C   0  0  0  0  0  0  0  0  0  0  0  0
   -4.7910   18.5540  -34.2120 O   0  0  0  0  0  0  0  0  0  0  0  0
   -6.8620   18.7970  -33.2700 C   0  0  0  0  0  0  0  0  0  0  0  0
   -7.2180   17.6930  -33.7740 O   0  0  0  0  0  0  0  0  0  0  0  0
   -7.7350   19.5310  -32.5090 N   0  0  0  0  0  0  0  0  0  0  0  0
   -9.1070   19.0280  -32.2810 C   0  0  0  0  0  0  0  0  0  0  0  0
   -2.8820   23.3170  -30.1400 C   0  0  0  0  0  0  0  0  0  0  0  0
   -3.1900   24.1510  -31.2160 O   0  0  0  0  0  0  0  0  0  0  0  0
   -1.8090   22.4200  -30.2310 C   0  0  0  0  0  0  0  0  0  0  0  0
   -1.4730   21.6000  -29.1460 C   0  0  0  0  0  0  0  0  0  0  0  0
   -0.3280   20.6230  -29.2770 C   0  0  0  0  0  0  0  0  0  0  0  0
    0.9842   21.1441  -26.2570 H   0  0  0  0  0  0  0  0  0  0  0  0
    2.0945   21.0861  -27.6679 H   0  0  0  0  0  0  0  0  0  0  0  0
    0.7005   22.2190  -27.6679 H   0  0  0  0  0  0  0  0  0  0  0  0
   -1.3940   18.8868  -27.5687 H   0  0  0  0  0  0  0  0  0  0  0  0
   -0.4086   19.4107  -26.1322 H   0  0  0  0  0  0  0  0  0  0  0  0
   -2.8018   20.3605  -26.3604 H   0  0  0  0  0  0  0  0  0  0  0  0
   -1.4293   21.5097  -26.0354 H   0  0  0  0  0  0  0  0  0  0  0  0
   -3.9594   22.5522  -26.9896 H   0  0  0  0  0  0  0  0  0  0  0  0
   -8.4594   23.3114  -29.9958 H   0  0  0  0  0  0  0  0  0  0  0  0
   -9.2237   21.1737  -30.9913 H   0  0  0  0  0  0  0  0  0  0  0  0
   -4.5851   22.7962  -31.8123 H   0  0  0  0  0  0  0  0  0  0  0  0
   -3.2440   21.1106  -32.3065 H   0  0  0  0  0  0  0  0  0  0  0  0
   -3.2235   20.1670  -33.8348 H   0  0  0  0  0  0  0  0  0  0  0  0
   -3.8126   21.8639  -33.8348 H   0  0  0  0  0  0  0  0  0  0  0  0
   -9.2970   18.9583  -31.1998 H   0  0  0  0  0  0  0  0  0  0  0  0
   -9.8314   19.7190  -32.7368 H   0  0  0  0  0  0  0  0  0  0  0  0
   -9.2130   18.0325  -32.7368 H   0  0  0  0  0  0  0  0  0  0  0  0
   -3.8540   24.9120  -31.1270 H   0  0  0  0  0  0  0  0  0  0  0  0
   -1.2260   22.3594  -31.1618 H   0  0  0  0  0  0  0  0  0  0  0  0
   -0.6835   19.7366  -29.8229 H   0  0  0  0  0  0  0  0  0  0  0  0
    0.4839   21.1355  -29.8137 H   0  0  0  0  0  0  0  0  0  0  0  0
  1  2  1  0
  2  3  1  0
  3  4  1  0
  4  5  1  0
  5  6  2  0
  6  7  1  0
  7  8  1  0
  8  9  1  0
  9 10  2  0
  9 11  2  0
  9 12  1  0
 12 13  2  0
 13 14  1  0
 14 15  2  0
 15 16  1  0
 16 17  2  0
 16 18  1  0
 18 19  1  0
 18 20  1  0
 20 21  2  0
 20 22  1  0
 22 23  2  0
 22 24  1  0
 24 25  1  0
  7 26  2  0
 26 27  1  0
 26 28  1  0
 28 29  2  0
 29 30  1  0
 30  2  1  0
 29  5  1  0
 17 12  1  0
 24 15  1  0
  1 31  1  0
  1 32  1  0
  1 33  1  0
  3 34  1  0
  3 35  1  0
  4 36  1  0
  4 37  1  0
  6 38  1  0
 13 39  1  0
 14 40  1  0
 17 41  1  0
 19 42  1  0
 19 43  1  0
 19 44  1  0
 25 45  1  0
 25 46  1  0
 25 47  1  0
 27 48  1  0
 28 49  1  0
 30 50  1  0
 30 51  1  0
M  CHG  1   8  -1
M  END
>  <UniqueID>  (43) 
41

>  <SMILES>  (43) 
CN1CCc2cc([N-]S(=O)(=O)c3ccc4c(c3)n(C)c(=O)c(=O)n4C)c(O)cc2C1

>  <Energy>  (43) 
81.33882239112054

>  <Genealogy>  (43) 
CN1CCc2cc([N-]S(=O)(=O)c3ccc4c(c3)n(C)c(=O)c(=O)n4C)c(O)cc2C1 (protonated)
CN1CCc2cc([N-]S(=O)(=O)c3ccc4c(c3)n(C)c(=O)c(=O)n4C)c(O)cc2C1 (3D coordinates assigned)
CN1CCc2cc([N-]S(=O)(=O)c3ccc4c(c3)n(C)c(=O)c(=O)n4C)c(O)cc2C1 (nonaromatic ring conformer: 81.33882239112054 kcal/mol)

>  <smiles>  (43) 
CN1CCc2cc(NS(=O)(=O)c3ccc4c(c3)n(C)c(=O)c(=O)n4C)c(O)cc2C1

>  <score_type>  (43) 
oracle

>  <origin>  (43) 
adgpu

>  <m_score__min__energy>  (43) 
-12.699999999999999

>  <m_primary>  (43) 
energy

$$$$
43:0
     RDKit          3D

 40 42  0  0  0  0  0  0  0  0999 V2000
   -1.9970   25.5310  -28.9730 O   0  0  0  0  0  0  0  0  0  0  0  0
   -2.6800   24.5790  -29.4360 C   0  0  0  0  0  0  0  0  0  0  0  0
   -3.6140   24.8500  -30.4900 N   0  0  0  0  0  0  0  0  0  0  0  0
   -4.7500   24.0460  -30.8360 C   0  0  0  0  0  0  0  0  0  0  0  0
   -4.5880   22.6620  -30.9610 C   0  0  0  0  0  0  0  0  0  0  0  0
   -5.6800   21.8490  -31.2770 C   0  0  0  0  0  0  0  0  0  0  0  0
   -6.9460   22.4150  -31.4800 C   0  0  0  0  0  0  0  0  0  0  0  0
   -8.3430   21.3830  -31.7930 S   0  0  0  0  0  0  0  0  0  0  0  0
   -8.8180   20.7880  -30.4960 O   0  0  0  0  0  0  0  0  0  0  0  0
   -9.4580   22.2210  -32.3550 O   0  0  0  0  0  0  0  0  0  0  0  0
   -7.9520   20.0950  -32.9110 N   0  0  0  0  0  0  0  0  0  0  0  0
   -8.0900   18.7590  -32.2680 C   0  0  0  0  0  0  0  0  0  0  0  0
   -6.7430   18.1590  -31.8370 C   0  0  0  0  0  0  0  0  0  0  0  0
   -5.7880   18.0080  -33.0340 C   0  0  0  0  0  0  0  0  0  0  0  0
   -6.0390   19.0600  -34.1290 C   0  0  0  0  0  0  0  0  0  0  0  0
   -6.6240   20.3420  -33.5270 C   0  0  0  0  0  0  0  0  0  0  0  0
   -7.0990   23.8070  -31.4070 C   0  0  0  0  0  0  0  0  0  0  0  0
   -6.0060   24.6190  -31.0950 C   0  0  0  0  0  0  0  0  0  0  0  0
   -2.4510   23.2160  -28.9190 C   0  0  0  0  0  0  0  0  0  0  0  0
   -3.1210   22.5610  -27.9060 C   0  0  0  0  0  0  0  0  0  0  0  0
   -2.6110   21.3220  -27.7760 N   0  0  0  0  0  0  0  0  0  0  0  0
   -1.6510   21.1640  -28.6740 N   0  0  0  0  0  0  0  0  0  0  0  0
   -1.5380   22.2980  -29.3880 C   0  0  0  0  0  0  0  0  0  0  0  0
   -3.5960   22.2114  -30.8098 H   0  0  0  0  0  0  0  0  0  0  0  0
   -5.5454   20.7610  -31.3667 H   0  0  0  0  0  0  0  0  0  0  0  0
   -8.6660   20.1500  -33.6760 H   0  0  0  0  0  0  0  0  0  0  0  0
   -8.7286   18.8623  -31.3783 H   0  0  0  0  0  0  0  0  0  0  0  0
   -8.5303   18.0792  -33.0123 H   0  0  0  0  0  0  0  0  0  0  0  0
   -6.2792   18.8200  -31.0901 H   0  0  0  0  0  0  0  0  0  0  0  0
   -6.9279   17.1609  -31.4131 H   0  0  0  0  0  0  0  0  0  0  0  0
   -4.7537   18.1136  -32.6748 H   0  0  0  0  0  0  0  0  0  0  0  0
   -5.9648   17.0171  -33.4778 H   0  0  0  0  0  0  0  0  0  0  0  0
   -5.0871   19.2969  -34.6267 H   0  0  0  0  0  0  0  0  0  0  0  0
   -6.7580   18.6504  -34.8537 H   0  0  0  0  0  0  0  0  0  0  0  0
   -5.9370   20.7211  -32.7561 H   0  0  0  0  0  0  0  0  0  0  0  0
   -6.7490   21.0779  -34.3350 H   0  0  0  0  0  0  0  0  0  0  0  0
   -8.0829   24.2610  -31.5960 H   0  0  0  0  0  0  0  0  0  0  0  0
   -6.1294   25.7112  -31.0520 H   0  0  0  0  0  0  0  0  0  0  0  0
   -3.9387   22.9826  -27.3029 H   0  0  0  0  0  0  0  0  0  0  0  0
   -0.8304   22.4653  -30.2135 H   0  0  0  0  0  0  0  0  0  0  0  0
  1  2  2  0
  2  3  1  0
  3  4  1  0
  4  5  2  0
  5  6  1  0
  6  7  2  0
  7  8  1  0
  8  9  2  0
  8 10  2  0
  8 11  1  0
 11 12  1  0
 12 13  1  0
 13 14  1  0
 14 15  1  0
 15 16  1  0
  7 17  1  0
 17 18  2  0
  2 19  1  0
 19 20  1  0
 20 21  2  0
 21 22  1  0
 22 23  1  0
 18  4  1  0
 23 19  2  0
 16 11  1  0
  5 24  1  0
  6 25  1  0
 11 26  1  0
 12 27  1  0
 12 28  1  0
 13 29  1  0
 13 30  1  0
 14 31  1  0
 14 32  1  0
 15 33  1  0
 15 34  1  0
 16 35  1  0
 16 36  1  0
 17 37  1  0
 18 38  1  0
 20 39  1  0
 23 40  1  0
M  CHG  3   3  -1  11   1  22  -1
M  END
>  <UniqueID>  (44) 
42

>  <SMILES>  (44) 
O=C([N-]c1ccc(S(=O)(=O)[NH+]2CCCCC2)cc1)c1cn[n-]c1

>  <Energy>  (44) 
79.8941342607033

>  <Genealogy>  (44) 
O=C([N-]c1ccc(S(=O)(=O)[NH+]2CCCCC2)cc1)c1cn[n-]c1 (protonated)
O=C([N-]c1ccc(S(=O)(=O)[NH+]2CCCCC2)cc1)c1cn[n-]c1 (3D coordinates assigned)
O=C([N-]c1ccc(S(=O)(=O)[NH+]2CCCCC2)cc1)c1cn[n-]c1 (nonaromatic ring conformer: 79.8941342607033 kcal/mol)

>  <smiles>  (44) 
O=C(Nc1ccc(S(=O)(=O)N2CCCCC2)cc1)c1cn[nH]c1

>  <score_type>  (44) 
oracle

>  <origin>  (44) 
adgpu

>  <m_score__min__energy>  (44) 
-10.460000000000001

>  <m_primary>  (44) 
energy

$$$$
44:0
     RDKit          3D

 43 45  0  0  0  0  0  0  0  0999 V2000
   -6.2760   25.6990  -29.3690 C   0  0  0  0  0  0  0  0  0  0  0  0
   -6.5250   24.5850  -30.3850 C   0  0  0  0  0  0  0  0  0  0  0  0
   -6.3830   23.1870  -29.7710 C   0  0  0  0  0  0  0  0  0  0  0  0
   -6.5360   22.0840  -30.7870 C   0  0  0  0  0  0  0  0  0  0  0  0
   -7.6230   21.2840  -30.8060 N   0  0  0  0  0  0  0  0  0  0  0  0
   -7.3540   20.3760  -31.7620 C   0  0  0  0  0  0  0  0  0  0  0  0
   -8.4230   19.0250  -32.1150 S   0  0  0  0  0  0  0  0  0  0  0  0
   -7.4900   17.6500  -32.7500 C   0  0  0  0  0  0  0  0  0  0  0  0
   -9.1030   18.5980  -30.8450 O   0  0  0  0  0  0  0  0  0  0  0  0
   -9.4690   19.4460  -33.1070 O   0  0  0  0  0  0  0  0  0  0  0  0
   -6.1010   20.6160  -32.2940 C   0  0  0  0  0  0  0  0  0  0  0  0
   -5.3790   19.7350  -33.2300 C   0  0  0  0  0  0  0  0  0  0  0  0
   -4.2690   19.2400  -32.9060 O   0  0  0  0  0  0  0  0  0  0  0  0
   -5.9340   19.4150  -34.4620 O   0  0  0  0  0  0  0  0  0  0  0  0
   -5.6030   21.7340  -31.7090 N   0  0  0  0  0  0  0  0  0  0  0  0
   -4.3020   22.3930  -31.9180 C   0  0  0  0  0  0  0  0  0  0  0  0
   -3.2800   22.0760  -30.8470 C   0  0  0  0  0  0  0  0  0  0  0  0
   -2.9610   20.7260  -30.5670 C   0  0  0  0  0  0  0  0  0  0  0  0
   -2.0240   20.3920  -29.5700 C   0  0  0  0  0  0  0  0  0  0  0  0
   -1.3970   21.3960  -28.8170 C   0  0  0  0  0  0  0  0  0  0  0  0
   -0.4710   21.0730  -27.8330 O   0  0  0  0  0  0  0  0  0  0  0  0
   -1.7310   22.7220  -29.0790 C   0  0  0  0  0  0  0  0  0  0  0  0
   -1.2380   23.8050  -28.4410 N   0  0  0  0  0  0  0  0  0  0  0  0
   -1.8640   24.8490  -29.0260 C   0  0  0  0  0  0  0  0  0  0  0  0
   -1.6400   26.1710  -28.6590 O   0  0  0  0  0  0  0  0  0  0  0  0
   -2.7360   24.4320  -30.0150 C   0  0  0  0  0  0  0  0  0  0  0  0
   -3.5330   25.2550  -30.7950 O   0  0  0  0  0  0  0  0  0  0  0  0
   -2.6500   23.0570  -30.0540 C   0  0  0  0  0  0  0  0  0  0  0  0
   -6.3667   25.2934  -28.3505 H   0  0  0  0  0  0  0  0  0  0  0  0
   -5.2645   26.1068  -29.5126 H   0  0  0  0  0  0  0  0  0  0  0  0
   -7.0176   26.4987  -29.5126 H   0  0  0  0  0  0  0  0  0  0  0  0
   -7.5444   24.6930  -30.7841 H   0  0  0  0  0  0  0  0  0  0  0  0
   -5.7680   24.6803  -31.1774 H   0  0  0  0  0  0  0  0  0  0  0  0
   -5.3874   23.1049  -29.3105 H   0  0  0  0  0  0  0  0  0  0  0  0
   -7.1868   23.0679  -29.0296 H   0  0  0  0  0  0  0  0  0  0  0  0
   -7.0898   17.0602  -31.9121 H   0  0  0  0  0  0  0  0  0  0  0  0
   -8.1448   17.0155  -33.3653 H   0  0  0  0  0  0  0  0  0  0  0  0
   -6.6584   18.0240  -33.3653 H   0  0  0  0  0  0  0  0  0  0  0  0
   -3.8999   22.0677  -32.8888 H   0  0  0  0  0  0  0  0  0  0  0  0
   -4.4814   23.4776  -31.8801 H   0  0  0  0  0  0  0  0  0  0  0  0
   -3.4529   19.9244  -31.1374 H   0  0  0  0  0  0  0  0  0  0  0  0
   -1.7819   19.3359  -29.3803 H   0  0  0  0  0  0  0  0  0  0  0  0
   -1.6170   26.9090  -29.3530 H   0  0  0  0  0  0  0  0  0  0  0  0
  1  2  1  0
  2  3  1  0
  3  4  1  0
  4  5  2  0
  5  6  1  0
  6  7  1  0
  7  8  1  0
  7  9  2  0
  7 10  2  0
  6 11  2  0
 11 12  1  0
 12 13  2  0
 12 14  1  0
 11 15  1  0
 15 16  1  0
 16 17  1  0
 17 18  2  0
 18 19  1  0
 19 20  2  0
 20 21  1  0
 20 22  1  0
 22 23  1  0
 23 24  1  0
 24 25  1  0
 24 26  2  0
 26 27  1  0
 26 28  1  0
 15  4  1  0
 28 17  1  0
 28 22  2  0
  1 29  1  0
  1 30  1  0
  1 31  1  0
  2 32  1  0
  2 33  1  0
  3 34  1  0
  3 35  1  0
  8 36  1  0
  8 37  1  0
  8 38  1  0
 16 39  1  0
 16 40  1  0
 18 41  1  0
 19 42  1  0
 25 43  1  0
M  CHG  4  14  -1  21  -1  23  -1  27  -1
M  END
>  <UniqueID>  (45) 
43

>  <SMILES>  (45) 
CCCc1nc(S(C)(=O)=O)c(C(=O)[O-])n1Cc1ccc([O-])c2[n-]c(O)c([O-])c12

>  <Energy>  (45) 
108.05815284697067

>  <Genealogy>  (45) 
CCCc1nc(S(C)(=O)=O)c(C(=O)[O-])n1Cc1ccc([O-])c2[n-]c(O)c([O-])c12 (protonated)
CCCc1nc(S(C)(=O)=O)c(C(=O)[O-])n1Cc1ccc([O-])c2[n-]c(O)c([O-])c12 (3D coordinates assigned)
CCCc1nc(S(C)(=O)=O)c(C(=O)[O-])n1Cc1ccc([O-])c2[n-]c(O)c([O-])c12 (optimized conformer: 108.05815284697067 kcal/mol)

>  <smiles>  (45) 
CCCc1nc(S(C)(=O)=O)c(C(=O)O)n1Cc1ccc(O)c2[nH]c(O)c(O)c12

>  <score_type>  (45) 
oracle

>  <origin>  (45) 
adgpu

>  <m_score__min__energy>  (45) 
-12.050000000000001

>  <m_primary>  (45) 
energy

$$$$
45:0
     RDKit          3D

 46 49  0  0  0  0  0  0  0  0999 V2000
   -0.4780   19.7480  -29.9390 C   0  0  0  0  0  0  0  0  0  0  0  0
   -0.8880   19.7730  -28.5200 N   0  0  0  0  0  0  0  0  0  0  0  0
    0.2060   20.2790  -27.6440 C   0  0  0  0  0  0  0  0  0  0  0  0
    0.0070   21.7120  -27.0850 C   0  0  0  0  0  0  0  0  0  0  0  0
   -0.8730   22.5560  -27.9660 C   0  0  0  0  0  0  0  0  0  0  0  0
   -0.6350   23.9240  -28.1530 C   0  0  0  0  0  0  0  0  0  0  0  0
   -1.4930   24.6850  -28.9630 C   0  0  0  0  0  0  0  0  0  0  0  0
   -1.2380   26.0410  -29.1760 O   0  0  0  0  0  0  0  0  0  0  0  0
   -2.6080   24.0830  -29.5690 C   0  0  0  0  0  0  0  0  0  0  0  0
   -3.4540   24.8800  -30.4120 N   0  0  0  0  0  0  0  0  0  0  0  0
   -5.1870   24.8680  -30.3730 S   0  0  0  0  0  0  0  0  0  0  0  0
   -5.6430   24.9290  -28.9410 O   0  0  0  0  0  0  0  0  0  0  0  0
   -5.7090   26.0700  -31.1060 O   0  0  0  0  0  0  0  0  0  0  0  0
   -5.7920   23.4090  -31.1600 C   0  0  0  0  0  0  0  0  0  0  0  0
   -7.1590   23.1110  -31.1530 C   0  0  0  0  0  0  0  0  0  0  0  0
   -7.6280   21.9330  -31.7450 C   0  0  0  0  0  0  0  0  0  0  0  0
   -6.7300   21.0520  -32.3680 C   0  0  0  0  0  0  0  0  0  0  0  0
   -5.3520   21.3460  -32.3630 C   0  0  0  0  0  0  0  0  0  0  0  0
   -4.8920   22.5220  -31.7650 C   0  0  0  0  0  0  0  0  0  0  0  0
   -4.4240   20.4500  -32.9820 N   0  0  0  0  0  0  0  0  0  0  0  0
   -4.8910   19.3570  -33.7730 C   0  0  0  0  0  0  0  0  0  0  0  0
   -4.0670   18.5320  -34.2480 O   0  0  0  0  0  0  0  0  0  0  0  0
   -6.3520   19.2510  -34.1030 C   0  0  0  0  0  0  0  0  0  0  0  0
   -7.2190   19.7390  -32.9320 C   0  0  0  0  0  0  0  0  0  0  0  0
   -2.8620   22.7160  -29.3460 C   0  0  0  0  0  0  0  0  0  0  0  0
   -1.9890   21.9590  -28.5540 C   0  0  0  0  0  0  0  0  0  0  0  0
   -2.1760   20.4830  -28.3490 C   0  0  0  0  0  0  0  0  0  0  0  0
    0.6181   19.6812  -30.0028 H   0  0  0  0  0  0  0  0  0  0  0  0
   -0.9281   18.8756  -30.4354 H   0  0  0  0  0  0  0  0  0  0  0  0
   -0.8187   20.6686  -30.4354 H   0  0  0  0  0  0  0  0  0  0  0  0
    0.3008   19.5924  -26.7898 H   0  0  0  0  0  0  0  0  0  0  0  0
    1.1033   20.3250  -28.2786 H   0  0  0  0  0  0  0  0  0  0  0  0
   -0.4546   21.6414  -26.0890 H   0  0  0  0  0  0  0  0  0  0  0  0
    0.9950   22.1935  -27.0392 H   0  0  0  0  0  0  0  0  0  0  0  0
    0.2261   24.4030  -27.6641 H   0  0  0  0  0  0  0  0  0  0  0  0
   -1.2520   26.4450  -30.1050 H   0  0  0  0  0  0  0  0  0  0  0  0
   -7.8684   23.8060  -30.6799 H   0  0  0  0  0  0  0  0  0  0  0  0
   -8.7021   21.6969  -31.7222 H   0  0  0  0  0  0  0  0  0  0  0  0
   -3.8165   22.7529  -31.7692 H   0  0  0  0  0  0  0  0  0  0  0  0
   -6.5659   19.8662  -34.9895 H   0  0  0  0  0  0  0  0  0  0  0  0
   -6.5908   18.1953  -34.2991 H   0  0  0  0  0  0  0  0  0  0  0  0
   -8.2523   19.8686  -33.2863 H   0  0  0  0  0  0  0  0  0  0  0  0
   -7.1612   18.9858  -32.1324 H   0  0  0  0  0  0  0  0  0  0  0  0
   -3.7474   22.2418  -29.7945 H   0  0  0  0  0  0  0  0  0  0  0  0
   -2.5573   20.3032  -27.3330 H   0  0  0  0  0  0  0  0  0  0  0  0
   -2.8935   20.1066  -29.0930 H   0  0  0  0  0  0  0  0  0  0  0  0
  1  2  1  0
  2  3  1  0
  3  4  1  0
  4  5  1  0
  5  6  2  0
  6  7  1  0
  7  8  1  0
  7  9  2  0
  9 10  1  0
 10 11  1  0
 11 12  2  0
 11 13  2  0
 11 14  1  0
 14 15  2  0
 15 16  1  0
 16 17  2  0
 17 18  1  0
 18 19  2  0
 18 20  1  0
 20 21  1  0
 21 22  2  0
 21 23  1  0
 23 24  1  0
  9 25  1  0
 25 26  2  0
 26 27  1  0
 27  2  1  0
 26  5  1  0
 19 14  1  0
 24 17  1  0
  1 28  1  0
  1 29  1  0
  1 30  1  0
  3 31  1  0
  3 32  1  0
  4 33  1  0
  4 34  1  0
  6 35  1  0
  8 36  1  0
 15 37  1  0
 16 38  1  0
 19 39  1  0
 23 40  1  0
 23 41  1  0
 24 42  1  0
 24 43  1  0
 25 44  1  0
 27 45  1  0
 27 46  1  0
M  CHG  2  10  -1  20  -1
M  END
>  <UniqueID>  (46) 
44

>  <SMILES>  (46) 
CN1CCc2cc(O)c([N-]S(=O)(=O)c3ccc4c(c3)[N-]C(=O)CC4)cc2C1

>  <Energy>  (46) 
61.86730088036168

>  <Genealogy>  (46) 
CN1CCc2cc(O)c([N-]S(=O)(=O)c3ccc4c(c3)[N-]C(=O)CC4)cc2C1 (protonated)
CN1CCc2cc(O)c([N-]S(=O)(=O)c3ccc4c(c3)[N-]C(=O)CC4)cc2C1 (3D coordinates assigned)
CN1CCc2cc(O)c([N-]S(=O)(=O)c3ccc4c(c3)[N-]C(=O)CC4)cc2C1 (nonaromatic ring conformer: 61.86730088036168 kcal/mol)

>  <smiles>  (46) 
CN1CCc2cc(O)c(NS(=O)(=O)c3ccc4c(c3)NC(=O)CC4)cc2C1

>  <score_type>  (46) 
oracle

>  <origin>  (46) 
adgpu

>  <m_score__min__energy>  (46) 
-12.19

>  <m_primary>  (46) 
energy

$$$$
46:0
     RDKit          3D

 48 51  0  0  0  0  0  0  0  0999 V2000
   -1.4490   25.7560  -28.9680 O   0  0  0  0  0  0  0  0  0  0  0  0
   -2.1450   24.7230  -28.7700 C   0  0  0  0  0  0  0  0  0  0  0  0
   -1.8530   23.8420  -27.6770 N   0  0  0  0  0  0  0  0  0  0  0  0
   -1.2450   22.5460  -27.7640 C   0  0  0  0  0  0  0  0  0  0  0  0
    0.1440   22.3810  -27.9190 C   0  0  0  0  0  0  0  0  0  0  0  0
    0.6980   21.0990  -27.9790 C   0  0  0  0  0  0  0  0  0  0  0  0
   -0.1230   19.9670  -27.8780 C   0  0  0  0  0  0  0  0  0  0  0  0
    0.5760   18.3480  -27.9770 S   0  0  0  0  0  0  0  0  0  0  0  0
    1.9750   18.3780  -27.4270 O   0  0  0  0  0  0  0  0  0  0  0  0
   -0.2360   17.4050  -27.1330 O   0  0  0  0  0  0  0  0  0  0  0  0
    0.6190   17.7640  -29.6260 N   0  0  0  0  0  0  0  0  0  0  0  0
   -0.1010   18.6910  -30.5190 C   0  0  0  0  0  0  0  0  0  0  0  0
    0.3420   18.4920  -31.9770 C   0  0  0  0  0  0  0  0  0  0  0  0
    1.7300   18.7190  -32.1980 O   0  0  0  0  0  0  0  0  0  0  0  0
    2.5280   18.5670  -31.0320 C   0  0  0  0  0  0  0  0  0  0  0  0
    2.0020   17.4850  -30.0710 C   0  0  0  0  0  0  0  0  0  0  0  0
   -1.5010   20.1310  -27.6900 C   0  0  0  0  0  0  0  0  0  0  0  0
   -2.0560   21.4130  -27.6280 C   0  0  0  0  0  0  0  0  0  0  0  0
   -3.2330   24.3890  -29.6950 C   0  0  0  0  0  0  0  0  0  0  0  0
   -3.7670   23.1350  -29.9060 C   0  0  0  0  0  0  0  0  0  0  0  0
   -4.7470   23.3420  -30.8630 C   0  0  0  0  0  0  0  0  0  0  0  0
   -5.6420   22.3140  -31.4570 C   0  0  0  0  0  0  0  0  0  0  0  0
   -5.1380   21.0350  -31.7730 C   0  0  0  0  0  0  0  0  0  0  0  0
   -5.9700   20.0580  -32.3260 C   0  0  0  0  0  0  0  0  0  0  0  0
   -7.3130   20.3380  -32.5730 C   0  0  0  0  0  0  0  0  0  0  0  0
   -7.8300   21.5970  -32.2680 C   0  0  0  0  0  0  0  0  0  0  0  0
   -7.0070   22.5880  -31.7130 C   0  0  0  0  0  0  0  0  0  0  0  0
   -7.5460   23.8440  -31.4270 O   0  0  0  0  0  0  0  0  0  0  0  0
   -4.7770   24.6520  -31.1860 N   0  0  0  0  0  0  0  0  0  0  0  0
   -3.8570   25.2880  -30.4770 N   0  0  0  0  0  0  0  0  0  0  0  0
    0.7960   23.2639  -27.9932 H   0  0  0  0  0  0  0  0  0  0  0  0
    1.7839   20.9777  -28.1061 H   0  0  0  0  0  0  0  0  0  0  0  0
   -1.1818   18.5020  -30.4407 H   0  0  0  0  0  0  0  0  0  0  0  0
    0.1279   19.7236  -30.2169 H   0  0  0  0  0  0  0  0  0  0  0  0
    0.1099   17.4576  -32.2706 H   0  0  0  0  0  0  0  0  0  0  0  0
   -0.2012   19.2359  -32.5783 H   0  0  0  0  0  0  0  0  0  0  0  0
    3.5481   18.2943  -31.3402 H   0  0  0  0  0  0  0  0  0  0  0  0
    2.5005   19.5245  -30.4912 H   0  0  0  0  0  0  0  0  0  0  0  0
    2.0201   16.5133  -30.5861 H   0  0  0  0  0  0  0  0  0  0  0  0
    2.6497   17.4761  -29.1820 H   0  0  0  0  0  0  0  0  0  0  0  0
   -2.1493   19.2479  -27.5907 H   0  0  0  0  0  0  0  0  0  0  0  0
   -3.1382   21.5322  -27.4712 H   0  0  0  0  0  0  0  0  0  0  0  0
   -3.4806   22.1881  -29.4250 H   0  0  0  0  0  0  0  0  0  0  0  0
   -4.0795   20.8044  -31.5822 H   0  0  0  0  0  0  0  0  0  0  0  0
   -5.5638   19.0646  -32.5672 H   0  0  0  0  0  0  0  0  0  0  0  0
   -7.9649   19.5663  -33.0083 H   0  0  0  0  0  0  0  0  0  0  0  0
   -8.8904   21.8142  -32.4640 H   0  0  0  0  0  0  0  0  0  0  0  0
   -6.9570   24.6340  -31.1900 H   0  0  0  0  0  0  0  0  0  0  0  0
  1  2  2  0
  2  3  1  0
  3  4  1  0
  4  5  2  0
  5  6  1  0
  6  7  2  0
  7  8  1  0
  8  9  2  0
  8 10  2  0
  8 11  1  0
 11 12  1  0
 12 13  1  0
 13 14  1  0
 14 15  1  0
 15 16  1  0
  7 17  1  0
 17 18  2  0
  2 19  1  0
 19 20  1  0
 20 21  2  0
 21 22  1  0
 22 23  2  0
 23 24  1  0
 24 25  2  0
 25 26  1  0
 26 27  2  0
 27 28  1  0
 21 29  1  0
 29 30  1  0
 18  4  1  0
 30 19  2  0
 16 11  1  0
 27 22  1  0
  5 31  1  0
  6 32  1  0
 12 33  1  0
 12 34  1  0
 13 35  1  0
 13 36  1  0
 15 37  1  0
 15 38  1  0
 16 39  1  0
 16 40  1  0
 17 41  1  0
 18 42  1  0
 20 43  1  0
 23 44  1  0
 24 45  1  0
 25 46  1  0
 26 47  1  0
 28 48  1  0
M  CHG  2   3  -1  29  -1
M  END
>  <UniqueID>  (47) 
45

>  <SMILES>  (47) 
O=C([N-]c1ccc(S(=O)(=O)N2CCOCC2)cc1)c1cc(-c2ccccc2O)[n-]n1

>  <Energy>  (47) 
98.126071754888

>  <Genealogy>  (47) 
O=C([N-]c1ccc(S(=O)(=O)N2CCOCC2)cc1)c1cc(-c2ccccc2O)[n-]n1 (protonated)
O=C([N-]c1ccc(S(=O)(=O)N2CCOCC2)cc1)c1cc(-c2ccccc2O)[n-]n1 (3D coordinates assigned)
O=C([N-]c1ccc(S(=O)(=O)N2CCOCC2)cc1)c1cc(-c2ccccc2O)[n-]n1 (nonaromatic ring conformer: 98.126071754888 kcal/mol)

>  <smiles>  (47) 
O=C(Nc1ccc(S(=O)(=O)N2CCOCC2)cc1)c1cc(-c2ccccc2O)[nH]n1

>  <score_type>  (47) 
oracle

>  <origin>  (47) 
adgpu

>  <m_score__min__energy>  (47) 
-11.74

>  <m_primary>  (47) 
energy

$$$$
