0:0
     RDKit          3D

 43 45  0  0  0  0  0  0  0  0999 V2000
   -1.5510   16.2320  -33.4870 C   0  0  0  0  0  0  0  0  0  0  0  0
   -2.7520   17.1250  -33.5870 C   0  0  0  0  0  0  0  0  0  0  0  0
   -2.6050   18.5160  -33.4890 C   0  0  0  0  0  0  0  0  0  0  0  0
   -3.7160   19.3630  -33.6140 C   0  0  0  0  0  0  0  0  0  0  0  0
   -3.5250   20.8480  -33.4700 C   0  0  0  0  0  0  0  0  0  0  0  0
   -4.9860   18.8090  -33.8980 C   0  0  0  0  0  0  0  0  0  0  0  0
   -6.1110   19.6260  -34.0810 O   0  0  0  0  0  0  0  0  0  0  0  0
   -7.0130   19.9860  -33.0690 C   0  0  0  0  0  0  0  0  0  0  0  0
   -8.0830   19.1780  -32.8450 N   0  0  0  0  0  0  0  0  0  0  0  0
   -9.0060   19.4480  -31.8880 C   0  0  0  0  0  0  0  0  0  0  0  0
   -8.8800   20.5880  -31.0950 C   0  0  0  0  0  0  0  0  0  0  0  0
   -7.8020   21.4670  -31.3010 C   0  0  0  0  0  0  0  0  0  0  0  0
   -7.6420   22.6650  -30.5150 N   0  0  0  0  0  0  0  0  0  0  0  0
   -7.2270   23.9600  -31.0570 C   0  0  0  0  0  0  0  0  0  0  0  0
   -5.7920   24.2330  -30.7250 C   0  0  0  0  0  0  0  0  0  0  0  0
   -4.8610   23.3190  -30.2770 C   0  0  0  0  0  0  0  0  0  0  0  0
   -3.6860   24.0300  -30.1400 C   0  0  0  0  0  0  0  0  0  0  0  0
   -3.8800   25.2840  -30.4850 O   0  0  0  0  0  0  0  0  0  0  0  0
   -5.1330   25.4390  -30.8460 C   0  0  0  0  0  0  0  0  0  0  0  0
   -6.8630   21.1620  -32.3030 C   0  0  0  0  0  0  0  0  0  0  0  0
   -5.8410   22.0200  -32.5490 F   0  0  0  0  0  0  0  0  0  0  0  0
   -5.1380   17.4120  -33.9780 C   0  0  0  0  0  0  0  0  0  0  0  0
   -6.4830   16.8140  -34.2830 C   0  0  0  0  0  0  0  0  0  0  0  0
   -4.0170   16.5800  -33.8420 C   0  0  0  0  0  0  0  0  0  0  0  0
   -1.3129   16.0550  -32.4278 H   0  0  0  0  0  0  0  0  0  0  0  0
   -1.7656   15.2723  -33.9799 H   0  0  0  0  0  0  0  0  0  0  0  0
   -0.6938   16.7138  -33.9799 H   0  0  0  0  0  0  0  0  0  0  0  0
   -1.6086   18.9472  -33.3123 H   0  0  0  0  0  0  0  0  0  0  0  0
   -3.4911   21.1115  -32.4026 H   0  0  0  0  0  0  0  0  0  0  0  0
   -2.5813   21.1447  -33.9511 H   0  0  0  0  0  0  0  0  0  0  0  0
   -4.3629   21.3738  -33.9511 H   0  0  0  0  0  0  0  0  0  0  0  0
   -9.8558   18.7660  -31.7373 H   0  0  0  0  0  0  0  0  0  0  0  0
   -9.6217   20.7991  -30.3106 H   0  0  0  0  0  0  0  0  0  0  0  0
   -7.8080   22.6190  -29.4850 H   0  0  0  0  0  0  0  0  0  0  0  0
   -7.3501   23.9510  -32.1500 H   0  0  0  0  0  0  0  0  0  0  0  0
   -7.8512   24.7484  -30.6111 H   0  0  0  0  0  0  0  0  0  0  0  0
   -5.0211   22.2501  -30.0723 H   0  0  0  0  0  0  0  0  0  0  0  0
   -2.7299   23.6103  -29.7939 H   0  0  0  0  0  0  0  0  0  0  0  0
   -5.5853   26.3808  -31.1902 H   0  0  0  0  0  0  0  0  0  0  0  0
   -7.0033   16.5826  -33.3419 H   0  0  0  0  0  0  0  0  0  0  0  0
   -7.0798   17.5316  -34.8652 H   0  0  0  0  0  0  0  0  0  0  0  0
   -6.3501   15.8902  -34.8652 H   0  0  0  0  0  0  0  0  0  0  0  0
   -4.1322   15.4901  -33.9364 H   0  0  0  0  0  0  0  0  0  0  0  0
  1  2  1  0
  2  3  2  0
  3  4  1  0
  4  5  1  0
  4  6  2  0
  6  7  1  0
  7  8  1  0
  8  9  2  0
  9 10  1  0
 10 11  2  0
 11 12  1  0
 12 13  1  0
 13 14  1  0
 14 15  1  0
 15 16  1  0
 16 17  2  0
 17 18  1  0
 18 19  1  0
 12 20  2  0
 20 21  1  0
  6 22  1  0
 22 23  1  0
 22 24  2  0
 24  2  1  0
 20  8  1  0
 19 15  2  0
  1 25  1  0
  1 26  1  0
  1 27  1  0
  3 28  1  0
  5 29  1  0
  5 30  1  0
  5 31  1  0
 10 32  1  0
 11 33  1  0
 13 34  1  0
 14 35  1  0
 14 36  1  0
 16 37  1  0
 17 38  1  0
 19 39  1  0
 23 40  1  0
 23 41  1  0
 23 42  1  0
 24 43  1  0
M  END
>  <UniqueID>  (1) 
1

>  <SMILES>  (1) 
Cc1cc(C)c(Oc2nccc(NCc3ccoc3)c2F)c(C)c1

>  <Energy>  (1) 
79.20671848751421

>  <Genealogy>  (1) 
Cc1cc(C)c(Oc2nccc(NCc3ccoc3)c2F)c(C)c1 (3D coordinates assigned)
Cc1cc(C)c(Oc2nccc(NCc3ccoc3)c2F)c(C)c1 (optimized conformer: 79.20671848751421 kcal/mol)

>  <smiles>  (1) 
Cc1cc(C)c(Oc2nccc(NCc3ccoc3)c2F)c(C)c1

>  <score_type>  (1) 
oracle

>  <origin>  (1) 
adgpu

>  <m_score__min__energy>  (1) 
-8.0399999999999991

>  <m_primary>  (1) 
energy

$$$$
1:0
     RDKit          3D

 44 45  0  0  0  0  0  0  0  0999 V2000
   -7.2430   12.5860  -35.1430 C   0  0  0  0  0  0  0  0  0  0  0  0
   -5.8710   12.9230  -34.5660 C   0  0  0  0  0  0  0  0  0  0  0  0
   -5.7940   14.3790  -34.1900 C   0  0  0  0  0  0  0  0  0  0  0  0
   -6.9400   15.1860  -34.2460 C   0  0  0  0  0  0  0  0  0  0  0  0
   -6.8750   16.5300  -33.8690 C   0  0  0  0  0  0  0  0  0  0  0  0
   -5.6650   17.0900  -33.4210 C   0  0  0  0  0  0  0  0  0  0  0  0
   -5.5940   18.5190  -33.0220 C   0  0  0  0  0  0  0  0  0  0  0  0
   -4.5060   19.3180  -33.4120 C   0  0  0  0  0  0  0  0  0  0  0  0
   -4.4400   20.6630  -33.0350 C   0  0  0  0  0  0  0  0  0  0  0  0
   -5.4660   21.2410  -32.2690 C   0  0  0  0  0  0  0  0  0  0  0  0
   -5.3810   22.6670  -31.8700 C   0  0  0  0  0  0  0  0  0  0  0  0
   -5.7460   23.5600  -32.6850 O   0  0  0  0  0  0  0  0  0  0  0  0
   -4.9050   23.0470  -30.5680 N   0  0  0  0  0  0  0  0  0  0  0  0
   -4.5940   24.4400  -30.2340 C   0  0  1  0  0  0  0  0  0  0  0  0
   -5.8540   25.1810  -29.7780 C   0  0  0  0  0  0  0  0  0  0  0  0
   -3.5530   24.4890  -29.1520 C   0  0  0  0  0  0  0  0  0  0  0  0
   -3.7100   23.8130  -28.0990 O   0  0  0  0  0  0  0  0  0  0  0  0
   -2.3720   25.2780  -29.3330 N   0  0  0  0  0  0  0  0  0  0  0  0
   -1.3550   25.4210  -28.3030 C   0  0  0  0  0  0  0  0  0  0  0  0
   -6.5490   20.4400  -31.8690 C   0  0  0  0  0  0  0  0  0  0  0  0
   -6.6140   19.0950  -32.2450 C   0  0  0  0  0  0  0  0  0  0  0  0
   -4.5220   16.2730  -33.3560 C   0  0  0  0  0  0  0  0  0  0  0  0
   -4.5880   14.9290  -33.7320 C   0  0  0  0  0  0  0  0  0  0  0  0
   -7.9534   12.4115  -34.3215 H   0  0  0  0  0  0  0  0  0  0  0  0
   -7.5965   13.4240  -35.7617 H   0  0  0  0  0  0  0  0  0  0  0  0
   -7.1680   11.6796  -35.7617 H   0  0  0  0  0  0  0  0  0  0  0  0
   -5.6954   12.3091  -33.6703 H   0  0  0  0  0  0  0  0  0  0  0  0
   -5.1060   12.7140  -35.3283 H   0  0  0  0  0  0  0  0  0  0  0  0
   -7.8942   14.7589  -34.5882 H   0  0  0  0  0  0  0  0  0  0  0  0
   -7.7782   17.1556  -33.9231 H   0  0  0  0  0  0  0  0  0  0  0  0
   -3.6991   18.8817  -34.0192 H   0  0  0  0  0  0  0  0  0  0  0  0
   -3.5776   21.2735  -33.3408 H   0  0  0  0  0  0  0  0  0  0  0  0
   -4.8180   22.3150  -29.8270 H   0  0  0  0  0  0  0  0  0  0  0  0
   -4.2037   24.9349  -31.1355 H   0  0  0  0  0  0  0  0  0  0  0  0
   -5.8895   25.2019  -28.6788 H   0  0  0  0  0  0  0  0  0  0  0  0
   -5.8335   26.2109  -30.1638 H   0  0  0  0  0  0  0  0  0  0  0  0
   -6.7441   24.6625  -30.1638 H   0  0  0  0  0  0  0  0  0  0  0  0
   -1.8259   25.3548  -27.3111 H   0  0  0  0  0  0  0  0  0  0  0  0
   -0.6099   24.6188  -28.4095 H   0  0  0  0  0  0  0  0  0  0  0  0
   -0.8601   26.3976  -28.4095 H   0  0  0  0  0  0  0  0  0  0  0  0
   -7.3518   20.8745  -31.2553 H   0  0  0  0  0  0  0  0  0  0  0  0
   -7.4712   18.4819  -31.9299 H   0  0  0  0  0  0  0  0  0  0  0  0
   -3.5685   16.6955  -33.0063 H   0  0  0  0  0  0  0  0  0  0  0  0
   -3.6888   14.2986  -33.6684 H   0  0  0  0  0  0  0  0  0  0  0  0
  1  2  1  0
  2  3  1  0
  3  4  2  0
  4  5  1  0
  5  6  2  0
  6  7  1  0
  7  8  2  0
  8  9  1  0
  9 10  2  0
 10 11  1  0
 11 12  2  0
 11 13  1  0
 13 14  1  0
 14 15  1  0
 14 16  1  0
 16 17  2  0
 16 18  1  0
 18 19  1  0
 10 20  1  0
 20 21  2  0
  6 22  1  0
 22 23  2  0
 23  3  1  0
 21  7  1  0
  1 24  1  0
  1 25  1  0
  1 26  1  0
  2 27  1  0
  2 28  1  0
  4 29  1  0
  5 30  1  0
  8 31  1  0
  9 32  1  0
 13 33  1  0
 14 34  1  6
 15 35  1  0
 15 36  1  0
 15 37  1  0
 19 38  1  0
 19 39  1  0
 19 40  1  0
 20 41  1  0
 21 42  1  0
 22 43  1  0
 23 44  1  0
M  CHG  1  18  -1
M  END
>  <UniqueID>  (2) 
2

>  <SMILES>  (2) 
CCc1ccc(-c2ccc(C(=O)N[C@@H](C)C(=O)[N-]C)cc2)cc1

>  <Energy>  (2) 
41.09434072177079

>  <Genealogy>  (2) 
CCc1ccc(-c2ccc(C(=O)NC(C)C(=O)[N-]C)cc2)cc1 (protonated)
CCc1ccc(-c2ccc(C(=O)N[C@@H](C)C(=O)[N-]C)cc2)cc1 (chirality)
CCc1ccc(-c2ccc(C(=O)N[C@@H](C)C(=O)[N-]C)cc2)cc1 (3D coordinates assigned)
CCc1ccc(-c2ccc(C(=O)N[C@@H](C)C(=O)[N-]C)cc2)cc1 (optimized conformer: 41.09434072177079 kcal/mol)

>  <smiles>  (2) 
CCc1ccc(-c2ccc(C(=O)NC(C)C(=O)NC)cc2)cc1

>  <score_type>  (2) 
oracle

>  <origin>  (2) 
adgpu

>  <m_score__min__energy>  (2) 
-8.4299999999999997

>  <m_primary>  (2) 
energy

$$$$
2:0
     RDKit          3D

 57 60  0  0  0  0  0  0  0  0999 V2000
   -4.3773   17.0313  -35.3994 H   0  0  0  0  0  0  0  0  0  0  0  0
   -5.1910   17.3060  -34.7120 C   0  0  0  0  0  0  0  0  0  0  0  0
   -5.8180   16.3220  -33.9470 C   0  0  0  0  0  0  0  0  0  0  0  0
   -5.5030   15.2720  -34.0379 H   0  0  0  0  0  0  0  0  0  0  0  0
   -6.8450   16.6680  -33.0660 C   0  0  0  0  0  0  0  0  0  0  0  0
   -7.3320   15.8897  -32.4602 H   0  0  0  0  0  0  0  0  0  0  0  0
   -7.2590   18.0060  -32.9500 C   0  0  0  0  0  0  0  0  0  0  0  0
   -8.3640   18.3740  -32.0000 C   0  0  0  0  0  0  0  0  0  0  0  0
   -8.0116   18.2567  -30.9646 H   0  0  0  0  0  0  0  0  0  0  0  0
   -8.6608   19.4195  -32.1701 H   0  0  0  0  0  0  0  0  0  0  0  0
   -9.2283   17.7152  -32.1701 H   0  0  0  0  0  0  0  0  0  0  0  0
   -6.6410   18.9980  -33.7370 C   0  0  0  0  0  0  0  0  0  0  0  0
   -7.0550   20.3330  -33.6030 O   0  0  0  0  0  0  0  0  0  0  0  0
   -6.6810   21.1920  -32.5620 C   0  0  0  0  0  0  0  0  0  0  0  0
   -5.3990   21.2320  -32.1090 N   0  0  0  0  0  0  0  0  0  0  0  0
   -5.0220   22.0720  -31.1090 C   0  0  0  0  0  0  0  0  0  0  0  0
   -3.7770   22.0630  -30.7250 N   0  0  0  0  0  0  0  0  0  0  0  0
   -3.2050   22.7960  -29.6320 C   0  0  0  0  0  0  0  0  0  0  0  0
   -2.4730   22.1360  -28.6340 C   0  0  0  0  0  0  0  0  0  0  0  0
   -2.3700   21.0413  -28.6658 H   0  0  0  0  0  0  0  0  0  0  0  0
   -1.8750   22.8580  -27.6020 C   0  0  0  0  0  0  0  0  0  0  0  0
   -1.3185   22.3264  -26.8161 H   0  0  0  0  0  0  0  0  0  0  0  0
   -1.9770   24.2590  -27.5570 C   0  0  0  0  0  0  0  0  0  0  0  0
   -1.3600   25.0040  -26.4840 N   0  0  0  0  0  0  0  0  0  0  0  0
    0.0260   24.7250  -26.0870 C   0  0  0  0  0  0  0  0  0  0  0  0
    0.2257   23.6487  -26.1955 H   0  0  0  0  0  0  0  0  0  0  0  0
    0.7073   25.2995  -26.7318 H   0  0  0  0  0  0  0  0  0  0  0  0
    0.2500   25.1370  -24.6290 C   0  0  0  0  0  0  0  0  0  0  0  0
   -0.4086   24.5362  -23.9845 H   0  0  0  0  0  0  0  0  0  0  0  0
    1.3086   24.9646  -24.3849 H   0  0  0  0  0  0  0  0  0  0  0  0
   -0.0440   26.5720  -24.4090 N   0  0  0  0  0  0  0  0  0  0  0  0
   -0.2330   26.8380  -22.9740 C   0  0  0  0  0  0  0  0  0  0  0  0
    0.3056   26.0799  -22.3865 H   0  0  0  0  0  0  0  0  0  0  0  0
    0.1592   27.8367  -22.7314 H   0  0  0  0  0  0  0  0  0  0  0  0
   -1.3051   26.7962  -22.7314 H   0  0  0  0  0  0  0  0  0  0  0  0
   -1.1770   27.1050  -25.2100 C   0  0  0  0  0  0  0  0  0  0  0  0
   -1.7573   27.7931  -24.5778 H   0  0  0  0  0  0  0  0  0  0  0  0
   -0.7449   27.6092  -26.0870 H   0  0  0  0  0  0  0  0  0  0  0  0
   -2.1210   26.0140  -25.7350 C   0  0  0  0  0  0  0  0  0  0  0  0
   -2.6275   25.5319  -24.8859 H   0  0  0  0  0  0  0  0  0  0  0  0
   -2.8645   26.4728  -26.4034 H   0  0  0  0  0  0  0  0  0  0  0  0
   -2.6850   24.9200  -28.5770 C   0  0  0  0  0  0  0  0  0  0  0  0
   -2.7657   26.0169  -28.5581 H   0  0  0  0  0  0  0  0  0  0  0  0
   -3.2920   24.1970  -29.6220 C   0  0  0  0  0  0  0  0  0  0  0  0
   -3.9960   24.8310  -30.6580 O   0  0  0  0  0  0  0  0  0  0  0  0
   -5.1190   25.6860  -30.4660 C   0  0  0  0  0  0  0  0  0  0  0  0
   -5.2968   25.8214  -29.3889 H   0  0  0  0  0  0  0  0  0  0  0  0
   -4.9196   26.6630  -30.9304 H   0  0  0  0  0  0  0  0  0  0  0  0
   -6.0078   25.2338  -30.9304 H   0  0  0  0  0  0  0  0  0  0  0  0
   -5.9460   22.9230  -30.5620 N   0  0  0  0  0  0  0  0  0  0  0  0
   -5.6850   23.6200  -29.8330 H   0  0  0  0  0  0  0  0  0  0  0  0
   -7.2350   22.9180  -30.9960 C   0  0  0  0  0  0  0  0  0  0  0  0
   -7.9676   23.6034  -30.5448 H   0  0  0  0  0  0  0  0  0  0  0  0
   -7.6310   22.0490  -32.0090 C   0  0  0  0  0  0  0  0  0  0  0  0
   -8.6716   22.0389  -32.3654 H   0  0  0  0  0  0  0  0  0  0  0  0
   -5.5940   18.6380  -34.6070 C   0  0  0  0  0  0  0  0  0  0  0  0
   -5.0911   19.4107  -35.2070 H   0  0  0  0  0  0  0  0  0  0  0  0
  1  2  1  0
  2  3  2  0
  3  4  1  0
  3  5  1  0
  5  6  1  0
  5  7  2  0
  7  8  1  0
  8  9  1  0
  8 10  1  0
  8 11  1  0
  7 12  1  0
 12 13  1  0
 13 14  1  0
 14 15  2  0
 15 16  1  0
 16 17  2  0
 17 18  1  0
 18 19  2  0
 19 20  1  0
 19 21  1  0
 21 22  1  0
 21 23  2  0
 23 24  1  0
 24 25  1  0
 25 26  1  0
 25 27  1  0
 25 28  1  0
 28 29  1  0
 28 30  1  0
 28 31  1  0
 31 32  1  0
 32 33  1  0
 32 34  1  0
 32 35  1  0
 31 36  1  0
 36 37  1  0
 36 38  1  0
 36 39  1  0
 39 40  1  0
 39 41  1  0
 23 42  1  0
 42 43  1  0
 42 44  2  0
 44 45  1  0
 45 46  1  0
 46 47  1  0
 46 48  1  0
 46 49  1  0
 16 50  1  0
 50 51  1  0
 50 52  1  0
 52 53  1  0
 52 54  2  0
 54 55  1  0
 12 56  2  0
 56 57  1  0
 56  2  1  0
 54 14  1  0
 44 18  1  0
 39 24  1  0
M  END
>  <UniqueID>  (3) 
3

>  <SMILES>  (3) 
COc1cc(N2CCN(C)CC2)ccc1/N=c1/nc(Oc2ccccc2C)cc[nH]1

>  <Energy>  (3) 
82.89780937816363

>  <Genealogy>  (3) 
COc1cc(N2CCN(C)CC2)ccc1/N=c1/nc(Oc2ccccc2C)cc[nH]1 (cis-trans isomerization)
COc1cc(N2CCN(C)CC2)ccc1/N=c1/nc(Oc2ccccc2C)cc[nH]1 (3D coordinates assigned)
COc1cc(N2CCN(C)CC2)ccc1/N=c1/nc(Oc2ccccc2C)cc[nH]1 (nonaromatic ring conformer: 82.89780937816363 kcal/mol)

>  <smiles>  (3) 
COc1cc(N2CCN(C)CC2)ccc1N=c1nc(Oc2ccccc2C)cc[nH]1

>  <score_type>  (3) 
oracle

>  <origin>  (3) 
adgpu

>  <m_score__min__energy>  (3) 
-9.0500000000000007

>  <m_primary>  (3) 
energy

$$$$
3:0
     RDKit          3D

 45 47  0  0  0  0  0  0  0  0999 V2000
   -6.8120   17.5900  -32.1970 C   0  0  0  0  0  0  0  0  0  0  0  0
   -6.9810   18.7850  -32.9520 O   0  0  0  0  0  0  0  0  0  0  0  0
   -7.4790   19.9880  -32.4300 C   0  0  0  0  0  0  0  0  0  0  0  0
   -8.5850   19.9320  -31.5730 C   0  0  0  0  0  0  0  0  0  0  0  0
   -9.1130   21.1010  -31.0200 C   0  0  0  0  0  0  0  0  0  0  0  0
   -8.5430   22.3390  -31.3210 C   0  0  0  0  0  0  0  0  0  0  0  0
   -7.4430   22.4190  -32.1890 C   0  0  0  0  0  0  0  0  0  0  0  0
   -6.8060   23.7490  -32.4830 C   0  0  0  0  0  0  0  0  0  0  0  0
   -5.6500   23.9800  -31.5590 C   0  0  0  0  0  0  0  0  0  0  0  0
   -5.3990   25.1520  -31.1690 O   0  0  0  0  0  0  0  0  0  0  0  0
   -4.8990   22.8640  -31.0550 N   0  0  0  0  0  0  0  0  0  0  0  0
   -3.7000   22.9850  -30.2710 C   0  0  0  0  0  0  0  0  0  0  0  0
   -2.4990   22.3670  -30.6630 C   0  0  0  0  0  0  0  0  0  0  0  0
   -1.3520   22.4870  -29.8730 C   0  0  0  0  0  0  0  0  0  0  0  0
   -1.3940   23.2080  -28.6730 C   0  0  0  0  0  0  0  0  0  0  0  0
    0.0650   23.3700  -27.6990 S   0  0  0  0  0  0  0  0  0  0  0  0
    0.8630   24.5690  -28.1330 O   0  0  0  0  0  0  0  0  0  0  0  0
   -0.3250   23.5520  -26.2590 O   0  0  0  0  0  0  0  0  0  0  0  0
    1.0350   21.9400  -27.8510 N   0  0  0  0  0  0  0  0  0  0  0  0
    0.5600   20.7340  -27.7780 C   0  0  0  0  0  0  0  0  0  0  0  0
   -0.7690   20.5150  -27.5710 N   0  0  0  0  0  0  0  0  0  0  0  0
   -1.2670   19.2550  -27.4890 C   0  0  0  0  0  0  0  0  0  0  0  0
   -0.4130   18.1610  -27.6180 C   0  0  0  0  0  0  0  0  0  0  0  0
    0.9440   18.4000  -27.8300 C   0  0  0  0  0  0  0  0  0  0  0  0
    1.4040   19.6760  -27.9060 N   0  0  0  0  0  0  0  0  0  0  0  0
   -2.5930   23.8090  -28.2680 C   0  0  0  0  0  0  0  0  0  0  0  0
   -3.7400   23.6910  -29.0580 C   0  0  0  0  0  0  0  0  0  0  0  0
   -6.9080   21.2390  -32.7350 C   0  0  0  0  0  0  0  0  0  0  0  0
   -6.8455   17.8268  -31.1233 H   0  0  0  0  0  0  0  0  0  0  0  0
   -7.6193   16.8841  -32.4421 H   0  0  0  0  0  0  0  0  0  0  0  0
   -5.8407   17.1357  -32.4421 H   0  0  0  0  0  0  0  0  0  0  0  0
   -9.0414   18.9602  -31.3335 H   0  0  0  0  0  0  0  0  0  0  0  0
   -9.9802   21.0458  -30.3456 H   0  0  0  0  0  0  0  0  0  0  0  0
   -8.9576   23.2556  -30.8761 H   0  0  0  0  0  0  0  0  0  0  0  0
   -6.4484   23.7594  -33.5232 H   0  0  0  0  0  0  0  0  0  0  0  0
   -7.5501   24.5456  -32.3358 H   0  0  0  0  0  0  0  0  0  0  0  0
   -5.3020   21.9090  -31.1860 H   0  0  0  0  0  0  0  0  0  0  0  0
   -2.4620   21.7860  -31.5963 H   0  0  0  0  0  0  0  0  0  0  0  0
   -0.4129   22.0134  -30.1950 H   0  0  0  0  0  0  0  0  0  0  0  0
   -2.3426   19.0975  -27.3210 H   0  0  0  0  0  0  0  0  0  0  0  0
   -0.8005   17.1335  -27.5541 H   0  0  0  0  0  0  0  0  0  0  0  0
    1.6417   17.5561  -27.9356 H   0  0  0  0  0  0  0  0  0  0  0  0
   -2.6318   24.3753  -27.3257 H   0  0  0  0  0  0  0  0  0  0  0  0
   -4.6810   24.1547  -28.7270 H   0  0  0  0  0  0  0  0  0  0  0  0
   -6.0374   21.2931  -33.4051 H   0  0  0  0  0  0  0  0  0  0  0  0
  1  2  1  0
  2  3  1  0
  3  4  2  0
  4  5  1  0
  5  6  2  0
  6  7  1  0
  7  8  1  0
  8  9  1  0
  9 10  2  0
  9 11  1  0
 11 12  1  0
 12 13  2  0
 13 14  1  0
 14 15  2  0
 15 16  1  0
 16 17  2  0
 16 18  2  0
 16 19  1  0
 19 20  2  3
 20 21  1  0
 21 22  2  0
 22 23  1  0
 23 24  2  0
 24 25  1  0
 15 26  1  0
 26 27  2  0
  7 28  2  0
 28  3  1  0
 27 12  1  0
 25 20  1  0
  1 29  1  0
  1 30  1  0
  1 31  1  0
  4 32  1  0
  5 33  1  0
  6 34  1  0
  8 35  1  0
  8 36  1  0
 11 37  1  0
 13 38  1  0
 14 39  1  0
 22 40  1  0
 23 41  1  0
 24 42  1  0
 26 43  1  0
 27 44  1  0
 28 45  1  0
M  CHG  1  25  -1
M  END
>  <UniqueID>  (4) 
4

>  <SMILES>  (4) 
COc1cccc(CC(=O)Nc2ccc(S(=O)(=O)N=c3nccc[n-]3)cc2)c1

>  <Energy>  (4) 
51.95094804424724

>  <Genealogy>  (4) 
COc1cccc(CC(=O)Nc2ccc(S(=O)(=O)N=c3nccc[n-]3)cc2)c1 (protonated)
COc1cccc(CC(=O)Nc2ccc(S(=O)(=O)N=c3nccc[n-]3)cc2)c1 (3D coordinates assigned)
COc1cccc(CC(=O)Nc2ccc(S(=O)(=O)N=c3nccc[n-]3)cc2)c1 (optimized conformer: 51.95094804424724 kcal/mol)

>  <smiles>  (4) 
COc1cccc(CC(=O)Nc2ccc(S(=O)(=O)N=c3nccc[nH]3)cc2)c1

>  <score_type>  (4) 
oracle

>  <origin>  (4) 
adgpu

>  <m_score__min__energy>  (4) 
-9.5199999999999996

>  <m_primary>  (4) 
energy

$$$$
4:0
     RDKit          3D

 46 48  0  0  0  0  0  0  0  0999 V2000
    3.6540   21.5350  -37.4290 N   0  0  0  0  0  0  0  0  0  0  0  0
    3.0250   20.0450  -36.8200 S   0  0  0  0  0  0  0  0  0  0  0  0
    2.7600   19.1100  -37.9660 O   0  0  0  0  0  0  0  0  0  0  0  0
    4.0340   19.4110  -35.9030 O   0  0  0  0  0  0  0  0  0  0  0  0
    1.5310   20.3530  -35.9400 C   0  0  0  0  0  0  0  0  0  0  0  0
    0.7490   19.2870  -35.4780 C   0  0  0  0  0  0  0  0  0  0  0  0
   -0.4410   19.5340  -34.7890 C   0  0  0  0  0  0  0  0  0  0  0  0
   -0.8750   20.8510  -34.5670 C   0  0  0  0  0  0  0  0  0  0  0  0
   -2.0910   21.0800  -33.8340 N   0  0  0  0  0  0  0  0  0  0  0  0
   -2.3360   20.5930  -32.5060 C   0  0  0  0  0  0  0  0  0  0  0  0
   -1.1510   20.6880  -31.3730 S   0  0  0  0  0  0  0  0  0  0  0  0
   -3.6740   20.3010  -32.0780 N   0  0  0  0  0  0  0  0  0  0  0  0
   -4.7160   19.8730  -32.9730 C   0  0  0  0  0  0  0  0  0  0  0  0
   -4.4530   19.6400  -34.1850 O   0  0  0  0  0  0  0  0  0  0  0  0
   -6.0980   19.6710  -32.4810 C   0  0  0  0  0  0  0  0  0  0  0  0
   -6.5210   18.3810  -32.1110 C   0  0  0  0  0  0  0  0  0  0  0  0
   -7.8310   18.1580  -31.6820 C   0  0  0  0  0  0  0  0  0  0  0  0
   -8.7350   19.2160  -31.6140 C   0  0  0  0  0  0  0  0  0  0  0  0
   -8.3340   20.5020  -31.9770 C   0  0  0  0  0  0  0  0  0  0  0  0
   -7.0230   20.7430  -32.4240 C   0  0  0  0  0  0  0  0  0  0  0  0
   -6.6070   22.0880  -32.7250 N   0  0  0  0  0  0  0  0  0  0  0  0
   -6.1680   23.0350  -31.7350 C   0  0  0  0  0  0  0  0  0  0  0  0
   -4.8090   23.1550  -31.3860 C   0  0  0  0  0  0  0  0  0  0  0  0
   -4.4120   24.0680  -30.4040 C   0  0  0  0  0  0  0  0  0  0  0  0
   -5.3630   24.8580  -29.7550 C   0  0  0  0  0  0  0  0  0  0  0  0
   -6.7160   24.7320  -30.0810 C   0  0  0  0  0  0  0  0  0  0  0  0
   -7.1180   23.8200  -31.0620 C   0  0  0  0  0  0  0  0  0  0  0  0
   -0.0790   21.9180  -35.0210 C   0  0  0  0  0  0  0  0  0  0  0  0
    1.1100   21.6690  -35.7100 C   0  0  0  0  0  0  0  0  0  0  0  0
    2.8380   22.1670  -37.5890 H   0  0  0  0  0  0  0  0  0  0  0  0
    1.0729   18.2514  -35.6583 H   0  0  0  0  0  0  0  0  0  0  0  0
   -1.0422   18.6910  -34.4178 H   0  0  0  0  0  0  0  0  0  0  0  0
   -2.8300   21.6720  -34.2770 H   0  0  0  0  0  0  0  0  0  0  0  0
   -3.8890   20.3820  -31.0590 H   0  0  0  0  0  0  0  0  0  0  0  0
   -5.8132   17.5404  -32.1602 H   0  0  0  0  0  0  0  0  0  0  0  0
   -8.1500   17.1446  -31.3970 H   0  0  0  0  0  0  0  0  0  0  0  0
   -9.7657   19.0372  -31.2738 H   0  0  0  0  0  0  0  0  0  0  0  0
   -9.0499   21.3347  -31.9129 H   0  0  0  0  0  0  0  0  0  0  0  0
   -6.5990   22.3840  -33.7280 H   0  0  0  0  0  0  0  0  0  0  0  0
   -4.0570   22.5283  -31.8877 H   0  0  0  0  0  0  0  0  0  0  0  0
   -3.3479   24.1641  -30.1422 H   0  0  0  0  0  0  0  0  0  0  0  0
   -5.0471   25.5795  -28.9871 H   0  0  0  0  0  0  0  0  0  0  0  0
   -7.4654   25.3507  -29.5656 H   0  0  0  0  0  0  0  0  0  0  0  0
   -8.1852   23.7169  -31.3080 H   0  0  0  0  0  0  0  0  0  0  0  0
   -0.3948   22.9547  -34.8323 H   0  0  0  0  0  0  0  0  0  0  0  0
    1.7186   22.5101  -36.0737 H   0  0  0  0  0  0  0  0  0  0  0  0
  1  2  1  0
  2  3  2  0
  2  4  2  0
  2  5  1  0
  5  6  2  0
  6  7  1  0
  7  8  2  0
  8  9  1  0
  9 10  1  0
 10 11  2  0
 10 12  1  0
 12 13  1  0
 13 14  2  0
 13 15  1  0
 15 16  2  0
 16 17  1  0
 17 18  2  0
 18 19  1  0
 19 20  2  0
 20 21  1  0
 21 22  1  0
 22 23  2  0
 23 24  1  0
 24 25  2  0
 25 26  1  0
 26 27  2  0
  8 28  1  0
 28 29  2  0
 29  5  1  0
 20 15  1  0
 27 22  1  0
  1 30  1  0
  6 31  1  0
  7 32  1  0
  9 33  1  0
 12 34  1  0
 16 35  1  0
 17 36  1  0
 18 37  1  0
 19 38  1  0
 21 39  1  0
 23 40  1  0
 24 41  1  0
 25 42  1  0
 26 43  1  0
 27 44  1  0
 28 45  1  0
 29 46  1  0
M  CHG  1   1  -1
M  END
>  <UniqueID>  (5) 
5

>  <SMILES>  (5) 
[NH-]S(=O)(=O)c1ccc(NC(=S)NC(=O)c2ccccc2Nc2ccccc2)cc1

>  <Energy>  (5) 
64.85900297517992

>  <Genealogy>  (5) 
[NH-]S(=O)(=O)c1ccc(NC(=S)NC(=O)c2ccccc2Nc2ccccc2)cc1 (protonated)
[NH-]S(=O)(=O)c1ccc(NC(=S)NC(=O)c2ccccc2Nc2ccccc2)cc1 (3D coordinates assigned)
[NH-]S(=O)(=O)c1ccc(NC(=S)NC(=O)c2ccccc2Nc2ccccc2)cc1 (optimized conformer: 64.85900297517992 kcal/mol)

>  <smiles>  (5) 
NS(=O)(=O)c1ccc(NC(=S)NC(=O)c2ccccc2Nc2ccccc2)cc1

>  <score_type>  (5) 
oracle

>  <origin>  (5) 
adgpu

>  <m_score__min__energy>  (5) 
-10.59

>  <m_primary>  (5) 
energy

$$$$
5:0
     RDKit          3D

 69 75  0  0  0  0  0  0  0  0999 V2000
    2.0590   14.2590  -37.8760 C   0  0  0  0  0  0  0  0  0  0  0  0
    0.8430   14.7570  -38.5530 N   0  0  0  0  0  0  0  0  0  0  0  0
    0.2890   15.8650  -37.7500 C   0  0  0  0  0  0  0  0  0  0  0  0
   -0.1180   13.6330  -38.7720 C   0  0  1  0  0  0  0  0  0  0  0  0
    0.1160   12.3980  -37.8740 C   0  0  0  0  0  0  0  0  0  0  0  0
   -0.6890   12.6500  -36.6140 C   0  0  0  0  0  0  0  0  0  0  0  0
   -1.7470   13.5620  -37.0170 N   0  0  0  0  0  0  0  0  0  0  0  0
   -2.8500   13.9460  -36.1660 C   0  0  0  0  0  0  0  0  0  0  0  0
   -3.8040   12.9810  -35.7320 C   0  0  0  0  0  0  0  0  0  0  0  0
   -4.8910   13.3520  -34.9200 C   0  0  0  0  0  0  0  0  0  0  0  0
   -5.0000   14.6890  -34.5540 C   0  0  0  0  0  0  0  0  0  0  0  0
   -5.9580   15.2620  -33.8120 N   0  0  0  0  0  0  0  0  0  0  0  0
   -5.5750   16.5670  -33.7920 C   0  0  0  0  0  0  0  0  0  0  0  0
   -6.3340   17.6240  -33.1070 C   0  0  0  0  0  0  0  0  0  0  0  0
   -7.6250   17.4840  -32.7220 N   0  0  0  0  0  0  0  0  0  0  0  0
   -8.0180   18.5920  -32.1010 N   0  0  0  0  0  0  0  0  0  0  0  0
   -6.9730   19.4360  -32.0920 C   0  0  0  0  0  0  0  0  0  0  0  0
   -6.9170   20.7070  -31.5260 C   0  0  0  0  0  0  0  0  0  0  0  0
   -5.6970   21.4210  -31.6060 C   0  0  0  0  0  0  0  0  0  0  0  0
   -5.5770   22.7680  -30.9920 C   0  0  0  0  0  0  0  0  0  0  0  0
   -6.2160   23.8780  -31.5720 C   0  0  0  0  0  0  0  0  0  0  0  0
   -6.1070   25.1420  -30.9890 C   0  0  0  0  0  0  0  0  0  0  0  0
   -5.3700   25.3130  -29.8160 C   0  0  0  0  0  0  0  0  0  0  0  0
   -4.7390   24.2130  -29.2090 C   0  0  0  0  0  0  0  0  0  0  0  0
   -3.9610   24.3660  -28.0080 N   0  0  0  0  0  0  0  0  0  0  0  0
   -2.5740   24.7380  -27.9970 C   0  0  0  0  0  0  0  0  0  0  0  0
   -2.0680   25.2990  -29.0080 O   0  0  0  0  0  0  0  0  0  0  0  0
   -1.7460   24.5340  -26.7860 C   0  0  0  0  0  0  0  0  0  0  0  0
   -1.6000   25.5660  -25.8430 C   0  0  0  0  0  0  0  0  0  0  0  0
   -0.8230   25.3570  -24.7010 C   0  0  0  0  0  0  0  0  0  0  0  0
   -0.2020   24.1630  -24.5080 N   0  0  0  0  0  0  0  0  0  0  0  0
   -0.3140   23.1480  -25.4070 C   0  0  0  0  0  0  0  0  0  0  0  0
   -1.0840   23.3140  -26.5600 C   0  0  0  0  0  0  0  0  0  0  0  0
   -4.8320   22.9500  -29.8120 C   0  0  0  0  0  0  0  0  0  0  0  0
   -4.5840   20.8280  -32.2640 C   0  0  0  0  0  0  0  0  0  0  0  0
   -4.6780   19.5400  -32.8220 C   0  0  0  0  0  0  0  0  0  0  0  0
   -5.8950   18.8720  -32.7130 C   0  0  0  0  0  0  0  0  0  0  0  0
   -4.4320   16.8270  -34.4820 N   0  0  0  0  0  0  0  0  0  0  0  0
   -4.0940   15.6190  -34.9520 C   0  0  0  0  0  0  0  0  0  0  0  0
   -3.0040   15.2950  -35.7550 C   0  0  0  0  0  0  0  0  0  0  0  0
   -1.5340   14.0790  -38.3620 C   0  0  0  0  0  0  0  0  0  0  0  0
    1.9211   14.3155  -36.7861 H   0  0  0  0  0  0  0  0  0  0  0  0
    2.2400   13.2143  -38.1690 H   0  0  0  0  0  0  0  0  0  0  0  0
    2.9208   14.8766  -38.1690 H   0  0  0  0  0  0  0  0  0  0  0  0
    0.4037   15.6356  -36.6803 H   0  0  0  0  0  0  0  0  0  0  0  0
    0.8286   16.7941  -37.9857 H   0  0  0  0  0  0  0  0  0  0  0  0
   -0.7781   15.9908  -37.9857 H   0  0  0  0  0  0  0  0  0  0  0  0
    0.0155   13.3747  -39.8329 H   0  0  0  0  0  0  0  0  0  0  0  0
   -0.2351   11.4853  -38.3776 H   0  0  0  0  0  0  0  0  0  0  0  0
    1.1836   12.2531  -37.6521 H   0  0  0  0  0  0  0  0  0  0  0  0
   -1.1140   11.7098  -36.2327 H   0  0  0  0  0  0  0  0  0  0  0  0
   -0.0703   13.0676  -35.8061 H   0  0  0  0  0  0  0  0  0  0  0  0
   -3.6888   11.9303  -36.0364 H   0  0  0  0  0  0  0  0  0  0  0  0
   -5.6302   12.6092  -34.5857 H   0  0  0  0  0  0  0  0  0  0  0  0
   -7.7963   21.1443  -31.0304 H   0  0  0  0  0  0  0  0  0  0  0  0
   -6.8059   23.7497  -32.4915 H   0  0  0  0  0  0  0  0  0  0  0  0
   -6.6034   26.0057  -31.4555 H   0  0  0  0  0  0  0  0  0  0  0  0
   -5.2826   26.3124  -29.3647 H   0  0  0  0  0  0  0  0  0  0  0  0
   -4.4640   24.3150  -27.0930 H   0  0  0  0  0  0  0  0  0  0  0  0
   -2.0958   26.5347  -26.0036 H   0  0  0  0  0  0  0  0  0  0  0  0
   -0.7134   26.1596  -23.9568 H   0  0  0  0  0  0  0  0  0  0  0  0
    0.2032   22.1944  -25.2252 H   0  0  0  0  0  0  0  0  0  0  0  0
   -1.1724   22.4943  -27.2882 H   0  0  0  0  0  0  0  0  0  0  0  0
   -4.3164   22.0914  -29.3571 H   0  0  0  0  0  0  0  0  0  0  0  0
   -3.6375   21.3837  -32.3375 H   0  0  0  0  0  0  0  0  0  0  0  0
   -3.8185   19.0759  -33.3277 H   0  0  0  0  0  0  0  0  0  0  0  0
   -2.2811   16.0648  -36.0628 H   0  0  0  0  0  0  0  0  0  0  0  0
   -2.2808   13.6623  -39.0538 H   0  0  0  0  0  0  0  0  0  0  0  0
   -1.6349   15.1739  -38.3922 H   0  0  0  0  0  0  0  0  0  0  0  0
  1  2  1  0
  2  3  1  0
  2  4  1  0
  4  5  1  0
  5  6  1  0
  6  7  1  0
  7  8  1  0
  8  9  2  0
  9 10  1  0
 10 11  2  0
 11 12  1  0
 12 13  1  0
 13 14  1  0
 14 15  1  0
 15 16  1  0
 16 17  2  0
 17 18  1  0
 18 19  2  0
 19 20  1  0
 20 21  2  0
 21 22  1  0
 22 23  2  0
 23 24  1  0
 24 25  1  0
 25 26  1  0
 26 27  2  0
 26 28  1  0
 28 29  2  0
 29 30  1  0
 30 31  2  0
 31 32  1  0
 32 33  2  0
 24 34  2  0
 19 35  1  0
 35 36  2  0
 36 37  1  0
 13 38  2  0
 38 39  1  0
 39 40  2  0
  7 41  1  0
 41  4  1  0
 40  8  1  0
 39 11  1  0
 37 14  2  0
 37 17  1  0
 34 20  1  0
 33 28  1  0
  1 42  1  0
  1 43  1  0
  1 44  1  0
  3 45  1  0
  3 46  1  0
  3 47  1  0
  4 48  1  6
  5 49  1  0
  5 50  1  0
  6 51  1  0
  6 52  1  0
  9 53  1  0
 10 54  1  0
 18 55  1  0
 21 56  1  0
 22 57  1  0
 23 58  1  0
 25 59  1  0
 29 60  1  0
 30 61  1  0
 32 62  1  0
 33 63  1  0
 34 64  1  0
 35 65  1  0
 36 66  1  0
 40 67  1  0
 41 68  1  0
 41 69  1  0
M  CHG  2  12  -1  15  -1
M  END
>  <UniqueID>  (6) 
6

>  <SMILES>  (6) 
CN(C)[C@H]1CCN(c2ccc3[n-]c(-c4[n-]nc5cc(-c6cccc(NC(=O)c7ccncc7)c6)ccc45)nc3c2)C1

>  <Energy>  (6) 
173.69672319373385

>  <Genealogy>  (6) 
CN(C)C1CCN(c2ccc3[n-]c(-c4[n-]nc5cc(-c6cccc(NC(=O)c7ccncc7)c6)ccc45)nc3c2)C1 (protonated)
CN(C)[C@H]1CCN(c2ccc3[n-]c(-c4[n-]nc5cc(-c6cccc(NC(=O)c7ccncc7)c6)ccc45)nc3c2)C1 (chirality)
CN(C)[C@H]1CCN(c2ccc3[n-]c(-c4[n-]nc5cc(-c6cccc(NC(=O)c7ccncc7)c6)ccc45)nc3c2)C1 (3D coordinates assigned)
CN(C)[C@H]1CCN(c2ccc3[n-]c(-c4[n-]nc5cc(-c6cccc(NC(=O)c7ccncc7)c6)ccc45)nc3c2)C1 (nonaromatic ring conformer: 173.69672319373385 kcal/mol)

>  <smiles>  (6) 
CN(C)C1CCN(c2ccc3[nH]c(-c4[nH]nc5cc(-c6cccc(NC(=O)c7ccncc7)c6)ccc45)nc3c2)C1

>  <score_type>  (6) 
oracle

>  <origin>  (6) 
adgpu

>  <m_score__min__energy>  (6) 
-11.83

>  <m_primary>  (6) 
energy

$$$$
6:0
     RDKit          3D

 42 44  0  0  0  0  0  0  0  0999 V2000
   -9.1830   20.4440  -32.0760 C   0  0  0  0  0  0  0  0  0  0  0  0
   -7.9160   20.6220  -32.7010 O   0  0  0  0  0  0  0  0  0  0  0  0
   -6.9320   21.5150  -32.2540 C   0  0  0  0  0  0  0  0  0  0  0  0
   -7.3410   22.7070  -31.6440 C   0  0  0  0  0  0  0  0  0  0  0  0
   -6.3970   23.6330  -31.1900 C   0  0  0  0  0  0  0  0  0  0  0  0
   -5.0290   23.3890  -31.3540 C   0  0  0  0  0  0  0  0  0  0  0  0
   -4.0860   24.3570  -30.8720 N   0  0  0  0  0  0  0  0  0  0  0  0
   -3.7350   24.5590  -29.4980 C   0  0  0  0  0  0  0  0  0  0  0  0
   -4.6150   24.3950  -28.6130 O   0  0  0  0  0  0  0  0  0  0  0  0
   -2.4300   25.0400  -29.1430 N   0  0  0  0  0  0  0  0  0  0  0  0
   -1.7820   24.7820  -27.8810 C   0  0  0  0  0  0  0  0  0  0  0  0
   -2.0350   25.6020  -26.7620 C   0  0  0  0  0  0  0  0  0  0  0  0
   -1.4020   25.3580  -25.5420 C   0  0  0  0  0  0  0  0  0  0  0  0
   -0.5160   24.2880  -25.4150 C   0  0  0  0  0  0  0  0  0  0  0  0
   -0.2740   23.4510  -26.5040 C   0  0  0  0  0  0  0  0  0  0  0  0
   -0.9160   23.6730  -27.7290 C   0  0  0  0  0  0  0  0  0  0  0  0
   -0.5790   22.5330  -29.0840 S   0  0  0  0  0  0  0  0  0  0  0  0
   -1.2580   21.1160  -28.2130 C   0  0  0  0  0  0  0  0  0  0  0  0
   -0.4590   19.9860  -27.9850 C   0  0  0  0  0  0  0  0  0  0  0  0
   -0.9830   18.8830  -27.3040 C   0  0  0  0  0  0  0  0  0  0  0  0
   -2.3090   18.8970  -26.8620 C   0  0  0  0  0  0  0  0  0  0  0  0
   -3.1140   20.0150  -27.1030 C   0  0  0  0  0  0  0  0  0  0  0  0
   -2.5910   21.1210  -27.7810 C   0  0  0  0  0  0  0  0  0  0  0  0
   -4.6120   22.1800  -31.9390 C   0  0  0  0  0  0  0  0  0  0  0  0
   -5.5560   21.2540  -32.3930 C   0  0  0  0  0  0  0  0  0  0  0  0
   -9.0585   20.4615  -30.9832 H   0  0  0  0  0  0  0  0  0  0  0  0
   -9.8596   21.2559  -32.3810 H   0  0  0  0  0  0  0  0  0  0  0  0
   -9.6097   19.4771  -32.3810 H   0  0  0  0  0  0  0  0  0  0  0  0
   -8.4138   22.9167  -31.5209 H   0  0  0  0  0  0  0  0  0  0  0  0
   -6.7319   24.5595  -30.7007 H   0  0  0  0  0  0  0  0  0  0  0  0
   -1.9460   25.6280  -29.8540 H   0  0  0  0  0  0  0  0  0  0  0  0
   -2.7386   26.4428  -26.8514 H   0  0  0  0  0  0  0  0  0  0  0  0
   -1.6022   26.0105  -24.6794 H   0  0  0  0  0  0  0  0  0  0  0  0
   -0.0085   24.1045  -24.4565 H   0  0  0  0  0  0  0  0  0  0  0  0
    0.4268   22.6095  -26.4001 H   0  0  0  0  0  0  0  0  0  0  0  0
    0.5812   19.9675  -28.3424 H   0  0  0  0  0  0  0  0  0  0  0  0
   -0.3507   18.0028  -27.1158 H   0  0  0  0  0  0  0  0  0  0  0  0
   -2.7192   18.0291  -26.3249 H   0  0  0  0  0  0  0  0  0  0  0  0
   -4.1589   20.0245  -26.7592 H   0  0  0  0  0  0  0  0  0  0  0  0
   -3.2276   21.9967  -27.9755 H   0  0  0  0  0  0  0  0  0  0  0  0
   -3.5385   21.9620  -32.0398 H   0  0  0  0  0  0  0  0  0  0  0  0
   -5.2215   20.3165  -32.8613 H   0  0  0  0  0  0  0  0  0  0  0  0
  1  2  1  0
  2  3  1  0
  3  4  2  0
  4  5  1  0
  5  6  2  0
  6  7  1  0
  7  8  1  0
  8  9  2  0
  8 10  1  0
 10 11  1  0
 11 12  2  0
 12 13  1  0
 13 14  2  0
 14 15  1  0
 15 16  2  0
 16 17  1  0
 17 18  1  0
 18 19  2  0
 19 20  1  0
 20 21  2  0
 21 22  1  0
 22 23  2  0
  6 24  1  0
 24 25  2  0
 25  3  1  0
 16 11  1  0
 23 18  1  0
  1 26  1  0
  1 27  1  0
  1 28  1  0
  4 29  1  0
  5 30  1  0
 10 31  1  0
 12 32  1  0
 13 33  1  0
 14 34  1  0
 15 35  1  0
 19 36  1  0
 20 37  1  0
 21 38  1  0
 22 39  1  0
 23 40  1  0
 24 41  1  0
 25 42  1  0
M  CHG  1   7  -1
M  END
>  <UniqueID>  (7) 
7

>  <SMILES>  (7) 
COc1ccc([N-]C(=O)Nc2ccccc2Sc2ccccc2)cc1

>  <Energy>  (7) 
46.01456556456566

>  <Genealogy>  (7) 
COc1ccc([N-]C(=O)Nc2ccccc2Sc2ccccc2)cc1 (protonated)
COc1ccc([N-]C(=O)Nc2ccccc2Sc2ccccc2)cc1 (3D coordinates assigned)
COc1ccc([N-]C(=O)Nc2ccccc2Sc2ccccc2)cc1 (optimized conformer: 46.01456556456566 kcal/mol)

>  <smiles>  (7) 
COc1ccc(NC(=O)Nc2ccccc2Sc2ccccc2)cc1

>  <score_type>  (7) 
oracle

>  <origin>  (7) 
adgpu

>  <m_score__min__energy>  (7) 
-9.7100000000000009

>  <m_primary>  (7) 
energy

$$$$
7:0
     RDKit          3D

 37 39  0  0  0  0  0  0  0  0999 V2000
   -9.8680   21.5830  -31.3250 C   0  0  0  0  0  0  0  0  0  0  0  0
   -8.8590   20.7070  -31.9840 C   0  0  0  0  0  0  0  0  0  0  0  0
   -7.8190   21.1810  -32.7060 N   0  0  0  0  0  0  0  0  0  0  0  0
   -7.0770   20.2180  -33.2510 N   0  0  0  0  0  0  0  0  0  0  0  0
   -7.5380   18.9780  -32.9720 C   0  0  0  0  0  0  0  0  0  0  0  0
   -6.9750   17.8840  -33.3830 N   0  0  0  0  0  0  0  0  0  0  0  0
   -5.5310   17.8620  -34.3420 S   0  0  0  0  0  0  0  0  0  0  0  0
   -5.1450   16.4390  -34.6280 O   0  0  0  0  0  0  0  0  0  0  0  0
   -5.7820   18.5640  -35.6480 O   0  0  0  0  0  0  0  0  0  0  0  0
   -4.2280   18.6460  -33.4540 C   0  0  0  0  0  0  0  0  0  0  0  0
   -2.9540   18.0640  -33.4230 C   0  0  0  0  0  0  0  0  0  0  0  0
   -1.9420   18.6280  -32.6420 C   0  0  0  0  0  0  0  0  0  0  0  0
   -2.2000   19.7630  -31.8630 C   0  0  0  0  0  0  0  0  0  0  0  0
   -1.1640   20.2810  -31.0180 N   0  0  0  0  0  0  0  0  0  0  0  0
   -1.3660   20.8640  -29.7230 C   0  0  0  0  0  0  0  0  0  0  0  0
   -1.6050   20.1030  -28.7490 O   0  0  0  0  0  0  0  0  0  0  0  0
   -1.3460   22.3330  -29.5120 C   0  0  0  0  0  0  0  0  0  0  0  0
   -0.2410   22.9410  -28.8940 C   0  0  0  0  0  0  0  0  0  0  0  0
   -0.2090   24.3270  -28.7050 C   0  0  0  0  0  0  0  0  0  0  0  0
    0.8970   24.9160  -28.1040 O   0  0  0  0  0  0  0  0  0  0  0  0
   -1.2870   25.1170  -29.1220 C   0  0  0  0  0  0  0  0  0  0  0  0
   -1.2520   26.4960  -28.9390 O   0  0  0  0  0  0  0  0  0  0  0  0
   -2.4000   24.5180  -29.7220 C   0  0  0  0  0  0  0  0  0  0  0  0
   -3.4780   25.2960  -30.1300 O   0  0  0  0  0  0  0  0  0  0  0  0
   -2.4330   23.1320  -29.9100 C   0  0  0  0  0  0  0  0  0  0  0  0
   -3.4650   20.3710  -31.9290 C   0  0  0  0  0  0  0  0  0  0  0  0
   -4.4740   19.8120  -32.7160 C   0  0  0  0  0  0  0  0  0  0  0  0
   -8.9220   19.0210  -32.0180 S   0  0  0  0  0  0  0  0  0  0  0  0
   -9.7699   21.4979  -30.2327 H   0  0  0  0  0  0  0  0  0  0  0  0
   -9.7007   22.6272  -31.6279 H   0  0  0  0  0  0  0  0  0  0  0  0
  -10.8783   21.2707  -31.6279 H   0  0  0  0  0  0  0  0  0  0  0  0
   -2.7498   17.1600  -34.0155 H   0  0  0  0  0  0  0  0  0  0  0  0
   -0.9380   18.1785  -32.6389 H   0  0  0  0  0  0  0  0  0  0  0  0
    0.6046   22.3237  -28.5565 H   0  0  0  0  0  0  0  0  0  0  0  0
   -3.3148   22.6641  -30.3721 H   0  0  0  0  0  0  0  0  0  0  0  0
   -3.6613   21.2908  -31.3586 H   0  0  0  0  0  0  0  0  0  0  0  0
   -5.4648   20.2881  -32.7569 H   0  0  0  0  0  0  0  0  0  0  0  0
  1  2  1  0
  2  3  2  0
  3  4  1  0
  4  5  1  0
  5  6  2  3
  6  7  1  0
  7  8  2  0
  7  9  2  0
  7 10  1  0
 10 11  2  0
 11 12  1  0
 12 13  2  0
 13 14  1  0
 14 15  1  0
 15 16  2  0
 15 17  1  0
 17 18  2  0
 18 19  1  0
 19 20  1  0
 19 21  2  0
 21 22  1  0
 21 23  1  0
 23 24  1  0
 23 25  2  0
 13 26  1  0
 26 27  2  0
  5 28  1  0
 28  2  1  0
 27 10  1  0
 25 17  1  0
  1 29  1  0
  1 30  1  0
  1 31  1  0
 11 32  1  0
 12 33  1  0
 18 34  1  0
 25 35  1  0
 26 36  1  0
 27 37  1  0
M  CHG  5   4  -1  14  -1  20  -1  22  -1  24  -1
M  END
>  <UniqueID>  (8) 
8

>  <SMILES>  (8) 
Cc1n[n-]c(=NS(=O)(=O)c2ccc([N-]C(=O)c3cc([O-])c([O-])c([O-])c3)cc2)s1

>  <Energy>  (8) 
81.87646451109016

>  <Genealogy>  (8) 
Cc1n[n-]c(=NS(=O)(=O)c2ccc([N-]C(=O)c3cc([O-])c([O-])c([O-])c3)cc2)s1 (protonated)
Cc1n[n-]c(=NS(=O)(=O)c2ccc([N-]C(=O)c3cc([O-])c([O-])c([O-])c3)cc2)s1 (3D coordinates assigned)
Cc1n[n-]c(=NS(=O)(=O)c2ccc([N-]C(=O)c3cc([O-])c([O-])c([O-])c3)cc2)s1 (optimized conformer: 81.87646451109016 kcal/mol)

>  <smiles>  (8) 
Cc1n[nH]c(=NS(=O)(=O)c2ccc(NC(=O)c3cc(O)c(O)c(O)c3)cc2)s1

>  <score_type>  (8) 
oracle

>  <origin>  (8) 
adgpu

>  <m_score__min__energy>  (8) 
-15.949999999999999

>  <m_primary>  (8) 
energy

$$$$
8:0
     RDKit          3D

 52 55  0  0  0  0  0  0  0  0999 V2000
   -4.9320   15.7110  -33.5020 C   0  0  0  0  0  0  0  0  0  0  0  0
   -4.9190   16.9200  -32.7490 O   0  0  0  0  0  0  0  0  0  0  0  0
   -5.9690   17.8570  -32.7200 C   0  0  0  0  0  0  0  0  0  0  0  0
   -7.2920   17.4670  -32.4330 C   0  0  0  0  0  0  0  0  0  0  0  0
   -8.3210   18.4110  -32.4230 C   0  0  0  0  0  0  0  0  0  0  0  0
   -8.0550   19.7560  -32.6860 C   0  0  0  0  0  0  0  0  0  0  0  0
   -9.1560   20.6760  -32.7370 N   0  0  0  0  0  0  0  0  0  0  0  0
   -9.2970   22.1430  -31.8130 S   0  0  0  0  0  0  0  0  0  0  0  0
   -9.8100   23.2360  -32.7200 O   0  0  0  0  0  0  0  0  0  0  0  0
  -10.2820   21.9390  -30.6800 O   0  0  0  0  0  0  0  0  0  0  0  0
   -7.7200   22.6380  -31.1960 C   0  0  0  0  0  0  0  0  0  0  0  0
   -6.8490   23.4010  -31.9920 C   0  0  0  0  0  0  0  0  0  0  0  0
   -5.6460   23.8710  -31.4600 C   0  0  0  0  0  0  0  0  0  0  0  0
   -5.2910   23.5770  -30.1270 C   0  0  0  0  0  0  0  0  0  0  0  0
   -4.0290   24.0780  -29.5370 C   0  0  0  0  0  0  0  0  0  0  0  0
   -3.5170   23.7740  -28.2920 C   0  0  0  0  0  0  0  0  0  0  0  0
   -2.3470   24.4960  -28.2240 C   0  0  0  0  0  0  0  0  0  0  0  0
   -2.1730   25.1820  -29.3640 N   0  0  0  0  0  0  0  0  0  0  0  0
   -3.1960   24.9300  -30.1620 N   0  0  0  0  0  0  0  0  0  0  0  0
   -6.1600   22.7920  -29.3490 C   0  0  0  0  0  0  0  0  0  0  0  0
   -7.3680   22.3370  -29.8770 C   0  0  0  0  0  0  0  0  0  0  0  0
   -6.7290   20.1590  -32.9160 C   0  0  0  0  0  0  0  0  0  0  0  0
   -5.6920   19.2170  -32.9690 C   0  0  0  0  0  0  0  0  0  0  0  0
   -4.0590   19.7580  -33.3830 S   0  0  0  0  0  0  0  0  0  0  0  0
   -3.5350   18.9630  -34.5510 O   0  0  0  0  0  0  0  0  0  0  0  0
   -4.1240   21.1990  -33.8090 O   0  0  0  0  0  0  0  0  0  0  0  0
   -2.9390   19.5890  -32.0450 N   0  0  0  0  0  0  0  0  0  0  0  0
   -3.1220   20.6540  -31.0330 C   0  0  0  0  0  0  0  0  0  0  0  0
   -2.3350   21.9510  -31.3660 C   0  0  0  0  0  0  0  0  0  0  0  0
   -1.4250   21.7980  -32.4390 O   0  0  0  0  0  0  0  0  0  0  0  0
   -0.6560   20.6340  -32.2340 C   0  0  0  0  0  0  0  0  0  0  0  0
   -1.5300   19.3940  -32.4780 C   0  0  0  0  0  0  0  0  0  0  0  0
   -4.9412   14.8516  -32.8155 H   0  0  0  0  0  0  0  0  0  0  0  0
   -5.8305   15.6835  -34.1360 H   0  0  0  0  0  0  0  0  0  0  0  0
   -4.0343   15.6642  -34.1360 H   0  0  0  0  0  0  0  0  0  0  0  0
   -7.5158   16.4122  -32.2154 H   0  0  0  0  0  0  0  0  0  0  0  0
   -9.3510   18.0918  -32.2058 H   0  0  0  0  0  0  0  0  0  0  0  0
   -7.1147   23.6284  -33.0349 H   0  0  0  0  0  0  0  0  0  0  0  0
   -4.9710   24.4744  -32.0848 H   0  0  0  0  0  0  0  0  0  0  0  0
   -3.9456   23.1076  -27.5290 H   0  0  0  0  0  0  0  0  0  0  0  0
   -1.6592   24.5087  -27.3656 H   0  0  0  0  0  0  0  0  0  0  0  0
   -5.8849   22.5346  -28.3155 H   0  0  0  0  0  0  0  0  0  0  0  0
   -8.0472   21.7382  -29.2524 H   0  0  0  0  0  0  0  0  0  0  0  0
   -6.5017   21.2261  -33.0561 H   0  0  0  0  0  0  0  0  0  0  0  0
   -4.1925   20.8996  -30.9726 H   0  0  0  0  0  0  0  0  0  0  0  0
   -2.7336   20.2701  -30.0781 H   0  0  0  0  0  0  0  0  0  0  0  0
   -3.0565   22.7381  -31.6306 H   0  0  0  0  0  0  0  0  0  0  0  0
   -1.7446   22.2097  -30.4747 H   0  0  0  0  0  0  0  0  0  0  0  0
    0.1932   20.6276  -32.9332 H   0  0  0  0  0  0  0  0  0  0  0  0
   -0.2797   20.6201  -31.2005 H   0  0  0  0  0  0  0  0  0  0  0  0
   -1.5213   19.1638  -33.5536 H   0  0  0  0  0  0  0  0  0  0  0  0
   -1.1108   18.5703  -31.8815 H   0  0  0  0  0  0  0  0  0  0  0  0
  1  2  1  0
  2  3  1  0
  3  4  2  0
  4  5  1  0
  5  6  2  0
  6  7  1  0
  7  8  1  0
  8  9  2  0
  8 10  2  0
  8 11  1  0
 11 12  2  0
 12 13  1  0
 13 14  2  0
 14 15  1  0
 15 16  1  0
 16 17  2  0
 17 18  1  0
 18 19  1  0
 14 20  1  0
 20 21  2  0
  6 22  1  0
 22 23  2  0
 23 24  1  0
 24 25  2  0
 24 26  2  0
 24 27  1  0
 27 28  1  0
 28 29  1  0
 29 30  1  0
 30 31  1  0
 31 32  1  0
 23  3  1  0
 32 27  1  0
 21 11  1  0
 19 15  2  0
  1 33  1  0
  1 34  1  0
  1 35  1  0
  4 36  1  0
  5 37  1  0
 12 38  1  0
 13 39  1  0
 16 40  1  0
 17 41  1  0
 20 42  1  0
 21 43  1  0
 22 44  1  0
 28 45  1  0
 28 46  1  0
 29 47  1  0
 29 48  1  0
 31 49  1  0
 31 50  1  0
 32 51  1  0
 32 52  1  0
M  CHG  2   7  -1  18  -1
M  END
>  <UniqueID>  (9) 
9

>  <SMILES>  (9) 
COc1ccc([N-]S(=O)(=O)c2ccc(-c3cc[n-]n3)cc2)cc1S(=O)(=O)N1CCOCC1

>  <Energy>  (9) 
100.50429515983411

>  <Genealogy>  (9) 
COc1ccc([N-]S(=O)(=O)c2ccc(-c3cc[n-]n3)cc2)cc1S(=O)(=O)N1CCOCC1 (protonated)
COc1ccc([N-]S(=O)(=O)c2ccc(-c3cc[n-]n3)cc2)cc1S(=O)(=O)N1CCOCC1 (3D coordinates assigned)
COc1ccc([N-]S(=O)(=O)c2ccc(-c3cc[n-]n3)cc2)cc1S(=O)(=O)N1CCOCC1 (nonaromatic ring conformer: 100.50429515983411 kcal/mol)

>  <smiles>  (9) 
COc1ccc(NS(=O)(=O)c2ccc(-c3cc[nH]n3)cc2)cc1S(=O)(=O)N1CCOCC1

>  <score_type>  (9) 
oracle

>  <origin>  (9) 
adgpu

>  <m_score__min__energy>  (9) 
-11.199999999999999

>  <m_primary>  (9) 
energy

$$$$
9:0
     RDKit          3D

 49 51  0  0  0  0  0  0  0  0999 V2000
    0.6562   28.8887  -25.6219 H   0  0  0  0  0  0  0  0  0  0  0  0
   -0.0210   28.0690  -25.9040 C   0  0  0  0  0  0  0  0  0  0  0  0
   -0.6770   27.3340  -24.9170 C   0  0  0  0  0  0  0  0  0  0  0  0
   -0.5168   27.5755  -23.8559 H   0  0  0  0  0  0  0  0  0  0  0  0
   -1.5370   26.2920  -25.2720 C   0  0  0  0  0  0  0  0  0  0  0  0
   -2.0485   25.7176  -24.4856 H   0  0  0  0  0  0  0  0  0  0  0  0
   -1.7570   25.9680  -26.6260 C   0  0  0  0  0  0  0  0  0  0  0  0
   -2.6790   24.8540  -26.9760 C   0  0  0  0  0  0  0  0  0  0  0  0
   -3.8380   24.8130  -26.4800 O   0  0  0  0  0  0  0  0  0  0  0  0
   -2.2440   23.8250  -27.8820 N   0  0  0  0  0  0  0  0  0  0  0  0
   -2.9550   23.2730  -28.8180 C   0  0  0  0  0  0  0  0  0  0  0  0
   -4.2410   23.5880  -29.0870 N   0  0  0  0  0  0  0  0  0  0  0  0
   -4.7380   22.8610  -30.1270 C   0  0  0  0  0  0  0  0  0  0  0  0
   -6.1500   23.0600  -30.6160 C   0  0  0  0  0  0  0  0  0  0  0  0
   -6.7037   23.6498  -29.8707 H   0  0  0  0  0  0  0  0  0  0  0  0
   -6.6031   22.0675  -30.7561 H   0  0  0  0  0  0  0  0  0  0  0  0
   -6.1960   23.7910  -31.9550 C   0  0  0  0  0  0  0  0  0  0  0  0
   -6.2642   24.8747  -31.7790 H   0  0  0  0  0  0  0  0  0  0  0  0
   -5.2821   23.5690  -32.5255 H   0  0  0  0  0  0  0  0  0  0  0  0
   -7.0749   23.4562  -32.5255 H   0  0  0  0  0  0  0  0  0  0  0  0
   -3.8350   21.9310  -30.6670 C   0  0  0  0  0  0  0  0  0  0  0  0
   -4.0730   20.9620  -31.7570 C   0  0  0  0  0  0  0  0  0  0  0  0
   -3.1580   20.8640  -32.8190 C   0  0  0  0  0  0  0  0  0  0  0  0
   -2.2766   21.5216  -32.8449 H   0  0  0  0  0  0  0  0  0  0  0  0
   -3.3630   19.9350  -33.8420 C   0  0  0  0  0  0  0  0  0  0  0  0
   -2.6477   19.8699  -34.6751 H   0  0  0  0  0  0  0  0  0  0  0  0
   -4.4730   19.0890  -33.8100 C   0  0  0  0  0  0  0  0  0  0  0  0
   -4.6297   18.3586  -34.6174 H   0  0  0  0  0  0  0  0  0  0  0  0
   -5.3870   19.1680  -32.7530 C   0  0  0  0  0  0  0  0  0  0  0  0
   -6.7670   18.0720  -32.7010 S   0  0  0  0  0  0  0  0  0  0  0  0
   -6.6990   17.2720  -31.4300 O   0  0  0  0  0  0  0  0  0  0  0  0
   -6.7060   17.1220  -33.8650 O   0  0  0  0  0  0  0  0  0  0  0  0
   -8.2550   18.9850  -32.7460 N   0  0  0  0  0  0  0  0  0  0  0  0
   -8.7530   18.7610  -33.6390 H   0  0  0  0  0  0  0  0  0  0  0  0
   -9.1130   18.6070  -31.6130 C   0  0  0  0  0  0  0  0  0  0  0  0
   -8.5957   18.8349  -30.6693 H   0  0  0  0  0  0  0  0  0  0  0  0
  -10.0546   19.1736  -31.6611 H   0  0  0  0  0  0  0  0  0  0  0  0
   -9.3304   17.5298  -31.6611 H   0  0  0  0  0  0  0  0  0  0  0  0
   -7.9580   20.4230  -32.7120 C   0  0  0  0  0  0  0  0  0  0  0  0
   -7.8887   20.7585  -31.6667 H   0  0  0  0  0  0  0  0  0  0  0  0
   -7.0018   20.6121  -33.2219 H   0  0  0  0  0  0  0  0  0  0  0  0
   -8.7610   20.9754  -33.2219 H   0  0  0  0  0  0  0  0  0  0  0  0
   -5.1780   20.0950  -31.7220 C   0  0  0  0  0  0  0  0  0  0  0  0
   -5.8841   20.1438  -30.8799 H   0  0  0  0  0  0  0  0  0  0  0  0
   -2.3730   22.0750  -29.8360 S   0  0  0  0  0  0  0  0  0  0  0  0
   -1.0850   26.7230  -27.6190 C   0  0  0  0  0  0  0  0  0  0  0  0
   -1.2600   26.4520  -28.9720 O   0  0  0  0  0  0  0  0  0  0  0  0
   -0.2250   27.7630  -27.2500 C   0  0  0  0  0  0  0  0  0  0  0  0
    0.2942   28.3437  -28.0267 H   0  0  0  0  0  0  0  0  0  0  0  0
  1  2  1  0
  2  3  2  0
  3  4  1  0
  3  5  1  0
  5  6  1  0
  5  7  2  0
  7  8  1  0
  8  9  2  0
  8 10  1  0
 10 11  2  0
 11 12  1  0
 12 13  1  0
 13 14  1  0
 14 15  1  0
 14 16  1  0
 14 17  1  0
 17 18  1  0
 17 19  1  0
 17 20  1  0
 13 21  2  0
 21 22  1  0
 22 23  2  0
 23 24  1  0
 23 25  1  0
 25 26  1  0
 25 27  2  0
 27 28  1  0
 27 29  1  0
 29 30  1  0
 30 31  2  0
 30 32  2  0
 30 33  1  0
 33 34  1  0
 33 35  1  0
 35 36  1  0
 35 37  1  0
 35 38  1  0
 33 39  1  0
 39 40  1  0
 39 41  1  0
 39 42  1  0
 29 43  2  0
 43 44  1  0
 21 45  1  0
  7 46  1  0
 46 47  1  0
 46 48  2  0
 48 49  1  0
 48  2  1  0
 45 11  1  0
 43 22  1  0
M  CHG  3  12  -1  33   1  47  -1
M  END
>  <UniqueID>  (10) 
10

>  <SMILES>  (10) 
CCc1[n-]/c(=N\C(=O)c2ccccc2[O-])sc1-c1cccc(S(=O)(=O)[NH+](C)C)c1

>  <Energy>  (10) 
85.07843073879195

>  <Genealogy>  (10) 
CCc1[n-]c(=NC(=O)c2ccccc2[O-])sc1-c1cccc(S(=O)(=O)[NH+](C)C)c1 (protonated)
CCc1[n-]/c(=N\C(=O)c2ccccc2[O-])sc1-c1cccc(S(=O)(=O)[NH+](C)C)c1 (cis-trans isomerization)
CCc1[n-]/c(=N\C(=O)c2ccccc2[O-])sc1-c1cccc(S(=O)(=O)[NH+](C)C)c1 (3D coordinates assigned)
CCc1[n-]/c(=N\C(=O)c2ccccc2[O-])sc1-c1cccc(S(=O)(=O)[NH+](C)C)c1 (optimized conformer: 85.07843073879195 kcal/mol)

>  <smiles>  (10) 
CCc1[nH]c(=NC(=O)c2ccccc2O)sc1-c1cccc(S(=O)(=O)N(C)C)c1

>  <score_type>  (10) 
oracle

>  <origin>  (10) 
adgpu

>  <m_score__min__energy>  (10) 
-13.390000000000001

>  <m_primary>  (10) 
energy

$$$$
10:0
     RDKit          3D

 44 46  0  0  0  0  0  0  0  0999 V2000
   -0.8750   21.2300  -33.8620 C   0  0  0  0  0  0  0  0  0  0  0  0
   -0.2320   20.4040  -32.7510 C   0  0  0  0  0  0  0  0  0  0  0  0
   -0.9290   20.5920  -31.3990 C   0  0  0  0  0  0  0  0  0  0  0  0
   -1.9330   21.6500  -31.4680 N   0  0  0  0  0  0  0  0  0  0  0  0
   -2.3120   22.4800  -30.3620 C   0  0  0  0  0  0  0  0  0  0  0  0
   -1.5060   22.6600  -29.4090 O   0  0  0  0  0  0  0  0  0  0  0  0
   -3.6440   23.1350  -30.3570 C   0  0  0  0  0  0  0  0  0  0  0  0
   -4.7840   22.3800  -30.6820 C   0  0  0  0  0  0  0  0  0  0  0  0
   -6.0540   22.9750  -30.7600 C   0  0  0  0  0  0  0  0  0  0  0  0
   -7.2330   22.1640  -31.1520 C   0  0  0  0  0  0  0  0  0  0  0  0
   -8.5050   22.5470  -30.9170 N   0  0  0  0  0  0  0  0  0  0  0  0
   -9.2960   21.5800  -31.3570 N   0  0  0  0  0  0  0  0  0  0  0  0
   -8.4970   20.6170  -31.8500 C   0  0  0  0  0  0  0  0  0  0  0  0
   -9.0720   19.2670  -32.5770 S   0  0  0  0  0  0  0  0  0  0  0  0
   -7.1930   20.9460  -31.7450 N   0  0  0  0  0  0  0  0  0  0  0  0
   -6.0530   20.2220  -32.2390 C   0  0  0  0  0  0  0  0  0  0  0  0
   -5.8420   18.8880  -31.8590 C   0  0  0  0  0  0  0  0  0  0  0  0
   -4.7780   18.1600  -32.3990 C   0  0  0  0  0  0  0  0  0  0  0  0
   -3.9020   18.7620  -33.3140 C   0  0  0  0  0  0  0  0  0  0  0  0
   -2.7980   17.9640  -33.9410 C   0  0  0  0  0  0  0  0  0  0  0  0
   -4.1160   20.0950  -33.6990 C   0  0  0  0  0  0  0  0  0  0  0  0
   -5.1800   20.8220  -33.1580 C   0  0  0  0  0  0  0  0  0  0  0  0
   -6.1930   24.3380  -30.4440 C   0  0  0  0  0  0  0  0  0  0  0  0
   -7.4450   24.9520  -30.5030 O   0  0  0  0  0  0  0  0  0  0  0  0
   -5.0680   25.0890  -30.0830 C   0  0  0  0  0  0  0  0  0  0  0  0
   -3.7990   24.5020  -30.0490 C   0  0  0  0  0  0  0  0  0  0  0  0
   -2.7050   25.2950  -29.7180 O   0  0  0  0  0  0  0  0  0  0  0  0
   -1.4931   22.0240  -33.4177 H   0  0  0  0  0  0  0  0  0  0  0  0
   -0.0889   21.6823  -34.4845 H   0  0  0  0  0  0  0  0  0  0  0  0
   -1.5063   20.5789  -34.4845 H   0  0  0  0  0  0  0  0  0  0  0  0
   -0.2819   19.3407  -33.0284 H   0  0  0  0  0  0  0  0  0  0  0  0
    0.8077   20.7457  -32.6405 H   0  0  0  0  0  0  0  0  0  0  0  0
   -1.4192   19.6496  -31.1134 H   0  0  0  0  0  0  0  0  0  0  0  0
   -0.1727   20.8761  -30.6525 H   0  0  0  0  0  0  0  0  0  0  0  0
   -4.6797   21.3028  -30.8790 H   0  0  0  0  0  0  0  0  0  0  0  0
   -6.5173   18.4126  -31.1324 H   0  0  0  0  0  0  0  0  0  0  0  0
   -4.6271   17.1108  -32.1052 H   0  0  0  0  0  0  0  0  0  0  0  0
   -2.1766   17.5149  -33.1522 H   0  0  0  0  0  0  0  0  0  0  0  0
   -3.2299   17.1680  -34.5654 H   0  0  0  0  0  0  0  0  0  0  0  0
   -2.1776   18.6238  -34.5654 H   0  0  0  0  0  0  0  0  0  0  0  0
   -3.4437   20.5691  -34.4292 H   0  0  0  0  0  0  0  0  0  0  0  0
   -5.3334   21.8701  -33.4545 H   0  0  0  0  0  0  0  0  0  0  0  0
   -8.2480   24.4850  -30.9110 H   0  0  0  0  0  0  0  0  0  0  0  0
   -5.1833   26.1517  -29.8234 H   0  0  0  0  0  0  0  0  0  0  0  0
  1  2  1  0
  2  3  1  0
  3  4  1  0
  4  5  1  0
  5  6  2  0
  5  7  1  0
  7  8  2  0
  8  9  1  0
  9 10  1  0
 10 11  2  0
 11 12  1  0
 12 13  1  0
 13 14  2  0
 13 15  1  0
 15 16  1  0
 16 17  2  0
 17 18  1  0
 18 19  2  0
 19 20  1  0
 19 21  1  0
 21 22  2  0
  9 23  2  0
 23 24  1  0
 23 25  1  0
 25 26  2  0
 26 27  1  0
 26  7  1  0
 15 10  1  0
 22 16  1  0
  1 28  1  0
  1 29  1  0
  1 30  1  0
  2 31  1  0
  2 32  1  0
  3 33  1  0
  3 34  1  0
  8 35  1  0
 17 36  1  0
 18 37  1  0
 20 38  1  0
 20 39  1  0
 20 40  1  0
 21 41  1  0
 22 42  1  0
 24 43  1  0
 25 44  1  0
M  CHG  3   4  -1  12  -1  27  -1
M  END
>  <UniqueID>  (11) 
11

>  <SMILES>  (11) 
CCC[N-]C(=O)c1cc(-c2n[n-]c(=S)n2-c2ccc(C)cc2)c(O)cc1[O-]

>  <Energy>  (11) 
87.80905296037263

>  <Genealogy>  (11) 
CCC[N-]C(=O)c1cc(-c2n[n-]c(=S)n2-c2ccc(C)cc2)c(O)cc1[O-] (protonated)
CCC[N-]C(=O)c1cc(-c2n[n-]c(=S)n2-c2ccc(C)cc2)c(O)cc1[O-] (3D coordinates assigned)
CCC[N-]C(=O)c1cc(-c2n[n-]c(=S)n2-c2ccc(C)cc2)c(O)cc1[O-] (optimized conformer: 87.80905296037263 kcal/mol)

>  <smiles>  (11) 
CCCNC(=O)c1cc(-c2n[nH]c(=S)n2-c2ccc(C)cc2)c(O)cc1O

>  <score_type>  (11) 
oracle

>  <origin>  (11) 
adgpu

>  <m_score__min__energy>  (11) 
-11.48

>  <m_primary>  (11) 
energy

$$$$
11:0
     RDKit          3D

 38 40  0  0  0  0  0  0  0  0999 V2000
   -3.4900   25.3020  -30.4530 O   0  0  0  0  0  0  0  0  0  0  0  0
   -3.3180   23.9360  -30.2620 C   0  0  0  0  0  0  0  0  0  0  0  0
   -2.7880   23.4610  -29.0590 C   0  0  0  0  0  0  0  0  0  0  0  0
   -2.6160   22.0890  -28.8650 C   0  0  0  0  0  0  0  0  0  0  0  0
   -2.9740   21.1880  -29.8720 C   0  0  0  0  0  0  0  0  0  0  0  0
   -3.5100   21.6540  -31.0870 C   0  0  0  0  0  0  0  0  0  0  0  0
   -3.8740   20.7250  -32.1300 N   0  0  0  0  0  0  0  0  0  0  0  0
   -5.2630   20.3970  -32.3480 C   0  0  0  0  0  0  0  0  0  0  0  0
   -5.6410   19.0940  -32.7110 C   0  0  0  0  0  0  0  0  0  0  0  0
   -6.9880   18.7790  -32.9160 C   0  0  0  0  0  0  0  0  0  0  0  0
   -7.9730   19.7630  -32.7570 C   0  0  0  0  0  0  0  0  0  0  0  0
   -9.3170   19.4620  -32.9590 O   0  0  0  0  0  0  0  0  0  0  0  0
   -7.6030   21.0620  -32.3930 C   0  0  0  0  0  0  0  0  0  0  0  0
   -6.2570   21.3790  -32.1880 C   0  0  0  0  0  0  0  0  0  0  0  0
   -2.8400   20.0960  -32.9180 C   0  0  0  0  0  0  0  0  0  0  0  0
   -1.8170   20.8560  -33.5110 C   0  0  0  0  0  0  0  0  0  0  0  0
   -0.8210   20.2170  -34.2610 C   0  0  0  0  0  0  0  0  0  0  0  0
    0.2560   21.0220  -34.9330 C   0  0  0  0  0  0  0  0  0  0  0  0
   -0.1100   22.3740  -34.9750 O   0  0  0  0  0  0  0  0  0  0  0  0
   -0.8730   18.8260  -34.4240 C   0  0  0  0  0  0  0  0  0  0  0  0
   -1.8960   18.1000  -33.8130 C   0  0  0  0  0  0  0  0  0  0  0  0
   -2.8450   18.7420  -33.0820 N   0  0  0  0  0  0  0  0  0  0  0  0
   -3.6780   23.0390  -31.2720 C   0  0  0  0  0  0  0  0  0  0  0  0
   -2.5063   24.1682  -28.2649 H   0  0  0  0  0  0  0  0  0  0  0  0
   -2.1981   21.7165  -27.9181 H   0  0  0  0  0  0  0  0  0  0  0  0
   -2.8359   20.1082  -29.7138 H   0  0  0  0  0  0  0  0  0  0  0  0
   -4.8728   18.3165  -32.8348 H   0  0  0  0  0  0  0  0  0  0  0  0
   -7.2750   17.7565  -33.2027 H   0  0  0  0  0  0  0  0  0  0  0  0
   -9.6990   19.3380  -33.8890 H   0  0  0  0  0  0  0  0  0  0  0  0
   -8.3738   21.8367  -32.2677 H   0  0  0  0  0  0  0  0  0  0  0  0
   -5.9738   22.4021  -31.9000 H   0  0  0  0  0  0  0  0  0  0  0  0
   -1.7985   21.9488  -33.3866 H   0  0  0  0  0  0  0  0  0  0  0  0
    1.1947   20.9163  -34.3694 H   0  0  0  0  0  0  0  0  0  0  0  0
    0.3934   20.6537  -35.9604 H   0  0  0  0  0  0  0  0  0  0  0  0
   -1.0690   22.4010  -35.2370 H   0  0  0  0  0  0  0  0  0  0  0  0
   -0.1129   18.3103  -35.0292 H   0  0  0  0  0  0  0  0  0  0  0  0
   -1.9345   17.0062  -33.9231 H   0  0  0  0  0  0  0  0  0  0  0  0
   -4.0950   23.4179  -32.2168 H   0  0  0  0  0  0  0  0  0  0  0  0
  1  2  1  0
  2  3  2  0
  3  4  1  0
  4  5  2  0
  5  6  1  0
  6  7  1  0
  7  8  1  0
  8  9  2  0
  9 10  1  0
 10 11  2  0
 11 12  1  0
 11 13  1  0
 13 14  2  0
  7 15  1  0
 15 16  2  0
 16 17  1  0
 17 18  1  0
 18 19  1  0
 17 20  2  0
 20 21  1  0
 21 22  2  0
  6 23  2  0
 23  2  1  0
 14  8  1  0
 22 15  1  0
  3 24  1  0
  4 25  1  0
  5 26  1  0
  9 27  1  0
 10 28  1  0
 12 29  1  0
 13 30  1  0
 14 31  1  0
 16 32  1  0
 18 33  1  0
 18 34  1  0
 19 35  1  0
 20 36  1  0
 21 37  1  0
 23 38  1  0
M  CHG  1   1  -1
M  END
>  <UniqueID>  (12) 
12

>  <SMILES>  (12) 
[O-]c1cccc(N(c2ccc(O)cc2)c2cc(CO)ccn2)c1

>  <Energy>  (12) 
52.19515528904187

>  <Genealogy>  (12) 
[O-]c1cccc(N(c2ccc(O)cc2)c2cc(CO)ccn2)c1 (protonated)
[O-]c1cccc(N(c2ccc(O)cc2)c2cc(CO)ccn2)c1 (3D coordinates assigned)
[O-]c1cccc(N(c2ccc(O)cc2)c2cc(CO)ccn2)c1 (optimized conformer: 52.19515528904187 kcal/mol)

>  <smiles>  (12) 
OCc1ccnc(N(c2ccc(O)cc2)c2cccc(O)c2)c1

>  <score_type>  (12) 
oracle

>  <origin>  (12) 
adgpu

>  <m_score__min__energy>  (12) 
-10.470000000000001

>  <m_primary>  (12) 
energy

$$$$
12:0
     RDKit          3D

 38 40  0  0  0  0  0  0  0  0999 V2000
   -9.7910   21.5740  -31.9670 C   0  0  0  0  0  0  0  0  0  0  0  0
   -8.4640   20.9510  -32.0470 N   0  0  0  0  0  0  0  0  0  0  0  0
   -8.3250   19.6650  -32.7440 C   0  0  0  0  0  0  0  0  0  0  0  0
   -7.3070   21.5960  -31.4520 C   0  0  0  0  0  0  0  0  0  0  0  0
   -6.0010   21.1620  -31.7580 C   0  0  0  0  0  0  0  0  0  0  0  0
   -4.8880   21.7790  -31.1790 C   0  0  0  0  0  0  0  0  0  0  0  0
   -5.0520   22.8400  -30.2780 C   0  0  0  0  0  0  0  0  0  0  0  0
   -3.8790   23.4780  -29.6430 C   0  0  0  0  0  0  0  0  0  0  0  0
   -3.0670   22.9710  -28.6330 C   0  0  0  0  0  0  0  0  0  0  0  0
   -3.2370   21.3820  -27.8180 S   0  0  0  0  0  0  0  0  0  0  0  0
   -1.8380   20.6880  -28.6970 C   0  0  0  0  0  0  0  0  0  0  0  0
   -0.9090   19.8890  -28.0180 C   0  0  0  0  0  0  0  0  0  0  0  0
    0.1900   19.3580  -28.7000 C   0  0  0  0  0  0  0  0  0  0  0  0
    0.3610   19.6210  -30.0640 C   0  0  0  0  0  0  0  0  0  0  0  0
    1.7400   18.9550  -30.9200 Cl  0  0  0  0  0  0  0  0  0  0  0  0
   -0.5700   20.4120  -30.7460 C   0  0  0  0  0  0  0  0  0  0  0  0
   -1.6700   20.9440  -30.0640 C   0  0  0  0  0  0  0  0  0  0  0  0
   -2.1470   23.8530  -28.3010 O   0  0  0  0  0  0  0  0  0  0  0  0
   -2.3200   24.9210  -29.0420 C   0  0  0  0  0  0  0  0  0  0  0  0
   -1.5300   26.0600  -28.9660 O   0  0  0  0  0  0  0  0  0  0  0  0
   -3.3870   24.7440  -29.8880 C   0  0  0  0  0  0  0  0  0  0  0  0
   -3.8630   25.6610  -30.8180 O   0  0  0  0  0  0  0  0  0  0  0  0
   -6.3460   23.2850  -29.9760 C   0  0  0  0  0  0  0  0  0  0  0  0
   -7.4600   22.6700  -30.5520 C   0  0  0  0  0  0  0  0  0  0  0  0
  -10.0713   21.7056  -30.9115 H   0  0  0  0  0  0  0  0  0  0  0  0
   -9.7663   22.5546  -32.4648 H   0  0  0  0  0  0  0  0  0  0  0  0
  -10.5297   20.9286  -32.4648 H   0  0  0  0  0  0  0  0  0  0  0  0
   -8.2374   18.8550  -32.0050 H   0  0  0  0  0  0  0  0  0  0  0  0
   -9.2097   19.4921  -33.3744 H   0  0  0  0  0  0  0  0  0  0  0  0
   -7.4238   19.6852  -33.3744 H   0  0  0  0  0  0  0  0  0  0  0  0
   -5.8560   20.3281  -32.4606 H   0  0  0  0  0  0  0  0  0  0  0  0
   -3.8763   21.4292  -31.4324 H   0  0  0  0  0  0  0  0  0  0  0  0
   -1.0444   19.6791  -26.9467 H   0  0  0  0  0  0  0  0  0  0  0  0
    0.9203   18.7335  -28.1645 H   0  0  0  0  0  0  0  0  0  0  0  0
   -0.4372   20.6158  -31.8188 H   0  0  0  0  0  0  0  0  0  0  0  0
   -2.4031   21.5635  -30.6015 H   0  0  0  0  0  0  0  0  0  0  0  0
   -6.4856   24.1252  -29.2799 H   0  0  0  0  0  0  0  0  0  0  0  0
   -8.4691   23.0282  -30.3002 H   0  0  0  0  0  0  0  0  0  0  0  0
  1  2  1  0
  2  3  1  0
  2  4  1  0
  4  5  2  0
  5  6  1  0
  6  7  2  0
  7  8  1  0
  8  9  2  0
  9 10  1  0
 10 11  1  0
 11 12  2  0
 12 13  1  0
 13 14  2  0
 14 15  1  0
 14 16  1  0
 16 17  2  0
  9 18  1  0
 18 19  1  0
 19 20  1  0
 19 21  2  0
 21 22  1  0
  7 23  1  0
 23 24  2  0
 24  4  1  0
 21  8  1  0
 17 11  1  0
  1 25  1  0
  1 26  1  0
  1 27  1  0
  3 28  1  0
  3 29  1  0
  3 30  1  0
  5 31  1  0
  6 32  1  0
 12 33  1  0
 13 34  1  0
 16 35  1  0
 17 36  1  0
 23 37  1  0
 24 38  1  0
M  CHG  2  20  -1  22  -1
M  END
>  <UniqueID>  (13) 
13

>  <SMILES>  (13) 
CN(C)c1ccc(-c2c(Sc3ccc(Cl)cc3)oc([O-])c2[O-])cc1

>  <Energy>  (13) 
70.99555677599213

>  <Genealogy>  (13) 
CN(C)c1ccc(-c2c(Sc3ccc(Cl)cc3)oc([O-])c2[O-])cc1 (protonated)
CN(C)c1ccc(-c2c(Sc3ccc(Cl)cc3)oc([O-])c2[O-])cc1 (3D coordinates assigned)
CN(C)c1ccc(-c2c(Sc3ccc(Cl)cc3)oc([O-])c2[O-])cc1 (optimized conformer: 70.99555677599213 kcal/mol)

>  <smiles>  (13) 
CN(C)c1ccc(-c2c(Sc3ccc(Cl)cc3)oc(O)c2O)cc1

>  <score_type>  (13) 
oracle

>  <origin>  (13) 
adgpu

>  <m_score__min__energy>  (13) 
-12.369999999999999

>  <m_primary>  (13) 
energy

$$$$
13:0
     RDKit          3D

 49 51  0  0  0  0  0  0  0  0999 V2000
   -8.8360   20.7860  -30.9430 C   0  0  0  0  0  0  0  0  0  0  0  0
   -8.2000   19.5930  -31.3790 O   0  0  0  0  0  0  0  0  0  0  0  0
   -7.6390   19.4520  -32.6510 C   0  0  0  0  0  0  0  0  0  0  0  0
   -7.7010   20.3970  -33.4800 O   0  0  0  0  0  0  0  0  0  0  0  0
   -6.9820   18.1970  -33.0440 C   0  0  0  0  0  0  0  0  0  0  0  0
   -7.6130   17.0470  -33.1150 O   0  0  0  0  0  0  0  0  0  0  0  0
   -6.8120   16.0850  -33.4710 N   0  0  0  0  0  0  0  0  0  0  0  0
   -5.5920   16.6290  -33.6420 C   0  0  0  0  0  0  0  0  0  0  0  0
   -4.3950   15.8430  -34.0680 C   0  0  0  0  0  0  0  0  0  0  0  0
   -5.6550   17.9880  -33.3850 C   0  0  0  0  0  0  0  0  0  0  0  0
   -4.3340   19.1640  -33.4140 S   0  0  0  0  0  0  0  0  0  0  0  0
   -3.4400   18.8490  -34.5790 O   0  0  0  0  0  0  0  0  0  0  0  0
   -3.5230   19.1000  -32.1510 O   0  0  0  0  0  0  0  0  0  0  0  0
   -4.9780   20.7650  -33.5940 N   0  0  0  0  0  0  0  0  0  0  0  0
   -4.7040   21.7840  -32.6270 C   0  0  0  0  0  0  0  0  0  0  0  0
   -5.7670   22.4670  -32.0200 C   0  0  0  0  0  0  0  0  0  0  0  0
   -5.5210   23.3810  -30.9940 C   0  0  0  0  0  0  0  0  0  0  0  0
   -4.2060   23.6450  -30.5790 C   0  0  0  0  0  0  0  0  0  0  0  0
   -3.9490   24.5480  -29.4400 C   0  0  0  0  0  0  0  0  0  0  0  0
   -4.8080   24.6510  -28.5240 O   0  0  0  0  0  0  0  0  0  0  0  0
   -2.7260   25.2900  -29.3350 N   0  0  0  0  0  0  0  0  0  0  0  0
   -1.6380   24.9800  -28.4520 C   0  0  0  0  0  0  0  0  0  0  0  0
   -1.5690   25.5100  -27.1510 C   0  0  0  0  0  0  0  0  0  0  0  0
   -0.5090   25.1710  -26.3080 C   0  0  0  0  0  0  0  0  0  0  0  0
    0.4900   24.2910  -26.7380 C   0  0  0  0  0  0  0  0  0  0  0  0
    1.5350   23.9820  -25.8540 O   0  0  0  0  0  0  0  0  0  0  0  0
    1.7290   24.6050  -24.5880 C   0  0  0  0  0  0  0  0  0  0  0  0
    0.4110   23.7430  -28.0340 C   0  0  0  0  0  0  0  0  0  0  0  0
   -0.6510   24.0830  -28.8790 C   0  0  0  0  0  0  0  0  0  0  0  0
   -3.1370   23.0130  -31.2340 C   0  0  0  0  0  0  0  0  0  0  0  0
   -3.3860   22.0800  -32.2450 C   0  0  0  0  0  0  0  0  0  0  0  0
   -8.8504   20.8130  -29.8434 H   0  0  0  0  0  0  0  0  0  0  0  0
   -8.2825   21.6569  -31.3240 H   0  0  0  0  0  0  0  0  0  0  0  0
   -9.8676   20.8119  -31.3240 H   0  0  0  0  0  0  0  0  0  0  0  0
   -3.8540   15.4878  -33.1785 H   0  0  0  0  0  0  0  0  0  0  0  0
   -4.7178   14.9805  -34.6696 H   0  0  0  0  0  0  0  0  0  0  0  0
   -3.7318   16.4820  -34.6696 H   0  0  0  0  0  0  0  0  0  0  0  0
   -5.7950   20.8820  -34.2340 H   0  0  0  0  0  0  0  0  0  0  0  0
   -6.7988   22.2820  -32.3534 H   0  0  0  0  0  0  0  0  0  0  0  0
   -6.3620   23.8972  -30.5080 H   0  0  0  0  0  0  0  0  0  0  0  0
   -2.3536   26.1945  -26.7962 H   0  0  0  0  0  0  0  0  0  0  0  0
   -0.4588   25.5998  -25.2963 H   0  0  0  0  0  0  0  0  0  0  0  0
    1.5049   23.8852  -23.7870 H   0  0  0  0  0  0  0  0  0  0  0  0
    2.7735   24.9384  -24.4996 H   0  0  0  0  0  0  0  0  0  0  0  0
    1.0585   25.4725  -24.4996 H   0  0  0  0  0  0  0  0  0  0  0  0
    1.1870   23.0455  -28.3824 H   0  0  0  0  0  0  0  0  0  0  0  0
   -0.7111   23.6429  -29.8853 H   0  0  0  0  0  0  0  0  0  0  0  0
   -2.1013   23.2524  -30.9511 H   0  0  0  0  0  0  0  0  0  0  0  0
   -2.5452   21.5755  -32.7435 H   0  0  0  0  0  0  0  0  0  0  0  0
  1  2  1  0
  2  3  1  0
  3  4  2  0
  3  5  1  0
  5  6  1  0
  6  7  1  0
  7  8  2  0
  8  9  1  0
  8 10  1  0
 10 11  1  0
 11 12  2  0
 11 13  2  0
 11 14  1  0
 14 15  1  0
 15 16  2  0
 16 17  1  0
 17 18  2  0
 18 19  1  0
 19 20  2  0
 19 21  1  0
 21 22  1  0
 22 23  2  0
 23 24  1  0
 24 25  2  0
 25 26  1  0
 26 27  1  0
 25 28  1  0
 28 29  2  0
 18 30  1  0
 30 31  2  0
 10  5  2  0
 31 15  1  0
 29 22  1  0
  1 32  1  0
  1 33  1  0
  1 34  1  0
  9 35  1  0
  9 36  1  0
  9 37  1  0
 14 38  1  0
 16 39  1  0
 17 40  1  0
 23 41  1  0
 24 42  1  0
 27 43  1  0
 27 44  1  0
 27 45  1  0
 28 46  1  0
 29 47  1  0
 30 48  1  0
 31 49  1  0
M  CHG  1  21  -1
M  END
>  <UniqueID>  (14) 
14

>  <SMILES>  (14) 
COC(=O)c1onc(C)c1S(=O)(=O)Nc1ccc(C(=O)[N-]c2ccc(OC)cc2)cc1

>  <Energy>  (14) 
86.49727448905342

>  <Genealogy>  (14) 
COC(=O)c1onc(C)c1S(=O)(=O)Nc1ccc(C(=O)[N-]c2ccc(OC)cc2)cc1 (protonated)
COC(=O)c1onc(C)c1S(=O)(=O)Nc1ccc(C(=O)[N-]c2ccc(OC)cc2)cc1 (3D coordinates assigned)
COC(=O)c1onc(C)c1S(=O)(=O)Nc1ccc(C(=O)[N-]c2ccc(OC)cc2)cc1 (optimized conformer: 86.49727448905342 kcal/mol)

>  <smiles>  (14) 
COC(=O)c1onc(C)c1S(=O)(=O)Nc1ccc(C(=O)Nc2ccc(OC)cc2)cc1

>  <score_type>  (14) 
oracle

>  <origin>  (14) 
adgpu

>  <m_score__min__energy>  (14) 
-9.8599999999999994

>  <m_primary>  (14) 
energy

$$$$
14:0
     RDKit          3D

 46 48  0  0  0  0  0  0  0  0999 V2000
   -6.4940   24.8160  -31.0750 C   0  0  0  0  0  0  0  0  0  0  0  0
   -6.9820   23.4130  -31.3210 C   0  0  0  0  0  0  0  0  0  0  0  0
   -8.3270   23.2120  -31.6690 C   0  0  0  0  0  0  0  0  0  0  0  0
   -8.8070   21.9290  -31.9430 C   0  0  0  0  0  0  0  0  0  0  0  0
   -7.9470   20.8270  -31.8760 C   0  0  0  0  0  0  0  0  0  0  0  0
   -8.5390   19.2010  -32.2060 S   0  0  0  0  0  0  0  0  0  0  0  0
   -8.9190   18.5200  -30.9200 O   0  0  0  0  0  0  0  0  0  0  0  0
   -9.7600   19.3030  -33.0760 O   0  0  0  0  0  0  0  0  0  0  0  0
   -7.2990   18.2870  -33.0270 N   0  0  0  0  0  0  0  0  0  0  0  0
   -6.4880   19.1840  -33.8670 C   0  0  0  0  0  0  0  0  0  0  0  0
   -5.5330   18.3670  -34.7590 C   0  0  0  0  0  0  0  0  0  0  0  0
   -5.2340   16.9740  -34.1790 C   0  0  0  0  0  0  0  0  0  0  0  0
   -5.1590   17.0210  -32.6510 C   0  0  0  0  0  0  0  0  0  0  0  0
   -6.4560   17.5890  -32.0320 C   0  0  0  0  0  0  0  0  0  0  0  0
   -6.6100   21.0150  -31.5070 C   0  0  0  0  0  0  0  0  0  0  0  0
   -6.1240   22.2940  -31.2020 C   0  0  0  0  0  0  0  0  0  0  0  0
   -4.7510   22.4360  -30.8110 N   0  0  0  0  0  0  0  0  0  0  0  0
   -4.3680   22.9980  -29.5460 C   0  0  0  0  0  0  0  0  0  0  0  0
   -5.2330   23.1310  -28.6370 O   0  0  0  0  0  0  0  0  0  0  0  0
   -2.9650   23.3990  -29.2840 C   0  0  0  0  0  0  0  0  0  0  0  0
   -1.9970   22.4340  -28.9540 C   0  0  0  0  0  0  0  0  0  0  0  0
   -0.6800   22.8190  -28.7000 C   0  0  0  0  0  0  0  0  0  0  0  0
   -0.3370   24.1720  -28.7660 C   0  0  0  0  0  0  0  0  0  0  0  0
    0.8450   24.5360  -28.5380 O   0  0  0  0  0  0  0  0  0  0  0  0
   -1.2830   25.0970  -29.0750 N   0  0  0  0  0  0  0  0  0  0  0  0
   -2.5720   24.7490  -29.3320 C   0  0  0  0  0  0  0  0  0  0  0  0
   -6.4308   24.9976  -29.9919 H   0  0  0  0  0  0  0  0  0  0  0  0
   -5.4990   24.9426  -31.5267 H   0  0  0  0  0  0  0  0  0  0  0  0
   -7.1956   25.5327  -31.5267 H   0  0  0  0  0  0  0  0  0  0  0  0
   -9.0094   24.0728  -31.7265 H   0  0  0  0  0  0  0  0  0  0  0  0
   -9.8637   21.7846  -32.2121 H   0  0  0  0  0  0  0  0  0  0  0  0
   -7.1540   19.7846  -34.5039 H   0  0  0  0  0  0  0  0  0  0  0  0
   -5.8932   19.8416  -33.2160 H   0  0  0  0  0  0  0  0  0  0  0  0
   -5.9937   18.2451  -35.7504 H   0  0  0  0  0  0  0  0  0  0  0  0
   -4.5813   18.9152  -34.8205 H   0  0  0  0  0  0  0  0  0  0  0  0
   -6.0333   16.2803  -34.4788 H   0  0  0  0  0  0  0  0  0  0  0  0
   -4.2628   16.6336  -34.5674 H   0  0  0  0  0  0  0  0  0  0  0  0
   -4.9993   16.0014  -32.2705 H   0  0  0  0  0  0  0  0  0  0  0  0
   -4.3264   17.6822  -32.3689 H   0  0  0  0  0  0  0  0  0  0  0  0
   -7.0340   16.7587  -31.6001 H   0  0  0  0  0  0  0  0  0  0  0  0
   -6.1673   18.3224  -31.2647 H   0  0  0  0  0  0  0  0  0  0  0  0
   -5.9331   20.1495  -31.4558 H   0  0  0  0  0  0  0  0  0  0  0  0
   -4.0330   21.9110  -31.3590 H   0  0  0  0  0  0  0  0  0  0  0  0
   -2.2788   21.3723  -28.8959 H   0  0  0  0  0  0  0  0  0  0  0  0
    0.0808   22.0648  -28.4503 H   0  0  0  0  0  0  0  0  0  0  0  0
   -3.3105   25.5261  -29.5784 H   0  0  0  0  0  0  0  0  0  0  0  0
  1  2  1  0
  2  3  2  0
  3  4  1  0
  4  5  2  0
  5  6  1  0
  6  7  2  0
  6  8  2  0
  6  9  1  0
  9 10  1  0
 10 11  1  0
 11 12  1  0
 12 13  1  0
 13 14  1  0
  5 15  1  0
 15 16  2  0
 16 17  1  0
 17 18  1  0
 18 19  2  0
 18 20  1  0
 20 21  1  0
 21 22  2  0
 22 23  1  0
 23 24  2  0
 23 25  1  0
 25 26  1  0
 16  2  1  0
 26 20  2  0
 14  9  1  0
  1 27  1  0
  1 28  1  0
  1 29  1  0
  3 30  1  0
  4 31  1  0
 10 32  1  0
 10 33  1  0
 11 34  1  0
 11 35  1  0
 12 36  1  0
 12 37  1  0
 13 38  1  0
 13 39  1  0
 14 40  1  0
 14 41  1  0
 15 42  1  0
 17 43  1  0
 21 44  1  0
 22 45  1  0
 26 46  1  0
M  CHG  1  25  -1
M  END
>  <UniqueID>  (15) 
15

>  <SMILES>  (15) 
Cc1ccc(S(=O)(=O)N2CCCCC2)cc1NC(=O)c1ccc(=O)[n-]c1

>  <Energy>  (15) 
58.329453452660346

>  <Genealogy>  (15) 
Cc1ccc(S(=O)(=O)N2CCCCC2)cc1NC(=O)c1ccc(=O)[n-]c1 (protonated)
Cc1ccc(S(=O)(=O)N2CCCCC2)cc1NC(=O)c1ccc(=O)[n-]c1 (3D coordinates assigned)
Cc1ccc(S(=O)(=O)N2CCCCC2)cc1NC(=O)c1ccc(=O)[n-]c1 (nonaromatic ring conformer: 58.329453452660346 kcal/mol)

>  <smiles>  (15) 
Cc1ccc(S(=O)(=O)N2CCCCC2)cc1NC(=O)c1ccc(=O)[nH]c1

>  <score_type>  (15) 
oracle

>  <origin>  (15) 
adgpu

>  <m_score__min__energy>  (15) 
-10.779999999999999

>  <m_primary>  (15) 
energy

$$$$
15:0
     RDKit          3D

 67 71  0  0  0  0  0  0  0  0999 V2000
    1.6460   18.6990  -31.1440 O   0  0  0  0  0  0  0  0  0  0  0  0
    0.4550   18.9080  -30.7940 C   0  0  0  0  0  0  0  0  0  0  0  0
    0.1800   19.3210  -29.4520 N   0  0  0  0  0  0  0  0  0  0  0  0
   -0.6510   20.4480  -29.1560 C   0  0  0  0  0  0  0  0  0  0  0  0
   -0.3860   21.6850  -29.7530 C   0  0  0  0  0  0  0  0  0  0  0  0
   -1.2020   22.7870  -29.4780 C   0  0  0  0  0  0  0  0  0  0  0  0
   -2.2650   22.6700  -28.5690 C   0  0  0  0  0  0  0  0  0  0  0  0
   -3.2910   24.0590  -28.2090 S   0  0  0  0  0  0  0  0  0  0  0  0
   -2.7180   25.2730  -28.8850 O   0  0  0  0  0  0  0  0  0  0  0  0
   -3.2720   24.3100  -26.7270 O   0  0  0  0  0  0  0  0  0  0  0  0
   -4.9420   23.8400  -28.7570 N   0  0  0  0  0  0  0  0  0  0  0  0
   -5.0560   22.8790  -29.8700 C   0  0  0  0  0  0  0  0  0  0  0  0
   -4.7760   23.5130  -31.2510 C   0  0  0  0  0  0  0  0  0  0  0  0
   -4.6590   24.9220  -31.2080 O   0  0  0  0  0  0  0  0  0  0  0  0
   -5.7470   25.4650  -30.4980 C   0  0  0  0  0  0  0  0  0  0  0  0
   -5.6360   25.1220  -29.0030 C   0  0  0  0  0  0  0  0  0  0  0  0
   -2.4930   21.4440  -27.9310 C   0  0  0  0  0  0  0  0  0  0  0  0
   -1.7090   20.3320  -28.2420 C   0  0  0  0  0  0  0  0  0  0  0  0
   -0.6390   18.7890  -31.7810 C   0  0  0  0  0  0  0  0  0  0  0  0
   -1.3790   19.9300  -32.1300 C   0  0  0  0  0  0  0  0  0  0  0  0
   -2.3710   19.8560  -33.1060 C   0  0  0  0  0  0  0  0  0  0  0  0
   -2.6490   18.6430  -33.7360 C   0  0  0  0  0  0  0  0  0  0  0  0
   -3.6270   18.6000  -34.6750 F   0  0  0  0  0  0  0  0  0  0  0  0
   -1.9500   17.4780  -33.3690 C   0  0  0  0  0  0  0  0  0  0  0  0
   -2.3730   15.9250  -34.1010 S   0  0  0  0  0  0  0  0  0  0  0  0
   -2.6800   16.1060  -35.5610 O   0  0  0  0  0  0  0  0  0  0  0  0
   -1.2070   14.9820  -33.9870 O   0  0  0  0  0  0  0  0  0  0  0  0
   -3.7470   15.2200  -33.3110 N   0  0  0  0  0  0  0  0  0  0  0  0
   -4.9400   15.9840  -33.1070 C   0  0  0  0  0  0  0  0  0  0  0  0
   -5.3530   16.3300  -31.8130 C   0  0  0  0  0  0  0  0  0  0  0  0
   -6.4790   17.1370  -31.6260 C   0  0  0  0  0  0  0  0  0  0  0  0
   -7.2340   17.5700  -32.7310 C   0  0  0  0  0  0  0  0  0  0  0  0
   -8.3500   18.4060  -32.5830 O   0  0  0  0  0  0  0  0  0  0  0  0
   -8.2970   19.7940  -32.3850 C   0  0  0  0  0  0  0  0  0  0  0  0
   -7.1160   20.5250  -32.6010 C   0  0  0  0  0  0  0  0  0  0  0  0
   -7.0960   21.9080  -32.3930 C   0  0  0  0  0  0  0  0  0  0  0  0
   -8.2490   22.5650  -31.9540 C   0  0  0  0  0  0  0  0  0  0  0  0
   -9.4190   21.8390  -31.7130 C   0  0  0  0  0  0  0  0  0  0  0  0
   -9.4400   20.4560  -31.9200 C   0  0  0  0  0  0  0  0  0  0  0  0
   -6.8330   17.1980  -34.0190 C   0  0  0  0  0  0  0  0  0  0  0  0
   -5.6990   16.4020  -34.2070 C   0  0  0  0  0  0  0  0  0  0  0  0
   -0.9360   17.5580  -32.3950 C   0  0  0  0  0  0  0  0  0  0  0  0
   -0.2640   16.4410  -32.0170 F   0  0  0  0  0  0  0  0  0  0  0  0
    0.4662   21.7912  -30.4404 H   0  0  0  0  0  0  0  0  0  0  0  0
   -1.0100   23.7489  -29.9759 H   0  0  0  0  0  0  0  0  0  0  0  0
   -4.3337   22.0658  -29.7055 H   0  0  0  0  0  0  0  0  0  0  0  0
   -6.0934   22.5133  -29.8819 H   0  0  0  0  0  0  0  0  0  0  0  0
   -3.8358   23.0966  -31.6418 H   0  0  0  0  0  0  0  0  0  0  0  0
   -5.6347   23.2776  -31.8969 H   0  0  0  0  0  0  0  0  0  0  0  0
   -5.7501   26.5582  -30.6198 H   0  0  0  0  0  0  0  0  0  0  0  0
   -6.6803   25.0381  -30.8938 H   0  0  0  0  0  0  0  0  0  0  0  0
   -5.0785   25.9253  -28.4990 H   0  0  0  0  0  0  0  0  0  0  0  0
   -6.6587   25.0246  -28.6098 H   0  0  0  0  0  0  0  0  0  0  0  0
   -3.2935   21.3573  -27.1815 H   0  0  0  0  0  0  0  0  0  0  0  0
   -1.9213   19.3618  -27.7691 H   0  0  0  0  0  0  0  0  0  0  0  0
   -1.1745   20.8882  -31.6300 H   0  0  0  0  0  0  0  0  0  0  0  0
   -2.9373   20.7581  -33.3807 H   0  0  0  0  0  0  0  0  0  0  0  0
   -3.8290   14.1800  -33.3500 H   0  0  0  0  0  0  0  0  0  0  0  0
   -4.7892   15.9653  -30.9417 H   0  0  0  0  0  0  0  0  0  0  0  0
   -6.7761   17.4349  -30.6096 H   0  0  0  0  0  0  0  0  0  0  0  0
   -6.2044   20.0077  -32.9348 H   0  0  0  0  0  0  0  0  0  0  0  0
   -6.1732   22.4784  -32.5748 H   0  0  0  0  0  0  0  0  0  0  0  0
   -8.2357   23.6538  -31.7981 H   0  0  0  0  0  0  0  0  0  0  0  0
  -10.3237   22.3558  -31.3603 H   0  0  0  0  0  0  0  0  0  0  0  0
  -10.3584   19.8858  -31.7166 H   0  0  0  0  0  0  0  0  0  0  0  0
   -7.4143   17.5344  -34.8902 H   0  0  0  0  0  0  0  0  0  0  0  0
   -5.4019   16.1029  -35.2230 H   0  0  0  0  0  0  0  0  0  0  0  0
  1  2  2  0
  2  3  1  0
  3  4  1  0
  4  5  2  0
  5  6  1  0
  6  7  2  0
  7  8  1  0
  8  9  2  0
  8 10  2  0
  8 11  1  0
 11 12  1  0
 12 13  1  0
 13 14  1  0
 14 15  1  0
 15 16  1  0
  7 17  1  0
 17 18  2  0
  2 19  1  0
 19 20  2  0
 20 21  1  0
 21 22  2  0
 22 23  1  0
 22 24  1  0
 24 25  1  0
 25 26  2  0
 25 27  2  0
 25 28  1  0
 28 29  1  0
 29 30  2  0
 30 31  1  0
 31 32  2  0
 32 33  1  0
 33 34  1  0
 34 35  2  0
 35 36  1  0
 36 37  2  0
 37 38  1  0
 38 39  2  0
 32 40  1  0
 40 41  2  0
 24 42  2  0
 42 43  1  0
 18  4  1  0
 42 19  1  0
 16 11  1  0
 41 29  1  0
 39 34  1  0
  5 44  1  0
  6 45  1  0
 12 46  1  0
 12 47  1  0
 13 48  1  0
 13 49  1  0
 15 50  1  0
 15 51  1  0
 16 52  1  0
 16 53  1  0
 17 54  1  0
 18 55  1  0
 20 56  1  0
 21 57  1  0
 28 58  1  0
 30 59  1  0
 31 60  1  0
 35 61  1  0
 36 62  1  0
 37 63  1  0
 38 64  1  0
 39 65  1  0
 40 66  1  0
 41 67  1  0
M  CHG  1   3  -1
M  END
>  <UniqueID>  (16) 
16

>  <SMILES>  (16) 
O=C([N-]c1ccc(S(=O)(=O)N2CCOCC2)cc1)c1ccc(F)c(S(=O)(=O)Nc2ccc(Oc3ccccc3)cc2)c1F

>  <Energy>  (16) 
103.98572370652899

>  <Genealogy>  (16) 
O=C([N-]c1ccc(S(=O)(=O)N2CCOCC2)cc1)c1ccc(F)c(S(=O)(=O)Nc2ccc(Oc3ccccc3)cc2)c1F (protonated)
O=C([N-]c1ccc(S(=O)(=O)N2CCOCC2)cc1)c1ccc(F)c(S(=O)(=O)Nc2ccc(Oc3ccccc3)cc2)c1F (3D coordinates assigned)
O=C([N-]c1ccc(S(=O)(=O)N2CCOCC2)cc1)c1ccc(F)c(S(=O)(=O)Nc2ccc(Oc3ccccc3)cc2)c1F (nonaromatic ring conformer: 103.98572370652899 kcal/mol)

>  <smiles>  (16) 
O=C(Nc1ccc(S(=O)(=O)N2CCOCC2)cc1)c1ccc(F)c(S(=O)(=O)Nc2ccc(Oc3ccccc3)cc2)c1F

>  <score_type>  (16) 
oracle

>  <origin>  (16) 
adgpu

>  <m_score__min__energy>  (16) 
-12.109999999999999

>  <m_primary>  (16) 
energy

$$$$
16:0
     RDKit          3D

 42 45  0  0  0  0  0  0  0  0999 V2000
   -5.5980   24.7570  -29.2000 O   0  0  0  0  0  0  0  0  0  0  0  0
   -4.3870   24.2380  -29.9260 S   0  0  0  0  0  0  0  0  0  0  0  0
   -3.8850   25.3130  -30.8480 O   0  0  0  0  0  0  0  0  0  0  0  0
   -3.1220   23.8000  -28.7840 C   0  0  0  0  0  0  0  0  0  0  0  0
   -3.1470   22.5610  -28.1250 C   0  0  0  0  0  0  0  0  0  0  0  0
   -2.1280   22.2250  -27.2260 C   0  0  0  0  0  0  0  0  0  0  0  0
   -1.0830   23.1210  -26.9840 C   0  0  0  0  0  0  0  0  0  0  0  0
   -1.0550   24.3550  -27.6410 C   0  0  0  0  0  0  0  0  0  0  0  0
   -2.0710   24.6940  -28.5390 C   0  0  0  0  0  0  0  0  0  0  0  0
   -4.8370   22.8420  -30.8410 N   0  0  0  0  0  0  0  0  0  0  0  0
   -4.0300   22.1490  -31.6610 C   0  0  0  0  0  0  0  0  0  0  0  0
   -4.7420   21.0750  -32.1590 C   0  0  0  0  0  0  0  0  0  0  0  0
   -4.1940   19.9930  -33.0040 C   0  0  0  0  0  0  0  0  0  0  0  0
   -2.8210   19.6990  -32.9650 C   0  0  0  0  0  0  0  0  0  0  0  0
   -2.2970   18.6680  -33.7510 C   0  0  0  0  0  0  0  0  0  0  0  0
   -3.1410   17.9140  -34.5720 C   0  0  0  0  0  0  0  0  0  0  0  0
   -2.6300   16.9150  -35.3330 F   0  0  0  0  0  0  0  0  0  0  0  0
   -4.5100   18.1870  -34.6030 C   0  0  0  0  0  0  0  0  0  0  0  0
   -5.0380   19.2170  -33.8180 C   0  0  0  0  0  0  0  0  0  0  0  0
   -6.0090   21.1960  -31.5870 C   0  0  0  0  0  0  0  0  0  0  0  0
   -7.2000   20.3530  -31.8260 C   0  0  0  0  0  0  0  0  0  0  0  0
   -7.1580   18.9620  -31.6180 C   0  0  0  0  0  0  0  0  0  0  0  0
   -8.2880   18.1780  -31.8660 C   0  0  0  0  0  0  0  0  0  0  0  0
   -9.4630   18.7700  -32.3340 C   0  0  0  0  0  0  0  0  0  0  0  0
   -9.5070   20.1470  -32.5650 C   0  0  0  0  0  0  0  0  0  0  0  0
   -8.3790   20.9360  -32.3190 C   0  0  0  0  0  0  0  0  0  0  0  0
   -6.0320   22.2780  -30.7820 N   0  0  0  0  0  0  0  0  0  0  0  0
   -3.9677   21.8537  -28.3151 H   0  0  0  0  0  0  0  0  0  0  0  0
   -2.1497   21.2542  -26.7092 H   0  0  0  0  0  0  0  0  0  0  0  0
   -0.2831   22.8556  -26.2771 H   0  0  0  0  0  0  0  0  0  0  0  0
   -0.2323   25.0599  -27.4509 H   0  0  0  0  0  0  0  0  0  0  0  0
   -2.0456   25.6652  -29.0548 H   0  0  0  0  0  0  0  0  0  0  0  0
   -2.9836   22.3941  -31.8954 H   0  0  0  0  0  0  0  0  0  0  0  0
   -2.1547   20.2827  -32.3129 H   0  0  0  0  0  0  0  0  0  0  0  0
   -1.2192   18.4498  -33.7234 H   0  0  0  0  0  0  0  0  0  0  0  0
   -5.1743   17.5909  -35.2459 H   0  0  0  0  0  0  0  0  0  0  0  0
   -6.1187   19.4210  -33.8375 H   0  0  0  0  0  0  0  0  0  0  0  0
   -6.2318   18.4897  -31.2587 H   0  0  0  0  0  0  0  0  0  0  0  0
   -8.2518   17.0924  -31.6922 H   0  0  0  0  0  0  0  0  0  0  0  0
  -10.3537   18.1521  -32.5207 H   0  0  0  0  0  0  0  0  0  0  0  0
  -10.4305   20.6114  -32.9410 H   0  0  0  0  0  0  0  0  0  0  0  0
   -8.4152   22.0182  -32.5125 H   0  0  0  0  0  0  0  0  0  0  0  0
  1  2  2  0
  2  3  2  0
  2  4  1  0
  4  5  2  0
  5  6  1  0
  6  7  2  0
  7  8  1  0
  8  9  2  0
  2 10  1  0
 10 11  1  0
 11 12  2  0
 12 13  1  0
 13 14  2  0
 14 15  1  0
 15 16  2  0
 16 17  1  0
 16 18  1  0
 18 19  2  0
 12 20  1  0
 20 21  1  0
 21 22  2  0
 22 23  1  0
 23 24  2  0
 24 25  1  0
 25 26  2  0
 20 27  2  0
  9  4  1  0
 27 10  1  0
 19 13  1  0
 26 21  1  0
  5 28  1  0
  6 29  1  0
  7 30  1  0
  8 31  1  0
  9 32  1  0
 11 33  1  0
 14 34  1  0
 15 35  1  0
 18 36  1  0
 19 37  1  0
 22 38  1  0
 23 39  1  0
 24 40  1  0
 25 41  1  0
 26 42  1  0
M  END
>  <UniqueID>  (17) 
17

>  <SMILES>  (17) 
O=S(=O)(c1ccccc1)n1cc(-c2ccc(F)cc2)c(-c2ccccc2)n1

>  <Energy>  (17) 
86.72622046481955

>  <Genealogy>  (17) 
O=S(=O)(c1ccccc1)n1cc(-c2ccc(F)cc2)c(-c2ccccc2)n1 (3D coordinates assigned)
O=S(=O)(c1ccccc1)n1cc(-c2ccc(F)cc2)c(-c2ccccc2)n1 (optimized conformer: 86.72622046481955 kcal/mol)

>  <smiles>  (17) 
O=S(=O)(c1ccccc1)n1cc(-c2ccc(F)cc2)c(-c2ccccc2)n1

>  <score_type>  (17) 
oracle

>  <origin>  (17) 
adgpu

>  <m_score__min__energy>  (17) 
-9.6400000000000006

>  <m_primary>  (17) 
energy

$$$$
17:0
     RDKit          3D

 46 48  0  0  0  0  0  0  0  0999 V2000
   -7.5380   20.2260  -32.7690 C   0  0  0  0  0  0  0  0  0  0  0  0
   -6.9230   21.5020  -32.2590 C   0  0  0  0  0  0  0  0  0  0  0  0
   -7.7510   22.4910  -31.7020 C   0  0  0  0  0  0  0  0  0  0  0  0
   -7.2060   23.6700  -31.1910 C   0  0  0  0  0  0  0  0  0  0  0  0
   -5.8220   23.8850  -31.2260 C   0  0  0  0  0  0  0  0  0  0  0  0
   -5.2470   25.1040  -30.6090 C   0  0  0  0  0  0  0  0  0  0  0  0
   -6.0220   26.0170  -30.2180 O   0  0  0  0  0  0  0  0  0  0  0  0
   -3.8310   25.2960  -30.4630 N   0  0  0  0  0  0  0  0  0  0  0  0
   -2.9210   24.4780  -29.7090 C   0  0  0  0  0  0  0  0  0  0  0  0
   -2.3130   25.0160  -28.5680 C   0  0  0  0  0  0  0  0  0  0  0  0
   -1.4020   24.2560  -27.8290 C   0  0  0  0  0  0  0  0  0  0  0  0
   -1.0870   22.9540  -28.2280 C   0  0  0  0  0  0  0  0  0  0  0  0
   -1.7020   22.3970  -29.3570 C   0  0  0  0  0  0  0  0  0  0  0  0
   -1.2380   20.7860  -29.9020 S   0  0  0  0  0  0  0  0  0  0  0  0
    0.2640   20.7060  -29.8920 O   0  0  0  0  0  0  0  0  0  0  0  0
   -1.7940   19.7600  -28.9550 O   0  0  0  0  0  0  0  0  0  0  0  0
   -1.8340   20.5140  -31.5270 N   0  0  0  0  0  0  0  0  0  0  0  0
   -1.5140   19.1530  -31.9780 C   0  0  0  0  0  0  0  0  0  0  0  0
   -2.1400   18.9110  -33.3690 C   0  0  0  0  0  0  0  0  0  0  0  0
   -2.5450   20.1140  -34.0030 O   0  0  0  0  0  0  0  0  0  0  0  0
   -1.5140   21.0770  -33.9260 C   0  0  0  0  0  0  0  0  0  0  0  0
   -1.2700   21.5020  -32.4640 C   0  0  0  0  0  0  0  0  0  0  0  0
   -2.6440   23.1490  -30.0720 C   0  0  0  0  0  0  0  0  0  0  0  0
   -4.9940   22.9210  -31.8240 C   0  0  0  0  0  0  0  0  0  0  0  0
   -5.5280   21.7260  -32.3290 C   0  0  0  0  0  0  0  0  0  0  0  0
   -4.6400   20.7550  -32.8980 N   0  0  0  0  0  0  0  0  0  0  0  0
   -7.8403   19.5987  -31.9174 H   0  0  0  0  0  0  0  0  0  0  0  0
   -8.4206   20.4634  -33.3811 H   0  0  0  0  0  0  0  0  0  0  0  0
   -6.8024   19.6835  -33.3811 H   0  0  0  0  0  0  0  0  0  0  0  0
   -8.8393   22.3346  -31.6683 H   0  0  0  0  0  0  0  0  0  0  0  0
   -7.8672   24.4351  -30.7581 H   0  0  0  0  0  0  0  0  0  0  0  0
   -2.5535   26.0417  -28.2518 H   0  0  0  0  0  0  0  0  0  0  0  0
   -0.9318   24.6836  -26.9312 H   0  0  0  0  0  0  0  0  0  0  0  0
   -0.3552   22.3658  -27.6548 H   0  0  0  0  0  0  0  0  0  0  0  0
   -0.4222   19.0351  -32.0417 H   0  0  0  0  0  0  0  0  0  0  0  0
   -1.9203   18.4242  -31.2612 H   0  0  0  0  0  0  0  0  0  0  0  0
   -1.3973   18.4096  -34.0069 H   0  0  0  0  0  0  0  0  0  0  0  0
   -3.0377   18.2915  -33.2266 H   0  0  0  0  0  0  0  0  0  0  0  0
   -0.5880   20.6476  -34.3361 H   0  0  0  0  0  0  0  0  0  0  0  0
   -1.8146   21.9625  -34.5052 H   0  0  0  0  0  0  0  0  0  0  0  0
   -0.1872   21.5863  -32.2896 H   0  0  0  0  0  0  0  0  0  0  0  0
   -1.7637   22.4699  -32.2927 H   0  0  0  0  0  0  0  0  0  0  0  0
   -3.1709   22.6952  -30.9243 H   0  0  0  0  0  0  0  0  0  0  0  0
   -3.9121   23.1055  -31.8974 H   0  0  0  0  0  0  0  0  0  0  0  0
   -4.7300   20.4290  -33.8850 H   0  0  0  0  0  0  0  0  0  0  0  0
   -3.8670   20.3450  -32.3270 H   0  0  0  0  0  0  0  0  0  0  0  0
  1  2  1  0
  2  3  2  0
  3  4  1  0
  4  5  2  0
  5  6  1  0
  6  7  2  0
  6  8  1  0
  8  9  1  0
  9 10  2  0
 10 11  1  0
 11 12  2  0
 12 13  1  0
 13 14  1  0
 14 15  2  0
 14 16  2  0
 14 17  1  0
 17 18  1  0
 18 19  1  0
 19 20  1  0
 20 21  1  0
 21 22  1  0
 13 23  2  0
  5 24  1  0
 24 25  2  0
 25 26  1  0
 25  2  1  0
 23  9  1  0
 22 17  1  0
  1 27  1  0
  1 28  1  0
  1 29  1  0
  3 30  1  0
  4 31  1  0
 10 32  1  0
 11 33  1  0
 12 34  1  0
 18 35  1  0
 18 36  1  0
 19 37  1  0
 19 38  1  0
 21 39  1  0
 21 40  1  0
 22 41  1  0
 22 42  1  0
 23 43  1  0
 24 44  1  0
 26 45  1  0
 26 46  1  0
M  CHG  1   8  -1
M  END
>  <UniqueID>  (18) 
18

>  <SMILES>  (18) 
Cc1ccc(C(=O)[N-]c2cccc(S(=O)(=O)N3CCOCC3)c2)cc1N

>  <Energy>  (18) 
59.14434862699604

>  <Genealogy>  (18) 
Cc1ccc(C(=O)[N-]c2cccc(S(=O)(=O)N3CCOCC3)c2)cc1N (protonated)
Cc1ccc(C(=O)[N-]c2cccc(S(=O)(=O)N3CCOCC3)c2)cc1N (3D coordinates assigned)
Cc1ccc(C(=O)[N-]c2cccc(S(=O)(=O)N3CCOCC3)c2)cc1N (nonaromatic ring conformer: 59.14434862699604 kcal/mol)

>  <smiles>  (18) 
Cc1ccc(C(=O)Nc2cccc(S(=O)(=O)N3CCOCC3)c2)cc1N

>  <score_type>  (18) 
oracle

>  <origin>  (18) 
adgpu

>  <m_score__min__energy>  (18) 
-9.0899999999999999

>  <m_primary>  (18) 
energy

$$$$
18:0
     RDKit          3D

 68 72  0  0  0  0  0  0  0  0999 V2000
   -0.8970   21.8900  -31.2300 C   0  0  0  0  0  0  0  0  0  0  0  0
   -2.0920   21.1730  -31.8710 C   0  0  0  0  0  0  0  0  0  0  0  0
   -2.2550   19.7370  -31.3140 C   0  0  0  0  0  0  0  0  0  0  0  0
   -1.5940   18.6950  -32.2300 C   0  0  0  0  0  0  0  0  0  0  0  0
   -2.1370   18.7130  -33.6120 N   0  0  0  0  0  0  0  0  0  0  0  0
   -3.3020   17.4310  -33.8440 S   0  0  0  0  0  0  0  0  0  0  0  0
   -3.2810   16.9820  -35.2800 O   0  0  0  0  0  0  0  0  0  0  0  0
   -2.9600   16.2580  -32.9680 O   0  0  0  0  0  0  0  0  0  0  0  0
   -4.9080   18.0130  -33.4130 C   0  0  0  0  0  0  0  0  0  0  0  0
   -5.5080   17.5780  -32.2220 C   0  0  0  0  0  0  0  0  0  0  0  0
   -6.7790   18.0360  -31.8650 C   0  0  0  0  0  0  0  0  0  0  0  0
   -7.4590   18.9470  -32.6920 C   0  0  0  0  0  0  0  0  0  0  0  0
   -8.7350   19.4890  -32.3250 N   0  0  0  0  0  0  0  0  0  0  0  0
   -8.9830   20.8320  -31.8920 C   0  0  0  0  0  0  0  0  0  0  0  0
  -10.1770   21.2120  -31.7690 O   0  0  0  0  0  0  0  0  0  0  0  0
   -7.8820   21.7520  -31.5110 C   0  0  0  0  0  0  0  0  0  0  0  0
   -6.8230   22.0230  -32.3980 C   0  0  0  0  0  0  0  0  0  0  0  0
   -5.7500   22.8250  -31.9980 C   0  0  0  0  0  0  0  0  0  0  0  0
   -5.7140   23.3670  -30.7070 C   0  0  0  0  0  0  0  0  0  0  0  0
   -4.3290   24.3280  -30.1800 S   0  0  0  0  0  0  0  0  0  0  0  0
   -4.6120   25.7840  -30.4250 O   0  0  0  0  0  0  0  0  0  0  0  0
   -3.1210   23.9470  -30.9910 O   0  0  0  0  0  0  0  0  0  0  0  0
   -3.9900   24.0770  -28.4840 N   0  0  0  0  0  0  0  0  0  0  0  0
   -2.6540   24.6260  -28.1390 C   0  0  0  0  0  0  0  0  0  0  0  0
   -2.0290   23.9510  -26.9140 C   0  0  0  0  0  0  0  0  0  0  0  0
   -1.9360   22.4820  -27.1870 C   0  0  0  0  0  0  0  0  0  0  0  0
   -0.8060   21.7320  -26.8310 C   0  0  0  0  0  0  0  0  0  0  0  0
   -0.7670   20.3610  -27.1050 C   0  0  0  0  0  0  0  0  0  0  0  0
   -1.8560   19.7390  -27.7230 C   0  0  0  0  0  0  0  0  0  0  0  0
   -2.9820   20.4840  -28.0780 C   0  0  0  0  0  0  0  0  0  0  0  0
   -3.0220   21.8620  -27.8170 C   0  0  0  0  0  0  0  0  0  0  0  0
   -4.2660   22.6730  -28.0800 C   0  0  0  0  0  0  0  0  0  0  0  0
   -6.7700   23.1090  -29.8240 C   0  0  0  0  0  0  0  0  0  0  0  0
   -7.8440   22.3080  -30.2200 C   0  0  0  0  0  0  0  0  0  0  0  0
   -6.8480   19.3960  -33.8680 C   0  0  0  0  0  0  0  0  0  0  0  0
   -5.5840   18.9240  -34.2340 C   0  0  0  0  0  0  0  0  0  0  0  0
   -2.7230   20.0070  -34.0280 C   0  0  0  0  0  0  0  0  0  0  0  0
   -1.9660   21.1870  -33.4130 C   0  0  0  0  0  0  0  0  0  0  0  0
   -0.9830   21.8384  -30.1346 H   0  0  0  0  0  0  0  0  0  0  0  0
    0.0365   21.4027  -31.5479 H   0  0  0  0  0  0  0  0  0  0  0  0
   -0.8876   22.9430  -31.5479 H   0  0  0  0  0  0  0  0  0  0  0  0
   -3.0086   21.7200  -31.6050 H   0  0  0  0  0  0  0  0  0  0  0  0
   -1.7880   19.6850  -30.3194 H   0  0  0  0  0  0  0  0  0  0  0  0
   -3.3300   19.5109  -31.2563 H   0  0  0  0  0  0  0  0  0  0  0  0
   -0.5144   18.9012  -32.2744 H   0  0  0  0  0  0  0  0  0  0  0  0
   -1.8040   17.7021  -31.8058 H   0  0  0  0  0  0  0  0  0  0  0  0
   -4.9757   16.8733  -31.5662 H   0  0  0  0  0  0  0  0  0  0  0  0
   -7.2484   17.6830  -30.9349 H   0  0  0  0  0  0  0  0  0  0  0  0
   -6.8399   21.6005  -33.4135 H   0  0  0  0  0  0  0  0  0  0  0  0
   -4.9296   23.0315  -32.7010 H   0  0  0  0  0  0  0  0  0  0  0  0
   -1.9832   24.4827  -28.9989 H   0  0  0  0  0  0  0  0  0  0  0  0
   -2.7878   25.6905  -27.8963 H   0  0  0  0  0  0  0  0  0  0  0  0
   -1.0241   24.3610  -26.7349 H   0  0  0  0  0  0  0  0  0  0  0  0
   -2.6468   24.1338  -26.0224 H   0  0  0  0  0  0  0  0  0  0  0  0
    0.0473   22.2204  -26.3377 H   0  0  0  0  0  0  0  0  0  0  0  0
    0.1213   19.7716  -26.8340 H   0  0  0  0  0  0  0  0  0  0  0  0
   -1.8255   18.6591  -27.9302 H   0  0  0  0  0  0  0  0  0  0  0  0
   -3.8377   19.9908  -28.5622 H   0  0  0  0  0  0  0  0  0  0  0  0
   -4.8346   22.1853  -28.8855 H   0  0  0  0  0  0  0  0  0  0  0  0
   -4.8280   22.7149  -27.1353 H   0  0  0  0  0  0  0  0  0  0  0  0
   -6.7537   23.5398  -28.8120 H   0  0  0  0  0  0  0  0  0  0  0  0
   -8.6662   22.1108  -29.5164 H   0  0  0  0  0  0  0  0  0  0  0  0
   -7.3656   20.1251  -34.5087 H   0  0  0  0  0  0  0  0  0  0  0  0
   -5.1192   19.2691  -35.1694 H   0  0  0  0  0  0  0  0  0  0  0  0
   -2.6770   20.0847  -35.1243 H   0  0  0  0  0  0  0  0  0  0  0  0
   -3.7649   20.0437  -33.6772 H   0  0  0  0  0  0  0  0  0  0  0  0
   -0.9035   21.1179  -33.6892 H   0  0  0  0  0  0  0  0  0  0  0  0
   -2.3993   22.1231  -33.7950 H   0  0  0  0  0  0  0  0  0  0  0  0
  1  2  1  0
  2  3  1  0
  3  4  1  0
  4  5  1  0
  5  6  1  0
  6  7  2  0
  6  8  2  0
  6  9  1  0
  9 10  2  0
 10 11  1  0
 11 12  2  0
 12 13  1  0
 13 14  1  0
 14 15  2  0
 14 16  1  0
 16 17  2  0
 17 18  1  0
 18 19  2  0
 19 20  1  0
 20 21  2  0
 20 22  2  0
 20 23  1  0
 23 24  1  0
 24 25  1  0
 25 26  1  0
 26 27  2  0
 27 28  1  0
 28 29  2  0
 29 30  1  0
 30 31  2  0
 31 32  1  0
 19 33  1  0
 33 34  2  0
 12 35  1  0
 35 36  2  0
  5 37  1  0
 37 38  1  0
 38  2  1  0
 36  9  1  0
 34 16  1  0
 32 23  1  0
 31 26  1  0
  1 39  1  0
  1 40  1  0
  1 41  1  0
  2 42  1  0
  3 43  1  0
  3 44  1  0
  4 45  1  0
  4 46  1  0
 10 47  1  0
 11 48  1  0
 17 49  1  0
 18 50  1  0
 24 51  1  0
 24 52  1  0
 25 53  1  0
 25 54  1  0
 27 55  1  0
 28 56  1  0
 29 57  1  0
 30 58  1  0
 32 59  1  0
 32 60  1  0
 33 61  1  0
 34 62  1  0
 35 63  1  0
 36 64  1  0
 37 65  1  0
 37 66  1  0
 38 67  1  0
 38 68  1  0
M  CHG  1  13  -1
M  END
>  <UniqueID>  (19) 
19

>  <SMILES>  (19) 
CC1CCN(S(=O)(=O)c2ccc([N-]C(=O)c3ccc(S(=O)(=O)N4CCc5ccccc5C4)cc3)cc2)CC1

>  <Energy>  (19) 
89.87556715454807

>  <Genealogy>  (19) 
CC1CCN(S(=O)(=O)c2ccc([N-]C(=O)c3ccc(S(=O)(=O)N4CCc5ccccc5C4)cc3)cc2)CC1 (protonated)
CC1CCN(S(=O)(=O)c2ccc([N-]C(=O)c3ccc(S(=O)(=O)N4CCc5ccccc5C4)cc3)cc2)CC1 (3D coordinates assigned)
CC1CCN(S(=O)(=O)c2ccc([N-]C(=O)c3ccc(S(=O)(=O)N4CCc5ccccc5C4)cc3)cc2)CC1 (nonaromatic ring conformer: 89.87556715454807 kcal/mol)

>  <smiles>  (19) 
CC1CCN(S(=O)(=O)c2ccc(NC(=O)c3ccc(S(=O)(=O)N4CCc5ccccc5C4)cc3)cc2)CC1

>  <score_type>  (19) 
oracle

>  <origin>  (19) 
adgpu

>  <m_score__min__energy>  (19) 
-13.82

>  <m_primary>  (19) 
energy

$$$$
19:0
     RDKit          3D

 46 48  0  0  0  0  0  0  0  0999 V2000
   -6.5800   17.5290  -31.3380 C   0  0  0  0  0  0  0  0  0  0  0  0
   -6.2630   17.8500  -32.7690 C   0  0  0  0  0  0  0  0  0  0  0  0
   -5.4340   17.1300  -33.6080 C   0  0  0  0  0  0  0  0  0  0  0  0
   -4.5430   15.6560  -33.2450 S   0  0  0  0  0  0  0  0  0  0  0  0
   -2.8480   15.9850  -33.1640 N   0  0  0  0  0  0  0  0  0  0  0  0
   -4.9980   15.1110  -31.9210 O   0  0  0  0  0  0  0  0  0  0  0  0
   -4.7960   14.6410  -34.3230 O   0  0  0  0  0  0  0  0  0  0  0  0
   -5.4360   17.8200  -34.8020 C   0  0  0  0  0  0  0  0  0  0  0  0
   -6.2180   18.9090  -34.6810 N   0  0  0  0  0  0  0  0  0  0  0  0
   -6.7200   18.9250  -33.4530 N   0  0  0  0  0  0  0  0  0  0  0  0
   -7.5520   19.9880  -32.9560 C   0  0  0  0  0  0  0  0  0  0  0  0
   -8.8050   19.9100  -33.0790 O   0  0  0  0  0  0  0  0  0  0  0  0
   -6.9690   21.1610  -32.2640 C   0  0  0  0  0  0  0  0  0  0  0  0
   -7.7710   22.2770  -31.9670 C   0  0  0  0  0  0  0  0  0  0  0  0
   -7.2260   23.3860  -31.3130 C   0  0  0  0  0  0  0  0  0  0  0  0
   -5.8730   23.4020  -30.9580 C   0  0  0  0  0  0  0  0  0  0  0  0
   -5.2120   24.7940  -30.1030 S   0  0  0  0  0  0  0  0  0  0  0  0
   -5.9670   26.0400  -30.4740 O   0  0  0  0  0  0  0  0  0  0  0  0
   -5.3670   24.5690  -28.6260 O   0  0  0  0  0  0  0  0  0  0  0  0
   -3.5220   25.0080  -30.4690 N   0  0  0  0  0  0  0  0  0  0  0  0
   -2.6780   24.6890  -29.3140 C   0  0  0  0  0  0  0  0  0  0  0  0
   -2.5460   23.2010  -29.1290 C   0  0  0  0  0  0  0  0  0  0  0  0
   -3.1430   22.5630  -28.0270 C   0  0  0  0  0  0  0  0  0  0  0  0
   -3.0280   21.1790  -27.8690 C   0  0  0  0  0  0  0  0  0  0  0  0
   -2.3150   20.4230  -28.8040 C   0  0  0  0  0  0  0  0  0  0  0  0
   -1.7140   21.0520  -29.8990 C   0  0  0  0  0  0  0  0  0  0  0  0
   -1.8270   22.4360  -30.0620 C   0  0  0  0  0  0  0  0  0  0  0  0
   -5.0630   22.3010  -31.2680 C   0  0  0  0  0  0  0  0  0  0  0  0
   -5.6060   21.1900  -31.9180 C   0  0  0  0  0  0  0  0  0  0  0  0
   -5.9625   18.1543  -30.6765 H   0  0  0  0  0  0  0  0  0  0  0  0
   -7.6440   17.7298  -31.1442 H   0  0  0  0  0  0  0  0  0  0  0  0
   -6.3659   16.4676  -31.1442 H   0  0  0  0  0  0  0  0  0  0  0  0
   -2.5490   16.3070  -34.1130 H   0  0  0  0  0  0  0  0  0  0  0  0
   -2.3650   15.0760  -32.9830 H   0  0  0  0  0  0  0  0  0  0  0  0
   -4.8863   17.5272  -35.7087 H   0  0  0  0  0  0  0  0  0  0  0  0
   -8.8337   22.2776  -32.2509 H   0  0  0  0  0  0  0  0  0  0  0  0
   -7.8642   24.2501  -31.0764 H   0  0  0  0  0  0  0  0  0  0  0  0
   -1.6785   25.1210  -29.4701 H   0  0  0  0  0  0  0  0  0  0  0  0
   -3.1474   25.1111  -28.4132 H   0  0  0  0  0  0  0  0  0  0  0  0
   -3.7020   23.1549  -27.2873 H   0  0  0  0  0  0  0  0  0  0  0  0
   -3.4994   20.6838  -27.0073 H   0  0  0  0  0  0  0  0  0  0  0  0
   -2.2267   19.3338  -28.6785 H   0  0  0  0  0  0  0  0  0  0  0  0
   -1.1514   20.4568  -30.6333 H   0  0  0  0  0  0  0  0  0  0  0  0
   -1.3513   22.9273  -30.9236 H   0  0  0  0  0  0  0  0  0  0  0  0
   -3.9965   22.3117  -30.9987 H   0  0  0  0  0  0  0  0  0  0  0  0
   -4.9627   20.3314  -32.1610 H   0  0  0  0  0  0  0  0  0  0  0  0
  1  2  1  0
  2  3  2  0
  3  4  1  0
  4  5  1  0
  4  6  2  0
  4  7  2  0
  3  8  1  0
  8  9  2  0
  9 10  1  0
 10 11  1  0
 11 12  2  0
 11 13  1  0
 13 14  2  0
 14 15  1  0
 15 16  2  0
 16 17  1  0
 17 18  2  0
 17 19  2  0
 17 20  1  0
 20 21  1  0
 21 22  1  0
 22 23  2  0
 23 24  1  0
 24 25  2  0
 25 26  1  0
 26 27  2  0
 16 28  1  0
 28 29  2  0
 10  2  1  0
 29 13  1  0
 27 22  1  0
  1 30  1  0
  1 31  1  0
  1 32  1  0
  5 33  1  0
  5 34  1  0
  8 35  1  0
 14 36  1  0
 15 37  1  0
 21 38  1  0
 21 39  1  0
 23 40  1  0
 24 41  1  0
 25 42  1  0
 26 43  1  0
 27 44  1  0
 28 45  1  0
 29 46  1  0
M  CHG  1  20  -1
M  END
>  <UniqueID>  (20) 
20

>  <SMILES>  (20) 
Cc1c(S(N)(=O)=O)cnn1C(=O)c1ccc(S(=O)(=O)[N-]Cc2ccccc2)cc1

>  <Energy>  (20) 
80.55277228348588

>  <Genealogy>  (20) 
Cc1c(S(N)(=O)=O)cnn1C(=O)c1ccc(S(=O)(=O)[N-]Cc2ccccc2)cc1 (protonated)
Cc1c(S(N)(=O)=O)cnn1C(=O)c1ccc(S(=O)(=O)[N-]Cc2ccccc2)cc1 (3D coordinates assigned)
Cc1c(S(N)(=O)=O)cnn1C(=O)c1ccc(S(=O)(=O)[N-]Cc2ccccc2)cc1 (optimized conformer: 80.55277228348588 kcal/mol)

>  <smiles>  (20) 
Cc1c(S(N)(=O)=O)cnn1C(=O)c1ccc(S(=O)(=O)NCc2ccccc2)cc1

>  <score_type>  (20) 
oracle

>  <origin>  (20) 
adgpu

>  <m_score__min__energy>  (20) 
-10.869999999999999

>  <m_primary>  (20) 
energy

$$$$
20:0
     RDKit          3D

 55 57  0  0  0  0  0  0  0  0999 V2000
   -9.4160   19.8170  -32.6710 C   0  0  0  0  0  0  0  0  0  0  0  0
   -8.2000   20.4920  -32.9730 O   0  0  0  0  0  0  0  0  0  0  0  0
   -7.5510   21.3890  -32.1090 C   0  0  0  0  0  0  0  0  0  0  0  0
   -8.2530   22.3950  -31.4190 C   0  0  0  0  0  0  0  0  0  0  0  0
   -7.5820   23.2690  -30.5620 C   0  0  0  0  0  0  0  0  0  0  0  0
   -6.1990   23.1450  -30.3660 C   0  0  0  0  0  0  0  0  0  0  0  0
   -5.4680   24.1050  -29.4670 C   0  0  0  0  0  0  0  0  0  0  0  0
   -4.5500   24.9670  -30.2740 C   0  0  0  0  0  0  0  0  0  0  0  0
   -5.0170   25.6730  -31.2100 O   0  0  0  0  0  0  0  0  0  0  0  0
   -3.1410   24.9220  -30.0270 N   0  0  0  0  0  0  0  0  0  0  0  0
   -2.4600   23.8070  -29.4400 C   0  0  0  0  0  0  0  0  0  0  0  0
   -2.0600   22.7610  -30.2790 C   0  0  0  0  0  0  0  0  0  0  0  0
   -1.3790   21.6570  -29.7620 C   0  0  0  0  0  0  0  0  0  0  0  0
   -1.1040   21.5740  -28.3920 C   0  0  0  0  0  0  0  0  0  0  0  0
   -0.3280   20.4090  -27.8530 C   0  0  0  0  0  0  0  0  0  0  0  0
   -1.5140   22.6120  -27.5410 C   0  0  0  0  0  0  0  0  0  0  0  0
   -2.2210   23.7170  -28.0460 C   0  0  0  0  0  0  0  0  0  0  0  0
   -2.7000   24.7720  -27.0840 C   0  0  0  0  0  0  0  0  0  0  0  0
   -5.4930   22.1470  -31.0540 C   0  0  0  0  0  0  0  0  0  0  0  0
   -6.1580   21.2770  -31.9310 C   0  0  0  0  0  0  0  0  0  0  0  0
   -5.2440   20.0300  -32.7880 S   0  0  0  0  0  0  0  0  0  0  0  0
   -4.3860   19.2670  -31.8140 O   0  0  0  0  0  0  0  0  0  0  0  0
   -4.3380   20.7030  -33.7820 O   0  0  0  0  0  0  0  0  0  0  0  0
   -6.3320   18.9450  -33.6320 N   0  0  0  0  0  0  0  0  0  0  0  0
   -6.7710   17.8300  -32.7700 C   0  0  0  0  0  0  0  0  0  0  0  0
   -5.6480   16.7910  -32.5370 C   0  0  0  0  0  0  0  0  0  0  0  0
   -4.5940   16.8740  -33.4810 O   0  0  0  0  0  0  0  0  0  0  0  0
   -5.1120   17.0630  -34.7780 C   0  0  0  0  0  0  0  0  0  0  0  0
   -5.7440   18.4620  -34.9060 C   0  0  0  0  0  0  0  0  0  0  0  0
   -9.5369   19.7499  -31.5797 H   0  0  0  0  0  0  0  0  0  0  0  0
  -10.2614   20.3750  -33.0999 H   0  0  0  0  0  0  0  0  0  0  0  0
   -9.3896   18.8044  -33.0999 H   0  0  0  0  0  0  0  0  0  0  0  0
   -9.3400   22.4934  -31.5563 H   0  0  0  0  0  0  0  0  0  0  0  0
   -8.1406   24.0586  -30.0380 H   0  0  0  0  0  0  0  0  0  0  0  0
   -6.1974   24.7405  -28.9435 H   0  0  0  0  0  0  0  0  0  0  0  0
   -4.8763   23.5344  -28.7360 H   0  0  0  0  0  0  0  0  0  0  0  0
   -2.2839   22.8088  -31.3549 H   0  0  0  0  0  0  0  0  0  0  0  0
   -1.0570   20.8484  -30.4347 H   0  0  0  0  0  0  0  0  0  0  0  0
   -0.3449   20.4344  -26.7534 H   0  0  0  0  0  0  0  0  0  0  0  0
   -0.7825   19.4712  -28.2052 H   0  0  0  0  0  0  0  0  0  0  0  0
    0.7125   20.4670  -28.2052 H   0  0  0  0  0  0  0  0  0  0  0  0
   -1.2796   22.5603  -26.4675 H   0  0  0  0  0  0  0  0  0  0  0  0
   -2.5427   24.4256  -26.0519 H   0  0  0  0  0  0  0  0  0  0  0  0
   -2.1358   25.7018  -27.2487 H   0  0  0  0  0  0  0  0  0  0  0  0
   -3.7714   24.9592  -27.2487 H   0  0  0  0  0  0  0  0  0  0  0  0
   -4.4079   22.0456  -30.9045 H   0  0  0  0  0  0  0  0  0  0  0  0
   -7.1810   19.5120  -33.8650 H   0  0  0  0  0  0  0  0  0  0  0  0
   -7.0840   18.2369  -31.7971 H   0  0  0  0  0  0  0  0  0  0  0  0
   -7.6024   17.3191  -33.2777 H   0  0  0  0  0  0  0  0  0  0  0  0
   -5.2289   16.9511  -31.5327 H   0  0  0  0  0  0  0  0  0  0  0  0
   -6.1019   15.7950  -32.6467 H   0  0  0  0  0  0  0  0  0  0  0  0
   -4.2979   16.9647  -35.5112 H   0  0  0  0  0  0  0  0  0  0  0  0
   -5.8852   16.3038  -34.9672 H   0  0  0  0  0  0  0  0  0  0  0  0
   -4.9663   19.1713  -35.2256 H   0  0  0  0  0  0  0  0  0  0  0  0
   -6.5587   18.3918  -35.6417 H   0  0  0  0  0  0  0  0  0  0  0  0
  1  2  1  0
  2  3  1  0
  3  4  2  0
  4  5  1  0
  5  6  2  0
  6  7  1  0
  7  8  1  0
  8  9  2  0
  8 10  1  0
 10 11  1  0
 11 12  2  0
 12 13  1  0
 13 14  2  0
 14 15  1  0
 14 16  1  0
 16 17  2  0
 17 18  1  0
  6 19  1  0
 19 20  2  0
 20 21  1  0
 21 22  2  0
 21 23  2  0
 21 24  1  0
 24 25  1  0
 25 26  1  0
 26 27  1  0
 27 28  1  0
 28 29  1  0
 20  3  1  0
 29 24  1  0
 17 11  1  0
  1 30  1  0
  1 31  1  0
  1 32  1  0
  4 33  1  0
  5 34  1  0
  7 35  1  0
  7 36  1  0
 12 37  1  0
 13 38  1  0
 15 39  1  0
 15 40  1  0
 15 41  1  0
 16 42  1  0
 18 43  1  0
 18 44  1  0
 18 45  1  0
 19 46  1  0
 24 47  1  0
 25 48  1  0
 25 49  1  0
 26 50  1  0
 26 51  1  0
 28 52  1  0
 28 53  1  0
 29 54  1  0
 29 55  1  0
M  CHG  2  10  -1  24   1
M  END
>  <UniqueID>  (21) 
21

>  <SMILES>  (21) 
COc1ccc(CC(=O)[N-]c2ccc(C)cc2C)cc1S(=O)(=O)[NH+]1CCOCC1

>  <Energy>  (21) 
69.89923676889673

>  <Genealogy>  (21) 
COc1ccc(CC(=O)[N-]c2ccc(C)cc2C)cc1S(=O)(=O)[NH+]1CCOCC1 (protonated)
COc1ccc(CC(=O)[N-]c2ccc(C)cc2C)cc1S(=O)(=O)[NH+]1CCOCC1 (3D coordinates assigned)
COc1ccc(CC(=O)[N-]c2ccc(C)cc2C)cc1S(=O)(=O)[NH+]1CCOCC1 (nonaromatic ring conformer: 69.89923676889673 kcal/mol)

>  <smiles>  (21) 
COc1ccc(CC(=O)Nc2ccc(C)cc2C)cc1S(=O)(=O)N1CCOCC1

>  <score_type>  (21) 
oracle

>  <origin>  (21) 
adgpu

>  <m_score__min__energy>  (21) 
-10.24

>  <m_primary>  (21) 
energy

$$$$
21:0
     RDKit          3D

 60 63  0  0  0  0  0  0  0  0999 V2000
   -9.1690   21.9010  -30.0540 C   0  0  0  0  0  0  0  0  0  0  0  0
   -7.9370   21.7420  -30.8300 N   0  0  0  0  0  0  0  0  0  0  0  0
   -6.9010   22.7420  -30.7590 C   0  0  0  0  0  0  0  0  0  0  0  0
   -5.6750   22.4580  -30.1290 C   0  0  0  0  0  0  0  0  0  0  0  0
   -4.6690   23.4270  -30.0640 C   0  0  0  0  0  0  0  0  0  0  0  0
   -4.8730   24.6880  -30.6280 C   0  0  0  0  0  0  0  0  0  0  0  0
   -3.8730   25.6500  -30.5620 O   0  0  0  0  0  0  0  0  0  0  0  0
   -6.0850   24.9820  -31.2620 C   0  0  0  0  0  0  0  0  0  0  0  0
   -7.0930   24.0150  -31.3290 C   0  0  0  0  0  0  0  0  0  0  0  0
   -7.7560   20.3490  -31.8610 S   0  0  0  0  0  0  0  0  0  0  0  0
   -8.6480   20.4880  -33.0620 O   0  0  0  0  0  0  0  0  0  0  0  0
   -8.1740   19.1140  -31.1120 O   0  0  0  0  0  0  0  0  0  0  0  0
   -6.0800   20.2030  -32.3890 C   0  0  0  0  0  0  0  0  0  0  0  0
   -5.4600   21.2380  -33.0980 C   0  0  0  0  0  0  0  0  0  0  0  0
   -4.1310   21.1110  -33.5180 C   0  0  0  0  0  0  0  0  0  0  0  0
   -3.4000   19.9450  -33.2240 C   0  0  0  0  0  0  0  0  0  0  0  0
   -1.9930   19.7920  -33.6690 C   0  0  0  0  0  0  0  0  0  0  0  0
   -1.3300   18.7910  -33.2870 O   0  0  0  0  0  0  0  0  0  0  0  0
   -1.3630   20.7900  -34.4900 N   0  0  0  0  0  0  0  0  0  0  0  0
   -0.1540   20.5650  -35.2370 C   0  0  0  0  0  0  0  0  0  0  0  0
    0.1990   19.2810  -35.6920 C   0  0  0  0  0  0  0  0  0  0  0  0
    1.3780   19.0880  -36.4200 C   0  0  0  0  0  0  0  0  0  0  0  0
    2.2080   20.1750  -36.7240 C   0  0  0  0  0  0  0  0  0  0  0  0
    3.6970   19.9310  -37.6420 S   0  0  0  0  0  0  0  0  0  0  0  0
    3.3640   19.3020  -38.9670 O   0  0  0  0  0  0  0  0  0  0  0  0
    4.3370   21.2640  -37.9110 O   0  0  0  0  0  0  0  0  0  0  0  0
    4.8260   18.9060  -36.7860 N   0  0  0  0  0  0  0  0  0  0  0  0
    5.0030   19.3370  -35.3820 C   0  0  0  0  0  0  0  0  0  0  0  0
    4.2970   18.3940  -34.3920 C   0  0  0  0  0  0  0  0  0  0  0  0
    4.7470   17.0500  -34.4840 O   0  0  0  0  0  0  0  0  0  0  0  0
    5.0920   16.6480  -35.8060 C   0  0  0  0  0  0  0  0  0  0  0  0
    4.4350   17.4890  -36.9120 C   0  0  0  0  0  0  0  0  0  0  0  0
    1.8470   21.4590  -36.2900 C   0  0  0  0  0  0  0  0  0  0  0  0
    0.6720   21.6520  -35.5600 C   0  0  0  0  0  0  0  0  0  0  0  0
   -4.0330   18.9090  -32.5160 C   0  0  0  0  0  0  0  0  0  0  0  0
   -5.3600   19.0380  -32.1000 C   0  0  0  0  0  0  0  0  0  0  0  0
   -8.9325   21.8705  -28.9802 H   0  0  0  0  0  0  0  0  0  0  0  0
   -9.6349   22.8667  -30.2995 H   0  0  0  0  0  0  0  0  0  0  0  0
   -9.8648   21.0852  -30.2995 H   0  0  0  0  0  0  0  0  0  0  0  0
   -5.5068   21.4661  -29.6843 H   0  0  0  0  0  0  0  0  0  0  0  0
   -3.7151   23.1955  -29.5676 H   0  0  0  0  0  0  0  0  0  0  0  0
   -6.2452   25.9746  -31.7081 H   0  0  0  0  0  0  0  0  0  0  0  0
   -8.0431   24.2507  -31.8308 H   0  0  0  0  0  0  0  0  0  0  0  0
   -6.0204   22.1566  -33.3265 H   0  0  0  0  0  0  0  0  0  0  0  0
   -3.6551   21.9273  -34.0812 H   0  0  0  0  0  0  0  0  0  0  0  0
   -1.7190   21.7710  -34.4290 H   0  0  0  0  0  0  0  0  0  0  0  0
   -0.4557   18.4243  -35.4741 H   0  0  0  0  0  0  0  0  0  0  0  0
    1.6548   18.0776  -36.7554 H   0  0  0  0  0  0  0  0  0  0  0  0
    6.0780   19.3546  -35.1495 H   0  0  0  0  0  0  0  0  0  0  0  0
    4.5545   20.3358  -35.2759 H   0  0  0  0  0  0  0  0  0  0  0  0
    4.4833   18.7562  -33.3702 H   0  0  0  0  0  0  0  0  0  0  0  0
    3.2258   18.3987  -34.6422 H   0  0  0  0  0  0  0  0  0  0  0  0
    6.1837   16.7255  -35.9163 H   0  0  0  0  0  0  0  0  0  0  0  0
    4.7230   15.6192  -35.9299 H   0  0  0  0  0  0  0  0  0  0  0  0
    4.7567   17.1108  -37.8935 H   0  0  0  0  0  0  0  0  0  0  0  0
    3.3420   17.4120  -36.8151 H   0  0  0  0  0  0  0  0  0  0  0  0
    2.4923   22.3181  -36.5257 H   0  0  0  0  0  0  0  0  0  0  0  0
    0.3918   22.6650  -35.2355 H   0  0  0  0  0  0  0  0  0  0  0  0
   -3.4778   17.9874  -32.2872 H   0  0  0  0  0  0  0  0  0  0  0  0
   -5.8413   18.2207  -31.5429 H   0  0  0  0  0  0  0  0  0  0  0  0
  1  2  1  0
  2  3  1  0
  3  4  2  0
  4  5  1  0
  5  6  2  0
  6  7  1  0
  6  8  1  0
  8  9  2  0
  2 10  1  0
 10 11  2  0
 10 12  2  0
 10 13  1  0
 13 14  2  0
 14 15  1  0
 15 16  2  0
 16 17  1  0
 17 18  2  0
 17 19  1  0
 19 20  1  0
 20 21  2  0
 21 22  1  0
 22 23  2  0
 23 24  1  0
 24 25  2  0
 24 26  2  0
 24 27  1  0
 27 28  1  0
 28 29  1  0
 29 30  1  0
 30 31  1  0
 31 32  1  0
 23 33  1  0
 33 34  2  0
 16 35  1  0
 35 36  2  0
  9  3  1  0
 36 13  1  0
 34 20  1  0
 32 27  1  0
  1 37  1  0
  1 38  1  0
  1 39  1  0
  4 40  1  0
  5 41  1  0
  8 42  1  0
  9 43  1  0
 14 44  1  0
 15 45  1  0
 19 46  1  0
 21 47  1  0
 22 48  1  0
 28 49  1  0
 28 50  1  0
 29 51  1  0
 29 52  1  0
 31 53  1  0
 31 54  1  0
 32 55  1  0
 32 56  1  0
 33 57  1  0
 34 58  1  0
 35 59  1  0
 36 60  1  0
M  CHG  1   7  -1
M  END
>  <UniqueID>  (22) 
22

>  <SMILES>  (22) 
CN(c1ccc([O-])cc1)S(=O)(=O)c1ccc(C(=O)Nc2ccc(S(=O)(=O)N3CCOCC3)cc2)cc1

>  <Energy>  (22) 
85.4117311278997

>  <Genealogy>  (22) 
CN(c1ccc([O-])cc1)S(=O)(=O)c1ccc(C(=O)Nc2ccc(S(=O)(=O)N3CCOCC3)cc2)cc1 (protonated)
CN(c1ccc([O-])cc1)S(=O)(=O)c1ccc(C(=O)Nc2ccc(S(=O)(=O)N3CCOCC3)cc2)cc1 (3D coordinates assigned)
CN(c1ccc([O-])cc1)S(=O)(=O)c1ccc(C(=O)Nc2ccc(S(=O)(=O)N3CCOCC3)cc2)cc1 (nonaromatic ring conformer: 85.4117311278997 kcal/mol)

>  <smiles>  (22) 
CN(c1ccc(O)cc1)S(=O)(=O)c1ccc(C(=O)Nc2ccc(S(=O)(=O)N3CCOCC3)cc2)cc1

>  <score_type>  (22) 
oracle

>  <origin>  (22) 
adgpu

>  <m_score__min__energy>  (22) 
-11.369999999999999

>  <m_primary>  (22) 
energy

$$$$
22:0
     RDKit          3D

 43 45  0  0  0  0  0  0  0  0999 V2000
   -3.8130   25.0070  -30.4580 O   0  0  0  0  0  0  0  0  0  0  0  0
   -3.8510   23.8710  -29.9110 C   0  0  0  0  0  0  0  0  0  0  0  0
   -3.0630   23.6140  -28.7340 N   0  0  0  0  0  0  0  0  0  0  0  0
   -2.2990   24.6190  -28.0460 C   0  0  0  0  0  0  0  0  0  0  0  0
   -2.6700   25.0070  -26.7510 C   0  0  0  0  0  0  0  0  0  0  0  0
   -1.9510   25.9990  -26.0810 C   0  0  0  0  0  0  0  0  0  0  0  0
   -0.8730   26.6100  -26.7220 C   0  0  0  0  0  0  0  0  0  0  0  0
   -0.5380   26.2460  -27.9880 N   0  0  0  0  0  0  0  0  0  0  0  0
   -1.2190   25.2800  -28.6600 C   0  0  0  0  0  0  0  0  0  0  0  0
   -4.7090   22.8190  -30.5090 C   0  0  0  0  0  0  0  0  0  0  0  0
   -6.0490   23.1070  -30.8210 C   0  0  0  0  0  0  0  0  0  0  0  0
   -6.8720   22.1290  -31.3880 C   0  0  0  0  0  0  0  0  0  0  0  0
   -6.3690   20.8530  -31.6580 C   0  0  0  0  0  0  0  0  0  0  0  0
   -7.4180   19.6440  -32.3930 S   0  0  0  0  0  0  0  0  0  0  0  0
   -8.2820   20.3190  -33.4210 O   0  0  0  0  0  0  0  0  0  0  0  0
   -8.3040   19.0200  -31.3480 O   0  0  0  0  0  0  0  0  0  0  0  0
   -6.4410   18.4140  -33.1540 N   0  0  0  0  0  0  0  0  0  0  0  0
   -7.2350   17.1890  -33.3460 C   0  0  0  0  0  0  0  0  0  0  0  0
   -6.3310   16.0300  -33.8100 C   0  0  0  0  0  0  0  0  0  0  0  0
   -5.0530   16.5230  -34.5060 C   0  0  0  0  0  0  0  0  0  0  0  0
   -5.3250   17.7900  -35.3200 C   0  0  0  0  0  0  0  0  0  0  0  0
   -5.9220   18.9160  -34.4440 C   0  0  0  0  0  0  0  0  0  0  0  0
   -5.0300   20.5620  -31.3660 C   0  0  0  0  0  0  0  0  0  0  0  0
   -4.2040   21.5360  -30.7980 C   0  0  0  0  0  0  0  0  0  0  0  0
   -2.9940   22.6400  -28.3670 H   0  0  0  0  0  0  0  0  0  0  0  0
   -3.5306   24.5283  -26.2609 H   0  0  0  0  0  0  0  0  0  0  0  0
   -2.2314   26.2953  -25.0594 H   0  0  0  0  0  0  0  0  0  0  0  0
   -0.2935   27.3872  -26.2023 H   0  0  0  0  0  0  0  0  0  0  0  0
   -0.9250   25.0145  -29.6862 H   0  0  0  0  0  0  0  0  0  0  0  0
   -6.4534   24.1095  -30.6175 H   0  0  0  0  0  0  0  0  0  0  0  0
   -7.9204   22.3649  -31.6227 H   0  0  0  0  0  0  0  0  0  0  0  0
   -7.7153   16.9156  -32.3949 H   0  0  0  0  0  0  0  0  0  0  0  0
   -7.9988   17.3757  -34.1152 H   0  0  0  0  0  0  0  0  0  0  0  0
   -6.0461   15.4316  -32.9321 H   0  0  0  0  0  0  0  0  0  0  0  0
   -6.8997   15.4337  -34.5387 H   0  0  0  0  0  0  0  0  0  0  0  0
   -4.2902   16.7418  -33.7442 H   0  0  0  0  0  0  0  0  0  0  0  0
   -4.7009   15.7364  -35.1896 H   0  0  0  0  0  0  0  0  0  0  0  0
   -4.3793   18.1424  -35.7576 H   0  0  0  0  0  0  0  0  0  0  0  0
   -6.0549   17.5429  -36.1050 H   0  0  0  0  0  0  0  0  0  0  0  0
   -5.1374   19.6603  -34.2431 H   0  0  0  0  0  0  0  0  0  0  0  0
   -6.7657   19.3569  -34.9952 H   0  0  0  0  0  0  0  0  0  0  0  0
   -4.6268   19.5622  -31.5848 H   0  0  0  0  0  0  0  0  0  0  0  0
   -3.1531   21.2993  -30.5753 H   0  0  0  0  0  0  0  0  0  0  0  0
  1  2  2  0
  2  3  1  0
  3  4  1  0
  4  5  2  0
  5  6  1  0
  6  7  2  0
  7  8  1  0
  8  9  2  0
  2 10  1  0
 10 11  2  0
 11 12  1  0
 12 13  2  0
 13 14  1  0
 14 15  2  0
 14 16  2  0
 14 17  1  0
 17 18  1  0
 18 19  1  0
 19 20  1  0
 20 21  1  0
 21 22  1  0
 13 23  1  0
 23 24  2  0
  9  4  1  0
 24 10  1  0
 22 17  1  0
  3 25  1  0
  5 26  1  0
  6 27  1  0
  7 28  1  0
  9 29  1  0
 11 30  1  0
 12 31  1  0
 18 32  1  0
 18 33  1  0
 19 34  1  0
 19 35  1  0
 20 36  1  0
 20 37  1  0
 21 38  1  0
 21 39  1  0
 22 40  1  0
 22 41  1  0
 23 42  1  0
 24 43  1  0
M  END
>  <UniqueID>  (23) 
23

>  <SMILES>  (23) 
O=C(Nc1cccnc1)c1ccc(S(=O)(=O)N2CCCCC2)cc1

>  <Energy>  (23) 
54.79583240570773

>  <Genealogy>  (23) 
O=C(Nc1cccnc1)c1ccc(S(=O)(=O)N2CCCCC2)cc1 (3D coordinates assigned)
O=C(Nc1cccnc1)c1ccc(S(=O)(=O)N2CCCCC2)cc1 (nonaromatic ring conformer: 54.79583240570773 kcal/mol)

>  <smiles>  (23) 
O=C(Nc1cccnc1)c1ccc(S(=O)(=O)N2CCCCC2)cc1

>  <score_type>  (23) 
oracle

>  <origin>  (23) 
adgpu

>  <m_score__min__energy>  (23) 
-9.3300000000000001

>  <m_primary>  (23) 
energy

$$$$
23:0
     RDKit          3D

 60 63  0  0  0  0  0  0  0  0999 V2000
    0.1460   16.8900  -32.2380 C   0  0  0  0  0  0  0  0  0  0  0  0
   -1.1350   17.4710  -32.0330 O   0  0  0  0  0  0  0  0  0  0  0  0
   -1.4720   18.7970  -32.3500 C   0  0  0  0  0  0  0  0  0  0  0  0
   -2.3820   19.1070  -33.3830 C   0  0  0  0  0  0  0  0  0  0  0  0
   -2.6870   20.4360  -33.6730 C   0  0  0  0  0  0  0  0  0  0  0  0
   -2.1020   21.4660  -32.9310 C   0  0  0  0  0  0  0  0  0  0  0  0
   -1.2030   21.1730  -31.9050 C   0  0  0  0  0  0  0  0  0  0  0  0
   -0.8640   19.8410  -31.6230 C   0  0  0  0  0  0  0  0  0  0  0  0
    0.1180   19.5180  -30.6250 N   0  0  0  0  0  0  0  0  0  0  0  0
   -0.0450   19.8850  -28.9390 S   0  0  0  0  0  0  0  0  0  0  0  0
   -0.5010   18.6530  -28.1950 O   0  0  0  0  0  0  0  0  0  0  0  0
    1.2920   20.3260  -28.3940 O   0  0  0  0  0  0  0  0  0  0  0  0
   -1.1940   21.2060  -28.7530 C   0  0  0  0  0  0  0  0  0  0  0  0
   -0.7630   22.5280  -28.9400 C   0  0  0  0  0  0  0  0  0  0  0  0
   -1.6840   23.5830  -28.9100 C   0  0  0  0  0  0  0  0  0  0  0  0
   -3.0460   23.3230  -28.7080 C   0  0  0  0  0  0  0  0  0  0  0  0
   -3.9740   24.4150  -28.7380 N   0  0  0  0  0  0  0  0  0  0  0  0
   -5.0380   24.7370  -30.0720 S   0  0  0  0  0  0  0  0  0  0  0  0
   -6.0460   25.7640  -29.6520 O   0  0  0  0  0  0  0  0  0  0  0  0
   -4.2350   25.2940  -31.2080 O   0  0  0  0  0  0  0  0  0  0  0  0
   -5.8850   23.2920  -30.6200 C   0  0  0  0  0  0  0  0  0  0  0  0
   -7.2280   23.0930  -30.2740 C   0  0  0  0  0  0  0  0  0  0  0  0
   -7.9140   21.9650  -30.7360 C   0  0  0  0  0  0  0  0  0  0  0  0
   -7.2630   21.0280  -31.5530 C   0  0  0  0  0  0  0  0  0  0  0  0
   -8.1260   19.6030  -32.1350 S   0  0  0  0  0  0  0  0  0  0  0  0
   -9.2060   20.0350  -33.0920 O   0  0  0  0  0  0  0  0  0  0  0  0
   -8.7840   18.9160  -30.9680 O   0  0  0  0  0  0  0  0  0  0  0  0
   -7.0580   18.4780  -32.9380 N   0  0  0  0  0  0  0  0  0  0  0  0
   -6.3790   19.1290  -34.0720 C   0  0  0  0  0  0  0  0  0  0  0  0
   -5.3010   18.2000  -34.6620 C   0  0  0  0  0  0  0  0  0  0  0  0
   -5.3770   16.8990  -34.1100 O   0  0  0  0  0  0  0  0  0  0  0  0
   -5.1230   16.9580  -32.7170 C   0  0  0  0  0  0  0  0  0  0  0  0
   -6.0670   17.9450  -31.9920 C   0  0  0  0  0  0  0  0  0  0  0  0
   -5.9210   21.2330  -31.9040 C   0  0  0  0  0  0  0  0  0  0  0  0
   -5.2350   22.3570  -31.4400 C   0  0  0  0  0  0  0  0  0  0  0  0
   -3.4690   22.0040  -28.4530 C   0  0  0  0  0  0  0  0  0  0  0  0
   -2.5500   20.9480  -28.4890 C   0  0  0  0  0  0  0  0  0  0  0  0
    0.6126   16.6784  -31.2646 H   0  0  0  0  0  0  0  0  0  0  0  0
    0.0373   15.9531  -32.8040 H   0  0  0  0  0  0  0  0  0  0  0  0
    0.7793   17.5890  -32.8040 H   0  0  0  0  0  0  0  0  0  0  0  0
   -2.8520   18.2977  -33.9610 H   0  0  0  0  0  0  0  0  0  0  0  0
   -3.3884   20.6742  -34.4862 H   0  0  0  0  0  0  0  0  0  0  0  0
   -2.3517   22.5131  -33.1571 H   0  0  0  0  0  0  0  0  0  0  0  0
   -0.7588   21.9886  -31.3155 H   0  0  0  0  0  0  0  0  0  0  0  0
    0.3033   22.7370  -29.1110 H   0  0  0  0  0  0  0  0  0  0  0  0
   -1.3372   24.6181  -29.0453 H   0  0  0  0  0  0  0  0  0  0  0  0
   -7.7445   23.8261  -29.6370 H   0  0  0  0  0  0  0  0  0  0  0  0
   -8.9672   21.8119  -30.4580 H   0  0  0  0  0  0  0  0  0  0  0  0
   -7.1196   19.3641  -34.8506 H   0  0  0  0  0  0  0  0  0  0  0  0
   -5.8970   20.0513  -33.7156 H   0  0  0  0  0  0  0  0  0  0  0  0
   -5.4427   18.1348  -35.7509 H   0  0  0  0  0  0  0  0  0  0  0  0
   -4.3138   18.6201  -34.4193 H   0  0  0  0  0  0  0  0  0  0  0  0
   -5.2631   15.9546  -32.2886 H   0  0  0  0  0  0  0  0  0  0  0  0
   -4.0913   17.3130  -32.5768 H   0  0  0  0  0  0  0  0  0  0  0  0
   -6.5867   17.4202  -31.1769 H   0  0  0  0  0  0  0  0  0  0  0  0
   -5.4750   18.7764  -31.5819 H   0  0  0  0  0  0  0  0  0  0  0  0
   -5.4063   20.5048  -32.5480 H   0  0  0  0  0  0  0  0  0  0  0  0
   -4.1818   22.5101  -31.7181 H   0  0  0  0  0  0  0  0  0  0  0  0
   -4.5260   21.8025  -28.2245 H   0  0  0  0  0  0  0  0  0  0  0  0
   -2.8894   19.9170  -28.3107 H   0  0  0  0  0  0  0  0  0  0  0  0
  1  2  1  0
  2  3  1  0
  3  4  2  0
  4  5  1  0
  5  6  2  0
  6  7  1  0
  7  8  2  0
  8  9  1  0
  9 10  1  0
 10 11  2  0
 10 12  2  0
 10 13  1  0
 13 14  2  0
 14 15  1  0
 15 16  2  0
 16 17  1  0
 17 18  1  0
 18 19  2  0
 18 20  2  0
 18 21  1  0
 21 22  2  0
 22 23  1  0
 23 24  2  0
 24 25  1  0
 25 26  2  0
 25 27  2  0
 25 28  1  0
 28 29  1  0
 29 30  1  0
 30 31  1  0
 31 32  1  0
 32 33  1  0
 24 34  1  0
 34 35  2  0
 16 36  1  0
 36 37  2  0
  8  3  1  0
 37 13  1  0
 35 21  1  0
 33 28  1  0
  1 38  1  0
  1 39  1  0
  1 40  1  0
  4 41  1  0
  5 42  1  0
  6 43  1  0
  7 44  1  0
 14 45  1  0
 15 46  1  0
 22 47  1  0
 23 48  1  0
 29 49  1  0
 29 50  1  0
 30 51  1  0
 30 52  1  0
 32 53  1  0
 32 54  1  0
 33 55  1  0
 33 56  1  0
 34 57  1  0
 35 58  1  0
 36 59  1  0
 37 60  1  0
M  CHG  2   9  -1  17  -1
M  END
>  <UniqueID>  (24) 
24

>  <SMILES>  (24) 
COc1ccccc1[N-]S(=O)(=O)c1ccc([N-]S(=O)(=O)c2ccc(S(=O)(=O)N3CCOCC3)cc2)cc1

>  <Energy>  (24) 
81.60565686000675

>  <Genealogy>  (24) 
COc1ccccc1[N-]S(=O)(=O)c1ccc([N-]S(=O)(=O)c2ccc(S(=O)(=O)N3CCOCC3)cc2)cc1 (protonated)
COc1ccccc1[N-]S(=O)(=O)c1ccc([N-]S(=O)(=O)c2ccc(S(=O)(=O)N3CCOCC3)cc2)cc1 (3D coordinates assigned)
COc1ccccc1[N-]S(=O)(=O)c1ccc([N-]S(=O)(=O)c2ccc(S(=O)(=O)N3CCOCC3)cc2)cc1 (nonaromatic ring conformer: 81.60565686000675 kcal/mol)

>  <smiles>  (24) 
COc1ccccc1NS(=O)(=O)c1ccc(NS(=O)(=O)c2ccc(S(=O)(=O)N3CCOCC3)cc2)cc1

>  <score_type>  (24) 
oracle

>  <origin>  (24) 
adgpu

>  <m_score__min__energy>  (24) 
-12.84

>  <m_primary>  (24) 
energy

$$$$
24:0
     RDKit          3D

 31 33  0  0  1  0  0  0  0  0999 V2000
   -2.2910   20.0120  -31.1500 C   0  0  0  0  0  0  0  0  0  0  0  0
   -3.1530   21.2000  -31.0960 C   0  0  0  0  0  0  0  0  0  0  0  0
   -4.5240   21.3230  -31.3810 C   0  0  0  0  0  0  0  0  0  0  0  0
   -5.0560   22.5260  -31.2500 C   0  0  0  0  0  0  0  0  0  0  0  0
   -6.4010   22.9320  -31.4710 C   0  0  0  0  0  0  0  0  0  0  0  0
   -7.3030   22.1530  -31.8390 N   0  0  0  0  0  0  0  0  0  0  0  0
   -7.3150   20.8270  -32.1210 C   0  0  0  0  0  0  0  0  0  0  0  0
   -8.0820   19.9420  -31.3410 C   0  0  0  0  0  0  0  0  0  0  0  0
   -8.0240   18.5980  -31.6290 C   0  0  0  0  0  0  0  0  0  0  0  0
   -7.2270   18.1180  -32.6650 C   0  0  0  0  0  0  0  0  0  0  0  0
   -6.4740   18.9690  -33.4350 C   0  0  0  0  0  0  0  0  0  0  0  0
   -5.6140   18.4620  -34.5540 C   0  0  0  0  0  0  0  0  0  0  0  0
   -4.2990   18.7900  -34.3480 F   0  0  0  0  0  0  0  0  0  0  0  0
   -6.1320   18.9170  -35.7360 F   0  0  0  0  0  0  0  0  0  0  0  0
   -5.7580   17.0910  -34.5600 F   0  0  0  0  0  0  0  0  0  0  0  0
   -6.5160   20.3240  -33.1640 C   0  0  0  0  0  0  0  0  0  0  0  0
   -6.7420   24.2310  -31.2760 N   0  0  0  0  0  0  0  0  0  0  0  0
   -5.9050   25.1850  -30.8850 C   0  0  0  0  0  0  0  0  0  0  0  0
   -4.6260   24.8300  -30.6680 N   0  0  0  0  0  0  0  0  0  0  0  0
   -4.2580   23.5630  -30.8510 C   0  0  0  0  0  0  0  0  0  0  0  0
   -2.5840   22.8540  -30.6200 S   0  0  0  0  0  0  0  0  0  0  0  0
   -2.0534   19.6846  -30.1271 H   0  0  0  0  0  0  0  0  0  0  0  0
   -2.8139   19.2034  -31.6817 H   0  0  0  0  0  0  0  0  0  0  0  0
   -1.3601   20.2583  -31.6817 H   0  0  0  0  0  0  0  0  0  0  0  0
   -5.1259   20.4587  -31.6982 H   0  0  0  0  0  0  0  0  0  0  0  0
   -8.7127   20.3157  -30.5209 H   0  0  0  0  0  0  0  0  0  0  0  0
   -8.6172   17.8907  -31.0308 H   0  0  0  0  0  0  0  0  0  0  0  0
   -7.2004   17.0376  -32.8700 H   0  0  0  0  0  0  0  0  0  0  0  0
   -5.9168   21.0179  -33.7718 H   0  0  0  0  0  0  0  0  0  0  0  0
   -7.7410   24.5340  -31.4390 H   0  0  0  0  0  0  0  0  0  0  0  0
   -6.2436   26.2221  -30.7445 H   0  0  0  0  0  0  0  0  0  0  0  0
  1  2  1  0
  2  3  2  0
  3  4  1  0
  4  5  1  0
  5  6  2  0
  6  7  1  0
  7  8  2  0
  8  9  1  0
  9 10  2  0
 10 11  1  0
 11 12  1  0
 12 13  1  0
 12 14  1  0
 12 15  1  0
 11 16  2  0
  5 17  1  0
 17 18  1  0
 18 19  2  0
 19 20  1  0
 20 21  1  0
 21  2  1  0
 20  4  2  0
 16  7  1  0
  1 22  1  0
  1 23  1  0
  1 24  1  0
  3 25  1  0
  8 26  1  0
  9 27  1  0
 10 28  1  0
 16 29  1  0
 17 30  1  0
 18 31  1  0
M  END
>  <smiles>  (25) 
Cc1cc2c(=Nc3cccc(C(F)(F)F)c3)[nH]cnc2s1

>  <score_type>  (25) 
oracle

>  <origin>  (25) 
adgpu

>  <m_score__min__energy>  (25) 
-7.0499999999999998

>  <m_primary>  (25) 
energy

$$$$
25:0
     RDKit          3D

 36 37  0  0  0  0  0  0  0  0999 V2000
   -8.5920   22.2520  -31.6020 C   0  0  0  0  0  0  0  0  0  0  0  0
   -7.2650   22.9050  -31.3170 C   0  0  0  0  0  0  0  0  0  0  0  0
   -7.2460   24.1560  -30.6790 C   0  0  0  0  0  0  0  0  0  0  0  0
   -6.0370   24.7980  -30.4070 C   0  0  0  0  0  0  0  0  0  0  0  0
   -4.8260   24.2120  -30.7790 C   0  0  0  0  0  0  0  0  0  0  0  0
   -3.6010   24.8920  -30.4690 N   0  0  0  0  0  0  0  0  0  0  0  0
   -2.6960   24.5610  -29.4080 C   0  0  0  0  0  0  0  0  0  0  0  0
   -1.9710   25.4690  -28.9250 O   0  0  0  0  0  0  0  0  0  0  0  0
   -2.5500   23.1830  -28.9030 C   0  0  0  0  0  0  0  0  0  0  0  0
   -3.4450   22.4960  -28.0900 C   0  0  0  0  0  0  0  0  0  0  0  0
   -3.0400   21.1870  -27.8020 C   0  0  0  0  0  0  0  0  0  0  0  0
   -1.8350   20.8330  -28.3940 C   0  0  0  0  0  0  0  0  0  0  0  0
   -1.2770   22.1500  -29.2780 S   0  0  0  0  0  0  0  0  0  0  0  0
   -4.8320   22.9510  -31.3980 C   0  0  0  0  0  0  0  0  0  0  0  0
   -6.0400   22.3000  -31.6920 C   0  0  0  0  0  0  0  0  0  0  0  0
   -5.9860   20.7210  -32.4980 S   0  0  0  0  0  0  0  0  0  0  0  0
   -6.8430   20.7720  -33.7310 O   0  0  0  0  0  0  0  0  0  0  0  0
   -4.5750   20.4070  -32.9170 O   0  0  0  0  0  0  0  0  0  0  0  0
   -6.5700   19.4810  -31.4170 N   0  0  0  0  0  0  0  0  0  0  0  0
   -7.9720   19.1820  -31.7340 C   0  0  0  0  0  0  0  0  0  0  0  0
   -5.7510   18.2730  -31.5700 C   0  0  0  0  0  0  0  0  0  0  0  0
   -9.0911   22.0064  -30.6530 H   0  0  0  0  0  0  0  0  0  0  0  0
   -9.2236   22.9422  -32.1806 H   0  0  0  0  0  0  0  0  0  0  0  0
   -8.4305   21.3305  -32.1806 H   0  0  0  0  0  0  0  0  0  0  0  0
   -8.1935   24.6346  -30.3908 H   0  0  0  0  0  0  0  0  0  0  0  0
   -6.0385   25.7722  -29.8961 H   0  0  0  0  0  0  0  0  0  0  0  0
   -4.3785   22.9372  -27.7108 H   0  0  0  0  0  0  0  0  0  0  0  0
   -3.6218   20.5033  -27.1664 H   0  0  0  0  0  0  0  0  0  0  0  0
   -1.3322   19.8591  -28.3008 H   0  0  0  0  0  0  0  0  0  0  0  0
   -3.8779   22.4678  -31.6555 H   0  0  0  0  0  0  0  0  0  0  0  0
   -8.5411   19.0606  -30.8005 H   0  0  0  0  0  0  0  0  0  0  0  0
   -8.4000   20.0091  -32.3195 H   0  0  0  0  0  0  0  0  0  0  0  0
   -8.0253   18.2523  -32.3195 H   0  0  0  0  0  0  0  0  0  0  0  0
   -5.4857   17.8817  -30.5768 H   0  0  0  0  0  0  0  0  0  0  0  0
   -6.3201   17.5119  -32.1239 H   0  0  0  0  0  0  0  0  0  0  0  0
   -4.8333   18.5199  -32.1239 H   0  0  0  0  0  0  0  0  0  0  0  0
  1  2  1  0
  2  3  2  0
  3  4  1  0
  4  5  2  0
  5  6  1  0
  6  7  1  0
  7  8  2  0
  7  9  1  0
  9 10  2  0
 10 11  1  0
 11 12  2  0
 12 13  1  0
  5 14  1  0
 14 15  2  0
 15 16  1  0
 16 17  2  0
 16 18  2  0
 16 19  1  0
 19 20  1  0
 19 21  1  0
 15  2  1  0
 13  9  1  0
  1 22  1  0
  1 23  1  0
  1 24  1  0
  3 25  1  0
  4 26  1  0
 10 27  1  0
 11 28  1  0
 12 29  1  0
 14 30  1  0
 20 31  1  0
 20 32  1  0
 20 33  1  0
 21 34  1  0
 21 35  1  0
 21 36  1  0
M  CHG  1   6  -1
M  END
>  <UniqueID>  (26) 
25

>  <SMILES>  (26) 
Cc1ccc([N-]C(=O)c2cccs2)cc1S(=O)(=O)N(C)C

>  <Energy>  (26) 
65.4507707015667

>  <Genealogy>  (26) 
Cc1ccc([N-]C(=O)c2cccs2)cc1S(=O)(=O)N(C)C (protonated)
Cc1ccc([N-]C(=O)c2cccs2)cc1S(=O)(=O)N(C)C (3D coordinates assigned)
Cc1ccc([N-]C(=O)c2cccs2)cc1S(=O)(=O)N(C)C (optimized conformer: 65.4507707015667 kcal/mol)

>  <smiles>  (26) 
Cc1ccc(NC(=O)c2cccs2)cc1S(=O)(=O)N(C)C

>  <score_type>  (26) 
oracle

>  <origin>  (26) 
adgpu

>  <m_score__min__energy>  (26) 
-9.1999999999999993

>  <m_primary>  (26) 
energy

$$$$
26:0
     RDKit          3D

 49 52  0  0  1  0  0  0  0  0999 V2000
   -0.8340   30.3080  -25.1880 C   0  0  0  0  0  0  0  0  0  0  0  0
   -0.8120   28.9820  -25.8560 C   0  0  0  0  0  0  0  0  0  0  0  0
   -1.1930   27.7780  -25.3680 N   0  0  0  0  0  0  0  0  0  0  0  0
   -0.9800   26.9150  -26.3470 C   0  0  0  0  0  0  0  0  0  0  0  0
   -1.1940   25.4610  -26.4060 C   0  0  0  0  0  0  0  0  0  0  0  0
   -0.3320   24.6420  -25.7120 C   0  0  0  0  0  0  0  0  0  0  0  0
   -0.4910   23.2720  -25.7580 C   0  0  0  0  0  0  0  0  0  0  0  0
   -1.5100   22.6790  -26.4930 C   0  0  0  0  0  0  0  0  0  0  0  0
   -2.3990   23.5140  -27.2090 C   0  0  0  0  0  0  0  0  0  0  0  0
   -3.3790   23.0350  -28.0450 N   0  0  0  0  0  0  0  0  0  0  0  0
   -3.3000   22.6330  -29.2090 C   0  0  0  0  0  0  0  0  0  0  0  0
   -4.4640   22.2200  -29.7950 N   0  0  0  0  0  0  0  0  0  0  0  0
   -4.5430   21.8530  -31.0800 C   0  0  0  0  0  0  0  0  0  0  0  0
   -5.7960   21.4140  -31.6280 N   0  0  0  0  0  0  0  0  0  0  0  0
   -5.8600   20.4570  -32.6910 C   0  0  0  0  0  0  0  0  0  0  0  0
   -7.1100   19.6450  -32.6590 C   0  0  0  0  0  0  0  0  0  0  0  0
   -8.2560   20.2800  -32.0950 N   0  0  0  0  0  0  0  0  0  0  0  0
   -9.4910   19.8400  -32.7150 C   0  0  0  0  0  0  0  0  0  0  0  0
   -8.1570   21.6990  -31.9490 C   0  0  0  0  0  0  0  0  0  0  0  0
   -6.9830   21.9760  -31.0400 C   0  0  0  0  0  0  0  0  0  0  0  0
   -3.4130   21.9020  -31.7980 N   0  0  0  0  0  0  0  0  0  0  0  0
   -2.2410   22.2980  -31.2640 C   0  0  0  0  0  0  0  0  0  0  0  0
   -2.1410   22.6840  -29.9130 C   0  0  0  0  0  0  0  0  0  0  0  0
   -0.8600   23.0470  -29.5020 N   0  0  0  0  0  0  0  0  0  0  0  0
   -0.3310   24.1420  -29.3400 O   0  0  0  0  0  0  0  0  0  0  0  0
   -0.0510   21.9760  -29.0520 O   0  0  0  0  0  0  0  0  0  0  0  0
   -2.2190   24.9140  -27.1490 C   0  0  0  0  0  0  0  0  0  0  0  0
   -0.4720   27.5720  -27.4300 N   0  0  0  0  0  0  0  0  0  0  0  0
   -0.3810   28.8280  -27.1030 O   0  0  0  0  0  0  0  0  0  0  0  0
   -0.8317   30.1689  -24.0968 H   0  0  0  0  0  0  0  0  0  0  0  0
    0.0547   30.8836  -25.4862 H   0  0  0  0  0  0  0  0  0  0  0  0
   -1.7413   30.8538  -25.4862 H   0  0  0  0  0  0  0  0  0  0  0  0
    0.4848   25.0804  -25.1199 H   0  0  0  0  0  0  0  0  0  0  0  0
    0.2074   22.6327  -25.1980 H   0  0  0  0  0  0  0  0  0  0  0  0
   -1.6228   21.5851  -26.5175 H   0  0  0  0  0  0  0  0  0  0  0  0
   -5.3620   22.1760  -29.2460 H   0  0  0  0  0  0  0  0  0  0  0  0
   -5.8129   20.9929  -33.6505 H   0  0  0  0  0  0  0  0  0  0  0  0
   -5.0121   19.7670  -32.5687 H   0  0  0  0  0  0  0  0  0  0  0  0
   -7.3559   19.3655  -33.6941 H   0  0  0  0  0  0  0  0  0  0  0  0
   -6.8912   18.7912  -32.0009 H   0  0  0  0  0  0  0  0  0  0  0  0
  -10.2209   19.5800  -31.9342 H   0  0  0  0  0  0  0  0  0  0  0  0
   -9.8958   20.6492  -33.3405 H   0  0  0  0  0  0  0  0  0  0  0  0
   -9.2930   18.9571  -33.3405 H   0  0  0  0  0  0  0  0  0  0  0  0
   -7.9921   22.1678  -32.9303 H   0  0  0  0  0  0  0  0  0  0  0  0
   -9.0839   22.1126  -31.5250 H   0  0  0  0  0  0  0  0  0  0  0  0
   -6.8570   23.0622  -30.9200 H   0  0  0  0  0  0  0  0  0  0  0  0
   -7.1605   21.5234  -30.0533 H   0  0  0  0  0  0  0  0  0  0  0  0
   -1.3419   22.3204  -31.8974 H   0  0  0  0  0  0  0  0  0  0  0  0
   -2.9037   25.5748  -27.7008 H   0  0  0  0  0  0  0  0  0  0  0  0
  1  2  1  0
  2  3  2  0
  3  4  1  0
  4  5  1  0
  5  6  2  0
  6  7  1  0
  7  8  2  0
  8  9  1  0
  9 10  1  0
 10 11  2  0
 11 12  1  0
 12 13  1  0
 13 14  1  0
 14 15  1  0
 15 16  1  0
 16 17  1  0
 17 18  1  0
 17 19  1  0
 19 20  1  0
 13 21  2  0
 21 22  1  0
 22 23  2  0
 23 24  1  0
 24 25  2  0
 24 26  1  0
  9 27  2  0
  4 28  2  0
 28 29  1  0
 29  2  1  0
 27  5  1  0
 23 11  1  0
 20 14  1  0
  1 30  1  0
  1 31  1  0
  1 32  1  0
  6 33  1  0
  7 34  1  0
  8 35  1  0
 12 36  1  0
 15 37  1  0
 15 38  1  0
 16 39  1  0
 16 40  1  0
 18 41  1  0
 18 42  1  0
 18 43  1  0
 19 44  1  0
 19 45  1  0
 20 46  1  0
 20 47  1  0
 22 48  1  0
 27 49  1  0
M  CHG  2  24   1  26  -1
M  END
>  <smiles>  (27) 
Cc1nc(-c2cccc(N=c3[nH]c(N4CCN(C)CC4)ncc3[N+](=O)[O-])c2)no1

>  <score_type>  (27) 
oracle

>  <origin>  (27) 
adgpu

>  <m_score__min__energy>  (27) 
-9.5

>  <m_primary>  (27) 
energy

$$$$
27:0
     RDKit          3D

 44 46  0  0  0  0  0  0  0  0999 V2000
   -5.8529   14.6883  -34.4179 H   0  0  0  0  0  0  0  0  0  0  0  0
   -5.7620   15.7500  -34.1450 C   0  0  0  0  0  0  0  0  0  0  0  0
   -4.5460   16.4160  -34.3280 C   0  0  0  0  0  0  0  0  0  0  0  0
   -3.6831   15.8787  -34.7483 H   0  0  0  0  0  0  0  0  0  0  0  0
   -4.4260   17.7650  -33.9770 C   0  0  0  0  0  0  0  0  0  0  0  0
   -3.1720   18.4480  -34.1570 C   0  0  0  0  0  0  0  0  0  0  0  0
   -2.1630   18.9970  -34.3020 N   0  0  0  0  0  0  0  0  0  0  0  0
   -5.5270   18.4500  -33.4450 C   0  0  0  0  0  0  0  0  0  0  0  0
   -5.4287   19.5076  -33.1589 H   0  0  0  0  0  0  0  0  0  0  0  0
   -6.7560   17.7900  -33.2760 C   0  0  0  0  0  0  0  0  0  0  0  0
   -7.9280   18.5130  -32.6680 C   0  0  0  0  0  0  0  0  0  0  0  0
   -7.8491   18.4714  -31.5716 H   0  0  0  0  0  0  0  0  0  0  0  0
   -8.8564   18.0265  -33.0017 H   0  0  0  0  0  0  0  0  0  0  0  0
   -7.9490   19.9130  -33.0960 N   0  0  0  0  0  0  0  0  0  0  0  0
   -8.4520   20.1620  -33.9790 H   0  0  0  0  0  0  0  0  0  0  0  0
   -7.3070   20.9730  -32.3610 C   0  0  0  0  0  0  0  0  0  0  0  0
   -7.9160   22.2380  -32.3080 C   0  0  0  0  0  0  0  0  0  0  0  0
   -8.8721   22.4051  -32.8256 H   0  0  0  0  0  0  0  0  0  0  0  0
   -7.3170   23.2860  -31.6030 C   0  0  0  0  0  0  0  0  0  0  0  0
   -7.8046   24.2714  -31.5668 H   0  0  0  0  0  0  0  0  0  0  0  0
   -6.0990   23.0860  -30.9430 C   0  0  0  0  0  0  0  0  0  0  0  0
   -5.3360   24.4020  -30.0570 S   0  0  0  0  0  0  0  0  0  0  0  0
   -4.6360   25.3400  -31.0030 O   0  0  0  0  0  0  0  0  0  0  0  0
   -6.3890   25.1620  -29.3020 O   0  0  0  0  0  0  0  0  0  0  0  0
   -4.1780   23.7650  -28.9370 N   0  0  0  0  0  0  0  0  0  0  0  0
   -2.9910   24.2700  -28.8030 C   0  0  0  0  0  0  0  0  0  0  0  0
   -2.5340   25.2980  -29.4790 O   0  0  0  0  0  0  0  0  0  0  0  0
   -1.3000   25.5540  -29.1470 N   0  0  0  0  0  0  0  0  0  0  0  0
   -0.9480   24.6500  -28.2080 C   0  0  0  0  0  0  0  0  0  0  0  0
    0.4140   24.5680  -27.5990 C   0  0  0  0  0  0  0  0  0  0  0  0
    0.3263   24.5733  -26.5025 H   0  0  0  0  0  0  0  0  0  0  0  0
    0.9052   23.6387  -27.9231 H   0  0  0  0  0  0  0  0  0  0  0  0
    1.0132   25.4317  -27.9231 H   0  0  0  0  0  0  0  0  0  0  0  0
   -2.0160   23.8110  -27.9480 C   0  0  0  0  0  0  0  0  0  0  0  0
   -2.0510   22.6000  -27.0690 C   0  0  0  0  0  0  0  0  0  0  0  0
   -2.0420   22.9121  -26.0143 H   0  0  0  0  0  0  0  0  0  0  0  0
   -2.9661   22.0249  -27.2734 H   0  0  0  0  0  0  0  0  0  0  0  0
   -1.1706   21.9730  -27.2734 H   0  0  0  0  0  0  0  0  0  0  0  0
   -5.4890   21.8270  -30.9850 C   0  0  0  0  0  0  0  0  0  0  0  0
   -4.5362   21.6630  -30.4603 H   0  0  0  0  0  0  0  0  0  0  0  0
   -6.0840   20.7770  -31.6900 C   0  0  0  0  0  0  0  0  0  0  0  0
   -5.5947   19.7923  -31.7210 H   0  0  0  0  0  0  0  0  0  0  0  0
   -6.8620   16.4310  -33.6160 C   0  0  0  0  0  0  0  0  0  0  0  0
   -7.8141   15.9010  -33.4654 H   0  0  0  0  0  0  0  0  0  0  0  0
  1  2  1  0
  2  3  2  0
  3  4  1  0
  3  5  1  0
  5  6  1  0
  6  7  3  0
  5  8  2  0
  8  9  1  0
  8 10  1  0
 10 11  1  0
 11 12  1  0
 11 13  1  0
 11 14  1  0
 14 15  1  0
 14 16  1  0
 16 17  2  0
 17 18  1  0
 17 19  1  0
 19 20  1  0
 19 21  2  0
 21 22  1  0
 22 23  2  0
 22 24  2  0
 22 25  1  0
 25 26  2  0
 26 27  1  0
 27 28  1  0
 28 29  1  0
 29 30  1  0
 30 31  1  0
 30 32  1  0
 30 33  1  0
 29 34  2  0
 34 35  1  0
 35 36  1  0
 35 37  1  0
 35 38  1  0
 21 39  1  0
 39 40  1  0
 39 41  2  0
 41 42  1  0
 10 43  2  0
 43 44  1  0
 43  2  1  0
 41 16  1  0
 34 26  1  0
M  CHG  1  28  -1
M  END
>  <UniqueID>  (28) 
26

>  <SMILES>  (28) 
Cc1[n-]o/c(=N\S(=O)(=O)c2ccc(NCc3cccc(C#N)c3)cc2)c1C

>  <Energy>  (28) 
77.05531160242131

>  <Genealogy>  (28) 
Cc1[n-]oc(=NS(=O)(=O)c2ccc(NCc3cccc(C#N)c3)cc2)c1C (protonated)
Cc1[n-]o/c(=N\S(=O)(=O)c2ccc(NCc3cccc(C#N)c3)cc2)c1C (cis-trans isomerization)
Cc1[n-]o/c(=N\S(=O)(=O)c2ccc(NCc3cccc(C#N)c3)cc2)c1C (3D coordinates assigned)
Cc1[n-]o/c(=N\S(=O)(=O)c2ccc(NCc3cccc(C#N)c3)cc2)c1C (optimized conformer: 77.05531160242131 kcal/mol)

>  <smiles>  (28) 
Cc1[nH]oc(=NS(=O)(=O)c2ccc(NCc3cccc(C#N)c3)cc2)c1C

>  <score_type>  (28) 
oracle

>  <origin>  (28) 
adgpu

>  <m_score__min__energy>  (28) 
-13.359999999999999

>  <m_primary>  (28) 
energy

$$$$
28:0
     RDKit          3D

 37 39  0  0  0  0  0  0  0  0999 V2000
   -2.0591   16.7443  -33.6657 H   0  0  0  0  0  0  0  0  0  0  0  0
   -2.5790   17.7110  -33.5930 C   0  0  0  0  0  0  0  0  0  0  0  0
   -1.8810   18.8500  -33.1840 C   0  0  0  0  0  0  0  0  0  0  0  0
   -0.8107   18.7808  -32.9397 H   0  0  0  0  0  0  0  0  0  0  0  0
   -2.5430   20.0790  -33.0850 C   0  0  0  0  0  0  0  0  0  0  0  0
   -1.6680   21.5070  -32.5620 Cl  0  0  0  0  0  0  0  0  0  0  0  0
   -3.9030   20.1680  -33.4030 C   0  0  0  0  0  0  0  0  0  0  0  0
   -4.4226   21.1337  -33.3170 H   0  0  0  0  0  0  0  0  0  0  0  0
   -4.6060   19.0350  -33.8300 C   0  0  0  0  0  0  0  0  0  0  0  0
   -5.9700   19.1640  -34.1350 O   0  0  0  0  0  0  0  0  0  0  0  0
   -7.0130   19.1200  -33.1990 C   0  0  0  0  0  0  0  0  0  0  0  0
   -7.5820   17.8830  -32.8920 C   0  0  0  0  0  0  0  0  0  0  0  0
   -7.2068   16.9714  -33.3801 H   0  0  0  0  0  0  0  0  0  0  0  0
   -8.6220   17.7980  -31.9710 C   0  0  0  0  0  0  0  0  0  0  0  0
   -9.0778   16.8249  -31.7356 H   0  0  0  0  0  0  0  0  0  0  0  0
   -9.0800   18.9590  -31.3500 C   0  0  0  0  0  0  0  0  0  0  0  0
   -9.9085   18.9034  -30.6286 H   0  0  0  0  0  0  0  0  0  0  0  0
   -8.5070   20.1610  -31.6320 N   0  0  0  0  0  0  0  0  0  0  0  0
   -8.8850   20.9920  -31.1280 H   0  0  0  0  0  0  0  0  0  0  0  0
   -7.4750   20.2740  -32.5270 C   0  0  0  0  0  0  0  0  0  0  0  0
   -6.8850   21.4140  -32.7520 N   0  0  0  0  0  0  0  0  0  0  0  0
   -7.2740   22.9430  -32.0250 S   0  0  0  0  0  0  0  0  0  0  0  0
   -8.3750   22.7440  -31.0200 O   0  0  0  0  0  0  0  0  0  0  0  0
   -7.7530   23.8830  -33.0940 O   0  0  0  0  0  0  0  0  0  0  0  0
   -5.8470   23.6330  -31.2590 C   0  0  0  0  0  0  0  0  0  0  0  0
   -4.7080   22.8450  -31.0410 C   0  0  0  0  0  0  0  0  0  0  0  0
   -4.7062   21.7877  -31.3447 H   0  0  0  0  0  0  0  0  0  0  0  0
   -3.5750   23.3990  -30.4390 C   0  0  0  0  0  0  0  0  0  0  0  0
   -2.6823   22.7783  -30.2725 H   0  0  0  0  0  0  0  0  0  0  0  0
   -3.5750   24.7420  -30.0480 C   0  0  0  0  0  0  0  0  0  0  0  0
   -2.4490   25.2930  -29.4500 O   0  0  0  0  0  0  0  0  0  0  0  0
   -4.7120   25.5310  -30.2590 C   0  0  0  0  0  0  0  0  0  0  0  0
   -4.7131   26.5870  -29.9508 H   0  0  0  0  0  0  0  0  0  0  0  0
   -5.8460   24.9780  -30.8610 C   0  0  0  0  0  0  0  0  0  0  0  0
   -6.7394   25.5989  -31.0229 H   0  0  0  0  0  0  0  0  0  0  0  0
   -3.9380   17.7990  -33.9100 C   0  0  0  0  0  0  0  0  0  0  0  0
   -4.4870   16.8987  -34.2231 H   0  0  0  0  0  0  0  0  0  0  0  0
  1  2  1  0
  2  3  2  0
  3  4  1  0
  3  5  1  0
  5  6  1  0
  5  7  2  0
  7  8  1  0
  7  9  1  0
  9 10  1  0
 10 11  1  0
 11 12  2  0
 12 13  1  0
 12 14  1  0
 14 15  1  0
 14 16  2  0
 16 17  1  0
 16 18  1  0
 18 19  1  0
 18 20  1  0
 20 21  2  0
 21 22  1  0
 22 23  2  0
 22 24  2  0
 22 25  1  0
 25 26  2  0
 26 27  1  0
 26 28  1  0
 28 29  1  0
 28 30  2  0
 30 31  1  0
 30 32  1  0
 32 33  1  0
 32 34  2  0
 34 35  1  0
  9 36  2  0
 36 37  1  0
 36  2  1  0
 20 11  1  0
 34 25  1  0
M  CHG  1  31  -1
M  END
>  <UniqueID>  (29) 
27

>  <SMILES>  (29) 
O=S(=O)(/N=c1\[nH]cccc1Oc1cccc(Cl)c1)c1ccc([O-])cc1

>  <Energy>  (29) 
52.69140342278203

>  <Genealogy>  (29) 
O=S(=O)(N=c1[nH]cccc1Oc1cccc(Cl)c1)c1ccc([O-])cc1 (protonated)
O=S(=O)(/N=c1\[nH]cccc1Oc1cccc(Cl)c1)c1ccc([O-])cc1 (cis-trans isomerization)
O=S(=O)(/N=c1\[nH]cccc1Oc1cccc(Cl)c1)c1ccc([O-])cc1 (3D coordinates assigned)
O=S(=O)(/N=c1\[nH]cccc1Oc1cccc(Cl)c1)c1ccc([O-])cc1 (optimized conformer: 52.69140342278203 kcal/mol)

>  <smiles>  (29) 
O=S(=O)(N=c1[nH]cccc1Oc1cccc(Cl)c1)c1ccc(O)cc1

>  <score_type>  (29) 
oracle

>  <origin>  (29) 
adgpu

>  <m_score__min__energy>  (29) 
-10.84

>  <m_primary>  (29) 
energy

$$$$
29:0
     RDKit          3D

 39 41  0  0  0  0  0  0  0  0999 V2000
   -0.1560   26.2480  -25.0990 C   0  0  0  0  0  0  0  0  0  0  0  0
   -1.0180   25.7510  -26.2230 C   0  0  0  0  0  0  0  0  0  0  0  0
   -0.5370   25.7640  -27.5390 C   0  0  0  0  0  0  0  0  0  0  0  0
   -1.3520   25.3370  -28.5920 C   0  0  0  0  0  0  0  0  0  0  0  0
   -2.6660   24.9000  -28.3490 C   0  0  0  0  0  0  0  0  0  0  0  0
   -3.5150   24.4500  -29.4790 C   0  0  0  0  0  0  0  0  0  0  0  0
   -4.2680   25.2380  -30.3280 C   0  0  0  0  0  0  0  0  0  0  0  0
   -4.8940   24.4510  -31.2190 N   0  0  0  0  0  0  0  0  0  0  0  0
   -4.5050   23.2000  -30.8890 C   0  0  0  0  0  0  0  0  0  0  0  0
   -4.9550   21.9910  -31.6140 C   0  0  0  0  0  0  0  0  0  0  0  0
   -4.1730   21.4450  -32.6430 C   0  0  0  0  0  0  0  0  0  0  0  0
   -4.5980   20.3030  -33.3290 C   0  0  0  0  0  0  0  0  0  0  0  0
   -5.8180   19.6760  -33.0040 C   0  0  0  0  0  0  0  0  0  0  0  0
   -6.2600   18.4900  -33.7160 N   0  0  0  0  0  0  0  0  0  0  0  0
   -7.2460   17.5820  -33.1150 C   0  0  0  0  0  0  0  0  0  0  0  0
   -5.7290   18.1780  -35.0480 C   0  0  0  0  0  0  0  0  0  0  0  0
   -6.5970   20.2320  -31.9690 C   0  0  0  0  0  0  0  0  0  0  0  0
   -6.1720   21.3730  -31.2850 C   0  0  0  0  0  0  0  0  0  0  0  0
   -3.6640   23.1600  -29.8330 N   0  0  0  0  0  0  0  0  0  0  0  0
   -3.1490   24.9070  -27.0260 C   0  0  0  0  0  0  0  0  0  0  0  0
   -2.3320   25.3340  -25.9750 C   0  0  0  0  0  0  0  0  0  0  0  0
   -0.6182   25.9815  -24.1370 H   0  0  0  0  0  0  0  0  0  0  0  0
    0.8395   25.7853  -25.1682 H   0  0  0  0  0  0  0  0  0  0  0  0
   -0.0577   27.3414  -25.1682 H   0  0  0  0  0  0  0  0  0  0  0  0
    0.4862   26.1116  -27.7447 H   0  0  0  0  0  0  0  0  0  0  0  0
   -0.9613   25.3431  -29.6203 H   0  0  0  0  0  0  0  0  0  0  0  0
   -4.3430   26.3345  -30.2819 H   0  0  0  0  0  0  0  0  0  0  0  0
   -3.2177   21.9192  -32.9123 H   0  0  0  0  0  0  0  0  0  0  0  0
   -3.9720   19.8884  -34.1329 H   0  0  0  0  0  0  0  0  0  0  0  0
   -7.1800   17.6428  -32.0187 H   0  0  0  0  0  0  0  0  0  0  0  0
   -8.2566   17.8723  -33.4381 H   0  0  0  0  0  0  0  0  0  0  0  0
   -7.0398   16.5510  -33.4381 H   0  0  0  0  0  0  0  0  0  0  0  0
   -4.7847   17.6232  -34.9456 H   0  0  0  0  0  0  0  0  0  0  0  0
   -6.4571   17.5641  -35.5984 H   0  0  0  0  0  0  0  0  0  0  0  0
   -5.5471   19.1128  -35.5984 H   0  0  0  0  0  0  0  0  0  0  0  0
   -7.5528   19.7607  -31.6964 H   0  0  0  0  0  0  0  0  0  0  0  0
   -6.7961   21.7912  -30.4815 H   0  0  0  0  0  0  0  0  0  0  0  0
   -4.1766   24.5741  -26.8182 H   0  0  0  0  0  0  0  0  0  0  0  0
   -2.7234   25.3426  -24.9470 H   0  0  0  0  0  0  0  0  0  0  0  0
  1  2  1  0
  2  3  2  0
  3  4  1  0
  4  5  2  0
  5  6  1  0
  6  7  2  0
  7  8  1  0
  8  9  1  0
  9 10  1  0
 10 11  2  0
 11 12  1  0
 12 13  2  0
 13 14  1  0
 14 15  1  0
 14 16  1  0
 13 17  1  0
 17 18  2  0
  9 19  2  0
  5 20  1  0
 20 21  2  0
 21  2  1  0
 19  6  1  0
 18 10  1  0
  1 22  1  0
  1 23  1  0
  1 24  1  0
  3 25  1  0
  4 26  1  0
  7 27  1  0
 11 28  1  0
 12 29  1  0
 15 30  1  0
 15 31  1  0
 15 32  1  0
 16 33  1  0
 16 34  1  0
 16 35  1  0
 17 36  1  0
 18 37  1  0
 20 38  1  0
 21 39  1  0
M  CHG  1   8  -1
M  END
>  <UniqueID>  (30) 
28

>  <SMILES>  (30) 
Cc1ccc(-c2c[n-]c(-c3ccc(N(C)C)cc3)n2)cc1

>  <Energy>  (30) 
71.46378907569287

>  <Genealogy>  (30) 
Cc1ccc(-c2c[n-]c(-c3ccc(N(C)C)cc3)n2)cc1 (protonated)
Cc1ccc(-c2c[n-]c(-c3ccc(N(C)C)cc3)n2)cc1 (3D coordinates assigned)
Cc1ccc(-c2c[n-]c(-c3ccc(N(C)C)cc3)n2)cc1 (optimized conformer: 71.46378907569287 kcal/mol)

>  <smiles>  (30) 
Cc1ccc(-c2c[nH]c(-c3ccc(N(C)C)cc3)n2)cc1

>  <score_type>  (30) 
oracle

>  <origin>  (30) 
adgpu

>  <m_score__min__energy>  (30) 
-8.5199999999999996

>  <m_primary>  (30) 
energy

$$$$
30:0
     RDKit          3D

 65 69  0  0  0  0  0  0  0  0999 V2000
   -8.2027   18.7583  -33.5784 H   0  0  0  0  0  0  0  0  0  0  0  0
   -7.8040   19.5950  -32.9860 C   0  0  0  0  0  0  0  0  0  0  0  0
   -6.4700   19.8440  -32.9760 N   0  0  0  0  0  0  0  0  0  0  0  0
   -5.9240   20.8720  -32.2680 C   0  0  0  0  0  0  0  0  0  0  0  0
   -4.4950   21.0280  -32.2710 N   0  0  0  0  0  0  0  0  0  0  0  0
   -3.6680   20.4480  -31.2060 C   0  0  0  0  0  0  0  0  0  0  0  0
   -4.2922   19.7886  -30.5851 H   0  0  0  0  0  0  0  0  0  0  0  0
   -3.2513   21.2671  -30.6014 H   0  0  0  0  0  0  0  0  0  0  0  0
   -2.5010   19.6300  -31.7940 C   0  0  0  0  0  0  0  0  0  0  0  0
   -2.8463   18.5958  -31.9398 H   0  0  0  0  0  0  0  0  0  0  0  0
   -1.6712   19.7111  -31.0765 H   0  0  0  0  0  0  0  0  0  0  0  0
   -1.9830   20.1350  -33.0970 N   0  0  0  0  0  0  0  0  0  0  0  0
   -2.3460   19.2280  -34.2130 C   0  0  0  0  0  0  0  0  0  0  0  0
   -1.4838   18.5836  -34.4397 H   0  0  0  0  0  0  0  0  0  0  0  0
   -2.6204   19.8511  -35.0770 H   0  0  0  0  0  0  0  0  0  0  0  0
   -3.5470   18.3420  -33.8750 C   0  0  0  0  0  0  0  0  0  0  0  0
   -3.6504   18.2657  -32.7825 H   0  0  0  0  0  0  0  0  0  0  0  0
   -4.4601   18.7845  -34.2997 H   0  0  0  0  0  0  0  0  0  0  0  0
   -3.3938   17.3390  -34.2997 H   0  0  0  0  0  0  0  0  0  0  0  0
   -2.3350   21.5530  -33.3390 C   0  0  0  0  0  0  0  0  0  0  0  0
   -1.9135   21.8655  -34.3058 H   0  0  0  0  0  0  0  0  0  0  0  0
   -1.9211   22.1556  -32.5170 H   0  0  0  0  0  0  0  0  0  0  0  0
   -3.8540   21.7600  -33.3680 C   0  0  0  0  0  0  0  0  0  0  0  0
   -4.2505   21.3947  -34.3268 H   0  0  0  0  0  0  0  0  0  0  0  0
   -4.0683   22.8327  -33.2519 H   0  0  0  0  0  0  0  0  0  0  0  0
   -6.7730   21.7330  -31.5250 C   0  0  0  0  0  0  0  0  0  0  0  0
   -6.2650   22.9360  -30.8210 C   0  0  0  0  0  0  0  0  0  0  0  0
   -6.9790   24.1410  -30.8600 C   0  0  0  0  0  0  0  0  0  0  0  0
   -7.9212   24.2083  -31.4238 H   0  0  0  0  0  0  0  0  0  0  0  0
   -6.4870   25.2550  -30.1790 C   0  0  0  0  0  0  0  0  0  0  0  0
   -7.0438   26.2032  -30.2083 H   0  0  0  0  0  0  0  0  0  0  0  0
   -5.3230   25.1760  -29.4790 N   0  0  0  0  0  0  0  0  0  0  0  0
   -4.9920   26.0240  -28.9670 H   0  0  0  0  0  0  0  0  0  0  0  0
   -4.5900   24.0260  -29.4290 C   0  0  0  0  0  0  0  0  0  0  0  0
   -3.5070   24.0010  -28.6980 N   0  0  0  0  0  0  0  0  0  0  0  0
   -2.6010   22.8970  -28.5540 C   0  0  0  0  0  0  0  0  0  0  0  0
   -1.5450   22.7050  -29.4590 C   0  0  0  0  0  0  0  0  0  0  0  0
   -1.3937   23.4175  -30.2832 H   0  0  0  0  0  0  0  0  0  0  0  0
   -0.6850   21.6120  -29.3170 C   0  0  0  0  0  0  0  0  0  0  0  0
    0.1310   21.4601  -30.0389 H   0  0  0  0  0  0  0  0  0  0  0  0
   -0.8580   20.7060  -28.2560 C   0  0  0  0  0  0  0  0  0  0  0  0
    0.0140   19.5710  -28.1110 N   0  0  0  0  0  0  0  0  0  0  0  0
    1.4380   19.6910  -28.4550 C   0  0  0  0  0  0  0  0  0  0  0  0
    1.5522   20.4560  -29.2371 H   0  0  0  0  0  0  0  0  0  0  0  0
    1.9875   19.9719  -27.5444 H   0  0  0  0  0  0  0  0  0  0  0  0
    2.0180   18.3530  -28.9740 C   0  0  0  0  0  0  0  0  0  0  0  0
    2.3042   18.4845  -30.0279 H   0  0  0  0  0  0  0  0  0  0  0  0
    2.8767   18.1055  -28.3326 H   0  0  0  0  0  0  0  0  0  0  0  0
    1.1110   17.2650  -28.8890 O   0  0  0  0  0  0  0  0  0  0  0  0
    0.5330   17.2180  -27.6030 C   0  0  0  0  0  0  0  0  0  0  0  0
    0.0277   16.2511  -27.4629 H   0  0  0  0  0  0  0  0  0  0  0  0
    1.3192   17.3334  -26.8423 H   0  0  0  0  0  0  0  0  0  0  0  0
   -0.4840   18.3500  -27.4620 C   0  0  0  0  0  0  0  0  0  0  0  0
   -1.4300   18.0482  -27.9353 H   0  0  0  0  0  0  0  0  0  0  0  0
   -0.6440   18.5544  -26.3931 H   0  0  0  0  0  0  0  0  0  0  0  0
   -1.8880   20.9300  -27.3270 C   0  0  0  0  0  0  0  0  0  0  0  0
   -2.0196   20.2400  -26.4805 H   0  0  0  0  0  0  0  0  0  0  0  0
   -2.7470   22.0240  -27.4710 C   0  0  0  0  0  0  0  0  0  0  0  0
   -3.5406   22.1987  -26.7296 H   0  0  0  0  0  0  0  0  0  0  0  0
   -5.0530   22.8880  -30.1210 C   0  0  0  0  0  0  0  0  0  0  0  0
   -4.4611   21.9609  -30.1110 H   0  0  0  0  0  0  0  0  0  0  0  0
   -8.1530   21.4680  -31.5180 C   0  0  0  0  0  0  0  0  0  0  0  0
   -8.8298   22.1089  -30.9339 H   0  0  0  0  0  0  0  0  0  0  0  0
   -8.6690   20.3990  -32.2460 C   0  0  0  0  0  0  0  0  0  0  0  0
   -9.7491   20.1911  -32.2371 H   0  0  0  0  0  0  0  0  0  0  0  0
  1  2  1  0
  2  3  2  0
  3  4  1  0
  4  5  1  0
  5  6  1  0
  6  7  1  0
  6  8  1  0
  6  9  1  0
  9 10  1  0
  9 11  1  0
  9 12  1  0
 12 13  1  0
 13 14  1  0
 13 15  1  0
 13 16  1  0
 16 17  1  0
 16 18  1  0
 16 19  1  0
 12 20  1  0
 20 21  1  0
 20 22  1  0
 20 23  1  0
 23 24  1  0
 23 25  1  0
  4 26  2  0
 26 27  1  0
 27 28  1  0
 28 29  1  0
 28 30  2  0
 30 31  1  0
 30 32  1  0
 32 33  1  0
 32 34  1  0
 34 35  2  0
 35 36  1  0
 36 37  2  0
 37 38  1  0
 37 39  1  0
 39 40  1  0
 39 41  2  0
 41 42  1  0
 42 43  1  0
 43 44  1  0
 43 45  1  0
 43 46  1  0
 46 47  1  0
 46 48  1  0
 46 49  1  0
 49 50  1  0
 50 51  1  0
 50 52  1  0
 50 53  1  0
 53 54  1  0
 53 55  1  0
 41 56  1  0
 56 57  1  0
 56 58  2  0
 58 59  1  0
 34 60  1  0
 60 61  1  0
 26 62  1  0
 62 63  1  0
 62 64  2  0
 64 65  1  0
 64  2  1  0
 23  5  1  0
 60 27  2  0
 58 36  1  0
 53 42  1  0
M  END
>  <UniqueID>  (31) 
29

>  <SMILES>  (31) 
CCN1CCN(c2ncccc2-c2cc[nH]/c(=N/c3ccc(N4CCOCC4)cc3)c2)CC1

>  <Energy>  (31) 
106.73612887449265

>  <Genealogy>  (31) 
CCN1CCN(c2ncccc2-c2cc[nH]/c(=N/c3ccc(N4CCOCC4)cc3)c2)CC1 (cis-trans isomerization)
CCN1CCN(c2ncccc2-c2cc[nH]/c(=N/c3ccc(N4CCOCC4)cc3)c2)CC1 (3D coordinates assigned)
CCN1CCN(c2ncccc2-c2cc[nH]/c(=N/c3ccc(N4CCOCC4)cc3)c2)CC1 (nonaromatic ring conformer: 106.73612887449265 kcal/mol)

>  <smiles>  (31) 
CCN1CCN(c2ncccc2-c2cc[nH]c(=Nc3ccc(N4CCOCC4)cc3)c2)CC1

>  <score_type>  (31) 
oracle

>  <origin>  (31) 
adgpu

>  <m_score__min__energy>  (31) 
-9.0700000000000003

>  <m_primary>  (31) 
energy

$$$$
31:0
     RDKit          3D

 63 67  0  0  0  0  0  0  0  0999 V2000
   -1.2140   22.8380  -30.3520 O   0  0  0  0  0  0  0  0  0  0  0  0
   -2.4540   22.6380  -30.2380 C   0  0  0  0  0  0  0  0  0  0  0  0
   -3.2360   23.4440  -29.3340 N   0  0  0  0  0  0  0  0  0  0  0  0
   -2.6730   24.3340  -28.3550 C   0  0  0  0  0  0  0  0  0  0  0  0
   -3.2620   24.4190  -27.0840 C   0  0  0  0  0  0  0  0  0  0  0  0
   -2.7150   25.2490  -26.1000 C   0  0  0  0  0  0  0  0  0  0  0  0
   -1.5590   25.9930  -26.3710 C   0  0  0  0  0  0  0  0  0  0  0  0
   -0.8680   27.0490  -25.1420 S   0  0  0  0  0  0  0  0  0  0  0  0
   -1.0300   28.4870  -25.5560 O   0  0  0  0  0  0  0  0  0  0  0  0
   -1.6030   26.8380  -23.8460 O   0  0  0  0  0  0  0  0  0  0  0  0
    0.8190   26.6560  -24.9230 N   0  0  0  0  0  0  0  0  0  0  0  0
    1.0190   25.2140  -24.8000 C   0  0  0  0  0  0  0  0  0  0  0  0
    2.4420   24.9400  -25.2520 C   0  0  0  0  0  0  0  0  0  0  0  0
    2.8150   26.1240  -26.1330 C   0  0  0  0  0  0  0  0  0  0  0  0
    1.6130   27.0590  -26.0830 C   0  0  0  0  0  0  0  0  0  0  0  0
   -0.9600   25.9060  -27.6330 C   0  0  0  0  0  0  0  0  0  0  0  0
   -1.5050   25.0740  -28.6160 C   0  0  0  0  0  0  0  0  0  0  0  0
   -3.0870   21.5860  -31.0650 C   0  0  0  0  0  0  0  0  0  0  0  0
   -2.6260   21.2970  -32.3600 C   0  0  0  0  0  0  0  0  0  0  0  0
   -3.2320   20.2920  -33.1210 C   0  0  0  0  0  0  0  0  0  0  0  0
   -4.2990   19.5450  -32.5970 C   0  0  0  0  0  0  0  0  0  0  0  0
   -4.9480   18.4440  -33.4150 C   0  0  0  0  0  0  0  0  0  0  0  0
   -6.3930   18.6610  -33.6630 N   0  0  0  0  0  0  0  0  0  0  0  0
   -7.2890   17.9660  -32.6930 C   0  0  0  0  0  0  0  0  0  0  0  0
   -8.4910   18.8090  -32.2170 C   0  0  0  0  0  0  0  0  0  0  0  0
   -8.0580   20.2130  -31.9190 C   0  0  0  0  0  0  0  0  0  0  0  0
   -8.5370   20.9180  -30.8030 C   0  0  0  0  0  0  0  0  0  0  0  0
   -8.1420   22.2440  -30.5930 C   0  0  0  0  0  0  0  0  0  0  0  0
   -7.2830   22.8710  -31.5010 C   0  0  0  0  0  0  0  0  0  0  0  0
   -6.8170   22.1750  -32.6240 C   0  0  0  0  0  0  0  0  0  0  0  0
   -7.1970   20.8390  -32.8270 C   0  0  0  0  0  0  0  0  0  0  0  0
   -6.7490   20.0530  -34.0290 C   0  0  0  0  0  0  0  0  0  0  0  0
   -4.7760   19.8520  -31.3120 C   0  0  0  0  0  0  0  0  0  0  0  0
   -4.1640   20.8490  -30.5470 C   0  0  0  0  0  0  0  0  0  0  0  0
   -4.2780   23.4080  -29.3960 H   0  0  0  0  0  0  0  0  0  0  0  0
   -4.1619   23.8276  -26.8596 H   0  0  0  0  0  0  0  0  0  0  0  0
   -3.1931   25.3178  -25.1117 H   0  0  0  0  0  0  0  0  0  0  0  0
    0.8842   24.8988  -23.7548 H   0  0  0  0  0  0  0  0  0  0  0  0
    0.2922   24.6566  -25.4092 H   0  0  0  0  0  0  0  0  0  0  0  0
    3.1166   24.8761  -24.3855 H   0  0  0  0  0  0  0  0  0  0  0  0
    2.5260   23.9842  -25.7900 H   0  0  0  0  0  0  0  0  0  0  0  0
    3.7112   26.6278  -25.7417 H   0  0  0  0  0  0  0  0  0  0  0  0
    3.0481   25.8115  -27.1616 H   0  0  0  0  0  0  0  0  0  0  0  0
    1.9470   28.1011  -25.9710 H   0  0  0  0  0  0  0  0  0  0  0  0
    1.0227   26.9966  -27.0091 H   0  0  0  0  0  0  0  0  0  0  0  0
   -0.0569   26.4944  -27.8525 H   0  0  0  0  0  0  0  0  0  0  0  0
   -1.0177   24.9976  -29.5992 H   0  0  0  0  0  0  0  0  0  0  0  0
   -1.7823   21.8652  -32.7787 H   0  0  0  0  0  0  0  0  0  0  0  0
   -2.8695   20.0851  -34.1387 H   0  0  0  0  0  0  0  0  0  0  0  0
   -4.4341   18.3832  -34.3856 H   0  0  0  0  0  0  0  0  0  0  0  0
   -4.8569   17.5145  -32.8338 H   0  0  0  0  0  0  0  0  0  0  0  0
   -7.6764   17.0558  -33.1740 H   0  0  0  0  0  0  0  0  0  0  0  0
   -6.6813   17.7547  -31.8008 H   0  0  0  0  0  0  0  0  0  0  0  0
   -9.2574   18.8256  -33.0059 H   0  0  0  0  0  0  0  0  0  0  0  0
   -8.9020   18.3598  -31.3009 H   0  0  0  0  0  0  0  0  0  0  0  0
   -9.2218   20.4286  -30.0948 H   0  0  0  0  0  0  0  0  0  0  0  0
   -8.5075   22.7935  -29.7130 H   0  0  0  0  0  0  0  0  0  0  0  0
   -6.9725   23.9128  -31.3332 H   0  0  0  0  0  0  0  0  0  0  0  0
   -6.1542   22.6748  -33.3457 H   0  0  0  0  0  0  0  0  0  0  0  0
   -7.5645   20.0317  -34.7669 H   0  0  0  0  0  0  0  0  0  0  0  0
   -5.8561   20.5400  -34.4480 H   0  0  0  0  0  0  0  0  0  0  0  0
   -5.6380   19.3035  -30.9045 H   0  0  0  0  0  0  0  0  0  0  0  0
   -4.5292   21.0580  -29.5307 H   0  0  0  0  0  0  0  0  0  0  0  0
  1  2  2  0
  2  3  1  0
  3  4  1  0
  4  5  2  0
  5  6  1  0
  6  7  2  0
  7  8  1  0
  8  9  2  0
  8 10  2  0
  8 11  1  0
 11 12  1  0
 12 13  1  0
 13 14  1  0
 14 15  1  0
  7 16  1  0
 16 17  2  0
  2 18  1  0
 18 19  2  0
 19 20  1  0
 20 21  2  0
 21 22  1  0
 22 23  1  0
 23 24  1  0
 24 25  1  0
 25 26  1  0
 26 27  2  0
 27 28  1  0
 28 29  2  0
 29 30  1  0
 30 31  2  0
 31 32  1  0
 21 33  1  0
 33 34  2  0
 17  4  1  0
 34 18  1  0
 15 11  1  0
 32 23  1  0
 31 26  1  0
  3 35  1  0
  5 36  1  0
  6 37  1  0
 12 38  1  0
 12 39  1  0
 13 40  1  0
 13 41  1  0
 14 42  1  0
 14 43  1  0
 15 44  1  0
 15 45  1  0
 16 46  1  0
 17 47  1  0
 19 48  1  0
 20 49  1  0
 22 50  1  0
 22 51  1  0
 24 52  1  0
 24 53  1  0
 25 54  1  0
 25 55  1  0
 27 56  1  0
 28 57  1  0
 29 58  1  0
 30 59  1  0
 32 60  1  0
 32 61  1  0
 33 62  1  0
 34 63  1  0
M  END
>  <UniqueID>  (32) 
30

>  <SMILES>  (32) 
O=C(Nc1ccc(S(=O)(=O)N2CCCC2)cc1)c1ccc(CN2CCc3ccccc3C2)cc1

>  <Energy>  (32) 
87.36433641743554

>  <Genealogy>  (32) 
O=C(Nc1ccc(S(=O)(=O)N2CCCC2)cc1)c1ccc(CN2CCc3ccccc3C2)cc1 (3D coordinates assigned)
O=C(Nc1ccc(S(=O)(=O)N2CCCC2)cc1)c1ccc(CN2CCc3ccccc3C2)cc1 (nonaromatic ring conformer: 87.36433641743554 kcal/mol)

>  <smiles>  (32) 
O=C(Nc1ccc(S(=O)(=O)N2CCCC2)cc1)c1ccc(CN2CCc3ccccc3C2)cc1

>  <score_type>  (32) 
oracle

>  <origin>  (32) 
adgpu

>  <m_score__min__energy>  (32) 
-9.9700000000000006

>  <m_primary>  (32) 
energy

$$$$
32:0
     RDKit          3D

 48 51  0  0  0  0  0  0  0  0999 V2000
   -1.4980   25.2440  -29.2360 O   0  0  0  0  0  0  0  0  0  0  0  0
   -2.4690   24.5320  -29.6050 C   0  0  0  0  0  0  0  0  0  0  0  0
   -3.5920   25.1750  -30.2200 N   0  0  0  0  0  0  0  0  0  0  0  0
   -4.8360   24.5380  -30.5410 C   0  0  0  0  0  0  0  0  0  0  0  0
   -6.0590   25.0340  -30.0610 C   0  0  0  0  0  0  0  0  0  0  0  0
   -7.2600   24.4170  -30.4280 C   0  0  0  0  0  0  0  0  0  0  0  0
   -7.2460   23.2970  -31.2630 C   0  0  0  0  0  0  0  0  0  0  0  0
   -8.7510   22.5100  -31.7010 Cl  0  0  0  0  0  0  0  0  0  0  0  0
   -6.0300   22.8050  -31.7510 C   0  0  0  0  0  0  0  0  0  0  0  0
   -4.8310   23.4330  -31.4020 C   0  0  0  0  0  0  0  0  0  0  0  0
   -2.3910   23.0570  -29.4660 C   0  0  0  0  0  0  0  0  0  0  0  0
   -3.0380   22.4160  -28.3960 C   0  0  0  0  0  0  0  0  0  0  0  0
   -2.8930   21.0400  -28.2020 C   0  0  0  0  0  0  0  0  0  0  0  0
   -2.0980   20.2900  -29.0710 C   0  0  0  0  0  0  0  0  0  0  0  0
   -1.4780   20.9010  -30.1670 C   0  0  0  0  0  0  0  0  0  0  0  0
   -0.4590   19.9440  -31.2550 S   0  0  0  0  0  0  0  0  0  0  0  0
   -0.7340   18.4910  -30.9810 O   0  0  0  0  0  0  0  0  0  0  0  0
    0.9860   20.2030  -30.9290 O   0  0  0  0  0  0  0  0  0  0  0  0
   -0.7230   20.2540  -32.9640 N   0  0  2  0  0  0  0  0  0  0  0  0
   -1.5350   21.4590  -33.2230 C   0  0  0  0  0  0  0  0  0  0  0  0
   -3.0050   21.2960  -32.8160 C   0  0  0  0  0  0  0  0  0  0  0  0
   -3.5640   19.9410  -33.1590 C   0  0  0  0  0  0  0  0  0  0  0  0
   -4.9420   19.7150  -33.0220 C   0  0  0  0  0  0  0  0  0  0  0  0
   -5.4820   18.4530  -33.2780 C   0  0  0  0  0  0  0  0  0  0  0  0
   -4.6500   17.4040  -33.6750 C   0  0  0  0  0  0  0  0  0  0  0  0
   -3.2760   17.6140  -33.8070 C   0  0  0  0  0  0  0  0  0  0  0  0
   -2.7200   18.8720  -33.5280 C   0  0  0  0  0  0  0  0  0  0  0  0
   -1.2330   19.0730  -33.6890 C   0  0  0  0  0  0  0  0  0  0  0  0
   -1.6070   22.2880  -30.3470 C   0  0  0  0  0  0  0  0  0  0  0  0
   -6.0728   25.9094  -29.3951 H   0  0  0  0  0  0  0  0  0  0  0  0
   -8.2168   24.8144  -30.0585 H   0  0  0  0  0  0  0  0  0  0  0  0
   -6.0179   21.9239  -32.4094 H   0  0  0  0  0  0  0  0  0  0  0  0
   -3.8789   23.0577  -31.8054 H   0  0  0  0  0  0  0  0  0  0  0  0
   -3.6632   23.0018  -27.7061 H   0  0  0  0  0  0  0  0  0  0  0  0
   -3.4060   20.5467  -27.3633 H   0  0  0  0  0  0  0  0  0  0  0  0
   -1.9583   19.2135  -28.8933 H   0  0  0  0  0  0  0  0  0  0  0  0
    0.2280   20.4530  -33.3540 H   0  0  0  0  0  0  0  0  0  0  0  0
   -1.1061   22.2982  -32.6557 H   0  0  0  0  0  0  0  0  0  0  0  0
   -1.5143   21.6402  -34.3078 H   0  0  0  0  0  0  0  0  0  0  0  0
   -3.0861   21.4436  -31.7290 H   0  0  0  0  0  0  0  0  0  0  0  0
   -3.5862   22.0430  -33.3766 H   0  0  0  0  0  0  0  0  0  0  0  0
   -5.6019   20.5382  -32.7106 H   0  0  0  0  0  0  0  0  0  0  0  0
   -6.5634   18.2850  -33.1669 H   0  0  0  0  0  0  0  0  0  0  0  0
   -5.0772   16.4121  -33.8838 H   0  0  0  0  0  0  0  0  0  0  0  0
   -2.6254   16.7885  -34.1316 H   0  0  0  0  0  0  0  0  0  0  0  0
   -0.7164   18.1795  -33.3086 H   0  0  0  0  0  0  0  0  0  0  0  0
   -1.0398   19.2383  -34.7592 H   0  0  0  0  0  0  0  0  0  0  0  0
   -1.0901   22.7785  -31.1850 H   0  0  0  0  0  0  0  0  0  0  0  0
  1  2  2  0
  2  3  1  0
  3  4  1  0
  4  5  2  0
  5  6  1  0
  6  7  2  0
  7  8  1  0
  7  9  1  0
  9 10  2  0
  2 11  1  0
 11 12  2  0
 12 13  1  0
 13 14  2  0
 14 15  1  0
 15 16  1  0
 16 17  2  0
 16 18  2  0
 16 19  1  0
 19 20  1  0
 20 21  1  0
 21 22  1  0
 22 23  2  0
 23 24  1  0
 24 25  2  0
 25 26  1  0
 26 27  2  0
 27 28  1  0
 15 29  2  0
 10  4  1  0
 29 11  1  0
 28 19  1  0
 27 22  1  0
  5 30  1  0
  6 31  1  0
  9 32  1  0
 10 33  1  0
 12 34  1  0
 13 35  1  0
 14 36  1  0
 19 37  1  6
 20 38  1  0
 20 39  1  0
 21 40  1  0
 21 41  1  0
 23 42  1  0
 24 43  1  0
 25 44  1  0
 26 45  1  0
 28 46  1  0
 28 47  1  0
 29 48  1  0
M  CHG  2   3  -1  19   1
M  END
>  <UniqueID>  (33) 
31

>  <SMILES>  (33) 
O=C([N-]c1ccc(Cl)cc1)c1cccc(S(=O)(=O)[N@@H+]2CCc3ccccc3C2)c1

>  <Energy>  (33) 
59.670312763243714

>  <Genealogy>  (33) 
O=C([N-]c1ccc(Cl)cc1)c1cccc(S(=O)(=O)[NH+]2CCc3ccccc3C2)c1 (protonated)
O=C([N-]c1ccc(Cl)cc1)c1cccc(S(=O)(=O)[N@@H+]2CCc3ccccc3C2)c1 (chirality)
O=C([N-]c1ccc(Cl)cc1)c1cccc(S(=O)(=O)[N@@H+]2CCc3ccccc3C2)c1 (3D coordinates assigned)
O=C([N-]c1ccc(Cl)cc1)c1cccc(S(=O)(=O)[N@@H+]2CCc3ccccc3C2)c1 (nonaromatic ring conformer: 59.670312763243714 kcal/mol)

>  <smiles>  (33) 
O=C(Nc1ccc(Cl)cc1)c1cccc(S(=O)(=O)N2CCc3ccccc3C2)c1

>  <score_type>  (33) 
oracle

>  <origin>  (33) 
adgpu

>  <m_score__min__energy>  (33) 
-11.6

>  <m_primary>  (33) 
energy

$$$$
33:0
     RDKit          3D

 78 82  0  0  1  0  0  0  0  0999 V2000
    2.3710   18.7260  -36.8240 C   0  0  0  0  0  0  0  0  0  0  0  0
    1.7470   19.6200  -35.9000 N   0  0  0  0  0  0  0  0  0  0  0  0
    2.6140   20.3220  -35.0350 C   0  0  0  0  0  0  0  0  0  0  0  0
    2.3420   21.7710  -34.8240 C   0  0  0  0  0  0  0  0  0  0  0  0
    0.9080   21.9300  -34.5660 N   0  0  0  0  0  0  0  0  0  0  0  0
    0.5340   21.1290  -33.4430 C   0  0  0  0  0  0  0  0  0  0  0  0
   -0.8380   20.5330  -33.5570 C   0  0  0  0  0  0  0  0  0  0  0  0
   -1.9170   21.3890  -33.5690 C   0  0  0  0  0  0  0  0  0  0  0  0
   -3.1810   20.8120  -33.6750 C   0  0  0  0  0  0  0  0  0  0  0  0
   -4.2740   21.7260  -33.6870 N   0  0  0  0  0  0  0  0  0  0  0  0
   -4.4700   22.3940  -32.6010 C   0  0  0  0  0  0  0  0  0  0  0  0
   -5.4990   23.2600  -32.6010 N   0  0  0  0  0  0  0  0  0  0  0  0
   -5.8110   24.0170  -31.5330 C   0  0  0  0  0  0  0  0  0  0  0  0
   -5.0400   23.8980  -30.3890 C   0  0  0  0  0  0  0  0  0  0  0  0
   -5.4000   24.8630  -28.9620 Cl  0  0  0  0  0  0  0  0  0  0  0  0
   -3.9940   23.0110  -30.4040 C   0  0  0  0  0  0  0  0  0  0  0  0
   -3.2910   22.9260  -29.3120 N   0  0  0  0  0  0  0  0  0  0  0  0
   -2.1800   22.0060  -29.2770 C   0  0  0  0  0  0  0  0  0  0  0  0
   -2.2790   20.7080  -29.6710 C   0  0  0  0  0  0  0  0  0  0  0  0
   -1.1860   19.8630  -29.6180 C   0  0  0  0  0  0  0  0  0  0  0  0
    0.0180   20.3800  -29.1490 C   0  0  0  0  0  0  0  0  0  0  0  0
    0.0930   21.7060  -28.7530 C   0  0  0  0  0  0  0  0  0  0  0  0
   -0.9880   22.5640  -28.7990 C   0  0  0  0  0  0  0  0  0  0  0  0
   -0.9040   24.2350  -28.3030 S   0  0  0  0  0  0  0  0  0  0  0  0
   -1.7070   24.5180  -26.7710 C   0  0  0  0  0  0  0  0  0  0  0  0
    0.5600   24.6290  -28.1970 O   0  0  0  0  0  0  0  0  0  0  0  0
   -1.5500   25.1390  -29.3410 O   0  0  0  0  0  0  0  0  0  0  0  0
   -3.7100   22.2650  -31.4980 N   0  0  0  0  0  0  0  0  0  0  0  0
   -3.3330   19.4610  -33.7620 C   0  0  0  0  0  0  0  0  0  0  0  0
   -2.2500   18.5680  -33.7520 C   0  0  0  0  0  0  0  0  0  0  0  0
   -2.5220   17.2100  -33.8630 N   0  0  0  0  0  0  0  0  0  0  0  0
   -3.9360   16.7600  -33.9170 C   0  0  0  0  0  0  0  0  0  0  0  0
   -3.9700   15.2740  -33.6040 C   0  0  0  0  0  0  0  0  0  0  0  0
   -3.0890   14.9200  -32.5410 N   0  0  0  0  0  0  0  0  0  0  0  0
   -3.3270   13.6540  -31.9320 C   0  0  0  0  0  0  0  0  0  0  0  0
   -1.7370   15.3390  -32.6470 C   0  0  0  0  0  0  0  0  0  0  0  0
   -1.5690   16.1220  -33.9440 C   0  0  0  0  0  0  0  0  0  0  0  0
   -1.0120   19.1580  -33.6460 C   0  0  0  0  0  0  0  0  0  0  0  0
    0.1120   18.3790  -33.6230 O   0  0  0  0  0  0  0  0  0  0  0  0
    0.2650   21.5800  -35.8040 C   0  0  0  0  0  0  0  0  0  0  0  0
    0.5270   20.2020  -36.2930 C   0  0  0  0  0  0  0  0  0  0  0  0
    2.9149   17.9468  -36.2699 H   0  0  0  0  0  0  0  0  0  0  0  0
    1.6027   18.2575  -37.4567 H   0  0  0  0  0  0  0  0  0  0  0  0
    3.0757   19.2856  -37.4567 H   0  0  0  0  0  0  0  0  0  0  0  0
    2.5690   19.8307  -34.0518 H   0  0  0  0  0  0  0  0  0  0  0  0
    3.5956   20.2880  -35.5303 H   0  0  0  0  0  0  0  0  0  0  0  0
    2.9192   22.1375  -33.9623 H   0  0  0  0  0  0  0  0  0  0  0  0
    2.6366   22.3484  -35.7127 H   0  0  0  0  0  0  0  0  0  0  0  0
    1.2612   20.3097  -33.3433 H   0  0  0  0  0  0  0  0  0  0  0  0
    0.5246   21.7914  -32.5648 H   0  0  0  0  0  0  0  0  0  0  0  0
   -1.7868   22.4790  -33.4981 H   0  0  0  0  0  0  0  0  0  0  0  0
   -6.0980   23.3620  -33.4670 H   0  0  0  0  0  0  0  0  0  0  0  0
   -6.6602   24.7153  -31.5681 H   0  0  0  0  0  0  0  0  0  0  0  0
   -3.2429   20.3249  -30.0372 H   0  0  0  0  0  0  0  0  0  0  0  0
   -1.2656   18.8133  -29.9370 H   0  0  0  0  0  0  0  0  0  0  0  0
    0.9088   19.7371  -29.0927 H   0  0  0  0  0  0  0  0  0  0  0  0
    1.0556   22.0918  -28.3861 H   0  0  0  0  0  0  0  0  0  0  0  0
   -1.0200   24.2759  -25.9467 H   0  0  0  0  0  0  0  0  0  0  0  0
   -2.0039   25.5749  -26.7024 H   0  0  0  0  0  0  0  0  0  0  0  0
   -2.6010   23.8808  -26.7024 H   0  0  0  0  0  0  0  0  0  0  0  0
   -2.9100   21.5950  -31.4950 H   0  0  0  0  0  0  0  0  0  0  0  0
   -4.3506   19.0513  -33.8438 H   0  0  0  0  0  0  0  0  0  0  0  0
   -4.5314   17.3113  -33.1743 H   0  0  0  0  0  0  0  0  0  0  0  0
   -4.3586   16.9493  -34.9148 H   0  0  0  0  0  0  0  0  0  0  0  0
   -4.9957   14.9968  -33.3192 H   0  0  0  0  0  0  0  0  0  0  0  0
   -3.6408   14.7350  -34.5046 H   0  0  0  0  0  0  0  0  0  0  0  0
   -3.3063   13.7638  -30.8377 H   0  0  0  0  0  0  0  0  0  0  0  0
   -4.3119   13.2763  -32.2441 H   0  0  0  0  0  0  0  0  0  0  0  0
   -2.5465   12.9445  -32.2441 H   0  0  0  0  0  0  0  0  0  0  0  0
   -1.4800   15.9806  -31.7912 H   0  0  0  0  0  0  0  0  0  0  0  0
   -1.0719   14.4629  -32.6489 H   0  0  0  0  0  0  0  0  0  0  0  0
   -0.5443   16.5133  -34.0273 H   0  0  0  0  0  0  0  0  0  0  0  0
   -1.7428   15.4910  -34.8281 H   0  0  0  0  0  0  0  0  0  0  0  0
    0.8630   18.5390  -34.2770 H   0  0  0  0  0  0  0  0  0  0  0  0
   -0.8207   21.6896  -35.6649 H   0  0  0  0  0  0  0  0  0  0  0  0
    0.6849   22.2553  -36.5641 H   0  0  0  0  0  0  0  0  0  0  0  0
   -0.2850   19.5568  -35.9266 H   0  0  0  0  0  0  0  0  0  0  0  0
    0.5828   20.2862  -37.3884 H   0  0  0  0  0  0  0  0  0  0  0  0
  1  2  1  0
  2  3  1  0
  3  4  1  0
  4  5  1  0
  5  6  1  0
  6  7  1  0
  7  8  2  0
  8  9  1  0
  9 10  1  0
 10 11  2  0
 11 12  1  0
 12 13  1  0
 13 14  2  0
 14 15  1  0
 14 16  1  0
 16 17  2  0
 17 18  1  0
 18 19  2  0
 19 20  1  0
 20 21  2  0
 21 22  1  0
 22 23  2  0
 23 24  1  0
 24 25  1  0
 24 26  2  0
 24 27  2  0
 16 28  1  0
  9 29  2  0
 29 30  1  0
 30 31  1  0
 31 32  1  0
 32 33  1  0
 33 34  1  0
 34 35  1  0
 34 36  1  0
 36 37  1  0
 30 38  2  0
 38 39  1  0
  5 40  1  0
 40 41  1  0
 41  2  1  0
 38  7  1  0
 28 11  1  0
 37 31  1  0
 23 18  1  0
  1 42  1  0
  1 43  1  0
  1 44  1  0
  3 45  1  0
  3 46  1  0
  4 47  1  0
  4 48  1  0
  6 49  1  0
  6 50  1  0
  8 51  1  0
 12 52  1  0
 13 53  1  0
 19 54  1  0
 20 55  1  0
 21 56  1  0
 22 57  1  0
 25 58  1  0
 25 59  1  0
 25 60  1  0
 28 61  1  0
 29 62  1  0
 32 63  1  0
 32 64  1  0
 33 65  1  0
 33 66  1  0
 35 67  1  0
 35 68  1  0
 35 69  1  0
 36 70  1  0
 36 71  1  0
 37 72  1  0
 37 73  1  0
 39 74  1  0
 40 75  1  0
 40 76  1  0
 41 77  1  0
 41 78  1  0
M  END
>  <smiles>  (34) 
CN1CCN(Cc2cc(N=c3[nH]cc(Cl)c(=Nc4ccccc4S(C)(=O)=O)[nH]3)cc(N3CCN(C)CC3)c2O)CC1

>  <score_type>  (34) 
oracle

>  <origin>  (34) 
adgpu

>  <m_score__min__energy>  (34) 
-10.1

>  <m_primary>  (34) 
energy

$$$$
34:0
     RDKit          3D

 49 51  0  0  0  0  0  0  0  0999 V2000
   -0.7020   21.5110  -32.4630 C   0  0  0  0  0  0  0  0  0  0  0  0
   -1.9410   20.7250  -32.7750 C   0  0  0  0  0  0  0  0  0  0  0  0
   -3.1710   21.3800  -32.9340 C   0  0  0  0  0  0  0  0  0  0  0  0
   -4.3290   20.6470  -33.2100 C   0  0  0  0  0  0  0  0  0  0  0  0
   -4.2730   19.2500  -33.3200 C   0  0  0  0  0  0  0  0  0  0  0  0
   -5.4540   18.5020  -33.6470 N   0  0  0  0  0  0  0  0  0  0  0  0
   -5.7530   18.1860  -35.0420 C   0  0  0  0  0  0  0  0  0  0  0  0
   -6.6200   18.1490  -32.4040 S   0  0  0  0  0  0  0  0  0  0  0  0
   -7.4250   16.9430  -32.7990 O   0  0  0  0  0  0  0  0  0  0  0  0
   -5.9270   17.8510  -31.1040 O   0  0  0  0  0  0  0  0  0  0  0  0
   -7.6670   19.5490  -32.1890 C   0  0  0  0  0  0  0  0  0  0  0  0
   -9.0260   19.4920  -32.5240 C   0  0  0  0  0  0  0  0  0  0  0  0
   -9.8420   20.6100  -32.3280 C   0  0  0  0  0  0  0  0  0  0  0  0
   -9.3050   21.7900  -31.8050 C   0  0  0  0  0  0  0  0  0  0  0  0
   -7.9400   21.8640  -31.4810 C   0  0  0  0  0  0  0  0  0  0  0  0
   -7.3660   23.1110  -30.9300 C   0  0  0  0  0  0  0  0  0  0  0  0
   -7.5720   23.4120  -29.7230 O   0  0  0  0  0  0  0  0  0  0  0  0
   -6.5820   23.9830  -31.7600 N   0  0  0  0  0  0  0  0  0  0  0  0
   -5.6560   24.9640  -31.2030 C   0  0  0  0  0  0  0  0  0  0  0  0
   -4.6490   24.2700  -30.3360 C   0  0  0  0  0  0  0  0  0  0  0  0
   -4.8570   24.1620  -28.9540 C   0  0  0  0  0  0  0  0  0  0  0  0
   -3.8840   23.5530  -28.1590 C   0  0  0  0  0  0  0  0  0  0  0  0
   -2.7160   23.0620  -28.7470 C   0  0  0  0  0  0  0  0  0  0  0  0
   -2.5370   23.1930  -30.1270 C   0  0  0  0  0  0  0  0  0  0  0  0
   -3.4970   23.7930  -30.8850 N   0  0  0  0  0  0  0  0  0  0  0  0
   -7.1300   20.7300  -31.6630 C   0  0  0  0  0  0  0  0  0  0  0  0
   -3.0480   18.5930  -33.1280 C   0  0  0  0  0  0  0  0  0  0  0  0
   -1.8900   19.3260  -32.8520 C   0  0  0  0  0  0  0  0  0  0  0  0
   -0.5813   21.5876  -31.3723 H   0  0  0  0  0  0  0  0  0  0  0  0
    0.1730   21.0025  -32.8939 H   0  0  0  0  0  0  0  0  0  0  0  0
   -0.7892   22.5193  -32.8939 H   0  0  0  0  0  0  0  0  0  0  0  0
   -3.2247   22.4748  -32.8412 H   0  0  0  0  0  0  0  0  0  0  0  0
   -5.2886   21.1684  -33.3415 H   0  0  0  0  0  0  0  0  0  0  0  0
   -6.5085   17.3876  -35.0833 H   0  0  0  0  0  0  0  0  0  0  0  0
   -6.1402   19.0836  -35.5464 H   0  0  0  0  0  0  0  0  0  0  0  0
   -4.8354   17.8490  -35.5464 H   0  0  0  0  0  0  0  0  0  0  0  0
   -9.4511   18.5673  -32.9414 H   0  0  0  0  0  0  0  0  0  0  0  0
  -10.9102   20.5611  -32.5861 H   0  0  0  0  0  0  0  0  0  0  0  0
   -9.9538   22.6640  -31.6465 H   0  0  0  0  0  0  0  0  0  0  0  0
   -6.6210   23.8790  -32.8000 H   0  0  0  0  0  0  0  0  0  0  0  0
   -5.1374   25.4840  -32.0219 H   0  0  0  0  0  0  0  0  0  0  0  0
   -6.2162   25.6935  -30.5997 H   0  0  0  0  0  0  0  0  0  0  0  0
   -5.7790   24.5537  -28.4996 H   0  0  0  0  0  0  0  0  0  0  0  0
   -4.0367   23.4602  -27.0736 H   0  0  0  0  0  0  0  0  0  0  0  0
   -1.9449   22.5772  -28.1303 H   0  0  0  0  0  0  0  0  0  0  0  0
   -1.6207   22.8115  -30.6012 H   0  0  0  0  0  0  0  0  0  0  0  0
   -6.0652   20.7707  -31.3899 H   0  0  0  0  0  0  0  0  0  0  0  0
   -2.9987   17.4961  -33.1950 H   0  0  0  0  0  0  0  0  0  0  0  0
   -0.9351   18.8031  -32.6946 H   0  0  0  0  0  0  0  0  0  0  0  0
  1  2  1  0
  2  3  2  0
  3  4  1  0
  4  5  2  0
  5  6  1  0
  6  7  1  0
  6  8  1  0
  8  9  2  0
  8 10  2  0
  8 11  1  0
 11 12  2  0
 12 13  1  0
 13 14  2  0
 14 15  1  0
 15 16  1  0
 16 17  2  0
 16 18  1  0
 18 19  1  0
 19 20  1  0
 20 21  2  0
 21 22  1  0
 22 23  2  0
 23 24  1  0
 24 25  2  0
 15 26  2  0
  5 27  1  0
 27 28  2  0
 28  2  1  0
 26 11  1  0
 25 20  1  0
  1 29  1  0
  1 30  1  0
  1 31  1  0
  3 32  1  0
  4 33  1  0
  7 34  1  0
  7 35  1  0
  7 36  1  0
 12 37  1  0
 13 38  1  0
 14 39  1  0
 18 40  1  0
 19 41  1  0
 19 42  1  0
 21 43  1  0
 22 44  1  0
 23 45  1  0
 24 46  1  0
 26 47  1  0
 27 48  1  0
 28 49  1  0
M  END
>  <UniqueID>  (35) 
32

>  <SMILES>  (35) 
Cc1ccc(N(C)S(=O)(=O)c2cccc(C(=O)NCc3ccccn3)c2)cc1

>  <Energy>  (35) 
53.718386615495255

>  <Genealogy>  (35) 
Cc1ccc(N(C)S(=O)(=O)c2cccc(C(=O)NCc3ccccn3)c2)cc1 (3D coordinates assigned)
Cc1ccc(N(C)S(=O)(=O)c2cccc(C(=O)NCc3ccccn3)c2)cc1 (optimized conformer: 53.718386615495255 kcal/mol)

>  <smiles>  (35) 
Cc1ccc(N(C)S(=O)(=O)c2cccc(C(=O)NCc3ccccn3)c2)cc1

>  <score_type>  (35) 
oracle

>  <origin>  (35) 
adgpu

>  <m_score__min__energy>  (35) 
-9.3300000000000001

>  <m_primary>  (35) 
energy

$$$$
35:0
     RDKit          3D

 43 45  0  0  0  0  0  0  0  0999 V2000
   -9.3420   21.5530  -31.1020 C   0  0  0  0  0  0  0  0  0  0  0  0
   -7.8700   21.9170  -30.9380 C   0  0  0  0  0  0  0  0  0  0  0  0
   -7.0150   21.1570  -31.9240 C   0  0  0  0  0  0  0  0  0  0  0  0
   -7.6240   20.1980  -32.7530 C   0  0  0  0  0  0  0  0  0  0  0  0
   -6.8680   19.4730  -33.6750 C   0  0  0  0  0  0  0  0  0  0  0  0
   -5.4930   19.6850  -33.7740 C   0  0  0  0  0  0  0  0  0  0  0  0
   -4.8690   20.6240  -32.9500 C   0  0  0  0  0  0  0  0  0  0  0  0
   -5.6180   21.3730  -32.0230 C   0  0  0  0  0  0  0  0  0  0  0  0
   -4.9540   22.3070  -31.1540 N   0  0  0  0  0  0  0  0  0  0  0  0
   -3.7500   21.9960  -30.4360 C   0  0  0  0  0  0  0  0  0  0  0  0
   -3.1670   20.8910  -30.6160 O   0  0  0  0  0  0  0  0  0  0  0  0
   -3.1590   22.9830  -29.5060 C   0  0  0  0  0  0  0  0  0  0  0  0
   -2.4720   22.5820  -28.3430 C   0  0  0  0  0  0  0  0  0  0  0  0
   -2.3880   21.2040  -27.9510 N   0  0  0  0  0  0  0  0  0  0  0  0
   -1.8970   23.5580  -27.5220 C   0  0  0  0  0  0  0  0  0  0  0  0
   -2.0190   24.9130  -27.8670 C   0  0  0  0  0  0  0  0  0  0  0  0
   -1.4370   25.9900  -27.0270 C   0  0  0  0  0  0  0  0  0  0  0  0
   -0.5760   26.9680  -27.5670 C   0  0  0  0  0  0  0  0  0  0  0  0
   -0.0510   27.9760  -26.7540 C   0  0  0  0  0  0  0  0  0  0  0  0
   -0.3810   28.0280  -25.3970 C   0  0  0  0  0  0  0  0  0  0  0  0
   -1.2420   27.0730  -24.8540 C   0  0  0  0  0  0  0  0  0  0  0  0
   -1.7720   26.0630  -25.6620 C   0  0  0  0  0  0  0  0  0  0  0  0
   -2.6870   25.2490  -28.9680 O   0  0  0  0  0  0  0  0  0  0  0  0
   -3.2450   24.3610  -29.7840 C   0  0  0  0  0  0  0  0  0  0  0  0
   -3.8320   24.7730  -30.8200 O   0  0  0  0  0  0  0  0  0  0  0  0
   -9.8041   21.4387  -30.1103 H   0  0  0  0  0  0  0  0  0  0  0  0
   -9.8574   22.3508  -31.6570 H   0  0  0  0  0  0  0  0  0  0  0  0
   -9.4262   20.6070  -31.6570 H   0  0  0  0  0  0  0  0  0  0  0  0
   -7.7445   22.9963  -31.1091 H   0  0  0  0  0  0  0  0  0  0  0  0
   -7.5530   21.6507  -29.9189 H   0  0  0  0  0  0  0  0  0  0  0  0
   -8.7062   20.0177  -32.6739 H   0  0  0  0  0  0  0  0  0  0  0  0
   -7.3575   18.7328  -34.3250 H   0  0  0  0  0  0  0  0  0  0  0  0
   -4.8996   19.1121  -34.5018 H   0  0  0  0  0  0  0  0  0  0  0  0
   -3.7827   20.7797  -33.0260 H   0  0  0  0  0  0  0  0  0  0  0  0
   -5.3580   23.2640  -31.0550 H   0  0  0  0  0  0  0  0  0  0  0  0
   -2.7020   20.4300  -28.5760 H   0  0  0  0  0  0  0  0  0  0  0  0
   -2.0640   20.9450  -26.9930 H   0  0  0  0  0  0  0  0  0  0  0  0
   -1.3528   23.2653  -26.6120 H   0  0  0  0  0  0  0  0  0  0  0  0
   -0.3160   26.9370  -28.6354 H   0  0  0  0  0  0  0  0  0  0  0  0
    0.6241   28.7309  -27.1834 H   0  0  0  0  0  0  0  0  0  0  0  0
    0.0369   28.8199  -24.7581 H   0  0  0  0  0  0  0  0  0  0  0  0
   -1.5044   27.1153  -23.7866 H   0  0  0  0  0  0  0  0  0  0  0  0
   -2.4563   25.3194  -25.2276 H   0  0  0  0  0  0  0  0  0  0  0  0
  1  2  1  0
  2  3  1  0
  3  4  2  0
  4  5  1  0
  5  6  2  0
  6  7  1  0
  7  8  2  0
  8  9  1  0
  9 10  1  0
 10 11  2  0
 10 12  1  0
 12 13  2  0
 13 14  1  0
 13 15  1  0
 15 16  2  0
 16 17  1  0
 17 18  2  0
 18 19  1  0
 19 20  2  0
 20 21  1  0
 21 22  2  0
 16 23  1  0
 23 24  1  0
 24 25  2  0
  8  3  1  0
 24 12  1  0
 22 17  1  0
  1 26  1  0
  1 27  1  0
  1 28  1  0
  2 29  1  0
  2 30  1  0
  4 31  1  0
  5 32  1  0
  6 33  1  0
  7 34  1  0
  9 35  1  0
 14 36  1  0
 14 37  1  0
 15 38  1  0
 18 39  1  0
 19 40  1  0
 20 41  1  0
 21 42  1  0
 22 43  1  0
M  END
>  <UniqueID>  (36) 
33

>  <SMILES>  (36) 
CCc1ccccc1NC(=O)c1c(N)cc(-c2ccccc2)oc1=O

>  <Energy>  (36) 
59.30810016773759

>  <Genealogy>  (36) 
CCc1ccccc1NC(=O)c1c(N)cc(-c2ccccc2)oc1=O (3D coordinates assigned)
CCc1ccccc1NC(=O)c1c(N)cc(-c2ccccc2)oc1=O (optimized conformer: 59.30810016773759 kcal/mol)

>  <smiles>  (36) 
CCc1ccccc1NC(=O)c1c(N)cc(-c2ccccc2)oc1=O

>  <score_type>  (36) 
oracle

>  <origin>  (36) 
adgpu

>  <m_score__min__energy>  (36) 
-8.4199999999999999

>  <m_primary>  (36) 
energy

$$$$
36:0
     RDKit          3D

 28 29  0  0  0  0  0  0  0  0999 V2000
   -8.8550   21.9400  -30.7680 C   0  0  0  0  0  0  0  0  0  0  0  0
   -8.3150   22.8580  -31.8600 C   0  0  0  0  0  0  0  0  0  0  0  0
   -6.9000   23.2630  -31.5620 C   0  0  0  0  0  0  0  0  0  0  0  0
   -6.4760   24.7350  -30.8580 S   0  0  0  0  0  0  0  0  0  0  0  0
   -4.8430   24.3840  -30.6980 C   0  0  0  0  0  0  0  0  0  0  0  0
   -3.8750   25.2760  -30.1430 N   0  0  0  0  0  0  0  0  0  0  0  0
   -4.5950   23.1010  -31.1740 C   0  0  0  0  0  0  0  0  0  0  0  0
   -3.2830   22.5020  -31.1830 C   0  0  0  0  0  0  0  0  0  0  0  0
   -2.2310   22.0210  -31.1900 N   0  0  0  0  0  0  0  0  0  0  0  0
   -5.7530   22.4620  -31.6600 C   0  0  0  0  0  0  0  0  0  0  0  0
   -5.7600   21.0820  -32.1900 C   0  0  0  0  0  0  0  0  0  0  0  0
   -6.5580   20.0980  -31.5850 C   0  0  0  0  0  0  0  0  0  0  0  0
   -6.5640   18.7910  -32.0830 C   0  0  0  0  0  0  0  0  0  0  0  0
   -5.7700   18.4590  -33.1850 C   0  0  0  0  0  0  0  0  0  0  0  0
   -4.9670   19.4320  -33.7880 C   0  0  0  0  0  0  0  0  0  0  0  0
   -4.9590   20.7400  -33.2910 C   0  0  0  0  0  0  0  0  0  0  0  0
   -8.6084   22.3593  -29.7814 H   0  0  0  0  0  0  0  0  0  0  0  0
   -9.9472   21.8547  -30.8676 H   0  0  0  0  0  0  0  0  0  0  0  0
   -8.3989   20.9440  -30.8676 H   0  0  0  0  0  0  0  0  0  0  0  0
   -8.3436   22.3283  -32.8237 H   0  0  0  0  0  0  0  0  0  0  0  0
   -8.9399   23.7622  -31.9025 H   0  0  0  0  0  0  0  0  0  0  0  0
   -3.1190   25.6670  -30.7470 H   0  0  0  0  0  0  0  0  0  0  0  0
   -3.9090   25.5480  -29.1360 H   0  0  0  0  0  0  0  0  0  0  0  0
   -7.1810   20.3560  -30.7159 H   0  0  0  0  0  0  0  0  0  0  0  0
   -7.1934   18.0242  -31.6077 H   0  0  0  0  0  0  0  0  0  0  0  0
   -5.7771   17.4316  -33.5779 H   0  0  0  0  0  0  0  0  0  0  0  0
   -4.3412   19.1690  -34.6536 H   0  0  0  0  0  0  0  0  0  0  0  0
   -4.3231   21.5026  -33.7644 H   0  0  0  0  0  0  0  0  0  0  0  0
  1  2  1  0
  2  3  1  0
  3  4  1  0
  4  5  1  0
  5  6  1  0
  5  7  2  0
  7  8  1  0
  8  9  3  0
  7 10  1  0
 10 11  1  0
 11 12  2  0
 12 13  1  0
 13 14  2  0
 14 15  1  0
 15 16  2  0
 10  3  2  0
 16 11  1  0
  1 17  1  0
  1 18  1  0
  1 19  1  0
  2 20  1  0
  2 21  1  0
  6 22  1  0
  6 23  1  0
 12 24  1  0
 13 25  1  0
 14 26  1  0
 15 27  1  0
 16 28  1  0
M  END
>  <UniqueID>  (37) 
34

>  <SMILES>  (37) 
CCc1sc(N)c(C#N)c1-c1ccccc1

>  <Energy>  (37) 
56.131722144836274

>  <Genealogy>  (37) 
CCc1sc(N)c(C#N)c1-c1ccccc1 (3D coordinates assigned)
CCc1sc(N)c(C#N)c1-c1ccccc1 (optimized conformer: 56.131722144836274 kcal/mol)

>  <smiles>  (37) 
CCc1sc(N)c(C#N)c1-c1ccccc1

>  <score_type>  (37) 
oracle

>  <origin>  (37) 
adgpu

>  <m_score__min__energy>  (37) 
-7.3300000000000001

>  <m_primary>  (37) 
energy

$$$$
37:0
     RDKit          3D

 49 51  0  0  0  0  0  0  0  0999 V2000
   -6.8980   18.9080  -32.5880 C   0  0  0  0  0  0  0  0  0  0  0  0
   -5.4700   18.8760  -32.2370 N   0  0  0  0  0  0  0  0  0  0  0  0
   -4.9040   20.2470  -32.1450 C   0  0  0  0  0  0  0  0  0  0  0  0
   -4.1450   20.6640  -33.4140 C   0  0  0  0  0  0  0  0  0  0  0  0
   -2.9810   19.6930  -33.7290 C   0  0  0  0  0  0  0  0  0  0  0  0
   -1.4110   20.3310  -33.1300 S   0  0  0  0  0  0  0  0  0  0  0  0
   -1.0800   21.6120  -33.8450 O   0  0  0  0  0  0  0  0  0  0  0  0
   -0.3210   19.3410  -33.4380 O   0  0  0  0  0  0  0  0  0  0  0  0
   -1.5160   20.6430  -31.3820 C   0  0  0  0  0  0  0  0  0  0  0  0
   -0.9090   19.7590  -30.4610 C   0  0  0  0  0  0  0  0  0  0  0  0
   -0.0160   18.3290  -30.9720 Cl  0  0  0  0  0  0  0  0  0  0  0  0
   -0.9810   20.0180  -29.0920 C   0  0  0  0  0  0  0  0  0  0  0  0
   -1.6460   21.1440  -28.6160 C   0  0  0  0  0  0  0  0  0  0  0  0
   -2.2620   22.0340  -29.5090 C   0  0  0  0  0  0  0  0  0  0  0  0
   -2.9210   23.2210  -29.0380 N   0  0  0  0  0  0  0  0  0  0  0  0
   -2.8310   24.5300  -29.6110 C   0  0  0  0  0  0  0  0  0  0  0  0
   -1.8890   25.3040  -29.2930 O   0  0  0  0  0  0  0  0  0  0  0  0
   -3.8860   24.9830  -30.4690 N   0  0  0  0  0  0  0  0  0  0  0  0
   -5.1010   24.2810  -30.7680 C   0  0  0  0  0  0  0  0  0  0  0  0
   -5.3880   23.8000  -32.0590 C   0  0  0  0  0  0  0  0  0  0  0  0
   -6.5740   23.1000  -32.3030 C   0  0  0  0  0  0  0  0  0  0  0  0
   -7.4770   22.8630  -31.2600 C   0  0  0  0  0  0  0  0  0  0  0  0
   -8.6970   22.1410  -31.5100 C   0  0  0  0  0  0  0  0  0  0  0  0
   -9.6780   21.5610  -31.7120 N   0  0  0  0  0  0  0  0  0  0  0  0
   -7.1850   23.3200  -29.9690 C   0  0  0  0  0  0  0  0  0  0  0  0
   -5.9990   24.0180  -29.7250 C   0  0  0  0  0  0  0  0  0  0  0  0
   -2.1750   21.7960  -30.8970 C   0  0  0  0  0  0  0  0  0  0  0  0
   -2.7390   22.7030  -31.7970 O   0  0  0  0  0  0  0  0  0  0  0  0
   -3.2340   18.2790  -33.1670 C   0  0  0  0  0  0  0  0  0  0  0  0
   -4.7340   17.9670  -33.1490 C   0  0  0  0  0  0  0  0  0  0  0  0
   -7.5014   18.9215  -31.6684 H   0  0  0  0  0  0  0  0  0  0  0  0
   -7.1101   19.8111  -33.1791 H   0  0  0  0  0  0  0  0  0  0  0  0
   -7.1504   18.0153  -33.1791 H   0  0  0  0  0  0  0  0  0  0  0  0
   -5.7277   20.9569  -31.9789 H   0  0  0  0  0  0  0  0  0  0  0  0
   -4.1855   20.2535  -31.3121 H   0  0  0  0  0  0  0  0  0  0  0  0
   -4.8448   20.6691  -34.2627 H   0  0  0  0  0  0  0  0  0  0  0  0
   -3.7212   21.6653  -33.2471 H   0  0  0  0  0  0  0  0  0  0  0  0
   -2.9294   19.6134  -34.8249 H   0  0  0  0  0  0  0  0  0  0  0  0
   -0.5071   19.3249  -28.3814 H   0  0  0  0  0  0  0  0  0  0  0  0
   -1.6890   21.3374  -27.5340 H   0  0  0  0  0  0  0  0  0  0  0  0
   -4.6767   23.9753  -32.8795 H   0  0  0  0  0  0  0  0  0  0  0  0
   -6.7976   22.7351  -33.3163 H   0  0  0  0  0  0  0  0  0  0  0  0
   -7.8897   23.1295  -29.1461 H   0  0  0  0  0  0  0  0  0  0  0  0
   -5.7687   24.3635  -28.7064 H   0  0  0  0  0  0  0  0  0  0  0  0
   -3.1010   23.6060  -31.5140 H   0  0  0  0  0  0  0  0  0  0  0  0
   -2.7187   17.5410  -33.7993 H   0  0  0  0  0  0  0  0  0  0  0  0
   -2.8494   18.2322  -32.1375 H   0  0  0  0  0  0  0  0  0  0  0  0
   -5.1347   18.0816  -34.1670 H   0  0  0  0  0  0  0  0  0  0  0  0
   -4.8667   16.9364  -32.7882 H   0  0  0  0  0  0  0  0  0  0  0  0
  1  2  1  0
  2  3  1  0
  3  4  1  0
  4  5  1  0
  5  6  1  0
  6  7  2  0
  6  8  2  0
  6  9  1  0
  9 10  2  0
 10 11  1  0
 10 12  1  0
 12 13  2  0
 13 14  1  0
 14 15  1  0
 15 16  1  0
 16 17  2  0
 16 18  1  0
 18 19  1  0
 19 20  2  0
 20 21  1  0
 21 22  2  0
 22 23  1  0
 23 24  3  0
 22 25  1  0
 25 26  2  0
 14 27  2  0
 27 28  1  0
  5 29  1  0
 29 30  1  0
 30  2  1  0
 27  9  1  0
 26 19  1  0
  1 31  1  0
  1 32  1  0
  1 33  1  0
  3 34  1  0
  3 35  1  0
  4 36  1  0
  4 37  1  0
  5 38  1  0
 12 39  1  0
 13 40  1  0
 20 41  1  0
 21 42  1  0
 25 43  1  0
 26 44  1  0
 28 45  1  0
 29 46  1  0
 29 47  1  0
 30 48  1  0
 30 49  1  0
M  CHG  2  15  -1  18  -1
M  END
>  <UniqueID>  (38) 
35

>  <SMILES>  (38) 
CN1CCC(S(=O)(=O)c2c(Cl)ccc([N-]C(=O)[N-]c3ccc(C#N)cc3)c2O)CC1

>  <Energy>  (38) 
65.09397342976305

>  <Genealogy>  (38) 
CN1CCC(S(=O)(=O)c2c(Cl)ccc([N-]C(=O)[N-]c3ccc(C#N)cc3)c2O)CC1 (protonated)
CN1CCC(S(=O)(=O)c2c(Cl)ccc([N-]C(=O)[N-]c3ccc(C#N)cc3)c2O)CC1 (3D coordinates assigned)
CN1CCC(S(=O)(=O)c2c(Cl)ccc([N-]C(=O)[N-]c3ccc(C#N)cc3)c2O)CC1 (nonaromatic ring conformer: 65.09397342976305 kcal/mol)

>  <smiles>  (38) 
CN1CCC(S(=O)(=O)c2c(Cl)ccc(NC(=O)Nc3ccc(C#N)cc3)c2O)CC1

>  <score_type>  (38) 
oracle

>  <origin>  (38) 
adgpu

>  <m_score__min__energy>  (38) 
-13.23

>  <m_primary>  (38) 
energy

$$$$
38:0
     RDKit          3D

 38 39  0  0  0  0  0  0  0  0999 V2000
   -0.7740   25.2190  -25.9640 C   0  0  0  0  0  0  0  0  0  0  0  0
   -0.5600   24.1230  -27.0140 C   0  0  0  0  0  0  0  0  0  0  0  0
   -0.1340   22.7980  -26.3700 C   0  0  0  0  0  0  0  0  0  0  0  0
   -1.7800   23.9510  -27.9110 C   0  0  0  0  0  0  0  0  0  0  0  0
   -2.6580   22.8830  -27.6590 C   0  0  0  0  0  0  0  0  0  0  0  0
   -3.7850   22.6800  -28.4550 C   0  0  0  0  0  0  0  0  0  0  0  0
   -4.0590   23.5320  -29.5320 C   0  0  0  0  0  0  0  0  0  0  0  0
   -5.2620   23.2850  -30.3610 C   0  0  0  0  0  0  0  0  0  0  0  0
   -6.2060   24.1220  -30.3220 O   0  0  0  0  0  0  0  0  0  0  0  0
   -5.4020   22.0780  -31.2140 C   0  0  0  0  0  0  0  0  0  0  0  0
   -6.4370   22.0010  -32.1620 C   0  0  0  0  0  0  0  0  0  0  0  0
   -6.5840   20.8640  -32.9610 C   0  0  0  0  0  0  0  0  0  0  0  0
   -5.7080   19.7810  -32.8160 C   0  0  0  0  0  0  0  0  0  0  0  0
   -5.8850   18.3550  -33.8330 S   0  0  0  0  0  0  0  0  0  0  0  0
   -4.4790   17.3640  -33.6790 N   0  0  0  0  0  0  0  0  0  0  0  0
   -7.0980   17.5740  -33.4080 O   0  0  0  0  0  0  0  0  0  0  0  0
   -6.0550   18.7690  -35.2670 O   0  0  0  0  0  0  0  0  0  0  0  0
   -4.6780   19.8470  -31.8690 C   0  0  0  0  0  0  0  0  0  0  0  0
   -4.5290   20.9840  -31.0690 C   0  0  0  0  0  0  0  0  0  0  0  0
   -3.2060   24.6240  -29.7800 C   0  0  0  0  0  0  0  0  0  0  0  0
   -3.4990   25.5190  -30.8050 O   0  0  0  0  0  0  0  0  0  0  0  0
   -2.0650   24.8300  -28.9830 C   0  0  0  0  0  0  0  0  0  0  0  0
   -1.2190   25.9090  -29.2480 O   0  0  0  0  0  0  0  0  0  0  0  0
   -0.6890   24.7839  -24.9573 H   0  0  0  0  0  0  0  0  0  0  0  0
   -0.0118   26.0019  -26.0906 H   0  0  0  0  0  0  0  0  0  0  0  0
   -1.7748   25.6577  -26.0906 H   0  0  0  0  0  0  0  0  0  0  0  0
    0.2682   24.4504  -27.6597 H   0  0  0  0  0  0  0  0  0  0  0  0
   -0.1654   22.8958  -25.2748 H   0  0  0  0  0  0  0  0  0  0  0  0
   -0.8205   21.9990  -26.6866 H   0  0  0  0  0  0  0  0  0  0  0  0
    0.8895   22.5488  -26.6866 H   0  0  0  0  0  0  0  0  0  0  0  0
   -2.4536   22.1981  -26.8229 H   0  0  0  0  0  0  0  0  0  0  0  0
   -4.4645   21.8434  -28.2349 H   0  0  0  0  0  0  0  0  0  0  0  0
   -7.1366   22.8422  -32.2758 H   0  0  0  0  0  0  0  0  0  0  0  0
   -7.3912   20.8195  -33.7070 H   0  0  0  0  0  0  0  0  0  0  0  0
   -3.8690   17.5700  -34.5020 H   0  0  0  0  0  0  0  0  0  0  0  0
   -3.9839   19.0014  -31.7543 H   0  0  0  0  0  0  0  0  0  0  0  0
   -3.7235   21.0236  -30.3209 H   0  0  0  0  0  0  0  0  0  0  0  0
   -1.2490   26.4240  -30.1190 H   0  0  0  0  0  0  0  0  0  0  0  0
  1  2  1  0
  2  3  1  0
  2  4  1  0
  4  5  2  0
  5  6  1  0
  6  7  2  0
  7  8  1  0
  8  9  2  0
  8 10  1  0
 10 11  2  0
 11 12  1  0
 12 13  2  0
 13 14  1  0
 14 15  1  0
 14 16  2  0
 14 17  2  0
 13 18  1  0
 18 19  2  0
  7 20  1  0
 20 21  1  0
 20 22  2  0
 22 23  1  0
 22  4  1  0
 19 10  1  0
  1 24  1  0
  1 25  1  0
  1 26  1  0
  2 27  1  0
  3 28  1  0
  3 29  1  0
  3 30  1  0
  5 31  1  0
  6 32  1  0
 11 33  1  0
 12 34  1  0
 15 35  1  0
 18 36  1  0
 19 37  1  0
 23 38  1  0
M  CHG  2  15  -1  21  -1
M  END
>  <UniqueID>  (39) 
36

>  <SMILES>  (39) 
CC(C)c1ccc(C(=O)c2ccc(S([NH-])(=O)=O)cc2)c([O-])c1O

>  <Energy>  (39) 
44.77142854051328

>  <Genealogy>  (39) 
CC(C)c1ccc(C(=O)c2ccc(S([NH-])(=O)=O)cc2)c([O-])c1O (protonated)
CC(C)c1ccc(C(=O)c2ccc(S([NH-])(=O)=O)cc2)c([O-])c1O (3D coordinates assigned)
CC(C)c1ccc(C(=O)c2ccc(S([NH-])(=O)=O)cc2)c([O-])c1O (optimized conformer: 44.77142854051328 kcal/mol)

>  <smiles>  (39) 
CC(C)c1ccc(C(=O)c2ccc(S(N)(=O)=O)cc2)c(O)c1O

>  <score_type>  (39) 
oracle

>  <origin>  (39) 
adgpu

>  <m_score__min__energy>  (39) 
-11.83

>  <m_primary>  (39) 
energy

$$$$
39:0
     RDKit          3D

 39 41  0  0  0  0  0  0  0  0999 V2000
   -3.9710   25.6530  -30.4920 O   0  0  0  0  0  0  0  0  0  0  0  0
   -4.3120   24.5570  -29.9750 C   0  0  0  0  0  0  0  0  0  0  0  0
   -3.7470   24.1800  -28.7120 N   0  0  0  0  0  0  0  0  0  0  0  0
   -2.3890   23.7630  -28.4980 C   0  0  0  0  0  0  0  0  0  0  0  0
   -2.0840   22.4310  -28.1600 C   0  0  0  0  0  0  0  0  0  0  0  0
   -0.7590   22.0430  -27.9420 C   0  0  0  0  0  0  0  0  0  0  0  0
    0.2690   22.9810  -28.0450 C   0  0  0  0  0  0  0  0  0  0  0  0
   -0.0240   24.3110  -28.3590 C   0  0  0  0  0  0  0  0  0  0  0  0
   -1.3490   24.7100  -28.5800 C   0  0  0  0  0  0  0  0  0  0  0  0
   -1.6050   26.0470  -28.8850 O   0  0  0  0  0  0  0  0  0  0  0  0
   -5.2540   23.6740  -30.6930 C   0  0  0  0  0  0  0  0  0  0  0  0
   -6.6160   24.0070  -30.7850 C   0  0  0  0  0  0  0  0  0  0  0  0
   -7.4930   23.1930  -31.5060 C   0  0  0  0  0  0  0  0  0  0  0  0
   -7.0180   22.0500  -32.1520 C   0  0  0  0  0  0  0  0  0  0  0  0
   -5.6610   21.7100  -32.0710 C   0  0  0  0  0  0  0  0  0  0  0  0
   -5.0310   20.3380  -32.9770 S   0  0  0  0  0  0  0  0  0  0  0  0
   -5.9790   19.9500  -34.0790 O   0  0  0  0  0  0  0  0  0  0  0  0
   -4.8610   19.1740  -32.0440 O   0  0  0  0  0  0  0  0  0  0  0  0
   -3.4890   20.7420  -33.6710 N   0  0  0  0  0  0  0  0  0  0  0  0
   -2.3490   20.8060  -33.0430 C   0  0  0  0  0  0  0  0  0  0  0  0
   -2.2260   20.5640  -31.6590 C   0  0  0  0  0  0  0  0  0  0  0  0
   -0.9670   20.6230  -31.0600 C   0  0  0  0  0  0  0  0  0  0  0  0
    0.1560   20.9280  -31.8280 C   0  0  0  0  0  0  0  0  0  0  0  0
    0.0010   21.1750  -33.1920 C   0  0  0  0  0  0  0  0  0  0  0  0
   -1.2320   21.1070  -33.7610 N   0  0  0  0  0  0  0  0  0  0  0  0
   -4.7880   22.5090  -31.3200 C   0  0  0  0  0  0  0  0  0  0  0  0
   -2.8929   21.6914  -28.0669 H   0  0  0  0  0  0  0  0  0  0  0  0
   -0.5266   20.9980  -27.6892 H   0  0  0  0  0  0  0  0  0  0  0  0
    1.3119   22.6731  -27.8788 H   0  0  0  0  0  0  0  0  0  0  0  0
    0.7893   25.0480  -28.4330 H   0  0  0  0  0  0  0  0  0  0  0  0
   -2.5450   26.4100  -28.9840 H   0  0  0  0  0  0  0  0  0  0  0  0
   -6.9933   24.9125  -30.2872 H   0  0  0  0  0  0  0  0  0  0  0  0
   -8.5602   23.4531  -31.5649 H   0  0  0  0  0  0  0  0  0  0  0  0
   -7.7099   21.4155  -32.7253 H   0  0  0  0  0  0  0  0  0  0  0  0
   -3.1160   20.3305  -31.0562 H   0  0  0  0  0  0  0  0  0  0  0  0
   -0.8606   20.4290  -29.9825 H   0  0  0  0  0  0  0  0  0  0  0  0
    1.1522   20.9733  -31.3638 H   0  0  0  0  0  0  0  0  0  0  0  0
    0.8773   21.4251  -33.8081 H   0  0  0  0  0  0  0  0  0  0  0  0
   -3.7310   22.2207  -31.2217 H   0  0  0  0  0  0  0  0  0  0  0  0
  1  2  2  0
  2  3  1  0
  3  4  1  0
  4  5  2  0
  5  6  1  0
  6  7  2  0
  7  8  1  0
  8  9  2  0
  9 10  1  0
  2 11  1  0
 11 12  2  0
 12 13  1  0
 13 14  2  0
 14 15  1  0
 15 16  1  0
 16 17  2  0
 16 18  2  0
 16 19  1  0
 19 20  2  3
 20 21  1  0
 21 22  2  0
 22 23  1  0
 23 24  2  0
 24 25  1  0
 15 26  2  0
  9  4  1  0
 26 11  1  0
 25 20  1  0
  5 27  1  0
  6 28  1  0
  7 29  1  0
  8 30  1  0
 10 31  1  0
 12 32  1  0
 13 33  1  0
 14 34  1  0
 21 35  1  0
 22 36  1  0
 23 37  1  0
 24 38  1  0
 26 39  1  0
M  CHG  2   3  -1  25  -1
M  END
>  <UniqueID>  (40) 
37

>  <SMILES>  (40) 
O=C([N-]c1ccccc1O)c1cccc(S(=O)(=O)N=c2cccc[n-]2)c1

>  <Energy>  (40) 
54.30246598318536

>  <Genealogy>  (40) 
O=C([N-]c1ccccc1O)c1cccc(S(=O)(=O)N=c2cccc[n-]2)c1 (protonated)
O=C([N-]c1ccccc1O)c1cccc(S(=O)(=O)N=c2cccc[n-]2)c1 (3D coordinates assigned)
O=C([N-]c1ccccc1O)c1cccc(S(=O)(=O)N=c2cccc[n-]2)c1 (optimized conformer: 54.30246598318536 kcal/mol)

>  <smiles>  (40) 
O=C(Nc1ccccc1O)c1cccc(S(=O)(=O)N=c2cccc[nH]2)c1

>  <score_type>  (40) 
oracle

>  <origin>  (40) 
adgpu

>  <m_score__min__energy>  (40) 
-11.609999999999999

>  <m_primary>  (40) 
energy

$$$$
40:0
     RDKit          3D

 27 28  0  0  0  0  0  0  0  0999 V2000
   -3.8330   24.1560  -30.8210 O   0  0  0  0  0  0  0  0  0  0  0  0
   -4.1540   23.9920  -29.6130 C   0  0  0  0  0  0  0  0  0  0  0  0
   -5.3950   23.3510  -29.2740 N   0  0  0  0  0  0  0  0  0  0  0  0
   -6.1810   22.5840  -30.2030 C   0  0  0  0  0  0  0  0  0  0  0  0
   -5.5770   21.8110  -31.2130 C   0  0  0  0  0  0  0  0  0  0  0  0
   -6.3630   21.0560  -32.0880 C   0  0  0  0  0  0  0  0  0  0  0  0
   -7.7560   21.0580  -31.9630 C   0  0  0  0  0  0  0  0  0  0  0  0
   -8.7620   20.0780  -33.0810 S   0  0  0  0  0  0  0  0  0  0  0  0
   -8.5800   18.5260  -32.1400 C   0  0  0  0  0  0  0  0  0  0  0  0
   -7.2490   18.1580  -32.0790 F   0  0  0  0  0  0  0  0  0  0  0  0
   -9.0810   18.6810  -30.8610 F   0  0  0  0  0  0  0  0  0  0  0  0
   -8.3610   21.8000  -30.9420 C   0  0  0  0  0  0  0  0  0  0  0  0
   -7.5770   22.5550  -30.0650 C   0  0  0  0  0  0  0  0  0  0  0  0
   -3.2630   24.5030  -28.5560 C   0  0  0  0  0  0  0  0  0  0  0  0
   -3.5510   24.5360  -27.1960 C   0  0  0  0  0  0  0  0  0  0  0  0
   -2.5200   25.0870  -26.4240 C   0  0  0  0  0  0  0  0  0  0  0  0
   -1.4190   25.4930  -27.1680 C   0  0  0  0  0  0  0  0  0  0  0  0
   -1.7320   25.1650  -28.7880 S   0  0  0  0  0  0  0  0  0  0  0  0
   -5.7990   23.5240  -28.3260 H   0  0  0  0  0  0  0  0  0  0  0  0
   -4.4817   21.8013  -31.3139 H   0  0  0  0  0  0  0  0  0  0  0  0
   -5.8844   20.4582  -32.8777 H   0  0  0  0  0  0  0  0  0  0  0  0
   -9.1475   17.7363  -32.6540 H   0  0  0  0  0  0  0  0  0  0  0  0
   -9.4552   21.7890  -30.8296 H   0  0  0  0  0  0  0  0  0  0  0  0
   -8.0581   23.1308  -29.2606 H   0  0  0  0  0  0  0  0  0  0  0  0
   -4.4947   24.1661  -26.7687 H   0  0  0  0  0  0  0  0  0  0  0  0
   -2.5768   25.1888  -25.3302 H   0  0  0  0  0  0  0  0  0  0  0  0
   -0.5020   25.9496  -26.7673 H   0  0  0  0  0  0  0  0  0  0  0  0
  1  2  2  0
  2  3  1  0
  3  4  1  0
  4  5  2  0
  5  6  1  0
  6  7  2  0
  7  8  1  0
  8  9  1  0
  9 10  1  0
  9 11  1  0
  7 12  1  0
 12 13  2  0
  2 14  1  0
 14 15  2  0
 15 16  1  0
 16 17  2  0
 17 18  1  0
 13  4  1  0
 18 14  1  0
  3 19  1  0
  5 20  1  0
  6 21  1  0
  9 22  1  0
 12 23  1  0
 13 24  1  0
 15 25  1  0
 16 26  1  0
 17 27  1  0
M  END
>  <UniqueID>  (41) 
38

>  <SMILES>  (41) 
O=C(Nc1ccc(SC(F)F)cc1)c1cccs1

>  <Energy>  (41) 
52.75061831070061

>  <Genealogy>  (41) 
O=C(Nc1ccc(SC(F)F)cc1)c1cccs1 (3D coordinates assigned)
O=C(Nc1ccc(SC(F)F)cc1)c1cccs1 (optimized conformer: 52.75061831070061 kcal/mol)

>  <smiles>  (41) 
O=C(Nc1ccc(SC(F)F)cc1)c1cccs1

>  <score_type>  (41) 
oracle

>  <origin>  (41) 
adgpu

>  <m_score__min__energy>  (41) 
-6.5800000000000001

>  <m_primary>  (41) 
energy

$$$$
41:0
     RDKit          3D

 22 23  0  0  0  0  0  0  0  0999 V2000
    0.3540   25.3180  -27.6290 O   0  0  0  0  0  0  0  0  0  0  0  0
   -0.6920   24.9150  -28.2030 C   0  0  0  0  0  0  0  0  0  0  0  0
   -1.4620   25.7260  -28.9600 N   0  0  0  0  0  0  0  0  0  0  0  0
   -2.4440   24.9050  -29.3640 C   0  0  0  0  0  0  0  0  0  0  0  0
   -3.5010   25.3020  -30.1730 O   0  0  0  0  0  0  0  0  0  0  0  0
   -2.2470   23.6410  -28.8590 C   0  0  0  0  0  0  0  0  0  0  0  0
   -3.1320   22.4460  -29.0500 C   0  0  0  0  0  0  0  0  0  0  0  0
   -2.4840   21.2090  -28.4760 C   0  0  0  0  0  0  0  0  0  0  0  0
   -3.0240   20.6420  -27.3100 C   0  0  0  0  0  0  0  0  0  0  0  0
   -2.4380   19.5110  -26.7290 C   0  0  0  0  0  0  0  0  0  0  0  0
   -2.9830   18.9500  -25.5740 O   0  0  0  0  0  0  0  0  0  0  0  0
   -1.3010   18.9410  -27.3060 C   0  0  0  0  0  0  0  0  0  0  0  0
   -0.7280   17.8160  -26.7230 O   0  0  0  0  0  0  0  0  0  0  0  0
   -0.7390   19.4990  -28.4630 C   0  0  0  0  0  0  0  0  0  0  0  0
    0.8300   18.6840  -29.2130 Br  0  0  0  0  0  0  0  0  0  0  0  0
   -1.3240   20.6390  -29.0510 C   0  0  0  0  0  0  0  0  0  0  0  0
   -0.5290   21.4110  -30.6280 Br  0  0  0  0  0  0  0  0  0  0  0  0
   -1.1300   23.6420  -28.1070 N   0  0  0  0  0  0  0  0  0  0  0  0
   -4.0912   22.6212  -28.5409 H   0  0  0  0  0  0  0  0  0  0  0  0
   -3.2957   22.2939  -30.1271 H   0  0  0  0  0  0  0  0  0  0  0  0
   -3.9160   21.0909  -26.8488 H   0  0  0  0  0  0  0  0  0  0  0  0
   -2.5380   18.1720  -25.1010 H   0  0  0  0  0  0  0  0  0  0  0  0
  1  2  2  0
  2  3  1  0
  3  4  1  0
  4  5  1  0
  4  6  2  0
  6  7  1  0
  7  8  1  0
  8  9  2  0
  9 10  1  0
 10 11  1  0
 10 12  2  0
 12 13  1  0
 12 14  1  0
 14 15  1  0
 14 16  2  0
 16 17  1  0
  6 18  1  0
 18  2  1  0
 16  8  1  0
  7 19  1  0
  7 20  1  0
  9 21  1  0
 11 22  1  0
M  CHG  4   3  -1   5  -1  13  -1  18  -1
M  END
>  <UniqueID>  (42) 
39

>  <SMILES>  (42) 
O=c1[n-]c([O-])c(Cc2cc(O)c([O-])c(Br)c2Br)[n-]1

>  <Energy>  (42) 
54.355401697245775

>  <Genealogy>  (42) 
O=c1[n-]c([O-])c(Cc2cc(O)c([O-])c(Br)c2Br)[n-]1 (protonated)
O=c1[n-]c([O-])c(Cc2cc(O)c([O-])c(Br)c2Br)[n-]1 (3D coordinates assigned)
O=c1[n-]c([O-])c(Cc2cc(O)c([O-])c(Br)c2Br)[n-]1 (optimized conformer: 54.355401697245775 kcal/mol)

>  <smiles>  (42) 
O=c1[nH]c(O)c(Cc2cc(O)c(O)c(Br)c2Br)[nH]1

>  <score_type>  (42) 
oracle

>  <origin>  (42) 
adgpu

>  <m_score__min__energy>  (42) 
-11.26

>  <m_primary>  (42) 
energy

$$$$
42:0
     RDKit          3D

 38 39  0  0  0  0  0  0  0  0999 V2000
   -2.8440   19.7050  -33.7670 C   0  0  0  0  0  0  0  0  0  0  0  0
   -4.2370   19.3400  -33.3490 C   0  0  0  0  0  0  0  0  0  0  0  0
   -4.6340   19.5030  -32.0140 C   0  0  0  0  0  0  0  0  0  0  0  0
   -5.9140   19.1180  -31.6050 C   0  0  0  0  0  0  0  0  0  0  0  0
   -6.8150   18.5600  -32.5270 C   0  0  0  0  0  0  0  0  0  0  0  0
   -8.1970   18.1580  -32.0830 C   0  0  0  0  0  0  0  0  0  0  0  0
   -8.8730   19.2780  -31.4030 N   0  0  0  0  0  0  0  0  0  0  0  0
   -8.9590   20.4800  -32.2460 C   0  0  0  0  0  0  0  0  0  0  0  0
   -8.0110   21.5490  -31.7720 C   0  0  0  0  0  0  0  0  0  0  0  0
   -7.1140   22.1550  -32.6650 C   0  0  0  0  0  0  0  0  0  0  0  0
   -6.2060   23.1160  -32.2110 C   0  0  0  0  0  0  0  0  0  0  0  0
   -6.1910   23.4900  -30.8610 C   0  0  0  0  0  0  0  0  0  0  0  0
   -5.0320   24.6830  -30.2830 S   0  0  0  0  0  0  0  0  0  0  0  0
   -4.9690   24.6390  -28.5580 N   0  0  0  0  0  0  0  0  0  0  0  0
   -3.6700   24.3810  -30.8410 O   0  0  0  0  0  0  0  0  0  0  0  0
   -5.4460   26.0550  -30.7360 O   0  0  0  0  0  0  0  0  0  0  0  0
   -7.0870   22.8890  -29.9670 C   0  0  0  0  0  0  0  0  0  0  0  0
   -7.9970   21.9300  -30.4200 C   0  0  0  0  0  0  0  0  0  0  0  0
   -6.4090   18.3780  -33.8590 C   0  0  0  0  0  0  0  0  0  0  0  0
   -5.1300   18.7650  -34.2670 C   0  0  0  0  0  0  0  0  0  0  0  0
   -2.2237   19.8675  -32.8732 H   0  0  0  0  0  0  0  0  0  0  0  0
   -2.4155   18.8888  -34.3672 H   0  0  0  0  0  0  0  0  0  0  0  0
   -2.8708   20.6264  -34.3672 H   0  0  0  0  0  0  0  0  0  0  0  0
   -3.9341   19.9364  -31.2844 H   0  0  0  0  0  0  0  0  0  0  0  0
   -6.2172   19.2526  -30.5562 H   0  0  0  0  0  0  0  0  0  0  0  0
   -8.7867   17.8611  -32.9628 H   0  0  0  0  0  0  0  0  0  0  0  0
   -8.1114   17.3171  -31.3790 H   0  0  0  0  0  0  0  0  0  0  0  0
   -9.8540   18.9750  -31.2000 H   0  0  0  0  0  0  0  0  0  0  0  0
   -8.7058   20.2101  -33.2819 H   0  0  0  0  0  0  0  0  0  0  0  0
   -9.9844   20.8736  -32.1861 H   0  0  0  0  0  0  0  0  0  0  0  0
   -7.1254   21.8723  -33.7280 H   0  0  0  0  0  0  0  0  0  0  0  0
   -5.5008   23.5802  -32.9162 H   0  0  0  0  0  0  0  0  0  0  0  0
   -4.9550   25.6310  -28.2300 H   0  0  0  0  0  0  0  0  0  0  0  0
   -5.8710   24.2250  -28.2310 H   0  0  0  0  0  0  0  0  0  0  0  0
   -7.0741   23.1731  -28.9044 H   0  0  0  0  0  0  0  0  0  0  0  0
   -8.7056   21.4714  -29.7146 H   0  0  0  0  0  0  0  0  0  0  0  0
   -7.1019   17.9282  -34.5853 H   0  0  0  0  0  0  0  0  0  0  0  0
   -4.8213   18.6184  -35.3126 H   0  0  0  0  0  0  0  0  0  0  0  0
  1  2  1  0
  2  3  2  0
  3  4  1  0
  4  5  2  0
  5  6  1  0
  6  7  1  0
  7  8  1  0
  8  9  1  0
  9 10  2  0
 10 11  1  0
 11 12  2  0
 12 13  1  0
 13 14  1  0
 13 15  2  0
 13 16  2  0
 12 17  1  0
 17 18  2  0
  5 19  1  0
 19 20  2  0
 20  2  1  0
 18  9  1  0
  1 21  1  0
  1 22  1  0
  1 23  1  0
  3 24  1  0
  4 25  1  0
  6 26  1  0
  6 27  1  0
  7 28  1  0
  8 29  1  0
  8 30  1  0
 10 31  1  0
 11 32  1  0
 14 33  1  0
 14 34  1  0
 17 35  1  0
 18 36  1  0
 19 37  1  0
 20 38  1  0
M  END
>  <UniqueID>  (43) 
40

>  <SMILES>  (43) 
Cc1ccc(CNCc2ccc(S(N)(=O)=O)cc2)cc1

>  <Energy>  (43) 
31.250611268528555

>  <Genealogy>  (43) 
Cc1ccc(CNCc2ccc(S(N)(=O)=O)cc2)cc1 (3D coordinates assigned)
Cc1ccc(CNCc2ccc(S(N)(=O)=O)cc2)cc1 (optimized conformer: 31.250611268528555 kcal/mol)

>  <smiles>  (43) 
Cc1ccc(CNCc2ccc(S(N)(=O)=O)cc2)cc1

>  <score_type>  (43) 
oracle

>  <origin>  (43) 
adgpu

>  <m_score__min__energy>  (43) 
-9.5500000000000007

>  <m_primary>  (43) 
energy

$$$$
43:0
     RDKit          3D

 42 44  0  0  0  0  0  0  0  0999 V2000
   -5.7270   17.5010  -34.5230 C   0  0  0  0  0  0  0  0  0  0  0  0
   -6.3490   16.8820  -32.9290 S   0  0  0  0  0  0  0  0  0  0  0  0
   -7.1760   18.4160  -32.5270 C   0  0  0  0  0  0  0  0  0  0  0  0
   -8.4130   18.3930  -31.9670 N   0  0  0  0  0  0  0  0  0  0  0  0
   -9.0540   19.5470  -31.6470 C   0  0  0  0  0  0  0  0  0  0  0  0
   -8.4450   20.7760  -31.8990 C   0  0  0  0  0  0  0  0  0  0  0  0
   -7.1750   20.7860  -32.4970 C   0  0  0  0  0  0  0  0  0  0  0  0
   -6.4910   21.9790  -32.7680 O   0  0  0  0  0  0  0  0  0  0  0  0
   -6.2840   23.0230  -31.8520 C   0  0  0  0  0  0  0  0  0  0  0  0
   -7.3800   23.5150  -31.1360 C   0  0  0  0  0  0  0  0  0  0  0  0
   -7.2090   24.5370  -30.1990 C   0  0  0  0  0  0  0  0  0  0  0  0
   -5.9400   25.0730  -29.9680 C   0  0  0  0  0  0  0  0  0  0  0  0
   -4.8290   24.5910  -30.6820 C   0  0  0  0  0  0  0  0  0  0  0  0
   -3.5010   25.0840  -30.4480 N   0  0  0  0  0  0  0  0  0  0  0  0
   -2.6500   24.7630  -29.3410 C   0  0  0  0  0  0  0  0  0  0  0  0
   -2.8620   23.7320  -28.6500 O   0  0  0  0  0  0  0  0  0  0  0  0
   -1.6140   25.6660  -28.9380 N   0  0  0  0  0  0  0  0  0  0  0  0
   -0.8590   25.5900  -27.7210 C   0  0  0  0  0  0  0  0  0  0  0  0
    0.2970   24.8000  -27.6930 C   0  0  0  0  0  0  0  0  0  0  0  0
    1.0610   24.7060  -26.5280 C   0  0  0  0  0  0  0  0  0  0  0  0
    0.6920   25.4220  -25.3870 C   0  0  0  0  0  0  0  0  0  0  0  0
   -0.4360   26.2570  -25.4130 C   0  0  0  0  0  0  0  0  0  0  0  0
   -0.8450   27.0190  -24.1860 C   0  0  0  0  0  0  0  0  0  0  0  0
   -1.2130   26.3320  -26.5800 C   0  0  0  0  0  0  0  0  0  0  0  0
   -5.0050   23.5490  -31.6010 C   0  0  0  0  0  0  0  0  0  0  0  0
   -6.5670   19.6040  -32.7850 N   0  0  0  0  0  0  0  0  0  0  0  0
   -4.9577   18.2666  -34.3441 H   0  0  0  0  0  0  0  0  0  0  0  0
   -5.2901   16.6687  -35.0943 H   0  0  0  0  0  0  0  0  0  0  0  0
   -6.5572   17.9419  -35.0943 H   0  0  0  0  0  0  0  0  0  0  0  0
  -10.0535   19.5121  -31.1891 H   0  0  0  0  0  0  0  0  0  0  0  0
   -8.9490   21.7174  -31.6348 H   0  0  0  0  0  0  0  0  0  0  0  0
   -8.3815   23.0952  -31.3115 H   0  0  0  0  0  0  0  0  0  0  0  0
   -8.0762   24.9207  -29.6415 H   0  0  0  0  0  0  0  0  0  0  0  0
   -5.8096   25.8742  -29.2256 H   0  0  0  0  0  0  0  0  0  0  0  0
    0.6051   24.2501  -28.5945 H   0  0  0  0  0  0  0  0  0  0  0  0
    1.9557   24.0664  -26.5088 H   0  0  0  0  0  0  0  0  0  0  0  0
    1.2866   25.3314  -24.4660 H   0  0  0  0  0  0  0  0  0  0  0  0
   -0.5440   26.4582  -23.2888 H   0  0  0  0  0  0  0  0  0  0  0  0
   -0.3540   28.0033  -24.1850 H   0  0  0  0  0  0  0  0  0  0  0  0
   -1.9367   27.1538  -24.1850 H   0  0  0  0  0  0  0  0  0  0  0  0
   -2.1048   26.9756  -26.6020 H   0  0  0  0  0  0  0  0  0  0  0  0
   -4.1335   23.1381  -32.1317 H   0  0  0  0  0  0  0  0  0  0  0  0
  1  2  1  0
  2  3  1  0
  3  4  2  0
  4  5  1  0
  5  6  2  0
  6  7  1  0
  7  8  1  0
  8  9  1  0
  9 10  2  0
 10 11  1  0
 11 12  2  0
 12 13  1  0
 13 14  1  0
 14 15  1  0
 15 16  2  0
 15 17  1  0
 17 18  1  0
 18 19  2  0
 19 20  1  0
 20 21  2  0
 21 22  1  0
 22 23  1  0
 22 24  2  0
 13 25  2  0
  7 26  2  0
 26  3  1  0
 25  9  1  0
 24 18  1  0
  1 27  1  0
  1 28  1  0
  1 29  1  0
  5 30  1  0
  6 31  1  0
 10 32  1  0
 11 33  1  0
 12 34  1  0
 19 35  1  0
 20 36  1  0
 21 37  1  0
 23 38  1  0
 23 39  1  0
 23 40  1  0
 24 41  1  0
 25 42  1  0
M  CHG  2  14  -1  17  -1
M  END
>  <UniqueID>  (44) 
41

>  <SMILES>  (44) 
CSc1nccc(Oc2cccc([N-]C(=O)[N-]c3cccc(C)c3)c2)n1

>  <Energy>  (44) 
53.749296674268614

>  <Genealogy>  (44) 
CSc1nccc(Oc2cccc([N-]C(=O)[N-]c3cccc(C)c3)c2)n1 (protonated)
CSc1nccc(Oc2cccc([N-]C(=O)[N-]c3cccc(C)c3)c2)n1 (3D coordinates assigned)
CSc1nccc(Oc2cccc([N-]C(=O)[N-]c3cccc(C)c3)c2)n1 (optimized conformer: 53.749296674268614 kcal/mol)

>  <smiles>  (44) 
CSc1nccc(Oc2cccc(NC(=O)Nc3cccc(C)c3)c2)n1

>  <score_type>  (44) 
oracle

>  <origin>  (44) 
adgpu

>  <m_score__min__energy>  (44) 
-11.94

>  <m_primary>  (44) 
energy

$$$$
44:0
     RDKit          3D

 55 59  0  0  0  0  0  0  0  0999 V2000
    3.4030   26.7080  -38.3260 C   0  0  0  0  0  0  0  0  0  0  0  0
    1.9300   26.7090  -38.0430 C   0  0  0  0  0  0  0  0  0  0  0  0
    1.0910   27.7520  -38.4950 C   0  0  0  0  0  0  0  0  0  0  0  0
   -0.2990   27.7150  -38.2390 C   0  0  0  0  0  0  0  0  0  0  0  0
   -0.8680   26.6370  -37.5370 C   0  0  0  0  0  0  0  0  0  0  0  0
   -0.0140   25.6210  -37.1140 C   0  0  0  0  0  0  0  0  0  0  0  0
   -0.3250   24.4940  -36.4630 N   0  0  0  0  0  0  0  0  0  0  0  0
    0.8660   23.8510  -36.3300 C   0  0  0  0  0  0  0  0  0  0  0  0
    1.0330   22.5220  -35.6920 C   0  0  0  0  0  0  0  0  0  0  0  0
    2.3090   21.9900  -35.4300 C   0  0  0  0  0  0  0  0  0  0  0  0
    2.4440   20.7510  -34.7990 C   0  0  0  0  0  0  0  0  0  0  0  0
    1.3120   20.0290  -34.4160 C   0  0  0  0  0  0  0  0  0  0  0  0
    0.0270   20.5380  -34.6670 C   0  0  0  0  0  0  0  0  0  0  0  0
   -1.1770   19.7790  -34.2480 C   0  0  0  0  0  0  0  0  0  0  0  0
   -1.3630   18.4500  -34.6670 C   0  0  0  0  0  0  0  0  0  0  0  0
   -2.5080   17.7410  -34.2940 C   0  0  0  0  0  0  0  0  0  0  0  0
   -3.4970   18.3490  -33.4990 C   0  0  0  0  0  0  0  0  0  0  0  0
   -4.7210   17.6060  -33.1260 C   0  0  0  0  0  0  0  0  0  0  0  0
   -4.6360   16.5690  -32.4120 O   0  0  0  0  0  0  0  0  0  0  0  0
   -5.9940   18.0210  -33.6410 N   0  0  0  0  0  0  0  0  0  0  0  0
   -6.8490   19.0230  -33.0690 C   0  0  0  0  0  0  0  0  0  0  0  0
   -8.1670   18.7320  -32.6760 C   0  0  0  0  0  0  0  0  0  0  0  0
   -8.9680   19.7280  -32.1130 C   0  0  0  0  0  0  0  0  0  0  0  0
   -8.4600   21.0170  -31.9300 C   0  0  0  0  0  0  0  0  0  0  0  0
   -7.1450   21.3200  -32.3150 C   0  0  0  0  0  0  0  0  0  0  0  0
   -6.5800   22.6940  -32.0820 C   0  0  0  0  0  0  0  0  0  0  0  0
   -7.2810   23.6400  -32.8470 O   0  0  0  0  0  0  0  0  0  0  0  0
   -6.3370   20.3090  -32.8610 C   0  0  0  0  0  0  0  0  0  0  0  0
   -3.3070   19.6760  -33.0750 C   0  0  0  0  0  0  0  0  0  0  0  0
   -2.1580   20.3810  -33.4410 C   0  0  0  0  0  0  0  0  0  0  0  0
   -0.1020   21.7840  -35.3040 C   0  0  0  0  0  0  0  0  0  0  0  0
    1.9080   24.5410  -36.8680 N   0  0  0  0  0  0  0  0  0  0  0  0
    1.3260   25.6510  -37.3560 C   0  0  0  0  0  0  0  0  0  0  0  0
    3.9588   26.7076  -37.3767 H   0  0  0  0  0  0  0  0  0  0  0  0
    3.6646   25.8097  -38.9044 H   0  0  0  0  0  0  0  0  0  0  0  0
    3.6659   27.6060  -38.9044 H   0  0  0  0  0  0  0  0  0  0  0  0
    1.5220   28.5984  -39.0497 H   0  0  0  0  0  0  0  0  0  0  0  0
   -0.9407   28.5359  -38.5917 H   0  0  0  0  0  0  0  0  0  0  0  0
   -1.9476   26.5977  -37.3297 H   0  0  0  0  0  0  0  0  0  0  0  0
   -1.2730   24.1970  -36.1420 H   0  0  0  0  0  0  0  0  0  0  0  0
    3.2066   22.5537  -35.7241 H   0  0  0  0  0  0  0  0  0  0  0  0
    3.4464   20.3425  -34.6031 H   0  0  0  0  0  0  0  0  0  0  0  0
    1.4270   19.0565  -33.9151 H   0  0  0  0  0  0  0  0  0  0  0  0
   -0.6008   17.9641  -35.2938 H   0  0  0  0  0  0  0  0  0  0  0  0
   -2.6371   16.6998  -34.6244 H   0  0  0  0  0  0  0  0  0  0  0  0
   -8.5685   17.7170  -32.8123 H   0  0  0  0  0  0  0  0  0  0  0  0
  -10.0009   19.4974  -31.8130 H   0  0  0  0  0  0  0  0  0  0  0  0
   -9.0934   21.7971  -31.4824 H   0  0  0  0  0  0  0  0  0  0  0  0
   -6.6709   22.9488  -31.0158 H   0  0  0  0  0  0  0  0  0  0  0  0
   -5.5212   22.7032  -32.3800 H   0  0  0  0  0  0  0  0  0  0  0  0
   -6.8010   23.7140  -33.7150 H   0  0  0  0  0  0  0  0  0  0  0  0
   -5.2928   20.5298  -33.1274 H   0  0  0  0  0  0  0  0  0  0  0  0
   -4.0697   20.1632  -32.4497 H   0  0  0  0  0  0  0  0  0  0  0  0
   -2.0197   21.4159  -33.0948 H   0  0  0  0  0  0  0  0  0  0  0  0
   -1.1052   22.1892  -35.5027 H   0  0  0  0  0  0  0  0  0  0  0  0
  1  2  1  0
  2  3  2  0
  3  4  1  0
  4  5  2  0
  5  6  1  0
  6  7  1  0
  7  8  1  0
  8  9  1  0
  9 10  2  0
 10 11  1  0
 11 12  2  0
 12 13  1  0
 13 14  1  0
 14 15  2  0
 15 16  1  0
 16 17  2  0
 17 18  1  0
 18 19  2  0
 18 20  1  0
 20 21  1  0
 21 22  2  0
 22 23  1  0
 23 24  2  0
 24 25  1  0
 25 26  1  0
 26 27  1  0
 25 28  2  0
 17 29  1  0
 29 30  2  0
 13 31  2  0
  8 32  2  0
 32 33  1  0
 33  2  1  0
 33  6  2  0
 31  9  1  0
 30 14  1  0
 28 21  1  0
  1 34  1  0
  1 35  1  0
  1 36  1  0
  3 37  1  0
  4 38  1  0
  5 39  1  0
  7 40  1  0
 10 41  1  0
 11 42  1  0
 12 43  1  0
 15 44  1  0
 16 45  1  0
 22 46  1  0
 23 47  1  0
 24 48  1  0
 26 49  1  0
 26 50  1  0
 27 51  1  0
 28 52  1  0
 29 53  1  0
 30 54  1  0
 31 55  1  0
M  CHG  1  20  -1
M  END
>  <UniqueID>  (45) 
42

>  <SMILES>  (45) 
Cc1cccc2[nH]c(-c3cccc(-c4ccc(C(=O)[N-]c5cccc(CO)c5)cc4)c3)nc12

>  <Energy>  (45) 
108.33603878793092

>  <Genealogy>  (45) 
Cc1cccc2[nH]c(-c3cccc(-c4ccc(C(=O)[N-]c5cccc(CO)c5)cc4)c3)nc12 (protonated)
Cc1cccc2[nH]c(-c3cccc(-c4ccc(C(=O)[N-]c5cccc(CO)c5)cc4)c3)nc12 (3D coordinates assigned)
Cc1cccc2[nH]c(-c3cccc(-c4ccc(C(=O)[N-]c5cccc(CO)c5)cc4)c3)nc12 (optimized conformer: 108.33603878793092 kcal/mol)

>  <smiles>  (45) 
Cc1cccc2[nH]c(-c3cccc(-c4ccc(C(=O)Nc5cccc(CO)c5)cc4)c3)nc12

>  <score_type>  (45) 
oracle

>  <origin>  (45) 
adgpu

>  <m_score__min__energy>  (45) 
-11.869999999999999

>  <m_primary>  (45) 
energy

$$$$
45:0
     RDKit          3D

 61 64  0  0  0  0  0  0  0  0999 V2000
   -9.0850   20.7160  -31.5590 C   0  0  0  0  0  0  0  0  0  0  0  0
   -9.0220   19.6550  -32.6540 C   0  0  0  0  0  0  0  0  0  0  0  0
   -8.0190   18.5520  -32.3010 C   0  0  0  0  0  0  0  0  0  0  0  0
   -6.6210   18.9770  -32.6680 C   0  0  0  0  0  0  0  0  0  0  0  0
   -6.1150   20.0950  -32.0730 N   0  0  0  0  0  0  0  0  0  0  0  0
   -4.8410   20.5240  -32.2790 C   0  0  0  0  0  0  0  0  0  0  0  0
   -4.3900   21.7760  -31.6350 C   0  0  0  0  0  0  0  0  0  0  0  0
   -5.2400   22.8880  -31.5450 C   0  0  0  0  0  0  0  0  0  0  0  0
   -4.8120   24.0520  -30.9070 C   0  0  0  0  0  0  0  0  0  0  0  0
   -3.5380   24.1200  -30.3360 C   0  0  0  0  0  0  0  0  0  0  0  0
   -3.1470   25.2970  -29.7080 O   0  0  0  0  0  0  0  0  0  0  0  0
   -2.6740   23.0060  -30.3950 C   0  0  0  0  0  0  0  0  0  0  0  0
   -1.2920   23.0510  -29.7610 C   0  0  0  0  0  0  0  0  0  0  0  0
   -0.5340   21.7360  -29.9860 C   0  0  0  0  0  0  0  0  0  0  0  0
   -1.3810   23.3870  -28.2670 C   0  0  0  0  0  0  0  0  0  0  0  0
   -3.1190   21.8350  -31.0420 C   0  0  0  0  0  0  0  0  0  0  0  0
   -4.0050   19.7190  -33.0640 C   0  0  0  0  0  0  0  0  0  0  0  0
   -2.6590   19.8930  -33.3410 C   0  0  0  0  0  0  0  0  0  0  0  0
   -2.2820   18.7960  -34.0960 C   0  0  0  0  0  0  0  0  0  0  0  0
   -0.9460   18.5010  -34.6550 C   0  0  0  0  0  0  0  0  0  0  0  0
   -0.6370   17.3000  -34.8810 O   0  0  0  0  0  0  0  0  0  0  0  0
    0.0340   19.5150  -34.9190 N   0  0  0  0  0  0  0  0  0  0  0  0
    0.3950   20.6080  -34.0260 C   0  0  0  0  0  0  0  0  0  0  0  0
   -3.4070   18.0010  -34.2330 C   0  0  0  0  0  0  0  0  0  0  0  0
   -3.3770   16.7370  -34.8250 O   0  0  0  0  0  0  0  0  0  0  0  0
   -4.4720   18.5810  -33.6240 N   0  0  0  0  0  0  0  0  0  0  0  0
   -5.7910   18.2140  -33.5260 C   0  0  0  0  0  0  0  0  0  0  0  0
   -6.5030   16.9080  -34.5510 S   0  0  0  0  0  0  0  0  0  0  0  0
   -5.7690   15.5900  -33.5730 C   0  0  0  0  0  0  0  0  0  0  0  0
   -5.7770   14.2690  -34.0430 C   0  0  0  0  0  0  0  0  0  0  0  0
   -5.2000   13.2480  -33.2820 C   0  0  0  0  0  0  0  0  0  0  0  0
   -4.6180   13.5400  -32.0460 C   0  0  0  0  0  0  0  0  0  0  0  0
   -4.6210   14.8520  -31.5650 C   0  0  0  0  0  0  0  0  0  0  0  0
   -5.2010   15.8750  -32.3230 C   0  0  0  0  0  0  0  0  0  0  0  0
   -9.0560   20.2281  -30.5736 H   0  0  0  0  0  0  0  0  0  0  0  0
   -8.2256   21.3956  -31.6571 H   0  0  0  0  0  0  0  0  0  0  0  0
  -10.0188   21.2891  -31.6571 H   0  0  0  0  0  0  0  0  0  0  0  0
  -10.0191   19.2070  -32.7771 H   0  0  0  0  0  0  0  0  0  0  0  0
   -8.6949   20.1370  -33.5871 H   0  0  0  0  0  0  0  0  0  0  0  0
   -8.0653   18.3522  -31.2203 H   0  0  0  0  0  0  0  0  0  0  0  0
   -8.2753   17.6427  -32.8645 H   0  0  0  0  0  0  0  0  0  0  0  0
   -6.2494   22.8418  -31.9798 H   0  0  0  0  0  0  0  0  0  0  0  0
   -5.4819   24.9228  -30.8528 H   0  0  0  0  0  0  0  0  0  0  0  0
   -0.7240   23.8534  -30.2545 H   0  0  0  0  0  0  0  0  0  0  0  0
   -0.2769   21.2900  -29.0139 H   0  0  0  0  0  0  0  0  0  0  0  0
   -1.1690   21.0391  -30.5527 H   0  0  0  0  0  0  0  0  0  0  0  0
    0.3873   21.9362  -30.5527 H   0  0  0  0  0  0  0  0  0  0  0  0
   -1.1436   22.4909  -27.6749 H   0  0  0  0  0  0  0  0  0  0  0  0
   -0.6634   24.1855  -28.0274 H   0  0  0  0  0  0  0  0  0  0  0  0
   -2.3998   23.7256  -28.0274 H   0  0  0  0  0  0  0  0  0  0  0  0
   -2.4606   20.9548  -31.0827 H   0  0  0  0  0  0  0  0  0  0  0  0
   -2.0205   20.7313  -33.0255 H   0  0  0  0  0  0  0  0  0  0  0  0
    0.2865   20.2795  -32.9818 H   0  0  0  0  0  0  0  0  0  0  0  0
    1.4384   20.9032  -34.2110 H   0  0  0  0  0  0  0  0  0  0  0  0
   -0.2673   21.4666  -34.2110 H   0  0  0  0  0  0  0  0  0  0  0  0
   -2.5420   16.3170  -35.2030 H   0  0  0  0  0  0  0  0  0  0  0  0
   -6.2388   14.0352  -35.0136 H   0  0  0  0  0  0  0  0  0  0  0  0
   -5.2043   12.2138  -33.6568 H   0  0  0  0  0  0  0  0  0  0  0  0
   -4.1574   12.7372  -31.4515 H   0  0  0  0  0  0  0  0  0  0  0  0
   -4.1669   15.0807  -30.5895 H   0  0  0  0  0  0  0  0  0  0  0  0
   -5.2115   16.9052  -31.9375 H   0  0  0  0  0  0  0  0  0  0  0  0
  1  2  1  0
  2  3  1  0
  3  4  1  0
  4  5  1  0
  5  6  2  0
  6  7  1  0
  7  8  2  0
  8  9  1  0
  9 10  2  0
 10 11  1  0
 10 12  1  0
 12 13  1  0
 13 14  1  0
 13 15  1  0
 12 16  2  0
  6 17  1  0
 17 18  2  0
 18 19  1  0
 19 20  1  0
 20 21  2  0
 20 22  1  0
 22 23  1  0
 19 24  2  0
 24 25  1  0
 24 26  1  0
 26 27  1  0
 27 28  1  0
 28 29  1  0
 29 30  2  0
 30 31  1  0
 31 32  2  0
 32 33  1  0
 33 34  2  0
 27  4  2  0
 34 29  1  0
 16  7  1  0
 26 17  1  0
  1 35  1  0
  1 36  1  0
  1 37  1  0
  2 38  1  0
  2 39  1  0
  3 40  1  0
  3 41  1  0
  8 42  1  0
  9 43  1  0
 13 44  1  0
 14 45  1  0
 14 46  1  0
 14 47  1  0
 15 48  1  0
 15 49  1  0
 15 50  1  0
 16 51  1  0
 18 52  1  0
 23 53  1  0
 23 54  1  0
 23 55  1  0
 25 56  1  0
 30 57  1  0
 31 58  1  0
 32 59  1  0
 33 60  1  0
 34 61  1  0
M  CHG  2  11  -1  22  -1
M  END
>  <UniqueID>  (46) 
43

>  <SMILES>  (46) 
CCCc1nc(-c2ccc([O-])c(C(C)C)c2)c2cc(C(=O)[N-]C)c(O)n2c1Sc1ccccc1

>  <Energy>  (46) 
101.07189199078606

>  <Genealogy>  (46) 
CCCc1nc(-c2ccc([O-])c(C(C)C)c2)c2cc(C(=O)[N-]C)c(O)n2c1Sc1ccccc1 (protonated)
CCCc1nc(-c2ccc([O-])c(C(C)C)c2)c2cc(C(=O)[N-]C)c(O)n2c1Sc1ccccc1 (3D coordinates assigned)
CCCc1nc(-c2ccc([O-])c(C(C)C)c2)c2cc(C(=O)[N-]C)c(O)n2c1Sc1ccccc1 (optimized conformer: 101.07189199078606 kcal/mol)

>  <smiles>  (46) 
CCCc1nc(-c2ccc(O)c(C(C)C)c2)c2cc(C(=O)NC)c(O)n2c1Sc1ccccc1

>  <score_type>  (46) 
oracle

>  <origin>  (46) 
adgpu

>  <m_score__min__energy>  (46) 
-11.67

>  <m_primary>  (46) 
energy

$$$$
46:0
     RDKit          3D

 50 52  0  0  0  0  0  0  0  0999 V2000
   -9.1141   18.5848  -32.5520 H   0  0  0  0  0  0  0  0  0  0  0  0
   -8.2690   19.2890  -32.5480 C   0  0  0  0  0  0  0  0  0  0  0  0
   -6.9750   18.8540  -32.8520 C   0  0  0  0  0  0  0  0  0  0  0  0
   -6.7210   17.4280  -33.2200 C   0  0  0  0  0  0  0  0  0  0  0  0
   -6.6139   16.8267  -32.3051 H   0  0  0  0  0  0  0  0  0  0  0  0
   -7.5653   17.0463  -33.8129 H   0  0  0  0  0  0  0  0  0  0  0  0
   -5.7968   17.3613  -33.8129 H   0  0  0  0  0  0  0  0  0  0  0  0
   -5.9530   19.7490  -32.8680 N   0  0  0  0  0  0  0  0  0  0  0  0
   -6.1560   21.0640  -32.5810 C   0  0  0  0  0  0  0  0  0  0  0  0
   -5.0570   21.9980  -32.6420 N   0  0  0  0  0  0  0  0  0  0  0  0
   -5.0130   23.0890  -31.7000 C   0  0  0  0  0  0  0  0  0  0  0  0
   -3.8890   23.2870  -30.9650 N   0  0  0  0  0  0  0  0  0  0  0  0
   -3.7550   24.3430  -30.1210 C   0  0  0  0  0  0  0  0  0  0  0  0
   -2.6420   24.5340  -29.4710 N   0  0  0  0  0  0  0  0  0  0  0  0
   -1.4730   23.6480  -29.5190 C   0  0  0  0  0  0  0  0  0  0  0  0
   -1.2925   23.3515  -30.5628 H   0  0  0  0  0  0  0  0  0  0  0  0
   -0.6101   24.1947  -29.1109 H   0  0  0  0  0  0  0  0  0  0  0  0
   -1.6820   22.4060  -28.6860 C   0  0  0  0  0  0  0  0  0  0  0  0
   -2.5060   21.3710  -29.1530 C   0  0  0  0  0  0  0  0  0  0  0  0
   -2.9392   21.4291  -30.1624 H   0  0  0  0  0  0  0  0  0  0  0  0
   -2.7790   20.2660  -28.3410 C   0  0  0  0  0  0  0  0  0  0  0  0
   -3.4344   19.4638  -28.7110 H   0  0  0  0  0  0  0  0  0  0  0  0
   -2.2210   20.1750  -27.0560 C   0  0  0  0  0  0  0  0  0  0  0  0
   -2.5670   19.0230  -26.1620 C   0  0  0  0  0  0  0  0  0  0  0  0
   -2.4737   19.3337  -25.1109 H   0  0  0  0  0  0  0  0  0  0  0  0
   -3.6008   18.7033  -26.3595 H   0  0  0  0  0  0  0  0  0  0  0  0
   -1.8804   18.1865  -26.3595 H   0  0  0  0  0  0  0  0  0  0  0  0
   -1.3970   21.2100  -26.5880 C   0  0  0  0  0  0  0  0  0  0  0  0
   -0.9677   21.1542  -25.5768 H   0  0  0  0  0  0  0  0  0  0  0  0
   -1.1200   22.3110  -27.4020 C   0  0  0  0  0  0  0  0  0  0  0  0
   -0.4575   23.1088  -27.0352 H   0  0  0  0  0  0  0  0  0  0  0  0
   -4.7800   25.2280  -29.9860 N   0  0  0  0  0  0  0  0  0  0  0  0
   -4.6880   26.0460  -29.3420 H   0  0  0  0  0  0  0  0  0  0  0  0
   -5.9380   25.0580  -30.6790 C   0  0  0  0  0  0  0  0  0  0  0  0
   -6.7657   25.7701  -30.5458 H   0  0  0  0  0  0  0  0  0  0  0  0
   -6.0800   23.9840  -31.5580 C   0  0  0  0  0  0  0  0  0  0  0  0
   -7.0106   23.8434  -32.1274 H   0  0  0  0  0  0  0  0  0  0  0  0
   -3.8430   21.6460  -33.3960 C   0  0  0  0  0  0  0  0  0  0  0  0
   -3.2981   22.5659  -33.6547 H   0  0  0  0  0  0  0  0  0  0  0  0
   -4.1352   21.1086  -34.3102 H   0  0  0  0  0  0  0  0  0  0  0  0
   -2.9380   20.7440  -32.5610 C   0  0  0  0  0  0  0  0  0  0  0  0
   -3.1224   20.9278  -31.4923 H   0  0  0  0  0  0  0  0  0  0  0  0
   -3.1537   19.6909  -32.7945 H   0  0  0  0  0  0  0  0  0  0  0  0
   -1.8857   20.9632  -32.7945 H   0  0  0  0  0  0  0  0  0  0  0  0
   -7.4100   21.4940  -32.2680 N   0  0  0  0  0  0  0  0  0  0  0  0
   -8.4650   20.6380  -32.2390 C   0  0  0  0  0  0  0  0  0  0  0  0
   -9.8350   21.1570  -31.9380 C   0  0  0  0  0  0  0  0  0  0  0  0
   -9.9757   21.2103  -30.8483 H   0  0  0  0  0  0  0  0  0  0  0  0
   -9.9503   22.1611  -32.3721 H   0  0  0  0  0  0  0  0  0  0  0  0
  -10.5866   20.4813  -32.3721 H   0  0  0  0  0  0  0  0  0  0  0  0
  1  2  1  0
  2  3  2  0
  3  4  1  0
  4  5  1  0
  4  6  1  0
  4  7  1  0
  3  8  1  0
  8  9  2  0
  9 10  1  0
 10 11  1  0
 11 12  2  0
 12 13  1  0
 13 14  2  0
 14 15  1  0
 15 16  1  0
 15 17  1  0
 15 18  1  0
 18 19  2  0
 19 20  1  0
 19 21  1  0
 21 22  1  0
 21 23  2  0
 23 24  1  0
 24 25  1  0
 24 26  1  0
 24 27  1  0
 23 28  1  0
 28 29  1  0
 28 30  2  0
 30 31  1  0
 13 32  1  0
 32 33  1  0
 32 34  1  0
 34 35  1  0
 34 36  2  0
 36 37  1  0
 10 38  1  0
 38 39  1  0
 38 40  1  0
 38 41  1  0
 41 42  1  0
 41 43  1  0
 41 44  1  0
  9 45  1  0
 45 46  2  0
 46 47  1  0
 47 48  1  0
 47 49  1  0
 47 50  1  0
 46  2  1  0
 36 11  1  0
 30 18  1  0
M  END
>  <UniqueID>  (47) 
44

>  <SMILES>  (47) 
CCN(c1cc[nH]/c(=N/Cc2ccc(C)cc2)n1)c1nc(C)cc(C)n1

>  <Energy>  (47) 
47.917470858780774

>  <Genealogy>  (47) 
CCN(c1cc[nH]/c(=N/Cc2ccc(C)cc2)n1)c1nc(C)cc(C)n1 (cis-trans isomerization)
CCN(c1cc[nH]/c(=N/Cc2ccc(C)cc2)n1)c1nc(C)cc(C)n1 (3D coordinates assigned)
CCN(c1cc[nH]/c(=N/Cc2ccc(C)cc2)n1)c1nc(C)cc(C)n1 (optimized conformer: 47.917470858780774 kcal/mol)

>  <smiles>  (47) 
CCN(c1cc[nH]c(=NCc2ccc(C)cc2)n1)c1nc(C)cc(C)n1

>  <score_type>  (47) 
oracle

>  <origin>  (47) 
adgpu

>  <m_score__min__energy>  (47) 
-9.1099999999999994

>  <m_primary>  (47) 
energy

$$$$
47:0
     RDKit          3D

 47 50  0  0  0  0  0  0  0  0999 V2000
   -5.1050   22.1640  -32.6700 O   0  0  0  0  0  0  0  0  0  0  0  0
   -4.6070   21.9790  -31.5270 C   0  0  0  0  0  0  0  0  0  0  0  0
   -4.5290   20.6520  -30.9780 N   0  0  0  0  0  0  0  0  0  0  0  0
   -4.6460   19.4530  -31.7650 C   0  0  0  0  0  0  0  0  0  0  0  0
   -3.6270   19.0520  -32.6480 C   0  0  0  0  0  0  0  0  0  0  0  0
   -3.7550   17.8710  -33.3850 C   0  0  0  0  0  0  0  0  0  0  0  0
   -4.8980   17.0720  -33.2480 C   0  0  0  0  0  0  0  0  0  0  0  0
   -5.0560   15.5760  -34.1760 S   0  0  0  0  0  0  0  0  0  0  0  0
   -6.4910   15.4060  -34.5890 O   0  0  0  0  0  0  0  0  0  0  0  0
   -4.2240   15.6860  -35.4240 O   0  0  0  0  0  0  0  0  0  0  0  0
   -4.5500   14.1650  -33.2790 N   0  0  0  0  0  0  0  0  0  0  0  0
   -4.4630   14.4270  -31.8450 C   0  0  0  0  0  0  0  0  0  0  0  0
   -4.6490   13.0860  -31.1520 C   0  0  0  0  0  0  0  0  0  0  0  0
   -5.3230   12.1910  -32.1820 C   0  0  0  0  0  0  0  0  0  0  0  0
   -5.4940   13.0580  -33.4180 C   0  0  0  0  0  0  0  0  0  0  0  0
   -5.9010   17.4530  -32.3450 C   0  0  0  0  0  0  0  0  0  0  0  0
   -5.7730   18.6340  -31.6070 C   0  0  0  0  0  0  0  0  0  0  0  0
   -4.1480   23.1440  -30.7530 C   0  0  0  0  0  0  0  0  0  0  0  0
   -3.4830   23.1250  -29.5420 C   0  0  0  0  0  0  0  0  0  0  0  0
   -3.2780   24.4620  -29.2510 C   0  0  0  0  0  0  0  0  0  0  0  0
   -2.6330   25.0280  -28.0400 C   0  0  0  0  0  0  0  0  0  0  0  0
   -3.1240   24.6610  -26.7730 C   0  0  0  0  0  0  0  0  0  0  0  0
   -2.5360   25.1650  -25.6090 C   0  0  0  0  0  0  0  0  0  0  0  0
   -1.4590   26.0460  -25.6950 C   0  0  0  0  0  0  0  0  0  0  0  0
   -0.9710   26.4330  -26.9430 C   0  0  0  0  0  0  0  0  0  0  0  0
   -1.5550   25.9390  -28.1150 C   0  0  0  0  0  0  0  0  0  0  0  0
   -1.0690   26.3830  -29.3410 O   0  0  0  0  0  0  0  0  0  0  0  0
   -3.8050   25.2190  -30.2350 N   0  0  0  0  0  0  0  0  0  0  0  0
   -4.3270   24.4180  -31.1510 N   0  0  0  0  0  0  0  0  0  0  0  0
   -4.4850   20.5480  -29.9400 H   0  0  0  0  0  0  0  0  0  0  0  0
   -2.7246   19.6711  -32.7592 H   0  0  0  0  0  0  0  0  0  0  0  0
   -2.9546   17.5675  -34.0758 H   0  0  0  0  0  0  0  0  0  0  0  0
   -3.4796   14.8515  -31.5947 H   0  0  0  0  0  0  0  0  0  0  0  0
   -5.2266   15.1510  -31.5246 H   0  0  0  0  0  0  0  0  0  0  0  0
   -3.6759   12.6673  -30.8558 H   0  0  0  0  0  0  0  0  0  0  0  0
   -5.2486   13.1785  -30.2345 H   0  0  0  0  0  0  0  0  0  0  0  0
   -4.6908   11.3195  -32.4074 H   0  0  0  0  0  0  0  0  0  0  0  0
   -6.2854   11.8013  -31.8188 H   0  0  0  0  0  0  0  0  0  0  0  0
   -5.2684   12.4771  -34.3244 H   0  0  0  0  0  0  0  0  0  0  0  0
   -6.5274   13.4240  -33.5087 H   0  0  0  0  0  0  0  0  0  0  0  0
   -6.7918   16.8205  -32.2167 H   0  0  0  0  0  0  0  0  0  0  0  0
   -6.5624   18.9225  -30.8973 H   0  0  0  0  0  0  0  0  0  0  0  0
   -3.1853   22.2492  -28.9467 H   0  0  0  0  0  0  0  0  0  0  0  0
   -3.9779   23.9716  -26.6980 H   0  0  0  0  0  0  0  0  0  0  0  0
   -2.9237   24.8660  -24.6240 H   0  0  0  0  0  0  0  0  0  0  0  0
   -0.9937   26.4363  -24.7779 H   0  0  0  0  0  0  0  0  0  0  0  0
   -0.1226   27.1302  -27.0064 H   0  0  0  0  0  0  0  0  0  0  0  0
  1  2  2  0
  2  3  1  0
  3  4  1  0
  4  5  2  0
  5  6  1  0
  6  7  2  0
  7  8  1  0
  8  9  2  0
  8 10  2  0
  8 11  1  0
 11 12  1  0
 12 13  1  0
 13 14  1  0
 14 15  1  0
  7 16  1  0
 16 17  2  0
  2 18  1  0
 18 19  1  0
 19 20  2  0
 20 21  1  0
 21 22  2  0
 22 23  1  0
 23 24  2  0
 24 25  1  0
 25 26  2  0
 26 27  1  0
 20 28  1  0
 28 29  1  0
 17  4  1  0
 29 18  2  0
 15 11  1  0
 26 21  1  0
  3 30  1  0
  5 31  1  0
  6 32  1  0
 12 33  1  0
 12 34  1  0
 13 35  1  0
 13 36  1  0
 14 37  1  0
 14 38  1  0
 15 39  1  0
 15 40  1  0
 16 41  1  0
 17 42  1  0
 19 43  1  0
 22 44  1  0
 23 45  1  0
 24 46  1  0
 25 47  1  0
M  CHG  2  27  -1  28  -1
M  END
>  <UniqueID>  (48) 
45

>  <SMILES>  (48) 
O=C(Nc1ccc(S(=O)(=O)N2CCCC2)cc1)c1cc(-c2ccccc2[O-])[n-]n1

>  <Energy>  (48) 
88.10559614452464

>  <Genealogy>  (48) 
O=C(Nc1ccc(S(=O)(=O)N2CCCC2)cc1)c1cc(-c2ccccc2[O-])[n-]n1 (protonated)
O=C(Nc1ccc(S(=O)(=O)N2CCCC2)cc1)c1cc(-c2ccccc2[O-])[n-]n1 (3D coordinates assigned)
O=C(Nc1ccc(S(=O)(=O)N2CCCC2)cc1)c1cc(-c2ccccc2[O-])[n-]n1 (nonaromatic ring conformer: 88.10559614452464 kcal/mol)

>  <smiles>  (48) 
O=C(Nc1ccc(S(=O)(=O)N2CCCC2)cc1)c1cc(-c2ccccc2O)[nH]n1

>  <score_type>  (48) 
oracle

>  <origin>  (48) 
adgpu

>  <m_score__min__energy>  (48) 
-12.41

>  <m_primary>  (48) 
energy

$$$$
