0:0
     RDKit          3D

 70 73  0  0  0  0  0  0  0  0999 V2000
    0.4840   17.5740  -28.0860 C   0  0  0  0  0  0  0  0  0  0  0  0
   -0.3610   18.6490  -28.4850 O   0  0  0  0  0  0  0  0  0  0  0  0
    0.0470   19.9860  -28.4410 C   0  0  0  0  0  0  0  0  0  0  0  0
    1.2600   20.2700  -28.2300 O   0  0  0  0  0  0  0  0  0  0  0  0
   -0.9160   21.0420  -28.6260 N   0  0  0  0  0  0  0  0  0  0  0  0
   -0.4370   22.4140  -28.8360 C   0  0  0  0  0  0  0  0  0  0  0  0
   -1.5910   23.3800  -29.1170 C   0  0  0  0  0  0  0  0  0  0  0  0
   -2.6860   23.2470  -28.0380 C   0  0  0  0  0  0  0  0  0  0  0  0
   -3.8640   24.1820  -28.3640 C   0  0  0  0  0  0  0  0  0  0  0  0
   -5.0270   23.4130  -28.8170 N   0  0  0  0  0  0  0  0  0  0  0  0
   -4.9980   23.2640  -30.5470 S   0  0  0  0  0  0  0  0  0  0  0  0
   -3.9800   22.2340  -30.9570 O   0  0  0  0  0  0  0  0  0  0  0  0
   -4.6090   24.5870  -31.1480 O   0  0  0  0  0  0  0  0  0  0  0  0
   -6.5930   22.8150  -31.1420 C   0  0  0  0  0  0  0  0  0  0  0  0
   -7.5460   23.7940  -31.4620 C   0  0  0  0  0  0  0  0  0  0  0  0
   -8.7940   23.4170  -31.9660 C   0  0  0  0  0  0  0  0  0  0  0  0
   -9.0940   22.0650  -32.1530 C   0  0  0  0  0  0  0  0  0  0  0  0
   -8.1510   21.0810  -31.8310 C   0  0  0  0  0  0  0  0  0  0  0  0
   -8.5050   19.3850  -32.1360 S   0  0  0  0  0  0  0  0  0  0  0  0
   -9.6690   19.2600  -33.0800 O   0  0  0  0  0  0  0  0  0  0  0  0
   -8.8690   18.6940  -30.8510 O   0  0  0  0  0  0  0  0  0  0  0  0
   -7.0740   18.6470  -32.8400 C   0  0  0  0  0  0  0  0  0  0  0  0
   -6.4560   19.2170  -33.9600 C   0  0  0  0  0  0  0  0  0  0  0  0
   -5.3670   18.5830  -34.5630 C   0  0  0  0  0  0  0  0  0  0  0  0
   -4.8980   17.3650  -34.0670 C   0  0  0  0  0  0  0  0  0  0  0  0
   -3.7680   16.7530  -34.6930 N   0  0  0  0  0  0  0  0  0  0  0  0
   -2.3930   17.0590  -34.4290 C   0  0  0  0  0  0  0  0  0  0  0  0
   -1.5650   17.0060  -35.3770 O   0  0  0  0  0  0  0  0  0  0  0  0
   -1.8910   17.3190  -33.0340 C   0  0  0  0  0  0  0  0  0  0  0  0
   -1.7250   18.7990  -32.8130 C   0  0  0  0  0  0  0  0  0  0  0  0
   -0.6760   19.2840  -32.0110 C   0  0  0  0  0  0  0  0  0  0  0  0
   -0.5110   20.6600  -31.8210 C   0  0  0  0  0  0  0  0  0  0  0  0
   -1.3860   21.5600  -32.4400 C   0  0  0  0  0  0  0  0  0  0  0  0
   -2.4220   21.0880  -33.2510 C   0  0  0  0  0  0  0  0  0  0  0  0
   -2.5910   19.7110  -33.4400 C   0  0  0  0  0  0  0  0  0  0  0  0
   -5.4980   16.8090  -32.9230 C   0  0  0  0  0  0  0  0  0  0  0  0
   -6.5900   17.4390  -32.3240 C   0  0  0  0  0  0  0  0  0  0  0  0
   -6.8990   21.4610  -31.3350 C   0  0  0  0  0  0  0  0  0  0  0  0
   -3.1490   21.7710  -27.8400 C   0  0  0  0  0  0  0  0  0  0  0  0
   -2.3580   20.7490  -28.6730 C   0  0  0  0  0  0  0  0  0  0  0  0
    0.5220   17.5257  -26.9877 H   0  0  0  0  0  0  0  0  0  0  0  0
    0.0852   16.6280  -28.4811 H   0  0  0  0  0  0  0  0  0  0  0  0
    1.4974   17.7381  -28.4811 H   0  0  0  0  0  0  0  0  0  0  0  0
    0.0955   22.7478  -27.9332 H   0  0  0  0  0  0  0  0  0  0  0  0
    0.2307   22.4140  -29.7102 H   0  0  0  0  0  0  0  0  0  0  0  0
   -1.2074   24.4109  -29.1175 H   0  0  0  0  0  0  0  0  0  0  0  0
   -2.0273   23.1356  -30.0968 H   0  0  0  0  0  0  0  0  0  0  0  0
   -2.2531   23.5571  -27.0755 H   0  0  0  0  0  0  0  0  0  0  0  0
   -4.1355   24.7488  -27.4612 H   0  0  0  0  0  0  0  0  0  0  0  0
   -3.5588   24.8676  -29.1682 H   0  0  0  0  0  0  0  0  0  0  0  0
   -5.8910   23.9570  -28.5810 H   0  0  0  0  0  0  0  0  0  0  0  0
   -7.3108   24.8586  -31.3161 H   0  0  0  0  0  0  0  0  0  0  0  0
   -9.5407   24.1852  -32.2157 H   0  0  0  0  0  0  0  0  0  0  0  0
  -10.0752   21.7724  -32.5549 H   0  0  0  0  0  0  0  0  0  0  0  0
   -6.8298   20.1682  -34.3667 H   0  0  0  0  0  0  0  0  0  0  0  0
   -4.8768   19.0454  -35.4324 H   0  0  0  0  0  0  0  0  0  0  0  0
   -2.6141   16.9211  -32.3068 H   0  0  0  0  0  0  0  0  0  0  0  0
   -0.9178   16.8233  -32.9026 H   0  0  0  0  0  0  0  0  0  0  0  0
    0.0177   18.5780  -31.5311 H   0  0  0  0  0  0  0  0  0  0  0  0
    0.3054   21.0342  -31.1859 H   0  0  0  0  0  0  0  0  0  0  0  0
   -1.2581   22.6419  -32.2878 H   0  0  0  0  0  0  0  0  0  0  0  0
   -3.1044   21.7983  -33.7407 H   0  0  0  0  0  0  0  0  0  0  0  0
   -3.4046   19.3417  -34.0816 H   0  0  0  0  0  0  0  0  0  0  0  0
   -5.1049   15.8735  -32.4984 H   0  0  0  0  0  0  0  0  0  0  0  0
   -7.0712   16.9855  -31.4449 H   0  0  0  0  0  0  0  0  0  0  0  0
   -6.1500   20.6920  -31.0950 H   0  0  0  0  0  0  0  0  0  0  0  0
   -3.0351   21.5127  -26.7769 H   0  0  0  0  0  0  0  0  0  0  0  0
   -4.1938   21.7175  -28.1800 H   0  0  0  0  0  0  0  0  0  0  0  0
   -2.5347   19.7409  -28.2700 H   0  0  0  0  0  0  0  0  0  0  0  0
   -2.6964   20.8077  -29.7180 H   0  0  0  0  0  0  0  0  0  0  0  0
  1  2  1  0
  2  3  1  0
  3  4  2  0
  3  5  1  0
  5  6  1  0
  6  7  1  0
  7  8  1  0
  8  9  1  0
  9 10  1  0
 10 11  1  0
 11 12  2  0
 11 13  2  0
 11 14  1  0
 14 15  2  0
 15 16  1  0
 16 17  2  0
 17 18  1  0
 18 19  1  0
 19 20  2  0
 19 21  2  0
 19 22  1  0
 22 23  2  0
 23 24  1  0
 24 25  2  0
 25 26  1  0
 26 27  1  0
 27 28  2  0
 27 29  1  0
 29 30  1  0
 30 31  2  0
 31 32  1  0
 32 33  2  0
 33 34  1  0
 34 35  2  0
 25 36  1  0
 36 37  2  0
 18 38  2  0
  8 39  1  0
 39 40  1  0
 40  5  1  0
 38 14  1  0
 37 22  1  0
 35 30  1  0
  1 41  1  0
  1 42  1  0
  1 43  1  0
  6 44  1  0
  6 45  1  0
  7 46  1  0
  7 47  1  0
  8 48  1  0
  9 49  1  0
  9 50  1  0
 10 51  1  0
 15 52  1  0
 16 53  1  0
 17 54  1  0
 23 55  1  0
 24 56  1  0
 29 57  1  0
 29 58  1  0
 31 59  1  0
 32 60  1  0
 33 61  1  0
 34 62  1  0
 35 63  1  0
 36 64  1  0
 37 65  1  0
 38 66  1  0
 39 67  1  0
 39 68  1  0
 40 69  1  0
 40 70  1  0
M  CHG  1  26  -1
M  END
>  <UniqueID>  (1) 
1

>  <SMILES>  (1) 
COC(=O)N1CCC(CNS(=O)(=O)c2cccc(S(=O)(=O)c3ccc([N-]C(=O)Cc4ccccc4)cc3)c2)CC1

>  <Energy>  (1) 
70.32853002618246

>  <Genealogy>  (1) 
COC(=O)N1CCC(CNS(=O)(=O)c2cccc(S(=O)(=O)c3ccc([N-]C(=O)Cc4ccccc4)cc3)c2)CC1 (protonated)
COC(=O)N1CCC(CNS(=O)(=O)c2cccc(S(=O)(=O)c3ccc([N-]C(=O)Cc4ccccc4)cc3)c2)CC1 (3D coordinates assigned)
COC(=O)N1CCC(CNS(=O)(=O)c2cccc(S(=O)(=O)c3ccc([N-]C(=O)Cc4ccccc4)cc3)c2)CC1 (nonaromatic ring conformer: 70.32853002618246 kcal/mol)

>  <smiles>  (1) 
COC(=O)N1CCC(CNS(=O)(=O)c2cccc(S(=O)(=O)c3ccc(NC(=O)Cc4ccccc4)cc3)c2)CC1

>  <score_type>  (1) 
oracle

>  <origin>  (1) 
adgpu

>  <m_score__min__energy>  (1) 
-13.33

>  <m_primary>  (1) 
energy

$$$$
1:0
     RDKit          3D

 39 41  0  0  0  0  0  0  0  0999 V2000
   -2.3640   24.2320  -28.9230 C   0  0  0  0  0  0  0  0  0  0  0  0
   -3.1520   24.9510  -29.8660 O   0  0  0  0  0  0  0  0  0  0  0  0
   -4.4080   24.5300  -30.3310 C   0  0  0  0  0  0  0  0  0  0  0  0
   -4.4640   23.4210  -31.1840 C   0  0  0  0  0  0  0  0  0  0  0  0
   -5.6900   22.9620  -31.6720 C   0  0  0  0  0  0  0  0  0  0  0  0
   -6.8840   23.6030  -31.3070 C   0  0  0  0  0  0  0  0  0  0  0  0
   -8.2070   23.1200  -31.8370 C   0  0  0  0  0  0  0  0  0  0  0  0
   -8.5470   21.8530  -31.2730 O   0  0  0  0  0  0  0  0  0  0  0  0
   -8.1580   20.6050  -31.7860 C   0  0  0  0  0  0  0  0  0  0  0  0
   -8.6770   19.3880  -31.3020 C   0  0  0  0  0  0  0  0  0  0  0  0
   -8.2580   18.1740  -31.8530 C   0  0  0  0  0  0  0  0  0  0  0  0
   -7.3230   18.1550  -32.9000 C   0  0  0  0  0  0  0  0  0  0  0  0
   -6.8420   16.8470  -33.4630 C   0  0  0  0  0  0  0  0  0  0  0  0
   -5.4310   16.9490  -33.8210 N   0  0  0  0  0  0  0  0  0  0  0  0
   -4.3690   16.5300  -33.1120 C   0  0  0  0  0  0  0  0  0  0  0  0
   -3.2290   16.7140  -33.8060 N   0  0  0  0  0  0  0  0  0  0  0  0
   -3.5630   17.2450  -34.9740 N   0  0  0  0  0  0  0  0  0  0  0  0
   -4.9040   17.3780  -34.9790 C   0  0  0  0  0  0  0  0  0  0  0  0
   -6.7910   19.3660  -33.3680 C   0  0  0  0  0  0  0  0  0  0  0  0
   -7.2100   20.5800  -32.8160 C   0  0  0  0  0  0  0  0  0  0  0  0
   -6.8290   24.7230  -30.4630 C   0  0  0  0  0  0  0  0  0  0  0  0
   -5.6030   25.1830  -29.9740 C   0  0  0  0  0  0  0  0  0  0  0  0
   -2.6685   24.5098  -27.9031 H   0  0  0  0  0  0  0  0  0  0  0  0
   -2.5127   23.1519  -29.0687 H   0  0  0  0  0  0  0  0  0  0  0  0
   -1.3020   24.4788  -29.0687 H   0  0  0  0  0  0  0  0  0  0  0  0
   -3.5352   22.9070  -31.4722 H   0  0  0  0  0  0  0  0  0  0  0  0
   -5.7196   22.0933  -32.3461 H   0  0  0  0  0  0  0  0  0  0  0  0
   -8.9875   23.8509  -31.5788 H   0  0  0  0  0  0  0  0  0  0  0  0
   -8.1309   23.0109  -32.9289 H   0  0  0  0  0  0  0  0  0  0  0  0
   -9.4154   19.3934  -30.4867 H   0  0  0  0  0  0  0  0  0  0  0  0
   -8.6631   17.2281  -31.4642 H   0  0  0  0  0  0  0  0  0  0  0  0
   -6.9708   16.0562  -32.7093 H   0  0  0  0  0  0  0  0  0  0  0  0
   -7.4269   16.6028  -34.3620 H   0  0  0  0  0  0  0  0  0  0  0  0
   -4.4231   16.0960  -32.1027 H   0  0  0  0  0  0  0  0  0  0  0  0
   -5.4880   17.7833  -35.8184 H   0  0  0  0  0  0  0  0  0  0  0  0
   -6.0410   19.3601  -34.1727 H   0  0  0  0  0  0  0  0  0  0  0  0
   -6.7911   21.5242  -33.1943 H   0  0  0  0  0  0  0  0  0  0  0  0
   -7.7576   25.2427  -30.1843 H   0  0  0  0  0  0  0  0  0  0  0  0
   -5.5718   26.0580  -29.3081 H   0  0  0  0  0  0  0  0  0  0  0  0
  1  2  1  0
  2  3  1  0
  3  4  2  0
  4  5  1  0
  5  6  2  0
  6  7  1  0
  7  8  1  0
  8  9  1  0
  9 10  2  0
 10 11  1  0
 11 12  2  0
 12 13  1  0
 13 14  1  0
 14 15  1  0
 15 16  2  0
 16 17  1  0
 17 18  2  0
 12 19  1  0
 19 20  2  0
  6 21  1  0
 21 22  2  0
 22  3  1  0
 20  9  1  0
 18 14  1  0
  1 23  1  0
  1 24  1  0
  1 25  1  0
  4 26  1  0
  5 27  1  0
  7 28  1  0
  7 29  1  0
 10 30  1  0
 11 31  1  0
 13 32  1  0
 13 33  1  0
 15 34  1  0
 18 35  1  0
 19 36  1  0
 20 37  1  0
 21 38  1  0
 22 39  1  0
M  END
>  <UniqueID>  (2) 
2

>  <SMILES>  (2) 
COc1ccc(COc2ccc(Cn3cnnc3)cc2)cc1

>  <Energy>  (2) 
72.87692854806949

>  <Genealogy>  (2) 
COc1ccc(COc2ccc(Cn3cnnc3)cc2)cc1 (3D coordinates assigned)
COc1ccc(COc2ccc(Cn3cnnc3)cc2)cc1 (optimized conformer: 72.87692854806949 kcal/mol)

>  <smiles>  (2) 
COc1ccc(COc2ccc(Cn3cnnc3)cc2)cc1

>  <score_type>  (2) 
oracle

>  <origin>  (2) 
adgpu

>  <m_score__min__energy>  (2) 
-7.6900000000000004

>  <m_primary>  (2) 
energy

$$$$
2:0
     RDKit          3D

 41 42  0  0  0  0  0  0  0  0999 V2000
   -3.8480   18.8020  -33.8580 C   0  0  0  0  0  0  0  0  0  0  0  0
   -4.6070   17.7040  -33.9520 C   0  0  0  0  0  0  0  0  0  0  0  0
   -6.0760   17.7920  -34.2470 C   0  0  0  0  0  0  0  0  0  0  0  0
   -6.5040   19.1940  -34.2430 N   0  0  0  0  0  0  0  0  0  0  0  0
   -7.4090   19.5250  -32.7970 S   0  0  0  0  0  0  0  0  0  0  0  0
   -7.2860   18.3640  -31.8480 O   0  0  0  0  0  0  0  0  0  0  0  0
   -8.8580   19.7180  -33.1440 O   0  0  0  0  0  0  0  0  0  0  0  0
   -6.7960   20.9970  -32.0490 C   0  0  0  0  0  0  0  0  0  0  0  0
   -7.6910   22.0190  -31.7090 C   0  0  0  0  0  0  0  0  0  0  0  0
   -7.2170   23.2180  -31.1680 C   0  0  0  0  0  0  0  0  0  0  0  0
   -5.8410   23.4040  -30.9680 C   0  0  0  0  0  0  0  0  0  0  0  0
   -5.2220   24.9390  -30.3580 S   0  0  0  0  0  0  0  0  0  0  0  0
   -5.7140   26.0720  -31.2160 O   0  0  0  0  0  0  0  0  0  0  0  0
   -5.7400   25.1410  -28.9620 O   0  0  0  0  0  0  0  0  0  0  0  0
   -3.4790   24.9640  -30.3260 N   0  0  0  0  0  0  0  0  0  0  0  0
   -2.9330   24.0970  -29.2780 C   0  0  0  0  0  0  0  0  0  0  0  0
   -2.2750   24.8920  -28.1790 C   0  0  0  0  0  0  0  0  0  0  0  0
   -2.7480   24.7990  -26.8590 C   0  0  0  0  0  0  0  0  0  0  0  0
   -2.1400   25.5390  -25.8380 C   0  0  0  0  0  0  0  0  0  0  0  0
   -1.0500   26.3680  -26.1270 C   0  0  0  0  0  0  0  0  0  0  0  0
   -0.5670   26.4570  -27.4360 C   0  0  0  0  0  0  0  0  0  0  0  0
   -1.1730   25.7200  -28.4580 C   0  0  0  0  0  0  0  0  0  0  0  0
   -4.9470   22.3750  -31.2930 C   0  0  0  0  0  0  0  0  0  0  0  0
   -5.4220   21.1760  -31.8330 C   0  0  0  0  0  0  0  0  0  0  0  0
   -2.7735   18.7109  -33.6409 H   0  0  0  0  0  0  0  0  0  0  0  0
   -4.2986   19.7957  -33.9979 H   0  0  0  0  0  0  0  0  0  0  0  0
   -4.1446   16.7161  -33.8101 H   0  0  0  0  0  0  0  0  0  0  0  0
   -6.2762   17.3526  -35.2354 H   0  0  0  0  0  0  0  0  0  0  0  0
   -6.6334   17.2416  -33.4748 H   0  0  0  0  0  0  0  0  0  0  0  0
   -7.1540   19.3390  -35.0500 H   0  0  0  0  0  0  0  0  0  0  0  0
   -8.7703   21.8780  -31.8680 H   0  0  0  0  0  0  0  0  0  0  0  0
   -7.9240   24.0165  -30.8988 H   0  0  0  0  0  0  0  0  0  0  0  0
   -3.7513   23.5022  -28.8460 H   0  0  0  0  0  0  0  0  0  0  0  0
   -2.1704   23.4486  -29.7341 H   0  0  0  0  0  0  0  0  0  0  0  0
   -3.5993   24.1422  -26.6271 H   0  0  0  0  0  0  0  0  0  0  0  0
   -2.5192   25.4689  -24.8078 H   0  0  0  0  0  0  0  0  0  0  0  0
   -0.5733   26.9496  -25.3242 H   0  0  0  0  0  0  0  0  0  0  0  0
    0.2907   27.1076  -27.6621 H   0  0  0  0  0  0  0  0  0  0  0  0
   -0.7859   25.7881  -29.4854 H   0  0  0  0  0  0  0  0  0  0  0  0
   -3.8688   22.5109  -31.1228 H   0  0  0  0  0  0  0  0  0  0  0  0
   -4.7167   20.3716  -32.0889 H   0  0  0  0  0  0  0  0  0  0  0  0
  1  2  2  0
  2  3  1  0
  3  4  1  0
  4  5  1  0
  5  6  2  0
  5  7  2  0
  5  8  1  0
  8  9  2  0
  9 10  1  0
 10 11  2  0
 11 12  1  0
 12 13  2  0
 12 14  2  0
 12 15  1  0
 15 16  1  0
 16 17  1  0
 17 18  2  0
 18 19  1  0
 19 20  2  0
 20 21  1  0
 21 22  2  0
 11 23  1  0
 23 24  2  0
 24  8  1  0
 22 17  1  0
  1 25  1  0
  1 26  1  0
  2 27  1  0
  3 28  1  0
  3 29  1  0
  4 30  1  0
  9 31  1  0
 10 32  1  0
 16 33  1  0
 16 34  1  0
 18 35  1  0
 19 36  1  0
 20 37  1  0
 21 38  1  0
 22 39  1  0
 23 40  1  0
 24 41  1  0
M  CHG  1  15  -1
M  END
>  <UniqueID>  (3) 
3

>  <SMILES>  (3) 
C=CCNS(=O)(=O)c1ccc(S(=O)(=O)[N-]Cc2ccccc2)cc1

>  <Energy>  (3) 
33.29254700275476

>  <Genealogy>  (3) 
C=CCNS(=O)(=O)c1ccc(S(=O)(=O)[N-]Cc2ccccc2)cc1 (protonated)
C=CCNS(=O)(=O)c1ccc(S(=O)(=O)[N-]Cc2ccccc2)cc1 (3D coordinates assigned)
C=CCNS(=O)(=O)c1ccc(S(=O)(=O)[N-]Cc2ccccc2)cc1 (optimized conformer: 33.29254700275476 kcal/mol)

>  <smiles>  (3) 
C=CCNS(=O)(=O)c1ccc(S(=O)(=O)NCc2ccccc2)cc1

>  <score_type>  (3) 
oracle

>  <origin>  (3) 
adgpu

>  <m_score__min__energy>  (3) 
-10.43

>  <m_primary>  (3) 
energy

$$$$
3:0
     RDKit          3D

 32 33  0  0  0  0  0  0  0  0999 V2000
   -4.6390   24.6200  -28.2820 O   0  0  0  0  0  0  0  0  0  0  0  0
   -3.7050   24.5170  -29.1240 C   0  0  0  0  0  0  0  0  0  0  0  0
   -3.9340   24.9070  -30.4830 N   0  0  0  0  0  0  0  0  0  0  0  0
   -5.2280   25.3480  -31.0000 C   0  0  0  0  0  0  0  0  0  0  0  0
   -6.3670   24.4960  -30.4280 C   0  0  0  0  0  0  0  0  0  0  0  0
   -6.6290   23.2690  -31.2620 C   0  0  0  0  0  0  0  0  0  0  0  0
   -5.5620   22.5630  -31.8420 C   0  0  0  0  0  0  0  0  0  0  0  0
   -5.8030   21.3960  -32.5720 C   0  0  0  0  0  0  0  0  0  0  0  0
   -7.1090   20.9200  -32.7310 C   0  0  0  0  0  0  0  0  0  0  0  0
   -7.3210   19.7520  -33.4640 O   0  0  0  0  0  0  0  0  0  0  0  0
   -8.1800   21.6200  -32.1520 C   0  0  0  0  0  0  0  0  0  0  0  0
   -9.4850   21.1610  -32.2960 O   0  0  0  0  0  0  0  0  0  0  0  0
   -7.9390   22.7880  -31.4190 C   0  0  0  0  0  0  0  0  0  0  0  0
   -2.3770   23.9910  -28.7140 C   0  0  0  0  0  0  0  0  0  0  0  0
   -2.2770   22.6920  -28.1760 C   0  0  0  0  0  0  0  0  0  0  0  0
   -1.0400   22.1790  -27.7790 C   0  0  0  0  0  0  0  0  0  0  0  0
    0.1150   22.9510  -27.9080 C   0  0  0  0  0  0  0  0  0  0  0  0
    1.3430   22.4360  -27.5120 O   0  0  0  0  0  0  0  0  0  0  0  0
    0.0340   24.2410  -28.4350 C   0  0  0  0  0  0  0  0  0  0  0  0
   -1.1990   24.7670  -28.8360 C   0  0  0  0  0  0  0  0  0  0  0  0
   -1.2370   26.0610  -29.3440 O   0  0  0  0  0  0  0  0  0  0  0  0
   -5.3886   26.3992  -30.7185 H   0  0  0  0  0  0  0  0  0  0  0  0
   -5.2240   25.2387  -32.0945 H   0  0  0  0  0  0  0  0  0  0  0  0
   -6.0978   24.1816  -29.4088 H   0  0  0  0  0  0  0  0  0  0  0  0
   -7.2812   25.1077  -30.4278 H   0  0  0  0  0  0  0  0  0  0  0  0
   -4.5322   22.9304  -31.7210 H   0  0  0  0  0  0  0  0  0  0  0  0
   -4.9621   20.8492  -33.0236 H   0  0  0  0  0  0  0  0  0  0  0  0
   -8.2370   19.4970  -33.8130 H   0  0  0  0  0  0  0  0  0  0  0  0
   -8.7799   23.3317  -30.9637 H   0  0  0  0  0  0  0  0  0  0  0  0
   -3.1820   22.0762  -28.0677 H   0  0  0  0  0  0  0  0  0  0  0  0
   -0.9762   21.1626  -27.3631 H   0  0  0  0  0  0  0  0  0  0  0  0
    0.9457   24.8482  -28.5357 H   0  0  0  0  0  0  0  0  0  0  0  0
  1  2  2  0
  2  3  1  0
  3  4  1  0
  4  5  1  0
  5  6  1  0
  6  7  2  0
  7  8  1  0
  8  9  2  0
  9 10  1  0
  9 11  1  0
 11 12  1  0
 11 13  2  0
  2 14  1  0
 14 15  2  0
 15 16  1  0
 16 17  2  0
 17 18  1  0
 17 19  1  0
 19 20  2  0
 20 21  1  0
 13  6  1  0
 20 14  1  0
  4 22  1  0
  4 23  1  0
  5 24  1  0
  5 25  1  0
  7 26  1  0
  8 27  1  0
 10 28  1  0
 13 29  1  0
 15 30  1  0
 16 31  1  0
 19 32  1  0
M  CHG  4   3  -1  12  -1  18  -1  21  -1
M  END
>  <UniqueID>  (4) 
4

>  <SMILES>  (4) 
O=C([N-]CCc1ccc(O)c([O-])c1)c1ccc([O-])cc1[O-]

>  <Energy>  (4) 
31.094574192657237

>  <Genealogy>  (4) 
O=C([N-]CCc1ccc(O)c([O-])c1)c1ccc([O-])cc1[O-] (protonated)
O=C([N-]CCc1ccc(O)c([O-])c1)c1ccc([O-])cc1[O-] (3D coordinates assigned)
O=C([N-]CCc1ccc(O)c([O-])c1)c1ccc([O-])cc1[O-] (optimized conformer: 31.094574192657237 kcal/mol)

>  <smiles>  (4) 
O=C(NCCc1ccc(O)c(O)c1)c1ccc(O)cc1O

>  <score_type>  (4) 
oracle

>  <origin>  (4) 
adgpu

>  <m_score__min__energy>  (4) 
-10.880000000000001

>  <m_primary>  (4) 
energy

$$$$
4:0
     RDKit          3D

 53 56  0  0  0  0  0  0  0  0999 V2000
    2.3780   16.7830  -29.1370 C   0  0  0  0  0  0  0  0  0  0  0  0
    1.2610   17.6250  -28.6170 C   0  0  0  0  0  0  0  0  0  0  0  0
    0.3050   17.2250  -27.7030 C   0  0  0  0  0  0  0  0  0  0  0  0
   -0.4850   18.3460  -27.5290 C   0  0  0  0  0  0  0  0  0  0  0  0
   -1.7260   18.3940  -26.6930 C   0  0  0  0  0  0  0  0  0  0  0  0
    0.0160   19.3550  -28.2830 N   0  0  0  0  0  0  0  0  0  0  0  0
   -0.4820   20.6980  -28.4220 C   0  0  0  0  0  0  0  0  0  0  0  0
   -0.7950   21.4430  -27.2710 C   0  0  0  0  0  0  0  0  0  0  0  0
   -1.3380   22.7250  -27.3800 C   0  0  0  0  0  0  0  0  0  0  0  0
   -1.5790   23.2820  -28.6400 C   0  0  0  0  0  0  0  0  0  0  0  0
   -2.2970   24.8830  -28.7780 S   0  0  0  0  0  0  0  0  0  0  0  0
   -3.0350   25.1970  -27.5090 O   0  0  0  0  0  0  0  0  0  0  0  0
   -1.2280   25.9190  -28.9840 O   0  0  0  0  0  0  0  0  0  0  0  0
   -3.4040   24.9550  -30.1100 N   0  0  0  0  0  0  0  0  0  0  0  0
   -4.3450   23.9260  -30.4460 C   0  0  0  0  0  0  0  0  0  0  0  0
   -4.0540   22.9370  -31.4050 C   0  0  0  0  0  0  0  0  0  0  0  0
   -5.0120   21.9680  -31.7250 C   0  0  0  0  0  0  0  0  0  0  0  0
   -6.2710   21.9850  -31.1090 C   0  0  0  0  0  0  0  0  0  0  0  0
   -7.4970   20.8240  -31.6030 S   0  0  0  0  0  0  0  0  0  0  0  0
   -8.7210   21.0430  -30.7610 O   0  0  0  0  0  0  0  0  0  0  0  0
   -7.8280   21.0340  -33.0550 O   0  0  0  0  0  0  0  0  0  0  0  0
   -6.9160   19.2030  -31.3840 N   0  0  0  0  0  0  0  0  0  0  0  0
   -6.6560   18.3890  -32.3630 C   0  0  0  0  0  0  0  0  0  0  0  0
   -6.2040   17.0970  -32.2100 C   0  0  0  0  0  0  0  0  0  0  0  0
   -6.0910   16.6510  -33.5160 C   0  0  0  0  0  0  0  0  0  0  0  0
   -5.6200   15.3040  -33.9460 C   0  0  0  0  0  0  0  0  0  0  0  0
   -6.4420   17.6160  -34.3390 O   0  0  0  0  0  0  0  0  0  0  0  0
   -6.7880   18.6760  -33.6740 N   0  0  0  0  0  0  0  0  0  0  0  0
   -6.5590   22.9630  -30.1480 C   0  0  0  0  0  0  0  0  0  0  0  0
   -5.5920   23.9170  -29.8090 C   0  0  0  0  0  0  0  0  0  0  0  0
   -1.2800   22.5420  -29.7930 C   0  0  0  0  0  0  0  0  0  0  0  0
   -0.7430   21.2540  -29.6850 C   0  0  0  0  0  0  0  0  0  0  0  0
    1.0710   18.9150  -28.9560 N   0  0  0  0  0  0  0  0  0  0  0  0
    2.9410   16.3586  -28.2927 H   0  0  0  0  0  0  0  0  0  0  0  0
    1.9675   15.9677  -29.7508 H   0  0  0  0  0  0  0  0  0  0  0  0
    3.0488   17.4021  -29.7508 H   0  0  0  0  0  0  0  0  0  0  0  0
    0.1973   16.2407  -27.2239 H   0  0  0  0  0  0  0  0  0  0  0  0
   -1.4512   18.3834  -25.6279 H   0  0  0  0  0  0  0  0  0  0  0  0
   -2.2846   19.3144  -26.9184 H   0  0  0  0  0  0  0  0  0  0  0  0
   -2.3540   17.5195  -26.9184 H   0  0  0  0  0  0  0  0  0  0  0  0
   -0.6105   21.0120  -26.2759 H   0  0  0  0  0  0  0  0  0  0  0  0
   -1.5769   23.2984  -26.4722 H   0  0  0  0  0  0  0  0  0  0  0  0
   -3.0732   22.9259  -31.9030 H   0  0  0  0  0  0  0  0  0  0  0  0
   -4.7755   21.1885  -32.4643 H   0  0  0  0  0  0  0  0  0  0  0  0
   -5.9863   16.5531  -31.2790 H   0  0  0  0  0  0  0  0  0  0  0  0
   -5.4054   14.6902  -33.0588 H   0  0  0  0  0  0  0  0  0  0  0  0
   -6.4013   14.8174  -34.5483 H   0  0  0  0  0  0  0  0  0  0  0  0
   -4.7057   15.4103  -34.5483 H   0  0  0  0  0  0  0  0  0  0  0  0
   -7.0990   19.5710  -34.1130 H   0  0  0  0  0  0  0  0  0  0  0  0
   -7.5446   22.9813  -29.6600 H   0  0  0  0  0  0  0  0  0  0  0  0
   -5.8139   24.6665  -29.0350 H   0  0  0  0  0  0  0  0  0  0  0  0
   -1.4682   22.9755  -30.7863 H   0  0  0  0  0  0  0  0  0  0  0  0
   -0.5243   20.6743  -30.5939 H   0  0  0  0  0  0  0  0  0  0  0  0
  1  2  1  0
  2  3  1  0
  3  4  2  0
  4  5  1  0
  4  6  1  0
  6  7  1  0
  7  8  2  0
  8  9  1  0
  9 10  2  0
 10 11  1  0
 11 12  2  0
 11 13  2  0
 11 14  1  0
 14 15  1  0
 15 16  2  0
 16 17  1  0
 17 18  2  0
 18 19  1  0
 19 20  2  0
 19 21  2  0
 19 22  1  0
 22 23  2  3
 23 24  1  0
 24 25  2  0
 25 26  1  0
 25 27  1  0
 27 28  1  0
 18 29  1  0
 29 30  2  0
 10 31  1  0
 31 32  2  0
  6 33  1  0
 33  2  2  0
 32  7  1  0
 30 15  1  0
 28 23  1  0
  1 34  1  0
  1 35  1  0
  1 36  1  0
  3 37  1  0
  5 38  1  0
  5 39  1  0
  5 40  1  0
  8 41  1  0
  9 42  1  0
 16 43  1  0
 17 44  1  0
 24 45  1  0
 26 46  1  0
 26 47  1  0
 26 48  1  0
 28 49  1  0
 29 50  1  0
 30 51  1  0
 31 52  1  0
 32 53  1  0
M  CHG  1  14  -1
M  END
>  <UniqueID>  (5) 
5

>  <SMILES>  (5) 
Cc1cc(C)n(-c2ccc(S(=O)(=O)[N-]c3ccc(S(=O)(=O)N=c4cc(C)o[nH]4)cc3)cc2)n1

>  <Energy>  (5) 
128.6005822103379

>  <Genealogy>  (5) 
Cc1cc(C)n(-c2ccc(S(=O)(=O)[N-]c3ccc(S(=O)(=O)N=c4cc(C)o[nH]4)cc3)cc2)n1 (protonated)
Cc1cc(C)n(-c2ccc(S(=O)(=O)[N-]c3ccc(S(=O)(=O)N=c4cc(C)o[nH]4)cc3)cc2)n1 (3D coordinates assigned)
Cc1cc(C)n(-c2ccc(S(=O)(=O)[N-]c3ccc(S(=O)(=O)N=c4cc(C)o[nH]4)cc3)cc2)n1 (optimized conformer: 128.6005822103379 kcal/mol)

>  <smiles>  (5) 
Cc1cc(C)n(-c2ccc(S(=O)(=O)Nc3ccc(S(=O)(=O)N=c4cc(C)o[nH]4)cc3)cc2)n1

>  <score_type>  (5) 
oracle

>  <origin>  (5) 
adgpu

>  <m_score__min__energy>  (5) 
-11.44

>  <m_primary>  (5) 
energy

$$$$
5:0
     RDKit          3D

 48 51  0  0  0  0  0  0  0  0999 V2000
   -6.6650   23.0970  -30.1210 C   0  0  0  0  0  0  0  0  0  0  0  0
   -5.6260   22.3670  -30.9240 C   0  0  0  0  0  0  0  0  0  0  0  0
   -4.2690   22.6500  -30.9560 C   0  0  0  0  0  0  0  0  0  0  0  0
   -3.5780   23.8070  -30.3650 C   0  0  0  0  0  0  0  0  0  0  0  0
   -3.8500   24.9650  -30.7870 O   0  0  0  0  0  0  0  0  0  0  0  0
   -2.5680   23.6220  -29.3650 N   0  0  0  0  0  0  0  0  0  0  0  0
   -1.6600   24.6980  -28.9740 C   0  0  0  0  0  0  0  0  0  0  0  0
   -1.3150   24.5750  -27.5140 C   0  0  0  0  0  0  0  0  0  0  0  0
   -0.7560   23.3890  -27.0080 C   0  0  0  0  0  0  0  0  0  0  0  0
   -0.4970   23.2600  -25.6400 C   0  0  0  0  0  0  0  0  0  0  0  0
   -0.7980   24.3100  -24.7690 C   0  0  0  0  0  0  0  0  0  0  0  0
   -1.3570   25.4900  -25.2630 C   0  0  0  0  0  0  0  0  0  0  0  0
   -1.6170   25.6230  -26.6310 C   0  0  0  0  0  0  0  0  0  0  0  0
   -3.7130   21.6400  -31.7330 C   0  0  0  0  0  0  0  0  0  0  0  0
   -2.2840   21.4310  -32.0550 C   0  0  0  0  0  0  0  0  0  0  0  0
   -1.3500   21.0890  -31.0620 C   0  0  0  0  0  0  0  0  0  0  0  0
   -0.0110   20.8850  -31.4010 C   0  0  0  0  0  0  0  0  0  0  0  0
    0.3840   21.0110  -32.7330 C   0  0  0  0  0  0  0  0  0  0  0  0
   -0.5330   21.3210  -33.6890 N   0  0  0  0  0  0  0  0  0  0  0  0
   -1.8430   21.5240  -33.3830 C   0  0  0  0  0  0  0  0  0  0  0  0
   -4.6870   20.7970  -32.1290 N   0  0  0  0  0  0  0  0  0  0  0  0
   -5.8360   21.2370  -31.6400 N   0  0  0  0  0  0  0  0  0  0  0  0
   -7.0780   20.5530  -31.8510 C   0  0  0  0  0  0  0  0  0  0  0  0
   -7.1050   19.1510  -31.8810 C   0  0  0  0  0  0  0  0  0  0  0  0
   -8.3070   18.4750  -32.1150 C   0  0  0  0  0  0  0  0  0  0  0  0
   -9.4840   19.1960  -32.3380 C   0  0  0  0  0  0  0  0  0  0  0  0
   -9.4590   20.5940  -32.3320 C   0  0  0  0  0  0  0  0  0  0  0  0
   -8.2580   21.2720  -32.0980 C   0  0  0  0  0  0  0  0  0  0  0  0
   -6.4650   22.9565  -29.0485 H   0  0  0  0  0  0  0  0  0  0  0  0
   -6.6290   24.1694  -30.3633 H   0  0  0  0  0  0  0  0  0  0  0  0
   -7.6617   22.6996  -30.3633 H   0  0  0  0  0  0  0  0  0  0  0  0
   -2.3770   22.6610  -29.0020 H   0  0  0  0  0  0  0  0  0  0  0  0
   -0.7394   24.6334  -29.5726 H   0  0  0  0  0  0  0  0  0  0  0  0
   -2.1513   25.6666  -29.1487 H   0  0  0  0  0  0  0  0  0  0  0  0
   -0.5213   22.5591  -27.6907 H   0  0  0  0  0  0  0  0  0  0  0  0
   -0.0559   22.3311  -25.2493 H   0  0  0  0  0  0  0  0  0  0  0  0
   -0.5943   24.2069  -23.6929 H   0  0  0  0  0  0  0  0  0  0  0  0
   -1.5932   26.3159  -24.5759 H   0  0  0  0  0  0  0  0  0  0  0  0
   -2.0601   26.5532  -27.0163 H   0  0  0  0  0  0  0  0  0  0  0  0
   -1.6743   20.9819  -30.0164 H   0  0  0  0  0  0  0  0  0  0  0  0
    0.7252   20.6274  -30.6254 H   0  0  0  0  0  0  0  0  0  0  0  0
    1.4376   20.8596  -33.0105 H   0  0  0  0  0  0  0  0  0  0  0  0
   -2.5605   21.7625  -34.1819 H   0  0  0  0  0  0  0  0  0  0  0  0
   -6.1779   18.5812  -31.7200 H   0  0  0  0  0  0  0  0  0  0  0  0
   -8.3263   17.3752  -32.1236 H   0  0  0  0  0  0  0  0  0  0  0  0
  -10.4295   18.6635  -32.5181 H   0  0  0  0  0  0  0  0  0  0  0  0
  -10.3843   21.1610  -32.5114 H   0  0  0  0  0  0  0  0  0  0  0  0
   -8.2382   22.3718  -32.1076 H   0  0  0  0  0  0  0  0  0  0  0  0
  1  2  1  0
  2  3  2  0
  3  4  1  0
  4  5  2  0
  4  6  1  0
  6  7  1  0
  7  8  1  0
  8  9  2  0
  9 10  1  0
 10 11  2  0
 11 12  1  0
 12 13  2  0
  3 14  1  0
 14 15  1  0
 15 16  2  0
 16 17  1  0
 17 18  2  0
 18 19  1  0
 19 20  2  0
 14 21  2  0
 21 22  1  0
 22 23  1  0
 23 24  2  0
 24 25  1  0
 25 26  2  0
 26 27  1  0
 27 28  2  0
 22  2  1  0
 28 23  1  0
 13  8  1  0
 20 15  1  0
  1 29  1  0
  1 30  1  0
  1 31  1  0
  6 32  1  0
  7 33  1  0
  7 34  1  0
  9 35  1  0
 10 36  1  0
 11 37  1  0
 12 38  1  0
 13 39  1  0
 16 40  1  0
 17 41  1  0
 18 42  1  0
 20 43  1  0
 24 44  1  0
 25 45  1  0
 26 46  1  0
 27 47  1  0
 28 48  1  0
M  END
>  <UniqueID>  (6) 
6

>  <SMILES>  (6) 
Cc1c(C(=O)NCc2ccccc2)c(-c2cccnc2)nn1-c1ccccc1

>  <Energy>  (6) 
93.47781192691491

>  <Genealogy>  (6) 
Cc1c(C(=O)NCc2ccccc2)c(-c2cccnc2)nn1-c1ccccc1 (3D coordinates assigned)
Cc1c(C(=O)NCc2ccccc2)c(-c2cccnc2)nn1-c1ccccc1 (optimized conformer: 93.47781192691491 kcal/mol)

>  <smiles>  (6) 
Cc1c(C(=O)NCc2ccccc2)c(-c2cccnc2)nn1-c1ccccc1

>  <score_type>  (6) 
oracle

>  <origin>  (6) 
adgpu

>  <m_score__min__energy>  (6) 
-9.0600000000000005

>  <m_primary>  (6) 
energy

$$$$
6:0
     RDKit          3D

 62 66  0  0  0  0  0  0  0  0999 V2000
   -5.7060   26.0490  -30.2970 C   0  0  0  0  0  0  0  0  0  0  0  0
   -6.1840   24.6780  -30.6720 C   0  0  0  0  0  0  0  0  0  0  0  0
   -6.9850   23.9490  -29.7810 C   0  0  0  0  0  0  0  0  0  0  0  0
   -7.4560   22.6800  -30.1310 C   0  0  0  0  0  0  0  0  0  0  0  0
   -7.1480   22.1230  -31.3870 C   0  0  0  0  0  0  0  0  0  0  0  0
   -7.6380   20.7640  -31.7300 C   0  0  0  0  0  0  0  0  0  0  0  0
   -9.0070   20.4570  -31.7620 C   0  0  0  0  0  0  0  0  0  0  0  0
   -9.3940   19.1620  -32.1050 C   0  0  0  0  0  0  0  0  0  0  0  0
   -8.4540   18.2260  -32.3930 N   0  0  0  0  0  0  0  0  0  0  0  0
   -7.1280   18.5230  -32.3490 C   0  0  0  0  0  0  0  0  0  0  0  0
   -6.1340   17.5320  -32.6590 N   0  0  0  0  0  0  0  0  0  0  0  0
   -5.7470   16.6190  -31.7780 N   0  0  0  0  0  0  0  0  0  0  0  0
   -4.7900   15.8630  -32.3460 C   0  0  0  0  0  0  0  0  0  0  0  0
   -4.5490   16.3210  -33.6250 C   0  0  0  0  0  0  0  0  0  0  0  0
   -3.5130   15.8190  -34.5380 C   0  0  0  0  0  0  0  0  0  0  0  0
   -3.8050   14.8890  -35.3360 O   0  0  0  0  0  0  0  0  0  0  0  0
   -2.1660   16.3080  -34.5040 N   0  0  0  0  0  0  0  0  0  0  0  0
   -1.7290   17.6530  -34.8810 C   0  0  0  0  0  0  0  0  0  0  0  0
   -1.9110   18.6240  -33.7420 C   0  0  0  0  0  0  0  0  0  0  0  0
   -1.0750   18.5620  -32.6140 C   0  0  0  0  0  0  0  0  0  0  0  0
   -1.1850   19.5170  -31.6010 C   0  0  0  0  0  0  0  0  0  0  0  0
   -2.1400   20.5410  -31.6910 C   0  0  0  0  0  0  0  0  0  0  0  0
   -2.2250   21.5420  -30.6600 N   0  0  0  0  0  0  0  0  0  0  0  0
   -3.4490   21.6630  -29.8570 C   0  0  0  0  0  0  0  0  0  0  0  0
   -3.7020   23.1240  -29.4160 C   0  0  0  0  0  0  0  0  0  0  0  0
   -2.6510   24.0130  -29.7540 O   0  0  0  0  0  0  0  0  0  0  0  0
   -1.4130   23.4660  -29.3590 C   0  0  0  0  0  0  0  0  0  0  0  0
   -1.0370   22.3290  -30.3090 C   0  0  0  0  0  0  0  0  0  0  0  0
   -3.0050   20.5780  -32.7970 C   0  0  0  0  0  0  0  0  0  0  0  0
   -2.8910   19.6260  -33.8150 C   0  0  0  0  0  0  0  0  0  0  0  0
   -5.4260   17.3760  -33.8060 C   0  0  0  0  0  0  0  0  0  0  0  0
   -5.5950   18.1820  -35.0610 C   0  0  0  0  0  0  0  0  0  0  0  0
   -6.7380   19.7830  -32.0150 N   0  0  0  0  0  0  0  0  0  0  0  0
   -6.3490   22.8640  -32.2800 C   0  0  0  0  0  0  0  0  0  0  0  0
   -5.8780   24.1330  -31.9280 C   0  0  0  0  0  0  0  0  0  0  0  0
   -5.6745   26.1393  -29.2012 H   0  0  0  0  0  0  0  0  0  0  0  0
   -4.6984   26.2110  -30.7074 H   0  0  0  0  0  0  0  0  0  0  0  0
   -6.3945   26.8024  -30.7074 H   0  0  0  0  0  0  0  0  0  0  0  0
   -7.2440   24.3779  -28.8017 H   0  0  0  0  0  0  0  0  0  0  0  0
   -8.0726   22.1118  -29.4190 H   0  0  0  0  0  0  0  0  0  0  0  0
   -9.7595   21.2224  -31.5214 H   0  0  0  0  0  0  0  0  0  0  0  0
  -10.4614   18.8988  -32.1422 H   0  0  0  0  0  0  0  0  0  0  0  0
   -4.2804   15.0142  -31.8666 H   0  0  0  0  0  0  0  0  0  0  0  0
   -0.6650   17.6202  -35.1581 H   0  0  0  0  0  0  0  0  0  0  0  0
   -2.3403   17.9930  -35.7300 H   0  0  0  0  0  0  0  0  0  0  0  0
   -0.3302   17.7571  -32.5286 H   0  0  0  0  0  0  0  0  0  0  0  0
   -0.5188   19.4661  -30.7271 H   0  0  0  0  0  0  0  0  0  0  0  0
   -4.3043   21.3185  -30.4568 H   0  0  0  0  0  0  0  0  0  0  0  0
   -3.3282   21.0480  -28.9530 H   0  0  0  0  0  0  0  0  0  0  0  0
   -4.6245   23.4776  -29.8996 H   0  0  0  0  0  0  0  0  0  0  0  0
   -3.7776   23.1192  -28.3186 H   0  0  0  0  0  0  0  0  0  0  0  0
   -0.6384   24.2462  -29.3949 H   0  0  0  0  0  0  0  0  0  0  0  0
   -1.4922   23.0778  -28.3328 H   0  0  0  0  0  0  0  0  0  0  0  0
   -0.5987   22.7519  -31.2250 H   0  0  0  0  0  0  0  0  0  0  0  0
   -0.3088   21.6728  -29.8098 H   0  0  0  0  0  0  0  0  0  0  0  0
   -3.7760   21.3598  -32.8628 H   0  0  0  0  0  0  0  0  0  0  0  0
   -3.5729   19.6627  -34.6774 H   0  0  0  0  0  0  0  0  0  0  0  0
   -5.8142   19.2275  -34.7986 H   0  0  0  0  0  0  0  0  0  0  0  0
   -4.6683   18.1389  -35.6520 H   0  0  0  0  0  0  0  0  0  0  0  0
   -6.4263   17.7703  -35.6520 H   0  0  0  0  0  0  0  0  0  0  0  0
   -6.0934   22.4408  -33.2626 H   0  0  0  0  0  0  0  0  0  0  0  0
   -5.2650   24.7062  -32.6390 H   0  0  0  0  0  0  0  0  0  0  0  0
  1  2  1  0
  2  3  2  0
  3  4  1  0
  4  5  2  0
  5  6  1  0
  6  7  2  0
  7  8  1  0
  8  9  2  0
  9 10  1  0
 10 11  1  0
 11 12  1  0
 12 13  2  0
 13 14  1  0
 14 15  1  0
 15 16  2  0
 15 17  1  0
 17 18  1  0
 18 19  1  0
 19 20  2  0
 20 21  1  0
 21 22  2  0
 22 23  1  0
 23 24  1  0
 24 25  1  0
 25 26  1  0
 26 27  1  0
 27 28  1  0
 22 29  1  0
 29 30  2  0
 14 31  2  0
 31 32  1  0
 10 33  2  0
  5 34  1  0
 34 35  2  0
 35  2  1  0
 33  6  1  0
 31 11  1  0
 30 19  1  0
 28 23  1  0
  1 36  1  0
  1 37  1  0
  1 38  1  0
  3 39  1  0
  4 40  1  0
  7 41  1  0
  8 42  1  0
 13 43  1  0
 18 44  1  0
 18 45  1  0
 20 46  1  0
 21 47  1  0
 24 48  1  0
 24 49  1  0
 25 50  1  0
 25 51  1  0
 27 52  1  0
 27 53  1  0
 28 54  1  0
 28 55  1  0
 29 56  1  0
 30 57  1  0
 32 58  1  0
 32 59  1  0
 32 60  1  0
 34 61  1  0
 35 62  1  0
M  CHG  1  17  -1
M  END
>  <UniqueID>  (7) 
7

>  <SMILES>  (7) 
Cc1ccc(-c2ccnc(-n3ncc(C(=O)[N-]Cc4ccc(N5CCOCC5)cc4)c3C)n2)cc1

>  <Energy>  (7) 
115.40058737456903

>  <Genealogy>  (7) 
Cc1ccc(-c2ccnc(-n3ncc(C(=O)[N-]Cc4ccc(N5CCOCC5)cc4)c3C)n2)cc1 (protonated)
Cc1ccc(-c2ccnc(-n3ncc(C(=O)[N-]Cc4ccc(N5CCOCC5)cc4)c3C)n2)cc1 (3D coordinates assigned)
Cc1ccc(-c2ccnc(-n3ncc(C(=O)[N-]Cc4ccc(N5CCOCC5)cc4)c3C)n2)cc1 (nonaromatic ring conformer: 115.40058737456903 kcal/mol)

>  <smiles>  (7) 
Cc1ccc(-c2ccnc(-n3ncc(C(=O)NCc4ccc(N5CCOCC5)cc4)c3C)n2)cc1

>  <score_type>  (7) 
oracle

>  <origin>  (7) 
adgpu

>  <m_score__min__energy>  (7) 
-12.35

>  <m_primary>  (7) 
energy

$$$$
7:0
     RDKit          3D

 41 43  0  0  0  0  0  0  0  0999 V2000
   -3.4110   20.2010  -33.0530 C   0  0  0  0  0  0  0  0  0  0  0  0
   -4.2370   18.9860  -32.9530 N   0  0  0  0  0  0  0  0  0  0  0  0
   -5.1060   18.8280  -34.1530 C   0  0  0  0  0  0  0  0  0  0  0  0
   -6.5430   19.2940  -33.8890 C   0  0  0  0  0  0  0  0  0  0  0  0
   -7.1710   18.4970  -32.8160 N   0  0  0  0  0  0  0  0  0  0  0  0
   -8.5560   19.3410  -32.1620 S   0  0  0  0  0  0  0  0  0  0  0  0
   -8.9290   18.7350  -30.8370 O   0  0  0  0  0  0  0  0  0  0  0  0
   -9.7270   19.1770  -33.0930 O   0  0  0  0  0  0  0  0  0  0  0  0
   -8.2240   21.0610  -31.9420 C   0  0  0  0  0  0  0  0  0  0  0  0
   -9.2460   22.0060  -32.1100 C   0  0  0  0  0  0  0  0  0  0  0  0
   -8.9770   23.3670  -31.9580 C   0  0  0  0  0  0  0  0  0  0  0  0
   -7.6840   23.7960  -31.6450 C   0  0  0  0  0  0  0  0  0  0  0  0
   -6.6480   22.8630  -31.4880 C   0  0  0  0  0  0  0  0  0  0  0  0
   -5.2820   23.3000  -31.1380 C   0  0  0  0  0  0  0  0  0  0  0  0
   -4.1770   22.8890  -31.8000 N   0  0  0  0  0  0  0  0  0  0  0  0
   -3.1290   23.4640  -31.2230 N   0  0  0  0  0  0  0  0  0  0  0  0
   -3.6140   24.2200  -30.2220 C   0  0  0  0  0  0  0  0  0  0  0  0
   -2.8970   24.9380  -29.4750 O   0  0  0  0  0  0  0  0  0  0  0  0
   -4.9500   24.1380  -30.1360 N   0  0  0  0  0  0  0  0  0  0  0  0
   -5.7920   24.9140  -29.3230 N   0  0  0  0  0  0  0  0  0  0  0  0
   -6.9310   21.4930  -31.6140 C   0  0  0  0  0  0  0  0  0  0  0  0
   -6.2310   18.0810  -31.7480 C   0  0  0  0  0  0  0  0  0  0  0  0
   -4.9920   18.9880  -31.6740 C   0  0  0  0  0  0  0  0  0  0  0  0
   -3.1657   20.5618  -32.0432 H   0  0  0  0  0  0  0  0  0  0  0  0
   -2.4824   19.9695  -33.5953 H   0  0  0  0  0  0  0  0  0  0  0  0
   -3.9679   20.9794  -33.5953 H   0  0  0  0  0  0  0  0  0  0  0  0
   -3.5780   18.1700  -32.9300 H   0  0  0  0  0  0  0  0  0  0  0  0
   -4.6854   19.4237  -34.9766 H   0  0  0  0  0  0  0  0  0  0  0  0
   -5.1380   17.7589  -34.4101 H   0  0  0  0  0  0  0  0  0  0  0  0
   -6.5283   20.3522  -33.5890 H   0  0  0  0  0  0  0  0  0  0  0  0
   -7.1284   19.1620  -34.8109 H   0  0  0  0  0  0  0  0  0  0  0  0
  -10.2637   21.6735  -32.3626 H   0  0  0  0  0  0  0  0  0  0  0  0
   -9.7841   24.1036  -32.0848 H   0  0  0  0  0  0  0  0  0  0  0  0
   -7.4779   24.8694  -31.5213 H   0  0  0  0  0  0  0  0  0  0  0  0
   -6.7010   24.5390  -28.9750 H   0  0  0  0  0  0  0  0  0  0  0  0
   -5.5600   25.9130  -29.1260 H   0  0  0  0  0  0  0  0  0  0  0  0
   -6.1324   20.7536  -31.4542 H   0  0  0  0  0  0  0  0  0  0  0  0
   -6.7549   18.1186  -30.7815 H   0  0  0  0  0  0  0  0  0  0  0  0
   -5.8881   17.0620  -31.9803 H   0  0  0  0  0  0  0  0  0  0  0  0
   -5.3145   20.0158  -31.4513 H   0  0  0  0  0  0  0  0  0  0  0  0
   -4.3308   18.6042  -30.8831 H   0  0  0  0  0  0  0  0  0  0  0  0
  1  2  1  0
  2  3  1  0
  3  4  1  0
  4  5  1  0
  5  6  1  0
  6  7  2  0
  6  8  2  0
  6  9  1  0
  9 10  2  0
 10 11  1  0
 11 12  2  0
 12 13  1  0
 13 14  1  0
 14 15  2  0
 15 16  1  0
 16 17  1  0
 17 18  2  0
 17 19  1  0
 19 20  1  0
 13 21  2  0
  5 22  1  0
 22 23  1  0
 23  2  1  0
 21  9  1  0
 19 14  1  0
  1 24  1  0
  1 25  1  0
  1 26  1  0
  2 27  1  0
  3 28  1  0
  3 29  1  0
  4 30  1  0
  4 31  1  0
 10 32  1  0
 11 33  1  0
 12 34  1  0
 20 35  1  0
 20 36  1  0
 21 37  1  0
 22 38  1  0
 22 39  1  0
 23 40  1  0
 23 41  1  0
M  CHG  2   2   1  16  -1
M  END
>  <UniqueID>  (8) 
8

>  <SMILES>  (8) 
C[NH+]1CCN(S(=O)(=O)c2cccc(-c3n[n-]c(=O)n3N)c2)CC1

>  <Energy>  (8) 
93.27648156037249

>  <Genealogy>  (8) 
C[NH+]1CCN(S(=O)(=O)c2cccc(-c3n[n-]c(=O)n3N)c2)CC1 (protonated)
C[NH+]1CCN(S(=O)(=O)c2cccc(-c3n[n-]c(=O)n3N)c2)CC1 (3D coordinates assigned)
C[NH+]1CCN(S(=O)(=O)c2cccc(-c3n[n-]c(=O)n3N)c2)CC1 (nonaromatic ring conformer: 93.27648156037249 kcal/mol)

>  <smiles>  (8) 
CN1CCN(S(=O)(=O)c2cccc(-c3n[nH]c(=O)n3N)c2)CC1

>  <score_type>  (8) 
oracle

>  <origin>  (8) 
adgpu

>  <m_score__min__energy>  (8) 
-9.0600000000000005

>  <m_primary>  (8) 
energy

$$$$
8:0
     RDKit          3D

 35 36  0  0  0  0  0  0  0  0999 V2000
   -9.0930   19.1840  -32.3450 C   0  0  0  0  0  0  0  0  0  0  0  0
   -8.4610   20.2260  -33.0820 O   0  0  0  0  0  0  0  0  0  0  0  0
   -7.2820   20.8780  -32.6870 C   0  0  0  0  0  0  0  0  0  0  0  0
   -7.3010   21.9980  -31.8330 C   0  0  0  0  0  0  0  0  0  0  0  0
   -6.1090   22.6270  -31.4660 C   0  0  0  0  0  0  0  0  0  0  0  0
   -4.8840   22.1600  -31.9490 C   0  0  0  0  0  0  0  0  0  0  0  0
   -3.6810   22.8250  -31.5390 N   0  0  0  0  0  0  0  0  0  0  0  0
   -2.8080   22.4330  -30.4700 C   0  0  0  0  0  0  0  0  0  0  0  0
   -2.7480   21.2150  -30.1560 O   0  0  0  0  0  0  0  0  0  0  0  0
   -2.0140   23.4200  -29.6970 C   0  0  0  0  0  0  0  0  0  0  0  0
   -2.3690   24.7810  -29.6660 C   0  0  0  0  0  0  0  0  0  0  0  0
   -3.5010   25.2360  -30.3380 O   0  0  0  0  0  0  0  0  0  0  0  0
   -1.6140   25.6630  -28.9600 N   0  0  0  0  0  0  0  0  0  0  0  0
   -0.5210   25.2550  -28.2680 C   0  0  0  0  0  0  0  0  0  0  0  0
    0.1630   26.0920  -27.6220 O   0  0  0  0  0  0  0  0  0  0  0  0
   -0.1660   23.9460  -28.2670 N   0  0  0  0  0  0  0  0  0  0  0  0
   -0.8830   23.0240  -28.9600 C   0  0  0  0  0  0  0  0  0  0  0  0
   -0.5120   21.8200  -28.9440 O   0  0  0  0  0  0  0  0  0  0  0  0
   -4.8580   21.0250  -32.7760 C   0  0  0  0  0  0  0  0  0  0  0  0
   -6.0520   20.3890  -33.1600 C   0  0  0  0  0  0  0  0  0  0  0  0
   -6.0570   19.2440  -34.0250 N   0  0  0  0  0  0  0  0  0  0  0  0
   -5.8440   17.5940  -33.5320 S   0  0  0  0  0  0  0  0  0  0  0  0
   -6.1090   17.4340  -31.7800 C   0  0  0  0  0  0  0  0  0  0  0  0
   -6.8500   16.7430  -34.2530 O   0  0  0  0  0  0  0  0  0  0  0  0
   -4.4650   17.1220  -33.8980 O   0  0  0  0  0  0  0  0  0  0  0  0
   -8.9774   19.3746  -31.2678 H   0  0  0  0  0  0  0  0  0  0  0  0
  -10.1628   19.1521  -32.5990 H   0  0  0  0  0  0  0  0  0  0  0  0
   -8.6269   18.2205  -32.5990 H   0  0  0  0  0  0  0  0  0  0  0  0
   -8.2601   22.3795  -31.4529 H   0  0  0  0  0  0  0  0  0  0  0  0
   -6.1350   23.4960  -30.7921 H   0  0  0  0  0  0  0  0  0  0  0  0
   -3.7040   24.9300  -31.2820 H   0  0  0  0  0  0  0  0  0  0  0  0
   -3.8935   20.6294  -33.1270 H   0  0  0  0  0  0  0  0  0  0  0  0
   -5.2893   17.9289  -31.2385 H   0  0  0  0  0  0  0  0  0  0  0  0
   -7.0650   17.9060  -31.5091 H   0  0  0  0  0  0  0  0  0  0  0  0
   -6.1365   16.3682  -31.5091 H   0  0  0  0  0  0  0  0  0  0  0  0
  1  2  1  0
  2  3  1  0
  3  4  2  0
  4  5  1  0
  5  6  2  0
  6  7  1  0
  7  8  1  0
  8  9  2  0
  8 10  1  0
 10 11  2  0
 11 12  1  0
 11 13  1  0
 13 14  1  0
 14 15  2  0
 14 16  1  0
 16 17  1  0
 17 18  2  0
  6 19  1  0
 19 20  2  0
 20 21  1  0
 21 22  1  0
 22 23  1  0
 22 24  2  0
 22 25  2  0
 20  3  1  0
 17 10  1  0
  1 26  1  0
  1 27  1  0
  1 28  1  0
  4 29  1  0
  5 30  1  0
 12 31  1  0
 19 32  1  0
 23 33  1  0
 23 34  1  0
 23 35  1  0
M  CHG  4   7  -1  13  -1  16  -1  21  -1
M  END
>  <UniqueID>  (9) 
9

>  <SMILES>  (9) 
COc1ccc([N-]C(=O)c2c(O)[n-]c(=O)[n-]c2=O)cc1[N-]S(C)(=O)=O

>  <Energy>  (9) 
42.904855717669115

>  <Genealogy>  (9) 
COc1ccc([N-]C(=O)c2c(O)[n-]c(=O)[n-]c2=O)cc1[N-]S(C)(=O)=O (protonated)
COc1ccc([N-]C(=O)c2c(O)[n-]c(=O)[n-]c2=O)cc1[N-]S(C)(=O)=O (3D coordinates assigned)
COc1ccc([N-]C(=O)c2c(O)[n-]c(=O)[n-]c2=O)cc1[N-]S(C)(=O)=O (optimized conformer: 42.904855717669115 kcal/mol)

>  <smiles>  (9) 
COc1ccc(NC(=O)c2c(O)[nH]c(=O)[nH]c2=O)cc1NS(C)(=O)=O

>  <score_type>  (9) 
oracle

>  <origin>  (9) 
adgpu

>  <m_score__min__energy>  (9) 
-9.9600000000000009

>  <m_primary>  (9) 
energy

$$$$
9:0
     RDKit          3D

 43 45  0  0  0  0  0  0  0  0999 V2000
   -3.1450   21.0940  -27.7430 C   0  0  0  0  0  0  0  0  0  0  0  0
   -2.6220   22.4190  -28.2100 C   0  0  0  0  0  0  0  0  0  0  0  0
   -1.4140   22.9220  -27.7030 C   0  0  0  0  0  0  0  0  0  0  0  0
   -0.9530   24.1780  -28.1010 C   0  0  0  0  0  0  0  0  0  0  0  0
   -1.6920   24.9480  -29.0040 C   0  0  0  0  0  0  0  0  0  0  0  0
   -1.2370   26.2180  -29.3380 O   0  0  0  0  0  0  0  0  0  0  0  0
   -2.8960   24.4440  -29.5370 C   0  0  0  0  0  0  0  0  0  0  0  0
   -3.6860   25.1920  -30.4740 N   0  0  0  0  0  0  0  0  0  0  0  0
   -5.1160   25.1480  -30.5970 C   0  0  0  0  0  0  0  0  0  0  0  0
   -5.7740   26.1910  -30.3420 O   0  0  0  0  0  0  0  0  0  0  0  0
   -5.8340   23.9080  -30.9730 C   0  0  0  0  0  0  0  0  0  0  0  0
   -7.0240   23.5360  -30.3240 C   0  0  0  0  0  0  0  0  0  0  0  0
   -7.6820   22.3540  -30.6730 C   0  0  0  0  0  0  0  0  0  0  0  0
   -7.1690   21.5340  -31.6870 C   0  0  0  0  0  0  0  0  0  0  0  0
   -7.9680   20.0200  -32.0950 S   0  0  0  0  0  0  0  0  0  0  0  0
   -8.7210   19.5050  -30.8980 O   0  0  0  0  0  0  0  0  0  0  0  0
   -8.9490   20.2610  -33.2090 O   0  0  0  0  0  0  0  0  0  0  0  0
   -6.7710   18.8610  -32.6130 N   0  0  0  0  0  0  0  0  0  0  0  0
   -7.3480   17.5230  -32.7420 C   0  0  0  0  0  0  0  0  0  0  0  0
   -6.5110   16.7890  -33.7780 C   0  0  0  0  0  0  0  0  0  0  0  0
   -5.7990   17.8790  -34.5660 C   0  0  0  0  0  0  0  0  0  0  0  0
   -6.2490   19.1900  -33.9380 C   0  0  0  0  0  0  0  0  0  0  0  0
   -5.9930   21.9070  -32.3490 C   0  0  0  0  0  0  0  0  0  0  0  0
   -5.3340   23.0900  -32.0020 C   0  0  0  0  0  0  0  0  0  0  0  0
   -3.3690   23.1980  -29.1080 C   0  0  0  0  0  0  0  0  0  0  0  0
   -3.1543   21.0704  -26.6433 H   0  0  0  0  0  0  0  0  0  0  0  0
   -4.1677   20.9494  -28.1215 H   0  0  0  0  0  0  0  0  0  0  0  0
   -2.4968   20.2899  -28.1215 H   0  0  0  0  0  0  0  0  0  0  0  0
   -0.8282   22.3242  -26.9892 H   0  0  0  0  0  0  0  0  0  0  0  0
   -0.0033   24.5639  -27.7021 H   0  0  0  0  0  0  0  0  0  0  0  0
   -7.4403   24.1802  -29.5355 H   0  0  0  0  0  0  0  0  0  0  0  0
   -8.6059   22.0660  -30.1501 H   0  0  0  0  0  0  0  0  0  0  0  0
   -7.3057   16.9964  -31.7772 H   0  0  0  0  0  0  0  0  0  0  0  0
   -8.4037   17.5731  -33.0470 H   0  0  0  0  0  0  0  0  0  0  0  0
   -5.7806   16.1298  -33.2861 H   0  0  0  0  0  0  0  0  0  0  0  0
   -7.1292   16.1515  -34.4272 H   0  0  0  0  0  0  0  0  0  0  0  0
   -4.7082   17.7657  -34.4807 H   0  0  0  0  0  0  0  0  0  0  0  0
   -6.0415   17.8341  -35.6380 H   0  0  0  0  0  0  0  0  0  0  0  0
   -5.3973   19.8805  -33.8497 H   0  0  0  0  0  0  0  0  0  0  0  0
   -7.0148   19.6830  -34.5548 H   0  0  0  0  0  0  0  0  0  0  0  0
   -5.5860   21.2666  -33.1454 H   0  0  0  0  0  0  0  0  0  0  0  0
   -4.4187   23.3829  -32.5371 H   0  0  0  0  0  0  0  0  0  0  0  0
   -4.3356   22.8256  -29.4782 H   0  0  0  0  0  0  0  0  0  0  0  0
  1  2  1  0
  2  3  2  0
  3  4  1  0
  4  5  2  0
  5  6  1  0
  5  7  1  0
  7  8  1  0
  8  9  1  0
  9 10  2  0
  9 11  1  0
 11 12  2  0
 12 13  1  0
 13 14  2  0
 14 15  1  0
 15 16  2  0
 15 17  2  0
 15 18  1  0
 18 19  1  0
 19 20  1  0
 20 21  1  0
 21 22  1  0
 14 23  1  0
 23 24  2  0
  7 25  2  0
 25  2  1  0
 24 11  1  0
 22 18  1  0
  1 26  1  0
  1 27  1  0
  1 28  1  0
  3 29  1  0
  4 30  1  0
 12 31  1  0
 13 32  1  0
 19 33  1  0
 19 34  1  0
 20 35  1  0
 20 36  1  0
 21 37  1  0
 21 38  1  0
 22 39  1  0
 22 40  1  0
 23 41  1  0
 24 42  1  0
 25 43  1  0
M  CHG  2   6  -1   8  -1
M  END
>  <UniqueID>  (10) 
10

>  <SMILES>  (10) 
Cc1ccc([O-])c([N-]C(=O)c2ccc(S(=O)(=O)N3CCCC3)cc2)c1

>  <Energy>  (10) 
52.38892962713943

>  <Genealogy>  (10) 
Cc1ccc([O-])c([N-]C(=O)c2ccc(S(=O)(=O)N3CCCC3)cc2)c1 (protonated)
Cc1ccc([O-])c([N-]C(=O)c2ccc(S(=O)(=O)N3CCCC3)cc2)c1 (3D coordinates assigned)
Cc1ccc([O-])c([N-]C(=O)c2ccc(S(=O)(=O)N3CCCC3)cc2)c1 (nonaromatic ring conformer: 52.38892962713943 kcal/mol)

>  <smiles>  (10) 
Cc1ccc(O)c(NC(=O)c2ccc(S(=O)(=O)N3CCCC3)cc2)c1

>  <score_type>  (10) 
oracle

>  <origin>  (10) 
adgpu

>  <m_score__min__energy>  (10) 
-15.029999999999999

>  <m_primary>  (10) 
energy

$$$$
10:0
     RDKit          3D

 36 38  0  0  0  0  0  0  0  0999 V2000
   -4.1120   24.1950  -31.1270 O   0  0  0  0  0  0  0  0  0  0  0  0
   -4.4360   24.2300  -29.9090 C   0  0  0  0  0  0  0  0  0  0  0  0
   -5.7910   23.9540  -29.5210 N   0  0  0  0  0  0  0  0  0  0  0  0
   -6.9180   24.1970  -30.4220 C   0  0  0  0  0  0  0  0  0  0  0  0
   -6.6950   23.4960  -31.7680 C   0  0  0  0  0  0  0  0  0  0  0  0
   -7.4790   22.2120  -31.8590 C   0  0  0  0  0  0  0  0  0  0  0  0
   -8.8800   22.2440  -31.9600 C   0  0  0  0  0  0  0  0  0  0  0  0
   -9.6120   21.0530  -31.9760 C   0  0  0  0  0  0  0  0  0  0  0  0
   -8.9520   19.8240  -31.8840 C   0  0  0  0  0  0  0  0  0  0  0  0
   -7.5600   19.7840  -31.7780 C   0  0  0  0  0  0  0  0  0  0  0  0
   -6.8230   20.9720  -31.7660 C   0  0  0  0  0  0  0  0  0  0  0  0
   -3.4150   24.5770  -28.9010 C   0  0  0  0  0  0  0  0  0  0  0  0
   -3.4500   24.1730  -27.5670 C   0  0  0  0  0  0  0  0  0  0  0  0
   -2.2860   24.6620  -27.0150 C   0  0  0  0  0  0  0  0  0  0  0  0
   -1.7820   24.5550  -25.7200 C   0  0  0  0  0  0  0  0  0  0  0  0
   -0.5360   25.1530  -25.4510 C   0  0  0  0  0  0  0  0  0  0  0  0
    0.1670   25.8320  -26.4720 C   0  0  0  0  0  0  0  0  0  0  0  0
   -0.3690   25.9190  -27.7700 C   0  0  0  0  0  0  0  0  0  0  0  0
   -1.6060   25.3210  -28.0060 C   0  0  0  0  0  0  0  0  0  0  0  0
   -2.2830   25.2760  -29.1640 N   0  0  0  0  0  0  0  0  0  0  0  0
   -6.0100   23.7480  -28.5230 H   0  0  0  0  0  0  0  0  0  0  0  0
   -7.8389   23.8101  -29.9613 H   0  0  0  0  0  0  0  0  0  0  0  0
   -7.0051   25.2796  -30.5965 H   0  0  0  0  0  0  0  0  0  0  0  0
   -7.0145   24.1680  -32.5782 H   0  0  0  0  0  0  0  0  0  0  0  0
   -5.6257   23.2544  -31.8582 H   0  0  0  0  0  0  0  0  0  0  0  0
   -9.4028   23.2095  -32.0267 H   0  0  0  0  0  0  0  0  0  0  0  0
  -10.7083   21.0829  -32.0611 H   0  0  0  0  0  0  0  0  0  0  0  0
   -9.5295   18.8878  -31.8951 H   0  0  0  0  0  0  0  0  0  0  0  0
   -7.0426   18.8161  -31.7038 H   0  0  0  0  0  0  0  0  0  0  0  0
   -5.7267   20.9364  -31.6836 H   0  0  0  0  0  0  0  0  0  0  0  0
   -4.2361   23.5904  -27.0644 H   0  0  0  0  0  0  0  0  0  0  0  0
   -2.3385   24.0218  -24.9351 H   0  0  0  0  0  0  0  0  0  0  0  0
   -0.1070   25.0914  -24.4400 H   0  0  0  0  0  0  0  0  0  0  0  0
    1.1396   26.2955  -26.2504 H   0  0  0  0  0  0  0  0  0  0  0  0
    0.1708   26.4422  -28.5730 H   0  0  0  0  0  0  0  0  0  0  0  0
   -1.9710   25.6760  -30.0770 H   0  0  0  0  0  0  0  0  0  0  0  0
  1  2  2  0
  2  3  1  0
  3  4  1  0
  4  5  1  0
  5  6  1  0
  6  7  2  0
  7  8  1  0
  8  9  2  0
  9 10  1  0
 10 11  2  0
  2 12  1  0
 12 13  2  0
 13 14  1  0
 14 15  2  0
 15 16  1  0
 16 17  2  0
 17 18  1  0
 18 19  2  0
 19 20  1  0
 11  6  1  0
 20 12  1  0
 19 14  1  0
  3 21  1  0
  4 22  1  0
  4 23  1  0
  5 24  1  0
  5 25  1  0
  7 26  1  0
  8 27  1  0
  9 28  1  0
 10 29  1  0
 11 30  1  0
 13 31  1  0
 15 32  1  0
 16 33  1  0
 17 34  1  0
 18 35  1  0
 20 36  1  0
M  END
>  <UniqueID>  (11) 
11

>  <SMILES>  (11) 
O=C(NCCc1ccccc1)c1cc2ccccc2[nH]1

>  <Energy>  (11) 
65.8653394074615

>  <Genealogy>  (11) 
O=C(NCCc1ccccc1)c1cc2ccccc2[nH]1 (3D coordinates assigned)
O=C(NCCc1ccccc1)c1cc2ccccc2[nH]1 (optimized conformer: 65.8653394074615 kcal/mol)

>  <smiles>  (11) 
O=C(NCCc1ccccc1)c1cc2ccccc2[nH]1

>  <score_type>  (11) 
oracle

>  <origin>  (11) 
adgpu

>  <m_score__min__energy>  (11) 
-8.6500000000000004

>  <m_primary>  (11) 
energy

$$$$
11:0
     RDKit          3D

 28 29  0  0  0  0  0  0  0  0999 V2000
   -6.4139   16.9412  -33.5176 H   0  0  0  0  0  0  0  0  0  0  0  0
   -6.8290   17.8920  -33.1520 C   0  0  0  0  0  0  0  0  0  0  0  0
   -6.3170   19.1050  -33.6210 C   0  0  0  0  0  0  0  0  0  0  0  0
   -5.4986   19.1085  -34.3559 H   0  0  0  0  0  0  0  0  0  0  0  0
   -6.8440   20.3140  -33.1570 C   0  0  0  0  0  0  0  0  0  0  0  0
   -6.4365   21.2673  -33.5246 H   0  0  0  0  0  0  0  0  0  0  0  0
   -7.8910   20.3140  -32.2240 C   0  0  0  0  0  0  0  0  0  0  0  0
   -8.5580   21.8380  -31.6480 S   0  0  0  0  0  0  0  0  0  0  0  0
   -8.8080   21.7300  -30.1710 O   0  0  0  0  0  0  0  0  0  0  0  0
   -9.8580   22.1460  -32.3410 O   0  0  0  0  0  0  0  0  0  0  0  0
   -7.4400   23.1340  -31.9390 N   0  0  0  0  0  0  0  0  0  0  0  0
   -6.4050   23.4360  -31.2070 C   0  0  0  0  0  0  0  0  0  0  0  0
   -5.6110   24.5270  -31.5810 C   0  0  0  0  0  0  0  0  0  0  0  0
   -5.8600   25.1082  -32.4811 H   0  0  0  0  0  0  0  0  0  0  0  0
   -4.5320   24.8650  -30.8280 N   0  0  0  0  0  0  0  0  0  0  0  0
   -4.2020   24.1660  -29.7110 C   0  0  0  0  0  0  0  0  0  0  0  0
   -3.0050   24.5580  -28.9050 C   0  0  0  0  0  0  0  0  0  0  0  0
   -3.2427   24.4801  -27.8338 H   0  0  0  0  0  0  0  0  0  0  0  0
   -2.1664   23.8876  -29.1441 H   0  0  0  0  0  0  0  0  0  0  0  0
   -2.7254   25.5946  -29.1441 H   0  0  0  0  0  0  0  0  0  0  0  0
   -4.9890   23.0720  -29.3340 C   0  0  0  0  0  0  0  0  0  0  0  0
   -4.7339   22.4923  -28.4347 H   0  0  0  0  0  0  0  0  0  0  0  0
   -6.0710   22.7280  -30.0840 N   0  0  0  0  0  0  0  0  0  0  0  0
   -6.6270   21.9050  -29.7690 H   0  0  0  0  0  0  0  0  0  0  0  0
   -8.3990   19.0950  -31.7520 C   0  0  0  0  0  0  0  0  0  0  0  0
   -9.2151   19.0885  -31.0145 H   0  0  0  0  0  0  0  0  0  0  0  0
   -7.8690   17.8880  -32.2180 C   0  0  0  0  0  0  0  0  0  0  0  0
   -8.2713   16.9331  -31.8488 H   0  0  0  0  0  0  0  0  0  0  0  0
  1  2  1  0
  2  3  2  0
  3  4  1  0
  3  5  1  0
  5  6  1  0
  5  7  2  0
  7  8  1  0
  8  9  2  0
  8 10  2  0
  8 11  1  0
 11 12  2  0
 12 13  1  0
 13 14  1  0
 13 15  2  0
 15 16  1  0
 16 17  1  0
 17 18  1  0
 17 19  1  0
 17 20  1  0
 16 21  2  0
 21 22  1  0
 21 23  1  0
 23 24  1  0
  7 25  1  0
 25 26  1  0
 25 27  2  0
 27 28  1  0
 27  2  1  0
 23 12  1  0
M  END
>  <UniqueID>  (12) 
12

>  <SMILES>  (12) 
Cc1c[nH]/c(=N\S(=O)(=O)c2ccccc2)cn1

>  <Energy>  (12) 
33.420665489906106

>  <Genealogy>  (12) 
Cc1c[nH]/c(=N\S(=O)(=O)c2ccccc2)cn1 (cis-trans isomerization)
Cc1c[nH]/c(=N\S(=O)(=O)c2ccccc2)cn1 (3D coordinates assigned)
Cc1c[nH]/c(=N\S(=O)(=O)c2ccccc2)cn1 (optimized conformer: 33.420665489906106 kcal/mol)

>  <smiles>  (12) 
Cc1c[nH]c(=NS(=O)(=O)c2ccccc2)cn1

>  <score_type>  (12) 
oracle

>  <origin>  (12) 
adgpu

>  <m_score__min__energy>  (12) 
-7.4100000000000001

>  <m_primary>  (12) 
energy

$$$$
12:0
     RDKit          3D

 57 60  0  0  0  0  0  0  0  0999 V2000
    0.0910   19.5610  -32.1150 O   0  0  0  0  0  0  0  0  0  0  0  0
   -1.1460   19.4070  -31.9310 C   0  0  0  0  0  0  0  0  0  0  0  0
   -1.7510   19.9680  -30.7560 N   0  0  0  0  0  0  0  0  0  0  0  0
   -2.2010   21.3240  -30.6280 C   0  0  0  0  0  0  0  0  0  0  0  0
   -3.3000   21.7990  -31.3590 C   0  0  0  0  0  0  0  0  0  0  0  0
   -3.7140   23.1240  -31.2180 C   0  0  0  0  0  0  0  0  0  0  0  0
   -3.0490   23.9820  -30.3440 C   0  0  0  0  0  0  0  0  0  0  0  0
   -3.4870   25.2940  -30.2240 O   0  0  0  0  0  0  0  0  0  0  0  0
   -1.9520   23.5130  -29.5960 C   0  0  0  0  0  0  0  0  0  0  0  0
   -1.0760   24.5720  -28.4840 S   0  0  0  0  0  0  0  0  0  0  0  0
   -1.2460   26.0030  -28.9230 O   0  0  0  0  0  0  0  0  0  0  0  0
    0.3890   24.2490  -28.5610 O   0  0  0  0  0  0  0  0  0  0  0  0
   -1.6020   24.3960  -26.8240 N   0  0  0  0  0  0  0  0  0  0  0  0
   -0.5430   23.8790  -25.9320 C   0  0  0  0  0  0  0  0  0  0  0  0
    0.0950   24.9750  -25.0650 C   0  0  0  0  0  0  0  0  0  0  0  0
    0.0480   26.2130  -25.7280 O   0  0  0  0  0  0  0  0  0  0  0  0
   -1.2880   26.6700  -25.7810 C   0  0  0  0  0  0  0  0  0  0  0  0
   -2.2750   25.6030  -26.3090 C   0  0  0  0  0  0  0  0  0  0  0  0
   -1.5400   22.1800  -29.7380 C   0  0  0  0  0  0  0  0  0  0  0  0
   -1.9590   18.7230  -32.9590 C   0  0  0  0  0  0  0  0  0  0  0  0
   -3.3530   18.9130  -32.9480 C   0  0  0  0  0  0  0  0  0  0  0  0
   -4.1730   18.2430  -33.8620 C   0  0  0  0  0  0  0  0  0  0  0  0
   -5.9250   18.4240  -33.7880 S   0  0  0  0  0  0  0  0  0  0  0  0
   -6.5550   17.0760  -34.0130 O   0  0  0  0  0  0  0  0  0  0  0  0
   -6.3890   19.3540  -34.8780 O   0  0  0  0  0  0  0  0  0  0  0  0
   -6.3840   19.0400  -32.2130 N   0  0  0  0  0  0  0  0  0  0  0  0
   -6.9040   20.4070  -32.3160 C   0  0  0  0  0  0  0  0  0  0  0  0
   -8.4210   20.3370  -32.4020 C   0  0  0  0  0  0  0  0  0  0  0  0
   -8.7870   18.9140  -32.0380 C   0  0  0  0  0  0  0  0  0  0  0  0
   -7.4810   18.2490  -31.6460 C   0  0  0  0  0  0  0  0  0  0  0  0
   -3.5970   17.3970  -34.8160 C   0  0  0  0  0  0  0  0  0  0  0  0
   -2.2140   17.2160  -34.8490 C   0  0  0  0  0  0  0  0  0  0  0  0
   -1.3870   17.8620  -33.9220 C   0  0  0  0  0  0  0  0  0  0  0  0
   -0.0150   17.5960  -33.9650 O   0  0  0  0  0  0  0  0  0  0  0  0
   -3.8361   21.1260  -32.0443 H   0  0  0  0  0  0  0  0  0  0  0  0
   -4.5708   23.4937  -31.8004 H   0  0  0  0  0  0  0  0  0  0  0  0
   -0.9822   23.1185  -25.2696 H   0  0  0  0  0  0  0  0  0  0  0  0
    0.2492   23.4584  -26.5688 H   0  0  0  0  0  0  0  0  0  0  0  0
   -0.4543   25.0514  -24.1151 H   0  0  0  0  0  0  0  0  0  0  0  0
    1.1459   24.7122  -24.8737 H   0  0  0  0  0  0  0  0  0  0  0  0
   -1.5983   26.9622  -24.7669 H   0  0  0  0  0  0  0  0  0  0  0  0
   -1.3166   27.5176  -26.4815 H   0  0  0  0  0  0  0  0  0  0  0  0
   -2.9433   25.3072  -25.4869 H   0  0  0  0  0  0  0  0  0  0  0  0
   -2.8269   26.0533  -27.1472 H   0  0  0  0  0  0  0  0  0  0  0  0
   -0.6921   21.8042  -29.1465 H   0  0  0  0  0  0  0  0  0  0  0  0
   -3.8031   19.5960  -32.2125 H   0  0  0  0  0  0  0  0  0  0  0  0
   -6.6083   20.9851  -31.4281 H   0  0  0  0  0  0  0  0  0  0  0  0
   -6.4966   20.9005  -33.2107 H   0  0  0  0  0  0  0  0  0  0  0  0
   -8.8783   21.0437  -31.6938 H   0  0  0  0  0  0  0  0  0  0  0  0
   -8.7834   20.6053  -33.4053 H   0  0  0  0  0  0  0  0  0  0  0  0
   -9.4931   18.9021  -31.1946 H   0  0  0  0  0  0  0  0  0  0  0  0
   -9.2772   18.3917  -32.8728 H   0  0  0  0  0  0  0  0  0  0  0  0
   -7.3917   18.2180  -30.5501 H   0  0  0  0  0  0  0  0  0  0  0  0
   -7.4466   17.2178  -32.0275 H   0  0  0  0  0  0  0  0  0  0  0  0
   -4.2362   16.8732  -35.5419 H   0  0  0  0  0  0  0  0  0  0  0  0
   -1.7688   16.5592  -35.6109 H   0  0  0  0  0  0  0  0  0  0  0  0
    0.6590   18.0590  -33.3680 H   0  0  0  0  0  0  0  0  0  0  0  0
  1  2  2  0
  2  3  1  0
  3  4  1  0
  4  5  2  0
  5  6  1  0
  6  7  2  0
  7  8  1  0
  7  9  1  0
  9 10  1  0
 10 11  2  0
 10 12  2  0
 10 13  1  0
 13 14  1  0
 14 15  1  0
 15 16  1  0
 16 17  1  0
 17 18  1  0
  9 19  2  0
  2 20  1  0
 20 21  2  0
 21 22  1  0
 22 23  1  0
 23 24  2  0
 23 25  2  0
 23 26  1  0
 26 27  1  0
 27 28  1  0
 28 29  1  0
 29 30  1  0
 22 31  2  0
 31 32  1  0
 32 33  2  0
 33 34  1  0
 19  4  1  0
 33 20  1  0
 18 13  1  0
 30 26  1  0
  5 35  1  0
  6 36  1  0
 14 37  1  0
 14 38  1  0
 15 39  1  0
 15 40  1  0
 17 41  1  0
 17 42  1  0
 18 43  1  0
 18 44  1  0
 19 45  1  0
 21 46  1  0
 27 47  1  0
 27 48  1  0
 28 49  1  0
 28 50  1  0
 29 51  1  0
 29 52  1  0
 30 53  1  0
 30 54  1  0
 31 55  1  0
 32 56  1  0
 34 57  1  0
M  CHG  2   3  -1   8  -1
M  END
>  <UniqueID>  (13) 
13

>  <SMILES>  (13) 
O=C([N-]c1ccc([O-])c(S(=O)(=O)N2CCOCC2)c1)c1cc(S(=O)(=O)N2CCCC2)ccc1O

>  <Energy>  (13) 
78.38613501711482

>  <Genealogy>  (13) 
O=C([N-]c1ccc([O-])c(S(=O)(=O)N2CCOCC2)c1)c1cc(S(=O)(=O)N2CCCC2)ccc1O (protonated)
O=C([N-]c1ccc([O-])c(S(=O)(=O)N2CCOCC2)c1)c1cc(S(=O)(=O)N2CCCC2)ccc1O (3D coordinates assigned)
O=C([N-]c1ccc([O-])c(S(=O)(=O)N2CCOCC2)c1)c1cc(S(=O)(=O)N2CCCC2)ccc1O (nonaromatic ring conformer: 78.38613501711482 kcal/mol)

>  <smiles>  (13) 
O=C(Nc1ccc(O)c(S(=O)(=O)N2CCOCC2)c1)c1cc(S(=O)(=O)N2CCCC2)ccc1O

>  <score_type>  (13) 
oracle

>  <origin>  (13) 
adgpu

>  <m_score__min__energy>  (13) 
-12.57

>  <m_primary>  (13) 
energy

$$$$
13:0
     RDKit          3D

 52 54  0  0  0  0  0  0  0  0999 V2000
   -1.9060   19.6830  -26.8280 C   0  0  0  0  0  0  0  0  0  0  0  0
   -1.1640   20.6950  -27.5030 O   0  0  0  0  0  0  0  0  0  0  0  0
   -1.7370   21.7560  -28.2200 C   0  0  0  0  0  0  0  0  0  0  0  0
   -2.1100   22.9610  -27.5990 C   0  0  0  0  0  0  0  0  0  0  0  0
   -2.6840   23.9920  -28.3450 C   0  0  0  0  0  0  0  0  0  0  0  0
   -2.9140   23.8340  -29.7150 C   0  0  0  0  0  0  0  0  0  0  0  0
   -3.4870   24.9270  -30.4460 N   0  0  0  0  0  0  0  0  0  0  0  0
   -4.8810   25.1410  -30.7060 C   0  0  0  0  0  0  0  0  0  0  0  0
   -5.3590   26.3070  -30.6680 O   0  0  0  0  0  0  0  0  0  0  0  0
   -5.7520   23.9970  -31.0690 C   0  0  0  0  0  0  0  0  0  0  0  0
   -7.1490   24.0890  -30.9310 C   0  0  0  0  0  0  0  0  0  0  0  0
   -7.9670   23.0100  -31.2760 C   0  0  0  0  0  0  0  0  0  0  0  0
   -7.4030   21.8290  -31.7620 C   0  0  0  0  0  0  0  0  0  0  0  0
   -6.0140   21.7220  -31.9100 C   0  0  0  0  0  0  0  0  0  0  0  0
   -5.2870   20.2320  -32.5090 S   0  0  0  0  0  0  0  0  0  0  0  0
   -5.8200   19.0540  -31.7380 O   0  0  0  0  0  0  0  0  0  0  0  0
   -5.6620   20.0650  -33.9560 O   0  0  0  0  0  0  0  0  0  0  0  0
   -3.5470   20.3130  -32.3490 N   0  0  0  0  0  0  0  0  0  0  0  0
   -2.9290   18.9790  -32.5830 C   0  0  0  0  0  0  0  0  0  0  0  0
   -2.3350   18.8330  -33.9930 C   0  0  0  0  0  0  0  0  0  0  0  0
   -1.2520   19.8950  -34.2480 C   0  0  0  0  0  0  0  0  0  0  0  0
   -1.5220   21.2110  -33.4960 C   0  0  0  0  0  0  0  0  0  0  0  0
   -3.0200   21.3920  -33.2200 C   0  0  0  0  0  0  0  0  0  0  0  0
   -5.1930   22.8030  -31.5610 C   0  0  0  0  0  0  0  0  0  0  0  0
   -2.5180   22.6430  -30.3460 C   0  0  0  0  0  0  0  0  0  0  0  0
   -1.9330   21.6000  -29.6020 C   0  0  0  0  0  0  0  0  0  0  0  0
   -1.5290   20.3950  -30.1990 O   0  0  0  0  0  0  0  0  0  0  0  0
   -0.1760   19.9710  -30.3300 C   0  0  0  0  0  0  0  0  0  0  0  0
   -1.8064   19.8188  -25.7410 H   0  0  0  0  0  0  0  0  0  0  0  0
   -2.9665   19.7555  -27.1110 H   0  0  0  0  0  0  0  0  0  0  0  0
   -1.5179   18.6934  -27.1110 H   0  0  0  0  0  0  0  0  0  0  0  0
   -1.9486   23.0922  -26.5188 H   0  0  0  0  0  0  0  0  0  0  0  0
   -2.9575   24.9361  -27.8511 H   0  0  0  0  0  0  0  0  0  0  0  0
   -7.6004   25.0165  -30.5490 H   0  0  0  0  0  0  0  0  0  0  0  0
   -9.0583   23.0913  -31.1644 H   0  0  0  0  0  0  0  0  0  0  0  0
   -8.0505   20.9808  -32.0292 H   0  0  0  0  0  0  0  0  0  0  0  0
   -3.3560   20.5830  -31.3560 H   0  0  0  0  0  0  0  0  0  0  0  0
   -2.1254   18.8307  -31.8467 H   0  0  0  0  0  0  0  0  0  0  0  0
   -3.7234   18.2251  -32.4802 H   0  0  0  0  0  0  0  0  0  0  0  0
   -1.8885   17.8327  -34.0934 H   0  0  0  0  0  0  0  0  0  0  0  0
   -3.1411   18.9710  -34.7287 H   0  0  0  0  0  0  0  0  0  0  0  0
   -0.2818   19.4943  -33.9191 H   0  0  0  0  0  0  0  0  0  0  0  0
   -1.2548   20.1208  -35.3246 H   0  0  0  0  0  0  0  0  0  0  0  0
   -0.9797   21.1958  -32.5391 H   0  0  0  0  0  0  0  0  0  0  0  0
   -1.1784   22.0478  -34.1218 H   0  0  0  0  0  0  0  0  0  0  0  0
   -3.1774   22.3609  -32.7236 H   0  0  0  0  0  0  0  0  0  0  0  0
   -3.5550   21.3523  -34.1803 H   0  0  0  0  0  0  0  0  0  0  0  0
   -4.1020   22.7173  -31.6727 H   0  0  0  0  0  0  0  0  0  0  0  0
   -2.6660   22.5241  -31.4295 H   0  0  0  0  0  0  0  0  0  0  0  0
    0.2634   19.8333  -29.3310 H   0  0  0  0  0  0  0  0  0  0  0  0
   -0.1417   19.0190  -30.8801 H   0  0  0  0  0  0  0  0  0  0  0  0
    0.3955   20.7331  -30.8801 H   0  0  0  0  0  0  0  0  0  0  0  0
  1  2  1  0
  2  3  1  0
  3  4  2  0
  4  5  1  0
  5  6  2  0
  6  7  1  0
  7  8  1  0
  8  9  2  0
  8 10  1  0
 10 11  2  0
 11 12  1  0
 12 13  2  0
 13 14  1  0
 14 15  1  0
 15 16  2  0
 15 17  2  0
 15 18  1  0
 18 19  1  0
 19 20  1  0
 20 21  1  0
 21 22  1  0
 22 23  1  0
 14 24  2  0
  6 25  1  0
 25 26  2  0
 26 27  1  0
 27 28  1  0
 26  3  1  0
 24 10  1  0
 23 18  1  0
  1 29  1  0
  1 30  1  0
  1 31  1  0
  4 32  1  0
  5 33  1  0
 11 34  1  0
 12 35  1  0
 13 36  1  0
 18 37  1  0
 19 38  1  0
 19 39  1  0
 20 40  1  0
 20 41  1  0
 21 42  1  0
 21 43  1  0
 22 44  1  0
 22 45  1  0
 23 46  1  0
 23 47  1  0
 24 48  1  0
 25 49  1  0
 28 50  1  0
 28 51  1  0
 28 52  1  0
M  CHG  2   7  -1  18   1
M  END
>  <UniqueID>  (14) 
14

>  <SMILES>  (14) 
COc1ccc([N-]C(=O)c2cccc(S(=O)(=O)[NH+]3CCCCC3)c2)cc1OC

>  <Energy>  (14) 
61.36965825230485

>  <Genealogy>  (14) 
COc1ccc([N-]C(=O)c2cccc(S(=O)(=O)[NH+]3CCCCC3)c2)cc1OC (protonated)
COc1ccc([N-]C(=O)c2cccc(S(=O)(=O)[NH+]3CCCCC3)c2)cc1OC (3D coordinates assigned)
COc1ccc([N-]C(=O)c2cccc(S(=O)(=O)[NH+]3CCCCC3)c2)cc1OC (nonaromatic ring conformer: 61.36965825230485 kcal/mol)

>  <smiles>  (14) 
COc1ccc(NC(=O)c2cccc(S(=O)(=O)N3CCCCC3)c2)cc1OC

>  <score_type>  (14) 
oracle

>  <origin>  (14) 
adgpu

>  <m_score__min__energy>  (14) 
-10.300000000000001

>  <m_primary>  (14) 
energy

$$$$
14:0
     RDKit          3D

 65 68  0  0  0  0  0  0  0  0999 V2000
   -1.7890   21.3690  -26.8160 C   0  0  0  0  0  0  0  0  0  0  0  0
   -2.3130   22.3660  -27.8170 C   0  0  0  0  0  0  0  0  0  0  0  0
   -3.5150   22.0700  -28.4780 C   0  0  0  0  0  0  0  0  0  0  0  0
   -4.0500   22.9490  -29.4150 C   0  0  0  0  0  0  0  0  0  0  0  0
   -3.3870   24.1420  -29.7280 C   0  0  0  0  0  0  0  0  0  0  0  0
   -3.9440   25.0880  -30.6550 N   0  0  0  0  0  0  0  0  0  0  0  0
   -5.2680   25.6250  -30.6200 C   0  0  0  0  0  0  0  0  0  0  0  0
   -5.4510   26.7610  -30.1080 O   0  0  0  0  0  0  0  0  0  0  0  0
   -6.3500   24.9330  -31.2580 N   0  0  0  0  0  0  0  0  0  0  0  0
   -6.4400   23.5190  -31.4870 C   0  0  0  0  0  0  0  0  0  0  0  0
   -7.5140   22.8150  -30.9290 C   0  0  0  0  0  0  0  0  0  0  0  0
   -7.6480   21.4400  -31.1430 C   0  0  0  0  0  0  0  0  0  0  0  0
   -6.7130   20.7550  -31.9310 C   0  0  0  0  0  0  0  0  0  0  0  0
   -6.9020   19.0260  -32.2040 S   0  0  0  0  0  0  0  0  0  0  0  0
   -7.0440   18.3070  -30.8890 O   0  0  0  0  0  0  0  0  0  0  0  0
   -8.1470   18.7950  -33.0150 O   0  0  0  0  0  0  0  0  0  0  0  0
   -5.5130   18.4230  -33.0730 N   0  0  0  0  0  0  0  0  0  0  0  0
   -5.3450   16.9730  -32.8840 C   0  0  0  0  0  0  0  0  0  0  0  0
   -5.3230   16.3180  -34.2580 C   0  0  0  0  0  0  0  0  0  0  0  0
   -5.0710   17.4530  -35.2190 C   0  0  0  0  0  0  0  0  0  0  0  0
   -5.6500   18.6610  -34.5140 C   0  0  0  0  0  0  0  0  0  0  0  0
   -5.6550   21.4610  -32.5180 C   0  0  0  0  0  0  0  0  0  0  0  0
   -5.5190   22.8350  -32.3020 C   0  0  0  0  0  0  0  0  0  0  0  0
   -2.1910   24.4590  -29.0700 C   0  0  0  0  0  0  0  0  0  0  0  0
   -1.5740   25.6730  -29.3560 O   0  0  0  0  0  0  0  0  0  0  0  0
   -1.6220   23.5670  -28.1320 C   0  0  0  0  0  0  0  0  0  0  0  0
   -0.0840   23.9960  -27.3390 S   0  0  0  0  0  0  0  0  0  0  0  0
    0.9740   24.2660  -28.3720 O   0  0  0  0  0  0  0  0  0  0  0  0
    0.3950   22.8530  -26.4880 O   0  0  0  0  0  0  0  0  0  0  0  0
   -0.3000   25.4570  -26.3170 C   0  0  0  0  0  0  0  0  0  0  0  0
    0.3160   25.2470  -24.9300 C   0  0  0  0  0  0  0  0  0  0  0  0
    0.1840   26.5220  -24.0730 C   0  0  0  0  0  0  0  0  0  0  0  0
   -1.1090   27.2360  -24.2390 N   0  0  0  0  0  0  0  0  0  0  0  0
   -0.9530   28.5210  -24.9420 C   0  0  0  0  0  0  0  0  0  0  0  0
   -2.1770   26.4070  -24.8320 C   0  0  0  0  0  0  0  0  0  0  0  0
   -1.7940   25.8400  -26.2150 C   0  0  0  0  0  0  0  0  0  0  0  0
   -1.9820   21.7362  -25.7972 H   0  0  0  0  0  0  0  0  0  0  0  0
   -2.2963   20.4036  -26.9600 H   0  0  0  0  0  0  0  0  0  0  0  0
   -0.7062   21.2393  -26.9600 H   0  0  0  0  0  0  0  0  0  0  0  0
   -4.0413   21.1308  -28.2525 H   0  0  0  0  0  0  0  0  0  0  0  0
   -5.0000   22.7050  -29.9130 H   0  0  0  0  0  0  0  0  0  0  0  0
   -8.2576   23.3476  -30.3179 H   0  0  0  0  0  0  0  0  0  0  0  0
   -8.4896   20.8942  -30.6917 H   0  0  0  0  0  0  0  0  0  0  0  0
   -4.3991   16.7722  -32.3597 H   0  0  0  0  0  0  0  0  0  0  0  0
   -6.1715   16.5683  -32.2814 H   0  0  0  0  0  0  0  0  0  0  0  0
   -4.5172   15.5717  -34.3192 H   0  0  0  0  0  0  0  0  0  0  0  0
   -6.2591   15.7847  -34.4800 H   0  0  0  0  0  0  0  0  0  0  0  0
   -3.9934   17.5830  -35.3974 H   0  0  0  0  0  0  0  0  0  0  0  0
   -5.5228   17.2810  -36.2071 H   0  0  0  0  0  0  0  0  0  0  0  0
   -5.0969   19.5673  -34.8015 H   0  0  0  0  0  0  0  0  0  0  0  0
   -6.7049   18.8079  -34.7891 H   0  0  0  0  0  0  0  0  0  0  0  0
   -4.9282   20.9316  -33.1516 H   0  0  0  0  0  0  0  0  0  0  0  0
   -4.6889   23.3839  -32.7708 H   0  0  0  0  0  0  0  0  0  0  0  0
    0.2291   26.2940  -26.7961 H   0  0  0  0  0  0  0  0  0  0  0  0
   -0.2037   24.4186  -24.4263 H   0  0  0  0  0  0  0  0  0  0  0  0
    1.3839   25.0124  -25.0506 H   0  0  0  0  0  0  0  0  0  0  0  0
    0.2886   26.2391  -23.0152 H   0  0  0  0  0  0  0  0  0  0  0  0
    0.9718   27.2121  -24.4093 H   0  0  0  0  0  0  0  0  0  0  0  0
   -0.8545   29.3322  -24.2056 H   0  0  0  0  0  0  0  0  0  0  0  0
   -0.0524   28.4870  -25.5727 H   0  0  0  0  0  0  0  0  0  0  0  0
   -1.8356   28.7034  -25.5727 H   0  0  0  0  0  0  0  0  0  0  0  0
   -2.3878   25.5671  -24.1537 H   0  0  0  0  0  0  0  0  0  0  0  0
   -3.0584   27.0505  -24.9699 H   0  0  0  0  0  0  0  0  0  0  0  0
   -2.4001   24.9421  -26.4060 H   0  0  0  0  0  0  0  0  0  0  0  0
   -1.9835   26.6284  -26.9583 H   0  0  0  0  0  0  0  0  0  0  0  0
  1  2  1  0
  2  3  2  0
  3  4  1  0
  4  5  2  0
  5  6  1  0
  6  7  1  0
  7  8  2  0
  7  9  1  0
  9 10  1  0
 10 11  2  0
 11 12  1  0
 12 13  2  0
 13 14  1  0
 14 15  2  0
 14 16  2  0
 14 17  1  0
 17 18  1  0
 18 19  1  0
 19 20  1  0
 20 21  1  0
 13 22  1  0
 22 23  2  0
  5 24  1  0
 24 25  1  0
 24 26  2  0
 26 27  1  0
 27 28  2  0
 27 29  2  0
 27 30  1  0
 30 31  1  0
 31 32  1  0
 32 33  1  0
 33 34  1  0
 33 35  1  0
 35 36  1  0
 26  2  1  0
 36 30  1  0
 23 10  1  0
 21 17  1  0
  1 37  1  0
  1 38  1  0
  1 39  1  0
  3 40  1  0
  4 41  1  0
 11 42  1  0
 12 43  1  0
 18 44  1  0
 18 45  1  0
 19 46  1  0
 19 47  1  0
 20 48  1  0
 20 49  1  0
 21 50  1  0
 21 51  1  0
 22 52  1  0
 23 53  1  0
 30 54  1  0
 31 55  1  0
 31 56  1  0
 32 57  1  0
 32 58  1  0
 34 59  1  0
 34 60  1  0
 34 61  1  0
 35 62  1  0
 35 63  1  0
 36 64  1  0
 36 65  1  0
M  CHG  3   6  -1   9  -1  25  -1
M  END
>  <UniqueID>  (15) 
15

>  <SMILES>  (15) 
Cc1ccc([N-]C(=O)[N-]c2ccc(S(=O)(=O)N3CCCC3)cc2)c([O-])c1S(=O)(=O)C1CCN(C)CC1

>  <Energy>  (15) 
83.66255923884614

>  <Genealogy>  (15) 
Cc1ccc([N-]C(=O)[N-]c2ccc(S(=O)(=O)N3CCCC3)cc2)c([O-])c1S(=O)(=O)C1CCN(C)CC1 (protonated)
Cc1ccc([N-]C(=O)[N-]c2ccc(S(=O)(=O)N3CCCC3)cc2)c([O-])c1S(=O)(=O)C1CCN(C)CC1 (3D coordinates assigned)
Cc1ccc([N-]C(=O)[N-]c2ccc(S(=O)(=O)N3CCCC3)cc2)c([O-])c1S(=O)(=O)C1CCN(C)CC1 (nonaromatic ring conformer: 83.66255923884614 kcal/mol)

>  <smiles>  (15) 
Cc1ccc(NC(=O)Nc2ccc(S(=O)(=O)N3CCCC3)cc2)c(O)c1S(=O)(=O)C1CCN(C)CC1

>  <score_type>  (15) 
oracle

>  <origin>  (15) 
adgpu

>  <m_score__min__energy>  (15) 
-17.719999999999999

>  <m_primary>  (15) 
energy

$$$$
15:0
     RDKit          3D

 38 40  0  0  0  0  0  0  0  0999 V2000
   -1.8080   12.8150  -36.4750 C   0  0  0  0  0  0  0  0  0  0  0  0
   -2.6750   13.8720  -35.8550 C   0  0  0  0  0  0  0  0  0  0  0  0
   -3.7610   13.5110  -35.0460 C   0  0  0  0  0  0  0  0  0  0  0  0
   -4.5450   14.4940  -34.4380 C   0  0  0  0  0  0  0  0  0  0  0  0
   -4.2550   15.8590  -34.6210 C   0  0  0  0  0  0  0  0  0  0  0  0
   -5.0970   16.8890  -33.9610 C   0  0  0  0  0  0  0  0  0  0  0  0
   -6.4790   16.7200  -33.7870 C   0  0  0  0  0  0  0  0  0  0  0  0
   -7.2180   17.7190  -33.1560 C   0  0  0  0  0  0  0  0  0  0  0  0
   -6.5720   18.8720  -32.7110 C   0  0  0  0  0  0  0  0  0  0  0  0
   -7.2560   19.7950  -32.0990 N   0  0  0  0  0  0  0  0  0  0  0  0
   -6.7660   21.0580  -31.6180 C   0  0  0  0  0  0  0  0  0  0  0  0
   -5.4100   21.1710  -31.2880 C   0  0  0  0  0  0  0  0  0  0  0  0
   -4.9000   22.3720  -30.7870 C   0  0  0  0  0  0  0  0  0  0  0  0
   -5.7460   23.4720  -30.5930 C   0  0  0  0  0  0  0  0  0  0  0  0
   -5.1090   24.9820  -29.9500 S   0  0  0  0  0  0  0  0  0  0  0  0
   -3.5100   25.2480  -30.5490 N   0  0  0  0  0  0  0  0  0  0  0  0
   -5.9980   26.1180  -30.3700 O   0  0  0  0  0  0  0  0  0  0  0  0
   -5.0580   24.9180  -28.4490 O   0  0  0  0  0  0  0  0  0  0  0  0
   -7.1100   23.3530  -30.8840 C   0  0  0  0  0  0  0  0  0  0  0  0
   -7.6220   22.1520  -31.3870 C   0  0  0  0  0  0  0  0  0  0  0  0
   -5.2260   18.9810  -32.8820 N   0  0  0  0  0  0  0  0  0  0  0  0
   -4.5170   18.0260  -33.4860 N   0  0  0  0  0  0  0  0  0  0  0  0
   -3.1440   16.2140  -35.4110 C   0  0  0  0  0  0  0  0  0  0  0  0
   -2.3600   15.2280  -36.0180 C   0  0  0  0  0  0  0  0  0  0  0  0
   -1.3246   12.2256  -35.6819 H   0  0  0  0  0  0  0  0  0  0  0  0
   -2.4265   12.1528  -37.0987 H   0  0  0  0  0  0  0  0  0  0  0  0
   -1.0376   13.2920  -37.0987 H   0  0  0  0  0  0  0  0  0  0  0  0
   -3.9971   12.4481  -34.8891 H   0  0  0  0  0  0  0  0  0  0  0  0
   -5.3980   14.1983  -33.8096 H   0  0  0  0  0  0  0  0  0  0  0  0
   -6.9752   15.8062  -34.1458 H   0  0  0  0  0  0  0  0  0  0  0  0
   -8.3017   17.5990  -33.0102 H   0  0  0  0  0  0  0  0  0  0  0  0
   -4.7412   20.3083  -31.4240 H   0  0  0  0  0  0  0  0  0  0  0  0
   -3.8303   22.4540  -30.5441 H   0  0  0  0  0  0  0  0  0  0  0  0
   -3.5630   26.0460  -31.2210 H   0  0  0  0  0  0  0  0  0  0  0  0
   -7.7823   24.2074  -30.7165 H   0  0  0  0  0  0  0  0  0  0  0  0
   -8.6969   22.0620  -31.6027 H   0  0  0  0  0  0  0  0  0  0  0  0
   -2.8912   17.2753  -35.5515 H   0  0  0  0  0  0  0  0  0  0  0  0
   -1.4911   15.5182  -36.6269 H   0  0  0  0  0  0  0  0  0  0  0  0
  1  2  1  0
  2  3  2  0
  3  4  1  0
  4  5  2  0
  5  6  1  0
  6  7  1  0
  7  8  2  0
  8  9  1  0
  9 10  2  3
 10 11  1  0
 11 12  2  0
 12 13  1  0
 13 14  2  0
 14 15  1  0
 15 16  1  0
 15 17  2  0
 15 18  2  0
 14 19  1  0
 19 20  2  0
  9 21  1  0
 21 22  1  0
  5 23  1  0
 23 24  2  0
 24  2  1  0
 22  6  2  0
 20 11  1  0
  1 25  1  0
  1 26  1  0
  1 27  1  0
  3 28  1  0
  4 29  1  0
  7 30  1  0
  8 31  1  0
 12 32  1  0
 13 33  1  0
 16 34  1  0
 19 35  1  0
 20 36  1  0
 23 37  1  0
 24 38  1  0
M  CHG  2  16  -1  21  -1
M  END
>  <UniqueID>  (16) 
16

>  <SMILES>  (16) 
Cc1ccc(-c2ccc(=Nc3ccc(S([NH-])(=O)=O)cc3)[n-]n2)cc1

>  <Energy>  (16) 
51.281782962720946

>  <Genealogy>  (16) 
Cc1ccc(-c2ccc(=Nc3ccc(S([NH-])(=O)=O)cc3)[n-]n2)cc1 (protonated)
Cc1ccc(-c2ccc(=Nc3ccc(S([NH-])(=O)=O)cc3)[n-]n2)cc1 (3D coordinates assigned)
Cc1ccc(-c2ccc(=Nc3ccc(S([NH-])(=O)=O)cc3)[n-]n2)cc1 (optimized conformer: 51.281782962720946 kcal/mol)

>  <smiles>  (16) 
Cc1ccc(-c2ccc(=Nc3ccc(S(N)(=O)=O)cc3)[nH]n2)cc1

>  <score_type>  (16) 
oracle

>  <origin>  (16) 
adgpu

>  <m_score__min__energy>  (16) 
-9.6099999999999994

>  <m_primary>  (16) 
energy

$$$$
16:0
     RDKit          3D

 28 29  0  0  0  0  0  0  0  0999 V2000
   -2.2710   24.5450  -28.7880 C   0  0  0  0  0  0  0  0  0  0  0  0
   -3.1470   25.1730  -29.7180 O   0  0  0  0  0  0  0  0  0  0  0  0
   -4.3470   24.6140  -30.1810 C   0  0  0  0  0  0  0  0  0  0  0  0
   -5.5360   25.3140  -29.9500 C   0  0  0  0  0  0  0  0  0  0  0  0
   -6.7570   24.7960  -30.3820 C   0  0  0  0  0  0  0  0  0  0  0  0
   -6.8030   23.5740  -31.0580 C   0  0  0  0  0  0  0  0  0  0  0  0
   -5.6210   22.8570  -31.3160 C   0  0  0  0  0  0  0  0  0  0  0  0
   -5.6910   21.5570  -32.0320 C   0  0  0  0  0  0  0  0  0  0  0  0
   -4.6470   21.1100  -32.8580 C   0  0  0  0  0  0  0  0  0  0  0  0
   -4.7830   19.8810  -33.5040 C   0  0  0  0  0  0  0  0  0  0  0  0
   -5.9110   19.1460  -33.3370 N   0  0  0  0  0  0  0  0  0  0  0  0
   -6.9200   19.5910  -32.5440 C   0  0  0  0  0  0  0  0  0  0  0  0
   -8.4000   18.6080  -32.3430 S   0  0  0  0  0  0  0  0  0  0  0  0
   -9.4990   20.0580  -32.3360 C   0  0  0  0  0  0  0  0  0  0  0  0
   -6.8050   20.7840  -31.9030 N   0  0  0  0  0  0  0  0  0  0  0  0
   -4.3940   23.3820  -30.8630 C   0  0  0  0  0  0  0  0  0  0  0  0
   -2.5960   24.7780  -27.7633 H   0  0  0  0  0  0  0  0  0  0  0  0
   -2.2934   23.4559  -28.9411 H   0  0  0  0  0  0  0  0  0  0  0  0
   -1.2468   24.9158  -28.9411 H   0  0  0  0  0  0  0  0  0  0  0  0
   -5.5079   26.2797  -29.4240 H   0  0  0  0  0  0  0  0  0  0  0  0
   -7.6868   25.3514  -30.1898 H   0  0  0  0  0  0  0  0  0  0  0  0
   -7.7705   23.1700  -31.3907 H   0  0  0  0  0  0  0  0  0  0  0  0
   -3.7397   21.7171  -32.9930 H   0  0  0  0  0  0  0  0  0  0  0  0
   -3.9745   19.5074  -34.1496 H   0  0  0  0  0  0  0  0  0  0  0  0
   -9.7181   20.3470  -31.2975 H   0  0  0  0  0  0  0  0  0  0  0  0
   -9.0059   20.8943  -32.8531 H   0  0  0  0  0  0  0  0  0  0  0  0
  -10.4375   19.8093  -32.8531 H   0  0  0  0  0  0  0  0  0  0  0  0
   -3.4634   22.8241  -31.0438 H   0  0  0  0  0  0  0  0  0  0  0  0
  1  2  1  0
  2  3  1  0
  3  4  2  0
  4  5  1  0
  5  6  2  0
  6  7  1  0
  7  8  1  0
  8  9  2  0
  9 10  1  0
 10 11  2  0
 11 12  1  0
 12 13  1  0
 13 14  1  0
 12 15  2  0
  7 16  2  0
 16  3  1  0
 15  8  1  0
  1 17  1  0
  1 18  1  0
  1 19  1  0
  4 20  1  0
  5 21  1  0
  6 22  1  0
  9 23  1  0
 10 24  1  0
 14 25  1  0
 14 26  1  0
 14 27  1  0
 16 28  1  0
M  END
>  <UniqueID>  (17) 
17

>  <SMILES>  (17) 
COc1cccc(-c2ccnc(SC)n2)c1

>  <Energy>  (17) 
28.513233074617105

>  <Genealogy>  (17) 
COc1cccc(-c2ccnc(SC)n2)c1 (3D coordinates assigned)
COc1cccc(-c2ccnc(SC)n2)c1 (optimized conformer: 28.513233074617105 kcal/mol)

>  <smiles>  (17) 
COc1cccc(-c2ccnc(SC)n2)c1

>  <score_type>  (17) 
oracle

>  <origin>  (17) 
adgpu

>  <m_score__min__energy>  (17) 
-6.9299999999999997

>  <m_primary>  (17) 
energy

$$$$
17:0
     RDKit          3D

 43 45  0  0  0  0  0  0  0  0999 V2000
    0.2500   24.4180  -28.1930 C   0  0  0  0  0  0  0  0  0  0  0  0
   -1.2230   24.1860  -28.2990 C   0  0  0  0  0  0  0  0  0  0  0  0
   -1.8820   23.3860  -27.3580 C   0  0  0  0  0  0  0  0  0  0  0  0
   -3.2580   23.1890  -27.4740 C   0  0  0  0  0  0  0  0  0  0  0  0
   -3.9630   23.7800  -28.5240 C   0  0  0  0  0  0  0  0  0  0  0  0
   -3.2690   24.5660  -29.4690 C   0  0  0  0  0  0  0  0  0  0  0  0
   -3.8660   25.1500  -30.4700 N   0  0  0  0  0  0  0  0  0  0  0  0
   -5.2450   25.0210  -30.8500 C   0  0  0  0  0  0  0  0  0  0  0  0
   -5.9830   26.0410  -30.7880 O   0  0  0  0  0  0  0  0  0  0  0  0
   -5.7940   23.7500  -31.3820 C   0  0  0  0  0  0  0  0  0  0  0  0
   -7.1830   23.5330  -31.4370 C   0  0  0  0  0  0  0  0  0  0  0  0
   -7.6930   22.3310  -31.9340 C   0  0  0  0  0  0  0  0  0  0  0  0
   -6.8250   21.3300  -32.3760 C   0  0  0  0  0  0  0  0  0  0  0  0
   -5.4390   21.5280  -32.3250 C   0  0  0  0  0  0  0  0  0  0  0  0
   -4.3310   20.2640  -32.8510 S   0  0  0  0  0  0  0  0  0  0  0  0
   -3.5750   19.7580  -31.6540 O   0  0  0  0  0  0  0  0  0  0  0  0
   -3.3460   20.8230  -33.8410 O   0  0  0  0  0  0  0  0  0  0  0  0
   -5.2350   18.9580  -33.5740 N   0  0  0  0  0  0  0  0  0  0  0  0
   -4.3160   17.9930  -34.1960 C   0  0  0  0  0  0  0  0  0  0  0  0
   -5.0940   16.7740  -34.7340 C   0  0  0  0  0  0  0  0  0  0  0  0
   -6.4860   16.9050  -34.5190 O   0  0  0  0  0  0  0  0  0  0  0  0
   -6.7430   17.0400  -33.1340 C   0  0  0  0  0  0  0  0  0  0  0  0
   -6.0540   18.2910  -32.5490 C   0  0  0  0  0  0  0  0  0  0  0  0
   -4.9280   22.7320  -31.8200 C   0  0  0  0  0  0  0  0  0  0  0  0
   -1.9290   24.7500  -29.3180 N   0  0  0  0  0  0  0  0  0  0  0  0
    0.5386   24.4635  -27.1325 H   0  0  0  0  0  0  0  0  0  0  0  0
    0.7873   23.5934  -28.6842 H   0  0  0  0  0  0  0  0  0  0  0  0
    0.5079   25.3678  -28.6842 H   0  0  0  0  0  0  0  0  0  0  0  0
   -1.3207   22.9178  -26.5360 H   0  0  0  0  0  0  0  0  0  0  0  0
   -3.7881   22.5674  -26.7374 H   0  0  0  0  0  0  0  0  0  0  0  0
   -5.0496   23.6345  -28.6141 H   0  0  0  0  0  0  0  0  0  0  0  0
   -7.8723   24.3152  -31.0862 H   0  0  0  0  0  0  0  0  0  0  0  0
   -8.7807   22.1726  -31.9773 H   0  0  0  0  0  0  0  0  0  0  0  0
   -7.2304   20.3843  -32.7649 H   0  0  0  0  0  0  0  0  0  0  0  0
   -3.7877   18.4811  -35.0282 H   0  0  0  0  0  0  0  0  0  0  0  0
   -3.5960   17.6491  -33.4388 H   0  0  0  0  0  0  0  0  0  0  0  0
   -4.9074   16.6804  -35.8140 H   0  0  0  0  0  0  0  0  0  0  0  0
   -4.7465   15.8804  -34.1949 H   0  0  0  0  0  0  0  0  0  0  0  0
   -7.8287   17.1246  -32.9787 H   0  0  0  0  0  0  0  0  0  0  0  0
   -6.3414   16.1537  -32.6210 H   0  0  0  0  0  0  0  0  0  0  0  0
   -6.8218   18.9910  -32.1878 H   0  0  0  0  0  0  0  0  0  0  0  0
   -5.4012   17.9813  -31.7196 H   0  0  0  0  0  0  0  0  0  0  0  0
   -3.8396   22.8818  -31.7659 H   0  0  0  0  0  0  0  0  0  0  0  0
  1  2  1  0
  2  3  2  0
  3  4  1  0
  4  5  2  0
  5  6  1  0
  6  7  2  3
  7  8  1  0
  8  9  2  0
  8 10  1  0
 10 11  2  0
 11 12  1  0
 12 13  2  0
 13 14  1  0
 14 15  1  0
 15 16  2  0
 15 17  2  0
 15 18  1  0
 18 19  1  0
 19 20  1  0
 20 21  1  0
 21 22  1  0
 22 23  1  0
 14 24  2  0
  6 25  1  0
 25  2  1  0
 24 10  1  0
 23 18  1  0
  1 26  1  0
  1 27  1  0
  1 28  1  0
  3 29  1  0
  4 30  1  0
  5 31  1  0
 11 32  1  0
 12 33  1  0
 13 34  1  0
 19 35  1  0
 19 36  1  0
 20 37  1  0
 20 38  1  0
 22 39  1  0
 22 40  1  0
 23 41  1  0
 23 42  1  0
 24 43  1  0
M  CHG  1  25  -1
M  END
>  <UniqueID>  (18) 
18

>  <SMILES>  (18) 
Cc1cccc(=NC(=O)c2cccc(S(=O)(=O)N3CCOCC3)c2)[n-]1

>  <Energy>  (18) 
61.36860804951042

>  <Genealogy>  (18) 
Cc1cccc(=NC(=O)c2cccc(S(=O)(=O)N3CCOCC3)c2)[n-]1 (protonated)
Cc1cccc(=NC(=O)c2cccc(S(=O)(=O)N3CCOCC3)c2)[n-]1 (3D coordinates assigned)
Cc1cccc(=NC(=O)c2cccc(S(=O)(=O)N3CCOCC3)c2)[n-]1 (nonaromatic ring conformer: 61.36860804951042 kcal/mol)

>  <smiles>  (18) 
Cc1cccc(=NC(=O)c2cccc(S(=O)(=O)N3CCOCC3)c2)[nH]1

>  <score_type>  (18) 
oracle

>  <origin>  (18) 
adgpu

>  <m_score__min__energy>  (18) 
-10.710000000000001

>  <m_primary>  (18) 
energy

$$$$
18:0
     RDKit          3D

 73 77  0  0  0  0  0  0  0  0999 V2000
   -0.4670   21.5350  -34.4720 C   0  0  0  0  0  0  0  0  0  0  0  0
   -0.3560   20.2720  -33.6540 C   0  0  0  0  0  0  0  0  0  0  0  0
    0.6710   19.3570  -33.9270 C   0  0  0  0  0  0  0  0  0  0  0  0
    0.8120   18.1950  -33.1650 C   0  0  0  0  0  0  0  0  0  0  0  0
   -0.0790   17.9160  -32.1140 C   0  0  0  0  0  0  0  0  0  0  0  0
    0.0790   16.6910  -31.2920 C   0  0  0  0  0  0  0  0  0  0  0  0
   -0.1800   15.5620  -31.7890 O   0  0  0  0  0  0  0  0  0  0  0  0
    0.5570   16.7870  -29.9430 N   0  0  0  0  0  0  0  0  0  0  0  0
    0.5830   17.9680  -29.1230 C   0  0  0  0  0  0  0  0  0  0  0  0
    1.6650   18.8380  -29.2440 C   0  0  0  0  0  0  0  0  0  0  0  0
    1.6810   20.0480  -28.5550 C   0  0  0  0  0  0  0  0  0  0  0  0
    0.6100   20.4210  -27.7210 C   0  0  0  0  0  0  0  0  0  0  0  0
    0.6340   21.8080  -27.1110 C   0  0  0  0  0  0  0  0  0  0  0  0
   -0.6050   22.5620  -27.4060 N   0  0  0  0  0  0  0  0  0  0  0  0
   -0.5780   23.0250  -28.8140 C   0  0  0  0  0  0  0  0  0  0  0  0
   -1.5510   24.1980  -29.0850 C   0  0  0  0  0  0  0  0  0  0  0  0
   -2.6480   24.2690  -28.1000 N   0  0  0  0  0  0  0  0  0  0  0  0
   -3.6110   23.1620  -28.2630 C   0  0  0  0  0  0  0  0  0  0  0  0
   -2.1500   24.3750  -26.7070 C   0  0  0  0  0  0  0  0  0  0  0  0
   -0.7740   23.7060  -26.4900 C   0  0  0  0  0  0  0  0  0  0  0  0
   -0.4820   19.5240  -27.5530 C   0  0  0  0  0  0  0  0  0  0  0  0
   -1.7000   19.8800  -26.7210 C   0  0  0  0  0  0  0  0  0  0  0  0
   -1.3320   20.5820  -25.5900 F   0  0  0  0  0  0  0  0  0  0  0  0
   -2.5640   20.6510  -27.4760 F   0  0  0  0  0  0  0  0  0  0  0  0
   -2.3730   18.7440  -26.3020 F   0  0  0  0  0  0  0  0  0  0  0  0
   -0.4930   18.3200  -28.2900 C   0  0  0  0  0  0  0  0  0  0  0  0
   -1.1130   18.8300  -31.8420 C   0  0  0  0  0  0  0  0  0  0  0  0
   -1.2520   20.0070  -32.5950 C   0  0  0  0  0  0  0  0  0  0  0  0
   -2.3370   20.9450  -32.2520 C   0  0  0  0  0  0  0  0  0  0  0  0
   -2.0570   22.1390  -31.5850 C   0  0  0  0  0  0  0  0  0  0  0  0
   -3.0610   22.9990  -31.2740 N   0  0  0  0  0  0  0  0  0  0  0  0
   -4.3620   22.7370  -31.5820 C   0  0  0  0  0  0  0  0  0  0  0  0
   -4.6890   21.5360  -32.2490 C   0  0  0  0  0  0  0  0  0  0  0  0
   -3.6610   20.6470  -32.5890 C   0  0  0  0  0  0  0  0  0  0  0  0
   -6.1040   21.2430  -32.6810 C   0  0  0  0  0  0  0  0  0  0  0  0
   -7.1270   22.0580  -31.8850 C   0  0  0  0  0  0  0  0  0  0  0  0
   -6.7290   23.5340  -31.8440 C   0  0  0  0  0  0  0  0  0  0  0  0
   -5.3990   23.6830  -31.2410 N   0  0  0  0  0  0  0  0  0  0  0  0
   -5.1150   24.8590  -30.4630 C   0  0  0  0  0  0  0  0  0  0  0  0
   -5.8230   25.1310  -29.2540 N   0  0  0  0  0  0  0  0  0  0  0  0
   -4.2380   25.6760  -30.8570 O   0  0  0  0  0  0  0  0  0  0  0  0
   -0.5432   22.4020  -33.7993 H   0  0  0  0  0  0  0  0  0  0  0  0
    0.4253   21.6405  -35.1065 H   0  0  0  0  0  0  0  0  0  0  0  0
   -1.3641   21.4833  -35.1065 H   0  0  0  0  0  0  0  0  0  0  0  0
    1.3730   19.5565  -34.7500 H   0  0  0  0  0  0  0  0  0  0  0  0
    1.6276   17.4918  -33.3893 H   0  0  0  0  0  0  0  0  0  0  0  0
    2.5135   18.5666  -29.8892 H   0  0  0  0  0  0  0  0  0  0  0  0
    2.5432   20.7223  -28.6640 H   0  0  0  0  0  0  0  0  0  0  0  0
    0.7426   21.7150  -26.0203 H   0  0  0  0  0  0  0  0  0  0  0  0
    1.4802   22.3582  -27.5482 H   0  0  0  0  0  0  0  0  0  0  0  0
    0.4435   23.3544  -29.0549 H   0  0  0  0  0  0  0  0  0  0  0  0
   -0.8972   22.1813  -29.4434 H   0  0  0  0  0  0  0  0  0  0  0  0
   -0.9845   25.1402  -29.0490 H   0  0  0  0  0  0  0  0  0  0  0  0
   -2.0034   24.0320  -30.0738 H   0  0  0  0  0  0  0  0  0  0  0  0
   -3.9253   22.8007  -27.2727 H   0  0  0  0  0  0  0  0  0  0  0  0
   -4.4902   23.5197  -28.8189 H   0  0  0  0  0  0  0  0  0  0  0  0
   -3.1350   22.3408  -28.8189 H   0  0  0  0  0  0  0  0  0  0  0  0
   -2.0633   25.4407  -26.4487 H   0  0  0  0  0  0  0  0  0  0  0  0
   -2.8706   23.8467  -26.0654 H   0  0  0  0  0  0  0  0  0  0  0  0
    0.0206   24.4425  -26.6804 H   0  0  0  0  0  0  0  0  0  0  0  0
   -0.7146   23.3432  -25.4533 H   0  0  0  0  0  0  0  0  0  0  0  0
   -1.3585   17.6457  -28.2110 H   0  0  0  0  0  0  0  0  0  0  0  0
   -1.8225   18.6198  -31.0281 H   0  0  0  0  0  0  0  0  0  0  0  0
   -1.0203   22.3839  -31.3106 H   0  0  0  0  0  0  0  0  0  0  0  0
   -3.8956   19.7136  -33.1216 H   0  0  0  0  0  0  0  0  0  0  0  0
   -6.2075   21.4883  -33.7483 H   0  0  0  0  0  0  0  0  0  0  0  0
   -6.3016   20.1767  -32.4969 H   0  0  0  0  0  0  0  0  0  0  0  0
   -8.1138   21.9633  -32.3618 H   0  0  0  0  0  0  0  0  0  0  0  0
   -7.1618   21.6726  -30.8553 H   0  0  0  0  0  0  0  0  0  0  0  0
   -6.7105   23.9341  -32.8685 H   0  0  0  0  0  0  0  0  0  0  0  0
   -7.4621   24.0871  -31.2384 H   0  0  0  0  0  0  0  0  0  0  0  0
   -5.5330   25.9320  -28.6530 H   0  0  0  0  0  0  0  0  0  0  0  0
   -6.6700   24.5820  -28.9820 H   0  0  0  0  0  0  0  0  0  0  0  0
  1  2  1  0
  2  3  2  0
  3  4  1  0
  4  5  2  0
  5  6  1  0
  6  7  2  0
  6  8  1  0
  8  9  1  0
  9 10  2  0
 10 11  1  0
 11 12  2  0
 12 13  1  0
 13 14  1  0
 14 15  1  0
 15 16  1  0
 16 17  1  0
 17 18  1  0
 17 19  1  0
 19 20  1  0
 12 21  1  0
 21 22  1  0
 22 23  1  0
 22 24  1  0
 22 25  1  0
 21 26  2  0
  5 27  1  0
 27 28  2  0
 28 29  1  0
 29 30  2  0
 30 31  1  0
 31 32  2  0
 32 33  1  0
 33 34  2  0
 33 35  1  0
 35 36  1  0
 36 37  1  0
 37 38  1  0
 38 39  1  0
 39 40  1  0
 39 41  2  0
 28  2  1  0
 34 29  1  0
 26  9  1  0
 38 32  1  0
 20 14  1  0
  1 42  1  0
  1 43  1  0
  1 44  1  0
  3 45  1  0
  4 46  1  0
 10 47  1  0
 11 48  1  0
 13 49  1  0
 13 50  1  0
 15 51  1  0
 15 52  1  0
 16 53  1  0
 16 54  1  0
 18 55  1  0
 18 56  1  0
 18 57  1  0
 19 58  1  0
 19 59  1  0
 20 60  1  0
 20 61  1  0
 26 62  1  0
 27 63  1  0
 30 64  1  0
 34 65  1  0
 35 66  1  0
 35 67  1  0
 36 68  1  0
 36 69  1  0
 37 70  1  0
 37 71  1  0
 40 72  1  0
 40 73  1  0
M  CHG  1   8  -1
M  END
>  <UniqueID>  (19) 
19

>  <SMILES>  (19) 
Cc1ccc(C(=O)[N-]c2ccc(CN3CCN(C)CC3)c(C(F)(F)F)c2)cc1-c1cnc2c(c1)CCCN2C(N)=O

>  <Energy>  (19) 
107.60592370276294

>  <Genealogy>  (19) 
Cc1ccc(C(=O)[N-]c2ccc(CN3CCN(C)CC3)c(C(F)(F)F)c2)cc1-c1cnc2c(c1)CCCN2C(N)=O (protonated)
Cc1ccc(C(=O)[N-]c2ccc(CN3CCN(C)CC3)c(C(F)(F)F)c2)cc1-c1cnc2c(c1)CCCN2C(N)=O (3D coordinates assigned)
Cc1ccc(C(=O)[N-]c2ccc(CN3CCN(C)CC3)c(C(F)(F)F)c2)cc1-c1cnc2c(c1)CCCN2C(N)=O (nonaromatic ring conformer: 107.60592370276294 kcal/mol)

>  <smiles>  (19) 
Cc1ccc(C(=O)Nc2ccc(CN3CCN(C)CC3)c(C(F)(F)F)c2)cc1-c1cnc2c(c1)CCCN2C(N)=O

>  <score_type>  (19) 
oracle

>  <origin>  (19) 
adgpu

>  <m_score__min__energy>  (19) 
-12.49

>  <m_primary>  (19) 
energy

$$$$
19:0
     RDKit          3D

 31 33  0  0  0  0  0  0  0  0999 V2000
   -6.1460   19.3250  -33.6060 C   0  0  0  0  0  0  0  0  0  0  0  0
   -5.3250   20.4520  -33.0520 C   0  0  0  0  0  0  0  0  0  0  0  0
   -3.9360   20.4660  -33.1670 C   0  0  0  0  0  0  0  0  0  0  0  0
   -3.3480   21.8590  -32.4440 S   0  0  0  0  0  0  0  0  0  0  0  0
   -4.8440   22.4650  -31.9690 C   0  0  0  0  0  0  0  0  0  0  0  0
   -5.0710   23.7110  -31.2950 N   0  0  0  0  0  0  0  0  0  0  0  0
   -4.1080   24.4690  -30.5490 C   0  0  0  0  0  0  0  0  0  0  0  0
   -3.8940   25.6770  -30.8400 O   0  0  0  0  0  0  0  0  0  0  0  0
   -3.3340   23.8310  -29.4510 C   0  0  0  0  0  0  0  0  0  0  0  0
   -3.7410   22.5750  -28.9570 C   0  0  0  0  0  0  0  0  0  0  0  0
   -3.0410   21.9530  -27.9210 C   0  0  0  0  0  0  0  0  0  0  0  0
   -1.9190   22.5710  -27.3610 C   0  0  0  0  0  0  0  0  0  0  0  0
   -1.2140   21.9610  -26.3260 O   0  0  0  0  0  0  0  0  0  0  0  0
   -1.4990   23.8130  -27.8440 C   0  0  0  0  0  0  0  0  0  0  0  0
   -2.1920   24.4430  -28.8830 C   0  0  0  0  0  0  0  0  0  0  0  0
   -1.7220   25.6680  -29.3450 O   0  0  0  0  0  0  0  0  0  0  0  0
   -5.8500   21.5850  -32.3790 C   0  0  0  0  0  0  0  0  0  0  0  0
   -7.2930   21.8270  -32.1220 C   0  0  0  0  0  0  0  0  0  0  0  0
   -8.1360   20.8890  -31.6450 N   0  0  0  0  0  0  0  0  0  0  0  0
   -9.3020   21.5590  -31.5790 C   0  0  0  0  0  0  0  0  0  0  0  0
   -9.1800   22.8330  -31.9910 N   0  0  0  0  0  0  0  0  0  0  0  0
   -7.9140   23.0010  -32.3320 N   0  0  0  0  0  0  0  0  0  0  0  0
   -6.5721   18.7401  -32.7776 H   0  0  0  0  0  0  0  0  0  0  0  0
   -6.9598   19.7332  -34.2233 H   0  0  0  0  0  0  0  0  0  0  0  0
   -5.5080   18.6755  -34.2233 H   0  0  0  0  0  0  0  0  0  0  0  0
   -3.3259   19.6901  -33.6526 H   0  0  0  0  0  0  0  0  0  0  0  0
   -4.6207   22.0788  -29.3929 H   0  0  0  0  0  0  0  0  0  0  0  0
   -3.3733   20.9743  -27.5446 H   0  0  0  0  0  0  0  0  0  0  0  0
   -0.8080   22.5020  -25.5700 H   0  0  0  0  0  0  0  0  0  0  0  0
   -0.6161   24.2994  -27.4036 H   0  0  0  0  0  0  0  0  0  0  0  0
  -10.2455   21.1153  -31.2285 H   0  0  0  0  0  0  0  0  0  0  0  0
  1  2  1  0
  2  3  2  0
  3  4  1  0
  4  5  1  0
  5  6  1  0
  6  7  1  0
  7  8  2  0
  7  9  1  0
  9 10  2  0
 10 11  1  0
 11 12  2  0
 12 13  1  0
 12 14  1  0
 14 15  2  0
 15 16  1  0
  5 17  2  0
 17 18  1  0
 18 19  1  0
 19 20  2  0
 20 21  1  0
 21 22  1  0
 17  2  1  0
 22 18  2  0
 15  9  1  0
  1 23  1  0
  1 24  1  0
  1 25  1  0
  3 26  1  0
 10 27  1  0
 11 28  1  0
 13 29  1  0
 14 30  1  0
 20 31  1  0
M  CHG  3   6  -1  16  -1  21  -1
M  END
>  <UniqueID>  (20) 
20

>  <SMILES>  (20) 
Cc1csc([N-]C(=O)c2ccc(O)cc2[O-])c1-c1nc[n-]n1

>  <Energy>  (20) 
96.62224550195944

>  <Genealogy>  (20) 
Cc1csc([N-]C(=O)c2ccc(O)cc2[O-])c1-c1nc[n-]n1 (protonated)
Cc1csc([N-]C(=O)c2ccc(O)cc2[O-])c1-c1nc[n-]n1 (3D coordinates assigned)
Cc1csc([N-]C(=O)c2ccc(O)cc2[O-])c1-c1nc[n-]n1 (optimized conformer: 96.62224550195944 kcal/mol)

>  <smiles>  (20) 
Cc1csc(NC(=O)c2ccc(O)cc2O)c1-c1nc[nH]n1

>  <score_type>  (20) 
oracle

>  <origin>  (20) 
adgpu

>  <m_score__min__energy>  (20) 
-11.23

>  <m_primary>  (20) 
energy

$$$$
20:0
     RDKit          3D

 44 46  0  0  0  0  0  0  0  0999 V2000
    0.8120   18.7340  -32.9610 N   0  0  0  0  0  0  0  0  0  0  0  0
   -0.6940   19.4810  -33.3610 S   0  0  0  0  0  0  0  0  0  0  0  0
   -1.7340   18.4010  -33.4640 O   0  0  0  0  0  0  0  0  0  0  0  0
   -0.5840   20.1680  -34.6930 O   0  0  0  0  0  0  0  0  0  0  0  0
   -1.1660   20.6600  -32.1180 C   0  0  0  0  0  0  0  0  0  0  0  0
   -0.1820   21.0680  -31.2030 C   0  0  0  0  0  0  0  0  0  0  0  0
   -0.4640   22.0090  -30.2140 C   0  0  0  0  0  0  0  0  0  0  0  0
   -1.7390   22.5800  -30.1280 C   0  0  0  0  0  0  0  0  0  0  0  0
   -2.0740   23.5460  -29.1200 N   0  0  0  0  0  0  0  0  0  0  0  0
   -2.3920   24.9270  -29.3320 C   0  0  0  0  0  0  0  0  0  0  0  0
   -1.6110   25.8310  -28.9330 O   0  0  0  0  0  0  0  0  0  0  0  0
   -3.5440   25.2970  -30.0970 N   0  0  0  0  0  0  0  0  0  0  0  0
   -4.6830   24.4670  -30.3630 C   0  0  0  0  0  0  0  0  0  0  0  0
   -5.1450   23.5190  -29.4320 C   0  0  0  0  0  0  0  0  0  0  0  0
   -6.2740   22.7450  -29.7170 C   0  0  0  0  0  0  0  0  0  0  0  0
   -6.9570   22.9050  -30.9260 C   0  0  0  0  0  0  0  0  0  0  0  0
   -8.0920   22.1170  -31.1690 O   0  0  0  0  0  0  0  0  0  0  0  0
   -8.0810   20.8070  -31.6690 C   0  0  0  0  0  0  0  0  0  0  0  0
   -7.0940   20.3600  -32.5680 C   0  0  0  0  0  0  0  0  0  0  0  0
   -7.1080   19.0400  -33.0300 C   0  0  0  0  0  0  0  0  0  0  0  0
   -8.0990   18.1560  -32.5940 C   0  0  0  0  0  0  0  0  0  0  0  0
   -9.0710   18.5890  -31.6870 C   0  0  0  0  0  0  0  0  0  0  0  0
   -9.0580   19.9070  -31.2230 C   0  0  0  0  0  0  0  0  0  0  0  0
   -6.5220   23.8830  -31.8380 C   0  0  0  0  0  0  0  0  0  0  0  0
   -5.3950   24.6590  -31.5530 C   0  0  0  0  0  0  0  0  0  0  0  0
   -2.7390   22.1550  -31.0060 C   0  0  0  0  0  0  0  0  0  0  0  0
   -2.4860   21.1840  -31.9980 C   0  0  0  0  0  0  0  0  0  0  0  0
   -3.6140   20.8000  -32.9410 C   0  0  0  0  0  0  0  0  0  0  0  0
   -3.1070   20.6090  -34.2120 F   0  0  0  0  0  0  0  0  0  0  0  0
   -4.5770   21.7930  -33.0060 F   0  0  0  0  0  0  0  0  0  0  0  0
   -4.2460   19.6480  -32.5170 F   0  0  0  0  0  0  0  0  0  0  0  0
    0.6410   17.7050  -32.9280 H   0  0  0  0  0  0  0  0  0  0  0  0
    0.8283   20.6378  -31.2678 H   0  0  0  0  0  0  0  0  0  0  0  0
    0.3181   22.3038  -29.4988 H   0  0  0  0  0  0  0  0  0  0  0  0
   -4.6163   23.3862  -28.4766 H   0  0  0  0  0  0  0  0  0  0  0  0
   -6.6274   22.0046  -28.9843 H   0  0  0  0  0  0  0  0  0  0  0  0
   -6.3090   21.0514  -32.9082 H   0  0  0  0  0  0  0  0  0  0  0  0
   -6.3383   18.6972  -33.7372 H   0  0  0  0  0  0  0  0  0  0  0  0
   -8.1142   17.1203  -32.9642 H   0  0  0  0  0  0  0  0  0  0  0  0
   -9.8467   17.8914  -31.3383 H   0  0  0  0  0  0  0  0  0  0  0  0
   -9.8198   20.2402  -30.5028 H   0  0  0  0  0  0  0  0  0  0  0  0
   -7.0705   24.0378  -32.7788 H   0  0  0  0  0  0  0  0  0  0  0  0
   -5.0651   25.4262  -32.2689 H   0  0  0  0  0  0  0  0  0  0  0  0
   -3.7470   22.5873  -30.9221 H   0  0  0  0  0  0  0  0  0  0  0  0
  1  2  1  0
  2  3  2  0
  2  4  2  0
  2  5  1  0
  5  6  2  0
  6  7  1  0
  7  8  2  0
  8  9  1  0
  9 10  1  0
 10 11  2  0
 10 12  1  0
 12 13  1  0
 13 14  2  0
 14 15  1  0
 15 16  2  0
 16 17  1  0
 17 18  1  0
 18 19  2  0
 19 20  1  0
 20 21  2  0
 21 22  1  0
 22 23  2  0
 16 24  1  0
 24 25  2  0
  8 26  1  0
 26 27  2  0
 27 28  1  0
 28 29  1  0
 28 30  1  0
 28 31  1  0
 27  5  1  0
 25 13  1  0
 23 18  1  0
  1 32  1  0
  6 33  1  0
  7 34  1  0
 14 35  1  0
 15 36  1  0
 19 37  1  0
 20 38  1  0
 21 39  1  0
 22 40  1  0
 23 41  1  0
 24 42  1  0
 25 43  1  0
 26 44  1  0
M  CHG  3   1  -1   9  -1  12  -1
M  END
>  <UniqueID>  (21) 
21

>  <SMILES>  (21) 
[NH-]S(=O)(=O)c1ccc([N-]C(=O)[N-]c2ccc(Oc3ccccc3)cc2)cc1C(F)(F)F

>  <Energy>  (21) 
65.12384344316389

>  <Genealogy>  (21) 
[NH-]S(=O)(=O)c1ccc([N-]C(=O)[N-]c2ccc(Oc3ccccc3)cc2)cc1C(F)(F)F (protonated)
[NH-]S(=O)(=O)c1ccc([N-]C(=O)[N-]c2ccc(Oc3ccccc3)cc2)cc1C(F)(F)F (3D coordinates assigned)
[NH-]S(=O)(=O)c1ccc([N-]C(=O)[N-]c2ccc(Oc3ccccc3)cc2)cc1C(F)(F)F (optimized conformer: 65.12384344316389 kcal/mol)

>  <smiles>  (21) 
NS(=O)(=O)c1ccc(NC(=O)Nc2ccc(Oc3ccccc3)cc2)cc1C(F)(F)F

>  <score_type>  (21) 
oracle

>  <origin>  (21) 
adgpu

>  <m_score__min__energy>  (21) 
-11.02

>  <m_primary>  (21) 
energy

$$$$
21:0
     RDKit          3D

 51 53  0  0  0  0  0  0  0  0999 V2000
   -6.8550   17.0370  -33.8610 C   0  0  0  0  0  0  0  0  0  0  0  0
   -6.4390   18.1560  -32.9640 C   0  0  0  0  0  0  0  0  0  0  0  0
   -6.1820   17.9140  -31.7540 O   0  0  0  0  0  0  0  0  0  0  0  0
   -6.4280   19.5030  -33.4620 N   0  0  0  0  0  0  0  0  0  0  0  0
   -5.9230   20.6340  -32.7290 C   0  0  0  0  0  0  0  0  0  0  0  0
   -6.7170   21.2170  -31.7310 C   0  0  0  0  0  0  0  0  0  0  0  0
   -6.2530   22.3200  -31.0090 C   0  0  0  0  0  0  0  0  0  0  0  0
   -4.9950   22.8650  -31.2880 C   0  0  0  0  0  0  0  0  0  0  0  0
   -4.3940   24.2140  -30.3280 S   0  0  0  0  0  0  0  0  0  0  0  0
   -4.4440   25.4810  -31.1340 O   0  0  0  0  0  0  0  0  0  0  0  0
   -5.2440   24.3950  -29.1020 O   0  0  0  0  0  0  0  0  0  0  0  0
   -2.7510   23.8920  -29.8910 N   0  0  0  0  0  0  0  0  0  0  0  0
   -2.4060   22.9540  -28.8680 C   0  0  0  0  0  0  0  0  0  0  0  0
   -3.0790   21.7250  -28.7900 C   0  0  0  0  0  0  0  0  0  0  0  0
   -2.7680   20.8140  -27.7780 C   0  0  0  0  0  0  0  0  0  0  0  0
   -1.7900   21.1250  -26.8330 C   0  0  0  0  0  0  0  0  0  0  0  0
   -1.1160   22.3460  -26.9010 C   0  0  0  0  0  0  0  0  0  0  0  0
   -1.4090   23.2660  -27.9200 C   0  0  0  0  0  0  0  0  0  0  0  0
   -0.4820   24.7710  -28.0000 S   0  0  0  0  0  0  0  0  0  0  0  0
    0.8870   24.5230  -28.5690 O   0  0  0  0  0  0  0  0  0  0  0  0
   -1.2160   25.7400  -28.8840 O   0  0  0  0  0  0  0  0  0  0  0  0
   -0.3120   25.4460  -26.3970 N   0  0  0  0  0  0  0  0  0  0  0  0
    0.5810   26.6340  -26.4090 C   0  0  0  0  0  0  0  0  0  0  0  0
   -0.1840   27.9630  -26.3550 C   0  0  0  0  0  0  0  0  0  0  0  0
   -1.0720   28.0470  -25.1010 C   0  0  0  0  0  0  0  0  0  0  0  0
   -1.5780   26.6700  -24.6370 C   0  0  0  0  0  0  0  0  0  0  0  0
   -1.6490   25.6870  -25.8110 C   0  0  0  0  0  0  0  0  0  0  0  0
   -4.2040   22.3000  -32.2980 C   0  0  0  0  0  0  0  0  0  0  0  0
   -4.6680   21.1970  -33.0210 C   0  0  0  0  0  0  0  0  0  0  0  0
   -7.1742   16.1783  -33.2521 H   0  0  0  0  0  0  0  0  0  0  0  0
   -7.6905   17.3672  -34.4958 H   0  0  0  0  0  0  0  0  0  0  0  0
   -6.0068   16.7412  -34.4958 H   0  0  0  0  0  0  0  0  0  0  0  0
   -6.9080   19.6860  -34.3730 H   0  0  0  0  0  0  0  0  0  0  0  0
   -7.7129   20.8029  -31.5147 H   0  0  0  0  0  0  0  0  0  0  0  0
   -6.8787   22.7610  -30.2190 H   0  0  0  0  0  0  0  0  0  0  0  0
   -3.8551   21.4780  -29.5294 H   0  0  0  0  0  0  0  0  0  0  0  0
   -3.2950   19.8499  -27.7260 H   0  0  0  0  0  0  0  0  0  0  0  0
   -1.5497   20.4081  -26.0340 H   0  0  0  0  0  0  0  0  0  0  0  0
   -0.3495   22.5888  -26.1503 H   0  0  0  0  0  0  0  0  0  0  0  0
    1.2487   26.5788  -25.5366 H   0  0  0  0  0  0  0  0  0  0  0  0
    1.1390   26.6152  -27.3568 H   0  0  0  0  0  0  0  0  0  0  0  0
    0.5388   28.7920  -26.3383 H   0  0  0  0  0  0  0  0  0  0  0  0
   -0.8303   28.0277  -27.2428 H   0  0  0  0  0  0  0  0  0  0  0  0
   -0.4881   28.5000  -24.2862 H   0  0  0  0  0  0  0  0  0  0  0  0
   -1.9522   28.6546  -25.3579 H   0  0  0  0  0  0  0  0  0  0  0  0
   -0.8910   26.2721  -23.8756 H   0  0  0  0  0  0  0  0  0  0  0  0
   -2.5883   26.7904  -24.2190 H   0  0  0  0  0  0  0  0  0  0  0  0
   -2.0600   24.7315  -25.4530 H   0  0  0  0  0  0  0  0  0  0  0  0
   -2.2934   26.1233  -26.5884 H   0  0  0  0  0  0  0  0  0  0  0  0
   -3.2149   22.7259  -32.5225 H   0  0  0  0  0  0  0  0  0  0  0  0
   -4.0484   20.7676  -33.8220 H   0  0  0  0  0  0  0  0  0  0  0  0
  1  2  1  0
  2  3  2  0
  2  4  1  0
  4  5  1  0
  5  6  2  0
  6  7  1  0
  7  8  2  0
  8  9  1  0
  9 10  2  0
  9 11  2  0
  9 12  1  0
 12 13  1  0
 13 14  2  0
 14 15  1  0
 15 16  2  0
 16 17  1  0
 17 18  2  0
 18 19  1  0
 19 20  2  0
 19 21  2  0
 19 22  1  0
 22 23  1  0
 23 24  1  0
 24 25  1  0
 25 26  1  0
 26 27  1  0
  8 28  1  0
 28 29  2  0
 29  5  1  0
 18 13  1  0
 27 22  1  0
  1 30  1  0
  1 31  1  0
  1 32  1  0
  4 33  1  0
  6 34  1  0
  7 35  1  0
 14 36  1  0
 15 37  1  0
 16 38  1  0
 17 39  1  0
 23 40  1  0
 23 41  1  0
 24 42  1  0
 24 43  1  0
 25 44  1  0
 25 45  1  0
 26 46  1  0
 26 47  1  0
 27 48  1  0
 27 49  1  0
 28 50  1  0
 29 51  1  0
M  CHG  1  12  -1
M  END
>  <UniqueID>  (22) 
22

>  <SMILES>  (22) 
CC(=O)Nc1ccc(S(=O)(=O)[N-]c2ccccc2S(=O)(=O)N2CCCCC2)cc1

>  <Energy>  (22) 
63.093297244499674

>  <Genealogy>  (22) 
CC(=O)Nc1ccc(S(=O)(=O)[N-]c2ccccc2S(=O)(=O)N2CCCCC2)cc1 (protonated)
CC(=O)Nc1ccc(S(=O)(=O)[N-]c2ccccc2S(=O)(=O)N2CCCCC2)cc1 (3D coordinates assigned)
CC(=O)Nc1ccc(S(=O)(=O)[N-]c2ccccc2S(=O)(=O)N2CCCCC2)cc1 (nonaromatic ring conformer: 63.093297244499674 kcal/mol)

>  <smiles>  (22) 
CC(=O)Nc1ccc(S(=O)(=O)Nc2ccccc2S(=O)(=O)N2CCCCC2)cc1

>  <score_type>  (22) 
oracle

>  <origin>  (22) 
adgpu

>  <m_score__min__energy>  (22) 
-11.82

>  <m_primary>  (22) 
energy

$$$$
22:0
     RDKit          3D

 53 56  0  0  0  0  0  0  0  0999 V2000
   -2.4980   24.9380  -29.4750 N   0  0  0  0  0  0  0  0  0  0  0  0
   -3.9810   24.3290  -30.1200 S   0  0  0  0  0  0  0  0  0  0  0  0
   -4.8620   23.8630  -28.9950 O   0  0  0  0  0  0  0  0  0  0  0  0
   -4.6770   25.4340  -30.8660 O   0  0  0  0  0  0  0  0  0  0  0  0
   -3.6360   22.9780  -31.1970 C   0  0  0  0  0  0  0  0  0  0  0  0
   -4.5160   22.6470  -32.2370 C   0  0  0  0  0  0  0  0  0  0  0  0
   -4.2000   21.6090  -33.1180 C   0  0  0  0  0  0  0  0  0  0  0  0
   -2.9920   20.9060  -32.9800 C   0  0  0  0  0  0  0  0  0  0  0  0
   -2.6310   19.8130  -33.9510 C   0  0  0  0  0  0  0  0  0  0  0  0
   -1.9710   18.6180  -33.2520 C   0  0  0  0  0  0  0  0  0  0  0  0
   -2.9660   17.7000  -32.7040 N   0  0  0  0  0  0  0  0  0  0  0  0
   -4.3720   17.9440  -32.8260 C   0  0  0  0  0  0  0  0  0  0  0  0
   -4.9930   18.9910  -32.3450 O   0  0  0  0  0  0  0  0  0  0  0  0
   -6.2680   18.8390  -32.6360 C   0  0  0  0  0  0  0  0  0  0  0  0
   -7.3130   19.8100  -32.2530 C   0  0  0  0  0  0  0  0  0  0  0  0
   -8.6300   19.6480  -32.7170 C   0  0  0  0  0  0  0  0  0  0  0  0
   -9.6220   20.5660  -32.3530 C   0  0  0  0  0  0  0  0  0  0  0  0
   -9.3060   21.6520  -31.5340 C   0  0  0  0  0  0  0  0  0  0  0  0
   -8.0000   21.8250  -31.0760 C   0  0  0  0  0  0  0  0  0  0  0  0
   -7.0040   20.9080  -31.4290 C   0  0  0  0  0  0  0  0  0  0  0  0
   -6.5170   17.6940  -33.3170 N   0  0  0  0  0  0  0  0  0  0  0  0
   -5.2980   17.1340  -33.4370 C   0  0  0  0  0  0  0  0  0  0  0  0
   -5.0010   15.5970  -34.2260 S   0  0  0  0  0  0  0  0  0  0  0  0
   -4.2130   15.8200  -35.4840 O   0  0  0  0  0  0  0  0  0  0  0  0
   -6.3100   14.9620  -34.5940 O   0  0  0  0  0  0  0  0  0  0  0  0
   -4.1320   14.5270  -33.1320 C   0  0  0  0  0  0  0  0  0  0  0  0
   -2.7460   14.3720  -33.2710 C   0  0  0  0  0  0  0  0  0  0  0  0
   -2.0360   13.5680  -32.3720 C   0  0  0  0  0  0  0  0  0  0  0  0
   -2.7090   12.9060  -31.3420 C   0  0  0  0  0  0  0  0  0  0  0  0
   -4.0970   13.0350  -31.2170 C   0  0  0  0  0  0  0  0  0  0  0  0
   -4.8090   13.8400  -32.1120 C   0  0  0  0  0  0  0  0  0  0  0  0
   -2.1310   21.2170  -31.9160 C   0  0  0  0  0  0  0  0  0  0  0  0
   -2.4520   22.2520  -31.0320 C   0  0  0  0  0  0  0  0  0  0  0  0
   -2.7290   25.7910  -28.9180 H   0  0  0  0  0  0  0  0  0  0  0  0
   -5.4561   23.2048  -32.3597 H   0  0  0  0  0  0  0  0  0  0  0  0
   -4.9004   21.3415  -33.9229 H   0  0  0  0  0  0  0  0  0  0  0  0
   -3.5464   19.4687  -34.4544 H   0  0  0  0  0  0  0  0  0  0  0  0
   -1.9104   20.2245  -34.6731 H   0  0  0  0  0  0  0  0  0  0  0  0
   -1.3490   18.0771  -33.9804 H   0  0  0  0  0  0  0  0  0  0  0  0
   -1.3599   18.9997  -32.4208 H   0  0  0  0  0  0  0  0  0  0  0  0
   -2.6320   16.8440  -32.2070 H   0  0  0  0  0  0  0  0  0  0  0  0
   -8.8817   18.7976  -33.3678 H   0  0  0  0  0  0  0  0  0  0  0  0
  -10.6527   20.4317  -32.7129 H   0  0  0  0  0  0  0  0  0  0  0  0
  -10.0878   22.3717  -31.2498 H   0  0  0  0  0  0  0  0  0  0  0  0
   -7.7525   22.6845  -30.4357 H   0  0  0  0  0  0  0  0  0  0  0  0
   -5.9765   21.0458  -31.0613 H   0  0  0  0  0  0  0  0  0  0  0  0
   -2.2154   14.8830  -34.0879 H   0  0  0  0  0  0  0  0  0  0  0  0
   -0.9466   13.4571  -32.4765 H   0  0  0  0  0  0  0  0  0  0  0  0
   -2.1480   12.2835  -30.6294 H   0  0  0  0  0  0  0  0  0  0  0  0
   -4.6283   12.5028  -30.4142 H   0  0  0  0  0  0  0  0  0  0  0  0
   -5.9007   13.9349  -32.0166 H   0  0  0  0  0  0  0  0  0  0  0  0
   -1.2016   20.6453  -31.7772 H   0  0  0  0  0  0  0  0  0  0  0  0
   -1.7706   22.4961  -30.2037 H   0  0  0  0  0  0  0  0  0  0  0  0
  1  2  1  0
  2  3  2  0
  2  4  2  0
  2  5  1  0
  5  6  2  0
  6  7  1  0
  7  8  2  0
  8  9  1  0
  9 10  1  0
 10 11  1  0
 11 12  1  0
 12 13  1  0
 13 14  1  0
 14 15  1  0
 15 16  2  0
 16 17  1  0
 17 18  2  0
 18 19  1  0
 19 20  2  0
 14 21  2  0
 21 22  1  0
 22 23  1  0
 23 24  2  0
 23 25  2  0
 23 26  1  0
 26 27  2  0
 27 28  1  0
 28 29  2  0
 29 30  1  0
 30 31  2  0
  8 32  1  0
 32 33  2  0
 33  5  1  0
 22 12  2  0
 31 26  1  0
 20 15  1  0
  1 34  1  0
  6 35  1  0
  7 36  1  0
  9 37  1  0
  9 38  1  0
 10 39  1  0
 10 40  1  0
 11 41  1  0
 16 42  1  0
 17 43  1  0
 18 44  1  0
 19 45  1  0
 20 46  1  0
 27 47  1  0
 28 48  1  0
 29 49  1  0
 30 50  1  0
 31 51  1  0
 32 52  1  0
 33 53  1  0
M  CHG  1   1  -1
M  END
>  <UniqueID>  (23) 
23

>  <SMILES>  (23) 
[NH-]S(=O)(=O)c1ccc(CCNc2oc(-c3ccccc3)nc2S(=O)(=O)c2ccccc2)cc1

>  <Energy>  (23) 
79.13238491058337

>  <Genealogy>  (23) 
[NH-]S(=O)(=O)c1ccc(CCNc2oc(-c3ccccc3)nc2S(=O)(=O)c2ccccc2)cc1 (protonated)
[NH-]S(=O)(=O)c1ccc(CCNc2oc(-c3ccccc3)nc2S(=O)(=O)c2ccccc2)cc1 (3D coordinates assigned)
[NH-]S(=O)(=O)c1ccc(CCNc2oc(-c3ccccc3)nc2S(=O)(=O)c2ccccc2)cc1 (optimized conformer: 79.13238491058337 kcal/mol)

>  <smiles>  (23) 
NS(=O)(=O)c1ccc(CCNc2oc(-c3ccccc3)nc2S(=O)(=O)c2ccccc2)cc1

>  <score_type>  (23) 
oracle

>  <origin>  (23) 
adgpu

>  <m_score__min__energy>  (23) 
-11.880000000000001

>  <m_primary>  (23) 
energy

$$$$
23:0
     RDKit          3D

 36 38  0  0  0  0  0  0  0  0999 V2000
   -1.0093   20.5722  -28.5156 H   0  0  0  0  0  0  0  0  0  0  0  0
   -1.6310   21.4760  -28.4340 C   0  0  0  0  0  0  0  0  0  0  0  0
   -1.4310   22.5950  -29.0940 O   0  0  0  0  0  0  0  0  0  0  0  0
   -2.3600   23.4560  -28.7520 C   0  0  0  0  0  0  0  0  0  0  0  0
   -2.4550   24.8170  -29.2890 C   0  0  0  0  0  0  0  0  0  0  0  0
   -1.5900   25.6720  -28.9580 O   0  0  0  0  0  0  0  0  0  0  0  0
   -3.4920   25.1470  -30.2220 N   0  0  0  0  0  0  0  0  0  0  0  0
   -4.6000   24.3160  -30.5990 C   0  0  0  0  0  0  0  0  0  0  0  0
   -5.9240   24.6280  -30.2390 C   0  0  0  0  0  0  0  0  0  0  0  0
   -6.1353   25.5426  -29.6655 H   0  0  0  0  0  0  0  0  0  0  0  0
   -6.9720   23.7790  -30.6080 C   0  0  0  0  0  0  0  0  0  0  0  0
   -8.0058   24.0324  -30.3302 H   0  0  0  0  0  0  0  0  0  0  0  0
   -6.7110   22.6070  -31.3300 C   0  0  0  0  0  0  0  0  0  0  0  0
   -8.0320   21.5360  -31.7810 S   0  0  0  0  0  0  0  0  0  0  0  0
   -9.1580   22.3600  -32.3390 O   0  0  0  0  0  0  0  0  0  0  0  0
   -8.4990   20.7790  -30.5680 O   0  0  0  0  0  0  0  0  0  0  0  0
   -7.4700   20.4090  -32.9760 N   0  0  0  0  0  0  0  0  0  0  0  0
   -6.9250   19.2480  -32.7470 C   0  0  0  0  0  0  0  0  0  0  0  0
   -6.5310   18.4670  -33.8400 C   0  0  0  0  0  0  0  0  0  0  0  0
   -6.6830   18.8355  -34.8652 H   0  0  0  0  0  0  0  0  0  0  0  0
   -5.9450   17.2200  -33.6240 C   0  0  0  0  0  0  0  0  0  0  0  0
   -5.6330   16.6015  -34.4785 H   0  0  0  0  0  0  0  0  0  0  0  0
   -5.7560   16.7600  -32.3220 C   0  0  0  0  0  0  0  0  0  0  0  0
   -5.2956   15.7775  -32.1408 H   0  0  0  0  0  0  0  0  0  0  0  0
   -6.1570   17.5590  -31.2510 C   0  0  0  0  0  0  0  0  0  0  0  0
   -6.0112   17.2049  -30.2198 H   0  0  0  0  0  0  0  0  0  0  0  0
   -6.7280   18.7750  -31.4750 N   0  0  0  0  0  0  0  0  0  0  0  0
   -7.0080   19.3290  -30.6370 H   0  0  0  0  0  0  0  0  0  0  0  0
   -5.3900   22.2790  -31.6600 C   0  0  0  0  0  0  0  0  0  0  0  0
   -5.1770   21.3509  -32.2107 H   0  0  0  0  0  0  0  0  0  0  0  0
   -4.3410   23.1270  -31.2920 C   0  0  0  0  0  0  0  0  0  0  0  0
   -3.3056   22.8585  -31.5485 H   0  0  0  0  0  0  0  0  0  0  0  0
   -3.2140   22.8870  -27.8260 C   0  0  0  0  0  0  0  0  0  0  0  0
   -4.0882   23.3559  -27.3508 H   0  0  0  0  0  0  0  0  0  0  0  0
   -2.7400   21.6080  -27.6230 C   0  0  0  0  0  0  0  0  0  0  0  0
   -3.1610   20.8463  -26.9502 H   0  0  0  0  0  0  0  0  0  0  0  0
  1  2  1  0
  2  3  1  0
  3  4  1  0
  4  5  1  0
  5  6  2  0
  5  7  1  0
  7  8  1  0
  8  9  2  0
  9 10  1  0
  9 11  1  0
 11 12  1  0
 11 13  2  0
 13 14  1  0
 14 15  2  0
 14 16  2  0
 14 17  1  0
 17 18  2  0
 18 19  1  0
 19 20  1  0
 19 21  2  0
 21 22  1  0
 21 23  1  0
 23 24  1  0
 23 25  2  0
 25 26  1  0
 25 27  1  0
 27 28  1  0
 13 29  1  0
 29 30  1  0
 29 31  2  0
 31 32  1  0
  4 33  2  0
 33 34  1  0
 33 35  1  0
 35 36  1  0
 35  2  2  0
 31  8  1  0
 27 18  1  0
M  CHG  1   7  -1
M  END
>  <UniqueID>  (24) 
24

>  <SMILES>  (24) 
O=C([N-]c1ccc(S(=O)(=O)/N=c2/cccc[nH]2)cc1)c1ccco1

>  <Energy>  (24) 
72.9834959313852

>  <Genealogy>  (24) 
O=C([N-]c1ccc(S(=O)(=O)N=c2cccc[nH]2)cc1)c1ccco1 (protonated)
O=C([N-]c1ccc(S(=O)(=O)/N=c2/cccc[nH]2)cc1)c1ccco1 (cis-trans isomerization)
O=C([N-]c1ccc(S(=O)(=O)/N=c2/cccc[nH]2)cc1)c1ccco1 (3D coordinates assigned)
O=C([N-]c1ccc(S(=O)(=O)/N=c2/cccc[nH]2)cc1)c1ccco1 (optimized conformer: 72.9834959313852 kcal/mol)

>  <smiles>  (24) 
O=C(Nc1ccc(S(=O)(=O)N=c2cccc[nH]2)cc1)c1ccco1

>  <score_type>  (24) 
oracle

>  <origin>  (24) 
adgpu

>  <m_score__min__energy>  (24) 
-9.9600000000000009

>  <m_primary>  (24) 
energy

$$$$
24:0
     RDKit          3D

 69 72  0  0  0  0  0  0  0  0999 V2000
   -6.4060   25.6290  -29.8470 C   0  0  0  0  0  0  0  0  0  0  0  0
   -6.2250   24.1990  -30.2880 C   0  0  0  0  0  0  0  0  0  0  0  0
   -7.3110   23.5020  -30.8420 C   0  0  0  0  0  0  0  0  0  0  0  0
   -7.1780   22.1630  -31.2430 C   0  0  0  0  0  0  0  0  0  0  0  0
   -8.3340   21.4500  -31.8200 C   0  0  0  0  0  0  0  0  0  0  0  0
   -9.3270   22.1080  -32.2380 O   0  0  0  0  0  0  0  0  0  0  0  0
   -8.3360   20.0260  -31.9570 N   0  0  0  0  0  0  0  0  0  0  0  0
   -9.2500   19.0160  -32.5150 C   0  0  0  0  0  0  0  0  0  0  0  0
   -8.3160   17.8600  -32.3700 C   0  0  0  0  0  0  0  0  0  0  0  0
   -7.4050   18.8930  -31.7970 C   0  0  0  0  0  0  0  0  0  0  0  0
   -5.9500   21.5130  -31.0650 C   0  0  0  0  0  0  0  0  0  0  0  0
   -4.8530   22.1910  -30.5250 C   0  0  0  0  0  0  0  0  0  0  0  0
   -3.6380   21.5050  -30.3920 O   0  0  0  0  0  0  0  0  0  0  0  0
   -2.6760   21.4180  -31.4100 C   0  0  0  0  0  0  0  0  0  0  0  0
   -3.0400   21.2110  -32.7540 C   0  0  0  0  0  0  0  0  0  0  0  0
   -2.0620   21.1440  -33.7490 C   0  0  0  0  0  0  0  0  0  0  0  0
   -0.7080   21.2760  -33.4140 C   0  0  0  0  0  0  0  0  0  0  0  0
    0.5180   21.1820  -34.6760 S   0  0  0  0  0  0  0  0  0  0  0  0
    1.8710   20.1720  -34.1190 C   0  0  0  0  0  0  0  0  0  0  0  0
    1.0220   22.5600  -35.0070 O   0  0  0  0  0  0  0  0  0  0  0  0
   -0.0800   20.5800  -35.9170 O   0  0  0  0  0  0  0  0  0  0  0  0
   -0.3390   21.4570  -32.0730 C   0  0  0  0  0  0  0  0  0  0  0  0
   -1.3190   21.5250  -31.0760 C   0  0  0  0  0  0  0  0  0  0  0  0
   -0.9530   21.7200  -29.7830 F   0  0  0  0  0  0  0  0  0  0  0  0
   -4.9900   23.5350  -30.1160 C   0  0  0  0  0  0  0  0  0  0  0  0
   -3.8770   24.2100  -29.4270 C   0  0  0  0  0  0  0  0  0  0  0  0
   -3.4300   25.2980  -29.8870 O   0  0  0  0  0  0  0  0  0  0  0  0
   -3.2850   23.6020  -28.2690 N   0  0  0  0  0  0  0  0  0  0  0  0
   -2.4900   24.3040  -27.2960 C   0  0  0  0  0  0  0  0  0  0  0  0
   -1.0830   24.2980  -27.3480 C   0  0  0  0  0  0  0  0  0  0  0  0
   -0.3380   25.0250  -26.4130 C   0  0  0  0  0  0  0  0  0  0  0  0
   -0.9840   25.7870  -25.4220 C   0  0  0  0  0  0  0  0  0  0  0  0
   -0.1970   26.5850  -24.4440 C   0  0  0  0  0  0  0  0  0  0  0  0
    0.2280   26.0300  -23.3450 N   0  0  0  0  0  0  0  0  0  0  0  0
    0.1300   27.9620  -24.7280 N   0  0  0  0  0  0  0  0  0  0  0  0
   -0.8420   28.8390  -25.3840 C   0  0  0  0  0  0  0  0  0  0  0  0
    1.4910   28.4510  -24.5050 C   0  0  0  0  0  0  0  0  0  0  0  0
   -2.3890   25.8090  -25.3880 C   0  0  0  0  0  0  0  0  0  0  0  0
   -3.1330   25.0740  -26.3160 C   0  0  0  0  0  0  0  0  0  0  0  0
   -6.4119   25.6758  -28.7480 H   0  0  0  0  0  0  0  0  0  0  0  0
   -5.5780   26.2401  -30.2356 H   0  0  0  0  0  0  0  0  0  0  0  0
   -7.3601   26.0146  -30.2356 H   0  0  0  0  0  0  0  0  0  0  0  0
   -8.2783   24.0116  -30.9633 H   0  0  0  0  0  0  0  0  0  0  0  0
  -10.1672   18.8981  -31.9193 H   0  0  0  0  0  0  0  0  0  0  0  0
   -9.6569   19.2085  -33.5187 H   0  0  0  0  0  0  0  0  0  0  0  0
   -8.6394   17.0731  -31.6727 H   0  0  0  0  0  0  0  0  0  0  0  0
   -8.0393   17.1870  -33.1949 H   0  0  0  0  0  0  0  0  0  0  0  0
   -7.1499   18.6980  -30.7449 H   0  0  0  0  0  0  0  0  0  0  0  0
   -6.4096   18.9932  -32.2542 H   0  0  0  0  0  0  0  0  0  0  0  0
   -5.8475   20.4565  -31.3535 H   0  0  0  0  0  0  0  0  0  0  0  0
   -4.1011   21.1013  -33.0223 H   0  0  0  0  0  0  0  0  0  0  0  0
   -2.3554   20.9873  -34.7975 H   0  0  0  0  0  0  0  0  0  0  0  0
    1.8897   20.1581  -33.0192 H   0  0  0  0  0  0  0  0  0  0  0  0
    1.7430   19.1468  -34.4966 H   0  0  0  0  0  0  0  0  0  0  0  0
    2.8175   20.5863  -34.4966 H   0  0  0  0  0  0  0  0  0  0  0  0
    0.7239   21.5458  -31.8040 H   0  0  0  0  0  0  0  0  0  0  0  0
   -3.4910   22.5890  -28.0930 H   0  0  0  0  0  0  0  0  0  0  0  0
   -0.5668   23.7188  -28.1277 H   0  0  0  0  0  0  0  0  0  0  0  0
    0.7610   25.0007  -26.4529 H   0  0  0  0  0  0  0  0  0  0  0  0
    0.7710   26.5710  -22.6400 H   0  0  0  0  0  0  0  0  0  0  0  0
    0.0530   25.0230  -23.1350 H   0  0  0  0  0  0  0  0  0  0  0  0
   -1.4303   29.3698  -24.6211 H   0  0  0  0  0  0  0  0  0  0  0  0
   -0.3113   29.5698  -26.0119 H   0  0  0  0  0  0  0  0  0  0  0  0
   -1.5146   28.2362  -26.0119 H   0  0  0  0  0  0  0  0  0  0  0  0
    1.6833   28.5201  -23.4241 H   0  0  0  0  0  0  0  0  0  0  0  0
    2.2101   27.7550  -24.9616 H   0  0  0  0  0  0  0  0  0  0  0  0
    1.6027   29.4455  -24.9616 H   0  0  0  0  0  0  0  0  0  0  0  0
   -2.9072   26.4090  -24.6255 H   0  0  0  0  0  0  0  0  0  0  0  0
   -4.2320   25.0999  -26.2771 H   0  0  0  0  0  0  0  0  0  0  0  0
  1  2  1  0
  2  3  2  0
  3  4  1  0
  4  5  1  0
  5  6  2  0
  5  7  1  0
  7  8  1  0
  8  9  1  0
  9 10  1  0
  4 11  2  0
 11 12  1  0
 12 13  1  0
 13 14  1  0
 14 15  2  0
 15 16  1  0
 16 17  2  0
 17 18  1  0
 18 19  1  0
 18 20  2  0
 18 21  2  0
 17 22  1  0
 22 23  2  0
 23 24  1  0
 12 25  2  0
 25 26  1  0
 26 27  2  0
 26 28  1  0
 28 29  1  0
 29 30  2  0
 30 31  1  0
 31 32  2  0
 32 33  1  0
 33 34  2  0
 33 35  1  0
 35 36  1  0
 35 37  1  0
 32 38  1  0
 38 39  2  0
 25  2  1  0
 39 29  1  0
 10  7  1  0
 23 14  1  0
  1 40  1  0
  1 41  1  0
  1 42  1  0
  3 43  1  0
  8 44  1  0
  8 45  1  0
  9 46  1  0
  9 47  1  0
 10 48  1  0
 10 49  1  0
 11 50  1  0
 15 51  1  0
 16 52  1  0
 19 53  1  0
 19 54  1  0
 19 55  1  0
 22 56  1  0
 28 57  1  0
 30 58  1  0
 31 59  1  0
 34 60  1  0
 34 61  1  0
 36 62  1  0
 36 63  1  0
 36 64  1  0
 37 65  1  0
 37 66  1  0
 37 67  1  0
 38 68  1  0
 39 69  1  0
M  CHG  1  34   1
M  END
>  <UniqueID>  (25) 
25

>  <SMILES>  (25) 
Cc1cc(C(=O)N2CCC2)cc(Oc2ccc(S(C)(=O)=O)cc2F)c1C(=O)Nc1ccc(C(=[NH2+])N(C)C)cc1

>  <Energy>  (25) 
138.23993778692608

>  <Genealogy>  (25) 
Cc1cc(C(=O)N2CCC2)cc(Oc2ccc(S(C)(=O)=O)cc2F)c1C(=O)Nc1ccc(C(=[NH2+])N(C)C)cc1 (protonated)
Cc1cc(C(=O)N2CCC2)cc(Oc2ccc(S(C)(=O)=O)cc2F)c1C(=O)Nc1ccc(C(=[NH2+])N(C)C)cc1 (3D coordinates assigned)
Cc1cc(C(=O)N2CCC2)cc(Oc2ccc(S(C)(=O)=O)cc2F)c1C(=O)Nc1ccc(C(=[NH2+])N(C)C)cc1 (nonaromatic ring conformer: 138.23993778692608 kcal/mol)

>  <smiles>  (25) 
Cc1cc(C(=O)N2CCC2)cc(Oc2ccc(S(C)(=O)=O)cc2F)c1C(=O)Nc1ccc(C(=N)N(C)C)cc1

>  <score_type>  (25) 
oracle

>  <origin>  (25) 
adgpu

>  <m_score__min__energy>  (25) 
-12.68

>  <m_primary>  (25) 
energy

$$$$
25:0
     RDKit          3D

 46 48  0  0  0  0  0  0  0  0999 V2000
   -1.6710   20.1080  -25.9560 C   0  0  0  0  0  0  0  0  0  0  0  0
   -1.2240   19.4100  -27.2050 C   0  0  0  0  0  0  0  0  0  0  0  0
   -0.9660   18.1790  -27.1540 O   0  0  0  0  0  0  0  0  0  0  0  0
   -1.0440   20.1070  -28.4450 N   0  0  0  0  0  0  0  0  0  0  0  0
   -1.6910   21.3220  -28.8470 C   0  0  0  0  0  0  0  0  0  0  0  0
   -3.0310   21.5890  -28.5190 C   0  0  0  0  0  0  0  0  0  0  0  0
   -3.6420   22.7690  -28.9530 C   0  0  0  0  0  0  0  0  0  0  0  0
   -2.9210   23.6990  -29.7240 C   0  0  0  0  0  0  0  0  0  0  0  0
   -3.5160   24.9110  -30.2070 N   0  0  0  0  0  0  0  0  0  0  0  0
   -4.8690   25.0790  -30.6530 C   0  0  0  0  0  0  0  0  0  0  0  0
   -5.3470   26.2380  -30.7960 O   0  0  0  0  0  0  0  0  0  0  0  0
   -5.6920   23.8930  -30.9960 C   0  0  0  0  0  0  0  0  0  0  0  0
   -7.0430   23.8300  -30.6200 C   0  0  0  0  0  0  0  0  0  0  0  0
   -7.8120   22.7140  -30.9440 C   0  0  0  0  0  0  0  0  0  0  0  0
   -7.2530   21.6420  -31.6460 C   0  0  0  0  0  0  0  0  0  0  0  0
   -8.4000   20.1520  -32.0350 Br  0  0  0  0  0  0  0  0  0  0  0  0
   -5.8960   21.6840  -32.0390 C   0  0  0  0  0  0  0  0  0  0  0  0
   -5.1850   20.3180  -32.9390 S   0  0  0  0  0  0  0  0  0  0  0  0
   -5.1750   19.1180  -32.0330 O   0  0  0  0  0  0  0  0  0  0  0  0
   -6.0710   20.0250  -34.1170 O   0  0  0  0  0  0  0  0  0  0  0  0
   -3.5590   20.5440  -33.5450 N   0  0  0  0  0  0  0  0  0  0  0  0
   -2.8960   19.2850  -33.8850 C   0  0  0  0  0  0  0  0  0  0  0  0
   -1.4180   19.4760  -33.6040 C   0  0  0  0  0  0  0  0  0  0  0  0
   -1.3430   20.5900  -32.5780 C   0  0  0  0  0  0  0  0  0  0  0  0
   -2.6950   21.2940  -32.6280 C   0  0  0  0  0  0  0  0  0  0  0  0
   -5.1300   22.8150  -31.7030 C   0  0  0  0  0  0  0  0  0  0  0  0
   -1.6030   23.4040  -30.0930 C   0  0  0  0  0  0  0  0  0  0  0  0
   -0.9930   22.2230  -29.6590 C   0  0  0  0  0  0  0  0  0  0  0  0
   -1.3143   19.5510  -25.0770 H   0  0  0  0  0  0  0  0  0  0  0  0
   -1.2570   21.1269  -25.9372 H   0  0  0  0  0  0  0  0  0  0  0  0
   -2.7697   20.1582  -25.9372 H   0  0  0  0  0  0  0  0  0  0  0  0
   -3.6019   20.8660  -27.9179 H   0  0  0  0  0  0  0  0  0  0  0  0
   -4.6909   22.9712  -28.6906 H   0  0  0  0  0  0  0  0  0  0  0  0
   -7.4968   24.6656  -30.0670 H   0  0  0  0  0  0  0  0  0  0  0  0
   -8.8697   22.6761  -30.6443 H   0  0  0  0  0  0  0  0  0  0  0  0
   -3.2961   18.4678  -33.2669 H   0  0  0  0  0  0  0  0  0  0  0  0
   -3.0657   19.0227  -34.9397 H   0  0  0  0  0  0  0  0  0  0  0  0
   -0.9805   18.5510  -33.2003 H   0  0  0  0  0  0  0  0  0  0  0  0
   -0.8569   19.7230  -34.5173 H   0  0  0  0  0  0  0  0  0  0  0  0
   -1.1641   20.1753  -31.5750 H   0  0  0  0  0  0  0  0  0  0  0  0
   -0.5174   21.2840  -32.7941 H   0  0  0  0  0  0  0  0  0  0  0  0
   -3.1436   21.3139  -31.6238 H   0  0  0  0  0  0  0  0  0  0  0  0
   -2.5750   22.3307  -32.9757 H   0  0  0  0  0  0  0  0  0  0  0  0
   -4.0714   22.8570  -31.9989 H   0  0  0  0  0  0  0  0  0  0  0  0
   -1.0436   24.1061  -30.7287 H   0  0  0  0  0  0  0  0  0  0  0  0
    0.0421   22.0008  -29.9577 H   0  0  0  0  0  0  0  0  0  0  0  0
  1  2  1  0
  2  3  2  0
  2  4  1  0
  4  5  1  0
  5  6  2  0
  6  7  1  0
  7  8  2  0
  8  9  1  0
  9 10  1  0
 10 11  2  0
 10 12  1  0
 12 13  2  0
 13 14  1  0
 14 15  2  0
 15 16  1  0
 15 17  1  0
 17 18  1  0
 18 19  2  0
 18 20  2  0
 18 21  1  0
 21 22  1  0
 22 23  1  0
 23 24  1  0
 24 25  1  0
 17 26  2  0
  8 27  1  0
 27 28  2  0
 28  5  1  0
 26 12  1  0
 25 21  1  0
  1 29  1  0
  1 30  1  0
  1 31  1  0
  6 32  1  0
  7 33  1  0
 13 34  1  0
 14 35  1  0
 22 36  1  0
 22 37  1  0
 23 38  1  0
 23 39  1  0
 24 40  1  0
 24 41  1  0
 25 42  1  0
 25 43  1  0
 26 44  1  0
 27 45  1  0
 28 46  1  0
M  CHG  2   4  -1   9  -1
M  END
>  <UniqueID>  (26) 
26

>  <SMILES>  (26) 
CC(=O)[N-]c1ccc([N-]C(=O)c2ccc(Br)c(S(=O)(=O)N3CCCC3)c2)cc1

>  <Energy>  (26) 
61.28327069916393

>  <Genealogy>  (26) 
CC(=O)[N-]c1ccc([N-]C(=O)c2ccc(Br)c(S(=O)(=O)N3CCCC3)c2)cc1 (protonated)
CC(=O)[N-]c1ccc([N-]C(=O)c2ccc(Br)c(S(=O)(=O)N3CCCC3)c2)cc1 (3D coordinates assigned)
CC(=O)[N-]c1ccc([N-]C(=O)c2ccc(Br)c(S(=O)(=O)N3CCCC3)c2)cc1 (nonaromatic ring conformer: 61.28327069916393 kcal/mol)

>  <smiles>  (26) 
CC(=O)Nc1ccc(NC(=O)c2ccc(Br)c(S(=O)(=O)N3CCCC3)c2)cc1

>  <score_type>  (26) 
oracle

>  <origin>  (26) 
adgpu

>  <m_score__min__energy>  (26) 
-11.449999999999999

>  <m_primary>  (26) 
energy

$$$$
26:0
     RDKit          3D

 51 53  0  0  0  0  0  0  0  0999 V2000
    0.4750   23.2320  -26.4080 C   0  0  0  0  0  0  0  0  0  0  0  0
   -0.4440   23.1890  -27.6010 C   0  0  0  0  0  0  0  0  0  0  0  0
   -0.5390   21.9800  -28.3080 C   0  0  0  0  0  0  0  0  0  0  0  0
   -1.3330   21.8760  -29.4450 C   0  0  0  0  0  0  0  0  0  0  0  0
   -2.0340   22.9880  -29.9250 C   0  0  0  0  0  0  0  0  0  0  0  0
   -2.8740   22.8820  -31.0890 N   0  0  0  0  0  0  0  0  0  0  0  0
   -2.6690   21.9290  -32.1410 C   0  0  0  0  0  0  0  0  0  0  0  0
   -1.6280   21.2190  -32.1650 O   0  0  0  0  0  0  0  0  0  0  0  0
   -3.6710   21.7860  -33.1550 N   0  0  0  0  0  0  0  0  0  0  0  0
   -4.9860   21.2350  -32.9890 C   0  0  0  0  0  0  0  0  0  0  0  0
   -5.2360   19.9410  -33.4630 C   0  0  0  0  0  0  0  0  0  0  0  0
   -6.4980   19.3590  -33.3040 C   0  0  0  0  0  0  0  0  0  0  0  0
   -7.5160   20.0630  -32.6530 C   0  0  0  0  0  0  0  0  0  0  0  0
   -9.0990   19.3320  -32.4510 Cl  0  0  0  0  0  0  0  0  0  0  0  0
   -7.2680   21.3450  -32.1540 C   0  0  0  0  0  0  0  0  0  0  0  0
   -6.0070   21.9290  -32.3130 C   0  0  0  0  0  0  0  0  0  0  0  0
   -1.9600   24.2030  -29.2250 C   0  0  0  0  0  0  0  0  0  0  0  0
   -2.6760   25.2960  -29.7050 O   0  0  0  0  0  0  0  0  0  0  0  0
   -1.1720   24.3240  -28.0550 C   0  0  0  0  0  0  0  0  0  0  0  0
   -1.1220   25.9040  -27.2150 S   0  0  0  0  0  0  0  0  0  0  0  0
   -2.4000   26.0780  -26.4450 O   0  0  0  0  0  0  0  0  0  0  0  0
   -1.0560   27.0330  -28.2050 O   0  0  0  0  0  0  0  0  0  0  0  0
    0.2470   26.0560  -26.0450 C   0  0  0  0  0  0  0  0  0  0  0  0
    1.1390   27.2760  -26.3690 C   0  0  0  0  0  0  0  0  0  0  0  0
    1.9100   27.7260  -25.1240 C   0  0  0  0  0  0  0  0  0  0  0  0
    0.9920   28.1990  -24.0580 N   0  0  0  0  0  0  0  0  0  0  0  0
    1.6660   28.1720  -22.7520 C   0  0  0  0  0  0  0  0  0  0  0  0
   -0.3120   27.4830  -24.0100 C   0  0  0  0  0  0  0  0  0  0  0  0
   -0.2210   26.0560  -24.5700 C   0  0  0  0  0  0  0  0  0  0  0  0
   -0.1217   23.2041  -25.4843 H   0  0  0  0  0  0  0  0  0  0  0  0
    1.1508   22.3645  -26.4343 H   0  0  0  0  0  0  0  0  0  0  0  0
    1.0669   24.1588  -26.4343 H   0  0  0  0  0  0  0  0  0  0  0  0
    0.0230   21.1018  -27.9574 H   0  0  0  0  0  0  0  0  0  0  0  0
   -1.4106   20.9129  -29.9707 H   0  0  0  0  0  0  0  0  0  0  0  0
   -3.6330   23.5880  -31.2220 H   0  0  0  0  0  0  0  0  0  0  0  0
   -4.4343   19.3784  -33.9638 H   0  0  0  0  0  0  0  0  0  0  0  0
   -6.6897   18.3474  -33.6911 H   0  0  0  0  0  0  0  0  0  0  0  0
   -8.0663   21.8958  -31.6351 H   0  0  0  0  0  0  0  0  0  0  0  0
   -5.8127   22.9334  -31.9086 H   0  0  0  0  0  0  0  0  0  0  0  0
    0.8645   25.1540  -26.1680 H   0  0  0  0  0  0  0  0  0  0  0  0
    1.8548   27.0012  -27.1578 H   0  0  0  0  0  0  0  0  0  0  0  0
    0.4985   28.1036  -26.7079 H   0  0  0  0  0  0  0  0  0  0  0  0
    2.4963   26.8779  -24.7406 H   0  0  0  0  0  0  0  0  0  0  0  0
    2.5683   28.5602  -25.4081 H   0  0  0  0  0  0  0  0  0  0  0  0
    0.9134   28.2021  -21.9503 H   0  0  0  0  0  0  0  0  0  0  0  0
    2.2585   27.2494  -22.6642 H   0  0  0  0  0  0  0  0  0  0  0  0
    2.3304   29.0443  -22.6642 H   0  0  0  0  0  0  0  0  0  0  0  0
   -0.6472   27.4305  -22.9636 H   0  0  0  0  0  0  0  0  0  0  0  0
   -1.0234   28.0424  -24.6353 H   0  0  0  0  0  0  0  0  0  0  0  0
    0.4966   25.4802  -23.9670 H   0  0  0  0  0  0  0  0  0  0  0  0
   -1.2221   25.6024  -24.5249 H   0  0  0  0  0  0  0  0  0  0  0  0
  1  2  1  0
  2  3  2  0
  3  4  1  0
  4  5  2  0
  5  6  1  0
  6  7  1  0
  7  8  2  0
  7  9  1  0
  9 10  1  0
 10 11  2  0
 11 12  1  0
 12 13  2  0
 13 14  1  0
 13 15  1  0
 15 16  2  0
  5 17  1  0
 17 18  1  0
 17 19  2  0
 19 20  1  0
 20 21  2  0
 20 22  2  0
 20 23  1  0
 23 24  1  0
 24 25  1  0
 25 26  1  0
 26 27  1  0
 26 28  1  0
 28 29  1  0
 19  2  1  0
 29 23  1  0
 16 10  1  0
  1 30  1  0
  1 31  1  0
  1 32  1  0
  3 33  1  0
  4 34  1  0
  6 35  1  0
 11 36  1  0
 12 37  1  0
 15 38  1  0
 16 39  1  0
 23 40  1  0
 24 41  1  0
 24 42  1  0
 25 43  1  0
 25 44  1  0
 27 45  1  0
 27 46  1  0
 27 47  1  0
 28 48  1  0
 28 49  1  0
 29 50  1  0
 29 51  1  0
M  CHG  2   9  -1  18  -1
M  END
>  <UniqueID>  (27) 
27

>  <SMILES>  (27) 
Cc1ccc(NC(=O)[N-]c2ccc(Cl)cc2)c([O-])c1S(=O)(=O)C1CCN(C)CC1

>  <Energy>  (27) 
69.93220042837027

>  <Genealogy>  (27) 
Cc1ccc(NC(=O)[N-]c2ccc(Cl)cc2)c([O-])c1S(=O)(=O)C1CCN(C)CC1 (protonated)
Cc1ccc(NC(=O)[N-]c2ccc(Cl)cc2)c([O-])c1S(=O)(=O)C1CCN(C)CC1 (3D coordinates assigned)
Cc1ccc(NC(=O)[N-]c2ccc(Cl)cc2)c([O-])c1S(=O)(=O)C1CCN(C)CC1 (nonaromatic ring conformer: 69.93220042837027 kcal/mol)

>  <smiles>  (27) 
Cc1ccc(NC(=O)Nc2ccc(Cl)cc2)c(O)c1S(=O)(=O)C1CCN(C)CC1

>  <score_type>  (27) 
oracle

>  <origin>  (27) 
adgpu

>  <m_score__min__energy>  (27) 
-13.32

>  <m_primary>  (27) 
energy

$$$$
27:0
     RDKit          3D

 54 56  0  0  0  0  0  0  0  0999 V2000
   -7.1340   17.5330  -32.7230 C   0  0  0  0  0  0  0  0  0  0  0  0
   -6.2000   17.2070  -33.8840 C   0  0  0  0  0  0  0  0  0  0  0  0
   -5.7420   18.4820  -34.6000 C   0  0  0  0  0  0  0  0  0  0  0  0
   -6.3400   19.6610  -33.9770 N   0  0  0  0  0  0  0  0  0  0  0  0
   -5.6000   20.5300  -33.1030 C   0  0  0  0  0  0  0  0  0  0  0  0
   -4.3550   20.3650  -32.9720 O   0  0  0  0  0  0  0  0  0  0  0  0
   -6.2680   21.6250  -32.3580 C   0  0  0  0  0  0  0  0  0  0  0  0
   -7.6720   21.6880  -32.3120 C   0  0  0  0  0  0  0  0  0  0  0  0
   -8.3130   22.7270  -31.6320 C   0  0  0  0  0  0  0  0  0  0  0  0
   -7.5640   23.7160  -30.9930 C   0  0  0  0  0  0  0  0  0  0  0  0
   -6.1640   23.6710  -31.0320 C   0  0  0  0  0  0  0  0  0  0  0  0
   -5.1990   24.9330  -30.2740 S   0  0  0  0  0  0  0  0  0  0  0  0
   -5.6320   26.2960  -30.7400 O   0  0  0  0  0  0  0  0  0  0  0  0
   -5.3640   24.8510  -28.7830 O   0  0  0  0  0  0  0  0  0  0  0  0
   -3.5390   24.6870  -30.6850 N   0  0  0  0  0  0  0  0  0  0  0  0
   -2.7420   23.7810  -29.9260 C   0  0  0  0  0  0  0  0  0  0  0  0
   -2.9720   22.4030  -30.0050 C   0  0  0  0  0  0  0  0  0  0  0  0
   -2.2220   21.5220  -29.2200 C   0  0  0  0  0  0  0  0  0  0  0  0
   -1.2520   22.0190  -28.3450 C   0  0  0  0  0  0  0  0  0  0  0  0
   -1.0180   23.3980  -28.2610 C   0  0  0  0  0  0  0  0  0  0  0  0
    0.1320   24.0220  -27.0830 S   0  0  0  0  0  0  0  0  0  0  0  0
    0.9970   22.8950  -26.5920 O   0  0  0  0  0  0  0  0  0  0  0  0
    1.0120   25.0600  -27.7270 O   0  0  0  0  0  0  0  0  0  0  0  0
   -0.7500   24.7110  -25.7450 N   0  0  0  0  0  0  0  0  0  0  0  0
   -1.3720   25.9790  -26.1180 C   0  0  0  0  0  0  0  0  0  0  0  0
   -1.5440   26.7620  -24.8290 C   0  0  0  0  0  0  0  0  0  0  0  0
   -0.5020   26.1930  -23.8790 C   0  0  0  0  0  0  0  0  0  0  0  0
    0.1340   25.0260  -24.6230 C   0  0  0  0  0  0  0  0  0  0  0  0
   -1.7630   24.2780  -29.0590 C   0  0  0  0  0  0  0  0  0  0  0  0
   -5.5220   22.6330  -31.7200 C   0  0  0  0  0  0  0  0  0  0  0  0
   -6.6132   17.3512  -31.7713 H   0  0  0  0  0  0  0  0  0  0  0  0
   -7.4352   18.5894  -32.7802 H   0  0  0  0  0  0  0  0  0  0  0  0
   -8.0271   16.8935  -32.7802 H   0  0  0  0  0  0  0  0  0  0  0  0
   -5.3178   16.6760  -33.4969 H   0  0  0  0  0  0  0  0  0  0  0  0
   -6.7448   16.5790  -34.6043 H   0  0  0  0  0  0  0  0  0  0  0  0
   -4.6462   18.5572  -34.5400 H   0  0  0  0  0  0  0  0  0  0  0  0
   -6.0615   18.4342  -35.6515 H   0  0  0  0  0  0  0  0  0  0  0  0
   -7.3400   19.8670  -34.1960 H   0  0  0  0  0  0  0  0  0  0  0  0
   -8.2701   20.9138  -32.8149 H   0  0  0  0  0  0  0  0  0  0  0  0
   -9.4119   22.7654  -31.6003 H   0  0  0  0  0  0  0  0  0  0  0  0
   -8.0730   24.5315  -30.4583 H   0  0  0  0  0  0  0  0  0  0  0  0
   -3.7434   22.0126  -30.6851 H   0  0  0  0  0  0  0  0  0  0  0  0
   -2.3953   20.4381  -29.2910 H   0  0  0  0  0  0  0  0  0  0  0  0
   -0.6703   21.3253  -27.7202 H   0  0  0  0  0  0  0  0  0  0  0  0
   -0.7247   26.5306  -26.8157 H   0  0  0  0  0  0  0  0  0  0  0  0
   -2.3368   25.8192  -26.6216 H   0  0  0  0  0  0  0  0  0  0  0  0
   -1.3656   27.8337  -25.0012 H   0  0  0  0  0  0  0  0  0  0  0  0
   -2.5632   26.6727  -24.4249 H   0  0  0  0  0  0  0  0  0  0  0  0
    0.2551   26.9539  -23.6386 H   0  0  0  0  0  0  0  0  0  0  0  0
   -0.9498   25.8738  -22.9263 H   0  0  0  0  0  0  0  0  0  0  0  0
    1.1301   25.3101  -24.9933 H   0  0  0  0  0  0  0  0  0  0  0  0
    0.2591   24.1561  -23.9615 H   0  0  0  0  0  0  0  0  0  0  0  0
   -1.5774   25.3608  -29.0032 H   0  0  0  0  0  0  0  0  0  0  0  0
   -4.4231   22.6058  -31.7618 H   0  0  0  0  0  0  0  0  0  0  0  0
  1  2  1  0
  2  3  1  0
  3  4  1  0
  4  5  1  0
  5  6  2  0
  5  7  1  0
  7  8  2  0
  8  9  1  0
  9 10  2  0
 10 11  1  0
 11 12  1  0
 12 13  2  0
 12 14  2  0
 12 15  1  0
 15 16  1  0
 16 17  2  0
 17 18  1  0
 18 19  2  0
 19 20  1  0
 20 21  1  0
 21 22  2  0
 21 23  2  0
 21 24  1  0
 24 25  1  0
 25 26  1  0
 26 27  1  0
 27 28  1  0
 20 29  2  0
 11 30  2  0
 30  7  1  0
 29 16  1  0
 28 24  1  0
  1 31  1  0
  1 32  1  0
  1 33  1  0
  2 34  1  0
  2 35  1  0
  3 36  1  0
  3 37  1  0
  4 38  1  0
  8 39  1  0
  9 40  1  0
 10 41  1  0
 17 42  1  0
 18 43  1  0
 19 44  1  0
 25 45  1  0
 25 46  1  0
 26 47  1  0
 26 48  1  0
 27 49  1  0
 27 50  1  0
 28 51  1  0
 28 52  1  0
 29 53  1  0
 30 54  1  0
M  CHG  1  15  -1
M  END
>  <UniqueID>  (28) 
28

>  <SMILES>  (28) 
CCCNC(=O)c1cccc(S(=O)(=O)[N-]c2cccc(S(=O)(=O)N3CCCC3)c2)c1

>  <Energy>  (28) 
56.10106801055453

>  <Genealogy>  (28) 
CCCNC(=O)c1cccc(S(=O)(=O)[N-]c2cccc(S(=O)(=O)N3CCCC3)c2)c1 (protonated)
CCCNC(=O)c1cccc(S(=O)(=O)[N-]c2cccc(S(=O)(=O)N3CCCC3)c2)c1 (3D coordinates assigned)
CCCNC(=O)c1cccc(S(=O)(=O)[N-]c2cccc(S(=O)(=O)N3CCCC3)c2)c1 (nonaromatic ring conformer: 56.10106801055453 kcal/mol)

>  <smiles>  (28) 
CCCNC(=O)c1cccc(S(=O)(=O)Nc2cccc(S(=O)(=O)N3CCCC3)c2)c1

>  <score_type>  (28) 
oracle

>  <origin>  (28) 
adgpu

>  <m_score__min__energy>  (28) 
-11.44

>  <m_primary>  (28) 
energy

$$$$
28:0
     RDKit          3D

 45 47  0  0  0  0  0  0  0  0999 V2000
   -4.4200   25.6750  -31.0010 O   0  0  0  0  0  0  0  0  0  0  0  0
   -4.5110   24.3040  -30.3910 S   0  0  0  0  0  0  0  0  0  0  0  0
   -4.6270   24.4350  -28.8990 O   0  0  0  0  0  0  0  0  0  0  0  0
   -3.0680   23.4190  -30.7710 N   0  0  0  0  0  0  0  0  0  0  0  0
   -1.9860   23.1700  -29.8600 C   0  0  0  0  0  0  0  0  0  0  0  0
   -1.4420   21.8830  -29.6840 C   0  0  0  0  0  0  0  0  0  0  0  0
   -0.3970   21.6780  -28.7800 C   0  0  0  0  0  0  0  0  0  0  0  0
    0.1170   22.7490  -28.0470 C   0  0  0  0  0  0  0  0  0  0  0  0
   -0.4120   24.0300  -28.2190 C   0  0  0  0  0  0  0  0  0  0  0  0
   -1.4620   24.2460  -29.1250 C   0  0  0  0  0  0  0  0  0  0  0  0
   -1.9910   25.5240  -29.2930 O   0  0  0  0  0  0  0  0  0  0  0  0
   -5.9230   23.4470  -30.9980 C   0  0  0  0  0  0  0  0  0  0  0  0
   -7.1630   24.0940  -31.0840 C   0  0  0  0  0  0  0  0  0  0  0  0
   -8.2740   23.4150  -31.5900 C   0  0  0  0  0  0  0  0  0  0  0  0
   -8.1540   22.0880  -32.0120 C   0  0  0  0  0  0  0  0  0  0  0  0
   -6.9190   21.4290  -31.9190 C   0  0  0  0  0  0  0  0  0  0  0  0
   -6.7650   19.7490  -32.4410 S   0  0  0  0  0  0  0  0  0  0  0  0
   -8.0750   19.2890  -33.0190 O   0  0  0  0  0  0  0  0  0  0  0  0
   -6.4550   18.8870  -31.2480 O   0  0  0  0  0  0  0  0  0  0  0  0
   -5.5050   19.5630  -33.6370 N   0  0  0  0  0  0  0  0  0  0  0  0
   -5.7860   18.4320  -34.5570 C   0  0  0  0  0  0  0  0  0  0  0  0
   -4.9260   17.1930  -34.2670 C   0  0  0  0  0  0  0  0  0  0  0  0
   -3.4270   17.5260  -34.3660 C   0  0  0  0  0  0  0  0  0  0  0  0
   -3.1080   18.9690  -33.9330 C   0  0  0  0  0  0  0  0  0  0  0  0
   -4.1790   19.5130  -32.9830 C   0  0  0  0  0  0  0  0  0  0  0  0
   -5.8070   22.1130  -31.4110 C   0  0  0  0  0  0  0  0  0  0  0  0
   -1.8416   21.0358  -30.2607 H   0  0  0  0  0  0  0  0  0  0  0  0
    0.0220   20.6699  -28.6454 H   0  0  0  0  0  0  0  0  0  0  0  0
    0.9384   22.5841  -27.3342 H   0  0  0  0  0  0  0  0  0  0  0  0
   -0.0041   24.8731  -27.6421 H   0  0  0  0  0  0  0  0  0  0  0  0
   -2.8880   25.6720  -29.7400 H   0  0  0  0  0  0  0  0  0  0  0  0
   -7.2617   25.1382  -30.7525 H   0  0  0  0  0  0  0  0  0  0  0  0
   -9.2458   23.9260  -31.6565 H   0  0  0  0  0  0  0  0  0  0  0  0
   -9.0293   21.5595  -32.4177 H   0  0  0  0  0  0  0  0  0  0  0  0
   -6.8456   18.1541  -34.4571 H   0  0  0  0  0  0  0  0  0  0  0  0
   -5.5435   18.7691  -35.5756 H   0  0  0  0  0  0  0  0  0  0  0  0
   -5.1477   16.8309  -33.2522 H   0  0  0  0  0  0  0  0  0  0  0  0
   -5.1630   16.4199  -35.0127 H   0  0  0  0  0  0  0  0  0  0  0  0
   -2.8693   16.8331  -33.7188 H   0  0  0  0  0  0  0  0  0  0  0  0
   -3.1332   17.4235  -35.4211 H   0  0  0  0  0  0  0  0  0  0  0  0
   -2.1343   18.9829  -33.4214 H   0  0  0  0  0  0  0  0  0  0  0  0
   -3.0842   19.6043  -34.8307 H   0  0  0  0  0  0  0  0  0  0  0  0
   -4.2397   18.8596  -32.1002 H   0  0  0  0  0  0  0  0  0  0  0  0
   -3.8972   20.5359  -32.6927 H   0  0  0  0  0  0  0  0  0  0  0  0
   -4.8369   21.5998  -31.3359 H   0  0  0  0  0  0  0  0  0  0  0  0
  1  2  2  0
  2  3  2  0
  2  4  1  0
  4  5  1  0
  5  6  2  0
  6  7  1  0
  7  8  2  0
  8  9  1  0
  9 10  2  0
 10 11  1  0
  2 12  1  0
 12 13  2  0
 13 14  1  0
 14 15  2  0
 15 16  1  0
 16 17  1  0
 17 18  2  0
 17 19  2  0
 17 20  1  0
 20 21  1  0
 21 22  1  0
 22 23  1  0
 23 24  1  0
 24 25  1  0
 16 26  2  0
 10  5  1  0
 26 12  1  0
 25 20  1  0
  6 27  1  0
  7 28  1  0
  8 29  1  0
  9 30  1  0
 11 31  1  0
 13 32  1  0
 14 33  1  0
 15 34  1  0
 21 35  1  0
 21 36  1  0
 22 37  1  0
 22 38  1  0
 23 39  1  0
 23 40  1  0
 24 41  1  0
 24 42  1  0
 25 43  1  0
 25 44  1  0
 26 45  1  0
M  CHG  1   4  -1
M  END
>  <UniqueID>  (29) 
29

>  <SMILES>  (29) 
O=S(=O)([N-]c1ccccc1O)c1cccc(S(=O)(=O)N2CCCCC2)c1

>  <Energy>  (29) 
53.15775672900511

>  <Genealogy>  (29) 
O=S(=O)([N-]c1ccccc1O)c1cccc(S(=O)(=O)N2CCCCC2)c1 (protonated)
O=S(=O)([N-]c1ccccc1O)c1cccc(S(=O)(=O)N2CCCCC2)c1 (3D coordinates assigned)
O=S(=O)([N-]c1ccccc1O)c1cccc(S(=O)(=O)N2CCCCC2)c1 (nonaromatic ring conformer: 53.15775672900511 kcal/mol)

>  <smiles>  (29) 
O=S(=O)(Nc1ccccc1O)c1cccc(S(=O)(=O)N2CCCCC2)c1

>  <score_type>  (29) 
oracle

>  <origin>  (29) 
adgpu

>  <m_score__min__energy>  (29) 
-11.77

>  <m_primary>  (29) 
energy

$$$$
29:0
     RDKit          3D

 58 60  0  0  0  0  0  0  0  0999 V2000
    0.5830   22.1730  -35.5070 C   0  0  0  0  0  0  0  0  0  0  0  0
    0.1860   20.7270  -35.4910 C   0  0  0  0  0  0  0  0  0  0  0  0
    0.7480   19.9410  -36.3010 O   0  0  0  0  0  0  0  0  0  0  0  0
   -0.8120   20.2310  -34.5720 N   0  0  0  0  0  0  0  0  0  0  0  0
   -1.6420   21.1710  -33.8060 C   0  0  0  0  0  0  0  0  0  0  0  0
   -2.5770   20.4290  -32.8420 C   0  0  0  0  0  0  0  0  0  0  0  0
   -1.8870   19.3230  -32.1510 N   0  0  0  0  0  0  0  0  0  0  0  0
   -0.7010   19.8980  -30.9970 S   0  0  0  0  0  0  0  0  0  0  0  0
    0.4000   20.6360  -31.7060 O   0  0  0  0  0  0  0  0  0  0  0  0
   -0.0960   18.7190  -30.2850 O   0  0  0  0  0  0  0  0  0  0  0  0
   -1.4500   20.9460  -29.7940 C   0  0  0  0  0  0  0  0  0  0  0  0
   -1.7970   20.4510  -28.5290 C   0  0  0  0  0  0  0  0  0  0  0  0
   -2.3910   21.2950  -27.5870 C   0  0  0  0  0  0  0  0  0  0  0  0
   -2.6490   22.6310  -27.9020 C   0  0  0  0  0  0  0  0  0  0  0  0
   -2.3190   23.1360  -29.1710 C   0  0  0  0  0  0  0  0  0  0  0  0
   -2.6010   24.5520  -29.5050 C   0  0  0  0  0  0  0  0  0  0  0  0
   -1.9180   25.4620  -28.9650 O   0  0  0  0  0  0  0  0  0  0  0  0
   -3.5970   24.9190  -30.4690 N   0  0  0  0  0  0  0  0  0  0  0  0
   -4.8160   24.2070  -30.7260 C   0  0  0  0  0  0  0  0  0  0  0  0
   -6.0380   24.8460  -30.4910 C   0  0  0  0  0  0  0  0  0  0  0  0
   -7.2420   24.1760  -30.7280 C   0  0  0  0  0  0  0  0  0  0  0  0
   -7.2320   22.8570  -31.1870 C   0  0  0  0  0  0  0  0  0  0  0  0
   -6.0150   22.1950  -31.4020 C   0  0  0  0  0  0  0  0  0  0  0  0
   -6.0010   20.5200  -31.9620 S   0  0  0  0  0  0  0  0  0  0  0  0
   -5.7180   20.4960  -33.4380 O   0  0  0  0  0  0  0  0  0  0  0  0
   -4.8970   19.7750  -31.2660 O   0  0  0  0  0  0  0  0  0  0  0  0
   -7.5230   19.7220  -31.6490 N   0  0  0  0  0  0  0  0  0  0  0  0
   -7.3320   18.2680  -31.6680 C   0  0  0  0  0  0  0  0  0  0  0  0
   -8.5070   20.1160  -32.6650 C   0  0  0  0  0  0  0  0  0  0  0  0
   -4.8090   22.8700  -31.1660 C   0  0  0  0  0  0  0  0  0  0  0  0
   -1.7040   22.2880  -30.1080 C   0  0  0  0  0  0  0  0  0  0  0  0
   -1.3030   18.3160  -33.0720 C   0  0  0  0  0  0  0  0  0  0  0  0
   -1.1410   18.8000  -34.5260 C   0  0  0  0  0  0  0  0  0  0  0  0
    0.6830   22.5372  -34.4739 H   0  0  0  0  0  0  0  0  0  0  0  0
    1.5447   22.2834  -36.0294 H   0  0  0  0  0  0  0  0  0  0  0  0
   -0.1875   22.7590  -36.0294 H   0  0  0  0  0  0  0  0  0  0  0  0
   -0.9867   21.8386  -33.2273 H   0  0  0  0  0  0  0  0  0  0  0  0
   -2.2572   21.7474  -34.5126 H   0  0  0  0  0  0  0  0  0  0  0  0
   -2.9507   21.1401  -32.0906 H   0  0  0  0  0  0  0  0  0  0  0  0
   -3.4039   20.0023  -33.4287 H   0  0  0  0  0  0  0  0  0  0  0  0
   -1.6016   19.3980  -28.2780 H   0  0  0  0  0  0  0  0  0  0  0  0
   -2.6565   20.9055  -26.5931 H   0  0  0  0  0  0  0  0  0  0  0  0
   -3.1124   23.2906  -27.1536 H   0  0  0  0  0  0  0  0  0  0  0  0
   -6.0517   25.8807  -30.1179 H   0  0  0  0  0  0  0  0  0  0  0  0
   -8.1992   24.6888  -30.5526 H   0  0  0  0  0  0  0  0  0  0  0  0
   -8.1814   22.3362  -31.3803 H   0  0  0  0  0  0  0  0  0  0  0  0
   -7.2825   17.8912  -30.6357 H   0  0  0  0  0  0  0  0  0  0  0  0
   -8.1756   17.7942  -32.1913 H   0  0  0  0  0  0  0  0  0  0  0  0
   -6.3946   18.0281  -32.1913 H   0  0  0  0  0  0  0  0  0  0  0  0
   -9.4190   20.4812  -32.1700 H   0  0  0  0  0  0  0  0  0  0  0  0
   -8.0858   20.9148  -33.2931 H   0  0  0  0  0  0  0  0  0  0  0  0
   -8.7535   19.2472  -33.2931 H   0  0  0  0  0  0  0  0  0  0  0  0
   -3.8519   22.3518  -31.3256 H   0  0  0  0  0  0  0  0  0  0  0  0
   -1.4198   22.6807  -31.0954 H   0  0  0  0  0  0  0  0  0  0  0  0
   -0.3102   18.0358  -32.6902 H   0  0  0  0  0  0  0  0  0  0  0  0
   -2.0066   17.4709  -33.0994 H   0  0  0  0  0  0  0  0  0  0  0  0
   -0.3326   18.2296  -35.0068 H   0  0  0  0  0  0  0  0  0  0  0  0
   -2.0922   18.6424  -35.0554 H   0  0  0  0  0  0  0  0  0  0  0  0
  1  2  1  0
  2  3  2  0
  2  4  1  0
  4  5  1  0
  5  6  1  0
  6  7  1  0
  7  8  1  0
  8  9  2  0
  8 10  2  0
  8 11  1  0
 11 12  2  0
 12 13  1  0
 13 14  2  0
 14 15  1  0
 15 16  1  0
 16 17  2  0
 16 18  1  0
 18 19  1  0
 19 20  2  0
 20 21  1  0
 21 22  2  0
 22 23  1  0
 23 24  1  0
 24 25  2  0
 24 26  2  0
 24 27  1  0
 27 28  1  0
 27 29  1  0
 23 30  2  0
 15 31  2  0
  7 32  1  0
 32 33  1  0
 33  4  1  0
 31 11  1  0
 30 19  1  0
  1 34  1  0
  1 35  1  0
  1 36  1  0
  5 37  1  0
  5 38  1  0
  6 39  1  0
  6 40  1  0
 12 41  1  0
 13 42  1  0
 14 43  1  0
 20 44  1  0
 21 45  1  0
 22 46  1  0
 28 47  1  0
 28 48  1  0
 28 49  1  0
 29 50  1  0
 29 51  1  0
 29 52  1  0
 30 53  1  0
 31 54  1  0
 32 55  1  0
 32 56  1  0
 33 57  1  0
 33 58  1  0
M  CHG  1  18  -1
M  END
>  <UniqueID>  (30) 
30

>  <SMILES>  (30) 
CC(=O)N1CCN(S(=O)(=O)c2cccc(C(=O)[N-]c3cccc(S(=O)(=O)N(C)C)c3)c2)CC1

>  <Energy>  (30) 
65.03074627207275

>  <Genealogy>  (30) 
CC(=O)N1CCN(S(=O)(=O)c2cccc(C(=O)[N-]c3cccc(S(=O)(=O)N(C)C)c3)c2)CC1 (protonated)
CC(=O)N1CCN(S(=O)(=O)c2cccc(C(=O)[N-]c3cccc(S(=O)(=O)N(C)C)c3)c2)CC1 (3D coordinates assigned)
CC(=O)N1CCN(S(=O)(=O)c2cccc(C(=O)[N-]c3cccc(S(=O)(=O)N(C)C)c3)c2)CC1 (nonaromatic ring conformer: 65.03074627207275 kcal/mol)

>  <smiles>  (30) 
CC(=O)N1CCN(S(=O)(=O)c2cccc(C(=O)Nc3cccc(S(=O)(=O)N(C)C)c3)c2)CC1

>  <score_type>  (30) 
oracle

>  <origin>  (30) 
adgpu

>  <m_score__min__energy>  (30) 
-12.27

>  <m_primary>  (30) 
energy

$$$$
30:0
     RDKit          3D

 51 52  0  0  0  0  0  0  0  0999 V2000
   -5.7420   25.7070  -30.1050 C   0  0  0  0  0  0  0  0  0  0  0  0
   -5.3210   24.3840  -30.6890 C   0  0  0  0  0  0  0  0  0  0  0  0
   -6.0650   23.8750  -31.7670 C   0  0  0  0  0  0  0  0  0  0  0  0
   -5.7650   22.6310  -32.3220 C   0  0  0  0  0  0  0  0  0  0  0  0
   -4.7100   21.8610  -31.8110 C   0  0  0  0  0  0  0  0  0  0  0  0
   -4.4010   20.5490  -32.3210 N   0  0  0  0  0  0  0  0  0  0  0  0
   -3.4960   20.2680  -33.4010 C   0  0  0  0  0  0  0  0  0  0  0  0
   -2.6080   21.0960  -33.7310 O   0  0  0  0  0  0  0  0  0  0  0  0
   -3.5150   18.9200  -34.0610 C   0  0  0  0  0  0  0  0  0  0  0  0
   -4.4030   17.9790  -33.3530 N   0  0  0  0  0  0  0  0  0  0  0  0
   -3.7980   16.6410  -33.3450 C   0  0  0  0  0  0  0  0  0  0  0  0
   -5.9860   17.9050  -34.1060 S   0  0  0  0  0  0  0  0  0  0  0  0
   -5.9580   18.5810  -35.4490 O   0  0  0  0  0  0  0  0  0  0  0  0
   -6.4220   16.4790  -34.2920 O   0  0  0  0  0  0  0  0  0  0  0  0
   -7.1580   18.6960  -33.0590 C   0  0  0  0  0  0  0  0  0  0  0  0
   -7.8240   17.9770  -32.0540 C   0  0  0  0  0  0  0  0  0  0  0  0
   -8.7460   18.6190  -31.2250 C   0  0  0  0  0  0  0  0  0  0  0  0
   -9.0110   19.9820  -31.3950 C   0  0  0  0  0  0  0  0  0  0  0  0
   -8.3400   20.7100  -32.3800 C   0  0  0  0  0  0  0  0  0  0  0  0
   -7.4070   20.0700  -33.2040 C   0  0  0  0  0  0  0  0  0  0  0  0
   -3.9860   22.3490  -30.7160 C   0  0  0  0  0  0  0  0  0  0  0  0
   -4.2680   23.6010  -30.1480 C   0  0  0  0  0  0  0  0  0  0  0  0
   -3.2680   24.1050  -28.7610 S   0  0  0  0  0  0  0  0  0  0  0  0
   -2.4070   25.2810  -29.1050 O   0  0  0  0  0  0  0  0  0  0  0  0
   -4.1950   24.5500  -27.6680 O   0  0  0  0  0  0  0  0  0  0  0  0
   -2.2630   22.8040  -28.1660 N   0  0  0  0  0  0  0  0  0  0  0  0
   -3.0850   21.6750  -27.7270 C   0  0  0  0  0  0  0  0  0  0  0  0
   -1.4310   23.2810  -27.0560 C   0  0  0  0  0  0  0  0  0  0  0  0
   -5.7226   25.6459  -29.0069 H   0  0  0  0  0  0  0  0  0  0  0  0
   -5.0496   26.4930  -30.4408 H   0  0  0  0  0  0  0  0  0  0  0  0
   -6.7613   25.9483  -30.4408 H   0  0  0  0  0  0  0  0  0  0  0  0
   -6.8960   24.4662  -32.1791 H   0  0  0  0  0  0  0  0  0  0  0  0
   -6.3597   22.2514  -33.1659 H   0  0  0  0  0  0  0  0  0  0  0  0
   -4.8690   19.7310  -31.8700 H   0  0  0  0  0  0  0  0  0  0  0  0
   -3.8695   19.0347  -35.0960 H   0  0  0  0  0  0  0  0  0  0  0  0
   -2.4938   18.5119  -34.0373 H   0  0  0  0  0  0  0  0  0  0  0  0
   -3.6493   16.3121  -32.3059 H   0  0  0  0  0  0  0  0  0  0  0  0
   -4.4641   15.9343  -33.8615 H   0  0  0  0  0  0  0  0  0  0  0  0
   -2.8274   16.6744  -33.8615 H   0  0  0  0  0  0  0  0  0  0  0  0
   -7.6189   16.9047  -31.9192 H   0  0  0  0  0  0  0  0  0  0  0  0
   -9.2645   18.0525  -30.4375 H   0  0  0  0  0  0  0  0  0  0  0  0
   -9.7498   20.4817  -30.7512 H   0  0  0  0  0  0  0  0  0  0  0  0
   -8.5442   21.7833  -32.5079 H   0  0  0  0  0  0  0  0  0  0  0  0
   -6.8662   20.6465  -33.9690 H   0  0  0  0  0  0  0  0  0  0  0  0
   -3.1771   21.7365  -30.2911 H   0  0  0  0  0  0  0  0  0  0  0  0
   -3.1078   21.6436  -26.6277 H   0  0  0  0  0  0  0  0  0  0  0  0
   -4.1085   21.7952  -28.1117 H   0  0  0  0  0  0  0  0  0  0  0  0
   -2.6563   20.7379  -28.1117 H   0  0  0  0  0  0  0  0  0  0  0  0
   -1.9038   23.0099  -26.1005 H   0  0  0  0  0  0  0  0  0  0  0  0
   -0.4359   22.8162  -27.1176 H   0  0  0  0  0  0  0  0  0  0  0  0
   -1.3293   24.3746  -27.1176 H   0  0  0  0  0  0  0  0  0  0  0  0
  1  2  1  0
  2  3  2  0
  3  4  1  0
  4  5  2  0
  5  6  1  0
  6  7  1  0
  7  8  2  0
  7  9  1  0
  9 10  1  0
 10 11  1  0
 10 12  1  0
 12 13  2  0
 12 14  2  0
 12 15  1  0
 15 16  2  0
 16 17  1  0
 17 18  2  0
 18 19  1  0
 19 20  2  0
  5 21  1  0
 21 22  2  0
 22 23  1  0
 23 24  2  0
 23 25  2  0
 23 26  1  0
 26 27  1  0
 26 28  1  0
 22  2  1  0
 20 15  1  0
  1 29  1  0
  1 30  1  0
  1 31  1  0
  3 32  1  0
  4 33  1  0
  6 34  1  0
  9 35  1  0
  9 36  1  0
 11 37  1  0
 11 38  1  0
 11 39  1  0
 16 40  1  0
 17 41  1  0
 18 42  1  0
 19 43  1  0
 20 44  1  0
 21 45  1  0
 27 46  1  0
 27 47  1  0
 27 48  1  0
 28 49  1  0
 28 50  1  0
 28 51  1  0
M  END
>  <UniqueID>  (31) 
31

>  <SMILES>  (31) 
Cc1ccc(NC(=O)CN(C)S(=O)(=O)c2ccccc2)cc1S(=O)(=O)N(C)C

>  <Energy>  (31) 
50.67545632000104

>  <Genealogy>  (31) 
Cc1ccc(NC(=O)CN(C)S(=O)(=O)c2ccccc2)cc1S(=O)(=O)N(C)C (3D coordinates assigned)
Cc1ccc(NC(=O)CN(C)S(=O)(=O)c2ccccc2)cc1S(=O)(=O)N(C)C (optimized conformer: 50.67545632000104 kcal/mol)

>  <smiles>  (31) 
Cc1ccc(NC(=O)CN(C)S(=O)(=O)c2ccccc2)cc1S(=O)(=O)N(C)C

>  <score_type>  (31) 
oracle

>  <origin>  (31) 
adgpu

>  <m_score__min__energy>  (31) 
-9.5999999999999996

>  <m_primary>  (31) 
energy

$$$$
31:0
     RDKit          3D

 56 59  0  0  0  0  0  0  0  0999 V2000
   -3.8770   25.6440  -30.6570 O   0  0  0  0  0  0  0  0  0  0  0  0
   -4.3450   24.5990  -30.1310 C   0  0  0  0  0  0  0  0  0  0  0  0
   -3.7870   24.1500  -28.8880 N   0  0  0  0  0  0  0  0  0  0  0  0
   -2.4270   23.7640  -28.6480 C   0  0  0  0  0  0  0  0  0  0  0  0
   -2.1440   22.4030  -28.4830 C   0  0  0  0  0  0  0  0  0  0  0  0
   -0.8440   21.9660  -28.1810 C   0  0  0  0  0  0  0  0  0  0  0  0
   -0.5750   20.5260  -27.9330 C   0  0  0  0  0  0  0  0  0  0  0  0
   -1.5350   19.7190  -27.2950 C   0  0  0  0  0  0  0  0  0  0  0  0
   -1.2880   18.3590  -27.0800 C   0  0  0  0  0  0  0  0  0  0  0  0
   -0.0850   17.7900  -27.5030 C   0  0  0  0  0  0  0  0  0  0  0  0
    0.8760   18.5800  -28.1380 C   0  0  0  0  0  0  0  0  0  0  0  0
    0.6360   19.9400  -28.3530 C   0  0  0  0  0  0  0  0  0  0  0  0
    0.1860   22.9180  -28.0890 C   0  0  0  0  0  0  0  0  0  0  0  0
   -0.0790   24.2720  -28.3050 C   0  0  0  0  0  0  0  0  0  0  0  0
   -1.3790   24.7020  -28.5970 C   0  0  0  0  0  0  0  0  0  0  0  0
   -1.6210   26.0490  -28.8640 O   0  0  0  0  0  0  0  0  0  0  0  0
   -5.4370   23.8780  -30.8260 C   0  0  0  0  0  0  0  0  0  0  0  0
   -6.7550   24.3380  -30.6490 C   0  0  0  0  0  0  0  0  0  0  0  0
   -7.8230   23.6970  -31.2810 C   0  0  0  0  0  0  0  0  0  0  0  0
   -7.5900   22.6020  -32.1110 C   0  0  0  0  0  0  0  0  0  0  0  0
   -6.2860   22.1510  -32.3210 C   0  0  0  0  0  0  0  0  0  0  0  0
   -5.2040   22.7840  -31.6940 C   0  0  0  0  0  0  0  0  0  0  0  0
   -3.5490   22.1850  -32.0770 S   0  0  0  0  0  0  0  0  0  0  0  0
   -3.9490   20.4350  -31.7430 C   0  0  0  0  0  0  0  0  0  0  0  0
   -4.1080   19.6450  -33.0530 C   0  0  0  0  0  0  0  0  0  0  0  0
   -5.5330   19.4580  -33.4250 N   0  0  0  0  0  0  0  0  0  0  0  0
   -5.7220   18.5850  -34.6030 C   0  0  0  0  0  0  0  0  0  0  0  0
   -5.3770   17.1080  -34.2880 C   0  0  0  0  0  0  0  0  0  0  0  0
   -5.3620   16.8250  -32.8990 O   0  0  0  0  0  0  0  0  0  0  0  0
   -6.4720   17.4250  -32.2670 C   0  0  0  0  0  0  0  0  0  0  0  0
   -6.3440   18.9640  -32.2850 C   0  0  0  0  0  0  0  0  0  0  0  0
   -2.9521   21.6647  -28.5915 H   0  0  0  0  0  0  0  0  0  0  0  0
   -2.4862   20.1606  -26.9630 H   0  0  0  0  0  0  0  0  0  0  0  0
   -2.0427   17.7367  -26.5769 H   0  0  0  0  0  0  0  0  0  0  0  0
    0.1058   16.7196  -27.3361 H   0  0  0  0  0  0  0  0  0  0  0  0
    1.8238   18.1308  -28.4696 H   0  0  0  0  0  0  0  0  0  0  0  0
    1.3971   20.5569  -28.8532 H   0  0  0  0  0  0  0  0  0  0  0  0
    1.2085   22.5941  -27.8450 H   0  0  0  0  0  0  0  0  0  0  0  0
    0.7388   25.0053  -28.2453 H   0  0  0  0  0  0  0  0  0  0  0  0
   -2.5620   26.4100  -28.9610 H   0  0  0  0  0  0  0  0  0  0  0  0
   -6.9460   25.2105  -30.0069 H   0  0  0  0  0  0  0  0  0  0  0  0
   -8.8503   24.0573  -31.1233 H   0  0  0  0  0  0  0  0  0  0  0  0
   -8.4336   22.0933  -32.6005 H   0  0  0  0  0  0  0  0  0  0  0  0
   -6.1060   21.2919  -32.9839 H   0  0  0  0  0  0  0  0  0  0  0  0
   -3.1379   19.9877  -31.1497 H   0  0  0  0  0  0  0  0  0  0  0  0
   -4.8996   20.3925  -31.1911 H   0  0  0  0  0  0  0  0  0  0  0  0
   -3.5998   20.1922  -33.8607 H   0  0  0  0  0  0  0  0  0  0  0  0
   -3.6644   18.6496  -32.9033 H   0  0  0  0  0  0  0  0  0  0  0  0
   -6.7722   18.6442  -34.9248 H   0  0  0  0  0  0  0  0  0  0  0  0
   -5.0442   18.9318  -35.3969 H   0  0  0  0  0  0  0  0  0  0  0  0
   -6.1272   16.4630  -34.7687 H   0  0  0  0  0  0  0  0  0  0  0  0
   -4.3640   16.9183  -34.6726 H   0  0  0  0  0  0  0  0  0  0  0  0
   -7.3907   17.1328  -32.7967 H   0  0  0  0  0  0  0  0  0  0  0  0
   -6.5101   17.0854  -31.2214 H   0  0  0  0  0  0  0  0  0  0  0  0
   -7.3515   19.4001  -32.3548 H   0  0  0  0  0  0  0  0  0  0  0  0
   -5.8333   19.2657  -31.3586 H   0  0  0  0  0  0  0  0  0  0  0  0
  1  2  2  0
  2  3  1  0
  3  4  1  0
  4  5  2  0
  5  6  1  0
  6  7  1  0
  7  8  2  0
  8  9  1  0
  9 10  2  0
 10 11  1  0
 11 12  2  0
  6 13  2  0
 13 14  1  0
 14 15  2  0
 15 16  1  0
  2 17  1  0
 17 18  2  0
 18 19  1  0
 19 20  2  0
 20 21  1  0
 21 22  2  0
 22 23  1  0
 23 24  1  0
 24 25  1  0
 25 26  1  0
 26 27  1  0
 27 28  1  0
 28 29  1  0
 29 30  1  0
 30 31  1  0
 15  4  1  0
 22 17  1  0
 31 26  1  0
 12  7  1  0
  5 32  1  0
  8 33  1  0
  9 34  1  0
 10 35  1  0
 11 36  1  0
 12 37  1  0
 13 38  1  0
 14 39  1  0
 16 40  1  0
 18 41  1  0
 19 42  1  0
 20 43  1  0
 21 44  1  0
 24 45  1  0
 24 46  1  0
 25 47  1  0
 25 48  1  0
 27 49  1  0
 27 50  1  0
 28 51  1  0
 28 52  1  0
 30 53  1  0
 30 54  1  0
 31 55  1  0
 31 56  1  0
M  CHG  1   3  -1
M  END
>  <UniqueID>  (32) 
32

>  <SMILES>  (32) 
O=C([N-]c1cc(-c2ccccc2)ccc1O)c1ccccc1SCCN1CCOCC1

>  <Energy>  (32) 
82.40031354567479

>  <Genealogy>  (32) 
O=C([N-]c1cc(-c2ccccc2)ccc1O)c1ccccc1SCCN1CCOCC1 (protonated)
O=C([N-]c1cc(-c2ccccc2)ccc1O)c1ccccc1SCCN1CCOCC1 (3D coordinates assigned)
O=C([N-]c1cc(-c2ccccc2)ccc1O)c1ccccc1SCCN1CCOCC1 (nonaromatic ring conformer: 82.40031354567479 kcal/mol)

>  <smiles>  (32) 
O=C(Nc1cc(-c2ccccc2)ccc1O)c1ccccc1SCCN1CCOCC1

>  <score_type>  (32) 
oracle

>  <origin>  (32) 
adgpu

>  <m_score__min__energy>  (32) 
-11.92

>  <m_primary>  (32) 
energy

$$$$
32:0
     RDKit          3D

 41 44  0  0  0  0  0  0  0  0999 V2000
   -7.5750   18.5330  -32.5270 C   0  0  0  0  0  0  0  0  0  0  0  0
   -6.1720   19.0050  -32.7000 C   0  0  0  0  0  0  0  0  0  0  0  0
   -5.4730   19.6450  -31.7370 N   0  0  0  0  0  0  0  0  0  0  0  0
   -4.2600   20.0270  -32.1330 N   0  0  0  0  0  0  0  0  0  0  0  0
   -3.9980   19.6940  -33.4170 C   0  0  0  0  0  0  0  0  0  0  0  0
   -2.8960   19.9910  -34.0400 N   0  0  0  0  0  0  0  0  0  0  0  0
   -1.7500   20.6200  -33.4500 C   0  0  0  0  0  0  0  0  0  0  0  0
   -1.0610   21.4010  -34.1560 O   0  0  0  0  0  0  0  0  0  0  0  0
   -1.3060   20.2960  -32.0760 C   0  0  0  0  0  0  0  0  0  0  0  0
   -0.6390   19.1410  -31.6710 C   0  0  0  0  0  0  0  0  0  0  0  0
   -0.3070   19.2160  -30.3620 N   0  0  0  0  0  0  0  0  0  0  0  0
   -0.7490   20.4120  -29.9370 C   0  0  0  0  0  0  0  0  0  0  0  0
   -0.6160   20.9470  -28.6570 C   0  0  0  0  0  0  0  0  0  0  0  0
   -1.1410   22.2300  -28.4240 C   0  0  0  0  0  0  0  0  0  0  0  0
   -1.7850   22.9460  -29.4630 C   0  0  0  0  0  0  0  0  0  0  0  0
   -2.4560   24.5450  -29.1670 S   0  0  0  0  0  0  0  0  0  0  0  0
   -3.2170   24.5800  -27.8690 O   0  0  0  0  0  0  0  0  0  0  0  0
   -1.3290   25.5390  -29.0920 O   0  0  0  0  0  0  0  0  0  0  0  0
   -3.5180   24.9860  -30.4650 N   0  0  0  0  0  0  0  0  0  0  0  0
   -4.8000   24.3950  -30.7230 C   0  0  0  0  0  0  0  0  0  0  0  0
   -4.8700   23.3020  -31.5980 C   0  0  0  0  0  0  0  0  0  0  0  0
   -6.0980   22.6970  -31.8800 C   0  0  0  0  0  0  0  0  0  0  0  0
   -7.2700   23.1840  -31.2920 C   0  0  0  0  0  0  0  0  0  0  0  0
   -7.2110   24.2720  -30.4160 C   0  0  0  0  0  0  0  0  0  0  0  0
   -5.9830   24.8780  -30.1300 C   0  0  0  0  0  0  0  0  0  0  0  0
   -1.8990   22.3750  -30.7470 C   0  0  0  0  0  0  0  0  0  0  0  0
   -1.3620   21.1030  -30.9510 C   0  0  0  0  0  0  0  0  0  0  0  0
   -5.2980   18.9120  -34.1410 S   0  0  0  0  0  0  0  0  0  0  0  0
   -7.8061   18.4553  -31.4544 H   0  0  0  0  0  0  0  0  0  0  0  0
   -8.2636   19.2489  -32.9995 H   0  0  0  0  0  0  0  0  0  0  0  0
   -7.6908   17.5464  -32.9995 H   0  0  0  0  0  0  0  0  0  0  0  0
   -0.4137   18.2863  -32.3258 H   0  0  0  0  0  0  0  0  0  0  0  0
    0.2060   18.4970  -29.8050 H   0  0  0  0  0  0  0  0  0  0  0  0
   -0.1164   20.3836  -27.8551 H   0  0  0  0  0  0  0  0  0  0  0  0
   -1.0509   22.6823  -27.4254 H   0  0  0  0  0  0  0  0  0  0  0  0
   -3.9517   22.9177  -32.0661 H   0  0  0  0  0  0  0  0  0  0  0  0
   -6.1428   21.8373  -32.5648 H   0  0  0  0  0  0  0  0  0  0  0  0
   -8.2371   22.7114  -31.5186 H   0  0  0  0  0  0  0  0  0  0  0  0
   -8.1323   24.6524  -29.9506 H   0  0  0  0  0  0  0  0  0  0  0  0
   -5.9411   25.7339  -29.4403 H   0  0  0  0  0  0  0  0  0  0  0  0
   -2.3970   22.9166  -31.5647 H   0  0  0  0  0  0  0  0  0  0  0  0
  1  2  1  0
  2  3  2  0
  3  4  1  0
  4  5  1  0
  5  6  2  3
  6  7  1  0
  7  8  2  0
  7  9  1  0
  9 10  2  0
 10 11  1  0
 11 12  1  0
 12 13  2  0
 13 14  1  0
 14 15  2  0
 15 16  1  0
 16 17  2  0
 16 18  2  0
 16 19  1  0
 19 20  1  0
 20 21  2  0
 21 22  1  0
 22 23  2  0
 23 24  1  0
 24 25  2  0
 15 26  1  0
 26 27  2  0
  5 28  1  0
 28  2  1  0
 27  9  1  0
 27 12  1  0
 25 20  1  0
  1 29  1  0
  1 30  1  0
  1 31  1  0
 10 32  1  0
 11 33  1  0
 13 34  1  0
 14 35  1  0
 21 36  1  0
 22 37  1  0
 23 38  1  0
 24 39  1  0
 25 40  1  0
 26 41  1  0
M  CHG  2   4  -1  19  -1
M  END
>  <UniqueID>  (33) 
33

>  <SMILES>  (33) 
Cc1n[n-]c(=NC(=O)c2c[nH]c3ccc(S(=O)(=O)[N-]c4ccccc4)cc23)s1

>  <Energy>  (33) 
120.89652901139817

>  <Genealogy>  (33) 
Cc1n[n-]c(=NC(=O)c2c[nH]c3ccc(S(=O)(=O)[N-]c4ccccc4)cc23)s1 (protonated)
Cc1n[n-]c(=NC(=O)c2c[nH]c3ccc(S(=O)(=O)[N-]c4ccccc4)cc23)s1 (3D coordinates assigned)
Cc1n[n-]c(=NC(=O)c2c[nH]c3ccc(S(=O)(=O)[N-]c4ccccc4)cc23)s1 (optimized conformer: 120.89652901139817 kcal/mol)

>  <smiles>  (33) 
Cc1n[nH]c(=NC(=O)c2c[nH]c3ccc(S(=O)(=O)Nc4ccccc4)cc23)s1

>  <score_type>  (33) 
oracle

>  <origin>  (33) 
adgpu

>  <m_score__min__energy>  (33) 
-10.59

>  <m_primary>  (33) 
energy

$$$$
33:0
     RDKit          3D

 40 42  0  0  0  0  0  0  0  0999 V2000
   -3.8440   20.7580  -33.2350 O   0  0  0  0  0  0  0  0  0  0  0  0
   -5.1050   20.7420  -33.2830 C   0  0  0  0  0  0  0  0  0  0  0  0
   -5.7820   19.7580  -34.0780 N   0  0  0  0  0  0  0  0  0  0  0  0
   -5.6240   18.3330  -34.0020 C   0  0  0  0  0  0  0  0  0  0  0  0
   -6.6910   17.4940  -33.6290 C   0  0  0  0  0  0  0  0  0  0  0  0
   -6.5060   16.1110  -33.5430 C   0  0  0  0  0  0  0  0  0  0  0  0
   -5.2550   15.5540  -33.8090 C   0  0  0  0  0  0  0  0  0  0  0  0
   -4.1830   16.3790  -34.1520 C   0  0  0  0  0  0  0  0  0  0  0  0
   -4.3580   17.7650  -34.2460 C   0  0  0  0  0  0  0  0  0  0  0  0
   -3.2610   18.5590  -34.5850 O   0  0  0  0  0  0  0  0  0  0  0  0
   -5.8870   21.7040  -32.4710 C   0  0  0  0  0  0  0  0  0  0  0  0
   -7.2760   21.5430  -32.3110 C   0  0  0  0  0  0  0  0  0  0  0  0
   -8.0100   22.4470  -31.5380 C   0  0  0  0  0  0  0  0  0  0  0  0
   -7.3690   23.5170  -30.9150 C   0  0  0  0  0  0  0  0  0  0  0  0
   -5.9880   23.6940  -31.0620 C   0  0  0  0  0  0  0  0  0  0  0  0
   -5.1970   25.0420  -30.2490 S   0  0  0  0  0  0  0  0  0  0  0  0
   -5.5600   25.0090  -28.7920 O   0  0  0  0  0  0  0  0  0  0  0  0
   -5.6390   26.3580  -30.8250 O   0  0  0  0  0  0  0  0  0  0  0  0
   -3.4770   24.8880  -30.4100 N   0  0  0  0  0  0  0  0  0  0  0  0
   -2.6680   23.8910  -29.7680 C   0  0  0  0  0  0  0  0  0  0  0  0
   -2.9150   22.5150  -29.9370 C   0  0  0  0  0  0  0  0  0  0  0  0
   -2.1150   21.5680  -29.2890 C   0  0  0  0  0  0  0  0  0  0  0  0
   -1.0590   21.9820  -28.4780 C   0  0  0  0  0  0  0  0  0  0  0  0
   -0.7970   23.3440  -28.3100 C   0  0  0  0  0  0  0  0  0  0  0  0
   -1.5990   24.2990  -28.9480 C   0  0  0  0  0  0  0  0  0  0  0  0
   -1.2390   26.0510  -28.7020 S   0  0  0  0  0  0  0  0  0  0  0  0
   -5.2500   22.7910  -31.8410 C   0  0  0  0  0  0  0  0  0  0  0  0
   -7.6759   17.9291  -33.4039 H   0  0  0  0  0  0  0  0  0  0  0  0
   -7.3485   15.4607  -33.2650 H   0  0  0  0  0  0  0  0  0  0  0  0
   -5.1136   14.4648  -33.7484 H   0  0  0  0  0  0  0  0  0  0  0  0
   -3.1949   15.9379  -34.3496 H   0  0  0  0  0  0  0  0  0  0  0  0
   -3.2750   19.5690  -34.5050 H   0  0  0  0  0  0  0  0  0  0  0  0
   -7.7876   20.6996  -32.7978 H   0  0  0  0  0  0  0  0  0  0  0  0
   -9.0956   22.3140  -31.4209 H   0  0  0  0  0  0  0  0  0  0  0  0
   -7.9504   24.2247  -30.3058 H   0  0  0  0  0  0  0  0  0  0  0  0
   -3.7417   22.1830  -30.5822 H   0  0  0  0  0  0  0  0  0  0  0  0
   -2.3193   20.4950  -29.4194 H   0  0  0  0  0  0  0  0  0  0  0  0
   -0.4313   21.2352  -27.9698 H   0  0  0  0  0  0  0  0  0  0  0  0
    0.0411   23.6672  -27.6752 H   0  0  0  0  0  0  0  0  0  0  0  0
   -4.1658   22.9326  -31.9609 H   0  0  0  0  0  0  0  0  0  0  0  0
  1  2  2  0
  2  3  1  0
  3  4  1  0
  4  5  2  0
  5  6  1  0
  6  7  2  0
  7  8  1  0
  8  9  2  0
  9 10  1  0
  2 11  1  0
 11 12  2  0
 12 13  1  0
 13 14  2  0
 14 15  1  0
 15 16  1  0
 16 17  2  0
 16 18  2  0
 16 19  1  0
 19 20  1  0
 20 21  2  0
 21 22  1  0
 22 23  2  0
 23 24  1  0
 24 25  2  0
 25 26  1  0
 15 27  2  0
  9  4  1  0
 27 11  1  0
 25 20  1  0
  5 28  1  0
  6 29  1  0
  7 30  1  0
  8 31  1  0
 10 32  1  0
 12 33  1  0
 13 34  1  0
 14 35  1  0
 21 36  1  0
 22 37  1  0
 23 38  1  0
 24 39  1  0
 27 40  1  0
M  CHG  3   3  -1  19  -1  26  -1
M  END
>  <UniqueID>  (34) 
34

>  <SMILES>  (34) 
O=C([N-]c1ccccc1O)c1cccc(S(=O)(=O)[N-]c2ccccc2[S-])c1

>  <Energy>  (34) 
51.44318995675723

>  <Genealogy>  (34) 
O=C([N-]c1ccccc1O)c1cccc(S(=O)(=O)[N-]c2ccccc2[S-])c1 (protonated)
O=C([N-]c1ccccc1O)c1cccc(S(=O)(=O)[N-]c2ccccc2[S-])c1 (3D coordinates assigned)
O=C([N-]c1ccccc1O)c1cccc(S(=O)(=O)[N-]c2ccccc2[S-])c1 (optimized conformer: 51.44318995675723 kcal/mol)

>  <smiles>  (34) 
O=C(Nc1ccccc1O)c1cccc(S(=O)(=O)Nc2ccccc2S)c1

>  <score_type>  (34) 
oracle

>  <origin>  (34) 
adgpu

>  <m_score__min__energy>  (34) 
-11.289999999999999

>  <m_primary>  (34) 
energy

$$$$
34:0
     RDKit          3D

 36 38  0  0  0  0  0  0  0  0999 V2000
   -9.1290   19.7250  -32.7460 C   0  0  0  0  0  0  0  0  0  0  0  0
   -8.0380   18.8860  -32.2650 N   0  0  0  0  0  0  0  0  0  0  0  0
   -8.0890   18.1360  -31.1800 N   0  0  0  0  0  0  0  0  0  0  0  0
   -6.8990   17.5820  -30.9930 N   0  0  0  0  0  0  0  0  0  0  0  0
   -6.0580   17.9760  -31.9400 N   0  0  0  0  0  0  0  0  0  0  0  0
   -6.7780   18.7990  -32.7240 C   0  0  0  0  0  0  0  0  0  0  0  0
   -6.1150   19.6750  -34.1420 S   0  0  0  0  0  0  0  0  0  0  0  0
   -4.5910   20.0860  -33.2870 C   0  0  0  0  0  0  0  0  0  0  0  0
   -4.4030   21.3830  -32.7940 C   0  0  0  0  0  0  0  0  0  0  0  0
   -3.2400   21.7170  -32.0910 C   0  0  0  0  0  0  0  0  0  0  0  0
   -3.1080   23.0510  -31.5800 N   0  0  0  0  0  0  0  0  0  0  0  0
   -4.2000   23.8170  -30.4720 S   0  0  0  0  0  0  0  0  0  0  0  0
   -4.0170   25.3080  -30.5330 O   0  0  0  0  0  0  0  0  0  0  0  0
   -3.8890   23.3550  -29.0770 O   0  0  0  0  0  0  0  0  0  0  0  0
   -5.8580   23.3690  -30.8630 C   0  0  0  0  0  0  0  0  0  0  0  0
   -6.4470   23.7770  -32.0700 C   0  0  0  0  0  0  0  0  0  0  0  0
   -7.7630   23.4110  -32.3660 C   0  0  0  0  0  0  0  0  0  0  0  0
   -8.5000   22.6450  -31.4580 C   0  0  0  0  0  0  0  0  0  0  0  0
   -9.7780   22.2980  -31.7440 F   0  0  0  0  0  0  0  0  0  0  0  0
   -7.9170   22.2400  -30.2510 C   0  0  0  0  0  0  0  0  0  0  0  0
   -6.5990   22.5990  -29.9550 C   0  0  0  0  0  0  0  0  0  0  0  0
   -2.2440   20.7410  -31.9060 C   0  0  0  0  0  0  0  0  0  0  0  0
   -2.4200   19.4500  -32.4120 C   0  0  0  0  0  0  0  0  0  0  0  0
   -3.5940   19.1150  -33.1000 C   0  0  0  0  0  0  0  0  0  0  0  0
   -3.7760   17.8240  -33.5910 O   0  0  0  0  0  0  0  0  0  0  0  0
   -9.6746   20.1446  -31.8879 H   0  0  0  0  0  0  0  0  0  0  0  0
   -8.7203   20.5437  -33.3565 H   0  0  0  0  0  0  0  0  0  0  0  0
   -9.8153   19.1198  -33.3565 H   0  0  0  0  0  0  0  0  0  0  0  0
   -5.1769   22.1467  -32.9609 H   0  0  0  0  0  0  0  0  0  0  0  0
   -5.8722   24.3855  -32.7837 H   0  0  0  0  0  0  0  0  0  0  0  0
   -8.2199   23.7264  -33.3156 H   0  0  0  0  0  0  0  0  0  0  0  0
   -8.4968   21.6388  -29.5352 H   0  0  0  0  0  0  0  0  0  0  0  0
   -6.1420   22.2768  -29.0077 H   0  0  0  0  0  0  0  0  0  0  0  0
   -1.3229   20.9948  -31.3609 H   0  0  0  0  0  0  0  0  0  0  0  0
   -1.6338   18.6939  -32.2696 H   0  0  0  0  0  0  0  0  0  0  0  0
   -4.6300   17.3060  -33.4170 H   0  0  0  0  0  0  0  0  0  0  0  0
  1  2  1  0
  2  3  1  0
  3  4  2  0
  4  5  1  0
  5  6  2  0
  6  7  1  0
  7  8  1  0
  8  9  2  0
  9 10  1  0
 10 11  1  0
 11 12  1  0
 12 13  2  0
 12 14  2  0
 12 15  1  0
 15 16  2  0
 16 17  1  0
 17 18  2  0
 18 19  1  0
 18 20  1  0
 20 21  2  0
 10 22  2  0
 22 23  1  0
 23 24  2  0
 24 25  1  0
  6  2  1  0
 24  8  1  0
 21 15  1  0
  1 26  1  0
  1 27  1  0
  1 28  1  0
  9 29  1  0
 16 30  1  0
 17 31  1  0
 20 32  1  0
 21 33  1  0
 22 34  1  0
 23 35  1  0
 25 36  1  0
M  CHG  1  11  -1
M  END
>  <UniqueID>  (35) 
35

>  <SMILES>  (35) 
Cn1nnnc1Sc1cc([N-]S(=O)(=O)c2ccc(F)cc2)ccc1O

>  <Energy>  (35) 
76.99881928716393

>  <Genealogy>  (35) 
Cn1nnnc1Sc1cc([N-]S(=O)(=O)c2ccc(F)cc2)ccc1O (protonated)
Cn1nnnc1Sc1cc([N-]S(=O)(=O)c2ccc(F)cc2)ccc1O (3D coordinates assigned)
Cn1nnnc1Sc1cc([N-]S(=O)(=O)c2ccc(F)cc2)ccc1O (optimized conformer: 76.99881928716393 kcal/mol)

>  <smiles>  (35) 
Cn1nnnc1Sc1cc(NS(=O)(=O)c2ccc(F)cc2)ccc1O

>  <score_type>  (35) 
oracle

>  <origin>  (35) 
adgpu

>  <m_score__min__energy>  (35) 
-8.8900000000000006

>  <m_primary>  (35) 
energy

$$$$
35:0
     RDKit          3D

 37 39  0  0  0  0  0  0  0  0999 V2000
   -0.9010   18.9830  -27.5460 C   0  0  0  0  0  0  0  0  0  0  0  0
   -1.5880   20.1830  -28.1250 C   0  0  0  0  0  0  0  0  0  0  0  0
   -1.1990   20.6870  -29.3750 C   0  0  0  0  0  0  0  0  0  0  0  0
   -1.8640   21.7830  -29.9330 C   0  0  0  0  0  0  0  0  0  0  0  0
   -2.9430   22.3770  -29.2580 C   0  0  0  0  0  0  0  0  0  0  0  0
   -3.6490   23.5360  -29.8460 C   0  0  0  0  0  0  0  0  0  0  0  0
   -4.7720   23.5410  -30.6670 C   0  0  0  0  0  0  0  0  0  0  0  0
   -5.6430   22.4040  -31.0400 C   0  0  0  0  0  0  0  0  0  0  0  0
   -7.0320   22.5860  -31.1460 C   0  0  0  0  0  0  0  0  0  0  0  0
   -7.8610   21.5160  -31.4930 C   0  0  0  0  0  0  0  0  0  0  0  0
   -7.3140   20.2480  -31.7320 C   0  0  0  0  0  0  0  0  0  0  0  0
   -8.3610   18.8960  -32.1530 S   0  0  0  0  0  0  0  0  0  0  0  0
   -9.6950   19.4670  -33.0940 N   0  0  0  0  0  0  0  0  0  0  0  0
   -8.8740   18.2420  -30.9020 O   0  0  0  0  0  0  0  0  0  0  0  0
   -7.5870   17.8800  -32.9460 O   0  0  0  0  0  0  0  0  0  0  0  0
   -5.9330   20.0550  -31.6020 C   0  0  0  0  0  0  0  0  0  0  0  0
   -5.1020   21.1250  -31.2560 C   0  0  0  0  0  0  0  0  0  0  0  0
   -4.9750   24.8630  -31.0300 C   0  0  0  0  0  0  0  0  0  0  0  0
   -4.0550   25.6220  -30.4780 O   0  0  0  0  0  0  0  0  0  0  0  0
   -3.2570   24.8600  -29.7710 C   0  0  0  0  0  0  0  0  0  0  0  0
   -2.1530   25.3380  -29.0770 O   0  0  0  0  0  0  0  0  0  0  0  0
   -3.3360   21.8660  -28.0110 C   0  0  0  0  0  0  0  0  0  0  0  0
   -2.6700   20.7710  -27.4530 C   0  0  0  0  0  0  0  0  0  0  0  0
   -0.9320   19.0371  -26.4478 H   0  0  0  0  0  0  0  0  0  0  0  0
   -1.4129   18.0694  -27.8827 H   0  0  0  0  0  0  0  0  0  0  0  0
    0.1460   18.9619  -27.8827 H   0  0  0  0  0  0  0  0  0  0  0  0
   -0.3663   20.2174  -29.9191 H   0  0  0  0  0  0  0  0  0  0  0  0
   -1.5405   22.1821  -30.9056 H   0  0  0  0  0  0  0  0  0  0  0  0
   -7.4696   23.5769  -30.9547 H   0  0  0  0  0  0  0  0  0  0  0  0
   -8.9469   21.6695  -31.5789 H   0  0  0  0  0  0  0  0  0  0  0  0
   -9.3020   19.8280  -33.9920 H   0  0  0  0  0  0  0  0  0  0  0  0
  -10.2770   18.6340  -33.3340 H   0  0  0  0  0  0  0  0  0  0  0  0
   -5.5005   19.0581  -31.7727 H   0  0  0  0  0  0  0  0  0  0  0  0
   -4.0187   20.9648  -31.1523 H   0  0  0  0  0  0  0  0  0  0  0  0
   -5.7845   25.2229  -31.6821 H   0  0  0  0  0  0  0  0  0  0  0  0
   -4.1734   22.3302  -27.4695 H   0  0  0  0  0  0  0  0  0  0  0  0
   -2.9958   20.3685  -26.4825 H   0  0  0  0  0  0  0  0  0  0  0  0
  1  2  1  0
  2  3  2  0
  3  4  1  0
  4  5  2  0
  5  6  1  0
  6  7  1  0
  7  8  1  0
  8  9  2  0
  9 10  1  0
 10 11  2  0
 11 12  1  0
 12 13  1  0
 12 14  2  0
 12 15  2  0
 11 16  1  0
 16 17  2  0
  7 18  2  0
 18 19  1  0
 19 20  1  0
 20 21  1  0
  5 22  1  0
 22 23  2  0
 23  2  1  0
 20  6  2  0
 17  8  1  0
  1 24  1  0
  1 25  1  0
  1 26  1  0
  3 27  1  0
  4 28  1  0
  9 29  1  0
 10 30  1  0
 13 31  1  0
 13 32  1  0
 16 33  1  0
 17 34  1  0
 18 35  1  0
 22 36  1  0
 23 37  1  0
M  CHG  1  21  -1
M  END
>  <UniqueID>  (36) 
36

>  <SMILES>  (36) 
Cc1ccc(-c2c(-c3ccc(S(N)(=O)=O)cc3)coc2[O-])cc1

>  <Energy>  (36) 
73.59971175808916

>  <Genealogy>  (36) 
Cc1ccc(-c2c(-c3ccc(S(N)(=O)=O)cc3)coc2[O-])cc1 (protonated)
Cc1ccc(-c2c(-c3ccc(S(N)(=O)=O)cc3)coc2[O-])cc1 (3D coordinates assigned)
Cc1ccc(-c2c(-c3ccc(S(N)(=O)=O)cc3)coc2[O-])cc1 (optimized conformer: 73.59971175808916 kcal/mol)

>  <smiles>  (36) 
Cc1ccc(-c2c(-c3ccc(S(N)(=O)=O)cc3)coc2O)cc1

>  <score_type>  (36) 
oracle

>  <origin>  (36) 
adgpu

>  <m_score__min__energy>  (36) 
-11.4

>  <m_primary>  (36) 
energy

$$$$
36:0
     RDKit          3D

 34 36  0  0  0  0  0  0  0  0999 V2000
   -7.9130   18.1930  -32.6930 C   0  0  0  0  0  0  0  0  0  0  0  0
   -7.7490   19.5990  -32.2000 C   0  0  0  0  0  0  0  0  0  0  0  0
   -8.8540   20.3080  -31.7040 C   0  0  0  0  0  0  0  0  0  0  0  0
   -8.6950   21.6050  -31.2080 C   0  0  0  0  0  0  0  0  0  0  0  0
   -7.4250   22.2060  -31.1880 C   0  0  0  0  0  0  0  0  0  0  0  0
   -7.2440   23.5850  -30.6160 C   0  0  0  0  0  0  0  0  0  0  0  0
   -6.0110   24.5350  -31.5720 S   0  0  0  0  0  0  0  0  0  0  0  0
   -4.6920   24.3040  -30.3840 C   0  0  0  0  0  0  0  0  0  0  0  0
   -3.5130   24.9750  -30.4580 N   0  0  0  0  0  0  0  0  0  0  0  0
   -2.8590   24.5230  -29.3790 C   0  0  0  0  0  0  0  0  0  0  0  0
   -1.5840   24.8790  -28.9450 C   0  0  0  0  0  0  0  0  0  0  0  0
   -1.1000   24.2810  -27.7600 C   0  0  0  0  0  0  0  0  0  0  0  0
    0.2810   24.5980  -27.2690 C   0  0  0  0  0  0  0  0  0  0  0  0
   -1.9000   23.3320  -27.0710 C   0  0  0  0  0  0  0  0  0  0  0  0
   -3.1830   23.0020  -27.5420 C   0  0  0  0  0  0  0  0  0  0  0  0
   -3.6260   23.6240  -28.7050 C   0  0  0  0  0  0  0  0  0  0  0  0
   -4.8030   23.4610  -29.3250 N   0  0  0  0  0  0  0  0  0  0  0  0
   -6.3170   21.4870  -31.6640 C   0  0  0  0  0  0  0  0  0  0  0  0
   -6.4780   20.1920  -32.1630 C   0  0  0  0  0  0  0  0  0  0  0  0
   -7.9926   17.5103  -31.8342 H   0  0  0  0  0  0  0  0  0  0  0  0
   -8.8255   18.1225  -33.3033 H   0  0  0  0  0  0  0  0  0  0  0  0
   -7.0413   17.9144  -33.3033 H   0  0  0  0  0  0  0  0  0  0  0  0
   -9.8498   19.8408  -31.7056 H   0  0  0  0  0  0  0  0  0  0  0  0
   -9.5682   22.1579  -30.8315 H   0  0  0  0  0  0  0  0  0  0  0  0
   -8.2073   24.1153  -30.6445 H   0  0  0  0  0  0  0  0  0  0  0  0
   -6.8862   23.4901  -29.5802 H   0  0  0  0  0  0  0  0  0  0  0  0
   -0.9741   25.6020  -29.5065 H   0  0  0  0  0  0  0  0  0  0  0  0
    0.2877   24.5995  -26.1690 H   0  0  0  0  0  0  0  0  0  0  0  0
    0.9851   23.8381  -27.6389 H   0  0  0  0  0  0  0  0  0  0  0  0
    0.5832   25.5889  -27.6389 H   0  0  0  0  0  0  0  0  0  0  0  0
   -1.5128   22.8507  -26.1608 H   0  0  0  0  0  0  0  0  0  0  0  0
   -3.8152   22.2766  -27.0090 H   0  0  0  0  0  0  0  0  0  0  0  0
   -5.3173   21.9455  -31.6440 H   0  0  0  0  0  0  0  0  0  0  0  0
   -5.6034   19.6342  -32.5289 H   0  0  0  0  0  0  0  0  0  0  0  0
  1  2  1  0
  2  3  2  0
  3  4  1  0
  4  5  2  0
  5  6  1  0
  6  7  1  0
  7  8  1  0
  8  9  2  0
  9 10  1  0
 10 11  2  0
 11 12  1  0
 12 13  1  0
 12 14  2  0
 14 15  1  0
 15 16  2  0
 16 17  1  0
  5 18  1  0
 18 19  2  0
 19  2  1  0
 17  8  1  0
 16 10  1  0
  1 20  1  0
  1 21  1  0
  1 22  1  0
  3 23  1  0
  4 24  1  0
  6 25  1  0
  6 26  1  0
 11 27  1  0
 13 28  1  0
 13 29  1  0
 13 30  1  0
 14 31  1  0
 15 32  1  0
 18 33  1  0
 19 34  1  0
M  CHG  1  17  -1
M  END
>  <UniqueID>  (37) 
37

>  <SMILES>  (37) 
Cc1ccc(CSc2nc3cc(C)ccc3[n-]2)cc1

>  <Energy>  (37) 
64.26600411827546

>  <Genealogy>  (37) 
Cc1ccc(CSc2nc3cc(C)ccc3[n-]2)cc1 (protonated)
Cc1ccc(CSc2nc3cc(C)ccc3[n-]2)cc1 (3D coordinates assigned)
Cc1ccc(CSc2nc3cc(C)ccc3[n-]2)cc1 (optimized conformer: 64.26600411827546 kcal/mol)

>  <smiles>  (37) 
Cc1ccc(CSc2nc3cc(C)ccc3[nH]2)cc1

>  <score_type>  (37) 
oracle

>  <origin>  (37) 
adgpu

>  <m_score__min__energy>  (37) 
-8.7100000000000009

>  <m_primary>  (37) 
energy

$$$$
37:0
     RDKit          3D

 29 30  0  0  0  0  0  0  0  0999 V2000
   -6.3330   16.4040  -33.6580 C   0  0  0  0  0  0  0  0  0  0  0  0
   -6.8760   17.7310  -33.2180 C   0  0  0  0  0  0  0  0  0  0  0  0
   -6.2990   18.9220  -33.6860 C   0  0  0  0  0  0  0  0  0  0  0  0
   -6.7810   20.1590  -33.2470 C   0  0  0  0  0  0  0  0  0  0  0  0
   -7.8350   20.2170  -32.3260 C   0  0  0  0  0  0  0  0  0  0  0  0
   -8.4280   21.7800  -31.7700 S   0  0  0  0  0  0  0  0  0  0  0  0
   -9.8040   22.0030  -32.3320 O   0  0  0  0  0  0  0  0  0  0  0  0
   -8.5030   21.8160  -30.2690 O   0  0  0  0  0  0  0  0  0  0  0  0
   -7.3750   23.0460  -32.3160 N   0  0  0  0  0  0  0  0  0  0  0  0
   -6.3840   23.6810  -31.4890 C   0  0  0  0  0  0  0  0  0  0  0  0
   -6.7920   24.5690  -30.4830 C   0  0  0  0  0  0  0  0  0  0  0  0
   -5.8460   25.1990  -29.6730 C   0  0  0  0  0  0  0  0  0  0  0  0
   -4.4910   24.9350  -29.8740 C   0  0  0  0  0  0  0  0  0  0  0  0
   -4.1050   24.0700  -30.8470 N   0  0  0  0  0  0  0  0  0  0  0  0
   -5.0060   23.4430  -31.6500 C   0  0  0  0  0  0  0  0  0  0  0  0
   -8.4060   19.0300  -31.8490 C   0  0  0  0  0  0  0  0  0  0  0  0
   -7.9240   17.7930  -32.2870 C   0  0  0  0  0  0  0  0  0  0  0  0
   -6.0850   15.7980  -32.7741 H   0  0  0  0  0  0  0  0  0  0  0  0
   -7.0891   15.8802  -34.2613 H   0  0  0  0  0  0  0  0  0  0  0  0
   -5.4266   16.5605  -34.2613 H   0  0  0  0  0  0  0  0  0  0  0  0
   -5.4641   18.8820  -34.4011 H   0  0  0  0  0  0  0  0  0  0  0  0
   -6.3315   21.0888  -33.6257 H   0  0  0  0  0  0  0  0  0  0  0  0
   -7.4400   23.3130  -33.3240 H   0  0  0  0  0  0  0  0  0  0  0  0
   -7.8629   24.7699  -30.3316 H   0  0  0  0  0  0  0  0  0  0  0  0
   -6.1654   25.8963  -28.8845 H   0  0  0  0  0  0  0  0  0  0  0  0
   -3.7353   25.4275  -29.2444 H   0  0  0  0  0  0  0  0  0  0  0  0
   -4.6568   22.7478  -32.4276 H   0  0  0  0  0  0  0  0  0  0  0  0
   -9.2357   19.0714  -31.1280 H   0  0  0  0  0  0  0  0  0  0  0  0
   -8.3683   16.8641  -31.9001 H   0  0  0  0  0  0  0  0  0  0  0  0
  1  2  1  0
  2  3  2  0
  3  4  1  0
  4  5  2  0
  5  6  1  0
  6  7  2  0
  6  8  2  0
  6  9  1  0
  9 10  1  0
 10 11  2  0
 11 12  1  0
 12 13  2  0
 13 14  1  0
 14 15  2  0
  5 16  1  0
 16 17  2  0
 17  2  1  0
 15 10  1  0
  1 18  1  0
  1 19  1  0
  1 20  1  0
  3 21  1  0
  4 22  1  0
  9 23  1  0
 11 24  1  0
 12 25  1  0
 13 26  1  0
 15 27  1  0
 16 28  1  0
 17 29  1  0
M  END
>  <UniqueID>  (38) 
38

>  <SMILES>  (38) 
Cc1ccc(S(=O)(=O)Nc2cccnc2)cc1

>  <Energy>  (38) 
32.23426163601257

>  <Genealogy>  (38) 
Cc1ccc(S(=O)(=O)Nc2cccnc2)cc1 (3D coordinates assigned)
Cc1ccc(S(=O)(=O)Nc2cccnc2)cc1 (optimized conformer: 32.23426163601257 kcal/mol)

>  <smiles>  (38) 
Cc1ccc(S(=O)(=O)Nc2cccnc2)cc1

>  <score_type>  (38) 
oracle

>  <origin>  (38) 
adgpu

>  <m_score__min__energy>  (38) 
-7.6600000000000001

>  <m_primary>  (38) 
energy

$$$$
38:0
     RDKit          3D

 53 56  0  0  0  0  0  0  0  0999 V2000
   -1.5250   21.8180  -26.4610 C   0  0  0  0  0  0  0  0  0  0  0  0
   -2.1000   22.8030  -27.4460 C   0  0  0  0  0  0  0  0  0  0  0  0
   -3.4000   22.5720  -27.9240 C   0  0  0  0  0  0  0  0  0  0  0  0
   -3.9770   23.4220  -28.8620 C   0  0  0  0  0  0  0  0  0  0  0  0
   -3.2630   24.5090  -29.3620 C   0  0  0  0  0  0  0  0  0  0  0  0
   -3.8630   25.3070  -30.3920 N   0  0  0  0  0  0  0  0  0  0  0  0
   -4.9950   24.9390  -31.1960 C   0  0  0  0  0  0  0  0  0  0  0  0
   -6.0000   25.6960  -31.2090 O   0  0  0  0  0  0  0  0  0  0  0  0
   -5.0190   23.7420  -31.9880 N   0  0  0  0  0  0  0  0  0  0  0  0
   -6.0260   22.7210  -31.9600 C   0  0  0  0  0  0  0  0  0  0  0  0
   -7.2200   22.9800  -31.2740 C   0  0  0  0  0  0  0  0  0  0  0  0
   -8.2550   22.0420  -31.2780 C   0  0  0  0  0  0  0  0  0  0  0  0
   -8.0990   20.8320  -31.9550 C   0  0  0  0  0  0  0  0  0  0  0  0
   -6.8990   20.5450  -32.6080 C   0  0  0  0  0  0  0  0  0  0  0  0
   -5.8390   21.4720  -32.5910 C   0  0  0  0  0  0  0  0  0  0  0  0
   -4.6180   21.1990  -33.2270 O   0  0  0  0  0  0  0  0  0  0  0  0
   -3.3570   21.1970  -32.6150 C   0  0  0  0  0  0  0  0  0  0  0  0
   -2.1670   21.2310  -33.3640 C   0  0  0  0  0  0  0  0  0  0  0  0
   -0.9280   21.2120  -32.7160 C   0  0  0  0  0  0  0  0  0  0  0  0
   -0.8690   21.1450  -31.3210 C   0  0  0  0  0  0  0  0  0  0  0  0
   -2.0480   21.0920  -30.5730 C   0  0  0  0  0  0  0  0  0  0  0  0
   -3.2880   21.1110  -31.2190 C   0  0  0  0  0  0  0  0  0  0  0  0
   -1.9790   24.7900  -28.8610 C   0  0  0  0  0  0  0  0  0  0  0  0
   -1.3190   25.9360  -29.2920 O   0  0  0  0  0  0  0  0  0  0  0  0
   -1.3680   23.9240  -27.9270 C   0  0  0  0  0  0  0  0  0  0  0  0
    0.2990   24.2660  -27.3850 S   0  0  0  0  0  0  0  0  0  0  0  0
    1.1620   24.5460  -28.5850 O   0  0  0  0  0  0  0  0  0  0  0  0
    0.8800   23.0610  -26.7010 O   0  0  0  0  0  0  0  0  0  0  0  0
    0.4090   25.6690  -26.2590 C   0  0  0  0  0  0  0  0  0  0  0  0
   -0.7630   26.6400  -26.3700 C   0  0  0  0  0  0  0  0  0  0  0  0
   -1.1500   26.3400  -24.9300 C   0  0  0  0  0  0  0  0  0  0  0  0
    0.0200   25.3730  -24.8120 C   0  0  0  0  0  0  0  0  0  0  0  0
   -1.7268   22.1638  -25.4364 H   0  0  0  0  0  0  0  0  0  0  0  0
   -1.9899   20.8328  -26.6138 H   0  0  0  0  0  0  0  0  0  0  0  0
   -0.4386   21.7384  -26.6138 H   0  0  0  0  0  0  0  0  0  0  0  0
   -3.9696   21.7076  -27.5519 H   0  0  0  0  0  0  0  0  0  0  0  0
   -5.0032   23.2348  -29.2111 H   0  0  0  0  0  0  0  0  0  0  0  0
   -7.3430   23.9276  -30.7291 H   0  0  0  0  0  0  0  0  0  0  0  0
   -9.1939   22.2575  -30.7469 H   0  0  0  0  0  0  0  0  0  0  0  0
   -8.9227   20.1032  -31.9742 H   0  0  0  0  0  0  0  0  0  0  0  0
   -6.7807   19.5890  -33.1391 H   0  0  0  0  0  0  0  0  0  0  0  0
   -2.2111   21.2726  -34.4623 H   0  0  0  0  0  0  0  0  0  0  0  0
    0.0007   21.2498  -33.3043 H   0  0  0  0  0  0  0  0  0  0  0  0
    0.1060   21.1340  -30.8119 H   0  0  0  0  0  0  0  0  0  0  0  0
   -2.0007   21.0353  -29.4755 H   0  0  0  0  0  0  0  0  0  0  0  0
   -4.2140   21.0581  -30.6276 H   0  0  0  0  0  0  0  0  0  0  0  0
    1.4351   25.9871  -26.4956 H   0  0  0  0  0  0  0  0  0  0  0  0
   -0.4656   27.6842  -26.5466 H   0  0  0  0  0  0  0  0  0  0  0  0
   -1.5009   26.5311  -27.1785 H   0  0  0  0  0  0  0  0  0  0  0  0
   -1.0837   27.2081  -24.2577 H   0  0  0  0  0  0  0  0  0  0  0  0
   -2.1705   26.0090  -24.6868 H   0  0  0  0  0  0  0  0  0  0  0  0
    0.7776   25.6725  -24.0729 H   0  0  0  0  0  0  0  0  0  0  0  0
   -0.1445   24.3373  -24.4800 H   0  0  0  0  0  0  0  0  0  0  0  0
  1  2  1  0
  2  3  2  0
  3  4  1  0
  4  5  2  0
  5  6  1  0
  6  7  1  0
  7  8  2  0
  7  9  1  0
  9 10  1  0
 10 11  2  0
 11 12  1  0
 12 13  2  0
 13 14  1  0
 14 15  2  0
 15 16  1  0
 16 17  1  0
 17 18  2  0
 18 19  1  0
 19 20  2  0
 20 21  1  0
 21 22  2  0
  5 23  1  0
 23 24  1  0
 23 25  2  0
 25 26  1  0
 26 27  2  0
 26 28  2  0
 26 29  1  0
 29 30  1  0
 30 31  1  0
 31 32  1  0
 25  2  1  0
 32 29  1  0
 15 10  1  0
 22 17  1  0
  1 33  1  0
  1 34  1  0
  1 35  1  0
  3 36  1  0
  4 37  1  0
 11 38  1  0
 12 39  1  0
 13 40  1  0
 14 41  1  0
 18 42  1  0
 19 43  1  0
 20 44  1  0
 21 45  1  0
 22 46  1  0
 29 47  1  0
 30 48  1  0
 30 49  1  0
 31 50  1  0
 31 51  1  0
 32 52  1  0
 32 53  1  0
M  CHG  3   6  -1   9  -1  24  -1
M  END
>  <UniqueID>  (39) 
39

>  <SMILES>  (39) 
Cc1ccc([N-]C(=O)[N-]c2ccccc2Oc2ccccc2)c([O-])c1S(=O)(=O)C1CCC1

>  <Energy>  (39) 
133.32754256573952

>  <Genealogy>  (39) 
Cc1ccc([N-]C(=O)[N-]c2ccccc2Oc2ccccc2)c([O-])c1S(=O)(=O)C1CCC1 (protonated)
Cc1ccc([N-]C(=O)[N-]c2ccccc2Oc2ccccc2)c([O-])c1S(=O)(=O)C1CCC1 (3D coordinates assigned)
Cc1ccc([N-]C(=O)[N-]c2ccccc2Oc2ccccc2)c([O-])c1S(=O)(=O)C1CCC1 (nonaromatic ring conformer: 133.32754256573952 kcal/mol)

>  <smiles>  (39) 
Cc1ccc(NC(=O)Nc2ccccc2Oc2ccccc2)c(O)c1S(=O)(=O)C1CCC1

>  <score_type>  (39) 
oracle

>  <origin>  (39) 
adgpu

>  <m_score__min__energy>  (39) 
-15.5

>  <m_primary>  (39) 
energy

$$$$
39:0
     RDKit          3D

 43 45  0  0  0  0  0  0  0  0999 V2000
   -8.5460   19.6110  -31.9050 C   0  0  0  0  0  0  0  0  0  0  0  0
   -7.7080   20.8640  -31.9160 C   0  0  0  0  0  0  0  0  0  0  0  0
   -8.2020   21.9900  -31.2400 C   0  0  0  0  0  0  0  0  0  0  0  0
   -7.4910   23.1840  -31.2280 C   0  0  0  0  0  0  0  0  0  0  0  0
   -6.2750   23.2900  -31.9020 C   0  0  0  0  0  0  0  0  0  0  0  0
   -5.6120   24.5610  -31.9060 N   0  0  0  0  0  0  0  0  0  0  0  0
   -5.1510   25.2230  -30.7240 C   0  0  0  0  0  0  0  0  0  0  0  0
   -5.9870   25.7910  -29.9720 O   0  0  0  0  0  0  0  0  0  0  0  0
   -3.7490   25.2990  -30.4400 N   0  0  0  0  0  0  0  0  0  0  0  0
   -3.0430   24.5010  -29.4780 C   0  0  0  0  0  0  0  0  0  0  0  0
   -3.6490   23.3300  -29.0010 C   0  0  0  0  0  0  0  0  0  0  0  0
   -4.8640   22.9500  -29.4710 F   0  0  0  0  0  0  0  0  0  0  0  0
   -3.0010   22.5370  -28.0490 C   0  0  0  0  0  0  0  0  0  0  0  0
   -1.7510   22.9170  -27.5530 C   0  0  0  0  0  0  0  0  0  0  0  0
   -0.8710   21.8340  -26.2500 Br  0  0  0  0  0  0  0  0  0  0  0  0
   -1.1550   24.0990  -27.9990 C   0  0  0  0  0  0  0  0  0  0  0  0
   -1.7980   24.8970  -28.9520 C   0  0  0  0  0  0  0  0  0  0  0  0
   -1.2300   26.0760  -29.3070 F   0  0  0  0  0  0  0  0  0  0  0  0
   -5.7310   22.1590  -32.5500 C   0  0  0  0  0  0  0  0  0  0  0  0
   -4.4580   22.2120  -33.1210 O   0  0  0  0  0  0  0  0  0  0  0  0
   -6.4620   20.9480  -32.5970 C   0  0  0  0  0  0  0  0  0  0  0  0
   -5.7760   19.5520  -33.4760 S   0  0  0  0  0  0  0  0  0  0  0  0
   -4.3300   19.8240  -33.7880 O   0  0  0  0  0  0  0  0  0  0  0  0
   -6.4770   19.3720  -34.7920 O   0  0  0  0  0  0  0  0  0  0  0  0
   -5.8850   18.0040  -32.5580 C   0  0  0  0  0  0  0  0  0  0  0  0
   -6.9090   17.0230  -33.1230 C   0  0  0  0  0  0  0  0  0  0  0  0
   -5.7950   16.0270  -33.4120 C   0  0  0  0  0  0  0  0  0  0  0  0
   -4.7710   16.9980  -32.8440 C   0  0  0  0  0  0  0  0  0  0  0  0
   -8.7456   19.3125  -30.8653 H   0  0  0  0  0  0  0  0  0  0  0  0
   -9.4985   19.8024  -32.4209 H   0  0  0  0  0  0  0  0  0  0  0  0
   -8.0054   18.8038  -32.4209 H   0  0  0  0  0  0  0  0  0  0  0  0
   -9.1651   21.9268  -30.7124 H   0  0  0  0  0  0  0  0  0  0  0  0
   -7.8905   24.0518  -30.6828 H   0  0  0  0  0  0  0  0  0  0  0  0
   -3.4761   21.6122  -27.6898 H   0  0  0  0  0  0  0  0  0  0  0  0
   -0.1764   24.4037  -27.5996 H   0  0  0  0  0  0  0  0  0  0  0  0
   -4.2740   21.9790  -34.0880 H   0  0  0  0  0  0  0  0  0  0  0  0
   -5.9975   18.4233  -31.5473 H   0  0  0  0  0  0  0  0  0  0  0  0
   -7.6468   16.6706  -32.3872 H   0  0  0  0  0  0  0  0  0  0  0  0
   -7.5976   17.3355  -33.9219 H   0  0  0  0  0  0  0  0  0  0  0  0
   -5.8792   15.0850  -32.8502 H   0  0  0  0  0  0  0  0  0  0  0  0
   -5.6675   15.6157  -34.4242 H   0  0  0  0  0  0  0  0  0  0  0  0
   -4.2550   16.6313  -31.9444 H   0  0  0  0  0  0  0  0  0  0  0  0
   -3.8934   17.2927  -33.4381 H   0  0  0  0  0  0  0  0  0  0  0  0
  1  2  1  0
  2  3  2  0
  3  4  1  0
  4  5  2  0
  5  6  1  0
  6  7  1  0
  7  8  2  0
  7  9  1  0
  9 10  1  0
 10 11  2  0
 11 12  1  0
 11 13  1  0
 13 14  2  0
 14 15  1  0
 14 16  1  0
 16 17  2  0
 17 18  1  0
  5 19  1  0
 19 20  1  0
 19 21  2  0
 21 22  1  0
 22 23  2  0
 22 24  2  0
 22 25  1  0
 25 26  1  0
 26 27  1  0
 27 28  1  0
 21  2  1  0
 28 25  1  0
 17 10  1  0
  1 29  1  0
  1 30  1  0
  1 31  1  0
  3 32  1  0
  4 33  1  0
 13 34  1  0
 16 35  1  0
 20 36  1  0
 25 37  1  0
 26 38  1  0
 26 39  1  0
 27 40  1  0
 27 41  1  0
 28 42  1  0
 28 43  1  0
M  CHG  2   6  -1   9  -1
M  END
>  <UniqueID>  (40) 
40

>  <SMILES>  (40) 
Cc1ccc([N-]C(=O)[N-]c2c(F)cc(Br)cc2F)c(O)c1S(=O)(=O)C1CCC1

>  <Energy>  (40) 
118.0215516914993

>  <Genealogy>  (40) 
Cc1ccc([N-]C(=O)[N-]c2c(F)cc(Br)cc2F)c(O)c1S(=O)(=O)C1CCC1 (protonated)
Cc1ccc([N-]C(=O)[N-]c2c(F)cc(Br)cc2F)c(O)c1S(=O)(=O)C1CCC1 (3D coordinates assigned)
Cc1ccc([N-]C(=O)[N-]c2c(F)cc(Br)cc2F)c(O)c1S(=O)(=O)C1CCC1 (nonaromatic ring conformer: 118.0215516914993 kcal/mol)

>  <smiles>  (40) 
Cc1ccc(NC(=O)Nc2c(F)cc(Br)cc2F)c(O)c1S(=O)(=O)C1CCC1

>  <score_type>  (40) 
oracle

>  <origin>  (40) 
adgpu

>  <m_score__min__energy>  (40) 
-12.779999999999999

>  <m_primary>  (40) 
energy

$$$$
40:0
     RDKit          3D

 57 59  0  0  0  0  0  0  0  0999 V2000
   -6.8140   25.0590  -29.8770 C   0  0  0  0  0  0  0  0  0  0  0  0
   -6.3470   24.4420  -31.0730 O   0  0  0  0  0  0  0  0  0  0  0  0
   -5.6020   23.2520  -31.1160 C   0  0  0  0  0  0  0  0  0  0  0  0
   -6.1420   22.0610  -31.6310 C   0  0  0  0  0  0  0  0  0  0  0  0
   -5.3640   20.9010  -31.6580 C   0  0  0  0  0  0  0  0  0  0  0  0
   -5.9090   19.6370  -32.2410 C   0  0  0  0  0  0  0  0  0  0  0  0
   -4.1010   20.9240  -31.1590 N   0  0  0  0  0  0  0  0  0  0  0  0
   -3.5500   22.0450  -30.6270 C   0  0  0  0  0  0  0  0  0  0  0  0
   -2.2580   21.9620  -30.0890 O   0  0  0  0  0  0  0  0  0  0  0  0
   -1.8310   20.9700  -29.1940 C   0  0  0  0  0  0  0  0  0  0  0  0
   -0.5100   20.4870  -29.1950 C   0  0  0  0  0  0  0  0  0  0  0  0
   -0.1230   19.4980  -28.2900 C   0  0  0  0  0  0  0  0  0  0  0  0
   -1.0430   18.9910  -27.3690 C   0  0  0  0  0  0  0  0  0  0  0  0
   -2.3560   19.4850  -27.3390 C   0  0  0  0  0  0  0  0  0  0  0  0
   -3.3560   18.9120  -26.3780 C   0  0  0  0  0  0  0  0  0  0  0  0
   -2.7450   20.4690  -28.2610 C   0  0  0  0  0  0  0  0  0  0  0  0
   -4.2770   23.2570  -30.6390 C   0  0  0  0  0  0  0  0  0  0  0  0
   -3.6700   24.5250  -30.1790 C   0  0  0  0  0  0  0  0  0  0  0  0
   -3.8670   25.5760  -30.8440 O   0  0  0  0  0  0  0  0  0  0  0  0
   -2.8560   24.5960  -29.0010 N   0  0  0  0  0  0  0  0  0  0  0  0
   -1.4970   25.1300  -28.9310 C   0  0  0  0  0  0  0  0  0  0  0  0
   -0.4750   24.0320  -28.6180 C   0  0  0  0  0  0  0  0  0  0  0  0
   -0.5910   23.4610  -26.9240 S   0  0  0  0  0  0  0  0  0  0  0  0
    0.5380   22.5100  -26.6410 O   0  0  0  0  0  0  0  0  0  0  0  0
   -1.8800   22.7120  -26.7390 O   0  0  0  0  0  0  0  0  0  0  0  0
   -0.5300   24.8340  -25.8030 C   0  0  0  0  0  0  0  0  0  0  0  0
    0.7070   25.1680  -25.2250 C   0  0  0  0  0  0  0  0  0  0  0  0
    0.8060   26.2080  -24.3000 C   0  0  0  0  0  0  0  0  0  0  0  0
   -0.3270   26.9350  -23.9430 C   0  0  0  0  0  0  0  0  0  0  0  0
   -1.5630   26.6280  -24.5150 C   0  0  0  0  0  0  0  0  0  0  0  0
   -1.6840   25.5770  -25.4430 C   0  0  0  0  0  0  0  0  0  0  0  0
   -3.0340   25.3030  -26.0520 C   0  0  0  0  0  0  0  0  0  0  0  0
   -6.4087   24.5235  -29.0058 H   0  0  0  0  0  0  0  0  0  0  0  0
   -6.4808   26.1070  -29.8508 H   0  0  0  0  0  0  0  0  0  0  0  0
   -7.9131   25.0229  -29.8508 H   0  0  0  0  0  0  0  0  0  0  0  0
   -7.1739   22.0423  -32.0116 H   0  0  0  0  0  0  0  0  0  0  0  0
   -6.2028   18.9555  -31.4290 H   0  0  0  0  0  0  0  0  0  0  0  0
   -6.7874   19.8683  -32.8615 H   0  0  0  0  0  0  0  0  0  0  0  0
   -5.1379   19.1571  -32.8615 H   0  0  0  0  0  0  0  0  0  0  0  0
    0.2205   20.8903  -29.9117 H   0  0  0  0  0  0  0  0  0  0  0  0
    0.9087   19.1167  -28.3018 H   0  0  0  0  0  0  0  0  0  0  0  0
   -0.7373   18.2025  -26.6655 H   0  0  0  0  0  0  0  0  0  0  0  0
   -3.0241   19.1022  -25.3467 H   0  0  0  0  0  0  0  0  0  0  0  0
   -4.3350   19.3862  -26.5414 H   0  0  0  0  0  0  0  0  0  0  0  0
   -3.4419   17.8276  -26.5414 H   0  0  0  0  0  0  0  0  0  0  0  0
   -3.7771   20.8494  -28.2499 H   0  0  0  0  0  0  0  0  0  0  0  0
   -1.2434   25.5886  -29.8982 H   0  0  0  0  0  0  0  0  0  0  0  0
   -1.4610   25.8743  -28.1219 H   0  0  0  0  0  0  0  0  0  0  0  0
   -0.6525   23.1806  -29.2916 H   0  0  0  0  0  0  0  0  0  0  0  0
    0.5299   24.4552  -28.7632 H   0  0  0  0  0  0  0  0  0  0  0  0
    1.6080   24.6026  -25.5053 H   0  0  0  0  0  0  0  0  0  0  0  0
    1.7801   26.4540  -23.8522 H   0  0  0  0  0  0  0  0  0  0  0  0
   -0.2480   27.7514  -23.2101 H   0  0  0  0  0  0  0  0  0  0  0  0
   -2.4517   27.2138  -24.2374 H   0  0  0  0  0  0  0  0  0  0  0  0
   -3.7736   25.1529  -25.2517 H   0  0  0  0  0  0  0  0  0  0  0  0
   -3.3358   26.1582  -26.6745 H   0  0  0  0  0  0  0  0  0  0  0  0
   -2.9785   24.3978  -26.6745 H   0  0  0  0  0  0  0  0  0  0  0  0
  1  2  1  0
  2  3  1  0
  3  4  2  0
  4  5  1  0
  5  6  1  0
  5  7  2  0
  7  8  1  0
  8  9  1  0
  9 10  1  0
 10 11  2  0
 11 12  1  0
 12 13  2  0
 13 14  1  0
 14 15  1  0
 14 16  2  0
  8 17  2  0
 17 18  1  0
 18 19  2  0
 18 20  1  0
 20 21  1  0
 21 22  1  0
 22 23  1  0
 23 24  2  0
 23 25  2  0
 23 26  1  0
 26 27  2  0
 27 28  1  0
 28 29  2  0
 29 30  1  0
 30 31  2  0
 31 32  1  0
 17  3  1  0
 31 26  1  0
 16 10  1  0
  1 33  1  0
  1 34  1  0
  1 35  1  0
  4 36  1  0
  6 37  1  0
  6 38  1  0
  6 39  1  0
 11 40  1  0
 12 41  1  0
 13 42  1  0
 15 43  1  0
 15 44  1  0
 15 45  1  0
 16 46  1  0
 21 47  1  0
 21 48  1  0
 22 49  1  0
 22 50  1  0
 27 51  1  0
 28 52  1  0
 29 53  1  0
 30 54  1  0
 32 55  1  0
 32 56  1  0
 32 57  1  0
M  CHG  1  20  -1
M  END
>  <UniqueID>  (41) 
41

>  <SMILES>  (41) 
COc1cc(C)nc(Oc2cccc(C)c2)c1C(=O)[N-]CCS(=O)(=O)c1ccccc1C

>  <Energy>  (41) 
63.21769199705161

>  <Genealogy>  (41) 
COc1cc(C)nc(Oc2cccc(C)c2)c1C(=O)[N-]CCS(=O)(=O)c1ccccc1C (protonated)
COc1cc(C)nc(Oc2cccc(C)c2)c1C(=O)[N-]CCS(=O)(=O)c1ccccc1C (3D coordinates assigned)
COc1cc(C)nc(Oc2cccc(C)c2)c1C(=O)[N-]CCS(=O)(=O)c1ccccc1C (optimized conformer: 63.21769199705161 kcal/mol)

>  <smiles>  (41) 
COc1cc(C)nc(Oc2cccc(C)c2)c1C(=O)NCCS(=O)(=O)c1ccccc1C

>  <score_type>  (41) 
oracle

>  <origin>  (41) 
adgpu

>  <m_score__min__energy>  (41) 
-11.5

>  <m_primary>  (41) 
energy

$$$$
41:0
     RDKit          3D

 37 38  0  0  0  0  0  0  0  0999 V2000
   -2.3480   24.8690  -28.7190 C   0  0  0  0  0  0  0  0  0  0  0  0
   -3.2600   25.2890  -29.7280 O   0  0  0  0  0  0  0  0  0  0  0  0
   -4.4020   24.5700  -30.1170 C   0  0  0  0  0  0  0  0  0  0  0  0
   -5.7010   24.9790  -29.7570 C   0  0  0  0  0  0  0  0  0  0  0  0
   -6.8120   24.2350  -30.1590 C   0  0  0  0  0  0  0  0  0  0  0  0
   -6.6450   23.0770  -30.9240 C   0  0  0  0  0  0  0  0  0  0  0  0
   -8.0390   22.1250  -31.4220 S   0  0  0  0  0  0  0  0  0  0  0  0
   -8.8860   22.9530  -32.3450 O   0  0  0  0  0  0  0  0  0  0  0  0
   -8.8610   21.7250  -30.2300 O   0  0  0  0  0  0  0  0  0  0  0  0
   -7.5000   20.6930  -32.2410 N   0  0  0  0  0  0  0  0  0  0  0  0
   -6.4870   20.6340  -33.1260 C   0  0  0  0  0  0  0  0  0  0  0  0
   -6.3170   19.3290  -33.5390 C   0  0  0  0  0  0  0  0  0  0  0  0
   -5.3410   18.8450  -34.5600 C   0  0  0  0  0  0  0  0  0  0  0  0
   -7.2730   18.5640  -32.8980 C   0  0  0  0  0  0  0  0  0  0  0  0
   -7.9880   19.4410  -32.1030 C   0  0  0  0  0  0  0  0  0  0  0  0
   -9.0910   19.0480  -31.1690 C   0  0  0  0  0  0  0  0  0  0  0  0
   -5.3580   22.6680  -31.2910 C   0  0  0  0  0  0  0  0  0  0  0  0
   -4.2290   23.4090  -30.8860 C   0  0  0  0  0  0  0  0  0  0  0  0
   -2.9240   23.0220  -31.2280 O   0  0  0  0  0  0  0  0  0  0  0  0
   -2.5730   21.7480  -31.7600 C   0  0  0  0  0  0  0  0  0  0  0  0
   -2.7808   25.0683  -27.7276 H   0  0  0  0  0  0  0  0  0  0  0  0
   -2.1549   23.7913  -28.8249 H   0  0  0  0  0  0  0  0  0  0  0  0
   -1.4035   25.4229  -28.8249 H   0  0  0  0  0  0  0  0  0  0  0  0
   -5.8409   25.8895  -29.1559 H   0  0  0  0  0  0  0  0  0  0  0  0
   -7.8227   24.5614  -29.8726 H   0  0  0  0  0  0  0  0  0  0  0  0
   -5.8887   21.4921  -33.4663 H   0  0  0  0  0  0  0  0  0  0  0  0
   -4.4660   18.4111  -34.0540 H   0  0  0  0  0  0  0  0  0  0  0  0
   -5.8180   18.0790  -35.1891 H   0  0  0  0  0  0  0  0  0  0  0  0
   -5.0200   19.6883  -35.1891 H   0  0  0  0  0  0  0  0  0  0  0  0
   -7.4324   17.4803  -32.9993 H   0  0  0  0  0  0  0  0  0  0  0  0
   -8.7518   19.1689  -30.1296 H   0  0  0  0  0  0  0  0  0  0  0  0
   -9.9671   19.6893  -31.3457 H   0  0  0  0  0  0  0  0  0  0  0  0
   -9.3642   17.9972  -31.3457 H   0  0  0  0  0  0  0  0  0  0  0  0
   -5.2262   21.7615  -31.9001 H   0  0  0  0  0  0  0  0  0  0  0  0
   -2.3798   21.0467  -30.9349 H   0  0  0  0  0  0  0  0  0  0  0  0
   -3.4000   21.3682  -32.3780 H   0  0  0  0  0  0  0  0  0  0  0  0
   -1.6682   21.8453  -32.3780 H   0  0  0  0  0  0  0  0  0  0  0  0
  1  2  1  0
  2  3  1  0
  3  4  2  0
  4  5  1  0
  5  6  2  0
  6  7  1  0
  7  8  2  0
  7  9  2  0
  7 10  1  0
 10 11  1  0
 11 12  2  0
 12 13  1  0
 12 14  1  0
 14 15  2  0
 15 16  1  0
  6 17  1  0
 17 18  2  0
 18 19  1  0
 19 20  1  0
 18  3  1  0
 15 10  1  0
  1 21  1  0
  1 22  1  0
  1 23  1  0
  4 24  1  0
  5 25  1  0
 11 26  1  0
 13 27  1  0
 13 28  1  0
 13 29  1  0
 14 30  1  0
 16 31  1  0
 16 32  1  0
 16 33  1  0
 17 34  1  0
 20 35  1  0
 20 36  1  0
 20 37  1  0
M  END
>  <UniqueID>  (42) 
42

>  <SMILES>  (42) 
COc1ccc(S(=O)(=O)n2cc(C)cc2C)cc1OC

>  <Energy>  (42) 
60.54107858563835

>  <Genealogy>  (42) 
COc1ccc(S(=O)(=O)n2cc(C)cc2C)cc1OC (3D coordinates assigned)
COc1ccc(S(=O)(=O)n2cc(C)cc2C)cc1OC (optimized conformer: 60.54107858563835 kcal/mol)

>  <smiles>  (42) 
COc1ccc(S(=O)(=O)n2cc(C)cc2C)cc1OC

>  <score_type>  (42) 
oracle

>  <origin>  (42) 
adgpu

>  <m_score__min__energy>  (42) 
-7.8700000000000001

>  <m_primary>  (42) 
energy

$$$$
42:0
     RDKit          3D

 50 52  0  0  0  0  0  0  0  0999 V2000
   -6.0390   18.3140  -34.1970 C   0  0  0  0  0  0  0  0  0  0  0  0
   -5.1090   19.3930  -34.1750 O   0  0  0  0  0  0  0  0  0  0  0  0
   -5.1880   20.4880  -33.3040 C   0  0  0  0  0  0  0  0  0  0  0  0
   -4.0740   21.2930  -32.9980 C   0  0  0  0  0  0  0  0  0  0  0  0
   -4.2050   22.3740  -32.1190 C   0  0  0  0  0  0  0  0  0  0  0  0
   -5.4470   22.6580  -31.5240 C   0  0  0  0  0  0  0  0  0  0  0  0
   -5.6300   23.7720  -30.6380 N   0  0  0  0  0  0  0  0  0  0  0  0
   -4.9620   25.0360  -30.7150 C   0  0  0  0  0  0  0  0  0  0  0  0
   -5.5410   26.0390  -31.2140 O   0  0  0  0  0  0  0  0  0  0  0  0
   -3.5970   25.1260  -30.2980 N   0  0  0  0  0  0  0  0  0  0  0  0
   -2.9730   24.2790  -29.3210 C   0  0  0  0  0  0  0  0  0  0  0  0
   -3.7130   23.2250  -28.8040 C   0  0  0  0  0  0  0  0  0  0  0  0
   -3.1560   22.3650  -27.8710 C   0  0  0  0  0  0  0  0  0  0  0  0
   -1.8480   22.5570  -27.3990 C   0  0  0  0  0  0  0  0  0  0  0  0
   -1.3090   21.5110  -26.4550 C   0  0  0  0  0  0  0  0  0  0  0  0
   -1.0850   23.6770  -27.8560 C   0  0  0  0  0  0  0  0  0  0  0  0
    0.5730   24.0000  -27.2240 S   0  0  0  0  0  0  0  0  0  0  0  0
    1.4390   24.5180  -28.3370 O   0  0  0  0  0  0  0  0  0  0  0  0
    1.2190   22.7180  -26.7820 O   0  0  0  0  0  0  0  0  0  0  0  0
    0.6380   25.1070  -25.8570 N   0  0  0  0  0  0  0  0  0  0  0  0
   -0.6850   25.5580  -25.4010 C   0  0  0  0  0  0  0  0  0  0  0  0
   -1.2440   26.7110  -26.2630 C   0  0  0  0  0  0  0  0  0  0  0  0
   -0.3070   27.2000  -27.2020 O   0  0  0  0  0  0  0  0  0  0  0  0
    0.9120   27.5010  -26.5600 C   0  0  0  0  0  0  0  0  0  0  0  0
    1.5840   26.2280  -26.0110 C   0  0  0  0  0  0  0  0  0  0  0  0
   -1.6750   24.5380  -28.8350 C   0  0  0  0  0  0  0  0  0  0  0  0
   -1.0340   25.6780  -29.3250 O   0  0  0  0  0  0  0  0  0  0  0  0
   -6.5560   21.8690  -31.8490 C   0  0  0  0  0  0  0  0  0  0  0  0
   -6.4260   20.7880  -32.7260 C   0  0  0  0  0  0  0  0  0  0  0  0
   -6.2888   18.0242  -33.1657 H   0  0  0  0  0  0  0  0  0  0  0  0
   -6.9534   18.6287  -34.7211 H   0  0  0  0  0  0  0  0  0  0  0  0
   -5.5928   17.4560  -34.7211 H   0  0  0  0  0  0  0  0  0  0  0  0
   -3.0968   21.0713  -33.4517 H   0  0  0  0  0  0  0  0  0  0  0  0
   -3.3325   23.0044  -31.8925 H   0  0  0  0  0  0  0  0  0  0  0  0
   -4.7499   23.0710  -29.1374 H   0  0  0  0  0  0  0  0  0  0  0  0
   -3.7484   21.5182  -27.4942 H   0  0  0  0  0  0  0  0  0  0  0  0
   -1.4753   21.8336  -25.4166 H   0  0  0  0  0  0  0  0  0  0  0  0
   -1.8277   20.5569  -26.6300 H   0  0  0  0  0  0  0  0  0  0  0  0
   -0.2310   21.3797  -26.6300 H   0  0  0  0  0  0  0  0  0  0  0  0
   -1.3835   24.7097  -25.4500 H   0  0  0  0  0  0  0  0  0  0  0  0
   -0.5755   25.9314  -24.3721 H   0  0  0  0  0  0  0  0  0  0  0  0
   -2.1280   26.3462  -26.8066 H   0  0  0  0  0  0  0  0  0  0  0  0
   -1.4941   27.5395  -25.5840 H   0  0  0  0  0  0  0  0  0  0  0  0
    1.5888   27.9805  -27.2825 H   0  0  0  0  0  0  0  0  0  0  0  0
    0.7032   28.1752  -25.7163 H   0  0  0  0  0  0  0  0  0  0  0  0
    2.3810   25.9233  -26.7052 H   0  0  0  0  0  0  0  0  0  0  0  0
    1.9827   26.4661  -25.0138 H   0  0  0  0  0  0  0  0  0  0  0  0
   -0.1310   26.0060  -29.0370 H   0  0  0  0  0  0  0  0  0  0  0  0
   -7.5379   22.1011  -31.4110 H   0  0  0  0  0  0  0  0  0  0  0  0
   -7.3037   20.1688  -32.9632 H   0  0  0  0  0  0  0  0  0  0  0  0
  1  2  1  0
  2  3  1  0
  3  4  2  0
  4  5  1  0
  5  6  2  0
  6  7  1  0
  7  8  1  0
  8  9  2  0
  8 10  1  0
 10 11  1  0
 11 12  2  0
 12 13  1  0
 13 14  2  0
 14 15  1  0
 14 16  1  0
 16 17  1  0
 17 18  2  0
 17 19  2  0
 17 20  1  0
 20 21  1  0
 21 22  1  0
 22 23  1  0
 23 24  1  0
 24 25  1  0
 16 26  2  0
 26 27  1  0
  6 28  1  0
 28 29  2  0
 29  3  1  0
 26 11  1  0
 25 20  1  0
  1 30  1  0
  1 31  1  0
  1 32  1  0
  4 33  1  0
  5 34  1  0
 12 35  1  0
 13 36  1  0
 15 37  1  0
 15 38  1  0
 15 39  1  0
 21 40  1  0
 21 41  1  0
 22 42  1  0
 22 43  1  0
 24 44  1  0
 24 45  1  0
 25 46  1  0
 25 47  1  0
 27 48  1  0
 28 49  1  0
 29 50  1  0
M  CHG  2   7  -1  10  -1
M  END
>  <UniqueID>  (43) 
43

>  <SMILES>  (43) 
COc1ccc([N-]C(=O)[N-]c2ccc(C)c(S(=O)(=O)N3CCOCC3)c2O)cc1

>  <Energy>  (43) 
81.47760235808443

>  <Genealogy>  (43) 
COc1ccc([N-]C(=O)[N-]c2ccc(C)c(S(=O)(=O)N3CCOCC3)c2O)cc1 (protonated)
COc1ccc([N-]C(=O)[N-]c2ccc(C)c(S(=O)(=O)N3CCOCC3)c2O)cc1 (3D coordinates assigned)
COc1ccc([N-]C(=O)[N-]c2ccc(C)c(S(=O)(=O)N3CCOCC3)c2O)cc1 (nonaromatic ring conformer: 81.47760235808443 kcal/mol)

>  <smiles>  (43) 
COc1ccc(NC(=O)Nc2ccc(C)c(S(=O)(=O)N3CCOCC3)c2O)cc1

>  <score_type>  (43) 
oracle

>  <origin>  (43) 
adgpu

>  <m_score__min__energy>  (43) 
-12.52

>  <m_primary>  (43) 
energy

$$$$
43:0
     RDKit          3D

 59 62  0  0  0  0  0  0  0  0999 V2000
   -3.3850   21.3100  -33.0720 C   0  0  0  0  0  0  0  0  0  0  0  0
   -4.2360   21.2030  -31.9360 O   0  0  0  0  0  0  0  0  0  0  0  0
   -5.3660   22.0030  -31.7080 C   0  0  0  0  0  0  0  0  0  0  0  0
   -6.5830   21.7770  -32.3830 C   0  0  0  0  0  0  0  0  0  0  0  0
   -7.6980   22.5720  -32.1170 C   0  0  0  0  0  0  0  0  0  0  0  0
   -7.6170   23.6020  -31.1790 C   0  0  0  0  0  0  0  0  0  0  0  0
   -6.4190   23.8390  -30.5030 C   0  0  0  0  0  0  0  0  0  0  0  0
   -5.2860   23.0480  -30.7620 C   0  0  0  0  0  0  0  0  0  0  0  0
   -4.0580   23.3130  -30.0640 N   0  0  0  0  0  0  0  0  0  0  0  0
   -3.3150   22.4180  -29.3780 C   0  0  0  0  0  0  0  0  0  0  0  0
   -2.1900   23.0400  -28.8730 C   0  0  0  0  0  0  0  0  0  0  0  0
   -1.1190   22.3930  -28.0330 C   0  0  2  0  0  0  0  0  0  0  0  0
   -1.6360   22.0600  -26.7690 O   0  0  0  0  0  0  0  0  0  0  0  0
    0.0420   23.2810  -27.8940 N   0  0  0  0  0  0  0  0  0  0  0  0
    0.1700   24.2940  -26.8760 C   0  0  0  0  0  0  0  0  0  0  0  0
   -0.9540   24.8910  -26.2730 C   0  0  0  0  0  0  0  0  0  0  0  0
   -0.7910   25.8590  -25.2780 C   0  0  0  0  0  0  0  0  0  0  0  0
    0.4900   26.2510  -24.8760 C   0  0  0  0  0  0  0  0  0  0  0  0
    0.6770   27.4480  -23.5960 S   0  0  0  0  0  0  0  0  0  0  0  0
   -0.2560   27.1290  -22.4610 O   0  0  0  0  0  0  0  0  0  0  0  0
    2.0880   27.3720  -23.0810 O   0  0  0  0  0  0  0  0  0  0  0  0
    0.3720   29.0620  -24.2090 N   0  0  0  0  0  0  0  0  0  0  0  0
    1.5950   29.6690  -24.7820 C   0  0  0  0  0  0  0  0  0  0  0  0
    2.0030   29.0450  -26.1270 C   0  0  0  0  0  0  0  0  0  0  0  0
    0.8040   28.7410  -27.0420 C   0  0  0  0  0  0  0  0  0  0  0  0
   -0.4630   29.4560  -26.5810 C   0  0  0  0  0  0  0  0  0  0  0  0
   -0.8030   29.0820  -25.1260 C   0  0  0  0  0  0  0  0  0  0  0  0
    1.6110   25.6620  -25.4730 C   0  0  0  0  0  0  0  0  0  0  0  0
    1.4510   24.6950  -26.4670 C   0  0  0  0  0  0  0  0  0  0  0  0
   -2.2500   24.3710  -29.2490 C   0  0  0  0  0  0  0  0  0  0  0  0
   -3.4090   24.4930  -29.9840 C   0  0  0  0  0  0  0  0  0  0  0  0
   -3.8630   25.6770  -30.5530 O   0  0  0  0  0  0  0  0  0  0  0  0
   -2.3446   21.4408  -32.7397 H   0  0  0  0  0  0  0  0  0  0  0  0
   -3.4643   20.3948  -33.6771 H   0  0  0  0  0  0  0  0  0  0  0  0
   -3.6884   22.1771  -33.6771 H   0  0  0  0  0  0  0  0  0  0  0  0
   -6.6538   20.9679  -33.1248 H   0  0  0  0  0  0  0  0  0  0  0  0
   -8.6434   22.3865  -32.6479 H   0  0  0  0  0  0  0  0  0  0  0  0
   -8.4978   24.2276  -30.9722 H   0  0  0  0  0  0  0  0  0  0  0  0
   -6.3610   24.6503  -29.7625 H   0  0  0  0  0  0  0  0  0  0  0  0
   -3.5672   21.3560  -29.2422 H   0  0  0  0  0  0  0  0  0  0  0  0
   -0.7870   21.4732  -28.5367 H   0  0  0  0  0  0  0  0  0  0  0  0
   -2.2480   21.2860  -26.8880 H   0  0  0  0  0  0  0  0  0  0  0  0
    0.8350   23.1560  -28.5630 H   0  0  0  0  0  0  0  0  0  0  0  0
   -1.9656   24.5939  -26.5867 H   0  0  0  0  0  0  0  0  0  0  0  0
   -1.6751   26.3150  -24.8085 H   0  0  0  0  0  0  0  0  0  0  0  0
    0.1250   29.6340  -23.3670 H   0  0  0  0  0  0  0  0  0  0  0  0
    1.4145   30.7433  -24.9346 H   0  0  0  0  0  0  0  0  0  0  0  0
    2.4157   29.4867  -24.0727 H   0  0  0  0  0  0  0  0  0  0  0  0
    2.6723   29.7450  -26.6486 H   0  0  0  0  0  0  0  0  0  0  0  0
    2.4975   28.0874  -25.9068 H   0  0  0  0  0  0  0  0  0  0  0  0
    1.0450   29.0690  -28.0639 H   0  0  0  0  0  0  0  0  0  0  0  0
    0.6151   27.6579  -27.0058 H   0  0  0  0  0  0  0  0  0  0  0  0
   -0.3081   30.5430  -26.6472 H   0  0  0  0  0  0  0  0  0  0  0  0
   -1.2972   29.1481  -27.2285 H   0  0  0  0  0  0  0  0  0  0  0  0
   -1.5277   29.8150  -24.7419 H   0  0  0  0  0  0  0  0  0  0  0  0
   -1.2034   28.0577  -25.1486 H   0  0  0  0  0  0  0  0  0  0  0  0
    2.6212   25.9622  -25.1578 H   0  0  0  0  0  0  0  0  0  0  0  0
    2.3381   24.2428  -26.9344 H   0  0  0  0  0  0  0  0  0  0  0  0
   -1.5254   25.1637  -29.0112 H   0  0  0  0  0  0  0  0  0  0  0  0
  1  2  1  0
  2  3  1  0
  3  4  2  0
  4  5  1  0
  5  6  2  0
  6  7  1  0
  7  8  2  0
  8  9  1  0
  9 10  1  0
 10 11  2  0
 11 12  1  0
 12 13  1  0
 12 14  1  0
 14 15  1  0
 15 16  2  0
 16 17  1  0
 17 18  2  0
 18 19  1  0
 19 20  2  0
 19 21  2  0
 19 22  1  0
 22 23  1  0
 23 24  1  0
 24 25  1  0
 25 26  1  0
 26 27  1  0
 18 28  1  0
 28 29  2  0
 11 30  1  0
 30 31  2  0
 31 32  1  0
  8  3  1  0
 31  9  1  0
 29 15  1  0
 27 22  1  0
  1 33  1  0
  1 34  1  0
  1 35  1  0
  4 36  1  0
  5 37  1  0
  6 38  1  0
  7 39  1  0
 10 40  1  0
 12 41  1  6
 13 42  1  0
 14 43  1  0
 16 44  1  0
 17 45  1  0
 22 46  1  0
 23 47  1  0
 23 48  1  0
 24 49  1  0
 24 50  1  0
 25 51  1  0
 25 52  1  0
 26 53  1  0
 26 54  1  0
 27 55  1  0
 27 56  1  0
 28 57  1  0
 29 58  1  0
 30 59  1  0
M  CHG  2  22   1  32  -1
M  END
>  <UniqueID>  (44) 
44

>  <SMILES>  (44) 
COc1ccccc1-n1cc([C@H](O)Nc2ccc(S(=O)(=O)[NH+]3CCCCC3)cc2)cc1[O-]

>  <Energy>  (44) 
100.68749213708803

>  <Genealogy>  (44) 
COc1ccccc1-n1cc(C(O)Nc2ccc(S(=O)(=O)[NH+]3CCCCC3)cc2)cc1[O-] (protonated)
COc1ccccc1-n1cc([C@H](O)Nc2ccc(S(=O)(=O)[NH+]3CCCCC3)cc2)cc1[O-] (chirality)
COc1ccccc1-n1cc([C@H](O)Nc2ccc(S(=O)(=O)[NH+]3CCCCC3)cc2)cc1[O-] (3D coordinates assigned)
COc1ccccc1-n1cc([C@H](O)Nc2ccc(S(=O)(=O)[NH+]3CCCCC3)cc2)cc1[O-] (nonaromatic ring conformer: 100.68749213708803 kcal/mol)

>  <smiles>  (44) 
COc1ccccc1-n1cc(C(O)Nc2ccc(S(=O)(=O)N3CCCCC3)cc2)cc1O

>  <score_type>  (44) 
oracle

>  <origin>  (44) 
adgpu

>  <m_score__min__energy>  (44) 
-10.94

>  <m_primary>  (44) 
energy

$$$$
44:0
     RDKit          3D

 48 50  0  0  0  0  0  0  0  0999 V2000
   -9.4890   20.9600  -31.9900 C   0  0  0  0  0  0  0  0  0  0  0  0
   -8.5070   21.9650  -31.4660 C   0  0  0  0  0  0  0  0  0  0  0  0
   -8.1520   21.9810  -30.1080 C   0  0  0  0  0  0  0  0  0  0  0  0
   -7.2210   22.9120  -29.6330 C   0  0  0  0  0  0  0  0  0  0  0  0
   -6.6300   23.8270  -30.5140 C   0  0  0  0  0  0  0  0  0  0  0  0
   -5.4920   25.0240  -29.9060 S   0  0  0  0  0  0  0  0  0  0  0  0
   -6.0270   26.4000  -30.1830 O   0  0  0  0  0  0  0  0  0  0  0  0
   -5.3160   24.8680  -28.4240 O   0  0  0  0  0  0  0  0  0  0  0  0
   -3.9430   24.8470  -30.6720 N   0  0  0  0  0  0  0  0  0  0  0  0
   -3.0820   23.7120  -30.4910 C   0  0  0  0  0  0  0  0  0  0  0  0
   -3.0180   22.6910  -31.4550 C   0  0  0  0  0  0  0  0  0  0  0  0
   -2.2270   21.5560  -31.2450 C   0  0  0  0  0  0  0  0  0  0  0  0
   -2.1500   20.2970  -32.4790 S   0  0  0  0  0  0  0  0  0  0  0  0
   -1.2250   20.7500  -33.5760 O   0  0  0  0  0  0  0  0  0  0  0  0
   -1.5780   19.0410  -31.8780 O   0  0  0  0  0  0  0  0  0  0  0  0
   -3.7220   19.9360  -33.1520 N   0  0  0  0  0  0  0  0  0  0  0  0
   -3.6890   18.6460  -33.8750 C   0  0  0  0  0  0  0  0  0  0  0  0
   -5.1040   18.1260  -34.2100 C   0  0  0  0  0  0  0  0  0  0  0  0
   -6.1500   19.2430  -34.1380 C   0  0  0  0  0  0  0  0  0  0  0  0
   -6.1570   19.9130  -32.7520 C   0  0  0  0  0  0  0  0  0  0  0  0
   -4.7600   19.9330  -32.1080 C   0  0  0  0  0  0  0  0  0  0  0  0
   -1.4830   21.4460  -30.0660 C   0  0  0  0  0  0  0  0  0  0  0  0
   -1.5160   22.4710  -29.1210 C   0  0  0  0  0  0  0  0  0  0  0  0
   -2.3040   23.6070  -29.3270 C   0  0  0  0  0  0  0  0  0  0  0  0
   -2.3100   24.6100  -28.3580 O   0  0  0  0  0  0  0  0  0  0  0  0
   -6.9710   23.8010  -31.8730 C   0  0  0  0  0  0  0  0  0  0  0  0
   -7.9030   22.8740  -32.3470 C   0  0  0  0  0  0  0  0  0  0  0  0
   -9.9824   20.4551  -31.1464 H   0  0  0  0  0  0  0  0  0  0  0  0
  -10.2449   21.4716  -32.6040 H   0  0  0  0  0  0  0  0  0  0  0  0
   -8.9601   20.2162  -32.6040 H   0  0  0  0  0  0  0  0  0  0  0  0
   -8.6073   21.2589  -29.4143 H   0  0  0  0  0  0  0  0  0  0  0  0
   -6.9530   22.9252  -28.5662 H   0  0  0  0  0  0  0  0  0  0  0  0
   -3.5967   22.7854  -32.3857 H   0  0  0  0  0  0  0  0  0  0  0  0
   -3.1301   18.7803  -34.8129 H   0  0  0  0  0  0  0  0  0  0  0  0
   -3.2044   17.9059  -33.2212 H   0  0  0  0  0  0  0  0  0  0  0  0
   -5.0985   17.7078  -35.2274 H   0  0  0  0  0  0  0  0  0  0  0  0
   -5.3712   17.3578  -33.4694 H   0  0  0  0  0  0  0  0  0  0  0  0
   -5.9186   20.0006  -34.9012 H   0  0  0  0  0  0  0  0  0  0  0  0
   -7.1420   18.8023  -34.3160 H   0  0  0  0  0  0  0  0  0  0  0  0
   -6.5114   20.9486  -32.8611 H   0  0  0  0  0  0  0  0  0  0  0  0
   -6.8214   19.3287  -32.0983 H   0  0  0  0  0  0  0  0  0  0  0  0
   -4.6571   20.8371  -31.4900 H   0  0  0  0  0  0  0  0  0  0  0  0
   -4.6390   19.0364  -31.4823 H   0  0  0  0  0  0  0  0  0  0  0  0
   -0.8712   20.5502  -29.8839 H   0  0  0  0  0  0  0  0  0  0  0  0
   -0.9154   22.3846  -28.2035 H   0  0  0  0  0  0  0  0  0  0  0  0
   -3.1310   25.1710  -28.1650 H   0  0  0  0  0  0  0  0  0  0  0  0
   -6.5033   24.5129  -32.5691 H   0  0  0  0  0  0  0  0  0  0  0  0
   -8.1640   22.8571  -33.4154 H   0  0  0  0  0  0  0  0  0  0  0  0
  1  2  1  0
  2  3  2  0
  3  4  1  0
  4  5  2  0
  5  6  1  0
  6  7  2  0
  6  8  2  0
  6  9  1  0
  9 10  1  0
 10 11  2  0
 11 12  1  0
 12 13  1  0
 13 14  2  0
 13 15  2  0
 13 16  1  0
 16 17  1  0
 17 18  1  0
 18 19  1  0
 19 20  1  0
 20 21  1  0
 12 22  2  0
 22 23  1  0
 23 24  2  0
 24 25  1  0
  5 26  1  0
 26 27  2  0
 27  2  1  0
 24 10  1  0
 21 16  1  0
  1 28  1  0
  1 29  1  0
  1 30  1  0
  3 31  1  0
  4 32  1  0
 11 33  1  0
 17 34  1  0
 17 35  1  0
 18 36  1  0
 18 37  1  0
 19 38  1  0
 19 39  1  0
 20 40  1  0
 20 41  1  0
 21 42  1  0
 21 43  1  0
 22 44  1  0
 23 45  1  0
 25 46  1  0
 26 47  1  0
 27 48  1  0
M  CHG  1   9  -1
M  END
>  <UniqueID>  (45) 
45

>  <SMILES>  (45) 
Cc1ccc(S(=O)(=O)[N-]c2cc(S(=O)(=O)N3CCCCC3)ccc2O)cc1

>  <Energy>  (45) 
54.150116597619466

>  <Genealogy>  (45) 
Cc1ccc(S(=O)(=O)[N-]c2cc(S(=O)(=O)N3CCCCC3)ccc2O)cc1 (protonated)
Cc1ccc(S(=O)(=O)[N-]c2cc(S(=O)(=O)N3CCCCC3)ccc2O)cc1 (3D coordinates assigned)
Cc1ccc(S(=O)(=O)[N-]c2cc(S(=O)(=O)N3CCCCC3)ccc2O)cc1 (nonaromatic ring conformer: 54.150116597619466 kcal/mol)

>  <smiles>  (45) 
Cc1ccc(S(=O)(=O)Nc2cc(S(=O)(=O)N3CCCCC3)ccc2O)cc1

>  <score_type>  (45) 
oracle

>  <origin>  (45) 
adgpu

>  <m_score__min__energy>  (45) 
-11.41

>  <m_primary>  (45) 
energy

$$$$
45:0
     RDKit          3D

 48 50  0  0  0  0  0  0  0  0999 V2000
   -5.8940   16.3150  -34.0640 C   0  0  0  0  0  0  0  0  0  0  0  0
   -6.4840   17.5710  -33.4980 C   0  0  0  0  0  0  0  0  0  0  0  0
   -6.1320   18.8300  -34.0040 C   0  0  0  0  0  0  0  0  0  0  0  0
   -6.7210   19.9810  -33.4790 C   0  0  0  0  0  0  0  0  0  0  0  0
   -7.6750   19.8650  -32.4630 C   0  0  0  0  0  0  0  0  0  0  0  0
   -8.2740   21.0330  -31.8860 N   0  0  0  0  0  0  0  0  0  0  0  0
   -9.7200   21.1990  -32.0520 C   0  0  0  0  0  0  0  0  0  0  0  0
   -7.4640   22.1630  -31.4950 C   0  0  0  0  0  0  0  0  0  0  0  0
   -7.3660   22.5740  -30.1590 C   0  0  0  0  0  0  0  0  0  0  0  0
   -6.5770   23.6740  -29.8310 C   0  0  0  0  0  0  0  0  0  0  0  0
   -5.8760   24.3400  -30.8440 C   0  0  0  0  0  0  0  0  0  0  0  0
   -5.0060   25.4930  -30.5500 C   0  0  0  0  0  0  0  0  0  0  0  0
   -5.5090   26.6280  -30.3330 O   0  0  0  0  0  0  0  0  0  0  0  0
   -3.5890   25.2950  -30.4560 N   0  0  0  0  0  0  0  0  0  0  0  0
   -2.9070   24.4260  -29.5370 C   0  0  0  0  0  0  0  0  0  0  0  0
   -2.4140   24.9050  -28.3100 C   0  0  0  0  0  0  0  0  0  0  0  0
   -1.7530   24.0480  -27.4280 C   0  0  0  0  0  0  0  0  0  0  0  0
   -1.5570   22.7040  -27.7660 C   0  0  0  0  0  0  0  0  0  0  0  0
   -0.7560   21.6180  -26.6350 S   0  0  0  0  0  0  0  0  0  0  0  0
   -1.7170   20.1980  -26.4190 N   0  0  0  0  0  0  0  0  0  0  0  0
   -0.5710   22.3050  -25.3120 O   0  0  0  0  0  0  0  0  0  0  0  0
    0.5940   21.2320  -27.1690 O   0  0  0  0  0  0  0  0  0  0  0  0
   -2.0260   22.2210  -28.9950 C   0  0  0  0  0  0  0  0  0  0  0  0
   -2.6900   23.0770  -29.8910 C   0  0  0  0  0  0  0  0  0  0  0  0
   -3.1850   22.5460  -31.2080 C   0  0  0  0  0  0  0  0  0  0  0  0
   -5.9860   23.8910  -32.1240 N   0  0  0  0  0  0  0  0  0  0  0  0
   -6.7530   22.8460  -32.4360 N   0  0  0  0  0  0  0  0  0  0  0  0
   -8.0060   18.6340  -31.9880 N   0  0  0  0  0  0  0  0  0  0  0  0
   -7.4430   17.4990  -32.4800 C   0  0  0  0  0  0  0  0  0  0  0  0
   -5.5831   15.6532  -33.2422 H   0  0  0  0  0  0  0  0  0  0  0  0
   -6.6458   15.8031  -34.6826 H   0  0  0  0  0  0  0  0  0  0  0  0
   -5.0200   16.5668  -34.6826 H   0  0  0  0  0  0  0  0  0  0  0  0
   -5.3922   18.9106  -34.8141 H   0  0  0  0  0  0  0  0  0  0  0  0
   -6.4369   20.9724  -33.8616 H   0  0  0  0  0  0  0  0  0  0  0  0
  -10.1987   21.2540  -31.0631 H   0  0  0  0  0  0  0  0  0  0  0  0
   -9.9211   22.1261  -32.6088 H   0  0  0  0  0  0  0  0  0  0  0  0
  -10.1260   20.3416  -32.6088 H   0  0  0  0  0  0  0  0  0  0  0  0
   -7.9099   22.0302  -29.3725 H   0  0  0  0  0  0  0  0  0  0  0  0
   -6.5053   24.0158  -28.7879 H   0  0  0  0  0  0  0  0  0  0  0  0
   -2.5503   25.9634  -28.0431 H   0  0  0  0  0  0  0  0  0  0  0  0
   -1.3851   24.4303  -26.4644 H   0  0  0  0  0  0  0  0  0  0  0  0
   -2.5710   20.3170  -27.0120 H   0  0  0  0  0  0  0  0  0  0  0  0
   -2.0430   20.1960  -25.4260 H   0  0  0  0  0  0  0  0  0  0  0  0
   -1.8735   21.1645  -29.2606 H   0  0  0  0  0  0  0  0  0  0  0  0
   -3.9250   21.7522  -31.0285 H   0  0  0  0  0  0  0  0  0  0  0  0
   -3.6530   23.3611  -31.7794 H   0  0  0  0  0  0  0  0  0  0  0  0
   -2.3391   22.1363  -31.7794 H   0  0  0  0  0  0  0  0  0  0  0  0
   -7.7418   16.5201  -32.0770 H   0  0  0  0  0  0  0  0  0  0  0  0
  1  2  1  0
  2  3  2  0
  3  4  1  0
  4  5  2  0
  5  6  1  0
  6  7  1  0
  6  8  1  0
  8  9  2  0
  9 10  1  0
 10 11  2  0
 11 12  1  0
 12 13  2  0
 12 14  1  0
 14 15  1  0
 15 16  2  0
 16 17  1  0
 17 18  2  0
 18 19  1  0
 19 20  1  0
 19 21  2  0
 19 22  2  0
 18 23  1  0
 23 24  2  0
 24 25  1  0
 11 26  1  0
 26 27  2  0
  5 28  1  0
 28 29  2  0
 29  2  1  0
 27  8  1  0
 24 15  1  0
  1 30  1  0
  1 31  1  0
  1 32  1  0
  3 33  1  0
  4 34  1  0
  7 35  1  0
  7 36  1  0
  7 37  1  0
  9 38  1  0
 10 39  1  0
 16 40  1  0
 17 41  1  0
 20 42  1  0
 20 43  1  0
 23 44  1  0
 25 45  1  0
 25 46  1  0
 25 47  1  0
 29 48  1  0
M  CHG  1  14  -1
M  END
>  <UniqueID>  (46) 
46

>  <SMILES>  (46) 
Cc1ccc(N(C)c2ccc(C(=O)[N-]c3ccc(S(N)(=O)=O)cc3C)nn2)nc1

>  <Energy>  (46) 
62.27229617272234

>  <Genealogy>  (46) 
Cc1ccc(N(C)c2ccc(C(=O)[N-]c3ccc(S(N)(=O)=O)cc3C)nn2)nc1 (protonated)
Cc1ccc(N(C)c2ccc(C(=O)[N-]c3ccc(S(N)(=O)=O)cc3C)nn2)nc1 (3D coordinates assigned)
Cc1ccc(N(C)c2ccc(C(=O)[N-]c3ccc(S(N)(=O)=O)cc3C)nn2)nc1 (optimized conformer: 62.27229617272234 kcal/mol)

>  <smiles>  (46) 
Cc1ccc(N(C)c2ccc(C(=O)Nc3ccc(S(N)(=O)=O)cc3C)nn2)nc1

>  <score_type>  (46) 
oracle

>  <origin>  (46) 
adgpu

>  <m_score__min__energy>  (46) 
-11.66

>  <m_primary>  (46) 
energy

$$$$
46:0
     RDKit          3D

 43 46  0  0  0  0  0  0  0  0999 V2000
   -0.8730   26.9470  -27.0000 C   0  0  0  0  0  0  0  0  0  0  0  0
   -0.3220   25.5560  -27.1780 C   0  0  0  0  0  0  0  0  0  0  0  0
    0.6480   25.0900  -26.2750 C   0  0  0  0  0  0  0  0  0  0  0  0
    1.1560   23.7950  -26.3860 C   0  0  0  0  0  0  0  0  0  0  0  0
    0.7080   22.9510  -27.4010 C   0  0  0  0  0  0  0  0  0  0  0  0
   -0.2430   23.4020  -28.3230 C   0  0  0  0  0  0  0  0  0  0  0  0
   -0.7600   22.3160  -29.6060 Cl  0  0  0  0  0  0  0  0  0  0  0  0
   -0.7470   24.7130  -28.2350 C   0  0  0  0  0  0  0  0  0  0  0  0
   -1.7100   25.1630  -29.2000 N   0  0  0  0  0  0  0  0  0  0  0  0
   -2.9980   24.5530  -29.3400 C   0  0  0  0  0  0  0  0  0  0  0  0
   -3.4150   23.7470  -28.4640 O   0  0  0  0  0  0  0  0  0  0  0  0
   -3.8240   24.9020  -30.4560 N   0  0  0  0  0  0  0  0  0  0  0  0
   -5.0320   24.2320  -30.8420 C   0  0  0  0  0  0  0  0  0  0  0  0
   -6.2590   24.7500  -30.4160 C   0  0  0  0  0  0  0  0  0  0  0  0
   -7.4560   24.1350  -30.7950 C   0  0  0  0  0  0  0  0  0  0  0  0
   -7.4340   23.0130  -31.6270 C   0  0  0  0  0  0  0  0  0  0  0  0
   -6.2190   22.5080  -32.1020 C   0  0  0  0  0  0  0  0  0  0  0  0
   -6.2430   21.3870  -32.9470 O   0  0  0  0  0  0  0  0  0  0  0  0
   -6.9410   20.1980  -32.6940 C   0  0  0  0  0  0  0  0  0  0  0  0
   -8.0190   20.1570  -31.8520 N   0  0  0  0  0  0  0  0  0  0  0  0
   -8.6870   18.9870  -31.6000 C   0  0  0  0  0  0  0  0  0  0  0  0
   -8.2800   17.8190  -32.1820 N   0  0  0  0  0  0  0  0  0  0  0  0
   -7.2060   17.8520  -33.0060 C   0  0  0  0  0  0  0  0  0  0  0  0
   -6.6690   16.8090  -33.6560 N   0  0  0  0  0  0  0  0  0  0  0  0
   -5.6240   17.3190  -34.3500 C   0  0  0  0  0  0  0  0  0  0  0  0
   -5.5040   18.6910  -34.1340 C   0  0  0  0  0  0  0  0  0  0  0  0
   -6.5310   19.0040  -33.2700 C   0  0  0  0  0  0  0  0  0  0  0  0
   -5.0150   23.1110  -31.6940 C   0  0  0  0  0  0  0  0  0  0  0  0
   -0.9620   27.1716  -25.9269 H   0  0  0  0  0  0  0  0  0  0  0  0
   -0.1946   27.6732  -27.4716 H   0  0  0  0  0  0  0  0  0  0  0  0
   -1.8647   27.0117  -27.4716 H   0  0  0  0  0  0  0  0  0  0  0  0
    1.0100   25.7512  -25.4739 H   0  0  0  0  0  0  0  0  0  0  0  0
    1.9120   23.4392  -25.6706 H   0  0  0  0  0  0  0  0  0  0  0  0
    1.1033   21.9273  -27.4773 H   0  0  0  0  0  0  0  0  0  0  0  0
   -1.5000   26.0190  -29.7620 H   0  0  0  0  0  0  0  0  0  0  0  0
   -6.2826   25.6465  -29.7790 H   0  0  0  0  0  0  0  0  0  0  0  0
   -8.4163   24.5351  -30.4376 H   0  0  0  0  0  0  0  0  0  0  0  0
   -8.3776   22.5238  -31.9103 H   0  0  0  0  0  0  0  0  0  0  0  0
   -9.5558   18.9879  -30.9254 H   0  0  0  0  0  0  0  0  0  0  0  0
   -6.9860   15.8160  -33.6320 H   0  0  0  0  0  0  0  0  0  0  0  0
   -4.9586   16.7294  -34.9977 H   0  0  0  0  0  0  0  0  0  0  0  0
   -4.7541   19.3739  -34.5598 H   0  0  0  0  0  0  0  0  0  0  0  0
   -4.0544   22.7042  -32.0428 H   0  0  0  0  0  0  0  0  0  0  0  0
  1  2  1  0
  2  3  2  0
  3  4  1  0
  4  5  2  0
  5  6  1  0
  6  7  1  0
  6  8  2  0
  8  9  1  0
  9 10  1  0
 10 11  2  0
 10 12  1  0
 12 13  1  0
 13 14  2  0
 14 15  1  0
 15 16  2  0
 16 17  1  0
 17 18  1  0
 18 19  1  0
 19 20  2  0
 20 21  1  0
 21 22  2  0
 22 23  1  0
 23 24  1  0
 24 25  1  0
 25 26  2  0
 26 27  1  0
 17 28  2  0
  8  2  1  0
 28 13  1  0
 27 19  1  0
 27 23  2  0
  1 29  1  0
  1 30  1  0
  1 31  1  0
  3 32  1  0
  4 33  1  0
  5 34  1  0
  9 35  1  0
 14 36  1  0
 15 37  1  0
 16 38  1  0
 21 39  1  0
 24 40  1  0
 25 41  1  0
 26 42  1  0
 28 43  1  0
M  CHG  1  12  -1
M  END
>  <UniqueID>  (47) 
47

>  <SMILES>  (47) 
Cc1cccc(Cl)c1NC(=O)[N-]c1cccc(Oc2ncnc3[nH]ccc23)c1

>  <Energy>  (47) 
97.09813138231797

>  <Genealogy>  (47) 
Cc1cccc(Cl)c1NC(=O)[N-]c1cccc(Oc2ncnc3[nH]ccc23)c1 (protonated)
Cc1cccc(Cl)c1NC(=O)[N-]c1cccc(Oc2ncnc3[nH]ccc23)c1 (3D coordinates assigned)
Cc1cccc(Cl)c1NC(=O)[N-]c1cccc(Oc2ncnc3[nH]ccc23)c1 (optimized conformer: 97.09813138231797 kcal/mol)

>  <smiles>  (47) 
Cc1cccc(Cl)c1NC(=O)Nc1cccc(Oc2ncnc3[nH]ccc23)c1

>  <score_type>  (47) 
oracle

>  <origin>  (47) 
adgpu

>  <m_score__min__energy>  (47) 
-10.84

>  <m_primary>  (47) 
energy

$$$$
